0:0:0
     RDKit          3D

 93100  0  0  1  0  0  0  0  0999 V2000
  -26.3700  -23.3970   23.2070 C   0  0  0  0  0  2  0  0  0  0  0  0
  -27.5980  -23.2580   22.5000 O   0  0  0  0  0  0  0  0  0  0  0  0
  -28.3910  -22.1830   22.9850 C   0  0  0  0  0  2  0  0  0  0  0  0
  -29.4780  -21.8110   21.9620 C   0  0  0  0  0  2  0  0  0  0  0  0
  -28.9960  -20.8740   20.8410 C   0  0  0  0  0  2  0  0  0  0  0  0
  -30.0990  -20.0610   20.4580 O   0  0  0  0  0  0  0  0  0  0  0  0
  -29.7560  -18.9770   19.6040 C   0  0  0  0  0  2  0  0  0  0  0  0
  -30.9320  -17.9880   19.5740 C   0  0  0  0  0  2  0  0  0  0  0  0
  -31.1630  -17.2140   20.8960 C   0  0  0  0  0  2  0  0  0  0  0  0
  -31.2110  -14.7440   20.5960 C   0  0  0  0  0  0  0  0  0  0  0  0
  -31.0380  -12.3390   20.1050 C   0  0  0  0  0  2  0  0  0  0  0  0
  -30.2720  -12.1250   18.7870 C   0  0  0  0  0  2  0  0  0  0  0  0
  -28.7590  -12.0300   19.0620 C   0  0  0  0  0  2  0  0  0  0  0  0
  -28.2400  -13.1940   19.9520 C   0  0  0  0  0  3  0  0  0  0  0  0
  -29.1430  -13.4060   21.1890 C   0  0  0  0  0  2  0  0  0  0  0  0
  -30.5320  -13.5740   20.7230 N   0  0  0  0  0  0  0  0  0  0  0  0
  -32.3550  -14.8070   20.1430 O   0  0  0  0  0  0  0  0  0  0  0  0
  -30.5590  -15.8700   20.9280 N   0  0  0  0  0  0  0  0  0  0  0  0
  -29.6150  -15.7800   21.2770 H   0  0  0  0  0  0  0  0  0  0  0  0
  -25.8440  -13.9250   20.5460 C   0  0  0  0  0  0  0  0  0  0  0  0
  -24.7060  -13.2110   20.8040 C   0  0  0  0  0  0  0  0  0  0  0  0
  -25.0800  -11.8320   20.7290 C   0  0  0  0  0  0  0  0  0  0  0  0
  -26.8430  -12.9880   20.3320 N   0  0  0  0  0  0  0  0  0  0  0  0
  -26.3830  -11.7210   20.5010 N   0  0  0  0  0  0  0  0  0  0  0  0
  -24.2590  -10.6150   20.8000 C   0  0  0  0  0  0  0  0  0  0  0  0
  -24.5240   -9.5990   21.7450 C   0  0  0  0  0  3  0  0  0  0  0  0
  -23.7110   -8.4470   21.8070 C   0  0  0  0  0  3  0  0  0  0  0  0
  -22.6160   -8.3030   20.9220 C   0  0  0  0  0  0  0  0  0  0  0  0
  -22.3710   -9.3060   19.9670 C   0  0  0  0  0  3  0  0  0  0  0  0
  -23.1850  -10.4490   19.9030 C   0  0  0  0  0  3  0  0  0  0  0  0
  -21.7860   -7.2090   20.8940 O   0  0  0  0  0  0  0  0  0  0  0  0
  -21.4620   -6.5210   22.0360 C   0  0  0  0  0  0  0  0  0  0  0  0
  -20.8470   -7.1550   23.1390 C   0  0  0  0  0  3  0  0  0  0  0  0
  -20.4660   -6.3980   24.2630 C   0  0  0  0  0  3  0  0  0  0  0  0
  -20.6920   -5.0080   24.2860 C   0  0  0  0  0  0  0  0  0  0  0  0
  -21.3010   -4.3750   23.1890 C   0  0  0  0  0  3  0  0  0  0  0  0
  -21.6810   -5.1300   22.0660 C   0  0  0  0  0  0  0  0  0  0  0  0
  -22.2470   -4.5120   21.0010 F   0  0  0  0  0  0  0  0  0  0  0  0
  -20.3200   -4.2770   25.3640 F   0  0  0  0  0  0  0  0  0  0  0  0
  -23.3270  -13.7670   21.0130 C   0  0  0  0  0  0  0  0  0  0  0  0
  -22.5010  -13.0860   21.7990 N   0  0  0  0  0  0  0  0  0  0  0  0
  -22.9910  -14.8400   20.5150 O   0  0  0  0  0  0  0  0  0  0  0  0
  -22.7820  -12.2160   22.2250 H   0  0  0  0  0  0  0  0  0  0  0  0
  -21.5720  -13.4410   21.9770 H   0  0  0  0  0  0  0  0  0  0  0  0
  -26.1120  -15.2890   20.4550 N   0  0  0  0  0  0  0  0  0  0  0  0
  -25.3870  -15.9900   20.5620 H   0  0  0  0  0  0  0  0  0  0  0  0
  -27.0160  -15.6810   20.2260 H   0  0  0  0  0  0  0  0  0  0  0  0
  -25.7300  -24.7660   22.9400 C   0  0  0  0  0  2  0  0  0  0  0  0
  -25.7790  -25.2090   21.4690 C   0  0  0  0  0  2  0  0  0  0  0  0
  -27.0920  -25.6680   21.1630 O   0  0  0  0  0  0  0  0  0  0  0  0
  -27.7980  -24.9360   20.1640 C   0  0  0  0  0  2  0  0  0  0  0  0
  -27.2940  -25.1870   18.7300 C   0  0  0  0  0  2  0  0  0  0  0  0
  -27.3720  -26.5780   18.3920 O   0  0  0  0  0  0  0  0  0  0  0  0
  -25.2160  -31.1620   23.3780 C   0  0  0  0  0  0  0  0  0  0  0  0
  -26.3570  -27.3940   18.8380 C   0  0  0  0  0  0  0  0  0  0  0  0
  -23.4760  -30.3850   21.8020 C   0  0  0  0  0  3  0  0  0  0  0  0
  -24.3180  -29.1160   19.7610 C   0  0  0  0  0  0  0  0  0  0  0  0
  -25.9340  -30.4810   21.0940 C   0  0  0  0  0  2  0  0  0  0  0  0
  -25.6440  -29.3250   20.1600 C   0  0  0  0  0  0  0  0  0  0  0  0
  -26.6690  -28.4740   19.6950 C   0  0  0  0  0  3  0  0  0  0  0  0
  -25.0160  -27.2100   18.4290 C   0  0  0  0  0  3  0  0  0  0  0  0
  -23.9970  -28.0600   18.8930 C   0  0  0  0  0  3  0  0  0  0  0  0
  -23.2800  -30.0720   20.2950 C   0  0  0  0  0  2  0  0  0  0  0  0
  -24.9070  -30.6720   22.1460 N   0  0  0  0  0  0  0  0  0  0  0  0
  -24.3300  -31.4110   24.2070 O   0  0  0  0  0  0  0  0  0  0  0  0
  -22.8700  -29.2320   22.6330 C   0  0  0  0  0  0  0  0  0  0  0  0
  -21.5410  -29.0610   22.5340 N   0  0  0  0  0  0  0  0  0  0  0  0
  -23.5880  -28.4990   23.3180 O   0  0  0  0  0  0  0  0  0  0  0  0
  -21.0200  -29.7060   21.9590 H   0  0  0  0  0  0  0  0  0  0  0  0
  -18.2550  -27.5730   22.7350 C   0  0  0  0  0  0  0  0  0  0  0  0
  -20.7580  -28.0200   23.2000 C   0  0  0  0  0  3  0  0  0  0  0  0
  -21.0190  -26.6330   22.5650 C   0  0  0  0  0  2  0  0  0  0  0  0
  -20.0210  -26.2790   21.4600 C   0  0  0  0  0  2  0  0  0  0  0  0
  -18.5900  -26.2810   22.0070 C   0  0  0  0  0  2  0  0  0  0  0  0
  -19.2740  -28.3980   23.2810 C   0  0  0  0  0  0  0  0  0  0  0  0
  -18.9100  -29.6060   23.9130 C   0  0  0  0  0  3  0  0  0  0  0  0
  -17.5600  -29.9920   24.0080 C   0  0  0  0  0  3  0  0  0  0  0  0
  -16.5550  -29.1630   23.4810 C   0  0  0  0  0  3  0  0  0  0  0  0
  -16.9020  -27.9550   22.8510 C   0  0  0  0  0  3  0  0  0  0  0  0
  -26.6910  -31.4600   23.7950 C   0  0  0  0  0  3  0  0  0  0  0  0
  -27.2870  -30.3840   24.7840 C   0  0  1  0  0  0  0  0  0  0  0  0
  -26.3770  -30.0850   25.9980 C   0  0  0  0  0  1  0  0  0  0  0  0
  -27.5430  -29.0500   24.0480 C   0  0  0  0  0  1  0  0  0  0  0  0
  -28.6590  -30.8610   25.3150 C   0  0  0  0  0  1  0  0  0  0  0  0
  -26.7200  -32.7980   24.4010 N   0  0  0  0  0  0  0  0  0  0  0  0
  -27.1520  -33.9040   23.7810 C   0  0  0  0  0  0  0  0  0  0  0  0
  -27.6390  -33.8890   22.6470 O   0  0  0  0  0  0  0  0  0  0  0  0
  -26.2980  -32.8910   25.3120 H   0  0  0  0  0  0  0  0  0  0  0  0
  -25.7980  -36.0080   24.0110 C   0  0  0  0  0  1  0  0  0  0  0  0
  -27.0200  -35.2400   24.5370 C   0  0  0  0  0  3  0  0  0  0  0  0
  -29.3780  -35.5420   25.1510 C   0  0  0  0  0  1  0  0  0  0  0  0
  -28.2260  -36.0920   24.4420 N   0  0  0  0  0  0  0  0  0  0  0  0
  -28.0410  -37.0190   24.8160 H   0  0  0  0  0  0  0  0  0  0  0  0
  2  3  1  0
  2  1  1  0
  4  3  1  0
  5  4  1  0
  6  5  1  0
  7  6  1  0
  8  7  1  0
  8  9  1  0
  9 18  1  0
 10 16  1  0
 10 18  1  0
 11 16  1  0
 12 13  1  0
 12 11  1  0
 14 13  1  0
 14 23  1  0
 14 15  1  0
 16 15  1  0
 17 10  2  0
 18 19  1  0
 20 21  2  0
 21 40  1  0
 22 25  1  0
 22 21  1  0
 23 24  1  0
 23 20  1  0
 24 22  2  0
 25 26  1  0
 26 27  2  0
 28 27  1  0
 29 28  2  0
 30 29  1  0
 30 25  2  0
 31 28  1  0
 31 32  1  0
 32 37  2  0
 32 33  1  0
 33 34  2  0
 34 35  1  0
 35 39  1  0
 36 35  2  0
 37 36  1  0
 38 37  1  0
 40 41  1  0
 41 44  1  0
 41 43  1  0
 42 40  2  0
 45 20  1  0
 45 46  1  0
 47 45  1  0
 48  1  1  0
 49 48  1  0
 50 49  1  0
 51 50  1  0
 52 51  1  0
 53 52  1  0
 53 55  1  0
 54 65  2  0
 55 60  1  0
 56 64  1  0
 56 66  1  0
 57 59  1  0
 57 63  1  0
 58 64  1  0
 59 58  1  0
 60 59  2  0
 61 55  2  0
 61 62  1  0
 62 57  2  0
 63 56  1  0
 64 54  1  0
 66 68  2  0
 67 66  1  0
 69 67  1  0
 70 79  2  0
 70 75  1  0
 71 67  1  0
 71 75  1  0
 72 71  1  0
 73 74  1  0
 73 72  1  0
 74 70  1  0
 75 76  2  0
 76 77  1  0
 78 77  2  0
 79 78  1  0
 80 54  1  0
 80 85  1  0
 80 81  1  0
 81 84  1  1
 81 82  1  0
 83 81  1  0
 85 88  1  0
 86 85  1  0
 86 90  1  0
 87 86  2  0
 90 89  1  0
 92 90  1  0
 92 93  1  0
 92 91  1  0
M  ISO  4  10 100  18 100  52 101  53 101
M  END
>  <TORSDO>  (1) 
F 29

>  <SCORE>  (1) 
-6.054

>  <name>  (1) 
0

>  <ligand_id>  (1) 
0

>  <original_smiles>  (1) 
[H]c1c([H])c([H])c2c(c1[H])C([H])([H])C([H])([H])C([H])([H])C2([H])N([H])C(=O)C1([H])N(C(=O)C([H])(N([H])C(=O)C([H])(N([H])C([H])([H])[H])C([H])([H])[H])C(C([H])([H])[H])(C([H])([H])[H])C([H])([H])[H])C([H])([H])c2c([H])c(OC([H])([H])C([H])([H])OC([H])([H])C([H])([H])C([H])([H])OC([H])([H])C([H])([H])C([H])([H])OC([H])([H])C([H])([H])C([H])([H])N([H])C(=O)N3C([H])([H])C([H])([H])C([H])([H])C([H])(n4nc(-c5c([H])c([H])c(Oc6c([H])c([H])c(F)c([H])c6F)c([H])c5[H])c(C(=O)N([H])[H])c4N([H])[H])C3([H])[H])c([H])c([H])c2C1([H])[H]

>  <smiles>  (1) 
[H]c1c([H])c([H])c2c(c1[H])C([H])([H])C([H])([H])C([H])([H])C2([H])N([H])C(=O)C1([H])N(C(=O)C([H])(N([H])C(=O)C([H])(N([H])C([H])([H])[H])C([H])([H])[H])C(C([H])([H])[H])(C([H])([H])[H])C([H])([H])[H])C([H])([H])c2c([H])c(OC([H])([H])C([H])([H])OC([H])([H])C([H])([H])C([H])([H])OC([H])([H])C([H])([H])C([H])([H])OC([H])([H])C([H])([H])C([H])([H])N([H])C(=O)N3C([H])([H])C([H])([H])C([H])([H])C([H])(n4nc(-c5c([H])c([H])c(Oc6c([H])c([H])c(F)c([H])c6F)c([H])c5[H])c(C(=O)N([H])[H])c4N([H])[H])C3([H])[H])c([H])c([H])c2C1([H])[H]

$$$$
1:0:0
     RDKit          3D

 89 97  0  0  1  0  0  0  0  0999 V2000
  -29.3350  -21.5580   20.1680 C   0  0  0  0  0  2  0  0  0  0  0  0
  -28.8380  -20.2520   20.9010 C   0  0  0  0  0  2  0  0  0  0  0  0
  -30.7020  -14.6870   20.0650 C   0  0  0  0  0  0  0  0  0  0  0  0
  -30.3130  -12.4910   18.9760 C   0  0  0  0  0  2  0  0  0  0  0  0
  -29.3180  -12.6160   17.8060 C   0  0  0  0  0  2  0  0  0  0  0  0
  -27.8730  -12.4360   18.3070 C   0  0  0  0  0  2  0  0  0  0  0  0
  -27.5740  -13.2850   19.5680 C   0  0  0  0  0  3  0  0  0  0  0  0
  -28.6990  -13.1630   20.6280 C   0  0  0  0  0  2  0  0  0  0  0  0
  -29.9570  -13.5330   19.9680 N   0  0  0  0  0  0  0  0  0  0  0  0
  -31.8780  -14.6530   19.6890 O   0  0  0  0  0  0  0  0  0  0  0  0
  -28.7610  -16.3670   20.2450 C   0  0  0  0  0  2  0  0  0  0  0  0
  -31.1220  -17.0880   20.3990 C   0  0  0  0  0  2  0  0  0  0  0  0
  -28.3550  -17.8050   20.7130 C   0  0  0  0  0  2  0  0  0  0  0  0
  -30.6400  -18.4780   20.9240 C   0  0  0  0  0  2  0  0  0  0  0  0
  -30.1700  -15.9320   20.4050 N   0  0  0  0  0  0  0  0  0  0  0  0
  -29.3180  -18.8970   20.3980 N   0  0  2  0  0  4  0  0  0  0  0  0
  -29.3830  -18.9490   19.3920 H   0  0  0  0  0  0  0  0  0  0  0  0
  -25.2260  -13.8830   20.4170 C   0  0  0  0  0  0  0  0  0  0  0  0
  -24.1800  -13.1060   20.8300 C   0  0  0  0  0  0  0  0  0  0  0  0
  -24.6400  -11.7550   20.7590 C   0  0  0  0  0  0  0  0  0  0  0  0
  -26.2560  -13.0020   20.1230 N   0  0  0  0  0  0  0  0  0  0  0  0
  -25.9130  -11.7190   20.3910 N   0  0  0  0  0  0  0  0  0  0  0  0
  -23.9240  -10.4910   20.9600 C   0  0  0  0  0  0  0  0  0  0  0  0
  -24.3790   -9.5260   21.8850 C   0  0  0  0  0  3  0  0  0  0  0  0
  -23.6630   -8.3240   22.0750 C   0  0  0  0  0  3  0  0  0  0  0  0
  -22.4790   -8.0810   21.3400 C   0  0  0  0  0  0  0  0  0  0  0  0
  -22.0440   -9.0350   20.4030 C   0  0  0  0  0  3  0  0  0  0  0  0
  -22.7600  -10.2270   20.2110 C   0  0  0  0  0  3  0  0  0  0  0  0
  -21.7320   -6.9330   21.4420 O   0  0  0  0  0  0  0  0  0  0  0  0
  -21.6830   -6.2060   22.6040 C   0  0  0  0  0  0  0  0  0  0  0  0
  -21.2270   -6.7690   23.8160 C   0  0  0  0  0  3  0  0  0  0  0  0
  -21.1290   -5.9680   24.9720 C   0  0  0  0  0  3  0  0  0  0  0  0
  -21.4760   -4.6050   24.9140 C   0  0  0  0  0  0  0  0  0  0  0  0
  -21.9250   -4.0420   23.7070 C   0  0  0  0  0  3  0  0  0  0  0  0
  -22.0260   -4.8410   22.5550 C   0  0  0  0  0  0  0  0  0  0  0  0
  -22.4390   -4.2890   21.3890 F   0  0  0  0  0  0  0  0  0  0  0  0
  -21.3750   -3.8320   26.0210 F   0  0  0  0  0  0  0  0  0  0  0  0
  -22.7970  -13.5800   21.1680 C   0  0  0  0  0  0  0  0  0  0  0  0
  -22.1040  -12.8710   22.0530 N   0  0  0  0  0  0  0  0  0  0  0  0
  -22.3390  -14.6140   20.6840 O   0  0  0  0  0  0  0  0  0  0  0  0
  -22.4870  -12.0360   22.4690 H   0  0  0  0  0  0  0  0  0  0  0  0
  -21.1770  -13.1710   22.3180 H   0  0  0  0  0  0  0  0  0  0  0  0
  -25.3720  -15.2560   20.2380 N   0  0  0  0  0  0  0  0  0  0  0  0
  -24.5820  -15.8820   20.3440 H   0  0  0  0  0  0  0  0  0  0  0  0
  -26.1440  -15.6760   19.7400 H   0  0  0  0  0  0  0  0  0  0  0  0
  -28.6980  -22.7550   20.7080 O   0  0  0  0  0  0  0  0  0  0  0  0
  -28.9740  -24.0380   20.0740 C   0  0  0  0  0  2  0  0  0  0  0  0
  -28.2220  -25.2420   20.7650 C   0  0  0  0  0  2  0  0  0  0  0  0
  -28.4100  -26.5970   20.2270 O   0  0  0  0  0  0  0  0  0  0  0  0
  -24.6200  -31.9050   23.2540 C   0  0  0  0  0  0  0  0  0  0  0  0
  -27.2780  -27.4070   20.2050 C   0  0  0  0  0  0  0  0  0  0  0  0
  -23.4260  -30.4890   21.6190 C   0  0  0  0  0  3  0  0  0  0  0  0
  -24.8890  -28.9540   20.1950 C   0  0  0  0  0  0  0  0  0  0  0  0
  -25.9580  -30.8440   21.4290 C   0  0  0  0  0  2  0  0  0  0  0  0
  -26.0510  -29.4700   20.7840 C   0  0  0  0  0  0  0  0  0  0  0  0
  -27.2520  -28.7080   20.7770 C   0  0  0  0  0  3  0  0  0  0  0  0
  -26.0990  -26.9310   19.5900 C   0  0  0  0  0  3  0  0  0  0  0  0
  -24.9120  -27.6870   19.5880 C   0  0  0  0  0  3  0  0  0  0  0  0
  -23.6430  -29.8120   20.2410 C   0  0  0  0  0  2  0  0  0  0  0  0
  -24.6860  -31.0960   22.1570 N   0  0  0  0  0  0  0  0  0  0  0  0
  -23.5360  -32.1730   23.7920 O   0  0  0  0  0  0  0  0  0  0  0  0
  -22.7780  -29.4680   22.5830 C   0  0  0  0  0  0  0  0  0  0  0  0
  -21.4540  -29.2770   22.4580 N   0  0  0  0  0  0  0  0  0  0  0  0
  -23.4650  -28.8500   23.4010 O   0  0  0  0  0  0  0  0  0  0  0  0
  -20.9580  -29.8280   21.7710 H   0  0  0  0  0  0  0  0  0  0  0  0
  -18.0890  -28.0580   22.9670 C   0  0  0  0  0  0  0  0  0  0  0  0
  -20.6450  -28.3360   23.2340 C   0  0  0  0  0  3  0  0  0  0  0  0
  -20.7560  -26.9030   22.6630 C   0  0  0  0  0  2  0  0  0  0  0  0
  -19.6550  -26.5690   21.6520 C   0  0  0  0  0  2  0  0  0  0  0  0
  -18.2720  -26.7080   22.2970 C   0  0  0  0  0  2  0  0  0  0  0  0
  -19.2020  -28.8290   23.3930 C   0  0  0  0  0  0  0  0  0  0  0  0
  -18.9750  -30.0940   23.9810 C   0  0  0  0  0  3  0  0  0  0  0  0
  -17.6670  -30.5860   24.1460 C   0  0  0  0  0  3  0  0  0  0  0  0
  -16.5670  -29.8110   23.7370 C   0  0  0  0  0  3  0  0  0  0  0  0
  -16.7790  -28.5500   23.1540 C   0  0  0  0  0  3  0  0  0  0  0  0
  -25.9000  -32.5500   23.8700 C   0  0  0  0  0  3  0  0  0  0  0  0
  -26.4130  -31.8030   25.1620 C   0  0  1  0  0  0  0  0  0  0  0  0
  -25.3150  -31.5800   26.2280 C   0  0  0  0  0  1  0  0  0  0  0  0
  -27.0010  -30.4200   24.7980 C   0  0  0  0  0  1  0  0  0  0  0  0
  -27.5570  -32.6120   25.8160 C   0  0  0  0  0  1  0  0  0  0  0  0
  -25.5860  -33.9520   24.1740 N   0  0  0  0  0  0  0  0  0  0  0  0
  -25.9190  -34.9930   23.3980 C   0  0  0  0  0  0  0  0  0  0  0  0
  -26.5920  -34.8720   22.3710 O   0  0  0  0  0  0  0  0  0  0  0  0
  -24.9880  -34.1200   24.9690 H   0  0  0  0  0  0  0  0  0  0  0  0
  -24.1910  -36.7780   23.0040 C   0  0  0  0  0  1  0  0  0  0  0  0
  -25.4280  -36.3870   23.8300 C   0  0  0  0  0  3  0  0  0  0  0  0
  -27.5540  -37.2880   24.6630 C   0  0  0  0  0  1  0  0  0  0  0  0
  -26.4600  -37.4400   23.7080 N   0  0  0  0  0  0  0  0  0  0  0  0
  -26.0510  -38.3610   23.8390 H   0  0  0  0  0  0  0  0  0  0  0  0
  1 46  1  0
  1  2  1  0
  3 15  1  0
  4  9  1  0
  5  6  1  0
  5  4  1  0
  7  6  1  0
  7 21  1  0
  7  8  1  0
  9  3  1  0
  9  8  1  0
 10  3  2  0
 11 15  1  0
 11 13  1  0
 12 15  1  0
 12 14  1  0
 16 13  1  0
 16  2  1  0
 16 14  1  0
 16 17  1  6
 18 19  2  0
 19 38  1  0
 20 19  1  0
 20 23  1  0
 21 22  1  0
 21 18  1  0
 22 20  2  0
 23 24  1  0
 24 25  2  0
 26 29  1  0
 26 25  1  0
 27 26  2  0
 28 27  1  0
 28 23  2  0
 29 30  1  0
 30 31  1  0
 31 32  2  0
 33 32  1  0
 33 37  1  0
 34 33  2  0
 35 30  2  0
 35 34  1  0
 36 35  1  0
 38 39  1  0
 39 42  1  0
 39 41  1  0
 40 38  2  0
 43 44  1  0
 43 18  1  0
 45 43  1  0
 47 46  1  0
 47 48  1  0
 49 48  1  0
 50 61  2  0
 51 49  1  0
 51 56  1  0
 52 60  1  0
 52 62  1  0
 53 59  1  0
 53 55  1  0
 54 60  1  0
 55 54  1  0
 56 55  2  0
 57 51  2  0
 58 57  1  0
 58 53  2  0
 59 52  1  0
 60 50  1  0
 62 64  2  0
 63 62  1  0
 65 63  1  0
 66 75  2  0
 66 71  1  0
 67 63  1  0
 67 71  1  0
 68 67  1  0
 69 70  1  0
 69 68  1  0
 70 66  1  0
 71 72  2  0
 72 73  1  0
 74 73  2  0
 75 74  1  0
 76 50  1  0
 76 81  1  0
 76 77  1  0
 77 80  1  1
 77 78  1  0
 79 77  1  0
 81 84  1  0
 82 86  1  0
 82 81  1  0
 83 82  2  0
 86 85  1  0
 88 86  1  0
 88 89  1  0
 88 87  1  0
M  ISO  4   3 100  15 100  48 101  49 101
M  END
>  <TORSDO>  (2) 
F 20

>  <SCORE>  (2) 
-13.634

>  <name>  (2) 
1

>  <ligand_id>  (2) 
1

>  <original_smiles>  (2) 
[H]c1c([H])c([H])c2c(c1[H])C([H])([H])C([H])([H])C([H])([H])C2([H])N([H])C(=O)C1([H])N(C(=O)C([H])(N([H])C(=O)C([H])(N([H])C([H])([H])[H])C([H])([H])[H])C(C([H])([H])[H])(C([H])([H])[H])C([H])([H])[H])C([H])([H])c2c([H])c(OC([H])([H])C([H])([H])OC([H])([H])C([H])([H])[N+]3([H])C([H])([H])C([H])([H])N(C(=O)N4C([H])([H])C([H])([H])C([H])([H])C([H])(n5nc(-c6c([H])c([H])c(Oc7c([H])c([H])c(F)c([H])c7F)c([H])c6[H])c(C(=O)N([H])[H])c5N([H])[H])C4([H])[H])C([H])([H])C3([H])[H])c([H])c([H])c2C1([H])[H]

>  <smiles>  (2) 
[H]c1c([H])c([H])c2c(c1[H])C([H])([H])C([H])([H])C([H])([H])C2([H])N([H])C(=O)C1([H])N(C(=O)C([H])(N([H])C(=O)C([H])(N([H])C([H])([H])[H])C([H])([H])[H])C(C([H])([H])[H])(C([H])([H])[H])C([H])([H])[H])C([H])([H])c2c([H])c(OC([H])([H])C([H])([H])OC([H])([H])C([H])([H])[N+]3([H])C([H])([H])C([H])([H])N(C(=O)N4C([H])([H])C([H])([H])C([H])([H])C([H])(n5nc(-c6c([H])c([H])c(Oc7c([H])c([H])c(F)c([H])c7F)c([H])c6[H])c(C(=O)N([H])[H])c5N([H])[H])C4([H])[H])C([H])([H])C3([H])[H])c([H])c([H])c2C1([H])[H]

$$$$
2:0:0
     RDKit          3D

 84 91  0  0  1  0  0  0  0  0999 V2000
  -28.0360  -24.2690   20.5090 C   0  0  0  0  0  2  0  0  0  0  0  0
  -28.2220  -25.8810   20.2090 O   0  0  0  0  0  0  0  0  0  0  0  0
  -24.6160  -31.8370   23.1800 C   0  0  0  0  0  0  0  0  0  0  0  0
  -27.1870  -26.9520   20.2070 C   0  0  0  0  0  0  0  0  0  0  0  0
  -23.4240  -30.4230   21.5540 C   0  0  0  0  0  3  0  0  0  0  0  0
  -24.8760  -28.8110   20.1480 C   0  0  0  0  0  0  0  0  0  0  0  0
  -25.9900  -30.6480   21.3990 C   0  0  0  0  0  2  0  0  0  0  0  0
  -26.0650  -29.2330   20.7580 C   0  0  0  0  0  0  0  0  0  0  0  0
  -27.2180  -28.3250   20.7560 C   0  0  0  0  0  3  0  0  0  0  0  0
  -25.9650  -26.6750   19.5560 C   0  0  0  0  0  3  0  0  0  0  0  0
  -24.8500  -27.5530   19.5260 C   0  0  0  0  0  3  0  0  0  0  0  0
  -23.6540  -29.7270   20.1840 C   0  0  0  0  0  2  0  0  0  0  0  0
  -24.6980  -30.9970   22.0980 N   0  0  0  0  0  0  0  0  0  0  0  0
  -23.5260  -32.1260   23.7010 O   0  0  0  0  0  0  0  0  0  0  0  0
  -22.7360  -29.4330   22.5290 C   0  0  0  0  0  0  0  0  0  0  0  0
  -21.4040  -29.2710   22.4160 N   0  0  0  0  0  0  0  0  0  0  0  0
  -23.4070  -28.8080   23.3540 O   0  0  0  0  0  0  0  0  0  0  0  0
  -20.9170  -29.8260   21.7270 H   0  0  0  0  0  0  0  0  0  0  0  0
  -18.0230  -28.0690   22.9520 C   0  0  0  0  0  0  0  0  0  0  0  0
  -20.5850  -28.3390   23.1970 C   0  0  0  0  0  3  0  0  0  0  0  0
  -20.6840  -26.9040   22.6300 C   0  0  0  0  0  2  0  0  0  0  0  0
  -19.5750  -26.5740   21.6240 C   0  0  0  0  0  2  0  0  0  0  0  0
  -18.1970  -26.7180   22.2770 C   0  0  0  0  0  2  0  0  0  0  0  0
  -19.1440  -28.8370   23.3690 C   0  0  0  0  0  0  0  0  0  0  0  0
  -18.9240  -30.0980   23.9630 C   0  0  0  0  0  3  0  0  0  0  0  0
  -17.6200  -30.5940   24.1420 C   0  0  0  0  0  3  0  0  0  0  0  0
  -16.5140  -29.8250   23.7380 C   0  0  0  0  0  3  0  0  0  0  0  0
  -16.7170  -28.5640   23.1490 C   0  0  0  0  0  3  0  0  0  0  0  0
  -25.8860  -32.4890   23.8060 C   0  0  0  0  0  3  0  0  0  0  0  0
  -26.4090  -31.7230   25.0840 C   0  0  1  0  0  0  0  0  0  0  0  0
  -25.3200  -31.4800   26.1550 C   0  0  0  0  0  1  0  0  0  0  0  0
  -27.0000  -30.3470   24.6990 C   0  0  0  0  0  1  0  0  0  0  0  0
  -27.5570  -32.5240   25.7410 C   0  0  0  0  0  1  0  0  0  0  0  0
  -25.5550  -33.8830   24.1530 N   0  0  0  0  0  0  0  0  0  0  0  0
  -25.8660  -34.9530   23.4100 C   0  0  0  0  0  0  0  0  0  0  0  0
  -26.5250  -34.8730   22.3700 O   0  0  0  0  0  0  0  0  0  0  0  0
  -24.9660  -34.0180   24.9610 H   0  0  0  0  0  0  0  0  0  0  0  0
  -24.1090  -36.7340   23.1180 C   0  0  0  0  0  1  0  0  0  0  0  0
  -25.3720  -36.3320   23.8960 C   0  0  0  0  0  3  0  0  0  0  0  0
  -27.5150  -37.2360   24.6870 C   0  0  0  0  0  1  0  0  0  0  0  0
  -26.3890  -37.4000   23.7720 N   0  0  0  0  0  0  0  0  0  0  0  0
  -25.9750  -38.3130   23.9390 H   0  0  0  0  0  0  0  0  0  0  0  0
  -28.7190  -22.6990   19.9240 C   0  0  0  0  0  2  0  0  0  0  0  0
  -28.9900  -21.2170   20.5850 O   0  0  0  0  0  0  0  0  0  0  0  0
  -29.0780  -19.6810   19.9990 C   0  0  0  0  0  2  0  0  0  0  0  0
  -29.8810  -18.1670   20.5600 C   0  0  0  0  0  2  0  0  0  0  0  0
  -30.3820  -15.2640   20.2540 C   0  0  0  0  0  0  0  0  0  0  0  0
  -30.3490  -12.8260   19.3660 C   0  0  0  0  0  2  0  0  0  0  0  0
  -29.4210  -12.6110   18.1440 C   0  0  0  0  0  2  0  0  0  0  0  0
  -27.9740  -12.3490   18.5940 C   0  0  0  0  0  2  0  0  0  0  0  0
  -27.5290  -13.3180   19.7180 C   0  0  0  0  0  3  0  0  0  0  0  0
  -28.5830  -13.4670   20.8330 C   0  0  0  0  0  2  0  0  0  0  0  0
  -29.8060  -13.9670   20.1860 N   0  0  0  0  0  0  0  0  0  0  0  0
  -31.6080  -15.2630   20.0800 O   0  0  0  0  0  0  0  0  0  0  0  0
  -29.6180  -16.5330   20.3180 N   0  0  0  0  0  0  0  0  0  0  0  0
  -28.6290  -16.3280   20.3210 H   0  0  0  0  0  0  0  0  0  0  0  0
  -25.1610  -13.8840   20.4750 C   0  0  0  0  0  0  0  0  0  0  0  0
  -24.0990  -13.1090   20.8510 C   0  0  0  0  0  0  0  0  0  0  0  0
  -24.5680  -11.7590   20.8280 C   0  0  0  0  0  0  0  0  0  0  0  0
  -26.2030  -13.0060   20.2350 N   0  0  0  0  0  0  0  0  0  0  0  0
  -25.8590  -11.7220   20.5170 N   0  0  0  0  0  0  0  0  0  0  0  0
  -23.8400  -10.4970   21.0260 C   0  0  0  0  0  0  0  0  0  0  0  0
  -24.2820   -9.5240   21.9500 C   0  0  0  0  0  3  0  0  0  0  0  0
  -23.5520   -8.3310   22.1370 C   0  0  0  0  0  3  0  0  0  0  0  0
  -22.3660   -8.1010   21.4000 C   0  0  0  0  0  0  0  0  0  0  0  0
  -21.9430   -9.0620   20.4650 C   0  0  0  0  0  3  0  0  0  0  0  0
  -22.6730  -10.2470   20.2760 C   0  0  0  0  0  3  0  0  0  0  0  0
  -21.6060   -6.9600   21.4960 O   0  0  0  0  0  0  0  0  0  0  0  0
  -21.5890   -6.2020   22.6400 C   0  0  0  0  0  0  0  0  0  0  0  0
  -21.2240   -6.7480   23.8900 C   0  0  0  0  0  3  0  0  0  0  0  0
  -21.1520   -5.9180   25.0260 C   0  0  0  0  0  3  0  0  0  0  0  0
  -21.4340   -4.5440   24.9150 C   0  0  0  0  0  0  0  0  0  0  0  0
  -21.7920   -3.9970   23.6700 C   0  0  0  0  0  3  0  0  0  0  0  0
  -21.8660   -4.8250   22.5350 C   0  0  0  0  0  0  0  0  0  0  0  0
  -22.1910   -4.2890   21.3340 F   0  0  0  0  0  0  0  0  0  0  0  0
  -21.3580   -3.7440   26.0040 F   0  0  0  0  0  0  0  0  0  0  0  0
  -22.7020  -13.5880   21.1150 C   0  0  0  0  0  0  0  0  0  0  0  0
  -21.9740  -12.9020   21.9880 N   0  0  0  0  0  0  0  0  0  0  0  0
  -22.2660  -14.6070   20.5800 O   0  0  0  0  0  0  0  0  0  0  0  0
  -22.3410  -12.0790   22.4420 H   0  0  0  0  0  0  0  0  0  0  0  0
  -21.0360  -13.2060   22.2080 H   0  0  0  0  0  0  0  0  0  0  0  0
  -25.3200  -15.2530   20.2870 N   0  0  0  0  0  0  0  0  0  0  0  0
  -24.5470  -15.9020   20.3920 H   0  0  0  0  0  0  0  0  0  0  0  0
  -26.1550  -15.6900   19.9190 H   0  0  0  0  0  0  0  0  0  0  0  0
  2  1  1  0
  3 14  2  0
  4  2  1  0
  4  9  1  0
  5 13  1  0
  5 15  1  0
  6 12  1  0
  6  8  1  0
  7 13  1  0
  8  7  1  0
  9  8  2  0
 10  4  2  0
 11 10  1  0
 11  6  2  0
 12  5  1  0
 13  3  1  0
 15 17  2  0
 16 15  1  0
 18 16  1  0
 19 28  2  0
 19 24  1  0
 20 16  1  0
 20 24  1  0
 21 20  1  0
 22 23  1  0
 22 21  1  0
 23 19  1  0
 24 25  2  0
 25 26  1  0
 27 26  2  0
 28 27  1  0
 29  3  1  0
 29 34  1  0
 29 30  1  0
 30 33  1  1
 30 31  1  0
 32 30  1  0
 34 37  1  0
 35 39  1  0
 35 34  1  0
 36 35  2  0
 39 38  1  0
 41 39  1  0
 41 42  1  0
 41 40  1  0
 43  1  1  0
 43 44  1  0
 45 46  1  0
 45 44  1  0
 47 55  1  0
 48 53  1  0
 49 50  1  0
 49 48  1  0
 51 50  1  0
 51 60  1  0
 51 52  1  0
 53 47  1  0
 53 52  1  0
 54 47  2  0
 55 56  1  0
 55 46  1  0
 57 58  2  0
 58 77  1  0
 59 58  1  0
 59 62  1  0
 60 57  1  0
 60 61  1  0
 61 59  2  0
 62 63  1  0
 63 64  2  0
 65 68  1  0
 65 64  1  0
 66 65  2  0
 67 66  1  0
 67 62  2  0
 68 69  1  0
 69 70  1  0
 70 71  2  0
 72 71  1  0
 72 76  1  0
 73 72  2  0
 74 69  2  0
 74 73  1  0
 75 74  1  0
 77 78  1  0
 78 81  1  0
 78 80  1  0
 79 77  2  0
 82 83  1  0
 82 57  1  0
 84 82  1  0
M  ISO  4   1 101   2 101  47 100  55 100
M  END
>  <TORSDO>  (3) 
F 20

>  <SCORE>  (3) 
-15.761

>  <name>  (3) 
2

>  <ligand_id>  (3) 
2

>  <original_smiles>  (3) 
[H]c1c([H])c([H])c2c(c1[H])C([H])([H])C([H])([H])C([H])([H])C2([H])N([H])C(=O)C1([H])N(C(=O)C([H])(N([H])C(=O)C([H])(N([H])C([H])([H])[H])C([H])([H])[H])C(C([H])([H])[H])(C([H])([H])[H])C([H])([H])[H])C([H])([H])c2c([H])c(OC([H])([H])C([H])([H])OC([H])([H])C([H])([H])N([H])C(=O)N3C([H])([H])C([H])([H])C([H])([H])C([H])(n4nc(-c5c([H])c([H])c(Oc6c([H])c([H])c(F)c([H])c6F)c([H])c5[H])c(C(=O)N([H])[H])c4N([H])[H])C3([H])[H])c([H])c([H])c2C1([H])[H]

>  <smiles>  (3) 
[H]c1c([H])c([H])c2c(c1[H])C([H])([H])C([H])([H])C([H])([H])C2([H])N([H])C(=O)C1([H])N(C(=O)C([H])(N([H])C(=O)C([H])(N([H])C([H])([H])[H])C([H])([H])[H])C(C([H])([H])[H])(C([H])([H])[H])C([H])([H])[H])C([H])([H])c2c([H])c(OC([H])([H])C([H])([H])OC([H])([H])C([H])([H])N([H])C(=O)N3C([H])([H])C([H])([H])C([H])([H])C([H])(n4nc(-c5c([H])c([H])c(Oc6c([H])c([H])c(F)c([H])c6F)c([H])c5[H])c(C(=O)N([H])[H])c4N([H])[H])C3([H])[H])c([H])c([H])c2C1([H])[H]

$$$$
3:0:0
     RDKit          3D

 87 94  0  0  1  0  0  0  0  0999 V2000
  -29.3160  -21.8620   20.2400 C   0  0  0  0  0  2  0  0  0  0  0  0
  -29.6540  -19.1110   20.5450 C   0  0  0  0  0  0  0  0  0  0  0  0
  -29.0180  -20.3000   20.0670 N   0  0  0  0  0  0  0  0  0  0  0  0
  -30.3690  -19.2000   21.5440 O   0  0  0  0  0  0  0  0  0  0  0  0
  -28.3870  -20.1120   19.2960 H   0  0  0  0  0  0  0  0  0  0  0  0
  -29.6220  -17.6140   19.8180 C   0  0  0  0  0  2  0  0  0  0  0  0
  -30.4920  -14.9930   20.1800 C   0  0  0  0  0  0  0  0  0  0  0  0
  -30.3790  -12.6440   19.2290 C   0  0  0  0  0  2  0  0  0  0  0  0
  -29.4270  -12.6400   18.0080 C   0  0  0  0  0  2  0  0  0  0  0  0
  -27.9650  -12.4380   18.4520 C   0  0  0  0  0  2  0  0  0  0  0  0
  -27.5890  -13.3240   19.6700 C   0  0  0  0  0  3  0  0  0  0  0  0
  -28.6630  -13.2900   20.7790 C   0  0  0  0  0  2  0  0  0  0  0  0
  -29.9270  -13.7160   20.1670 N   0  0  0  0  0  0  0  0  0  0  0  0
  -31.6580  -15.0910   19.7790 O   0  0  0  0  0  0  0  0  0  0  0  0
  -29.6940  -16.1470   20.4300 N   0  0  0  0  0  0  0  0  0  0  0  0
  -28.8300  -15.9000   20.8910 H   0  0  0  0  0  0  0  0  0  0  0  0
  -25.2170  -13.8930   20.4430 C   0  0  0  0  0  0  0  0  0  0  0  0
  -24.1610  -13.1140   20.8270 C   0  0  0  0  0  0  0  0  0  0  0  0
  -24.6270  -11.7650   20.7820 C   0  0  0  0  0  0  0  0  0  0  0  0
  -26.2580  -13.0190   20.1830 N   0  0  0  0  0  0  0  0  0  0  0  0
  -25.9140  -11.7330   20.4520 N   0  0  0  0  0  0  0  0  0  0  0  0
  -23.9050  -10.5010   20.9800 C   0  0  0  0  0  0  0  0  0  0  0  0
  -24.3440   -9.5350   21.9130 C   0  0  0  0  0  3  0  0  0  0  0  0
  -23.6210   -8.3380   22.0990 C   0  0  0  0  0  3  0  0  0  0  0  0
  -22.4430   -8.0960   21.3510 C   0  0  0  0  0  0  0  0  0  0  0  0
  -22.0230   -9.0500   20.4070 C   0  0  0  0  0  3  0  0  0  0  0  0
  -22.7470  -10.2390   20.2200 C   0  0  0  0  0  3  0  0  0  0  0  0
  -21.6910   -6.9510   21.4460 O   0  0  0  0  0  0  0  0  0  0  0  0
  -21.6400   -6.2160   22.6030 C   0  0  0  0  0  0  0  0  0  0  0  0
  -21.1990   -6.7760   23.8230 C   0  0  0  0  0  3  0  0  0  0  0  0
  -21.0960   -5.9680   24.9730 C   0  0  0  0  0  3  0  0  0  0  0  0
  -21.4240   -4.6000   24.9050 C   0  0  0  0  0  0  0  0  0  0  0  0
  -21.8570   -4.0400   23.6900 C   0  0  0  0  0  3  0  0  0  0  0  0
  -21.9620   -4.8460   22.5430 C   0  0  0  0  0  0  0  0  0  0  0  0
  -22.3600   -4.2950   21.3700 F   0  0  0  0  0  0  0  0  0  0  0  0
  -21.3190   -3.8210   26.0070 F   0  0  0  0  0  0  0  0  0  0  0  0
  -22.7660  -13.5890   21.1200 C   0  0  0  0  0  0  0  0  0  0  0  0
  -22.0500  -12.8860   21.9910 N   0  0  0  0  0  0  0  0  0  0  0  0
  -22.3220  -14.6180   20.6120 O   0  0  0  0  0  0  0  0  0  0  0  0
  -22.4240  -12.0580   22.4280 H   0  0  0  0  0  0  0  0  0  0  0  0
  -21.1150  -13.1860   22.2290 H   0  0  0  0  0  0  0  0  0  0  0  0
  -25.3720  -15.2650   20.2680 N   0  0  0  0  0  0  0  0  0  0  0  0
  -24.5960  -15.9080   20.3890 H   0  0  0  0  0  0  0  0  0  0  0  0
  -26.1950  -15.7090   19.8830 H   0  0  0  0  0  0  0  0  0  0  0  0
  -28.2400  -23.1730   20.4170 C   0  0  0  0  0  2  0  0  0  0  0  0
  -28.4100  -24.7420   19.7630 C   0  0  0  0  0  2  0  0  0  0  0  0
  -28.2740  -26.1910   20.3450 O   0  0  0  0  0  0  0  0  0  0  0  0
  -24.6200  -31.8820   23.2200 C   0  0  0  0  0  0  0  0  0  0  0  0
  -27.2020  -27.1500   20.2080 C   0  0  0  0  0  0  0  0  0  0  0  0
  -23.4210  -30.4800   21.5830 C   0  0  0  0  0  3  0  0  0  0  0  0
  -24.8710  -28.8970   20.1610 C   0  0  0  0  0  0  0  0  0  0  0  0
  -25.9730  -30.7430   21.4230 C   0  0  0  0  0  2  0  0  0  0  0  0
  -26.0460  -29.3480   20.7720 C   0  0  0  0  0  0  0  0  0  0  0  0
  -27.2070  -28.4890   20.7820 C   0  0  0  0  0  3  0  0  0  0  0  0
  -26.0030  -26.7990   19.5530 C   0  0  0  0  0  3  0  0  0  0  0  0
  -24.8620  -27.6380   19.5370 C   0  0  0  0  0  3  0  0  0  0  0  0
  -23.6420  -29.7970   20.2060 C   0  0  0  0  0  2  0  0  0  0  0  0
  -24.6910  -31.0590   22.1290 N   0  0  0  0  0  0  0  0  0  0  0  0
  -23.5330  -32.1680   23.7480 O   0  0  0  0  0  0  0  0  0  0  0  0
  -22.7420  -29.4780   22.5490 C   0  0  0  0  0  0  0  0  0  0  0  0
  -21.4130  -29.3130   22.4290 N   0  0  0  0  0  0  0  0  0  0  0  0
  -23.4150  -28.8520   23.3730 O   0  0  0  0  0  0  0  0  0  0  0  0
  -20.9280  -29.8670   21.7380 H   0  0  0  0  0  0  0  0  0  0  0  0
  -18.0290  -28.1290   22.9490 C   0  0  0  0  0  0  0  0  0  0  0  0
  -20.5920  -28.3790   23.2050 C   0  0  0  0  0  3  0  0  0  0  0  0
  -20.6840  -26.9470   22.6290 C   0  0  0  0  0  2  0  0  0  0  0  0
  -19.5760  -26.6300   21.6190 C   0  0  0  0  0  2  0  0  0  0  0  0
  -18.1970  -26.7800   22.2690 C   0  0  0  0  0  2  0  0  0  0  0  0
  -19.1530  -28.8870   23.3730 C   0  0  0  0  0  0  0  0  0  0  0  0
  -18.9400  -30.1480   23.9710 C   0  0  0  0  0  3  0  0  0  0  0  0
  -17.6380  -30.6530   24.1450 C   0  0  0  0  0  3  0  0  0  0  0  0
  -16.5290  -29.8920   23.7350 C   0  0  0  0  0  3  0  0  0  0  0  0
  -16.7260  -28.6310   23.1440 C   0  0  0  0  0  3  0  0  0  0  0  0
  -25.8980  -32.5200   23.8480 C   0  0  0  0  0  3  0  0  0  0  0  0
  -26.4070  -31.7550   25.1320 C   0  0  1  0  0  0  0  0  0  0  0  0
  -25.3080  -31.5260   26.1950 C   0  0  0  0  0  1  0  0  0  0  0  0
  -26.9920  -30.3750   24.7530 C   0  0  0  0  0  1  0  0  0  0  0  0
  -27.5560  -32.5520   25.7940 C   0  0  0  0  0  1  0  0  0  0  0  0
  -25.5830  -33.9180   24.1800 N   0  0  0  0  0  0  0  0  0  0  0  0
  -25.9100  -34.9770   23.4260 C   0  0  0  0  0  0  0  0  0  0  0  0
  -26.5720  -34.8780   22.3900 O   0  0  0  0  0  0  0  0  0  0  0  0
  -24.9930  -34.0680   24.9860 H   0  0  0  0  0  0  0  0  0  0  0  0
  -24.1760  -36.7710   23.0920 C   0  0  0  0  0  1  0  0  0  0  0  0
  -25.4240  -36.3640   23.8920 C   0  0  0  0  0  3  0  0  0  0  0  0
  -27.5630  -37.2520   24.7120 C   0  0  0  0  0  1  0  0  0  0  0  0
  -26.4540  -37.4190   23.7750 N   0  0  0  0  0  0  0  0  0  0  0  0
  -26.0480  -38.3380   23.9260 H   0  0  0  0  0  0  0  0  0  0  0  0
  1 45  1  0
  2  4  2  0
  3  1  1  0
  3  2  1  0
  5  3  1  0
  6 15  1  0
  6  2  1  0
  7 15  1  0
  8 13  1  0
  9 10  1  0
  9  8  1  0
 11 10  1  0
 11 20  1  0
 11 12  1  0
 13  7  1  0
 13 12  1  0
 14  7  2  0
 15 16  1  0
 17 18  2  0
 18 37  1  0
 19 18  1  0
 19 22  1  0
 20 17  1  0
 20 21  1  0
 21 19  2  0
 22 23  1  0
 23 24  2  0
 25 28  1  0
 25 24  1  0
 26 25  2  0
 27 26  1  0
 27 22  2  0
 28 29  1  0
 29 30  1  0
 30 31  2  0
 32 31  1  0
 32 36  1  0
 33 32  2  0
 34 29  2  0
 34 33  1  0
 35 34  1  0
 37 38  1  0
 38 41  1  0
 38 40  1  0
 39 37  2  0
 42 43  1  0
 42 17  1  0
 44 42  1  0
 46 47  1  0
 46 45  1  0
 48 59  2  0
 49 47  1  0
 49 54  1  0
 50 58  1  0
 50 60  1  0
 51 57  1  0
 51 53  1  0
 52 58  1  0
 53 54  2  0
 53 52  1  0
 55 49  2  0
 56 55  1  0
 56 51  2  0
 57 50  1  0
 58 48  1  0
 60 62  2  0
 61 60  1  0
 63 61  1  0
 64 73  2  0
 64 69  1  0
 65 61  1  0
 65 69  1  0
 66 65  1  0
 67 68  1  0
 67 66  1  0
 68 64  1  0
 69 70  2  0
 70 71  1  0
 72 71  2  0
 73 72  1  0
 74 48  1  0
 74 79  1  0
 74 75  1  0
 75 78  1  1
 75 76  1  0
 77 75  1  0
 79 82  1  0
 80 84  1  0
 80 79  1  0
 81 80  2  0
 84 83  1  0
 86 84  1  0
 86 87  1  0
 86 85  1  0
M  ISO  4   7 100  15 100  46 101  47 101
M  END
>  <TORSDO>  (4) 
F 20

>  <SCORE>  (4) 
-14.809

>  <name>  (4) 
3

>  <ligand_id>  (4) 
3

>  <original_smiles>  (4) 
[H]c1c([H])c([H])c2c(c1[H])C([H])([H])C([H])([H])C([H])([H])C2([H])N([H])C(=O)C1([H])N(C(=O)C([H])(N([H])C(=O)C([H])(N([H])C([H])([H])[H])C([H])([H])[H])C(C([H])([H])[H])(C([H])([H])[H])C([H])([H])[H])C([H])([H])c2c([H])c(OC([H])([H])C([H])([H])C([H])([H])N([H])C(=O)C([H])([H])N([H])C(=O)N3C([H])([H])C([H])([H])C([H])([H])C([H])(n4nc(-c5c([H])c([H])c(Oc6c([H])c([H])c(F)c([H])c6F)c([H])c5[H])c(C(=O)N([H])[H])c4N([H])[H])C3([H])[H])c([H])c([H])c2C1([H])[H]

>  <smiles>  (4) 
[H]c1c([H])c([H])c2c(c1[H])C([H])([H])C([H])([H])C([H])([H])C2([H])N([H])C(=O)C1([H])N(C(=O)C([H])(N([H])C(=O)C([H])(N([H])C([H])([H])[H])C([H])([H])[H])C(C([H])([H])[H])(C([H])([H])[H])C([H])([H])[H])C([H])([H])c2c([H])c(OC([H])([H])C([H])([H])C([H])([H])N([H])C(=O)C([H])([H])N([H])C(=O)N3C([H])([H])C([H])([H])C([H])([H])C([H])(n4nc(-c5c([H])c([H])c(Oc6c([H])c([H])c(F)c([H])c6F)c([H])c5[H])c(C(=O)N([H])[H])c4N([H])[H])C3([H])[H])c([H])c([H])c2C1([H])[H]

$$$$
4:0:0
     RDKit          3D

 83 90  0  0  1  0  0  0  0  0999 V2000
  -27.9490  -23.9120   20.2000 C   0  0  0  0  0  3  0  0  0  0  0  0
  -28.1500  -25.6420   20.2980 O   0  0  0  0  0  0  0  0  0  0  0  0
  -24.6720  -31.8880   23.2420 C   0  0  0  0  0  0  0  0  0  0  0  0
  -27.1710  -26.8340   20.2470 C   0  0  0  0  0  0  0  0  0  0  0  0
  -23.4710  -30.4970   21.6080 C   0  0  0  0  0  3  0  0  0  0  0  0
  -24.9060  -28.8480   20.1930 C   0  0  0  0  0  0  0  0  0  0  0  0
  -26.0490  -30.6390   21.4750 C   0  0  0  0  0  2  0  0  0  0  0  0
  -26.1040  -29.2100   20.8200 C   0  0  0  0  0  0  0  0  0  0  0  0
  -27.2230  -28.2300   20.8150 C   0  0  0  0  0  3  0  0  0  0  0  0
  -25.9390  -26.6690   19.5680 C   0  0  0  0  0  3  0  0  0  0  0  0
  -24.8600  -27.6020   19.5430 C   0  0  0  0  0  3  0  0  0  0  0  0
  -23.7020  -29.8000   20.2370 C   0  0  0  0  0  2  0  0  0  0  0  0
  -24.7550  -31.0400   22.1610 N   0  0  0  0  0  0  0  0  0  0  0  0
  -23.5830  -32.1920   23.7560 O   0  0  0  0  0  0  0  0  0  0  0  0
  -22.7560  -29.5220   22.5800 C   0  0  0  0  0  0  0  0  0  0  0  0
  -21.4230  -29.3690   22.4550 N   0  0  0  0  0  0  0  0  0  0  0  0
  -23.4110  -28.8980   23.4200 O   0  0  0  0  0  0  0  0  0  0  0  0
  -20.9460  -29.9220   21.7570 H   0  0  0  0  0  0  0  0  0  0  0  0
  -18.0330  -28.1690   22.9680 C   0  0  0  0  0  0  0  0  0  0  0  0
  -20.5930  -28.4390   23.2300 C   0  0  0  0  0  3  0  0  0  0  0  0
  -20.6940  -27.0020   22.6640 C   0  0  0  0  0  2  0  0  0  0  0  0
  -19.5940  -26.6750   21.6500 C   0  0  0  0  0  2  0  0  0  0  0  0
  -18.2110  -26.8200   22.2910 C   0  0  0  0  0  2  0  0  0  0  0  0
  -19.1500  -28.9350   23.3940 C   0  0  0  0  0  0  0  0  0  0  0  0
  -18.9270  -30.1950   23.9910 C   0  0  0  0  0  3  0  0  0  0  0  0
  -17.6200  -30.6890   24.1620 C   0  0  0  0  0  3  0  0  0  0  0  0
  -16.5170  -29.9210   23.7490 C   0  0  0  0  0  3  0  0  0  0  0  0
  -16.7250  -28.6620   23.1580 C   0  0  0  0  0  3  0  0  0  0  0  0
  -25.9420  -32.5310   23.8780 C   0  0  0  0  0  3  0  0  0  0  0  0
  -26.4400  -31.7670   25.1680 C   0  0  1  0  0  0  0  0  0  0  0  0
  -25.3350  -31.5460   26.2290 C   0  0  0  0  0  1  0  0  0  0  0  0
  -27.0170  -30.3800   24.8050 C   0  0  0  0  0  1  0  0  0  0  0  0
  -27.5910  -32.5580   25.8350 C   0  0  0  0  0  1  0  0  0  0  0  0
  -25.6270  -33.9320   24.2180 N   0  0  0  0  0  0  0  0  0  0  0  0
  -25.9330  -34.9970   23.4640 C   0  0  0  0  0  0  0  0  0  0  0  0
  -26.5690  -34.9020   22.4100 O   0  0  0  0  0  0  0  0  0  0  0  0
  -25.0570  -34.0770   25.0370 H   0  0  0  0  0  0  0  0  0  0  0  0
  -24.1800  -36.7890   23.2110 C   0  0  0  0  0  1  0  0  0  0  0  0
  -25.4650  -36.3850   23.9520 C   0  0  0  0  0  3  0  0  0  0  0  0
  -27.6320  -37.2910   24.6730 C   0  0  0  0  0  1  0  0  0  0  0  0
  -26.4840  -37.4450   23.7830 N   0  0  0  0  0  0  0  0  0  0  0  0
  -26.0790  -38.3630   23.9460 H   0  0  0  0  0  0  0  0  0  0  0  0
  -28.9470  -22.2690   20.2790 C   0  0  0  0  0  3  0  0  0  0  0  0
  -28.7110  -20.3580   20.2370 C   0  0  0  0  0  3  0  0  0  0  0  0
  -29.7530  -18.7430   20.2450 C   0  0  0  0  0  3  0  0  0  0  0  0
  -30.2820  -15.6460   20.1480 C   0  0  0  0  0  0  0  0  0  0  0  0
  -30.3500  -13.1330   19.2860 C   0  0  0  0  0  2  0  0  0  0  0  0
  -29.4300  -12.7740   18.0850 C   0  0  0  0  0  2  0  0  0  0  0  0
  -28.0130  -12.4240   18.5630 C   0  0  0  0  0  2  0  0  0  0  0  0
  -27.5300  -13.4030   19.6600 C   0  0  0  0  0  3  0  0  0  0  0  0
  -28.5860  -13.6800   20.7550 C   0  0  0  0  0  2  0  0  0  0  0  0
  -29.7510  -14.2930   20.0790 N   0  0  0  0  0  0  0  0  0  0  0  0
  -31.5110  -15.5990   19.9480 O   0  0  0  0  0  0  0  0  0  0  0  0
  -29.5270  -16.9940   20.2480 N   0  0  0  0  0  0  0  0  0  0  0  0
  -28.5450  -16.7820   20.3500 H   0  0  0  0  0  0  0  0  0  0  0  0
  -25.1770  -13.9060   20.4730 C   0  0  0  0  0  0  0  0  0  0  0  0
  -24.1340  -13.1120   20.8550 C   0  0  0  0  0  0  0  0  0  0  0  0
  -24.6200  -11.7680   20.8040 C   0  0  0  0  0  0  0  0  0  0  0  0
  -26.2270  -13.0500   20.2020 N   0  0  0  0  0  0  0  0  0  0  0  0
  -25.9070  -11.7560   20.4690 N   0  0  0  0  0  0  0  0  0  0  0  0
  -23.9110  -10.4960   20.9970 C   0  0  0  0  0  0  0  0  0  0  0  0
  -24.3510   -9.5380   21.9370 C   0  0  0  0  0  3  0  0  0  0  0  0
  -23.6360   -8.3340   22.1190 C   0  0  0  0  0  3  0  0  0  0  0  0
  -22.4690   -8.0770   21.3610 C   0  0  0  0  0  0  0  0  0  0  0  0
  -22.0480   -9.0240   20.4100 C   0  0  0  0  0  3  0  0  0  0  0  0
  -22.7630  -10.2200   20.2260 C   0  0  0  0  0  3  0  0  0  0  0  0
  -21.7270   -6.9240   21.4530 O   0  0  0  0  0  0  0  0  0  0  0  0
  -21.6590   -6.2030   22.6170 C   0  0  0  0  0  0  0  0  0  0  0  0
  -21.1670   -6.7650   23.8150 C   0  0  0  0  0  3  0  0  0  0  0  0
  -21.0490   -5.9670   24.9700 C   0  0  0  0  0  3  0  0  0  0  0  0
  -21.4130   -4.6090   24.9290 C   0  0  0  0  0  0  0  0  0  0  0  0
  -21.8990   -4.0450   23.7360 C   0  0  0  0  0  3  0  0  0  0  0  0
  -22.0180   -4.8400   22.5820 C   0  0  0  0  0  0  0  0  0  0  0  0
  -22.4660   -4.2870   21.4300 F   0  0  0  0  0  0  0  0  0  0  0  0
  -21.2940   -3.8400   26.0380 F   0  0  0  0  0  0  0  0  0  0  0  0
  -22.7360  -13.5700   21.1460 C   0  0  0  0  0  0  0  0  0  0  0  0
  -22.0320  -12.8660   22.0240 N   0  0  0  0  0  0  0  0  0  0  0  0
  -22.2780  -14.5880   20.6300 O   0  0  0  0  0  0  0  0  0  0  0  0
  -22.4170  -12.0420   22.4630 H   0  0  0  0  0  0  0  0  0  0  0  0
  -21.0930  -13.1550   22.2630 H   0  0  0  0  0  0  0  0  0  0  0  0
  -25.3150  -15.2810   20.3020 N   0  0  0  0  0  0  0  0  0  0  0  0
  -24.5370  -15.9190   20.4270 H   0  0  0  0  0  0  0  0  0  0  0  0
  -26.1390  -15.7310   19.9280 H   0  0  0  0  0  0  0  0  0  0  0  0
  1 43  2  0
  1  2  1  0
  3 14  2  0
  4  2  1  0
  4  9  1  0
  5 13  1  0
  5 15  1  0
  6 12  1  0
  6  8  1  0
  7 13  1  0
  8  7  1  0
  9  8  2  0
 10  4  2  0
 11 10  1  0
 11  6  2  0
 12  5  1  0
 13  3  1  0
 15 17  2  0
 16 15  1  0
 18 16  1  0
 19 28  2  0
 19 24  1  0
 20 16  1  0
 20 24  1  0
 21 20  1  0
 22 23  1  0
 22 21  1  0
 23 19  1  0
 24 25  2  0
 25 26  1  0
 27 26  2  0
 28 27  1  0
 29  3  1  0
 29 34  1  0
 29 30  1  0
 30 33  1  1
 30 31  1  0
 32 30  1  0
 34 37  1  0
 35 39  1  0
 35 34  1  0
 36 35  2  0
 39 38  1  0
 41 42  1  0
 41 39  1  0
 41 40  1  0
 44 45  2  0
 44 43  1  0
 45 54  1  0
 46 54  1  0
 47 52  1  0
 48 49  1  0
 48 47  1  0
 50 49  1  0
 50 59  1  0
 50 51  1  0
 52 46  1  0
 52 51  1  0
 53 46  2  0
 54 55  1  0
 56 57  2  0
 57 76  1  0
 58 57  1  0
 58 61  1  0
 59 60  1  0
 59 56  1  0
 60 58  2  0
 61 62  1  0
 62 63  2  0
 64 67  1  0
 64 63  1  0
 65 64  2  0
 66 65  1  0
 66 61  2  0
 67 68  1  0
 68 69  1  0
 69 70  2  0
 71 70  1  0
 71 75  1  0
 72 71  2  0
 73 68  2  0
 73 72  1  0
 74 73  1  0
 76 77  1  0
 77 80  1  0
 77 79  1  0
 78 76  2  0
 81 82  1  0
 81 56  1  0
 83 81  1  0
M  ISO  4   1 101   2 101  46 100  54 100
M  END
>  <TORSDO>  (5) 
F 19

>  <SCORE>  (5) 
-16.287

>  <name>  (5) 
4

>  <ligand_id>  (5) 
4

>  <original_smiles>  (5) 
[H]c1c([H])c([H])c2c(c1[H])C([H])([H])C([H])([H])C([H])([H])C2([H])N([H])C(=O)C1([H])N(C(=O)C([H])(N([H])C(=O)C([H])(N([H])C([H])([H])[H])C([H])([H])[H])C(C([H])([H])[H])(C([H])([H])[H])C([H])([H])[H])C([H])([H])c2c([H])c(OC([H])([H])C([H])([H])C([H])([H])C([H])([H])N([H])C(=O)N3C([H])([H])C([H])([H])C([H])([H])C([H])(n4nc(-c5c([H])c([H])c(Oc6c([H])c([H])c(F)c([H])c6F)c([H])c5[H])c(C(=O)N([H])[H])c4N([H])[H])C3([H])[H])c([H])c([H])c2C1([H])[H]

>  <smiles>  (5) 
[H]c1c([H])c([H])c2c(c1[H])C([H])([H])C([H])([H])C([H])([H])C2([H])N([H])C(=O)C1([H])N(C(=O)C([H])(N([H])C(=O)C([H])(N([H])C([H])([H])[H])C([H])([H])[H])C(C([H])([H])[H])(C([H])([H])[H])C([H])([H])[H])C([H])([H])c2c([H])c(OC([H])([H])C([H])([H])C([H])([H])C([H])([H])N([H])C(=O)N3C([H])([H])C([H])([H])C([H])([H])C([H])(n4nc(-c5c([H])c([H])c(Oc6c([H])c([H])c(F)c([H])c6F)c([H])c5[H])c(C(=O)N([H])[H])c4N([H])[H])C3([H])[H])c([H])c([H])c2C1([H])[H]

$$$$
5:0:0
     RDKit          3D

 81 85  0  0  1  0  0  0  0  0999 V2000
  -28.1090  -24.6470   20.3000 O   0  0  0  0  0  1  0  0  0  0  0  0
  -24.7100  -31.7810   23.1610 C   0  0  0  0  0  0  0  0  0  0  0  0
  -27.2070  -26.1440   20.2640 C   0  0  0  0  0  0  0  0  0  0  0  0
  -23.5560  -30.3680   21.5220 C   0  0  0  0  0  3  0  0  0  0  0  0
  -25.0090  -28.5810   20.1690 C   0  0  0  0  0  0  0  0  0  0  0  0
  -26.1560  -30.3130   21.5020 C   0  0  0  0  0  2  0  0  0  0  0  0
  -26.2110  -28.8120   20.8490 C   0  0  0  0  0  0  0  0  0  0  0  0
  -27.2590  -27.6460   20.8460 C   0  0  0  0  0  3  0  0  0  0  0  0
  -25.9680  -26.2870   19.5230 C   0  0  0  0  0  3  0  0  0  0  0  0
  -24.9660  -27.3480   19.4800 C   0  0  0  0  0  3  0  0  0  0  0  0
  -23.8360  -29.6140   20.1780 C   0  0  0  0  0  2  0  0  0  0  0  0
  -24.8390  -30.8700   22.1140 N   0  0  0  0  0  0  0  0  0  0  0  0
  -23.6010  -32.1150   23.6230 O   0  0  0  0  0  0  0  0  0  0  0  0
  -22.7620  -29.4580   22.5040 C   0  0  0  0  0  0  0  0  0  0  0  0
  -21.4220  -29.3560   22.3730 N   0  0  0  0  0  0  0  0  0  0  0  0
  -23.3780  -28.8290   23.3670 O   0  0  0  0  0  0  0  0  0  0  0  0
  -20.9670  -29.9120   21.6630 H   0  0  0  0  0  0  0  0  0  0  0  0
  -17.9970  -28.2130   22.9010 C   0  0  0  0  0  0  0  0  0  0  0  0
  -20.5670  -28.4380   23.1430 C   0  0  0  0  0  3  0  0  0  0  0  0
  -20.6330  -27.0060   22.5600 C   0  0  0  0  0  2  0  0  0  0  0  0
  -19.5210  -26.7160   21.5460 C   0  0  0  0  0  2  0  0  0  0  0  0
  -18.1460  -26.8740   22.1990 C   0  0  0  0  0  2  0  0  0  0  0  0
  -19.1320  -28.9550   23.3290 C   0  0  0  0  0  0  0  0  0  0  0  0
  -18.9320  -30.2040   23.9560 C   0  0  0  0  0  3  0  0  0  0  0  0
  -17.6350  -30.7130   24.1530 C   0  0  0  0  0  3  0  0  0  0  0  0
  -16.5160  -29.9710   23.7350 C   0  0  0  0  0  3  0  0  0  0  0  0
  -16.6980  -28.7220   23.1160 C   0  0  0  0  0  3  0  0  0  0  0  0
  -25.9400  -32.4590   23.8420 C   0  0  0  0  0  3  0  0  0  0  0  0
  -25.5980  -33.8650   24.1720 N   0  0  0  0  0  0  0  0  0  0  0  0
  -25.9200  -34.9450   23.4450 C   0  0  0  0  0  0  0  0  0  0  0  0
  -26.5760  -34.8640   22.4040 O   0  0  0  0  0  0  0  0  0  0  0  0
  -25.0070  -33.9990   24.9800 H   0  0  0  0  0  0  0  0  0  0  0  0
  -24.1680  -36.7480   23.1980 C   0  0  0  0  0  1  0  0  0  0  0  0
  -25.4480  -36.3330   23.9420 C   0  0  0  0  0  3  0  0  0  0  0  0
  -27.6060  -37.2470   24.6880 C   0  0  0  0  0  1  0  0  0  0  0  0
  -26.4650  -37.3980   23.7880 N   0  0  0  0  0  0  0  0  0  0  0  0
  -26.0550  -38.3150   23.9480 H   0  0  0  0  0  0  0  0  0  0  0  0
  -26.3960  -31.7200   25.1620 C   0  0  1  0  0  0  0  0  0  0  0  0
  -25.2580  -31.5140   26.1910 C   0  0  0  0  0  1  0  0  0  0  0  0
  -26.9880  -30.3300   24.8490 C   0  0  0  0  0  1  0  0  0  0  0  0
  -27.5230  -32.5250   25.8520 C   0  0  0  0  0  1  0  0  0  0  0  0
  -28.1400  -22.5480   20.1630 C   0  0  0  0  0 15  0  0  0  0  0  0
  -29.1420  -20.4180   20.2160 C   0  0  0  0  0 15  0  0  0  0  0  0
  -29.9010  -16.6470   20.0860 C   0  0  0  0  0  0  0  0  0  0  0  0
  -30.2300  -13.8900   19.2940 C   0  0  0  0  0  2  0  0  0  0  0  0
  -29.4480  -13.0530   18.1990 C   0  0  0  0  0  2  0  0  0  0  0  0
  -28.1340  -12.4820   18.7300 C   0  0  0  0  0  2  0  0  0  0  0  0
  -27.5010  -13.5140   19.6750 C   0  0  0  0  0  3  0  0  0  0  0  0
  -28.4750  -14.2100   20.6950 C   0  0  0  0  0  2  0  0  0  0  0  0
  -29.4550  -15.1290   19.9600 N   0  0  0  0  0  0  0  0  0  0  0  0
  -31.1430  -16.3980   20.0040 O   0  0  0  0  0  0  0  0  0  0  0  0
  -29.2570  -18.3100   20.1340 N   0  0  0  0  0  2  0  0  0  0  0  0
  -30.2580  -18.4710   20.1320 H   0  0  0  0  0  0  0  0  0  0  0  0
  -25.1600  -13.9200   20.5080 C   0  0  0  0  0  0  0  0  0  0  0  0
  -24.1280  -13.1120   20.8810 C   0  0  0  0  0  0  0  0  0  0  0  0
  -24.6260  -11.7720   20.8220 C   0  0  0  0  0  0  0  0  0  0  0  0
  -26.2240  -13.0860   20.2420 N   0  0  0  0  0  0  0  0  0  0  0  0
  -25.9190  -11.7780   20.4820 N   0  0  0  0  0  0  0  0  0  0  0  0
  -23.9140  -10.4950   21.0120 C   0  0  0  0  0  0  0  0  0  0  0  0
  -24.3570   -9.5290   21.9420 C   0  0  0  0  0  3  0  0  0  0  0  0
  -23.6350   -8.3280   22.1300 C   0  0  0  0  0  3  0  0  0  0  0  0
  -22.4560   -8.0830   21.3870 C   0  0  0  0  0  0  0  0  0  0  0  0
  -22.0290   -9.0390   20.4470 C   0  0  0  0  0  3  0  0  0  0  0  0
  -22.7510  -10.2310   20.2590 C   0  0  0  0  0  3  0  0  0  0  0  0
  -21.7070   -6.9350   21.4820 O   0  0  0  0  0  0  0  0  0  0  0  0
  -21.6700   -6.1910   22.6350 C   0  0  0  0  0  0  0  0  0  0  0  0
  -21.2140   -6.7320   23.8560 C   0  0  0  0  0  3  0  0  0  0  0  0
  -21.1260   -5.9140   25.0000 C   0  0  0  0  0  3  0  0  0  0  0  0
  -21.4850   -4.5540   24.9250 C   0  0  0  0  0  0  0  0  0  0  0  0
  -21.9340   -4.0110   23.7070 C   0  0  0  0  0  3  0  0  0  0  0  0
  -22.0220   -4.8270   22.5660 C   0  0  0  0  0  0  0  0  0  0  0  0
  -22.4340   -4.2930   21.3900 F   0  0  0  0  0  0  0  0  0  0  0  0
  -21.3950   -3.7660   26.0220 F   0  0  0  0  0  0  0  0  0  0  0  0
  -22.7270  -13.5620   21.1730 C   0  0  0  0  0  0  0  0  0  0  0  0
  -22.0260  -12.8570   22.0520 N   0  0  0  0  0  0  0  0  0  0  0  0
  -22.2670  -14.5820   20.6590 O   0  0  0  0  0  0  0  0  0  0  0  0
  -22.4140  -12.0340   22.4890 H   0  0  0  0  0  0  0  0  0  0  0  0
  -21.0880  -13.1430   22.2910 H   0  0  0  0  0  0  0  0  0  0  0  0
  -25.2790  -15.2960   20.3350 N   0  0  0  0  0  0  0  0  0  0  0  0
  -24.4980  -15.9290   20.4650 H   0  0  0  0  0  0  0  0  0  0  0  0
  -26.1180  -15.7610   20.0090 H   0  0  0  0  0  0  0  0  0  0  0  0
  2 13  2  0
  3  1  1  0
  3  8  1  0
  4 12  1  0
  4 14  1  0
  5 11  1  0
  5  7  1  0
  6 12  1  0
  7  6  1  0
  8  7  2  0
  9  3  2  0
 10  9  1  0
 10  5  2  0
 11  4  1  0
 12  2  1  0
 14 16  2  0
 15 14  1  0
 17 15  1  0
 18 27  2  0
 18 23  1  0
 19 15  1  0
 19 23  1  0
 20 19  1  0
 21 22  1  0
 21 20  1  0
 22 18  1  0
 23 24  2  0
 24 25  1  0
 26 25  2  0
 27 26  1  0
 28  2  1  0
 28 29  1  0
 28 38  1  0
 29 32  1  0
 30 34  1  0
 30 29  1  0
 31 30  2  0
 34 33  1  0
 36 34  1  0
 36 37  1  0
 36 35  1  0
 38 41  1  1
 38 39  1  0
 40 38  1  0
 44 52  1  0
 45 50  1  0
 46 47  1  0
 46 45  1  0
 48 47  1  0
 48 57  1  0
 48 49  1  0
 50 44  1  0
 50 49  1  0
 51 44  2  0
 53 52  1  0
 54 55  2  0
 55 74  1  0
 56 55  1  0
 56 59  1  0
 57 58  1  0
 57 54  1  0
 58 56  2  0
 59 60  1  0
 60 61  2  0
 62 65  1  0
 62 61  1  0
 63 62  2  0
 64 63  1  0
 64 59  2  0
 65 66  1  0
 66 67  1  0
 67 68  2  0
 69 68  1  0
 69 73  1  0
 70 69  2  0
 71 66  2  0
 71 70  1  0
 72 71  1  0
 74 75  1  0
 75 78  1  0
 75 77  1  0
 76 74  2  0
 79 80  1  0
 79 54  1  0
 81 79  1  0
M  ISO  4   1 101  42 101  44 100  52 100
M  END
>  <TORSDO>  (6) 
F 17

>  <SCORE>  (6) 
-16.141

>  <name>  (6) 
5

>  <ligand_id>  (6) 
5

>  <original_smiles>  (6) 
[H]c1c([H])c([H])c2c(c1[H])C([H])([H])C([H])([H])C([H])([H])C2([H])N([H])C(=O)C1([H])N(C(=O)C([H])(N([H])C(=O)C([H])(N([H])C([H])([H])[H])C([H])([H])[H])C(C([H])([H])[H])(C([H])([H])[H])C([H])([H])[H])C([H])([H])c2c([H])c(OC([H])([H])C([H])([H])N([H])C(=O)N3C([H])([H])C([H])([H])C([H])([H])C([H])(n4nc(-c5c([H])c([H])c(Oc6c([H])c([H])c(F)c([H])c6F)c([H])c5[H])c(C(=O)N([H])[H])c4N([H])[H])C3([H])[H])c([H])c([H])c2C1([H])[H]

>  <smiles>  (6) 
[H]c1c([H])c([H])c2c(c1[H])C([H])([H])C([H])([H])C([H])([H])C2([H])N([H])C(=O)C1([H])N(C(=O)C([H])(N([H])C(=O)C([H])(N([H])C([H])([H])[H])C([H])([H])[H])C(C([H])([H])[H])(C([H])([H])[H])C([H])([H])[H])C([H])([H])c2c([H])c(OC([H])([H])C([H])([H])N([H])C(=O)N3C([H])([H])C([H])([H])C([H])([H])C([H])(n4nc(-c5c([H])c([H])c(Oc6c([H])c([H])c(F)c([H])c6F)c([H])c5[H])c(C(=O)N([H])[H])c4N([H])[H])C3([H])[H])c([H])c([H])c2C1([H])[H]

$$$$
6:0:0
     RDKit          3D

 84 91  0  0  1  0  0  0  0  0999 V2000
  -28.0360  -24.2690   20.5090 C   0  0  0  0  0  2  0  0  0  0  0  0
  -28.2220  -25.8810   20.2090 O   0  0  0  0  0  0  0  0  0  0  0  0
  -24.6160  -31.8370   23.1800 C   0  0  0  0  0  0  0  0  0  0  0  0
  -27.1870  -26.9520   20.2070 C   0  0  0  0  0  0  0  0  0  0  0  0
  -23.4240  -30.4230   21.5540 C   0  0  0  0  0  3  0  0  0  0  0  0
  -24.8760  -28.8110   20.1480 C   0  0  0  0  0  0  0  0  0  0  0  0
  -25.9900  -30.6480   21.3990 C   0  0  0  0  0  2  0  0  0  0  0  0
  -26.0650  -29.2330   20.7580 C   0  0  0  0  0  0  0  0  0  0  0  0
  -27.2180  -28.3250   20.7560 C   0  0  0  0  0  3  0  0  0  0  0  0
  -25.9650  -26.6750   19.5560 C   0  0  0  0  0  3  0  0  0  0  0  0
  -24.8500  -27.5530   19.5260 C   0  0  0  0  0  3  0  0  0  0  0  0
  -23.6540  -29.7270   20.1840 C   0  0  0  0  0  2  0  0  0  0  0  0
  -24.6980  -30.9970   22.0980 N   0  0  0  0  0  0  0  0  0  0  0  0
  -23.5260  -32.1260   23.7010 O   0  0  0  0  0  0  0  0  0  0  0  0
  -22.7360  -29.4330   22.5290 C   0  0  0  0  0  0  0  0  0  0  0  0
  -21.4040  -29.2710   22.4160 N   0  0  0  0  0  0  0  0  0  0  0  0
  -23.4070  -28.8080   23.3540 O   0  0  0  0  0  0  0  0  0  0  0  0
  -20.9170  -29.8260   21.7270 H   0  0  0  0  0  0  0  0  0  0  0  0
  -18.0230  -28.0690   22.9520 C   0  0  0  0  0  0  0  0  0  0  0  0
  -20.5850  -28.3390   23.1970 C   0  0  0  0  0  3  0  0  0  0  0  0
  -20.6840  -26.9040   22.6300 C   0  0  0  0  0  2  0  0  0  0  0  0
  -19.5750  -26.5740   21.6240 C   0  0  0  0  0  2  0  0  0  0  0  0
  -18.1970  -26.7180   22.2770 C   0  0  0  0  0  2  0  0  0  0  0  0
  -19.1440  -28.8370   23.3690 C   0  0  0  0  0  0  0  0  0  0  0  0
  -18.9240  -30.0980   23.9630 C   0  0  0  0  0  3  0  0  0  0  0  0
  -17.6200  -30.5940   24.1420 C   0  0  0  0  0  3  0  0  0  0  0  0
  -16.5140  -29.8250   23.7380 C   0  0  0  0  0  3  0  0  0  0  0  0
  -16.7170  -28.5640   23.1490 C   0  0  0  0  0  3  0  0  0  0  0  0
  -25.8860  -32.4890   23.8060 C   0  0  0  0  0  3  0  0  0  0  0  0
  -26.4090  -31.7230   25.0840 C   0  0  1  0  0  0  0  0  0  0  0  0
  -25.3200  -31.4800   26.1550 C   0  0  0  0  0  1  0  0  0  0  0  0
  -27.0000  -30.3470   24.6990 C   0  0  0  0  0  1  0  0  0  0  0  0
  -27.5570  -32.5240   25.7410 C   0  0  0  0  0  1  0  0  0  0  0  0
  -25.5550  -33.8830   24.1530 N   0  0  0  0  0  0  0  0  0  0  0  0
  -25.8660  -34.9530   23.4100 C   0  0  0  0  0  0  0  0  0  0  0  0
  -26.5250  -34.8730   22.3700 O   0  0  0  0  0  0  0  0  0  0  0  0
  -24.9660  -34.0180   24.9610 H   0  0  0  0  0  0  0  0  0  0  0  0
  -24.1090  -36.7340   23.1180 C   0  0  0  0  0  1  0  0  0  0  0  0
  -25.3720  -36.3320   23.8960 C   0  0  0  0  0  3  0  0  0  0  0  0
  -27.5150  -37.2360   24.6870 C   0  0  0  0  0  1  0  0  0  0  0  0
  -26.3890  -37.4000   23.7720 N   0  0  0  0  0  0  0  0  0  0  0  0
  -25.9750  -38.3130   23.9390 H   0  0  0  0  0  0  0  0  0  0  0  0
  -28.7190  -22.6990   19.9240 C   0  0  0  0  0  2  0  0  0  0  0  0
  -28.9900  -21.2170   20.5850 O   0  0  0  0  0  0  0  0  0  0  0  0
  -29.0780  -19.6810   19.9990 C   0  0  0  0  0  2  0  0  0  0  0  0
  -29.8810  -18.1670   20.5600 C   0  0  0  0  0  2  0  0  0  0  0  0
  -30.3820  -15.2640   20.2540 C   0  0  0  0  0  0  0  0  0  0  0  0
  -30.3490  -12.8260   19.3660 C   0  0  0  0  0  2  0  0  0  0  0  0
  -29.4210  -12.6110   18.1440 C   0  0  0  0  0  2  0  0  0  0  0  0
  -27.9740  -12.3490   18.5940 C   0  0  0  0  0  2  0  0  0  0  0  0
  -27.5290  -13.3180   19.7180 C   0  0  0  0  0  3  0  0  0  0  0  0
  -28.5830  -13.4670   20.8330 C   0  0  0  0  0  2  0  0  0  0  0  0
  -29.8060  -13.9670   20.1860 N   0  0  0  0  0  0  0  0  0  0  0  0
  -31.6080  -15.2630   20.0800 O   0  0  0  0  0  0  0  0  0  0  0  0
  -29.6180  -16.5330   20.3180 N   0  0  0  0  0  0  0  0  0  0  0  0
  -28.6290  -16.3280   20.3210 H   0  0  0  0  0  0  0  0  0  0  0  0
  -25.1610  -13.8840   20.4750 C   0  0  0  0  0  0  0  0  0  0  0  0
  -24.0990  -13.1090   20.8510 C   0  0  0  0  0  0  0  0  0  0  0  0
  -24.5680  -11.7590   20.8280 C   0  0  0  0  0  0  0  0  0  0  0  0
  -26.2030  -13.0060   20.2350 N   0  0  0  0  0  0  0  0  0  0  0  0
  -25.8590  -11.7220   20.5170 N   0  0  0  0  0  0  0  0  0  0  0  0
  -23.8400  -10.4970   21.0260 C   0  0  0  0  0  0  0  0  0  0  0  0
  -24.2820   -9.5240   21.9500 C   0  0  0  0  0  3  0  0  0  0  0  0
  -23.5520   -8.3310   22.1370 C   0  0  0  0  0  3  0  0  0  0  0  0
  -22.3660   -8.1010   21.4000 C   0  0  0  0  0  0  0  0  0  0  0  0
  -21.9430   -9.0620   20.4650 C   0  0  0  0  0  3  0  0  0  0  0  0
  -22.6730  -10.2470   20.2760 C   0  0  0  0  0  3  0  0  0  0  0  0
  -21.6060   -6.9600   21.4960 O   0  0  0  0  0  0  0  0  0  0  0  0
  -21.5890   -6.2020   22.6400 C   0  0  0  0  0  0  0  0  0  0  0  0
  -21.2240   -6.7480   23.8900 C   0  0  0  0  0  3  0  0  0  0  0  0
  -21.1520   -5.9180   25.0260 C   0  0  0  0  0  3  0  0  0  0  0  0
  -21.4340   -4.5440   24.9150 C   0  0  0  0  0  0  0  0  0  0  0  0
  -21.7920   -3.9970   23.6700 C   0  0  0  0  0  3  0  0  0  0  0  0
  -21.8660   -4.8250   22.5350 C   0  0  0  0  0  0  0  0  0  0  0  0
  -22.1910   -4.2890   21.3340 F   0  0  0  0  0  0  0  0  0  0  0  0
  -21.3580   -3.7440   26.0040 F   0  0  0  0  0  0  0  0  0  0  0  0
  -22.7020  -13.5880   21.1150 C   0  0  0  0  0  0  0  0  0  0  0  0
  -21.9740  -12.9020   21.9880 N   0  0  0  0  0  0  0  0  0  0  0  0
  -22.2660  -14.6070   20.5800 O   0  0  0  0  0  0  0  0  0  0  0  0
  -22.3410  -12.0790   22.4420 H   0  0  0  0  0  0  0  0  0  0  0  0
  -21.0360  -13.2060   22.2080 H   0  0  0  0  0  0  0  0  0  0  0  0
  -25.3200  -15.2530   20.2870 N   0  0  0  0  0  0  0  0  0  0  0  0
  -24.5470  -15.9020   20.3920 H   0  0  0  0  0  0  0  0  0  0  0  0
  -26.1550  -15.6900   19.9190 H   0  0  0  0  0  0  0  0  0  0  0  0
  2  1  1  0
  3 14  2  0
  4  2  1  0
  4  9  1  0
  5 13  1  0
  5 15  1  0
  6 12  1  0
  6  8  1  0
  7 13  1  0
  8  7  1  0
  9  8  2  0
 10  4  2  0
 11 10  1  0
 11  6  2  0
 12  5  1  0
 13  3  1  0
 15 17  2  0
 16 15  1  0
 18 16  1  0
 19 28  2  0
 19 24  1  0
 20 16  1  0
 20 24  1  0
 21 20  1  0
 22 23  1  0
 22 21  1  0
 23 19  1  0
 24 25  2  0
 25 26  1  0
 27 26  2  0
 28 27  1  0
 29  3  1  0
 29 34  1  0
 29 30  1  0
 30 33  1  1
 30 31  1  0
 32 30  1  0
 34 37  1  0
 35 39  1  0
 35 34  1  0
 36 35  2  0
 39 38  1  0
 41 39  1  0
 41 42  1  0
 41 40  1  0
 43  1  1  0
 43 44  1  0
 45 46  1  0
 45 44  1  0
 47 55  1  0
 48 53  1  0
 49 50  1  0
 49 48  1  0
 51 50  1  0
 51 60  1  0
 51 52  1  0
 53 47  1  0
 53 52  1  0
 54 47  2  0
 55 56  1  0
 55 46  1  0
 57 58  2  0
 58 77  1  0
 59 58  1  0
 59 62  1  0
 60 57  1  0
 60 61  1  0
 61 59  2  0
 62 63  1  0
 63 64  2  0
 65 68  1  0
 65 64  1  0
 66 65  2  0
 67 66  1  0
 67 62  2  0
 68 69  1  0
 69 70  1  0
 70 71  2  0
 72 71  1  0
 72 76  1  0
 73 72  2  0
 74 69  2  0
 74 73  1  0
 75 74  1  0
 77 78  1  0
 78 81  1  0
 78 80  1  0
 79 77  2  0
 82 83  1  0
 82 57  1  0
 84 82  1  0
M  ISO  4   1 101   2 101  47 100  55 100
M  END
>  <TORSDO>  (7) 
F 20

>  <SCORE>  (7) 
-15.761

>  <name>  (7) 
6

>  <ligand_id>  (7) 
6

>  <original_smiles>  (7) 
[H]c1c([H])c([H])c2c(c1[H])C([H])([H])C([H])([H])C([H])([H])C2([H])N([H])C(=O)C1([H])N(C(=O)C([H])(N([H])C(=O)C([H])(N([H])C([H])([H])[H])C([H])([H])[H])C(C([H])([H])[H])(C([H])([H])[H])C([H])([H])[H])C([H])([H])c2c([H])c(OC([H])([H])C([H])([H])OC([H])([H])C([H])([H])N([H])C(=O)N3C([H])([H])C([H])([H])C([H])([H])C([H])(n4nc(-c5c([H])c([H])c(Oc6c([H])c([H])c(F)c([H])c6F)c([H])c5[H])c(C(=O)N([H])[H])c4N([H])[H])C3([H])[H])c([H])c([H])c2C1([H])[H]

>  <smiles>  (7) 
[H]c1c([H])c([H])c2c(c1[H])C([H])([H])C([H])([H])C([H])([H])C2([H])N([H])C(=O)C1([H])N(C(=O)C([H])(N([H])C(=O)C([H])(N([H])C([H])([H])[H])C([H])([H])[H])C(C([H])([H])[H])(C([H])([H])[H])C([H])([H])[H])C([H])([H])c2c([H])c(OC([H])([H])C([H])([H])OC([H])([H])C([H])([H])N([H])C(=O)N3C([H])([H])C([H])([H])C([H])([H])C([H])(n4nc(-c5c([H])c([H])c(Oc6c([H])c([H])c(F)c([H])c6F)c([H])c5[H])c(C(=O)N([H])[H])c4N([H])[H])C3([H])[H])c([H])c([H])c2C1([H])[H]

$$$$
7:0:0
     RDKit          3D

 93101  0  0  1  0  0  0  0  0999 V2000
  -27.1720  -19.7010   19.4540 O   0  0  0  0  0  0  0  0  0  0  0  0
  -27.7450  -20.6750   21.7270 O   0  0  0  0  0  0  0  0  0  0  0  0
  -28.1490  -20.3320   20.3540 S   0  0  1  0  0  0  0  0  0  0  0  0
  -32.0190  -18.9260   20.3970 C   0  0  0  0  0  3  0  0  0  0  0  0
  -31.8300  -17.5290   20.4590 C   0  0  0  0  0  3  0  0  0  0  0  0
  -30.9120  -19.8000   20.3750 C   0  0  0  0  0  3  0  0  0  0  0  0
  -29.4210  -17.8670   20.5000 C   0  0  0  0  0  3  0  0  0  0  0  0
  -30.5260  -16.9810   20.4970 C   0  0  0  0  0  0  0  0  0  0  0  0
  -29.6100  -19.2670   20.4290 C   0  0  0  0  0  0  0  0  0  0  0  0
  -30.9860  -14.5630   20.0140 C   0  0  0  0  0  0  0  0  0  0  0  0
  -30.6600  -12.3610   18.9460 C   0  0  0  0  0  2  0  0  0  0  0  0
  -29.6800  -12.5230   17.7650 C   0  0  0  0  0  2  0  0  0  0  0  0
  -28.2180  -12.4070   18.2430 C   0  0  0  0  0  2  0  0  0  0  0  0
  -27.9230  -13.2910   19.4840 C   0  0  0  0  0  3  0  0  0  0  0  0
  -29.0090  -13.0960   20.5670 C   0  0  0  0  0  2  0  0  0  0  0  0
  -30.3170  -13.3770   19.9520 N   0  0  0  0  0  0  0  0  0  0  0  0
  -32.0900  -14.7320   19.4890 O   0  0  0  0  0  0  0  0  0  0  0  0
  -30.2830  -15.5720   20.5720 N   0  0  0  0  0  0  0  0  0  0  0  0
  -29.3690  -15.2960   20.8990 H   0  0  0  0  0  0  0  0  0  0  0  0
  -25.5660  -13.9520   20.2840 C   0  0  0  0  0  0  0  0  0  0  0  0
  -24.4970  -13.2010   20.6950 C   0  0  0  0  0  0  0  0  0  0  0  0
  -24.9280  -11.8410   20.6470 C   0  0  0  0  0  0  0  0  0  0  0  0
  -26.5820  -13.0490   20.0120 N   0  0  0  0  0  0  0  0  0  0  0  0
  -26.2040  -11.7740   20.2870 N   0  0  0  0  0  0  0  0  0  0  0  0
  -24.1840  -10.5940   20.8670 C   0  0  0  0  0  0  0  0  0  0  0  0
  -24.6010   -9.6450   21.8270 C   0  0  0  0  0  3  0  0  0  0  0  0
  -23.8610   -8.4620   22.0320 C   0  0  0  0  0  3  0  0  0  0  0  0
  -22.6880   -8.2190   21.2780 C   0  0  0  0  0  0  0  0  0  0  0  0
  -22.2900   -9.1550   20.3080 C   0  0  0  0  0  3  0  0  0  0  0  0
  -23.0310  -10.3310   20.1010 C   0  0  0  0  0  3  0  0  0  0  0  0
  -21.9200   -7.0850   21.3920 O   0  0  0  0  0  0  0  0  0  0  0  0
  -21.8160   -6.4010   22.5760 C   0  0  0  0  0  0  0  0  0  0  0  0
  -21.3290   -7.0140   23.7510 C   0  0  0  0  0  3  0  0  0  0  0  0
  -21.1730   -6.2550   24.9280 C   0  0  0  0  0  3  0  0  0  0  0  0
  -21.4960   -4.8850   24.9310 C   0  0  0  0  0  0  0  0  0  0  0  0
  -21.9760   -4.2720   23.7610 C   0  0  0  0  0  3  0  0  0  0  0  0
  -22.1330   -5.0280   22.5860 C   0  0  0  0  0  0  0  0  0  0  0  0
  -22.5770   -4.4270   21.4560 F   0  0  0  0  0  0  0  0  0  0  0  0
  -21.3390   -4.1540   26.0600 F   0  0  0  0  0  0  0  0  0  0  0  0
  -23.1220  -13.7080   21.0220 C   0  0  0  0  0  0  0  0  0  0  0  0
  -22.4140  -13.0260   21.9160 N   0  0  0  0  0  0  0  0  0  0  0  0
  -22.6850  -14.7420   20.5190 O   0  0  0  0  0  0  0  0  0  0  0  0
  -22.7800  -12.1900   22.3450 H   0  0  0  0  0  0  0  0  0  0  0  0
  -21.4920  -13.3490   22.1750 H   0  0  0  0  0  0  0  0  0  0  0  0
  -25.7530  -15.3190   20.0990 N   0  0  0  0  0  0  0  0  0  0  0  0
  -24.9980  -15.9850   20.2240 H   0  0  0  0  0  0  0  0  0  0  0  0
  -26.5790  -15.7310   19.6830 H   0  0  0  0  0  0  0  0  0  0  0  0
  -28.6180  -21.8100   19.5770 N   0  0  0  0  0  0  0  0  0  0  0  0
  -29.0970  -21.6600   18.6860 H   0  0  0  0  0  0  0  0  0  0  0  0
  -28.9590  -23.0470   20.3130 C   0  0  0  0  0  2  0  0  0  0  0  0
  -28.5980  -24.3130   19.4880 C   0  0  0  0  0  2  0  0  0  0  0  0
  -28.6190  -25.6200   20.3150 C   0  0  0  0  0  2  0  0  0  0  0  0
  -28.5240  -26.8080   19.5130 O   0  0  0  0  0  0  0  0  0  0  0  0
  -24.6550  -31.6360   23.0460 C   0  0  0  0  0  0  0  0  0  0  0  0
  -27.3380  -27.5000   19.6070 C   0  0  0  0  0  0  0  0  0  0  0  0
  -23.4480  -30.3330   21.3240 C   0  0  0  0  0  3  0  0  0  0  0  0
  -24.9100  -28.9370   19.7650 C   0  0  0  0  0  0  0  0  0  0  0  0
  -25.9590  -30.7680   21.1080 C   0  0  0  0  0  2  0  0  0  0  0  0
  -26.0650  -29.4480   20.3690 C   0  0  0  0  0  0  0  0  0  0  0  0
  -27.2840  -28.7390   20.2840 C   0  0  0  0  0  3  0  0  0  0  0  0
  -26.1690  -26.9980   19.0010 C   0  0  0  0  0  3  0  0  0  0  0  0
  -24.9560  -27.7100   19.0770 C   0  0  0  0  0  3  0  0  0  0  0  0
  -23.6470  -29.7600   19.8940 C   0  0  0  0  0  2  0  0  0  0  0  0
  -24.7070  -30.9240   21.8860 N   0  0  0  0  0  0  0  0  0  0  0  0
  -23.5780  -31.8430   23.6230 O   0  0  0  0  0  0  0  0  0  0  0  0
  -22.8370  -29.2300   22.2160 C   0  0  0  0  0  0  0  0  0  0  0  0
  -21.5110  -29.0480   22.1180 N   0  0  0  0  0  0  0  0  0  0  0  0
  -23.5520  -28.5450   22.9530 O   0  0  0  0  0  0  0  0  0  0  0  0
  -20.9940  -29.6560   21.4990 H   0  0  0  0  0  0  0  0  0  0  0  0
  -18.1630  -27.7820   22.6140 C   0  0  0  0  0  0  0  0  0  0  0  0
  -20.7260  -28.0400   22.8300 C   0  0  0  0  0  3  0  0  0  0  0  0
  -20.8210  -26.6630   22.1300 C   0  0  0  0  0  2  0  0  0  0  0  0
  -19.6900  -26.4180   21.1280 C   0  0  0  0  0  2  0  0  0  0  0  0
  -18.3280  -26.4950   21.8220 C   0  0  0  0  0  2  0  0  0  0  0  0
  -19.2890  -28.5150   23.0740 C   0  0  0  0  0  0  0  0  0  0  0  0
  -19.0810  -29.7220   23.7740 C   0  0  0  0  0  3  0  0  0  0  0  0
  -17.7790  -30.1970   24.0200 C   0  0  0  0  0  3  0  0  0  0  0  0
  -16.6670  -29.4600   23.5770 C   0  0  0  0  0  3  0  0  0  0  0  0
  -16.8610  -28.2530   22.8800 C   0  0  0  0  0  3  0  0  0  0  0  0
  -25.9390  -32.2460   23.6900 C   0  0  0  0  0  3  0  0  0  0  0  0
  -25.6030  -33.6010   24.1490 N   0  0  0  0  0  0  0  0  0  0  0  0
  -25.8960  -34.7240   23.4780 C   0  0  0  0  0  0  0  0  0  0  0  0
  -26.5490  -34.7290   22.4310 O   0  0  0  0  0  0  0  0  0  0  0  0
  -25.0210  -33.6700   24.9700 H   0  0  0  0  0  0  0  0  0  0  0  0
  -24.1150  -36.4910   23.3130 C   0  0  0  0  0  1  0  0  0  0  0  0
  -25.3830  -36.0540   24.0630 C   0  0  0  0  0  3  0  0  0  0  0  0
  -27.5090  -36.9230   24.9300 C   0  0  0  0  0  1  0  0  0  0  0  0
  -26.3850  -37.1410   24.0220 N   0  0  0  0  0  0  0  0  0  0  0  0
  -25.9590  -38.0340   24.2530 H   0  0  0  0  0  0  0  0  0  0  0  0
  -26.5110  -31.3810   24.8790 C   0  0  1  0  0  0  0  0  0  0  0  0
  -25.4570  -31.0280   25.9540 C   0  0  0  0  0  1  0  0  0  0  0  0
  -27.1070  -30.0560   24.3490 C   0  0  0  0  0  1  0  0  0  0  0  0
  -27.6660  -32.1400   25.5730 C   0  0  0  0  0  1  0  0  0  0  0  0
  1  3  2  0
  3  9  1  0
  3  2  2  0
  4  5  1  0
  5  8  2  0
  6  4  2  0
  6  9  1  0
  8  7  1  0
  8 18  1  0
  9  7  2  0
 10 18  1  0
 11 16  1  0
 12 13  1  0
 12 11  1  0
 14 13  1  0
 14 23  1  0
 14 15  1  0
 16 10  1  0
 16 15  1  0
 17 10  2  0
 18 19  1  0
 20 21  2  0
 21 40  1  0
 22 21  1  0
 22 25  1  0
 23 20  1  0
 23 24  1  0
 24 22  2  0
 25 26  1  0
 26 27  2  0
 28 31  1  0
 28 27  1  0
 29 28  2  0
 30 29  1  0
 30 25  2  0
 31 32  1  0
 32 37  2  0
 32 33  1  0
 33 34  2  0
 34 35  1  0
 35 39  1  0
 36 35  2  0
 37 36  1  0
 38 37  1  0
 40 41  1  0
 41 44  1  0
 41 43  1  0
 42 40  2  0
 45 46  1  0
 45 20  1  0
 47 45  1  0
 48 50  1  0
  3 48  1  6
 49 48  1  0
 51 50  1  0
 51 52  1  0
 53 55  1  0
 53 52  1  0
 54 65  2  0
 55 60  1  0
 56 64  1  0
 56 66  1  0
 57 63  1  0
 57 59  1  0
 58 64  1  0
 59 58  1  0
 60 59  2  0
 61 62  1  0
 61 55  2  0
 62 57  2  0
 63 56  1  0
 64 54  1  0
 66 68  2  0
 67 66  1  0
 69 67  1  0
 70 79  2  0
 70 75  1  0
 71 67  1  0
 71 75  1  0
 72 71  1  0
 73 74  1  0
 73 72  1  0
 74 70  1  0
 75 76  2  0
 76 77  1  0
 78 77  2  0
 79 78  1  0
 80 54  1  0
 80 81  1  0
 80 90  1  0
 81 84  1  0
 82 86  1  0
 82 81  1  0
 83 82  2  0
 86 85  1  0
 88 86  1  0
 88 89  1  0
 88 87  1  0
 90 93  1  1
 90 91  1  0
 92 90  1  0
M  ISO  4  10 100  18 100  52 101  53 101
M  END
>  <TORSDO>  (8) 
F 21

>  <SCORE>  (8) 
-11.931

>  <name>  (8) 
7

>  <ligand_id>  (8) 
7

>  <original_smiles>  (8) 
[H]c1c([H])c([H])c2c(c1[H])C([H])([H])C([H])([H])C([H])([H])C2([H])N([H])C(=O)C1([H])N(C(=O)C([H])(N([H])C(=O)C([H])(N([H])C([H])([H])[H])C([H])([H])[H])C(C([H])([H])[H])(C([H])([H])[H])C([H])([H])[H])C([H])([H])c2c([H])c(OC([H])([H])C([H])([H])C([H])([H])N([H])S(=O)(=O)c3c([H])c([H])c([H])c(N([H])C(=O)N4C([H])([H])C([H])([H])C([H])([H])C([H])(n5nc(-c6c([H])c([H])c(Oc7c([H])c([H])c(F)c([H])c7F)c([H])c6[H])c(C(=O)N([H])[H])c5N([H])[H])C4([H])[H])c3[H])c([H])c([H])c2C1([H])[H]

>  <smiles>  (8) 
[H]c1c([H])c([H])c2c(c1[H])C([H])([H])C([H])([H])C([H])([H])C2([H])N([H])C(=O)C1([H])N(C(=O)C([H])(N([H])C(=O)C([H])(N([H])C([H])([H])[H])C([H])([H])[H])C(C([H])([H])[H])(C([H])([H])[H])C([H])([H])[H])C([H])([H])c2c([H])c(OC([H])([H])C([H])([H])C([H])([H])N([H])S(=O)(=O)c3c([H])c([H])c([H])c(N([H])C(=O)N4C([H])([H])C([H])([H])C([H])([H])C([H])(n5nc(-c6c([H])c([H])c(Oc7c([H])c([H])c(F)c([H])c7F)c([H])c6[H])c(C(=O)N([H])[H])c5N([H])[H])C4([H])[H])c3[H])c([H])c([H])c2C1([H])[H]

$$$$
8:0:0
     RDKit          3D

 84 91  0  0  1  0  0  0  0  0999 V2000
  -28.0360  -24.2690   20.5090 C   0  0  0  0  0  2  0  0  0  0  0  0
  -28.2220  -25.8810   20.2090 O   0  0  0  0  0  0  0  0  0  0  0  0
  -24.6160  -31.8370   23.1800 C   0  0  0  0  0  0  0  0  0  0  0  0
  -27.1870  -26.9520   20.2070 C   0  0  0  0  0  0  0  0  0  0  0  0
  -23.4240  -30.4230   21.5540 C   0  0  0  0  0  3  0  0  0  0  0  0
  -24.8760  -28.8110   20.1480 C   0  0  0  0  0  0  0  0  0  0  0  0
  -25.9900  -30.6480   21.3990 C   0  0  0  0  0  2  0  0  0  0  0  0
  -26.0650  -29.2330   20.7580 C   0  0  0  0  0  0  0  0  0  0  0  0
  -27.2180  -28.3250   20.7560 C   0  0  0  0  0  3  0  0  0  0  0  0
  -25.9650  -26.6750   19.5560 C   0  0  0  0  0  3  0  0  0  0  0  0
  -24.8500  -27.5530   19.5260 C   0  0  0  0  0  3  0  0  0  0  0  0
  -23.6540  -29.7270   20.1840 C   0  0  0  0  0  2  0  0  0  0  0  0
  -24.6980  -30.9970   22.0980 N   0  0  0  0  0  0  0  0  0  0  0  0
  -23.5260  -32.1260   23.7010 O   0  0  0  0  0  0  0  0  0  0  0  0
  -22.7360  -29.4330   22.5290 C   0  0  0  0  0  0  0  0  0  0  0  0
  -21.4040  -29.2710   22.4160 N   0  0  0  0  0  0  0  0  0  0  0  0
  -23.4070  -28.8080   23.3540 O   0  0  0  0  0  0  0  0  0  0  0  0
  -20.9170  -29.8260   21.7270 H   0  0  0  0  0  0  0  0  0  0  0  0
  -18.0230  -28.0690   22.9520 C   0  0  0  0  0  0  0  0  0  0  0  0
  -20.5850  -28.3390   23.1970 C   0  0  0  0  0  3  0  0  0  0  0  0
  -20.6840  -26.9040   22.6300 C   0  0  0  0  0  2  0  0  0  0  0  0
  -19.5750  -26.5740   21.6240 C   0  0  0  0  0  2  0  0  0  0  0  0
  -18.1970  -26.7180   22.2770 C   0  0  0  0  0  2  0  0  0  0  0  0
  -19.1440  -28.8370   23.3690 C   0  0  0  0  0  0  0  0  0  0  0  0
  -18.9240  -30.0980   23.9630 C   0  0  0  0  0  3  0  0  0  0  0  0
  -17.6200  -30.5940   24.1420 C   0  0  0  0  0  3  0  0  0  0  0  0
  -16.5140  -29.8250   23.7380 C   0  0  0  0  0  3  0  0  0  0  0  0
  -16.7170  -28.5640   23.1490 C   0  0  0  0  0  3  0  0  0  0  0  0
  -25.8860  -32.4890   23.8060 C   0  0  0  0  0  3  0  0  0  0  0  0
  -26.4090  -31.7230   25.0840 C   0  0  1  0  0  0  0  0  0  0  0  0
  -25.3200  -31.4800   26.1550 C   0  0  0  0  0  1  0  0  0  0  0  0
  -27.0000  -30.3470   24.6990 C   0  0  0  0  0  1  0  0  0  0  0  0
  -27.5570  -32.5240   25.7410 C   0  0  0  0  0  1  0  0  0  0  0  0
  -25.5550  -33.8830   24.1530 N   0  0  0  0  0  0  0  0  0  0  0  0
  -25.8660  -34.9530   23.4100 C   0  0  0  0  0  0  0  0  0  0  0  0
  -26.5250  -34.8730   22.3700 O   0  0  0  0  0  0  0  0  0  0  0  0
  -24.9660  -34.0180   24.9610 H   0  0  0  0  0  0  0  0  0  0  0  0
  -24.1090  -36.7340   23.1180 C   0  0  0  0  0  1  0  0  0  0  0  0
  -25.3720  -36.3320   23.8960 C   0  0  0  0  0  3  0  0  0  0  0  0
  -27.5150  -37.2360   24.6870 C   0  0  0  0  0  1  0  0  0  0  0  0
  -26.3890  -37.4000   23.7720 N   0  0  0  0  0  0  0  0  0  0  0  0
  -25.9750  -38.3130   23.9390 H   0  0  0  0  0  0  0  0  0  0  0  0
  -28.7190  -22.6990   19.9240 C   0  0  0  0  0  2  0  0  0  0  0  0
  -28.9900  -21.2170   20.5850 O   0  0  0  0  0  0  0  0  0  0  0  0
  -29.0780  -19.6810   19.9990 C   0  0  0  0  0  2  0  0  0  0  0  0
  -29.8810  -18.1670   20.5600 C   0  0  0  0  0  2  0  0  0  0  0  0
  -30.3820  -15.2640   20.2540 C   0  0  0  0  0  0  0  0  0  0  0  0
  -30.3490  -12.8260   19.3660 C   0  0  0  0  0  2  0  0  0  0  0  0
  -29.4210  -12.6110   18.1440 C   0  0  0  0  0  2  0  0  0  0  0  0
  -27.9740  -12.3490   18.5940 C   0  0  0  0  0  2  0  0  0  0  0  0
  -27.5290  -13.3180   19.7180 C   0  0  0  0  0  3  0  0  0  0  0  0
  -28.5830  -13.4670   20.8330 C   0  0  0  0  0  2  0  0  0  0  0  0
  -29.8060  -13.9670   20.1860 N   0  0  0  0  0  0  0  0  0  0  0  0
  -31.6080  -15.2630   20.0800 O   0  0  0  0  0  0  0  0  0  0  0  0
  -29.6180  -16.5330   20.3180 N   0  0  0  0  0  0  0  0  0  0  0  0
  -28.6290  -16.3280   20.3210 H   0  0  0  0  0  0  0  0  0  0  0  0
  -25.1610  -13.8840   20.4750 C   0  0  0  0  0  0  0  0  0  0  0  0
  -24.0990  -13.1090   20.8510 C   0  0  0  0  0  0  0  0  0  0  0  0
  -24.5680  -11.7590   20.8280 C   0  0  0  0  0  0  0  0  0  0  0  0
  -26.2030  -13.0060   20.2350 N   0  0  0  0  0  0  0  0  0  0  0  0
  -25.8590  -11.7220   20.5170 N   0  0  0  0  0  0  0  0  0  0  0  0
  -23.8400  -10.4970   21.0260 C   0  0  0  0  0  0  0  0  0  0  0  0
  -24.2820   -9.5240   21.9500 C   0  0  0  0  0  3  0  0  0  0  0  0
  -23.5520   -8.3310   22.1370 C   0  0  0  0  0  3  0  0  0  0  0  0
  -22.3660   -8.1010   21.4000 C   0  0  0  0  0  0  0  0  0  0  0  0
  -21.9430   -9.0620   20.4650 C   0  0  0  0  0  3  0  0  0  0  0  0
  -22.6730  -10.2470   20.2760 C   0  0  0  0  0  3  0  0  0  0  0  0
  -21.6060   -6.9600   21.4960 O   0  0  0  0  0  0  0  0  0  0  0  0
  -21.5890   -6.2020   22.6400 C   0  0  0  0  0  0  0  0  0  0  0  0
  -21.2240   -6.7480   23.8900 C   0  0  0  0  0  3  0  0  0  0  0  0
  -21.1520   -5.9180   25.0260 C   0  0  0  0  0  3  0  0  0  0  0  0
  -21.4340   -4.5440   24.9150 C   0  0  0  0  0  0  0  0  0  0  0  0
  -21.7920   -3.9970   23.6700 C   0  0  0  0  0  3  0  0  0  0  0  0
  -21.8660   -4.8250   22.5350 C   0  0  0  0  0  0  0  0  0  0  0  0
  -22.1910   -4.2890   21.3340 F   0  0  0  0  0  0  0  0  0  0  0  0
  -21.3580   -3.7440   26.0040 F   0  0  0  0  0  0  0  0  0  0  0  0
  -22.7020  -13.5880   21.1150 C   0  0  0  0  0  0  0  0  0  0  0  0
  -21.9740  -12.9020   21.9880 N   0  0  0  0  0  0  0  0  0  0  0  0
  -22.2660  -14.6070   20.5800 O   0  0  0  0  0  0  0  0  0  0  0  0
  -22.3410  -12.0790   22.4420 H   0  0  0  0  0  0  0  0  0  0  0  0
  -21.0360  -13.2060   22.2080 H   0  0  0  0  0  0  0  0  0  0  0  0
  -25.3200  -15.2530   20.2870 N   0  0  0  0  0  0  0  0  0  0  0  0
  -24.5470  -15.9020   20.3920 H   0  0  0  0  0  0  0  0  0  0  0  0
  -26.1550  -15.6900   19.9190 H   0  0  0  0  0  0  0  0  0  0  0  0
  2  1  1  0
  3 14  2  0
  4  2  1  0
  4  9  1  0
  5 13  1  0
  5 15  1  0
  6 12  1  0
  6  8  1  0
  7 13  1  0
  8  7  1  0
  9  8  2  0
 10  4  2  0
 11 10  1  0
 11  6  2  0
 12  5  1  0
 13  3  1  0
 15 17  2  0
 16 15  1  0
 18 16  1  0
 19 28  2  0
 19 24  1  0
 20 16  1  0
 20 24  1  0
 21 20  1  0
 22 23  1  0
 22 21  1  0
 23 19  1  0
 24 25  2  0
 25 26  1  0
 27 26  2  0
 28 27  1  0
 29  3  1  0
 29 34  1  0
 29 30  1  0
 30 33  1  1
 30 31  1  0
 32 30  1  0
 34 37  1  0
 35 39  1  0
 35 34  1  0
 36 35  2  0
 39 38  1  0
 41 39  1  0
 41 42  1  0
 41 40  1  0
 43  1  1  0
 43 44  1  0
 45 46  1  0
 45 44  1  0
 47 55  1  0
 48 53  1  0
 49 50  1  0
 49 48  1  0
 51 50  1  0
 51 60  1  0
 51 52  1  0
 53 47  1  0
 53 52  1  0
 54 47  2  0
 55 56  1  0
 55 46  1  0
 57 58  2  0
 58 77  1  0
 59 58  1  0
 59 62  1  0
 60 57  1  0
 60 61  1  0
 61 59  2  0
 62 63  1  0
 63 64  2  0
 65 68  1  0
 65 64  1  0
 66 65  2  0
 67 66  1  0
 67 62  2  0
 68 69  1  0
 69 70  1  0
 70 71  2  0
 72 71  1  0
 72 76  1  0
 73 72  2  0
 74 69  2  0
 74 73  1  0
 75 74  1  0
 77 78  1  0
 78 81  1  0
 78 80  1  0
 79 77  2  0
 82 83  1  0
 82 57  1  0
 84 82  1  0
M  ISO  4   1 101   2 101  47 100  55 100
M  END
>  <TORSDO>  (9) 
F 20

>  <SCORE>  (9) 
-15.761

>  <name>  (9) 
8

>  <ligand_id>  (9) 
8

>  <original_smiles>  (9) 
[H]c1c([H])c([H])c2c(c1[H])C([H])([H])C([H])([H])C([H])([H])C2([H])N([H])C(=O)C1([H])N(C(=O)C([H])(N([H])C(=O)C([H])(N([H])C([H])([H])[H])C([H])([H])[H])C(C([H])([H])[H])(C([H])([H])[H])C([H])([H])[H])C([H])([H])c2c([H])c(OC([H])([H])C([H])([H])OC([H])([H])C([H])([H])N([H])C(=O)N3C([H])([H])C([H])([H])C([H])([H])C([H])(n4nc(-c5c([H])c([H])c(Oc6c([H])c([H])c(F)c([H])c6F)c([H])c5[H])c(C(=O)N([H])[H])c4N([H])[H])C3([H])[H])c([H])c([H])c2C1([H])[H]

>  <smiles>  (9) 
[H]c1c([H])c([H])c2c(c1[H])C([H])([H])C([H])([H])C([H])([H])C2([H])N([H])C(=O)C1([H])N(C(=O)C([H])(N([H])C(=O)C([H])(N([H])C([H])([H])[H])C([H])([H])[H])C(C([H])([H])[H])(C([H])([H])[H])C([H])([H])[H])C([H])([H])c2c([H])c(OC([H])([H])C([H])([H])OC([H])([H])C([H])([H])N([H])C(=O)N3C([H])([H])C([H])([H])C([H])([H])C([H])(n4nc(-c5c([H])c([H])c(Oc6c([H])c([H])c(F)c([H])c6F)c([H])c5[H])c(C(=O)N([H])[H])c4N([H])[H])C3([H])[H])c([H])c([H])c2C1([H])[H]

$$$$
9:0:0
     RDKit          3D

 90 97  0  0  1  0  0  0  0  0999 V2000
  -27.8170  -21.1990   19.7220 C   0  0  0  0  0  0  0  0  0  0  0  0
  -27.7300  -22.1630   18.7990 N   0  0  0  0  0  0  0  0  0  0  0  0
  -27.5940  -21.4010   20.9200 O   0  0  0  0  0  0  0  0  0  0  0  0
  -27.9360  -21.9100   17.8420 H   0  0  0  0  0  0  0  0  0  0  0  0
  -28.1660  -19.7950   19.2260 C   0  0  0  0  0  2  0  0  0  0  0  0
  -29.2920  -19.1030   20.0270 C   0  0  0  0  0  2  0  0  0  0  0  0
  -29.0390  -17.5970   20.2110 C   0  0  0  0  0  2  0  0  0  0  0  0
  -30.1890  -16.8780   20.9430 C   0  0  0  0  0  2  0  0  0  0  0  0
  -30.6550  -14.4540   20.5390 C   0  0  0  0  0  0  0  0  0  0  0  0
  -30.3740  -12.3170   19.3640 C   0  0  0  0  0  2  0  0  0  0  0  0
  -29.4380  -12.5500   18.1600 C   0  0  0  0  0  2  0  0  0  0  0  0
  -27.9600  -12.4170   18.5760 C   0  0  0  0  0  2  0  0  0  0  0  0
  -27.6180  -13.2450   19.8450 C   0  0  0  0  0  3  0  0  0  0  0  0
  -28.6620  -12.9760   20.9550 C   0  0  0  0  0  2  0  0  0  0  0  0
  -29.9960  -13.2770   20.4070 N   0  0  0  0  0  0  0  0  0  0  0  0
  -31.7780  -14.6640   20.0750 O   0  0  0  0  0  0  0  0  0  0  0  0
  -29.9110  -15.4470   21.0510 N   0  0  0  0  0  0  0  0  0  0  0  0
  -29.0080  -15.1800   21.4120 H   0  0  0  0  0  0  0  0  0  0  0  0
  -25.2090  -13.8690   20.5190 C   0  0  0  0  0  0  0  0  0  0  0  0
  -24.1360  -13.0990   20.8820 C   0  0  0  0  0  0  0  0  0  0  0  0
  -24.5960  -11.7470   20.8660 C   0  0  0  0  0  0  0  0  0  0  0  0
  -26.2550  -12.9820   20.3060 N   0  0  0  0  0  0  0  0  0  0  0  0
  -25.8870  -11.7040   20.5720 N   0  0  0  0  0  0  0  0  0  0  0  0
  -23.8670  -10.4860   21.0550 C   0  0  0  0  0  0  0  0  0  0  0  0
  -24.2890   -9.5230   21.9980 C   0  0  0  0  0  3  0  0  0  0  0  0
  -23.5610   -8.3280   22.1760 C   0  0  0  0  0  3  0  0  0  0  0  0
  -22.3970   -8.0860   21.4080 C   0  0  0  0  0  0  0  0  0  0  0  0
  -21.9950   -9.0370   20.4530 C   0  0  0  0  0  3  0  0  0  0  0  0
  -22.7240  -10.2240   20.2730 C   0  0  0  0  0  3  0  0  0  0  0  0
  -21.6430   -6.9410   21.4930 O   0  0  0  0  0  0  0  0  0  0  0  0
  -21.5790   -6.2040   22.6490 C   0  0  0  0  0  0  0  0  0  0  0  0
  -21.1270   -6.7610   23.8650 C   0  0  0  0  0  3  0  0  0  0  0  0
  -21.0130   -5.9510   25.0120 C   0  0  0  0  0  3  0  0  0  0  0  0
  -21.3400   -4.5840   24.9450 C   0  0  0  0  0  0  0  0  0  0  0  0
  -21.7860   -4.0250   23.7340 C   0  0  0  0  0  3  0  0  0  0  0  0
  -21.9030   -4.8330   22.5890 C   0  0  0  0  0  0  0  0  0  0  0  0
  -22.3120   -4.2850   21.4190 F   0  0  0  0  0  0  0  0  0  0  0  0
  -21.2240   -3.8030   26.0440 F   0  0  0  0  0  0  0  0  0  0  0  0
  -22.7350  -13.5790   21.1380 C   0  0  0  0  0  0  0  0  0  0  0  0
  -21.9960  -12.8850   21.9980 N   0  0  0  0  0  0  0  0  0  0  0  0
  -22.3030  -14.6020   20.6100 O   0  0  0  0  0  0  0  0  0  0  0  0
  -22.3570  -12.0560   22.4470 H   0  0  0  0  0  0  0  0  0  0  0  0
  -21.0560  -13.1880   22.2110 H   0  0  0  0  0  0  0  0  0  0  0  0
  -25.3780  -15.2380   20.3350 N   0  0  0  0  0  0  0  0  0  0  0  0
  -24.6080  -15.8930   20.4280 H   0  0  0  0  0  0  0  0  0  0  0  0
  -26.2320  -15.6750   20.0110 H   0  0  0  0  0  0  0  0  0  0  0  0
  -27.2480  -23.5180   19.0400 C   0  0  0  0  0  2  0  0  0  0  0  0
  -28.3950  -24.5410   19.1920 C   0  0  0  0  0  2  0  0  0  0  0  0
  -28.3100  -25.3840   20.4800 C   0  0  0  0  0  2  0  0  0  0  0  0
  -28.4140  -26.7810   20.2060 O   0  0  0  0  0  0  0  0  0  0  0  0
  -24.5520  -31.8870   23.2420 C   0  0  0  0  0  0  0  0  0  0  0  0
  -27.2300  -27.4810   20.1830 C   0  0  0  0  0  0  0  0  0  0  0  0
  -23.3580  -30.4910   21.5860 C   0  0  0  0  0  3  0  0  0  0  0  0
  -24.8240  -28.9600   20.1730 C   0  0  0  0  0  0  0  0  0  0  0  0
  -25.8810  -30.8640   21.4020 C   0  0  0  0  0  2  0  0  0  0  0  0
  -25.9760  -29.4930   20.7700 C   0  0  0  0  0  0  0  0  0  0  0  0
  -27.1800  -28.7600   20.7710 C   0  0  0  0  0  3  0  0  0  0  0  0
  -26.0630  -26.9560   19.5800 C   0  0  0  0  0  3  0  0  0  0  0  0
  -24.8630  -27.6890   19.5740 C   0  0  0  0  0  3  0  0  0  0  0  0
  -23.5790  -29.8170   20.2070 C   0  0  0  0  0  2  0  0  0  0  0  0
  -24.6150  -31.0930   22.1370 N   0  0  0  0  0  0  0  0  0  0  0  0
  -23.4670  -32.1540   23.7780 O   0  0  0  0  0  0  0  0  0  0  0  0
  -22.7010  -29.4640   22.5370 C   0  0  0  0  0  0  0  0  0  0  0  0
  -21.3780  -29.2810   22.4000 N   0  0  0  0  0  0  0  0  0  0  0  0
  -23.3790  -28.8330   23.3530 O   0  0  0  0  0  0  0  0  0  0  0  0
  -20.8930  -29.8480   21.7210 H   0  0  0  0  0  0  0  0  0  0  0  0
  -18.0050  -28.0730   22.8320 C   0  0  0  0  0  0  0  0  0  0  0  0
  -20.5550  -28.3370   23.1540 C   0  0  0  0  0  3  0  0  0  0  0  0
  -20.6720  -26.9060   22.5780 C   0  0  0  0  0  2  0  0  0  0  0  0
  -19.5960  -26.5800   21.5380 C   0  0  0  0  0  2  0  0  0  0  0  0
  -18.1970  -26.7300   22.1520 C   0  0  0  0  0  2  0  0  0  0  0  0
  -19.1140  -28.8400   23.2830 C   0  0  0  0  0  0  0  0  0  0  0  0
  -18.8830  -30.1030   23.8660 C   0  0  0  0  0  3  0  0  0  0  0  0
  -17.5750  -30.6020   24.0120 C   0  0  0  0  0  3  0  0  0  0  0  0
  -16.4790  -29.8330   23.5810 C   0  0  0  0  0  3  0  0  0  0  0  0
  -16.6950  -28.5710   22.9960 C   0  0  0  0  0  3  0  0  0  0  0  0
  -25.8350  -32.5140   23.8730 C   0  0  0  0  0  3  0  0  0  0  0  0
  -25.5280  -33.9140   24.1900 N   0  0  0  0  0  0  0  0  0  0  0  0
  -25.8810  -34.9600   23.4290 C   0  0  0  0  0  0  0  0  0  0  0  0
  -26.5700  -34.8480   22.4110 O   0  0  0  0  0  0  0  0  0  0  0  0
  -24.9140  -34.0750   24.9750 H   0  0  0  0  0  0  0  0  0  0  0  0
  -24.1730  -36.7650   23.0210 C   0  0  0  0  0  1  0  0  0  0  0  0
  -25.3900  -36.3550   23.8660 C   0  0  0  0  0  3  0  0  0  0  0  0
  -27.5080  -37.2310   24.7490 C   0  0  0  0  0  1  0  0  0  0  0  0
  -26.4330  -37.4000   23.7740 N   0  0  0  0  0  0  0  0  0  0  0  0
  -26.0300  -38.3240   23.9050 H   0  0  0  0  0  0  0  0  0  0  0  0
  -26.3340  -31.7480   25.1570 C   0  0  1  0  0  0  0  0  0  0  0  0
  -25.2290  -31.5180   26.2140 C   0  0  0  0  0  1  0  0  0  0  0  0
  -26.9140  -30.3660   24.7720 C   0  0  0  0  0  1  0  0  0  0  0  0
  -27.4800  -32.5400   25.8300 C   0  0  0  0  0  1  0  0  0  0  0  0
  1  3  2  0
  2 47  1  0
  2  1  1  0
  4  2  1  0
  5  1  1  0
  5  6  1  0
  6  7  1  0
  7  8  1  0
  8 17  1  0
  9 17  1  0
 10 15  1  0
 11 12  1  0
 11 10  1  0
 13 12  1  0
 13 22  1  0
 13 14  1  0
 15  9  1  0
 15 14  1  0
 16  9  2  0
 17 18  1  0
 19 20  2  0
 20 39  1  0
 21 20  1  0
 21 24  1  0
 22 19  1  0
 22 23  1  0
 23 21  2  0
 24 25  1  0
 25 26  2  0
 27 30  1  0
 27 26  1  0
 28 27  2  0
 29 28  1  0
 29 24  2  0
 30 31  1  0
 31 32  1  0
 32 33  2  0
 34 33  1  0
 34 38  1  0
 35 34  2  0
 36 31  2  0
 36 35  1  0
 37 36  1  0
 39 40  1  0
 40 43  1  0
 40 42  1  0
 41 39  2  0
 44 45  1  0
 44 19  1  0
 46 44  1  0
 47 48  1  0
 48 49  1  0
 50 49  1  0
 51 62  2  0
 52 50  1  0
 52 57  1  0
 53 61  1  0
 53 63  1  0
 54 60  1  0
 54 56  1  0
 55 61  1  0
 56 57  2  0
 56 55  1  0
 58 52  2  0
 59 58  1  0
 59 54  2  0
 60 53  1  0
 61 51  1  0
 63 65  2  0
 64 63  1  0
 66 64  1  0
 67 76  2  0
 67 72  1  0
 68 64  1  0
 68 72  1  0
 69 68  1  0
 70 71  1  0
 70 69  1  0
 71 67  1  0
 72 73  2  0
 73 74  1  0
 75 74  2  0
 76 75  1  0
 77 51  1  0
 77 78  1  0
 77 87  1  0
 78 81  1  0
 79 83  1  0
 79 78  1  0
 80 79  2  0
 83 82  1  0
 85 83  1  0
 85 86  1  0
 85 84  1  0
 87 90  1  1
 87 88  1  0
 89 87  1  0
M  ISO  4   9 100  17 100  49 101  50 101
M  END
>  <TORSDO>  (10) 
F 23

>  <SCORE>  (10) 
-12.702

>  <name>  (10) 
9

>  <ligand_id>  (10) 
9

>  <original_smiles>  (10) 
[H]c1c([H])c([H])c2c(c1[H])C([H])([H])C([H])([H])C([H])([H])C2([H])N([H])C(=O)C1([H])N(C(=O)C([H])(N([H])C(=O)C([H])(N([H])C([H])([H])[H])C([H])([H])[H])C(C([H])([H])[H])(C([H])([H])[H])C([H])([H])[H])C([H])([H])c2c([H])c(OC([H])([H])C([H])([H])C([H])([H])N([H])C(=O)C([H])([H])C([H])([H])C([H])([H])C([H])([H])N([H])C(=O)N3C([H])([H])C([H])([H])C([H])([H])C([H])(n4nc(-c5c([H])c([H])c(Oc6c([H])c([H])c(F)c([H])c6F)c([H])c5[H])c(C(=O)N([H])[H])c4N([H])[H])C3([H])[H])c([H])c([H])c2C1([H])[H]

>  <smiles>  (10) 
[H]c1c([H])c([H])c2c(c1[H])C([H])([H])C([H])([H])C([H])([H])C2([H])N([H])C(=O)C1([H])N(C(=O)C([H])(N([H])C(=O)C([H])(N([H])C([H])([H])[H])C([H])([H])[H])C(C([H])([H])[H])(C([H])([H])[H])C([H])([H])[H])C([H])([H])c2c([H])c(OC([H])([H])C([H])([H])C([H])([H])N([H])C(=O)C([H])([H])C([H])([H])C([H])([H])C([H])([H])N([H])C(=O)N3C([H])([H])C([H])([H])C([H])([H])C([H])(n4nc(-c5c([H])c([H])c(Oc6c([H])c([H])c(F)c([H])c6F)c([H])c5[H])c(C(=O)N([H])[H])c4N([H])[H])C3([H])[H])c([H])c([H])c2C1([H])[H]

$$$$
10:0:0
     RDKit          3D

 81 85  0  0  1  0  0  0  0  0999 V2000
  -28.1090  -24.6470   20.3000 O   0  0  0  0  0  1  0  0  0  0  0  0
  -24.7100  -31.7810   23.1610 C   0  0  0  0  0  0  0  0  0  0  0  0
  -27.2070  -26.1440   20.2640 C   0  0  0  0  0  0  0  0  0  0  0  0
  -23.5560  -30.3680   21.5220 C   0  0  0  0  0  3  0  0  0  0  0  0
  -25.0090  -28.5810   20.1690 C   0  0  0  0  0  0  0  0  0  0  0  0
  -26.1560  -30.3130   21.5020 C   0  0  0  0  0  2  0  0  0  0  0  0
  -26.2110  -28.8120   20.8490 C   0  0  0  0  0  0  0  0  0  0  0  0
  -27.2590  -27.6460   20.8460 C   0  0  0  0  0  3  0  0  0  0  0  0
  -25.9680  -26.2870   19.5230 C   0  0  0  0  0  3  0  0  0  0  0  0
  -24.9660  -27.3480   19.4800 C   0  0  0  0  0  3  0  0  0  0  0  0
  -23.8360  -29.6140   20.1780 C   0  0  0  0  0  2  0  0  0  0  0  0
  -24.8390  -30.8700   22.1140 N   0  0  0  0  0  0  0  0  0  0  0  0
  -23.6010  -32.1150   23.6230 O   0  0  0  0  0  0  0  0  0  0  0  0
  -22.7620  -29.4580   22.5040 C   0  0  0  0  0  0  0  0  0  0  0  0
  -21.4220  -29.3560   22.3730 N   0  0  0  0  0  0  0  0  0  0  0  0
  -23.3780  -28.8290   23.3670 O   0  0  0  0  0  0  0  0  0  0  0  0
  -20.9670  -29.9120   21.6630 H   0  0  0  0  0  0  0  0  0  0  0  0
  -17.9970  -28.2130   22.9010 C   0  0  0  0  0  0  0  0  0  0  0  0
  -20.5670  -28.4380   23.1430 C   0  0  0  0  0  3  0  0  0  0  0  0
  -20.6330  -27.0060   22.5600 C   0  0  0  0  0  2  0  0  0  0  0  0
  -19.5210  -26.7160   21.5460 C   0  0  0  0  0  2  0  0  0  0  0  0
  -18.1460  -26.8740   22.1990 C   0  0  0  0  0  2  0  0  0  0  0  0
  -19.1320  -28.9550   23.3290 C   0  0  0  0  0  0  0  0  0  0  0  0
  -18.9320  -30.2040   23.9560 C   0  0  0  0  0  3  0  0  0  0  0  0
  -17.6350  -30.7130   24.1530 C   0  0  0  0  0  3  0  0  0  0  0  0
  -16.5160  -29.9710   23.7350 C   0  0  0  0  0  3  0  0  0  0  0  0
  -16.6980  -28.7220   23.1160 C   0  0  0  0  0  3  0  0  0  0  0  0
  -25.9400  -32.4590   23.8420 C   0  0  0  0  0  3  0  0  0  0  0  0
  -25.5980  -33.8650   24.1720 N   0  0  0  0  0  0  0  0  0  0  0  0
  -25.9200  -34.9450   23.4450 C   0  0  0  0  0  0  0  0  0  0  0  0
  -26.5760  -34.8640   22.4040 O   0  0  0  0  0  0  0  0  0  0  0  0
  -25.0070  -33.9990   24.9800 H   0  0  0  0  0  0  0  0  0  0  0  0
  -24.1680  -36.7480   23.1980 C   0  0  0  0  0  1  0  0  0  0  0  0
  -25.4480  -36.3330   23.9420 C   0  0  0  0  0  3  0  0  0  0  0  0
  -27.6060  -37.2470   24.6880 C   0  0  0  0  0  1  0  0  0  0  0  0
  -26.4650  -37.3980   23.7880 N   0  0  0  0  0  0  0  0  0  0  0  0
  -26.0550  -38.3150   23.9480 H   0  0  0  0  0  0  0  0  0  0  0  0
  -26.3960  -31.7200   25.1620 C   0  0  1  0  0  0  0  0  0  0  0  0
  -25.2580  -31.5140   26.1910 C   0  0  0  0  0  1  0  0  0  0  0  0
  -26.9880  -30.3300   24.8490 C   0  0  0  0  0  1  0  0  0  0  0  0
  -27.5230  -32.5250   25.8520 C   0  0  0  0  0  1  0  0  0  0  0  0
  -28.1400  -22.5480   20.1630 C   0  0  0  0  0 15  0  0  0  0  0  0
  -29.1420  -20.4180   20.2160 C   0  0  0  0  0 15  0  0  0  0  0  0
  -29.9010  -16.6470   20.0860 C   0  0  0  0  0  0  0  0  0  0  0  0
  -30.2300  -13.8900   19.2940 C   0  0  0  0  0  2  0  0  0  0  0  0
  -29.4480  -13.0530   18.1990 C   0  0  0  0  0  2  0  0  0  0  0  0
  -28.1340  -12.4820   18.7300 C   0  0  0  0  0  2  0  0  0  0  0  0
  -27.5010  -13.5140   19.6750 C   0  0  0  0  0  3  0  0  0  0  0  0
  -28.4750  -14.2100   20.6950 C   0  0  0  0  0  2  0  0  0  0  0  0
  -29.4550  -15.1290   19.9600 N   0  0  0  0  0  0  0  0  0  0  0  0
  -31.1430  -16.3980   20.0040 O   0  0  0  0  0  0  0  0  0  0  0  0
  -29.2570  -18.3100   20.1340 N   0  0  0  0  0  2  0  0  0  0  0  0
  -30.2580  -18.4710   20.1320 H   0  0  0  0  0  0  0  0  0  0  0  0
  -25.1600  -13.9200   20.5080 C   0  0  0  0  0  0  0  0  0  0  0  0
  -24.1280  -13.1120   20.8810 C   0  0  0  0  0  0  0  0  0  0  0  0
  -24.6260  -11.7720   20.8220 C   0  0  0  0  0  0  0  0  0  0  0  0
  -26.2240  -13.0860   20.2420 N   0  0  0  0  0  0  0  0  0  0  0  0
  -25.9190  -11.7780   20.4820 N   0  0  0  0  0  0  0  0  0  0  0  0
  -23.9140  -10.4950   21.0120 C   0  0  0  0  0  0  0  0  0  0  0  0
  -24.3570   -9.5290   21.9420 C   0  0  0  0  0  3  0  0  0  0  0  0
  -23.6350   -8.3280   22.1300 C   0  0  0  0  0  3  0  0  0  0  0  0
  -22.4560   -8.0830   21.3870 C   0  0  0  0  0  0  0  0  0  0  0  0
  -22.0290   -9.0390   20.4470 C   0  0  0  0  0  3  0  0  0  0  0  0
  -22.7510  -10.2310   20.2590 C   0  0  0  0  0  3  0  0  0  0  0  0
  -21.7070   -6.9350   21.4820 O   0  0  0  0  0  0  0  0  0  0  0  0
  -21.6700   -6.1910   22.6350 C   0  0  0  0  0  0  0  0  0  0  0  0
  -21.2140   -6.7320   23.8560 C   0  0  0  0  0  3  0  0  0  0  0  0
  -21.1260   -5.9140   25.0000 C   0  0  0  0  0  3  0  0  0  0  0  0
  -21.4850   -4.5540   24.9250 C   0  0  0  0  0  0  0  0  0  0  0  0
  -21.9340   -4.0110   23.7070 C   0  0  0  0  0  3  0  0  0  0  0  0
  -22.0220   -4.8270   22.5660 C   0  0  0  0  0  0  0  0  0  0  0  0
  -22.4340   -4.2930   21.3900 F   0  0  0  0  0  0  0  0  0  0  0  0
  -21.3950   -3.7660   26.0220 F   0  0  0  0  0  0  0  0  0  0  0  0
  -22.7270  -13.5620   21.1730 C   0  0  0  0  0  0  0  0  0  0  0  0
  -22.0260  -12.8570   22.0520 N   0  0  0  0  0  0  0  0  0  0  0  0
  -22.2670  -14.5820   20.6590 O   0  0  0  0  0  0  0  0  0  0  0  0
  -22.4140  -12.0340   22.4890 H   0  0  0  0  0  0  0  0  0  0  0  0
  -21.0880  -13.1430   22.2910 H   0  0  0  0  0  0  0  0  0  0  0  0
  -25.2790  -15.2960   20.3350 N   0  0  0  0  0  0  0  0  0  0  0  0
  -24.4980  -15.9290   20.4650 H   0  0  0  0  0  0  0  0  0  0  0  0
  -26.1180  -15.7610   20.0090 H   0  0  0  0  0  0  0  0  0  0  0  0
  2 13  2  0
  3  1  1  0
  3  8  1  0
  4 12  1  0
  4 14  1  0
  5 11  1  0
  5  7  1  0
  6 12  1  0
  7  6  1  0
  8  7  2  0
  9  3  2  0
 10  9  1  0
 10  5  2  0
 11  4  1  0
 12  2  1  0
 14 16  2  0
 15 14  1  0
 17 15  1  0
 18 27  2  0
 18 23  1  0
 19 15  1  0
 19 23  1  0
 20 19  1  0
 21 22  1  0
 21 20  1  0
 22 18  1  0
 23 24  2  0
 24 25  1  0
 26 25  2  0
 27 26  1  0
 28  2  1  0
 28 29  1  0
 28 38  1  0
 29 32  1  0
 30 34  1  0
 30 29  1  0
 31 30  2  0
 34 33  1  0
 36 34  1  0
 36 37  1  0
 36 35  1  0
 38 41  1  1
 38 39  1  0
 40 38  1  0
 44 52  1  0
 45 50  1  0
 46 47  1  0
 46 45  1  0
 48 47  1  0
 48 57  1  0
 48 49  1  0
 50 44  1  0
 50 49  1  0
 51 44  2  0
 53 52  1  0
 54 55  2  0
 55 74  1  0
 56 55  1  0
 56 59  1  0
 57 58  1  0
 57 54  1  0
 58 56  2  0
 59 60  1  0
 60 61  2  0
 62 65  1  0
 62 61  1  0
 63 62  2  0
 64 63  1  0
 64 59  2  0
 65 66  1  0
 66 67  1  0
 67 68  2  0
 69 68  1  0
 69 73  1  0
 70 69  2  0
 71 66  2  0
 71 70  1  0
 72 71  1  0
 74 75  1  0
 75 78  1  0
 75 77  1  0
 76 74  2  0
 79 80  1  0
 79 54  1  0
 81 79  1  0
M  ISO  4   1 101  42 101  44 100  52 100
M  END
>  <TORSDO>  (11) 
F 17

>  <SCORE>  (11) 
-16.141

>  <name>  (11) 
10

>  <ligand_id>  (11) 
10

>  <original_smiles>  (11) 
[H]c1c([H])c([H])c2c(c1[H])C([H])([H])C([H])([H])C([H])([H])C2([H])N([H])C(=O)C1([H])N(C(=O)C([H])(N([H])C(=O)C([H])(N([H])C([H])([H])[H])C([H])([H])[H])C(C([H])([H])[H])(C([H])([H])[H])C([H])([H])[H])C([H])([H])c2c([H])c(OC([H])([H])C([H])([H])N([H])C(=O)N3C([H])([H])C([H])([H])C([H])([H])C([H])(n4nc(-c5c([H])c([H])c(Oc6c([H])c([H])c(F)c([H])c6F)c([H])c5[H])c(C(=O)N([H])[H])c4N([H])[H])C3([H])[H])c([H])c([H])c2C1([H])[H]

>  <smiles>  (11) 
[H]c1c([H])c([H])c2c(c1[H])C([H])([H])C([H])([H])C([H])([H])C2([H])N([H])C(=O)C1([H])N(C(=O)C([H])(N([H])C(=O)C([H])(N([H])C([H])([H])[H])C([H])([H])[H])C(C([H])([H])[H])(C([H])([H])[H])C([H])([H])[H])C([H])([H])c2c([H])c(OC([H])([H])C([H])([H])N([H])C(=O)N3C([H])([H])C([H])([H])C([H])([H])C([H])(n4nc(-c5c([H])c([H])c(Oc6c([H])c([H])c(F)c([H])c6F)c([H])c5[H])c(C(=O)N([H])[H])c4N([H])[H])C3([H])[H])c([H])c([H])c2C1([H])[H]

$$$$
11:0:0
     RDKit          3D

102110  0  0  1  0  0  0  0  0999 V2000
  -27.7040  -22.7490   16.5220 C   0  0  0  0  0  2  0  0  0  0  0  0
  -26.9960  -24.1130   16.4620 C   0  0  0  0  0  0  0  0  0  0  0  0
  -27.7120  -25.1490   16.0090 N   0  0  0  0  0  0  0  0  0  0  0  0
  -25.8260  -24.2220   16.8350 O   0  0  0  0  0  0  0  0  0  0  0  0
  -28.6620  -24.9690   15.7150 H   0  0  0  0  0  0  0  0  0  0  0  0
  -27.2190  -26.5170   15.8650 C   0  0  0  0  0  2  0  0  0  0  0  0
  -28.3370  -27.5580   16.0480 C   0  0  0  0  0  2  0  0  0  0  0  0
  -28.5670  -27.8320   17.4240 O   0  0  0  0  0  0  0  0  0  0  0  0
  -29.5940  -27.0500   18.0220 C   0  0  0  0  0  2  0  0  0  0  0  0
  -29.6220  -27.2990   19.5390 C   0  0  0  0  0  2  0  0  0  0  0  0
  -28.4850  -26.6950   20.1530 O   0  0  0  0  0  0  0  0  0  0  0  0
  -24.7830  -31.9130   23.3120 C   0  0  0  0  0  0  0  0  0  0  0  0
  -27.3470  -27.4610   20.2060 C   0  0  0  0  0  0  0  0  0  0  0  0
  -23.5370  -30.5210   21.6860 C   0  0  0  0  0  3  0  0  0  0  0  0
  -24.9550  -28.9570   20.2580 C   0  0  0  0  0  0  0  0  0  0  0  0
  -26.0590  -30.8590   21.4520 C   0  0  0  0  0  2  0  0  0  0  0  0
  -26.1230  -29.4830   20.8270 C   0  0  0  0  0  0  0  0  0  0  0  0
  -27.3200  -28.7390   20.8080 C   0  0  0  0  0  3  0  0  0  0  0  0
  -26.1600  -26.9310   19.6590 C   0  0  0  0  0  3  0  0  0  0  0  0
  -24.9660  -27.6760   19.6740 C   0  0  0  0  0  3  0  0  0  0  0  0
  -23.7220  -29.8280   20.3090 C   0  0  0  0  0  2  0  0  0  0  0  0
  -24.8130  -31.1110   22.2110 N   0  0  0  0  0  0  0  0  0  0  0  0
  -23.7130  -32.2010   23.8630 O   0  0  0  0  0  0  0  0  0  0  0  0
  -22.8840  -29.5150   22.6590 C   0  0  0  0  0  0  0  0  0  0  0  0
  -21.5550  -29.3490   22.5450 N   0  0  0  0  0  0  0  0  0  0  0  0
  -23.5670  -28.8850   23.4710 O   0  0  0  0  0  0  0  0  0  0  0  0
  -21.0660  -29.9090   21.8610 H   0  0  0  0  0  0  0  0  0  0  0  0
  -18.1760  -28.1810   23.0540 C   0  0  0  0  0  0  0  0  0  0  0  0
  -20.7340  -28.4250   23.3270 C   0  0  0  0  0  3  0  0  0  0  0  0
  -20.8290  -26.9870   22.7680 C   0  0  0  0  0  2  0  0  0  0  0  0
  -19.7260  -26.6590   21.7560 C   0  0  0  0  0  2  0  0  0  0  0  0
  -18.3440  -26.8210   22.3960 C   0  0  0  0  0  2  0  0  0  0  0  0
  -19.2990  -28.9400   23.4780 C   0  0  0  0  0  0  0  0  0  0  0  0
  -19.0890  -30.2120   24.0520 C   0  0  0  0  0  3  0  0  0  0  0  0
  -17.7880  -30.7270   24.2070 C   0  0  0  0  0  3  0  0  0  0  0  0
  -16.6790  -29.9640   23.8010 C   0  0  0  0  0  3  0  0  0  0  0  0
  -16.8740  -28.6920   23.2330 C   0  0  0  0  0  3  0  0  0  0  0  0
  -26.0850  -32.5270   23.9150 C   0  0  0  0  0  3  0  0  0  0  0  0
  -25.7880  -33.9160   24.2850 N   0  0  0  0  0  0  0  0  0  0  0  0
  -26.1040  -34.9850   23.5410 C   0  0  0  0  0  0  0  0  0  0  0  0
  -26.7490  -34.9030   22.4920 O   0  0  0  0  0  0  0  0  0  0  0  0
  -25.2070  -34.0540   25.1010 H   0  0  0  0  0  0  0  0  0  0  0  0
  -24.3630  -36.7810   23.2780 C   0  0  0  0  0  1  0  0  0  0  0  0
  -25.6300  -36.3630   24.0410 C   0  0  0  0  0  3  0  0  0  0  0  0
  -27.7950  -37.2270   24.8110 C   0  0  0  0  0  1  0  0  0  0  0  0
  -26.6560  -37.4200   23.9150 N   0  0  0  0  0  0  0  0  0  0  0  0
  -26.2560  -38.3350   24.1030 H   0  0  0  0  0  0  0  0  0  0  0  0
  -26.6360  -31.7210   25.1550 C   0  0  1  0  0  0  0  0  0  0  0  0
  -25.5750  -31.4580   26.2480 C   0  0  0  0  0  1  0  0  0  0  0  0
  -27.2030  -30.3520   24.7080 C   0  0  0  0  0  1  0  0  0  0  0  0
  -27.8100  -32.4930   25.8040 C   0  0  0  0  0  1  0  0  0  0  0  0
  -27.6020  -22.1550   17.8190 O   0  0  0  0  0  0  0  0  0  0  0  0
  -28.4190  -22.7670   18.8180 C   0  0  0  0  0  2  0  0  0  0  0  0
  -28.3940  -21.9030   20.0850 C   0  0  0  0  0  0  0  0  0  0  0  0
  -29.4750  -21.1490   20.3300 N   0  0  0  0  0  0  0  0  0  0  0  0
  -27.4070  -21.9260   20.8230 O   0  0  0  0  0  0  0  0  0  0  0  0
  -30.2300  -21.1880   19.6590 H   0  0  0  0  0  0  0  0  0  0  0  0
  -29.6900  -20.3310   21.5220 C   0  0  0  0  0  2  0  0  0  0  0  0
  -29.1720  -17.8820   21.9090 C   0  0  0  0  0  3  0  0  0  0  0  0
  -30.8980  -18.4410   20.2870 C   0  0  0  0  0  3  0  0  0  0  0  0
  -29.3890  -16.5130   21.6660 C   0  0  0  0  0  3  0  0  0  0  0  0
  -31.1160  -17.0670   20.0400 C   0  0  0  0  0  3  0  0  0  0  0  0
  -29.9190  -18.8550   21.2190 C   0  0  0  0  0  0  0  0  0  0  0  0
  -30.3510  -16.0930   20.7240 C   0  0  0  0  0  0  0  0  0  0  0  0
  -30.7480  -14.0330   19.4000 C   0  0  0  0  0  0  0  0  0  0  0  0
  -30.0740  -12.0840   18.0370 C   0  0  0  0  0  2  0  0  0  0  0  0
  -28.9370  -12.4720   17.0710 C   0  0  0  0  0  2  0  0  0  0  0  0
  -27.5580  -12.3750   17.7540 C   0  0  0  0  0  2  0  0  0  0  0  0
  -27.5290  -13.0780   19.1370 C   0  0  0  0  0  3  0  0  0  0  0  0
  -28.7370  -12.6340   19.9890 C   0  0  0  0  0  2  0  0  0  0  0  0
  -29.9750  -12.9280   19.2360 N   0  0  0  0  0  0  0  0  0  0  0  0
  -31.6470  -14.3600   18.6160 O   0  0  0  0  0  0  0  0  0  0  0  0
  -30.4960  -14.6940   20.5400 N   0  0  0  0  0  0  0  0  0  0  0  0
  -29.9330  -14.1420   21.1680 H   0  0  0  0  0  0  0  0  0  0  0  0
  -25.3550  -13.7520   20.3490 C   0  0  0  0  0  0  0  0  0  0  0  0
  -24.3130  -13.0110   20.8380 C   0  0  0  0  0  0  0  0  0  0  0  0
  -24.6460  -11.6460   20.5790 C   0  0  0  0  0  0  0  0  0  0  0  0
  -26.2630  -12.8410   19.8320 N   0  0  0  0  0  0  0  0  0  0  0  0
  -25.8470  -11.5620   20.0220 N   0  0  0  0  0  0  0  0  0  0  0  0
  -23.8660  -10.4180   20.7770 C   0  0  0  0  0  0  0  0  0  0  0  0
  -24.4060   -9.3030   21.4560 C   0  0  0  0  0  3  0  0  0  0  0  0
  -23.6320   -8.1380   21.6470 C   0  0  0  0  0  3  0  0  0  0  0  0
  -22.3040   -8.0800   21.1650 C   0  0  0  0  0  0  0  0  0  0  0  0
  -21.7780   -9.1850   20.4720 C   0  0  0  0  0  3  0  0  0  0  0  0
  -22.5510  -10.3420   20.2760 C   0  0  0  0  0  3  0  0  0  0  0  0
  -21.4860   -6.9830   21.2860 O   0  0  0  0  0  0  0  0  0  0  0  0
  -21.6570   -6.0630   22.2900 C   0  0  0  0  0  0  0  0  0  0  0  0
  -21.6580   -6.4370   23.6520 C   0  0  0  0  0  3  0  0  0  0  0  0
  -21.7670   -5.4510   24.6530 C   0  0  0  0  0  3  0  0  0  0  0  0
  -21.8650   -4.0930   24.2960 C   0  0  0  0  0  0  0  0  0  0  0  0
  -21.8590   -3.7180   22.9410 C   0  0  0  0  0  3  0  0  0  0  0  0
  -21.7530   -4.7010   21.9410 C   0  0  0  0  0  0  0  0  0  0  0  0
  -21.7250   -4.3320   20.6380 F   0  0  0  0  0  0  0  0  0  0  0  0
  -21.9630   -3.1440   25.2560 F   0  0  0  0  0  0  0  0  0  0  0  0
  -23.0360  -13.5390   21.4260 C   0  0  0  0  0  0  0  0  0  0  0  0
  -22.4270  -12.7950   22.3440 N   0  0  0  0  0  0  0  0  0  0  0  0
  -22.5920  -14.6410   21.1070 O   0  0  0  0  0  0  0  0  0  0  0  0
  -22.7990  -11.9000   22.6240 H   0  0  0  0  0  0  0  0  0  0  0  0
  -21.5750  -13.1270   22.7740 H   0  0  0  0  0  0  0  0  0  0  0  0
  -25.6000  -15.1200   20.2840 N   0  0  0  0  0  0  0  0  0  0  0  0
  -24.9300  -15.8100   20.6060 H   0  0  0  0  0  0  0  0  0  0  0  0
  -26.4190  -15.5350   19.8550 H   0  0  0  0  0  0  0  0  0  0  0  0
  1 52  1  0
  2  1  1  0
  2  4  2  0
  3  2  1  0
  5  3  1  0
  6  3  1  0
  6  7  1  0
  7  8  1  0
  8  9  1  0
  9 10  1  0
 10 11  1  0
 11 13  1  0
 12 23  2  0
 13 18  1  0
 14 22  1  0
 14 24  1  0
 15 21  1  0
 15 17  1  0
 16 22  1  0
 17 16  1  0
 18 17  2  0
 19 20  1  0
 19 13  2  0
 20 15  2  0
 21 14  1  0
 22 12  1  0
 24 26  2  0
 25 24  1  0
 27 25  1  0
 28 37  2  0
 28 33  1  0
 29 25  1  0
 29 33  1  0
 30 29  1  0
 31 32  1  0
 31 30  1  0
 32 28  1  0
 33 34  2  0
 34 35  1  0
 36 35  2  0
 37 36  1  0
 38 12  1  0
 38 39  1  0
 38 48  1  0
 39 42  1  0
 40 44  1  0
 40 39  1  0
 41 40  2  0
 44 43  1  0
 46 44  1  0
 46 47  1  0
 46 45  1  0
 48 51  1  1
 48 49  1  0
 50 48  1  0
 52 53  1  0
 53 54  1  0
 54 55  1  0
 54 56  2  0
 55 58  1  0
 57 55  1  0
 60 63  1  0
 61 59  1  0
 62 60  2  0
 62 64  1  0
 63 58  1  0
 63 59  2  0
 64 61  2  0
 65 73  1  0
 66 71  1  0
 67 68  1  0
 67 66  1  0
 69 68  1  0
 69 78  1  0
 69 70  1  0
 71 65  1  0
 71 70  1  0
 72 65  2  0
 73 64  1  0
 73 74  1  0
 75 76  2  0
 76 95  1  0
 77 80  1  0
 77 76  1  0
 78 79  1  0
 78 75  1  0
 79 77  2  0
 80 81  1  0
 81 82  2  0
 83 86  1  0
 83 82  1  0
 84 83  2  0
 85 84  1  0
 85 80  2  0
 86 87  1  0
 87 88  1  0
 88 89  2  0
 90 89  1  0
 90 94  1  0
 91 90  2  0
 92 87  2  0
 92 91  1  0
 93 92  1  0
 95 96  1  0
 96 98  1  0
 96 99  1  0
 97 95  2  0
100 75  1  0
100101  1  0
102100  1  0
M  ISO  4  10 101  11 101  65 100  73 100
M  END
>  <TORSDO>  (12) 
F 27

>  <SCORE>  (12) 
-7.334

>  <name>  (12) 
11

>  <ligand_id>  (12) 
11

>  <original_smiles>  (12) 
[H]c1c([H])c([H])c2c(c1[H])C([H])([H])C([H])([H])C([H])([H])C2([H])N([H])C(=O)C1([H])N(C(=O)C([H])(N([H])C(=O)C([H])(N([H])C([H])([H])[H])C([H])([H])[H])C(C([H])([H])[H])(C([H])([H])[H])C([H])([H])[H])C([H])([H])c2c([H])c(OC([H])([H])C([H])([H])OC([H])([H])C([H])([H])N([H])C(=O)C([H])([H])OC([H])([H])C(=O)N([H])C([H])([H])c3c([H])c([H])c(N([H])C(=O)N4C([H])([H])C([H])([H])C([H])([H])C([H])(n5nc(-c6c([H])c([H])c(Oc7c([H])c([H])c(F)c([H])c7F)c([H])c6[H])c(C(=O)N([H])[H])c5N([H])[H])C4([H])[H])c([H])c3[H])c([H])c([H])c2C1([H])[H]

>  <smiles>  (12) 
[H]c1c([H])c([H])c2c(c1[H])C([H])([H])C([H])([H])C([H])([H])C2([H])N([H])C(=O)C1([H])N(C(=O)C([H])(N([H])C(=O)C([H])(N([H])C([H])([H])[H])C([H])([H])[H])C(C([H])([H])[H])(C([H])([H])[H])C([H])([H])[H])C([H])([H])c2c([H])c(OC([H])([H])C([H])([H])OC([H])([H])C([H])([H])N([H])C(=O)C([H])([H])OC([H])([H])C(=O)N([H])C([H])([H])c3c([H])c([H])c(N([H])C(=O)N4C([H])([H])C([H])([H])C([H])([H])C([H])(n5nc(-c6c([H])c([H])c(Oc7c([H])c([H])c(F)c([H])c7F)c([H])c6[H])c(C(=O)N([H])[H])c5N([H])[H])C4([H])[H])c([H])c3[H])c([H])c([H])c2C1([H])[H]

$$$$
12:0:0
     RDKit          3D

100107  0  0  1  0  0  0  0  0999 V2000
  -28.6530  -23.8570   22.7630 C   0  0  0  0  0  0  0  0  0  0  0  0
  -28.6820  -25.0380   23.3980 N   0  0  0  0  0  0  0  0  0  0  0  0
  -28.7090  -22.7740   23.3480 O   0  0  0  0  0  0  0  0  0  0  0  0
  -28.5750  -25.8730   22.8380 H   0  0  0  0  0  0  0  0  0  0  0  0
  -29.0340  -25.2430   24.8040 C   0  0  0  0  0  2  0  0  0  0  0  0
  -30.5610  -25.3530   24.9880 C   0  0  0  0  0  2  0  0  0  0  0  0
  -31.1590  -24.2170   24.3850 O   0  0  0  0  0  0  0  0  0  0  0  0
  -32.5560  -24.0790   24.5760 C   0  0  0  0  0  2  0  0  0  0  0  0
  -33.0050  -22.9440   23.6480 C   0  0  0  0  0  2  0  0  0  0  0  0
  -32.3170  -21.7460   24.0010 O   0  0  0  0  0  0  0  0  0  0  0  0
  -32.2880  -20.7960   22.9430 C   0  0  0  0  0  2  0  0  0  0  0  0
  -31.5040  -19.5410   23.3640 C   0  0  0  0  0  2  0  0  0  0  0  0
  -31.2860  -18.7400   22.2110 O   0  0  0  0  0  0  0  0  0  0  0  0
  -30.7410  -17.4560   22.4850 C   0  0  0  0  0  2  0  0  0  0  0  0
  -30.4100  -16.8130   21.1320 C   0  0  0  0  0  2  0  0  0  0  0  0
  -30.7290  -14.4090   20.6020 C   0  0  0  0  0  0  0  0  0  0  0  0
  -30.4170  -12.2770   19.4120 C   0  0  0  0  0  2  0  0  0  0  0  0
  -29.4910  -12.5080   18.2010 C   0  0  0  0  0  2  0  0  0  0  0  0
  -28.0130  -12.3730   18.6160 C   0  0  0  0  0  2  0  0  0  0  0  0
  -27.6660  -13.2020   19.8820 C   0  0  0  0  0  3  0  0  0  0  0  0
  -28.7060  -12.9580   21.0010 C   0  0  0  0  0  2  0  0  0  0  0  0
  -30.0440  -13.2450   20.4540 N   0  0  0  0  0  0  0  0  0  0  0  0
  -31.8280  -14.6190   20.0800 O   0  0  0  0  0  0  0  0  0  0  0  0
  -30.0680  -15.3900   21.2290 N   0  0  0  0  0  0  0  0  0  0  0  0
  -29.1690  -15.1520   21.6220 H   0  0  0  0  0  0  0  0  0  0  0  0
  -25.2620  -13.8160   20.5680 C   0  0  0  0  0  0  0  0  0  0  0  0
  -24.1860  -13.0450   20.9170 C   0  0  0  0  0  0  0  0  0  0  0  0
  -24.6400  -11.6910   20.8730 C   0  0  0  0  0  0  0  0  0  0  0  0
  -26.3050  -12.9320   20.3390 N   0  0  0  0  0  0  0  0  0  0  0  0
  -25.9330  -11.6470   20.5770 N   0  0  0  0  0  0  0  0  0  0  0  0
  -23.9060  -10.4300   21.0410 C   0  0  0  0  0  0  0  0  0  0  0  0
  -24.3610   -9.4220   21.9190 C   0  0  0  0  0  3  0  0  0  0  0  0
  -23.6300   -8.2250   22.0760 C   0  0  0  0  0  3  0  0  0  0  0  0
  -22.4270   -8.0290   21.3560 C   0  0  0  0  0  0  0  0  0  0  0  0
  -21.9910   -9.0260   20.4650 C   0  0  0  0  0  3  0  0  0  0  0  0
  -22.7230  -10.2140   20.3060 C   0  0  0  0  0  3  0  0  0  0  0  0
  -21.6650   -6.8870   21.4240 O   0  0  0  0  0  0  0  0  0  0  0  0
  -21.6850   -6.0730   22.5280 C   0  0  0  0  0  0  0  0  0  0  0  0
  -21.4010   -6.5630   23.8210 C   0  0  0  0  0  3  0  0  0  0  0  0
  -21.3670   -5.6790   24.9180 C   0  0  0  0  0  3  0  0  0  0  0  0
  -21.6050   -4.3050   24.7240 C   0  0  0  0  0  0  0  0  0  0  0  0
  -21.8820   -3.8140   23.4350 C   0  0  0  0  0  3  0  0  0  0  0  0
  -21.9200   -4.6960   22.3410 C   0  0  0  0  0  0  0  0  0  0  0  0
  -22.1670   -4.2140   21.1000 F   0  0  0  0  0  0  0  0  0  0  0  0
  -21.5640   -3.4540   25.7750 F   0  0  0  0  0  0  0  0  0  0  0  0
  -22.7880  -13.5240   21.1840 C   0  0  0  0  0  0  0  0  0  0  0  0
  -22.0530  -12.8240   22.0400 N   0  0  0  0  0  0  0  0  0  0  0  0
  -22.3580  -14.5560   20.6720 O   0  0  0  0  0  0  0  0  0  0  0  0
  -22.4140  -11.9890   22.4780 H   0  0  0  0  0  0  0  0  0  0  0  0
  -21.1150  -13.1260   22.2600 H   0  0  0  0  0  0  0  0  0  0  0  0
  -25.4380  -15.1880   20.4110 N   0  0  0  0  0  0  0  0  0  0  0  0
  -24.6770  -15.8480   20.5240 H   0  0  0  0  0  0  0  0  0  0  0  0
  -26.3010  -15.6240   20.1080 H   0  0  0  0  0  0  0  0  0  0  0  0
  -28.5600  -23.8980   21.2360 C   0  0  0  0  0  2  0  0  0  0  0  0
  -29.8380  -24.4990   20.5930 C   0  0  0  0  0  2  0  0  0  0  0  0
  -28.8820  -26.1750   18.9380 C   0  0  0  0  0  0  0  0  0  0  0  0
  -29.6120  -25.0370   19.2460 N   0  0  0  0  0  0  0  0  0  0  0  0
  -28.6650  -26.5780   17.7950 O   0  0  0  0  0  0  0  0  0  0  0  0
  -29.9980  -24.5440   18.4510 H   0  0  0  0  0  0  0  0  0  0  0  0
  -28.4010  -26.7440   20.0700 O   0  0  0  0  0  0  0  0  0  0  0  0
  -24.6110  -31.8700   23.2130 C   0  0  0  0  0  0  0  0  0  0  0  0
  -27.2390  -27.4790   20.0650 C   0  0  0  0  0  0  0  0  0  0  0  0
  -23.3980  -30.4930   21.5550 C   0  0  0  0  0  3  0  0  0  0  0  0
  -24.8440  -28.9660   20.1170 C   0  0  0  0  0  0  0  0  0  0  0  0
  -25.9240  -30.8440   21.3630 C   0  0  0  0  0  2  0  0  0  0  0  0
  -26.0030  -29.4820   20.7110 C   0  0  0  0  0  0  0  0  0  0  0  0
  -27.2040  -28.7430   20.6910 C   0  0  0  0  0  3  0  0  0  0  0  0
  -26.0560  -26.9580   19.4920 C   0  0  0  0  0  3  0  0  0  0  0  0
  -24.8600  -27.6980   19.5120 C   0  0  0  0  0  3  0  0  0  0  0  0
  -23.6050  -29.8280   20.1690 C   0  0  0  0  0  2  0  0  0  0  0  0
  -24.6630  -31.0820   22.1040 N   0  0  0  0  0  0  0  0  0  0  0  0
  -23.5310  -32.1450   23.7530 O   0  0  0  0  0  0  0  0  0  0  0  0
  -22.7390  -29.4660   22.5030 C   0  0  0  0  0  0  0  0  0  0  0  0
  -21.4130  -29.3020   22.3760 N   0  0  0  0  0  0  0  0  0  0  0  0
  -23.4190  -28.8190   23.3040 O   0  0  0  0  0  0  0  0  0  0  0  0
  -20.9280  -29.8760   21.7000 H   0  0  0  0  0  0  0  0  0  0  0  0
  -18.0260  -28.1370   22.8500 C   0  0  0  0  0  0  0  0  0  0  0  0
  -20.5850  -28.3650   23.1330 C   0  0  0  0  0  3  0  0  0  0  0  0
  -20.6760  -26.9390   22.5420 C   0  0  0  0  0  2  0  0  0  0  0  0
  -19.5740  -26.6380   21.5210 C   0  0  0  0  0  2  0  0  0  0  0  0
  -18.1920  -26.7910   22.1620 C   0  0  0  0  0  2  0  0  0  0  0  0
  -19.1510  -28.8820   23.2900 C   0  0  0  0  0  0  0  0  0  0  0  0
  -18.9440  -30.1430   23.8900 C   0  0  0  0  0  3  0  0  0  0  0  0
  -17.6450  -30.6580   24.0560 C   0  0  0  0  0  3  0  0  0  0  0  0
  -16.5340  -29.9090   23.6330 C   0  0  0  0  0  3  0  0  0  0  0  0
  -16.7250  -28.6500   23.0340 C   0  0  0  0  0  3  0  0  0  0  0  0
  -25.9020  -32.4830   23.8430 C   0  0  0  0  0  3  0  0  0  0  0  0
  -25.5880  -33.8640   24.2360 N   0  0  0  0  0  0  0  0  0  0  0  0
  -25.9020  -34.9490   23.5150 C   0  0  0  0  0  0  0  0  0  0  0  0
  -26.5590  -34.8920   22.4710 O   0  0  0  0  0  0  0  0  0  0  0  0
  -25.0000  -33.9810   25.0490 H   0  0  0  0  0  0  0  0  0  0  0  0
  -24.1480  -36.7330   23.2640 C   0  0  0  0  0  1  0  0  0  0  0  0
  -25.4100  -36.3120   24.0350 C   0  0  0  0  0  3  0  0  0  0  0  0
  -27.5580  -37.1810   24.8470 C   0  0  0  0  0  1  0  0  0  0  0  0
  -26.4290  -37.3800   23.9410 N   0  0  0  0  0  0  0  0  0  0  0  0
  -26.0190  -38.2890   24.1390 H   0  0  0  0  0  0  0  0  0  0  0  0
  -26.4450  -31.6590   25.0740 C   0  0  1  0  0  0  0  0  0  0  0  0
  -25.3720  -31.3700   26.1480 C   0  0  0  0  0  1  0  0  0  0  0  0
  -27.0260  -30.3020   24.6090 C   0  0  0  0  0  1  0  0  0  0  0  0
  -27.6060  -32.4280   25.7490 C   0  0  0  0  0  1  0  0  0  0  0  0
  1  3  2  0
  1  2  1  0
  2  5  1  0
  4  2  1  0
  5  6  1  0
  7  8  1  0
  7  6  1  0
  9 10  1  0
  9  8  1  0
 11 12  1  0
 11 10  1  0
 13 14  1  0
 13 12  1  0
 15 24  1  0
 15 14  1  0
 16 24  1  0
 17 22  1  0
 18 19  1  0
 18 17  1  0
 20 19  1  0
 20 29  1  0
 20 21  1  0
 22 16  1  0
 22 21  1  0
 23 16  2  0
 24 25  1  0
 26 27  2  0
 27 46  1  0
 28 27  1  0
 28 31  1  0
 29 26  1  0
 29 30  1  0
 30 28  2  0
 31 32  1  0
 32 33  2  0
 34 37  1  0
 34 33  1  0
 35 34  2  0
 36 35  1  0
 36 31  2  0
 37 38  1  0
 38 39  1  0
 39 40  2  0
 41 40  1  0
 41 45  1  0
 42 41  2  0
 43 38  2  0
 43 42  1  0
 44 43  1  0
 46 47  1  0
 47 50  1  0
 47 49  1  0
 48 46  2  0
 51 52  1  0
 51 26  1  0
 53 51  1  0
 54  1  1  0
 55 54  1  0
 56 57  1  0
 56 60  1  0
 57 55  1  0
 58 56  2  0
 59 57  1  0
 61 72  2  0
 62 60  1  0
 62 67  1  0
 63 71  1  0
 63 73  1  0
 64 70  1  0
 64 66  1  0
 65 71  1  0
 66 65  1  0
 67 66  2  0
 68 69  1  0
 68 62  2  0
 69 64  2  0
 70 63  1  0
 71 61  1  0
 73 75  2  0
 74 73  1  0
 76 74  1  0
 77 86  2  0
 77 82  1  0
 78 74  1  0
 78 82  1  0
 79 78  1  0
 80 81  1  0
 80 79  1  0
 81 77  1  0
 82 83  2  0
 83 84  1  0
 85 84  2  0
 86 85  1  0
 87 61  1  0
 87 88  1  0
 87 97  1  0
 88 91  1  0
 89 93  1  0
 89 88  1  0
 90 89  2  0
 93 92  1  0
 95 93  1  0
 95 96  1  0
 95 94  1  0
 97100  1  1
 97 98  1  0
 99 97  1  0
M  ISO  4  16 100  24 100  56 101  60 101
M  END
>  <TORSDO>  (13) 
F 30

>  <SCORE>  (13) 
5.686

>  <name>  (13) 
12

>  <ligand_id>  (13) 
12

>  <original_smiles>  (13) 
[H]c1c([H])c([H])c2c(c1[H])C([H])([H])C([H])([H])C([H])([H])C2([H])N([H])C(=O)C1([H])N(C(=O)C([H])(N([H])C(=O)C([H])(N([H])C([H])([H])[H])C([H])([H])[H])C(C([H])([H])[H])(C([H])([H])[H])C([H])([H])[H])C([H])([H])c2c([H])c(OC(=O)N([H])C([H])([H])C([H])([H])C(=O)N([H])C([H])([H])C([H])([H])OC([H])([H])C([H])([H])OC([H])([H])C([H])([H])OC([H])([H])C([H])([H])N([H])C(=O)N3C([H])([H])C([H])([H])C([H])([H])C([H])(n4nc(-c5c([H])c([H])c(Oc6c([H])c([H])c(F)c([H])c6F)c([H])c5[H])c(C(=O)N([H])[H])c4N([H])[H])C3([H])[H])c([H])c([H])c2C1([H])[H]

>  <smiles>  (13) 
[H]c1c([H])c([H])c2c(c1[H])C([H])([H])C([H])([H])C([H])([H])C2([H])N([H])C(=O)C1([H])N(C(=O)C([H])(N([H])C(=O)C([H])(N([H])C([H])([H])[H])C([H])([H])[H])C(C([H])([H])[H])(C([H])([H])[H])C([H])([H])[H])C([H])([H])c2c([H])c(OC(=O)N([H])C([H])([H])C([H])([H])C(=O)N([H])C([H])([H])C([H])([H])OC([H])([H])C([H])([H])OC([H])([H])C([H])([H])OC([H])([H])C([H])([H])N([H])C(=O)N3C([H])([H])C([H])([H])C([H])([H])C([H])(n4nc(-c5c([H])c([H])c(Oc6c([H])c([H])c(F)c([H])c6F)c([H])c5[H])c(C(=O)N([H])[H])c4N([H])[H])C3([H])[H])c([H])c([H])c2C1([H])[H]

$$$$
13:0:0
     RDKit          3D

 98 95  0  0  1  0  0  0  0  0999 V2000
  -25.1580  -26.4660   24.9280 C   0  0  0  0  0  0  0  0  0  0  0  0
  -26.3450  -26.2530   24.3240 N   0  0  0  0  0  0  0  0  0  0  0  0
  -24.9340  -27.4840   25.5880 O   0  0  0  0  0  0  0  0  0  0  0  0
  -26.4650  -25.3830   23.8250 H   0  0  0  0  0  0  0  0  0  0  0  0
  -27.4110  -27.2550   24.1780 C   0  0  0  0  0  2  0  0  0  0  0  0
  -28.4880  -26.8970   23.1170 C   0  0  0  0  0  2  0  0  0  0  0  0
  -28.0840  -27.2140   21.7760 O   0  0  0  0  0  0  0  0  0  0  0  0
  -29.0870  -26.9500   20.7790 C   0  0  0  0  0  2  0  0  0  0  0  0
  -28.5330  -26.4170   19.4270 C   0  0  0  0  0  2  0  0  0  0  0  0
  -28.2850  -27.4300   18.4310 O   0  0  0  0  0  0  0  0  0  0  0  0
  -24.7080  -30.9810   23.3720 C   0  0  0  0  0  0  0  0  0  0  0  0
  -27.1650  -28.1700   18.6940 C   0  0  0  0  0  0  0  0  0  0  0  0
  -23.4510  -30.2740   21.3700 C   0  0  0  0  0  3  0  0  0  0  0  0
  -24.8020  -29.5270   19.3690 C   0  0  0  0  0  0  0  0  0  0  0  0
  -25.9360  -30.7980   21.2050 C   0  0  0  0  0  2  0  0  0  0  0  0
  -25.9840  -29.7930   20.0730 C   0  0  0  0  0  0  0  0  0  0  0  0
  -27.1720  -29.1150   19.7380 C   0  0  0  0  0  3  0  0  0  0  0  0
  -25.9810  -27.9490   17.9580 C   0  0  0  0  0  3  0  0  0  0  0  0
  -24.7900  -28.6050   18.3090 C   0  0  0  0  0  3  0  0  0  0  0  0
  -23.5650  -30.2610   19.8230 C   0  0  0  0  0  2  0  0  0  0  0  0
  -24.7160  -30.7040   22.0380 N   0  0  0  0  0  0  0  0  0  0  0  0
  -23.6540  -30.9710   24.0250 O   0  0  0  0  0  0  0  0  0  0  0  0
  -23.0630  -28.8660   21.8320 C   0  0  0  0  0  0  0  0  0  0  0  0
  -22.0440  -28.2990   21.2400 N   0  0  0  0  0  0  0  0  0  0  0  0
  -23.6870  -28.2480   22.6940 O   0  0  0  0  0  0  0  0  0  0  0  0
  -21.5700  -28.7620   20.4800 H   0  0  0  0  0  0  0  0  0  0  0  0
  -18.5680  -27.2400   20.9690 C   0  0  0  0  0  0  0  0  0  0  0  0
  -21.4480  -27.0790   21.7200 C   0  0  0  0  0  2  0  0  0  0  0  0
  -21.9340  -25.1810   20.9240 C   0  0  0  0  0 15  0  0  0  0  0  0
  -20.0780  -24.4030   19.7570 C   0  0  0  0  0 15  0  0  0  0  0  0
  -18.5890  -25.8280   19.8060 C   0  0  0  0  0  1  0  0  0  0  0  0
  -19.7990  -27.7870   21.7470 C   0  0  0  0  0  0  0  0  0  0  0  0
  -19.5230  -28.5910   22.9250 C   0  0  0  0  0  3  0  0  0  0  0  0
  -18.2340  -28.9100   23.4260 C   0  0  0  0  0  3  0  0  0  0  0  0
  -17.1150  -28.4020   22.7500 C   0  0  0  0  0  3  0  0  0  0  0  0
  -17.2960  -27.5980   21.5850 C   0  0  0  0  0  3  0  0  0  0  0  0
  -26.0200  -31.3340   24.1300 C   0  0  0  0  0  3  0  0  0  0  0  0
  -26.0190  -30.8610   25.6370 C   0  0  1  0  0  0  0  0  0  0  0  0
  -24.7550  -31.2840   26.4220 C   0  0  0  0  0  1  0  0  0  0  0  0
  -26.1400  -29.3210   25.7280 C   0  0  0  0  0  1  0  0  0  0  0  0
  -27.2510  -31.4440   26.3610 C   0  0  0  0  0  1  0  0  0  0  0  0
  -26.1990  -32.7860   24.0350 N   0  0  0  0  0  0  0  0  0  0  0  0
  -27.3750  -33.3890   23.8170 C   0  0  0  0  0  0  0  0  0  0  0  0
  -28.4430  -32.7730   23.7570 O   0  0  0  0  0  0  0  0  0  0  0  0
  -25.3590  -33.3460   24.0210 H   0  0  0  0  0  0  0  0  0  0  0  0
  -27.9380  -35.2860   22.2670 C   0  0  0  0  0  1  0  0  0  0  0  0
  -27.3640  -34.9190   23.6440 C   0  0  0  0  0  3  0  0  0  0  0  0
  -27.5070  -35.5090   26.0230 C   0  0  0  0  0  1  0  0  0  0  0  0
  -28.1130  -35.6340   24.7000 N   0  0  0  0  0  0  0  0  0  0  0  0
  -28.1910  -36.6220   24.4790 H   0  0  0  0  0  0  0  0  0  0  0  0
  -24.0310  -25.4220   24.7290 C   0  0  0  0  0  2  0  0  0  0  0  0
  -23.8960  -25.1170   23.3150 O   0  0  0  0  0  0  0  0  0  0  0  0
  -24.3850  -23.8290   22.8690 C   0  0  0  0  0  2  0  0  0  0  0  0
  -24.3670  -23.6040   21.2420 C   0  0  0  0  0  1  0  0  0  0  0  0
  -26.0800  -24.1680   19.4620 O   0  0  0  0  0 15  0  0  0  0  0  0
  -28.0550  -23.5470   19.4970 C   0  0  0  0  0 15  0  0  0  0  0  0
  -29.6810  -22.3330   20.3560 C   0  0  0  0  0 15  0  0  0  0  0  0
  -31.5580  -21.7280   20.4460 O   0  0  0  0  0 15  0  0  0  0  0  0
  -33.0080  -20.6620   21.2630 C   0  0  0  0  0 15  0  0  0  0  0  0
  -35.0830  -19.9360   21.3170 C   0  0  0  0  0 15  0  0  0  0  0  0
  -38.0200  -18.2480   22.5760 C   0  0  0  0  0  0  0  0  0  0  0  0
  -40.6540  -17.3650   22.2300 C   0  0  0  0  0  2  0  0  0  0  0  0
  -41.4810  -18.0290   21.0780 C   0  0  0  0  0  2  0  0  0  0  0  0
  -41.0220  -17.4900   19.7180 C   0  0  0  0  0  2  0  0  0  0  0  0
  -39.4940  -17.3030   19.7380 C   0  0  0  0  0  3  0  0  0  0  0  0
  -38.9750  -16.4750   20.9020 C   0  0  0  0  0  2  0  0  0  0  0  0
  -39.1050  -17.4300   21.9650 N   0  0  0  0  0  0  0  0  0  0  0  0
  -38.5790  -18.4260   23.7100 O   0  0  0  0  0  0  0  0  0  0  0  0
  -36.4700  -18.7700   22.1160 N   0  0  0  0  0  2  0  0  0  0  0  0
  -36.0940  -18.7450   23.0580 H   0  0  0  0  0  0  0  0  0  0  0  0
  -37.7910  -17.3070   17.9310 C   0  0  0  0  0  0  0  0  0  0  0  0
  -37.6420  -16.5350   16.8190 C   0  0  0  0  0  0  0  0  0  0  0  0
  -38.6860  -15.5610   16.8710 C   0  0  0  0  0  0  0  0  0  0  0  0
  -38.9090  -16.7980   18.5530 N   0  0  0  0  0  0  0  0  0  0  0  0
  -39.4040  -15.6910   17.9720 N   0  0  0  0  0  0  0  0  0  0  0  0
  -39.0990  -14.5620   15.8920 C   0  0  0  0  0  0  0  0  0  0  0  0
  -39.0810  -13.1830   16.1910 C   0  0  0  0  0  3  0  0  0  0  0  0
  -39.4680  -12.2430   15.2140 C   0  0  0  0  0  3  0  0  0  0  0  0
  -39.8750  -12.6820   13.9320 C   0  0  0  0  0  0  0  0  0  0  0  0
  -39.9140  -14.0590   13.6520 C   0  0  0  0  0  3  0  0  0  0  0  0
  -39.5320  -14.9940   14.6250 C   0  0  0  0  0  3  0  0  0  0  0  0
  -40.2870  -11.8420   12.9270 O   0  0  0  0  0  0  0  0  0  0  0  0
  -39.7900  -10.5710   12.8080 C   0  0  0  0  0  0  0  0  0  0  0  0
  -38.4170  -10.3240   12.5830 C   0  0  0  0  0  3  0  0  0  0  0  0
  -37.9630   -9.0030   12.3940 C   0  0  0  0  0  3  0  0  0  0  0  0
  -38.8770   -7.9330   12.4220 C   0  0  0  0  0  0  0  0  0  0  0  0
  -40.2440   -8.1780   12.6400 C   0  0  0  0  0  3  0  0  0  0  0  0
  -40.6990   -9.4960   12.8300 C   0  0  0  0  0  0  0  0  0  0  0  0
  -42.0200   -9.7310   13.0200 F   0  0  0  0  0  0  0  0  0  0  0  0
  -38.4430   -6.6650   12.2310 F   0  0  0  0  0  0  0  0  0  0  0  0
  -36.6500  -16.7720   15.7290 C   0  0  0  0  0  0  0  0  0  0  0  0
  -36.1110  -15.7000   15.1620 N   0  0  0  0  0  0  0  0  0  0  0  0
  -36.3100  -17.9080   15.4120 O   0  0  0  0  0  0  0  0  0  0  0  0
  -36.3770  -14.7670   15.4430 H   0  0  0  0  0  0  0  0  0  0  0  0
  -35.4180  -15.8160   14.4350 H   0  0  0  0  0  0  0  0  0  0  0  0
  -37.0990  -18.4020   18.4420 N   0  0  0  0  0  0  0  0  0  0  0  0
  -36.3230  -18.8160   17.9410 H   0  0  0  0  0  0  0  0  0  0  0  0
  -37.3250  -18.8840   19.3030 H   0  0  0  0  0  0  0  0  0  0  0  0
  1  3  2  0
  2  1  1  0
  4  2  1  0
  5  2  1  0
  6  5  1  0
  7  6  1  0
  8  7  1  0
  9  8  1  0
 10 12  1  0
 10  9  1  0
 11 22  2  0
 12 17  1  0
 13 23  1  0
 13 21  1  0
 14 20  1  0
 14 16  1  0
 15 21  1  0
 16 15  1  0
 17 16  2  0
 18 19  1  0
 18 12  2  0
 19 14  2  0
 20 13  1  0
 21 11  1  0
 23 25  2  0
 24 28  1  0
 24 23  1  0
 26 24  1  0
 27 36  2  0
 27 32  1  0
 28 32  1  0
 31 27  1  0
 32 33  2  0
 33 34  1  0
 35 34  2  0
 36 35  1  0
 37 11  1  0
 37 38  1  0
 38 40  1  6
 38 41  1  0
 38 39  1  0
 42 37  1  0
 43 42  1  0
 44 43  2  0
 45 42  1  0
 47 46  1  0
 47 43  1  0
 47 49  1  0
 49 48  1  0
 50 49  1  0
 51  1  1  0
 52 51  1  0
 53 52  1  0
 54 53  1  0
 61 68  2  0
 63 62  1  0
 64 65  1  0
 64 63  1  0
 65 74  1  0
 65 66  1  0
 66 67  1  0
 67 62  1  0
 67 61  1  0
 69 61  1  0
 69 70  1  0
 71 96  1  0
 71 74  1  0
 72 73  1  0
 72 71  2  0
 73 75  2  0
 75 74  1  0
 76 77  1  0
 76 73  1  0
 78 77  2  0
 79 78  1  0
 80 79  2  0
 80 81  1  0
 81 76  2  0
 82 79  1  0
 83 88  1  0
 83 82  1  0
 84 83  2  0
 85 86  2  0
 85 84  1  0
 86 87  1  0
 87 88  2  0
 88 89  1  0
 90 86  1  0
 91 72  1  0
 92 94  1  0
 92 91  1  0
 93 91  2  0
 95 92  1  0
 96 98  1  0
 97 96  1  0
M  ISO  4   9 101  10 101  61 100  69 100
M  END
>  <TORSDO>  (14) 
F 31

>  <SCORE>  (14) 
-4.424

>  <name>  (14) 
13

>  <ligand_id>  (14) 
13

>  <original_smiles>  (14) 
[H]c1c([H])c([H])c2c(c1[H])C([H])([H])C([H])([H])C([H])([H])C2([H])N([H])C(=O)C1([H])N(C(=O)C([H])(N([H])C(=O)C([H])(N([H])C([H])([H])[H])C([H])([H])[H])C(C([H])([H])[H])(C([H])([H])[H])C([H])([H])[H])C([H])([H])c2c([H])c(OC([H])([H])C([H])([H])OC([H])([H])C([H])([H])N([H])C(=O)C([H])([H])OC([H])([H])C([H])([H])OC([H])([H])C([H])([H])OC([H])([H])C([H])([H])N([H])C(=O)N3C([H])([H])C([H])([H])C([H])([H])C([H])(n4nc(-c5c([H])c([H])c(Oc6c([H])c([H])c(F)c([H])c6F)c([H])c5[H])c(C(=O)N([H])[H])c4N([H])[H])C3([H])[H])c([H])c([H])c2C1([H])[H]

>  <smiles>  (14) 
[H]c1c([H])c([H])c2c(c1[H])C([H])([H])C([H])([H])C([H])([H])C2([H])N([H])C(=O)C1([H])N(C(=O)C([H])(N([H])C(=O)C([H])(N([H])C([H])([H])[H])C([H])([H])[H])C(C([H])([H])[H])(C([H])([H])[H])C([H])([H])[H])C([H])([H])c2c([H])c(OC([H])([H])C([H])([H])OC([H])([H])C([H])([H])N([H])C(=O)C([H])([H])OC([H])([H])C([H])([H])OC([H])([H])C([H])([H])OC([H])([H])C([H])([H])N([H])C(=O)N3C([H])([H])C([H])([H])C([H])([H])C([H])(n4nc(-c5c([H])c([H])c(Oc6c([H])c([H])c(F)c([H])c6F)c([H])c5[H])c(C(=O)N([H])[H])c4N([H])[H])C3([H])[H])c([H])c([H])c2C1([H])[H]

$$$$
14:0:0
     RDKit          3D

 87 94  0  0  1  0  0  0  0  0999 V2000
  -28.6200  -21.8450   20.2690 O   0  0  0  0  0  0  0  0  0  0  0  0
  -29.5820  -20.6220   20.3640 C   0  0  0  0  0  3  0  0  0  0  0  0
  -29.1170  -18.9890   20.3990 C   0  0  0  0  0  3  0  0  0  0  0  0
  -30.1110  -17.7360   20.4060 N   0  0  0  0  0  4  0  0  0  0  0  0
  -30.7820  -17.8920   21.1440 H   0  0  0  0  0  0  0  0  0  0  0  0
  -30.6520  -17.7670   19.5550 H   0  0  0  0  0  0  0  0  0  0  0  0
  -30.4500  -15.0270   20.3420 C   0  0  0  0  0  0  0  0  0  0  0  0
  -30.3760  -12.6850   19.3570 C   0  0  0  0  0  2  0  0  0  0  0  0
  -29.4190  -12.6570   18.1390 C   0  0  0  0  0  2  0  0  0  0  0  0
  -27.9600  -12.4350   18.5840 C   0  0  0  0  0  2  0  0  0  0  0  0
  -27.5670  -13.3340   19.7850 C   0  0  0  0  0  3  0  0  0  0  0  0
  -28.6370  -13.3050   20.8980 C   0  0  0  0  0  2  0  0  0  0  0  0
  -29.9020  -13.7450   20.2910 N   0  0  0  0  0  0  0  0  0  0  0  0
  -31.6340  -15.1640   20.0160 O   0  0  0  0  0  0  0  0  0  0  0  0
  -29.5820  -16.1250   20.5840 N   0  0  0  0  0  0  0  0  0  0  0  0
  -28.6110  -15.9990   20.8200 H   0  0  0  0  0  0  0  0  0  0  0  0
  -25.1910  -13.9050   20.5500 C   0  0  0  0  0  0  0  0  0  0  0  0
  -24.1320  -13.1250   20.9230 C   0  0  0  0  0  0  0  0  0  0  0  0
  -24.5970  -11.7750   20.8720 C   0  0  0  0  0  0  0  0  0  0  0  0
  -26.2330  -13.0300   20.2900 N   0  0  0  0  0  0  0  0  0  0  0  0
  -25.8850  -11.7430   20.5480 N   0  0  0  0  0  0  0  0  0  0  0  0
  -23.8740  -10.5100   21.0530 C   0  0  0  0  0  0  0  0  0  0  0  0
  -24.3010   -9.5410   21.9870 C   0  0  0  0  0  3  0  0  0  0  0  0
  -23.5770   -8.3420   22.1570 C   0  0  0  0  0  3  0  0  0  0  0  0
  -22.4110   -8.1020   21.3920 C   0  0  0  0  0  0  0  0  0  0  0  0
  -22.0020   -9.0590   20.4470 C   0  0  0  0  0  3  0  0  0  0  0  0
  -22.7270  -10.2510   20.2750 C   0  0  0  0  0  3  0  0  0  0  0  0
  -21.6580   -6.9550   21.4710 O   0  0  0  0  0  0  0  0  0  0  0  0
  -21.5850   -6.2220   22.6280 C   0  0  0  0  0  0  0  0  0  0  0  0
  -21.0940   -6.7740   23.8310 C   0  0  0  0  0  3  0  0  0  0  0  0
  -20.9710   -5.9640   24.9790 C   0  0  0  0  0  3  0  0  0  0  0  0
  -21.3270   -4.6040   24.9230 C   0  0  0  0  0  0  0  0  0  0  0  0
  -21.8110   -4.0510   23.7240 C   0  0  0  0  0  3  0  0  0  0  0  0
  -21.9360   -4.8570   22.5790 C   0  0  0  0  0  0  0  0  0  0  0  0
  -22.3830   -4.3140   21.4210 F   0  0  0  0  0  0  0  0  0  0  0  0
  -21.2020   -3.8240   26.0220 F   0  0  0  0  0  0  0  0  0  0  0  0
  -22.7360  -13.5970   21.2110 C   0  0  0  0  0  0  0  0  0  0  0  0
  -22.0170  -12.8940   22.0790 N   0  0  0  0  0  0  0  0  0  0  0  0
  -22.2920  -14.6260   20.7010 O   0  0  0  0  0  0  0  0  0  0  0  0
  -22.3890  -12.0610   22.5130 H   0  0  0  0  0  0  0  0  0  0  0  0
  -21.0800  -13.1920   22.3140 H   0  0  0  0  0  0  0  0  0  0  0  0
  -25.3470  -15.2780   20.3820 N   0  0  0  0  0  0  0  0  0  0  0  0
  -24.5640  -15.9150   20.4870 H   0  0  0  0  0  0  0  0  0  0  0  0
  -26.1530  -15.7150   19.9570 H   0  0  0  0  0  0  0  0  0  0  0  0
  -29.0120  -23.3510   20.3380 C   0  0  0  0  0  3  0  0  0  0  0  0
  -27.9690  -24.6730   20.1150 C   0  0  0  0  0  3  0  0  0  0  0  0
  -28.2420  -26.2080   20.2710 O   0  0  0  0  0  0  0  0  0  0  0  0
  -24.6310  -31.9220   23.2530 C   0  0  0  0  0  0  0  0  0  0  0  0
  -27.1860  -27.1960   20.2100 C   0  0  0  0  0  0  0  0  0  0  0  0
  -23.4230  -30.5350   21.6130 C   0  0  0  0  0  3  0  0  0  0  0  0
  -24.8620  -28.9550   20.1840 C   0  0  0  0  0  0  0  0  0  0  0  0
  -25.9790  -30.7870   21.4450 C   0  0  0  0  0  2  0  0  0  0  0  0
  -26.0450  -29.3950   20.7910 C   0  0  0  0  0  0  0  0  0  0  0  0
  -27.2080  -28.5330   20.7840 C   0  0  0  0  0  3  0  0  0  0  0  0
  -25.9740  -26.8590   19.5680 C   0  0  0  0  0  3  0  0  0  0  0  0
  -24.8400  -27.7000   19.5570 C   0  0  0  0  0  3  0  0  0  0  0  0
  -23.6390  -29.8580   20.2330 C   0  0  0  0  0  2  0  0  0  0  0  0
  -24.6980  -31.1030   22.1590 N   0  0  0  0  0  0  0  0  0  0  0  0
  -23.5460  -32.2110   23.7820 O   0  0  0  0  0  0  0  0  0  0  0  0
  -22.7400  -29.5300   22.5740 C   0  0  0  0  0  0  0  0  0  0  0  0
  -21.4110  -29.3660   22.4470 N   0  0  0  0  0  0  0  0  0  0  0  0
  -23.4080  -28.9010   23.3990 O   0  0  0  0  0  0  0  0  0  0  0  0
  -20.9270  -29.9250   21.7590 H   0  0  0  0  0  0  0  0  0  0  0  0
  -18.0230  -28.1860   22.9560 C   0  0  0  0  0  0  0  0  0  0  0  0
  -20.5840  -28.4320   23.2180 C   0  0  0  0  0  3  0  0  0  0  0  0
  -20.6750  -27.0010   22.6400 C   0  0  0  0  0  2  0  0  0  0  0  0
  -19.5690  -26.6860   21.6280 C   0  0  0  0  0  2  0  0  0  0  0  0
  -18.1900  -26.8380   22.2750 C   0  0  0  0  0  2  0  0  0  0  0  0
  -19.1460  -28.9410   23.3850 C   0  0  0  0  0  0  0  0  0  0  0  0
  -18.9350  -30.2030   23.9830 C   0  0  0  0  0  3  0  0  0  0  0  0
  -17.6340  -30.7080   24.1560 C   0  0  0  0  0  3  0  0  0  0  0  0
  -16.5240  -29.9500   23.7430 C   0  0  0  0  0  3  0  0  0  0  0  0
  -16.7190  -28.6910   23.1490 C   0  0  0  0  0  3  0  0  0  0  0  0
  -25.9120  -32.5510   23.8790 C   0  0  0  0  0  3  0  0  0  0  0  0
  -25.6050  -33.9490   24.2180 N   0  0  0  0  0  0  0  0  0  0  0  0
  -25.9170  -35.0060   23.4560 C   0  0  0  0  0  0  0  0  0  0  0  0
  -26.5590  -34.9060   22.4070 O   0  0  0  0  0  0  0  0  0  0  0  0
  -25.0310  -34.1000   25.0350 H   0  0  0  0  0  0  0  0  0  0  0  0
  -24.1670  -36.7950   23.1710 C   0  0  0  0  0  1  0  0  0  0  0  0
  -25.4430  -36.3950   23.9310 C   0  0  0  0  0  3  0  0  0  0  0  0
  -27.6020  -37.2970   24.6790 C   0  0  0  0  0  1  0  0  0  0  0  0
  -26.4650  -37.4520   23.7740 N   0  0  0  0  0  0  0  0  0  0  0  0
  -26.0600  -38.3720   23.9300 H   0  0  0  0  0  0  0  0  0  0  0  0
  -26.4210  -31.7760   25.1580 C   0  0  1  0  0  0  0  0  0  0  0  0
  -25.3230  -31.5420   26.2220 C   0  0  0  0  0  1  0  0  0  0  0  0
  -27.0000  -30.3960   24.7710 C   0  0  0  0  0  1  0  0  0  0  0  0
  -27.5720  -32.5660   25.8240 C   0  0  0  0  0  1  0  0  0  0  0  0
  1 45  1  0
  1  2  1  0
  2  3  2  0
  3  4  1  0
  4 15  1  0
  4  5  1  0
  6  4  1  0
  7 15  1  0
  8 13  1  0
  9 10  1  0
  9  8  1  0
 11 10  1  0
 11 20  1  0
 11 12  1  0
 13  7  1  0
 13 12  1  0
 14  7  2  0
 15 16  1  0
 17 18  2  0
 18 37  1  0
 19 18  1  0
 19 22  1  0
 20 21  1  0
 20 17  1  0
 21 19  2  0
 22 23  1  0
 23 24  2  0
 25 28  1  0
 25 24  1  0
 26 25  2  0
 27 26  1  0
 27 22  2  0
 28 29  1  0
 29 30  1  0
 30 31  2  0
 32 31  1  0
 32 36  1  0
 33 32  2  0
 34 29  2  0
 34 33  1  0
 35 34  1  0
 37 38  1  0
 38 41  1  0
 38 40  1  0
 39 37  2  0
 42 43  1  0
 42 17  1  0
 44 42  1  0
 46 47  1  0
 46 45  2  0
 48 59  2  0
 49 47  1  0
 49 54  1  0
 50 58  1  0
 50 60  1  0
 51 57  1  0
 51 53  1  0
 52 58  1  0
 53 52  1  0
 54 53  2  0
 55 49  2  0
 56 55  1  0
 56 51  2  0
 57 50  1  0
 58 48  1  0
 60 62  2  0
 61 60  1  0
 63 61  1  0
 64 73  2  0
 64 69  1  0
 65 61  1  0
 65 69  1  0
 66 65  1  0
 67 68  1  0
 67 66  1  0
 68 64  1  0
 69 70  2  0
 70 71  1  0
 72 71  2  0
 73 72  1  0
 74 48  1  0
 74 75  1  0
 74 84  1  0
 75 78  1  0
 76 80  1  0
 76 75  1  0
 77 76  2  0
 80 79  1  0
 82 83  1  0
 82 80  1  0
 82 81  1  0
 84 87  1  1
 84 85  1  0
 86 84  1  0
M  ISO  4   7 100  15 100  46 101  47 101
M  END
>  <TORSDO>  (15) 
F 21

>  <SCORE>  (15) 
-15.411

>  <name>  (15) 
14

>  <ligand_id>  (15) 
14

>  <original_smiles>  (15) 
[H]c1c([H])c([H])c2c(c1[H])C([H])([H])C([H])([H])C([H])([H])C2([H])N([H])C(=O)C1([H])N(C(=O)C([H])(N([H])C(=O)C([H])(N([H])C([H])([H])[H])C([H])([H])[H])C(C([H])([H])[H])(C([H])([H])[H])C([H])([H])[H])C([H])([H])c2c([H])c(OC([H])([H])C([H])([H])OC([H])([H])C([H])([H])[N+]([H])([H])N([H])C(=O)N3C([H])([H])C([H])([H])C([H])([H])C([H])(n4nc(-c5c([H])c([H])c(Oc6c([H])c([H])c(F)c([H])c6F)c([H])c5[H])c(C(=O)N([H])[H])c4N([H])[H])C3([H])[H])c([H])c([H])c2C1([H])[H]

>  <smiles>  (15) 
[H]c1c([H])c([H])c2c(c1[H])C([H])([H])C([H])([H])C([H])([H])C2([H])N([H])C(=O)C1([H])N(C(=O)C([H])(N([H])C(=O)C([H])(N([H])C([H])([H])[H])C([H])([H])[H])C(C([H])([H])[H])(C([H])([H])[H])C([H])([H])[H])C([H])([H])c2c([H])c(OC([H])([H])C([H])([H])OC([H])([H])C([H])([H])[N+]([H])([H])N([H])C(=O)N3C([H])([H])C([H])([H])C([H])([H])C([H])(n4nc(-c5c([H])c([H])c(Oc6c([H])c([H])c(F)c([H])c6F)c([H])c5[H])c(C(=O)N([H])[H])c4N([H])[H])C3([H])[H])c([H])c([H])c2C1([H])[H]

$$$$
15:0:0
     RDKit          3D

 83 90  0  0  1  0  0  0  0  0999 V2000
  -27.9490  -23.9120   20.2000 C   0  0  0  0  0  3  0  0  0  0  0  0
  -28.1500  -25.6420   20.2980 O   0  0  0  0  0  0  0  0  0  0  0  0
  -24.6720  -31.8880   23.2420 C   0  0  0  0  0  0  0  0  0  0  0  0
  -27.1710  -26.8340   20.2470 C   0  0  0  0  0  0  0  0  0  0  0  0
  -23.4710  -30.4970   21.6080 C   0  0  0  0  0  3  0  0  0  0  0  0
  -24.9060  -28.8480   20.1930 C   0  0  0  0  0  0  0  0  0  0  0  0
  -26.0490  -30.6390   21.4750 C   0  0  0  0  0  2  0  0  0  0  0  0
  -26.1040  -29.2100   20.8200 C   0  0  0  0  0  0  0  0  0  0  0  0
  -27.2230  -28.2300   20.8150 C   0  0  0  0  0  3  0  0  0  0  0  0
  -25.9390  -26.6690   19.5680 C   0  0  0  0  0  3  0  0  0  0  0  0
  -24.8600  -27.6020   19.5430 C   0  0  0  0  0  3  0  0  0  0  0  0
  -23.7020  -29.8000   20.2370 C   0  0  0  0  0  2  0  0  0  0  0  0
  -24.7550  -31.0400   22.1610 N   0  0  0  0  0  0  0  0  0  0  0  0
  -23.5830  -32.1920   23.7560 O   0  0  0  0  0  0  0  0  0  0  0  0
  -22.7560  -29.5220   22.5800 C   0  0  0  0  0  0  0  0  0  0  0  0
  -21.4230  -29.3690   22.4550 N   0  0  0  0  0  0  0  0  0  0  0  0
  -23.4110  -28.8980   23.4200 O   0  0  0  0  0  0  0  0  0  0  0  0
  -20.9460  -29.9220   21.7570 H   0  0  0  0  0  0  0  0  0  0  0  0
  -18.0330  -28.1690   22.9680 C   0  0  0  0  0  0  0  0  0  0  0  0
  -20.5930  -28.4390   23.2300 C   0  0  0  0  0  3  0  0  0  0  0  0
  -20.6940  -27.0020   22.6640 C   0  0  0  0  0  2  0  0  0  0  0  0
  -19.5940  -26.6750   21.6500 C   0  0  0  0  0  2  0  0  0  0  0  0
  -18.2110  -26.8200   22.2910 C   0  0  0  0  0  2  0  0  0  0  0  0
  -19.1500  -28.9350   23.3940 C   0  0  0  0  0  0  0  0  0  0  0  0
  -18.9270  -30.1950   23.9910 C   0  0  0  0  0  3  0  0  0  0  0  0
  -17.6200  -30.6890   24.1620 C   0  0  0  0  0  3  0  0  0  0  0  0
  -16.5170  -29.9210   23.7490 C   0  0  0  0  0  3  0  0  0  0  0  0
  -16.7250  -28.6620   23.1580 C   0  0  0  0  0  3  0  0  0  0  0  0
  -25.9420  -32.5310   23.8780 C   0  0  0  0  0  3  0  0  0  0  0  0
  -26.4400  -31.7670   25.1680 C   0  0  1  0  0  0  0  0  0  0  0  0
  -25.3350  -31.5460   26.2290 C   0  0  0  0  0  1  0  0  0  0  0  0
  -27.0170  -30.3800   24.8050 C   0  0  0  0  0  1  0  0  0  0  0  0
  -27.5910  -32.5580   25.8350 C   0  0  0  0  0  1  0  0  0  0  0  0
  -25.6270  -33.9320   24.2180 N   0  0  0  0  0  0  0  0  0  0  0  0
  -25.9330  -34.9970   23.4640 C   0  0  0  0  0  0  0  0  0  0  0  0
  -26.5690  -34.9020   22.4100 O   0  0  0  0  0  0  0  0  0  0  0  0
  -25.0570  -34.0770   25.0370 H   0  0  0  0  0  0  0  0  0  0  0  0
  -24.1800  -36.7890   23.2110 C   0  0  0  0  0  1  0  0  0  0  0  0
  -25.4650  -36.3850   23.9520 C   0  0  0  0  0  3  0  0  0  0  0  0
  -27.6320  -37.2910   24.6730 C   0  0  0  0  0  1  0  0  0  0  0  0
  -26.4840  -37.4450   23.7830 N   0  0  0  0  0  0  0  0  0  0  0  0
  -26.0790  -38.3630   23.9460 H   0  0  0  0  0  0  0  0  0  0  0  0
  -28.9470  -22.2690   20.2790 C   0  0  0  0  0  3  0  0  0  0  0  0
  -28.7110  -20.3580   20.2370 C   0  0  0  0  0  3  0  0  0  0  0  0
  -29.7530  -18.7430   20.2450 C   0  0  0  0  0  3  0  0  0  0  0  0
  -30.2820  -15.6460   20.1480 C   0  0  0  0  0  0  0  0  0  0  0  0
  -30.3500  -13.1330   19.2860 C   0  0  0  0  0  2  0  0  0  0  0  0
  -29.4300  -12.7740   18.0850 C   0  0  0  0  0  2  0  0  0  0  0  0
  -28.0130  -12.4240   18.5630 C   0  0  0  0  0  2  0  0  0  0  0  0
  -27.5300  -13.4030   19.6600 C   0  0  0  0  0  3  0  0  0  0  0  0
  -28.5860  -13.6800   20.7550 C   0  0  0  0  0  2  0  0  0  0  0  0
  -29.7510  -14.2930   20.0790 N   0  0  0  0  0  0  0  0  0  0  0  0
  -31.5110  -15.5990   19.9480 O   0  0  0  0  0  0  0  0  0  0  0  0
  -29.5270  -16.9940   20.2480 N   0  0  0  0  0  0  0  0  0  0  0  0
  -28.5450  -16.7820   20.3500 H   0  0  0  0  0  0  0  0  0  0  0  0
  -25.1770  -13.9060   20.4730 C   0  0  0  0  0  0  0  0  0  0  0  0
  -24.1340  -13.1120   20.8550 C   0  0  0  0  0  0  0  0  0  0  0  0
  -24.6200  -11.7680   20.8040 C   0  0  0  0  0  0  0  0  0  0  0  0
  -26.2270  -13.0500   20.2020 N   0  0  0  0  0  0  0  0  0  0  0  0
  -25.9070  -11.7560   20.4690 N   0  0  0  0  0  0  0  0  0  0  0  0
  -23.9110  -10.4960   20.9970 C   0  0  0  0  0  0  0  0  0  0  0  0
  -24.3510   -9.5380   21.9370 C   0  0  0  0  0  3  0  0  0  0  0  0
  -23.6360   -8.3340   22.1190 C   0  0  0  0  0  3  0  0  0  0  0  0
  -22.4690   -8.0770   21.3610 C   0  0  0  0  0  0  0  0  0  0  0  0
  -22.0480   -9.0240   20.4100 C   0  0  0  0  0  3  0  0  0  0  0  0
  -22.7630  -10.2200   20.2260 C   0  0  0  0  0  3  0  0  0  0  0  0
  -21.7270   -6.9240   21.4530 O   0  0  0  0  0  0  0  0  0  0  0  0
  -21.6590   -6.2030   22.6170 C   0  0  0  0  0  0  0  0  0  0  0  0
  -21.1670   -6.7650   23.8150 C   0  0  0  0  0  3  0  0  0  0  0  0
  -21.0490   -5.9670   24.9700 C   0  0  0  0  0  3  0  0  0  0  0  0
  -21.4130   -4.6090   24.9290 C   0  0  0  0  0  0  0  0  0  0  0  0
  -21.8990   -4.0450   23.7360 C   0  0  0  0  0  3  0  0  0  0  0  0
  -22.0180   -4.8400   22.5820 C   0  0  0  0  0  0  0  0  0  0  0  0
  -22.4660   -4.2870   21.4300 F   0  0  0  0  0  0  0  0  0  0  0  0
  -21.2940   -3.8400   26.0380 F   0  0  0  0  0  0  0  0  0  0  0  0
  -22.7360  -13.5700   21.1460 C   0  0  0  0  0  0  0  0  0  0  0  0
  -22.0320  -12.8660   22.0240 N   0  0  0  0  0  0  0  0  0  0  0  0
  -22.2780  -14.5880   20.6300 O   0  0  0  0  0  0  0  0  0  0  0  0
  -22.4170  -12.0420   22.4630 H   0  0  0  0  0  0  0  0  0  0  0  0
  -21.0930  -13.1550   22.2630 H   0  0  0  0  0  0  0  0  0  0  0  0
  -25.3150  -15.2810   20.3020 N   0  0  0  0  0  0  0  0  0  0  0  0
  -24.5370  -15.9190   20.4270 H   0  0  0  0  0  0  0  0  0  0  0  0
  -26.1390  -15.7310   19.9280 H   0  0  0  0  0  0  0  0  0  0  0  0
  1 43  2  0
  1  2  1  0
  3 14  2  0
  4  2  1  0
  4  9  1  0
  5 13  1  0
  5 15  1  0
  6 12  1  0
  6  8  1  0
  7 13  1  0
  8  7  1  0
  9  8  2  0
 10  4  2  0
 11 10  1  0
 11  6  2  0
 12  5  1  0
 13  3  1  0
 15 17  2  0
 16 15  1  0
 18 16  1  0
 19 28  2  0
 19 24  1  0
 20 16  1  0
 20 24  1  0
 21 20  1  0
 22 23  1  0
 22 21  1  0
 23 19  1  0
 24 25  2  0
 25 26  1  0
 27 26  2  0
 28 27  1  0
 29  3  1  0
 29 34  1  0
 29 30  1  0
 30 33  1  1
 30 31  1  0
 32 30  1  0
 34 37  1  0
 35 39  1  0
 35 34  1  0
 36 35  2  0
 39 38  1  0
 41 42  1  0
 41 39  1  0
 41 40  1  0
 44 45  2  0
 44 43  1  0
 45 54  1  0
 46 54  1  0
 47 52  1  0
 48 49  1  0
 48 47  1  0
 50 49  1  0
 50 59  1  0
 50 51  1  0
 52 46  1  0
 52 51  1  0
 53 46  2  0
 54 55  1  0
 56 57  2  0
 57 76  1  0
 58 57  1  0
 58 61  1  0
 59 60  1  0
 59 56  1  0
 60 58  2  0
 61 62  1  0
 62 63  2  0
 64 67  1  0
 64 63  1  0
 65 64  2  0
 66 65  1  0
 66 61  2  0
 67 68  1  0
 68 69  1  0
 69 70  2  0
 71 70  1  0
 71 75  1  0
 72 71  2  0
 73 68  2  0
 73 72  1  0
 74 73  1  0
 76 77  1  0
 77 80  1  0
 77 79  1  0
 78 76  2  0
 81 82  1  0
 81 56  1  0
 83 81  1  0
M  ISO  4   1 101   2 101  46 100  54 100
M  END
>  <TORSDO>  (16) 
F 19

>  <SCORE>  (16) 
-16.287

>  <name>  (16) 
15

>  <ligand_id>  (16) 
15

>  <original_smiles>  (16) 
[H]c1c([H])c([H])c2c(c1[H])C([H])([H])C([H])([H])C([H])([H])C2([H])N([H])C(=O)C1([H])N(C(=O)C([H])(N([H])C(=O)C([H])(N([H])C([H])([H])[H])C([H])([H])[H])C(C([H])([H])[H])(C([H])([H])[H])C([H])([H])[H])C([H])([H])c2c([H])c(OC([H])([H])C([H])([H])C([H])([H])C([H])([H])N([H])C(=O)N3C([H])([H])C([H])([H])C([H])([H])C([H])(n4nc(-c5c([H])c([H])c(Oc6c([H])c([H])c(F)c([H])c6F)c([H])c5[H])c(C(=O)N([H])[H])c4N([H])[H])C3([H])[H])c([H])c([H])c2C1([H])[H]

>  <smiles>  (16) 
[H]c1c([H])c([H])c2c(c1[H])C([H])([H])C([H])([H])C([H])([H])C2([H])N([H])C(=O)C1([H])N(C(=O)C([H])(N([H])C(=O)C([H])(N([H])C([H])([H])[H])C([H])([H])[H])C(C([H])([H])[H])(C([H])([H])[H])C([H])([H])[H])C([H])([H])c2c([H])c(OC([H])([H])C([H])([H])C([H])([H])C([H])([H])N([H])C(=O)N3C([H])([H])C([H])([H])C([H])([H])C([H])(n4nc(-c5c([H])c([H])c(Oc6c([H])c([H])c(F)c([H])c6F)c([H])c5[H])c(C(=O)N([H])[H])c4N([H])[H])C3([H])[H])c([H])c([H])c2C1([H])[H]

$$$$
16:0:0
     RDKit          3D

 95102  0  0  1  0  0  0  0  0999 V2000
  -25.0110  -22.6540   19.7720 C   0  0  0  0  0  2  0  0  0  0  0  0
  -25.8240  -21.7420   19.0580 O   0  0  0  0  0  0  0  0  0  0  0  0
  -25.1540  -21.1310   17.9630 C   0  0  0  0  0  2  0  0  0  0  0  0
  -26.1580  -20.1390   17.3800 C   0  0  0  0  0  2  0  0  0  0  0  0
  -26.3370  -19.1430   18.3780 O   0  0  0  0  0  0  0  0  0  0  0  0
  -27.6230  -18.5470   18.4090 C   0  0  0  0  0  2  0  0  0  0  0  0
  -28.0180  -18.3960   19.8810 C   0  0  0  0  0  2  0  0  0  0  0  0
  -29.1560  -17.5560   19.9910 O   0  0  0  0  0  0  0  0  0  0  0  0
  -29.7710  -17.6370   21.2710 C   0  0  0  0  0  2  0  0  0  0  0  0
  -31.0050  -16.7320   21.2630 C   0  0  0  0  0  2  0  0  0  0  0  0
  -31.1720  -14.3870   20.4510 C   0  0  0  0  0  0  0  0  0  0  0  0
  -30.7480  -12.2760   19.2570 C   0  0  0  0  0  2  0  0  0  0  0  0
  -29.8290  -12.5710   18.0580 C   0  0  0  0  0  2  0  0  0  0  0  0
  -28.3460  -12.5210   18.4790 C   0  0  0  0  0  2  0  0  0  0  0  0
  -28.0550  -13.3370   19.7690 C   0  0  0  0  0  3  0  0  0  0  0  0
  -29.0970  -13.0200   20.8690 C   0  0  0  0  0  2  0  0  0  0  0  0
  -30.4390  -13.2530   20.3070 N   0  0  0  0  0  0  0  0  0  0  0  0
  -32.2510  -14.5820   19.8880 O   0  0  0  0  0  0  0  0  0  0  0  0
  -30.5860  -15.3370   21.1830 N   0  0  0  0  0  0  0  0  0  0  0  0
  -29.6880  -15.1060   21.5810 H   0  0  0  0  0  0  0  0  0  0  0  0
  -25.6920  -14.0590   20.4970 C   0  0  0  0  0  0  0  0  0  0  0  0
  -24.5860  -13.3420   20.8600 C   0  0  0  0  0  0  0  0  0  0  0  0
  -24.9700  -11.9690   20.7940 C   0  0  0  0  0  0  0  0  0  0  0  0
  -26.6890  -13.1280   20.2420 N   0  0  0  0  0  0  0  0  0  0  0  0
  -26.2540  -11.8650   20.4770 N   0  0  0  0  0  0  0  0  0  0  0  0
  -24.1780  -10.7470   20.9660 C   0  0  0  0  0  0  0  0  0  0  0  0
  -24.5410   -9.7650   21.9150 C   0  0  0  0  0  3  0  0  0  0  0  0
  -23.7560   -8.6040   22.0790 C   0  0  0  0  0  3  0  0  0  0  0  0
  -22.5930   -8.4160   21.2930 C   0  0  0  0  0  0  0  0  0  0  0  0
  -22.2480   -9.3870   20.3360 C   0  0  0  0  0  3  0  0  0  0  0  0
  -23.0320  -10.5410   20.1730 C   0  0  0  0  0  3  0  0  0  0  0  0
  -21.7880   -7.3050   21.3620 O   0  0  0  0  0  0  0  0  0  0  0  0
  -21.6200   -6.6060   22.5310 C   0  0  0  0  0  0  0  0  0  0  0  0
  -21.1200   -7.2230   23.6980 C   0  0  0  0  0  3  0  0  0  0  0  0
  -20.8990   -6.4550   24.8600 C   0  0  0  0  0  3  0  0  0  0  0  0
  -21.1640   -5.0720   24.8510 C   0  0  0  0  0  0  0  0  0  0  0  0
  -21.6520   -4.4550   23.6850 C   0  0  0  0  0  3  0  0  0  0  0  0
  -21.8760   -5.2220   22.5260 C   0  0  0  0  0  0  0  0  0  0  0  0
  -22.3300   -4.6190   21.4010 F   0  0  0  0  0  0  0  0  0  0  0  0
  -20.9410   -4.3320   25.9620 F   0  0  0  0  0  0  0  0  0  0  0  0
  -23.2220  -13.8910   21.1580 C   0  0  0  0  0  0  0  0  0  0  0  0
  -22.4770  -13.2300   22.0360 N   0  0  0  0  0  0  0  0  0  0  0  0
  -22.8320  -14.9400   20.6490 O   0  0  0  0  0  0  0  0  0  0  0  0
  -22.8070  -12.3800   22.4700 H   0  0  0  0  0  0  0  0  0  0  0  0
  -21.5600  -13.5810   22.2760 H   0  0  0  0  0  0  0  0  0  0  0  0
  -25.9290  -15.4200   20.3470 N   0  0  0  0  0  0  0  0  0  0  0  0
  -25.1970  -16.1130   20.4710 H   0  0  0  0  0  0  0  0  0  0  0  0
  -26.8200  -15.8170   20.0830 H   0  0  0  0  0  0  0  0  0  0  0  0
  -25.9230  -23.3330   20.8000 C   0  0  0  0  0  2  0  0  0  0  0  0
  -27.1880  -23.7630   20.1650 N   0  0  0  0  0  4  0  0  0  0  0  0
  -27.6810  -22.9550   19.8070 H   0  0  0  0  0  0  0  0  0  0  0  0
  -26.9510  -24.3280   19.3660 H   0  0  0  0  0  0  0  0  0  0  0  0
  -28.0900  -24.5510   21.0360 C   0  0  0  0  0  2  0  0  0  0  0  0
  -28.9090  -25.5680   20.2140 C   0  0  0  0  0  2  0  0  0  0  0  0
  -28.7450  -26.9080   20.6810 O   0  0  0  0  0  0  0  0  0  0  0  0
  -24.7000  -32.0350   23.4290 C   0  0  0  0  0  0  0  0  0  0  0  0
  -27.5330  -27.5600   20.5780 C   0  0  0  0  0  0  0  0  0  0  0  0
  -23.5840  -30.5970   21.7510 C   0  0  0  0  0  3  0  0  0  0  0  0
  -25.1170  -29.0320   20.4420 C   0  0  0  0  0  0  0  0  0  0  0  0
  -26.1120  -30.9610   21.6830 C   0  0  0  0  0  2  0  0  0  0  0  0
  -26.2330  -29.5760   21.0860 C   0  0  0  0  0  0  0  0  0  0  0  0
  -27.4380  -28.8460   21.1560 C   0  0  0  0  0  3  0  0  0  0  0  0
  -26.3990  -27.0280   19.9190 C   0  0  0  0  0  3  0  0  0  0  0  0
  -25.1960  -27.7560   19.8540 C   0  0  0  0  0  3  0  0  0  0  0  0
  -23.8640  -29.8750   20.4020 C   0  0  0  0  0  2  0  0  0  0  0  0
  -24.8140  -31.2150   22.3460 N   0  0  0  0  0  0  0  0  0  0  0  0
  -23.5890  -32.3140   23.9030 O   0  0  0  0  0  0  0  0  0  0  0  0
  -22.8770  -29.6020   22.6950 C   0  0  0  0  0  0  0  0  0  0  0  0
  -21.5630  -29.4090   22.4910 N   0  0  0  0  0  0  0  0  0  0  0  0
  -23.5120  -28.9960   23.5620 O   0  0  0  0  0  0  0  0  0  0  0  0
  -21.1140  -29.9450   21.7620 H   0  0  0  0  0  0  0  0  0  0  0  0
  -18.1670  -28.2270   22.8300 C   0  0  0  0  0  0  0  0  0  0  0  0
  -20.7090  -28.4810   23.2300 C   0  0  0  0  0  3  0  0  0  0  0  0
  -20.8310  -27.0400   22.6780 C   0  0  0  0  0  2  0  0  0  0  0  0
  -19.7820  -26.7080   21.6120 C   0  0  0  0  0  2  0  0  0  0  0  0
  -18.3700  -26.8690   22.1820 C   0  0  0  0  0  2  0  0  0  0  0  0
  -19.2650  -28.9900   23.3100 C   0  0  0  0  0  0  0  0  0  0  0  0
  -19.0230  -30.2640   23.8680 C   0  0  0  0  0  3  0  0  0  0  0  0
  -17.7130  -30.7730   23.9560 C   0  0  0  0  0  3  0  0  0  0  0  0
  -16.6290  -30.0060   23.4970 C   0  0  0  0  0  3  0  0  0  0  0  0
  -16.8550  -28.7360   22.9380 C   0  0  0  0  0  3  0  0  0  0  0  0
  -25.9510  -32.6740   24.1090 C   0  0  0  0  0  3  0  0  0  0  0  0
  -26.3670  -31.9590   25.4530 C   0  0  1  0  0  0  0  0  0  0  0  0
  -25.1920  -31.7640   26.4390 C   0  0  0  0  0  1  0  0  0  0  0  0
  -26.9780  -30.5680   25.1650 C   0  0  0  0  0  1  0  0  0  0  0  0
  -27.4630  -32.7850   26.1680 C   0  0  0  0  0  1  0  0  0  0  0  0
  -25.6510  -34.0900   24.3430 N   0  0  0  0  0  0  0  0  0  0  0  0
  -26.0380  -35.0920   23.5410 C   0  0  0  0  0  0  0  0  0  0  0  0
  -26.7560  -34.9200   22.5530 O   0  0  0  0  0  0  0  0  0  0  0  0
  -25.0190  -34.2990   25.1030 H   0  0  0  0  0  0  0  0  0  0  0  0
  -24.3460  -36.8750   23.0080 C   0  0  0  0  0  1  0  0  0  0  0  0
  -25.5510  -36.5110   23.8900 C   0  0  0  0  0  3  0  0  0  0  0  0
  -27.6590  -37.4260   24.7500 C   0  0  0  0  0  1  0  0  0  0  0  0
  -26.6000  -37.5440   23.7530 N   0  0  0  0  0  0  0  0  0  0  0  0
  -26.1990  -38.4750   23.8260 H   0  0  0  0  0  0  0  0  0  0  0  0
  1 49  1  0
  2  1  1  0
  3  2  1  0
  4  3  1  0
  4  5  1  0
  5  6  1  0
  6  7  1  0
  7  8  1  0
  8  9  1  0
 10  9  1  0
 11 19  1  0
 12 17  1  0
 13 14  1  0
 13 12  1  0
 15 14  1  0
 15 24  1  0
 15 16  1  0
 17 11  1  0
 17 16  1  0
 18 11  2  0
 19 10  1  0
 19 20  1  0
 21 22  2  0
 22 41  1  0
 23 22  1  0
 23 26  1  0
 24 25  1  0
 24 21  1  0
 25 23  2  0
 26 27  1  0
 27 28  2  0
 29 32  1  0
 29 28  1  0
 30 29  2  0
 31 30  1  0
 31 26  2  0
 32 33  1  0
 33 34  1  0
 34 35  2  0
 36 35  1  0
 36 40  1  0
 37 36  2  0
 38 33  2  0
 38 37  1  0
 39 38  1  0
 41 42  1  0
 42 45  1  0
 42 44  1  0
 43 41  2  0
 46 47  1  0
 46 21  1  0
 48 46  1  0
 50 49  1  0
 50 53  1  0
 51 50  1  0
 52 50  1  0
 54 55  1  0
 54 53  1  0
 56 67  2  0
 57 55  1  0
 57 62  1  0
 58 66  1  0
 58 68  1  0
 59 61  1  0
 60 66  1  0
 61 62  2  0
 61 60  1  0
 63 57  2  0
 64 63  1  0
 64 59  2  0
 65 59  1  0
 65 58  1  0
 66 56  1  0
 68 70  2  0
 69 68  1  0
 71 69  1  0
 72 81  2  0
 72 77  1  0
 73 69  1  0
 73 77  1  0
 74 73  1  0
 75 76  1  0
 75 74  1  0
 76 72  1  0
 77 78  2  0
 78 79  1  0
 80 79  2  0
 81 80  1  0
 82 56  1  0
 82 87  1  0
 82 83  1  0
 83 86  1  1
 83 84  1  0
 85 83  1  0
 87 90  1  0
 88 92  1  0
 88 87  1  0
 89 88  2  0
 92 91  1  0
 94 95  1  0
 94 92  1  0
 94 93  1  0
M  ISO  4  11 100  19 100  54 101  55 101
M  END
>  <TORSDO>  (17) 
F 29

>  <SCORE>  (17) 
-10.282

>  <name>  (17) 
16

>  <ligand_id>  (17) 
16

>  <original_smiles>  (17) 
[H]c1c([H])c([H])c2c(c1[H])C([H])([H])C([H])([H])C([H])([H])C2([H])N([H])C(=O)C1([H])N(C(=O)C([H])(N([H])C(=O)C([H])(N([H])C([H])([H])[H])C([H])([H])[H])C(C([H])([H])[H])(C([H])([H])[H])C([H])([H])[H])C([H])([H])c2c([H])c(OC([H])([H])C([H])([H])[N+]([H])([H])C([H])([H])C([H])([H])OC([H])([H])C([H])([H])OC([H])([H])C([H])([H])OC([H])([H])C([H])([H])N([H])C(=O)N3C([H])([H])C([H])([H])C([H])([H])C([H])(n4nc(-c5c([H])c([H])c(Oc6c([H])c([H])c(F)c([H])c6F)c([H])c5[H])c(C(=O)N([H])[H])c4N([H])[H])C3([H])[H])c([H])c([H])c2C1([H])[H]

>  <smiles>  (17) 
[H]c1c([H])c([H])c2c(c1[H])C([H])([H])C([H])([H])C([H])([H])C2([H])N([H])C(=O)C1([H])N(C(=O)C([H])(N([H])C(=O)C([H])(N([H])C([H])([H])[H])C([H])([H])[H])C(C([H])([H])[H])(C([H])([H])[H])C([H])([H])[H])C([H])([H])c2c([H])c(OC([H])([H])C([H])([H])[N+]([H])([H])C([H])([H])C([H])([H])OC([H])([H])C([H])([H])OC([H])([H])C([H])([H])OC([H])([H])C([H])([H])N([H])C(=O)N3C([H])([H])C([H])([H])C([H])([H])C([H])(n4nc(-c5c([H])c([H])c(Oc6c([H])c([H])c(F)c([H])c6F)c([H])c5[H])c(C(=O)N([H])[H])c4N([H])[H])C3([H])[H])c([H])c([H])c2C1([H])[H]

$$$$
17:0:0
     RDKit          3D

111118  0  0  1  0  0  0  0  0999 V2000
  -29.5040  -25.1350   21.0770 C   0  0  0  0  0  3  0  0  0  0  0  0
  -31.3950  -26.7390   21.4030 C   0  0  0  0  0  0  0  0  0  0  0  0
  -30.8640  -25.6320   20.8770 N   0  0  0  0  0  0  0  0  0  0  0  0
  -30.7470  -27.5490   22.0700 O   0  0  0  0  0  0  0  0  0  0  0  0
  -31.4850  -24.9870   20.4080 H   0  0  0  0  0  0  0  0  0  0  0  0
  -33.4850  -27.8280   22.2780 C   0  0  0  0  0  1  0  0  0  0  0  0
  -32.8810  -26.9870   21.1420 C   0  0  0  0  0  3  0  0  0  0  0  0
  -33.0130  -27.6590   19.8390 N   0  0  0  0  0  4  0  0  0  0  0  0
  -32.1060  -28.0490   19.5940 H   0  0  0  0  0  0  0  0  0  0  0  0
  -33.6630  -28.4240   19.8720 H   0  0  0  0  0  0  0  0  0  0  0  0
  -33.3190  -26.7910   18.6890 C   0  0  0  0  0  2  0  0  0  0  0  0
  -32.7190  -27.4550   17.4490 C   0  0  0  0  0  0  0  0  0  0  0  0
  -33.1540  -27.1360   16.3300 O   0  0  0  0  0  0  0  0  0  0  0  0
  -31.8110  -28.2990   17.6260 O   0  0  0  0  0  1  0  0  0  0  0  0
  -29.6360  -23.7020   21.6240 C   0  0  0  0  0  0  0  0  0  0  0  0
  -28.6450  -22.8460   21.3650 N   0  0  0  0  0  0  0  0  0  0  0  0
  -30.6480  -23.3620   22.2450 O   0  0  0  0  0  0  0  0  0  0  0  0
  -27.8490  -23.1880   20.8420 H   0  0  0  0  0  0  0  0  0  0  0  0
  -28.7010  -21.4110   21.6410 C   0  0  0  0  0  2  0  0  0  0  0  0
  -29.3930  -20.6450   20.4940 C   0  0  0  0  0  2  0  0  0  0  0  0
  -29.1470  -21.3100   19.2550 O   0  0  0  0  0  0  0  0  0  0  0  0
  -29.9450  -20.8180   18.1840 C   0  0  0  0  0  2  0  0  0  0  0  0
  -29.6800  -21.6390   16.9030 C   0  0  0  0  0  2  0  0  0  0  0  0
  -30.8810  -22.1940   16.3540 O   0  0  0  0  0  0  0  0  0  0  0  0
  -31.3560  -21.5630   15.1590 C   0  0  0  0  0  2  0  0  0  0  0  0
  -32.7260  -20.8850   15.3450 C   0  0  0  0  0  2  0  0  0  0  0  0
  -33.7840  -21.7720   14.9950 O   0  0  0  0  0  0  0  0  0  0  0  0
  -35.0760  -21.2190   15.2280 C   0  0  0  0  0  2  0  0  0  0  0  0
  -36.0880  -21.9020   14.2920 C   0  0  0  0  0  2  0  0  0  0  0  0
  -36.4940  -21.8900   11.8310 C   0  0  0  0  0  0  0  0  0  0  0  0
  -36.5990  -21.7760    9.3680 C   0  0  0  0  0  2  0  0  0  0  0  0
  -35.4670  -22.6240    8.7570 C   0  0  0  0  0  2  0  0  0  0  0  0
  -34.1540  -21.8130    8.6560 C   0  0  0  0  0  2  0  0  0  0  0  0
  -33.8170  -21.0240    9.9520 C   0  0  0  0  0  3  0  0  0  0  0  0
  -35.0510  -20.2890   10.5110 C   0  0  0  0  0  2  0  0  0  0  0  0
  -36.1370  -21.2780   10.6720 N   0  0  0  0  0  0  0  0  0  0  0  0
  -37.3190  -22.8060   11.9000 O   0  0  0  0  0  0  0  0  0  0  0  0
  -35.8690  -21.4430   12.9230 N   0  0  0  0  0  0  0  0  0  0  0  0
  -35.1550  -20.7440   12.7770 H   0  0  0  0  0  0  0  0  0  0  0  0
  -31.4870  -20.0400   10.4100 C   0  0  0  0  0  0  0  0  0  0  0  0
  -30.7720  -19.0520    9.7910 C   0  0  0  0  0  0  0  0  0  0  0  0
  -31.6020  -18.5640    8.7340 C   0  0  0  0  0  0  0  0  0  0  0  0
  -32.6980  -20.1080    9.7400 N   0  0  0  0  0  0  0  0  0  0  0  0
  -32.7800  -19.1740    8.7560 N   0  0  0  0  0  0  0  0  0  0  0  0
  -31.3240  -17.5860    7.6760 C   0  0  0  0  0  0  0  0  0  0  0  0
  -31.8610  -16.2810    7.7170 C   0  0  0  0  0  3  0  0  0  0  0  0
  -31.5570  -15.3500    6.7000 C   0  0  0  0  0  3  0  0  0  0  0  0
  -30.7100  -15.7180    5.6290 C   0  0  0  0  0  0  0  0  0  0  0  0
  -30.1940  -17.0260    5.5840 C   0  0  0  0  0  3  0  0  0  0  0  0
  -30.5010  -17.9510    6.5940 C   0  0  0  0  0  3  0  0  0  0  0  0
  -30.3880  -14.8910    4.5790 O   0  0  0  0  0  0  0  0  0  0  0  0
  -30.1180  -13.5590    4.7670 C   0  0  0  0  0  0  0  0  0  0  0  0
  -28.9200  -13.1190    5.3700 C   0  0  0  0  0  3  0  0  0  0  0  0
  -28.6500  -11.7400    5.4810 C   0  0  0  0  0  3  0  0  0  0  0  0
  -29.5720  -10.7990    4.9860 C   0  0  0  0  0  0  0  0  0  0  0  0
  -30.7650  -11.2350    4.3830 C   0  0  0  0  0  3  0  0  0  0  0  0
  -31.0360  -12.6100    4.2710 C   0  0  0  0  0  0  0  0  0  0  0  0
  -32.1780  -13.0220    3.6700 F   0  0  0  0  0  0  0  0  0  0  0  0
  -29.3100   -9.4760    5.0870 F   0  0  0  0  0  0  0  0  0  0  0  0
  -29.3620  -18.6430   10.1000 C   0  0  0  0  0  0  0  0  0  0  0  0
  -29.1060  -17.3430   10.1990 N   0  0  0  0  0  0  0  0  0  0  0  0
  -28.4820  -19.4820   10.3030 O   0  0  0  0  0  0  0  0  0  0  0  0
  -29.8290  -16.6510   10.0690 H   0  0  0  0  0  0  0  0  0  0  0  0
  -28.1720  -17.0350   10.4270 H   0  0  0  0  0  0  0  0  0  0  0  0
  -31.2010  -20.8920   11.4760 N   0  0  0  0  0  0  0  0  0  0  0  0
  -30.3060  -20.8620   11.9540 H   0  0  0  0  0  0  0  0  0  0  0  0
  -31.8120  -21.6250   11.8170 H   0  0  0  0  0  0  0  0  0  0  0  0
  -28.7380  -25.1200   19.7220 C   0  0  0  0  0  2  0  0  0  0  0  0
  -29.1900  -26.1540   18.6640 C   0  0  0  0  0  2  0  0  0  0  0  0
  -28.4240  -27.4910   18.5970 C   0  0  0  0  0  2  0  0  0  0  0  0
  -28.3030  -28.1250   19.8710 O   0  0  0  0  0  0  0  0  0  0  0  0
  -24.3140  -28.2360   25.7510 C   0  0  0  0  0  0  0  0  0  0  0  0
  -27.0620  -28.4260   20.3960 C   0  0  0  0  0  0  0  0  0  0  0  0
  -23.1230  -28.7360   23.6430 C   0  0  0  0  0  3  0  0  0  0  0  0
  -24.5950  -29.1100   21.6010 C   0  0  0  0  0  0  0  0  0  0  0  0
  -25.6210  -29.2370   23.8760 C   0  0  0  0  0  2  0  0  0  0  0  0
  -25.7470  -28.9870   22.3870 C   0  0  0  0  0  0  0  0  0  0  0  0
  -26.9780  -28.6440   21.7890 C   0  0  0  0  0  3  0  0  0  0  0  0
  -25.8760  -28.5180   19.6250 C   0  0  0  0  0  3  0  0  0  0  0  0
  -24.6530  -28.8690   20.2200 C   0  0  0  0  0  3  0  0  0  0  0  0
  -23.3210  -29.5040   22.3100 C   0  0  0  0  0  2  0  0  0  0  0  0
  -24.3730  -28.6970   24.4690 N   0  0  0  0  0  0  0  0  0  0  0  0
  -23.2400  -27.8890   26.2580 O   0  0  0  0  0  0  0  0  0  0  0  0
  -22.5520  -27.3340   23.3290 C   0  0  0  0  0  0  0  0  0  0  0  0
  -21.6460  -27.2680   22.3400 N   0  0  0  0  0  0  0  0  0  0  0  0
  -22.9400  -26.3400   23.9470 O   0  0  0  0  0  0  0  0  0  0  0  0
  -21.3750  -28.1310   21.8890 H   0  0  0  0  0  0  0  0  0  0  0  0
  -19.4210  -25.9800   19.8000 C   0  0  0  0  0  0  0  0  0  0  0  0
  -20.9970  -26.0530   21.8480 C   0  0  0  0  0  3  0  0  0  0  0  0
  -21.9750  -25.2090   20.9970 C   0  0  0  0  0  2  0  0  0  0  0  0
  -21.8900  -25.5150   19.4990 C   0  0  0  0  0  2  0  0  0  0  0  0
  -20.4720  -25.2570   18.9770 C   0  0  0  0  0  2  0  0  0  0  0  0
  -19.6730  -26.3660   21.1440 C   0  0  0  0  0  0  0  0  0  0  0  0
  -18.6730  -27.0650   21.8550 C   0  0  0  0  0  3  0  0  0  0  0  0
  -17.4420  -27.3740   21.2480 C   0  0  0  0  0  3  0  0  0  0  0  0
  -17.1920  -26.9770   19.9230 C   0  0  0  0  0  3  0  0  0  0  0  0
  -18.1780  -26.2780   19.2040 C   0  0  0  0  0  3  0  0  0  0  0  0
  -25.5890  -28.1480   26.6460 C   0  0  0  0  0  3  0  0  0  0  0  0
  -25.1430  -27.9110   28.0260 N   0  0  0  0  0  0  0  0  0  0  0  0
  -25.4170  -28.7130   29.0620 C   0  0  0  0  0  0  0  0  0  0  0  0
  -26.1470  -29.7050   28.9670 O   0  0  0  0  0  0  0  0  0  0  0  0
  -24.4940  -27.1500   28.1660 H   0  0  0  0  0  0  0  0  0  0  0  0
  -23.4300  -29.0680   30.5620 C   0  0  0  0  0  1  0  0  0  0  0  0
  -24.7860  -28.3590   30.4230 C   0  0  0  0  0  3  0  0  0  0  0  0
  -26.7920  -27.8060   31.7260 C   0  0  0  0  0  1  0  0  0  0  0  0
  -25.6460  -28.6990   31.5760 N   0  0  0  0  0  0  0  0  0  0  0  0
  -25.1120  -28.6780   32.4410 H   0  0  0  0  0  0  0  0  0  0  0  0
  -26.5960  -27.0250   26.1830 C   0  0  1  0  0  0  0  0  0  0  0  0
  -26.1290  -26.2530   24.9280 C   0  0  0  0  0  1  0  0  0  0  0  0
  -27.9830  -27.6350   25.8760 C   0  0  0  0  0  1  0  0  0  0  0  0
  -26.8040  -26.0030   27.3260 C   0  0  0  0  0  1  0  0  0  0  0  0
  1 68  1  0
  1 15  1  0
  2  4  2  0
  3  1  1  0
  3  2  1  0
  5  3  1  0
  7  2  1  0
  7  6  1  0
  8 10  1  0
  8  7  1  0
  9  8  1  0
 11  8  1  0
 12 14  1  0
 12 11  1  0
 13 12  2  0
 15 17  2  0
 16 15  1  0
 16 19  1  0
 18 16  1  0
 20 19  1  0
 21 20  1  0
 22 21  1  0
 23 22  1  0
 24 23  1  0
 25 26  1  0
 25 24  1  0
 27 28  1  0
 27 26  1  0
 29 28  1  0
 30 37  2  0
 30 38  1  0
 31 36  1  0
 32 31  1  0
 33 32  1  0
 34 33  1  0
 34 35  1  0
 35 36  1  0
 36 30  1  0
 38 29  1  0
 39 38  1  0
 40 65  1  0
 41 60  1  0
 41 40  2  0
 42 44  2  0
 42 41  1  0
 43 34  1  0
 43 40  1  0
 44 43  1  0
 45 46  1  0
 45 42  1  0
 47 46  2  0
 48 47  1  0
 49 48  2  0
 49 50  1  0
 50 45  2  0
 51 52  1  0
 51 48  1  0
 52 53  1  0
 53 54  2  0
 55 59  1  0
 55 54  1  0
 56 55  2  0
 57 56  1  0
 57 52  2  0
 58 57  1  0
 60 61  1  0
 60 62  2  0
 61 64  1  0
 63 61  1  0
 65 67  1  0
 65 66  1  0
 69 68  1  0
 70 69  1  0
 70 71  1  0
 71 73  1  0
 72 83  2  0
 73 78  1  0
 74 84  1  0
 74 82  1  0
 75 81  1  0
 75 77  1  0
 76 82  1  0
 77 76  1  0
 78 77  2  0
 79 80  1  0
 79 73  2  0
 80 75  2  0
 81 74  1  0
 82 72  1  0
 84 86  2  0
 85 84  1  0
 87 85  1  0
 88 93  1  0
 89 85  1  0
 90 89  1  0
 91 90  1  0
 92 91  1  0
 92 88  1  0
 93 89  1  0
 93 94  2  0
 95 94  1  0
 96 95  2  0
 97 88  2  0
 97 96  1  0
 98 72  1  0
 98 99  1  0
 99102  1  0
 99100  1  0
100104  1  0
101100  2  0
104103  1  0
104106  1  0
106105  1  0
106107  1  0
108 98  1  0
108111  1  1
109108  1  0
110108  1  0
M  ISO  4  30 100  38 100  70 101  71 101
M  END
>  <TORSDO>  (18) 
F 36

>  <SCORE>  (18) 
-4.265

>  <name>  (18) 
17

>  <ligand_id>  (18) 
17

>  <original_smiles>  (18) 
[H]c1c([H])c([H])c2c(c1[H])C([H])([H])C([H])([H])C([H])([H])C2([H])N([H])C(=O)C1([H])N(C(=O)C([H])(N([H])C(=O)C([H])(N([H])C([H])([H])[H])C([H])([H])[H])C(C([H])([H])[H])(C([H])([H])[H])C([H])([H])[H])C([H])([H])c2c([H])c(OC([H])([H])C([H])([H])C([H])([H])C([H])(C(=O)N([H])C([H])([H])C([H])([H])OC([H])([H])C([H])([H])OC([H])([H])C([H])([H])OC([H])([H])C([H])([H])N([H])C(=O)N3C([H])([H])C([H])([H])C([H])([H])C([H])(n4nc(-c5c([H])c([H])c(Oc6c([H])c([H])c(F)c([H])c6F)c([H])c5[H])c(C(=O)N([H])[H])c4N([H])[H])C3([H])[H])N([H])C(=O)C([H])(C([H])([H])[H])[N+]([H])([H])C([H])([H])C(=O)[O-])c([H])c([H])c2C1([H])[H]

>  <smiles>  (18) 
[H]c1c([H])c([H])c2c(c1[H])C([H])([H])C([H])([H])C([H])([H])C2([H])N([H])C(=O)C1([H])N(C(=O)C([H])(N([H])C(=O)C([H])(N([H])C([H])([H])[H])C([H])([H])[H])C(C([H])([H])[H])(C([H])([H])[H])C([H])([H])[H])C([H])([H])c2c([H])c(OC([H])([H])C([H])([H])C([H])([H])C([H])(C(=O)N([H])C([H])([H])C([H])([H])OC([H])([H])C([H])([H])OC([H])([H])C([H])([H])OC([H])([H])C([H])([H])N([H])C(=O)N3C([H])([H])C([H])([H])C([H])([H])C([H])(n4nc(-c5c([H])c([H])c(Oc6c([H])c([H])c(F)c([H])c6F)c([H])c5[H])c(C(=O)N([H])[H])c4N([H])[H])C3([H])[H])N([H])C(=O)C([H])(C([H])([H])[H])[N+]([H])([H])C([H])([H])C(=O)[O-])c([H])c([H])c2C1([H])[H]

$$$$
18:0:0
     RDKit          3D

 85 92  0  0  1  0  0  0  0  0999 V2000
  -28.9650  -23.3830   20.3610 C   0  0  0  0  0  3  0  0  0  0  0  0
  -27.9430  -24.7050   20.1010 C   0  0  0  0  0  3  0  0  0  0  0  0
  -28.2270  -26.2300   20.2780 O   0  0  0  0  0  0  0  0  0  0  0  0
  -24.6030  -31.9250   23.2450 C   0  0  0  0  0  0  0  0  0  0  0  0
  -27.1750  -27.2150   20.2080 C   0  0  0  0  0  0  0  0  0  0  0  0
  -23.4040  -30.5400   21.5970 C   0  0  0  0  0  3  0  0  0  0  0  0
  -24.8520  -28.9660   20.1720 C   0  0  0  0  0  0  0  0  0  0  0  0
  -25.9590  -30.7980   21.4430 C   0  0  0  0  0  2  0  0  0  0  0  0
  -26.0310  -29.4070   20.7860 C   0  0  0  0  0  0  0  0  0  0  0  0
  -27.1930  -28.5480   20.7860 C   0  0  0  0  0  3  0  0  0  0  0  0
  -25.9670  -26.8750   19.5570 C   0  0  0  0  0  3  0  0  0  0  0  0
  -24.8330  -27.7140   19.5420 C   0  0  0  0  0  3  0  0  0  0  0  0
  -23.6270  -29.8680   20.2160 C   0  0  0  0  0  2  0  0  0  0  0  0
  -24.6760  -31.1090   22.1500 N   0  0  0  0  0  0  0  0  0  0  0  0
  -23.5160  -32.2120   23.7690 O   0  0  0  0  0  0  0  0  0  0  0  0
  -22.7180  -29.5320   22.5530 C   0  0  0  0  0  0  0  0  0  0  0  0
  -21.3900  -29.3670   22.4200 N   0  0  0  0  0  0  0  0  0  0  0  0
  -23.3830  -28.9000   23.3780 O   0  0  0  0  0  0  0  0  0  0  0  0
  -20.9090  -29.9270   21.7290 H   0  0  0  0  0  0  0  0  0  0  0  0
  -17.9980  -28.1960   22.9200 C   0  0  0  0  0  0  0  0  0  0  0  0
  -20.5600  -28.4310   23.1840 C   0  0  0  0  0  3  0  0  0  0  0  0
  -20.6460  -27.0020   22.5980 C   0  0  0  0  0  2  0  0  0  0  0  0
  -19.5390  -26.6990   21.5830 C   0  0  0  0  0  2  0  0  0  0  0  0
  -18.1610  -26.8510   22.2310 C   0  0  0  0  0  2  0  0  0  0  0  0
  -19.1240  -28.9450   23.3530 C   0  0  0  0  0  0  0  0  0  0  0  0
  -18.9180  -30.2030   23.9580 C   0  0  0  0  0  3  0  0  0  0  0  0
  -17.6170  -30.7130   24.1340 C   0  0  0  0  0  3  0  0  0  0  0  0
  -16.5060  -29.9610   23.7160 C   0  0  0  0  0  3  0  0  0  0  0  0
  -16.6970  -28.7040   23.1150 C   0  0  0  0  0  3  0  0  0  0  0  0
  -25.8810  -32.5530   23.8790 C   0  0  0  0  0  3  0  0  0  0  0  0
  -25.5770  -33.9560   24.2040 N   0  0  0  0  0  0  0  0  0  0  0  0
  -25.8850  -35.0050   23.4290 C   0  0  0  0  0  0  0  0  0  0  0  0
  -26.5240  -34.8940   22.3800 O   0  0  0  0  0  0  0  0  0  0  0  0
  -25.0050  -34.1160   25.0210 H   0  0  0  0  0  0  0  0  0  0  0  0
  -24.1320  -36.7880   23.1360 C   0  0  0  0  0  1  0  0  0  0  0  0
  -25.4130  -36.3980   23.8920 C   0  0  0  0  0  3  0  0  0  0  0  0
  -27.5760  -37.3120   24.6140 C   0  0  0  0  0  1  0  0  0  0  0  0
  -26.4340  -37.4540   23.7140 N   0  0  0  0  0  0  0  0  0  0  0  0
  -26.0270  -38.3750   23.8600 H   0  0  0  0  0  0  0  0  0  0  0  0
  -26.3750  -31.7860   25.1680 C   0  0  1  0  0  0  0  0  0  0  0  0
  -25.2660  -31.5630   26.2230 C   0  0  0  0  0  1  0  0  0  0  0  0
  -26.9540  -30.4020   24.7960 C   0  0  0  0  0  1  0  0  0  0  0  0
  -27.5210  -32.5780   25.8400 C   0  0  0  0  0  1  0  0  0  0  0  0
  -28.5550  -21.8910   20.2640 O   0  0  0  0  0  0  0  0  0  0  0  0
  -29.5070  -20.6800   20.4130 C   0  0  0  0  0  3  0  0  0  0  0  0
  -29.0720  -19.0440   20.4020 C   0  0  0  0  0  3  0  0  0  0  0  0
  -30.1350  -17.7310   20.4670 C   0  0  0  0  0  2  0  0  0  0  0  0
  -30.4990  -15.0100   20.3410 C   0  0  0  0  0  0  0  0  0  0  0  0
  -30.3560  -12.6770   19.3680 C   0  0  0  0  0  2  0  0  0  0  0  0
  -29.4070  -12.6560   18.1480 C   0  0  0  0  0  2  0  0  0  0  0  0
  -27.9500  -12.4400   18.5970 C   0  0  0  0  0  2  0  0  0  0  0  0
  -27.5590  -13.3470   19.7940 C   0  0  0  0  0  3  0  0  0  0  0  0
  -28.6300  -13.3430   20.9060 C   0  0  0  0  0  2  0  0  0  0  0  0
  -29.8930  -13.7580   20.2830 N   0  0  0  0  0  0  0  0  0  0  0  0
  -31.6980  -15.0740   20.0500 O   0  0  0  0  0  0  0  0  0  0  0  0
  -29.7370  -16.1990   20.5160 N   0  0  0  0  0  0  0  0  0  0  0  0
  -28.7600  -16.0250   20.6980 H   0  0  0  0  0  0  0  0  0  0  0  0
  -25.1860  -13.9060   20.5730 C   0  0  0  0  0  0  0  0  0  0  0  0
  -24.1300  -13.1220   20.9460 C   0  0  0  0  0  0  0  0  0  0  0  0
  -24.5980  -11.7740   20.8900 C   0  0  0  0  0  0  0  0  0  0  0  0
  -26.2300  -13.0360   20.3070 N   0  0  0  0  0  0  0  0  0  0  0  0
  -25.8860  -11.7470   20.5630 N   0  0  0  0  0  0  0  0  0  0  0  0
  -23.8780  -10.5050   21.0690 C   0  0  0  0  0  0  0  0  0  0  0  0
  -24.3050   -9.5390   22.0060 C   0  0  0  0  0  3  0  0  0  0  0  0
  -23.5820   -8.3370   22.1740 C   0  0  0  0  0  3  0  0  0  0  0  0
  -22.4190   -8.0950   21.4050 C   0  0  0  0  0  0  0  0  0  0  0  0
  -22.0120   -9.0510   20.4580 C   0  0  0  0  0  3  0  0  0  0  0  0
  -22.7350  -10.2420   20.2880 C   0  0  0  0  0  3  0  0  0  0  0  0
  -21.6690   -6.9460   21.4830 O   0  0  0  0  0  0  0  0  0  0  0  0
  -21.5900   -6.2160   22.6420 C   0  0  0  0  0  0  0  0  0  0  0  0
  -21.0880   -6.7700   23.8390 C   0  0  0  0  0  3  0  0  0  0  0  0
  -20.9580   -5.9640   24.9890 C   0  0  0  0  0  3  0  0  0  0  0  0
  -21.3200   -4.6050   24.9400 C   0  0  0  0  0  0  0  0  0  0  0  0
  -21.8150   -4.0500   23.7470 C   0  0  0  0  0  3  0  0  0  0  0  0
  -21.9460   -4.8530   22.6000 C   0  0  0  0  0  0  0  0  0  0  0  0
  -22.4030   -4.3070   21.4470 F   0  0  0  0  0  0  0  0  0  0  0  0
  -21.1890   -3.8280   26.0410 F   0  0  0  0  0  0  0  0  0  0  0  0
  -22.7340  -13.5900   21.2370 C   0  0  0  0  0  0  0  0  0  0  0  0
  -22.0190  -12.8840   22.1050 N   0  0  0  0  0  0  0  0  0  0  0  0
  -22.2870  -14.6190   20.7330 O   0  0  0  0  0  0  0  0  0  0  0  0
  -22.3940  -12.0510   22.5360 H   0  0  0  0  0  0  0  0  0  0  0  0
  -21.0830  -13.1790   22.3440 H   0  0  0  0  0  0  0  0  0  0  0  0
  -25.3410  -15.2800   20.4120 N   0  0  0  0  0  0  0  0  0  0  0  0
  -24.5670  -15.9250   20.5350 H   0  0  0  0  0  0  0  0  0  0  0  0
  -26.1700  -15.7260   20.0430 H   0  0  0  0  0  0  0  0  0  0  0  0
  2  3  1  0
  2  1  2  0
  4 15  2  0
  5  3  1  0
  5 10  1  0
  6 14  1  0
  6 16  1  0
  7 13  1  0
  7  9  1  0
  8 14  1  0
  9  8  1  0
 10  9  2  0
 11  5  2  0
 12 11  1  0
 12  7  2  0
 13  6  1  0
 14  4  1  0
 16 18  2  0
 17 16  1  0
 19 17  1  0
 20 29  2  0
 20 25  1  0
 21 17  1  0
 21 25  1  0
 22 21  1  0
 23 24  1  0
 23 22  1  0
 24 20  1  0
 25 26  2  0
 26 27  1  0
 28 27  2  0
 29 28  1  0
 30  4  1  0
 30 31  1  0
 30 40  1  0
 31 34  1  0
 32 36  1  0
 32 31  1  0
 33 32  2  0
 36 35  1  0
 38 39  1  0
 38 36  1  0
 38 37  1  0
 40 43  1  1
 40 41  1  0
 42 40  1  0
 44  1  1  0
 44 45  1  0
 46 45  2  0
 46 47  1  0
 47 56  1  0
 48 56  1  0
 49 54  1  0
 50 51  1  0
 50 49  1  0
 52 51  1  0
 52 61  1  0
 52 53  1  0
 54 48  1  0
 54 53  1  0
 55 48  2  0
 56 57  1  0
 58 59  2  0
 59 78  1  0
 60 59  1  0
 60 63  1  0
 61 62  1  0
 61 58  1  0
 62 60  2  0
 63 64  1  0
 64 65  2  0
 66 69  1  0
 66 65  1  0
 67 66  2  0
 68 67  1  0
 68 63  2  0
 69 70  1  0
 70 71  1  0
 71 72  2  0
 73 72  1  0
 73 77  1  0
 74 73  2  0
 75 70  2  0
 75 74  1  0
 76 75  1  0
 78 79  1  0
 79 82  1  0
 79 81  1  0
 80 78  2  0
 83 84  1  0
 83 58  1  0
 85 83  1  0
M  ISO  4   2 101   3 101  48 100  56 100
M  END
>  <TORSDO>  (19) 
F 21

>  <SCORE>  (19) 
-13.169

>  <name>  (19) 
18

>  <ligand_id>  (19) 
18

>  <original_smiles>  (19) 
[H]c1c([H])c([H])c2c(c1[H])C([H])([H])C([H])([H])C([H])([H])C2([H])N([H])C(=O)C1([H])N(C(=O)C([H])(N([H])C(=O)C([H])(N([H])C([H])([H])[H])C([H])([H])[H])C(C([H])([H])[H])(C([H])([H])[H])C([H])([H])[H])C([H])([H])c2c([H])c(OC([H])([H])C([H])([H])OC([H])([H])C([H])([H])C([H])([H])N([H])C(=O)N3C([H])([H])C([H])([H])C([H])([H])C([H])(n4nc(-c5c([H])c([H])c(Oc6c([H])c([H])c(F)c([H])c6F)c([H])c5[H])c(C(=O)N([H])[H])c4N([H])[H])C3([H])[H])c([H])c([H])c2C1([H])[H]

>  <smiles>  (19) 
[H]c1c([H])c([H])c2c(c1[H])C([H])([H])C([H])([H])C([H])([H])C2([H])N([H])C(=O)C1([H])N(C(=O)C([H])(N([H])C(=O)C([H])(N([H])C([H])([H])[H])C([H])([H])[H])C(C([H])([H])[H])(C([H])([H])[H])C([H])([H])[H])C([H])([H])c2c([H])c(OC([H])([H])C([H])([H])OC([H])([H])C([H])([H])C([H])([H])N([H])C(=O)N3C([H])([H])C([H])([H])C([H])([H])C([H])(n4nc(-c5c([H])c([H])c(Oc6c([H])c([H])c(F)c([H])c6F)c([H])c5[H])c(C(=O)N([H])[H])c4N([H])[H])C3([H])[H])c([H])c([H])c2C1([H])[H]

$$$$
19:0:0
     RDKit          3D

 88 95  0  0  1  0  0  0  0  0999 V2000
  -30.5360  -22.4340   20.8370 C   0  0  0  0  0  2  0  0  0  0  0  0
  -30.7560  -21.1380   20.0300 C   0  0  0  0  0  2  0  0  0  0  0  0
  -30.0460  -20.0080   20.5440 O   0  0  0  0  0  0  0  0  0  0  0  0
  -30.0950  -18.9170   19.6260 C   0  0  0  0  0  2  0  0  0  0  0  0
  -29.4910  -17.6060   20.1730 C   0  0  0  0  0  2  0  0  0  0  0  0
  -30.3670  -16.8330   21.1870 C   0  0  0  0  0  2  0  0  0  0  0  0
  -30.6640  -14.4330   20.5430 C   0  0  0  0  0  0  0  0  0  0  0  0
  -30.3310  -12.3090   19.3390 C   0  0  0  0  0  2  0  0  0  0  0  0
  -29.3820  -12.5460   18.1470 C   0  0  0  0  0  2  0  0  0  0  0  0
  -27.9090  -12.4200   18.5820 C   0  0  0  0  0  2  0  0  0  0  0  0
  -27.5910  -13.2410   19.8600 C   0  0  0  0  0  3  0  0  0  0  0  0
  -28.6470  -12.9760   20.9580 C   0  0  0  0  0  2  0  0  0  0  0  0
  -29.9770  -13.2690   20.3970 N   0  0  0  0  0  0  0  0  0  0  0  0
  -31.7530  -14.6440   20.0010 O   0  0  0  0  0  0  0  0  0  0  0  0
  -30.0160  -15.4050   21.2070 N   0  0  0  0  0  0  0  0  0  0  0  0
  -29.1390  -15.1490   21.6360 H   0  0  0  0  0  0  0  0  0  0  0  0
  -25.1960  -13.8710   20.5660 C   0  0  0  0  0  0  0  0  0  0  0  0
  -24.1220  -13.1070   20.9370 C   0  0  0  0  0  0  0  0  0  0  0  0
  -24.5720  -11.7510   20.9060 C   0  0  0  0  0  0  0  0  0  0  0  0
  -26.2350  -12.9810   20.3380 N   0  0  0  0  0  0  0  0  0  0  0  0
  -25.8610  -11.7020   20.5960 N   0  0  0  0  0  0  0  0  0  0  0  0
  -23.8360  -10.4960   21.0990 C   0  0  0  0  0  0  0  0  0  0  0  0
  -24.2860   -9.5120   22.0070 C   0  0  0  0  0  3  0  0  0  0  0  0
  -23.5540   -8.3190   22.1880 C   0  0  0  0  0  3  0  0  0  0  0  0
  -22.3580   -8.1030   21.4620 C   0  0  0  0  0  0  0  0  0  0  0  0
  -21.9280   -9.0750   20.5440 C   0  0  0  0  0  3  0  0  0  0  0  0
  -22.6590  -10.2600   20.3610 C   0  0  0  0  0  3  0  0  0  0  0  0
  -21.5940   -6.9650   21.5560 O   0  0  0  0  0  0  0  0  0  0  0  0
  -21.5920   -6.1890   22.6880 C   0  0  0  0  0  0  0  0  0  0  0  0
  -21.2570   -6.7180   23.9530 C   0  0  0  0  0  3  0  0  0  0  0  0
  -21.2000   -5.8700   25.0780 C   0  0  0  0  0  3  0  0  0  0  0  0
  -21.4670   -4.4960   24.9390 C   0  0  0  0  0  0  0  0  0  0  0  0
  -21.7940   -3.9660   23.6780 C   0  0  0  0  0  3  0  0  0  0  0  0
  -21.8540   -4.8100   22.5560 C   0  0  0  0  0  0  0  0  0  0  0  0
  -22.1490   -4.2910   21.3400 F   0  0  0  0  0  0  0  0  0  0  0  0
  -21.4030   -3.6800   26.0170 F   0  0  0  0  0  0  0  0  0  0  0  0
  -22.7290  -13.5950   21.2130 C   0  0  0  0  0  0  0  0  0  0  0  0
  -22.0000  -12.9070   22.0850 N   0  0  0  0  0  0  0  0  0  0  0  0
  -22.2960  -14.6210   20.6910 O   0  0  0  0  0  0  0  0  0  0  0  0
  -22.3640  -12.0790   22.5310 H   0  0  0  0  0  0  0  0  0  0  0  0
  -21.0640  -13.2150   22.3100 H   0  0  0  0  0  0  0  0  0  0  0  0
  -25.3730  -15.2390   20.3870 N   0  0  0  0  0  0  0  0  0  0  0  0
  -24.6120  -15.9010   20.4980 H   0  0  0  0  0  0  0  0  0  0  0  0
  -26.2300  -15.6710   20.0650 H   0  0  0  0  0  0  0  0  0  0  0  0
  -29.4510  -23.1800   20.2830 O   0  0  0  0  0  0  0  0  0  0  0  0
  -29.5270  -24.5820   20.5500 C   0  0  0  0  0  2  0  0  0  0  0  0
  -28.2780  -25.2910   19.9950 C   0  0  0  0  0  2  0  0  0  0  0  0
  -28.3690  -26.7110   20.1540 O   0  0  0  0  0  0  0  0  0  0  0  0
  -24.5800  -31.8770   23.2220 C   0  0  0  0  0  0  0  0  0  0  0  0
  -27.1870  -27.4270   20.1300 C   0  0  0  0  0  0  0  0  0  0  0  0
  -23.3530  -30.4720   21.5980 C   0  0  0  0  0  3  0  0  0  0  0  0
  -24.7890  -28.9330   20.1600 C   0  0  0  0  0  0  0  0  0  0  0  0
  -25.8780  -30.8290   21.3710 C   0  0  0  0  0  2  0  0  0  0  0  0
  -25.9540  -29.4570   20.7330 C   0  0  0  0  0  0  0  0  0  0  0  0
  -27.1540  -28.7130   20.7140 C   0  0  0  0  0  3  0  0  0  0  0  0
  -26.0040  -26.9180   19.5450 C   0  0  0  0  0  3  0  0  0  0  0  0
  -24.8090  -27.6610   19.5640 C   0  0  0  0  0  3  0  0  0  0  0  0
  -23.5460  -29.7910   20.2180 C   0  0  0  0  0  2  0  0  0  0  0  0
  -24.6220  -31.0740   22.1220 N   0  0  0  0  0  0  0  0  0  0  0  0
  -23.5050  -32.1510   23.7730 O   0  0  0  0  0  0  0  0  0  0  0  0
  -22.7140  -29.4520   22.5680 C   0  0  0  0  0  0  0  0  0  0  0  0
  -21.3880  -29.2690   22.4550 N   0  0  0  0  0  0  0  0  0  0  0  0
  -23.4060  -28.8290   23.3760 O   0  0  0  0  0  0  0  0  0  0  0  0
  -20.8910  -29.8250   21.7720 H   0  0  0  0  0  0  0  0  0  0  0  0
  -18.0190  -28.0700   22.9750 C   0  0  0  0  0  0  0  0  0  0  0  0
  -20.5770  -28.3350   23.2350 C   0  0  0  0  0  3  0  0  0  0  0  0
  -20.6820  -26.9000   22.6700 C   0  0  0  0  0  2  0  0  0  0  0  0
  -19.5780  -26.5670   21.6620 C   0  0  0  0  0  2  0  0  0  0  0  0
  -18.1970  -26.7150   22.3110 C   0  0  0  0  0  2  0  0  0  0  0  0
  -19.1380  -28.8380   23.3950 C   0  0  0  0  0  0  0  0  0  0  0  0
  -18.9210  -30.1060   23.9740 C   0  0  0  0  0  3  0  0  0  0  0  0
  -17.6160  -30.6080   24.1410 C   0  0  0  0  0  3  0  0  0  0  0  0
  -16.5110  -29.8380   23.7400 C   0  0  0  0  0  3  0  0  0  0  0  0
  -16.7130  -28.5710   23.1620 C   0  0  0  0  0  3  0  0  0  0  0  0
  -25.8730  -32.5100   23.8250 C   0  0  0  0  0  3  0  0  0  0  0  0
  -26.4160  -31.7300   25.0850 C   0  0  1  0  0  0  0  0  0  0  0  0
  -25.3460  -31.4820   26.1730 C   0  0  0  0  0  1  0  0  0  0  0  0
  -26.9950  -30.3580   24.6690 C   0  0  0  0  0  1  0  0  0  0  0  0
  -27.5760  -32.5240   25.7310 C   0  0  0  0  0  1  0  0  0  0  0  0
  -25.5650  -33.9030   24.1680 N   0  0  0  0  0  0  0  0  0  0  0  0
  -25.8810  -34.9600   23.4090 C   0  0  0  0  0  0  0  0  0  0  0  0
  -26.5340  -34.8640   22.3660 O   0  0  0  0  0  0  0  0  0  0  0  0
  -24.9850  -34.0520   24.9810 H   0  0  0  0  0  0  0  0  0  0  0  0
  -24.1340  -36.7440   23.0980 C   0  0  0  0  0  1  0  0  0  0  0  0
  -25.3950  -36.3440   23.8820 C   0  0  0  0  0  3  0  0  0  0  0  0
  -27.5430  -37.2340   24.6680 C   0  0  0  0  0  1  0  0  0  0  0  0
  -26.4180  -37.4040   23.7530 N   0  0  0  0  0  0  0  0  0  0  0  0
  -26.0100  -38.3200   23.9190 H   0  0  0  0  0  0  0  0  0  0  0  0
  2  3  1  0
  2  1  1  0
  4  5  1  0
  4  3  1  0
  5  6  1  0
  6 15  1  0
  7 15  1  0
  8 13  1  0
  9 10  1  0
  9  8  1  0
 11 10  1  0
 11 20  1  0
 11 12  1  0
 13  7  1  0
 13 12  1  0
 14  7  2  0
 15 16  1  0
 17 18  2  0
 18 37  1  0
 19 18  1  0
 19 22  1  0
 20 17  1  0
 20 21  1  0
 21 19  2  0
 22 23  1  0
 23 24  2  0
 25 28  1  0
 25 24  1  0
 26 25  2  0
 27 26  1  0
 27 22  2  0
 28 29  1  0
 29 30  1  0
 30 31  2  0
 32 31  1  0
 32 36  1  0
 33 32  2  0
 34 29  2  0
 34 33  1  0
 35 34  1  0
 37 38  1  0
 38 41  1  0
 38 40  1  0
 39 37  2  0
 42 43  1  0
 42 17  1  0
 44 42  1  0
 45 46  1  0
 45  1  1  0
 47 48  1  0
 47 46  1  0
 49 60  2  0
 50 48  1  0
 50 55  1  0
 51 59  1  0
 51 61  1  0
 52 58  1  0
 52 54  1  0
 53 59  1  0
 54 53  1  0
 55 54  2  0
 56 57  1  0
 56 50  2  0
 57 52  2  0
 58 51  1  0
 59 49  1  0
 61 63  2  0
 62 61  1  0
 64 62  1  0
 65 74  2  0
 65 70  1  0
 66 62  1  0
 66 70  1  0
 67 66  1  0
 68 69  1  0
 68 67  1  0
 69 65  1  0
 70 71  2  0
 71 72  1  0
 73 72  2  0
 74 73  1  0
 75 49  1  0
 75 80  1  0
 75 76  1  0
 76 79  1  1
 76 77  1  0
 78 76  1  0
 80 83  1  0
 81 85  1  0
 81 80  1  0
 82 81  2  0
 85 84  1  0
 87 85  1  0
 87 88  1  0
 87 86  1  0
M  ISO  4   7 100  15 100  47 101  48 101
M  END
>  <TORSDO>  (20) 
F 24

>  <SCORE>  (20) 
-12.331

>  <name>  (20) 
19

>  <ligand_id>  (20) 
19

>  <original_smiles>  (20) 
[H]c1c([H])c([H])c2c(c1[H])C([H])([H])C([H])([H])C([H])([H])C2([H])N([H])C(=O)C1([H])N(C(=O)C([H])(N([H])C(=O)C([H])(N([H])C([H])([H])[H])C([H])([H])[H])C(C([H])([H])[H])(C([H])([H])[H])C([H])([H])[H])C([H])([H])c2c([H])c(OC([H])([H])C([H])([H])OC([H])([H])C([H])([H])OC([H])([H])C([H])([H])C([H])([H])N([H])C(=O)N3C([H])([H])C([H])([H])C([H])([H])C([H])(n4nc(-c5c([H])c([H])c(Oc6c([H])c([H])c(F)c([H])c6F)c([H])c5[H])c(C(=O)N([H])[H])c4N([H])[H])C3([H])[H])c([H])c([H])c2C1([H])[H]

>  <smiles>  (20) 
[H]c1c([H])c([H])c2c(c1[H])C([H])([H])C([H])([H])C([H])([H])C2([H])N([H])C(=O)C1([H])N(C(=O)C([H])(N([H])C(=O)C([H])(N([H])C([H])([H])[H])C([H])([H])[H])C(C([H])([H])[H])(C([H])([H])[H])C([H])([H])[H])C([H])([H])c2c([H])c(OC([H])([H])C([H])([H])OC([H])([H])C([H])([H])OC([H])([H])C([H])([H])C([H])([H])N([H])C(=O)N3C([H])([H])C([H])([H])C([H])([H])C([H])(n4nc(-c5c([H])c([H])c(Oc6c([H])c([H])c(F)c([H])c6F)c([H])c5[H])c(C(=O)N([H])[H])c4N([H])[H])C3([H])[H])c([H])c([H])c2C1([H])[H]

$$$$
20:0:0
     RDKit          3D

 85 92  0  0  1  0  0  0  0  0999 V2000
  -28.9650  -23.3830   20.3610 C   0  0  0  0  0  3  0  0  0  0  0  0
  -27.9430  -24.7050   20.1010 C   0  0  0  0  0  3  0  0  0  0  0  0
  -28.2270  -26.2300   20.2780 O   0  0  0  0  0  0  0  0  0  0  0  0
  -24.6030  -31.9250   23.2450 C   0  0  0  0  0  0  0  0  0  0  0  0
  -27.1750  -27.2150   20.2080 C   0  0  0  0  0  0  0  0  0  0  0  0
  -23.4040  -30.5400   21.5970 C   0  0  0  0  0  3  0  0  0  0  0  0
  -24.8520  -28.9660   20.1720 C   0  0  0  0  0  0  0  0  0  0  0  0
  -25.9590  -30.7980   21.4430 C   0  0  0  0  0  2  0  0  0  0  0  0
  -26.0310  -29.4070   20.7860 C   0  0  0  0  0  0  0  0  0  0  0  0
  -27.1930  -28.5480   20.7860 C   0  0  0  0  0  3  0  0  0  0  0  0
  -25.9670  -26.8750   19.5570 C   0  0  0  0  0  3  0  0  0  0  0  0
  -24.8330  -27.7140   19.5420 C   0  0  0  0  0  3  0  0  0  0  0  0
  -23.6270  -29.8680   20.2160 C   0  0  0  0  0  2  0  0  0  0  0  0
  -24.6760  -31.1090   22.1500 N   0  0  0  0  0  0  0  0  0  0  0  0
  -23.5160  -32.2120   23.7690 O   0  0  0  0  0  0  0  0  0  0  0  0
  -22.7180  -29.5320   22.5530 C   0  0  0  0  0  0  0  0  0  0  0  0
  -21.3900  -29.3670   22.4200 N   0  0  0  0  0  0  0  0  0  0  0  0
  -23.3830  -28.9000   23.3780 O   0  0  0  0  0  0  0  0  0  0  0  0
  -20.9090  -29.9270   21.7290 H   0  0  0  0  0  0  0  0  0  0  0  0
  -17.9980  -28.1960   22.9200 C   0  0  0  0  0  0  0  0  0  0  0  0
  -20.5600  -28.4310   23.1840 C   0  0  0  0  0  3  0  0  0  0  0  0
  -20.6460  -27.0020   22.5980 C   0  0  0  0  0  2  0  0  0  0  0  0
  -19.5390  -26.6990   21.5830 C   0  0  0  0  0  2  0  0  0  0  0  0
  -18.1610  -26.8510   22.2310 C   0  0  0  0  0  2  0  0  0  0  0  0
  -19.1240  -28.9450   23.3530 C   0  0  0  0  0  0  0  0  0  0  0  0
  -18.9180  -30.2030   23.9580 C   0  0  0  0  0  3  0  0  0  0  0  0
  -17.6170  -30.7130   24.1340 C   0  0  0  0  0  3  0  0  0  0  0  0
  -16.5060  -29.9610   23.7160 C   0  0  0  0  0  3  0  0  0  0  0  0
  -16.6970  -28.7040   23.1150 C   0  0  0  0  0  3  0  0  0  0  0  0
  -25.8810  -32.5530   23.8790 C   0  0  0  0  0  3  0  0  0  0  0  0
  -25.5770  -33.9560   24.2040 N   0  0  0  0  0  0  0  0  0  0  0  0
  -25.8850  -35.0050   23.4290 C   0  0  0  0  0  0  0  0  0  0  0  0
  -26.5240  -34.8940   22.3800 O   0  0  0  0  0  0  0  0  0  0  0  0
  -25.0050  -34.1160   25.0210 H   0  0  0  0  0  0  0  0  0  0  0  0
  -24.1320  -36.7880   23.1360 C   0  0  0  0  0  1  0  0  0  0  0  0
  -25.4130  -36.3980   23.8920 C   0  0  0  0  0  3  0  0  0  0  0  0
  -27.5760  -37.3120   24.6140 C   0  0  0  0  0  1  0  0  0  0  0  0
  -26.4340  -37.4540   23.7140 N   0  0  0  0  0  0  0  0  0  0  0  0
  -26.0270  -38.3750   23.8600 H   0  0  0  0  0  0  0  0  0  0  0  0
  -26.3750  -31.7860   25.1680 C   0  0  1  0  0  0  0  0  0  0  0  0
  -25.2660  -31.5630   26.2230 C   0  0  0  0  0  1  0  0  0  0  0  0
  -26.9540  -30.4020   24.7960 C   0  0  0  0  0  1  0  0  0  0  0  0
  -27.5210  -32.5780   25.8400 C   0  0  0  0  0  1  0  0  0  0  0  0
  -28.5550  -21.8910   20.2640 O   0  0  0  0  0  0  0  0  0  0  0  0
  -29.5070  -20.6800   20.4130 C   0  0  0  0  0  3  0  0  0  0  0  0
  -29.0720  -19.0440   20.4020 C   0  0  0  0  0  3  0  0  0  0  0  0
  -30.1350  -17.7310   20.4670 C   0  0  0  0  0  2  0  0  0  0  0  0
  -30.4990  -15.0100   20.3410 C   0  0  0  0  0  0  0  0  0  0  0  0
  -30.3560  -12.6770   19.3680 C   0  0  0  0  0  2  0  0  0  0  0  0
  -29.4070  -12.6560   18.1480 C   0  0  0  0  0  2  0  0  0  0  0  0
  -27.9500  -12.4400   18.5970 C   0  0  0  0  0  2  0  0  0  0  0  0
  -27.5590  -13.3470   19.7940 C   0  0  0  0  0  3  0  0  0  0  0  0
  -28.6300  -13.3430   20.9060 C   0  0  0  0  0  2  0  0  0  0  0  0
  -29.8930  -13.7580   20.2830 N   0  0  0  0  0  0  0  0  0  0  0  0
  -31.6980  -15.0740   20.0500 O   0  0  0  0  0  0  0  0  0  0  0  0
  -29.7370  -16.1990   20.5160 N   0  0  0  0  0  0  0  0  0  0  0  0
  -28.7600  -16.0250   20.6980 H   0  0  0  0  0  0  0  0  0  0  0  0
  -25.1860  -13.9060   20.5730 C   0  0  0  0  0  0  0  0  0  0  0  0
  -24.1300  -13.1220   20.9460 C   0  0  0  0  0  0  0  0  0  0  0  0
  -24.5980  -11.7740   20.8900 C   0  0  0  0  0  0  0  0  0  0  0  0
  -26.2300  -13.0360   20.3070 N   0  0  0  0  0  0  0  0  0  0  0  0
  -25.8860  -11.7470   20.5630 N   0  0  0  0  0  0  0  0  0  0  0  0
  -23.8780  -10.5050   21.0690 C   0  0  0  0  0  0  0  0  0  0  0  0
  -24.3050   -9.5390   22.0060 C   0  0  0  0  0  3  0  0  0  0  0  0
  -23.5820   -8.3370   22.1740 C   0  0  0  0  0  3  0  0  0  0  0  0
  -22.4190   -8.0950   21.4050 C   0  0  0  0  0  0  0  0  0  0  0  0
  -22.0120   -9.0510   20.4580 C   0  0  0  0  0  3  0  0  0  0  0  0
  -22.7350  -10.2420   20.2880 C   0  0  0  0  0  3  0  0  0  0  0  0
  -21.6690   -6.9460   21.4830 O   0  0  0  0  0  0  0  0  0  0  0  0
  -21.5900   -6.2160   22.6420 C   0  0  0  0  0  0  0  0  0  0  0  0
  -21.0880   -6.7700   23.8390 C   0  0  0  0  0  3  0  0  0  0  0  0
  -20.9580   -5.9640   24.9890 C   0  0  0  0  0  3  0  0  0  0  0  0
  -21.3200   -4.6050   24.9400 C   0  0  0  0  0  0  0  0  0  0  0  0
  -21.8150   -4.0500   23.7470 C   0  0  0  0  0  3  0  0  0  0  0  0
  -21.9460   -4.8530   22.6000 C   0  0  0  0  0  0  0  0  0  0  0  0
  -22.4030   -4.3070   21.4470 F   0  0  0  0  0  0  0  0  0  0  0  0
  -21.1890   -3.8280   26.0410 F   0  0  0  0  0  0  0  0  0  0  0  0
  -22.7340  -13.5900   21.2370 C   0  0  0  0  0  0  0  0  0  0  0  0
  -22.0190  -12.8840   22.1050 N   0  0  0  0  0  0  0  0  0  0  0  0
  -22.2870  -14.6190   20.7330 O   0  0  0  0  0  0  0  0  0  0  0  0
  -22.3940  -12.0510   22.5360 H   0  0  0  0  0  0  0  0  0  0  0  0
  -21.0830  -13.1790   22.3440 H   0  0  0  0  0  0  0  0  0  0  0  0
  -25.3410  -15.2800   20.4120 N   0  0  0  0  0  0  0  0  0  0  0  0
  -24.5670  -15.9250   20.5350 H   0  0  0  0  0  0  0  0  0  0  0  0
  -26.1700  -15.7260   20.0430 H   0  0  0  0  0  0  0  0  0  0  0  0
  2  3  1  0
  2  1  2  0
  4 15  2  0
  5  3  1  0
  5 10  1  0
  6 14  1  0
  6 16  1  0
  7 13  1  0
  7  9  1  0
  8 14  1  0
  9  8  1  0
 10  9  2  0
 11  5  2  0
 12 11  1  0
 12  7  2  0
 13  6  1  0
 14  4  1  0
 16 18  2  0
 17 16  1  0
 19 17  1  0
 20 29  2  0
 20 25  1  0
 21 17  1  0
 21 25  1  0
 22 21  1  0
 23 24  1  0
 23 22  1  0
 24 20  1  0
 25 26  2  0
 26 27  1  0
 28 27  2  0
 29 28  1  0
 30  4  1  0
 30 31  1  0
 30 40  1  0
 31 34  1  0
 32 36  1  0
 32 31  1  0
 33 32  2  0
 36 35  1  0
 38 39  1  0
 38 36  1  0
 38 37  1  0
 40 43  1  1
 40 41  1  0
 42 40  1  0
 44  1  1  0
 44 45  1  0
 46 45  2  0
 46 47  1  0
 47 56  1  0
 48 56  1  0
 49 54  1  0
 50 51  1  0
 50 49  1  0
 52 51  1  0
 52 61  1  0
 52 53  1  0
 54 48  1  0
 54 53  1  0
 55 48  2  0
 56 57  1  0
 58 59  2  0
 59 78  1  0
 60 59  1  0
 60 63  1  0
 61 62  1  0
 61 58  1  0
 62 60  2  0
 63 64  1  0
 64 65  2  0
 66 69  1  0
 66 65  1  0
 67 66  2  0
 68 67  1  0
 68 63  2  0
 69 70  1  0
 70 71  1  0
 71 72  2  0
 73 72  1  0
 73 77  1  0
 74 73  2  0
 75 70  2  0
 75 74  1  0
 76 75  1  0
 78 79  1  0
 79 82  1  0
 79 81  1  0
 80 78  2  0
 83 84  1  0
 83 58  1  0
 85 83  1  0
M  ISO  4   2 101   3 101  48 100  56 100
M  END
>  <TORSDO>  (21) 
F 21

>  <SCORE>  (21) 
-13.169

>  <name>  (21) 
20

>  <ligand_id>  (21) 
20

>  <original_smiles>  (21) 
[H]c1c([H])c([H])c2c(c1[H])C([H])([H])C([H])([H])C([H])([H])C2([H])N([H])C(=O)C1([H])N(C(=O)C([H])(N([H])C(=O)C([H])(N([H])C([H])([H])[H])C([H])([H])[H])C(C([H])([H])[H])(C([H])([H])[H])C([H])([H])[H])C([H])([H])c2c([H])c(OC([H])([H])C([H])([H])OC([H])([H])C([H])([H])C([H])([H])N([H])C(=O)N3C([H])([H])C([H])([H])C([H])([H])C([H])(n4nc(-c5c([H])c([H])c(Oc6c([H])c([H])c(F)c([H])c6F)c([H])c5[H])c(C(=O)N([H])[H])c4N([H])[H])C3([H])[H])c([H])c([H])c2C1([H])[H]

>  <smiles>  (21) 
[H]c1c([H])c([H])c2c(c1[H])C([H])([H])C([H])([H])C([H])([H])C2([H])N([H])C(=O)C1([H])N(C(=O)C([H])(N([H])C(=O)C([H])(N([H])C([H])([H])[H])C([H])([H])[H])C(C([H])([H])[H])(C([H])([H])[H])C([H])([H])[H])C([H])([H])c2c([H])c(OC([H])([H])C([H])([H])OC([H])([H])C([H])([H])C([H])([H])N([H])C(=O)N3C([H])([H])C([H])([H])C([H])([H])C([H])(n4nc(-c5c([H])c([H])c(Oc6c([H])c([H])c(F)c([H])c6F)c([H])c5[H])c(C(=O)N([H])[H])c4N([H])[H])C3([H])[H])c([H])c([H])c2C1([H])[H]

$$$$
21:0:0
     RDKit          3D

 93101  0  0  1  0  0  0  0  0999 V2000
  -30.1050  -20.5360   19.9020 C   0  0  0  0  0  0  0  0  0  0  0  0
  -29.3310  -21.7010   19.6080 N   0  0  0  0  0  0  0  0  0  0  0  0
  -31.2350  -20.7300   20.3510 O   0  0  0  0  0  0  0  0  0  0  0  0
  -28.4190  -21.5120   19.2150 H   0  0  0  0  0  0  0  0  0  0  0  0
  -30.9710  -14.9000   20.4060 C   0  0  0  0  0  0  0  0  0  0  0  0
  -30.9100  -12.4890   19.5640 C   0  0  0  0  0  2  0  0  0  0  0  0
  -30.0380  -12.3450   18.2930 C   0  0  0  0  0  2  0  0  0  0  0  0
  -28.5400  -12.1820   18.6370 C   0  0  0  0  0  2  0  0  0  0  0  0
  -28.0810  -13.1460   19.7630 C   0  0  0  0  0  3  0  0  0  0  0  0
  -29.0880  -13.1320   20.9280 C   0  0  0  0  0  2  0  0  0  0  0  0
  -30.3650  -13.6260   20.3780 N   0  0  0  0  0  0  0  0  0  0  0  0
  -32.1770  -14.9090   20.1250 O   0  0  0  0  0  0  0  0  0  0  0  0
  -29.1910  -16.4740   21.3960 C   0  0  0  0  0  2  0  0  0  0  0  0
  -30.7180  -17.6210   20.0260 C   0  0  0  0  0  2  0  0  0  0  0  0
  -28.0470  -17.2340   20.7000 C   0  0  0  0  0  2  0  0  0  0  0  0
  -29.6530  -18.9280   19.7510 C   0  0  0  0  0  3  0  0  0  0  0  0
  -30.2560  -16.1630   20.4420 N   0  0  0  0  0  0  0  0  0  0  0  0
  -28.3270  -18.6770   20.4220 N   0  0  1  0  0  4  0  0  0  0  0  0
  -28.4580  -19.0920   21.3340 H   0  0  0  0  0  0  0  0  0  0  0  0
  -25.6700  -13.7790   20.3520 C   0  0  0  0  0  0  0  0  0  0  0  0
  -24.5800  -13.0400   20.7050 C   0  0  0  0  0  0  0  0  0  0  0  0
  -25.0200  -11.6820   20.7320 C   0  0  0  0  0  0  0  0  0  0  0  0
  -26.7130  -12.8810   20.1930 N   0  0  0  0  0  0  0  0  0  0  0  0
  -26.3240  -11.6130   20.4830 N   0  0  0  0  0  0  0  0  0  0  0  0
  -24.2560  -10.4430   20.9170 C   0  0  0  0  0  0  0  0  0  0  0  0
  -24.6690   -9.4540   21.8350 C   0  0  0  0  0  3  0  0  0  0  0  0
  -23.9070   -8.2800   22.0110 C   0  0  0  0  0  3  0  0  0  0  0  0
  -22.7170   -8.0880   21.2680 C   0  0  0  0  0  0  0  0  0  0  0  0
  -22.3230   -9.0660   20.3390 C   0  0  0  0  0  3  0  0  0  0  0  0
  -23.0870  -10.2310   20.1600 C   0  0  0  0  0  3  0  0  0  0  0  0
  -21.9270   -6.9680   21.3550 O   0  0  0  0  0  0  0  0  0  0  0  0
  -21.8470   -6.2320   22.5110 C   0  0  0  0  0  0  0  0  0  0  0  0
  -21.4210   -6.8020   23.7300 C   0  0  0  0  0  3  0  0  0  0  0  0
  -21.2860   -5.9940   24.8760 C   0  0  0  0  0  3  0  0  0  0  0  0
  -21.5660   -4.6170   24.8030 C   0  0  0  0  0  0  0  0  0  0  0  0
  -21.9870   -4.0460   23.5900 C   0  0  0  0  0  3  0  0  0  0  0  0
  -22.1240   -4.8520   22.4460 C   0  0  0  0  0  0  0  0  0  0  0  0
  -22.5080   -4.2930   21.2740 F   0  0  0  0  0  0  0  0  0  0  0  0
  -21.4270   -3.8400   25.9030 F   0  0  0  0  0  0  0  0  0  0  0  0
  -23.1830  -13.5590   20.8890 C   0  0  0  0  0  0  0  0  0  0  0  0
  -22.4100  -12.9380   21.7720 N   0  0  0  0  0  0  0  0  0  0  0  0
  -22.7900  -14.5550   20.2830 O   0  0  0  0  0  0  0  0  0  0  0  0
  -22.7410  -12.1350   22.2850 H   0  0  0  0  0  0  0  0  0  0  0  0
  -21.4710  -13.2730   21.9380 H   0  0  0  0  0  0  0  0  0  0  0  0
  -25.8410  -15.1350   20.1120 N   0  0  0  0  0  0  0  0  0  0  0  0
  -24.9810  -15.6700   20.0500 H   0  0  0  0  0  0  0  0  0  0  0  0
  -26.4840  -15.3760   19.3720 H   0  0  0  0  0  0  0  0  0  0  0  0
  -25.8070  -18.6280   20.0030 C   0  0  0  0  0  1  0  0  0  0  0  0
  -27.3070  -19.8300   18.3590 C   0  0  0  0  0  1  0  0  0  0  0  0
  -27.1340  -19.3950   19.8340 C   0  0  0  0  0  3  0  0  0  0  0  0
  -29.6280  -23.2550   19.7480 C   0  0  0  0  0  3  0  0  0  0  0  0
  -28.5150  -24.5030   19.4830 C   0  0  0  0  0  3  0  0  0  0  0  0
  -28.7400  -26.0410   19.6390 O   0  0  0  0  0  0  0  0  0  0  0  0
  -25.0140  -31.4520   23.0010 C   0  0  0  0  0  0  0  0  0  0  0  0
  -27.6570  -27.0000   19.6430 C   0  0  0  0  0  0  0  0  0  0  0  0
  -23.8310  -30.1600   21.2670 C   0  0  0  0  0  3  0  0  0  0  0  0
  -25.2990  -28.7080   19.7360 C   0  0  0  0  0  0  0  0  0  0  0  0
  -26.3810  -30.4700   21.1220 C   0  0  0  0  0  2  0  0  0  0  0  0
  -26.4740  -29.1290   20.3710 C   0  0  0  0  0  0  0  0  0  0  0  0
  -27.6520  -28.2930   20.3070 C   0  0  0  0  0  3  0  0  0  0  0  0
  -26.4500  -26.6770   18.9840 C   0  0  0  0  0  3  0  0  0  0  0  0
  -25.3000  -27.4950   19.0300 C   0  0  0  0  0  3  0  0  0  0  0  0
  -24.0580  -29.5830   19.8440 C   0  0  0  0  0  2  0  0  0  0  0  0
  -25.0950  -30.7110   21.8530 N   0  0  0  0  0  0  0  0  0  0  0  0
  -23.9260  -31.6870   23.5460 O   0  0  0  0  0  0  0  0  0  0  0  0
  -23.1640  -29.0810   22.1560 C   0  0  0  0  0  0  0  0  0  0  0  0
  -21.8280  -28.9530   22.0690 N   0  0  0  0  0  0  0  0  0  0  0  0
  -23.8510  -28.3620   22.8860 O   0  0  0  0  0  0  0  0  0  0  0  0
  -21.3300  -29.5840   21.4560 H   0  0  0  0  0  0  0  0  0  0  0  0
  -18.4360  -27.8110   22.6160 C   0  0  0  0  0  0  0  0  0  0  0  0
  -21.0120  -27.9660   22.7800 C   0  0  0  0  0  3  0  0  0  0  0  0
  -21.0360  -26.5990   22.0560 C   0  0  0  0  0  2  0  0  0  0  0  0
  -19.8770  -26.4170   21.0710 C   0  0  0  0  0  2  0  0  0  0  0  0
  -18.5330  -26.5360   21.7950 C   0  0  0  0  0  2  0  0  0  0  0  0
  -19.5980  -28.4900   23.0650 C   0  0  0  0  0  0  0  0  0  0  0  0
  -19.4500  -29.6890   23.7970 C   0  0  0  0  0  3  0  0  0  0  0  0
  -18.1730  -30.2070   24.0810 C   0  0  0  0  0  3  0  0  0  0  0  0
  -17.0250  -29.5200   23.6470 C   0  0  0  0  0  3  0  0  0  0  0  0
  -17.1570  -28.3240   22.9210 C   0  0  0  0  0  3  0  0  0  0  0  0
  -26.2860  -32.0560   23.6710 C   0  0  0  0  0  3  0  0  0  0  0  0
  -26.8330  -31.1800   24.8650 C   0  0  1  0  0  0  0  0  0  0  0  0
  -25.7560  -30.8250   25.9180 C   0  0  0  0  0  1  0  0  0  0  0  0
  -27.4390  -29.8560   24.3450 C   0  0  0  0  0  1  0  0  0  0  0  0
  -27.9760  -31.9310   25.5870 C   0  0  0  0  0  1  0  0  0  0  0  0
  -25.9450  -33.4060   24.1440 N   0  0  0  0  0  0  0  0  0  0  0  0
  -26.3130  -34.5440   23.5400 C   0  0  0  0  0  0  0  0  0  0  0  0
  -27.0410  -34.5650   22.5450 O   0  0  0  0  0  0  0  0  0  0  0  0
  -25.3030  -33.4630   24.9210 H   0  0  0  0  0  0  0  0  0  0  0  0
  -24.6130  -36.3820   23.2940 C   0  0  0  0  0  1  0  0  0  0  0  0
  -25.7920  -35.8670   24.1340 C   0  0  0  0  0  3  0  0  0  0  0  0
  -27.8540  -36.6300   25.2290 C   0  0  0  0  0  1  0  0  0  0  0  0
  -26.8280  -36.9190   24.2300 N   0  0  0  0  0  0  0  0  0  0  0  0
  -26.4100  -37.8170   24.4560 H   0  0  0  0  0  0  0  0  0  0  0  0
  1  3  2  0
  2 51  1  0
  2  1  1  0
  4  2  1  0
  5 17  1  0
  6 11  1  0
  7  8  1  0
  7  6  1  0
  9  8  1  0
  9 23  1  0
  9 10  1  0
 11  5  1  0
 11 10  1  0
 12  5  2  0
 14 17  1  0
 15 13  1  0
 16  1  1  0
 16 14  1  0
 16 18  1  0
 17 13  1  0
 18 15  1  0
 18 19  1  1
 20 21  2  0
 21 22  1  0
 21 40  1  0
 22 25  1  0
 23 20  1  0
 23 24  1  0
 24 22  2  0
 25 26  1  0
 26 27  2  0
 28 31  1  0
 28 27  1  0
 29 28  2  0
 30 29  1  0
 30 25  2  0
 31 32  1  0
 32 33  1  0
 33 34  2  0
 35 34  1  0
 35 39  1  0
 36 35  2  0
 37 32  2  0
 37 36  1  0
 38 37  1  0
 40 41  1  0
 41 44  1  0
 41 43  1  0
 42 40  2  0
 45 20  1  0
 46 45  1  0
 47 45  1  0
 49 50  1  0
 50 48  1  0
 50 18  1  0
 52 53  1  0
 52 51  2  0
 53 55  1  0
 54 65  2  0
 55 60  1  0
 56 64  1  0
 56 66  1  0
 57 63  1  0
 57 59  1  0
 58 64  1  0
 59 58  1  0
 60 59  2  0
 61 62  1  0
 61 55  2  0
 62 57  2  0
 63 56  1  0
 64 54  1  0
 66 68  2  0
 67 66  1  0
 69 67  1  0
 70 79  2  0
 70 75  1  0
 71 67  1  0
 71 75  1  0
 72 71  1  0
 73 74  1  0
 73 72  1  0
 74 70  1  0
 75 76  2  0
 76 77  1  0
 78 77  2  0
 79 78  1  0
 80 54  1  0
 80 85  1  0
 80 81  1  0
 81 84  1  1
 81 82  1  0
 83 81  1  0
 85 88  1  0
 86 90  1  0
 86 85  1  0
 87 86  2  0
 90 89  1  0
 90 92  1  0
 92 93  1  0
 92 91  1  0
M  ISO  4   5 100  17 100  52 101  53 101
M  END
>  <TORSDO>  (22) 
F 19

>  <SCORE>  (22) 
-11.500

>  <name>  (22) 
21

>  <ligand_id>  (22) 
21

>  <original_smiles>  (22) 
[H]c1c([H])c([H])c2c(c1[H])C([H])([H])C([H])([H])C([H])([H])C2([H])N([H])C(=O)C1([H])N(C(=O)C([H])(N([H])C(=O)C([H])(N([H])C([H])([H])[H])C([H])([H])[H])C(C([H])([H])[H])(C([H])([H])[H])C([H])([H])[H])C([H])([H])c2c([H])c(OC([H])([H])C([H])([H])N([H])C(=O)C3([H])C([H])([H])N(C(=O)N4C([H])([H])C([H])([H])C([H])([H])C([H])(n5nc(-c6c([H])c([H])c(Oc7c([H])c([H])c(F)c([H])c7F)c([H])c6[H])c(C(=O)N([H])[H])c5N([H])[H])C4([H])[H])C([H])([H])C([H])([H])[N+]3([H])C([H])(C([H])([H])[H])C([H])([H])[H])c([H])c([H])c2C1([H])[H]

>  <smiles>  (22) 
[H]c1c([H])c([H])c2c(c1[H])C([H])([H])C([H])([H])C([H])([H])C2([H])N([H])C(=O)C1([H])N(C(=O)C([H])(N([H])C(=O)C([H])(N([H])C([H])([H])[H])C([H])([H])[H])C(C([H])([H])[H])(C([H])([H])[H])C([H])([H])[H])C([H])([H])c2c([H])c(OC([H])([H])C([H])([H])N([H])C(=O)C3([H])C([H])([H])N(C(=O)N4C([H])([H])C([H])([H])C([H])([H])C([H])(n5nc(-c6c([H])c([H])c(Oc7c([H])c([H])c(F)c([H])c7F)c([H])c6[H])c(C(=O)N([H])[H])c5N([H])[H])C4([H])[H])C([H])([H])C([H])([H])[N+]3([H])C([H])(C([H])([H])[H])C([H])([H])[H])c([H])c([H])c2C1([H])[H]

$$$$
22:0:0
     RDKit          3D

 86 93  0  0  1  0  0  0  0  0999 V2000
  -28.8370  -22.7640   20.5210 C   0  0  0  0  0  3  0  0  0  0  0  0
  -29.3040  -19.8370   20.4720 C   0  0  0  0  0  0  0  0  0  0  0  0
  -29.1010  -21.2080   19.9240 N   0  0  0  0  0  0  0  0  0  0  0  0
  -29.0370  -19.7210   21.6680 O   0  0  0  0  0  0  0  0  0  0  0  0
  -29.2830  -21.2270   18.9280 H   0  0  0  0  0  0  0  0  0  0  0  0
  -29.9160  -18.3420   19.7690 C   0  0  0  0  0  2  0  0  0  0  0  0
  -30.5450  -15.4350   19.9120 C   0  0  0  0  0  0  0  0  0  0  0  0
  -30.4730  -13.0020   18.9930 C   0  0  0  0  0  2  0  0  0  0  0  0
  -29.4800  -12.8250   17.8150 C   0  0  0  0  0  2  0  0  0  0  0  0
  -28.0620  -12.5370   18.3380 C   0  0  0  0  0  2  0  0  0  0  0  0
  -27.6820  -13.4660   19.5160 C   0  0  0  0  0  3  0  0  0  0  0  0
  -28.7990  -13.5920   20.5770 C   0  0  0  0  0  2  0  0  0  0  0  0
  -29.9860  -14.1210   19.8860 N   0  0  0  0  0  0  0  0  0  0  0  0
  -31.7310  -15.4470   19.5520 O   0  0  0  0  0  0  0  0  0  0  0  0
  -29.7910  -16.7020   20.1270 N   0  0  0  0  0  0  0  0  0  0  0  0
  -28.8680  -16.4950   20.4780 H   0  0  0  0  0  0  0  0  0  0  0  0
  -25.3690  -13.9960   20.4450 C   0  0  0  0  0  0  0  0  0  0  0  0
  -24.3330  -13.2060   20.8550 C   0  0  0  0  0  0  0  0  0  0  0  0
  -24.7930  -11.8580   20.7430 C   0  0  0  0  0  0  0  0  0  0  0  0
  -26.3910  -13.1300   20.1000 N   0  0  0  0  0  0  0  0  0  0  0  0
  -26.0610  -11.8360   20.3460 N   0  0  0  0  0  0  0  0  0  0  0  0
  -24.0760  -10.5890   20.9320 C   0  0  0  0  0  0  0  0  0  0  0  0
  -24.5270   -9.6140   21.8480 C   0  0  0  0  0  3  0  0  0  0  0  0
  -23.8060   -8.4140   22.0280 C   0  0  0  0  0  3  0  0  0  0  0  0
  -22.6190   -8.1800   21.2940 C   0  0  0  0  0  0  0  0  0  0  0  0
  -22.1860   -9.1460   20.3670 C   0  0  0  0  0  3  0  0  0  0  0  0
  -22.9080  -10.3370   20.1840 C   0  0  0  0  0  3  0  0  0  0  0  0
  -21.8680   -7.0330   21.3840 O   0  0  0  0  0  0  0  0  0  0  0  0
  -21.8000   -6.3070   22.5460 C   0  0  0  0  0  0  0  0  0  0  0  0
  -21.3120   -6.8670   23.7470 C   0  0  0  0  0  3  0  0  0  0  0  0
  -21.1940   -6.0650   24.9000 C   0  0  0  0  0  3  0  0  0  0  0  0
  -21.5530   -4.7060   24.8530 C   0  0  0  0  0  0  0  0  0  0  0  0
  -22.0340   -4.1450   23.6560 C   0  0  0  0  0  3  0  0  0  0  0  0
  -22.1530   -4.9440   22.5060 C   0  0  0  0  0  0  0  0  0  0  0  0
  -22.5970   -4.3930   21.3500 F   0  0  0  0  0  0  0  0  0  0  0  0
  -21.4340   -3.9340   25.9590 F   0  0  0  0  0  0  0  0  0  0  0  0
  -22.9580  -13.6740   21.2300 C   0  0  0  0  0  0  0  0  0  0  0  0
  -22.2850  -12.9510   22.1170 N   0  0  0  0  0  0  0  0  0  0  0  0
  -22.4910  -14.7170   20.7720 O   0  0  0  0  0  0  0  0  0  0  0  0
  -22.6760  -12.1070   22.5080 H   0  0  0  0  0  0  0  0  0  0  0  0
  -21.3640  -13.2450   22.4110 H   0  0  0  0  0  0  0  0  0  0  0  0
  -25.5210  -15.3730   20.3060 N   0  0  0  0  0  0  0  0  0  0  0  0
  -24.7590  -16.0170   20.4850 H   0  0  0  0  0  0  0  0  0  0  0  0
  -26.3290  -15.8220   19.8970 H   0  0  0  0  0  0  0  0  0  0  0  0
  -28.1150  -24.3050   19.8790 C   0  0  0  0  0  3  0  0  0  0  0  0
  -28.1940  -25.9180   20.2780 O   0  0  0  0  0  0  0  0  0  0  0  0
  -24.5950  -31.8880   23.1940 C   0  0  0  0  0  0  0  0  0  0  0  0
  -27.1750  -27.0110   20.1740 C   0  0  0  0  0  0  0  0  0  0  0  0
  -23.4050  -30.4810   21.5610 C   0  0  0  0  0  3  0  0  0  0  0  0
  -24.8610  -28.8830   20.1320 C   0  0  0  0  0  0  0  0  0  0  0  0
  -25.9690  -30.7060   21.4070 C   0  0  0  0  0  2  0  0  0  0  0  0
  -26.0460  -29.2950   20.7520 C   0  0  0  0  0  0  0  0  0  0  0  0
  -27.1940  -28.3790   20.7500 C   0  0  0  0  0  3  0  0  0  0  0  0
  -25.9610  -26.7580   19.4960 C   0  0  0  0  0  3  0  0  0  0  0  0
  -24.8440  -27.6370   19.4830 C   0  0  0  0  0  3  0  0  0  0  0  0
  -23.6350  -29.7950   20.1850 C   0  0  0  0  0  2  0  0  0  0  0  0
  -24.6780  -31.0530   22.1080 N   0  0  0  0  0  0  0  0  0  0  0  0
  -23.5050  -32.1710   23.7190 O   0  0  0  0  0  0  0  0  0  0  0  0
  -22.7210  -29.4820   22.5320 C   0  0  0  0  0  0  0  0  0  0  0  0
  -21.3910  -29.3080   22.4130 N   0  0  0  0  0  0  0  0  0  0  0  0
  -23.3930  -28.8650   23.3630 O   0  0  0  0  0  0  0  0  0  0  0  0
  -20.9010  -29.8570   21.7200 H   0  0  0  0  0  0  0  0  0  0  0  0
  -18.0190  -28.0780   22.9440 C   0  0  0  0  0  0  0  0  0  0  0  0
  -20.5790  -28.3650   23.1900 C   0  0  0  0  0  3  0  0  0  0  0  0
  -20.6870  -26.9330   22.6150 C   0  0  0  0  0  2  0  0  0  0  0  0
  -19.5810  -26.6030   21.6070 C   0  0  0  0  0  2  0  0  0  0  0  0
  -18.2020  -26.7330   22.2610 C   0  0  0  0  0  2  0  0  0  0  0  0
  -19.1340  -28.8510   23.3650 C   0  0  0  0  0  0  0  0  0  0  0  0
  -18.9060  -30.1080   23.9670 C   0  0  0  0  0  3  0  0  0  0  0  0
  -17.5960  -30.5930   24.1480 C   0  0  0  0  0  3  0  0  0  0  0  0
  -16.4970  -29.8180   23.7400 C   0  0  0  0  0  3  0  0  0  0  0  0
  -16.7080  -28.5620   23.1440 C   0  0  0  0  0  3  0  0  0  0  0  0
  -25.8630  -32.5410   23.8220 C   0  0  0  0  0  3  0  0  0  0  0  0
  -26.3680  -31.7940   25.1190 C   0  0  1  0  0  0  0  0  0  0  0  0
  -25.2640  -31.5700   26.1790 C   0  0  0  0  0  1  0  0  0  0  0  0
  -26.9610  -30.4120   24.7640 C   0  0  0  0  0  1  0  0  0  0  0  0
  -27.5080  -32.6040   25.7790 C   0  0  0  0  0  1  0  0  0  0  0  0
  -25.5400  -33.9440   24.1420 N   0  0  0  0  0  0  0  0  0  0  0  0
  -25.8640  -35.0000   23.3830 C   0  0  0  0  0  0  0  0  0  0  0  0
  -26.5290  -34.8960   22.3480 O   0  0  0  0  0  0  0  0  0  0  0  0
  -24.9480  -34.0970   24.9440 H   0  0  0  0  0  0  0  0  0  0  0  0
  -24.1290  -36.7940   23.0420 C   0  0  0  0  0  1  0  0  0  0  0  0
  -25.3790  -36.3910   23.8420 C   0  0  0  0  0  3  0  0  0  0  0  0
  -27.5130  -37.2930   24.6600 C   0  0  0  0  0  1  0  0  0  0  0  0
  -26.4080  -37.4470   23.7170 N   0  0  0  0  0  0  0  0  0  0  0  0
  -25.9980  -38.3670   23.8570 H   0  0  0  0  0  0  0  0  0  0  0  0
  2  4  2  0
  3  2  1  0
  3  1  1  0
  5  3  1  0
  6 15  1  0
  6  2  1  0
  7 15  1  0
  8 13  1  0
  9 10  1  0
  9  8  1  0
 11 10  1  0
 11 20  1  0
 11 12  1  0
 13  7  1  0
 13 12  1  0
 14  7  2  0
 15 16  1  0
 17 18  2  0
 18 37  1  0
 19 18  1  0
 19 22  1  0
 20 21  1  0
 20 17  1  0
 21 19  2  0
 22 23  1  0
 23 24  2  0
 25 28  1  0
 25 24  1  0
 26 25  2  0
 27 26  1  0
 27 22  2  0
 28 29  1  0
 29 30  1  0
 30 31  2  0
 32 31  1  0
 32 36  1  0
 33 32  2  0
 34 29  2  0
 34 33  1  0
 35 34  1  0
 37 38  1  0
 38 41  1  0
 38 40  1  0
 39 37  2  0
 42 17  1  0
 42 43  1  0
 44 42  1  0
 45 46  1  0
 45  1  2  0
 47 58  2  0
 48 46  1  0
 48 53  1  0
 49 57  1  0
 49 59  1  0
 50 56  1  0
 50 52  1  0
 51 57  1  0
 52 51  1  0
 53 52  2  0
 54 48  2  0
 55 54  1  0
 55 50  2  0
 56 49  1  0
 57 47  1  0
 59 61  2  0
 60 59  1  0
 62 60  1  0
 63 72  2  0
 63 68  1  0
 64 60  1  0
 64 68  1  0
 65 64  1  0
 66 67  1  0
 66 65  1  0
 67 63  1  0
 68 69  2  0
 69 70  1  0
 71 70  2  0
 72 71  1  0
 73 47  1  0
 73 78  1  0
 73 74  1  0
 74 77  1  1
 74 75  1  0
 76 74  1  0
 78 81  1  0
 79 83  1  0
 79 78  1  0
 80 79  2  0
 83 82  1  0
 85 83  1  0
 85 86  1  0
 85 84  1  0
M  ISO  4   7 100  15 100  45 101  46 101
M  END
>  <TORSDO>  (23) 
F 19

>  <SCORE>  (23) 
-15.612

>  <name>  (23) 
22

>  <ligand_id>  (23) 
22

>  <original_smiles>  (23) 
[H]c1c([H])c([H])c2c(c1[H])C([H])([H])C([H])([H])C([H])([H])C2([H])N([H])C(=O)C1([H])N(C(=O)C([H])(N([H])C(=O)C([H])(N([H])C([H])([H])[H])C([H])([H])[H])C(C([H])([H])[H])(C([H])([H])[H])C([H])([H])[H])C([H])([H])c2c([H])c(OC([H])([H])C([H])([H])N([H])C(=O)C([H])([H])N([H])C(=O)N3C([H])([H])C([H])([H])C([H])([H])C([H])(n4nc(-c5c([H])c([H])c(Oc6c([H])c([H])c(F)c([H])c6F)c([H])c5[H])c(C(=O)N([H])[H])c4N([H])[H])C3([H])[H])c([H])c([H])c2C1([H])[H]

>  <smiles>  (23) 
[H]c1c([H])c([H])c2c(c1[H])C([H])([H])C([H])([H])C([H])([H])C2([H])N([H])C(=O)C1([H])N(C(=O)C([H])(N([H])C(=O)C([H])(N([H])C([H])([H])[H])C([H])([H])[H])C(C([H])([H])[H])(C([H])([H])[H])C([H])([H])[H])C([H])([H])c2c([H])c(OC([H])([H])C([H])([H])N([H])C(=O)C([H])([H])N([H])C(=O)N3C([H])([H])C([H])([H])C([H])([H])C([H])(n4nc(-c5c([H])c([H])c(Oc6c([H])c([H])c(F)c([H])c6F)c([H])c5[H])c(C(=O)N([H])[H])c4N([H])[H])C3([H])[H])c([H])c([H])c2C1([H])[H]

$$$$
23:0:0
     RDKit          3D

100107  0  0  1  0  0  0  0  0999 V2000
  -25.7370  -24.7240   26.0230 C   0  0  0  0  0  0  0  0  0  0  0  0
  -26.5350  -25.8010   26.0700 N   0  0  0  0  0  0  0  0  0  0  0  0
  -25.3710  -24.1860   27.0680 O   0  0  0  0  0  0  0  0  0  0  0  0
  -26.8000  -26.1060   26.9970 H   0  0  0  0  0  0  0  0  0  0  0  0
  -27.0790  -26.5720   24.9550 C   0  0  0  0  0  2  0  0  0  0  0  0
  -28.4750  -26.0840   24.5400 C   0  0  0  0  0  2  0  0  0  0  0  0
  -28.8550  -26.6800   23.3070 O   0  0  0  0  0  0  0  0  0  0  0  0
  -30.1210  -26.2100   22.8560 C   0  0  0  0  0  2  0  0  0  0  0  0
  -30.3120  -26.5430   21.3610 C   0  0  0  0  0  2  0  0  0  0  0  0
  -31.4600  -25.9410   20.7550 O   0  0  0  0  0  0  0  0  0  0  0  0
  -32.7110  -26.4270   21.2360 C   0  0  0  0  0  2  0  0  0  0  0  0
  -33.8710  -25.9280   20.3550 C   0  0  0  0  0  2  0  0  0  0  0  0
  -34.8910  -23.8340   19.5170 C   0  0  0  0  0  0  0  0  0  0  0  0
  -35.8870  -21.6710   18.8790 C   0  0  0  0  0  2  0  0  0  0  0  0
  -35.2950  -21.1040   17.5750 C   0  0  0  0  0  2  0  0  0  0  0  0
  -34.0360  -20.2750   17.8850 C   0  0  0  0  0  2  0  0  0  0  0  0
  -33.0210  -21.0560   18.7600 C   0  0  0  0  0  3  0  0  0  0  0  0
  -33.7180  -21.6560   20.0030 C   0  0  0  0  0  2  0  0  0  0  0  0
  -34.8590  -22.4770   19.5580 N   0  0  0  0  0  0  0  0  0  0  0  0
  -35.7450  -24.4690   18.8900 O   0  0  0  0  0  0  0  0  0  0  0  0
  -33.9790  -24.4670   20.2680 N   0  0  0  0  0  0  0  0  0  0  0  0
  -33.3360  -23.9040   20.8080 H   0  0  0  0  0  0  0  0  0  0  0  0
  -30.5510  -20.5510   19.2950 C   0  0  0  0  0  0  0  0  0  0  0  0
  -29.9000  -19.3800   19.5830 C   0  0  0  0  0  0  0  0  0  0  0  0
  -30.8990  -18.3590   19.5720 C   0  0  0  0  0  0  0  0  0  0  0  0
  -31.8870  -20.2110   19.1350 N   0  0  0  0  0  0  0  0  0  0  0  0
  -32.0960  -18.8870   19.3520 N   0  0  0  0  0  0  0  0  0  0  0  0
  -30.7770  -16.8990   19.7010 C   0  0  0  0  0  0  0  0  0  0  0  0
  -31.3780  -16.2020   20.7720 C   0  0  0  0  0  3  0  0  0  0  0  0
  -31.2320  -14.8020   20.8860 C   0  0  0  0  0  3  0  0  0  0  0  0
  -30.4790  -14.0870   19.9260 C   0  0  0  0  0  0  0  0  0  0  0  0
  -29.9000  -14.7830   18.8520 C   0  0  0  0  0  3  0  0  0  0  0  0
  -30.0500  -16.1750   18.7350 C   0  0  0  0  0  3  0  0  0  0  0  0
  -30.3070  -12.7250   19.9400 O   0  0  0  0  0  0  0  0  0  0  0  0
  -30.0370  -12.0460   21.1020 C   0  0  0  0  0  0  0  0  0  0  0  0
  -28.8650  -12.2880   21.8490 C   0  0  0  0  0  3  0  0  0  0  0  0
  -28.5890  -11.5190   22.9960 C   0  0  0  0  0  3  0  0  0  0  0  0
  -29.4800  -10.5060   23.3960 C   0  0  0  0  0  0  0  0  0  0  0  0
  -30.6480  -10.2600   22.6520 C   0  0  0  0  0  3  0  0  0  0  0  0
  -30.9230  -11.0280   21.5060 C   0  0  0  0  0  0  0  0  0  0  0  0
  -32.0390  -10.7730   20.7790 F   0  0  0  0  0  0  0  0  0  0  0  0
  -29.2160   -9.7610   24.4960 F   0  0  0  0  0  0  0  0  0  0  0  0
  -28.4200  -19.2030   19.7650 C   0  0  0  0  0  0  0  0  0  0  0  0
  -28.0140  -18.2040   20.5430 N   0  0  0  0  0  0  0  0  0  0  0  0
  -27.6150  -19.9800   19.2570 O   0  0  0  0  0  0  0  0  0  0  0  0
  -28.6750  -17.5750   20.9770 H   0  0  0  0  0  0  0  0  0  0  0  0
  -27.0270  -18.0660   20.7110 H   0  0  0  0  0  0  0  0  0  0  0  0
  -30.1230  -21.8650   19.1420 N   0  0  0  0  0  0  0  0  0  0  0  0
  -29.1470  -22.1320   19.2030 H   0  0  0  0  0  0  0  0  0  0  0  0
  -30.7360  -22.6350   18.8990 H   0  0  0  0  0  0  0  0  0  0  0  0
  -25.2610  -24.1490   24.6800 C   0  0  0  0  0  2  0  0  0  0  0  0
  -25.2680  -24.8190   22.2860 C   0  0  0  0  0  0  0  0  0  0  0  0
  -25.3740  -25.1100   23.5860 N   0  0  0  0  0  0  0  0  0  0  0  0
  -25.0830  -23.6780   21.8600 O   0  0  0  0  0  0  0  0  0  0  0  0
  -25.5480  -26.0760   23.8330 H   0  0  0  0  0  0  0  0  0  0  0  0
  -25.3630  -26.0000   21.3210 C   0  0  0  0  0  2  0  0  0  0  0  0
  -26.7240  -26.3570   21.0690 O   0  0  0  0  0  0  0  0  0  0  0  0
  -27.4410  -25.4330   20.2500 C   0  0  0  0  0  2  0  0  0  0  0  0
  -28.4160  -26.1830   19.3110 C   0  0  0  0  0  2  0  0  0  0  0  0
  -27.7700  -26.7420   18.1620 O   0  0  0  0  0  0  0  0  0  0  0  0
  -24.7650  -31.0490   22.9540 C   0  0  0  0  0  0  0  0  0  0  0  0
  -26.7160  -27.5590   18.4770 C   0  0  0  0  0  0  0  0  0  0  0  0
  -23.2950  -30.2450   21.1360 C   0  0  0  0  0  3  0  0  0  0  0  0
  -24.4690  -29.1040   19.1810 C   0  0  0  0  0  0  0  0  0  0  0  0
  -25.8100  -30.5000   20.7640 C   0  0  0  0  0  2  0  0  0  0  0  0
  -25.7160  -29.3710   19.7630 C   0  0  0  0  0  0  0  0  0  0  0  0
  -26.8460  -28.6000   19.4200 C   0  0  0  0  0  3  0  0  0  0  0  0
  -25.4700  -27.3210   17.8670 C   0  0  0  0  0  3  0  0  0  0  0  0
  -24.3370  -28.0730   18.2310 C   0  0  0  0  0  3  0  0  0  0  0  0
  -23.3140  -29.9810   19.6080 C   0  0  0  0  0  2  0  0  0  0  0  0
  -24.6470  -30.5970   21.6750 N   0  0  0  0  0  0  0  0  0  0  0  0
  -23.7670  -31.2190   23.6670 O   0  0  0  0  0  0  0  0  0  0  0  0
  -22.6510  -29.0300   21.8410 C   0  0  0  0  0  0  0  0  0  0  0  0
  -21.3230  -28.8890   21.6910 N   0  0  0  0  0  0  0  0  0  0  0  0
  -23.3400  -28.2280   22.4800 O   0  0  0  0  0  0  0  0  0  0  0  0
  -20.8280  -29.5920   21.1580 H   0  0  0  0  0  0  0  0  0  0  0  0
  -17.9760  -27.5340   21.7960 C   0  0  0  0  0  0  0  0  0  0  0  0
  -20.5090  -27.8060   22.2350 C   0  0  0  0  0  3  0  0  0  0  0  0
  -20.6860  -26.5080   21.4090 C   0  0  0  0  0  2  0  0  0  0  0  0
  -19.6400  -26.3510   20.3010 C   0  0  0  0  0  2  0  0  0  0  0  0
  -18.2280  -26.3380   20.8940 C   0  0  0  0  0  2  0  0  0  0  0  0
  -19.0470  -28.2320   22.4160 C   0  0  0  0  0  0  0  0  0  0  0  0
  -18.7580  -29.3580   23.2170 C   0  0  0  0  0  3  0  0  0  0  0  0
  -17.4300  -29.7830   23.4080 C   0  0  0  0  0  3  0  0  0  0  0  0
  -16.3740  -29.0800   22.8050 C   0  0  0  0  0  3  0  0  0  0  0  0
  -16.6460  -27.9570   22.0030 C   0  0  0  0  0  3  0  0  0  0  0  0
  -26.1530  -31.3990   23.5750 C   0  0  0  0  0  3  0  0  0  0  0  0
  -26.0600  -32.7610   24.1170 N   0  0  0  0  0  0  0  0  0  0  0  0
  -26.5500  -33.8510   23.5160 C   0  0  0  0  0  0  0  0  0  0  0  0
  -27.1990  -33.8060   22.4670 O   0  0  0  0  0  0  0  0  0  0  0  0
  -25.5020  -32.8840   24.9490 H   0  0  0  0  0  0  0  0  0  0  0  0
  -25.1320  -35.9240   23.4600 C   0  0  0  0  0  1  0  0  0  0  0  0
  -26.2820  -35.2110   24.1880 C   0  0  0  0  0  3  0  0  0  0  0  0
  -28.5300  -35.5970   25.0980 C   0  0  0  0  0  1  0  0  0  0  0  0
  -27.4680  -36.0920   24.2240 N   0  0  0  0  0  0  0  0  0  0  0  0
  -27.2160  -37.0270   24.5340 H   0  0  0  0  0  0  0  0  0  0  0  0
  -26.6100  -30.3800   24.6890 C   0  0  1  0  0  0  0  0  0  0  0  0
  -25.5190  -30.0870   25.7430 C   0  0  0  0  0  1  0  0  0  0  0  0
  -27.0280  -29.0320   24.0560 C   0  0  0  0  0  1  0  0  0  0  0  0
  -27.8540  -30.9310   25.4240 C   0  0  0  0  0  1  0  0  0  0  0  0
  1  2  1  0
  1  3  2  0
  2  4  1  0
  5  2  1  0
  6  5  1  0
  7  6  1  0
  8  7  1  0
  9  8  1  0
 10 11  1  0
 10  9  1  0
 12 11  1  0
 13 19  1  0
 13 21  1  0
 14 19  1  0
 15 16  1  0
 15 14  1  0
 17 16  1  0
 17 26  1  0
 17 18  1  0
 19 18  1  0
 20 13  2  0
 21 12  1  0
 21 22  1  0
 23 24  2  0
 24 43  1  0
 25 24  1  0
 25 28  1  0
 26 23  1  0
 26 27  1  0
 27 25  2  0
 28 29  1  0
 29 30  2  0
 31 34  1  0
 31 30  1  0
 32 31  2  0
 33 32  1  0
 33 28  2  0
 34 35  1  0
 35 40  2  0
 35 36  1  0
 36 37  2  0
 37 38  1  0
 38 42  1  0
 39 38  2  0
 40 39  1  0
 41 40  1  0
 43 44  1  0
 44 47  1  0
 44 46  1  0
 45 43  2  0
 48 49  1  0
 48 23  1  0
 50 48  1  0
 51  1  1  0
 52 53  1  0
 53 55  1  0
 53 51  1  0
 54 52  2  0
 56 52  1  0
 57 56  1  0
 58 57  1  0
 59 58  1  0
 60 62  1  0
 60 59  1  0
 61 72  2  0
 62 67  1  0
 63 71  1  0
 63 73  1  0
 64 70  1  0
 64 66  1  0
 65 71  1  0
 66 65  1  0
 67 66  2  0
 68 69  1  0
 68 62  2  0
 69 64  2  0
 70 63  1  0
 71 61  1  0
 73 75  2  0
 74 73  1  0
 76 74  1  0
 77 86  2  0
 77 82  1  0
 78 74  1  0
 78 82  1  0
 79 78  1  0
 80 81  1  0
 80 79  1  0
 81 77  1  0
 82 83  2  0
 83 84  1  0
 85 84  2  0
 86 85  1  0
 87 61  1  0
 87 88  1  0
 87 97  1  0
 88 91  1  0
 89 88  1  0
 89 93  1  0
 90 89  2  0
 93 92  1  0
 93 95  1  0
 95 96  1  0
 95 94  1  0
 97100  1  1
 97 98  1  0
 99 97  1  0
M  ISO  4  13 100  21 100  59 101  60 101
M  END
>  <TORSDO>  (24) 
F 30

>  <SCORE>  (24) 
-0.626

>  <name>  (24) 
23

>  <ligand_id>  (24) 
23

>  <original_smiles>  (24) 
[H]c1c([H])c([H])c2c(c1[H])C([H])([H])C([H])([H])C([H])([H])C2([H])N([H])C(=O)C1([H])N(C(=O)C([H])(N([H])C(=O)C([H])(N([H])C([H])([H])[H])C([H])([H])[H])C(C([H])([H])[H])(C([H])([H])[H])C([H])([H])[H])C([H])([H])c2c([H])c(OC([H])([H])C([H])([H])OC([H])([H])C(=O)N([H])C([H])([H])C(=O)N([H])C([H])([H])C([H])([H])OC([H])([H])C([H])([H])OC([H])([H])C([H])([H])N([H])C(=O)N3C([H])([H])C([H])([H])C([H])([H])C([H])(n4nc(-c5c([H])c([H])c(Oc6c([H])c([H])c(F)c([H])c6F)c([H])c5[H])c(C(=O)N([H])[H])c4N([H])[H])C3([H])[H])c([H])c([H])c2C1([H])[H]

>  <smiles>  (24) 
[H]c1c([H])c([H])c2c(c1[H])C([H])([H])C([H])([H])C([H])([H])C2([H])N([H])C(=O)C1([H])N(C(=O)C([H])(N([H])C(=O)C([H])(N([H])C([H])([H])[H])C([H])([H])[H])C(C([H])([H])[H])(C([H])([H])[H])C([H])([H])[H])C([H])([H])c2c([H])c(OC([H])([H])C([H])([H])OC([H])([H])C(=O)N([H])C([H])([H])C(=O)N([H])C([H])([H])C([H])([H])OC([H])([H])C([H])([H])OC([H])([H])C([H])([H])N([H])C(=O)N3C([H])([H])C([H])([H])C([H])([H])C([H])(n4nc(-c5c([H])c([H])c(Oc6c([H])c([H])c(F)c([H])c6F)c([H])c5[H])c(C(=O)N([H])[H])c4N([H])[H])C3([H])[H])c([H])c([H])c2C1([H])[H]

$$$$
24:0:0
     RDKit          3D

 88 95  0  0  1  0  0  0  0  0999 V2000
  -29.2490  -23.6290   20.2090 C   0  0  0  0  0  2  0  0  0  0  0  0
  -28.3610  -24.4510   19.2610 C   0  0  0  0  0  2  0  0  0  0  0  0
  -28.7650  -25.9280   19.0600 C   0  0  0  0  0  2  0  0  0  0  0  0
  -28.4430  -26.8050   20.1470 O   0  0  0  0  0  0  0  0  0  0  0  0
  -24.5620  -31.9080   23.2380 C   0  0  0  0  0  0  0  0  0  0  0  0
  -27.2420  -27.4880   20.1350 C   0  0  0  0  0  0  0  0  0  0  0  0
  -23.3660  -30.5000   21.5950 C   0  0  0  0  0  3  0  0  0  0  0  0
  -24.8280  -28.9710   20.1720 C   0  0  0  0  0  0  0  0  0  0  0  0
  -25.8890  -30.8700   21.4030 C   0  0  0  0  0  2  0  0  0  0  0  0
  -25.9810  -29.4970   20.7650 C   0  0  0  0  0  0  0  0  0  0  0  0
  -27.1840  -28.7550   20.7570 C   0  0  0  0  0  3  0  0  0  0  0  0
  -26.0640  -26.9710   19.5460 C   0  0  0  0  0  3  0  0  0  0  0  0
  -24.8620  -27.7030   19.5670 C   0  0  0  0  0  3  0  0  0  0  0  0
  -23.5810  -29.8230   20.2140 C   0  0  0  0  0  2  0  0  0  0  0  0
  -24.6240  -31.1070   22.1360 N   0  0  0  0  0  0  0  0  0  0  0  0
  -23.4780  -32.1720   23.7770 O   0  0  0  0  0  0  0  0  0  0  0  0
  -22.7200  -29.4720   22.5530 C   0  0  0  0  0  0  0  0  0  0  0  0
  -21.3940  -29.2920   22.4300 N   0  0  0  0  0  0  0  0  0  0  0  0
  -23.4060  -28.8420   23.3620 O   0  0  0  0  0  0  0  0  0  0  0  0
  -20.9030  -29.8570   21.7510 H   0  0  0  0  0  0  0  0  0  0  0  0
  -18.0200  -28.1070   22.9300 C   0  0  0  0  0  0  0  0  0  0  0  0
  -20.5790  -28.3460   23.1880 C   0  0  0  0  0  3  0  0  0  0  0  0
  -20.6730  -26.9230   22.5870 C   0  0  0  0  0  2  0  0  0  0  0  0
  -19.5580  -26.6200   21.5810 C   0  0  0  0  0  2  0  0  0  0  0  0
  -18.1830  -26.7650   22.2370 C   0  0  0  0  0  2  0  0  0  0  0  0
  -19.1440  -28.8570   23.3620 C   0  0  0  0  0  0  0  0  0  0  0  0
  -18.9380  -30.1170   23.9670 C   0  0  0  0  0  3  0  0  0  0  0  0
  -17.6380  -30.6230   24.1470 C   0  0  0  0  0  3  0  0  0  0  0  0
  -16.5260  -29.8690   23.7330 C   0  0  0  0  0  3  0  0  0  0  0  0
  -16.7170  -28.6130   23.1290 C   0  0  0  0  0  3  0  0  0  0  0  0
  -25.8430  -32.5450   23.8610 C   0  0  0  0  0  3  0  0  0  0  0  0
  -26.3590  -31.7810   25.1400 C   0  0  1  0  0  0  0  0  0  0  0  0
  -25.2650  -31.5390   26.2050 C   0  0  0  0  0  1  0  0  0  0  0  0
  -26.9520  -30.4070   24.7510 C   0  0  0  0  0  1  0  0  0  0  0  0
  -27.5050  -32.5820   25.8040 C   0  0  0  0  0  1  0  0  0  0  0  0
  -25.5320  -33.9450   24.1800 N   0  0  0  0  0  0  0  0  0  0  0  0
  -25.8740  -34.9910   23.4190 C   0  0  0  0  0  0  0  0  0  0  0  0
  -26.5560  -34.8830   22.3950 O   0  0  0  0  0  0  0  0  0  0  0  0
  -24.9290  -34.1050   24.9740 H   0  0  0  0  0  0  0  0  0  0  0  0
  -24.1590  -36.7870   23.0260 C   0  0  0  0  0  1  0  0  0  0  0  0
  -25.3810  -36.3790   23.8640 C   0  0  0  0  0  3  0  0  0  0  0  0
  -27.4970  -37.2610   24.7430 C   0  0  0  0  0  1  0  0  0  0  0  0
  -26.4200  -37.4290   23.7720 N   0  0  0  0  0  0  0  0  0  0  0  0
  -26.0120  -38.3520   23.9080 H   0  0  0  0  0  0  0  0  0  0  0  0
  -28.8260  -22.2720   20.1030 O   0  0  0  0  0  0  0  0  0  0  0  0
  -29.3360  -21.4130   21.1160 C   0  0  0  0  0  2  0  0  0  0  0  0
  -28.8220  -19.9710   20.9020 C   0  0  0  0  0  2  0  0  0  0  0  0
  -29.9070  -19.0460   20.8700 O   0  0  0  0  0  0  0  0  0  0  0  0
  -29.5070  -17.6900   20.6920 C   0  0  0  0  0  2  0  0  0  0  0  0
  -30.7000  -16.7680   21.0100 C   0  0  0  0  0  2  0  0  0  0  0  0
  -30.9480  -14.3750   20.3520 C   0  0  0  0  0  0  0  0  0  0  0  0
  -30.6310  -12.1820   19.2880 C   0  0  0  0  0  2  0  0  0  0  0  0
  -29.7000  -12.3490   18.0710 C   0  0  0  0  0  2  0  0  0  0  0  0
  -28.2280  -12.2170   18.5070 C   0  0  0  0  0  2  0  0  0  0  0  0
  -27.8820  -13.1300   19.7130 C   0  0  0  0  0  3  0  0  0  0  0  0
  -28.9250  -12.9540   20.8420 C   0  0  0  0  0  2  0  0  0  0  0  0
  -30.2610  -13.2090   20.2710 N   0  0  0  0  0  0  0  0  0  0  0  0
  -32.0300  -14.5690   19.7950 O   0  0  0  0  0  0  0  0  0  0  0  0
  -30.3140  -15.3550   21.0010 N   0  0  0  0  0  0  0  0  0  0  0  0
  -29.4450  -15.1040   21.4490 H   0  0  0  0  0  0  0  0  0  0  0  0
  -25.4990  -13.7880   20.4350 C   0  0  0  0  0  0  0  0  0  0  0  0
  -24.4180  -13.0330   20.8080 C   0  0  0  0  0  0  0  0  0  0  0  0
  -24.8530  -11.6730   20.7750 C   0  0  0  0  0  0  0  0  0  0  0  0
  -26.5250  -12.8830   20.1960 N   0  0  0  0  0  0  0  0  0  0  0  0
  -26.1390  -11.6080   20.4600 N   0  0  0  0  0  0  0  0  0  0  0  0
  -24.1060  -10.4240   20.9710 C   0  0  0  0  0  0  0  0  0  0  0  0
  -24.5010   -9.4640   21.9300 C   0  0  0  0  0  3  0  0  0  0  0  0
  -23.7520   -8.2810   22.1100 C   0  0  0  0  0  3  0  0  0  0  0  0
  -22.5940   -8.0490   21.3300 C   0  0  0  0  0  0  0  0  0  0  0  0
  -22.2200   -8.9950   20.3610 C   0  0  0  0  0  3  0  0  0  0  0  0
  -22.9700  -10.1690   20.1790 C   0  0  0  0  0  3  0  0  0  0  0  0
  -21.8220   -6.9140   21.4150 O   0  0  0  0  0  0  0  0  0  0  0  0
  -21.7090   -6.2090   22.5870 C   0  0  0  0  0  0  0  0  0  0  0  0
  -21.2150   -6.8000   23.7690 C   0  0  0  0  0  3  0  0  0  0  0  0
  -21.0560   -6.0200   24.9340 C   0  0  0  0  0  3  0  0  0  0  0  0
  -21.3740   -4.6500   24.9120 C   0  0  0  0  0  0  0  0  0  0  0  0
  -21.8610   -4.0580   23.7340 C   0  0  0  0  0  3  0  0  0  0  0  0
  -22.0250   -4.8340   22.5730 C   0  0  0  0  0  0  0  0  0  0  0  0
  -22.4760   -4.2560   21.4340 F   0  0  0  0  0  0  0  0  0  0  0  0
  -21.2120   -3.8980   26.0260 F   0  0  0  0  0  0  0  0  0  0  0  0
  -23.0310  -13.5380   21.0880 C   0  0  0  0  0  0  0  0  0  0  0  0
  -22.2950  -12.8540   21.9570 N   0  0  0  0  0  0  0  0  0  0  0  0
  -22.6090  -14.5720   20.5710 O   0  0  0  0  0  0  0  0  0  0  0  0
  -22.6470  -12.0130   22.3900 H   0  0  0  0  0  0  0  0  0  0  0  0
  -21.3680  -13.1780   22.1950 H   0  0  0  0  0  0  0  0  0  0  0  0
  -25.6920  -15.1530   20.2580 N   0  0  0  0  0  0  0  0  0  0  0  0
  -24.9420  -15.8280   20.3720 H   0  0  0  0  0  0  0  0  0  0  0  0
  -26.5570  -15.5690   19.9330 H   0  0  0  0  0  0  0  0  0  0  0  0
  2  1  1  0
  3  2  1  0
  3  4  1  0
  5 16  2  0
  6  4  1  0
  6 11  1  0
  7 15  1  0
  7 17  1  0
  8 14  1  0
  8 10  1  0
  9 15  1  0
 10  9  1  0
 11 10  2  0
 12 13  1  0
 12  6  2  0
 13  8  2  0
 14  7  1  0
 15  5  1  0
 17 19  2  0
 18 17  1  0
 20 18  1  0
 21 30  2  0
 21 26  1  0
 22 18  1  0
 22 26  1  0
 23 22  1  0
 24 25  1  0
 24 23  1  0
 25 21  1  0
 26 27  2  0
 27 28  1  0
 29 28  2  0
 30 29  1  0
 31  5  1  0
 31 36  1  0
 31 32  1  0
 32 35  1  1
 32 33  1  0
 34 32  1  0
 36 39  1  0
 37 41  1  0
 37 36  1  0
 38 37  2  0
 41 40  1  0
 43 41  1  0
 43 44  1  0
 43 42  1  0
 45  1  1  0
 45 46  1  0
 47 46  1  0
 48 47  1  0
 49 48  1  0
 49 50  1  0
 51 59  1  0
 52 57  1  0
 53 54  1  0
 53 52  1  0
 55 54  1  0
 55 64  1  0
 55 56  1  0
 57 51  1  0
 57 56  1  0
 58 51  2  0
 59 50  1  0
 59 60  1  0
 61 62  2  0
 62 81  1  0
 63 62  1  0
 63 66  1  0
 64 61  1  0
 64 65  1  0
 65 63  2  0
 66 67  1  0
 67 68  2  0
 69 72  1  0
 69 68  1  0
 70 69  2  0
 71 70  1  0
 71 66  2  0
 72 73  1  0
 73 74  1  0
 74 75  2  0
 76 75  1  0
 76 80  1  0
 77 76  2  0
 78 73  2  0
 78 77  1  0
 79 78  1  0
 81 82  1  0
 82 85  1  0
 82 84  1  0
 83 81  2  0
 86 87  1  0
 86 61  1  0
 88 86  1  0
M  ISO  4   3 101   4 101  51 100  59 100
M  END
>  <TORSDO>  (25) 
F 24

>  <SCORE>  (25) 
-12.215

>  <name>  (25) 
24

>  <ligand_id>  (25) 
24

>  <original_smiles>  (25) 
[H]c1c([H])c([H])c2c(c1[H])C([H])([H])C([H])([H])C([H])([H])C2([H])N([H])C(=O)C1([H])N(C(=O)C([H])(N([H])C(=O)C([H])(N([H])C([H])([H])[H])C([H])([H])[H])C(C([H])([H])[H])(C([H])([H])[H])C([H])([H])[H])C([H])([H])c2c([H])c(OC([H])([H])C([H])([H])C([H])([H])OC([H])([H])C([H])([H])OC([H])([H])C([H])([H])N([H])C(=O)N3C([H])([H])C([H])([H])C([H])([H])C([H])(n4nc(-c5c([H])c([H])c(Oc6c([H])c([H])c(F)c([H])c6F)c([H])c5[H])c(C(=O)N([H])[H])c4N([H])[H])C3([H])[H])c([H])c([H])c2C1([H])[H]

>  <smiles>  (25) 
[H]c1c([H])c([H])c2c(c1[H])C([H])([H])C([H])([H])C([H])([H])C2([H])N([H])C(=O)C1([H])N(C(=O)C([H])(N([H])C(=O)C([H])(N([H])C([H])([H])[H])C([H])([H])[H])C(C([H])([H])[H])(C([H])([H])[H])C([H])([H])[H])C([H])([H])c2c([H])c(OC([H])([H])C([H])([H])C([H])([H])OC([H])([H])C([H])([H])OC([H])([H])C([H])([H])N([H])C(=O)N3C([H])([H])C([H])([H])C([H])([H])C([H])(n4nc(-c5c([H])c([H])c(Oc6c([H])c([H])c(F)c([H])c6F)c([H])c5[H])c(C(=O)N([H])[H])c4N([H])[H])C3([H])[H])c([H])c([H])c2C1([H])[H]

$$$$
25:0:0
     RDKit          3D

 92 99  0  0  1  0  0  0  0  0999 V2000
  -27.8240  -22.5240   21.6380 C   0  0  0  0  0  2  0  0  0  0  0  0
  -28.0590  -24.7330   20.4820 C   0  0  0  0  0  0  0  0  0  0  0  0
  -27.7270  -23.4370   20.5000 N   0  0  0  0  0  0  0  0  0  0  0  0
  -28.5130  -25.3140   21.4720 O   0  0  0  0  0  0  0  0  0  0  0  0
  -27.3860  -23.0400   19.6340 H   0  0  0  0  0  0  0  0  0  0  0  0
  -27.8500  -25.4670   19.1410 C   0  0  0  0  0  2  0  0  0  0  0  0
  -27.8920  -26.8890   19.2900 O   0  0  0  0  0  0  0  0  0  0  0  0
  -24.8060  -31.7120   23.4210 C   0  0  0  0  0  0  0  0  0  0  0  0
  -26.7330  -27.6060   19.5000 C   0  0  0  0  0  0  0  0  0  0  0  0
  -23.3040  -30.6220   21.7830 C   0  0  0  0  0  3  0  0  0  0  0  0
  -24.4560  -29.2030   20.0010 C   0  0  0  0  0  0  0  0  0  0  0  0
  -25.8000  -30.8690   21.2990 C   0  0  0  0  0  2  0  0  0  0  0  0
  -25.7060  -29.5900   20.4960 C   0  0  0  0  0  0  0  0  0  0  0  0
  -26.8440  -28.7990   20.2420 C   0  0  0  0  0  3  0  0  0  0  0  0
  -25.4640  -27.2230   19.0040 C   0  0  0  0  0  3  0  0  0  0  0  0
  -24.3270  -28.0180   19.2550 C   0  0  0  0  0  3  0  0  0  0  0  0
  -23.2920  -30.1160   20.3120 C   0  0  0  0  0  2  0  0  0  0  0  0
  -24.6630  -31.0740   22.2250 N   0  0  0  0  0  0  0  0  0  0  0  0
  -23.8240  -31.9710   24.1310 O   0  0  0  0  0  0  0  0  0  0  0  0
  -22.6990  -29.5240   22.6850 C   0  0  0  0  0  0  0  0  0  0  0  0
  -21.3740  -29.3290   22.5850 N   0  0  0  0  0  0  0  0  0  0  0  0
  -23.4150  -28.8500   23.4290 O   0  0  0  0  0  0  0  0  0  0  0  0
  -20.8530  -29.9240   21.9540 H   0  0  0  0  0  0  0  0  0  0  0  0
  -18.0750  -27.9010   22.9180 C   0  0  0  0  0  0  0  0  0  0  0  0
  -20.5960  -28.3230   23.3040 C   0  0  0  0  0  3  0  0  0  0  0  0
  -20.8210  -26.9160   22.7040 C   0  0  0  0  0  2  0  0  0  0  0  0
  -19.7850  -26.5440   21.6390 C   0  0  0  0  0  2  0  0  0  0  0  0
  -18.3710  -26.5810   22.2250 C   0  0  0  0  0  2  0  0  0  0  0  0
  -19.1210  -28.7250   23.4110 C   0  0  0  0  0  0  0  0  0  0  0  0
  -18.7920  -29.9590   24.0130 C   0  0  0  0  0  3  0  0  0  0  0  0
  -17.4500  -30.3680   24.1330 C   0  0  0  0  0  3  0  0  0  0  0  0
  -16.4190  -29.5400   23.6580 C   0  0  0  0  0  3  0  0  0  0  0  0
  -16.7320  -28.3080   23.0550 C   0  0  0  0  0  3  0  0  0  0  0  0
  -26.2040  -32.1680   23.9460 C   0  0  0  0  0  3  0  0  0  0  0  0
  -26.7640  -31.2550   25.1050 C   0  0  1  0  0  0  0  0  0  0  0  0
  -25.7690  -31.0560   26.2720 C   0  0  0  0  0  1  0  0  0  0  0  0
  -27.1420  -29.8560   24.5620 C   0  0  0  0  0  1  0  0  0  0  0  0
  -28.0570  -31.8740   25.6870 C   0  0  0  0  0  1  0  0  0  0  0  0
  -26.0770  -33.5610   24.3920 N   0  0  0  0  0  0  0  0  0  0  0  0
  -26.5160  -34.6240   23.7060 C   0  0  0  0  0  0  0  0  0  0  0  0
  -27.1460  -34.5250   22.6500 O   0  0  0  0  0  0  0  0  0  0  0  0
  -25.5210  -33.7210   25.2200 H   0  0  0  0  0  0  0  0  0  0  0  0
  -25.0330  -36.6460   23.5220 C   0  0  0  0  0  1  0  0  0  0  0  0
  -26.2110  -36.0180   24.2840 C   0  0  0  0  0  3  0  0  0  0  0  0
  -28.4420  -36.5510   25.1600 C   0  0  0  0  0  1  0  0  0  0  0  0
  -27.3670  -36.9390   24.2500 N   0  0  0  0  0  0  0  0  0  0  0  0
  -27.0810  -37.8850   24.4840 H   0  0  0  0  0  0  0  0  0  0  0  0
  -29.2160  -21.8640   21.7260 C   0  0  0  0  0  2  0  0  0  0  0  0
  -29.0840  -20.4470   21.8100 O   0  0  0  0  0  0  0  0  0  0  0  0
  -30.3270  -19.7630   21.6580 C   0  0  0  0  0  2  0  0  0  0  0  0
  -30.2610  -18.3520   22.2770 C   0  0  0  0  0  2  0  0  0  0  0  0
  -30.7820  -17.3710   21.3830 O   0  0  0  0  0  0  0  0  0  0  0  0
  -30.6380  -16.0520   21.9010 C   0  0  0  0  0  2  0  0  0  0  0  0
  -31.7180  -15.1280   21.3170 C   0  0  0  0  0  2  0  0  0  0  0  0
  -31.8350  -13.7820   19.2780 C   0  0  0  0  0  0  0  0  0  0  0  0
  -31.2580  -11.4510   18.7100 C   0  0  0  0  0  2  0  0  0  0  0  0
  -30.2150  -11.3830   17.5780 C   0  0  0  0  0  2  0  0  0  0  0  0
  -28.7870  -11.4690   18.1470 C   0  0  0  0  0  2  0  0  0  0  0  0
  -28.6100  -12.6400   19.1470 C   0  0  0  0  0  3  0  0  0  0  0  0
  -29.7530  -12.6630   20.1850 C   0  0  0  0  0  2  0  0  0  0  0  0
  -31.0450  -12.6920   19.4740 N   0  0  0  0  0  0  0  0  0  0  0  0
  -32.7840  -13.8040   18.4930 O   0  0  0  0  0  0  0  0  0  0  0  0
  -31.4810  -14.9110   19.8940 N   0  0  0  0  0  0  0  0  0  0  0  0
  -31.7740  -15.7250   19.3710 H   0  0  0  0  0  0  0  0  0  0  0  0
  -26.4820  -13.6370   20.2070 C   0  0  0  0  0  0  0  0  0  0  0  0
  -25.3390  -13.0570   20.6870 C   0  0  0  0  0  0  0  0  0  0  0  0
  -25.5190  -11.6490   20.5300 C   0  0  0  0  0  0  0  0  0  0  0  0
  -27.2990  -12.5940   19.7950 N   0  0  0  0  0  0  0  0  0  0  0  0
  -26.7250  -11.3880   20.0430 N   0  0  0  0  0  0  0  0  0  0  0  0
  -24.5900  -10.5360   20.7600 C   0  0  0  0  0  0  0  0  0  0  0  0
  -24.9010   -9.4840   21.6500 C   0  0  0  0  0  3  0  0  0  0  0  0
  -23.9850   -8.4330   21.8660 C   0  0  0  0  0  3  0  0  0  0  0  0
  -22.7370   -8.4290   21.1950 C   0  0  0  0  0  0  0  0  0  0  0  0
  -22.4410   -9.4670   20.2930 C   0  0  0  0  0  3  0  0  0  0  0  0
  -23.3590  -10.5080   20.0740 C   0  0  0  0  0  3  0  0  0  0  0  0
  -21.7930   -7.4380   21.3230 O   0  0  0  0  0  0  0  0  0  0  0  0
  -21.5910   -6.7860   22.5120 C   0  0  0  0  0  0  0  0  0  0  0  0
  -21.3170   -7.4860   23.7070 C   0  0  0  0  0  3  0  0  0  0  0  0
  -21.0460   -6.7750   24.8930 C   0  0  0  0  0  3  0  0  0  0  0  0
  -21.0430   -5.3670   24.8860 C   0  0  0  0  0  0  0  0  0  0  0  0
  -21.3100   -4.6670   23.6950 C   0  0  0  0  0  3  0  0  0  0  0  0
  -21.5810   -5.3760   22.5120 C   0  0  0  0  0  0  0  0  0  0  0  0
  -21.8210   -4.6970   21.3630 F   0  0  0  0  0  0  0  0  0  0  0  0
  -20.7780   -4.6860   26.0240 F   0  0  0  0  0  0  0  0  0  0  0  0
  -24.1110  -13.7710   21.1750 C   0  0  0  0  0  0  0  0  0  0  0  0
  -23.4210  -13.2100   22.1620 N   0  0  0  0  0  0  0  0  0  0  0  0
  -23.7790  -14.8600   20.7090 O   0  0  0  0  0  0  0  0  0  0  0  0
  -23.6980  -12.3260   22.5600 H   0  0  0  0  0  0  0  0  0  0  0  0
  -22.6000  -13.6730   22.5250 H   0  0  0  0  0  0  0  0  0  0  0  0
  -26.8870  -14.9610   20.0730 N   0  0  0  0  0  0  0  0  0  0  0  0
  -26.2830  -15.7350   20.3230 H   0  0  0  0  0  0  0  0  0  0  0  0
  -27.7660  -15.2600   19.6710 H   0  0  0  0  0  0  0  0  0  0  0  0
  1 48  1  0
  2  3  1  0
  2  4  2  0
  3  1  1  0
  5  3  1  0
  6  7  1  0
  6  2  1  0
  7  9  1  0
  8 19  2  0
  9 14  1  0
 10 18  1  0
 10 20  1  0
 11 17  1  0
 11 13  1  0
 12 18  1  0
 13 12  1  0
 14 13  2  0
 15 16  1  0
 15  9  2  0
 16 11  2  0
 17 10  1  0
 18  8  1  0
 20 22  2  0
 21 20  1  0
 23 21  1  0
 24 33  2  0
 24 29  1  0
 25 21  1  0
 25 29  1  0
 26 25  1  0
 27 28  1  0
 27 26  1  0
 28 24  1  0
 29 30  2  0
 30 31  1  0
 32 31  2  0
 33 32  1  0
 34  8  1  0
 34 39  1  0
 34 35  1  0
 35 38  1  1
 35 36  1  0
 37 35  1  0
 39 42  1  0
 40 44  1  0
 40 39  1  0
 41 40  2  0
 44 43  1  0
 46 44  1  0
 46 47  1  0
 46 45  1  0
 48 49  1  0
 50 49  1  0
 50 51  1  0
 52 53  1  0
 52 51  1  0
 54 53  1  0
 55 61  1  0
 55 63  1  0
 56 61  1  0
 57 58  1  0
 57 56  1  0
 59 58  1  0
 59 68  1  0
 59 60  1  0
 61 60  1  0
 62 55  2  0
 63 54  1  0
 64 63  1  0
 65 66  2  0
 66 85  1  0
 67 66  1  0
 67 70  1  0
 68 69  1  0
 68 65  1  0
 69 67  2  0
 70 71  1  0
 71 72  2  0
 73 76  1  0
 73 72  1  0
 74 73  2  0
 75 74  1  0
 75 70  2  0
 76 77  1  0
 77 78  1  0
 78 79  2  0
 80 79  1  0
 80 84  1  0
 81 80  2  0
 82 77  2  0
 82 81  1  0
 83 82  1  0
 85 86  1  0
 86 89  1  0
 86 88  1  0
 87 85  2  0
 90 65  1  0
 90 91  1  0
 92 90  1  0
M  ISO  4   6 101   7 101  55 100  63 100
M  END
>  <TORSDO>  (26) 
F 25

>  <SCORE>  (26) 
-9.271

>  <name>  (26) 
25

>  <ligand_id>  (26) 
25

>  <original_smiles>  (26) 
[H]c1c([H])c([H])c2c(c1[H])C([H])([H])C([H])([H])C([H])([H])C2([H])N([H])C(=O)C1([H])N(C(=O)C([H])(N([H])C(=O)C([H])(N([H])C([H])([H])[H])C([H])([H])[H])C(C([H])([H])[H])(C([H])([H])[H])C([H])([H])[H])C([H])([H])c2c([H])c(OC([H])([H])C(=O)N([H])C([H])([H])C([H])([H])OC([H])([H])C([H])([H])OC([H])([H])C([H])([H])N([H])C(=O)N3C([H])([H])C([H])([H])C([H])([H])C([H])(n4nc(-c5c([H])c([H])c(Oc6c([H])c([H])c(F)c([H])c6F)c([H])c5[H])c(C(=O)N([H])[H])c4N([H])[H])C3([H])[H])c([H])c([H])c2C1([H])[H]

>  <smiles>  (26) 
[H]c1c([H])c([H])c2c(c1[H])C([H])([H])C([H])([H])C([H])([H])C2([H])N([H])C(=O)C1([H])N(C(=O)C([H])(N([H])C(=O)C([H])(N([H])C([H])([H])[H])C([H])([H])[H])C(C([H])([H])[H])(C([H])([H])[H])C([H])([H])[H])C([H])([H])c2c([H])c(OC([H])([H])C(=O)N([H])C([H])([H])C([H])([H])OC([H])([H])C([H])([H])OC([H])([H])C([H])([H])N([H])C(=O)N3C([H])([H])C([H])([H])C([H])([H])C([H])(n4nc(-c5c([H])c([H])c(Oc6c([H])c([H])c(F)c([H])c6F)c([H])c5[H])c(C(=O)N([H])[H])c4N([H])[H])C3([H])[H])c([H])c([H])c2C1([H])[H]

$$$$
26:0:0
     RDKit          3D

 84 91  0  0  1  0  0  0  0  0999 V2000
  -28.0360  -24.2690   20.5090 C   0  0  0  0  0  2  0  0  0  0  0  0
  -28.2220  -25.8810   20.2090 O   0  0  0  0  0  0  0  0  0  0  0  0
  -24.6160  -31.8370   23.1800 C   0  0  0  0  0  0  0  0  0  0  0  0
  -27.1870  -26.9520   20.2070 C   0  0  0  0  0  0  0  0  0  0  0  0
  -23.4240  -30.4230   21.5540 C   0  0  0  0  0  3  0  0  0  0  0  0
  -24.8760  -28.8110   20.1480 C   0  0  0  0  0  0  0  0  0  0  0  0
  -25.9900  -30.6480   21.3990 C   0  0  0  0  0  2  0  0  0  0  0  0
  -26.0650  -29.2330   20.7580 C   0  0  0  0  0  0  0  0  0  0  0  0
  -27.2180  -28.3250   20.7560 C   0  0  0  0  0  3  0  0  0  0  0  0
  -25.9650  -26.6750   19.5560 C   0  0  0  0  0  3  0  0  0  0  0  0
  -24.8500  -27.5530   19.5260 C   0  0  0  0  0  3  0  0  0  0  0  0
  -23.6540  -29.7270   20.1840 C   0  0  0  0  0  2  0  0  0  0  0  0
  -24.6980  -30.9970   22.0980 N   0  0  0  0  0  0  0  0  0  0  0  0
  -23.5260  -32.1260   23.7010 O   0  0  0  0  0  0  0  0  0  0  0  0
  -22.7360  -29.4330   22.5290 C   0  0  0  0  0  0  0  0  0  0  0  0
  -21.4040  -29.2710   22.4160 N   0  0  0  0  0  0  0  0  0  0  0  0
  -23.4070  -28.8080   23.3540 O   0  0  0  0  0  0  0  0  0  0  0  0
  -20.9170  -29.8260   21.7270 H   0  0  0  0  0  0  0  0  0  0  0  0
  -18.0230  -28.0690   22.9520 C   0  0  0  0  0  0  0  0  0  0  0  0
  -20.5850  -28.3390   23.1970 C   0  0  0  0  0  3  0  0  0  0  0  0
  -20.6840  -26.9040   22.6300 C   0  0  0  0  0  2  0  0  0  0  0  0
  -19.5750  -26.5740   21.6240 C   0  0  0  0  0  2  0  0  0  0  0  0
  -18.1970  -26.7180   22.2770 C   0  0  0  0  0  2  0  0  0  0  0  0
  -19.1440  -28.8370   23.3690 C   0  0  0  0  0  0  0  0  0  0  0  0
  -18.9240  -30.0980   23.9630 C   0  0  0  0  0  3  0  0  0  0  0  0
  -17.6200  -30.5940   24.1420 C   0  0  0  0  0  3  0  0  0  0  0  0
  -16.5140  -29.8250   23.7380 C   0  0  0  0  0  3  0  0  0  0  0  0
  -16.7170  -28.5640   23.1490 C   0  0  0  0  0  3  0  0  0  0  0  0
  -25.8860  -32.4890   23.8060 C   0  0  0  0  0  3  0  0  0  0  0  0
  -26.4090  -31.7230   25.0840 C   0  0  1  0  0  0  0  0  0  0  0  0
  -25.3200  -31.4800   26.1550 C   0  0  0  0  0  1  0  0  0  0  0  0
  -27.0000  -30.3470   24.6990 C   0  0  0  0  0  1  0  0  0  0  0  0
  -27.5570  -32.5240   25.7410 C   0  0  0  0  0  1  0  0  0  0  0  0
  -25.5550  -33.8830   24.1530 N   0  0  0  0  0  0  0  0  0  0  0  0
  -25.8660  -34.9530   23.4100 C   0  0  0  0  0  0  0  0  0  0  0  0
  -26.5250  -34.8730   22.3700 O   0  0  0  0  0  0  0  0  0  0  0  0
  -24.9660  -34.0180   24.9610 H   0  0  0  0  0  0  0  0  0  0  0  0
  -24.1090  -36.7340   23.1180 C   0  0  0  0  0  1  0  0  0  0  0  0
  -25.3720  -36.3320   23.8960 C   0  0  0  0  0  3  0  0  0  0  0  0
  -27.5150  -37.2360   24.6870 C   0  0  0  0  0  1  0  0  0  0  0  0
  -26.3890  -37.4000   23.7720 N   0  0  0  0  0  0  0  0  0  0  0  0
  -25.9750  -38.3130   23.9390 H   0  0  0  0  0  0  0  0  0  0  0  0
  -28.7190  -22.6990   19.9240 C   0  0  0  0  0  2  0  0  0  0  0  0
  -28.9900  -21.2170   20.5850 O   0  0  0  0  0  0  0  0  0  0  0  0
  -29.0780  -19.6810   19.9990 C   0  0  0  0  0  2  0  0  0  0  0  0
  -29.8810  -18.1670   20.5600 C   0  0  0  0  0  2  0  0  0  0  0  0
  -30.3820  -15.2640   20.2540 C   0  0  0  0  0  0  0  0  0  0  0  0
  -30.3490  -12.8260   19.3660 C   0  0  0  0  0  2  0  0  0  0  0  0
  -29.4210  -12.6110   18.1440 C   0  0  0  0  0  2  0  0  0  0  0  0
  -27.9740  -12.3490   18.5940 C   0  0  0  0  0  2  0  0  0  0  0  0
  -27.5290  -13.3180   19.7180 C   0  0  0  0  0  3  0  0  0  0  0  0
  -28.5830  -13.4670   20.8330 C   0  0  0  0  0  2  0  0  0  0  0  0
  -29.8060  -13.9670   20.1860 N   0  0  0  0  0  0  0  0  0  0  0  0
  -31.6080  -15.2630   20.0800 O   0  0  0  0  0  0  0  0  0  0  0  0
  -29.6180  -16.5330   20.3180 N   0  0  0  0  0  0  0  0  0  0  0  0
  -28.6290  -16.3280   20.3210 H   0  0  0  0  0  0  0  0  0  0  0  0
  -25.1610  -13.8840   20.4750 C   0  0  0  0  0  0  0  0  0  0  0  0
  -24.0990  -13.1090   20.8510 C   0  0  0  0  0  0  0  0  0  0  0  0
  -24.5680  -11.7590   20.8280 C   0  0  0  0  0  0  0  0  0  0  0  0
  -26.2030  -13.0060   20.2350 N   0  0  0  0  0  0  0  0  0  0  0  0
  -25.8590  -11.7220   20.5170 N   0  0  0  0  0  0  0  0  0  0  0  0
  -23.8400  -10.4970   21.0260 C   0  0  0  0  0  0  0  0  0  0  0  0
  -24.2820   -9.5240   21.9500 C   0  0  0  0  0  3  0  0  0  0  0  0
  -23.5520   -8.3310   22.1370 C   0  0  0  0  0  3  0  0  0  0  0  0
  -22.3660   -8.1010   21.4000 C   0  0  0  0  0  0  0  0  0  0  0  0
  -21.9430   -9.0620   20.4650 C   0  0  0  0  0  3  0  0  0  0  0  0
  -22.6730  -10.2470   20.2760 C   0  0  0  0  0  3  0  0  0  0  0  0
  -21.6060   -6.9600   21.4960 O   0  0  0  0  0  0  0  0  0  0  0  0
  -21.5890   -6.2020   22.6400 C   0  0  0  0  0  0  0  0  0  0  0  0
  -21.2240   -6.7480   23.8900 C   0  0  0  0  0  3  0  0  0  0  0  0
  -21.1520   -5.9180   25.0260 C   0  0  0  0  0  3  0  0  0  0  0  0
  -21.4340   -4.5440   24.9150 C   0  0  0  0  0  0  0  0  0  0  0  0
  -21.7920   -3.9970   23.6700 C   0  0  0  0  0  3  0  0  0  0  0  0
  -21.8660   -4.8250   22.5350 C   0  0  0  0  0  0  0  0  0  0  0  0
  -22.1910   -4.2890   21.3340 F   0  0  0  0  0  0  0  0  0  0  0  0
  -21.3580   -3.7440   26.0040 F   0  0  0  0  0  0  0  0  0  0  0  0
  -22.7020  -13.5880   21.1150 C   0  0  0  0  0  0  0  0  0  0  0  0
  -21.9740  -12.9020   21.9880 N   0  0  0  0  0  0  0  0  0  0  0  0
  -22.2660  -14.6070   20.5800 O   0  0  0  0  0  0  0  0  0  0  0  0
  -22.3410  -12.0790   22.4420 H   0  0  0  0  0  0  0  0  0  0  0  0
  -21.0360  -13.2060   22.2080 H   0  0  0  0  0  0  0  0  0  0  0  0
  -25.3200  -15.2530   20.2870 N   0  0  0  0  0  0  0  0  0  0  0  0
  -24.5470  -15.9020   20.3920 H   0  0  0  0  0  0  0  0  0  0  0  0
  -26.1550  -15.6900   19.9190 H   0  0  0  0  0  0  0  0  0  0  0  0
  2  1  1  0
  3 14  2  0
  4  2  1  0
  4  9  1  0
  5 13  1  0
  5 15  1  0
  6 12  1  0
  6  8  1  0
  7 13  1  0
  8  7  1  0
  9  8  2  0
 10  4  2  0
 11 10  1  0
 11  6  2  0
 12  5  1  0
 13  3  1  0
 15 17  2  0
 16 15  1  0
 18 16  1  0
 19 28  2  0
 19 24  1  0
 20 16  1  0
 20 24  1  0
 21 20  1  0
 22 23  1  0
 22 21  1  0
 23 19  1  0
 24 25  2  0
 25 26  1  0
 27 26  2  0
 28 27  1  0
 29  3  1  0
 29 34  1  0
 29 30  1  0
 30 33  1  1
 30 31  1  0
 32 30  1  0
 34 37  1  0
 35 39  1  0
 35 34  1  0
 36 35  2  0
 39 38  1  0
 41 39  1  0
 41 42  1  0
 41 40  1  0
 43  1  1  0
 43 44  1  0
 45 46  1  0
 45 44  1  0
 47 55  1  0
 48 53  1  0
 49 50  1  0
 49 48  1  0
 51 50  1  0
 51 60  1  0
 51 52  1  0
 53 47  1  0
 53 52  1  0
 54 47  2  0
 55 56  1  0
 55 46  1  0
 57 58  2  0
 58 77  1  0
 59 58  1  0
 59 62  1  0
 60 57  1  0
 60 61  1  0
 61 59  2  0
 62 63  1  0
 63 64  2  0
 65 68  1  0
 65 64  1  0
 66 65  2  0
 67 66  1  0
 67 62  2  0
 68 69  1  0
 69 70  1  0
 70 71  2  0
 72 71  1  0
 72 76  1  0
 73 72  2  0
 74 69  2  0
 74 73  1  0
 75 74  1  0
 77 78  1  0
 78 81  1  0
 78 80  1  0
 79 77  2  0
 82 83  1  0
 82 57  1  0
 84 82  1  0
M  ISO  4   1 101   2 101  47 100  55 100
M  END
>  <TORSDO>  (27) 
F 20

>  <SCORE>  (27) 
-15.761

>  <name>  (27) 
26

>  <ligand_id>  (27) 
26

>  <original_smiles>  (27) 
[H]c1c([H])c([H])c2c(c1[H])C([H])([H])C([H])([H])C([H])([H])C2([H])N([H])C(=O)C1([H])N(C(=O)C([H])(N([H])C(=O)C([H])(N([H])C([H])([H])[H])C([H])([H])[H])C(C([H])([H])[H])(C([H])([H])[H])C([H])([H])[H])C([H])([H])c2c([H])c(OC([H])([H])C([H])([H])OC([H])([H])C([H])([H])N([H])C(=O)N3C([H])([H])C([H])([H])C([H])([H])C([H])(n4nc(-c5c([H])c([H])c(Oc6c([H])c([H])c(F)c([H])c6F)c([H])c5[H])c(C(=O)N([H])[H])c4N([H])[H])C3([H])[H])c([H])c([H])c2C1([H])[H]

>  <smiles>  (27) 
[H]c1c([H])c([H])c2c(c1[H])C([H])([H])C([H])([H])C([H])([H])C2([H])N([H])C(=O)C1([H])N(C(=O)C([H])(N([H])C(=O)C([H])(N([H])C([H])([H])[H])C([H])([H])[H])C(C([H])([H])[H])(C([H])([H])[H])C([H])([H])[H])C([H])([H])c2c([H])c(OC([H])([H])C([H])([H])OC([H])([H])C([H])([H])N([H])C(=O)N3C([H])([H])C([H])([H])C([H])([H])C([H])(n4nc(-c5c([H])c([H])c(Oc6c([H])c([H])c(F)c([H])c6F)c([H])c5[H])c(C(=O)N([H])[H])c4N([H])[H])C3([H])[H])c([H])c([H])c2C1([H])[H]

$$$$
27:0:0
     RDKit          3D

 91 98  0  0  1  0  0  0  0  0999 V2000
  -28.1180  -24.6440   20.8180 C   0  0  0  0  0  0  0  0  0  0  0  0
  -27.2630  -23.7120   20.3860 N   0  0  0  0  0  0  0  0  0  0  0  0
  -28.4500  -24.7430   22.0030 O   0  0  0  0  0  0  0  0  0  0  0  0
  -27.0320  -23.7030   19.4010 H   0  0  0  0  0  0  0  0  0  0  0  0
  -26.7390  -22.6090   21.1860 C   0  0  0  0  0  2  0  0  0  0  0  0
  -26.8040  -21.3110   20.3720 C   0  0  0  0  0  2  0  0  0  0  0  0
  -28.1430  -21.1030   19.9280 O   0  0  0  0  0  0  0  0  0  0  0  0
  -28.2770  -20.0430   18.9860 C   0  0  0  0  0  2  0  0  0  0  0  0
  -28.1410  -18.6590   19.6340 C   0  0  0  0  0  2  0  0  0  0  0  0
  -29.3230  -18.3670   20.3690 O   0  0  0  0  0  0  0  0  0  0  0  0
  -29.4490  -16.9750   20.5990 C   0  0  0  0  0  2  0  0  0  0  0  0
  -30.6600  -16.6350   21.4760 C   0  0  0  0  0  2  0  0  0  0  0  0
  -30.6550  -15.2250   21.6290 O   0  0  0  0  0  0  0  0  0  0  0  0
  -31.2420  -14.4480   20.7040 C   0  0  0  0  0  0  0  0  0  0  0  0
  -30.8750  -12.3250   19.4580 C   0  0  0  0  0  2  0  0  0  0  0  0
  -29.9620  -12.5500   18.2370 C   0  0  0  0  0  2  0  0  0  0  0  0
  -28.4750  -12.4590   18.6340 C   0  0  0  0  0  2  0  0  0  0  0  0
  -28.1310  -13.3410   19.8640 C   0  0  0  0  0  3  0  0  0  0  0  0
  -29.1310  -13.0630   21.0090 C   0  0  0  0  0  2  0  0  0  0  0  0
  -30.4930  -13.2860   20.4940 N   0  0  0  0  0  0  0  0  0  0  0  0
  -32.2700  -14.7620   20.0990 O   0  0  0  0  0  0  0  0  0  0  0  0
  -25.7330  -14.0720   20.4600 C   0  0  0  0  0  0  0  0  0  0  0  0
  -24.6200  -13.3550   20.7990 C   0  0  0  0  0  0  0  0  0  0  0  0
  -25.0190  -11.9840   20.8000 C   0  0  0  0  0  0  0  0  0  0  0  0
  -26.7480  -13.1420   20.2890 N   0  0  0  0  0  0  0  0  0  0  0  0
  -26.3160  -11.8820   20.5430 N   0  0  0  0  0  0  0  0  0  0  0  0
  -24.2320  -10.7570   20.9750 C   0  0  0  0  0  0  0  0  0  0  0  0
  -24.5960   -9.7770   21.9250 C   0  0  0  0  0  3  0  0  0  0  0  0
  -23.8130   -8.6130   22.0870 C   0  0  0  0  0  3  0  0  0  0  0  0
  -22.6530   -8.4220   21.2990 C   0  0  0  0  0  0  0  0  0  0  0  0
  -22.3100   -9.3910   20.3400 C   0  0  0  0  0  3  0  0  0  0  0  0
  -23.0920  -10.5450   20.1740 C   0  0  0  0  0  3  0  0  0  0  0  0
  -21.8460   -7.3120   21.3710 O   0  0  0  0  0  0  0  0  0  0  0  0
  -21.7310   -6.5790   22.5250 C   0  0  0  0  0  0  0  0  0  0  0  0
  -21.3060   -7.1620   23.7390 C   0  0  0  0  0  3  0  0  0  0  0  0
  -21.1350   -6.3580   24.8840 C   0  0  0  0  0  3  0  0  0  0  0  0
  -21.3780   -4.9730   24.8150 C   0  0  0  0  0  0  0  0  0  0  0  0
  -21.7970   -4.3910   23.6060 C   0  0  0  0  0  3  0  0  0  0  0  0
  -21.9710   -5.1920   22.4640 C   0  0  0  0  0  0  0  0  0  0  0  0
  -22.3530   -4.6220   21.2950 F   0  0  0  0  0  0  0  0  0  0  0  0
  -21.2080   -4.1990   25.9120 F   0  0  0  0  0  0  0  0  0  0  0  0
  -23.2340  -13.8960   21.0140 C   0  0  0  0  0  0  0  0  0  0  0  0
  -22.4480  -13.2500   21.8670 N   0  0  0  0  0  0  0  0  0  0  0  0
  -22.8590  -14.9290   20.4630 O   0  0  0  0  0  0  0  0  0  0  0  0
  -22.7570  -12.4110   22.3370 H   0  0  0  0  0  0  0  0  0  0  0  0
  -21.5180  -13.5990   22.0540 H   0  0  0  0  0  0  0  0  0  0  0  0
  -25.9630  -15.4300   20.2590 N   0  0  0  0  0  0  0  0  0  0  0  0
  -25.2040  -16.1020   20.2470 H   0  0  0  0  0  0  0  0  0  0  0  0
  -26.8330  -15.8030   19.9070 H   0  0  0  0  0  0  0  0  0  0  0  0
  -28.6880  -25.6110   19.7700 C   0  0  0  0  0  2  0  0  0  0  0  0
  -28.5770  -26.9600   20.2260 O   0  0  0  0  0  0  0  0  0  0  0  0
  -24.5580  -31.9490   23.2740 C   0  0  0  0  0  0  0  0  0  0  0  0
  -27.3500  -27.5880   20.2200 C   0  0  0  0  0  0  0  0  0  0  0  0
  -23.4030  -30.5150   21.6210 C   0  0  0  0  0  3  0  0  0  0  0  0
  -24.9080  -29.0140   20.2160 C   0  0  0  0  0  0  0  0  0  0  0  0
  -25.9210  -30.9390   21.4500 C   0  0  0  0  0  2  0  0  0  0  0  0
  -26.0440  -29.5700   20.8150 C   0  0  0  0  0  0  0  0  0  0  0  0
  -27.2660  -28.8640   20.8150 C   0  0  0  0  0  3  0  0  0  0  0  0
  -26.1880  -27.0340   19.6310 C   0  0  0  0  0  3  0  0  0  0  0  0
  -24.9740  -27.7420   19.6230 C   0  0  0  0  0  3  0  0  0  0  0  0
  -23.6440  -29.8400   20.2460 C   0  0  0  0  0  2  0  0  0  0  0  0
  -24.6450  -31.1490   22.1730 N   0  0  0  0  0  0  0  0  0  0  0  0
  -23.4640  -32.1960   23.8010 O   0  0  0  0  0  0  0  0  0  0  0  0
  -22.7710  -29.4750   22.5760 C   0  0  0  0  0  0  0  0  0  0  0  0
  -21.4510  -29.2730   22.4490 N   0  0  0  0  0  0  0  0  0  0  0  0
  -23.4670  -28.8580   23.3880 O   0  0  0  0  0  0  0  0  0  0  0  0
  -20.9520  -29.8310   21.7710 H   0  0  0  0  0  0  0  0  0  0  0  0
  -18.0950  -28.0290   22.9350 C   0  0  0  0  0  0  0  0  0  0  0  0
  -20.6490  -28.3150   23.2100 C   0  0  0  0  0  3  0  0  0  0  0  0
  -20.7700  -26.8930   22.6160 C   0  0  0  0  0  2  0  0  0  0  0  0
  -19.6720  -26.5710   21.5990 C   0  0  0  0  0  2  0  0  0  0  0  0
  -18.2890  -26.6880   22.2480 C   0  0  0  0  0  2  0  0  0  0  0  0
  -19.2040  -28.8010   23.3730 C   0  0  0  0  0  0  0  0  0  0  0  0
  -18.9680  -30.0590   23.9700 C   0  0  0  0  0  3  0  0  0  0  0  0
  -17.6560  -30.5450   24.1350 C   0  0  0  0  0  3  0  0  0  0  0  0
  -16.5640  -29.7670   23.7160 C   0  0  0  0  0  3  0  0  0  0  0  0
  -16.7830  -28.5110   23.1200 C   0  0  0  0  0  3  0  0  0  0  0  0
  -25.8220  -32.6110   23.9050 C   0  0  0  0  0  3  0  0  0  0  0  0
  -26.3160  -31.8830   25.2170 C   0  0  1  0  0  0  0  0  0  0  0  0
  -25.1980  -31.6650   26.2630 C   0  0  0  0  0  1  0  0  0  0  0  0
  -26.9230  -30.5020   24.8780 C   0  0  0  0  0  1  0  0  0  0  0  0
  -27.4400  -32.7110   25.8820 C   0  0  0  0  0  1  0  0  0  0  0  0
  -25.4920  -34.0160   24.1780 N   0  0  0  0  0  0  0  0  0  0  0  0
  -25.8410  -35.0440   23.3930 C   0  0  0  0  0  0  0  0  0  0  0  0
  -26.5420  -34.9110   22.3870 O   0  0  0  0  0  0  0  0  0  0  0  0
  -24.8670  -34.1930   24.9510 H   0  0  0  0  0  0  0  0  0  0  0  0
  -24.1050  -36.8040   22.9310 C   0  0  0  0  0  1  0  0  0  0  0  0
  -25.3290  -36.4420   23.7870 C   0  0  0  0  0  3  0  0  0  0  0  0
  -27.4370  -37.3750   24.6330 C   0  0  0  0  0  1  0  0  0  0  0  0
  -26.3550  -37.5010   23.6610 N   0  0  0  0  0  0  0  0  0  0  0  0
  -25.9370  -38.4210   23.7650 H   0  0  0  0  0  0  0  0  0  0  0  0
  1  3  2  0
  2  1  1  0
  2  5  1  0
  4  2  1  0
  6  5  1  0
  7  6  1  0
  8  9  1  0
  8  7  1  0
  9 10  1  0
 10 11  1  0
 11 12  1  0
 12 13  1  0
 14 13  1  0
 15 20  1  0
 16 17  1  0
 16 15  1  0
 18 17  1  0
 18 25  1  0
 18 19  1  0
 20 14  1  0
 20 19  1  0
 21 14  2  0
 22 23  2  0
 23 24  1  0
 23 42  1  0
 24 27  1  0
 25 22  1  0
 25 26  1  0
 26 24  2  0
 27 28  1  0
 28 29  2  0
 30 33  1  0
 30 29  1  0
 31 30  2  0
 32 31  1  0
 32 27  2  0
 33 34  1  0
 34 35  1  0
 35 36  2  0
 37 36  1  0
 37 41  1  0
 38 37  2  0
 39 34  2  0
 39 38  1  0
 40 39  1  0
 42 43  1  0
 43 46  1  0
 43 45  1  0
 44 42  2  0
 47 22  1  0
 48 47  1  0
 49 47  1  0
 50 51  1  0
 50  1  1  0
 52 63  2  0
 53 51  1  0
 53 58  1  0
 54 62  1  0
 54 64  1  0
 55 61  1  0
 55 57  1  0
 56 62  1  0
 57 56  1  0
 58 57  2  0
 59 53  2  0
 60 59  1  0
 60 55  2  0
 61 54  1  0
 62 52  1  0
 64 66  2  0
 65 64  1  0
 67 65  1  0
 68 77  2  0
 68 73  1  0
 69 65  1  0
 69 73  1  0
 70 69  1  0
 71 72  1  0
 71 70  1  0
 72 68  1  0
 73 74  2  0
 74 75  1  0
 76 75  2  0
 77 76  1  0
 78 52  1  0
 78 83  1  0
 78 79  1  0
 79 82  1  1
 79 80  1  0
 81 79  1  0
 83 86  1  0
 84 88  1  0
 84 83  1  0
 85 84  2  0
 88 87  1  0
 90 91  1  0
 90 88  1  0
 90 89  1  0
M  ISO  4  13 100  14 100  50 101  51 101
M  END
>  <TORSDO>  (28) 
F 26

>  <SCORE>  (28) 
-11.056

>  <name>  (28) 
27

>  <ligand_id>  (28) 
27

>  <original_smiles>  (28) 
[H]c1c([H])c([H])c2c(c1[H])C([H])([H])C([H])([H])C([H])([H])C2([H])N([H])C(=O)C1([H])N(C(=O)C([H])(N([H])C(=O)C([H])(N([H])C([H])([H])[H])C([H])([H])[H])C(C([H])([H])[H])(C([H])([H])[H])C([H])([H])[H])C([H])([H])c2c([H])c(OC([H])([H])C(=O)N([H])C([H])([H])C([H])([H])OC([H])([H])C([H])([H])OC([H])([H])C([H])([H])OC(=O)N3C([H])([H])C([H])([H])C([H])([H])C([H])(n4nc(-c5c([H])c([H])c(Oc6c([H])c([H])c(F)c([H])c6F)c([H])c5[H])c(C(=O)N([H])[H])c4N([H])[H])C3([H])[H])c([H])c([H])c2C1([H])[H]

>  <smiles>  (28) 
[H]c1c([H])c([H])c2c(c1[H])C([H])([H])C([H])([H])C([H])([H])C2([H])N([H])C(=O)C1([H])N(C(=O)C([H])(N([H])C(=O)C([H])(N([H])C([H])([H])[H])C([H])([H])[H])C(C([H])([H])[H])(C([H])([H])[H])C([H])([H])[H])C([H])([H])c2c([H])c(OC([H])([H])C(=O)N([H])C([H])([H])C([H])([H])OC([H])([H])C([H])([H])OC([H])([H])C([H])([H])OC(=O)N3C([H])([H])C([H])([H])C([H])([H])C([H])(n4nc(-c5c([H])c([H])c(Oc6c([H])c([H])c(F)c([H])c6F)c([H])c5[H])c(C(=O)N([H])[H])c4N([H])[H])C3([H])[H])c([H])c([H])c2C1([H])[H]

$$$$
28:0:0
     RDKit          3D

 86 93  0  0  1  0  0  0  0  0999 V2000
  -28.8370  -22.7640   20.5210 C   0  0  0  0  0  3  0  0  0  0  0  0
  -29.3040  -19.8370   20.4720 C   0  0  0  0  0  0  0  0  0  0  0  0
  -29.1010  -21.2080   19.9240 N   0  0  0  0  0  0  0  0  0  0  0  0
  -29.0370  -19.7210   21.6680 O   0  0  0  0  0  0  0  0  0  0  0  0
  -29.2830  -21.2270   18.9280 H   0  0  0  0  0  0  0  0  0  0  0  0
  -29.9160  -18.3420   19.7690 C   0  0  0  0  0  2  0  0  0  0  0  0
  -30.5450  -15.4350   19.9120 C   0  0  0  0  0  0  0  0  0  0  0  0
  -30.4730  -13.0020   18.9930 C   0  0  0  0  0  2  0  0  0  0  0  0
  -29.4800  -12.8250   17.8150 C   0  0  0  0  0  2  0  0  0  0  0  0
  -28.0620  -12.5370   18.3380 C   0  0  0  0  0  2  0  0  0  0  0  0
  -27.6820  -13.4660   19.5160 C   0  0  0  0  0  3  0  0  0  0  0  0
  -28.7990  -13.5920   20.5770 C   0  0  0  0  0  2  0  0  0  0  0  0
  -29.9860  -14.1210   19.8860 N   0  0  0  0  0  0  0  0  0  0  0  0
  -31.7310  -15.4470   19.5520 O   0  0  0  0  0  0  0  0  0  0  0  0
  -29.7910  -16.7020   20.1270 N   0  0  0  0  0  0  0  0  0  0  0  0
  -28.8680  -16.4950   20.4780 H   0  0  0  0  0  0  0  0  0  0  0  0
  -25.3690  -13.9960   20.4450 C   0  0  0  0  0  0  0  0  0  0  0  0
  -24.3330  -13.2060   20.8550 C   0  0  0  0  0  0  0  0  0  0  0  0
  -24.7930  -11.8580   20.7430 C   0  0  0  0  0  0  0  0  0  0  0  0
  -26.3910  -13.1300   20.1000 N   0  0  0  0  0  0  0  0  0  0  0  0
  -26.0610  -11.8360   20.3460 N   0  0  0  0  0  0  0  0  0  0  0  0
  -24.0760  -10.5890   20.9320 C   0  0  0  0  0  0  0  0  0  0  0  0
  -24.5270   -9.6140   21.8480 C   0  0  0  0  0  3  0  0  0  0  0  0
  -23.8060   -8.4140   22.0280 C   0  0  0  0  0  3  0  0  0  0  0  0
  -22.6190   -8.1800   21.2940 C   0  0  0  0  0  0  0  0  0  0  0  0
  -22.1860   -9.1460   20.3670 C   0  0  0  0  0  3  0  0  0  0  0  0
  -22.9080  -10.3370   20.1840 C   0  0  0  0  0  3  0  0  0  0  0  0
  -21.8680   -7.0330   21.3840 O   0  0  0  0  0  0  0  0  0  0  0  0
  -21.8000   -6.3070   22.5460 C   0  0  0  0  0  0  0  0  0  0  0  0
  -21.3120   -6.8670   23.7470 C   0  0  0  0  0  3  0  0  0  0  0  0
  -21.1940   -6.0650   24.9000 C   0  0  0  0  0  3  0  0  0  0  0  0
  -21.5530   -4.7060   24.8530 C   0  0  0  0  0  0  0  0  0  0  0  0
  -22.0340   -4.1450   23.6560 C   0  0  0  0  0  3  0  0  0  0  0  0
  -22.1530   -4.9440   22.5060 C   0  0  0  0  0  0  0  0  0  0  0  0
  -22.5970   -4.3930   21.3500 F   0  0  0  0  0  0  0  0  0  0  0  0
  -21.4340   -3.9340   25.9590 F   0  0  0  0  0  0  0  0  0  0  0  0
  -22.9580  -13.6740   21.2300 C   0  0  0  0  0  0  0  0  0  0  0  0
  -22.2850  -12.9510   22.1170 N   0  0  0  0  0  0  0  0  0  0  0  0
  -22.4910  -14.7170   20.7720 O   0  0  0  0  0  0  0  0  0  0  0  0
  -22.6760  -12.1070   22.5080 H   0  0  0  0  0  0  0  0  0  0  0  0
  -21.3640  -13.2450   22.4110 H   0  0  0  0  0  0  0  0  0  0  0  0
  -25.5210  -15.3730   20.3060 N   0  0  0  0  0  0  0  0  0  0  0  0
  -24.7590  -16.0170   20.4850 H   0  0  0  0  0  0  0  0  0  0  0  0
  -26.3290  -15.8220   19.8970 H   0  0  0  0  0  0  0  0  0  0  0  0
  -28.1150  -24.3050   19.8790 C   0  0  0  0  0  3  0  0  0  0  0  0
  -28.1940  -25.9180   20.2780 O   0  0  0  0  0  0  0  0  0  0  0  0
  -24.5950  -31.8880   23.1940 C   0  0  0  0  0  0  0  0  0  0  0  0
  -27.1750  -27.0110   20.1740 C   0  0  0  0  0  0  0  0  0  0  0  0
  -23.4050  -30.4810   21.5610 C   0  0  0  0  0  3  0  0  0  0  0  0
  -24.8610  -28.8830   20.1320 C   0  0  0  0  0  0  0  0  0  0  0  0
  -25.9690  -30.7060   21.4070 C   0  0  0  0  0  2  0  0  0  0  0  0
  -26.0460  -29.2950   20.7520 C   0  0  0  0  0  0  0  0  0  0  0  0
  -27.1940  -28.3790   20.7500 C   0  0  0  0  0  3  0  0  0  0  0  0
  -25.9610  -26.7580   19.4960 C   0  0  0  0  0  3  0  0  0  0  0  0
  -24.8440  -27.6370   19.4830 C   0  0  0  0  0  3  0  0  0  0  0  0
  -23.6350  -29.7950   20.1850 C   0  0  0  0  0  2  0  0  0  0  0  0
  -24.6780  -31.0530   22.1080 N   0  0  0  0  0  0  0  0  0  0  0  0
  -23.5050  -32.1710   23.7190 O   0  0  0  0  0  0  0  0  0  0  0  0
  -22.7210  -29.4820   22.5320 C   0  0  0  0  0  0  0  0  0  0  0  0
  -21.3910  -29.3080   22.4130 N   0  0  0  0  0  0  0  0  0  0  0  0
  -23.3930  -28.8650   23.3630 O   0  0  0  0  0  0  0  0  0  0  0  0
  -20.9010  -29.8570   21.7200 H   0  0  0  0  0  0  0  0  0  0  0  0
  -18.0190  -28.0780   22.9440 C   0  0  0  0  0  0  0  0  0  0  0  0
  -20.5790  -28.3650   23.1900 C   0  0  0  0  0  3  0  0  0  0  0  0
  -20.6870  -26.9330   22.6150 C   0  0  0  0  0  2  0  0  0  0  0  0
  -19.5810  -26.6030   21.6070 C   0  0  0  0  0  2  0  0  0  0  0  0
  -18.2020  -26.7330   22.2610 C   0  0  0  0  0  2  0  0  0  0  0  0
  -19.1340  -28.8510   23.3650 C   0  0  0  0  0  0  0  0  0  0  0  0
  -18.9060  -30.1080   23.9670 C   0  0  0  0  0  3  0  0  0  0  0  0
  -17.5960  -30.5930   24.1480 C   0  0  0  0  0  3  0  0  0  0  0  0
  -16.4970  -29.8180   23.7400 C   0  0  0  0  0  3  0  0  0  0  0  0
  -16.7080  -28.5620   23.1440 C   0  0  0  0  0  3  0  0  0  0  0  0
  -25.8630  -32.5410   23.8220 C   0  0  0  0  0  3  0  0  0  0  0  0
  -26.3680  -31.7940   25.1190 C   0  0  1  0  0  0  0  0  0  0  0  0
  -25.2640  -31.5700   26.1790 C   0  0  0  0  0  1  0  0  0  0  0  0
  -26.9610  -30.4120   24.7640 C   0  0  0  0  0  1  0  0  0  0  0  0
  -27.5080  -32.6040   25.7790 C   0  0  0  0  0  1  0  0  0  0  0  0
  -25.5400  -33.9440   24.1420 N   0  0  0  0  0  0  0  0  0  0  0  0
  -25.8640  -35.0000   23.3830 C   0  0  0  0  0  0  0  0  0  0  0  0
  -26.5290  -34.8960   22.3480 O   0  0  0  0  0  0  0  0  0  0  0  0
  -24.9480  -34.0970   24.9440 H   0  0  0  0  0  0  0  0  0  0  0  0
  -24.1290  -36.7940   23.0420 C   0  0  0  0  0  1  0  0  0  0  0  0
  -25.3790  -36.3910   23.8420 C   0  0  0  0  0  3  0  0  0  0  0  0
  -27.5130  -37.2930   24.6600 C   0  0  0  0  0  1  0  0  0  0  0  0
  -26.4080  -37.4470   23.7170 N   0  0  0  0  0  0  0  0  0  0  0  0
  -25.9980  -38.3670   23.8570 H   0  0  0  0  0  0  0  0  0  0  0  0
  2  4  2  0
  3  2  1  0
  3  1  1  0
  5  3  1  0
  6 15  1  0
  6  2  1  0
  7 15  1  0
  8 13  1  0
  9 10  1  0
  9  8  1  0
 11 10  1  0
 11 20  1  0
 11 12  1  0
 13  7  1  0
 13 12  1  0
 14  7  2  0
 15 16  1  0
 17 18  2  0
 18 37  1  0
 19 18  1  0
 19 22  1  0
 20 21  1  0
 20 17  1  0
 21 19  2  0
 22 23  1  0
 23 24  2  0
 25 28  1  0
 25 24  1  0
 26 25  2  0
 27 26  1  0
 27 22  2  0
 28 29  1  0
 29 30  1  0
 30 31  2  0
 32 31  1  0
 32 36  1  0
 33 32  2  0
 34 29  2  0
 34 33  1  0
 35 34  1  0
 37 38  1  0
 38 41  1  0
 38 40  1  0
 39 37  2  0
 42 17  1  0
 42 43  1  0
 44 42  1  0
 45 46  1  0
 45  1  2  0
 47 58  2  0
 48 46  1  0
 48 53  1  0
 49 57  1  0
 49 59  1  0
 50 56  1  0
 50 52  1  0
 51 57  1  0
 52 51  1  0
 53 52  2  0
 54 48  2  0
 55 54  1  0
 55 50  2  0
 56 49  1  0
 57 47  1  0
 59 61  2  0
 60 59  1  0
 62 60  1  0
 63 72  2  0
 63 68  1  0
 64 60  1  0
 64 68  1  0
 65 64  1  0
 66 67  1  0
 66 65  1  0
 67 63  1  0
 68 69  2  0
 69 70  1  0
 71 70  2  0
 72 71  1  0
 73 47  1  0
 73 78  1  0
 73 74  1  0
 74 77  1  1
 74 75  1  0
 76 74  1  0
 78 81  1  0
 79 83  1  0
 79 78  1  0
 80 79  2  0
 83 82  1  0
 85 83  1  0
 85 86  1  0
 85 84  1  0
M  ISO  4   7 100  15 100  45 101  46 101
M  END
>  <TORSDO>  (29) 
F 19

>  <SCORE>  (29) 
-15.612

>  <name>  (29) 
28

>  <ligand_id>  (29) 
28

>  <original_smiles>  (29) 
[H]c1c([H])c([H])c2c(c1[H])C([H])([H])C([H])([H])C([H])([H])C2([H])N([H])C(=O)C1([H])N(C(=O)C([H])(N([H])C(=O)C([H])(N([H])C([H])([H])[H])C([H])([H])[H])C(C([H])([H])[H])(C([H])([H])[H])C([H])([H])[H])C([H])([H])c2c([H])c(OC([H])([H])C([H])([H])N([H])C(=O)C([H])([H])N([H])C(=O)N3C([H])([H])C([H])([H])C([H])([H])C([H])(n4nc(-c5c([H])c([H])c(Oc6c([H])c([H])c(F)c([H])c6F)c([H])c5[H])c(C(=O)N([H])[H])c4N([H])[H])C3([H])[H])c([H])c([H])c2C1([H])[H]

>  <smiles>  (29) 
[H]c1c([H])c([H])c2c(c1[H])C([H])([H])C([H])([H])C([H])([H])C2([H])N([H])C(=O)C1([H])N(C(=O)C([H])(N([H])C(=O)C([H])(N([H])C([H])([H])[H])C([H])([H])[H])C(C([H])([H])[H])(C([H])([H])[H])C([H])([H])[H])C([H])([H])c2c([H])c(OC([H])([H])C([H])([H])N([H])C(=O)C([H])([H])N([H])C(=O)N3C([H])([H])C([H])([H])C([H])([H])C([H])(n4nc(-c5c([H])c([H])c(Oc6c([H])c([H])c(F)c([H])c6F)c([H])c5[H])c(C(=O)N([H])[H])c4N([H])[H])C3([H])[H])c([H])c([H])c2C1([H])[H]

$$$$
29:0:0
     RDKit          3D

 87 94  0  0  1  0  0  0  0  0999 V2000
  -29.1130  -22.7980   20.1480 O   0  0  0  0  0  0  0  0  0  0  0  0
  -29.2650  -24.1800   20.5710 C   0  0  0  0  0  2  0  0  0  0  0  0
  -28.1950  -25.1410   19.9510 C   0  0  0  0  0  2  0  0  0  0  0  0
  -28.3440  -26.5690   20.2300 O   0  0  0  0  0  0  0  0  0  0  0  0
  -24.6030  -31.8820   23.2540 C   0  0  0  0  0  0  0  0  0  0  0  0
  -27.2030  -27.3700   20.1730 C   0  0  0  0  0  0  0  0  0  0  0  0
  -23.3880  -30.4910   21.6140 C   0  0  0  0  0  3  0  0  0  0  0  0
  -24.8290  -28.9470   20.1790 C   0  0  0  0  0  0  0  0  0  0  0  0
  -25.9230  -30.8160   21.4190 C   0  0  0  0  0  2  0  0  0  0  0  0
  -25.9960  -29.4430   20.7740 C   0  0  0  0  0  0  0  0  0  0  0  0
  -27.1840  -28.6630   20.7670 C   0  0  0  0  0  3  0  0  0  0  0  0
  -26.0140  -26.9200   19.5460 C   0  0  0  0  0  3  0  0  0  0  0  0
  -24.8370  -27.6890   19.5590 C   0  0  0  0  0  3  0  0  0  0  0  0
  -23.5920  -29.8180   20.2320 C   0  0  0  0  0  2  0  0  0  0  0  0
  -24.6560  -31.0790   22.1530 N   0  0  0  0  0  0  0  0  0  0  0  0
  -23.5240  -32.1610   23.7950 O   0  0  0  0  0  0  0  0  0  0  0  0
  -22.7290  -29.4710   22.5730 C   0  0  0  0  0  0  0  0  0  0  0  0
  -21.4040  -29.2960   22.4460 N   0  0  0  0  0  0  0  0  0  0  0  0
  -23.4090  -28.8420   23.3890 O   0  0  0  0  0  0  0  0  0  0  0  0
  -20.9160  -29.8550   21.7610 H   0  0  0  0  0  0  0  0  0  0  0  0
  -18.0240  -28.1080   22.9390 C   0  0  0  0  0  0  0  0  0  0  0  0
  -20.5820  -28.3620   23.2170 C   0  0  0  0  0  3  0  0  0  0  0  0
  -20.6820  -26.9290   22.6440 C   0  0  0  0  0  2  0  0  0  0  0  0
  -19.5830  -26.6070   21.6270 C   0  0  0  0  0  2  0  0  0  0  0  0
  -18.2000  -26.7570   22.2670 C   0  0  0  0  0  2  0  0  0  0  0  0
  -19.1430  -28.8680   23.3700 C   0  0  0  0  0  0  0  0  0  0  0  0
  -18.9250  -30.1340   23.9590 C   0  0  0  0  0  3  0  0  0  0  0  0
  -17.6220  -30.6390   24.1180 C   0  0  0  0  0  3  0  0  0  0  0  0
  -16.5170  -29.8760   23.7040 C   0  0  0  0  0  3  0  0  0  0  0  0
  -16.7190  -28.6120   23.1200 C   0  0  0  0  0  3  0  0  0  0  0  0
  -25.8930  -32.5060   23.8720 C   0  0  0  0  0  3  0  0  0  0  0  0
  -26.4080  -31.7310   25.1470 C   0  0  1  0  0  0  0  0  0  0  0  0
  -25.3180  -31.5010   26.2190 C   0  0  0  0  0  1  0  0  0  0  0  0
  -26.9820  -30.3500   24.7520 C   0  0  0  0  0  1  0  0  0  0  0  0
  -27.5640  -32.5190   25.8080 C   0  0  0  0  0  1  0  0  0  0  0  0
  -25.5920  -33.9060   24.2030 N   0  0  0  0  0  0  0  0  0  0  0  0
  -25.9250  -34.9570   23.4410 C   0  0  0  0  0  0  0  0  0  0  0  0
  -26.5890  -34.8480   22.4060 O   0  0  0  0  0  0  0  0  0  0  0  0
  -25.0030  -34.0650   25.0080 H   0  0  0  0  0  0  0  0  0  0  0  0
  -24.2020  -36.7560   23.0930 C   0  0  0  0  0  1  0  0  0  0  0  0
  -25.4460  -36.3470   23.8980 C   0  0  0  0  0  3  0  0  0  0  0  0
  -27.5900  -37.2240   24.7140 C   0  0  0  0  0  1  0  0  0  0  0  0
  -26.4820  -37.3950   23.7780 N   0  0  0  0  0  0  0  0  0  0  0  0
  -26.0800  -38.3170   23.9270 H   0  0  0  0  0  0  0  0  0  0  0  0
  -29.8660  -21.8260   20.9130 C   0  0  0  0  0  2  0  0  0  0  0  0
  -29.9940  -20.3890   20.2800 C   0  0  0  0  0  2  0  0  0  0  0  0
  -29.6060  -19.3250   21.1790 O   0  0  0  0  0  0  0  0  0  0  0  0
  -30.3560  -18.0820   21.1900 C   0  0  0  0  0  2  0  0  0  0  0  0
  -29.9920  -17.0260   20.1000 C   0  0  0  0  0  2  0  0  0  0  0  0
  -30.6580  -14.5630   20.1340 C   0  0  0  0  0  0  0  0  0  0  0  0
  -30.3320  -12.3860   19.0110 C   0  0  0  0  0  2  0  0  0  0  0  0
  -29.3420  -12.5990   17.8440 C   0  0  0  0  0  2  0  0  0  0  0  0
  -27.8850  -12.4670   18.3310 C   0  0  0  0  0  2  0  0  0  0  0  0
  -27.6040  -13.2910   19.6150 C   0  0  0  0  0  3  0  0  0  0  0  0
  -28.7030  -13.0590   20.6790 C   0  0  0  0  0  2  0  0  0  0  0  0
  -30.0040  -13.3660   20.0610 N   0  0  0  0  0  0  0  0  0  0  0  0
  -31.7760  -14.7380   19.6440 O   0  0  0  0  0  0  0  0  0  0  0  0
  -29.9110  -15.6090   20.5580 N   0  0  0  0  0  0  0  0  0  0  0  0
  -29.0360  -15.3490   20.9880 H   0  0  0  0  0  0  0  0  0  0  0  0
  -25.2410  -13.9170   20.4180 C   0  0  0  0  0  0  0  0  0  0  0  0
  -24.1800  -13.1550   20.8240 C   0  0  0  0  0  0  0  0  0  0  0  0
  -24.6260  -11.7980   20.7700 C   0  0  0  0  0  0  0  0  0  0  0  0
  -26.2680  -13.0270   20.1440 N   0  0  0  0  0  0  0  0  0  0  0  0
  -25.9040  -11.7470   20.4140 N   0  0  0  0  0  0  0  0  0  0  0  0
  -23.8950  -10.5420   20.9820 C   0  0  0  0  0  0  0  0  0  0  0  0
  -24.3570   -9.5630   21.8880 C   0  0  0  0  0  3  0  0  0  0  0  0
  -23.6260   -8.3710   22.0880 C   0  0  0  0  0  3  0  0  0  0  0  0
  -22.4190   -8.1520   21.3830 C   0  0  0  0  0  0  0  0  0  0  0  0
  -21.9750   -9.1210   20.4660 C   0  0  0  0  0  3  0  0  0  0  0  0
  -22.7060  -10.3040   20.2640 C   0  0  0  0  0  3  0  0  0  0  0  0
  -21.6570   -7.0150   21.4950 O   0  0  0  0  0  0  0  0  0  0  0  0
  -21.6560   -6.2580   22.6390 C   0  0  0  0  0  0  0  0  0  0  0  0
  -21.3040   -6.8040   23.8930 C   0  0  0  0  0  3  0  0  0  0  0  0
  -21.2500   -5.9740   25.0310 C   0  0  0  0  0  3  0  0  0  0  0  0
  -21.5350   -4.6010   24.9170 C   0  0  0  0  0  0  0  0  0  0  0  0
  -21.8800   -4.0550   23.6680 C   0  0  0  0  0  3  0  0  0  0  0  0
  -21.9370   -4.8820   22.5310 C   0  0  0  0  0  0  0  0  0  0  0  0
  -22.2490   -4.3460   21.3260 F   0  0  0  0  0  0  0  0  0  0  0  0
  -21.4760   -3.8020   26.0080 F   0  0  0  0  0  0  0  0  0  0  0  0
  -22.7990  -13.6450   21.1510 C   0  0  0  0  0  0  0  0  0  0  0  0
  -22.0980  -12.9520   22.0420 N   0  0  0  0  0  0  0  0  0  0  0  0
  -22.3520  -14.6760   20.6520 O   0  0  0  0  0  0  0  0  0  0  0  0
  -22.4730  -12.1180   22.4680 H   0  0  0  0  0  0  0  0  0  0  0  0
  -21.1730  -13.2630   22.3040 H   0  0  0  0  0  0  0  0  0  0  0  0
  -25.4140  -15.2870   20.2390 N   0  0  0  0  0  0  0  0  0  0  0  0
  -24.6560  -15.9470   20.3780 H   0  0  0  0  0  0  0  0  0  0  0  0
  -26.2510  -15.7180   19.8670 H   0  0  0  0  0  0  0  0  0  0  0  0
  1  2  1  0
  1 45  1  0
  3  4  1  0
  3  2  1  0
  5 16  2  0
  6  4  1  0
  6 11  1  0
  7 15  1  0
  7 17  1  0
  8 14  1  0
  8 10  1  0
  9 15  1  0
 10  9  1  0
 11 10  2  0
 12 13  1  0
 12  6  2  0
 13  8  2  0
 14  7  1  0
 15  5  1  0
 17 19  2  0
 18 17  1  0
 20 18  1  0
 21 30  2  0
 21 26  1  0
 22 18  1  0
 22 26  1  0
 23 22  1  0
 24 25  1  0
 24 23  1  0
 25 21  1  0
 26 27  2  0
 27 28  1  0
 29 28  2  0
 30 29  1  0
 31  5  1  0
 31 36  1  0
 31 32  1  0
 32 35  1  1
 32 33  1  0
 34 32  1  0
 36 39  1  0
 37 41  1  0
 37 36  1  0
 38 37  2  0
 41 40  1  0
 43 41  1  0
 43 44  1  0
 43 42  1  0
 46 45  1  0
 46 47  1  0
 47 48  1  0
 49 58  1  0
 49 48  1  0
 50 58  1  0
 51 56  1  0
 52 53  1  0
 52 51  1  0
 54 53  1  0
 54 63  1  0
 54 55  1  0
 56 50  1  0
 56 55  1  0
 57 50  2  0
 58 59  1  0
 60 61  2  0
 61 80  1  0
 62 61  1  0
 62 65  1  0
 63 64  1  0
 63 60  1  0
 64 62  2  0
 65 66  1  0
 66 67  2  0
 68 71  1  0
 68 67  1  0
 69 68  2  0
 70 69  1  0
 70 65  2  0
 71 72  1  0
 72 73  1  0
 73 74  2  0
 75 74  1  0
 75 79  1  0
 76 75  2  0
 77 72  2  0
 77 76  1  0
 78 77  1  0
 80 81  1  0
 81 84  1  0
 81 83  1  0
 82 80  2  0
 85 86  1  0
 85 60  1  0
 87 85  1  0
M  ISO  4   3 101   4 101  50 100  58 100
M  END
>  <TORSDO>  (30) 
F 23

>  <SCORE>  (30) 
-12.462

>  <name>  (30) 
29

>  <ligand_id>  (30) 
29

>  <original_smiles>  (30) 
[H]c1c([H])c([H])c2c(c1[H])C([H])([H])C([H])([H])C([H])([H])C2([H])N([H])C(=O)C1([H])N(C(=O)C([H])(N([H])C(=O)C([H])(N([H])C([H])([H])[H])C([H])([H])[H])C(C([H])([H])[H])(C([H])([H])[H])C([H])([H])[H])C([H])([H])c2c([H])c(OC([H])([H])C([H])([H])OC([H])([H])C([H])([H])OC([H])([H])C([H])([H])N([H])C(=O)N3C([H])([H])C([H])([H])C([H])([H])C([H])(n4nc(-c5c([H])c([H])c(Oc6c([H])c([H])c(F)c([H])c6F)c([H])c5[H])c(C(=O)N([H])[H])c4N([H])[H])C3([H])[H])c([H])c([H])c2C1([H])[H]

>  <smiles>  (30) 
[H]c1c([H])c([H])c2c(c1[H])C([H])([H])C([H])([H])C([H])([H])C2([H])N([H])C(=O)C1([H])N(C(=O)C([H])(N([H])C(=O)C([H])(N([H])C([H])([H])[H])C([H])([H])[H])C(C([H])([H])[H])(C([H])([H])[H])C([H])([H])[H])C([H])([H])c2c([H])c(OC([H])([H])C([H])([H])OC([H])([H])C([H])([H])OC([H])([H])C([H])([H])N([H])C(=O)N3C([H])([H])C([H])([H])C([H])([H])C([H])(n4nc(-c5c([H])c([H])c(Oc6c([H])c([H])c(F)c([H])c6F)c([H])c5[H])c(C(=O)N([H])[H])c4N([H])[H])C3([H])[H])c([H])c([H])c2C1([H])[H]

$$$$
30:0:0
     RDKit          3D

 82 86  0  0  1  0  0  0  0  0999 V2000
  -28.2030  -25.2140   20.1870 O   0  0  0  0  0  1  0  0  0  0  0  0
  -24.6590  -31.8230   23.1160 C   0  0  0  0  0  0  0  0  0  0  0  0
  -27.2270  -26.5180   20.2190 C   0  0  0  0  0  0  0  0  0  0  0  0
  -23.5030  -30.4040   21.4840 C   0  0  0  0  0  3  0  0  0  0  0  0
  -24.9680  -28.6960   20.1210 C   0  0  0  0  0  0  0  0  0  0  0  0
  -26.0920  -30.4850   21.4080 C   0  0  0  0  0  2  0  0  0  0  0  0
  -26.1660  -29.0180   20.7700 C   0  0  0  0  0  0  0  0  0  0  0  0
  -27.2690  -27.9690   20.7710 C   0  0  0  0  0  3  0  0  0  0  0  0
  -25.9850  -26.4690   19.5130 C   0  0  0  0  0  3  0  0  0  0  0  0
  -24.9320  -27.4500   19.4670 C   0  0  0  0  0  3  0  0  0  0  0  0
  -23.7680  -29.6710   20.1330 C   0  0  0  0  0  2  0  0  0  0  0  0
  -24.7790  -30.9440   22.0540 N   0  0  0  0  0  0  0  0  0  0  0  0
  -23.5550  -32.1300   23.6020 O   0  0  0  0  0  0  0  0  0  0  0  0
  -22.7610  -29.4600   22.4680 C   0  0  0  0  0  0  0  0  0  0  0  0
  -21.4220  -29.3490   22.3610 N   0  0  0  0  0  0  0  0  0  0  0  0
  -23.4040  -28.8170   23.3000 O   0  0  0  0  0  0  0  0  0  0  0  0
  -20.9470  -29.9240   21.6780 H   0  0  0  0  0  0  0  0  0  0  0  0
  -18.0030  -28.1330   22.8590 C   0  0  0  0  0  0  0  0  0  0  0  0
  -20.5950  -28.3830   23.0970 C   0  0  0  0  0  0  0  0  0  0  0  0
  -20.7720  -26.9760   22.4620 C   0  0  0  0  0  3  0  0  0  0  0  0
  -19.5380  -26.4150   21.7220 C   0  0  0  0  0  3  0  0  0  0  0  0
  -18.0990  -26.8440   22.0560 C   0  0  0  0  0  3  0  0  0  0  0  0
  -19.1450  -28.8670   23.2920 C   0  0  0  0  0  0  0  0  0  0  0  0
  -18.9400  -30.1130   23.9270 C   0  0  0  0  0  3  0  0  0  0  0  0
  -17.6430  -30.6230   24.1300 C   0  0  0  0  0  3  0  0  0  0  0  0
  -16.5250  -29.8800   23.7210 C   0  0  0  0  0  3  0  0  0  0  0  0
  -16.7080  -28.6360   23.0960 C   0  0  0  0  0  3  0  0  0  0  0  0
  -25.9010  -32.4970   23.7720 C   0  0  0  0  0  3  0  0  0  0  0  0
  -25.5540  -33.8960   24.1020 N   0  0  0  0  0  0  0  0  0  0  0  0
  -25.8860  -34.9730   23.3740 C   0  0  0  0  0  0  0  0  0  0  0  0
  -26.5670  -34.8910   22.3500 O   0  0  0  0  0  0  0  0  0  0  0  0
  -24.9460  -34.0310   24.8960 H   0  0  0  0  0  0  0  0  0  0  0  0
  -24.1500  -36.7720   23.0460 C   0  0  0  0  0  1  0  0  0  0  0  0
  -25.3900  -36.3550   23.8530 C   0  0  0  0  0  3  0  0  0  0  0  0
  -27.5120  -37.2520   24.7100 C   0  0  0  0  0  1  0  0  0  0  0  0
  -26.4160  -37.4190   23.7590 N   0  0  0  0  0  0  0  0  0  0  0  0
  -26.0000  -38.3340   23.9110 H   0  0  0  0  0  0  0  0  0  0  0  0
  -26.3860  -31.7540   25.0790 C   0  0  1  0  0  0  0  0  0  0  0  0
  -25.2660  -31.5290   26.1240 C   0  0  0  0  0  1  0  0  0  0  0  0
  -26.9880  -30.3730   24.7440 C   0  0  0  0  0  1  0  0  0  0  0  0
  -27.5140  -32.5680   25.7560 C   0  0  0  0  0  1  0  0  0  0  0  0
  -28.2300  -23.3320   20.4390 C   0  0  0  0  0 15  0  0  0  0  0  0
  -28.7870  -21.3790   19.8640 C   0  0  0  0  0 15  0  0  0  0  0  0
  -29.3980  -19.4400   20.4120 C   0  0  0  0  0  1  0  0  0  0  0  0
  -30.1690  -16.0920   20.0360 C   0  0  0  0  0  0  0  0  0  0  0  0
  -30.3590  -13.4710   19.1990 C   0  0  0  0  0  2  0  0  0  0  0  0
  -29.4770  -12.8700   18.0550 C   0  0  0  0  0  2  0  0  0  0  0  0
  -28.1030  -12.4290   18.5740 C   0  0  0  0  0  2  0  0  0  0  0  0
  -27.5630  -13.4490   19.5940 C   0  0  0  0  0  3  0  0  0  0  0  0
  -28.6020  -13.9210   20.6470 C   0  0  0  0  0  2  0  0  0  0  0  0
  -29.6750  -14.6720   19.9180 N   0  0  0  0  0  0  0  0  0  0  0  0
  -31.4150  -15.9560   19.9590 O   0  0  0  0  0  0  0  0  0  0  0  0
  -29.4220  -17.5600   20.0550 N   0  0  0  0  0  0  0  0  0  0  0  0
  -28.4530  -17.3130   19.9040 H   0  0  0  0  0  0  0  0  0  0  0  0
  -25.2310  -13.9310   20.4500 C   0  0  0  0  0  0  0  0  0  0  0  0
  -24.1900  -13.1380   20.8360 C   0  0  0  0  0  0  0  0  0  0  0  0
  -24.6710  -11.7930   20.7770 C   0  0  0  0  0  0  0  0  0  0  0  0
  -26.2760  -13.0750   20.1660 N   0  0  0  0  0  0  0  0  0  0  0  0
  -25.9570  -11.7790   20.4270 N   0  0  0  0  0  0  0  0  0  0  0  0
  -23.9560  -10.5240   20.9740 C   0  0  0  0  0  0  0  0  0  0  0  0
  -24.4050   -9.5560   21.8990 C   0  0  0  0  0  3  0  0  0  0  0  0
  -23.6830   -8.3560   22.0890 C   0  0  0  0  0  3  0  0  0  0  0  0
  -22.4960   -8.1180   21.3550 C   0  0  0  0  0  0  0  0  0  0  0  0
  -22.0660   -9.0740   20.4200 C   0  0  0  0  0  3  0  0  0  0  0  0
  -22.7890  -10.2650   20.2280 C   0  0  0  0  0  3  0  0  0  0  0  0
  -21.7460   -6.9710   21.4550 O   0  0  0  0  0  0  0  0  0  0  0  0
  -21.7090   -6.2310   22.6100 C   0  0  0  0  0  0  0  0  0  0  0  0
  -21.2840   -6.7860   23.8360 C   0  0  0  0  0  3  0  0  0  0  0  0
  -21.1960   -5.9730   24.9840 C   0  0  0  0  0  3  0  0  0  0  0  0
  -21.5230   -4.6050   24.9060 C   0  0  0  0  0  0  0  0  0  0  0  0
  -21.9420   -4.0500   23.6840 C   0  0  0  0  0  3  0  0  0  0  0  0
  -22.0320   -4.8600   22.5390 C   0  0  0  0  0  0  0  0  0  0  0  0
  -22.4140   -4.3150   21.3590 F   0  0  0  0  0  0  0  0  0  0  0  0
  -21.4320   -3.8220   26.0060 F   0  0  0  0  0  0  0  0  0  0  0  0
  -22.7960  -13.6030   21.1400 C   0  0  0  0  0  0  0  0  0  0  0  0
  -22.0920  -12.8960   22.0160 N   0  0  0  0  0  0  0  0  0  0  0  0
  -22.3430  -14.6300   20.6380 O   0  0  0  0  0  0  0  0  0  0  0  0
  -22.4740  -12.0650   22.4440 H   0  0  0  0  0  0  0  0  0  0  0  0
  -21.1580  -13.1890   22.2630 H   0  0  0  0  0  0  0  0  0  0  0  0
  -25.3710  -15.3060   20.2780 N   0  0  0  0  0  0  0  0  0  0  0  0
  -24.5980  -15.9490   20.4140 H   0  0  0  0  0  0  0  0  0  0  0  0
  -26.2020  -15.7550   19.9170 H   0  0  0  0  0  0  0  0  0  0  0  0
  1  3  1  0
  2 13  2  0
  3  8  1  0
  4 12  1  0
  4 14  1  0
  5 11  1  0
  5  7  1  0
  6 12  1  0
  7  8  2  0
  7  6  1  0
  9  3  2  0
 10  9  1  0
 10  5  2  0
 11  4  1  0
 12  2  1  0
 14 16  2  0
 15 14  1  0
 15 19  1  0
 17 15  1  0
 18 27  2  0
 18 23  1  0
 19 23  1  0
 20 19  2  0
 21 22  2  0
 21 20  1  0
 22 18  1  0
 23 24  2  0
 24 25  1  0
 26 25  2  0
 27 26  1  0
 28  2  1  0
 28 29  1  0
 28 38  1  0
 29 32  1  0
 30 34  1  0
 30 29  1  0
 31 30  2  0
 34 33  1  0
 36 34  1  0
 36 37  1  0
 36 35  1  0
 38 41  1  1
 38 39  1  0
 40 38  1  0
 45 53  1  0
 46 51  1  0
 47 48  1  0
 47 46  1  0
 49 48  1  0
 49 58  1  0
 49 50  1  0
 51 45  1  0
 51 50  1  0
 52 45  2  0
 53 44  1  0
 54 53  1  0
 55 56  2  0
 56 75  1  0
 57 56  1  0
 57 60  1  0
 58 59  1  0
 58 55  1  0
 59 57  2  0
 60 61  1  0
 61 62  2  0
 63 66  1  0
 63 62  1  0
 64 63  2  0
 65 64  1  0
 65 60  2  0
 66 67  1  0
 67 68  1  0
 68 69  2  0
 70 69  1  0
 70 74  1  0
 71 70  2  0
 72 67  2  0
 72 71  1  0
 73 72  1  0
 75 76  1  0
 76 79  1  0
 76 78  1  0
 77 75  2  0
 80 81  1  0
 80 55  1  0
 82 80  1  0
M  ISO  4   1 101  42 101  45 100  53 100
M  END
>  <TORSDO>  (31) 
F 18

>  <SCORE>  (31) 
-16.165

>  <name>  (31) 
30

>  <ligand_id>  (31) 
30

>  <original_smiles>  (31) 
[H]c1c([H])c([H])c2c(c1[H])C([H])([H])C([H])([H])C([H])([H])C2([H])N([H])C(=O)C1([H])N(C(=O)C([H])(N([H])C(=O)C([H])(N([H])C([H])([H])[H])C([H])([H])[H])C(C([H])([H])[H])(C([H])([H])[H])C([H])([H])[H])C([H])([H])c2c([H])c(OC([H])([H])C([H])([H])C([H])([H])N([H])C(=O)N3C([H])([H])C([H])([H])C([H])([H])C([H])(n4nc(-c5c([H])c([H])c(Oc6c([H])c([H])c(F)c([H])c6F)c([H])c5[H])c(C(=O)N([H])[H])c4N([H])[H])C3([H])[H])c([H])c([H])c2C1([H])[H]

>  <smiles>  (31) 
[H]c1c([H])c([H])c2c(c1[H])C([H])([H])C([H])([H])C([H])([H])C2([H])N([H])C(=O)C1([H])N(C(=O)C([H])(N([H])C(=O)C([H])(N([H])C([H])([H])[H])C([H])([H])[H])C(C([H])([H])[H])(C([H])([H])[H])C([H])([H])[H])C([H])([H])c2c([H])c(OC([H])([H])C([H])([H])C([H])([H])N([H])C(=O)N3C([H])([H])C([H])([H])C([H])([H])C([H])(n4nc(-c5c([H])c([H])c(Oc6c([H])c([H])c(F)c([H])c6F)c([H])c5[H])c(C(=O)N([H])[H])c4N([H])[H])C3([H])[H])c([H])c([H])c2C1([H])[H]

$$$$
31:0:0
     RDKit          3D

 86 93  0  0  1  0  0  0  0  0999 V2000
  -28.6850  -22.7120   19.8940 C   0  0  0  0  0  2  0  0  0  0  0  0
  -29.0090  -21.2360   20.6150 N   0  0  0  0  0  4  0  0  0  0  0  0
  -28.3790  -21.1820   21.3990 H   0  0  0  0  0  0  0  0  0  0  0  0
  -29.9200  -21.3500   21.0300 H   0  0  0  0  0  0  0  0  0  0  0  0
  -29.0140  -19.6790   20.0020 C   0  0  0  0  0  3  0  0  0  0  0  0
  -29.8200  -18.1820   20.6130 C   0  0  0  0  0  3  0  0  0  0  0  0
  -30.3950  -15.2850   20.2500 C   0  0  0  0  0  0  0  0  0  0  0  0
  -30.3780  -12.8470   19.3460 C   0  0  0  0  0  2  0  0  0  0  0  0
  -29.4440  -12.6300   18.1300 C   0  0  0  0  0  2  0  0  0  0  0  0
  -28.0010  -12.3530   18.5880 C   0  0  0  0  0  2  0  0  0  0  0  0
  -27.5550  -13.3130   19.7190 C   0  0  0  0  0  3  0  0  0  0  0  0
  -28.6160  -13.4650   20.8280 C   0  0  0  0  0  2  0  0  0  0  0  0
  -29.8290  -13.9810   20.1740 N   0  0  0  0  0  0  0  0  0  0  0  0
  -31.6210  -15.2900   20.0780 O   0  0  0  0  0  0  0  0  0  0  0  0
  -29.6130  -16.5450   20.3200 N   0  0  0  0  0  0  0  0  0  0  0  0
  -28.6300  -16.3180   20.2990 H   0  0  0  0  0  0  0  0  0  0  0  0
  -25.1880  -13.8560   20.4940 C   0  0  0  0  0  0  0  0  0  0  0  0
  -24.1350  -13.0720   20.8720 C   0  0  0  0  0  0  0  0  0  0  0  0
  -24.6130  -11.7260   20.8390 C   0  0  0  0  0  0  0  0  0  0  0  0
  -26.2350  -12.9880   20.2420 N   0  0  0  0  0  0  0  0  0  0  0  0
  -25.9020  -11.7010   20.5190 N   0  0  0  0  0  0  0  0  0  0  0  0
  -23.8950  -10.4580   21.0330 C   0  0  0  0  0  0  0  0  0  0  0  0
  -24.3390   -9.4910   21.9610 C   0  0  0  0  0  3  0  0  0  0  0  0
  -23.6190   -8.2910   22.1450 C   0  0  0  0  0  3  0  0  0  0  0  0
  -22.4400   -8.0490   21.4000 C   0  0  0  0  0  0  0  0  0  0  0  0
  -22.0140   -9.0050   20.4610 C   0  0  0  0  0  3  0  0  0  0  0  0
  -22.7360  -10.1970   20.2760 C   0  0  0  0  0  3  0  0  0  0  0  0
  -21.6900   -6.9010   21.4930 O   0  0  0  0  0  0  0  0  0  0  0  0
  -21.6610   -6.1520   22.6420 C   0  0  0  0  0  0  0  0  0  0  0  0
  -21.2520   -6.6990   23.8780 C   0  0  0  0  0  3  0  0  0  0  0  0
  -21.1710   -5.8760   25.0200 C   0  0  0  0  0  3  0  0  0  0  0  0
  -21.4880   -4.5080   24.9260 C   0  0  0  0  0  0  0  0  0  0  0  0
  -21.8910   -3.9610   23.6950 C   0  0  0  0  0  3  0  0  0  0  0  0
  -21.9740   -4.7800   22.5550 C   0  0  0  0  0  0  0  0  0  0  0  0
  -22.3420   -4.2440   21.3670 F   0  0  0  0  0  0  0  0  0  0  0  0
  -21.4030   -3.7150   26.0200 F   0  0  0  0  0  0  0  0  0  0  0  0
  -22.7360  -13.5390   21.1460 C   0  0  0  0  0  0  0  0  0  0  0  0
  -22.0170  -12.8410   22.0170 N   0  0  0  0  0  0  0  0  0  0  0  0
  -22.2900  -14.5610   20.6230 O   0  0  0  0  0  0  0  0  0  0  0  0
  -22.3910  -12.0160   22.4620 H   0  0  0  0  0  0  0  0  0  0  0  0
  -21.0770  -13.1370   22.2430 H   0  0  0  0  0  0  0  0  0  0  0  0
  -25.3360  -15.2290   20.3130 N   0  0  0  0  0  0  0  0  0  0  0  0
  -24.5560  -15.8680   20.4220 H   0  0  0  0  0  0  0  0  0  0  0  0
  -26.1600  -15.6730   19.9320 H   0  0  0  0  0  0  0  0  0  0  0  0
  -28.1150  -24.2800   20.5860 C   0  0  0  0  0  2  0  0  0  0  0  0
  -28.2440  -25.8910   20.2250 O   0  0  0  0  0  0  0  0  0  0  0  0
  -24.6440  -31.8550   23.2020 C   0  0  0  0  0  0  0  0  0  0  0  0
  -27.2040  -26.9580   20.2370 C   0  0  0  0  0  0  0  0  0  0  0  0
  -23.4510  -30.4450   21.5750 C   0  0  0  0  0  3  0  0  0  0  0  0
  -24.8990  -28.8260   20.1730 C   0  0  0  0  0  0  0  0  0  0  0  0
  -26.0160  -30.6620   21.4240 C   0  0  0  0  0  2  0  0  0  0  0  0
  -26.0880  -29.2440   20.7840 C   0  0  0  0  0  0  0  0  0  0  0  0
  -27.2380  -28.3330   20.7840 C   0  0  0  0  0  3  0  0  0  0  0  0
  -25.9810  -26.6850   19.5860 C   0  0  0  0  0  3  0  0  0  0  0  0
  -24.8690  -27.5660   19.5540 C   0  0  0  0  0  3  0  0  0  0  0  0
  -23.6810  -29.7480   20.2070 C   0  0  0  0  0  2  0  0  0  0  0  0
  -24.7250  -31.0150   22.1200 N   0  0  0  0  0  0  0  0  0  0  0  0
  -23.5540  -32.1480   23.7210 O   0  0  0  0  0  0  0  0  0  0  0  0
  -22.7570  -29.4580   22.5490 C   0  0  0  0  0  0  0  0  0  0  0  0
  -21.4260  -29.2940   22.4280 N   0  0  0  0  0  0  0  0  0  0  0  0
  -23.4230  -28.8380   23.3810 O   0  0  0  0  0  0  0  0  0  0  0  0
  -20.9420  -29.8440   21.7330 H   0  0  0  0  0  0  0  0  0  0  0  0
  -18.0450  -28.0840   22.9450 C   0  0  0  0  0  0  0  0  0  0  0  0
  -20.6040  -28.3610   23.2070 C   0  0  0  0  0  3  0  0  0  0  0  0
  -20.7100  -26.9240   22.6470 C   0  0  0  0  0  2  0  0  0  0  0  0
  -19.6100  -26.5880   21.6350 C   0  0  0  0  0  2  0  0  0  0  0  0
  -18.2270  -26.7310   22.2770 C   0  0  0  0  0  2  0  0  0  0  0  0
  -19.1600  -28.8560   23.3670 C   0  0  0  0  0  0  0  0  0  0  0  0
  -18.9330  -30.1200   23.9540 C   0  0  0  0  0  3  0  0  0  0  0  0
  -17.6250  -30.6130   24.1200 C   0  0  0  0  0  3  0  0  0  0  0  0
  -16.5260  -29.8400   23.7120 C   0  0  0  0  0  3  0  0  0  0  0  0
  -16.7360  -28.5770   23.1300 C   0  0  0  0  0  3  0  0  0  0  0  0
  -25.9140  -32.5040   23.8300 C   0  0  0  0  0  3  0  0  0  0  0  0
  -26.4240  -31.7450   25.1180 C   0  0  1  0  0  0  0  0  0  0  0  0
  -25.3260  -31.5190   26.1840 C   0  0  0  0  0  1  0  0  0  0  0  0
  -27.0090  -30.3630   24.7500 C   0  0  0  0  0  1  0  0  0  0  0  0
  -27.5720  -32.5460   25.7770 C   0  0  0  0  0  1  0  0  0  0  0  0
  -25.5920  -33.9030   24.1620 N   0  0  0  0  0  0  0  0  0  0  0  0
  -25.9210  -34.9650   23.4130 C   0  0  0  0  0  0  0  0  0  0  0  0
  -26.5890  -34.8700   22.3810 O   0  0  0  0  0  0  0  0  0  0  0  0
  -24.9980  -34.0500   24.9630 H   0  0  0  0  0  0  0  0  0  0  0  0
  -24.1870  -36.7630   23.0820 C   0  0  0  0  0  1  0  0  0  0  0  0
  -25.4350  -36.3530   23.8830 C   0  0  0  0  0  3  0  0  0  0  0  0
  -27.5710  -37.2410   24.7070 C   0  0  0  0  0  1  0  0  0  0  0  0
  -26.4640  -37.4090   23.7690 N   0  0  0  0  0  0  0  0  0  0  0  0
  -26.0570  -38.3270   23.9220 H   0  0  0  0  0  0  0  0  0  0  0  0
  1 45  1  0
  1  2  1  0
  2  4  1  0
  2  3  1  0
  5  6  2  0
  5  2  1  0
  7 15  1  0
  8 13  1  0
  9 10  1  0
  9  8  1  0
 11 10  1  0
 11 20  1  0
 11 12  1  0
 13  7  1  0
 13 12  1  0
 14  7  2  0
 15  6  1  0
 16 15  1  0
 17 18  2  0
 18 37  1  0
 19 18  1  0
 19 22  1  0
 20 17  1  0
 20 21  1  0
 21 19  2  0
 22 23  1  0
 23 24  2  0
 25 28  1  0
 25 24  1  0
 26 25  2  0
 27 26  1  0
 27 22  2  0
 28 29  1  0
 29 30  1  0
 30 31  2  0
 32 31  1  0
 32 36  1  0
 33 32  2  0
 34 29  2  0
 34 33  1  0
 35 34  1  0
 37 38  1  0
 38 41  1  0
 38 40  1  0
 39 37  2  0
 42 43  1  0
 42 17  1  0
 44 42  1  0
 46 48  1  0
 46 45  1  0
 47 58  2  0
 48 53  1  0
 49 57  1  0
 49 59  1  0
 50 56  1  0
 50 52  1  0
 51 57  1  0
 52 53  2  0
 52 51  1  0
 54 48  2  0
 55 54  1  0
 55 50  2  0
 56 49  1  0
 57 47  1  0
 59 61  2  0
 60 59  1  0
 62 60  1  0
 63 72  2  0
 63 68  1  0
 64 60  1  0
 64 68  1  0
 65 64  1  0
 66 67  1  0
 66 65  1  0
 67 63  1  0
 68 69  2  0
 69 70  1  0
 71 70  2  0
 72 71  1  0
 73 47  1  0
 73 78  1  0
 73 74  1  0
 74 77  1  1
 74 75  1  0
 76 74  1  0
 78 81  1  0
 79 83  1  0
 79 78  1  0
 80 79  2  0
 83 82  1  0
 85 83  1  0
 85 86  1  0
 85 84  1  0
M  ISO  4   7 100  15 100  45 101  46 101
M  END
>  <TORSDO>  (32) 
F 20

>  <SCORE>  (32) 
-16.364

>  <name>  (32) 
31

>  <ligand_id>  (32) 
31

>  <original_smiles>  (32) 
[H]c1c([H])c([H])c2c(c1[H])C([H])([H])C([H])([H])C([H])([H])C2([H])N([H])C(=O)C1([H])N(C(=O)C([H])(N([H])C(=O)C([H])(N([H])C([H])([H])[H])C([H])([H])[H])C(C([H])([H])[H])(C([H])([H])[H])C([H])([H])[H])C([H])([H])c2c([H])c(OC([H])([H])C([H])([H])[N+]([H])([H])C([H])([H])C([H])([H])N([H])C(=O)N3C([H])([H])C([H])([H])C([H])([H])C([H])(n4nc(-c5c([H])c([H])c(Oc6c([H])c([H])c(F)c([H])c6F)c([H])c5[H])c(C(=O)N([H])[H])c4N([H])[H])C3([H])[H])c([H])c([H])c2C1([H])[H]

>  <smiles>  (32) 
[H]c1c([H])c([H])c2c(c1[H])C([H])([H])C([H])([H])C([H])([H])C2([H])N([H])C(=O)C1([H])N(C(=O)C([H])(N([H])C(=O)C([H])(N([H])C([H])([H])[H])C([H])([H])[H])C(C([H])([H])[H])(C([H])([H])[H])C([H])([H])[H])C([H])([H])c2c([H])c(OC([H])([H])C([H])([H])[N+]([H])([H])C([H])([H])C([H])([H])N([H])C(=O)N3C([H])([H])C([H])([H])C([H])([H])C([H])(n4nc(-c5c([H])c([H])c(Oc6c([H])c([H])c(F)c([H])c6F)c([H])c5[H])c(C(=O)N([H])[H])c4N([H])[H])C3([H])[H])c([H])c([H])c2C1([H])[H]

$$$$
32:0:0
     RDKit          3D

 92 97  0  0  1  0  0  0  0  0999 V2000
  -26.6330  -18.0560   18.7880 C   0  0  0  0  0  0  0  0  0  0  0  0
  -27.3190  -19.2870   18.8800 N   0  0  0  0  0  0  0  0  0  0  0  0
  -25.4550  -18.0210   19.1470 O   0  0  0  0  0  0  0  0  0  0  0  0
  -28.2950  -19.2260   18.6160 H   0  0  0  0  0  0  0  0  0  0  0  0
  -27.2390  -16.6710   18.1350 C   0  0  0  0  0  2  0  0  0  0  0  0
  -26.8730  -15.2910   18.7140 O   0  0  0  0  0  0  0  0  0  0  0  0
  -26.9460  -13.9090   18.0100 C   0  0  0  0  0  2  0  0  0  0  0  0
  -27.4840  -12.3640   18.5660 C   0  0  0  0  0  2  0  0  0  0  0  0
  -28.8490  -11.5840   19.3560 C   0  0  0  0  0  2  0  0  0  0  0  0
  -30.8300  -13.2770   21.0700 C   0  0  2  0  0  0  0  0  0  0  0  0
  -31.9180  -12.4360   20.1520 C   0  0  0  0  0  1  0  0  0  0  0  0
  -31.0240  -13.1810   18.7280 C   0  0  0  0  0  1  0  0  0  0  0  0
  -29.5580  -14.1060   19.1370 C   0  0  0  0  0  2  0  0  0  0  0  0
  -28.5880  -14.0630   20.7520 C   0  0  0  0  0  2  0  0  0  0  0  0
  -29.5620  -13.4720   22.1690 C   0  0  0  0  0  1  0  0  0  0  0  0
  -31.0050  -12.5160   21.7130 N   0  0  0  0  0  2  0  0  0  0  0  0
  -31.7190  -14.1330   21.6310 O   0  0  0  0  0  1  0  0  0  0  0  0
  -29.8300  -11.9370   20.6120 N   0  0  0  0  0  0  0  0  0  0  0  0
  -29.9490  -11.1660   21.2500 H   0  0  0  0  0  0  0  0  0  0  0  0
  -26.0330  -14.2400   21.0920 C   0  0  0  0  0  0  0  0  0  0  0  0
  -24.9580  -13.4140   21.2480 C   0  0  0  0  0  0  0  0  0  0  0  0
  -25.4430  -12.0770   21.1900 C   0  0  0  0  0  0  0  0  0  0  0  0
  -27.1670  -13.4780   20.9410 N   0  0  0  0  0  0  0  0  0  0  0  0
  -26.7920  -12.1360   21.1280 N   0  0  0  0  0  0  0  0  0  0  0  0
  -24.6600  -10.8000   21.1900 C   0  0  0  0  0  0  0  0  0  0  0  0
  -24.9010   -9.7590   22.1180 C   0  0  0  0  0  3  0  0  0  0  0  0
  -24.0880   -8.5980   22.1470 C   0  0  0  0  0  3  0  0  0  0  0  0
  -23.0070   -8.4520   21.2450 C   0  0  0  0  0  0  0  0  0  0  0  0
  -22.7770   -9.4750   20.3060 C   0  0  0  0  0  3  0  0  0  0  0  0
  -23.5910  -10.6260   20.2780 C   0  0  0  0  0  3  0  0  0  0  0  0
  -22.1870   -7.3450   21.1830 O   0  0  0  0  0  0  0  0  0  0  0  0
  -21.9120   -6.5750   22.2890 C   0  0  0  0  0  0  0  0  0  0  0  0
  -21.3080   -7.1210   23.4420 C   0  0  0  0  0  3  0  0  0  0  0  0
  -20.9810   -6.2880   24.5320 C   0  0  0  0  0  3  0  0  0  0  0  0
  -21.2480   -4.9070   24.4680 C   0  0  0  0  0  0  0  0  0  0  0  0
  -21.8400   -4.3580   23.3180 C   0  0  0  0  0  3  0  0  0  0  0  0
  -22.1660   -5.1890   22.2310 C   0  0  0  0  0  0  0  0  0  0  0  0
  -22.7160   -4.6460   21.1170 F   0  0  0  0  0  0  0  0  0  0  0  0
  -20.9330   -4.1060   25.5130 F   0  0  0  0  0  0  0  0  0  0  0  0
  -23.5410  -13.8820   21.3820 C   0  0  0  0  0  0  0  0  0  0  0  0
  -22.7240  -13.1660   22.1430 N   0  0  0  0  0  0  0  0  0  0  0  0
  -23.1780  -14.9400   20.8680 O   0  0  0  0  0  0  0  0  0  0  0  0
  -23.0370  -12.3170   22.5900 H   0  0  0  0  0  0  0  0  0  0  0  0
  -21.7700  -13.4690   22.2800 H   0  0  0  0  0  0  0  0  0  0  0  0
  -26.1390  -15.6170   21.0840 N   0  0  0  0  0  0  0  0  0  0  0  0
  -25.2370  -16.0740   21.0070 H   0  0  0  0  0  0  0  0  0  0  0  0
  -26.6990  -15.8540   20.2620 H   0  0  0  0  0  0  0  0  0  0  0  0
  -26.7880  -20.7570   19.0190 C   0  0  0  0  0  3  0  0  0  0  0  0
  -27.5830  -22.0140   19.7730 C   0  0  0  0  0  3  0  0  0  0  0  0
  -27.2530  -23.6380   19.5310 C   0  0  0  0  0  2  0  0  0  0  0  0
  -27.8020  -24.8670   20.5160 C   0  0  0  0  0  2  0  0  0  0  0  0
  -28.0920  -26.3630   20.2520 O   0  0  0  0  0  0  0  0  0  0  0  0
  -24.6890  -32.0930   23.4540 C   0  0  0  0  0  0  0  0  0  0  0  0
  -27.0910  -27.3590   20.3350 C   0  0  0  0  0  0  0  0  0  0  0  0
  -23.4560  -30.7290   21.8220 C   0  0  0  0  0  3  0  0  0  0  0  0
  -24.8460  -29.1400   20.3830 C   0  0  0  0  0  0  0  0  0  0  0  0
  -26.0170  -30.9380   21.6480 C   0  0  0  0  0  2  0  0  0  0  0  0
  -26.0440  -29.5540   20.9800 C   0  0  0  0  0  0  0  0  0  0  0  0
  -27.1850  -28.6730   20.9400 C   0  0  0  0  0  3  0  0  0  0  0  0
  -25.8720  -27.0330   19.7300 C   0  0  0  0  0  3  0  0  0  0  0  0
  -24.7670  -27.8920   19.7540 C   0  0  0  0  0  3  0  0  0  0  0  0
  -23.6510  -30.0670   20.4370 C   0  0  0  0  0  2  0  0  0  0  0  0
  -24.7430  -31.2730   22.3620 N   0  0  0  0  0  0  0  0  0  0  0  0
  -23.6080  -32.3970   23.9820 O   0  0  0  0  0  0  0  0  0  0  0  0
  -22.7700  -29.7200   22.7760 C   0  0  0  0  0  0  0  0  0  0  0  0
  -21.4470  -29.5380   22.6200 N   0  0  0  0  0  0  0  0  0  0  0  0
  -23.4280  -29.1060   23.6200 O   0  0  0  0  0  0  0  0  0  0  0  0
  -20.9730  -30.0850   21.9140 H   0  0  0  0  0  0  0  0  0  0  0  0
  -18.0730  -28.2910   23.0180 C   0  0  0  0  0  0  0  0  0  0  0  0
  -20.6120  -28.6090   23.3850 C   0  0  0  0  0  3  0  0  0  0  0  0
  -20.7640  -27.1620   22.8610 C   0  0  0  0  0  2  0  0  0  0  0  0
  -19.7120  -26.7860   21.8130 C   0  0  0  0  0  2  0  0  0  0  0  0
  -18.3020  -26.9240   22.3940 C   0  0  0  0  0  2  0  0  0  0  0  0
  -19.1580  -29.0880   23.4690 C   0  0  0  0  0  0  0  0  0  0  0  0
  -18.8910  -30.3630   24.0110 C   0  0  0  0  0  3  0  0  0  0  0  0
  -17.5710  -30.8440   24.1080 C   0  0  0  0  0  3  0  0  0  0  0  0
  -16.5000  -30.0460   23.6730 C   0  0  0  0  0  3  0  0  0  0  0  0
  -16.7500  -28.7710   23.1340 C   0  0  0  0  0  3  0  0  0  0  0  0
  -25.9790  -32.7040   24.0780 C   0  0  0  0  0  3  0  0  0  0  0  0
  -26.4610  -31.9430   25.3740 C   0  0  1  0  0  0  0  0  0  0  0  0
  -25.3530  -31.7540   26.4350 C   0  0  0  0  0  1  0  0  0  0  0  0
  -27.0100  -30.5420   25.0170 C   0  0  0  0  0  1  0  0  0  0  0  0
  -27.6260  -32.7180   26.0340 C   0  0  0  0  0  1  0  0  0  0  0  0
  -25.6970  -34.1150   24.3880 N   0  0  0  0  0  0  0  0  0  0  0  0
  -26.0880  -35.1550   23.6410 C   0  0  0  0  0  0  0  0  0  0  0  0
  -26.7920  -35.0270   22.6350 O   0  0  0  0  0  0  0  0  0  0  0  0
  -25.0770  -34.2910   25.1660 H   0  0  0  0  0  0  0  0  0  0  0  0
  -24.4330  -37.0040   23.2140 C   0  0  0  0  0  1  0  0  0  0  0  0
  -25.6260  -36.5600   24.0760 C   0  0  0  0  0  3  0  0  0  0  0  0
  -27.7540  -37.3790   24.9900 C   0  0  0  0  0  1  0  0  0  0  0  0
  -26.6960  -37.5810   24.0030 N   0  0  0  0  0  0  0  0  0  0  0  0
  -26.3140  -38.5130   24.1350 H   0  0  0  0  0  0  0  0  0  0  0  0
  1  2  1  0
  1  3  2  0
  2 48  1  0
  4  2  1  0
  5  6  1  0
  5  1  1  0
  7  8  1  0
  7  6  1  0
  8  9  1  0
  9 18  1  0
 10 17  1  0
 10 16  1  0
 10 15  1  6
 11 10  1  0
 12 13  1  0
 13 14  1  0
 14 23  1  0
 18 19  1  0
 18 16  1  0
 20 21  2  0
 21 40  1  0
 22 21  1  0
 23 20  1  0
 23 24  1  0
 24 22  2  0
 25 22  1  0
 25 26  1  0
 26 27  2  0
 28 27  1  0
 29 28  2  0
 30 29  1  0
 30 25  2  0
 31 28  1  0
 31 32  1  0
 32 33  1  0
 33 34  2  0
 35 34  1  0
 35 39  1  0
 36 35  2  0
 37 32  2  0
 37 36  1  0
 38 37  1  0
 40 41  1  0
 41 44  1  0
 41 43  1  0
 42 40  2  0
 45 20  1  0
 46 45  1  0
 47 45  1  0
 48 49  2  0
 50 49  1  0
 50 51  1  0
 52 54  1  0
 52 51  1  0
 53 64  2  0
 54 59  1  0
 55 63  1  0
 55 65  1  0
 56 62  1  0
 56 58  1  0
 57 63  1  0
 58 57  1  0
 59 58  2  0
 60 61  1  0
 60 54  2  0
 61 56  2  0
 62 55  1  0
 63 53  1  0
 65 67  2  0
 66 65  1  0
 68 66  1  0
 69 78  2  0
 69 74  1  0
 70 66  1  0
 70 74  1  0
 71 70  1  0
 72 73  1  0
 72 71  1  0
 73 69  1  0
 74 75  2  0
 75 76  1  0
 77 76  2  0
 78 77  1  0
 79 53  1  0
 79 84  1  0
 79 80  1  0
 80 83  1  1
 80 81  1  0
 82 80  1  0
 84 87  1  0
 85 89  1  0
 85 84  1  0
 86 85  2  0
 89 88  1  0
 91 89  1  0
 91 92  1  0
 91 90  1  0
M  ISO  4  10 100  18 100  51 101  52 101
M  END
>  <TORSDO>  (33) 
F 25

>  <SCORE>  (33) 
-6.808

>  <name>  (33) 
32

>  <ligand_id>  (33) 
32

>  <original_smiles>  (33) 
[H]c1c([H])c([H])c2c(c1[H])C([H])([H])C([H])([H])C([H])([H])C2([H])N([H])C(=O)C1([H])N(C(=O)C([H])(N([H])C(=O)C([H])(N([H])C([H])([H])[H])C([H])([H])[H])C(C([H])([H])[H])(C([H])([H])[H])C([H])([H])[H])C([H])([H])c2c([H])c(OC([H])([H])C([H])([H])C([H])([H])C([H])([H])N([H])C(=O)C([H])([H])OC([H])([H])C([H])([H])C([H])([H])N([H])C(=O)N3C([H])([H])C([H])([H])C([H])([H])C([H])(n4nc(-c5c([H])c([H])c(Oc6c([H])c([H])c(F)c([H])c6F)c([H])c5[H])c(C(=O)N([H])[H])c4N([H])[H])C3([H])[H])c([H])c([H])c2C1([H])[H]

>  <smiles>  (33) 
[H]c1c([H])c([H])c2c(c1[H])C([H])([H])C([H])([H])C([H])([H])C2([H])N([H])C(=O)C1([H])N(C(=O)C([H])(N([H])C(=O)C([H])(N([H])C([H])([H])[H])C([H])([H])[H])C(C([H])([H])[H])(C([H])([H])[H])C([H])([H])[H])C([H])([H])c2c([H])c(OC([H])([H])C([H])([H])C([H])([H])C([H])([H])N([H])C(=O)C([H])([H])OC([H])([H])C([H])([H])C([H])([H])N([H])C(=O)N3C([H])([H])C([H])([H])C([H])([H])C([H])(n4nc(-c5c([H])c([H])c(Oc6c([H])c([H])c(F)c([H])c6F)c([H])c5[H])c(C(=O)N([H])[H])c4N([H])[H])C3([H])[H])c([H])c([H])c2C1([H])[H]

$$$$
33:0:0
     RDKit          3D

 92 99  0  0  1  0  0  0  0  0999 V2000
  -30.6910  -22.4210   19.7990 C   0  0  0  0  0  2  0  0  0  0  0  0
  -30.5270  -19.9590   19.9300 C   0  0  0  0  0  0  0  0  0  0  0  0
  -30.7370  -18.9280   20.7500 N   0  0  0  0  0  0  0  0  0  0  0  0
  -30.9010  -21.1280   20.4490 N   0  0  0  0  0  0  0  0  0  0  0  0
  -30.0250  -19.8500   18.8120 O   0  0  0  0  0  0  0  0  0  0  0  0
  -31.1520  -19.0990   21.6550 H   0  0  0  0  0  0  0  0  0  0  0  0
  -31.3180  -21.1370   21.3700 H   0  0  0  0  0  0  0  0  0  0  0  0
  -30.4050  -17.5470   20.4240 C   0  0  0  0  0  2  0  0  0  0  0  0
  -30.5770  -16.6300   21.6510 C   0  0  0  0  0  2  0  0  0  0  0  0
  -30.7000  -14.3840   20.5840 C   0  0  0  0  0  0  0  0  0  0  0  0
  -30.3610  -12.3040   19.3170 C   0  0  0  0  0  2  0  0  0  0  0  0
  -29.4170  -12.5600   18.1260 C   0  0  0  0  0  2  0  0  0  0  0  0
  -27.9400  -12.4340   18.5480 C   0  0  0  0  0  2  0  0  0  0  0  0
  -27.6170  -13.2390   19.8360 C   0  0  0  0  0  3  0  0  0  0  0  0
  -28.6610  -12.9420   20.9350 C   0  0  0  0  0  2  0  0  0  0  0  0
  -29.9990  -13.2400   20.3900 N   0  0  0  0  0  0  0  0  0  0  0  0
  -31.7720  -14.6310   20.0240 O   0  0  0  0  0  0  0  0  0  0  0  0
  -30.1060  -15.2770   21.3810 N   0  0  0  0  0  0  0  0  0  0  0  0
  -29.2250  -15.0040   21.7890 H   0  0  0  0  0  0  0  0  0  0  0  0
  -25.2130  -13.8710   20.5110 C   0  0  0  0  0  0  0  0  0  0  0  0
  -24.1360  -13.1080   20.8760 C   0  0  0  0  0  0  0  0  0  0  0  0
  -24.5890  -11.7520   20.8610 C   0  0  0  0  0  0  0  0  0  0  0  0
  -26.2550  -12.9820   20.2990 N   0  0  0  0  0  0  0  0  0  0  0  0
  -25.8810  -11.7030   20.5620 N   0  0  0  0  0  0  0  0  0  0  0  0
  -23.8550  -10.4960   21.0550 C   0  0  0  0  0  0  0  0  0  0  0  0
  -24.2840   -9.5260   21.9870 C   0  0  0  0  0  3  0  0  0  0  0  0
  -23.5490   -8.3340   22.1680 C   0  0  0  0  0  3  0  0  0  0  0  0
  -22.3750   -8.1030   21.4130 C   0  0  0  0  0  0  0  0  0  0  0  0
  -21.9650   -9.0630   20.4700 C   0  0  0  0  0  3  0  0  0  0  0  0
  -22.7000  -10.2460   20.2890 C   0  0  0  0  0  3  0  0  0  0  0  0
  -21.6130   -6.9630   21.5010 O   0  0  0  0  0  0  0  0  0  0  0  0
  -21.5690   -6.2130   22.6480 C   0  0  0  0  0  0  0  0  0  0  0  0
  -21.1660   -6.7660   23.8840 C   0  0  0  0  0  3  0  0  0  0  0  0
  -21.0690   -5.9450   25.0240 C   0  0  0  0  0  3  0  0  0  0  0  0
  -21.3630   -4.5710   24.9300 C   0  0  0  0  0  0  0  0  0  0  0  0
  -21.7590   -4.0180   23.7010 C   0  0  0  0  0  3  0  0  0  0  0  0
  -21.8580   -4.8370   22.5620 C   0  0  0  0  0  0  0  0  0  0  0  0
  -22.2180   -4.2930   21.3740 F   0  0  0  0  0  0  0  0  0  0  0  0
  -21.2620   -3.7800   26.0240 F   0  0  0  0  0  0  0  0  0  0  0  0
  -22.7400  -13.5970   21.1350 C   0  0  0  0  0  0  0  0  0  0  0  0
  -22.0010  -12.9140   22.0030 N   0  0  0  0  0  0  0  0  0  0  0  0
  -22.3120  -14.6210   20.6050 O   0  0  0  0  0  0  0  0  0  0  0  0
  -22.3600  -12.0860   22.4540 H   0  0  0  0  0  0  0  0  0  0  0  0
  -21.0660  -13.2270   22.2190 H   0  0  0  0  0  0  0  0  0  0  0  0
  -25.3840  -15.2390   20.3280 N   0  0  0  0  0  0  0  0  0  0  0  0
  -24.6170  -15.8950   20.4280 H   0  0  0  0  0  0  0  0  0  0  0  0
  -26.2420  -15.6770   20.0160 H   0  0  0  0  0  0  0  0  0  0  0  0
  -30.8210  -23.5720   20.8090 C   0  0  0  0  0  2  0  0  0  0  0  0
  -30.4290  -24.7940   20.1960 O   0  0  0  0  0  0  0  0  0  0  0  0
  -30.3680  -25.8810   21.1200 C   0  0  0  0  0  2  0  0  0  0  0  0
  -29.6510  -27.0880   20.4890 C   0  0  0  0  0  2  0  0  0  0  0  0
  -28.3570  -26.6510   20.0790 O   0  0  0  0  0  0  0  0  0  0  0  0
  -24.5750  -31.8730   23.2320 C   0  0  0  0  0  0  0  0  0  0  0  0
  -27.2460  -27.4650   20.1460 C   0  0  0  0  0  0  0  0  0  0  0  0
  -23.3660  -30.4680   21.5930 C   0  0  0  0  0  3  0  0  0  0  0  0
  -24.8250  -28.9330   20.1700 C   0  0  0  0  0  0  0  0  0  0  0  0
  -25.8870  -30.8430   21.3840 C   0  0  0  0  0  2  0  0  0  0  0  0
  -25.9800  -29.4720   20.7500 C   0  0  0  0  0  0  0  0  0  0  0  0
  -27.1920  -28.7520   20.7380 C   0  0  0  0  0  3  0  0  0  0  0  0
  -26.0700  -26.9360   19.5760 C   0  0  0  0  0  3  0  0  0  0  0  0
  -24.8630  -27.6590   19.5800 C   0  0  0  0  0  3  0  0  0  0  0  0
  -23.5750  -29.7850   20.2140 C   0  0  0  0  0  2  0  0  0  0  0  0
  -24.6270  -31.0740   22.1290 N   0  0  0  0  0  0  0  0  0  0  0  0
  -23.4950  -32.1450   23.7750 O   0  0  0  0  0  0  0  0  0  0  0  0
  -22.7180  -29.4470   22.5550 C   0  0  0  0  0  0  0  0  0  0  0  0
  -21.3940  -29.2680   22.4310 N   0  0  0  0  0  0  0  0  0  0  0  0
  -23.4040  -28.8200   23.3680 O   0  0  0  0  0  0  0  0  0  0  0  0
  -20.9010  -29.8250   21.7470 H   0  0  0  0  0  0  0  0  0  0  0  0
  -18.0170  -28.0890   22.9390 C   0  0  0  0  0  0  0  0  0  0  0  0
  -20.5770  -28.3310   23.2030 C   0  0  0  0  0  3  0  0  0  0  0  0
  -20.6700  -26.9010   22.6220 C   0  0  0  0  0  2  0  0  0  0  0  0
  -19.5630  -26.5870   21.6110 C   0  0  0  0  0  2  0  0  0  0  0  0
  -18.1840  -26.7390   22.2600 C   0  0  0  0  0  2  0  0  0  0  0  0
  -19.1420  -28.8420   23.3670 C   0  0  0  0  0  0  0  0  0  0  0  0
  -18.9330  -30.1070   23.9600 C   0  0  0  0  0  3  0  0  0  0  0  0
  -17.6320  -30.6170   24.1290 C   0  0  0  0  0  3  0  0  0  0  0  0
  -16.5220  -29.8580   23.7190 C   0  0  0  0  0  3  0  0  0  0  0  0
  -16.7150  -28.5960   23.1300 C   0  0  0  0  0  3  0  0  0  0  0  0
  -25.8630  -32.5030   23.8490 C   0  0  0  0  0  3  0  0  0  0  0  0
  -25.5550  -33.9000   24.1830 N   0  0  0  0  0  0  0  0  0  0  0  0
  -25.8910  -34.9540   23.4250 C   0  0  0  0  0  0  0  0  0  0  0  0
  -26.5630  -34.8510   22.3960 O   0  0  0  0  0  0  0  0  0  0  0  0
  -24.9590  -34.0550   24.9830 H   0  0  0  0  0  0  0  0  0  0  0  0
  -24.1640  -36.7460   23.0670 C   0  0  0  0  0  1  0  0  0  0  0  0
  -25.4010  -36.3400   23.8840 C   0  0  0  0  0  3  0  0  0  0  0  0
  -27.5350  -37.2180   24.7250 C   0  0  0  0  0  1  0  0  0  0  0  0
  -26.4350  -37.3930   23.7800 N   0  0  0  0  0  0  0  0  0  0  0  0
  -26.0300  -38.3130   23.9320 H   0  0  0  0  0  0  0  0  0  0  0  0
  -26.3900  -31.7260   25.1190 C   0  0  1  0  0  0  0  0  0  0  0  0
  -25.3050  -31.4820   26.1920 C   0  0  0  0  0  1  0  0  0  0  0  0
  -26.9720  -30.3520   24.7130 C   0  0  0  0  0  1  0  0  0  0  0  0
  -27.5430  -32.5190   25.7780 C   0  0  0  0  0  1  0  0  0  0  0  0
  1  4  1  0
  1 48  1  0
  2  4  1  0
  2  3  1  0
  3  6  1  0
  4  7  1  0
  5  2  2  0
  8  3  1  0
  8  9  1  0
 10 18  1  0
 11 16  1  0
 12 13  1  0
 12 11  1  0
 14 13  1  0
 14 23  1  0
 14 15  1  0
 16 10  1  0
 16 15  1  0
 17 10  2  0
 18  9  1  0
 18 19  1  0
 20 21  2  0
 21 40  1  0
 22 21  1  0
 22 25  1  0
 23 20  1  0
 23 24  1  0
 24 22  2  0
 25 26  1  0
 26 27  2  0
 28 31  1  0
 28 27  1  0
 29 28  2  0
 30 29  1  0
 30 25  2  0
 31 32  1  0
 32 33  1  0
 33 34  2  0
 35 34  1  0
 35 39  1  0
 36 35  2  0
 37 32  2  0
 37 36  1  0
 38 37  1  0
 40 41  1  0
 41 44  1  0
 41 43  1  0
 42 40  2  0
 45 46  1  0
 45 20  1  0
 47 45  1  0
 49 48  1  0
 49 50  1  0
 51 50  1  0
 52 54  1  0
 52 51  1  0
 53 64  2  0
 54 59  1  0
 55 63  1  0
 55 65  1  0
 56 62  1  0
 56 58  1  0
 57 63  1  0
 58 57  1  0
 59 58  2  0
 60 61  1  0
 60 54  2  0
 61 56  2  0
 62 55  1  0
 63 53  1  0
 65 67  2  0
 66 65  1  0
 68 66  1  0
 69 78  2  0
 69 74  1  0
 70 66  1  0
 70 74  1  0
 71 70  1  0
 72 73  1  0
 72 71  1  0
 73 69  1  0
 74 75  2  0
 75 76  1  0
 77 76  2  0
 78 77  1  0
 79 53  1  0
 79 80  1  0
 79 89  1  0
 80 83  1  0
 81 85  1  0
 81 80  1  0
 82 81  2  0
 85 84  1  0
 87 85  1  0
 87 88  1  0
 87 86  1  0
 89 92  1  1
 89 90  1  0
 91 89  1  0
M  ISO  4  10 100  18 100  51 101  52 101
M  END
>  <TORSDO>  (34) 
F 23

>  <SCORE>  (34) 
-12.821

>  <name>  (34) 
33

>  <ligand_id>  (34) 
33

>  <original_smiles>  (34) 
[H]c1c([H])c([H])c2c(c1[H])C([H])([H])C([H])([H])C([H])([H])C2([H])N([H])C(=O)C1([H])N(C(=O)C([H])(N([H])C(=O)C([H])(N([H])C([H])([H])[H])C([H])([H])[H])C(C([H])([H])[H])(C([H])([H])[H])C([H])([H])[H])C([H])([H])c2c([H])c(OC([H])([H])C([H])([H])OC([H])([H])C([H])([H])N([H])C(=O)N([H])C([H])([H])C([H])([H])N([H])C(=O)N3C([H])([H])C([H])([H])C([H])([H])C([H])(n4nc(-c5c([H])c([H])c(Oc6c([H])c([H])c(F)c([H])c6F)c([H])c5[H])c(C(=O)N([H])[H])c4N([H])[H])C3([H])[H])c([H])c([H])c2C1([H])[H]

>  <smiles>  (34) 
[H]c1c([H])c([H])c2c(c1[H])C([H])([H])C([H])([H])C([H])([H])C2([H])N([H])C(=O)C1([H])N(C(=O)C([H])(N([H])C(=O)C([H])(N([H])C([H])([H])[H])C([H])([H])[H])C(C([H])([H])[H])(C([H])([H])[H])C([H])([H])[H])C([H])([H])c2c([H])c(OC([H])([H])C([H])([H])OC([H])([H])C([H])([H])N([H])C(=O)N([H])C([H])([H])C([H])([H])N([H])C(=O)N3C([H])([H])C([H])([H])C([H])([H])C([H])(n4nc(-c5c([H])c([H])c(Oc6c([H])c([H])c(F)c([H])c6F)c([H])c5[H])c(C(=O)N([H])[H])c4N([H])[H])C3([H])[H])c([H])c([H])c2C1([H])[H]

$$$$
34:0:0
     RDKit          3D

 94101  0  0  1  0  0  0  0  0999 V2000
  -30.3500  -19.8650   22.3890 C   0  0  0  0  0  0  0  0  0  0  0  0
  -31.3310  -19.0270   22.7170 N   0  0  0  0  0  0  0  0  0  0  0  0
  -30.5440  -20.4320   21.2020 N   0  0  0  0  0  0  0  0  0  0  0  0
  -29.3550  -20.0690   23.0860 O   0  0  0  0  0  0  0  0  0  0  0  0
  -32.1530  -19.0030   22.1290 H   0  0  0  0  0  0  0  0  0  0  0  0
  -31.3570  -20.1670   20.6610 H   0  0  0  0  0  0  0  0  0  0  0  0
  -31.2660  -18.0330   23.7830 C   0  0  0  0  0  2  0  0  0  0  0  0
  -30.8290  -16.6720   23.2170 C   0  0  0  0  0  2  0  0  0  0  0  0
  -31.5990  -16.2780   21.9420 C   0  0  0  0  0  2  0  0  0  0  0  0
  -31.5300  -14.7830   21.6060 C   0  0  0  0  0  2  0  0  0  0  0  0
  -29.9190  -14.2480   19.8030 C   0  0  0  0  0  0  0  0  0  0  0  0
  -29.3340  -12.3170   18.4060 C   0  0  0  0  0  2  0  0  0  0  0  0
  -28.1800  -12.5040   17.4130 C   0  0  0  0  0  2  0  0  0  0  0  0
  -26.8390  -12.2060   18.0970 C   0  0  0  0  0  2  0  0  0  0  0  0
  -26.6610  -12.9910   19.4210 C   0  0  0  0  0  3  0  0  0  0  0  0
  -27.9030  -12.8580   20.3350 C   0  0  0  0  0  2  0  0  0  0  0  0
  -29.1180  -13.1870   19.5670 N   0  0  0  0  0  0  0  0  0  0  0  0
  -30.5830  -14.8260   18.9340 O   0  0  0  0  0  0  0  0  0  0  0  0
  -30.2260  -14.3570   21.1010 N   0  0  0  0  0  0  0  0  0  0  0  0
  -29.6630  -13.7940   21.7260 H   0  0  0  0  0  0  0  0  0  0  0  0
  -24.3830  -13.3760   20.5600 C   0  0  0  0  0  0  0  0  0  0  0  0
  -23.4500  -12.5050   21.0540 C   0  0  0  0  0  0  0  0  0  0  0  0
  -23.9930  -11.1970   20.8690 C   0  0  0  0  0  0  0  0  0  0  0  0
  -25.4340  -12.5910   20.1080 N   0  0  0  0  0  0  0  0  0  0  0  0
  -25.2110  -11.2730   20.3500 N   0  0  0  0  0  0  0  0  0  0  0  0
  -23.4000   -9.8730   21.1050 C   0  0  0  0  0  0  0  0  0  0  0  0
  -23.9870   -8.9500   21.9970 C   0  0  0  0  0  3  0  0  0  0  0  0
  -23.3870   -7.6920   22.2220 C   0  0  0  0  0  3  0  0  0  0  0  0
  -22.1870   -7.3470   21.5540 C   0  0  0  0  0  0  0  0  0  0  0  0
  -21.6220   -8.2610   20.6480 C   0  0  0  0  0  3  0  0  0  0  0  0
  -22.2240   -9.5100   20.4220 C   0  0  0  0  0  3  0  0  0  0  0  0
  -21.5490   -6.1380   21.6900 O   0  0  0  0  0  0  0  0  0  0  0  0
  -21.5850   -5.4320   22.8660 C   0  0  0  0  0  0  0  0  0  0  0  0
  -21.1100   -5.9810   24.0770 C   0  0  0  0  0  3  0  0  0  0  0  0
  -21.1010   -5.1980   25.2480 C   0  0  0  0  0  3  0  0  0  0  0  0
  -21.5550   -3.8660   25.2090 C   0  0  0  0  0  0  0  0  0  0  0  0
  -22.0220   -3.3150   24.0020 C   0  0  0  0  0  3  0  0  0  0  0  0
  -22.0340   -4.0960   22.8320 C   0  0  0  0  0  0  0  0  0  0  0  0
  -22.4650   -3.5560   21.6680 F   0  0  0  0  0  0  0  0  0  0  0  0
  -21.5380   -3.1090   26.3310 F   0  0  0  0  0  0  0  0  0  0  0  0
  -22.0900  -12.8580   21.5850 C   0  0  0  0  0  0  0  0  0  0  0  0
  -21.5890  -12.0830   22.5420 N   0  0  0  0  0  0  0  0  0  0  0  0
  -21.4880  -13.8550   21.1910 O   0  0  0  0  0  0  0  0  0  0  0  0
  -22.0920  -11.2730   22.8740 H   0  0  0  0  0  0  0  0  0  0  0  0
  -20.6890  -12.3010   22.9440 H   0  0  0  0  0  0  0  0  0  0  0  0
  -24.4170  -14.7610   20.4350 N   0  0  0  0  0  0  0  0  0  0  0  0
  -23.6430  -15.3520   20.7180 H   0  0  0  0  0  0  0  0  0  0  0  0
  -25.1760  -15.2790   20.0080 H   0  0  0  0  0  0  0  0  0  0  0  0
  -29.6560  -21.4150   20.5970 C   0  0  0  0  0  2  0  0  0  0  0  0
  -30.2390  -22.8200   20.7550 C   0  0  0  0  0  2  0  0  0  0  0  0
  -29.4740  -23.7000   19.9570 O   0  0  0  0  0  0  0  0  0  0  0  0
  -29.7790  -25.0700   20.1710 C   0  0  0  0  0  2  0  0  0  0  0  0
  -28.6950  -25.8690   19.4460 C   0  0  0  0  0  2  0  0  0  0  0  0
  -28.6640  -27.2130   19.9100 O   0  0  0  0  0  0  0  0  0  0  0  0
  -24.6370  -31.9560   23.3190 C   0  0  0  0  0  0  0  0  0  0  0  0
  -27.4350  -27.8350   19.9560 C   0  0  0  0  0  0  0  0  0  0  0  0
  -23.4660  -30.5720   21.6370 C   0  0  0  0  0  3  0  0  0  0  0  0
  -24.9600  -29.1920   20.1020 C   0  0  0  0  0  0  0  0  0  0  0  0
  -25.9630  -31.0760   21.4040 C   0  0  0  0  0  2  0  0  0  0  0  0
  -26.1030  -29.7480   20.6910 C   0  0  0  0  0  0  0  0  0  0  0  0
  -27.3400  -29.0790   20.6140 C   0  0  0  0  0  3  0  0  0  0  0  0
  -26.2710  -27.2830   19.3700 C   0  0  0  0  0  3  0  0  0  0  0  0
  -25.0400  -27.9580   19.4360 C   0  0  0  0  0  3  0  0  0  0  0  0
  -23.6760  -29.9780   20.2200 C   0  0  0  0  0  2  0  0  0  0  0  0
  -24.7070  -31.2150   22.1780 N   0  0  0  0  0  0  0  0  0  0  0  0
  -23.5570  -32.1460   23.8940 O   0  0  0  0  0  0  0  0  0  0  0  0
  -22.8930  -29.4700   22.5550 C   0  0  0  0  0  0  0  0  0  0  0  0
  -21.6000  -29.1560   22.3740 N   0  0  0  0  0  0  0  0  0  0  0  0
  -23.6080  -28.9010   23.3840 O   0  0  0  0  0  0  0  0  0  0  0  0
  -21.0850  -29.6730   21.6750 H   0  0  0  0  0  0  0  0  0  0  0  0
  -18.3600  -27.5900   22.6900 C   0  0  0  0  0  0  0  0  0  0  0  0
  -20.8530  -28.1300   23.1010 C   0  0  0  0  0  3  0  0  0  0  0  0
  -21.1490  -26.7220   22.5330 C   0  0  0  0  0  2  0  0  0  0  0  0
  -20.1470  -26.2820   21.4610 C   0  0  0  0  0  2  0  0  0  0  0  0
  -18.7240  -26.2710   22.0270 C   0  0  0  0  0  2  0  0  0  0  0  0
  -19.3610  -28.4700   23.1790 C   0  0  0  0  0  0  0  0  0  0  0  0
  -18.9720  -29.6990   23.7520 C   0  0  0  0  0  3  0  0  0  0  0  0
  -17.6130  -30.0520   23.8450 C   0  0  0  0  0  3  0  0  0  0  0  0
  -16.6240  -29.1690   23.3760 C   0  0  0  0  0  3  0  0  0  0  0  0
  -16.9990  -27.9410   22.8030 C   0  0  0  0  0  3  0  0  0  0  0  0
  -25.9060  -32.6200   23.9430 C   0  0  0  0  0  3  0  0  0  0  0  0
  -26.4290  -31.8760   25.2330 C   0  0  1  0  0  0  0  0  0  0  0  0
  -25.3230  -31.5890   26.2770 C   0  0  0  0  0  1  0  0  0  0  0  0
  -27.0780  -30.5250   24.8510 C   0  0  0  0  0  1  0  0  0  0  0  0
  -27.5310  -32.7190   25.9140 C   0  0  0  0  0  1  0  0  0  0  0  0
  -25.5690  -34.0150   24.2470 N   0  0  0  0  0  0  0  0  0  0  0  0
  -25.8810  -35.0600   23.4680 C   0  0  0  0  0  0  0  0  0  0  0  0
  -26.5550  -34.9510   22.4400 O   0  0  0  0  0  0  0  0  0  0  0  0
  -24.9740  -34.1740   25.0470 H   0  0  0  0  0  0  0  0  0  0  0  0
  -24.1160  -36.8030   23.0710 C   0  0  0  0  0  1  0  0  0  0  0  0
  -25.3610  -36.4440   23.8980 C   0  0  0  0  0  3  0  0  0  0  0  0
  -27.4710  -37.3840   24.7240 C   0  0  0  0  0  1  0  0  0  0  0  0
  -26.3700  -37.5180   23.7740 N   0  0  0  0  0  0  0  0  0  0  0  0
  -25.9450  -38.4320   23.9090 H   0  0  0  0  0  0  0  0  0  0  0  0
  1  2  1  0
  1  4  2  0
  2  7  1  0
  3  1  1  0
  5  2  1  0
  6  3  1  0
  8  7  1  0
  9  8  1  0
 10  9  1  0
 11 19  1  0
 12 17  1  0
 13 14  1  0
 13 12  1  0
 15 14  1  0
 15 24  1  0
 15 16  1  0
 17 11  1  0
 17 16  1  0
 18 11  2  0
 19 10  1  0
 19 20  1  0
 21 22  2  0
 22 41  1  0
 23 22  1  0
 23 26  1  0
 24 25  1  0
 24 21  1  0
 25 23  2  0
 26 27  1  0
 27 28  2  0
 29 32  1  0
 29 28  1  0
 30 29  2  0
 31 30  1  0
 31 26  2  0
 32 33  1  0
 33 34  1  0
 34 35  2  0
 36 35  1  0
 36 40  1  0
 37 36  2  0
 38 33  2  0
 38 37  1  0
 39 38  1  0
 41 42  1  0
 42 44  1  0
 42 45  1  0
 43 41  2  0
 46 21  1  0
 46 47  1  0
 48 46  1  0
 49 50  1  0
 49  3  1  0
 51 52  1  0
 51 50  1  0
 53 54  1  0
 53 52  1  0
 54 56  1  0
 55 66  2  0
 56 61  1  0
 57 65  1  0
 57 67  1  0
 58 64  1  0
 58 60  1  0
 59 65  1  0
 60 59  1  0
 61 60  2  0
 62 63  1  0
 62 56  2  0
 63 58  2  0
 64 57  1  0
 65 55  1  0
 67 69  2  0
 68 67  1  0
 70 68  1  0
 71 80  2  0
 71 76  1  0
 72 68  1  0
 72 76  1  0
 73 72  1  0
 74 75  1  0
 74 73  1  0
 75 71  1  0
 76 77  2  0
 77 78  1  0
 79 78  2  0
 80 79  1  0
 81 55  1  0
 81 86  1  0
 81 82  1  0
 82 85  1  1
 82 83  1  0
 84 82  1  0
 86 89  1  0
 87 91  1  0
 87 86  1  0
 88 87  2  0
 91 90  1  0
 93 91  1  0
 93 94  1  0
 93 92  1  0
M  ISO  4  11 100  19 100  53 101  54 101
M  END
>  <TORSDO>  (35) 
F 25

>  <SCORE>  (35) 
-6.468

>  <name>  (35) 
34

>  <ligand_id>  (35) 
34

>  <original_smiles>  (35) 
[H]c1c([H])c([H])c2c(c1[H])C([H])([H])C([H])([H])C([H])([H])C2([H])N([H])C(=O)C1([H])N(C(=O)C([H])(N([H])C(=O)C([H])(N([H])C([H])([H])[H])C([H])([H])[H])C(C([H])([H])[H])(C([H])([H])[H])C([H])([H])[H])C([H])([H])c2c([H])c(OC([H])([H])C([H])([H])OC([H])([H])C([H])([H])N([H])C(=O)N([H])C([H])([H])C([H])([H])C([H])([H])C([H])([H])N([H])C(=O)N3C([H])([H])C([H])([H])C([H])([H])C([H])(n4nc(-c5c([H])c([H])c(Oc6c([H])c([H])c(F)c([H])c6F)c([H])c5[H])c(C(=O)N([H])[H])c4N([H])[H])C3([H])[H])c([H])c([H])c2C1([H])[H]

>  <smiles>  (35) 
[H]c1c([H])c([H])c2c(c1[H])C([H])([H])C([H])([H])C([H])([H])C2([H])N([H])C(=O)C1([H])N(C(=O)C([H])(N([H])C(=O)C([H])(N([H])C([H])([H])[H])C([H])([H])[H])C(C([H])([H])[H])(C([H])([H])[H])C([H])([H])[H])C([H])([H])c2c([H])c(OC([H])([H])C([H])([H])OC([H])([H])C([H])([H])N([H])C(=O)N([H])C([H])([H])C([H])([H])C([H])([H])C([H])([H])N([H])C(=O)N3C([H])([H])C([H])([H])C([H])([H])C([H])(n4nc(-c5c([H])c([H])c(Oc6c([H])c([H])c(F)c([H])c6F)c([H])c5[H])c(C(=O)N([H])[H])c4N([H])[H])C3([H])[H])c([H])c([H])c2C1([H])[H]

$$$$
35:0:0
     RDKit          3D

 89 97  0  0  1  0  0  0  0  0999 V2000
  -28.9150  -21.3680   20.4850 C   0  0  0  0  0  2  0  0  0  0  0  0
  -30.6410  -14.6660   20.1610 C   0  0  0  0  0  0  0  0  0  0  0  0
  -30.3580  -12.4400   19.1050 C   0  0  0  0  0  2  0  0  0  0  0  0
  -29.3840  -12.5730   17.9160 C   0  0  0  0  0  2  0  0  0  0  0  0
  -27.9240  -12.4220   18.3900 C   0  0  0  0  0  2  0  0  0  0  0  0
  -27.6040  -13.2800   19.6440 C   0  0  0  0  0  3  0  0  0  0  0  0
  -28.6970  -13.1470   20.7250 C   0  0  0  0  0  2  0  0  0  0  0  0
  -29.9780  -13.4710   20.0910 N   0  0  0  0  0  0  0  0  0  0  0  0
  -31.8320  -14.7400   19.8400 O   0  0  0  0  0  0  0  0  0  0  0  0
  -28.8960  -20.1350   19.4960 C   0  0  0  0  0  0  0  0  0  0  0  0
  -28.7700  -17.6960   18.9470 C   0  0  0  0  0  2  0  0  0  0  0  0
  -29.4420  -18.2820   21.2060 C   0  0  0  0  0  3  0  0  0  0  0  0
  -29.8730  -16.6140   18.9480 C   0  0  0  0  0  2  0  0  0  0  0  0
  -29.9390  -16.7610   21.3480 C   0  0  0  0  0  3  0  0  0  0  0  0
  -29.0820  -18.8080   19.8670 N   0  0  0  0  0  0  0  0  0  0  0  0
  -29.8800  -15.8210   20.1870 N   0  0  0  0  0  0  0  0  0  0  0  0
  -28.6580  -20.4120   18.3140 O   0  0  0  0  0  0  0  0  0  0  0  0
  -25.2370  -13.8640   20.4470 C   0  0  0  0  0  0  0  0  0  0  0  0
  -24.1820  -13.0850   20.8380 C   0  0  0  0  0  0  0  0  0  0  0  0
  -24.6450  -11.7350   20.7820 C   0  0  0  0  0  0  0  0  0  0  0  0
  -26.2740  -12.9890   20.1720 N   0  0  0  0  0  0  0  0  0  0  0  0
  -25.9270  -11.7030   20.4370 N   0  0  0  0  0  0  0  0  0  0  0  0
  -23.9270  -10.4700   20.9810 C   0  0  0  0  0  0  0  0  0  0  0  0
  -24.3740   -9.5030   21.9070 C   0  0  0  0  0  3  0  0  0  0  0  0
  -23.6550   -8.3030   22.0950 C   0  0  0  0  0  3  0  0  0  0  0  0
  -22.4740   -8.0600   21.3530 C   0  0  0  0  0  0  0  0  0  0  0  0
  -22.0450   -9.0160   20.4140 C   0  0  0  0  0  3  0  0  0  0  0  0
  -22.7660  -10.2080   20.2260 C   0  0  0  0  0  3  0  0  0  0  0  0
  -21.7240   -6.9130   21.4490 O   0  0  0  0  0  0  0  0  0  0  0  0
  -21.6740   -6.1820   22.6080 C   0  0  0  0  0  0  0  0  0  0  0  0
  -21.2240   -6.7410   23.8240 C   0  0  0  0  0  3  0  0  0  0  0  0
  -21.1220   -5.9350   24.9750 C   0  0  0  0  0  3  0  0  0  0  0  0
  -21.4600   -4.5700   24.9110 C   0  0  0  0  0  0  0  0  0  0  0  0
  -21.9020   -4.0100   23.7000 C   0  0  0  0  0  3  0  0  0  0  0  0
  -22.0060   -4.8130   22.5510 C   0  0  0  0  0  0  0  0  0  0  0  0
  -22.4130   -4.2630   21.3820 F   0  0  0  0  0  0  0  0  0  0  0  0
  -21.3540   -3.7930   26.0150 F   0  0  0  0  0  0  0  0  0  0  0  0
  -22.7920  -13.5570   21.1530 C   0  0  0  0  0  0  0  0  0  0  0  0
  -22.0870  -12.8500   22.0290 N   0  0  0  0  0  0  0  0  0  0  0  0
  -22.3400  -14.5880   20.6560 O   0  0  0  0  0  0  0  0  0  0  0  0
  -22.4670  -12.0170   22.4540 H   0  0  0  0  0  0  0  0  0  0  0  0
  -21.1560  -13.1480   22.2820 H   0  0  0  0  0  0  0  0  0  0  0  0
  -25.3980  -15.2370   20.2800 N   0  0  0  0  0  0  0  0  0  0  0  0
  -24.6440  -15.8970   20.4310 H   0  0  0  0  0  0  0  0  0  0  0  0
  -26.2540  -15.6750   19.9680 H   0  0  0  0  0  0  0  0  0  0  0  0
  -28.7580  -22.6550   19.7750 O   0  0  0  0  0  0  0  0  0  0  0  0
  -28.5340  -23.8980   20.5240 C   0  0  0  0  0  2  0  0  0  0  0  0
  -28.5460  -25.2230   19.6380 C   0  0  0  0  0  2  0  0  0  0  0  0
  -28.4230  -26.5570   20.2660 O   0  0  0  0  0  0  0  0  0  0  0  0
  -24.5720  -31.8730   23.2220 C   0  0  0  0  0  0  0  0  0  0  0  0
  -27.2650  -27.3440   20.1930 C   0  0  0  0  0  0  0  0  0  0  0  0
  -23.4050  -30.4740   21.5550 C   0  0  0  0  0  3  0  0  0  0  0  0
  -24.8860  -28.9340   20.1530 C   0  0  0  0  0  0  0  0  0  0  0  0
  -25.9440  -30.8080   21.4180 C   0  0  0  0  0  2  0  0  0  0  0  0
  -26.0410  -29.4320   20.7690 C   0  0  0  0  0  0  0  0  0  0  0  0
  -27.2290  -28.6470   20.7790 C   0  0  0  0  0  3  0  0  0  0  0  0
  -26.0780  -26.8860   19.5750 C   0  0  0  0  0  3  0  0  0  0  0  0
  -24.9060  -27.6670   19.5510 C   0  0  0  0  0  3  0  0  0  0  0  0
  -23.6470  -29.8040   20.1770 C   0  0  0  0  0  2  0  0  0  0  0  0
  -24.6580  -31.0680   22.1220 N   0  0  0  0  0  0  0  0  0  0  0  0
  -23.4780  -32.1430   23.7380 O   0  0  0  0  0  0  0  0  0  0  0  0
  -22.7310  -29.4500   22.5000 C   0  0  0  0  0  0  0  0  0  0  0  0
  -21.4080  -29.2720   22.3520 N   0  0  0  0  0  0  0  0  0  0  0  0
  -23.3980  -28.8190   23.3240 O   0  0  0  0  0  0  0  0  0  0  0  0
  -20.9290  -29.8320   21.6590 H   0  0  0  0  0  0  0  0  0  0  0  0
  -18.0180  -28.1010   22.8180 C   0  0  0  0  0  0  0  0  0  0  0  0
  -20.5760  -28.3310   23.1040 C   0  0  0  0  0  3  0  0  0  0  0  0
  -20.6670  -26.9070   22.5090 C   0  0  0  0  0  2  0  0  0  0  0  0
  -19.5680  -26.6100   21.4840 C   0  0  0  0  0  2  0  0  0  0  0  0
  -18.1840  -26.7590   22.1230 C   0  0  0  0  0  2  0  0  0  0  0  0
  -19.1410  -28.8460   23.2650 C   0  0  0  0  0  0  0  0  0  0  0  0
  -18.9310  -30.1020   23.8730 C   0  0  0  0  0  3  0  0  0  0  0  0
  -17.6300  -30.6130   24.0400 C   0  0  0  0  0  3  0  0  0  0  0  0
  -16.5200  -29.8640   23.6100 C   0  0  0  0  0  3  0  0  0  0  0  0
  -16.7150  -28.6090   23.0050 C   0  0  0  0  0  3  0  0  0  0  0  0
  -25.8410  -32.5080   23.8700 C   0  0  0  0  0  3  0  0  0  0  0  0
  -26.3270  -31.7450   25.1630 C   0  0  1  0  0  0  0  0  0  0  0  0
  -25.2090  -31.5130   26.2070 C   0  0  0  0  0  1  0  0  0  0  0  0
  -26.9180  -30.3640   24.7940 C   0  0  0  0  0  1  0  0  0  0  0  0
  -27.4620  -32.5430   25.8480 C   0  0  0  0  0  1  0  0  0  0  0  0
  -25.5250  -33.9080   24.1860 N   0  0  0  0  0  0  0  0  0  0  0  0
  -25.8710  -34.9570   23.4270 C   0  0  0  0  0  0  0  0  0  0  0  0
  -26.5610  -34.8480   22.4100 O   0  0  0  0  0  0  0  0  0  0  0  0
  -24.9180  -34.0670   24.9770 H   0  0  0  0  0  0  0  0  0  0  0  0
  -24.1520  -36.7480   23.0240 C   0  0  0  0  0  1  0  0  0  0  0  0
  -25.3740  -36.3480   23.8650 C   0  0  0  0  0  3  0  0  0  0  0  0
  -27.4890  -37.2370   24.7410 C   0  0  0  0  0  1  0  0  0  0  0  0
  -26.4090  -37.4010   23.7720 N   0  0  0  0  0  0  0  0  0  0  0  0
  -25.9980  -38.3210   23.9070 H   0  0  0  0  0  0  0  0  0  0  0  0
  2 16  1  0
  3  8  1  0
  4  5  1  0
  4  3  1  0
  6  5  1  0
  6 21  1  0
  6  7  1  0
  8  2  1  0
  8  7  1  0
  9  2  2  0
 10 15  1  0
 10  1  1  0
 11 13  1  0
 11 15  1  0
 12 14  2  0
 13 16  1  0
 15 12  1  0
 16 14  1  0
 17 10  2  0
 18 19  2  0
 19 38  1  0
 20 19  1  0
 20 23  1  0
 21 22  1  0
 21 18  1  0
 22 20  2  0
 23 24  1  0
 24 25  2  0
 26 29  1  0
 26 25  1  0
 27 26  2  0
 28 27  1  0
 28 23  2  0
 29 30  1  0
 30 31  1  0
 31 32  2  0
 33 32  1  0
 33 37  1  0
 34 33  2  0
 35 30  2  0
 35 34  1  0
 36 35  1  0
 38 39  1  0
 39 42  1  0
 39 41  1  0
 40 38  2  0
 43 44  1  0
 43 18  1  0
 45 43  1  0
 46  1  1  0
 46 47  1  0
 48 49  1  0
 48 47  1  0
 50 61  2  0
 51 49  1  0
 51 56  1  0
 52 60  1  0
 52 62  1  0
 53 59  1  0
 53 55  1  0
 54 60  1  0
 55 56  2  0
 55 54  1  0
 57 51  2  0
 58 57  1  0
 58 53  2  0
 59 52  1  0
 60 50  1  0
 62 64  2  0
 63 62  1  0
 65 63  1  0
 66 75  2  0
 66 71  1  0
 67 63  1  0
 67 71  1  0
 68 67  1  0
 69 70  1  0
 69 68  1  0
 70 66  1  0
 71 72  2  0
 72 73  1  0
 74 73  2  0
 75 74  1  0
 76 50  1  0
 76 81  1  0
 76 77  1  0
 77 80  1  1
 77 78  1  0
 79 77  1  0
 81 84  1  0
 82 86  1  0
 82 81  1  0
 83 82  2  0
 86 85  1  0
 88 86  1  0
 88 89  1  0
 88 87  1  0
M  ISO  4   2 100  16 100  48 101  49 101
M  END
>  <TORSDO>  (36) 
F 19

>  <SCORE>  (36) 
-14.100

>  <name>  (36) 
35

>  <ligand_id>  (36) 
35

>  <original_smiles>  (36) 
[H]c1c([H])c([H])c2c(c1[H])C([H])([H])C([H])([H])C([H])([H])C2([H])N([H])C(=O)C1([H])N(C(=O)C([H])(N([H])C(=O)C([H])(N([H])C([H])([H])[H])C([H])([H])[H])C(C([H])([H])[H])(C([H])([H])[H])C([H])([H])[H])C([H])([H])c2c([H])c(OC([H])([H])C([H])([H])OC([H])([H])C(=O)N3C([H])([H])C([H])([H])N(C(=O)N4C([H])([H])C([H])([H])C([H])([H])C([H])(n5nc(-c6c([H])c([H])c(Oc7c([H])c([H])c(F)c([H])c7F)c([H])c6[H])c(C(=O)N([H])[H])c5N([H])[H])C4([H])[H])C([H])([H])C3([H])[H])c([H])c([H])c2C1([H])[H]

>  <smiles>  (36) 
[H]c1c([H])c([H])c2c(c1[H])C([H])([H])C([H])([H])C([H])([H])C2([H])N([H])C(=O)C1([H])N(C(=O)C([H])(N([H])C(=O)C([H])(N([H])C([H])([H])[H])C([H])([H])[H])C(C([H])([H])[H])(C([H])([H])[H])C([H])([H])[H])C([H])([H])c2c([H])c(OC([H])([H])C([H])([H])OC([H])([H])C(=O)N3C([H])([H])C([H])([H])N(C(=O)N4C([H])([H])C([H])([H])C([H])([H])C([H])(n5nc(-c6c([H])c([H])c(Oc7c([H])c([H])c(F)c([H])c7F)c([H])c6[H])c(C(=O)N([H])[H])c5N([H])[H])C4([H])[H])C([H])([H])C3([H])[H])c([H])c([H])c2C1([H])[H]

$$$$
37:0:0
     RDKit          3D

 82 86  0  0  1  0  0  0  0  0999 V2000
  -28.2030  -25.2140   20.1870 O   0  0  0  0  0  1  0  0  0  0  0  0
  -24.6590  -31.8230   23.1160 C   0  0  0  0  0  0  0  0  0  0  0  0
  -27.2270  -26.5180   20.2190 C   0  0  0  0  0  0  0  0  0  0  0  0
  -23.5030  -30.4040   21.4840 C   0  0  0  0  0  3  0  0  0  0  0  0
  -24.9680  -28.6960   20.1210 C   0  0  0  0  0  0  0  0  0  0  0  0
  -26.0920  -30.4850   21.4080 C   0  0  0  0  0  2  0  0  0  0  0  0
  -26.1660  -29.0180   20.7700 C   0  0  0  0  0  0  0  0  0  0  0  0
  -27.2690  -27.9690   20.7710 C   0  0  0  0  0  3  0  0  0  0  0  0
  -25.9850  -26.4690   19.5130 C   0  0  0  0  0  3  0  0  0  0  0  0
  -24.9320  -27.4500   19.4670 C   0  0  0  0  0  3  0  0  0  0  0  0
  -23.7680  -29.6710   20.1330 C   0  0  0  0  0  2  0  0  0  0  0  0
  -24.7790  -30.9440   22.0540 N   0  0  0  0  0  0  0  0  0  0  0  0
  -23.5550  -32.1300   23.6020 O   0  0  0  0  0  0  0  0  0  0  0  0
  -22.7610  -29.4600   22.4680 C   0  0  0  0  0  0  0  0  0  0  0  0
  -21.4220  -29.3490   22.3610 N   0  0  0  0  0  0  0  0  0  0  0  0
  -23.4040  -28.8170   23.3000 O   0  0  0  0  0  0  0  0  0  0  0  0
  -20.9470  -29.9240   21.6780 H   0  0  0  0  0  0  0  0  0  0  0  0
  -18.0030  -28.1330   22.8590 C   0  0  0  0  0  0  0  0  0  0  0  0
  -20.5950  -28.3830   23.0970 C   0  0  0  0  0  0  0  0  0  0  0  0
  -20.7720  -26.9760   22.4620 C   0  0  0  0  0  3  0  0  0  0  0  0
  -19.5380  -26.4150   21.7220 C   0  0  0  0  0  3  0  0  0  0  0  0
  -18.0990  -26.8440   22.0560 C   0  0  0  0  0  3  0  0  0  0  0  0
  -19.1450  -28.8670   23.2920 C   0  0  0  0  0  0  0  0  0  0  0  0
  -18.9400  -30.1130   23.9270 C   0  0  0  0  0  3  0  0  0  0  0  0
  -17.6430  -30.6230   24.1300 C   0  0  0  0  0  3  0  0  0  0  0  0
  -16.5250  -29.8800   23.7210 C   0  0  0  0  0  3  0  0  0  0  0  0
  -16.7080  -28.6360   23.0960 C   0  0  0  0  0  3  0  0  0  0  0  0
  -25.9010  -32.4970   23.7720 C   0  0  0  0  0  3  0  0  0  0  0  0
  -25.5540  -33.8960   24.1020 N   0  0  0  0  0  0  0  0  0  0  0  0
  -25.8860  -34.9730   23.3740 C   0  0  0  0  0  0  0  0  0  0  0  0
  -26.5670  -34.8910   22.3500 O   0  0  0  0  0  0  0  0  0  0  0  0
  -24.9460  -34.0310   24.8960 H   0  0  0  0  0  0  0  0  0  0  0  0
  -24.1500  -36.7720   23.0460 C   0  0  0  0  0  1  0  0  0  0  0  0
  -25.3900  -36.3550   23.8530 C   0  0  0  0  0  3  0  0  0  0  0  0
  -27.5120  -37.2520   24.7100 C   0  0  0  0  0  1  0  0  0  0  0  0
  -26.4160  -37.4190   23.7590 N   0  0  0  0  0  0  0  0  0  0  0  0
  -26.0000  -38.3340   23.9110 H   0  0  0  0  0  0  0  0  0  0  0  0
  -26.3860  -31.7540   25.0790 C   0  0  1  0  0  0  0  0  0  0  0  0
  -25.2660  -31.5290   26.1240 C   0  0  0  0  0  1  0  0  0  0  0  0
  -26.9880  -30.3730   24.7440 C   0  0  0  0  0  1  0  0  0  0  0  0
  -27.5140  -32.5680   25.7560 C   0  0  0  0  0  1  0  0  0  0  0  0
  -28.2300  -23.3320   20.4390 C   0  0  0  0  0 15  0  0  0  0  0  0
  -28.7870  -21.3790   19.8640 C   0  0  0  0  0 15  0  0  0  0  0  0
  -29.3980  -19.4400   20.4120 C   0  0  0  0  0  1  0  0  0  0  0  0
  -30.1690  -16.0920   20.0360 C   0  0  0  0  0  0  0  0  0  0  0  0
  -30.3590  -13.4710   19.1990 C   0  0  0  0  0  2  0  0  0  0  0  0
  -29.4770  -12.8700   18.0550 C   0  0  0  0  0  2  0  0  0  0  0  0
  -28.1030  -12.4290   18.5740 C   0  0  0  0  0  2  0  0  0  0  0  0
  -27.5630  -13.4490   19.5940 C   0  0  0  0  0  3  0  0  0  0  0  0
  -28.6020  -13.9210   20.6470 C   0  0  0  0  0  2  0  0  0  0  0  0
  -29.6750  -14.6720   19.9180 N   0  0  0  0  0  0  0  0  0  0  0  0
  -31.4150  -15.9560   19.9590 O   0  0  0  0  0  0  0  0  0  0  0  0
  -29.4220  -17.5600   20.0550 N   0  0  0  0  0  0  0  0  0  0  0  0
  -28.4530  -17.3130   19.9040 H   0  0  0  0  0  0  0  0  0  0  0  0
  -25.2310  -13.9310   20.4500 C   0  0  0  0  0  0  0  0  0  0  0  0
  -24.1900  -13.1380   20.8360 C   0  0  0  0  0  0  0  0  0  0  0  0
  -24.6710  -11.7930   20.7770 C   0  0  0  0  0  0  0  0  0  0  0  0
  -26.2760  -13.0750   20.1660 N   0  0  0  0  0  0  0  0  0  0  0  0
  -25.9570  -11.7790   20.4270 N   0  0  0  0  0  0  0  0  0  0  0  0
  -23.9560  -10.5240   20.9740 C   0  0  0  0  0  0  0  0  0  0  0  0
  -24.4050   -9.5560   21.8990 C   0  0  0  0  0  3  0  0  0  0  0  0
  -23.6830   -8.3560   22.0890 C   0  0  0  0  0  3  0  0  0  0  0  0
  -22.4960   -8.1180   21.3550 C   0  0  0  0  0  0  0  0  0  0  0  0
  -22.0660   -9.0740   20.4200 C   0  0  0  0  0  3  0  0  0  0  0  0
  -22.7890  -10.2650   20.2280 C   0  0  0  0  0  3  0  0  0  0  0  0
  -21.7460   -6.9710   21.4550 O   0  0  0  0  0  0  0  0  0  0  0  0
  -21.7090   -6.2310   22.6100 C   0  0  0  0  0  0  0  0  0  0  0  0
  -21.2840   -6.7860   23.8360 C   0  0  0  0  0  3  0  0  0  0  0  0
  -21.1960   -5.9730   24.9840 C   0  0  0  0  0  3  0  0  0  0  0  0
  -21.5230   -4.6050   24.9060 C   0  0  0  0  0  0  0  0  0  0  0  0
  -21.9420   -4.0500   23.6840 C   0  0  0  0  0  3  0  0  0  0  0  0
  -22.0320   -4.8600   22.5390 C   0  0  0  0  0  0  0  0  0  0  0  0
  -22.4140   -4.3150   21.3590 F   0  0  0  0  0  0  0  0  0  0  0  0
  -21.4320   -3.8220   26.0060 F   0  0  0  0  0  0  0  0  0  0  0  0
  -22.7960  -13.6030   21.1400 C   0  0  0  0  0  0  0  0  0  0  0  0
  -22.0920  -12.8960   22.0160 N   0  0  0  0  0  0  0  0  0  0  0  0
  -22.3430  -14.6300   20.6380 O   0  0  0  0  0  0  0  0  0  0  0  0
  -22.4740  -12.0650   22.4440 H   0  0  0  0  0  0  0  0  0  0  0  0
  -21.1580  -13.1890   22.2630 H   0  0  0  0  0  0  0  0  0  0  0  0
  -25.3710  -15.3060   20.2780 N   0  0  0  0  0  0  0  0  0  0  0  0
  -24.5980  -15.9490   20.4140 H   0  0  0  0  0  0  0  0  0  0  0  0
  -26.2020  -15.7550   19.9170 H   0  0  0  0  0  0  0  0  0  0  0  0
  1  3  1  0
  2 13  2  0
  3  8  1  0
  4 12  1  0
  4 14  1  0
  5 11  1  0
  5  7  1  0
  6 12  1  0
  7  8  2  0
  7  6  1  0
  9  3  2  0
 10  9  1  0
 10  5  2  0
 11  4  1  0
 12  2  1  0
 14 16  2  0
 15 14  1  0
 15 19  1  0
 17 15  1  0
 18 27  2  0
 18 23  1  0
 19 23  1  0
 20 19  2  0
 21 22  2  0
 21 20  1  0
 22 18  1  0
 23 24  2  0
 24 25  1  0
 26 25  2  0
 27 26  1  0
 28  2  1  0
 28 29  1  0
 28 38  1  0
 29 32  1  0
 30 34  1  0
 30 29  1  0
 31 30  2  0
 34 33  1  0
 36 34  1  0
 36 37  1  0
 36 35  1  0
 38 41  1  1
 38 39  1  0
 40 38  1  0
 45 53  1  0
 46 51  1  0
 47 48  1  0
 47 46  1  0
 49 48  1  0
 49 58  1  0
 49 50  1  0
 51 45  1  0
 51 50  1  0
 52 45  2  0
 53 44  1  0
 54 53  1  0
 55 56  2  0
 56 75  1  0
 57 56  1  0
 57 60  1  0
 58 59  1  0
 58 55  1  0
 59 57  2  0
 60 61  1  0
 61 62  2  0
 63 66  1  0
 63 62  1  0
 64 63  2  0
 65 64  1  0
 65 60  2  0
 66 67  1  0
 67 68  1  0
 68 69  2  0
 70 69  1  0
 70 74  1  0
 71 70  2  0
 72 67  2  0
 72 71  1  0
 73 72  1  0
 75 76  1  0
 76 79  1  0
 76 78  1  0
 77 75  2  0
 80 81  1  0
 80 55  1  0
 82 80  1  0
M  ISO  4   1 101  42 101  45 100  53 100
M  END
>  <TORSDO>  (37) 
F 18

>  <SCORE>  (37) 
-16.165

>  <name>  (37) 
37

>  <ligand_id>  (37) 
37

>  <original_smiles>  (37) 
[H]c1c([H])c([H])c2c(c1[H])C([H])([H])C([H])([H])C([H])([H])C2([H])N([H])C(=O)C1([H])N(C(=O)C([H])(N([H])C(=O)C([H])(N([H])C([H])([H])[H])C([H])([H])[H])C(C([H])([H])[H])(C([H])([H])[H])C([H])([H])[H])C([H])([H])c2c([H])c(OC([H])([H])C([H])([H])C([H])([H])N([H])C(=O)N3C([H])([H])C([H])([H])C([H])([H])C([H])(n4nc(-c5c([H])c([H])c(Oc6c([H])c([H])c(F)c([H])c6F)c([H])c5[H])c(C(=O)N([H])[H])c4N([H])[H])C3([H])[H])c([H])c([H])c2C1([H])[H]

>  <smiles>  (37) 
[H]c1c([H])c([H])c2c(c1[H])C([H])([H])C([H])([H])C([H])([H])C2([H])N([H])C(=O)C1([H])N(C(=O)C([H])(N([H])C(=O)C([H])(N([H])C([H])([H])[H])C([H])([H])[H])C(C([H])([H])[H])(C([H])([H])[H])C([H])([H])[H])C([H])([H])c2c([H])c(OC([H])([H])C([H])([H])C([H])([H])N([H])C(=O)N3C([H])([H])C([H])([H])C([H])([H])C([H])(n4nc(-c5c([H])c([H])c(Oc6c([H])c([H])c(F)c([H])c6F)c([H])c5[H])c(C(=O)N([H])[H])c4N([H])[H])C3([H])[H])c([H])c([H])c2C1([H])[H]

$$$$
38:0:0
     RDKit          3D

 88 95  0  0  1  0  0  0  0  0999 V2000
  -28.9350  -23.8540   20.6010 C   0  0  0  0  0  0  0  0  0  0  0  0
  -28.8310  -22.5350   20.2070 N   0  0  0  0  0  0  0  0  0  0  0  0
  -29.6410  -24.1720   21.5610 O   0  0  0  0  0  0  0  0  0  0  0  0
  -28.2530  -22.3840   19.3900 H   0  0  0  0  0  0  0  0  0  0  0  0
  -28.0750  -24.9720   19.8670 C   0  0  0  0  0  2  0  0  0  0  0  0
  -28.2840  -26.4090   20.2370 O   0  0  0  0  0  0  0  0  0  0  0  0
  -24.6200  -31.8850   23.2330 C   0  0  0  0  0  0  0  0  0  0  0  0
  -27.1870  -27.2970   20.1580 C   0  0  0  0  0  0  0  0  0  0  0  0
  -23.4000  -30.4900   21.6050 C   0  0  0  0  0  3  0  0  0  0  0  0
  -24.8340  -28.9420   20.1610 C   0  0  0  0  0  0  0  0  0  0  0  0
  -25.9410  -30.7940   21.4050 C   0  0  0  0  0  2  0  0  0  0  0  0
  -26.0100  -29.4140   20.7570 C   0  0  0  0  0  0  0  0  0  0  0  0
  -27.1870  -28.6020   20.7510 C   0  0  0  0  0  3  0  0  0  0  0  0
  -25.9930  -26.9040   19.5060 C   0  0  0  0  0  3  0  0  0  0  0  0
  -24.8300  -27.6930   19.5260 C   0  0  0  0  0  3  0  0  0  0  0  0
  -23.6010  -29.8190   20.2220 C   0  0  0  0  0  2  0  0  0  0  0  0
  -24.6730  -31.0740   22.1370 N   0  0  0  0  0  0  0  0  0  0  0  0
  -23.5410  -32.1670   23.7750 O   0  0  0  0  0  0  0  0  0  0  0  0
  -22.7430  -29.4740   22.5700 C   0  0  0  0  0  0  0  0  0  0  0  0
  -21.4150  -29.2960   22.4510 N   0  0  0  0  0  0  0  0  0  0  0  0
  -23.4250  -28.8490   23.3850 O   0  0  0  0  0  0  0  0  0  0  0  0
  -20.9230  -29.8520   21.7660 H   0  0  0  0  0  0  0  0  0  0  0  0
  -18.0430  -28.0920   22.9660 C   0  0  0  0  0  0  0  0  0  0  0  0
  -20.6000  -28.3610   23.2300 C   0  0  0  0  0  3  0  0  0  0  0  0
  -20.7060  -26.9260   22.6650 C   0  0  0  0  0  2  0  0  0  0  0  0
  -19.6030  -26.5920   21.6540 C   0  0  0  0  0  2  0  0  0  0  0  0
  -18.2220  -26.7380   22.3000 C   0  0  0  0  0  2  0  0  0  0  0  0
  -19.1590  -28.8610   23.3890 C   0  0  0  0  0  0  0  0  0  0  0  0
  -18.9370  -30.1270   23.9720 C   0  0  0  0  0  3  0  0  0  0  0  0
  -17.6310  -30.6250   24.1360 C   0  0  0  0  0  3  0  0  0  0  0  0
  -16.5280  -29.8540   23.7300 C   0  0  0  0  0  3  0  0  0  0  0  0
  -16.7360  -28.5880   23.1500 C   0  0  0  0  0  3  0  0  0  0  0  0
  -25.9090  -32.5170   23.8430 C   0  0  0  0  0  3  0  0  0  0  0  0
  -25.6020  -33.9130   24.1820 N   0  0  0  0  0  0  0  0  0  0  0  0
  -25.9210  -34.9700   23.4220 C   0  0  0  0  0  0  0  0  0  0  0  0
  -26.5760  -34.8710   22.3810 O   0  0  0  0  0  0  0  0  0  0  0  0
  -25.0190  -34.0650   24.9910 H   0  0  0  0  0  0  0  0  0  0  0  0
  -24.1830  -36.7600   23.1060 C   0  0  0  0  0  1  0  0  0  0  0  0
  -25.4410  -36.3560   23.8920 C   0  0  0  0  0  3  0  0  0  0  0  0
  -27.5900  -37.2420   24.6820 C   0  0  0  0  0  1  0  0  0  0  0  0
  -26.4680  -37.4110   23.7620 N   0  0  0  0  0  0  0  0  0  0  0  0
  -26.0640  -38.3310   23.9210 H   0  0  0  0  0  0  0  0  0  0  0  0
  -26.4380  -31.7420   25.1120 C   0  0  1  0  0  0  0  0  0  0  0  0
  -25.3570  -31.5030   26.1910 C   0  0  0  0  0  1  0  0  0  0  0  0
  -27.0150  -30.3630   24.7120 C   0  0  0  0  0  1  0  0  0  0  0  0
  -27.5980  -32.5320   25.7620 C   0  0  0  0  0  1  0  0  0  0  0  0
  -29.2470  -21.2730   20.9410 C   0  0  0  0  0  3  0  0  0  0  0  0
  -29.5220  -19.9310   20.1020 C   0  0  0  0  0  3  0  0  0  0  0  0
  -29.5560  -18.5040   20.8500 C   0  0  0  0  0  3  0  0  0  0  0  0
  -30.1420  -17.2310   20.0640 C   0  0  0  0  0  3  0  0  0  0  0  0
  -30.6070  -14.6900   20.2910 C   0  0  0  0  0  0  0  0  0  0  0  0
  -30.3400  -12.4430   19.2580 C   0  0  0  0  0  2  0  0  0  0  0  0
  -29.3920  -12.5700   18.0460 C   0  0  0  0  0  2  0  0  0  0  0  0
  -27.9240  -12.4200   18.4900 C   0  0  0  0  0  2  0  0  0  0  0  0
  -27.5820  -13.2910   19.7290 C   0  0  0  0  0  3  0  0  0  0  0  0
  -28.6530  -13.1600   20.8370 C   0  0  0  0  0  2  0  0  0  0  0  0
  -29.9550  -13.4830   20.2380 N   0  0  0  0  0  0  0  0  0  0  0  0
  -31.7690  -14.7900   19.8900 O   0  0  0  0  0  0  0  0  0  0  0  0
  -29.8660  -15.8210   20.5600 N   0  0  0  0  0  0  0  0  0  0  0  0
  -28.9310  -15.6460   20.8990 H   0  0  0  0  0  0  0  0  0  0  0  0
  -25.2010  -13.9000   20.4690 C   0  0  0  0  0  0  0  0  0  0  0  0
  -24.1340  -13.1330   20.8520 C   0  0  0  0  0  0  0  0  0  0  0  0
  -24.5900  -11.7800   20.8240 C   0  0  0  0  0  0  0  0  0  0  0  0
  -26.2390  -13.0150   20.2290 N   0  0  0  0  0  0  0  0  0  0  0  0
  -25.8780  -11.7340   20.5040 N   0  0  0  0  0  0  0  0  0  0  0  0
  -23.8590  -10.5220   21.0260 C   0  0  0  0  0  0  0  0  0  0  0  0
  -24.3040   -9.5480   21.9460 C   0  0  0  0  0  3  0  0  0  0  0  0
  -23.5740   -8.3560   22.1370 C   0  0  0  0  0  3  0  0  0  0  0  0
  -22.3830   -8.1280   21.4060 C   0  0  0  0  0  0  0  0  0  0  0  0
  -21.9550   -9.0920   20.4750 C   0  0  0  0  0  3  0  0  0  0  0  0
  -22.6870  -10.2750   20.2830 C   0  0  0  0  0  3  0  0  0  0  0  0
  -21.6210   -6.9890   21.5070 O   0  0  0  0  0  0  0  0  0  0  0  0
  -21.6040   -6.2340   22.6530 C   0  0  0  0  0  0  0  0  0  0  0  0
  -21.2390   -6.7820   23.9010 C   0  0  0  0  0  3  0  0  0  0  0  0
  -21.1680   -5.9540   25.0390 C   0  0  0  0  0  3  0  0  0  0  0  0
  -21.4510   -4.5800   24.9310 C   0  0  0  0  0  0  0  0  0  0  0  0
  -21.8090   -4.0310   23.6870 C   0  0  0  0  0  3  0  0  0  0  0  0
  -21.8820   -4.8550   22.5500 C   0  0  0  0  0  0  0  0  0  0  0  0
  -22.2070   -4.3180   21.3500 F   0  0  0  0  0  0  0  0  0  0  0  0
  -21.3750   -3.7820   26.0220 F   0  0  0  0  0  0  0  0  0  0  0  0
  -22.7420  -13.6190   21.1340 C   0  0  0  0  0  0  0  0  0  0  0  0
  -22.0190  -12.9330   22.0120 N   0  0  0  0  0  0  0  0  0  0  0  0
  -22.3040  -14.6420   20.6110 O   0  0  0  0  0  0  0  0  0  0  0  0
  -22.3870  -12.1040   22.4570 H   0  0  0  0  0  0  0  0  0  0  0  0
  -21.0850  -13.2400   22.2430 H   0  0  0  0  0  0  0  0  0  0  0  0
  -25.3690  -15.2690   20.2820 N   0  0  0  0  0  0  0  0  0  0  0  0
  -24.6040  -15.9260   20.3920 H   0  0  0  0  0  0  0  0  0  0  0  0
  -26.2100  -15.7020   19.9240 H   0  0  0  0  0  0  0  0  0  0  0  0
  1  3  2  0
  2  1  1  0
  2 47  1  0
  4  2  1  0
  5  6  1  0
  5  1  1  0
  7 18  2  0
  8  6  1  0
  8 13  1  0
  9 17  1  0
  9 19  1  0
 10 16  1  0
 10 12  1  0
 11 17  1  0
 12 11  1  0
 13 12  2  0
 14 15  1  0
 14  8  2  0
 15 10  2  0
 16  9  1  0
 17  7  1  0
 19 21  2  0
 20 19  1  0
 22 20  1  0
 23 32  2  0
 23 28  1  0
 24 20  1  0
 24 28  1  0
 25 24  1  0
 26 27  1  0
 26 25  1  0
 27 23  1  0
 28 29  2  0
 29 30  1  0
 31 30  2  0
 32 31  1  0
 33  7  1  0
 33 34  1  0
 33 43  1  0
 34 37  1  0
 35 39  1  0
 35 34  1  0
 36 35  2  0
 39 38  1  0
 41 39  1  0
 41 42  1  0
 41 40  1  0
 43 46  1  1
 43 44  1  0
 45 43  1  0
 48 49  1  0
 48 47  2  0
 50 59  1  0
 50 49  2  0
 51 59  1  0
 52 57  1  0
 53 54  1  0
 53 52  1  0
 55 54  1  0
 55 64  1  0
 55 56  1  0
 57 51  1  0
 57 56  1  0
 58 51  2  0
 59 60  1  0
 61 62  2  0
 62 81  1  0
 63 62  1  0
 63 66  1  0
 64 61  1  0
 64 65  1  0
 65 63  2  0
 66 67  1  0
 67 68  2  0
 69 72  1  0
 69 68  1  0
 70 69  2  0
 71 70  1  0
 71 66  2  0
 72 73  1  0
 73 74  1  0
 74 75  2  0
 76 75  1  0
 76 80  1  0
 77 76  2  0
 78 73  2  0
 78 77  1  0
 79 78  1  0
 81 82  1  0
 82 85  1  0
 82 84  1  0
 83 81  2  0
 86 87  1  0
 86 61  1  0
 88 86  1  0
M  ISO  4   5 101   6 101  51 100  59 100
M  END
>  <TORSDO>  (38) 
F 21

>  <SCORE>  (38) 
-13.216

>  <name>  (38) 
38

>  <ligand_id>  (38) 
38

>  <original_smiles>  (38) 
[H]c1c([H])c([H])c2c(c1[H])C([H])([H])C([H])([H])C([H])([H])C2([H])N([H])C(=O)C1([H])N(C(=O)C([H])(N([H])C(=O)C([H])(N([H])C([H])([H])[H])C([H])([H])[H])C(C([H])([H])[H])(C([H])([H])[H])C([H])([H])[H])C([H])([H])c2c([H])c(OC([H])([H])C(=O)N([H])C([H])([H])C([H])([H])C([H])([H])C([H])([H])N([H])C(=O)N3C([H])([H])C([H])([H])C([H])([H])C([H])(n4nc(-c5c([H])c([H])c(Oc6c([H])c([H])c(F)c([H])c6F)c([H])c5[H])c(C(=O)N([H])[H])c4N([H])[H])C3([H])[H])c([H])c([H])c2C1([H])[H]

>  <smiles>  (38) 
[H]c1c([H])c([H])c2c(c1[H])C([H])([H])C([H])([H])C([H])([H])C2([H])N([H])C(=O)C1([H])N(C(=O)C([H])(N([H])C(=O)C([H])(N([H])C([H])([H])[H])C([H])([H])[H])C(C([H])([H])[H])(C([H])([H])[H])C([H])([H])[H])C([H])([H])c2c([H])c(OC([H])([H])C(=O)N([H])C([H])([H])C([H])([H])C([H])([H])C([H])([H])N([H])C(=O)N3C([H])([H])C([H])([H])C([H])([H])C([H])(n4nc(-c5c([H])c([H])c(Oc6c([H])c([H])c(F)c([H])c6F)c([H])c5[H])c(C(=O)N([H])[H])c4N([H])[H])C3([H])[H])c([H])c([H])c2C1([H])[H]

$$$$
39:0:0
     RDKit          3D

 96103  0  0  1  0  0  0  0  0999 V2000
  -28.2400  -21.7790   18.2940 C   0  0  0  0  0  0  0  0  0  0  0  0
  -28.0220  -22.2300   19.5330 N   0  0  0  0  0  0  0  0  0  0  0  0
  -28.3320  -22.5110   17.3060 O   0  0  0  0  0  0  0  0  0  0  0  0
  -27.9490  -21.4830   20.2150 H   0  0  0  0  0  0  0  0  0  0  0  0
  -27.7090  -23.5790   19.9760 C   0  0  0  0  0  2  0  0  0  0  0  0
  -28.7760  -24.1260   20.9390 C   0  0  0  0  0  2  0  0  0  0  0  0
  -28.4210  -25.5260   21.4580 C   0  0  0  0  0  2  0  0  0  0  0  0
  -28.3510  -26.4340   20.3660 O   0  0  0  0  0  0  0  0  0  0  0  0
  -24.5100  -31.6800   23.2450 C   0  0  0  0  0  0  0  0  0  0  0  0
  -27.1960  -27.1710   20.3420 C   0  0  0  0  0  0  0  0  0  0  0  0
  -23.3410  -30.2760   21.5760 C   0  0  0  0  0  3  0  0  0  0  0  0
  -24.8200  -28.6810   20.2490 C   0  0  0  0  0  0  0  0  0  0  0  0
  -25.8770  -30.5880   21.4780 C   0  0  0  0  0  2  0  0  0  0  0  0
  -25.9600  -29.2040   20.8710 C   0  0  0  0  0  0  0  0  0  0  0  0
  -27.1530  -28.4520   20.9240 C   0  0  0  0  0  3  0  0  0  0  0  0
  -26.0440  -26.6500   19.7180 C   0  0  0  0  0  3  0  0  0  0  0  0
  -24.8510  -27.3960   19.6770 C   0  0  0  0  0  3  0  0  0  0  0  0
  -23.5930  -29.5630   20.2220 C   0  0  0  0  0  2  0  0  0  0  0  0
  -24.5920  -30.8610   22.1590 N   0  0  0  0  0  0  0  0  0  0  0  0
  -23.4140  -31.9870   23.7350 O   0  0  0  0  0  0  0  0  0  0  0  0
  -22.6280  -29.2850   22.5250 C   0  0  0  0  0  0  0  0  0  0  0  0
  -21.3070  -29.1320   22.3420 N   0  0  0  0  0  0  0  0  0  0  0  0
  -23.2620  -28.6580   23.3770 O   0  0  0  0  0  0  0  0  0  0  0  0
  -20.8620  -29.6860   21.6260 H   0  0  0  0  0  0  0  0  0  0  0  0
  -17.8870  -28.0350   22.7130 C   0  0  0  0  0  0  0  0  0  0  0  0
  -20.4360  -28.2280   23.0920 C   0  0  0  0  0  3  0  0  0  0  0  0
  -20.5230  -26.7850   22.5410 C   0  0  0  0  0  2  0  0  0  0  0  0
  -19.4570  -26.4760   21.4860 C   0  0  0  0  0  2  0  0  0  0  0  0
  -18.0540  -26.6690   22.0700 C   0  0  0  0  0  2  0  0  0  0  0  0
  -19.0060  -28.7730   23.1800 C   0  0  0  0  0  0  0  0  0  0  0  0
  -18.7990  -30.0530   23.7380 C   0  0  0  0  0  3  0  0  0  0  0  0
  -17.5030  -30.5920   23.8380 C   0  0  0  0  0  3  0  0  0  0  0  0
  -16.3960  -29.8510   23.3900 C   0  0  0  0  0  3  0  0  0  0  0  0
  -16.5890  -28.5740   22.8330 C   0  0  0  0  0  3  0  0  0  0  0  0
  -25.7850  -32.2900   23.9080 C   0  0  0  0  0  3  0  0  0  0  0  0
  -25.4900  -33.6950   24.2190 N   0  0  0  0  0  0  0  0  0  0  0  0
  -25.8560  -34.7330   23.4560 C   0  0  0  0  0  0  0  0  0  0  0  0
  -26.5490  -34.6110   22.4430 O   0  0  0  0  0  0  0  0  0  0  0  0
  -24.8720  -33.8640   24.9990 H   0  0  0  0  0  0  0  0  0  0  0  0
  -24.1530  -36.5390   23.0500 C   0  0  0  0  0  1  0  0  0  0  0  0
  -25.3760  -36.1320   23.8870 C   0  0  0  0  0  3  0  0  0  0  0  0
  -27.5070  -37.0020   24.7410 C   0  0  0  0  0  1  0  0  0  0  0  0
  -26.4220  -37.1720   23.7790 N   0  0  0  0  0  0  0  0  0  0  0  0
  -26.0240  -38.0990   23.9110 H   0  0  0  0  0  0  0  0  0  0  0  0
  -26.2470  -31.5130   25.2020 C   0  0  1  0  0  0  0  0  0  0  0  0
  -25.1140  -31.2920   26.2300 C   0  0  0  0  0  1  0  0  0  0  0  0
  -26.8230  -30.1270   24.8300 C   0  0  0  0  0  1  0  0  0  0  0  0
  -27.3850  -32.2910   25.9040 C   0  0  0  0  0  1  0  0  0  0  0  0
  -28.3170  -20.2520   18.1760 C   0  0  0  0  0  2  0  0  0  0  0  0
  -28.4130  -19.7150   19.4950 O   0  0  0  0  0  0  0  0  0  0  0  0
  -28.3950  -18.3020   19.5690 C   0  0  0  0  0  2  0  0  0  0  0  0
  -28.7030  -17.9190   21.0290 C   0  0  0  0  0  2  0  0  0  0  0  0
  -30.0960  -17.7290   21.2490 O   0  0  0  0  0  0  0  0  0  0  0  0
  -30.9130  -18.8740   21.0240 C   0  0  0  0  0  2  0  0  0  0  0  0
  -32.3650  -18.5470   21.4160 C   0  0  0  0  0  2  0  0  0  0  0  0
  -32.8750  -17.4930   20.6020 O   0  0  0  0  0  0  0  0  0  0  0  0
  -32.5030  -16.1910   21.0330 C   0  0  0  0  0  2  0  0  0  0  0  0
  -32.7230  -15.2160   19.8710 C   0  0  0  0  0  2  0  0  0  0  0  0
  -32.1880  -12.8470   19.4000 C   0  0  0  0  0  0  0  0  0  0  0  0
  -31.3230  -10.5970   18.8990 C   0  0  0  0  0  2  0  0  0  0  0  0
  -30.2620  -10.6500   17.7810 C   0  0  0  0  0  2  0  0  0  0  0  0
  -28.8660  -10.9530   18.3580 C   0  0  0  0  0  2  0  0  0  0  0  0
  -28.8680  -12.1640   19.3260 C   0  0  0  0  0  3  0  0  0  0  0  0
  -30.0060  -12.0280   20.3610 C   0  0  0  0  0  2  0  0  0  0  0  0
  -31.2820  -11.8660   19.6350 N   0  0  0  0  0  0  0  0  0  0  0  0
  -33.1390  -12.7300   18.6210 O   0  0  0  0  0  0  0  0  0  0  0  0
  -31.9810  -13.9790   20.0760 N   0  0  0  0  0  0  0  0  0  0  0  0
  -31.2020  -13.9950   20.7180 H   0  0  0  0  0  0  0  0  0  0  0  0
  -26.9160  -13.4970   20.3560 C   0  0  0  0  0  0  0  0  0  0  0  0
  -25.7030  -13.1060   20.8550 C   0  0  0  0  0  0  0  0  0  0  0  0
  -25.6700  -11.6820   20.7370 C   0  0  0  0  0  0  0  0  0  0  0  0
  -27.5660  -12.3330   19.9730 N   0  0  0  0  0  0  0  0  0  0  0  0
  -26.8230  -11.2320   20.2580 N   0  0  0  0  0  0  0  0  0  0  0  0
  -24.5870  -10.7270   21.0030 C   0  0  0  0  0  0  0  0  0  0  0  0
  -24.7930   -9.5850   21.8080 C   0  0  0  0  0  3  0  0  0  0  0  0
  -23.7320   -8.6900   22.0650 C   0  0  0  0  0  3  0  0  0  0  0  0
  -22.4510   -8.9310   21.5170 C   0  0  0  0  0  0  0  0  0  0  0  0
  -22.2570  -10.0570   20.6960 C   0  0  0  0  0  3  0  0  0  0  0  0
  -23.3140  -10.9450   20.4390 C   0  0  0  0  0  3  0  0  0  0  0  0
  -21.3690   -8.1020   21.6890 O   0  0  0  0  0  0  0  0  0  0  0  0
  -21.2760   -7.2540   22.7610 C   0  0  0  0  0  0  0  0  0  0  0  0
  -21.2910   -7.7310   24.0910 C   0  0  0  0  0  3  0  0  0  0  0  0
  -21.1210   -6.8340   25.1630 C   0  0  0  0  0  3  0  0  0  0  0  0
  -20.9300   -5.4620   24.9110 C   0  0  0  0  0  0  0  0  0  0  0  0
  -20.9100   -4.9850   23.5880 C   0  0  0  0  0  3  0  0  0  0  0  0
  -21.0810   -5.8800   22.5180 C   0  0  0  0  0  0  0  0  0  0  0  0
  -21.0400   -5.4190   21.2430 F   0  0  0  0  0  0  0  0  0  0  0  0
  -20.7610   -4.6000   25.9410 F   0  0  0  0  0  0  0  0  0  0  0  0
  -24.5960  -14.0040   21.3240 C   0  0  0  0  0  0  0  0  0  0  0  0
  -23.8070  -13.5530   22.2930 N   0  0  0  0  0  0  0  0  0  0  0  0
  -24.4550  -15.1380   20.8670 O   0  0  0  0  0  0  0  0  0  0  0  0
  -23.9300  -12.6330   22.6870 H   0  0  0  0  0  0  0  0  0  0  0  0
  -23.0700  -14.1440   22.6470 H   0  0  0  0  0  0  0  0  0  0  0  0
  -27.5070  -14.7440   20.1770 N   0  0  0  0  0  0  0  0  0  0  0  0
  -26.9990  -15.5990   20.3660 H   0  0  0  0  0  0  0  0  0  0  0  0
  -28.3800  -14.8940   19.6910 H   0  0  0  0  0  0  0  0  0  0  0  0
  1  2  1  0
  2  5  1  0
  2  4  1  0
  3  1  2  0
  5  6  1  0
  6  7  1  0
  8  7  1  0
  9 20  2  0
 10  8  1  0
 10 15  1  0
 11 19  1  0
 11 21  1  0
 12 14  1  0
 13 19  1  0
 14 15  2  0
 14 13  1  0
 16 10  2  0
 17 16  1  0
 17 12  2  0
 18 12  1  0
 18 11  1  0
 19  9  1  0
 21 23  2  0
 22 21  1  0
 24 22  1  0
 25 34  2  0
 25 30  1  0
 26 22  1  0
 26 30  1  0
 27 26  1  0
 28 29  1  0
 28 27  1  0
 29 25  1  0
 30 31  2  0
 31 32  1  0
 33 32  2  0
 34 33  1  0
 35  9  1  0
 35 36  1  0
 35 45  1  0
 36 39  1  0
 37 41  1  0
 37 36  1  0
 38 37  2  0
 41 40  1  0
 43 41  1  0
 43 44  1  0
 43 42  1  0
 45 48  1  1
 45 46  1  0
 47 45  1  0
 49  1  1  0
 49 50  1  0
 50 51  1  0
 51 52  1  0
 52 53  1  0
 54 53  1  0
 54 55  1  0
 56 57  1  0
 56 55  1  0
 58 67  1  0
 58 57  1  0
 59 65  1  0
 59 67  1  0
 60 65  1  0
 61 62  1  0
 61 60  1  0
 63 62  1  0
 63 72  1  0
 63 64  1  0
 65 64  1  0
 66 59  2  0
 67 68  1  0
 69 70  2  0
 70 89  1  0
 71 70  1  0
 71 74  1  0
 72 73  1  0
 72 69  1  0
 73 71  2  0
 74 75  1  0
 75 76  2  0
 77 80  1  0
 77 76  1  0
 78 77  2  0
 79 78  1  0
 79 74  2  0
 80 81  1  0
 81 82  1  0
 82 83  2  0
 84 83  1  0
 84 88  1  0
 85 84  2  0
 86 81  2  0
 86 85  1  0
 87 86  1  0
 89 90  1  0
 90 93  1  0
 90 92  1  0
 91 89  2  0
 94 69  1  0
 94 95  1  0
 96 94  1  0
M  ISO  4   7 101   8 101  59 100  67 100
M  END
>  <TORSDO>  (39) 
F 29

>  <SCORE>  (39) 
-8.101

>  <name>  (39) 
39

>  <ligand_id>  (39) 
39

>  <original_smiles>  (39) 
[H]c1c([H])c([H])c2c(c1[H])C([H])([H])C([H])([H])C([H])([H])C2([H])N([H])C(=O)C1([H])N(C(=O)C([H])(N([H])C(=O)C([H])(N([H])C([H])([H])[H])C([H])([H])[H])C(C([H])([H])[H])(C([H])([H])[H])C([H])([H])[H])C([H])([H])c2c([H])c(OC([H])([H])C([H])([H])C([H])([H])N([H])C(=O)C([H])([H])OC([H])([H])C([H])([H])OC([H])([H])C([H])([H])OC([H])([H])C([H])([H])N([H])C(=O)N3C([H])([H])C([H])([H])C([H])([H])C([H])(n4nc(-c5c([H])c([H])c(Oc6c([H])c([H])c(F)c([H])c6F)c([H])c5[H])c(C(=O)N([H])[H])c4N([H])[H])C3([H])[H])c([H])c([H])c2C1([H])[H]

>  <smiles>  (39) 
[H]c1c([H])c([H])c2c(c1[H])C([H])([H])C([H])([H])C([H])([H])C2([H])N([H])C(=O)C1([H])N(C(=O)C([H])(N([H])C(=O)C([H])(N([H])C([H])([H])[H])C([H])([H])[H])C(C([H])([H])[H])(C([H])([H])[H])C([H])([H])[H])C([H])([H])c2c([H])c(OC([H])([H])C([H])([H])C([H])([H])N([H])C(=O)C([H])([H])OC([H])([H])C([H])([H])OC([H])([H])C([H])([H])OC([H])([H])C([H])([H])N([H])C(=O)N3C([H])([H])C([H])([H])C([H])([H])C([H])(n4nc(-c5c([H])c([H])c(Oc6c([H])c([H])c(F)c([H])c6F)c([H])c5[H])c(C(=O)N([H])[H])c4N([H])[H])C3([H])[H])c([H])c([H])c2C1([H])[H]

$$$$
40:0:0
     RDKit          3D

 90 97  0  0  1  0  0  0  0  0999 V2000
  -28.7600  -24.4870   20.7740 C   0  0  0  0  0  0  0  0  0  0  0  0
  -28.8400  -23.1890   20.4400 N   0  0  0  0  0  0  0  0  0  0  0  0
  -28.9070  -24.8760   21.9360 O   0  0  0  0  0  0  0  0  0  0  0  0
  -28.6860  -22.9500   19.4690 H   0  0  0  0  0  0  0  0  0  0  0  0
  -28.5590  -25.4920   19.6270 C   0  0  0  0  0  2  0  0  0  0  0  0
  -28.4220  -26.8280   20.1370 O   0  0  0  0  0  0  0  0  0  0  0  0
  -24.5720  -31.9090   23.2700 C   0  0  0  0  0  0  0  0  0  0  0  0
  -27.2050  -27.4800   20.1550 C   0  0  0  0  0  0  0  0  0  0  0  0
  -23.3580  -30.5160   21.6250 C   0  0  0  0  0  3  0  0  0  0  0  0
  -24.8030  -28.9820   20.1940 C   0  0  0  0  0  0  0  0  0  0  0  0
  -25.8830  -30.8740   21.4190 C   0  0  0  0  0  2  0  0  0  0  0  0
  -25.9630  -29.5040   20.7770 C   0  0  0  0  0  0  0  0  0  0  0  0
  -27.1630  -28.7590   20.7570 C   0  0  0  0  0  3  0  0  0  0  0  0
  -26.0150  -26.9630   19.5850 C   0  0  0  0  0  3  0  0  0  0  0  0
  -24.8230  -27.7100   19.6000 C   0  0  0  0  0  3  0  0  0  0  0  0
  -23.5620  -29.8440   20.2420 C   0  0  0  0  0  2  0  0  0  0  0  0
  -24.6230  -31.1150   22.1630 N   0  0  0  0  0  0  0  0  0  0  0  0
  -23.4910  -32.1800   23.8140 O   0  0  0  0  0  0  0  0  0  0  0  0
  -22.7120  -29.4900   22.5830 C   0  0  0  0  0  0  0  0  0  0  0  0
  -21.3880  -29.3050   22.4550 N   0  0  0  0  0  0  0  0  0  0  0  0
  -23.3970  -28.8630   23.3960 O   0  0  0  0  0  0  0  0  0  0  0  0
  -20.8960  -29.8610   21.7710 H   0  0  0  0  0  0  0  0  0  0  0  0
  -18.0170  -28.0980   22.9390 C   0  0  0  0  0  0  0  0  0  0  0  0
  -20.5720  -28.3620   23.2220 C   0  0  0  0  0  3  0  0  0  0  0  0
  -20.6830  -26.9330   22.6450 C   0  0  0  0  0  2  0  0  0  0  0  0
  -19.5860  -26.6070   21.6260 C   0  0  0  0  0  2  0  0  0  0  0  0
  -18.2010  -26.7490   22.2650 C   0  0  0  0  0  2  0  0  0  0  0  0
  -19.1310  -28.8630   23.3740 C   0  0  0  0  0  0  0  0  0  0  0  0
  -18.9060  -30.1280   23.9610 C   0  0  0  0  0  3  0  0  0  0  0  0
  -17.6000  -30.6260   24.1200 C   0  0  0  0  0  3  0  0  0  0  0  0
  -16.5000  -29.8580   23.7010 C   0  0  0  0  0  3  0  0  0  0  0  0
  -16.7090  -28.5950   23.1160 C   0  0  0  0  0  3  0  0  0  0  0  0
  -25.8590  -32.5360   23.8890 C   0  0  0  0  0  3  0  0  0  0  0  0
  -25.5590  -33.9370   24.2110 N   0  0  0  0  0  0  0  0  0  0  0  0
  -25.8990  -34.9830   23.4480 C   0  0  0  0  0  0  0  0  0  0  0  0
  -26.5710  -34.8710   22.4180 O   0  0  0  0  0  0  0  0  0  0  0  0
  -24.9660  -34.1000   25.0120 H   0  0  0  0  0  0  0  0  0  0  0  0
  -24.1760  -36.7770   23.0820 C   0  0  0  0  0  1  0  0  0  0  0  0
  -25.4150  -36.3750   23.8960 C   0  0  0  0  0  3  0  0  0  0  0  0
  -27.5550  -37.2540   24.7210 C   0  0  0  0  0  1  0  0  0  0  0  0
  -26.4520  -37.4240   23.7790 N   0  0  0  0  0  0  0  0  0  0  0  0
  -26.0500  -38.3460   23.9230 H   0  0  0  0  0  0  0  0  0  0  0  0
  -26.3740  -31.7670   25.1650 C   0  0  1  0  0  0  0  0  0  0  0  0
  -25.2830  -31.5360   26.2360 C   0  0  0  0  0  1  0  0  0  0  0  0
  -26.9500  -30.3870   24.7720 C   0  0  0  0  0  1  0  0  0  0  0  0
  -27.5290  -32.5580   25.8250 C   0  0  0  0  0  1  0  0  0  0  0  0
  -29.3690  -22.1490   21.3200 C   0  0  0  0  0  2  0  0  0  0  0  0
  -29.1820  -20.7220   20.7580 C   0  0  0  0  0  2  0  0  0  0  0  0
  -30.2840  -19.7780   21.2770 C   0  0  0  0  0  2  0  0  0  0  0  0
  -30.0640  -18.2720   21.0230 C   0  0  0  0  0  2  0  0  0  0  0  0
  -31.3710  -17.4790   21.2410 C   0  0  0  0  0  2  0  0  0  0  0  0
  -31.2260  -16.1090   21.9340 C   0  0  0  0  0  2  0  0  0  0  0  0
  -30.7900  -14.3600   20.2000 C   0  0  0  0  0  0  0  0  0  0  0  0
  -30.3380  -12.2880   18.9310 C   0  0  0  0  0  2  0  0  0  0  0  0
  -29.3430  -12.5170   17.7800 C   0  0  0  0  0  2  0  0  0  0  0  0
  -27.8900  -12.3970   18.2800 C   0  0  0  0  0  2  0  0  0  0  0  0
  -27.6280  -13.2380   19.5570 C   0  0  0  0  0  3  0  0  0  0  0  0
  -28.7200  -12.9750   20.6150 C   0  0  0  0  0  2  0  0  0  0  0  0
  -30.0330  -13.2500   20.0010 N   0  0  0  0  0  0  0  0  0  0  0  0
  -31.8000  -14.6210   19.5400 O   0  0  0  0  0  0  0  0  0  0  0  0
  -30.4030  -15.1280   21.2290 N   0  0  0  0  0  0  0  0  0  0  0  0
  -29.5530  -14.8390   21.6890 H   0  0  0  0  0  0  0  0  0  0  0  0
  -25.2750  -13.8960   20.3720 C   0  0  0  0  0  0  0  0  0  0  0  0
  -24.2080  -13.1450   20.7870 C   0  0  0  0  0  0  0  0  0  0  0  0
  -24.6380  -11.7830   20.7310 C   0  0  0  0  0  0  0  0  0  0  0  0
  -26.2900  -12.9930   20.0930 N   0  0  0  0  0  0  0  0  0  0  0  0
  -25.9110  -11.7180   20.3640 N   0  0  0  0  0  0  0  0  0  0  0  0
  -23.8950  -10.5360   20.9490 C   0  0  0  0  0  0  0  0  0  0  0  0
  -24.3430   -9.5610   21.8670 C   0  0  0  0  0  3  0  0  0  0  0  0
  -23.6010   -8.3780   22.0720 C   0  0  0  0  0  3  0  0  0  0  0  0
  -22.3970   -8.1630   21.3620 C   0  0  0  0  0  0  0  0  0  0  0  0
  -21.9680   -9.1260   20.4310 C   0  0  0  0  0  3  0  0  0  0  0  0
  -22.7100  -10.3010   20.2240 C   0  0  0  0  0  3  0  0  0  0  0  0
  -21.6240   -7.0320   21.4770 O   0  0  0  0  0  0  0  0  0  0  0  0
  -21.5990   -6.2930   22.6330 C   0  0  0  0  0  0  0  0  0  0  0  0
  -21.2400   -6.8620   23.8740 C   0  0  0  0  0  3  0  0  0  0  0  0
  -21.1600   -6.0510   25.0240 C   0  0  0  0  0  3  0  0  0  0  0  0
  -21.4270   -4.6720   24.9330 C   0  0  0  0  0  0  0  0  0  0  0  0
  -21.7800   -4.1030   23.6970 C   0  0  0  0  0  3  0  0  0  0  0  0
  -21.8620   -4.9110   22.5500 C   0  0  0  0  0  0  0  0  0  0  0  0
  -22.1820   -4.3530   21.3570 F   0  0  0  0  0  0  0  0  0  0  0  0
  -21.3420   -3.8920   26.0350 F   0  0  0  0  0  0  0  0  0  0  0  0
  -22.8340  -13.6500   21.1220 C   0  0  0  0  0  0  0  0  0  0  0  0
  -22.1300  -12.9660   22.0170 N   0  0  0  0  0  0  0  0  0  0  0  0
  -22.3950  -14.6870   20.6260 O   0  0  0  0  0  0  0  0  0  0  0  0
  -22.4970  -12.1270   22.4410 H   0  0  0  0  0  0  0  0  0  0  0  0
  -21.2090  -13.2860   22.2820 H   0  0  0  0  0  0  0  0  0  0  0  0
  -25.4620  -15.2640   20.1920 N   0  0  0  0  0  0  0  0  0  0  0  0
  -24.7180  -15.9370   20.3440 H   0  0  0  0  0  0  0  0  0  0  0  0
  -26.3130  -15.6850   19.8390 H   0  0  0  0  0  0  0  0  0  0  0  0
  1  3  2  0
  2  1  1  0
  2 47  1  0
  4  2  1  0
  5  6  1  0
  5  1  1  0
  6  8  1  0
  7 18  2  0
  8 13  1  0
  9 17  1  0
  9 19  1  0
 10 16  1  0
 10 12  1  0
 11 17  1  0
 12 11  1  0
 13 12  2  0
 14 15  1  0
 14  8  2  0
 15 10  2  0
 16  9  1  0
 17  7  1  0
 19 21  2  0
 20 19  1  0
 22 20  1  0
 23 32  2  0
 23 28  1  0
 24 20  1  0
 24 28  1  0
 25 24  1  0
 26 27  1  0
 26 25  1  0
 27 23  1  0
 28 29  2  0
 29 30  1  0
 31 30  2  0
 32 31  1  0
 33  7  1  0
 33 34  1  0
 33 43  1  0
 34 37  1  0
 35 39  1  0
 35 34  1  0
 36 35  2  0
 39 38  1  0
 41 39  1  0
 41 42  1  0
 41 40  1  0
 43 46  1  1
 43 44  1  0
 45 43  1  0
 48 49  1  0
 48 47  1  0
 50 51  1  0
 50 49  1  0
 51 52  1  0
 53 61  1  0
 54 59  1  0
 55 56  1  0
 55 54  1  0
 57 56  1  0
 57 66  1  0
 57 58  1  0
 59 53  1  0
 59 58  1  0
 60 53  2  0
 61 62  1  0
 61 52  1  0
 63 64  2  0
 64 83  1  0
 65 64  1  0
 65 68  1  0
 66 67  1  0
 66 63  1  0
 67 65  2  0
 68 69  1  0
 69 70  2  0
 71 74  1  0
 71 70  1  0
 72 71  2  0
 73 72  1  0
 73 68  2  0
 74 75  1  0
 75 76  1  0
 76 77  2  0
 78 77  1  0
 78 82  1  0
 79 78  2  0
 80 75  2  0
 80 79  1  0
 81 80  1  0
 83 84  1  0
 84 87  1  0
 84 86  1  0
 85 83  2  0
 88 89  1  0
 88 63  1  0
 90 88  1  0
M  ISO  4   5 101   6 101  53 100  61 100
M  END
>  <TORSDO>  (40) 
F 23

>  <SCORE>  (40) 
-12.625

>  <name>  (40) 
40

>  <ligand_id>  (40) 
40

>  <original_smiles>  (40) 
[H]c1c([H])c([H])c2c(c1[H])C([H])([H])C([H])([H])C([H])([H])C2([H])N([H])C(=O)C1([H])N(C(=O)C([H])(N([H])C(=O)C([H])(N([H])C([H])([H])[H])C([H])([H])[H])C(C([H])([H])[H])(C([H])([H])[H])C([H])([H])[H])C([H])([H])c2c([H])c(OC([H])([H])C(=O)N([H])C([H])([H])C([H])([H])C([H])([H])C([H])([H])C([H])([H])C([H])([H])N([H])C(=O)N3C([H])([H])C([H])([H])C([H])([H])C([H])(n4nc(-c5c([H])c([H])c(Oc6c([H])c([H])c(F)c([H])c6F)c([H])c5[H])c(C(=O)N([H])[H])c4N([H])[H])C3([H])[H])c([H])c([H])c2C1([H])[H]

>  <smiles>  (40) 
[H]c1c([H])c([H])c2c(c1[H])C([H])([H])C([H])([H])C([H])([H])C2([H])N([H])C(=O)C1([H])N(C(=O)C([H])(N([H])C(=O)C([H])(N([H])C([H])([H])[H])C([H])([H])[H])C(C([H])([H])[H])(C([H])([H])[H])C([H])([H])[H])C([H])([H])c2c([H])c(OC([H])([H])C(=O)N([H])C([H])([H])C([H])([H])C([H])([H])C([H])([H])C([H])([H])C([H])([H])N([H])C(=O)N3C([H])([H])C([H])([H])C([H])([H])C([H])(n4nc(-c5c([H])c([H])c(Oc6c([H])c([H])c(F)c([H])c6F)c([H])c5[H])c(C(=O)N([H])[H])c4N([H])[H])C3([H])[H])c([H])c([H])c2C1([H])[H]

$$$$
41:0:0
     RDKit          3D

 92 99  0  0  1  0  0  0  0  0999 V2000
  -29.0990  -22.6420   20.4770 C   0  0  0  0  0  0  0  0  0  0  0  0
  -29.7370  -23.6050   21.1640 N   0  0  0  0  0  0  0  0  0  0  0  0
  -28.7560  -22.7930   19.2990 O   0  0  0  0  0  0  0  0  0  0  0  0
  -29.9810  -23.4040   22.1260 H   0  0  0  0  0  0  0  0  0  0  0  0
  -28.7630  -21.3340   21.2260 C   0  0  0  0  0  2  0  0  0  0  0  0
  -29.1280  -20.1900   20.4420 O   0  0  0  0  0  0  0  0  0  0  0  0
  -28.7330  -18.9640   21.0600 C   0  0  0  0  0  2  0  0  0  0  0  0
  -29.0740  -17.7250   20.2120 C   0  0  0  0  0  2  0  0  0  0  0  0
  -30.3950  -17.2410   20.4720 O   0  0  0  0  0  0  0  0  0  0  0  0
  -30.3930  -15.8970   20.9570 C   0  0  0  0  0  2  0  0  0  0  0  0
  -31.8340  -15.3820   21.1650 C   0  0  0  0  0  2  0  0  0  0  0  0
  -32.6860  -13.3560   19.8520 C   0  0  0  0  0  0  0  0  0  0  0  0
  -32.1000  -10.9560   19.8840 C   0  0  0  0  0  2  0  0  0  0  0  0
  -31.1850  -10.5870   18.6940 C   0  0  0  0  0  2  0  0  0  0  0  0
  -29.7030  -10.8180   19.0500 C   0  0  0  0  0  2  0  0  0  0  0  0
  -29.4600  -12.2140   19.6710 C   0  0  0  0  0  3  0  0  0  0  0  0
  -30.4820  -12.4880   20.7970 C   0  0  0  0  0  2  0  0  0  0  0  0
  -31.8430  -12.3590   20.2500 N   0  0  0  0  0  0  0  0  0  0  0  0
  -33.7190  -13.1240   19.2180 O   0  0  0  0  0  0  0  0  0  0  0  0
  -32.3160  -14.6400   19.9920 N   0  0  0  0  0  0  0  0  0  0  0  0
  -32.8900  -15.2340   19.4100 H   0  0  0  0  0  0  0  0  0  0  0  0
  -27.3920  -13.5330   20.4570 C   0  0  0  0  0  0  0  0  0  0  0  0
  -26.1280  -13.1320   20.8030 C   0  0  0  0  0  0  0  0  0  0  0  0
  -26.1240  -11.7090   20.6910 C   0  0  0  0  0  0  0  0  0  0  0  0
  -28.0910  -12.3730   20.1560 N   0  0  0  0  0  0  0  0  0  0  0  0
  -27.3300  -11.2660   20.3540 N   0  0  0  0  0  0  0  0  0  0  0  0
  -25.0260  -10.7460   20.8330 C   0  0  0  0  0  0  0  0  0  0  0  0
  -25.1610   -9.5900   21.6320 C   0  0  0  0  0  3  0  0  0  0  0  0
  -24.0880   -8.6810   21.7650 C   0  0  0  0  0  3  0  0  0  0  0  0
  -22.8640   -8.9320   21.1010 C   0  0  0  0  0  0  0  0  0  0  0  0
  -22.7400  -10.0750   20.2920 C   0  0  0  0  0  3  0  0  0  0  0  0
  -23.8130  -10.9700   20.1520 C   0  0  0  0  0  3  0  0  0  0  0  0
  -21.7770   -8.0940   21.1480 O   0  0  0  0  0  0  0  0  0  0  0  0
  -21.5390   -7.2860   22.2320 C   0  0  0  0  0  0  0  0  0  0  0  0
  -21.4110   -7.8050   23.5380 C   0  0  0  0  0  3  0  0  0  0  0  0
  -21.1040   -6.9450   24.6100 C   0  0  0  0  0  3  0  0  0  0  0  0
  -20.9050   -5.5700   24.3750 C   0  0  0  0  0  0  0  0  0  0  0  0
  -21.0170   -5.0520   23.0720 C   0  0  0  0  0  3  0  0  0  0  0  0
  -21.3300   -5.9110   22.0040 C   0  0  0  0  0  0  0  0  0  0  0  0
  -21.4230   -5.4110   20.7460 F   0  0  0  0  0  0  0  0  0  0  0  0
  -20.6010   -4.7400   25.3990 F   0  0  0  0  0  0  0  0  0  0  0  0
  -24.9680  -14.0270   21.1330 C   0  0  0  0  0  0  0  0  0  0  0  0
  -24.0840  -13.5880   22.0210 N   0  0  0  0  0  0  0  0  0  0  0  0
  -24.8630  -15.1500   20.6420 O   0  0  0  0  0  0  0  0  0  0  0  0
  -24.1760  -12.6740   22.4410 H   0  0  0  0  0  0  0  0  0  0  0  0
  -23.3070  -14.1730   22.2830 H   0  0  0  0  0  0  0  0  0  0  0  0
  -27.9830  -14.7820   20.3630 N   0  0  0  0  0  0  0  0  0  0  0  0
  -27.4480  -15.6300   20.5200 H   0  0  0  0  0  0  0  0  0  0  0  0
  -28.9290  -14.9540   20.0450 H   0  0  0  0  0  0  0  0  0  0  0  0
  -29.9690  -24.9760   20.6970 C   0  0  0  0  0  2  0  0  0  0  0  0
  -28.7750  -25.8760   21.0760 C   0  0  0  0  0  2  0  0  0  0  0  0
  -28.7140  -26.9950   20.2080 O   0  0  0  0  0  0  0  0  0  0  0  0
  -24.6090  -31.9790   23.2320 C   0  0  0  0  0  0  0  0  0  0  0  0
  -27.5130  -27.6500   20.2540 C   0  0  0  0  0  0  0  0  0  0  0  0
  -23.4960  -30.5130   21.5730 C   0  0  0  0  0  3  0  0  0  0  0  0
  -25.0490  -29.0120   20.2180 C   0  0  0  0  0  0  0  0  0  0  0  0
  -26.0050  -30.9790   21.4310 C   0  0  0  0  0  2  0  0  0  0  0  0
  -26.1650  -29.6010   20.8240 C   0  0  0  0  0  0  0  0  0  0  0  0
  -27.4030  -28.9230   20.8500 C   0  0  0  0  0  3  0  0  0  0  0  0
  -26.3820  -27.0520   19.6640 C   0  0  0  0  0  3  0  0  0  0  0  0
  -25.1460  -27.7290   19.6480 C   0  0  0  0  0  3  0  0  0  0  0  0
  -23.7700  -29.8160   20.2120 C   0  0  0  0  0  2  0  0  0  0  0  0
  -24.7190  -31.1720   22.1390 N   0  0  0  0  0  0  0  0  0  0  0  0
  -23.5080  -32.2200   23.7430 O   0  0  0  0  0  0  0  0  0  0  0  0
  -22.8610  -29.4830   22.5310 C   0  0  0  0  0  0  0  0  0  0  0  0
  -21.5450  -29.2620   22.3780 N   0  0  0  0  0  0  0  0  0  0  0  0
  -23.5470  -28.8800   23.3610 O   0  0  0  0  0  0  0  0  0  0  0  0
  -21.0560  -29.7970   21.6760 H   0  0  0  0  0  0  0  0  0  0  0  0
  -18.1870  -28.0290   22.8580 C   0  0  0  0  0  0  0  0  0  0  0  0
  -20.7400  -28.3090   23.1400 C   0  0  0  0  0  3  0  0  0  0  0  0
  -20.8620  -26.8850   22.5480 C   0  0  0  0  0  2  0  0  0  0  0  0
  -19.7650  -26.5610   21.5290 C   0  0  0  0  0  2  0  0  0  0  0  0
  -18.3800  -26.6870   22.1690 C   0  0  0  0  0  2  0  0  0  0  0  0
  -19.2970  -28.7970   23.2980 C   0  0  0  0  0  0  0  0  0  0  0  0
  -19.0670  -30.0560   23.8970 C   0  0  0  0  0  3  0  0  0  0  0  0
  -17.7560  -30.5430   24.0640 C   0  0  0  0  0  3  0  0  0  0  0  0
  -16.6610  -29.7700   23.6430 C   0  0  0  0  0  3  0  0  0  0  0  0
  -16.8770  -28.5150   23.0440 C   0  0  0  0  0  3  0  0  0  0  0  0
  -25.8590  -32.6630   23.8740 C   0  0  0  0  0  3  0  0  0  0  0  0
  -26.4090  -31.8910   25.1360 C   0  0  1  0  0  0  0  0  0  0  0  0
  -25.3100  -31.4880   26.1450 C   0  0  0  0  0  1  0  0  0  0  0  0
  -27.1540  -30.6040   24.7080 C   0  0  0  0  0  1  0  0  0  0  0  0
  -27.4320  -32.7730   25.8920 C   0  0  0  0  0  1  0  0  0  0  0  0
  -25.4800  -34.0350   24.2300 N   0  0  0  0  0  0  0  0  0  0  0  0
  -25.7280  -35.1130   23.4710 C   0  0  0  0  0  0  0  0  0  0  0  0
  -26.3740  -35.0570   22.4210 O   0  0  0  0  0  0  0  0  0  0  0  0
  -24.9030  -34.1460   25.0510 H   0  0  0  0  0  0  0  0  0  0  0  0
  -23.8670  -36.7830   23.2000 C   0  0  0  0  0  1  0  0  0  0  0  0
  -25.1670  -36.4630   23.9550 C   0  0  0  0  0  3  0  0  0  0  0  0
  -27.2790  -37.4820   24.6850 C   0  0  0  0  0  1  0  0  0  0  0  0
  -26.1200  -37.5840   23.8020 N   0  0  0  0  0  0  0  0  0  0  0  0
  -25.6600  -38.4720   23.9850 H   0  0  0  0  0  0  0  0  0  0  0  0
  1  2  1  0
  1  5  1  0
  2  4  1  0
  3  1  2  0
  6  7  1  0
  6  5  1  0
  8  9  1  0
  8  7  1  0
  9 10  1  0
 10 11  1  0
 12 20  1  0
 12 18  1  0
 13 18  1  0
 14 15  1  0
 14 13  1  0
 16 15  1  0
 16 25  1  0
 16 17  1  0
 18 17  1  0
 19 12  2  0
 20 11  1  0
 21 20  1  0
 22 23  2  0
 23 42  1  0
 24 23  1  0
 24 27  1  0
 25 26  1  0
 25 22  1  0
 26 24  2  0
 27 28  1  0
 28 29  2  0
 30 33  1  0
 30 29  1  0
 31 30  2  0
 32 31  1  0
 32 27  2  0
 33 34  1  0
 34 35  1  0
 35 36  2  0
 37 36  1  0
 37 41  1  0
 38 37  2  0
 39 34  2  0
 39 38  1  0
 40 39  1  0
 42 43  1  0
 43 46  1  0
 43 45  1  0
 44 42  2  0
 47 22  1  0
 47 48  1  0
 49 47  1  0
 50 51  1  0
 50  2  1  0
 52 54  1  0
 52 51  1  0
 53 64  2  0
 54 59  1  0
 55 63  1  0
 55 65  1  0
 56 58  1  0
 57 63  1  0
 58 59  2  0
 58 57  1  0
 60 54  2  0
 61 60  1  0
 61 56  2  0
 62 56  1  0
 62 55  1  0
 63 53  1  0
 65 67  2  0
 66 65  1  0
 68 66  1  0
 69 78  2  0
 69 74  1  0
 70 66  1  0
 70 74  1  0
 71 70  1  0
 72 73  1  0
 72 71  1  0
 73 69  1  0
 74 75  2  0
 75 76  1  0
 77 76  2  0
 78 77  1  0
 79 53  1  0
 79 84  1  0
 79 80  1  0
 80 83  1  1
 80 81  1  0
 82 80  1  0
 84 87  1  0
 85 89  1  0
 85 84  1  0
 86 85  2  0
 89 88  1  0
 91 89  1  0
 91 92  1  0
 91 90  1  0
M  ISO  4  12 100  20 100  51 101  52 101
M  END
>  <TORSDO>  (41) 
F 25

>  <SCORE>  (41) 
-10.405

>  <name>  (41) 
41

>  <ligand_id>  (41) 
41

>  <original_smiles>  (41) 
[H]c1c([H])c([H])c2c(c1[H])C([H])([H])C([H])([H])C([H])([H])C2([H])N([H])C(=O)C1([H])N(C(=O)C([H])(N([H])C(=O)C([H])(N([H])C([H])([H])[H])C([H])([H])[H])C(C([H])([H])[H])(C([H])([H])[H])C([H])([H])[H])C([H])([H])c2c([H])c(OC([H])([H])C([H])([H])N([H])C(=O)C([H])([H])OC([H])([H])C([H])([H])OC([H])([H])C([H])([H])N([H])C(=O)N3C([H])([H])C([H])([H])C([H])([H])C([H])(n4nc(-c5c([H])c([H])c(Oc6c([H])c([H])c(F)c([H])c6F)c([H])c5[H])c(C(=O)N([H])[H])c4N([H])[H])C3([H])[H])c([H])c([H])c2C1([H])[H]

>  <smiles>  (41) 
[H]c1c([H])c([H])c2c(c1[H])C([H])([H])C([H])([H])C([H])([H])C2([H])N([H])C(=O)C1([H])N(C(=O)C([H])(N([H])C(=O)C([H])(N([H])C([H])([H])[H])C([H])([H])[H])C(C([H])([H])[H])(C([H])([H])[H])C([H])([H])[H])C([H])([H])c2c([H])c(OC([H])([H])C([H])([H])N([H])C(=O)C([H])([H])OC([H])([H])C([H])([H])OC([H])([H])C([H])([H])N([H])C(=O)N3C([H])([H])C([H])([H])C([H])([H])C([H])(n4nc(-c5c([H])c([H])c(Oc6c([H])c([H])c(F)c([H])c6F)c([H])c5[H])c(C(=O)N([H])[H])c4N([H])[H])C3([H])[H])c([H])c([H])c2C1([H])[H]

$$$$
42:0:0
     RDKit          3D

 93100  0  0  1  0  0  0  0  0999 V2000
  -27.3650  -22.7200   20.8430 C   0  0  0  0  0  0  0  0  0  0  0  0
  -27.4500  -21.5570   20.1880 N   0  0  0  0  0  0  0  0  0  0  0  0
  -27.5980  -22.8210   22.0510 O   0  0  0  0  0  0  0  0  0  0  0  0
  -27.1960  -21.5580   19.2080 H   0  0  0  0  0  0  0  0  0  0  0  0
  -28.0200  -20.3220   20.7230 C   0  0  0  0  0  2  0  0  0  0  0  0
  -29.5350  -20.4590   20.9700 C   0  0  0  0  0  2  0  0  0  0  0  0
  -30.2720  -21.1460   19.8060 C   0  0  0  0  0  2  0  0  0  0  0  0
  -31.6170  -21.7690   20.2080 C   0  0  0  0  0  2  0  0  0  0  0  0
  -32.6600  -21.5400   19.1080 C   0  0  0  0  0  2  0  0  0  0  0  0
  -34.1160  -21.7120   19.5570 C   0  0  0  0  0  2  0  0  0  0  0  0
  -35.9650  -20.1000   19.1610 C   0  0  0  0  0  0  0  0  0  0  0  0
  -36.5430  -17.7280   19.4170 C   0  0  0  0  0  2  0  0  0  0  0  0
  -35.9930  -16.9410   18.2130 C   0  0  0  0  0  2  0  0  0  0  0  0
  -34.5400  -16.4920   18.4680 C   0  0  0  0  0  2  0  0  0  0  0  0
  -33.6370  -17.6490   18.9750 C   0  0  0  0  0  3  0  0  0  0  0  0
  -34.3270  -18.4230   20.1210 C   0  0  0  0  0  2  0  0  0  0  0  0
  -35.6460  -18.8700   19.6430 N   0  0  0  0  0  0  0  0  0  0  0  0
  -37.0950  -20.4080   18.7860 O   0  0  0  0  0  0  0  0  0  0  0  0
  -34.9490  -20.8500   18.7300 N   0  0  0  0  0  0  0  0  0  0  0  0
  -35.2410  -21.3460   17.9010 H   0  0  0  0  0  0  0  0  0  0  0  0
  -31.1960  -17.8780   19.7640 C   0  0  0  0  0  0  0  0  0  0  0  0
  -30.2040  -16.9530   19.9480 C   0  0  0  0  0  0  0  0  0  0  0  0
  -30.7840  -15.6860   19.6360 C   0  0  0  0  0  0  0  0  0  0  0  0
  -32.3160  -17.1630   19.3690 N   0  0  0  0  0  0  0  0  0  0  0  0
  -32.0700  -15.8270   19.3430 N   0  0  0  0  0  0  0  0  0  0  0  0
  -30.1720  -14.3510   19.5420 C   0  0  0  0  0  0  0  0  0  0  0  0
  -30.3980  -13.3650   20.5280 C   0  0  0  0  0  3  0  0  0  0  0  0
  -29.7830  -12.0980   20.4250 C   0  0  0  0  0  3  0  0  0  0  0  0
  -28.9320  -11.8070   19.3300 C   0  0  0  0  0  0  0  0  0  0  0  0
  -28.7320  -12.7850   18.3410 C   0  0  0  0  0  3  0  0  0  0  0  0
  -29.3470  -14.0450   18.4420 C   0  0  0  0  0  3  0  0  0  0  0  0
  -28.3140  -10.5970   19.1330 O   0  0  0  0  0  0  0  0  0  0  0  0
  -27.6930   -9.9310   20.1600 C   0  0  0  0  0  0  0  0  0  0  0  0
  -26.5910  -10.4840   20.8500 C   0  0  0  0  0  3  0  0  0  0  0  0
  -25.9380   -9.7380   21.8490 C   0  0  0  0  0  3  0  0  0  0  0  0
  -26.3810   -8.4370   22.1580 C   0  0  0  0  0  0  0  0  0  0  0  0
  -27.4750   -7.8830   21.4720 C   0  0  0  0  0  3  0  0  0  0  0  0
  -28.1270   -8.6280   20.4730 C   0  0  0  0  0  0  0  0  0  0  0  0
  -29.1660   -8.0810   19.7980 F   0  0  0  0  0  0  0  0  0  0  0  0
  -25.7500   -7.7160   23.1150 F   0  0  0  0  0  0  0  0  0  0  0  0
  -28.7720  -17.2350   20.3000 C   0  0  0  0  0  0  0  0  0  0  0  0
  -28.1240  -16.3200   21.0140 N   0  0  0  0  0  0  0  0  0  0  0  0
  -28.2330  -18.2960   19.9880 O   0  0  0  0  0  0  0  0  0  0  0  0
  -28.5700  -15.4550   21.2830 H   0  0  0  0  0  0  0  0  0  0  0  0
  -27.1680  -16.4840   21.2920 H   0  0  0  0  0  0  0  0  0  0  0  0
  -31.2250  -19.2640   19.8800 N   0  0  0  0  0  0  0  0  0  0  0  0
  -30.4050  -19.7990   20.1400 H   0  0  0  0  0  0  0  0  0  0  0  0
  -32.0350  -19.8410   19.6980 H   0  0  0  0  0  0  0  0  0  0  0  0
  -27.0080  -23.9550   20.0070 C   0  0  0  0  0  2  0  0  0  0  0  0
  -27.5930  -25.1230   20.5740 O   0  0  0  0  0  0  0  0  0  0  0  0
  -28.0630  -26.0210   19.5800 C   0  0  0  0  0  2  0  0  0  0  0  0
  -28.7450  -27.2290   20.2460 C   0  0  0  0  0  2  0  0  0  0  0  0
  -28.4770  -28.4300   19.5310 O   0  0  0  0  0  0  0  0  0  0  0  0
  -24.8420  -32.1770   24.3630 C   0  0  0  0  0  0  0  0  0  0  0  0
  -27.2980  -29.0330   19.8780 C   0  0  0  0  0  0  0  0  0  0  0  0
  -23.5190  -31.2550   22.4860 C   0  0  0  0  0  3  0  0  0  0  0  0
  -24.8690  -30.2950   20.5470 C   0  0  0  0  0  0  0  0  0  0  0  0
  -25.9980  -31.8050   22.1900 C   0  0  0  0  0  2  0  0  0  0  0  0
  -26.0590  -30.6910   21.1700 C   0  0  0  0  0  0  0  0  0  0  0  0
  -27.2770  -30.0610   20.8420 C   0  0  0  0  0  3  0  0  0  0  0  0
  -26.0980  -28.6520   19.2440 C   0  0  0  0  0  3  0  0  0  0  0  0
  -24.8780  -29.2730   19.5830 C   0  0  0  0  0  3  0  0  0  0  0  0
  -23.6100  -31.0240   20.9530 C   0  0  0  0  0  2  0  0  0  0  0  0
  -24.8100  -31.7430   23.0720 N   0  0  0  0  0  0  0  0  0  0  0  0
  -23.8130  -32.2150   25.0500 O   0  0  0  0  0  0  0  0  0  0  0  0
  -22.9990  -29.9590   23.1460 C   0  0  0  0  0  0  0  0  0  0  0  0
  -21.7510  -29.5830   22.8200 N   0  0  0  0  0  0  0  0  0  0  0  0
  -23.7150  -29.3040   23.9070 O   0  0  0  0  0  0  0  0  0  0  0  0
  -21.2250  -30.1810   22.2000 H   0  0  0  0  0  0  0  0  0  0  0  0
  -18.7750  -27.5840   22.3950 C   0  0  0  0  0  0  0  0  0  0  0  0
  -21.0670  -28.3780   23.2860 C   0  0  0  0  0  3  0  0  0  0  0  0
  -21.6510  -27.1110   22.6230 C   0  0  0  0  0  2  0  0  0  0  0  0
  -20.9030  -26.6960   21.3520 C   0  0  0  0  0  2  0  0  0  0  0  0
  -19.4280  -26.4250   21.6610 C   0  0  0  0  0  2  0  0  0  0  0  0
  -19.5460  -28.5110   23.1450 C   0  0  0  0  0  0  0  0  0  0  0  0
  -18.8920  -29.5920   23.7760 C   0  0  0  0  0  3  0  0  0  0  0  0
  -17.4980  -29.7520   23.6720 C   0  0  0  0  0  3  0  0  0  0  0  0
  -16.7380  -28.8220   22.9410 C   0  0  0  0  0  3  0  0  0  0  0  0
  -17.3760  -27.7400   22.3080 C   0  0  0  0  0  3  0  0  0  0  0  0
  -26.1660  -32.6660   25.0300 C   0  0  0  0  0  3  0  0  0  0  0  0
  -26.5840  -31.8070   26.2840 C   0  0  1  0  0  0  0  0  0  0  0  0
  -25.4320  -31.5730   27.2870 C   0  0  0  0  0  1  0  0  0  0  0  0
  -27.1150  -30.4230   25.8450 C   0  0  0  0  0  1  0  0  0  0  0  0
  -27.7400  -32.5060   27.0360 C   0  0  0  0  0  1  0  0  0  0  0  0
  -25.9800  -34.0750   25.3980 N   0  0  0  0  0  0  0  0  0  0  0  0
  -26.4250  -35.1130   24.6790 C   0  0  0  0  0  0  0  0  0  0  0  0
  -27.1060  -34.9790   23.6590 O   0  0  0  0  0  0  0  0  0  0  0  0
  -25.3850  -34.2610   26.1930 H   0  0  0  0  0  0  0  0  0  0  0  0
  -24.8720  -37.0620   24.3480 C   0  0  0  0  0  1  0  0  0  0  0  0
  -26.0540  -36.5250   25.1700 C   0  0  0  0  0  3  0  0  0  0  0  0
  -28.2380  -37.1930   26.0750 C   0  0  0  0  0  1  0  0  0  0  0  0
  -27.1800  -37.4830   25.1090 N   0  0  0  0  0  0  0  0  0  0  0  0
  -26.8550  -38.4330   25.2700 H   0  0  0  0  0  0  0  0  0  0  0  0
  1  3  2  0
  2  5  1  0
  2  1  1  0
  4  2  1  0
  5  6  1  0
  7  8  1  0
  7  6  1  0
  9 10  1  0
  9  8  1  0
 11 17  1  0
 12 17  1  0
 13 14  1  0
 13 12  1  0
 15 14  1  0
 15 24  1  0
 15 16  1  0
 17 16  1  0
 18 11  2  0
 19 11  1  0
 19 10  1  0
 20 19  1  0
 21 46  1  0
 21 22  2  0
 22 41  1  0
 23 22  1  0
 24 21  1  0
 25 24  1  0
 25 23  2  0
 26 23  1  0
 26 27  1  0
 28 27  2  0
 29 28  1  0
 30 31  1  0
 30 29  2  0
 31 26  2  0
 32 29  1  0
 32 33  1  0
 33 38  2  0
 33 34  1  0
 34 35  2  0
 35 36  1  0
 36 40  1  0
 37 36  2  0
 38 37  1  0
 39 38  1  0
 41 42  1  0
 42 44  1  0
 42 45  1  0
 43 41  2  0
 46 47  1  0
 48 46  1  0
 49 50  1  0
 49  1  1  0
 51 52  1  0
 51 50  1  0
 53 55  1  0
 53 52  1  0
 54 65  2  0
 55 60  1  0
 56 64  1  0
 56 66  1  0
 57 63  1  0
 57 59  1  0
 58 64  1  0
 59 58  1  0
 60 59  2  0
 61 62  1  0
 61 55  2  0
 62 57  2  0
 63 56  1  0
 64 54  1  0
 66 68  2  0
 67 66  1  0
 69 67  1  0
 70 75  1  0
 71 67  1  0
 72 71  1  0
 73 74  1  0
 73 72  1  0
 74 70  1  0
 75 71  1  0
 75 76  2  0
 77 76  1  0
 78 77  2  0
 79 70  2  0
 79 78  1  0
 80 54  1  0
 80 85  1  0
 80 81  1  0
 81 84  1  1
 81 82  1  0
 83 81  1  0
 85 88  1  0
 86 90  1  0
 86 85  1  0
 87 86  2  0
 90 89  1  0
 92 90  1  0
 92 93  1  0
 92 91  1  0
M  ISO  4  11 100  19 100  52 101  53 101
M  END
>  <TORSDO>  (42) 
F 26

>  <SCORE>  (42) 
-3.904

>  <name>  (42) 
42

>  <ligand_id>  (42) 
42

>  <original_smiles>  (42) 
[H]c1c([H])c([H])c2c(c1[H])C([H])([H])C([H])([H])C([H])([H])C2([H])N([H])C(=O)C1([H])N(C(=O)C([H])(N([H])C(=O)C([H])(N([H])C([H])([H])[H])C([H])([H])[H])C(C([H])([H])[H])(C([H])([H])[H])C([H])([H])[H])C([H])([H])c2c([H])c(OC([H])([H])C([H])([H])OC([H])([H])C(=O)N([H])C([H])([H])C([H])([H])C([H])([H])C([H])([H])C([H])([H])C([H])([H])N([H])C(=O)N3C([H])([H])C([H])([H])C([H])([H])C([H])(n4nc(-c5c([H])c([H])c(Oc6c([H])c([H])c(F)c([H])c6F)c([H])c5[H])c(C(=O)N([H])[H])c4N([H])[H])C3([H])[H])c([H])c([H])c2C1([H])[H]

>  <smiles>  (42) 
[H]c1c([H])c([H])c2c(c1[H])C([H])([H])C([H])([H])C([H])([H])C2([H])N([H])C(=O)C1([H])N(C(=O)C([H])(N([H])C(=O)C([H])(N([H])C([H])([H])[H])C([H])([H])[H])C(C([H])([H])[H])(C([H])([H])[H])C([H])([H])[H])C([H])([H])c2c([H])c(OC([H])([H])C([H])([H])OC([H])([H])C(=O)N([H])C([H])([H])C([H])([H])C([H])([H])C([H])([H])C([H])([H])C([H])([H])N([H])C(=O)N3C([H])([H])C([H])([H])C([H])([H])C([H])(n4nc(-c5c([H])c([H])c(Oc6c([H])c([H])c(F)c([H])c6F)c([H])c5[H])c(C(=O)N([H])[H])c4N([H])[H])C3([H])[H])c([H])c([H])c2C1([H])[H]

$$$$
43:0:0
     RDKit          3D

 93100  0  0  1  0  0  0  0  0999 V2000
  -25.1720  -23.3380   22.0120 O   0  0  0  0  0  0  0  0  0  0  0  0
  -26.2330  -22.5500   22.5490 C   0  0  0  0  0  2  0  0  0  0  0  0
  -27.1620  -22.1360   21.4030 C   0  0  0  0  0  2  0  0  0  0  0  0
  -27.8580  -23.2870   20.9350 O   0  0  0  0  0  0  0  0  0  0  0  0
  -28.6680  -23.0240   19.7970 C   0  0  0  0  0  2  0  0  0  0  0  0
  -29.5750  -24.2400   19.5130 C   0  0  0  0  0  2  0  0  0  0  0  0
  -30.8040  -24.2090   20.2400 O   0  0  0  0  0  0  0  0  0  0  0  0
  -31.4300  -22.9330   20.2120 C   0  0  0  0  0  2  0  0  0  0  0  0
  -32.7020  -22.9100   21.0740 C   0  0  0  0  0  2  0  0  0  0  0  0
  -33.9700  -20.7620   21.0540 C   0  0  0  0  0  0  0  0  0  0  0  0
  -34.6360  -18.4370   20.5590 C   0  0  0  0  0  2  0  0  0  0  0  0
  -34.2500  -18.0470   19.1180 C   0  0  0  0  0  2  0  0  0  0  0  0
  -32.7880  -17.5610   19.0440 C   0  0  0  0  0  2  0  0  0  0  0  0
  -31.8040  -18.5330   19.7430 C   0  0  0  0  0  3  0  0  0  0  0  0
  -32.3180  -18.8710   21.1600 C   0  0  0  0  0  2  0  0  0  0  0  0
  -33.6770  -19.4380   21.0480 N   0  0  0  0  0  0  0  0  0  0  0  0
  -35.0520  -21.2340   20.6970 O   0  0  0  0  0  0  0  0  0  0  0  0
  -32.9600  -21.5300   21.4660 N   0  0  0  0  0  0  0  0  0  0  0  0
  -32.1740  -21.0280   21.8550 H   0  0  0  0  0  0  0  0  0  0  0  0
  -29.2290  -18.6350   19.6990 C   0  0  0  0  0  0  0  0  0  0  0  0
  -28.2770  -17.6520   19.7250 C   0  0  0  0  0  0  0  0  0  0  0  0
  -28.9880  -16.4160   19.8140 C   0  0  0  0  0  0  0  0  0  0  0  0
  -30.4510  -17.9850   19.7830 N   0  0  0  0  0  0  0  0  0  0  0  0
  -30.2910  -16.6430   19.9070 N   0  0  0  0  0  0  0  0  0  0  0  0
  -28.5070  -15.0300   19.7650 C   0  0  0  0  0  0  0  0  0  0  0  0
  -28.7270  -14.1350   20.8330 C   0  0  0  0  0  3  0  0  0  0  0  0
  -28.2440  -12.8100   20.7690 C   0  0  0  0  0  3  0  0  0  0  0  0
  -27.5260  -12.3710   19.6300 C   0  0  0  0  0  0  0  0  0  0  0  0
  -27.3310  -13.2600   18.5580 C   0  0  0  0  0  3  0  0  0  0  0  0
  -27.8180  -14.5750   18.6210 C   0  0  0  0  0  3  0  0  0  0  0  0
  -27.0370  -11.0970   19.4710 O   0  0  0  0  0  0  0  0  0  0  0  0
  -26.5820  -10.3630   20.5370 C   0  0  0  0  0  0  0  0  0  0  0  0
  -25.5340  -10.8190   21.3660 C   0  0  0  0  0  3  0  0  0  0  0  0
  -25.0500   -9.9980   22.4040 C   0  0  0  0  0  3  0  0  0  0  0  0
  -25.6010   -8.7200   22.6100 C   0  0  0  0  0  0  0  0  0  0  0  0
  -26.6430   -8.2630   21.7820 C   0  0  0  0  0  3  0  0  0  0  0  0
  -27.1270   -9.0800   20.7470 C   0  0  0  0  0  0  0  0  0  0  0  0
  -28.1140   -8.6240   19.9380 F   0  0  0  0  0  0  0  0  0  0  0  0
  -25.1330   -7.9280   23.6030 F   0  0  0  0  0  0  0  0  0  0  0  0
  -26.7940  -17.8330   19.5780 C   0  0  0  0  0  0  0  0  0  0  0  0
  -26.0020  -16.9500   20.1780 N   0  0  0  0  0  0  0  0  0  0  0  0
  -26.3260  -18.7950   18.9700 O   0  0  0  0  0  0  0  0  0  0  0  0
  -26.3800  -16.1720   20.6990 H   0  0  0  0  0  0  0  0  0  0  0  0
  -24.9990  -17.0520   20.1100 H   0  0  0  0  0  0  0  0  0  0  0  0
  -29.1610  -20.0220   19.5910 N   0  0  0  0  0  0  0  0  0  0  0  0
  -28.2780  -20.4970   19.4340 H   0  0  0  0  0  0  0  0  0  0  0  0
  -29.9640  -20.6210   19.4610 H   0  0  0  0  0  0  0  0  0  0  0  0
  -24.9040  -24.5320   22.7430 C   0  0  0  0  0  2  0  0  0  0  0  0
  -26.0460  -25.5490   22.5820 C   0  0  0  0  0  2  0  0  0  0  0  0
  -26.3250  -25.7290   21.1990 O   0  0  0  0  0  0  0  0  0  0  0  0
  -27.7110  -25.8930   20.9330 C   0  0  0  0  0  2  0  0  0  0  0  0
  -27.9270  -26.4910   19.5320 C   0  0  0  0  0  2  0  0  0  0  0  0
  -27.9490  -27.9210   19.5800 O   0  0  0  0  0  0  0  0  0  0  0  0
  -24.5820  -32.4860   23.8510 C   0  0  0  0  0  0  0  0  0  0  0  0
  -26.7770  -28.6050   19.8200 C   0  0  0  0  0  0  0  0  0  0  0  0
  -23.1840  -31.4170   22.1130 C   0  0  0  0  0  3  0  0  0  0  0  0
  -24.4440  -30.1210   20.3180 C   0  0  0  0  0  0  0  0  0  0  0  0
  -25.6910  -31.7550   21.7440 C   0  0  0  0  0  2  0  0  0  0  0  0
  -25.6680  -30.5160   20.8720 C   0  0  0  0  0  0  0  0  0  0  0  0
  -26.8360  -29.7680   20.6170 C   0  0  0  0  0  3  0  0  0  0  0  0
  -25.5330  -28.2160   19.2720 C   0  0  0  0  0  3  0  0  0  0  0  0
  -24.3700  -28.9690   19.5180 C   0  0  0  0  0  3  0  0  0  0  0  0
  -23.2430  -30.9840   20.6240 C   0  0  0  0  0  2  0  0  0  0  0  0
  -24.5100  -31.8890   22.6270 N   0  0  0  0  0  0  0  0  0  0  0  0
  -23.5650  -32.6820   24.5290 O   0  0  0  0  0  0  0  0  0  0  0  0
  -22.5850  -30.2560   22.9400 C   0  0  0  0  0  0  0  0  0  0  0  0
  -21.2770  -30.0070   22.7620 N   0  0  0  0  0  0  0  0  0  0  0  0
  -23.2940  -29.5870   23.6960 O   0  0  0  0  0  0  0  0  0  0  0  0
  -20.7650  -30.6070   22.1320 H   0  0  0  0  0  0  0  0  0  0  0  0
  -18.0310  -28.4260   22.8830 C   0  0  0  0  0  0  0  0  0  0  0  0
  -20.5100  -28.9410   23.4050 C   0  0  0  0  0  3  0  0  0  0  0  0
  -20.8240  -27.5670   22.7700 C   0  0  0  0  0  2  0  0  0  0  0  0
  -19.8570  -27.1890   21.6430 C   0  0  0  0  0  2  0  0  0  0  0  0
  -18.4170  -27.1460   22.1610 C   0  0  0  0  0  2  0  0  0  0  0  0
  -19.0150  -29.2770   23.4520 C   0  0  0  0  0  0  0  0  0  0  0  0
  -18.6040  -30.4740   24.0810 C   0  0  0  0  0  3  0  0  0  0  0  0
  -17.2410  -30.8200   24.1480 C   0  0  0  0  0  3  0  0  0  0  0  0
  -16.2710  -29.9670   23.5960 C   0  0  0  0  0  3  0  0  0  0  0  0
  -16.6660  -28.7710   22.9690 C   0  0  0  0  0  3  0  0  0  0  0  0
  -25.9420  -32.9700   24.4450 C   0  0  0  0  0  3  0  0  0  0  0  0
  -26.4700  -32.0580   25.6190 C   0  0  1  0  0  0  0  0  0  0  0  0
  -25.4150  -31.7830   26.7150 C   0  0  0  0  0  1  0  0  0  0  0  0
  -26.9540  -30.6940   25.0750 C   0  0  0  0  0  1  0  0  0  0  0  0
  -27.6960  -32.7260   26.2880 C   0  0  0  0  0  1  0  0  0  0  0  0
  -25.7540  -34.3520   24.9040 N   0  0  0  0  0  0  0  0  0  0  0  0
  -26.1440  -35.4400   24.2250 C   0  0  0  0  0  0  0  0  0  0  0  0
  -26.7700  -35.3760   23.1640 O   0  0  0  0  0  0  0  0  0  0  0  0
  -25.2020  -34.4810   25.7390 H   0  0  0  0  0  0  0  0  0  0  0  0
  -24.5540  -37.3820   24.0820 C   0  0  0  0  0  1  0  0  0  0  0  0
  -25.7800  -36.8150   24.8160 C   0  0  0  0  0  3  0  0  0  0  0  0
  -27.9990  -37.4550   25.6470 C   0  0  0  0  0  1  0  0  0  0  0  0
  -26.8890  -37.7920   24.7600 N   0  0  0  0  0  0  0  0  0  0  0  0
  -26.5620  -38.7240   25.0000 H   0  0  0  0  0  0  0  0  0  0  0  0
  1  2  1  0
  1 48  1  0
  3  2  1  0
  4  3  1  0
  5  4  1  0
  6  5  1  0
  6  7  1  0
  8  7  1  0
  8  9  1  0
  9 18  1  0
 10 18  1  0
 11 16  1  0
 12 11  1  0
 13 12  1  0
 14 13  1  0
 14 23  1  0
 14 15  1  0
 16 10  1  0
 16 15  1  0
 17 10  2  0
 18 19  1  0
 20 21  2  0
 20 23  1  0
 21 22  1  0
 22 24  2  0
 23 24  1  0
 25 22  1  0
 25 26  1  0
 27 26  2  0
 28 27  1  0
 29 30  1  0
 29 28  2  0
 30 25  2  0
 31 28  1  0
 31 32  1  0
 32 37  2  0
 32 33  1  0
 33 34  2  0
 34 35  1  0
 35 39  1  0
 36 35  2  0
 37 36  1  0
 38 37  1  0
 40 21  1  0
 40 41  1  0
 41 43  1  0
 42 40  2  0
 44 41  1  0
 45 20  1  0
 46 45  1  0
 47 45  1  0
 49 48  1  0
 50 49  1  0
 51 50  1  0
 52 53  1  0
 52 51  1  0
 53 55  1  0
 54 65  2  0
 55 60  1  0
 56 64  1  0
 56 66  1  0
 57 63  1  0
 57 59  1  0
 58 64  1  0
 59 58  1  0
 60 59  2  0
 61 62  1  0
 61 55  2  0
 62 57  2  0
 63 56  1  0
 64 54  1  0
 66 68  2  0
 67 66  1  0
 69 67  1  0
 70 79  2  0
 70 75  1  0
 71 67  1  0
 71 75  1  0
 72 71  1  0
 73 74  1  0
 73 72  1  0
 74 70  1  0
 75 76  2  0
 76 77  1  0
 78 77  2  0
 79 78  1  0
 80 54  1  0
 80 85  1  0
 80 81  1  0
 81 84  1  1
 81 82  1  0
 83 81  1  0
 85 88  1  0
 86 90  1  0
 86 85  1  0
 87 86  2  0
 90 89  1  0
 92 90  1  0
 92 93  1  0
 92 91  1  0
M  ISO  4  10 100  18 100  52 101  53 101
M  END
>  <TORSDO>  (43) 
F 29

>  <SCORE>  (43) 
-2.990

>  <name>  (43) 
43

>  <ligand_id>  (43) 
43

>  <original_smiles>  (43) 
[H]c1c([H])c([H])c2c(c1[H])C([H])([H])C([H])([H])C([H])([H])C2([H])N([H])C(=O)C1([H])N(C(=O)C([H])(N([H])C(=O)C([H])(N([H])C([H])([H])[H])C([H])([H])[H])C(C([H])([H])[H])(C([H])([H])[H])C([H])([H])[H])C([H])([H])c2c([H])c(OC([H])([H])C([H])([H])OC([H])([H])C([H])([H])OC([H])([H])C([H])([H])OC([H])([H])C([H])([H])OC([H])([H])C([H])([H])N([H])C(=O)N3C([H])([H])C([H])([H])C([H])([H])C([H])(n4nc(-c5c([H])c([H])c(Oc6c([H])c([H])c(F)c([H])c6F)c([H])c5[H])c(C(=O)N([H])[H])c4N([H])[H])C3([H])[H])c([H])c([H])c2C1([H])[H]

>  <smiles>  (43) 
[H]c1c([H])c([H])c2c(c1[H])C([H])([H])C([H])([H])C([H])([H])C2([H])N([H])C(=O)C1([H])N(C(=O)C([H])(N([H])C(=O)C([H])(N([H])C([H])([H])[H])C([H])([H])[H])C(C([H])([H])[H])(C([H])([H])[H])C([H])([H])[H])C([H])([H])c2c([H])c(OC([H])([H])C([H])([H])OC([H])([H])C([H])([H])OC([H])([H])C([H])([H])OC([H])([H])C([H])([H])OC([H])([H])C([H])([H])N([H])C(=O)N3C([H])([H])C([H])([H])C([H])([H])C([H])(n4nc(-c5c([H])c([H])c(Oc6c([H])c([H])c(F)c([H])c6F)c([H])c5[H])c(C(=O)N([H])[H])c4N([H])[H])C3([H])[H])c([H])c([H])c2C1([H])[H]

$$$$
44:0:0
     RDKit          3D

 90 98  0  0  1  0  0  0  0  0999 V2000
  -30.5270  -23.5110   20.6310 C   0  0  0  0  0  1  0  0  0  0  0  0
  -29.1770  -22.9170   20.1990 C   0  0  0  0  0  0  0  0  0  0  0  0
  -28.9810  -19.8190   20.4270 C   0  0  0  0  0  0  0  0  0  0  0  0
  -29.3990  -21.2310   20.2900 N   0  0  0  0  0  4  0  0  0  0  0  0
  -27.8130  -19.6180   20.7640 O   0  0  0  0  0  0  0  0  0  0  0  0
  -30.3710  -21.1220   20.0370 H   0  0  0  0  0  0  0  0  0  0  0  0
  -30.3700  -15.4070   20.2990 C   0  0  0  0  0  0  0  0  0  0  0  0
  -30.3860  -12.9600   19.4250 C   0  0  0  0  0  2  0  0  0  0  0  0
  -29.4760  -12.7020   18.1970 C   0  0  0  0  0  2  0  0  0  0  0  0
  -28.0270  -12.4140   18.6350 C   0  0  0  0  0  2  0  0  0  0  0  0
  -27.5510  -13.3790   19.7500 C   0  0  0  0  0  3  0  0  0  0  0  0
  -28.5920  -13.5720   20.8710 C   0  0  0  0  0  2  0  0  0  0  0  0
  -29.8040  -14.0990   20.2220 N   0  0  0  0  0  0  0  0  0  0  0  0
  -31.6100  -15.3770   20.2790 O   0  0  0  0  0  0  0  0  0  0  0  0
  -29.2490  -17.8900   17.9310 C   0  0  0  0  0  2  0  0  0  0  0  0
  -30.4060  -18.5500   18.6640 C   0  0  0  0  0  2  0  0  0  0  0  0
  -29.0640  -16.5680   18.6870 C   0  0  0  0  0  2  0  0  0  0  0  0
  -29.9350  -18.3570   20.1010 C   0  0  0  0  0  3  0  0  0  0  0  0
  -29.6290  -16.6940   20.0620 N   0  0  0  0  0  0  0  0  0  0  0  0
  -25.1740  -13.9300   20.4800 C   0  0  0  0  0  0  0  0  0  0  0  0
  -24.1100  -13.1480   20.8320 C   0  0  0  0  0  0  0  0  0  0  0  0
  -24.5880  -11.8010   20.8130 C   0  0  0  0  0  0  0  0  0  0  0  0
  -26.2240  -13.0600   20.2520 N   0  0  0  0  0  0  0  0  0  0  0  0
  -25.8840  -11.7740   20.5220 N   0  0  0  0  0  0  0  0  0  0  0  0
  -23.8670  -10.5350   20.9910 C   0  0  0  0  0  0  0  0  0  0  0  0
  -24.2860   -9.5750   21.9380 C   0  0  0  0  0  3  0  0  0  0  0  0
  -23.5640   -8.3730   22.1040 C   0  0  0  0  0  3  0  0  0  0  0  0
  -22.4100   -8.1230   21.3250 C   0  0  0  0  0  0  0  0  0  0  0  0
  -22.0100   -9.0730   20.3680 C   0  0  0  0  0  3  0  0  0  0  0  0
  -22.7320  -10.2670   20.1990 C   0  0  0  0  0  3  0  0  0  0  0  0
  -21.6600   -6.9740   21.4020 O   0  0  0  0  0  0  0  0  0  0  0  0
  -21.5860   -6.2400   22.5580 C   0  0  0  0  0  0  0  0  0  0  0  0
  -21.1080   -6.7970   23.7640 C   0  0  0  0  0  3  0  0  0  0  0  0
  -20.9820   -5.9870   24.9110 C   0  0  0  0  0  3  0  0  0  0  0  0
  -21.3250   -4.6230   24.8530 C   0  0  0  0  0  0  0  0  0  0  0  0
  -21.7960   -4.0660   23.6510 C   0  0  0  0  0  3  0  0  0  0  0  0
  -21.9240   -4.8730   22.5070 C   0  0  0  0  0  0  0  0  0  0  0  0
  -22.3560   -4.3260   21.3450 F   0  0  0  0  0  0  0  0  0  0  0  0
  -21.1980   -3.8430   25.9530 F   0  0  0  0  0  0  0  0  0  0  0  0
  -22.7040  -13.6160   21.0720 C   0  0  0  0  0  0  0  0  0  0  0  0
  -21.9670  -12.9230   21.9320 N   0  0  0  0  0  0  0  0  0  0  0  0
  -22.2690  -14.6320   20.5330 O   0  0  0  0  0  0  0  0  0  0  0  0
  -22.3350  -12.1030   22.3960 H   0  0  0  0  0  0  0  0  0  0  0  0
  -21.0220  -13.2160   22.1350 H   0  0  0  0  0  0  0  0  0  0  0  0
  -25.3330  -15.3020   20.3060 N   0  0  0  0  0  0  0  0  0  0  0  0
  -24.5660  -15.9560   20.4180 H   0  0  0  0  0  0  0  0  0  0  0  0
  -26.2010  -15.7520   20.0440 H   0  0  0  0  0  0  0  0  0  0  0  0
  -27.9340  -24.1890   20.4990 C   0  0  0  0  0  0  0  0  0  0  0  0
  -26.8210  -23.8010   20.8590 O   0  0  0  0  0  0  0  0  0  0  0  0
  -28.1680  -25.8730   20.3050 O   0  0  0  0  0  0  0  0  0  0  0  0
  -24.6050  -31.9110   23.2440 C   0  0  0  0  0  0  0  0  0  0  0  0
  -27.1640  -26.9870   20.2780 C   0  0  0  0  0  0  0  0  0  0  0  0
  -23.4120  -30.4940   21.6240 C   0  0  0  0  0  3  0  0  0  0  0  0
  -24.8610  -28.8750   20.2190 C   0  0  0  0  0  0  0  0  0  0  0  0
  -25.9800  -30.7030   21.4750 C   0  0  0  0  0  2  0  0  0  0  0  0
  -26.0520  -29.2840   20.8360 C   0  0  0  0  0  0  0  0  0  0  0  0
  -27.1970  -28.3610   20.8420 C   0  0  0  0  0  3  0  0  0  0  0  0
  -25.9370  -26.7340   19.6220 C   0  0  0  0  0  3  0  0  0  0  0  0
  -24.8300  -27.6200   19.5940 C   0  0  0  0  0  3  0  0  0  0  0  0
  -23.6430  -29.7980   20.2560 C   0  0  0  0  0  2  0  0  0  0  0  0
  -24.6880  -31.0650   22.1670 N   0  0  0  0  0  0  0  0  0  0  0  0
  -23.5140  -32.2040   23.7630 O   0  0  0  0  0  0  0  0  0  0  0  0
  -22.7220  -29.5060   22.6010 C   0  0  0  0  0  0  0  0  0  0  0  0
  -21.3930  -29.3300   22.4770 N   0  0  0  0  0  0  0  0  0  0  0  0
  -23.3910  -28.8980   23.4410 O   0  0  0  0  0  0  0  0  0  0  0  0
  -20.9060  -29.8720   21.7770 H   0  0  0  0  0  0  0  0  0  0  0  0
  -18.0210  -28.0900   22.9920 C   0  0  0  0  0  0  0  0  0  0  0  0
  -20.5760  -28.3960   23.2620 C   0  0  0  0  0  3  0  0  0  0  0  0
  -20.7000  -26.9550   22.7140 C   0  0  0  0  0  2  0  0  0  0  0  0
  -19.6080  -26.5970   21.7010 C   0  0  0  0  0  2  0  0  0  0  0  0
  -18.2210  -26.7330   22.3360 C   0  0  0  0  0  2  0  0  0  0  0  0
  -19.1270  -28.8770   23.4110 C   0  0  0  0  0  0  0  0  0  0  0  0
  -18.8840  -30.1430   23.9870 C   0  0  0  0  0  3  0  0  0  0  0  0
  -17.5700  -30.6240   24.1440 C   0  0  0  0  0  3  0  0  0  0  0  0
  -16.4800  -29.8340   23.7380 C   0  0  0  0  0  3  0  0  0  0  0  0
  -16.7070  -28.5690   23.1680 C   0  0  0  0  0  3  0  0  0  0  0  0
  -25.8740  -32.5670   23.8670 C   0  0  0  0  0  3  0  0  0  0  0  0
  -25.5460  -33.9660   24.1950 N   0  0  0  0  0  0  0  0  0  0  0  0
  -25.8560  -35.0270   23.4380 C   0  0  0  0  0  0  0  0  0  0  0  0
  -26.5080  -34.9310   22.3950 O   0  0  0  0  0  0  0  0  0  0  0  0
  -24.9630  -34.1120   25.0070 H   0  0  0  0  0  0  0  0  0  0  0  0
  -24.1030  -36.8100   23.1280 C   0  0  0  0  0  1  0  0  0  0  0  0
  -25.3680  -36.4130   23.9080 C   0  0  0  0  0  3  0  0  0  0  0  0
  -27.5110  -37.3230   24.6910 C   0  0  0  0  0  1  0  0  0  0  0  0
  -26.3870  -37.4760   23.7710 N   0  0  0  0  0  0  0  0  0  0  0  0
  -25.9750  -38.3920   23.9210 H   0  0  0  0  0  0  0  0  0  0  0  0
  -26.3890  -31.8150   25.1560 C   0  0  1  0  0  0  0  0  0  0  0  0
  -25.2930  -31.5880   26.2250 C   0  0  0  0  0  1  0  0  0  0  0  0
  -26.9800  -30.4340   24.7930 C   0  0  0  0  0  1  0  0  0  0  0  0
  -27.5330  -32.6240   25.8110 C   0  0  0  0  0  1  0  0  0  0  0  0
  2  4  2  0
  2 48  1  0
  2  1  1  0
  3  5  2  0
  4  3  1  0
  6  4  1  0
  8 13  1  0
  9 10  1  0
  9  8  1  0
 11 10  1  0
 11 23  1  0
 11 12  1  0
 13  7  1  0
 13 12  1  0
 14  7  2  0
 15 16  1  0
 15 17  1  0
 16 18  1  0
 17 19  1  0
 18  3  1  0
 19 18  1  0
 19  7  1  0
 20 21  2  0
 21 40  1  0
 22 21  1  0
 22 25  1  0
 23 20  1  0
 23 24  1  0
 24 22  2  0
 25 26  1  0
 26 27  2  0
 28 31  1  0
 28 27  1  0
 29 28  2  0
 30 29  1  0
 30 25  2  0
 31 32  1  0
 32 33  1  0
 33 34  2  0
 35 34  1  0
 35 39  1  0
 36 35  2  0
 37 32  2  0
 37 36  1  0
 38 37  1  0
 40 41  1  0
 41 44  1  0
 41 43  1  0
 42 40  2  0
 45 46  1  0
 45 20  1  0
 47 45  1  0
 48 49  2  0
 50 48  1  0
 51 62  2  0
 52 50  1  0
 52 57  1  0
 53 61  1  0
 53 63  1  0
 54 60  1  0
 54 56  1  0
 55 61  1  0
 56 57  2  0
 56 55  1  0
 58 52  2  0
 59 58  1  0
 59 54  2  0
 60 53  1  0
 61 51  1  0
 63 65  2  0
 64 63  1  0
 66 64  1  0
 67 76  2  0
 67 72  1  0
 68 64  1  0
 68 72  1  0
 69 68  1  0
 70 71  1  0
 70 69  1  0
 71 67  1  0
 72 73  2  0
 73 74  1  0
 75 74  2  0
 76 75  1  0
 77 51  1  0
 77 78  1  0
 77 87  1  0
 78 81  1  0
 79 83  1  0
 79 78  1  0
 80 79  2  0
 83 82  1  0
 85 83  1  0
 85 86  1  0
 85 84  1  0
 87 90  1  1
 87 88  1  0
 89 87  1  0
M  ISO  4   7 100  19 100  48 101  50 101
M  END
>  <TORSDO>  (44) 
F 18

>  <SCORE>  (44) 
-16.241

>  <name>  (44) 
44

>  <ligand_id>  (44) 
44

>  <original_smiles>  (44) 
[H]c1c([H])c([H])c2c(c1[H])C([H])([H])C([H])([H])C([H])([H])C2([H])N([H])C(=O)C1([H])N(C(=O)C([H])(N([H])C(=O)C([H])(N([H])C([H])([H])[H])C([H])([H])[H])C(C([H])([H])[H])(C([H])([H])[H])C([H])([H])[H])C([H])([H])c2c([H])c(OC(=O)C([H])(N([H])C(=O)C3([H])N(C(=O)N4C([H])([H])C([H])([H])C([H])([H])C([H])(n5nc(-c6c([H])c([H])c(Oc7c([H])c([H])c(F)c([H])c7F)c([H])c6[H])c(C(=O)N([H])[H])c5N([H])[H])C4([H])[H])C([H])([H])C([H])([H])C3([H])[H])C([H])([H])[H])c([H])c([H])c2C1([H])[H]

>  <smiles>  (44) 
[H]c1c([H])c([H])c2c(c1[H])C([H])([H])C([H])([H])C([H])([H])C2([H])N([H])C(=O)C1([H])N(C(=O)C([H])(N([H])C(=O)C([H])(N([H])C([H])([H])[H])C([H])([H])[H])C(C([H])([H])[H])(C([H])([H])[H])C([H])([H])[H])C([H])([H])c2c([H])c(OC(=O)C([H])(N([H])C(=O)C3([H])N(C(=O)N4C([H])([H])C([H])([H])C([H])([H])C([H])(n5nc(-c6c([H])c([H])c(Oc7c([H])c([H])c(F)c([H])c7F)c([H])c6[H])c(C(=O)N([H])[H])c5N([H])[H])C4([H])[H])C([H])([H])C([H])([H])C3([H])[H])C([H])([H])[H])c([H])c([H])c2C1([H])[H]

$$$$
45:0:0
     RDKit          3D

 87 94  0  0  1  0  0  0  0  0999 V2000
  -29.1130  -22.7980   20.1480 O   0  0  0  0  0  0  0  0  0  0  0  0
  -29.2650  -24.1800   20.5710 C   0  0  0  0  0  2  0  0  0  0  0  0
  -28.1950  -25.1410   19.9510 C   0  0  0  0  0  2  0  0  0  0  0  0
  -28.3440  -26.5690   20.2300 O   0  0  0  0  0  0  0  0  0  0  0  0
  -24.6030  -31.8820   23.2540 C   0  0  0  0  0  0  0  0  0  0  0  0
  -27.2030  -27.3700   20.1730 C   0  0  0  0  0  0  0  0  0  0  0  0
  -23.3880  -30.4910   21.6140 C   0  0  0  0  0  3  0  0  0  0  0  0
  -24.8290  -28.9470   20.1790 C   0  0  0  0  0  0  0  0  0  0  0  0
  -25.9230  -30.8160   21.4190 C   0  0  0  0  0  2  0  0  0  0  0  0
  -25.9960  -29.4430   20.7740 C   0  0  0  0  0  0  0  0  0  0  0  0
  -27.1840  -28.6630   20.7670 C   0  0  0  0  0  3  0  0  0  0  0  0
  -26.0140  -26.9200   19.5460 C   0  0  0  0  0  3  0  0  0  0  0  0
  -24.8370  -27.6890   19.5590 C   0  0  0  0  0  3  0  0  0  0  0  0
  -23.5920  -29.8180   20.2320 C   0  0  0  0  0  2  0  0  0  0  0  0
  -24.6560  -31.0790   22.1530 N   0  0  0  0  0  0  0  0  0  0  0  0
  -23.5240  -32.1610   23.7950 O   0  0  0  0  0  0  0  0  0  0  0  0
  -22.7290  -29.4710   22.5730 C   0  0  0  0  0  0  0  0  0  0  0  0
  -21.4040  -29.2960   22.4460 N   0  0  0  0  0  0  0  0  0  0  0  0
  -23.4090  -28.8420   23.3890 O   0  0  0  0  0  0  0  0  0  0  0  0
  -20.9160  -29.8550   21.7610 H   0  0  0  0  0  0  0  0  0  0  0  0
  -18.0240  -28.1080   22.9390 C   0  0  0  0  0  0  0  0  0  0  0  0
  -20.5820  -28.3620   23.2170 C   0  0  0  0  0  3  0  0  0  0  0  0
  -20.6820  -26.9290   22.6440 C   0  0  0  0  0  2  0  0  0  0  0  0
  -19.5830  -26.6070   21.6270 C   0  0  0  0  0  2  0  0  0  0  0  0
  -18.2000  -26.7570   22.2670 C   0  0  0  0  0  2  0  0  0  0  0  0
  -19.1430  -28.8680   23.3700 C   0  0  0  0  0  0  0  0  0  0  0  0
  -18.9250  -30.1340   23.9590 C   0  0  0  0  0  3  0  0  0  0  0  0
  -17.6220  -30.6390   24.1180 C   0  0  0  0  0  3  0  0  0  0  0  0
  -16.5170  -29.8760   23.7040 C   0  0  0  0  0  3  0  0  0  0  0  0
  -16.7190  -28.6120   23.1200 C   0  0  0  0  0  3  0  0  0  0  0  0
  -25.8930  -32.5060   23.8720 C   0  0  0  0  0  3  0  0  0  0  0  0
  -26.4080  -31.7310   25.1470 C   0  0  1  0  0  0  0  0  0  0  0  0
  -25.3180  -31.5010   26.2190 C   0  0  0  0  0  1  0  0  0  0  0  0
  -26.9820  -30.3500   24.7520 C   0  0  0  0  0  1  0  0  0  0  0  0
  -27.5640  -32.5190   25.8080 C   0  0  0  0  0  1  0  0  0  0  0  0
  -25.5920  -33.9060   24.2030 N   0  0  0  0  0  0  0  0  0  0  0  0
  -25.9250  -34.9570   23.4410 C   0  0  0  0  0  0  0  0  0  0  0  0
  -26.5890  -34.8480   22.4060 O   0  0  0  0  0  0  0  0  0  0  0  0
  -25.0030  -34.0650   25.0080 H   0  0  0  0  0  0  0  0  0  0  0  0
  -24.2020  -36.7560   23.0930 C   0  0  0  0  0  1  0  0  0  0  0  0
  -25.4460  -36.3470   23.8980 C   0  0  0  0  0  3  0  0  0  0  0  0
  -27.5900  -37.2240   24.7140 C   0  0  0  0  0  1  0  0  0  0  0  0
  -26.4820  -37.3950   23.7780 N   0  0  0  0  0  0  0  0  0  0  0  0
  -26.0800  -38.3170   23.9270 H   0  0  0  0  0  0  0  0  0  0  0  0
  -29.8660  -21.8260   20.9130 C   0  0  0  0  0  2  0  0  0  0  0  0
  -29.9940  -20.3890   20.2800 C   0  0  0  0  0  2  0  0  0  0  0  0
  -29.6060  -19.3250   21.1790 O   0  0  0  0  0  0  0  0  0  0  0  0
  -30.3560  -18.0820   21.1900 C   0  0  0  0  0  2  0  0  0  0  0  0
  -29.9920  -17.0260   20.1000 C   0  0  0  0  0  2  0  0  0  0  0  0
  -30.6580  -14.5630   20.1340 C   0  0  0  0  0  0  0  0  0  0  0  0
  -30.3320  -12.3860   19.0110 C   0  0  0  0  0  2  0  0  0  0  0  0
  -29.3420  -12.5990   17.8440 C   0  0  0  0  0  2  0  0  0  0  0  0
  -27.8850  -12.4670   18.3310 C   0  0  0  0  0  2  0  0  0  0  0  0
  -27.6040  -13.2910   19.6150 C   0  0  0  0  0  3  0  0  0  0  0  0
  -28.7030  -13.0590   20.6790 C   0  0  0  0  0  2  0  0  0  0  0  0
  -30.0040  -13.3660   20.0610 N   0  0  0  0  0  0  0  0  0  0  0  0
  -31.7760  -14.7380   19.6440 O   0  0  0  0  0  0  0  0  0  0  0  0
  -29.9110  -15.6090   20.5580 N   0  0  0  0  0  0  0  0  0  0  0  0
  -29.0360  -15.3490   20.9880 H   0  0  0  0  0  0  0  0  0  0  0  0
  -25.2410  -13.9170   20.4180 C   0  0  0  0  0  0  0  0  0  0  0  0
  -24.1800  -13.1550   20.8240 C   0  0  0  0  0  0  0  0  0  0  0  0
  -24.6260  -11.7980   20.7700 C   0  0  0  0  0  0  0  0  0  0  0  0
  -26.2680  -13.0270   20.1440 N   0  0  0  0  0  0  0  0  0  0  0  0
  -25.9040  -11.7470   20.4140 N   0  0  0  0  0  0  0  0  0  0  0  0
  -23.8950  -10.5420   20.9820 C   0  0  0  0  0  0  0  0  0  0  0  0
  -24.3570   -9.5630   21.8880 C   0  0  0  0  0  3  0  0  0  0  0  0
  -23.6260   -8.3710   22.0880 C   0  0  0  0  0  3  0  0  0  0  0  0
  -22.4190   -8.1520   21.3830 C   0  0  0  0  0  0  0  0  0  0  0  0
  -21.9750   -9.1210   20.4660 C   0  0  0  0  0  3  0  0  0  0  0  0
  -22.7060  -10.3040   20.2640 C   0  0  0  0  0  3  0  0  0  0  0  0
  -21.6570   -7.0150   21.4950 O   0  0  0  0  0  0  0  0  0  0  0  0
  -21.6560   -6.2580   22.6390 C   0  0  0  0  0  0  0  0  0  0  0  0
  -21.3040   -6.8040   23.8930 C   0  0  0  0  0  3  0  0  0  0  0  0
  -21.2500   -5.9740   25.0310 C   0  0  0  0  0  3  0  0  0  0  0  0
  -21.5350   -4.6010   24.9170 C   0  0  0  0  0  0  0  0  0  0  0  0
  -21.8800   -4.0550   23.6680 C   0  0  0  0  0  3  0  0  0  0  0  0
  -21.9370   -4.8820   22.5310 C   0  0  0  0  0  0  0  0  0  0  0  0
  -22.2490   -4.3460   21.3260 F   0  0  0  0  0  0  0  0  0  0  0  0
  -21.4760   -3.8020   26.0080 F   0  0  0  0  0  0  0  0  0  0  0  0
  -22.7990  -13.6450   21.1510 C   0  0  0  0  0  0  0  0  0  0  0  0
  -22.0980  -12.9520   22.0420 N   0  0  0  0  0  0  0  0  0  0  0  0
  -22.3520  -14.6760   20.6520 O   0  0  0  0  0  0  0  0  0  0  0  0
  -22.4730  -12.1180   22.4680 H   0  0  0  0  0  0  0  0  0  0  0  0
  -21.1730  -13.2630   22.3040 H   0  0  0  0  0  0  0  0  0  0  0  0
  -25.4140  -15.2870   20.2390 N   0  0  0  0  0  0  0  0  0  0  0  0
  -24.6560  -15.9470   20.3780 H   0  0  0  0  0  0  0  0  0  0  0  0
  -26.2510  -15.7180   19.8670 H   0  0  0  0  0  0  0  0  0  0  0  0
  1  2  1  0
  1 45  1  0
  3  4  1  0
  3  2  1  0
  5 16  2  0
  6  4  1  0
  6 11  1  0
  7 15  1  0
  7 17  1  0
  8 14  1  0
  8 10  1  0
  9 15  1  0
 10  9  1  0
 11 10  2  0
 12 13  1  0
 12  6  2  0
 13  8  2  0
 14  7  1  0
 15  5  1  0
 17 19  2  0
 18 17  1  0
 20 18  1  0
 21 30  2  0
 21 26  1  0
 22 18  1  0
 22 26  1  0
 23 22  1  0
 24 25  1  0
 24 23  1  0
 25 21  1  0
 26 27  2  0
 27 28  1  0
 29 28  2  0
 30 29  1  0
 31  5  1  0
 31 36  1  0
 31 32  1  0
 32 35  1  1
 32 33  1  0
 34 32  1  0
 36 39  1  0
 37 41  1  0
 37 36  1  0
 38 37  2  0
 41 40  1  0
 43 41  1  0
 43 44  1  0
 43 42  1  0
 46 45  1  0
 46 47  1  0
 47 48  1  0
 49 58  1  0
 49 48  1  0
 50 58  1  0
 51 56  1  0
 52 53  1  0
 52 51  1  0
 54 53  1  0
 54 63  1  0
 54 55  1  0
 56 50  1  0
 56 55  1  0
 57 50  2  0
 58 59  1  0
 60 61  2  0
 61 80  1  0
 62 61  1  0
 62 65  1  0
 63 64  1  0
 63 60  1  0
 64 62  2  0
 65 66  1  0
 66 67  2  0
 68 71  1  0
 68 67  1  0
 69 68  2  0
 70 69  1  0
 70 65  2  0
 71 72  1  0
 72 73  1  0
 73 74  2  0
 75 74  1  0
 75 79  1  0
 76 75  2  0
 77 72  2  0
 77 76  1  0
 78 77  1  0
 80 81  1  0
 81 84  1  0
 81 83  1  0
 82 80  2  0
 85 86  1  0
 85 60  1  0
 87 85  1  0
M  ISO  4   3 101   4 101  50 100  58 100
M  END
>  <TORSDO>  (45) 
F 23

>  <SCORE>  (45) 
-12.462

>  <name>  (45) 
45

>  <ligand_id>  (45) 
45

>  <original_smiles>  (45) 
[H]c1c([H])c([H])c2c(c1[H])C([H])([H])C([H])([H])C([H])([H])C2([H])N([H])C(=O)C1([H])N(C(=O)C([H])(N([H])C(=O)C([H])(N([H])C([H])([H])[H])C([H])([H])[H])C(C([H])([H])[H])(C([H])([H])[H])C([H])([H])[H])C([H])([H])c2c([H])c(OC([H])([H])C([H])([H])OC([H])([H])C([H])([H])OC([H])([H])C([H])([H])N([H])C(=O)N3C([H])([H])C([H])([H])C([H])([H])C([H])(n4nc(-c5c([H])c([H])c(Oc6c([H])c([H])c(F)c([H])c6F)c([H])c5[H])c(C(=O)N([H])[H])c4N([H])[H])C3([H])[H])c([H])c([H])c2C1([H])[H]

>  <smiles>  (45) 
[H]c1c([H])c([H])c2c(c1[H])C([H])([H])C([H])([H])C([H])([H])C2([H])N([H])C(=O)C1([H])N(C(=O)C([H])(N([H])C(=O)C([H])(N([H])C([H])([H])[H])C([H])([H])[H])C(C([H])([H])[H])(C([H])([H])[H])C([H])([H])[H])C([H])([H])c2c([H])c(OC([H])([H])C([H])([H])OC([H])([H])C([H])([H])OC([H])([H])C([H])([H])N([H])C(=O)N3C([H])([H])C([H])([H])C([H])([H])C([H])(n4nc(-c5c([H])c([H])c(Oc6c([H])c([H])c(F)c([H])c6F)c([H])c5[H])c(C(=O)N([H])[H])c4N([H])[H])C3([H])[H])c([H])c([H])c2C1([H])[H]

$$$$
46:0:0
     RDKit          3D

 94101  0  0  1  0  0  0  0  0999 V2000
  -29.0920  -20.9330   19.4370 C   0  0  0  0  0  0  0  0  0  0  0  0
  -28.4760  -20.2320   20.3980 N   0  0  0  0  0  0  0  0  0  0  0  0
  -29.8610  -20.4310   18.6170 O   0  0  0  0  0  0  0  0  0  0  0  0
  -27.8700  -20.7530   21.0170 H   0  0  0  0  0  0  0  0  0  0  0  0
  -28.5170  -18.7830   20.6110 C   0  0  0  0  0  2  0  0  0  0  0  0
  -29.9080  -18.1620   20.4080 C   0  0  0  0  0  2  0  0  0  0  0  0
  -30.8900  -19.1850   20.4940 O   0  0  0  0  0  0  0  0  0  0  0  0
  -32.1780  -18.7180   20.8770 C   0  0  0  0  0  2  0  0  0  0  0  0
  -32.8340  -17.8980   19.7510 C   0  0  0  0  0  2  0  0  0  0  0  0
  -32.7460  -16.5050   20.0440 O   0  0  0  0  0  0  0  0  0  0  0  0
  -33.6930  -15.7070   19.3400 C   0  0  0  0  0  2  0  0  0  0  0  0
  -34.4580  -14.8300   20.3380 C   0  0  0  0  0  2  0  0  0  0  0  0
  -33.6810  -13.7170   20.7670 O   0  0  0  0  0  0  0  0  0  0  0  0
  -34.0550  -12.4550   20.4840 C   0  0  0  0  0  0  0  0  0  0  0  0
  -33.3230  -10.0990   20.8490 C   0  0  0  0  0  2  0  0  0  0  0  0
  -32.4400   -9.5740   19.7070 C   0  0  0  0  0  2  0  0  0  0  0  0
  -30.9650   -9.9610   19.9310 C   0  0  0  0  0  2  0  0  0  0  0  0
  -30.7800  -11.4660   20.2680 C   0  0  0  0  0  3  0  0  0  0  0  0
  -31.7460  -11.8970   21.3910 C   0  0  0  0  0  2  0  0  0  0  0  0
  -33.1100  -11.5430   20.9640 N   0  0  0  0  0  0  0  0  0  0  0  0
  -35.1180  -12.1550   19.9300 O   0  0  0  0  0  0  0  0  0  0  0  0
  -28.7600  -12.9970   20.7270 C   0  0  0  0  0  0  0  0  0  0  0  0
  -27.4470  -12.7180   20.9980 C   0  0  0  0  0  0  0  0  0  0  0  0
  -27.3410  -11.2930   21.0220 C   0  0  0  0  0  0  0  0  0  0  0  0
  -29.3930  -11.7680   20.6100 N   0  0  0  0  0  0  0  0  0  0  0  0
  -28.5340  -10.7410   20.8380 N   0  0  0  0  0  0  0  0  0  0  0  0
  -26.1660  -10.4220   21.1490 C   0  0  0  0  0  0  0  0  0  0  0  0
  -26.0970   -9.4150   22.1370 C   0  0  0  0  0  3  0  0  0  0  0  0
  -24.9490   -8.6010   22.2510 C   0  0  0  0  0  3  0  0  0  0  0  0
  -23.8540   -8.7920   21.3760 C   0  0  0  0  0  0  0  0  0  0  0  0
  -23.9380   -9.7820   20.3790 C   0  0  0  0  0  3  0  0  0  0  0  0
  -25.0830  -10.5860   20.2640 C   0  0  0  0  0  3  0  0  0  0  0  0
  -22.7080   -8.0340   21.3970 O   0  0  0  0  0  0  0  0  0  0  0  0
  -22.2770   -7.4140   22.5410 C   0  0  0  0  0  0  0  0  0  0  0  0
  -21.9440   -8.1420   23.7050 C   0  0  0  0  0  3  0  0  0  0  0  0
  -21.4390   -7.4680   24.8350 C   0  0  0  0  0  3  0  0  0  0  0  0
  -21.2580   -6.0720   24.8020 C   0  0  0  0  0  0  0  0  0  0  0  0
  -21.5860   -5.3470   23.6440 C   0  0  0  0  0  3  0  0  0  0  0  0
  -22.0910   -6.0170   22.5150 C   0  0  0  0  0  0  0  0  0  0  0  0
  -22.3840   -5.3170   21.3930 F   0  0  0  0  0  0  0  0  0  0  0  0
  -20.7670   -5.4250   25.8850 F   0  0  0  0  0  0  0  0  0  0  0  0
  -26.3280  -13.7120   21.1350 C   0  0  0  0  0  0  0  0  0  0  0  0
  -25.3370  -13.4130   21.9650 N   0  0  0  0  0  0  0  0  0  0  0  0
  -26.3530  -14.7860   20.5350 O   0  0  0  0  0  0  0  0  0  0  0  0
  -25.3230  -12.5420   22.4750 H   0  0  0  0  0  0  0  0  0  0  0  0
  -24.5780  -14.0670   22.0980 H   0  0  0  0  0  0  0  0  0  0  0  0
  -29.4650  -14.1850   20.5510 N   0  0  0  0  0  0  0  0  0  0  0  0
  -29.0120  -15.0910   20.5580 H   0  0  0  0  0  0  0  0  0  0  0  0
  -30.4450  -14.2330   20.3030 H   0  0  0  0  0  0  0  0  0  0  0  0
  -28.7470  -22.4210   19.3540 C   0  0  0  0  0  2  0  0  0  0  0  0
  -29.5820  -23.2950   20.3180 C   0  0  0  0  0  2  0  0  0  0  0  0
  -29.7050  -24.7770   19.8940 C   0  0  0  0  0  2  0  0  0  0  0  0
  -28.3420  -25.4690   19.7400 C   0  0  0  0  0  2  0  0  0  0  0  0
  -28.4470  -26.8920   19.6540 O   0  0  0  0  0  0  0  0  0  0  0  0
  -24.6110  -31.7470   23.1430 C   0  0  0  0  0  0  0  0  0  0  0  0
  -27.2500  -27.5800   19.7060 C   0  0  0  0  0  0  0  0  0  0  0  0
  -23.3780  -30.4060   21.4710 C   0  0  0  0  0  3  0  0  0  0  0  0
  -24.8120  -29.0050   19.9000 C   0  0  0  0  0  0  0  0  0  0  0  0
  -25.8820  -30.8550   21.1950 C   0  0  0  0  0  2  0  0  0  0  0  0
  -25.9790  -29.5290   20.4710 C   0  0  0  0  0  0  0  0  0  0  0  0
  -27.2010  -28.8260   20.3670 C   0  0  0  0  0  3  0  0  0  0  0  0
  -26.0620  -27.0710   19.1270 C   0  0  0  0  0  3  0  0  0  0  0  0
  -24.8490  -27.7740   19.2250 C   0  0  0  0  0  3  0  0  0  0  0  0
  -23.5470  -29.8190   20.0460 C   0  0  0  0  0  2  0  0  0  0  0  0
  -24.6450  -31.0140   21.9940 N   0  0  0  0  0  0  0  0  0  0  0  0
  -23.5450  -31.9530   23.7400 O   0  0  0  0  0  0  0  0  0  0  0  0
  -22.7980  -29.3090   22.3920 C   0  0  0  0  0  0  0  0  0  0  0  0
  -21.4890  -29.0460   22.2560 N   0  0  0  0  0  0  0  0  0  0  0  0
  -23.5230  -28.6980   23.1840 O   0  0  0  0  0  0  0  0  0  0  0  0
  -20.9610  -29.5960   21.5920 H   0  0  0  0  0  0  0  0  0  0  0  0
  -18.2160  -27.5650   22.6410 C   0  0  0  0  0  0  0  0  0  0  0  0
  -20.7340  -28.0340   22.9930 C   0  0  0  0  0  3  0  0  0  0  0  0
  -20.9740  -26.6240   22.4050 C   0  0  0  0  0  2  0  0  0  0  0  0
  -19.9330  -26.2230   21.3540 C   0  0  0  0  0  2  0  0  0  0  0  0
  -18.5250  -26.2430   21.9570 C   0  0  0  0  0  2  0  0  0  0  0  0
  -19.2530  -28.4120   23.1140 C   0  0  0  0  0  0  0  0  0  0  0  0
  -18.9120  -29.6450   23.7110 C   0  0  0  0  0  3  0  0  0  0  0  0
  -17.5660  -30.0330   23.8420 C   0  0  0  0  0  3  0  0  0  0  0  0
  -16.5420  -29.1830   23.3880 C   0  0  0  0  0  3  0  0  0  0  0  0
  -16.8680  -27.9520   22.7920 C   0  0  0  0  0  3  0  0  0  0  0  0
  -25.9030  -32.3790   23.7470 C   0  0  0  0  0  3  0  0  0  0  0  0
  -25.5790  -33.7590   24.1340 N   0  0  0  0  0  0  0  0  0  0  0  0
  -25.9430  -34.8470   23.4430 C   0  0  0  0  0  0  0  0  0  0  0  0
  -26.6560  -34.7960   22.4380 O   0  0  0  0  0  0  0  0  0  0  0  0
  -24.9500  -33.8730   24.9160 H   0  0  0  0  0  0  0  0  0  0  0  0
  -24.2460  -36.6690   23.0850 C   0  0  0  0  0  1  0  0  0  0  0  0
  -25.4320  -36.2100   23.9480 C   0  0  0  0  0  3  0  0  0  0  0  0
  -27.5180  -37.0240   24.9550 C   0  0  0  0  0  1  0  0  0  0  0  0
  -26.4740  -37.2600   23.9610 N   0  0  0  0  0  0  0  0  0  0  0  0
  -26.0630  -38.1730   24.1430 H   0  0  0  0  0  0  0  0  0  0  0  0
  -26.4730  -31.5720   24.9780 C   0  0  1  0  0  0  0  0  0  0  0  0
  -25.4180  -31.2760   26.0690 C   0  0  0  0  0  1  0  0  0  0  0  0
  -27.0660  -30.2210   24.5150 C   0  0  0  0  0  1  0  0  0  0  0  0
  -27.6300  -32.3630   25.6330 C   0  0  0  0  0  1  0  0  0  0  0  0
  1  2  1  0
  2  5  1  0
  2  4  1  0
  3  1  2  0
  6  7  1  0
  6  5  1  0
  7  8  1  0
  9 10  1  0
  9  8  1  0
 11 10  1  0
 11 12  1  0
 12 13  1  0
 14 13  1  0
 14 20  1  0
 15 20  1  0
 16 17  1  0
 16 15  1  0
 18 17  1  0
 18 25  1  0
 18 19  1  0
 20 19  1  0
 21 14  2  0
 22 23  2  0
 23 24  1  0
 23 42  1  0
 24 27  1  0
 25 22  1  0
 25 26  1  0
 26 24  2  0
 27 28  1  0
 28 29  2  0
 30 33  1  0
 30 29  1  0
 31 30  2  0
 32 31  1  0
 32 27  2  0
 33 34  1  0
 34 35  1  0
 35 36  2  0
 37 36  1  0
 37 41  1  0
 38 37  2  0
 39 34  2  0
 39 38  1  0
 40 39  1  0
 42 43  1  0
 43 46  1  0
 43 45  1  0
 44 42  2  0
 47 48  1  0
 47 22  1  0
 49 47  1  0
 50  1  1  0
 50 51  1  0
 52 51  1  0
 53 52  1  0
 54 56  1  0
 54 53  1  0
 55 66  2  0
 56 61  1  0
 57 65  1  0
 57 67  1  0
 58 64  1  0
 58 60  1  0
 59 65  1  0
 60 59  1  0
 61 60  2  0
 62 63  1  0
 62 56  2  0
 63 58  2  0
 64 57  1  0
 65 55  1  0
 67 69  2  0
 68 67  1  0
 70 68  1  0
 71 80  2  0
 71 76  1  0
 72 68  1  0
 72 76  1  0
 73 72  1  0
 74 75  1  0
 74 73  1  0
 75 71  1  0
 76 77  2  0
 77 78  1  0
 79 78  2  0
 80 79  1  0
 81 55  1  0
 81 82  1  0
 81 91  1  0
 82 85  1  0
 83 87  1  0
 83 82  1  0
 84 83  2  0
 87 86  1  0
 87 89  1  0
 89 90  1  0
 89 88  1  0
 91 94  1  1
 91 92  1  0
 93 91  1  0
M  ISO  4  13 100  14 100  53 101  54 101
M  END
>  <TORSDO>  (46) 
F 29

>  <SCORE>  (46) 
-8.474

>  <name>  (46) 
46

>  <ligand_id>  (46) 
46

>  <original_smiles>  (46) 
[H]c1c([H])c([H])c2c(c1[H])C([H])([H])C([H])([H])C([H])([H])C2([H])N([H])C(=O)C1([H])N(C(=O)C([H])(N([H])C(=O)C([H])(N([H])C([H])([H])[H])C([H])([H])[H])C(C([H])([H])[H])(C([H])([H])[H])C([H])([H])[H])C([H])([H])c2c([H])c(OC([H])([H])C([H])([H])C([H])([H])C([H])([H])C(=O)N([H])C([H])([H])C([H])([H])OC([H])([H])C([H])([H])OC([H])([H])C([H])([H])OC(=O)N3C([H])([H])C([H])([H])C([H])([H])C([H])(n4nc(-c5c([H])c([H])c(Oc6c([H])c([H])c(F)c([H])c6F)c([H])c5[H])c(C(=O)N([H])[H])c4N([H])[H])C3([H])[H])c([H])c([H])c2C1([H])[H]

>  <smiles>  (46) 
[H]c1c([H])c([H])c2c(c1[H])C([H])([H])C([H])([H])C([H])([H])C2([H])N([H])C(=O)C1([H])N(C(=O)C([H])(N([H])C(=O)C([H])(N([H])C([H])([H])[H])C([H])([H])[H])C(C([H])([H])[H])(C([H])([H])[H])C([H])([H])[H])C([H])([H])c2c([H])c(OC([H])([H])C([H])([H])C([H])([H])C([H])([H])C(=O)N([H])C([H])([H])C([H])([H])OC([H])([H])C([H])([H])OC([H])([H])C([H])([H])OC(=O)N3C([H])([H])C([H])([H])C([H])([H])C([H])(n4nc(-c5c([H])c([H])c(Oc6c([H])c([H])c(F)c([H])c6F)c([H])c5[H])c(C(=O)N([H])[H])c4N([H])[H])C3([H])[H])c([H])c([H])c2C1([H])[H]

$$$$
47:0:0
     RDKit          3D

 93100  0  0  1  0  0  0  0  0999 V2000
  -28.2260  -22.2850   21.2980 C   0  0  0  0  0  0  0  0  0  0  0  0
  -28.4910  -23.2320   20.3860 N   0  0  0  0  0  0  0  0  0  0  0  0
  -27.1810  -21.6390   21.2020 O   0  0  0  0  0  0  0  0  0  0  0  0
  -27.7840  -23.3350   19.6730 H   0  0  0  0  0  0  0  0  0  0  0  0
  -29.5770  -24.2180   20.3430 C   0  0  0  0  0  2  0  0  0  0  0  0
  -29.4080  -25.2420   19.1930 C   0  0  0  0  0  2  0  0  0  0  0  0
  -27.9530  -25.5980   18.8840 C   0  0  0  0  0  2  0  0  0  0  0  0
  -27.8950  -26.8890   18.2840 O   0  0  0  0  0  0  0  0  0  0  0  0
  -24.7060  -31.2060   22.9110 C   0  0  0  0  0  0  0  0  0  0  0  0
  -26.7600  -27.5960   18.5860 C   0  0  0  0  0  0  0  0  0  0  0  0
  -23.2420  -30.1510   21.2200 C   0  0  0  0  0  3  0  0  0  0  0  0
  -24.4280  -29.0080   19.2810 C   0  0  0  0  0  0  0  0  0  0  0  0
  -25.7090  -30.6050   20.7150 C   0  0  0  0  0  2  0  0  0  0  0  0
  -25.6700  -29.4110   19.7920 C   0  0  0  0  0  0  0  0  0  0  0  0
  -26.8430  -28.7130   19.4430 C   0  0  0  0  0  3  0  0  0  0  0  0
  -25.5050  -27.2190   18.0530 C   0  0  0  0  0  3  0  0  0  0  0  0
  -24.3400  -27.9150   18.4050 C   0  0  0  0  0  3  0  0  0  0  0  0
  -23.2170  -29.7970   19.7120 C   0  0  0  0  0  2  0  0  0  0  0  0
  -24.5800  -30.6550   21.6730 N   0  0  0  0  0  0  0  0  0  0  0  0
  -23.7250  -31.3440   23.6550 O   0  0  0  0  0  0  0  0  0  0  0  0
  -22.7320  -28.9390   22.0280 C   0  0  0  0  0  0  0  0  0  0  0  0
  -21.4240  -28.6590   21.9170 N   0  0  0  0  0  0  0  0  0  0  0  0
  -23.5050  -28.2620   22.7090 O   0  0  0  0  0  0  0  0  0  0  0  0
  -20.8500  -29.2610   21.3410 H   0  0  0  0  0  0  0  0  0  0  0  0
  -18.2530  -26.9410   22.1110 C   0  0  0  0  0  0  0  0  0  0  0  0
  -20.7250  -27.5450   22.5540 C   0  0  0  0  0  3  0  0  0  0  0  0
  -21.0750  -26.2060   21.8620 C   0  0  0  0  0  2  0  0  0  0  0  0
  -20.0810  -25.8240   20.7620 C   0  0  0  0  0  2  0  0  0  0  0  0
  -18.6600  -25.7050   21.3270 C   0  0  0  0  0  2  0  0  0  0  0  0
  -19.2240  -27.8170   22.6700 C   0  0  0  0  0  0  0  0  0  0  0  0
  -18.7930  -28.9800   23.3440 C   0  0  0  0  0  3  0  0  0  0  0  0
  -17.4230  -29.2740   23.4640 C   0  0  0  0  0  3  0  0  0  0  0  0
  -16.4660  -28.3930   22.9290 C   0  0  0  0  0  3  0  0  0  0  0  0
  -16.8820  -27.2290   22.2630 C   0  0  0  0  0  3  0  0  0  0  0  0
  -26.0840  -31.7120   23.4420 C   0  0  0  0  0  3  0  0  0  0  0  0
  -26.7600  -30.7150   24.4640 C   0  0  1  0  0  0  0  0  0  0  0  0
  -25.8320  -30.2870   25.6210 C   0  0  0  0  0  1  0  0  0  0  0  0
  -27.2270  -29.4270   23.7430 C   0  0  0  0  0  1  0  0  0  0  0  0
  -28.0150  -31.3710   25.0900 C   0  0  0  0  0  1  0  0  0  0  0  0
  -25.8640  -33.0280   24.0560 N   0  0  0  0  0  0  0  0  0  0  0  0
  -26.2180  -34.1930   23.4980 C   0  0  0  0  0  0  0  0  0  0  0  0
  -26.8410  -34.2690   22.4360 O   0  0  0  0  0  0  0  0  0  0  0  0
  -25.2950  -33.0570   24.8880 H   0  0  0  0  0  0  0  0  0  0  0  0
  -24.6120  -36.1320   23.5520 C   0  0  0  0  0  1  0  0  0  0  0  0
  -25.8210  -35.4830   24.2430 C   0  0  0  0  0  3  0  0  0  0  0  0
  -28.0090  -36.0330   25.2160 C   0  0  0  0  0  1  0  0  0  0  0  0
  -26.9220  -36.4680   24.3420 N   0  0  0  0  0  0  0  0  0  0  0  0
  -26.5730  -37.3580   24.6900 H   0  0  0  0  0  0  0  0  0  0  0  0
  -29.2050  -21.9610   22.4500 C   0  0  0  0  0  2  0  0  0  0  0  0
  -29.9780  -20.7820   22.1800 O   0  0  0  0  0  0  0  0  0  0  0  0
  -30.6860  -20.7760   20.9390 C   0  0  0  0  0  2  0  0  0  0  0  0
  -31.9640  -19.9050   21.0530 C   0  0  0  0  0  2  0  0  0  0  0  0
  -31.7280  -18.5340   21.3990 O   0  0  0  0  0  0  0  0  0  0  0  0
  -31.8270  -17.5820   20.3440 C   0  0  0  0  0  2  0  0  0  0  0  0
  -31.7490  -16.1560   20.9450 C   0  0  0  0  0  2  0  0  0  0  0  0
  -33.1650  -14.0810   20.6270 C   0  0  0  0  0  0  0  0  0  0  0  0
  -32.8110  -11.6470   20.8310 C   0  0  0  0  0  2  0  0  0  0  0  0
  -32.0450  -11.1440   19.5930 C   0  0  0  0  0  2  0  0  0  0  0  0
  -30.5230  -11.2740   19.8050 C   0  0  0  0  0  2  0  0  0  0  0  0
  -30.1120  -12.6790   20.3350 C   0  0  0  0  0  3  0  0  0  0  0  0
  -31.0060  -13.0840   21.5310 C   0  0  0  0  0  2  0  0  0  0  0  0
  -32.4000  -13.0440   21.0720 N   0  0  0  0  0  0  0  0  0  0  0  0
  -34.3390  -13.9440   20.2900 O   0  0  0  0  0  0  0  0  0  0  0  0
  -32.5330  -15.1780   20.1800 N   0  0  0  0  0  0  0  0  0  0  0  0
  -33.1120  -15.6240   19.4820 H   0  0  0  0  0  0  0  0  0  0  0  0
  -27.8570  -13.8160   20.8200 C   0  0  0  0  0  0  0  0  0  0  0  0
  -26.6120  -13.3020   21.0740 C   0  0  0  0  0  0  0  0  0  0  0  0
  -26.7600  -11.8840   21.0600 C   0  0  0  0  0  0  0  0  0  0  0  0
  -28.6940  -12.7210   20.6740 N   0  0  0  0  0  0  0  0  0  0  0  0
  -28.0310  -11.5540   20.8750 N   0  0  0  0  0  0  0  0  0  0  0  0
  -25.7570  -10.8170   21.1630 C   0  0  0  0  0  0  0  0  0  0  0  0
  -25.8980   -9.7550   22.0840 C   0  0  0  0  0  3  0  0  0  0  0  0
  -24.9100   -8.7520   22.1800 C   0  0  0  0  0  3  0  0  0  0  0  0
  -23.7620   -8.8070   21.3540 C   0  0  0  0  0  0  0  0  0  0  0  0
  -23.6410   -9.8500   20.4180 C   0  0  0  0  0  3  0  0  0  0  0  0
  -24.6290  -10.8440   20.3200 C   0  0  0  0  0  3  0  0  0  0  0  0
  -22.7690   -7.8590   21.3520 O   0  0  0  0  0  0  0  0  0  0  0  0
  -22.3530   -7.2480   22.5070 C   0  0  0  0  0  0  0  0  0  0  0  0
  -21.9410   -7.9940   23.6330 C   0  0  0  0  0  3  0  0  0  0  0  0
  -21.4530   -7.3310   24.7770 C   0  0  0  0  0  3  0  0  0  0  0  0
  -21.3730   -5.9260   24.7950 C   0  0  0  0  0  0  0  0  0  0  0  0
  -21.7760   -5.1810   23.6710 C   0  0  0  0  0  3  0  0  0  0  0  0
  -22.2590   -5.8420   22.5280 C   0  0  0  0  0  0  0  0  0  0  0  0
  -22.6280   -5.1230   21.4410 F   0  0  0  0  0  0  0  0  0  0  0  0
  -20.8950   -5.2880   25.8890 F   0  0  0  0  0  0  0  0  0  0  0  0
  -25.3400  -14.0800   21.2300 C   0  0  0  0  0  0  0  0  0  0  0  0
  -24.3860  -13.5360   21.9800 N   0  0  0  0  0  0  0  0  0  0  0  0
  -25.2030  -15.1890   20.7200 O   0  0  0  0  0  0  0  0  0  0  0  0
  -24.5190  -12.6310   22.4110 H   0  0  0  0  0  0  0  0  0  0  0  0
  -23.5070  -14.0170   22.1150 H   0  0  0  0  0  0  0  0  0  0  0  0
  -28.3360  -15.1140   20.6870 N   0  0  0  0  0  0  0  0  0  0  0  0
  -27.7170  -15.9090   20.7720 H   0  0  0  0  0  0  0  0  0  0  0  0
  -29.3010  -15.3710   20.5110 H   0  0  0  0  0  0  0  0  0  0  0  0
  1 49  1  0
  2  1  1  0
  3  1  2  0
  4  2  1  0
  5  2  1  0
  6  5  1  0
  7  6  1  0
  8 10  1  0
  8  7  1  0
  9 20  2  0
 10 15  1  0
 11 19  1  0
 11 21  1  0
 12 18  1  0
 12 14  1  0
 13 19  1  0
 14 13  1  0
 15 14  2  0
 16 17  1  0
 16 10  2  0
 17 12  2  0
 18 11  1  0
 19  9  1  0
 21 23  2  0
 22 21  1  0
 24 22  1  0
 25 34  2  0
 25 30  1  0
 26 22  1  0
 26 30  1  0
 27 26  1  0
 28 29  1  0
 28 27  1  0
 29 25  1  0
 30 31  2  0
 31 32  1  0
 33 32  2  0
 34 33  1  0
 35  9  1  0
 35 40  1  0
 35 36  1  0
 36 39  1  1
 36 37  1  0
 38 36  1  0
 40 43  1  0
 41 40  1  0
 41 45  1  0
 42 41  2  0
 45 44  1  0
 45 47  1  0
 47 48  1  0
 47 46  1  0
 50 49  1  0
 51 52  1  0
 51 50  1  0
 52 53  1  0
 54 55  1  0
 54 53  1  0
 56 62  1  0
 57 62  1  0
 58 59  1  0
 58 57  1  0
 60 59  1  0
 60 69  1  0
 60 61  1  0
 62 61  1  0
 63 56  2  0
 64 56  1  0
 64 55  1  0
 65 64  1  0
 66 67  2  0
 67 86  1  0
 68 67  1  0
 68 71  1  0
 69 66  1  0
 69 70  1  0
 70 68  2  0
 71 72  1  0
 72 73  2  0
 74 73  1  0
 75 74  2  0
 76 75  1  0
 76 71  2  0
 77 74  1  0
 77 78  1  0
 78 83  2  0
 78 79  1  0
 79 80  2  0
 80 81  1  0
 81 85  1  0
 82 81  2  0
 83 82  1  0
 84 83  1  0
 86 87  1  0
 87 90  1  0
 87 89  1  0
 88 86  2  0
 91 92  1  0
 91 66  1  0
 93 91  1  0
M  ISO  4   7 101   8 101  56 100  64 100
M  END
>  <TORSDO>  (47) 
F 26

>  <SCORE>  (47) 
-8.457

>  <name>  (47) 
47

>  <ligand_id>  (47) 
47

>  <original_smiles>  (47) 
[H]c1c([H])c([H])c2c(c1[H])C([H])([H])C([H])([H])C([H])([H])C2([H])N([H])C(=O)C1([H])N(C(=O)C([H])(N([H])C(=O)C([H])(N([H])C([H])([H])[H])C([H])([H])[H])C(C([H])([H])[H])(C([H])([H])[H])C([H])([H])[H])C([H])([H])c2c([H])c(OC([H])([H])C([H])([H])C([H])([H])N([H])C(=O)C([H])([H])OC([H])([H])C([H])([H])OC([H])([H])C([H])([H])N([H])C(=O)N3C([H])([H])C([H])([H])C([H])([H])C([H])(n4nc(-c5c([H])c([H])c(Oc6c([H])c([H])c(F)c([H])c6F)c([H])c5[H])c(C(=O)N([H])[H])c4N([H])[H])C3([H])[H])c([H])c([H])c2C1([H])[H]

>  <smiles>  (47) 
[H]c1c([H])c([H])c2c(c1[H])C([H])([H])C([H])([H])C([H])([H])C2([H])N([H])C(=O)C1([H])N(C(=O)C([H])(N([H])C(=O)C([H])(N([H])C([H])([H])[H])C([H])([H])[H])C(C([H])([H])[H])(C([H])([H])[H])C([H])([H])[H])C([H])([H])c2c([H])c(OC([H])([H])C([H])([H])C([H])([H])N([H])C(=O)C([H])([H])OC([H])([H])C([H])([H])OC([H])([H])C([H])([H])N([H])C(=O)N3C([H])([H])C([H])([H])C([H])([H])C([H])(n4nc(-c5c([H])c([H])c(Oc6c([H])c([H])c(F)c([H])c6F)c([H])c5[H])c(C(=O)N([H])[H])c4N([H])[H])C3([H])[H])c([H])c([H])c2C1([H])[H]

$$$$
48:0:0
     RDKit          3D

 92 99  0  0  1  0  0  0  0  0999 V2000
  -27.8240  -22.5240   21.6380 C   0  0  0  0  0  2  0  0  0  0  0  0
  -28.0590  -24.7330   20.4820 C   0  0  0  0  0  0  0  0  0  0  0  0
  -27.7270  -23.4370   20.5000 N   0  0  0  0  0  0  0  0  0  0  0  0
  -28.5130  -25.3140   21.4720 O   0  0  0  0  0  0  0  0  0  0  0  0
  -27.3860  -23.0400   19.6340 H   0  0  0  0  0  0  0  0  0  0  0  0
  -27.8500  -25.4670   19.1410 C   0  0  0  0  0  2  0  0  0  0  0  0
  -27.8920  -26.8890   19.2900 O   0  0  0  0  0  0  0  0  0  0  0  0
  -24.8060  -31.7120   23.4210 C   0  0  0  0  0  0  0  0  0  0  0  0
  -26.7330  -27.6060   19.5000 C   0  0  0  0  0  0  0  0  0  0  0  0
  -23.3040  -30.6220   21.7830 C   0  0  0  0  0  3  0  0  0  0  0  0
  -24.4560  -29.2030   20.0010 C   0  0  0  0  0  0  0  0  0  0  0  0
  -25.8000  -30.8690   21.2990 C   0  0  0  0  0  2  0  0  0  0  0  0
  -25.7060  -29.5900   20.4960 C   0  0  0  0  0  0  0  0  0  0  0  0
  -26.8440  -28.7990   20.2420 C   0  0  0  0  0  3  0  0  0  0  0  0
  -25.4640  -27.2230   19.0040 C   0  0  0  0  0  3  0  0  0  0  0  0
  -24.3270  -28.0180   19.2550 C   0  0  0  0  0  3  0  0  0  0  0  0
  -23.2920  -30.1160   20.3120 C   0  0  0  0  0  2  0  0  0  0  0  0
  -24.6630  -31.0740   22.2250 N   0  0  0  0  0  0  0  0  0  0  0  0
  -23.8240  -31.9710   24.1310 O   0  0  0  0  0  0  0  0  0  0  0  0
  -22.6990  -29.5240   22.6850 C   0  0  0  0  0  0  0  0  0  0  0  0
  -21.3740  -29.3290   22.5850 N   0  0  0  0  0  0  0  0  0  0  0  0
  -23.4150  -28.8500   23.4290 O   0  0  0  0  0  0  0  0  0  0  0  0
  -20.8530  -29.9240   21.9540 H   0  0  0  0  0  0  0  0  0  0  0  0
  -18.0750  -27.9010   22.9180 C   0  0  0  0  0  0  0  0  0  0  0  0
  -20.5960  -28.3230   23.3040 C   0  0  0  0  0  3  0  0  0  0  0  0
  -20.8210  -26.9160   22.7040 C   0  0  0  0  0  2  0  0  0  0  0  0
  -19.7850  -26.5440   21.6390 C   0  0  0  0  0  2  0  0  0  0  0  0
  -18.3710  -26.5810   22.2250 C   0  0  0  0  0  2  0  0  0  0  0  0
  -19.1210  -28.7250   23.4110 C   0  0  0  0  0  0  0  0  0  0  0  0
  -18.7920  -29.9590   24.0130 C   0  0  0  0  0  3  0  0  0  0  0  0
  -17.4500  -30.3680   24.1330 C   0  0  0  0  0  3  0  0  0  0  0  0
  -16.4190  -29.5400   23.6580 C   0  0  0  0  0  3  0  0  0  0  0  0
  -16.7320  -28.3080   23.0550 C   0  0  0  0  0  3  0  0  0  0  0  0
  -26.2040  -32.1680   23.9460 C   0  0  0  0  0  3  0  0  0  0  0  0
  -26.7640  -31.2550   25.1050 C   0  0  1  0  0  0  0  0  0  0  0  0
  -25.7690  -31.0560   26.2720 C   0  0  0  0  0  1  0  0  0  0  0  0
  -27.1420  -29.8560   24.5620 C   0  0  0  0  0  1  0  0  0  0  0  0
  -28.0570  -31.8740   25.6870 C   0  0  0  0  0  1  0  0  0  0  0  0
  -26.0770  -33.5610   24.3920 N   0  0  0  0  0  0  0  0  0  0  0  0
  -26.5160  -34.6240   23.7060 C   0  0  0  0  0  0  0  0  0  0  0  0
  -27.1460  -34.5250   22.6500 O   0  0  0  0  0  0  0  0  0  0  0  0
  -25.5210  -33.7210   25.2200 H   0  0  0  0  0  0  0  0  0  0  0  0
  -25.0330  -36.6460   23.5220 C   0  0  0  0  0  1  0  0  0  0  0  0
  -26.2110  -36.0180   24.2840 C   0  0  0  0  0  3  0  0  0  0  0  0
  -28.4420  -36.5510   25.1600 C   0  0  0  0  0  1  0  0  0  0  0  0
  -27.3670  -36.9390   24.2500 N   0  0  0  0  0  0  0  0  0  0  0  0
  -27.0810  -37.8850   24.4840 H   0  0  0  0  0  0  0  0  0  0  0  0
  -29.2160  -21.8640   21.7260 C   0  0  0  0  0  2  0  0  0  0  0  0
  -29.0840  -20.4470   21.8100 O   0  0  0  0  0  0  0  0  0  0  0  0
  -30.3270  -19.7630   21.6580 C   0  0  0  0  0  2  0  0  0  0  0  0
  -30.2610  -18.3520   22.2770 C   0  0  0  0  0  2  0  0  0  0  0  0
  -30.7820  -17.3710   21.3830 O   0  0  0  0  0  0  0  0  0  0  0  0
  -30.6380  -16.0520   21.9010 C   0  0  0  0  0  2  0  0  0  0  0  0
  -31.7180  -15.1280   21.3170 C   0  0  0  0  0  2  0  0  0  0  0  0
  -31.8350  -13.7820   19.2780 C   0  0  0  0  0  0  0  0  0  0  0  0
  -31.2580  -11.4510   18.7100 C   0  0  0  0  0  2  0  0  0  0  0  0
  -30.2150  -11.3830   17.5780 C   0  0  0  0  0  2  0  0  0  0  0  0
  -28.7870  -11.4690   18.1470 C   0  0  0  0  0  2  0  0  0  0  0  0
  -28.6100  -12.6400   19.1470 C   0  0  0  0  0  3  0  0  0  0  0  0
  -29.7530  -12.6630   20.1850 C   0  0  0  0  0  2  0  0  0  0  0  0
  -31.0450  -12.6920   19.4740 N   0  0  0  0  0  0  0  0  0  0  0  0
  -32.7840  -13.8040   18.4930 O   0  0  0  0  0  0  0  0  0  0  0  0
  -31.4810  -14.9110   19.8940 N   0  0  0  0  0  0  0  0  0  0  0  0
  -31.7740  -15.7250   19.3710 H   0  0  0  0  0  0  0  0  0  0  0  0
  -26.4820  -13.6370   20.2070 C   0  0  0  0  0  0  0  0  0  0  0  0
  -25.3390  -13.0570   20.6870 C   0  0  0  0  0  0  0  0  0  0  0  0
  -25.5190  -11.6490   20.5300 C   0  0  0  0  0  0  0  0  0  0  0  0
  -27.2990  -12.5940   19.7950 N   0  0  0  0  0  0  0  0  0  0  0  0
  -26.7250  -11.3880   20.0430 N   0  0  0  0  0  0  0  0  0  0  0  0
  -24.5900  -10.5360   20.7600 C   0  0  0  0  0  0  0  0  0  0  0  0
  -24.9010   -9.4840   21.6500 C   0  0  0  0  0  3  0  0  0  0  0  0
  -23.9850   -8.4330   21.8660 C   0  0  0  0  0  3  0  0  0  0  0  0
  -22.7370   -8.4290   21.1950 C   0  0  0  0  0  0  0  0  0  0  0  0
  -22.4410   -9.4670   20.2930 C   0  0  0  0  0  3  0  0  0  0  0  0
  -23.3590  -10.5080   20.0740 C   0  0  0  0  0  3  0  0  0  0  0  0
  -21.7930   -7.4380   21.3230 O   0  0  0  0  0  0  0  0  0  0  0  0
  -21.5910   -6.7860   22.5120 C   0  0  0  0  0  0  0  0  0  0  0  0
  -21.3170   -7.4860   23.7070 C   0  0  0  0  0  3  0  0  0  0  0  0
  -21.0460   -6.7750   24.8930 C   0  0  0  0  0  3  0  0  0  0  0  0
  -21.0430   -5.3670   24.8860 C   0  0  0  0  0  0  0  0  0  0  0  0
  -21.3100   -4.6670   23.6950 C   0  0  0  0  0  3  0  0  0  0  0  0
  -21.5810   -5.3760   22.5120 C   0  0  0  0  0  0  0  0  0  0  0  0
  -21.8210   -4.6970   21.3630 F   0  0  0  0  0  0  0  0  0  0  0  0
  -20.7780   -4.6860   26.0240 F   0  0  0  0  0  0  0  0  0  0  0  0
  -24.1110  -13.7710   21.1750 C   0  0  0  0  0  0  0  0  0  0  0  0
  -23.4210  -13.2100   22.1620 N   0  0  0  0  0  0  0  0  0  0  0  0
  -23.7790  -14.8600   20.7090 O   0  0  0  0  0  0  0  0  0  0  0  0
  -23.6980  -12.3260   22.5600 H   0  0  0  0  0  0  0  0  0  0  0  0
  -22.6000  -13.6730   22.5250 H   0  0  0  0  0  0  0  0  0  0  0  0
  -26.8870  -14.9610   20.0730 N   0  0  0  0  0  0  0  0  0  0  0  0
  -26.2830  -15.7350   20.3230 H   0  0  0  0  0  0  0  0  0  0  0  0
  -27.7660  -15.2600   19.6710 H   0  0  0  0  0  0  0  0  0  0  0  0
  1 48  1  0
  2  3  1  0
  2  4  2  0
  3  1  1  0
  5  3  1  0
  6  7  1  0
  6  2  1  0
  7  9  1  0
  8 19  2  0
  9 14  1  0
 10 18  1  0
 10 20  1  0
 11 17  1  0
 11 13  1  0
 12 18  1  0
 13 12  1  0
 14 13  2  0
 15 16  1  0
 15  9  2  0
 16 11  2  0
 17 10  1  0
 18  8  1  0
 20 22  2  0
 21 20  1  0
 23 21  1  0
 24 33  2  0
 24 29  1  0
 25 21  1  0
 25 29  1  0
 26 25  1  0
 27 28  1  0
 27 26  1  0
 28 24  1  0
 29 30  2  0
 30 31  1  0
 32 31  2  0
 33 32  1  0
 34  8  1  0
 34 39  1  0
 34 35  1  0
 35 38  1  1
 35 36  1  0
 37 35  1  0
 39 42  1  0
 40 44  1  0
 40 39  1  0
 41 40  2  0
 44 43  1  0
 46 44  1  0
 46 47  1  0
 46 45  1  0
 48 49  1  0
 50 49  1  0
 50 51  1  0
 52 53  1  0
 52 51  1  0
 54 53  1  0
 55 61  1  0
 55 63  1  0
 56 61  1  0
 57 58  1  0
 57 56  1  0
 59 58  1  0
 59 68  1  0
 59 60  1  0
 61 60  1  0
 62 55  2  0
 63 54  1  0
 64 63  1  0
 65 66  2  0
 66 85  1  0
 67 66  1  0
 67 70  1  0
 68 69  1  0
 68 65  1  0
 69 67  2  0
 70 71  1  0
 71 72  2  0
 73 76  1  0
 73 72  1  0
 74 73  2  0
 75 74  1  0
 75 70  2  0
 76 77  1  0
 77 78  1  0
 78 79  2  0
 80 79  1  0
 80 84  1  0
 81 80  2  0
 82 77  2  0
 82 81  1  0
 83 82  1  0
 85 86  1  0
 86 89  1  0
 86 88  1  0
 87 85  2  0
 90 65  1  0
 90 91  1  0
 92 90  1  0
M  ISO  4   6 101   7 101  55 100  63 100
M  END
>  <TORSDO>  (48) 
F 25

>  <SCORE>  (48) 
-9.271

>  <name>  (48) 
48

>  <ligand_id>  (48) 
48

>  <original_smiles>  (48) 
[H]c1c([H])c([H])c2c(c1[H])C([H])([H])C([H])([H])C([H])([H])C2([H])N([H])C(=O)C1([H])N(C(=O)C([H])(N([H])C(=O)C([H])(N([H])C([H])([H])[H])C([H])([H])[H])C(C([H])([H])[H])(C([H])([H])[H])C([H])([H])[H])C([H])([H])c2c([H])c(OC([H])([H])C(=O)N([H])C([H])([H])C([H])([H])OC([H])([H])C([H])([H])OC([H])([H])C([H])([H])N([H])C(=O)N3C([H])([H])C([H])([H])C([H])([H])C([H])(n4nc(-c5c([H])c([H])c(Oc6c([H])c([H])c(F)c([H])c6F)c([H])c5[H])c(C(=O)N([H])[H])c4N([H])[H])C3([H])[H])c([H])c([H])c2C1([H])[H]

>  <smiles>  (48) 
[H]c1c([H])c([H])c2c(c1[H])C([H])([H])C([H])([H])C([H])([H])C2([H])N([H])C(=O)C1([H])N(C(=O)C([H])(N([H])C(=O)C([H])(N([H])C([H])([H])[H])C([H])([H])[H])C(C([H])([H])[H])(C([H])([H])[H])C([H])([H])[H])C([H])([H])c2c([H])c(OC([H])([H])C(=O)N([H])C([H])([H])C([H])([H])OC([H])([H])C([H])([H])OC([H])([H])C([H])([H])N([H])C(=O)N3C([H])([H])C([H])([H])C([H])([H])C([H])(n4nc(-c5c([H])c([H])c(Oc6c([H])c([H])c(F)c([H])c6F)c([H])c5[H])c(C(=O)N([H])[H])c4N([H])[H])C3([H])[H])c([H])c([H])c2C1([H])[H]

$$$$
49:0:0
     RDKit          3D

 82 86  0  0  1  0  0  0  0  0999 V2000
  -28.2030  -25.2140   20.1870 O   0  0  0  0  0  1  0  0  0  0  0  0
  -24.6590  -31.8230   23.1160 C   0  0  0  0  0  0  0  0  0  0  0  0
  -27.2270  -26.5180   20.2190 C   0  0  0  0  0  0  0  0  0  0  0  0
  -23.5030  -30.4040   21.4840 C   0  0  0  0  0  3  0  0  0  0  0  0
  -24.9680  -28.6960   20.1210 C   0  0  0  0  0  0  0  0  0  0  0  0
  -26.0920  -30.4850   21.4080 C   0  0  0  0  0  2  0  0  0  0  0  0
  -26.1660  -29.0180   20.7700 C   0  0  0  0  0  0  0  0  0  0  0  0
  -27.2690  -27.9690   20.7710 C   0  0  0  0  0  3  0  0  0  0  0  0
  -25.9850  -26.4690   19.5130 C   0  0  0  0  0  3  0  0  0  0  0  0
  -24.9320  -27.4500   19.4670 C   0  0  0  0  0  3  0  0  0  0  0  0
  -23.7680  -29.6710   20.1330 C   0  0  0  0  0  2  0  0  0  0  0  0
  -24.7790  -30.9440   22.0540 N   0  0  0  0  0  0  0  0  0  0  0  0
  -23.5550  -32.1300   23.6020 O   0  0  0  0  0  0  0  0  0  0  0  0
  -22.7610  -29.4600   22.4680 C   0  0  0  0  0  0  0  0  0  0  0  0
  -21.4220  -29.3490   22.3610 N   0  0  0  0  0  0  0  0  0  0  0  0
  -23.4040  -28.8170   23.3000 O   0  0  0  0  0  0  0  0  0  0  0  0
  -20.9470  -29.9240   21.6780 H   0  0  0  0  0  0  0  0  0  0  0  0
  -18.0030  -28.1330   22.8590 C   0  0  0  0  0  0  0  0  0  0  0  0
  -20.5950  -28.3830   23.0970 C   0  0  0  0  0  0  0  0  0  0  0  0
  -20.7720  -26.9760   22.4620 C   0  0  0  0  0  3  0  0  0  0  0  0
  -19.5380  -26.4150   21.7220 C   0  0  0  0  0  3  0  0  0  0  0  0
  -18.0990  -26.8440   22.0560 C   0  0  0  0  0  3  0  0  0  0  0  0
  -19.1450  -28.8670   23.2920 C   0  0  0  0  0  0  0  0  0  0  0  0
  -18.9400  -30.1130   23.9270 C   0  0  0  0  0  3  0  0  0  0  0  0
  -17.6430  -30.6230   24.1300 C   0  0  0  0  0  3  0  0  0  0  0  0
  -16.5250  -29.8800   23.7210 C   0  0  0  0  0  3  0  0  0  0  0  0
  -16.7080  -28.6360   23.0960 C   0  0  0  0  0  3  0  0  0  0  0  0
  -25.9010  -32.4970   23.7720 C   0  0  0  0  0  3  0  0  0  0  0  0
  -25.5540  -33.8960   24.1020 N   0  0  0  0  0  0  0  0  0  0  0  0
  -25.8860  -34.9730   23.3740 C   0  0  0  0  0  0  0  0  0  0  0  0
  -26.5670  -34.8910   22.3500 O   0  0  0  0  0  0  0  0  0  0  0  0
  -24.9460  -34.0310   24.8960 H   0  0  0  0  0  0  0  0  0  0  0  0
  -24.1500  -36.7720   23.0460 C   0  0  0  0  0  1  0  0  0  0  0  0
  -25.3900  -36.3550   23.8530 C   0  0  0  0  0  3  0  0  0  0  0  0
  -27.5120  -37.2520   24.7100 C   0  0  0  0  0  1  0  0  0  0  0  0
  -26.4160  -37.4190   23.7590 N   0  0  0  0  0  0  0  0  0  0  0  0
  -26.0000  -38.3340   23.9110 H   0  0  0  0  0  0  0  0  0  0  0  0
  -26.3860  -31.7540   25.0790 C   0  0  1  0  0  0  0  0  0  0  0  0
  -25.2660  -31.5290   26.1240 C   0  0  0  0  0  1  0  0  0  0  0  0
  -26.9880  -30.3730   24.7440 C   0  0  0  0  0  1  0  0  0  0  0  0
  -27.5140  -32.5680   25.7560 C   0  0  0  0  0  1  0  0  0  0  0  0
  -28.2300  -23.3320   20.4390 C   0  0  0  0  0 15  0  0  0  0  0  0
  -28.7870  -21.3790   19.8640 C   0  0  0  0  0 15  0  0  0  0  0  0
  -29.3980  -19.4400   20.4120 C   0  0  0  0  0  1  0  0  0  0  0  0
  -30.1690  -16.0920   20.0360 C   0  0  0  0  0  0  0  0  0  0  0  0
  -30.3590  -13.4710   19.1990 C   0  0  0  0  0  2  0  0  0  0  0  0
  -29.4770  -12.8700   18.0550 C   0  0  0  0  0  2  0  0  0  0  0  0
  -28.1030  -12.4290   18.5740 C   0  0  0  0  0  2  0  0  0  0  0  0
  -27.5630  -13.4490   19.5940 C   0  0  0  0  0  3  0  0  0  0  0  0
  -28.6020  -13.9210   20.6470 C   0  0  0  0  0  2  0  0  0  0  0  0
  -29.6750  -14.6720   19.9180 N   0  0  0  0  0  0  0  0  0  0  0  0
  -31.4150  -15.9560   19.9590 O   0  0  0  0  0  0  0  0  0  0  0  0
  -29.4220  -17.5600   20.0550 N   0  0  0  0  0  0  0  0  0  0  0  0
  -28.4530  -17.3130   19.9040 H   0  0  0  0  0  0  0  0  0  0  0  0
  -25.2310  -13.9310   20.4500 C   0  0  0  0  0  0  0  0  0  0  0  0
  -24.1900  -13.1380   20.8360 C   0  0  0  0  0  0  0  0  0  0  0  0
  -24.6710  -11.7930   20.7770 C   0  0  0  0  0  0  0  0  0  0  0  0
  -26.2760  -13.0750   20.1660 N   0  0  0  0  0  0  0  0  0  0  0  0
  -25.9570  -11.7790   20.4270 N   0  0  0  0  0  0  0  0  0  0  0  0
  -23.9560  -10.5240   20.9740 C   0  0  0  0  0  0  0  0  0  0  0  0
  -24.4050   -9.5560   21.8990 C   0  0  0  0  0  3  0  0  0  0  0  0
  -23.6830   -8.3560   22.0890 C   0  0  0  0  0  3  0  0  0  0  0  0
  -22.4960   -8.1180   21.3550 C   0  0  0  0  0  0  0  0  0  0  0  0
  -22.0660   -9.0740   20.4200 C   0  0  0  0  0  3  0  0  0  0  0  0
  -22.7890  -10.2650   20.2280 C   0  0  0  0  0  3  0  0  0  0  0  0
  -21.7460   -6.9710   21.4550 O   0  0  0  0  0  0  0  0  0  0  0  0
  -21.7090   -6.2310   22.6100 C   0  0  0  0  0  0  0  0  0  0  0  0
  -21.2840   -6.7860   23.8360 C   0  0  0  0  0  3  0  0  0  0  0  0
  -21.1960   -5.9730   24.9840 C   0  0  0  0  0  3  0  0  0  0  0  0
  -21.5230   -4.6050   24.9060 C   0  0  0  0  0  0  0  0  0  0  0  0
  -21.9420   -4.0500   23.6840 C   0  0  0  0  0  3  0  0  0  0  0  0
  -22.0320   -4.8600   22.5390 C   0  0  0  0  0  0  0  0  0  0  0  0
  -22.4140   -4.3150   21.3590 F   0  0  0  0  0  0  0  0  0  0  0  0
  -21.4320   -3.8220   26.0060 F   0  0  0  0  0  0  0  0  0  0  0  0
  -22.7960  -13.6030   21.1400 C   0  0  0  0  0  0  0  0  0  0  0  0
  -22.0920  -12.8960   22.0160 N   0  0  0  0  0  0  0  0  0  0  0  0
  -22.3430  -14.6300   20.6380 O   0  0  0  0  0  0  0  0  0  0  0  0
  -22.4740  -12.0650   22.4440 H   0  0  0  0  0  0  0  0  0  0  0  0
  -21.1580  -13.1890   22.2630 H   0  0  0  0  0  0  0  0  0  0  0  0
  -25.3710  -15.3060   20.2780 N   0  0  0  0  0  0  0  0  0  0  0  0
  -24.5980  -15.9490   20.4140 H   0  0  0  0  0  0  0  0  0  0  0  0
  -26.2020  -15.7550   19.9170 H   0  0  0  0  0  0  0  0  0  0  0  0
  1  3  1  0
  2 13  2  0
  3  8  1  0
  4 12  1  0
  4 14  1  0
  5 11  1  0
  5  7  1  0
  6 12  1  0
  7  8  2  0
  7  6  1  0
  9  3  2  0
 10  9  1  0
 10  5  2  0
 11  4  1  0
 12  2  1  0
 14 16  2  0
 15 14  1  0
 15 19  1  0
 17 15  1  0
 18 27  2  0
 18 23  1  0
 19 23  1  0
 20 19  2  0
 21 22  2  0
 21 20  1  0
 22 18  1  0
 23 24  2  0
 24 25  1  0
 26 25  2  0
 27 26  1  0
 28  2  1  0
 28 29  1  0
 28 38  1  0
 29 32  1  0
 30 34  1  0
 30 29  1  0
 31 30  2  0
 34 33  1  0
 36 34  1  0
 36 37  1  0
 36 35  1  0
 38 41  1  1
 38 39  1  0
 40 38  1  0
 45 53  1  0
 46 51  1  0
 47 48  1  0
 47 46  1  0
 49 48  1  0
 49 58  1  0
 49 50  1  0
 51 45  1  0
 51 50  1  0
 52 45  2  0
 53 44  1  0
 54 53  1  0
 55 56  2  0
 56 75  1  0
 57 56  1  0
 57 60  1  0
 58 59  1  0
 58 55  1  0
 59 57  2  0
 60 61  1  0
 61 62  2  0
 63 66  1  0
 63 62  1  0
 64 63  2  0
 65 64  1  0
 65 60  2  0
 66 67  1  0
 67 68  1  0
 68 69  2  0
 70 69  1  0
 70 74  1  0
 71 70  2  0
 72 67  2  0
 72 71  1  0
 73 72  1  0
 75 76  1  0
 76 79  1  0
 76 78  1  0
 77 75  2  0
 80 81  1  0
 80 55  1  0
 82 80  1  0
M  ISO  4   1 101  42 101  45 100  53 100
M  END
>  <TORSDO>  (49) 
F 18

>  <SCORE>  (49) 
-16.165

>  <name>  (49) 
49

>  <ligand_id>  (49) 
49

>  <original_smiles>  (49) 
[H]c1c([H])c([H])c2c(c1[H])C([H])([H])C([H])([H])C([H])([H])C2([H])N([H])C(=O)C1([H])N(C(=O)C([H])(N([H])C(=O)C([H])(N([H])C([H])([H])[H])C([H])([H])[H])C(C([H])([H])[H])(C([H])([H])[H])C([H])([H])[H])C([H])([H])c2c([H])c(OC([H])([H])C([H])([H])C([H])([H])N([H])C(=O)N3C([H])([H])C([H])([H])C([H])([H])C([H])(n4nc(-c5c([H])c([H])c(Oc6c([H])c([H])c(F)c([H])c6F)c([H])c5[H])c(C(=O)N([H])[H])c4N([H])[H])C3([H])[H])c([H])c([H])c2C1([H])[H]

>  <smiles>  (49) 
[H]c1c([H])c([H])c2c(c1[H])C([H])([H])C([H])([H])C([H])([H])C2([H])N([H])C(=O)C1([H])N(C(=O)C([H])(N([H])C(=O)C([H])(N([H])C([H])([H])[H])C([H])([H])[H])C(C([H])([H])[H])(C([H])([H])[H])C([H])([H])[H])C([H])([H])c2c([H])c(OC([H])([H])C([H])([H])C([H])([H])N([H])C(=O)N3C([H])([H])C([H])([H])C([H])([H])C([H])(n4nc(-c5c([H])c([H])c(Oc6c([H])c([H])c(F)c([H])c6F)c([H])c5[H])c(C(=O)N([H])[H])c4N([H])[H])C3([H])[H])c([H])c([H])c2C1([H])[H]

$$$$
50:0:0
     RDKit          3D

106113  0  0  1  0  0  0  0  0999 V2000
  -30.2570  -20.1280   21.1320 C   0  0  0  0  0  3  0  0  0  0  0  0
  -30.6760  -20.1550   19.6540 C   0  0  0  0  0  0  0  0  0  0  0  0
  -29.7700  -20.6210   18.7920 N   0  0  0  0  0  0  0  0  0  0  0  0
  -31.8150  -19.8220   19.3130 O   0  0  0  0  0  0  0  0  0  0  0  0
  -28.8620  -20.8730   19.1600 H   0  0  0  0  0  0  0  0  0  0  0  0
  -30.0510  -21.0230   17.4190 C   0  0  0  0  0  2  0  0  0  0  0  0
  -30.3220  -22.5340   17.3880 C   0  0  0  0  0  2  0  0  0  0  0  0
  -29.1890  -23.1660   17.9660 O   0  0  0  0  0  0  0  0  0  0  0  0
  -29.3940  -24.5250   18.3150 C   0  0  0  0  0  2  0  0  0  0  0  0
  -28.0150  -25.1020   18.6410 C   0  0  0  0  0  2  0  0  0  0  0  0
  -28.1230  -26.4240   19.1550 O   0  0  0  0  0  0  0  0  0  0  0  0
  -24.7600  -31.3620   22.9880 C   0  0  0  0  0  0  0  0  0  0  0  0
  -26.9610  -27.1500   19.3100 C   0  0  0  0  0  0  0  0  0  0  0  0
  -23.3770  -30.2050   21.2940 C   0  0  0  0  0  3  0  0  0  0  0  0
  -24.6510  -28.7480   19.6400 C   0  0  0  0  0  0  0  0  0  0  0  0
  -25.9020  -30.4540   20.9700 C   0  0  0  0  0  2  0  0  0  0  0  0
  -25.8700  -29.1530   20.1980 C   0  0  0  0  0  0  0  0  0  0  0  0
  -27.0230  -28.3580   20.0350 C   0  0  0  0  0  3  0  0  0  0  0  0
  -25.7150  -26.7460   18.7680 C   0  0  0  0  0  3  0  0  0  0  0  0
  -24.5670  -27.5420   18.9280 C   0  0  0  0  0  3  0  0  0  0  0  0
  -23.4650  -29.6610   19.8440 C   0  0  0  0  0  2  0  0  0  0  0  0
  -24.7030  -30.6810   21.8090 N   0  0  0  0  0  0  0  0  0  0  0  0
  -23.7300  -31.6300   23.6220 O   0  0  0  0  0  0  0  0  0  0  0  0
  -22.7300  -29.1220   22.1860 C   0  0  0  0  0  0  0  0  0  0  0  0
  -21.3940  -29.0090   22.1100 N   0  0  0  0  0  0  0  0  0  0  0  0
  -23.4210  -28.3910   22.8980 O   0  0  0  0  0  0  0  0  0  0  0  0
  -20.8970  -29.6530   21.5080 H   0  0  0  0  0  0  0  0  0  0  0  0
  -17.9980  -27.8960   22.6330 C   0  0  0  0  0  0  0  0  0  0  0  0
  -20.5700  -28.0380   22.8290 C   0  0  0  0  0  3  0  0  0  0  0  0
  -20.5990  -26.6580   22.1320 C   0  0  0  0  0  2  0  0  0  0  0  0
  -19.4510  -26.4620   21.1360 C   0  0  0  0  0  2  0  0  0  0  0  0
  -18.0990  -26.6020   21.8420 C   0  0  0  0  0  2  0  0  0  0  0  0
  -19.1590  -28.5780   23.0830 C   0  0  0  0  0  0  0  0  0  0  0  0
  -19.0110  -29.7950   23.7830 C   0  0  0  0  0  3  0  0  0  0  0  0
  -17.7330  -30.3290   24.0390 C   0  0  0  0  0  3  0  0  0  0  0  0
  -16.5860  -29.6410   23.6050 C   0  0  0  0  0  3  0  0  0  0  0  0
  -16.7190  -28.4270   22.9060 C   0  0  0  0  0  3  0  0  0  0  0  0
  -26.1150  -31.8580   23.5810 C   0  0  0  0  0  3  0  0  0  0  0  0
  -25.9020  -33.2170   24.0950 N   0  0  0  0  0  0  0  0  0  0  0  0
  -26.2650  -34.3360   23.4540 C   0  0  0  0  0  0  0  0  0  0  0  0
  -26.8850  -34.3270   22.3870 O   0  0  0  0  0  0  0  0  0  0  0  0
  -25.3530  -33.3010   24.9380 H   0  0  0  0  0  0  0  0  0  0  0  0
  -24.6410  -36.2520   23.3870 C   0  0  0  0  0  1  0  0  0  0  0  0
  -25.8750  -35.6790   24.0990 C   0  0  0  0  0  3  0  0  0  0  0  0
  -28.0850  -36.3210   24.9560 C   0  0  0  0  0  1  0  0  0  0  0  0
  -26.9670  -36.6770   24.0880 N   0  0  0  0  0  0  0  0  0  0  0  0
  -26.6210  -37.5880   24.3780 H   0  0  0  0  0  0  0  0  0  0  0  0
  -26.6800  -30.9150   24.7140 C   0  0  1  0  0  0  0  0  0  0  0  0
  -25.6530  -30.6000   25.8280 C   0  0  0  0  0  1  0  0  0  0  0  0
  -27.1570  -29.5720   24.1150 C   0  0  0  0  0  1  0  0  0  0  0  0
  -27.9140  -31.5710   25.3750 C   0  0  0  0  0  1  0  0  0  0  0  0
  -30.2460  -17.6880   21.5720 C   0  0  0  0  0  0  0  0  0  0  0  0
  -30.7510  -18.9090   21.7690 N   0  0  0  0  0  0  0  0  0  0  0  0
  -29.2710  -17.4830   20.8420 O   0  0  0  0  0  0  0  0  0  0  0  0
  -31.5890  -18.9910   22.3270 H   0  0  0  0  0  0  0  0  0  0  0  0
  -30.9250  -16.5370   22.3200 C   0  0  0  0  0  2  0  0  0  0  0  0
  -30.7780  -14.5860   20.7890 C   0  0  0  0  0  0  0  0  0  0  0  0
  -30.4690  -12.5180   19.4790 C   0  0  0  0  0  2  0  0  0  0  0  0
  -29.5490  -12.7280   18.2630 C   0  0  0  0  0  2  0  0  0  0  0  0
  -28.0730  -12.5500   18.6610 C   0  0  0  0  0  2  0  0  0  0  0  0
  -27.6940  -13.3820   19.9140 C   0  0  0  0  0  3  0  0  0  0  0  0
  -28.7170  -13.1590   21.0490 C   0  0  0  0  0  2  0  0  0  0  0  0
  -30.0710  -13.4550   20.5390 N   0  0  0  0  0  0  0  0  0  0  0  0
  -31.7460  -14.9520   20.1150 O   0  0  0  0  0  0  0  0  0  0  0  0
  -30.4100  -15.2370   21.8950 N   0  0  0  0  0  0  0  0  0  0  0  0
  -29.6360  -14.8550   22.4160 H   0  0  0  0  0  0  0  0  0  0  0  0
  -25.2870  -13.9590   20.6300 C   0  0  0  0  0  0  0  0  0  0  0  0
  -24.2080  -13.1700   20.9300 C   0  0  0  0  0  0  0  0  0  0  0  0
  -24.6600  -11.8210   20.8080 C   0  0  0  0  0  0  0  0  0  0  0  0
  -26.3300  -13.0890   20.3510 N   0  0  0  0  0  0  0  0  0  0  0  0
  -25.9540  -11.7940   20.5130 N   0  0  0  0  0  0  0  0  0  0  0  0
  -23.9230  -10.5530   20.9000 C   0  0  0  0  0  0  0  0  0  0  0  0
  -24.3780   -9.4910   21.7110 C   0  0  0  0  0  3  0  0  0  0  0  0
  -23.6420   -8.2900   21.7980 C   0  0  0  0  0  3  0  0  0  0  0  0
  -22.4370   -8.1420   21.0710 C   0  0  0  0  0  0  0  0  0  0  0  0
  -22.0000   -9.1930   20.2470 C   0  0  0  0  0  3  0  0  0  0  0  0
  -22.7360  -10.3870   20.1580 C   0  0  0  0  0  3  0  0  0  0  0  0
  -21.6710   -7.0020   21.0720 O   0  0  0  0  0  0  0  0  0  0  0  0
  -21.6950   -6.1190   22.1220 C   0  0  0  0  0  0  0  0  0  0  0  0
  -21.3860   -6.5200   23.4400 C   0  0  0  0  0  3  0  0  0  0  0  0
  -21.3560   -5.5660   24.4780 C   0  0  0  0  0  3  0  0  0  0  0  0
  -21.6240   -4.2130   24.1980 C   0  0  0  0  0  0  0  0  0  0  0  0
  -21.9280   -3.8110   22.8860 C   0  0  0  0  0  3  0  0  0  0  0  0
  -21.9600   -4.7620   21.8510 C   0  0  0  0  0  0  0  0  0  0  0  0
  -22.2310   -4.3650   20.5840 F   0  0  0  0  0  0  0  0  0  0  0  0
  -21.5880   -3.2950   25.1930 F   0  0  0  0  0  0  0  0  0  0  0  0
  -22.8110  -13.6370   21.2220 C   0  0  0  0  0  0  0  0  0  0  0  0
  -22.0730  -12.8920   22.0380 N   0  0  0  0  0  0  0  0  0  0  0  0
  -22.3810  -14.6950   20.7630 O   0  0  0  0  0  0  0  0  0  0  0  0
  -22.4320  -12.0350   22.4290 H   0  0  0  0  0  0  0  0  0  0  0  0
  -21.1350  -13.1850   22.2750 H   0  0  0  0  0  0  0  0  0  0  0  0
  -25.4650  -15.3370   20.5550 N   0  0  0  0  0  0  0  0  0  0  0  0
  -24.7070  -15.9940   20.7090 H   0  0  0  0  0  0  0  0  0  0  0  0
  -26.3380  -15.7890   20.3060 H   0  0  0  0  0  0  0  0  0  0  0  0
  -30.9090  -21.3550   21.8080 C   0  0  0  0  0  2  0  0  0  0  0  0
  -30.0450  -21.9740   22.9180 C   0  0  0  0  0  2  0  0  0  0  0  0
  -30.5640  -23.3480   23.3680 C   0  0  0  0  0  2  0  0  0  0  0  0
  -29.3250  -25.4980   23.7830 C   0  0  0  0  0  0  0  0  0  0  0  0
  -28.2580  -26.0910   24.3140 N   0  0  0  0  0  0  0  0  0  0  0  0
  -30.2260  -26.2290   23.1230 N   0  0  0  0  0  4  0  0  0  0  0  0
  -29.4780  -24.1740   23.9200 N   0  0  0  0  0  0  0  0  0  0  0  0
  -28.0890  -27.0840   24.2360 H   0  0  0  0  0  0  0  0  0  0  0  0
  -27.5440  -25.5730   24.8110 H   0  0  0  0  0  0  0  0  0  0  0  0
  -30.1320  -27.2280   23.0010 H   0  0  0  0  0  0  0  0  0  0  0  0
  -31.0590  -25.8140   22.7330 H   0  0  0  0  0  0  0  0  0  0  0  0
  -28.8200  -23.6620   24.5000 H   0  0  0  0  0  0  0  0  0  0  0  0
  1 53  1  0
  1 95  1  0
  2  1  1  0
  3  5  1  0
  3  2  1  0
  4  2  2  0
  6  3  1  0
  7  6  1  0
  7  8  1  0
  8  9  1  0
  9 10  1  0
 10 11  1  0
 11 13  1  0
 12 23  2  0
 13 18  1  0
 14 22  1  0
 14 24  1  0
 15 21  1  0
 15 17  1  0
 16 22  1  0
 17 16  1  0
 18 17  2  0
 19 20  1  0
 19 13  2  0
 20 15  2  0
 21 14  1  0
 22 12  1  0
 24 26  2  0
 25 24  1  0
 27 25  1  0
 28 37  2  0
 28 33  1  0
 29 25  1  0
 29 33  1  0
 30 29  1  0
 31 32  1  0
 31 30  1  0
 32 28  1  0
 33 34  2  0
 34 35  1  0
 36 35  2  0
 37 36  1  0
 38 12  1  0
 38 39  1  0
 38 48  1  0
 39 42  1  0
 40 39  1  0
 40 44  1  0
 41 40  2  0
 44 43  1  0
 46 44  1  0
 46 47  1  0
 46 45  1  0
 48 51  1  1
 48 49  1  0
 50 48  1  0
 52 53  1  0
 52 56  1  0
 53 55  1  0
 54 52  2  0
 57 65  1  0
 58 63  1  0
 59 60  1  0
 59 58  1  0
 61 60  1  0
 61 70  1  0
 61 62  1  0
 63 57  1  0
 63 62  1  0
 64 57  2  0
 65 56  1  0
 65 66  1  0
 67 68  2  0
 68 87  1  0
 69 72  1  0
 69 68  1  0
 70 71  1  0
 70 67  1  0
 71 69  2  0
 72 73  1  0
 73 74  2  0
 75 78  1  0
 75 74  1  0
 76 75  2  0
 77 76  1  0
 77 72  2  0
 78 79  1  0
 79 80  1  0
 80 81  2  0
 82 81  1  0
 82 86  1  0
 83 82  2  0
 84 79  2  0
 84 83  1  0
 85 84  1  0
 87 88  1  0
 88 91  1  0
 88 90  1  0
 89 87  2  0
 92 67  1  0
 92 93  1  0
 94 92  1  0
 95 96  1  0
 96 97  1  0
 97101  1  0
 98101  1  0
 98 99  1  0
 99103  1  0
100 98  2  0
101106  1  0
102 99  1  0
104100  1  0
105100  1  0
M  ISO  4  10 101  11 101  57 100  65 100
M  END
>  <TORSDO>  (50) 
F 28

>  <SCORE>  (50) 
-10.513

>  <name>  (50) 
50

>  <ligand_id>  (50) 
50

>  <original_smiles>  (50) 
[H]c1c([H])c([H])c2c(c1[H])C([H])([H])C([H])([H])C([H])([H])C2([H])N([H])C(=O)C1([H])N(C(=O)C([H])(N([H])C(=O)C([H])(N([H])C([H])([H])[H])C([H])([H])[H])C(C([H])([H])[H])(C([H])([H])[H])C([H])([H])[H])C([H])([H])c2c([H])c(OC([H])([H])C([H])([H])OC([H])([H])C([H])([H])N([H])C(=O)C([H])(N([H])C(=O)C([H])([H])N([H])C(=O)N3C([H])([H])C([H])([H])C([H])([H])C([H])(n4nc(-c5c([H])c([H])c(Oc6c([H])c([H])c(F)c([H])c6F)c([H])c5[H])c(C(=O)N([H])[H])c4N([H])[H])C3([H])[H])C([H])([H])C([H])([H])C([H])([H])N([H])C(N([H])[H])=[N+]([H])[H])c([H])c([H])c2C1([H])[H]

>  <smiles>  (50) 
[H]c1c([H])c([H])c2c(c1[H])C([H])([H])C([H])([H])C([H])([H])C2([H])N([H])C(=O)C1([H])N(C(=O)C([H])(N([H])C(=O)C([H])(N([H])C([H])([H])[H])C([H])([H])[H])C(C([H])([H])[H])(C([H])([H])[H])C([H])([H])[H])C([H])([H])c2c([H])c(OC([H])([H])C([H])([H])OC([H])([H])C([H])([H])N([H])C(=O)C([H])(N([H])C(=O)C([H])([H])N([H])C(=O)N3C([H])([H])C([H])([H])C([H])([H])C([H])(n4nc(-c5c([H])c([H])c(Oc6c([H])c([H])c(F)c([H])c6F)c([H])c5[H])c(C(=O)N([H])[H])c4N([H])[H])C3([H])[H])C([H])([H])C([H])([H])C([H])([H])N([H])C(N([H])[H])=[N+]([H])[H])c([H])c([H])c2C1([H])[H]

$$$$
51:0:0
     RDKit          3D

 90 97  0  0  1  0  0  0  0  0999 V2000
  -29.6470  -23.7950   19.7900 C   0  0  0  0  0  2  0  0  0  0  0  0
  -29.0730  -22.4850   19.9120 O   0  0  0  0  0  0  0  0  0  0  0  0
  -29.9080  -21.5020   20.5340 C   0  0  0  0  0  2  0  0  0  0  0  0
  -29.2760  -20.0980   20.3970 C   0  0  0  0  0  2  0  0  0  0  0  0
  -30.1030  -19.0930   20.9920 O   0  0  0  0  0  0  0  0  0  0  0  0
  -29.6230  -17.7640   20.7790 C   0  0  0  0  0  2  0  0  0  0  0  0
  -30.5110  -16.7430   21.5230 C   0  0  0  0  0  2  0  0  0  0  0  0
  -30.6780  -14.4430   20.5320 C   0  0  0  0  0  0  0  0  0  0  0  0
  -30.3550  -12.3340   19.2910 C   0  0  0  0  0  2  0  0  0  0  0  0
  -29.4010  -12.5660   18.1030 C   0  0  0  0  0  2  0  0  0  0  0  0
  -27.9310  -12.4200   18.5430 C   0  0  0  0  0  2  0  0  0  0  0  0
  -27.6070  -13.2290   19.8280 C   0  0  0  0  0  3  0  0  0  0  0  0
  -28.6680  -12.9670   20.9200 C   0  0  0  0  0  2  0  0  0  0  0  0
  -29.9930  -13.2820   20.3560 N   0  0  0  0  0  0  0  0  0  0  0  0
  -31.7490  -14.6860   19.9710 O   0  0  0  0  0  0  0  0  0  0  0  0
  -30.0700  -15.3600   21.2990 N   0  0  0  0  0  0  0  0  0  0  0  0
  -29.1980  -15.0820   21.7250 H   0  0  0  0  0  0  0  0  0  0  0  0
  -25.2070  -13.8270   20.5390 C   0  0  0  0  0  0  0  0  0  0  0  0
  -24.1420  -13.0510   20.9120 C   0  0  0  0  0  0  0  0  0  0  0  0
  -24.6080  -11.7000   20.8780 C   0  0  0  0  0  0  0  0  0  0  0  0
  -26.2540  -12.9500   20.3070 N   0  0  0  0  0  0  0  0  0  0  0  0
  -25.8970  -11.6660   20.5650 N   0  0  0  0  0  0  0  0  0  0  0  0
  -23.8870  -10.4350   21.0690 C   0  0  0  0  0  0  0  0  0  0  0  0
  -24.3360   -9.4630   21.9920 C   0  0  0  0  0  3  0  0  0  0  0  0
  -23.6170   -8.2630   22.1710 C   0  0  0  0  0  3  0  0  0  0  0  0
  -22.4350   -8.0250   21.4290 C   0  0  0  0  0  0  0  0  0  0  0  0
  -22.0060   -8.9850   20.4960 C   0  0  0  0  0  3  0  0  0  0  0  0
  -22.7260  -10.1780   20.3150 C   0  0  0  0  0  3  0  0  0  0  0  0
  -21.6870   -6.8750   21.5190 O   0  0  0  0  0  0  0  0  0  0  0  0
  -21.6650   -6.1180   22.6630 C   0  0  0  0  0  0  0  0  0  0  0  0
  -21.2570   -6.6540   23.9040 C   0  0  0  0  0  3  0  0  0  0  0  0
  -21.1820   -5.8240   25.0390 C   0  0  0  0  0  3  0  0  0  0  0  0
  -21.5050   -4.4570   24.9350 C   0  0  0  0  0  0  0  0  0  0  0  0
  -21.9050   -3.9200   23.6980 C   0  0  0  0  0  3  0  0  0  0  0  0
  -21.9810   -4.7490   22.5650 C   0  0  0  0  0  0  0  0  0  0  0  0
  -22.3470   -4.2210   21.3720 F   0  0  0  0  0  0  0  0  0  0  0  0
  -21.4250   -3.6560   26.0240 F   0  0  0  0  0  0  0  0  0  0  0  0
  -22.7440  -13.5220   21.1920 C   0  0  0  0  0  0  0  0  0  0  0  0
  -22.0230  -12.8220   22.0600 N   0  0  0  0  0  0  0  0  0  0  0  0
  -22.2990  -14.5460   20.6740 O   0  0  0  0  0  0  0  0  0  0  0  0
  -22.3950  -11.9940   22.5010 H   0  0  0  0  0  0  0  0  0  0  0  0
  -21.0850  -13.1190   22.2890 H   0  0  0  0  0  0  0  0  0  0  0  0
  -25.3670  -15.1980   20.3620 N   0  0  0  0  0  0  0  0  0  0  0  0
  -24.5990  -15.8530   20.4650 H   0  0  0  0  0  0  0  0  0  0  0  0
  -26.2190  -15.6360   20.0340 H   0  0  0  0  0  0  0  0  0  0  0  0
  -29.5140  -24.6520   21.0760 C   0  0  0  0  0  3  0  0  0  0  0  0
  -30.6860  -25.4100   21.3190 O   0  0  0  0  0  0  0  0  0  0  0  0
  -30.6660  -26.1400   20.7070 H   0  0  0  0  0  0  0  0  0  0  0  0
  -28.3000  -25.6090   21.1220 C   0  0  0  0  0  2  0  0  0  0  0  0
  -28.3890  -26.6850   20.1750 O   0  0  0  0  0  0  0  0  0  0  0  0
  -24.5970  -31.8720   23.2390 C   0  0  0  0  0  0  0  0  0  0  0  0
  -27.2450  -27.4480   20.1530 C   0  0  0  0  0  0  0  0  0  0  0  0
  -23.3900  -30.4710   21.5950 C   0  0  0  0  0  3  0  0  0  0  0  0
  -24.8470  -28.9400   20.1640 C   0  0  0  0  0  0  0  0  0  0  0  0
  -25.9140  -30.8390   21.3930 C   0  0  0  0  0  2  0  0  0  0  0  0
  -26.0040  -29.4700   20.7510 C   0  0  0  0  0  0  0  0  0  0  0  0
  -27.2100  -28.7320   20.7420 C   0  0  0  0  0  3  0  0  0  0  0  0
  -26.0760  -26.9300   19.5580 C   0  0  0  0  0  3  0  0  0  0  0  0
  -24.8770  -27.6690   19.5630 C   0  0  0  0  0  3  0  0  0  0  0  0
  -23.6000  -29.7940   20.2130 C   0  0  0  0  0  2  0  0  0  0  0  0
  -24.6520  -31.0750   22.1340 N   0  0  0  0  0  0  0  0  0  0  0  0
  -23.5150  -32.1410   23.7810 O   0  0  0  0  0  0  0  0  0  0  0  0
  -22.7430  -29.4470   22.5540 C   0  0  0  0  0  0  0  0  0  0  0  0
  -21.4180  -29.2670   22.4310 N   0  0  0  0  0  0  0  0  0  0  0  0
  -23.4290  -28.8180   23.3650 O   0  0  0  0  0  0  0  0  0  0  0  0
  -20.9260  -29.8260   21.7480 H   0  0  0  0  0  0  0  0  0  0  0  0
  -18.0420  -28.0800   22.9380 C   0  0  0  0  0  0  0  0  0  0  0  0
  -20.6030  -28.3280   23.2010 C   0  0  0  0  0  3  0  0  0  0  0  0
  -20.6990  -26.9000   22.6180 C   0  0  0  0  0  2  0  0  0  0  0  0
  -19.5920  -26.5850   21.6070 C   0  0  0  0  0  2  0  0  0  0  0  0
  -18.2120  -26.7330   22.2570 C   0  0  0  0  0  2  0  0  0  0  0  0
  -19.1650  -28.8360   23.3680 C   0  0  0  0  0  0  0  0  0  0  0  0
  -18.9540  -30.0980   23.9640 C   0  0  0  0  0  3  0  0  0  0  0  0
  -17.6510  -30.6040   24.1360 C   0  0  0  0  0  3  0  0  0  0  0  0
  -16.5440  -29.8440   23.7230 C   0  0  0  0  0  3  0  0  0  0  0  0
  -16.7390  -28.5850   23.1300 C   0  0  0  0  0  3  0  0  0  0  0  0
  -25.8820  -32.5040   23.8580 C   0  0  0  0  0  3  0  0  0  0  0  0
  -26.4010  -31.7330   25.1330 C   0  0  1  0  0  0  0  0  0  0  0  0
  -25.3110  -31.4970   26.2040 C   0  0  0  0  0  1  0  0  0  0  0  0
  -26.9830  -30.3550   24.7380 C   0  0  0  0  0  1  0  0  0  0  0  0
  -27.5540  -32.5270   25.7930 C   0  0  0  0  0  1  0  0  0  0  0  0
  -25.5760  -33.9020   24.1840 N   0  0  0  0  0  0  0  0  0  0  0  0
  -25.9130  -34.9520   23.4230 C   0  0  0  0  0  0  0  0  0  0  0  0
  -26.5880  -34.8440   22.3950 O   0  0  0  0  0  0  0  0  0  0  0  0
  -24.9760  -34.0600   24.9800 H   0  0  0  0  0  0  0  0  0  0  0  0
  -24.1930  -36.7480   23.0500 C   0  0  0  0  0  1  0  0  0  0  0  0
  -25.4250  -36.3420   23.8740 C   0  0  0  0  0  3  0  0  0  0  0  0
  -27.5560  -37.2190   24.7230 C   0  0  0  0  0  1  0  0  0  0  0  0
  -26.4620  -37.3920   23.7700 N   0  0  0  0  0  0  0  0  0  0  0  0
  -26.0580  -38.3130   23.9140 H   0  0  0  0  0  0  0  0  0  0  0  0
  1  2  1  0
  2  3  1  0
  4  3  1  0
  4  5  1  0
  6  5  1  0
  6  7  1  0
  8 16  1  0
  9 14  1  0
 10 11  1  0
 10  9  1  0
 12 11  1  0
 12 21  1  0
 12 13  1  0
 14  8  1  0
 14 13  1  0
 15  8  2  0
 16  7  1  0
 16 17  1  0
 18 19  2  0
 19 38  1  0
 20 19  1  0
 20 23  1  0
 21 18  1  0
 21 22  1  0
 22 20  2  0
 23 24  1  0
 24 25  2  0
 26 29  1  0
 26 25  1  0
 27 26  2  0
 28 27  1  0
 28 23  2  0
 29 30  1  0
 30 31  1  0
 31 32  2  0
 33 32  1  0
 33 37  1  0
 34 33  2  0
 35 30  2  0
 35 34  1  0
 36 35  1  0
 38 39  1  0
 39 42  1  0
 39 41  1  0
 40 38  2  0
 43 44  1  0
 43 18  1  0
 45 43  1  0
 46  1  1  0
 46 49  1  0
 46 47  1  0
 48 47  1  0
 50 49  1  0
 51 62  2  0
 52 50  1  0
 52 57  1  0
 53 61  1  0
 53 63  1  0
 54 60  1  0
 54 56  1  0
 55 61  1  0
 56 55  1  0
 57 56  2  0
 58 59  1  0
 58 52  2  0
 59 54  2  0
 60 53  1  0
 61 51  1  0
 63 65  2  0
 64 63  1  0
 66 64  1  0
 67 76  2  0
 67 72  1  0
 68 64  1  0
 68 72  1  0
 69 68  1  0
 70 71  1  0
 70 69  1  0
 71 67  1  0
 72 73  2  0
 73 74  1  0
 75 74  2  0
 76 75  1  0
 77 51  1  0
 77 82  1  0
 77 78  1  0
 78 81  1  1
 78 79  1  0
 80 78  1  0
 82 85  1  0
 83 87  1  0
 83 82  1  0
 84 83  2  0
 87 86  1  0
 89 87  1  0
 89 90  1  0
 89 88  1  0
M  ISO  4   8 100  16 100  49 101  50 101
M  END
>  <TORSDO>  (51) 
F 25

>  <SCORE>  (51) 
-12.374

>  <name>  (51) 
51

>  <ligand_id>  (51) 
51

>  <original_smiles>  (51) 
[H]OC([H])(C([H])([H])Oc1c([H])c([H])c2c(c1[H])C([H])([H])N(C(=O)C([H])(N([H])C(=O)C([H])(N([H])C([H])([H])[H])C([H])([H])[H])C(C([H])([H])[H])(C([H])([H])[H])C([H])([H])[H])C([H])(C(=O)N([H])C1([H])c3c([H])c([H])c([H])c([H])c3C([H])([H])C([H])([H])C1([H])[H])C2([H])[H])C([H])([H])OC([H])([H])C([H])([H])OC([H])([H])C([H])([H])N([H])C(=O)N1C([H])([H])C([H])([H])C([H])([H])C([H])(n2nc(-c3c([H])c([H])c(Oc4c([H])c([H])c(F)c([H])c4F)c([H])c3[H])c(C(=O)N([H])[H])c2N([H])[H])C1([H])[H]

>  <smiles>  (51) 
[H]OC([H])(C([H])([H])Oc1c([H])c([H])c2c(c1[H])C([H])([H])N(C(=O)C([H])(N([H])C(=O)C([H])(N([H])C([H])([H])[H])C([H])([H])[H])C(C([H])([H])[H])(C([H])([H])[H])C([H])([H])[H])C([H])(C(=O)N([H])C1([H])c3c([H])c([H])c([H])c([H])c3C([H])([H])C([H])([H])C1([H])[H])C2([H])[H])C([H])([H])OC([H])([H])C([H])([H])OC([H])([H])C([H])([H])N([H])C(=O)N1C([H])([H])C([H])([H])C([H])([H])C([H])(n2nc(-c3c([H])c([H])c(Oc4c([H])c([H])c(F)c([H])c4F)c([H])c3[H])c(C(=O)N([H])[H])c2N([H])[H])C1([H])[H]

$$$$
52:0:0
     RDKit          3D

 94102  0  0  1  0  0  0  0  0999 V2000
  -30.1240  -17.6750   20.4580 C   0  0  0  0  0  0  0  0  0  0  0  0
  -30.5720  -19.6650   21.9300 C   0  0  0  0  0  2  0  0  0  0  0  0
  -29.7750  -19.9850   19.6380 C   0  0  0  0  0  2  0  0  0  0  0  0
  -31.6330  -20.7630   21.7120 C   0  0  0  0  0  2  0  0  0  0  0  0
  -30.8640  -21.0510   19.3970 C   0  0  0  0  0  2  0  0  0  0  0  0
  -30.1960  -19.0160   20.6620 N   0  0  0  0  0  0  0  0  0  0  0  0
  -31.2380  -21.7370   20.6620 N   0  0  2  0  0  4  0  0  0  0  0  0
  -29.7250  -17.2020   19.3880 O   0  0  0  0  0  0  0  0  0  0  0  0
  -30.4010  -22.1980   20.9910 H   0  0  0  0  0  0  0  0  0  0  0  0
  -30.5350  -16.7020   21.5840 C   0  0  0  0  0  2  0  0  0  0  0  0
  -30.7480  -14.4240   20.5590 C   0  0  0  0  0  0  0  0  0  0  0  0
  -30.4360  -12.3170   19.3130 C   0  0  0  0  0  2  0  0  0  0  0  0
  -29.5070  -12.5520   18.1060 C   0  0  0  0  0  2  0  0  0  0  0  0
  -28.0270  -12.4230   18.5170 C   0  0  0  0  0  2  0  0  0  0  0  0
  -27.6830  -13.2490   19.7860 C   0  0  0  0  0  3  0  0  0  0  0  0
  -28.7160  -12.9720   20.9010 C   0  0  0  0  0  2  0  0  0  0  0  0
  -30.0580  -13.2710   20.3640 N   0  0  0  0  0  0  0  0  0  0  0  0
  -31.8330  -14.6710   20.0230 O   0  0  0  0  0  0  0  0  0  0  0  0
  -30.1280  -15.3170   21.3400 N   0  0  0  0  0  0  0  0  0  0  0  0
  -29.2300  -15.0390   21.7030 H   0  0  0  0  0  0  0  0  0  0  0  0
  -25.2750  -13.8830   20.4430 C   0  0  0  0  0  0  0  0  0  0  0  0
  -24.1940  -13.1220   20.8030 C   0  0  0  0  0  0  0  0  0  0  0  0
  -24.6460  -11.7670   20.7950 C   0  0  0  0  0  0  0  0  0  0  0  0
  -26.3180  -12.9920   20.2410 N   0  0  0  0  0  0  0  0  0  0  0  0
  -25.9410  -11.7140   20.5070 N   0  0  0  0  0  0  0  0  0  0  0  0
  -23.9100  -10.5110   20.9890 C   0  0  0  0  0  0  0  0  0  0  0  0
  -24.3220   -9.5540   21.9420 C   0  0  0  0  0  3  0  0  0  0  0  0
  -23.5890   -8.3620   22.1230 C   0  0  0  0  0  3  0  0  0  0  0  0
  -22.4290   -8.1180   21.3490 C   0  0  0  0  0  0  0  0  0  0  0  0
  -22.0360   -9.0640   20.3850 C   0  0  0  0  0  3  0  0  0  0  0  0
  -22.7700  -10.2480   20.2030 C   0  0  0  0  0  3  0  0  0  0  0  0
  -21.6690   -6.9780   21.4360 O   0  0  0  0  0  0  0  0  0  0  0  0
  -21.5910   -6.2510   22.5970 C   0  0  0  0  0  0  0  0  0  0  0  0
  -21.1340   -6.8230   23.8040 C   0  0  0  0  0  3  0  0  0  0  0  0
  -21.0040   -6.0250   24.9580 C   0  0  0  0  0  3  0  0  0  0  0  0
  -21.3200   -4.6530   24.9050 C   0  0  0  0  0  0  0  0  0  0  0  0
  -21.7700   -4.0810   23.7020 C   0  0  0  0  0  3  0  0  0  0  0  0
  -21.9030   -4.8780   22.5520 C   0  0  0  0  0  0  0  0  0  0  0  0
  -22.3170   -4.3170   21.3900 F   0  0  0  0  0  0  0  0  0  0  0  0
  -21.1870   -3.8840   26.0110 F   0  0  0  0  0  0  0  0  0  0  0  0
  -22.7940  -13.6110   21.0470 C   0  0  0  0  0  0  0  0  0  0  0  0
  -22.0480  -12.9290   21.9080 N   0  0  0  0  0  0  0  0  0  0  0  0
  -22.3720  -14.6330   20.5100 O   0  0  0  0  0  0  0  0  0  0  0  0
  -22.4010  -12.1040   22.3690 H   0  0  0  0  0  0  0  0  0  0  0  0
  -21.1080  -13.2390   22.1110 H   0  0  0  0  0  0  0  0  0  0  0  0
  -25.4510  -15.2520   20.2570 N   0  0  0  0  0  0  0  0  0  0  0  0
  -24.6860  -15.9120   20.3480 H   0  0  0  0  0  0  0  0  0  0  0  0
  -26.3140  -15.6840   19.9500 H   0  0  0  0  0  0  0  0  0  0  0  0
  -32.2460  -22.8240   20.5100 C   0  0  0  0  0  2  0  0  0  0  0  0
  -31.8170  -23.9470   19.5490 C   0  0  0  0  0  2  0  0  0  0  0  0
  -30.5060  -24.4030   19.8790 O   0  0  0  0  0  0  0  0  0  0  0  0
  -30.0460  -25.3750   18.9430 C   0  0  0  0  0  2  0  0  0  0  0  0
  -28.5650  -25.7170   19.1620 C   0  0  0  0  0  2  0  0  0  0  0  0
  -28.4170  -26.7700   20.1140 O   0  0  0  0  0  0  0  0  0  0  0  0
  -24.5790  -31.8810   23.2420 C   0  0  0  0  0  0  0  0  0  0  0  0
  -27.2150  -27.4460   20.1410 C   0  0  0  0  0  0  0  0  0  0  0  0
  -23.3640  -30.4790   21.6050 C   0  0  0  0  0  3  0  0  0  0  0  0
  -24.8090  -28.9380   20.1820 C   0  0  0  0  0  0  0  0  0  0  0  0
  -25.8890  -30.8340   21.4000 C   0  0  0  0  0  2  0  0  0  0  0  0
  -25.9680  -29.4620   20.7660 C   0  0  0  0  0  0  0  0  0  0  0  0
  -27.1690  -28.7180   20.7530 C   0  0  0  0  0  3  0  0  0  0  0  0
  -26.0260  -26.9220   19.5750 C   0  0  0  0  0  3  0  0  0  0  0  0
  -24.8310  -27.6640   19.5920 C   0  0  0  0  0  3  0  0  0  0  0  0
  -23.5680  -29.7980   20.2260 C   0  0  0  0  0  2  0  0  0  0  0  0
  -24.6290  -31.0800   22.1410 N   0  0  0  0  0  0  0  0  0  0  0  0
  -23.4990  -32.1550   23.7850 O   0  0  0  0  0  0  0  0  0  0  0  0
  -22.7150  -29.4590   22.5670 C   0  0  0  0  0  0  0  0  0  0  0  0
  -21.3910  -29.2750   22.4390 N   0  0  0  0  0  0  0  0  0  0  0  0
  -23.4000  -28.8350   23.3830 O   0  0  0  0  0  0  0  0  0  0  0  0
  -20.9010  -29.8300   21.7520 H   0  0  0  0  0  0  0  0  0  0  0  0
  -18.0170  -28.0820   22.9320 C   0  0  0  0  0  0  0  0  0  0  0  0
  -20.5740  -28.3400   23.2120 C   0  0  0  0  0  3  0  0  0  0  0  0
  -20.6780  -26.9060   22.6430 C   0  0  0  0  0  2  0  0  0  0  0  0
  -19.5790  -26.5810   21.6250 C   0  0  0  0  0  2  0  0  0  0  0  0
  -18.1950  -26.7290   22.2640 C   0  0  0  0  0  2  0  0  0  0  0  0
  -19.1350  -28.8450   23.3640 C   0  0  0  0  0  0  0  0  0  0  0  0
  -18.9150  -30.1110   23.9470 C   0  0  0  0  0  3  0  0  0  0  0  0
  -17.6110  -30.6160   24.1040 C   0  0  0  0  0  3  0  0  0  0  0  0
  -16.5080  -29.8490   23.6910 C   0  0  0  0  0  3  0  0  0  0  0  0
  -16.7120  -28.5840   23.1120 C   0  0  0  0  0  3  0  0  0  0  0  0
  -25.8680  -32.5080   23.8560 C   0  0  0  0  0  3  0  0  0  0  0  0
  -25.5640  -33.9080   24.1840 N   0  0  0  0  0  0  0  0  0  0  0  0
  -25.8970  -34.9560   23.4200 C   0  0  0  0  0  0  0  0  0  0  0  0
  -26.5650  -34.8490   22.3870 O   0  0  0  0  0  0  0  0  0  0  0  0
  -24.9680  -34.0650   24.9820 H   0  0  0  0  0  0  0  0  0  0  0  0
  -24.1740  -36.7520   23.0590 C   0  0  0  0  0  1  0  0  0  0  0  0
  -25.4130  -36.3460   23.8740 C   0  0  0  0  0  3  0  0  0  0  0  0
  -27.5470  -37.2250   24.7090 C   0  0  0  0  0  1  0  0  0  0  0  0
  -26.4480  -37.3960   23.7620 N   0  0  0  0  0  0  0  0  0  0  0  0
  -26.0440  -38.3170   23.9090 H   0  0  0  0  0  0  0  0  0  0  0  0
  -26.3910  -31.7380   25.1300 C   0  0  1  0  0  0  0  0  0  0  0  0
  -25.3030  -31.5060   26.2040 C   0  0  0  0  0  1  0  0  0  0  0  0
  -26.9670  -30.3580   24.7350 C   0  0  0  0  0  1  0  0  0  0  0  0
  -27.5460  -32.5290   25.7860 C   0  0  0  0  0  1  0  0  0  0  0  0
  1  6  1  0
  1 10  1  0
  3  6  1  0
  4  2  1  0
  5  3  1  0
  5  7  1  0
  6  2  1  0
  7  9  1  1
  7  4  1  0
  8  1  2  0
 11 19  1  0
 12 17  1  0
 13 14  1  0
 13 12  1  0
 15 14  1  0
 15 24  1  0
 15 16  1  0
 17 11  1  0
 17 16  1  0
 18 11  2  0
 19 10  1  0
 19 20  1  0
 21 22  2  0
 22 41  1  0
 23 22  1  0
 23 26  1  0
 24 21  1  0
 24 25  1  0
 25 23  2  0
 26 27  1  0
 27 28  2  0
 29 32  1  0
 29 28  1  0
 30 29  2  0
 31 30  1  0
 31 26  2  0
 32 33  1  0
 33 34  1  0
 34 35  2  0
 36 35  1  0
 36 40  1  0
 37 36  2  0
 38 33  2  0
 38 37  1  0
 39 38  1  0
 41 42  1  0
 42 45  1  0
 42 44  1  0
 43 41  2  0
 46 47  1  0
 46 21  1  0
 48 46  1  0
 49  7  1  0
 50 51  1  0
 50 49  1  0
 52 53  1  0
 52 51  1  0
 53 54  1  0
 54 56  1  0
 55 66  2  0
 56 61  1  0
 57 65  1  0
 57 67  1  0
 58 64  1  0
 58 60  1  0
 59 65  1  0
 60 59  1  0
 61 60  2  0
 62 63  1  0
 62 56  2  0
 63 58  2  0
 64 57  1  0
 65 55  1  0
 67 69  2  0
 68 67  1  0
 70 68  1  0
 71 80  2  0
 71 76  1  0
 72 68  1  0
 72 76  1  0
 73 72  1  0
 74 75  1  0
 74 73  1  0
 75 71  1  0
 76 77  2  0
 77 78  1  0
 79 78  2  0
 80 79  1  0
 81 55  1  0
 81 82  1  0
 81 91  1  0
 82 85  1  0
 83 87  1  0
 83 82  1  0
 84 83  2  0
 87 86  1  0
 89 87  1  0
 89 90  1  0
 89 88  1  0
 91 94  1  1
 91 92  1  0
 93 91  1  0
M  ISO  4  11 100  19 100  53 101  54 101
M  END
>  <TORSDO>  (52) 
F 22

>  <SCORE>  (52) 
-13.110

>  <name>  (52) 
52

>  <ligand_id>  (52) 
52

>  <original_smiles>  (52) 
[H]c1c([H])c([H])c2c(c1[H])C([H])([H])C([H])([H])C([H])([H])C2([H])N([H])C(=O)C1([H])N(C(=O)C([H])(N([H])C(=O)C([H])(N([H])C([H])([H])[H])C([H])([H])[H])C(C([H])([H])[H])(C([H])([H])[H])C([H])([H])[H])C([H])([H])c2c([H])c(OC([H])([H])C([H])([H])OC([H])([H])C([H])([H])[N+]3([H])C([H])([H])C([H])([H])N(C(=O)C([H])([H])N([H])C(=O)N4C([H])([H])C([H])([H])C([H])([H])C([H])(n5nc(-c6c([H])c([H])c(Oc7c([H])c([H])c(F)c([H])c7F)c([H])c6[H])c(C(=O)N([H])[H])c5N([H])[H])C4([H])[H])C([H])([H])C3([H])[H])c([H])c([H])c2C1([H])[H]

>  <smiles>  (52) 
[H]c1c([H])c([H])c2c(c1[H])C([H])([H])C([H])([H])C([H])([H])C2([H])N([H])C(=O)C1([H])N(C(=O)C([H])(N([H])C(=O)C([H])(N([H])C([H])([H])[H])C([H])([H])[H])C(C([H])([H])[H])(C([H])([H])[H])C([H])([H])[H])C([H])([H])c2c([H])c(OC([H])([H])C([H])([H])OC([H])([H])C([H])([H])[N+]3([H])C([H])([H])C([H])([H])N(C(=O)C([H])([H])N([H])C(=O)N4C([H])([H])C([H])([H])C([H])([H])C([H])(n5nc(-c6c([H])c([H])c(Oc7c([H])c([H])c(F)c([H])c7F)c([H])c6[H])c(C(=O)N([H])[H])c5N([H])[H])C4([H])[H])C([H])([H])C3([H])[H])c([H])c([H])c2C1([H])[H]

$$$$
53:0:0
     RDKit          3D

 94101  0  0  1  0  0  0  0  0999 V2000
  -27.4950  -22.7940   22.1310 C   0  0  0  0  0  0  0  0  0  0  0  0
  -28.0690  -23.4710   21.1370 N   0  0  0  0  0  0  0  0  0  0  0  0
  -27.4150  -23.2430   23.2770 O   0  0  0  0  0  0  0  0  0  0  0  0
  -28.1570  -23.0140   20.2380 H   0  0  0  0  0  0  0  0  0  0  0  0
  -26.9180  -21.4230   21.7940 C   0  0  0  0  0  2  0  0  0  0  0  0
  -27.5370  -20.4530   22.6270 O   0  0  0  0  0  0  0  0  0  0  0  0
  -26.8480  -19.2170   22.5920 C   0  0  0  0  0  2  0  0  0  0  0  0
  -27.6020  -18.2160   23.4680 C   0  0  0  0  0  2  0  0  0  0  0  0
  -29.5000  -16.6980   23.0570 C   0  0  0  0  0  0  0  0  0  0  0  0
  -28.8430  -17.8310   22.8120 N   0  0  0  0  0  0  0  0  0  0  0  0
  -29.1630  -15.9120   23.9500 O   0  0  0  0  0  0  0  0  0  0  0  0
  -29.1680  -18.4220   22.0620 H   0  0  0  0  0  0  0  0  0  0  0  0
  -30.6720  -16.3490   22.1390 C   0  0  0  0  0  2  0  0  0  0  0  0
  -30.8120  -14.3160   20.7110 C   0  0  0  0  0  0  0  0  0  0  0  0
  -30.4140  -12.2860   19.3730 C   0  0  0  0  0  2  0  0  0  0  0  0
  -29.4730  -12.5570   18.1870 C   0  0  0  0  0  2  0  0  0  0  0  0
  -27.9990  -12.4140   18.6070 C   0  0  0  0  0  2  0  0  0  0  0  0
  -27.6760  -13.2070   19.9010 C   0  0  0  0  0  3  0  0  0  0  0  0
  -28.7210  -12.9450   21.0130 C   0  0  0  0  0  2  0  0  0  0  0  0
  -30.0770  -13.1980   20.4750 N   0  0  0  0  0  0  0  0  0  0  0  0
  -31.7240  -14.7130   19.9800 O   0  0  0  0  0  0  0  0  0  0  0  0
  -30.5270  -14.9300   21.8600 N   0  0  0  0  0  0  0  0  0  0  0  0
  -29.8750  -14.4670   22.4790 H   0  0  0  0  0  0  0  0  0  0  0  0
  -25.2630  -13.8160   20.5700 C   0  0  0  0  0  0  0  0  0  0  0  0
  -24.1870  -13.0420   20.9220 C   0  0  0  0  0  0  0  0  0  0  0  0
  -24.6450  -11.6890   20.8750 C   0  0  0  0  0  0  0  0  0  0  0  0
  -26.3110  -12.9340   20.3520 N   0  0  0  0  0  0  0  0  0  0  0  0
  -25.9370  -11.6490   20.5830 N   0  0  0  0  0  0  0  0  0  0  0  0
  -23.9090  -10.4300   21.0390 C   0  0  0  0  0  0  0  0  0  0  0  0
  -24.3680   -9.4210   21.9110 C   0  0  0  0  0  3  0  0  0  0  0  0
  -23.6330   -8.2260   22.0740 C   0  0  0  0  0  3  0  0  0  0  0  0
  -22.4300   -8.0310   21.3540 C   0  0  0  0  0  0  0  0  0  0  0  0
  -21.9930   -9.0300   20.4650 C   0  0  0  0  0  3  0  0  0  0  0  0
  -22.7250  -10.2170   20.3070 C   0  0  0  0  0  3  0  0  0  0  0  0
  -21.6670   -6.8910   21.4240 O   0  0  0  0  0  0  0  0  0  0  0  0
  -21.6890   -6.0760   22.5270 C   0  0  0  0  0  0  0  0  0  0  0  0
  -21.4030   -6.5660   23.8200 C   0  0  0  0  0  3  0  0  0  0  0  0
  -21.3680   -5.6810   24.9150 C   0  0  0  0  0  3  0  0  0  0  0  0
  -21.6070   -4.3070   24.7210 C   0  0  0  0  0  0  0  0  0  0  0  0
  -21.8820   -3.8160   23.4340 C   0  0  0  0  0  3  0  0  0  0  0  0
  -21.9210   -4.6980   22.3390 C   0  0  0  0  0  0  0  0  0  0  0  0
  -22.1640   -4.2140   21.0970 F   0  0  0  0  0  0  0  0  0  0  0  0
  -21.5670   -3.4570   25.7730 F   0  0  0  0  0  0  0  0  0  0  0  0
  -22.7890  -13.5220   21.1860 C   0  0  0  0  0  0  0  0  0  0  0  0
  -22.0540  -12.8220   22.0480 N   0  0  0  0  0  0  0  0  0  0  0  0
  -22.3530  -14.5480   20.6700 O   0  0  0  0  0  0  0  0  0  0  0  0
  -22.4210  -11.9980   22.4980 H   0  0  0  0  0  0  0  0  0  0  0  0
  -21.1100  -13.1140   22.2590 H   0  0  0  0  0  0  0  0  0  0  0  0
  -25.4420  -15.1860   20.4090 N   0  0  0  0  0  0  0  0  0  0  0  0
  -24.6860  -15.8550   20.4990 H   0  0  0  0  0  0  0  0  0  0  0  0
  -26.3160  -15.6070   20.1190 H   0  0  0  0  0  0  0  0  0  0  0  0
  -28.4610  -24.8650   21.2380 C   0  0  0  0  0  2  0  0  0  0  0  0
  -28.5930  -25.4830   19.8460 C   0  0  0  0  0  2  0  0  0  0  0  0
  -28.4970  -26.8900   19.9910 O   0  0  0  0  0  0  0  0  0  0  0  0
  -24.6120  -31.8710   23.2120 C   0  0  0  0  0  0  0  0  0  0  0  0
  -27.2600  -27.4950   20.0620 C   0  0  0  0  0  0  0  0  0  0  0  0
  -23.3960  -30.4970   21.5530 C   0  0  0  0  0  3  0  0  0  0  0  0
  -24.8430  -28.9590   20.1310 C   0  0  0  0  0  0  0  0  0  0  0  0
  -25.9230  -30.8490   21.3600 C   0  0  0  0  0  2  0  0  0  0  0  0
  -26.0020  -29.4880   20.7080 C   0  0  0  0  0  0  0  0  0  0  0  0
  -27.2100  -28.7650   20.6700 C   0  0  0  0  0  3  0  0  0  0  0  0
  -26.0700  -26.9530   19.5180 C   0  0  0  0  0  3  0  0  0  0  0  0
  -24.8640  -27.6800   19.5510 C   0  0  0  0  0  3  0  0  0  0  0  0
  -23.6070  -29.8280   20.1700 C   0  0  0  0  0  2  0  0  0  0  0  0
  -24.6610  -31.0860   22.0990 N   0  0  0  0  0  0  0  0  0  0  0  0
  -23.5320  -32.1410   23.7560 O   0  0  0  0  0  0  0  0  0  0  0  0
  -22.7370  -29.4680   22.4980 C   0  0  0  0  0  0  0  0  0  0  0  0
  -21.4120  -29.3030   22.3690 N   0  0  0  0  0  0  0  0  0  0  0  0
  -23.4160  -28.8210   23.2990 O   0  0  0  0  0  0  0  0  0  0  0  0
  -20.9250  -29.8770   21.6950 H   0  0  0  0  0  0  0  0  0  0  0  0
  -18.0260  -28.1370   22.8460 C   0  0  0  0  0  0  0  0  0  0  0  0
  -20.5850  -28.3650   23.1270 C   0  0  0  0  0  3  0  0  0  0  0  0
  -20.6740  -26.9380   22.5390 C   0  0  0  0  0  2  0  0  0  0  0  0
  -19.5740  -26.6370   21.5170 C   0  0  0  0  0  2  0  0  0  0  0  0
  -18.1910  -26.7910   22.1580 C   0  0  0  0  0  2  0  0  0  0  0  0
  -19.1520  -28.8820   23.2870 C   0  0  0  0  0  0  0  0  0  0  0  0
  -18.9450  -30.1400   23.8910 C   0  0  0  0  0  3  0  0  0  0  0  0
  -17.6460  -30.6570   24.0540 C   0  0  0  0  0  3  0  0  0  0  0  0
  -16.5340  -29.9070   23.6320 C   0  0  0  0  0  3  0  0  0  0  0  0
  -16.7250  -28.6490   23.0340 C   0  0  0  0  0  3  0  0  0  0  0  0
  -25.9030  -32.4820   23.8400 C   0  0  0  0  0  3  0  0  0  0  0  0
  -25.5910  -33.8610   24.2330 N   0  0  0  0  0  0  0  0  0  0  0  0
  -25.9030  -34.9470   23.5130 C   0  0  0  0  0  0  0  0  0  0  0  0
  -26.5580  -34.8930   22.4680 O   0  0  0  0  0  0  0  0  0  0  0  0
  -25.0140  -33.9790   25.0530 H   0  0  0  0  0  0  0  0  0  0  0  0
  -24.1480  -36.7300   23.2640 C   0  0  0  0  0  1  0  0  0  0  0  0
  -25.4090  -36.3100   24.0350 C   0  0  0  0  0  3  0  0  0  0  0  0
  -27.5570  -37.1800   24.8480 C   0  0  0  0  0  1  0  0  0  0  0  0
  -26.4280  -37.3780   23.9430 N   0  0  0  0  0  0  0  0  0  0  0  0
  -26.0170  -38.2860   24.1410 H   0  0  0  0  0  0  0  0  0  0  0  0
  -26.4470  -31.6590   25.0700 C   0  0  1  0  0  0  0  0  0  0  0  0
  -25.3750  -31.3700   26.1460 C   0  0  0  0  0  1  0  0  0  0  0  0
  -27.0320  -30.3030   24.6070 C   0  0  0  0  0  1  0  0  0  0  0  0
  -27.6050  -32.4300   25.7470 C   0  0  0  0  0  1  0  0  0  0  0  0
  1  3  2  0
  2 52  1  0
  2  1  1  0
  4  2  1  0
  5  1  1  0
  5  6  1  0
  7  6  1  0
  7  8  1  0
  9 11  2  0
 10  9  1  0
 10  8  1  0
 12 10  1  0
 13  9  1  0
 14 22  1  0
 15 20  1  0
 16 17  1  0
 16 15  1  0
 18 17  1  0
 18 27  1  0
 18 19  1  0
 20 14  1  0
 20 19  1  0
 21 14  2  0
 22 13  1  0
 22 23  1  0
 24 25  2  0
 25 44  1  0
 26 25  1  0
 26 29  1  0
 27 24  1  0
 27 28  1  0
 28 26  2  0
 29 30  1  0
 30 31  2  0
 32 35  1  0
 32 31  1  0
 33 32  2  0
 34 33  1  0
 34 29  2  0
 35 36  1  0
 36 37  1  0
 37 38  2  0
 39 38  1  0
 39 43  1  0
 40 39  2  0
 41 36  2  0
 41 40  1  0
 42 41  1  0
 44 45  1  0
 45 48  1  0
 45 47  1  0
 46 44  2  0
 49 50  1  0
 49 24  1  0
 51 49  1  0
 53 54  1  0
 53 52  1  0
 54 56  1  0
 55 66  2  0
 56 61  1  0
 57 65  1  0
 57 67  1  0
 58 64  1  0
 58 60  1  0
 59 65  1  0
 60 59  1  0
 61 60  2  0
 62 63  1  0
 62 56  2  0
 63 58  2  0
 64 57  1  0
 65 55  1  0
 67 69  2  0
 68 67  1  0
 70 68  1  0
 71 80  2  0
 71 76  1  0
 72 68  1  0
 72 76  1  0
 73 72  1  0
 74 75  1  0
 74 73  1  0
 75 71  1  0
 76 77  2  0
 77 78  1  0
 79 78  2  0
 80 79  1  0
 81 55  1  0
 81 82  1  0
 81 91  1  0
 82 85  1  0
 83 87  1  0
 83 82  1  0
 84 83  2  0
 87 86  1  0
 89 87  1  0
 89 90  1  0
 89 88  1  0
 91 94  1  1
 91 92  1  0
 93 91  1  0
M  ISO  4  14 100  22 100  53 101  54 101
M  END
>  <TORSDO>  (53) 
F 24

>  <SCORE>  (53) 
22.195

>  <name>  (53) 
53

>  <ligand_id>  (53) 
53

>  <original_smiles>  (53) 
[H]c1c([H])c([H])c2c(c1[H])C([H])([H])C([H])([H])C([H])([H])C2([H])N([H])C(=O)C1([H])N(C(=O)C([H])(N([H])C(=O)C([H])(N([H])C([H])([H])[H])C([H])([H])[H])C(C([H])([H])[H])(C([H])([H])[H])C([H])([H])[H])C([H])([H])c2c([H])c(OC([H])([H])C([H])([H])N([H])C(=O)C([H])([H])OC([H])([H])C([H])([H])N([H])C(=O)C([H])([H])N([H])C(=O)N3C([H])([H])C([H])([H])C([H])([H])C([H])(n4nc(-c5c([H])c([H])c(Oc6c([H])c([H])c(F)c([H])c6F)c([H])c5[H])c(C(=O)N([H])[H])c4N([H])[H])C3([H])[H])c([H])c([H])c2C1([H])[H]

>  <smiles>  (53) 
[H]c1c([H])c([H])c2c(c1[H])C([H])([H])C([H])([H])C([H])([H])C2([H])N([H])C(=O)C1([H])N(C(=O)C([H])(N([H])C(=O)C([H])(N([H])C([H])([H])[H])C([H])([H])[H])C(C([H])([H])[H])(C([H])([H])[H])C([H])([H])[H])C([H])([H])c2c([H])c(OC([H])([H])C([H])([H])N([H])C(=O)C([H])([H])OC([H])([H])C([H])([H])N([H])C(=O)C([H])([H])N([H])C(=O)N3C([H])([H])C([H])([H])C([H])([H])C([H])(n4nc(-c5c([H])c([H])c(Oc6c([H])c([H])c(F)c([H])c6F)c([H])c5[H])c(C(=O)N([H])[H])c4N([H])[H])C3([H])[H])c([H])c([H])c2C1([H])[H]

$$$$
54:0:0
     RDKit          3D

 84 91  0  0  1  0  0  0  0  0999 V2000
  -28.0360  -24.2690   20.5090 C   0  0  0  0  0  2  0  0  0  0  0  0
  -28.2220  -25.8810   20.2090 O   0  0  0  0  0  0  0  0  0  0  0  0
  -24.6160  -31.8370   23.1800 C   0  0  0  0  0  0  0  0  0  0  0  0
  -27.1870  -26.9520   20.2070 C   0  0  0  0  0  0  0  0  0  0  0  0
  -23.4240  -30.4230   21.5540 C   0  0  0  0  0  3  0  0  0  0  0  0
  -24.8760  -28.8110   20.1480 C   0  0  0  0  0  0  0  0  0  0  0  0
  -25.9900  -30.6480   21.3990 C   0  0  0  0  0  2  0  0  0  0  0  0
  -26.0650  -29.2330   20.7580 C   0  0  0  0  0  0  0  0  0  0  0  0
  -27.2180  -28.3250   20.7560 C   0  0  0  0  0  3  0  0  0  0  0  0
  -25.9650  -26.6750   19.5560 C   0  0  0  0  0  3  0  0  0  0  0  0
  -24.8500  -27.5530   19.5260 C   0  0  0  0  0  3  0  0  0  0  0  0
  -23.6540  -29.7270   20.1840 C   0  0  0  0  0  2  0  0  0  0  0  0
  -24.6980  -30.9970   22.0980 N   0  0  0  0  0  0  0  0  0  0  0  0
  -23.5260  -32.1260   23.7010 O   0  0  0  0  0  0  0  0  0  0  0  0
  -22.7360  -29.4330   22.5290 C   0  0  0  0  0  0  0  0  0  0  0  0
  -21.4040  -29.2710   22.4160 N   0  0  0  0  0  0  0  0  0  0  0  0
  -23.4070  -28.8080   23.3540 O   0  0  0  0  0  0  0  0  0  0  0  0
  -20.9170  -29.8260   21.7270 H   0  0  0  0  0  0  0  0  0  0  0  0
  -18.0230  -28.0690   22.9520 C   0  0  0  0  0  0  0  0  0  0  0  0
  -20.5850  -28.3390   23.1970 C   0  0  0  0  0  3  0  0  0  0  0  0
  -20.6840  -26.9040   22.6300 C   0  0  0  0  0  2  0  0  0  0  0  0
  -19.5750  -26.5740   21.6240 C   0  0  0  0  0  2  0  0  0  0  0  0
  -18.1970  -26.7180   22.2770 C   0  0  0  0  0  2  0  0  0  0  0  0
  -19.1440  -28.8370   23.3690 C   0  0  0  0  0  0  0  0  0  0  0  0
  -18.9240  -30.0980   23.9630 C   0  0  0  0  0  3  0  0  0  0  0  0
  -17.6200  -30.5940   24.1420 C   0  0  0  0  0  3  0  0  0  0  0  0
  -16.5140  -29.8250   23.7380 C   0  0  0  0  0  3  0  0  0  0  0  0
  -16.7170  -28.5640   23.1490 C   0  0  0  0  0  3  0  0  0  0  0  0
  -25.8860  -32.4890   23.8060 C   0  0  0  0  0  3  0  0  0  0  0  0
  -26.4090  -31.7230   25.0840 C   0  0  1  0  0  0  0  0  0  0  0  0
  -25.3200  -31.4800   26.1550 C   0  0  0  0  0  1  0  0  0  0  0  0
  -27.0000  -30.3470   24.6990 C   0  0  0  0  0  1  0  0  0  0  0  0
  -27.5570  -32.5240   25.7410 C   0  0  0  0  0  1  0  0  0  0  0  0
  -25.5550  -33.8830   24.1530 N   0  0  0  0  0  0  0  0  0  0  0  0
  -25.8660  -34.9530   23.4100 C   0  0  0  0  0  0  0  0  0  0  0  0
  -26.5250  -34.8730   22.3700 O   0  0  0  0  0  0  0  0  0  0  0  0
  -24.9660  -34.0180   24.9610 H   0  0  0  0  0  0  0  0  0  0  0  0
  -24.1090  -36.7340   23.1180 C   0  0  0  0  0  1  0  0  0  0  0  0
  -25.3720  -36.3320   23.8960 C   0  0  0  0  0  3  0  0  0  0  0  0
  -27.5150  -37.2360   24.6870 C   0  0  0  0  0  1  0  0  0  0  0  0
  -26.3890  -37.4000   23.7720 N   0  0  0  0  0  0  0  0  0  0  0  0
  -25.9750  -38.3130   23.9390 H   0  0  0  0  0  0  0  0  0  0  0  0
  -28.7190  -22.6990   19.9240 C   0  0  0  0  0  2  0  0  0  0  0  0
  -28.9900  -21.2170   20.5850 O   0  0  0  0  0  0  0  0  0  0  0  0
  -29.0780  -19.6810   19.9990 C   0  0  0  0  0  2  0  0  0  0  0  0
  -29.8810  -18.1670   20.5600 C   0  0  0  0  0  2  0  0  0  0  0  0
  -30.3820  -15.2640   20.2540 C   0  0  0  0  0  0  0  0  0  0  0  0
  -30.3490  -12.8260   19.3660 C   0  0  0  0  0  2  0  0  0  0  0  0
  -29.4210  -12.6110   18.1440 C   0  0  0  0  0  2  0  0  0  0  0  0
  -27.9740  -12.3490   18.5940 C   0  0  0  0  0  2  0  0  0  0  0  0
  -27.5290  -13.3180   19.7180 C   0  0  0  0  0  3  0  0  0  0  0  0
  -28.5830  -13.4670   20.8330 C   0  0  0  0  0  2  0  0  0  0  0  0
  -29.8060  -13.9670   20.1860 N   0  0  0  0  0  0  0  0  0  0  0  0
  -31.6080  -15.2630   20.0800 O   0  0  0  0  0  0  0  0  0  0  0  0
  -29.6180  -16.5330   20.3180 N   0  0  0  0  0  0  0  0  0  0  0  0
  -28.6290  -16.3280   20.3210 H   0  0  0  0  0  0  0  0  0  0  0  0
  -25.1610  -13.8840   20.4750 C   0  0  0  0  0  0  0  0  0  0  0  0
  -24.0990  -13.1090   20.8510 C   0  0  0  0  0  0  0  0  0  0  0  0
  -24.5680  -11.7590   20.8280 C   0  0  0  0  0  0  0  0  0  0  0  0
  -26.2030  -13.0060   20.2350 N   0  0  0  0  0  0  0  0  0  0  0  0
  -25.8590  -11.7220   20.5170 N   0  0  0  0  0  0  0  0  0  0  0  0
  -23.8400  -10.4970   21.0260 C   0  0  0  0  0  0  0  0  0  0  0  0
  -24.2820   -9.5240   21.9500 C   0  0  0  0  0  3  0  0  0  0  0  0
  -23.5520   -8.3310   22.1370 C   0  0  0  0  0  3  0  0  0  0  0  0
  -22.3660   -8.1010   21.4000 C   0  0  0  0  0  0  0  0  0  0  0  0
  -21.9430   -9.0620   20.4650 C   0  0  0  0  0  3  0  0  0  0  0  0
  -22.6730  -10.2470   20.2760 C   0  0  0  0  0  3  0  0  0  0  0  0
  -21.6060   -6.9600   21.4960 O   0  0  0  0  0  0  0  0  0  0  0  0
  -21.5890   -6.2020   22.6400 C   0  0  0  0  0  0  0  0  0  0  0  0
  -21.2240   -6.7480   23.8900 C   0  0  0  0  0  3  0  0  0  0  0  0
  -21.1520   -5.9180   25.0260 C   0  0  0  0  0  3  0  0  0  0  0  0
  -21.4340   -4.5440   24.9150 C   0  0  0  0  0  0  0  0  0  0  0  0
  -21.7920   -3.9970   23.6700 C   0  0  0  0  0  3  0  0  0  0  0  0
  -21.8660   -4.8250   22.5350 C   0  0  0  0  0  0  0  0  0  0  0  0
  -22.1910   -4.2890   21.3340 F   0  0  0  0  0  0  0  0  0  0  0  0
  -21.3580   -3.7440   26.0040 F   0  0  0  0  0  0  0  0  0  0  0  0
  -22.7020  -13.5880   21.1150 C   0  0  0  0  0  0  0  0  0  0  0  0
  -21.9740  -12.9020   21.9880 N   0  0  0  0  0  0  0  0  0  0  0  0
  -22.2660  -14.6070   20.5800 O   0  0  0  0  0  0  0  0  0  0  0  0
  -22.3410  -12.0790   22.4420 H   0  0  0  0  0  0  0  0  0  0  0  0
  -21.0360  -13.2060   22.2080 H   0  0  0  0  0  0  0  0  0  0  0  0
  -25.3200  -15.2530   20.2870 N   0  0  0  0  0  0  0  0  0  0  0  0
  -24.5470  -15.9020   20.3920 H   0  0  0  0  0  0  0  0  0  0  0  0
  -26.1550  -15.6900   19.9190 H   0  0  0  0  0  0  0  0  0  0  0  0
  2  1  1  0
  3 14  2  0
  4  2  1  0
  4  9  1  0
  5 13  1  0
  5 15  1  0
  6 12  1  0
  6  8  1  0
  7 13  1  0
  8  7  1  0
  9  8  2  0
 10  4  2  0
 11 10  1  0
 11  6  2  0
 12  5  1  0
 13  3  1  0
 15 17  2  0
 16 15  1  0
 18 16  1  0
 19 28  2  0
 19 24  1  0
 20 16  1  0
 20 24  1  0
 21 20  1  0
 22 23  1  0
 22 21  1  0
 23 19  1  0
 24 25  2  0
 25 26  1  0
 27 26  2  0
 28 27  1  0
 29  3  1  0
 29 34  1  0
 29 30  1  0
 30 33  1  1
 30 31  1  0
 32 30  1  0
 34 37  1  0
 35 39  1  0
 35 34  1  0
 36 35  2  0
 39 38  1  0
 41 39  1  0
 41 42  1  0
 41 40  1  0
 43  1  1  0
 43 44  1  0
 45 46  1  0
 45 44  1  0
 47 55  1  0
 48 53  1  0
 49 50  1  0
 49 48  1  0
 51 50  1  0
 51 60  1  0
 51 52  1  0
 53 47  1  0
 53 52  1  0
 54 47  2  0
 55 56  1  0
 55 46  1  0
 57 58  2  0
 58 77  1  0
 59 58  1  0
 59 62  1  0
 60 57  1  0
 60 61  1  0
 61 59  2  0
 62 63  1  0
 63 64  2  0
 65 68  1  0
 65 64  1  0
 66 65  2  0
 67 66  1  0
 67 62  2  0
 68 69  1  0
 69 70  1  0
 70 71  2  0
 72 71  1  0
 72 76  1  0
 73 72  2  0
 74 69  2  0
 74 73  1  0
 75 74  1  0
 77 78  1  0
 78 81  1  0
 78 80  1  0
 79 77  2  0
 82 83  1  0
 82 57  1  0
 84 82  1  0
M  ISO  4   1 101   2 101  47 100  55 100
M  END
>  <TORSDO>  (54) 
F 20

>  <SCORE>  (54) 
-15.761

>  <name>  (54) 
54

>  <ligand_id>  (54) 
54

>  <original_smiles>  (54) 
[H]c1c([H])c([H])c2c(c1[H])C([H])([H])C([H])([H])C([H])([H])C2([H])N([H])C(=O)C1([H])N(C(=O)C([H])(N([H])C(=O)C([H])(N([H])C([H])([H])[H])C([H])([H])[H])C(C([H])([H])[H])(C([H])([H])[H])C([H])([H])[H])C([H])([H])c2c([H])c(OC([H])([H])C([H])([H])OC([H])([H])C([H])([H])N([H])C(=O)N3C([H])([H])C([H])([H])C([H])([H])C([H])(n4nc(-c5c([H])c([H])c(Oc6c([H])c([H])c(F)c([H])c6F)c([H])c5[H])c(C(=O)N([H])[H])c4N([H])[H])C3([H])[H])c([H])c([H])c2C1([H])[H]

>  <smiles>  (54) 
[H]c1c([H])c([H])c2c(c1[H])C([H])([H])C([H])([H])C([H])([H])C2([H])N([H])C(=O)C1([H])N(C(=O)C([H])(N([H])C(=O)C([H])(N([H])C([H])([H])[H])C([H])([H])[H])C(C([H])([H])[H])(C([H])([H])[H])C([H])([H])[H])C([H])([H])c2c([H])c(OC([H])([H])C([H])([H])OC([H])([H])C([H])([H])N([H])C(=O)N3C([H])([H])C([H])([H])C([H])([H])C([H])(n4nc(-c5c([H])c([H])c(Oc6c([H])c([H])c(F)c([H])c6F)c([H])c5[H])c(C(=O)N([H])[H])c4N([H])[H])C3([H])[H])c([H])c([H])c2C1([H])[H]

$$$$
55:0:0
     RDKit          3D

 94101  0  0  1  0  0  0  0  0999 V2000
  -27.6960  -20.2690   20.4070 C   0  0  0  0  0  0  0  0  0  0  0  0
  -27.8120  -21.5430   20.0090 N   0  0  0  0  0  0  0  0  0  0  0  0
  -26.6190  -19.6660   20.4260 O   0  0  0  0  0  0  0  0  0  0  0  0
  -28.7440  -21.9350   20.0340 H   0  0  0  0  0  0  0  0  0  0  0  0
  -28.9910  -19.6000   20.8780 C   0  0  0  0  0  2  0  0  0  0  0  0
  -29.8590  -19.4130   19.7510 O   0  0  0  0  0  0  0  0  0  0  0  0
  -31.0850  -18.7220   20.0140 C   0  0  0  0  0  2  0  0  0  0  0  0
  -30.8460  -17.2080   20.1960 C   0  0  0  0  0  0  0  0  0  0  0  0
  -31.8730  -16.3560   20.0440 N   0  0  0  0  0  0  0  0  0  0  0  0
  -29.7180  -16.7820   20.4680 O   0  0  0  0  0  0  0  0  0  0  0  0
  -32.8480  -16.5720   19.8700 H   0  0  0  0  0  0  0  0  0  0  0  0
  -31.9280  -14.0260   19.4100 C   0  0  0  0  0  0  0  0  0  0  0  0
  -31.4620  -11.6730   18.8100 C   0  0  0  0  0  2  0  0  0  0  0  0
  -30.4090  -11.5420   17.6900 C   0  0  0  0  0  2  0  0  0  0  0  0
  -28.9830  -11.5600   18.2690 C   0  0  0  0  0  2  0  0  0  0  0  0
  -28.7530  -12.7610   19.2250 C   0  0  0  0  0  3  0  0  0  0  0  0
  -29.8870  -12.8270   20.2710 C   0  0  0  0  0  2  0  0  0  0  0  0
  -31.1880  -12.9000   19.5710 N   0  0  0  0  0  0  0  0  0  0  0  0
  -32.8510  -14.1400   18.5940 O   0  0  0  0  0  0  0  0  0  0  0  0
  -31.6210  -14.9880   20.2860 N   0  0  0  0  0  0  0  0  0  0  0  0
  -30.7840  -14.8960   20.8430 H   0  0  0  0  0  0  0  0  0  0  0  0
  -26.6070  -13.7340   20.2820 C   0  0  0  0  0  0  0  0  0  0  0  0
  -25.4640  -13.1420   20.7410 C   0  0  0  0  0  0  0  0  0  0  0  0
  -25.6510  -11.7340   20.5650 C   0  0  0  0  0  0  0  0  0  0  0  0
  -27.4360  -12.7030   19.8600 N   0  0  0  0  0  0  0  0  0  0  0  0
  -26.8660  -11.4910   20.0870 N   0  0  0  0  0  0  0  0  0  0  0  0
  -24.7300  -10.6120   20.7840 C   0  0  0  0  0  0  0  0  0  0  0  0
  -25.0450   -9.5620   21.6750 C   0  0  0  0  0  3  0  0  0  0  0  0
  -24.1380   -8.4990   21.8800 C   0  0  0  0  0  3  0  0  0  0  0  0
  -22.8990   -8.4810   21.1930 C   0  0  0  0  0  0  0  0  0  0  0  0
  -22.6000   -9.5200   20.2940 C   0  0  0  0  0  3  0  0  0  0  0  0
  -23.5060  -10.5730   20.0880 C   0  0  0  0  0  3  0  0  0  0  0  0
  -21.9660   -7.4760   21.3060 O   0  0  0  0  0  0  0  0  0  0  0  0
  -21.7990   -6.7820   22.4750 C   0  0  0  0  0  0  0  0  0  0  0  0
  -21.4520   -7.4280   23.6820 C   0  0  0  0  0  3  0  0  0  0  0  0
  -21.2180   -6.6660   24.8440 C   0  0  0  0  0  3  0  0  0  0  0  0
  -21.3250   -5.2630   24.8010 C   0  0  0  0  0  0  0  0  0  0  0  0
  -21.6670   -4.6200   23.6000 C   0  0  0  0  0  3  0  0  0  0  0  0
  -21.9020   -5.3770   22.4390 C   0  0  0  0  0  0  0  0  0  0  0  0
  -22.2100   -4.7510   21.2770 F   0  0  0  0  0  0  0  0  0  0  0  0
  -21.0940   -4.5310   25.9170 F   0  0  0  0  0  0  0  0  0  0  0  0
  -24.2250  -13.8350   21.2340 C   0  0  0  0  0  0  0  0  0  0  0  0
  -23.5110  -13.2230   22.1710 N   0  0  0  0  0  0  0  0  0  0  0  0
  -23.9060  -14.9490   20.8120 O   0  0  0  0  0  0  0  0  0  0  0  0
  -23.7820  -12.3200   22.5320 H   0  0  0  0  0  0  0  0  0  0  0  0
  -22.6820  -13.6670   22.5370 H   0  0  0  0  0  0  0  0  0  0  0  0
  -27.0100  -15.0620   20.1790 N   0  0  0  0  0  0  0  0  0  0  0  0
  -26.4420  -15.8220   20.5310 H   0  0  0  0  0  0  0  0  0  0  0  0
  -27.9450  -15.3520   19.9190 H   0  0  0  0  0  0  0  0  0  0  0  0
  -26.7090  -22.4350   19.6600 C   0  0  0  0  0  2  0  0  0  0  0  0
  -27.1060  -23.5080   18.6300 C   0  0  0  0  0  2  0  0  0  0  0  0
  -28.0240  -24.6170   19.1880 C   0  0  0  0  0  2  0  0  0  0  0  0
  -28.2560  -25.7600   18.1820 C   0  0  0  0  0  2  0  0  0  0  0  0
  -28.2010  -27.0220   18.8490 O   0  0  0  0  0  0  0  0  0  0  0  0
  -24.4100  -31.3150   23.0640 C   0  0  0  0  0  0  0  0  0  0  0  0
  -26.9650  -27.5940   19.0980 C   0  0  0  0  0  0  0  0  0  0  0  0
  -23.1150  -30.0860   21.3570 C   0  0  0  0  0  3  0  0  0  0  0  0
  -24.4900  -28.8840   19.5860 C   0  0  0  0  0  0  0  0  0  0  0  0
  -25.5760  -30.6530   20.9690 C   0  0  0  0  0  2  0  0  0  0  0  0
  -25.6710  -29.3980   20.1330 C   0  0  0  0  0  0  0  0  0  0  0  0
  -26.9070  -28.7570   19.8960 C   0  0  0  0  0  3  0  0  0  0  0  0
  -25.7530  -27.0790   18.5760 C   0  0  0  0  0  3  0  0  0  0  0  0
  -24.5250  -27.7170   18.8080 C   0  0  0  0  0  3  0  0  0  0  0  0
  -23.2150  -29.6390   19.8760 C   0  0  0  0  0  2  0  0  0  0  0  0
  -24.3890  -30.6910   21.8540 N   0  0  0  0  0  0  0  0  0  0  0  0
  -23.3800  -31.4230   23.7450 O   0  0  0  0  0  0  0  0  0  0  0  0
  -22.6290  -28.8860   22.2060 C   0  0  0  0  0  0  0  0  0  0  0  0
  -21.3410  -28.5250   22.0670 N   0  0  0  0  0  0  0  0  0  0  0  0
  -23.4070  -28.2940   22.9580 O   0  0  0  0  0  0  0  0  0  0  0  0
  -20.7480  -29.0750   21.4610 H   0  0  0  0  0  0  0  0  0  0  0  0
  -18.2570  -26.6640   22.2860 C   0  0  0  0  0  0  0  0  0  0  0  0
  -20.6880  -27.4070   22.7490 C   0  0  0  0  0  3  0  0  0  0  0  0
  -21.1030  -26.0460   22.1410 C   0  0  0  0  0  2  0  0  0  0  0  0
  -20.1640  -25.5700   21.0280 C   0  0  0  0  0  2  0  0  0  0  0  0
  -18.7370  -25.4170   21.5620 C   0  0  0  0  0  2  0  0  0  0  0  0
  -19.1710  -27.6050   22.8300 C   0  0  0  0  0  0  0  0  0  0  0  0
  -18.6660  -28.7640   23.4560 C   0  0  0  0  0  3  0  0  0  0  0  0
  -17.2780  -28.9920   23.5390 C   0  0  0  0  0  3  0  0  0  0  0  0
  -16.3790  -28.0500   23.0120 C   0  0  0  0  0  3  0  0  0  0  0  0
  -16.8690  -26.8870   22.3920 C   0  0  0  0  0  3  0  0  0  0  0  0
  -25.7170  -31.9500   23.6350 C   0  0  0  0  0  3  0  0  0  0  0  0
  -25.3970  -33.3170   24.0620 N   0  0  0  0  0  0  0  0  0  0  0  0
  -25.6990  -34.4200   23.3610 C   0  0  0  0  0  0  0  0  0  0  0  0
  -26.3520  -34.3880   22.3140 O   0  0  0  0  0  0  0  0  0  0  0  0
  -24.8310  -33.4100   24.8940 H   0  0  0  0  0  0  0  0  0  0  0  0
  -23.9750  -36.2300   23.1100 C   0  0  0  0  0  1  0  0  0  0  0  0
  -25.2050  -35.7710   23.9110 C   0  0  0  0  0  3  0  0  0  0  0  0
  -27.3310  -36.6000   24.8220 C   0  0  0  0  0  1  0  0  0  0  0  0
  -26.2350  -36.8300   23.8840 N   0  0  0  0  0  0  0  0  0  0  0  0
  -25.8250  -37.7380   24.0880 H   0  0  0  0  0  0  0  0  0  0  0  0
  -26.3310  -31.1250   24.8300 C   0  0  1  0  0  0  0  0  0  0  0  0
  -25.3140  -30.8040   25.9540 C   0  0  0  0  0  1  0  0  0  0  0  0
  -26.9180  -29.7850   24.3220 C   0  0  0  0  0  1  0  0  0  0  0  0
  -27.5090  -31.9100   25.4540 C   0  0  0  0  0  1  0  0  0  0  0  0
  1  3  2  0
  1  5  1  0
  2  4  1  0
  2  1  1  0
  6  7  1  0
  6  5  1  0
  7  8  1  0
  8 10  2  0
  9  8  1  0
  9 20  1  0
 11  9  1  0
 12 18  1  0
 12 20  1  0
 13 18  1  0
 14 15  1  0
 14 13  1  0
 16 15  1  0
 16 25  1  0
 16 17  1  0
 18 17  1  0
 19 12  2  0
 20 21  1  0
 22 23  2  0
 23 42  1  0
 24 23  1  0
 24 27  1  0
 25 26  1  0
 25 22  1  0
 26 24  2  0
 27 28  1  0
 28 29  2  0
 30 33  1  0
 30 29  1  0
 31 30  2  0
 32 31  1  0
 32 27  2  0
 33 34  1  0
 34 35  1  0
 35 36  2  0
 37 36  1  0
 37 41  1  0
 38 37  2  0
 39 34  2  0
 39 38  1  0
 40 39  1  0
 42 43  1  0
 43 45  1  0
 43 46  1  0
 44 42  2  0
 47 22  1  0
 47 48  1  0
 49 47  1  0
 50  2  1  0
 51 52  1  0
 51 50  1  0
 53 54  1  0
 53 52  1  0
 54 56  1  0
 55 66  2  0
 56 61  1  0
 57 65  1  0
 57 67  1  0
 58 64  1  0
 58 60  1  0
 59 65  1  0
 60 59  1  0
 61 60  2  0
 62 63  1  0
 62 56  2  0
 63 58  2  0
 64 57  1  0
 65 55  1  0
 67 69  2  0
 68 67  1  0
 70 68  1  0
 71 80  2  0
 71 76  1  0
 72 68  1  0
 72 76  1  0
 73 72  1  0
 74 75  1  0
 74 73  1  0
 75 71  1  0
 76 77  2  0
 77 78  1  0
 79 78  2  0
 80 79  1  0
 81 55  1  0
 81 82  1  0
 81 91  1  0
 82 85  1  0
 83 87  1  0
 83 82  1  0
 84 83  2  0
 87 86  1  0
 89 87  1  0
 89 90  1  0
 89 88  1  0
 91 94  1  1
 91 92  1  0
 93 91  1  0
M  ISO  4  12 100  20 100  53 101  54 101
M  END
>  <TORSDO>  (55) 
F 24

>  <SCORE>  (55) 
-8.843

>  <name>  (55) 
55

>  <ligand_id>  (55) 
55

>  <original_smiles>  (55) 
[H]c1c([H])c([H])c2c(c1[H])C([H])([H])C([H])([H])C([H])([H])C2([H])N([H])C(=O)C1([H])N(C(=O)C([H])(N([H])C(=O)C([H])(N([H])C([H])([H])[H])C([H])([H])[H])C(C([H])([H])[H])(C([H])([H])[H])C([H])([H])[H])C([H])([H])c2c([H])c(OC([H])([H])C([H])([H])C([H])([H])C([H])([H])N([H])C(=O)C([H])([H])OC([H])([H])C(=O)N([H])N([H])C(=O)N3C([H])([H])C([H])([H])C([H])([H])C([H])(n4nc(-c5c([H])c([H])c(Oc6c([H])c([H])c(F)c([H])c6F)c([H])c5[H])c(C(=O)N([H])[H])c4N([H])[H])C3([H])[H])c([H])c([H])c2C1([H])[H]

>  <smiles>  (55) 
[H]c1c([H])c([H])c2c(c1[H])C([H])([H])C([H])([H])C([H])([H])C2([H])N([H])C(=O)C1([H])N(C(=O)C([H])(N([H])C(=O)C([H])(N([H])C([H])([H])[H])C([H])([H])[H])C(C([H])([H])[H])(C([H])([H])[H])C([H])([H])[H])C([H])([H])c2c([H])c(OC([H])([H])C([H])([H])C([H])([H])C([H])([H])N([H])C(=O)C([H])([H])OC([H])([H])C(=O)N([H])N([H])C(=O)N3C([H])([H])C([H])([H])C([H])([H])C([H])(n4nc(-c5c([H])c([H])c(Oc6c([H])c([H])c(F)c([H])c6F)c([H])c5[H])c(C(=O)N([H])[H])c4N([H])[H])C3([H])[H])c([H])c([H])c2C1([H])[H]

$$$$
56:0:0
     RDKit          3D

 96103  0  0  1  0  0  0  0  0999 V2000
  -25.8160  -21.1650   18.2310 C   0  0  0  0  0  2  0  0  0  0  0  0
  -26.7390  -21.7640   17.1570 C   0  0  0  0  0  2  0  0  0  0  0  0
  -26.9990  -23.1360   17.4260 O   0  0  0  0  0  0  0  0  0  0  0  0
  -27.9590  -23.6840   16.5290 C   0  0  0  0  0  2  0  0  0  0  0  0
  -28.1090  -25.1930   16.7600 C   0  0  0  0  0  2  0  0  0  0  0  0
  -28.7750  -25.4330   17.9930 O   0  0  0  0  0  0  0  0  0  0  0  0
  -29.0500  -26.8140   18.2020 C   0  0  0  0  0  2  0  0  0  0  0  0
  -29.4940  -27.0380   19.6590 C   0  0  0  0  0  2  0  0  0  0  0  0
  -28.4880  -26.6250   20.5810 O   0  0  0  0  0  0  0  0  0  0  0  0
  -24.5890  -31.8970   23.3590 C   0  0  0  0  0  0  0  0  0  0  0  0
  -27.3350  -27.3630   20.5440 C   0  0  0  0  0  0  0  0  0  0  0  0
  -23.4370  -30.4330   21.7300 C   0  0  0  0  0  3  0  0  0  0  0  0
  -24.9370  -28.8340   20.4260 C   0  0  0  0  0  0  0  0  0  0  0  0
  -25.9660  -30.7890   21.6050 C   0  0  0  0  0  2  0  0  0  0  0  0
  -26.0730  -29.3940   21.0280 C   0  0  0  0  0  0  0  0  0  0  0  0
  -27.2770  -28.6640   21.0870 C   0  0  0  0  0  3  0  0  0  0  0  0
  -26.1810  -26.7970   19.9670 C   0  0  0  0  0  3  0  0  0  0  0  0
  -24.9820  -27.5310   19.8990 C   0  0  0  0  0  3  0  0  0  0  0  0
  -23.6940  -29.6920   20.3900 C   0  0  0  0  0  2  0  0  0  0  0  0
  -24.6800  -31.0560   22.2910 N   0  0  0  0  0  0  0  0  0  0  0  0
  -23.4910  -32.1930   23.8500 O   0  0  0  0  0  0  0  0  0  0  0  0
  -22.7490  -29.4540   22.7070 C   0  0  0  0  0  0  0  0  0  0  0  0
  -21.4300  -29.2680   22.5350 N   0  0  0  0  0  0  0  0  0  0  0  0
  -23.3990  -28.8620   23.5730 O   0  0  0  0  0  0  0  0  0  0  0  0
  -20.9670  -29.7940   21.8070 H   0  0  0  0  0  0  0  0  0  0  0  0
  -18.0370  -28.0990   22.9500 C   0  0  0  0  0  0  0  0  0  0  0  0
  -20.5820  -28.3630   23.3110 C   0  0  0  0  0  3  0  0  0  0  0  0
  -20.7040  -26.9100   22.7980 C   0  0  0  0  0  2  0  0  0  0  0  0
  -19.6410  -26.5470   21.7560 C   0  0  0  0  0  2  0  0  0  0  0  0
  -18.2360  -26.7220   22.3370 C   0  0  0  0  0  2  0  0  0  0  0  0
  -19.1400  -28.8760   23.3910 C   0  0  0  0  0  0  0  0  0  0  0  0
  -18.9020  -30.1650   23.9170 C   0  0  0  0  0  3  0  0  0  0  0  0
  -17.5950  -30.6760   24.0090 C   0  0  0  0  0  3  0  0  0  0  0  0
  -16.5050  -29.8950   23.5840 C   0  0  0  0  0  3  0  0  0  0  0  0
  -16.7270  -28.6090   23.0610 C   0  0  0  0  0  3  0  0  0  0  0  0
  -25.8550  -32.5480   23.9990 C   0  0  0  0  0  3  0  0  0  0  0  0
  -25.5380  -33.9550   24.2760 N   0  0  0  0  0  0  0  0  0  0  0  0
  -25.8910  -34.9820   23.4920 C   0  0  0  0  0  0  0  0  0  0  0  0
  -26.5910  -34.8460   22.4830 O   0  0  0  0  0  0  0  0  0  0  0  0
  -24.9240  -34.1360   25.0560 H   0  0  0  0  0  0  0  0  0  0  0  0
  -24.1690  -36.7550   23.0320 C   0  0  0  0  0  1  0  0  0  0  0  0
  -25.3900  -36.3830   23.8880 C   0  0  0  0  0  3  0  0  0  0  0  0
  -27.5020  -37.3000   24.7390 C   0  0  0  0  0  1  0  0  0  0  0  0
  -26.4230  -37.4340   23.7650 N   0  0  0  0  0  0  0  0  0  0  0  0
  -26.0110  -38.3570   23.8740 H   0  0  0  0  0  0  0  0  0  0  0  0
  -26.3360  -31.8180   25.3130 C   0  0  1  0  0  0  0  0  0  0  0  0
  -25.2120  -31.6020   26.3530 C   0  0  0  0  0  1  0  0  0  0  0  0
  -26.9440  -30.4350   24.9770 C   0  0  0  0  0  1  0  0  0  0  0  0
  -27.4600  -32.6410   25.9870 C   0  0  0  0  0  1  0  0  0  0  0  0
  -26.3910  -21.1750   19.6610 C   0  0  0  0  0  2  0  0  0  0  0  0
  -28.0070  -19.2710   19.7380 C   0  0  0  0  0  0  0  0  0  0  0  0
  -27.7230  -20.5800   19.7500 N   0  0  0  0  0  0  0  0  0  0  0  0
  -27.1400  -18.3990   19.6540 O   0  0  0  0  0  0  0  0  0  0  0  0
  -28.5020  -21.2200   19.8410 H   0  0  0  0  0  0  0  0  0  0  0  0
  -29.4880  -18.8950   19.8410 C   0  0  0  0  0  2  0  0  0  0  0  0
  -29.6450  -17.8010   20.7390 O   0  0  0  0  0  0  0  0  0  0  0  0
  -31.0130  -17.4850   20.9540 C   0  0  0  0  0  2  0  0  0  0  0  0
  -31.1180  -16.3130   21.9440 C   0  0  0  0  0  2  0  0  0  0  0  0
  -30.8450  -14.3410   20.4580 C   0  0  0  0  0  0  0  0  0  0  0  0
  -30.4230  -12.2980   19.1480 C   0  0  0  0  0  2  0  0  0  0  0  0
  -29.4770  -12.5730   17.9640 C   0  0  0  0  0  2  0  0  0  0  0  0
  -28.0060  -12.4520   18.4040 C   0  0  0  0  0  2  0  0  0  0  0  0
  -27.7020  -13.2620   19.6910 C   0  0  0  0  0  3  0  0  0  0  0  0
  -28.7510  -12.9690   20.7850 C   0  0  0  0  0  2  0  0  0  0  0  0
  -30.0920  -13.2350   20.2300 N   0  0  0  0  0  0  0  0  0  0  0  0
  -31.8670  -14.6130   19.8240 O   0  0  0  0  0  0  0  0  0  0  0  0
  -30.4300  -15.1170   21.4640 N   0  0  0  0  0  0  0  0  0  0  0  0
  -29.5850  -14.8420   21.9410 H   0  0  0  0  0  0  0  0  0  0  0  0
  -25.3030  -13.9030   20.3780 C   0  0  0  0  0  0  0  0  0  0  0  0
  -24.2270  -13.1440   20.7550 C   0  0  0  0  0  0  0  0  0  0  0  0
  -24.6770  -11.7890   20.7470 C   0  0  0  0  0  0  0  0  0  0  0  0
  -26.3420  -13.0100   20.1660 N   0  0  0  0  0  0  0  0  0  0  0  0
  -25.9670  -11.7340   20.4430 N   0  0  0  0  0  0  0  0  0  0  0  0
  -23.9410  -10.5350   20.9560 C   0  0  0  0  0  0  0  0  0  0  0  0
  -24.3690   -9.5740   21.8980 C   0  0  0  0  0  3  0  0  0  0  0  0
  -23.6340   -8.3850   22.0920 C   0  0  0  0  0  3  0  0  0  0  0  0
  -22.4560   -8.1490   21.3450 C   0  0  0  0  0  0  0  0  0  0  0  0
  -22.0470   -9.0980   20.3920 C   0  0  0  0  0  3  0  0  0  0  0  0
  -22.7820  -10.2780   20.1960 C   0  0  0  0  0  3  0  0  0  0  0  0
  -21.6920   -7.0110   21.4490 O   0  0  0  0  0  0  0  0  0  0  0  0
  -21.6480   -6.2770   22.6070 C   0  0  0  0  0  0  0  0  0  0  0  0
  -21.2570   -6.8470   23.8370 C   0  0  0  0  0  3  0  0  0  0  0  0
  -21.1580   -6.0400   24.9880 C   0  0  0  0  0  3  0  0  0  0  0  0
  -21.4410   -4.6640   24.9100 C   0  0  0  0  0  0  0  0  0  0  0  0
  -21.8270   -4.0930   23.6850 C   0  0  0  0  0  3  0  0  0  0  0  0
  -21.9270   -4.8960   22.5350 C   0  0  0  0  0  0  0  0  0  0  0  0
  -22.2790   -4.3370   21.3520 F   0  0  0  0  0  0  0  0  0  0  0  0
  -21.3400   -3.8860   26.0130 F   0  0  0  0  0  0  0  0  0  0  0  0
  -22.8330  -13.6360   21.0190 C   0  0  0  0  0  0  0  0  0  0  0  0
  -22.1010  -12.9600   21.8970 N   0  0  0  0  0  0  0  0  0  0  0  0
  -22.4020  -14.6550   20.4810 O   0  0  0  0  0  0  0  0  0  0  0  0
  -22.4620  -12.1350   22.3530 H   0  0  0  0  0  0  0  0  0  0  0  0
  -21.1660  -13.2720   22.1180 H   0  0  0  0  0  0  0  0  0  0  0  0
  -25.4780  -15.2680   20.1830 N   0  0  0  0  0  0  0  0  0  0  0  0
  -24.7200  -15.9320   20.2940 H   0  0  0  0  0  0  0  0  0  0  0  0
  -26.3400  -15.7100   19.8860 H   0  0  0  0  0  0  0  0  0  0  0  0
  1 50  1  0
  2  3  1  0
  2  1  1  0
  4  5  1  0
  4  3  1  0
  5  6  1  0
  6  7  1  0
  7  8  1  0
  8  9  1  0
 10 21  2  0
 11  9  1  0
 11 16  1  0
 12 20  1  0
 12 22  1  0
 13 15  1  0
 14 20  1  0
 15 16  2  0
 15 14  1  0
 17 11  2  0
 18 17  1  0
 18 13  2  0
 19 13  1  0
 19 12  1  0
 20 10  1  0
 22 24  2  0
 23 22  1  0
 25 23  1  0
 26 35  2  0
 26 31  1  0
 27 23  1  0
 27 31  1  0
 28 27  1  0
 29 30  1  0
 29 28  1  0
 30 26  1  0
 31 32  2  0
 32 33  1  0
 34 33  2  0
 35 34  1  0
 36 10  1  0
 36 37  1  0
 36 46  1  0
 37 40  1  0
 38 42  1  0
 38 37  1  0
 39 38  2  0
 42 41  1  0
 44 45  1  0
 44 42  1  0
 44 43  1  0
 46 49  1  1
 46 47  1  0
 48 46  1  0
 50 52  1  0
 51 52  1  0
 51 55  1  0
 52 54  1  0
 53 51  2  0
 55 56  1  0
 56 57  1  0
 57 58  1  0
 59 67  1  0
 60 65  1  0
 61 62  1  0
 61 60  1  0
 63 62  1  0
 63 72  1  0
 63 64  1  0
 65 59  1  0
 65 64  1  0
 66 59  2  0
 67 68  1  0
 67 58  1  0
 69 70  2  0
 70 89  1  0
 71 70  1  0
 71 74  1  0
 72 69  1  0
 72 73  1  0
 73 71  2  0
 74 75  1  0
 75 76  2  0
 77 80  1  0
 77 76  1  0
 78 77  2  0
 79 78  1  0
 79 74  2  0
 80 81  1  0
 81 82  1  0
 82 83  2  0
 84 83  1  0
 84 88  1  0
 85 84  2  0
 86 81  2  0
 86 85  1  0
 87 86  1  0
 89 90  1  0
 90 93  1  0
 90 92  1  0
 91 89  2  0
 94 95  1  0
 94 69  1  0
 96 94  1  0
M  ISO  4   8 101   9 101  59 100  67 100
M  END
>  <TORSDO>  (56) 
F 29

>  <SCORE>  (56) 
-10.081

>  <name>  (56) 
56

>  <ligand_id>  (56) 
56

>  <original_smiles>  (56) 
[H]c1c([H])c([H])c2c(c1[H])C([H])([H])C([H])([H])C([H])([H])C2([H])N([H])C(=O)C1([H])N(C(=O)C([H])(N([H])C(=O)C([H])(N([H])C([H])([H])[H])C([H])([H])[H])C(C([H])([H])[H])(C([H])([H])[H])C([H])([H])[H])C([H])([H])c2c([H])c(OC([H])([H])C([H])([H])OC([H])([H])C([H])([H])OC([H])([H])C([H])([H])C([H])([H])N([H])C(=O)C([H])([H])OC([H])([H])C([H])([H])N([H])C(=O)N3C([H])([H])C([H])([H])C([H])([H])C([H])(n4nc(-c5c([H])c([H])c(Oc6c([H])c([H])c(F)c([H])c6F)c([H])c5[H])c(C(=O)N([H])[H])c4N([H])[H])C3([H])[H])c([H])c([H])c2C1([H])[H]

>  <smiles>  (56) 
[H]c1c([H])c([H])c2c(c1[H])C([H])([H])C([H])([H])C([H])([H])C2([H])N([H])C(=O)C1([H])N(C(=O)C([H])(N([H])C(=O)C([H])(N([H])C([H])([H])[H])C([H])([H])[H])C(C([H])([H])[H])(C([H])([H])[H])C([H])([H])[H])C([H])([H])c2c([H])c(OC([H])([H])C([H])([H])OC([H])([H])C([H])([H])OC([H])([H])C([H])([H])C([H])([H])N([H])C(=O)C([H])([H])OC([H])([H])C([H])([H])N([H])C(=O)N3C([H])([H])C([H])([H])C([H])([H])C([H])(n4nc(-c5c([H])c([H])c(Oc6c([H])c([H])c(F)c([H])c6F)c([H])c5[H])c(C(=O)N([H])[H])c4N([H])[H])C3([H])[H])c([H])c([H])c2C1([H])[H]

$$$$
57:0:0
     RDKit          3D

 88 95  0  0  1  0  0  0  0  0999 V2000
  -30.5360  -22.4340   20.8370 C   0  0  0  0  0  2  0  0  0  0  0  0
  -30.7560  -21.1380   20.0300 C   0  0  0  0  0  2  0  0  0  0  0  0
  -30.0460  -20.0080   20.5440 O   0  0  0  0  0  0  0  0  0  0  0  0
  -30.0950  -18.9170   19.6260 C   0  0  0  0  0  2  0  0  0  0  0  0
  -29.4910  -17.6060   20.1730 C   0  0  0  0  0  2  0  0  0  0  0  0
  -30.3670  -16.8330   21.1870 C   0  0  0  0  0  2  0  0  0  0  0  0
  -30.6640  -14.4330   20.5430 C   0  0  0  0  0  0  0  0  0  0  0  0
  -30.3310  -12.3090   19.3390 C   0  0  0  0  0  2  0  0  0  0  0  0
  -29.3820  -12.5460   18.1470 C   0  0  0  0  0  2  0  0  0  0  0  0
  -27.9090  -12.4200   18.5820 C   0  0  0  0  0  2  0  0  0  0  0  0
  -27.5910  -13.2410   19.8600 C   0  0  0  0  0  3  0  0  0  0  0  0
  -28.6470  -12.9760   20.9580 C   0  0  0  0  0  2  0  0  0  0  0  0
  -29.9770  -13.2690   20.3970 N   0  0  0  0  0  0  0  0  0  0  0  0
  -31.7530  -14.6440   20.0010 O   0  0  0  0  0  0  0  0  0  0  0  0
  -30.0160  -15.4050   21.2070 N   0  0  0  0  0  0  0  0  0  0  0  0
  -29.1390  -15.1490   21.6360 H   0  0  0  0  0  0  0  0  0  0  0  0
  -25.1960  -13.8710   20.5660 C   0  0  0  0  0  0  0  0  0  0  0  0
  -24.1220  -13.1070   20.9370 C   0  0  0  0  0  0  0  0  0  0  0  0
  -24.5720  -11.7510   20.9060 C   0  0  0  0  0  0  0  0  0  0  0  0
  -26.2350  -12.9810   20.3380 N   0  0  0  0  0  0  0  0  0  0  0  0
  -25.8610  -11.7020   20.5960 N   0  0  0  0  0  0  0  0  0  0  0  0
  -23.8360  -10.4960   21.0990 C   0  0  0  0  0  0  0  0  0  0  0  0
  -24.2860   -9.5120   22.0070 C   0  0  0  0  0  3  0  0  0  0  0  0
  -23.5540   -8.3190   22.1880 C   0  0  0  0  0  3  0  0  0  0  0  0
  -22.3580   -8.1030   21.4620 C   0  0  0  0  0  0  0  0  0  0  0  0
  -21.9280   -9.0750   20.5440 C   0  0  0  0  0  3  0  0  0  0  0  0
  -22.6590  -10.2600   20.3610 C   0  0  0  0  0  3  0  0  0  0  0  0
  -21.5940   -6.9650   21.5560 O   0  0  0  0  0  0  0  0  0  0  0  0
  -21.5920   -6.1890   22.6880 C   0  0  0  0  0  0  0  0  0  0  0  0
  -21.2570   -6.7180   23.9530 C   0  0  0  0  0  3  0  0  0  0  0  0
  -21.2000   -5.8700   25.0780 C   0  0  0  0  0  3  0  0  0  0  0  0
  -21.4670   -4.4960   24.9390 C   0  0  0  0  0  0  0  0  0  0  0  0
  -21.7940   -3.9660   23.6780 C   0  0  0  0  0  3  0  0  0  0  0  0
  -21.8540   -4.8100   22.5560 C   0  0  0  0  0  0  0  0  0  0  0  0
  -22.1490   -4.2910   21.3400 F   0  0  0  0  0  0  0  0  0  0  0  0
  -21.4030   -3.6800   26.0170 F   0  0  0  0  0  0  0  0  0  0  0  0
  -22.7290  -13.5950   21.2130 C   0  0  0  0  0  0  0  0  0  0  0  0
  -22.0000  -12.9070   22.0850 N   0  0  0  0  0  0  0  0  0  0  0  0
  -22.2960  -14.6210   20.6910 O   0  0  0  0  0  0  0  0  0  0  0  0
  -22.3640  -12.0790   22.5310 H   0  0  0  0  0  0  0  0  0  0  0  0
  -21.0640  -13.2150   22.3100 H   0  0  0  0  0  0  0  0  0  0  0  0
  -25.3730  -15.2390   20.3870 N   0  0  0  0  0  0  0  0  0  0  0  0
  -24.6120  -15.9010   20.4980 H   0  0  0  0  0  0  0  0  0  0  0  0
  -26.2300  -15.6710   20.0650 H   0  0  0  0  0  0  0  0  0  0  0  0
  -29.4510  -23.1800   20.2830 O   0  0  0  0  0  0  0  0  0  0  0  0
  -29.5270  -24.5820   20.5500 C   0  0  0  0  0  2  0  0  0  0  0  0
  -28.2780  -25.2910   19.9950 C   0  0  0  0  0  2  0  0  0  0  0  0
  -28.3690  -26.7110   20.1540 O   0  0  0  0  0  0  0  0  0  0  0  0
  -24.5800  -31.8770   23.2220 C   0  0  0  0  0  0  0  0  0  0  0  0
  -27.1870  -27.4270   20.1300 C   0  0  0  0  0  0  0  0  0  0  0  0
  -23.3530  -30.4720   21.5980 C   0  0  0  0  0  3  0  0  0  0  0  0
  -24.7890  -28.9330   20.1600 C   0  0  0  0  0  0  0  0  0  0  0  0
  -25.8780  -30.8290   21.3710 C   0  0  0  0  0  2  0  0  0  0  0  0
  -25.9540  -29.4570   20.7330 C   0  0  0  0  0  0  0  0  0  0  0  0
  -27.1540  -28.7130   20.7140 C   0  0  0  0  0  3  0  0  0  0  0  0
  -26.0040  -26.9180   19.5450 C   0  0  0  0  0  3  0  0  0  0  0  0
  -24.8090  -27.6610   19.5640 C   0  0  0  0  0  3  0  0  0  0  0  0
  -23.5460  -29.7910   20.2180 C   0  0  0  0  0  2  0  0  0  0  0  0
  -24.6220  -31.0740   22.1220 N   0  0  0  0  0  0  0  0  0  0  0  0
  -23.5050  -32.1510   23.7730 O   0  0  0  0  0  0  0  0  0  0  0  0
  -22.7140  -29.4520   22.5680 C   0  0  0  0  0  0  0  0  0  0  0  0
  -21.3880  -29.2690   22.4550 N   0  0  0  0  0  0  0  0  0  0  0  0
  -23.4060  -28.8290   23.3760 O   0  0  0  0  0  0  0  0  0  0  0  0
  -20.8910  -29.8250   21.7720 H   0  0  0  0  0  0  0  0  0  0  0  0
  -18.0190  -28.0700   22.9750 C   0  0  0  0  0  0  0  0  0  0  0  0
  -20.5770  -28.3350   23.2350 C   0  0  0  0  0  3  0  0  0  0  0  0
  -20.6820  -26.9000   22.6700 C   0  0  0  0  0  2  0  0  0  0  0  0
  -19.5780  -26.5670   21.6620 C   0  0  0  0  0  2  0  0  0  0  0  0
  -18.1970  -26.7150   22.3110 C   0  0  0  0  0  2  0  0  0  0  0  0
  -19.1380  -28.8380   23.3950 C   0  0  0  0  0  0  0  0  0  0  0  0
  -18.9210  -30.1060   23.9740 C   0  0  0  0  0  3  0  0  0  0  0  0
  -17.6160  -30.6080   24.1410 C   0  0  0  0  0  3  0  0  0  0  0  0
  -16.5110  -29.8380   23.7400 C   0  0  0  0  0  3  0  0  0  0  0  0
  -16.7130  -28.5710   23.1620 C   0  0  0  0  0  3  0  0  0  0  0  0
  -25.8730  -32.5100   23.8250 C   0  0  0  0  0  3  0  0  0  0  0  0
  -26.4160  -31.7300   25.0850 C   0  0  1  0  0  0  0  0  0  0  0  0
  -25.3460  -31.4820   26.1730 C   0  0  0  0  0  1  0  0  0  0  0  0
  -26.9950  -30.3580   24.6690 C   0  0  0  0  0  1  0  0  0  0  0  0
  -27.5760  -32.5240   25.7310 C   0  0  0  0  0  1  0  0  0  0  0  0
  -25.5650  -33.9030   24.1680 N   0  0  0  0  0  0  0  0  0  0  0  0
  -25.8810  -34.9600   23.4090 C   0  0  0  0  0  0  0  0  0  0  0  0
  -26.5340  -34.8640   22.3660 O   0  0  0  0  0  0  0  0  0  0  0  0
  -24.9850  -34.0520   24.9810 H   0  0  0  0  0  0  0  0  0  0  0  0
  -24.1340  -36.7440   23.0980 C   0  0  0  0  0  1  0  0  0  0  0  0
  -25.3950  -36.3440   23.8820 C   0  0  0  0  0  3  0  0  0  0  0  0
  -27.5430  -37.2340   24.6680 C   0  0  0  0  0  1  0  0  0  0  0  0
  -26.4180  -37.4040   23.7530 N   0  0  0  0  0  0  0  0  0  0  0  0
  -26.0100  -38.3200   23.9190 H   0  0  0  0  0  0  0  0  0  0  0  0
  2  3  1  0
  2  1  1  0
  4  5  1  0
  4  3  1  0
  5  6  1  0
  6 15  1  0
  7 15  1  0
  8 13  1  0
  9 10  1  0
  9  8  1  0
 11 10  1  0
 11 20  1  0
 11 12  1  0
 13  7  1  0
 13 12  1  0
 14  7  2  0
 15 16  1  0
 17 18  2  0
 18 37  1  0
 19 18  1  0
 19 22  1  0
 20 17  1  0
 20 21  1  0
 21 19  2  0
 22 23  1  0
 23 24  2  0
 25 28  1  0
 25 24  1  0
 26 25  2  0
 27 26  1  0
 27 22  2  0
 28 29  1  0
 29 30  1  0
 30 31  2  0
 32 31  1  0
 32 36  1  0
 33 32  2  0
 34 29  2  0
 34 33  1  0
 35 34  1  0
 37 38  1  0
 38 41  1  0
 38 40  1  0
 39 37  2  0
 42 43  1  0
 42 17  1  0
 44 42  1  0
 45 46  1  0
 45  1  1  0
 47 48  1  0
 47 46  1  0
 49 60  2  0
 50 48  1  0
 50 55  1  0
 51 59  1  0
 51 61  1  0
 52 58  1  0
 52 54  1  0
 53 59  1  0
 54 53  1  0
 55 54  2  0
 56 57  1  0
 56 50  2  0
 57 52  2  0
 58 51  1  0
 59 49  1  0
 61 63  2  0
 62 61  1  0
 64 62  1  0
 65 74  2  0
 65 70  1  0
 66 62  1  0
 66 70  1  0
 67 66  1  0
 68 69  1  0
 68 67  1  0
 69 65  1  0
 70 71  2  0
 71 72  1  0
 73 72  2  0
 74 73  1  0
 75 49  1  0
 75 80  1  0
 75 76  1  0
 76 79  1  1
 76 77  1  0
 78 76  1  0
 80 83  1  0
 81 85  1  0
 81 80  1  0
 82 81  2  0
 85 84  1  0
 87 85  1  0
 87 88  1  0
 87 86  1  0
M  ISO  4   7 100  15 100  47 101  48 101
M  END
>  <TORSDO>  (57) 
F 24

>  <SCORE>  (57) 
-12.331

>  <name>  (57) 
57

>  <ligand_id>  (57) 
57

>  <original_smiles>  (57) 
[H]c1c([H])c([H])c2c(c1[H])C([H])([H])C([H])([H])C([H])([H])C2([H])N([H])C(=O)C1([H])N(C(=O)C([H])(N([H])C(=O)C([H])(N([H])C([H])([H])[H])C([H])([H])[H])C(C([H])([H])[H])(C([H])([H])[H])C([H])([H])[H])C([H])([H])c2c([H])c(OC([H])([H])C([H])([H])OC([H])([H])C([H])([H])OC([H])([H])C([H])([H])C([H])([H])N([H])C(=O)N3C([H])([H])C([H])([H])C([H])([H])C([H])(n4nc(-c5c([H])c([H])c(Oc6c([H])c([H])c(F)c([H])c6F)c([H])c5[H])c(C(=O)N([H])[H])c4N([H])[H])C3([H])[H])c([H])c([H])c2C1([H])[H]

>  <smiles>  (57) 
[H]c1c([H])c([H])c2c(c1[H])C([H])([H])C([H])([H])C([H])([H])C2([H])N([H])C(=O)C1([H])N(C(=O)C([H])(N([H])C(=O)C([H])(N([H])C([H])([H])[H])C([H])([H])[H])C(C([H])([H])[H])(C([H])([H])[H])C([H])([H])[H])C([H])([H])c2c([H])c(OC([H])([H])C([H])([H])OC([H])([H])C([H])([H])OC([H])([H])C([H])([H])C([H])([H])N([H])C(=O)N3C([H])([H])C([H])([H])C([H])([H])C([H])(n4nc(-c5c([H])c([H])c(Oc6c([H])c([H])c(F)c([H])c6F)c([H])c5[H])c(C(=O)N([H])[H])c4N([H])[H])C3([H])[H])c([H])c([H])c2C1([H])[H]

$$$$
58:0:0
     RDKit          3D

106113  0  0  1  0  0  0  0  0999 V2000
  -30.1120  -26.6460   23.5900 C   0  0  0  0  0  2  0  0  0  0  0  0
  -29.6980  -27.7590   24.5650 C   0  0  0  0  0  2  0  0  0  0  0  0
  -30.6340  -28.9780   24.5830 C   0  0  0  0  0  2  0  0  0  0  0  0
  -30.5730  -29.8180   23.2930 C   0  0  0  0  0  2  0  0  0  0  0  0
  -31.1630  -31.2280   23.4770 C   0  0  0  0  0  2  0  0  0  0  0  0
  -31.0370  -32.1340   22.2370 C   0  0  0  0  0  2  0  0  0  0  0  0
  -32.0310  -31.8320   21.1050 C   0  0  0  0  0  2  0  0  0  0  0  0
  -31.7430  -30.5680   20.5330 O   0  0  0  0  0  0  0  0  0  0  0  0
  -32.4530  -30.3430   19.3230 C   0  0  0  0  0  2  0  0  0  0  0  0
  -32.1770  -28.9100   18.8630 C   0  0  0  0  0  2  0  0  0  0  0  0
  -30.8110  -28.8000   18.4830 O   0  0  0  0  0  0  0  0  0  0  0  0
  -30.3070  -27.4780   18.5960 C   0  0  0  0  0  2  0  0  0  0  0  0
  -30.0550  -27.1180   20.0770 C   0  0  0  0  0  2  0  0  0  0  0  0
  -28.8150  -26.4380   20.2560 O   0  0  0  0  0  0  0  0  0  0  0  0
  -24.7800  -31.5560   23.2170 C   0  0  0  0  0  0  0  0  0  0  0  0
  -27.6720  -27.1990   20.2700 C   0  0  0  0  0  0  0  0  0  0  0  0
  -23.7110  -30.1940   21.4490 C   0  0  0  0  0  3  0  0  0  0  0  0
  -25.2720  -28.6730   20.1290 C   0  0  0  0  0  0  0  0  0  0  0  0
  -26.2400  -30.5530   21.4670 C   0  0  0  0  0  2  0  0  0  0  0  0
  -26.3740  -29.1940   20.8170 C   0  0  0  0  0  0  0  0  0  0  0  0
  -27.5770  -28.4640   20.8920 C   0  0  0  0  0  3  0  0  0  0  0  0
  -26.5450  -26.6710   19.6080 C   0  0  0  0  0  3  0  0  0  0  0  0
  -25.3480  -27.4050   19.5250 C   0  0  0  0  0  3  0  0  0  0  0  0
  -24.0300  -29.5330   20.0820 C   0  0  0  0  0  2  0  0  0  0  0  0
  -24.9230  -30.7800   22.1050 N   0  0  0  0  0  0  0  0  0  0  0  0
  -23.6580  -31.8240   23.6690 O   0  0  0  0  0  0  0  0  0  0  0  0
  -22.9750  -29.1610   22.3300 C   0  0  0  0  0  0  0  0  0  0  0  0
  -21.6450  -29.0830   22.1700 N   0  0  0  0  0  0  0  0  0  0  0  0
  -23.5990  -28.4370   23.1120 O   0  0  0  0  0  0  0  0  0  0  0  0
  -21.2090  -29.7180   21.5130 H   0  0  0  0  0  0  0  0  0  0  0  0
  -18.1720  -28.2180   22.6580 C   0  0  0  0  0  0  0  0  0  0  0  0
  -20.7480  -28.1560   22.8590 C   0  0  0  0  0  3  0  0  0  0  0  0
  -20.6710  -26.8000   22.1220 C   0  0  0  0  0  2  0  0  0  0  0  0
  -19.5140  -26.7220   21.1210 C   0  0  0  0  0  2  0  0  0  0  0  0
  -18.1750  -26.9440   21.8310 C   0  0  0  0  0  2  0  0  0  0  0  0
  -19.3810  -28.7950   23.1290 C   0  0  0  0  0  0  0  0  0  0  0  0
  -19.3240  -29.9990   23.8640 C   0  0  0  0  0  3  0  0  0  0  0  0
  -18.0900  -30.6200   24.1350 C   0  0  0  0  0  3  0  0  0  0  0  0
  -16.8950  -30.0360   23.6790 C   0  0  0  0  0  3  0  0  0  0  0  0
  -16.9370  -28.8370   22.9470 C   0  0  0  0  0  3  0  0  0  0  0  0
  -26.0130  -32.1600   23.9580 C   0  0  0  0  0  3  0  0  0  0  0  0
  -26.4360  -31.3360   25.2350 C   0  0  1  0  0  0  0  0  0  0  0  0
  -25.2880  -31.1170   26.2450 C   0  0  0  0  0  1  0  0  0  0  0  0
  -26.9640  -29.9450   24.8270 C   0  0  0  0  0  1  0  0  0  0  0  0
  -27.5900  -32.0550   25.9720 C   0  0  0  0  0  1  0  0  0  0  0  0
  -25.6730  -33.5420   24.3210 N   0  0  0  0  0  0  0  0  0  0  0  0
  -26.0580  -34.6250   23.6330 C   0  0  0  0  0  0  0  0  0  0  0  0
  -26.8020  -34.5660   22.6500 O   0  0  0  0  0  0  0  0  0  0  0  0
  -25.0050  -33.6630   25.0680 H   0  0  0  0  0  0  0  0  0  0  0  0
  -24.3400  -36.4170   23.2360 C   0  0  0  0  0  1  0  0  0  0  0  0
  -25.5300  -35.9920   24.1100 C   0  0  0  0  0  3  0  0  0  0  0  0
  -27.6000  -36.8490   25.1140 C   0  0  0  0  0  1  0  0  0  0  0  0
  -26.5600  -37.0540   24.1100 N   0  0  0  0  0  0  0  0  0  0  0  0
  -26.1390  -37.9650   24.2720 H   0  0  0  0  0  0  0  0  0  0  0  0
  -28.9610  -25.6570   23.3510 C   0  0  0  0  0  2  0  0  0  0  0  0
  -29.3050  -24.5450   22.3500 C   0  0  0  0  0  2  0  0  0  0  0  0
  -28.0490  -23.8210   21.8380 C   0  0  0  0  0  2  0  0  0  0  0  0
  -28.3140  -22.9880   20.5760 C   0  0  0  0  0  2  0  0  0  0  0  0
  -27.0490  -22.2920   20.0390 C   0  0  0  0  0  2  0  0  0  0  0  0
  -27.2410  -21.6520   18.6520 C   0  0  0  0  0  2  0  0  0  0  0  0
  -28.3090  -19.4310   19.0060 C   0  0  0  0  0  0  0  0  0  0  0  0
  -28.3610  -20.7170   18.6430 N   0  0  0  0  0  0  0  0  0  0  0  0
  -27.2570  -18.8540   19.2870 O   0  0  0  0  0  0  0  0  0  0  0  0
  -29.2670  -21.0970   18.4050 H   0  0  0  0  0  0  0  0  0  0  0  0
  -29.6500  -18.7010   19.0890 C   0  0  0  0  0  2  0  0  0  0  0  0
  -29.7330  -17.7150   20.2700 C   0  0  0  0  0  2  0  0  0  0  0  0
  -31.1890  -17.3800   20.6380 C   0  0  0  0  0  2  0  0  0  0  0  0
  -31.3170  -16.3110   21.7410 C   0  0  0  0  0  2  0  0  0  0  0  0
  -31.0960  -14.2690   20.3360 C   0  0  0  0  0  0  0  0  0  0  0  0
  -30.6250  -12.2420   19.0190 C   0  0  0  0  0  2  0  0  0  0  0  0
  -29.6460  -12.5390   17.8700 C   0  0  0  0  0  2  0  0  0  0  0  0
  -28.1880  -12.4230   18.3530 C   0  0  0  0  0  2  0  0  0  0  0  0
  -27.9280  -13.2210   19.6580 C   0  0  0  0  0  3  0  0  0  0  0  0
  -29.0090  -12.9050   20.7150 C   0  0  0  0  0  2  0  0  0  0  0  0
  -30.3350  -13.1670   20.1230 N   0  0  0  0  0  0  0  0  0  0  0  0
  -32.0960  -14.5460   19.6670 O   0  0  0  0  0  0  0  0  0  0  0  0
  -30.7000  -15.0470   21.3500 N   0  0  0  0  0  0  0  0  0  0  0  0
  -29.8930  -14.7380   21.8720 H   0  0  0  0  0  0  0  0  0  0  0  0
  -25.5850  -13.8780   20.5030 C   0  0  0  0  0  0  0  0  0  0  0  0
  -24.5010  -13.1250   20.8680 C   0  0  0  0  0  0  0  0  0  0  0  0
  -24.9020  -11.7620   20.7280 C   0  0  0  0  0  0  0  0  0  0  0  0
  -26.5820  -12.9720   20.1730 N   0  0  0  0  0  0  0  0  0  0  0  0
  -26.1740  -11.6910   20.3610 N   0  0  0  0  0  0  0  0  0  0  0  0
  -24.1310  -10.5180   20.8680 C   0  0  0  0  0  0  0  0  0  0  0  0
  -24.5580   -9.4770   21.7210 C   0  0  0  0  0  3  0  0  0  0  0  0
  -23.7910   -8.3000   21.8510 C   0  0  0  0  0  3  0  0  0  0  0  0
  -22.5820   -8.1550   21.1290 C   0  0  0  0  0  0  0  0  0  0  0  0
  -22.1730   -9.1860   20.2650 C   0  0  0  0  0  3  0  0  0  0  0  0
  -22.9410  -10.3550   20.1310 C   0  0  0  0  0  3  0  0  0  0  0  0
  -21.7860   -7.0370   21.1740 O   0  0  0  0  0  0  0  0  0  0  0  0
  -21.7320   -6.2350   22.2860 C   0  0  0  0  0  0  0  0  0  0  0  0
  -21.3620   -6.7400   23.5520 C   0  0  0  0  0  3  0  0  0  0  0  0
  -21.2530   -5.8670   24.6530 C   0  0  0  0  0  3  0  0  0  0  0  0
  -21.5030   -4.4920   24.4890 C   0  0  0  0  0  0  0  0  0  0  0  0
  -21.8670   -3.9870   23.2290 C   0  0  0  0  0  3  0  0  0  0  0  0
  -21.9790   -4.8560   22.1300 C   0  0  0  0  0  0  0  0  0  0  0  0
  -22.3080   -4.3610   20.9120 F   0  0  0  0  0  0  0  0  0  0  0  0
  -21.3910   -3.6520   25.5450 F   0  0  0  0  0  0  0  0  0  0  0  0
  -23.1370  -13.6380   21.2350 C   0  0  0  0  0  0  0  0  0  0  0  0
  -22.4230  -12.9190   22.0960 N   0  0  0  0  0  0  0  0  0  0  0  0
  -22.7160  -14.7070   20.7970 O   0  0  0  0  0  0  0  0  0  0  0  0
  -22.7780  -12.0520   22.4720 H   0  0  0  0  0  0  0  0  0  0  0  0
  -21.5110  -13.2420   22.3830 H   0  0  0  0  0  0  0  0  0  0  0  0
  -25.8010  -15.2480   20.4100 N   0  0  0  0  0  0  0  0  0  0  0  0
  -25.0740  -15.9280   20.6080 H   0  0  0  0  0  0  0  0  0  0  0  0
  -26.6660  -15.6780   20.1060 H   0  0  0  0  0  0  0  0  0  0  0  0
  1  2  1  0
  2  3  1  0
  4  5  1  0
  4  3  1  0
  6  5  1  0
  7  6  1  0
  8  7  1  0
  9  8  1  0
 10  9  1  0
 11 12  1  0
 11 10  1  0
 12 13  1  0
 13 14  1  0
 14 16  1  0
 15 26  2  0
 16 21  1  0
 17 25  1  0
 17 27  1  0
 18 20  1  0
 19 25  1  0
 20 21  2  0
 20 19  1  0
 22 16  2  0
 23 22  1  0
 23 18  2  0
 24 18  1  0
 24 17  1  0
 25 15  1  0
 27 29  2  0
 28 27  1  0
 30 28  1  0
 31 40  2  0
 31 36  1  0
 32 28  1  0
 32 36  1  0
 33 32  1  0
 34 35  1  0
 34 33  1  0
 35 31  1  0
 36 37  2  0
 37 38  1  0
 39 38  2  0
 40 39  1  0
 41 15  1  0
 41 46  1  0
 41 42  1  0
 42 45  1  1
 42 43  1  0
 44 42  1  0
 46 49  1  0
 47 51  1  0
 47 46  1  0
 48 47  2  0
 51 50  1  0
 51 53  1  0
 53 54  1  0
 53 52  1  0
 55  1  1  0
 56 55  1  0
 57 56  1  0
 58 57  1  0
 59 58  1  0
 60 59  1  0
 61 65  1  0
 61 63  2  0
 62 60  1  0
 62 61  1  0
 64 62  1  0
 65 66  1  0
 66 67  1  0
 67 68  1  0
 69 77  1  0
 70 75  1  0
 71 72  1  0
 71 70  1  0
 73 72  1  0
 73 82  1  0
 73 74  1  0
 75 69  1  0
 75 74  1  0
 76 69  2  0
 77 68  1  0
 77 78  1  0
 79 80  2  0
 80 99  1  0
 81 80  1  0
 81 84  1  0
 82 83  1  0
 82 79  1  0
 83 81  2  0
 84 85  1  0
 85 86  2  0
 87 90  1  0
 87 86  1  0
 88 87  2  0
 89 88  1  0
 89 84  2  0
 90 91  1  0
 91 92  1  0
 92 93  2  0
 94 93  1  0
 94 98  1  0
 95 94  2  0
 96 91  2  0
 96 95  1  0
 97 96  1  0
 99100  1  0
100103  1  0
100102  1  0
101 99  2  0
104 79  1  0
104105  1  0
106104  1  0
M  ISO  4  13 101  14 101  69 100  77 100
M  END
>  <TORSDO>  (58) 
F 39

>  <SCORE>  (58) 
-7.760

>  <name>  (58) 
58

>  <ligand_id>  (58) 
58

>  <original_smiles>  (58) 
[H]c1c([H])c([H])c2c(c1[H])C([H])([H])C([H])([H])C([H])([H])C2([H])N([H])C(=O)C1([H])N(C(=O)C([H])(N([H])C(=O)C([H])(N([H])C([H])([H])[H])C([H])([H])[H])C(C([H])([H])[H])(C([H])([H])[H])C([H])([H])[H])C([H])([H])c2c([H])c(OC([H])([H])C([H])([H])OC([H])([H])C([H])([H])OC([H])([H])C([H])([H])C([H])([H])C([H])([H])C([H])([H])C([H])([H])C([H])([H])C([H])([H])C([H])([H])C([H])([H])C([H])([H])C([H])([H])C([H])([H])N([H])C(=O)C([H])([H])C([H])([H])C([H])([H])C([H])([H])N([H])C(=O)N3C([H])([H])C([H])([H])C([H])([H])C([H])(n4nc(-c5c([H])c([H])c(Oc6c([H])c([H])c(F)c([H])c6F)c([H])c5[H])c(C(=O)N([H])[H])c4N([H])[H])C3([H])[H])c([H])c([H])c2C1([H])[H]

>  <smiles>  (58) 
[H]c1c([H])c([H])c2c(c1[H])C([H])([H])C([H])([H])C([H])([H])C2([H])N([H])C(=O)C1([H])N(C(=O)C([H])(N([H])C(=O)C([H])(N([H])C([H])([H])[H])C([H])([H])[H])C(C([H])([H])[H])(C([H])([H])[H])C([H])([H])[H])C([H])([H])c2c([H])c(OC([H])([H])C([H])([H])OC([H])([H])C([H])([H])OC([H])([H])C([H])([H])C([H])([H])C([H])([H])C([H])([H])C([H])([H])C([H])([H])C([H])([H])C([H])([H])C([H])([H])C([H])([H])C([H])([H])C([H])([H])N([H])C(=O)C([H])([H])C([H])([H])C([H])([H])C([H])([H])N([H])C(=O)N3C([H])([H])C([H])([H])C([H])([H])C([H])(n4nc(-c5c([H])c([H])c(Oc6c([H])c([H])c(F)c([H])c6F)c([H])c5[H])c(C(=O)N([H])[H])c4N([H])[H])C3([H])[H])c([H])c([H])c2C1([H])[H]

$$$$
59:0:0
     RDKit          3D

 89 97  0  0  1  0  0  0  0  0999 V2000
  -29.3350  -21.5580   20.1680 C   0  0  0  0  0  2  0  0  0  0  0  0
  -28.8380  -20.2520   20.9010 C   0  0  0  0  0  2  0  0  0  0  0  0
  -30.7020  -14.6870   20.0650 C   0  0  0  0  0  0  0  0  0  0  0  0
  -30.3130  -12.4910   18.9760 C   0  0  0  0  0  2  0  0  0  0  0  0
  -29.3180  -12.6160   17.8060 C   0  0  0  0  0  2  0  0  0  0  0  0
  -27.8730  -12.4360   18.3070 C   0  0  0  0  0  2  0  0  0  0  0  0
  -27.5740  -13.2850   19.5680 C   0  0  0  0  0  3  0  0  0  0  0  0
  -28.6990  -13.1630   20.6280 C   0  0  0  0  0  2  0  0  0  0  0  0
  -29.9570  -13.5330   19.9680 N   0  0  0  0  0  0  0  0  0  0  0  0
  -31.8780  -14.6530   19.6890 O   0  0  0  0  0  0  0  0  0  0  0  0
  -28.7610  -16.3670   20.2450 C   0  0  0  0  0  2  0  0  0  0  0  0
  -31.1220  -17.0880   20.3990 C   0  0  0  0  0  2  0  0  0  0  0  0
  -28.3550  -17.8050   20.7130 C   0  0  0  0  0  2  0  0  0  0  0  0
  -30.6400  -18.4780   20.9240 C   0  0  0  0  0  2  0  0  0  0  0  0
  -30.1700  -15.9320   20.4050 N   0  0  0  0  0  0  0  0  0  0  0  0
  -29.3180  -18.8970   20.3980 N   0  0  2  0  0  4  0  0  0  0  0  0
  -29.3830  -18.9490   19.3920 H   0  0  0  0  0  0  0  0  0  0  0  0
  -25.2260  -13.8830   20.4170 C   0  0  0  0  0  0  0  0  0  0  0  0
  -24.1800  -13.1060   20.8300 C   0  0  0  0  0  0  0  0  0  0  0  0
  -24.6400  -11.7550   20.7590 C   0  0  0  0  0  0  0  0  0  0  0  0
  -26.2560  -13.0020   20.1230 N   0  0  0  0  0  0  0  0  0  0  0  0
  -25.9130  -11.7190   20.3910 N   0  0  0  0  0  0  0  0  0  0  0  0
  -23.9240  -10.4910   20.9600 C   0  0  0  0  0  0  0  0  0  0  0  0
  -24.3790   -9.5260   21.8850 C   0  0  0  0  0  3  0  0  0  0  0  0
  -23.6630   -8.3240   22.0750 C   0  0  0  0  0  3  0  0  0  0  0  0
  -22.4790   -8.0810   21.3400 C   0  0  0  0  0  0  0  0  0  0  0  0
  -22.0440   -9.0350   20.4030 C   0  0  0  0  0  3  0  0  0  0  0  0
  -22.7600  -10.2270   20.2110 C   0  0  0  0  0  3  0  0  0  0  0  0
  -21.7320   -6.9330   21.4420 O   0  0  0  0  0  0  0  0  0  0  0  0
  -21.6830   -6.2060   22.6040 C   0  0  0  0  0  0  0  0  0  0  0  0
  -21.2270   -6.7690   23.8160 C   0  0  0  0  0  3  0  0  0  0  0  0
  -21.1290   -5.9680   24.9720 C   0  0  0  0  0  3  0  0  0  0  0  0
  -21.4760   -4.6050   24.9140 C   0  0  0  0  0  0  0  0  0  0  0  0
  -21.9250   -4.0420   23.7070 C   0  0  0  0  0  3  0  0  0  0  0  0
  -22.0260   -4.8410   22.5550 C   0  0  0  0  0  0  0  0  0  0  0  0
  -22.4390   -4.2890   21.3890 F   0  0  0  0  0  0  0  0  0  0  0  0
  -21.3750   -3.8320   26.0210 F   0  0  0  0  0  0  0  0  0  0  0  0
  -22.7970  -13.5800   21.1680 C   0  0  0  0  0  0  0  0  0  0  0  0
  -22.1040  -12.8710   22.0530 N   0  0  0  0  0  0  0  0  0  0  0  0
  -22.3390  -14.6140   20.6840 O   0  0  0  0  0  0  0  0  0  0  0  0
  -22.4870  -12.0360   22.4690 H   0  0  0  0  0  0  0  0  0  0  0  0
  -21.1770  -13.1710   22.3180 H   0  0  0  0  0  0  0  0  0  0  0  0
  -25.3720  -15.2560   20.2380 N   0  0  0  0  0  0  0  0  0  0  0  0
  -24.5820  -15.8820   20.3440 H   0  0  0  0  0  0  0  0  0  0  0  0
  -26.1440  -15.6760   19.7400 H   0  0  0  0  0  0  0  0  0  0  0  0
  -28.6980  -22.7550   20.7080 O   0  0  0  0  0  0  0  0  0  0  0  0
  -28.9740  -24.0380   20.0740 C   0  0  0  0  0  2  0  0  0  0  0  0
  -28.2220  -25.2420   20.7650 C   0  0  0  0  0  2  0  0  0  0  0  0
  -28.4100  -26.5970   20.2270 O   0  0  0  0  0  0  0  0  0  0  0  0
  -24.6200  -31.9050   23.2540 C   0  0  0  0  0  0  0  0  0  0  0  0
  -27.2780  -27.4070   20.2050 C   0  0  0  0  0  0  0  0  0  0  0  0
  -23.4260  -30.4890   21.6190 C   0  0  0  0  0  3  0  0  0  0  0  0
  -24.8890  -28.9540   20.1950 C   0  0  0  0  0  0  0  0  0  0  0  0
  -25.9580  -30.8440   21.4290 C   0  0  0  0  0  2  0  0  0  0  0  0
  -26.0510  -29.4700   20.7840 C   0  0  0  0  0  0  0  0  0  0  0  0
  -27.2520  -28.7080   20.7770 C   0  0  0  0  0  3  0  0  0  0  0  0
  -26.0990  -26.9310   19.5900 C   0  0  0  0  0  3  0  0  0  0  0  0
  -24.9120  -27.6870   19.5880 C   0  0  0  0  0  3  0  0  0  0  0  0
  -23.6430  -29.8120   20.2410 C   0  0  0  0  0  2  0  0  0  0  0  0
  -24.6860  -31.0960   22.1570 N   0  0  0  0  0  0  0  0  0  0  0  0
  -23.5360  -32.1730   23.7920 O   0  0  0  0  0  0  0  0  0  0  0  0
  -22.7780  -29.4680   22.5830 C   0  0  0  0  0  0  0  0  0  0  0  0
  -21.4540  -29.2770   22.4580 N   0  0  0  0  0  0  0  0  0  0  0  0
  -23.4650  -28.8500   23.4010 O   0  0  0  0  0  0  0  0  0  0  0  0
  -20.9580  -29.8280   21.7710 H   0  0  0  0  0  0  0  0  0  0  0  0
  -18.0890  -28.0580   22.9670 C   0  0  0  0  0  0  0  0  0  0  0  0
  -20.6450  -28.3360   23.2340 C   0  0  0  0  0  3  0  0  0  0  0  0
  -20.7560  -26.9030   22.6630 C   0  0  0  0  0  2  0  0  0  0  0  0
  -19.6550  -26.5690   21.6520 C   0  0  0  0  0  2  0  0  0  0  0  0
  -18.2720  -26.7080   22.2970 C   0  0  0  0  0  2  0  0  0  0  0  0
  -19.2020  -28.8290   23.3930 C   0  0  0  0  0  0  0  0  0  0  0  0
  -18.9750  -30.0940   23.9810 C   0  0  0  0  0  3  0  0  0  0  0  0
  -17.6670  -30.5860   24.1460 C   0  0  0  0  0  3  0  0  0  0  0  0
  -16.5670  -29.8110   23.7370 C   0  0  0  0  0  3  0  0  0  0  0  0
  -16.7790  -28.5500   23.1540 C   0  0  0  0  0  3  0  0  0  0  0  0
  -25.9000  -32.5500   23.8700 C   0  0  0  0  0  3  0  0  0  0  0  0
  -26.4130  -31.8030   25.1620 C   0  0  1  0  0  0  0  0  0  0  0  0
  -25.3150  -31.5800   26.2280 C   0  0  0  0  0  1  0  0  0  0  0  0
  -27.0010  -30.4200   24.7980 C   0  0  0  0  0  1  0  0  0  0  0  0
  -27.5570  -32.6120   25.8160 C   0  0  0  0  0  1  0  0  0  0  0  0
  -25.5860  -33.9520   24.1740 N   0  0  0  0  0  0  0  0  0  0  0  0
  -25.9190  -34.9930   23.3980 C   0  0  0  0  0  0  0  0  0  0  0  0
  -26.5920  -34.8720   22.3710 O   0  0  0  0  0  0  0  0  0  0  0  0
  -24.9880  -34.1200   24.9690 H   0  0  0  0  0  0  0  0  0  0  0  0
  -24.1910  -36.7780   23.0040 C   0  0  0  0  0  1  0  0  0  0  0  0
  -25.4280  -36.3870   23.8300 C   0  0  0  0  0  3  0  0  0  0  0  0
  -27.5540  -37.2880   24.6630 C   0  0  0  0  0  1  0  0  0  0  0  0
  -26.4600  -37.4400   23.7080 N   0  0  0  0  0  0  0  0  0  0  0  0
  -26.0510  -38.3610   23.8390 H   0  0  0  0  0  0  0  0  0  0  0  0
  1 46  1  0
  1  2  1  0
  3 15  1  0
  4  9  1  0
  5  6  1  0
  5  4  1  0
  7  6  1  0
  7 21  1  0
  7  8  1  0
  9  3  1  0
  9  8  1  0
 10  3  2  0
 11 15  1  0
 11 13  1  0
 12 15  1  0
 12 14  1  0
 16 13  1  0
 16  2  1  0
 16 14  1  0
 16 17  1  6
 18 19  2  0
 19 38  1  0
 20 19  1  0
 20 23  1  0
 21 22  1  0
 21 18  1  0
 22 20  2  0
 23 24  1  0
 24 25  2  0
 26 29  1  0
 26 25  1  0
 27 26  2  0
 28 27  1  0
 28 23  2  0
 29 30  1  0
 30 31  1  0
 31 32  2  0
 33 32  1  0
 33 37  1  0
 34 33  2  0
 35 30  2  0
 35 34  1  0
 36 35  1  0
 38 39  1  0
 39 42  1  0
 39 41  1  0
 40 38  2  0
 43 44  1  0
 43 18  1  0
 45 43  1  0
 47 46  1  0
 47 48  1  0
 49 48  1  0
 50 61  2  0
 51 49  1  0
 51 56  1  0
 52 60  1  0
 52 62  1  0
 53 59  1  0
 53 55  1  0
 54 60  1  0
 55 54  1  0
 56 55  2  0
 57 51  2  0
 58 57  1  0
 58 53  2  0
 59 52  1  0
 60 50  1  0
 62 64  2  0
 63 62  1  0
 65 63  1  0
 66 75  2  0
 66 71  1  0
 67 63  1  0
 67 71  1  0
 68 67  1  0
 69 70  1  0
 69 68  1  0
 70 66  1  0
 71 72  2  0
 72 73  1  0
 74 73  2  0
 75 74  1  0
 76 50  1  0
 76 81  1  0
 76 77  1  0
 77 80  1  1
 77 78  1  0
 79 77  1  0
 81 84  1  0
 82 86  1  0
 82 81  1  0
 83 82  2  0
 86 85  1  0
 88 86  1  0
 88 89  1  0
 88 87  1  0
M  ISO  4   3 100  15 100  48 101  49 101
M  END
>  <TORSDO>  (59) 
F 20

>  <SCORE>  (59) 
-13.634

>  <name>  (59) 
59

>  <ligand_id>  (59) 
59

>  <original_smiles>  (59) 
[H]c1c([H])c([H])c2c(c1[H])C([H])([H])C([H])([H])C([H])([H])C2([H])N([H])C(=O)C1([H])N(C(=O)C([H])(N([H])C(=O)C([H])(N([H])C([H])([H])[H])C([H])([H])[H])C(C([H])([H])[H])(C([H])([H])[H])C([H])([H])[H])C([H])([H])c2c([H])c(OC([H])([H])C([H])([H])OC([H])([H])C([H])([H])[N+]3([H])C([H])([H])C([H])([H])N(C(=O)N4C([H])([H])C([H])([H])C([H])([H])C([H])(n5nc(-c6c([H])c([H])c(Oc7c([H])c([H])c(F)c([H])c7F)c([H])c6[H])c(C(=O)N([H])[H])c5N([H])[H])C4([H])[H])C([H])([H])C3([H])[H])c([H])c([H])c2C1([H])[H]

>  <smiles>  (59) 
[H]c1c([H])c([H])c2c(c1[H])C([H])([H])C([H])([H])C([H])([H])C2([H])N([H])C(=O)C1([H])N(C(=O)C([H])(N([H])C(=O)C([H])(N([H])C([H])([H])[H])C([H])([H])[H])C(C([H])([H])[H])(C([H])([H])[H])C([H])([H])[H])C([H])([H])c2c([H])c(OC([H])([H])C([H])([H])OC([H])([H])C([H])([H])[N+]3([H])C([H])([H])C([H])([H])N(C(=O)N4C([H])([H])C([H])([H])C([H])([H])C([H])(n5nc(-c6c([H])c([H])c(Oc7c([H])c([H])c(F)c([H])c7F)c([H])c6[H])c(C(=O)N([H])[H])c5N([H])[H])C4([H])[H])C([H])([H])C3([H])[H])c([H])c([H])c2C1([H])[H]

$$$$
60:0:0
     RDKit          3D

 89 97  0  0  1  0  0  0  0  0999 V2000
  -29.1920  -21.1690   20.9000 C   0  0  0  0  0  2  0  0  0  0  0  0
  -30.7830  -18.7420   18.3200 C   0  0  0  0  0  3  0  0  0  0  0  0
  -30.2840  -19.8930   18.9610 C   0  0  0  0  0  3  0  0  0  0  0  0
  -30.6490  -17.4600   18.8920 C   0  0  0  0  0  3  0  0  0  0  0  0
  -29.4890  -18.4710   20.7720 C   0  0  0  0  0  3  0  0  0  0  0  0
  -29.6240  -19.8060   20.2010 C   0  0  0  0  0  0  0  0  0  0  0  0
  -30.0060  -17.2640   20.1380 C   0  0  0  0  0  0  0  0  0  0  0  0
  -30.5740  -14.7330   20.3630 C   0  0  0  0  0  0  0  0  0  0  0  0
  -30.3440  -12.4590   19.3720 C   0  0  0  0  0  2  0  0  0  0  0  0
  -29.4110  -12.5530   18.1450 C   0  0  0  0  0  2  0  0  0  0  0  0
  -27.9390  -12.3930   18.5750 C   0  0  0  0  0  2  0  0  0  0  0  0
  -27.5740  -13.2790   19.7950 C   0  0  0  0  0  3  0  0  0  0  0  0
  -28.6320  -13.1810   20.9180 C   0  0  0  0  0  2  0  0  0  0  0  0
  -29.9350  -13.5150   20.3290 N   0  0  0  0  0  0  0  0  0  0  0  0
  -31.7530  -14.8100   20.0010 O   0  0  0  0  0  0  0  0  0  0  0  0
  -29.8410  -15.8770   20.6510 N   0  0  0  0  0  0  0  0  0  0  0  0
  -28.9760  -15.7020   21.1410 H   0  0  0  0  0  0  0  0  0  0  0  0
  -25.1870  -13.8770   20.5190 C   0  0  0  0  0  0  0  0  0  0  0  0
  -24.1200  -13.1080   20.8930 C   0  0  0  0  0  0  0  0  0  0  0  0
  -24.5800  -11.7560   20.8690 C   0  0  0  0  0  0  0  0  0  0  0  0
  -26.2290  -12.9960   20.2860 N   0  0  0  0  0  0  0  0  0  0  0  0
  -25.8700  -11.7140   20.5600 N   0  0  0  0  0  0  0  0  0  0  0  0
  -23.8500  -10.4950   21.0660 C   0  0  0  0  0  0  0  0  0  0  0  0
  -24.2940   -9.5200   21.9850 C   0  0  0  0  0  3  0  0  0  0  0  0
  -23.5640   -8.3260   22.1700 C   0  0  0  0  0  3  0  0  0  0  0  0
  -22.3760   -8.0980   21.4350 C   0  0  0  0  0  0  0  0  0  0  0  0
  -21.9520   -9.0620   20.5030 C   0  0  0  0  0  3  0  0  0  0  0  0
  -22.6830  -10.2480   20.3160 C   0  0  0  0  0  3  0  0  0  0  0  0
  -21.6160   -6.9570   21.5300 O   0  0  0  0  0  0  0  0  0  0  0  0
  -21.5980   -6.1970   22.6720 C   0  0  0  0  0  0  0  0  0  0  0  0
  -21.2330   -6.7400   23.9230 C   0  0  0  0  0  3  0  0  0  0  0  0
  -21.1600   -5.9080   25.0580 C   0  0  0  0  0  3  0  0  0  0  0  0
  -21.4440   -4.5340   24.9440 C   0  0  0  0  0  0  0  0  0  0  0  0
  -21.8050   -3.9910   23.6970 C   0  0  0  0  0  3  0  0  0  0  0  0
  -21.8780   -4.8200   22.5650 C   0  0  0  0  0  0  0  0  0  0  0  0
  -22.2050   -4.2870   21.3630 F   0  0  0  0  0  0  0  0  0  0  0  0
  -21.3690   -3.7330   26.0320 F   0  0  0  0  0  0  0  0  0  0  0  0
  -22.7220  -13.5900   21.1610 C   0  0  0  0  0  0  0  0  0  0  0  0
  -21.9940  -12.9010   22.0330 N   0  0  0  0  0  0  0  0  0  0  0  0
  -22.2870  -14.6120   20.6340 O   0  0  0  0  0  0  0  0  0  0  0  0
  -22.3600  -12.0750   22.4830 H   0  0  0  0  0  0  0  0  0  0  0  0
  -21.0570  -13.2050   22.2550 H   0  0  0  0  0  0  0  0  0  0  0  0
  -25.3530  -15.2470   20.3330 N   0  0  0  0  0  0  0  0  0  0  0  0
  -24.5860  -15.9020   20.4370 H   0  0  0  0  0  0  0  0  0  0  0  0
  -26.1990  -15.6810   19.9860 H   0  0  0  0  0  0  0  0  0  0  0  0
  -28.8900  -22.3600   20.0580 O   0  0  0  0  0  0  0  0  0  0  0  0
  -28.9350  -23.7310   20.6500 C   0  0  0  0  0  3  0  0  0  0  0  0
  -28.0780  -24.9170   19.9610 C   0  0  0  0  0  3  0  0  0  0  0  0
  -28.2760  -26.3790   20.2700 O   0  0  0  0  0  0  0  0  0  0  0  0
  -24.6110  -31.8900   23.2350 C   0  0  0  0  0  0  0  0  0  0  0  0
  -27.1840  -27.2770   20.1820 C   0  0  0  0  0  0  0  0  0  0  0  0
  -23.3970  -30.4940   21.6030 C   0  0  0  0  0  3  0  0  0  0  0  0
  -24.8360  -28.9370   20.1690 C   0  0  0  0  0  0  0  0  0  0  0  0
  -25.9410  -30.7890   21.4150 C   0  0  0  0  0  2  0  0  0  0  0  0
  -26.0100  -29.4070   20.7690 C   0  0  0  0  0  0  0  0  0  0  0  0
  -27.1850  -28.5870   20.7690 C   0  0  0  0  0  3  0  0  0  0  0  0
  -25.9910  -26.8890   19.5280 C   0  0  0  0  0  3  0  0  0  0  0  0
  -24.8310  -27.6860   19.5370 C   0  0  0  0  0  3  0  0  0  0  0  0
  -23.6040  -29.8190   20.2230 C   0  0  0  0  0  2  0  0  0  0  0  0
  -24.6690  -31.0760   22.1410 N   0  0  0  0  0  0  0  0  0  0  0  0
  -23.5300  -32.1730   23.7720 O   0  0  0  0  0  0  0  0  0  0  0  0
  -22.7320  -29.4800   22.5670 C   0  0  0  0  0  0  0  0  0  0  0  0
  -21.4050  -29.3100   22.4490 N   0  0  0  0  0  0  0  0  0  0  0  0
  -23.4110  -28.8520   23.3840 O   0  0  0  0  0  0  0  0  0  0  0  0
  -20.9160  -29.8690   21.7630 H   0  0  0  0  0  0  0  0  0  0  0  0
  -18.0250  -28.1230   22.9610 C   0  0  0  0  0  0  0  0  0  0  0  0
  -20.5850  -28.3790   23.2250 C   0  0  0  0  0  3  0  0  0  0  0  0
  -20.6820  -26.9440   22.6570 C   0  0  0  0  0  2  0  0  0  0  0  0
  -19.5780  -26.6180   21.6460 C   0  0  0  0  0  2  0  0  0  0  0  0
  -18.1980  -26.7690   22.2910 C   0  0  0  0  0  2  0  0  0  0  0  0
  -19.1460  -28.8840   23.3850 C   0  0  0  0  0  0  0  0  0  0  0  0
  -18.9300  -30.1500   23.9730 C   0  0  0  0  0  3  0  0  0  0  0  0
  -17.6260  -30.6540   24.1390 C   0  0  0  0  0  3  0  0  0  0  0  0
  -16.5200  -29.8900   23.7310 C   0  0  0  0  0  3  0  0  0  0  0  0
  -16.7200  -28.6250   23.1480 C   0  0  0  0  0  3  0  0  0  0  0  0
  -25.8980  -32.5210   23.8510 C   0  0  0  0  0  3  0  0  0  0  0  0
  -26.4210  -31.7440   25.1220 C   0  0  1  0  0  0  0  0  0  0  0  0
  -25.3350  -31.5070   26.1980 C   0  0  0  0  0  1  0  0  0  0  0  0
  -26.9990  -30.3660   24.7240 C   0  0  0  0  0  1  0  0  0  0  0  0
  -27.5790  -32.5340   25.7770 C   0  0  0  0  0  1  0  0  0  0  0  0
  -25.5890  -33.9170   24.1900 N   0  0  0  0  0  0  0  0  0  0  0  0
  -25.9130  -34.9740   23.4340 C   0  0  0  0  0  0  0  0  0  0  0  0
  -26.5710  -34.8760   22.3930 O   0  0  0  0  0  0  0  0  0  0  0  0
  -25.0040  -34.0680   24.9990 H   0  0  0  0  0  0  0  0  0  0  0  0
  -24.1760  -36.7660   23.1130 C   0  0  0  0  0  1  0  0  0  0  0  0
  -25.4310  -36.3610   23.9040 C   0  0  0  0  0  3  0  0  0  0  0  0
  -27.5790  -37.2450   24.7000 C   0  0  0  0  0  1  0  0  0  0  0  0
  -26.4600  -37.4160   23.7770 N   0  0  0  0  0  0  0  0  0  0  0  0
  -26.0550  -38.3340   23.9360 H   0  0  0  0  0  0  0  0  0  0  0  0
  2  4  2  0
  2  3  1  0
  3  6  2  0
  4  7  1  0
  6  5  1  0
  6  1  1  0
  7 16  1  0
  7  5  2  0
  8 16  1  0
  9 14  1  0
 10 11  1  0
 10  9  1  0
 12 11  1  0
 12 21  1  0
 12 13  1  0
 14  8  1  0
 14 13  1  0
 15  8  2  0
 16 17  1  0
 18 19  2  0
 19 38  1  0
 20 19  1  0
 20 23  1  0
 21 18  1  0
 21 22  1  0
 22 20  2  0
 23 24  1  0
 24 25  2  0
 26 29  1  0
 26 25  1  0
 27 26  2  0
 28 27  1  0
 28 23  2  0
 29 30  1  0
 30 31  1  0
 31 32  2  0
 33 32  1  0
 33 37  1  0
 34 33  2  0
 35 30  2  0
 35 34  1  0
 36 35  1  0
 38 39  1  0
 39 42  1  0
 39 41  1  0
 40 38  2  0
 43 44  1  0
 43 18  1  0
 45 43  1  0
 46 47  1  0
 46  1  1  0
 48 49  1  0
 48 47  2  0
 50 61  2  0
 51 49  1  0
 51 56  1  0
 52 60  1  0
 52 62  1  0
 53 59  1  0
 53 55  1  0
 54 60  1  0
 55 56  2  0
 55 54  1  0
 57 58  1  0
 57 51  2  0
 58 53  2  0
 59 52  1  0
 60 50  1  0
 62 64  2  0
 63 62  1  0
 65 63  1  0
 66 75  2  0
 66 71  1  0
 67 63  1  0
 67 71  1  0
 68 67  1  0
 69 70  1  0
 69 68  1  0
 70 66  1  0
 71 72  2  0
 72 73  1  0
 74 73  2  0
 75 74  1  0
 76 50  1  0
 76 81  1  0
 76 77  1  0
 77 80  1  1
 77 78  1  0
 79 77  1  0
 81 84  1  0
 82 86  1  0
 82 81  1  0
 83 82  2  0
 86 85  1  0
 88 86  1  0
 88 89  1  0
 88 87  1  0
M  ISO  4   8 100  16 100  48 101  49 101
M  END
>  <TORSDO>  (60) 
F 20

>  <SCORE>  (60) 
-13.796

>  <name>  (60) 
60

>  <ligand_id>  (60) 
60

>  <original_smiles>  (60) 
[H]c1c([H])c(N([H])C(=O)N2C([H])([H])C([H])([H])C([H])([H])C([H])(n3nc(-c4c([H])c([H])c(Oc5c([H])c([H])c(F)c([H])c5F)c([H])c4[H])c(C(=O)N([H])[H])c3N([H])[H])C2([H])[H])c([H])c(C([H])([H])OC([H])([H])C([H])([H])Oc2c([H])c([H])c3c(c2[H])C([H])([H])N(C(=O)C([H])(N([H])C(=O)C([H])(N([H])C([H])([H])[H])C([H])([H])[H])C(C([H])([H])[H])(C([H])([H])[H])C([H])([H])[H])C([H])(C(=O)N([H])C2([H])c4c([H])c([H])c([H])c([H])c4C([H])([H])C([H])([H])C2([H])[H])C3([H])[H])c1[H]

>  <smiles>  (60) 
[H]c1c([H])c(N([H])C(=O)N2C([H])([H])C([H])([H])C([H])([H])C([H])(n3nc(-c4c([H])c([H])c(Oc5c([H])c([H])c(F)c([H])c5F)c([H])c4[H])c(C(=O)N([H])[H])c3N([H])[H])C2([H])[H])c([H])c(C([H])([H])OC([H])([H])C([H])([H])Oc2c([H])c([H])c3c(c2[H])C([H])([H])N(C(=O)C([H])(N([H])C(=O)C([H])(N([H])C([H])([H])[H])C([H])([H])[H])C(C([H])([H])[H])(C([H])([H])[H])C([H])([H])[H])C([H])(C(=O)N([H])C2([H])c4c([H])c([H])c([H])c([H])c4C([H])([H])C([H])([H])C2([H])[H])C3([H])[H])c1[H]

$$$$
61:0:0
     RDKit          3D

 87 94  0  0  1  0  0  0  0  0999 V2000
  -29.3160  -21.8620   20.2400 C   0  0  0  0  0  2  0  0  0  0  0  0
  -29.6540  -19.1110   20.5450 C   0  0  0  0  0  0  0  0  0  0  0  0
  -29.0180  -20.3000   20.0670 N   0  0  0  0  0  0  0  0  0  0  0  0
  -30.3690  -19.2000   21.5440 O   0  0  0  0  0  0  0  0  0  0  0  0
  -28.3870  -20.1120   19.2960 H   0  0  0  0  0  0  0  0  0  0  0  0
  -29.6220  -17.6140   19.8180 C   0  0  0  0  0  2  0  0  0  0  0  0
  -30.4920  -14.9930   20.1800 C   0  0  0  0  0  0  0  0  0  0  0  0
  -30.3790  -12.6440   19.2290 C   0  0  0  0  0  2  0  0  0  0  0  0
  -29.4270  -12.6400   18.0080 C   0  0  0  0  0  2  0  0  0  0  0  0
  -27.9650  -12.4380   18.4520 C   0  0  0  0  0  2  0  0  0  0  0  0
  -27.5890  -13.3240   19.6700 C   0  0  0  0  0  3  0  0  0  0  0  0
  -28.6630  -13.2900   20.7790 C   0  0  0  0  0  2  0  0  0  0  0  0
  -29.9270  -13.7160   20.1670 N   0  0  0  0  0  0  0  0  0  0  0  0
  -31.6580  -15.0910   19.7790 O   0  0  0  0  0  0  0  0  0  0  0  0
  -29.6940  -16.1470   20.4300 N   0  0  0  0  0  0  0  0  0  0  0  0
  -28.8300  -15.9000   20.8910 H   0  0  0  0  0  0  0  0  0  0  0  0
  -25.2170  -13.8930   20.4430 C   0  0  0  0  0  0  0  0  0  0  0  0
  -24.1610  -13.1140   20.8270 C   0  0  0  0  0  0  0  0  0  0  0  0
  -24.6270  -11.7650   20.7820 C   0  0  0  0  0  0  0  0  0  0  0  0
  -26.2580  -13.0190   20.1830 N   0  0  0  0  0  0  0  0  0  0  0  0
  -25.9140  -11.7330   20.4520 N   0  0  0  0  0  0  0  0  0  0  0  0
  -23.9050  -10.5010   20.9800 C   0  0  0  0  0  0  0  0  0  0  0  0
  -24.3440   -9.5350   21.9130 C   0  0  0  0  0  3  0  0  0  0  0  0
  -23.6210   -8.3380   22.0990 C   0  0  0  0  0  3  0  0  0  0  0  0
  -22.4430   -8.0960   21.3510 C   0  0  0  0  0  0  0  0  0  0  0  0
  -22.0230   -9.0500   20.4070 C   0  0  0  0  0  3  0  0  0  0  0  0
  -22.7470  -10.2390   20.2200 C   0  0  0  0  0  3  0  0  0  0  0  0
  -21.6910   -6.9510   21.4460 O   0  0  0  0  0  0  0  0  0  0  0  0
  -21.6400   -6.2160   22.6030 C   0  0  0  0  0  0  0  0  0  0  0  0
  -21.1990   -6.7760   23.8230 C   0  0  0  0  0  3  0  0  0  0  0  0
  -21.0960   -5.9680   24.9730 C   0  0  0  0  0  3  0  0  0  0  0  0
  -21.4240   -4.6000   24.9050 C   0  0  0  0  0  0  0  0  0  0  0  0
  -21.8570   -4.0400   23.6900 C   0  0  0  0  0  3  0  0  0  0  0  0
  -21.9620   -4.8460   22.5430 C   0  0  0  0  0  0  0  0  0  0  0  0
  -22.3600   -4.2950   21.3700 F   0  0  0  0  0  0  0  0  0  0  0  0
  -21.3190   -3.8210   26.0070 F   0  0  0  0  0  0  0  0  0  0  0  0
  -22.7660  -13.5890   21.1200 C   0  0  0  0  0  0  0  0  0  0  0  0
  -22.0500  -12.8860   21.9910 N   0  0  0  0  0  0  0  0  0  0  0  0
  -22.3220  -14.6180   20.6120 O   0  0  0  0  0  0  0  0  0  0  0  0
  -22.4240  -12.0580   22.4280 H   0  0  0  0  0  0  0  0  0  0  0  0
  -21.1150  -13.1860   22.2290 H   0  0  0  0  0  0  0  0  0  0  0  0
  -25.3720  -15.2650   20.2680 N   0  0  0  0  0  0  0  0  0  0  0  0
  -24.5960  -15.9080   20.3890 H   0  0  0  0  0  0  0  0  0  0  0  0
  -26.1950  -15.7090   19.8830 H   0  0  0  0  0  0  0  0  0  0  0  0
  -28.2400  -23.1730   20.4170 C   0  0  0  0  0  2  0  0  0  0  0  0
  -28.4100  -24.7420   19.7630 C   0  0  0  0  0  2  0  0  0  0  0  0
  -28.2740  -26.1910   20.3450 O   0  0  0  0  0  0  0  0  0  0  0  0
  -24.6200  -31.8820   23.2200 C   0  0  0  0  0  0  0  0  0  0  0  0
  -27.2020  -27.1500   20.2080 C   0  0  0  0  0  0  0  0  0  0  0  0
  -23.4210  -30.4800   21.5830 C   0  0  0  0  0  3  0  0  0  0  0  0
  -24.8710  -28.8970   20.1610 C   0  0  0  0  0  0  0  0  0  0  0  0
  -25.9730  -30.7430   21.4230 C   0  0  0  0  0  2  0  0  0  0  0  0
  -26.0460  -29.3480   20.7720 C   0  0  0  0  0  0  0  0  0  0  0  0
  -27.2070  -28.4890   20.7820 C   0  0  0  0  0  3  0  0  0  0  0  0
  -26.0030  -26.7990   19.5530 C   0  0  0  0  0  3  0  0  0  0  0  0
  -24.8620  -27.6380   19.5370 C   0  0  0  0  0  3  0  0  0  0  0  0
  -23.6420  -29.7970   20.2060 C   0  0  0  0  0  2  0  0  0  0  0  0
  -24.6910  -31.0590   22.1290 N   0  0  0  0  0  0  0  0  0  0  0  0
  -23.5330  -32.1680   23.7480 O   0  0  0  0  0  0  0  0  0  0  0  0
  -22.7420  -29.4780   22.5490 C   0  0  0  0  0  0  0  0  0  0  0  0
  -21.4130  -29.3130   22.4290 N   0  0  0  0  0  0  0  0  0  0  0  0
  -23.4150  -28.8520   23.3730 O   0  0  0  0  0  0  0  0  0  0  0  0
  -20.9280  -29.8670   21.7380 H   0  0  0  0  0  0  0  0  0  0  0  0
  -18.0290  -28.1290   22.9490 C   0  0  0  0  0  0  0  0  0  0  0  0
  -20.5920  -28.3790   23.2050 C   0  0  0  0  0  3  0  0  0  0  0  0
  -20.6840  -26.9470   22.6290 C   0  0  0  0  0  2  0  0  0  0  0  0
  -19.5760  -26.6300   21.6190 C   0  0  0  0  0  2  0  0  0  0  0  0
  -18.1970  -26.7800   22.2690 C   0  0  0  0  0  2  0  0  0  0  0  0
  -19.1530  -28.8870   23.3730 C   0  0  0  0  0  0  0  0  0  0  0  0
  -18.9400  -30.1480   23.9710 C   0  0  0  0  0  3  0  0  0  0  0  0
  -17.6380  -30.6530   24.1450 C   0  0  0  0  0  3  0  0  0  0  0  0
  -16.5290  -29.8920   23.7350 C   0  0  0  0  0  3  0  0  0  0  0  0
  -16.7260  -28.6310   23.1440 C   0  0  0  0  0  3  0  0  0  0  0  0
  -25.8980  -32.5200   23.8480 C   0  0  0  0  0  3  0  0  0  0  0  0
  -26.4070  -31.7550   25.1320 C   0  0  1  0  0  0  0  0  0  0  0  0
  -25.3080  -31.5260   26.1950 C   0  0  0  0  0  1  0  0  0  0  0  0
  -26.9920  -30.3750   24.7530 C   0  0  0  0  0  1  0  0  0  0  0  0
  -27.5560  -32.5520   25.7940 C   0  0  0  0  0  1  0  0  0  0  0  0
  -25.5830  -33.9180   24.1800 N   0  0  0  0  0  0  0  0  0  0  0  0
  -25.9100  -34.9770   23.4260 C   0  0  0  0  0  0  0  0  0  0  0  0
  -26.5720  -34.8780   22.3900 O   0  0  0  0  0  0  0  0  0  0  0  0
  -24.9930  -34.0680   24.9860 H   0  0  0  0  0  0  0  0  0  0  0  0
  -24.1760  -36.7710   23.0920 C   0  0  0  0  0  1  0  0  0  0  0  0
  -25.4240  -36.3640   23.8920 C   0  0  0  0  0  3  0  0  0  0  0  0
  -27.5630  -37.2520   24.7120 C   0  0  0  0  0  1  0  0  0  0  0  0
  -26.4540  -37.4190   23.7750 N   0  0  0  0  0  0  0  0  0  0  0  0
  -26.0480  -38.3380   23.9260 H   0  0  0  0  0  0  0  0  0  0  0  0
  1 45  1  0
  2  4  2  0
  3  1  1  0
  3  2  1  0
  5  3  1  0
  6 15  1  0
  6  2  1  0
  7 15  1  0
  8 13  1  0
  9 10  1  0
  9  8  1  0
 11 10  1  0
 11 20  1  0
 11 12  1  0
 13  7  1  0
 13 12  1  0
 14  7  2  0
 15 16  1  0
 17 18  2  0
 18 37  1  0
 19 18  1  0
 19 22  1  0
 20 17  1  0
 20 21  1  0
 21 19  2  0
 22 23  1  0
 23 24  2  0
 25 28  1  0
 25 24  1  0
 26 25  2  0
 27 26  1  0
 27 22  2  0
 28 29  1  0
 29 30  1  0
 30 31  2  0
 32 31  1  0
 32 36  1  0
 33 32  2  0
 34 29  2  0
 34 33  1  0
 35 34  1  0
 37 38  1  0
 38 41  1  0
 38 40  1  0
 39 37  2  0
 42 43  1  0
 42 17  1  0
 44 42  1  0
 46 47  1  0
 46 45  1  0
 48 59  2  0
 49 47  1  0
 49 54  1  0
 50 58  1  0
 50 60  1  0
 51 57  1  0
 51 53  1  0
 52 58  1  0
 53 54  2  0
 53 52  1  0
 55 49  2  0
 56 55  1  0
 56 51  2  0
 57 50  1  0
 58 48  1  0
 60 62  2  0
 61 60  1  0
 63 61  1  0
 64 73  2  0
 64 69  1  0
 65 61  1  0
 65 69  1  0
 66 65  1  0
 67 68  1  0
 67 66  1  0
 68 64  1  0
 69 70  2  0
 70 71  1  0
 72 71  2  0
 73 72  1  0
 74 48  1  0
 74 79  1  0
 74 75  1  0
 75 78  1  1
 75 76  1  0
 77 75  1  0
 79 82  1  0
 80 84  1  0
 80 79  1  0
 81 80  2  0
 84 83  1  0
 86 84  1  0
 86 87  1  0
 86 85  1  0
M  ISO  4   7 100  15 100  46 101  47 101
M  END
>  <TORSDO>  (61) 
F 20

>  <SCORE>  (61) 
-14.809

>  <name>  (61) 
61

>  <ligand_id>  (61) 
61

>  <original_smiles>  (61) 
[H]c1c([H])c([H])c2c(c1[H])C([H])([H])C([H])([H])C([H])([H])C2([H])N([H])C(=O)C1([H])N(C(=O)C([H])(N([H])C(=O)C([H])(N([H])C([H])([H])[H])C([H])([H])[H])C(C([H])([H])[H])(C([H])([H])[H])C([H])([H])[H])C([H])([H])c2c([H])c(OC([H])([H])C([H])([H])C([H])([H])N([H])C(=O)C([H])([H])N([H])C(=O)N3C([H])([H])C([H])([H])C([H])([H])C([H])(n4nc(-c5c([H])c([H])c(Oc6c([H])c([H])c(F)c([H])c6F)c([H])c5[H])c(C(=O)N([H])[H])c4N([H])[H])C3([H])[H])c([H])c([H])c2C1([H])[H]

>  <smiles>  (61) 
[H]c1c([H])c([H])c2c(c1[H])C([H])([H])C([H])([H])C([H])([H])C2([H])N([H])C(=O)C1([H])N(C(=O)C([H])(N([H])C(=O)C([H])(N([H])C([H])([H])[H])C([H])([H])[H])C(C([H])([H])[H])(C([H])([H])[H])C([H])([H])[H])C([H])([H])c2c([H])c(OC([H])([H])C([H])([H])C([H])([H])N([H])C(=O)C([H])([H])N([H])C(=O)N3C([H])([H])C([H])([H])C([H])([H])C([H])(n4nc(-c5c([H])c([H])c(Oc6c([H])c([H])c(F)c([H])c6F)c([H])c5[H])c(C(=O)N([H])[H])c4N([H])[H])C3([H])[H])c([H])c([H])c2C1([H])[H]

$$$$
62:0:0
     RDKit          3D

102109  0  0  1  0  0  0  0  0999 V2000
  -33.7180  -21.8530   22.4050 C   0  0  0  0  0  2  0  0  0  0  0  0
  -33.5290  -20.4100   22.9030 C   0  0  0  0  0  2  0  0  0  0  0  0
  -33.1660  -20.3180   24.3930 C   0  0  0  0  0  2  0  0  0  0  0  0
  -30.8290  -20.3300   25.2710 C   0  0  0  0  0  0  0  0  0  0  0  0
  -31.8580  -20.9170   24.6450 N   0  0  0  0  0  0  0  0  0  0  0  0
  -30.9110  -19.2190   25.7990 O   0  0  0  0  0  0  0  0  0  0  0  0
  -31.6970  -21.8370   24.2580 H   0  0  0  0  0  0  0  0  0  0  0  0
  -29.4920  -21.0850   25.2720 C   0  0  0  0  0  2  0  0  0  0  0  0
  -28.5820  -20.4710   24.3590 O   0  0  0  0  0  0  0  0  0  0  0  0
  -28.8180  -20.7810   22.9870 C   0  0  0  0  0  2  0  0  0  0  0  0
  -28.5840  -19.5250   22.1410 C   0  0  0  0  0  2  0  0  0  0  0  0
  -29.6600  -18.6220   22.3650 O   0  0  0  0  0  0  0  0  0  0  0  0
  -29.4740  -17.3810   21.7080 C   0  0  0  0  0  2  0  0  0  0  0  0
  -30.6150  -16.4300   22.0960 C   0  0  0  0  0  2  0  0  0  0  0  0
  -30.7480  -14.3470   20.7040 C   0  0  0  0  0  0  0  0  0  0  0  0
  -30.4220  -12.2820   19.3910 C   0  0  0  0  0  2  0  0  0  0  0  0
  -29.4870  -12.5370   18.1920 C   0  0  0  0  0  2  0  0  0  0  0  0
  -28.0120  -12.3780   18.6060 C   0  0  0  0  0  2  0  0  0  0  0  0
  -27.6690  -13.1940   19.8790 C   0  0  0  0  0  3  0  0  0  0  0  0
  -28.7000  -12.9090   20.9920 C   0  0  0  0  0  2  0  0  0  0  0  0
  -30.0500  -13.2050   20.4700 N   0  0  0  0  0  0  0  0  0  0  0  0
  -31.7440  -14.6940   20.0650 O   0  0  0  0  0  0  0  0  0  0  0  0
  -30.2670  -15.0660   21.7200 N   0  0  0  0  0  0  0  0  0  0  0  0
  -29.4880  -14.6510   22.2080 H   0  0  0  0  0  0  0  0  0  0  0  0
  -25.2620  -13.8130   20.5620 C   0  0  0  0  0  0  0  0  0  0  0  0
  -24.1840  -13.0440   20.9110 C   0  0  0  0  0  0  0  0  0  0  0  0
  -24.6380  -11.6890   20.8700 C   0  0  0  0  0  0  0  0  0  0  0  0
  -26.3040  -12.9280   20.3320 N   0  0  0  0  0  0  0  0  0  0  0  0
  -25.9290  -11.6450   20.5710 N   0  0  0  0  0  0  0  0  0  0  0  0
  -23.9050  -10.4280   21.0390 C   0  0  0  0  0  0  0  0  0  0  0  0
  -24.3600   -9.4200   21.9180 C   0  0  0  0  0  3  0  0  0  0  0  0
  -23.6270   -8.2250   22.0770 C   0  0  0  0  0  3  0  0  0  0  0  0
  -22.4260   -8.0280   21.3550 C   0  0  0  0  0  0  0  0  0  0  0  0
  -21.9880   -9.0250   20.4670 C   0  0  0  0  0  3  0  0  0  0  0  0
  -22.7220  -10.2130   20.3050 C   0  0  0  0  0  3  0  0  0  0  0  0
  -21.6650   -6.8860   21.4240 O   0  0  0  0  0  0  0  0  0  0  0  0
  -21.6860   -6.0710   22.5270 C   0  0  0  0  0  0  0  0  0  0  0  0
  -21.4030   -6.5620   23.8200 C   0  0  0  0  0  3  0  0  0  0  0  0
  -21.3660   -5.6780   24.9170 C   0  0  0  0  0  3  0  0  0  0  0  0
  -21.6050   -4.3040   24.7230 C   0  0  0  0  0  0  0  0  0  0  0  0
  -21.8820   -3.8130   23.4350 C   0  0  0  0  0  3  0  0  0  0  0  0
  -21.9190   -4.6930   22.3400 C   0  0  0  0  0  0  0  0  0  0  0  0
  -22.1660   -4.2120   21.0980 F   0  0  0  0  0  0  0  0  0  0  0  0
  -21.5630   -3.4530   25.7730 F   0  0  0  0  0  0  0  0  0  0  0  0
  -22.7870  -13.5260   21.1790 C   0  0  0  0  0  0  0  0  0  0  0  0
  -22.0520  -12.8270   22.0370 N   0  0  0  0  0  0  0  0  0  0  0  0
  -22.3560  -14.5570   20.6640 O   0  0  0  0  0  0  0  0  0  0  0  0
  -22.4160  -11.9910   22.4690 H   0  0  0  0  0  0  0  0  0  0  0  0
  -21.1180  -13.1350   22.2660 H   0  0  0  0  0  0  0  0  0  0  0  0
  -25.4390  -15.1850   20.4070 N   0  0  0  0  0  0  0  0  0  0  0  0
  -24.6770  -15.8470   20.5120 H   0  0  0  0  0  0  0  0  0  0  0  0
  -26.3020  -15.6170   20.0990 H   0  0  0  0  0  0  0  0  0  0  0  0
  -34.0580  -21.9090   20.9060 C   0  0  0  0  0  2  0  0  0  0  0  0
  -34.4330  -23.3130   20.3990 C   0  0  0  0  0  2  0  0  0  0  0  0
  -32.6630  -24.9660   19.8000 C   0  0  0  0  0  0  0  0  0  0  0  0
  -33.3880  -24.2900   20.6950 N   0  0  0  0  0  0  0  0  0  0  0  0
  -32.8410  -24.8710   18.5830 O   0  0  0  0  0  0  0  0  0  0  0  0
  -33.1810  -24.4540   21.6700 H   0  0  0  0  0  0  0  0  0  0  0  0
  -31.6560  -25.7880   20.4450 C   0  0  0  0  0  3  0  0  0  0  0  0
  -30.7490  -26.4600   19.7140 C   0  0  0  0  0  3  0  0  0  0  0  0
  -29.6460  -27.3180   20.2890 C   0  0  0  0  0  2  0  0  0  0  0  0
  -28.3920  -26.7200   19.9900 O   0  0  0  0  0  0  0  0  0  0  0  0
  -24.6080  -31.8720   23.2140 C   0  0  0  0  0  0  0  0  0  0  0  0
  -27.2550  -27.4890   20.0860 C   0  0  0  0  0  0  0  0  0  0  0  0
  -23.3940  -30.4940   21.5520 C   0  0  0  0  0  3  0  0  0  0  0  0
  -24.8450  -28.9620   20.1210 C   0  0  0  0  0  0  0  0  0  0  0  0
  -25.9150  -30.8550   21.3580 C   0  0  0  0  0  2  0  0  0  0  0  0
  -25.9980  -29.4880   20.7150 C   0  0  0  0  0  0  0  0  0  0  0  0
  -27.2030  -28.7590   20.7080 C   0  0  0  0  0  3  0  0  0  0  0  0
  -26.0820  -26.9610   19.5100 C   0  0  0  0  0  3  0  0  0  0  0  0
  -24.8770  -27.6910   19.5210 C   0  0  0  0  0  3  0  0  0  0  0  0
  -23.6020  -29.8220   20.1680 C   0  0  0  0  0  2  0  0  0  0  0  0
  -24.6570  -31.0870   22.1010 N   0  0  0  0  0  0  0  0  0  0  0  0
  -23.5290  -32.1450   23.7560 O   0  0  0  0  0  0  0  0  0  0  0  0
  -22.7370  -29.4670   22.5020 C   0  0  0  0  0  0  0  0  0  0  0  0
  -21.4110  -29.3020   22.3750 N   0  0  0  0  0  0  0  0  0  0  0  0
  -23.4170  -28.8220   23.3050 O   0  0  0  0  0  0  0  0  0  0  0  0
  -20.9250  -29.8740   21.6970 H   0  0  0  0  0  0  0  0  0  0  0  0
  -18.0260  -28.1370   22.8490 C   0  0  0  0  0  0  0  0  0  0  0  0
  -20.5850  -28.3650   23.1340 C   0  0  0  0  0  3  0  0  0  0  0  0
  -20.6760  -26.9390   22.5420 C   0  0  0  0  0  2  0  0  0  0  0  0
  -19.5740  -26.6390   21.5210 C   0  0  0  0  0  2  0  0  0  0  0  0
  -18.1920  -26.7920   22.1620 C   0  0  0  0  0  2  0  0  0  0  0  0
  -19.1510  -28.8820   23.2910 C   0  0  0  0  0  0  0  0  0  0  0  0
  -18.9450  -30.1430   23.8920 C   0  0  0  0  0  3  0  0  0  0  0  0
  -17.6450  -30.6580   24.0570 C   0  0  0  0  0  3  0  0  0  0  0  0
  -16.5340  -29.9090   23.6320 C   0  0  0  0  0  3  0  0  0  0  0  0
  -16.7260  -28.6500   23.0350 C   0  0  0  0  0  3  0  0  0  0  0  0
  -25.9000  -32.4840   23.8420 C   0  0  0  0  0  3  0  0  0  0  0  0
  -25.5870  -33.8640   24.2350 N   0  0  0  0  0  0  0  0  0  0  0  0
  -25.9020  -34.9490   23.5150 C   0  0  0  0  0  0  0  0  0  0  0  0
  -26.5580  -34.8930   22.4710 O   0  0  0  0  0  0  0  0  0  0  0  0
  -25.0030  -33.9810   25.0500 H   0  0  0  0  0  0  0  0  0  0  0  0
  -24.1480  -36.7330   23.2640 C   0  0  0  0  0  1  0  0  0  0  0  0
  -25.4100  -36.3130   24.0340 C   0  0  0  0  0  3  0  0  0  0  0  0
  -27.5580  -37.1820   24.8470 C   0  0  0  0  0  1  0  0  0  0  0  0
  -26.4300  -37.3800   23.9400 N   0  0  0  0  0  0  0  0  0  0  0  0
  -26.0200  -38.2890   24.1370 H   0  0  0  0  0  0  0  0  0  0  0  0
  -26.4450  -31.6600   25.0720 C   0  0  1  0  0  0  0  0  0  0  0  0
  -25.3750  -31.3690   26.1490 C   0  0  0  0  0  1  0  0  0  0  0  0
  -27.0270  -30.3060   24.6040 C   0  0  0  0  0  1  0  0  0  0  0  0
  -27.6050  -32.4310   25.7470 C   0  0  0  0  0  1  0  0  0  0  0  0
  1  2  1  0
  2  3  1  0
  3  5  1  0
  4  8  1  0
  4  6  2  0
  5  4  1  0
  7  5  1  0
  9  8  1  0
 10  9  1  0
 11 12  1  0
 11 10  1  0
 13 14  1  0
 13 12  1  0
 15 23  1  0
 16 21  1  0
 17 18  1  0
 17 16  1  0
 19 18  1  0
 19 28  1  0
 19 20  1  0
 21 15  1  0
 21 20  1  0
 22 15  2  0
 23 14  1  0
 23 24  1  0
 25 26  2  0
 26 45  1  0
 27 26  1  0
 27 30  1  0
 28 25  1  0
 28 29  1  0
 29 27  2  0
 30 31  1  0
 31 32  2  0
 33 36  1  0
 33 32  1  0
 34 33  2  0
 35 34  1  0
 35 30  2  0
 36 37  1  0
 37 38  1  0
 38 39  2  0
 40 39  1  0
 40 44  1  0
 41 40  2  0
 42 37  2  0
 42 41  1  0
 43 42  1  0
 45 46  1  0
 46 49  1  0
 46 48  1  0
 47 45  2  0
 50 51  1  0
 50 25  1  0
 52 50  1  0
 53  1  1  0
 54 56  1  0
 54 53  1  0
 55 59  1  0
 55 56  1  0
 56 58  1  0
 57 55  2  0
 60 61  1  0
 60 59  2  0
 62 64  1  0
 62 61  1  0
 63 74  2  0
 64 69  1  0
 65 73  1  0
 65 75  1  0
 66 72  1  0
 66 68  1  0
 67 73  1  0
 68 67  1  0
 69 68  2  0
 70 71  1  0
 70 64  2  0
 71 66  2  0
 72 65  1  0
 73 63  1  0
 75 77  2  0
 76 75  1  0
 78 76  1  0
 79 88  2  0
 79 84  1  0
 80 76  1  0
 80 84  1  0
 81 80  1  0
 82 83  1  0
 82 81  1  0
 83 79  1  0
 84 85  2  0
 85 86  1  0
 87 86  2  0
 88 87  1  0
 89 63  1  0
 89 90  1  0
 89 99  1  0
 90 93  1  0
 91 95  1  0
 91 90  1  0
 92 91  2  0
 95 94  1  0
 97 95  1  0
 97 98  1  0
 97 96  1  0
 99102  1  1
 99100  1  0
101 99  1  0
M  ISO  4  15 100  23 100  61 101  62 101
M  END
>  <TORSDO>  (62) 
F 31

>  <SCORE>  (62) 
2.340

>  <name>  (62) 
62

>  <ligand_id>  (62) 
62

>  <original_smiles>  (62) 
[H]C(C(=O)N([H])C([H])([H])C([H])([H])C([H])([H])C([H])([H])C([H])([H])N([H])C(=O)C([H])([H])OC([H])([H])C([H])([H])OC([H])([H])C([H])([H])N([H])C(=O)N1C([H])([H])C([H])([H])C([H])([H])C([H])(n2nc(-c3c([H])c([H])c(Oc4c([H])c([H])c(F)c([H])c4F)c([H])c3[H])c(C(=O)N([H])[H])c2N([H])[H])C1([H])[H])=C([H])C([H])([H])Oc1c([H])c([H])c2c(c1[H])C([H])([H])N(C(=O)C([H])(N([H])C(=O)C([H])(N([H])C([H])([H])[H])C([H])([H])[H])C(C([H])([H])[H])(C([H])([H])[H])C([H])([H])[H])C([H])(C(=O)N([H])C1([H])c3c([H])c([H])c([H])c([H])c3C([H])([H])C([H])([H])C1([H])[H])C2([H])[H]

>  <smiles>  (62) 
[H]C(C(=O)N([H])C([H])([H])C([H])([H])C([H])([H])C([H])([H])C([H])([H])N([H])C(=O)C([H])([H])OC([H])([H])C([H])([H])OC([H])([H])C([H])([H])N([H])C(=O)N1C([H])([H])C([H])([H])C([H])([H])C([H])(n2nc(-c3c([H])c([H])c(Oc4c([H])c([H])c(F)c([H])c4F)c([H])c3[H])c(C(=O)N([H])[H])c2N([H])[H])C1([H])[H])=C([H])C([H])([H])Oc1c([H])c([H])c2c(c1[H])C([H])([H])N(C(=O)C([H])(N([H])C(=O)C([H])(N([H])C([H])([H])[H])C([H])([H])[H])C(C([H])([H])[H])(C([H])([H])[H])C([H])([H])[H])C([H])(C(=O)N([H])C1([H])c3c([H])c([H])c([H])c([H])c3C([H])([H])C([H])([H])C1([H])[H])C2([H])[H]

$$$$
63:0:0
     RDKit          3D

 91 98  0  0  1  0  0  0  0  0999 V2000
  -28.5520  -24.1460   19.9820 C   0  0  0  0  0  0  0  0  0  0  0  0
  -28.5940  -22.9380   20.5820 N   0  0  0  0  0  0  0  0  0  0  0  0
  -28.7590  -24.2820   18.7720 O   0  0  0  0  0  0  0  0  0  0  0  0
  -28.3890  -22.9150   21.5730 H   0  0  0  0  0  0  0  0  0  0  0  0
  -28.2550  -25.3790   20.8720 C   0  0  0  0  0  2  0  0  0  0  0  0
  -28.3980  -26.6410   20.1730 O   0  0  0  0  0  0  0  0  0  0  0  0
  -24.6170  -31.8740   23.2020 C   0  0  0  0  0  0  0  0  0  0  0  0
  -27.2570  -27.4130   20.1510 C   0  0  0  0  0  0  0  0  0  0  0  0
  -23.4140  -30.4680   21.5620 C   0  0  0  0  0  3  0  0  0  0  0  0
  -24.8710  -28.9300   20.1410 C   0  0  0  0  0  0  0  0  0  0  0  0
  -25.9400  -30.8280   21.3650 C   0  0  0  0  0  2  0  0  0  0  0  0
  -26.0290  -29.4540   20.7310 C   0  0  0  0  0  0  0  0  0  0  0  0
  -27.2290  -28.7040   20.7290 C   0  0  0  0  0  3  0  0  0  0  0  0
  -26.0870  -26.9080   19.5470 C   0  0  0  0  0  3  0  0  0  0  0  0
  -24.8960  -27.6570   19.5430 C   0  0  0  0  0  3  0  0  0  0  0  0
  -23.6270  -29.7880   20.1840 C   0  0  0  0  0  2  0  0  0  0  0  0
  -24.6750  -31.0720   22.1020 N   0  0  0  0  0  0  0  0  0  0  0  0
  -23.5330  -32.1460   23.7400 O   0  0  0  0  0  0  0  0  0  0  0  0
  -22.7640  -29.4470   22.5250 C   0  0  0  0  0  0  0  0  0  0  0  0
  -21.4390  -29.2620   22.3950 N   0  0  0  0  0  0  0  0  0  0  0  0
  -23.4470  -28.8240   23.3420 O   0  0  0  0  0  0  0  0  0  0  0  0
  -20.9490  -29.8190   21.7100 H   0  0  0  0  0  0  0  0  0  0  0  0
  -18.0700  -28.0470   22.8730 C   0  0  0  0  0  0  0  0  0  0  0  0
  -20.6230  -28.3250   23.1660 C   0  0  0  0  0  3  0  0  0  0  0  0
  -20.7410  -26.8890   22.6020 C   0  0  0  0  0  2  0  0  0  0  0  0
  -19.6490  -26.5510   21.5810 C   0  0  0  0  0  2  0  0  0  0  0  0
  -18.2610  -26.6930   22.2110 C   0  0  0  0  0  2  0  0  0  0  0  0
  -19.1800  -28.8190   23.3070 C   0  0  0  0  0  0  0  0  0  0  0  0
  -18.9470  -30.0860   23.8850 C   0  0  0  0  0  3  0  0  0  0  0  0
  -17.6380  -30.5810   24.0340 C   0  0  0  0  0  3  0  0  0  0  0  0
  -16.5430  -29.8070   23.6150 C   0  0  0  0  0  3  0  0  0  0  0  0
  -16.7600  -28.5410   23.0400 C   0  0  0  0  0  3  0  0  0  0  0  0
  -25.9000  -32.5090   23.8220 C   0  0  0  0  0  3  0  0  0  0  0  0
  -25.5900  -33.9080   24.1470 N   0  0  0  0  0  0  0  0  0  0  0  0
  -25.9190  -34.9560   23.3810 C   0  0  0  0  0  0  0  0  0  0  0  0
  -26.5860  -34.8490   22.3480 O   0  0  0  0  0  0  0  0  0  0  0  0
  -24.9990  -34.0660   24.9490 H   0  0  0  0  0  0  0  0  0  0  0  0
  -24.1780  -36.7370   23.0280 C   0  0  0  0  0  1  0  0  0  0  0  0
  -25.4280  -36.3450   23.8310 C   0  0  0  0  0  3  0  0  0  0  0  0
  -27.5680  -37.2440   24.6320 C   0  0  0  0  0  1  0  0  0  0  0  0
  -26.4540  -37.4030   23.7020 N   0  0  0  0  0  0  0  0  0  0  0  0
  -26.0440  -38.3210   23.8540 H   0  0  0  0  0  0  0  0  0  0  0  0
  -26.4190  -31.7410   25.1000 C   0  0  1  0  0  0  0  0  0  0  0  0
  -25.3270  -31.5080   26.1700 C   0  0  0  0  0  1  0  0  0  0  0  0
  -27.0000  -30.3620   24.7090 C   0  0  0  0  0  1  0  0  0  0  0  0
  -27.5680  -32.5380   25.7610 C   0  0  0  0  0  1  0  0  0  0  0  0
  -29.0230  -21.6720   19.9570 C   0  0  0  0  0  2  0  0  0  0  0  0
  -28.7270  -20.4130   20.8270 C   0  0  0  0  0  2  0  0  0  0  0  0
  -29.2950  -17.9520   20.7400 C   0  0  0  0  0  0  0  0  0  0  0  0
  -29.5470  -19.2460   20.4520 N   0  0  0  0  0  0  0  0  0  0  0  0
  -28.2610  -17.5880   21.3040 O   0  0  0  0  0  0  0  0  0  0  0  0
  -30.4210  -19.4430   19.9800 H   0  0  0  0  0  0  0  0  0  0  0  0
  -30.3680  -16.9120   20.3580 C   0  0  0  0  0  2  0  0  0  0  0  0
  -30.6310  -14.4590   20.0520 C   0  0  0  0  0  0  0  0  0  0  0  0
  -30.2680  -12.2980   18.9250 C   0  0  0  0  0  2  0  0  0  0  0  0
  -29.2660  -12.5140   17.7740 C   0  0  0  0  0  2  0  0  0  0  0  0
  -27.8140  -12.3910   18.2780 C   0  0  0  0  0  2  0  0  0  0  0  0
  -27.5540  -13.2110   19.5720 C   0  0  0  0  0  3  0  0  0  0  0  0
  -28.6670  -12.9780   20.6170 C   0  0  0  0  0  2  0  0  0  0  0  0
  -29.9540  -13.2810   19.9740 N   0  0  0  0  0  0  0  0  0  0  0  0
  -31.7440  -14.6210   19.5420 O   0  0  0  0  0  0  0  0  0  0  0  0
  -29.9470  -15.5100   20.5390 N   0  0  0  0  0  0  0  0  0  0  0  0
  -29.0300  -15.3610   20.9340 H   0  0  0  0  0  0  0  0  0  0  0  0
  -25.2070  -13.8190   20.4280 C   0  0  0  0  0  0  0  0  0  0  0  0
  -24.1570  -13.0480   20.8480 C   0  0  0  0  0  0  0  0  0  0  0  0
  -24.6070  -11.6940   20.7720 C   0  0  0  0  0  0  0  0  0  0  0  0
  -26.2300  -12.9350   20.1240 N   0  0  0  0  0  0  0  0  0  0  0  0
  -25.8770  -11.6510   20.3890 N   0  0  0  0  0  0  0  0  0  0  0  0
  -23.8840  -10.4340   20.9870 C   0  0  0  0  0  0  0  0  0  0  0  0
  -24.3630   -9.4520   21.8840 C   0  0  0  0  0  3  0  0  0  0  0  0
  -23.6420   -8.2560   22.0860 C   0  0  0  0  0  3  0  0  0  0  0  0
  -22.4280   -8.0330   21.3930 C   0  0  0  0  0  0  0  0  0  0  0  0
  -21.9680   -9.0040   20.4850 C   0  0  0  0  0  3  0  0  0  0  0  0
  -22.6900  -10.1910   20.2800 C   0  0  0  0  0  3  0  0  0  0  0  0
  -21.6730   -6.8920   21.5100 O   0  0  0  0  0  0  0  0  0  0  0  0
  -21.6760   -6.1390   22.6570 C   0  0  0  0  0  0  0  0  0  0  0  0
  -21.3350   -6.6900   23.9110 C   0  0  0  0  0  3  0  0  0  0  0  0
  -21.2830   -5.8650   25.0530 C   0  0  0  0  0  3  0  0  0  0  0  0
  -21.5620   -4.4890   24.9410 C   0  0  0  0  0  0  0  0  0  0  0  0
  -21.8960   -3.9370   23.6920 C   0  0  0  0  0  3  0  0  0  0  0  0
  -21.9490   -4.7600   22.5530 C   0  0  0  0  0  0  0  0  0  0  0  0
  -22.2510   -4.2190   21.3480 F   0  0  0  0  0  0  0  0  0  0  0  0
  -21.5040   -3.6940   26.0350 F   0  0  0  0  0  0  0  0  0  0  0  0
  -22.7820  -13.5290   21.2080 C   0  0  0  0  0  0  0  0  0  0  0  0
  -22.1040  -12.8290   22.1120 N   0  0  0  0  0  0  0  0  0  0  0  0
  -22.3180  -14.5600   20.7250 O   0  0  0  0  0  0  0  0  0  0  0  0
  -22.4930  -11.9970   22.5270 H   0  0  0  0  0  0  0  0  0  0  0  0
  -21.1820  -13.1320   22.3940 H   0  0  0  0  0  0  0  0  0  0  0  0
  -25.3710  -15.1920   20.2630 N   0  0  0  0  0  0  0  0  0  0  0  0
  -24.6260  -15.8550   20.4450 H   0  0  0  0  0  0  0  0  0  0  0  0
  -26.2180  -15.6360   19.9300 H   0  0  0  0  0  0  0  0  0  0  0  0
  1  2  1  0
  1  5  1  0
  2  4  1  0
  3  1  2  0
  6  5  1  0
  7 18  2  0
  8  6  1  0
  8 13  1  0
  9 17  1  0
  9 19  1  0
 10 16  1  0
 10 12  1  0
 11 17  1  0
 12 11  1  0
 13 12  2  0
 14  8  2  0
 15 14  1  0
 15 10  2  0
 16  9  1  0
 17  7  1  0
 19 21  2  0
 20 19  1  0
 22 20  1  0
 23 32  2  0
 23 28  1  0
 24 20  1  0
 24 28  1  0
 25 24  1  0
 26 27  1  0
 26 25  1  0
 27 23  1  0
 28 29  2  0
 29 30  1  0
 31 30  2  0
 32 31  1  0
 33  7  1  0
 33 34  1  0
 33 43  1  0
 34 37  1  0
 35 39  1  0
 35 34  1  0
 36 35  2  0
 39 38  1  0
 41 39  1  0
 41 42  1  0
 41 40  1  0
 43 46  1  1
 43 44  1  0
 45 43  1  0
 47  2  1  0
 47 48  1  0
 49 51  2  0
 50 49  1  0
 50 48  1  0
 52 50  1  0
 53 62  1  0
 53 49  1  0
 54 62  1  0
 55 60  1  0
 56 57  1  0
 56 55  1  0
 58 57  1  0
 58 67  1  0
 58 59  1  0
 60 54  1  0
 60 59  1  0
 61 54  2  0
 62 63  1  0
 64 65  2  0
 65 84  1  0
 66 65  1  0
 66 69  1  0
 67 68  1  0
 67 64  1  0
 68 66  2  0
 69 70  1  0
 70 71  2  0
 72 75  1  0
 72 71  1  0
 73 72  2  0
 74 73  1  0
 74 69  2  0
 75 76  1  0
 76 77  1  0
 77 78  2  0
 79 78  1  0
 79 83  1  0
 80 79  2  0
 81 76  2  0
 81 80  1  0
 82 81  1  0
 84 85  1  0
 85 88  1  0
 85 87  1  0
 86 84  2  0
 89 64  1  0
 89 90  1  0
 91 89  1  0
M  ISO  4   5 101   6 101  54 100  62 100
M  END
>  <TORSDO>  (63) 
F 21

>  <SCORE>  (63) 
-12.880

>  <name>  (63) 
63

>  <ligand_id>  (63) 
63

>  <original_smiles>  (63) 
[H]c1c([H])c([H])c2c(c1[H])C([H])([H])C([H])([H])C([H])([H])C2([H])N([H])C(=O)C1([H])N(C(=O)C([H])(N([H])C(=O)C([H])(N([H])C([H])([H])[H])C([H])([H])[H])C(C([H])([H])[H])(C([H])([H])[H])C([H])([H])[H])C([H])([H])c2c([H])c(OC([H])([H])C(=O)N([H])C([H])([H])C([H])([H])N([H])C(=O)C([H])([H])N([H])C(=O)N3C([H])([H])C([H])([H])C([H])([H])C([H])(n4nc(-c5c([H])c([H])c(Oc6c([H])c([H])c(F)c([H])c6F)c([H])c5[H])c(C(=O)N([H])[H])c4N([H])[H])C3([H])[H])c([H])c([H])c2C1([H])[H]

>  <smiles>  (63) 
[H]c1c([H])c([H])c2c(c1[H])C([H])([H])C([H])([H])C([H])([H])C2([H])N([H])C(=O)C1([H])N(C(=O)C([H])(N([H])C(=O)C([H])(N([H])C([H])([H])[H])C([H])([H])[H])C(C([H])([H])[H])(C([H])([H])[H])C([H])([H])[H])C([H])([H])c2c([H])c(OC([H])([H])C(=O)N([H])C([H])([H])C([H])([H])N([H])C(=O)C([H])([H])N([H])C(=O)N3C([H])([H])C([H])([H])C([H])([H])C([H])(n4nc(-c5c([H])c([H])c(Oc6c([H])c([H])c(F)c([H])c6F)c([H])c5[H])c(C(=O)N([H])[H])c4N([H])[H])C3([H])[H])c([H])c([H])c2C1([H])[H]

$$$$
64:0:0
     RDKit          3D

 99106  0  0  1  0  0  0  0  0999 V2000
  -26.3430  -19.6110   18.8640 C   0  0  0  0  0  2  0  0  0  0  0  0
  -27.8220  -20.0400   18.7920 C   0  0  0  0  0  2  0  0  0  0  0  0
  -28.4790  -19.8530   17.4180 C   0  0  0  0  0  2  0  0  0  0  0  0
  -29.7180  -20.5370   17.4900 O   0  0  0  0  0  0  0  0  0  0  0  0
  -30.7190  -20.0590   16.6040 C   0  0  0  0  0  2  0  0  0  0  0  0
  -32.0580  -20.2010   17.3390 C   0  0  0  0  0  2  0  0  0  0  0  0
  -31.7760  -19.8670   18.6850 O   0  0  0  0  0  0  0  0  0  0  0  0
  -32.8760  -19.8960   19.5760 C   0  0  0  0  0  2  0  0  0  0  0  0
  -32.2670  -19.5560   20.9380 C   0  0  0  0  0  2  0  0  0  0  0  0
  -31.7210  -18.2570   20.7900 O   0  0  0  0  0  0  0  0  0  0  0  0
  -30.9980  -17.7990   21.9130 C   0  0  0  0  0  2  0  0  0  0  0  0
  -31.1120  -16.2730   21.8840 C   0  0  0  0  0  2  0  0  0  0  0  0
  -29.9910  -15.1280   19.9770 C   0  0  0  0  0  0  0  0  0  0  0  0
  -29.8640  -12.8630   19.0290 C   0  0  0  0  0  2  0  0  0  0  0  0
  -28.8270  -12.6350   17.9220 C   0  0  0  0  0  2  0  0  0  0  0  0
  -27.4570  -12.2930   18.5300 C   0  0  0  0  0  2  0  0  0  0  0  0
  -27.0220  -13.3180   19.6070 C   0  0  0  0  0  3  0  0  0  0  0  0
  -28.1440  -13.5610   20.6370 C   0  0  0  0  0  2  0  0  0  0  0  0
  -29.3810  -13.9250   19.9230 N   0  0  0  0  0  0  0  0  0  0  0  0
  -30.7410  -15.5600   19.0960 O   0  0  0  0  0  0  0  0  0  0  0  0
  -29.9800  -15.6270   21.2190 N   0  0  0  0  0  0  0  0  0  0  0  0
  -29.3010  -15.2070   21.8370 H   0  0  0  0  0  0  0  0  0  0  0  0
  -24.7210  -13.6900   20.6980 C   0  0  0  0  0  0  0  0  0  0  0  0
  -23.7730  -12.8130   21.1550 C   0  0  0  0  0  0  0  0  0  0  0  0
  -24.3150  -11.5060   20.9540 C   0  0  0  0  0  0  0  0  0  0  0  0
  -25.7770  -12.9100   20.2530 N   0  0  0  0  0  0  0  0  0  0  0  0
  -25.5440  -11.5890   20.4610 N   0  0  0  0  0  0  0  0  0  0  0  0
  -23.7110  -10.1820   21.1480 C   0  0  0  0  0  0  0  0  0  0  0  0
  -24.2630   -9.2450   22.0510 C   0  0  0  0  0  3  0  0  0  0  0  0
  -23.6550   -7.9850   22.2350 C   0  0  0  0  0  3  0  0  0  0  0  0
  -22.4820   -7.6510   21.5150 C   0  0  0  0  0  0  0  0  0  0  0  0
  -21.9530   -8.5770   20.5990 C   0  0  0  0  0  3  0  0  0  0  0  0
  -22.5630   -9.8290   20.4140 C   0  0  0  0  0  3  0  0  0  0  0  0
  -21.8390   -6.4410   21.6080 O   0  0  0  0  0  0  0  0  0  0  0  0
  -21.8050   -5.7320   22.7830 C   0  0  0  0  0  0  0  0  0  0  0  0
  -21.2630   -6.2770   23.9680 C   0  0  0  0  0  3  0  0  0  0  0  0
  -21.1850   -5.4900   25.1320 C   0  0  0  0  0  3  0  0  0  0  0  0
  -21.6380   -4.1570   25.1160 C   0  0  0  0  0  0  0  0  0  0  0  0
  -22.1730   -3.6110   23.9350 C   0  0  0  0  0  3  0  0  0  0  0  0
  -22.2540   -4.3960   22.7710 C   0  0  0  0  0  0  0  0  0  0  0  0
  -22.7500   -3.8570   21.6300 F   0  0  0  0  0  0  0  0  0  0  0  0
  -21.5550   -3.3980   26.2320 F   0  0  0  0  0  0  0  0  0  0  0  0
  -22.4040  -13.1600   21.6630 C   0  0  0  0  0  0  0  0  0  0  0  0
  -21.8710  -12.3610   22.5800 N   0  0  0  0  0  0  0  0  0  0  0  0
  -21.8200  -14.1740   21.2850 O   0  0  0  0  0  0  0  0  0  0  0  0
  -22.3590  -11.5400   22.9050 H   0  0  0  0  0  0  0  0  0  0  0  0
  -20.9590  -12.5730   22.9610 H   0  0  0  0  0  0  0  0  0  0  0  0
  -24.7660  -15.0770   20.6050 N   0  0  0  0  0  0  0  0  0  0  0  0
  -23.9870  -15.6660   20.8770 H   0  0  0  0  0  0  0  0  0  0  0  0
  -25.5420  -15.6000   20.2190 H   0  0  0  0  0  0  0  0  0  0  0  0
  -25.3780  -20.8110   18.8460 C   0  0  0  0  0  2  0  0  0  0  0  0
  -25.4270  -21.6460   17.5480 C   0  0  0  0  0  2  0  0  0  0  0  0
  -25.0750  -23.1260   17.7690 C   0  0  0  0  0  2  0  0  0  0  0  0
  -27.0210  -24.6020   18.4020 C   0  0  0  0  0  0  0  0  0  0  0  0
  -26.0160  -23.7600   18.6910 N   0  0  0  0  0  0  0  0  0  0  0  0
  -27.3570  -24.8780   17.2490 O   0  0  0  0  0  0  0  0  0  0  0  0
  -25.8430  -23.5900   19.6720 H   0  0  0  0  0  0  0  0  0  0  0  0
  -27.7110  -25.2650   19.6130 C   0  0  0  0  0  2  0  0  0  0  0  0
  -27.7950  -26.7040   19.5220 O   0  0  0  0  0  0  0  0  0  0  0  0
  -24.4900  -31.8740   23.1960 C   0  0  0  0  0  0  0  0  0  0  0  0
  -26.6480  -27.4550   19.7030 C   0  0  0  0  0  0  0  0  0  0  0  0
  -23.0940  -30.6070   21.5990 C   0  0  0  0  0  3  0  0  0  0  0  0
  -24.3480  -29.0840   20.0010 C   0  0  0  0  0  0  0  0  0  0  0  0
  -25.6170  -30.8500   21.2220 C   0  0  0  0  0  2  0  0  0  0  0  0
  -25.5750  -29.5100   20.5170 C   0  0  0  0  0  0  0  0  0  0  0  0
  -26.7280  -28.7040   20.3650 C   0  0  0  0  0  3  0  0  0  0  0  0
  -25.3880  -27.0490   19.2030 C   0  0  0  0  0  3  0  0  0  0  0  0
  -24.2470  -27.8510   19.3420 C   0  0  0  0  0  3  0  0  0  0  0  0
  -23.1600  -29.9970   20.1770 C   0  0  0  0  0  2  0  0  0  0  0  0
  -24.4240  -31.1220   22.0600 N   0  0  0  0  0  0  0  0  0  0  0  0
  -23.4670  -32.1660   23.8300 O   0  0  0  0  0  0  0  0  0  0  0  0
  -22.4760  -29.5640   22.5590 C   0  0  0  0  0  0  0  0  0  0  0  0
  -21.1570  -29.3450   22.4340 N   0  0  0  0  0  0  0  0  0  0  0  0
  -23.1790  -28.9590   23.3740 O   0  0  0  0  0  0  0  0  0  0  0  0
  -20.6500  -29.8910   21.7530 H   0  0  0  0  0  0  0  0  0  0  0  0
  -17.8480  -27.9460   22.8420 C   0  0  0  0  0  0  0  0  0  0  0  0
  -20.3680  -28.3880   23.2110 C   0  0  0  0  0  3  0  0  0  0  0  0
  -20.5880  -26.9430   22.7090 C   0  0  0  0  0  2  0  0  0  0  0  0
  -19.5560  -26.5010   21.6640 C   0  0  0  0  0  2  0  0  0  0  0  0
  -18.1400  -26.5820   22.2390 C   0  0  0  0  0  2  0  0  0  0  0  0
  -18.8950  -28.7990   23.2840 C   0  0  0  0  0  0  0  0  0  0  0  0
  -18.5660  -30.0700   23.8060 C   0  0  0  0  0  3  0  0  0  0  0  0
  -17.2250  -30.4880   23.8950 C   0  0  0  0  0  3  0  0  0  0  0  0
  -16.1930  -29.6360   23.4640 C   0  0  0  0  0  3  0  0  0  0  0  0
  -16.5060  -28.3670   22.9440 C   0  0  0  0  0  3  0  0  0  0  0  0
  -25.8470  -32.4220   23.7340 C   0  0  0  0  0  3  0  0  0  0  0  0
  -26.4150  -31.5900   24.9510 C   0  0  1  0  0  0  0  0  0  0  0  0
  -25.3880  -31.3770   26.0890 C   0  0  0  0  0  1  0  0  0  0  0  0
  -26.8930  -30.1960   24.4850 C   0  0  0  0  0  1  0  0  0  0  0  0
  -27.6530  -32.3060   25.5410 C   0  0  0  0  0  1  0  0  0  0  0  0
  -25.6380  -33.8260   24.1170 N   0  0  0  0  0  0  0  0  0  0  0  0
  -25.9690  -34.8790   23.3590 C   0  0  0  0  0  0  0  0  0  0  0  0
  -26.5620  -34.7700   22.2810 O   0  0  0  0  0  0  0  0  0  0  0  0
  -25.1250  -33.9880   24.9700 H   0  0  0  0  0  0  0  0  0  0  0  0
  -24.3190  -36.7640   23.1470 C   0  0  0  0  0  1  0  0  0  0  0  0
  -25.5830  -36.2790   23.8750 C   0  0  0  0  0  3  0  0  0  0  0  0
  -27.8050  -37.0260   24.5990 C   0  0  0  0  0  1  0  0  0  0  0  0
  -26.6620  -37.2800   23.7270 N   0  0  0  0  0  0  0  0  0  0  0  0
  -26.3160  -38.2150   23.9240 H   0  0  0  0  0  0  0  0  0  0  0  0
  2  1  1  0
  3  4  1  0
  3  2  1  0
  5  6  1  0
  5  4  1  0
  6  7  1  0
  7  8  1  0
  8  9  1  0
 10  9  1  0
 10 11  1  0
 12 11  1  0
 13 21  1  0
 14 19  1  0
 15 16  1  0
 15 14  1  0
 17 16  1  0
 17 26  1  0
 17 18  1  0
 19 13  1  0
 19 18  1  0
 20 13  2  0
 21 22  1  0
 21 12  1  0
 23 24  2  0
 24 43  1  0
 25 28  1  0
 25 24  1  0
 26 27  1  0
 26 23  1  0
 27 25  2  0
 28 29  1  0
 29 30  2  0
 31 34  1  0
 31 30  1  0
 32 31  2  0
 33 32  1  0
 33 28  2  0
 34 35  1  0
 35 36  1  0
 36 37  2  0
 38 37  1  0
 38 42  1  0
 39 38  2  0
 40 35  2  0
 40 39  1  0
 41 40  1  0
 43 44  1  0
 44 46  1  0
 44 47  1  0
 45 43  2  0
 48 23  1  0
 48 49  1  0
 50 48  1  0
 51  1  1  0
 52 53  1  0
 52 51  1  0
 53 55  1  0
 54 55  1  0
 54 58  1  0
 55 57  1  0
 56 54  2  0
 59 58  1  0
 59 61  1  0
 60 71  2  0
 61 66  1  0
 62 70  1  0
 62 72  1  0
 63 69  1  0
 63 65  1  0
 64 70  1  0
 65 64  1  0
 66 65  2  0
 67 68  1  0
 67 61  2  0
 68 63  2  0
 69 62  1  0
 70 60  1  0
 72 74  2  0
 73 72  1  0
 75 73  1  0
 76 85  2  0
 76 81  1  0
 77 73  1  0
 77 81  1  0
 78 77  1  0
 79 80  1  0
 79 78  1  0
 80 76  1  0
 81 82  2  0
 82 83  1  0
 84 83  2  0
 85 84  1  0
 86 60  1  0
 86 91  1  0
 86 87  1  0
 87 90  1  1
 87 88  1  0
 89 87  1  0
 91 94  1  0
 92 96  1  0
 92 91  1  0
 93 92  2  0
 96 95  1  0
 98 96  1  0
 98 99  1  0
 98 97  1  0
M  ISO  4  13 100  21 100  58 101  59 101
M  END
>  <TORSDO>  (64) 
F 32

>  <SCORE>  (64) 
-9.691

>  <name>  (64) 
64

>  <ligand_id>  (64) 
64

>  <original_smiles>  (64) 
[H]c1c([H])c([H])c2c(c1[H])C([H])([H])C([H])([H])C([H])([H])C2([H])N([H])C(=O)C1([H])N(C(=O)C([H])(N([H])C(=O)C([H])(N([H])C([H])([H])[H])C([H])([H])[H])C(C([H])([H])[H])(C([H])([H])[H])C([H])([H])[H])C([H])([H])c2c([H])c(OC([H])([H])C(=O)N([H])C([H])([H])C([H])([H])C([H])([H])C([H])([H])C([H])([H])C([H])([H])OC([H])([H])C([H])([H])OC([H])([H])C([H])([H])OC([H])([H])C([H])([H])N([H])C(=O)N3C([H])([H])C([H])([H])C([H])([H])C([H])(n4nc(-c5c([H])c([H])c(Oc6c([H])c([H])c(F)c([H])c6F)c([H])c5[H])c(C(=O)N([H])[H])c4N([H])[H])C3([H])[H])c([H])c([H])c2C1([H])[H]

>  <smiles>  (64) 
[H]c1c([H])c([H])c2c(c1[H])C([H])([H])C([H])([H])C([H])([H])C2([H])N([H])C(=O)C1([H])N(C(=O)C([H])(N([H])C(=O)C([H])(N([H])C([H])([H])[H])C([H])([H])[H])C(C([H])([H])[H])(C([H])([H])[H])C([H])([H])[H])C([H])([H])c2c([H])c(OC([H])([H])C(=O)N([H])C([H])([H])C([H])([H])C([H])([H])C([H])([H])C([H])([H])C([H])([H])OC([H])([H])C([H])([H])OC([H])([H])C([H])([H])OC([H])([H])C([H])([H])N([H])C(=O)N3C([H])([H])C([H])([H])C([H])([H])C([H])(n4nc(-c5c([H])c([H])c(Oc6c([H])c([H])c(F)c([H])c6F)c([H])c5[H])c(C(=O)N([H])[H])c4N([H])[H])C3([H])[H])c([H])c([H])c2C1([H])[H]

$$$$
65:0:0
     RDKit          3D

 91 98  0  0  1  0  0  0  0  0999 V2000
  -30.1220  -22.1650   22.0890 C   0  0  0  0  0  2  0  0  0  0  0  0
  -30.1890  -20.6780   22.4470 C   0  0  0  0  0  2  0  0  0  0  0  0
  -31.5210  -20.2430   22.2320 O   0  0  0  0  0  0  0  0  0  0  0  0
  -31.7880  -18.9550   22.7720 C   0  0  0  0  0  2  0  0  0  0  0  0
  -33.1550  -18.5040   22.2420 C   0  0  0  0  0  2  0  0  0  0  0  0
  -33.0070  -18.1670   20.8680 O   0  0  0  0  0  0  0  0  0  0  0  0
  -34.2430  -17.9690   20.1980 C   0  0  0  0  0  2  0  0  0  0  0  0
  -33.9600  -17.3860   18.8080 C   0  0  0  0  0  2  0  0  0  0  0  0
  -33.3060  -15.0630   18.1900 C   0  0  0  0  0  0  0  0  0  0  0  0
  -32.9110  -12.6290   18.2450 C   0  0  0  0  0  2  0  0  0  0  0  0
  -31.8450  -12.1490   17.2470 C   0  0  0  0  0  2  0  0  0  0  0  0
  -30.4390  -12.2520   17.8630 C   0  0  0  0  0  2  0  0  0  0  0  0
  -30.1680  -13.6520   18.4720 C   0  0  0  0  0  3  0  0  0  0  0  0
  -31.3250  -14.0870   19.3960 C   0  0  0  0  0  2  0  0  0  0  0  0
  -32.5950  -14.0050   18.6490 N   0  0  0  0  0  0  0  0  0  0  0  0
  -34.1480  -14.9880   17.2900 O   0  0  0  0  0  0  0  0  0  0  0  0
  -33.1510  -16.1750   18.9150 N   0  0  0  0  0  0  0  0  0  0  0  0
  -32.4580  -16.1550   19.6480 H   0  0  0  0  0  0  0  0  0  0  0  0
  -28.1590  -14.7870   19.6200 C   0  0  0  0  0  0  0  0  0  0  0  0
  -26.9960  -14.2810   20.1360 C   0  0  0  0  0  0  0  0  0  0  0  0
  -27.0680  -12.8650   19.9610 C   0  0  0  0  0  0  0  0  0  0  0  0
  -28.8810  -13.6930   19.1670 N   0  0  0  0  0  0  0  0  0  0  0  0
  -28.2340  -12.5270   19.4240 N   0  0  0  0  0  0  0  0  0  0  0  0
  -26.0710  -11.8180   20.2180 C   0  0  0  0  0  0  0  0  0  0  0  0
  -26.2800  -10.8230   21.1980 C   0  0  0  0  0  3  0  0  0  0  0  0
  -25.2990   -9.8370   21.4390 C   0  0  0  0  0  3  0  0  0  0  0  0
  -24.0930   -9.8420   20.7000 C   0  0  0  0  0  0  0  0  0  0  0  0
  -23.8980  -10.8200   19.7090 C   0  0  0  0  0  3  0  0  0  0  0  0
  -24.8790  -11.7980   19.4670 C   0  0  0  0  0  3  0  0  0  0  0  0
  -23.0950   -8.9080   20.8470 O   0  0  0  0  0  0  0  0  0  0  0  0
  -22.7340   -8.4300   22.0810 C   0  0  0  0  0  0  0  0  0  0  0  0
  -22.2740   -9.2860   23.1060 C   0  0  0  0  0  3  0  0  0  0  0  0
  -21.8470   -8.7440   24.3350 C   0  0  0  0  0  3  0  0  0  0  0  0
  -21.8690   -7.3510   24.5380 C   0  0  0  0  0  0  0  0  0  0  0  0
  -22.3200   -6.4980   23.5150 C   0  0  0  0  0  3  0  0  0  0  0  0
  -22.7480   -7.0360   22.2900 C   0  0  0  0  0  0  0  0  0  0  0  0
  -23.1620   -6.2090   21.3010 F   0  0  0  0  0  0  0  0  0  0  0  0
  -21.4500   -6.8310   25.7150 F   0  0  0  0  0  0  0  0  0  0  0  0
  -25.8390  -15.0710   20.6780 C   0  0  0  0  0  0  0  0  0  0  0  0
  -25.1310  -14.5250   21.6620 N   0  0  0  0  0  0  0  0  0  0  0  0
  -25.5860  -16.2010   20.2640 O   0  0  0  0  0  0  0  0  0  0  0  0
  -25.3500  -13.6060   22.0150 H   0  0  0  0  0  0  0  0  0  0  0  0
  -24.3570  -15.0340   22.0650 H   0  0  0  0  0  0  0  0  0  0  0  0
  -28.6530  -16.0800   19.4830 N   0  0  0  0  0  0  0  0  0  0  0  0
  -28.1160  -16.8970   19.7520 H   0  0  0  0  0  0  0  0  0  0  0  0
  -29.5410  -16.3100   19.0510 H   0  0  0  0  0  0  0  0  0  0  0  0
  -28.7060  -22.5950   21.7020 C   0  0  0  0  0  2  0  0  0  0  0  0
  -28.7530  -23.7790   20.9180 O   0  0  0  0  0  0  0  0  0  0  0  0
  -27.5130  -24.4720   20.9530 C   0  0  0  0  0  2  0  0  0  0  0  0
  -27.6520  -25.9110   20.4160 C   0  0  0  0  0  2  0  0  0  0  0  0
  -26.8250  -26.1330   19.2680 O   0  0  0  0  0  0  0  0  0  0  0  0
  -24.1080  -31.4210   23.1620 C   0  0  0  0  0  0  0  0  0  0  0  0
  -25.7780  -26.9930   19.4870 C   0  0  0  0  0  0  0  0  0  0  0  0
  -22.5200  -30.2530   21.6620 C   0  0  0  0  0  3  0  0  0  0  0  0
  -23.5730  -28.6870   19.9460 C   0  0  0  0  0  0  0  0  0  0  0  0
  -24.9990  -30.4030   21.0720 C   0  0  0  0  0  2  0  0  0  0  0  0
  -24.8500  -29.0700   20.3720 C   0  0  0  0  0  0  0  0  0  0  0  0
  -25.9580  -28.2280   20.1480 C   0  0  0  0  0  3  0  0  0  0  0  0
  -24.4930  -26.6270   19.0380 C   0  0  0  0  0  3  0  0  0  0  0  0
  -23.3840  -27.4620   19.2800 C   0  0  0  0  0  3  0  0  0  0  0  0
  -22.4420  -29.6490   20.2320 C   0  0  0  0  0  2  0  0  0  0  0  0
  -23.9050  -30.7010   22.0230 N   0  0  0  0  0  0  0  0  0  0  0  0
  -23.1600  -31.7550   23.8850 O   0  0  0  0  0  0  0  0  0  0  0  0
  -21.9270  -29.2330   22.6590 C   0  0  0  0  0  0  0  0  0  0  0  0
  -20.6200  -28.9620   22.5280 N   0  0  0  0  0  0  0  0  0  0  0  0
  -22.6410  -28.6880   23.5040 O   0  0  0  0  0  0  0  0  0  0  0  0
  -20.1030  -29.4610   21.8170 H   0  0  0  0  0  0  0  0  0  0  0  0
  -17.4090  -27.3350   22.8260 C   0  0  0  0  0  0  0  0  0  0  0  0
  -19.8540  -28.0070   23.3300 C   0  0  0  0  0  3  0  0  0  0  0  0
  -20.2220  -26.5510   22.9640 C   0  0  0  0  0  2  0  0  0  0  0  0
  -19.3060  -25.9490   21.8930 C   0  0  0  0  0  2  0  0  0  0  0  0
  -17.8480  -25.9570   22.3620 C   0  0  0  0  0  2  0  0  0  0  0  0
  -18.3510  -28.3010   23.2660 C   0  0  0  0  0  0  0  0  0  0  0  0
  -17.8890  -29.5780   23.6540 C   0  0  0  0  0  3  0  0  0  0  0  0
  -16.5170  -29.8920   23.6100 C   0  0  0  0  0  3  0  0  0  0  0  0
  -15.5880  -28.9250   23.1930 C   0  0  0  0  0  3  0  0  0  0  0  0
  -16.0350  -27.6490   22.8030 C   0  0  0  0  0  3  0  0  0  0  0  0
  -25.5360  -31.8800   23.5990 C   0  0  0  0  0  3  0  0  0  0  0  0
  -26.1410  -31.0060   24.7650 C   0  0  1  0  0  0  0  0  0  0  0  0
  -25.1850  -30.8320   25.9690 C   0  0  0  0  0  1  0  0  0  0  0  0
  -26.5160  -29.5980   24.2470 C   0  0  0  0  0  1  0  0  0  0  0  0
  -27.4490  -31.6500   25.2800 C   0  0  0  0  0  1  0  0  0  0  0  0
  -25.4420  -33.2900   23.9980 N   0  0  0  0  0  0  0  0  0  0  0  0
  -25.9310  -34.3160   23.2890 C   0  0  0  0  0  0  0  0  0  0  0  0
  -26.5810  -34.1630   22.2510 O   0  0  0  0  0  0  0  0  0  0  0  0
  -24.8790  -33.4910   24.8120 H   0  0  0  0  0  0  0  0  0  0  0  0
  -24.5320  -36.3830   22.9830 C   0  0  0  0  0  1  0  0  0  0  0  0
  -25.6530  -35.7380   23.8120 C   0  0  0  0  0  3  0  0  0  0  0  0
  -27.8690  -36.2030   24.7580 C   0  0  0  0  0  1  0  0  0  0  0  0
  -26.8460  -36.6110   23.7990 N   0  0  0  0  0  0  0  0  0  0  0  0
  -26.5910  -37.5730   24.0000 H   0  0  0  0  0  0  0  0  0  0  0  0
  1  2  1  0
  3  2  1  0
  3  4  1  0
  5  4  1  0
  6  5  1  0
  7  6  1  0
  8 17  1  0
  8  7  1  0
  9 15  1  0
  9 17  1  0
 10 15  1  0
 11 12  1  0
 11 10  1  0
 13 12  1  0
 13 22  1  0
 13 14  1  0
 15 14  1  0
 16  9  2  0
 17 18  1  0
 19 20  2  0
 20 39  1  0
 21 20  1  0
 21 24  1  0
 22 23  1  0
 22 19  1  0
 23 21  2  0
 24 25  1  0
 25 26  2  0
 27 30  1  0
 27 26  1  0
 28 27  2  0
 29 28  1  0
 29 24  2  0
 30 31  1  0
 31 36  2  0
 31 32  1  0
 32 33  2  0
 33 34  1  0
 34 38  1  0
 35 34  2  0
 36 35  1  0
 37 36  1  0
 39 40  1  0
 40 42  1  0
 40 43  1  0
 41 39  2  0
 44 19  1  0
 44 45  1  0
 46 44  1  0
 47  1  1  0
 48 49  1  0
 48 47  1  0
 50 49  1  0
 51 53  1  0
 51 50  1  0
 52 63  2  0
 53 58  1  0
 54 62  1  0
 54 64  1  0
 55 61  1  0
 55 57  1  0
 56 62  1  0
 57 56  1  0
 58 57  2  0
 59 60  1  0
 59 53  2  0
 60 55  2  0
 61 54  1  0
 62 52  1  0
 64 66  2  0
 65 64  1  0
 67 65  1  0
 68 73  1  0
 69 65  1  0
 70 69  1  0
 71 72  1  0
 71 70  1  0
 72 68  1  0
 73 69  1  0
 73 74  2  0
 75 74  1  0
 76 75  2  0
 77 68  2  0
 77 76  1  0
 78 52  1  0
 78 83  1  0
 78 79  1  0
 79 82  1  1
 79 80  1  0
 81 79  1  0
 83 86  1  0
 84 88  1  0
 84 83  1  0
 85 84  2  0
 88 87  1  0
 90 88  1  0
 90 91  1  0
 90 89  1  0
M  ISO  4   9 100  17 100  50 101  51 101
M  END
>  <TORSDO>  (65) 
F 27

>  <SCORE>  (65) 
-4.188

>  <name>  (65) 
65

>  <ligand_id>  (65) 
65

>  <original_smiles>  (65) 
[H]c1c([H])c([H])c2c(c1[H])C([H])([H])C([H])([H])C([H])([H])C2([H])N([H])C(=O)C1([H])N(C(=O)C([H])(N([H])C(=O)C([H])(N([H])C([H])([H])[H])C([H])([H])[H])C(C([H])([H])[H])(C([H])([H])[H])C([H])([H])[H])C([H])([H])c2c([H])c(OC([H])([H])C([H])([H])OC([H])([H])C([H])([H])C([H])([H])OC([H])([H])C([H])([H])OC([H])([H])C([H])([H])N([H])C(=O)N3C([H])([H])C([H])([H])C([H])([H])C([H])(n4nc(-c5c([H])c([H])c(Oc6c([H])c([H])c(F)c([H])c6F)c([H])c5[H])c(C(=O)N([H])[H])c4N([H])[H])C3([H])[H])c([H])c([H])c2C1([H])[H]

>  <smiles>  (65) 
[H]c1c([H])c([H])c2c(c1[H])C([H])([H])C([H])([H])C([H])([H])C2([H])N([H])C(=O)C1([H])N(C(=O)C([H])(N([H])C(=O)C([H])(N([H])C([H])([H])[H])C([H])([H])[H])C(C([H])([H])[H])(C([H])([H])[H])C([H])([H])[H])C([H])([H])c2c([H])c(OC([H])([H])C([H])([H])OC([H])([H])C([H])([H])C([H])([H])OC([H])([H])C([H])([H])OC([H])([H])C([H])([H])N([H])C(=O)N3C([H])([H])C([H])([H])C([H])([H])C([H])(n4nc(-c5c([H])c([H])c(Oc6c([H])c([H])c(F)c([H])c6F)c([H])c5[H])c(C(=O)N([H])[H])c4N([H])[H])C3([H])[H])c([H])c([H])c2C1([H])[H]

$$$$
66:0:0
     RDKit          3D

 88 95  0  0  1  0  0  0  0  0999 V2000
  -28.1810  -22.6940   21.8190 C   0  0  0  0  0  1  0  0  0  0  0  0
  -28.8770  -22.8000   20.4530 C   0  0  0  0  0  3  0  0  0  0  0  0
  -29.3770  -19.8540   20.4150 C   0  0  0  0  0  0  0  0  0  0  0  0
  -29.0540  -21.2130   19.8810 N   0  0  0  0  0  0  0  0  0  0  0  0
  -29.3450  -19.7520   21.6410 O   0  0  0  0  0  0  0  0  0  0  0  0
  -29.0350  -21.2080   18.8680 H   0  0  0  0  0  0  0  0  0  0  0  0
  -29.8650  -18.3410   19.6590 C   0  0  0  0  0  2  0  0  0  0  0  0
  -30.5550  -15.4470   19.8650 C   0  0  0  0  0  0  0  0  0  0  0  0
  -30.5060  -12.9990   18.9830 C   0  0  0  0  0  2  0  0  0  0  0  0
  -29.5170  -12.7970   17.8060 C   0  0  0  0  0  2  0  0  0  0  0  0
  -28.1010  -12.5040   18.3300 C   0  0  0  0  0  2  0  0  0  0  0  0
  -27.7110  -13.4450   19.4970 C   0  0  0  0  0  3  0  0  0  0  0  0
  -28.8250  -13.5950   20.5570 C   0  0  0  0  0  2  0  0  0  0  0  0
  -30.0090  -14.1260   19.8610 N   0  0  0  0  0  0  0  0  0  0  0  0
  -31.7410  -15.4660   19.5040 O   0  0  0  0  0  0  0  0  0  0  0  0
  -29.7880  -16.7080   20.0640 N   0  0  0  0  0  0  0  0  0  0  0  0
  -28.8710  -16.4910   20.4240 H   0  0  0  0  0  0  0  0  0  0  0  0
  -25.3990  -13.9640   20.4340 C   0  0  0  0  0  0  0  0  0  0  0  0
  -24.3660  -13.1720   20.8450 C   0  0  0  0  0  0  0  0  0  0  0  0
  -24.8300  -11.8240   20.7300 C   0  0  0  0  0  0  0  0  0  0  0  0
  -26.4220  -13.1020   20.0840 N   0  0  0  0  0  0  0  0  0  0  0  0
  -26.0980  -11.8060   20.3290 N   0  0  0  0  0  0  0  0  0  0  0  0
  -24.1160  -10.5550   20.9200 C   0  0  0  0  0  0  0  0  0  0  0  0
  -24.5510   -9.5950   21.8610 C   0  0  0  0  0  3  0  0  0  0  0  0
  -23.8350   -8.3920   22.0410 C   0  0  0  0  0  3  0  0  0  0  0  0
  -22.6690   -8.1390   21.2800 C   0  0  0  0  0  0  0  0  0  0  0  0
  -22.2530   -9.0870   20.3280 C   0  0  0  0  0  3  0  0  0  0  0  0
  -22.9700  -10.2810   20.1470 C   0  0  0  0  0  3  0  0  0  0  0  0
  -21.9240   -6.9880   21.3690 O   0  0  0  0  0  0  0  0  0  0  0  0
  -21.8040   -6.2980   22.5480 C   0  0  0  0  0  0  0  0  0  0  0  0
  -21.2400   -6.8850   23.7010 C   0  0  0  0  0  3  0  0  0  0  0  0
  -21.0710   -6.1180   24.8710 C   0  0  0  0  0  3  0  0  0  0  0  0
  -21.4560   -4.7630   24.8880 C   0  0  0  0  0  0  0  0  0  0  0  0
  -22.0140   -4.1750   23.7390 C   0  0  0  0  0  3  0  0  0  0  0  0
  -22.1840   -4.9400   22.5720 C   0  0  0  0  0  0  0  0  0  0  0  0
  -22.7010   -4.3630   21.4600 F   0  0  0  0  0  0  0  0  0  0  0  0
  -21.2880   -4.0250   26.0100 F   0  0  0  0  0  0  0  0  0  0  0  0
  -22.9910  -13.6350   21.2260 C   0  0  0  0  0  0  0  0  0  0  0  0
  -22.3200  -12.9050   22.1090 N   0  0  0  0  0  0  0  0  0  0  0  0
  -22.5230  -14.6800   20.7740 O   0  0  0  0  0  0  0  0  0  0  0  0
  -22.7130  -12.0600   22.4950 H   0  0  0  0  0  0  0  0  0  0  0  0
  -21.4000  -13.1960   22.4060 H   0  0  0  0  0  0  0  0  0  0  0  0
  -25.5470  -15.3420   20.2970 N   0  0  0  0  0  0  0  0  0  0  0  0
  -24.7860  -15.9860   20.4820 H   0  0  0  0  0  0  0  0  0  0  0  0
  -26.3540  -15.7930   19.8860 H   0  0  0  0  0  0  0  0  0  0  0  0
  -28.0750  -24.2460   19.7010 C   0  0  0  0  0  0  0  0  0  0  0  0
  -27.3450  -23.9850   18.7420 O   0  0  0  0  0  0  0  0  0  0  0  0
  -28.1640  -25.8790   20.1970 O   0  0  0  0  0  0  0  0  0  0  0  0
  -24.6500  -31.8880   23.1610 C   0  0  0  0  0  0  0  0  0  0  0  0
  -27.1880  -27.0170   20.0730 C   0  0  0  0  0  0  0  0  0  0  0  0
  -23.4440  -30.5000   21.5280 C   0  0  0  0  0  3  0  0  0  0  0  0
  -24.8840  -28.9130   20.0720 C   0  0  0  0  0  0  0  0  0  0  0  0
  -26.0100  -30.7090   21.3620 C   0  0  0  0  0  2  0  0  0  0  0  0
  -26.0760  -29.3040   20.6910 C   0  0  0  0  0  0  0  0  0  0  0  0
  -27.2160  -28.3740   20.6770 C   0  0  0  0  0  3  0  0  0  0  0  0
  -25.9640  -26.7950   19.3970 C   0  0  0  0  0  3  0  0  0  0  0  0
  -24.8540  -27.6790   19.4050 C   0  0  0  0  0  3  0  0  0  0  0  0
  -23.6620  -29.8280   20.1430 C   0  0  0  0  0  2  0  0  0  0  0  0
  -24.7230  -31.0600   22.0700 N   0  0  0  0  0  0  0  0  0  0  0  0
  -23.5640  -32.1730   23.6940 O   0  0  0  0  0  0  0  0  0  0  0  0
  -22.7600  -29.4970   22.4940 C   0  0  0  0  0  0  0  0  0  0  0  0
  -21.4300  -29.3280   22.3790 N   0  0  0  0  0  0  0  0  0  0  0  0
  -23.4350  -28.8710   23.3160 O   0  0  0  0  0  0  0  0  0  0  0  0
  -20.9390  -29.8820   21.6930 H   0  0  0  0  0  0  0  0  0  0  0  0
  -18.0560  -28.1050   22.9200 C   0  0  0  0  0  0  0  0  0  0  0  0
  -20.6170  -28.3820   23.1540 C   0  0  0  0  0  3  0  0  0  0  0  0
  -20.7180  -26.9530   22.5700 C   0  0  0  0  0  2  0  0  0  0  0  0
  -19.6060  -26.6320   21.5670 C   0  0  0  0  0  2  0  0  0  0  0  0
  -18.2320  -26.7620   22.2290 C   0  0  0  0  0  2  0  0  0  0  0  0
  -19.1750  -28.8720   23.3410 C   0  0  0  0  0  0  0  0  0  0  0  0
  -18.9540  -30.1250   23.9520 C   0  0  0  0  0  3  0  0  0  0  0  0
  -17.6470  -30.6120   24.1450 C   0  0  0  0  0  3  0  0  0  0  0  0
  -16.5430  -29.8430   23.7370 C   0  0  0  0  0  3  0  0  0  0  0  0
  -16.7480  -28.5910   23.1320 C   0  0  0  0  0  3  0  0  0  0  0  0
  -25.9240  -32.5340   23.7860 C   0  0  0  0  0  3  0  0  0  0  0  0
  -26.4450  -31.7620   25.0610 C   0  0  1  0  0  0  0  0  0  0  0  0
  -25.3540  -31.5110   26.1290 C   0  0  0  0  0  1  0  0  0  0  0  0
  -27.0410  -30.3890   24.6740 C   0  0  0  0  0  1  0  0  0  0  0  0
  -27.5900  -32.5630   25.7260 C   0  0  0  0  0  1  0  0  0  0  0  0
  -25.6020  -33.9290   24.1370 N   0  0  0  0  0  0  0  0  0  0  0  0
  -25.9180  -34.9990   23.3980 C   0  0  0  0  0  0  0  0  0  0  0  0
  -26.5740  -34.9180   22.3560 O   0  0  0  0  0  0  0  0  0  0  0  0
  -25.0170  -34.0640   24.9480 H   0  0  0  0  0  0  0  0  0  0  0  0
  -24.1850  -36.8030   23.1020 C   0  0  0  0  0  1  0  0  0  0  0  0
  -25.4350  -36.3800   23.8890 C   0  0  0  0  0  3  0  0  0  0  0  0
  -27.5690  -37.2630   24.7260 C   0  0  0  0  0  1  0  0  0  0  0  0
  -26.4650  -37.4380   23.7870 N   0  0  0  0  0  0  0  0  0  0  0  0
  -26.0560  -38.3550   23.9450 H   0  0  0  0  0  0  0  0  0  0  0  0
  2  1  1  0
  3  5  2  0
  4  3  1  0
  4  2  1  0
  6  4  1  0
  7 16  1  0
  7  3  1  0
  8 16  1  0
  9 14  1  0
 10 11  1  0
 10  9  1  0
 12 11  1  0
 12 21  1  0
 12 13  1  0
 14  8  1  0
 14 13  1  0
 15  8  2  0
 16 17  1  0
 18 19  2  0
 19 38  1  0
 20 19  1  0
 20 23  1  0
 21 22  1  0
 21 18  1  0
 22 20  2  0
 23 24  1  0
 24 25  2  0
 26 29  1  0
 26 25  1  0
 27 26  2  0
 28 27  1  0
 28 23  2  0
 29 30  1  0
 30 35  2  0
 30 31  1  0
 31 32  2  0
 32 33  1  0
 33 37  1  0
 34 33  2  0
 35 34  1  0
 36 35  1  0
 38 39  1  0
 39 42  1  0
 39 41  1  0
 40 38  2  0
 43 18  1  0
 43 44  1  0
 45 43  1  0
 46 48  1  0
 46  2  1  0
 47 46  2  0
 49 60  2  0
 50 48  1  0
 50 55  1  0
 51 59  1  0
 51 61  1  0
 52 58  1  0
 52 54  1  0
 53 59  1  0
 54 53  1  0
 55 54  2  0
 56 57  1  0
 56 50  2  0
 57 52  2  0
 58 51  1  0
 59 49  1  0
 61 63  2  0
 62 61  1  0
 64 62  1  0
 65 74  2  0
 65 70  1  0
 66 62  1  0
 66 70  1  0
 67 66  1  0
 68 69  1  0
 68 67  1  0
 69 65  1  0
 70 71  2  0
 71 72  1  0
 73 72  2  0
 74 73  1  0
 75 49  1  0
 75 80  1  0
 75 76  1  0
 76 79  1  1
 76 77  1  0
 78 76  1  0
 80 83  1  0
 81 85  1  0
 81 80  1  0
 82 81  2  0
 85 84  1  0
 87 85  1  0
 87 88  1  0
 87 86  1  0
M  ISO  4   8 100  16 100  46 101  48 101
M  END
>  <TORSDO>  (66) 
F 19

>  <SCORE>  (66) 
-15.997

>  <name>  (66) 
66

>  <ligand_id>  (66) 
66

>  <original_smiles>  (66) 
[H]c1c([H])c([H])c2c(c1[H])C([H])([H])C([H])([H])C([H])([H])C2([H])N([H])C(=O)C1([H])N(C(=O)C([H])(N([H])C(=O)C([H])(N([H])C([H])([H])[H])C([H])([H])[H])C(C([H])([H])[H])(C([H])([H])[H])C([H])([H])[H])C([H])([H])c2c([H])c(OC(=O)C([H])(N([H])C(=O)C([H])([H])N([H])C(=O)N3C([H])([H])C([H])([H])C([H])([H])C([H])(n4nc(-c5c([H])c([H])c(Oc6c([H])c([H])c(F)c([H])c6F)c([H])c5[H])c(C(=O)N([H])[H])c4N([H])[H])C3([H])[H])C([H])([H])[H])c([H])c([H])c2C1([H])[H]

>  <smiles>  (66) 
[H]c1c([H])c([H])c2c(c1[H])C([H])([H])C([H])([H])C([H])([H])C2([H])N([H])C(=O)C1([H])N(C(=O)C([H])(N([H])C(=O)C([H])(N([H])C([H])([H])[H])C([H])([H])[H])C(C([H])([H])[H])(C([H])([H])[H])C([H])([H])[H])C([H])([H])c2c([H])c(OC(=O)C([H])(N([H])C(=O)C([H])([H])N([H])C(=O)N3C([H])([H])C([H])([H])C([H])([H])C([H])(n4nc(-c5c([H])c([H])c(Oc6c([H])c([H])c(F)c([H])c6F)c([H])c5[H])c(C(=O)N([H])[H])c4N([H])[H])C3([H])[H])C([H])([H])[H])c([H])c([H])c2C1([H])[H]

$$$$
67:0:0
     RDKit          3D

 95102  0  0  1  0  0  0  0  0999 V2000
  -29.8730  -22.2780   23.3230 C   0  0  0  0  0  2  0  0  0  0  0  0
  -28.8940  -23.4430   23.5500 C   0  0  0  0  0  2  0  0  0  0  0  0
  -29.0390  -24.9810   21.5860 C   0  0  0  0  0  0  0  0  0  0  0  0
  -28.4390  -24.0050   22.2800 N   0  0  0  0  0  0  0  0  0  0  0  0
  -30.0520  -25.5570   21.9920 O   0  0  0  0  0  0  0  0  0  0  0  0
  -27.6020  -23.6040   21.8750 H   0  0  0  0  0  0  0  0  0  0  0  0
  -28.4170  -25.3560   20.2330 C   0  0  0  0  0  2  0  0  0  0  0  0
  -28.4330  -26.7790   20.0760 O   0  0  0  0  0  0  0  0  0  0  0  0
  -24.6100  -31.8700   23.2110 C   0  0  0  0  0  0  0  0  0  0  0  0
  -27.2350  -27.4580   20.0950 C   0  0  0  0  0  0  0  0  0  0  0  0
  -23.3970  -30.4940   21.5520 C   0  0  0  0  0  3  0  0  0  0  0  0
  -24.8420  -28.9600   20.1180 C   0  0  0  0  0  0  0  0  0  0  0  0
  -25.9220  -30.8430   21.3600 C   0  0  0  0  0  2  0  0  0  0  0  0
  -26.0000  -29.4770   20.7120 C   0  0  0  0  0  0  0  0  0  0  0  0
  -27.1970  -28.7330   20.6970 C   0  0  0  0  0  3  0  0  0  0  0  0
  -26.0610  -26.9530   19.4890 C   0  0  0  0  0  3  0  0  0  0  0  0
  -24.8660  -27.6950   19.5070 C   0  0  0  0  0  3  0  0  0  0  0  0
  -23.6030  -29.8250   20.1670 C   0  0  0  0  0  2  0  0  0  0  0  0
  -24.6610  -31.0830   22.1000 N   0  0  0  0  0  0  0  0  0  0  0  0
  -23.5310  -32.1450   23.7530 O   0  0  0  0  0  0  0  0  0  0  0  0
  -22.7390  -29.4670   22.5010 C   0  0  0  0  0  0  0  0  0  0  0  0
  -21.4120  -29.3020   22.3740 N   0  0  0  0  0  0  0  0  0  0  0  0
  -23.4170  -28.8210   23.3030 O   0  0  0  0  0  0  0  0  0  0  0  0
  -20.9270  -29.8750   21.6980 H   0  0  0  0  0  0  0  0  0  0  0  0
  -18.0270  -28.1370   22.8490 C   0  0  0  0  0  0  0  0  0  0  0  0
  -20.5850  -28.3650   23.1330 C   0  0  0  0  0  3  0  0  0  0  0  0
  -20.6760  -26.9390   22.5420 C   0  0  0  0  0  2  0  0  0  0  0  0
  -19.5750  -26.6380   21.5210 C   0  0  0  0  0  2  0  0  0  0  0  0
  -18.1920  -26.7920   22.1620 C   0  0  0  0  0  2  0  0  0  0  0  0
  -19.1520  -28.8820   23.2910 C   0  0  0  0  0  0  0  0  0  0  0  0
  -18.9450  -30.1430   23.8910 C   0  0  0  0  0  3  0  0  0  0  0  0
  -17.6450  -30.6580   24.0560 C   0  0  0  0  0  3  0  0  0  0  0  0
  -16.5340  -29.9080   23.6330 C   0  0  0  0  0  3  0  0  0  0  0  0
  -16.7260  -28.6500   23.0340 C   0  0  0  0  0  3  0  0  0  0  0  0
  -25.9010  -32.4830   23.8400 C   0  0  0  0  0  3  0  0  0  0  0  0
  -26.4460  -31.6590   25.0700 C   0  0  1  0  0  0  0  0  0  0  0  0
  -25.3740  -31.3680   26.1460 C   0  0  0  0  0  1  0  0  0  0  0  0
  -27.0290  -30.3050   24.6040 C   0  0  0  0  0  1  0  0  0  0  0  0
  -27.6050  -32.4300   25.7460 C   0  0  0  0  0  1  0  0  0  0  0  0
  -25.5890  -33.8630   24.2330 N   0  0  0  0  0  0  0  0  0  0  0  0
  -25.9040  -34.9480   23.5140 C   0  0  0  0  0  0  0  0  0  0  0  0
  -26.5600  -34.8930   22.4700 O   0  0  0  0  0  0  0  0  0  0  0  0
  -25.0030  -33.9790   25.0470 H   0  0  0  0  0  0  0  0  0  0  0  0
  -24.1490  -36.7320   23.2640 C   0  0  0  0  0  1  0  0  0  0  0  0
  -25.4110  -36.3120   24.0340 C   0  0  0  0  0  3  0  0  0  0  0  0
  -27.5580  -37.1810   24.8460 C   0  0  0  0  0  1  0  0  0  0  0  0
  -26.4300  -37.3800   23.9410 N   0  0  0  0  0  0  0  0  0  0  0  0
  -26.0200  -38.2880   24.1400 H   0  0  0  0  0  0  0  0  0  0  0  0
  -30.2590  -21.5440   24.6150 C   0  0  0  0  0  2  0  0  0  0  0  0
  -31.1160  -20.4700   24.2590 O   0  0  0  0  0  0  0  0  0  0  0  0
  -31.3650  -19.5580   25.3250 C   0  0  0  0  0  2  0  0  0  0  0  0
  -32.1370  -18.3580   24.7580 C   0  0  0  0  0  2  0  0  0  0  0  0
  -31.3190  -16.7190   23.0490 C   0  0  0  0  0  0  0  0  0  0  0  0
  -31.5160  -17.9570   23.5020 N   0  0  0  0  0  0  0  0  0  0  0  0
  -31.6990  -15.7110   23.6490 O   0  0  0  0  0  0  0  0  0  0  0  0
  -31.1550  -18.7240   22.9490 H   0  0  0  0  0  0  0  0  0  0  0  0
  -30.5680  -16.6210   21.7210 C   0  0  0  0  0  2  0  0  0  0  0  0
  -30.7300  -14.3820   20.6490 C   0  0  0  0  0  0  0  0  0  0  0  0
  -30.4220  -12.2810   19.3960 C   0  0  0  0  0  2  0  0  0  0  0  0
  -29.4880  -12.5190   18.1930 C   0  0  0  0  0  2  0  0  0  0  0  0
  -28.0090  -12.3810   18.6080 C   0  0  0  0  0  2  0  0  0  0  0  0
  -27.6680  -13.1970   19.8820 C   0  0  0  0  0  3  0  0  0  0  0  0
  -28.7050  -12.9210   20.9930 C   0  0  0  0  0  2  0  0  0  0  0  0
  -30.0460  -13.2260   20.4560 N   0  0  0  0  0  0  0  0  0  0  0  0
  -31.8000  -14.6450   20.0890 O   0  0  0  0  0  0  0  0  0  0  0  0
  -30.1140  -15.2650   21.4380 N   0  0  0  0  0  0  0  0  0  0  0  0
  -29.2590  -14.9660   21.8790 H   0  0  0  0  0  0  0  0  0  0  0  0
  -25.2610  -13.8140   20.5670 C   0  0  0  0  0  0  0  0  0  0  0  0
  -24.1850  -13.0430   20.9160 C   0  0  0  0  0  0  0  0  0  0  0  0
  -24.6390  -11.6890   20.8720 C   0  0  0  0  0  0  0  0  0  0  0  0
  -26.3050  -12.9300   20.3380 N   0  0  0  0  0  0  0  0  0  0  0  0
  -25.9310  -11.6460   20.5750 N   0  0  0  0  0  0  0  0  0  0  0  0
  -23.9050  -10.4290   21.0400 C   0  0  0  0  0  0  0  0  0  0  0  0
  -24.3600   -9.4210   21.9180 C   0  0  0  0  0  3  0  0  0  0  0  0
  -23.6280   -8.2240   22.0750 C   0  0  0  0  0  3  0  0  0  0  0  0
  -22.4270   -8.0280   21.3540 C   0  0  0  0  0  0  0  0  0  0  0  0
  -21.9900   -9.0250   20.4650 C   0  0  0  0  0  3  0  0  0  0  0  0
  -22.7220  -10.2130   20.3050 C   0  0  0  0  0  3  0  0  0  0  0  0
  -21.6630   -6.8870   21.4240 O   0  0  0  0  0  0  0  0  0  0  0  0
  -21.6850   -6.0730   22.5280 C   0  0  0  0  0  0  0  0  0  0  0  0
  -21.4010   -6.5640   23.8210 C   0  0  0  0  0  3  0  0  0  0  0  0
  -21.3660   -5.6790   24.9180 C   0  0  0  0  0  3  0  0  0  0  0  0
  -21.6040   -4.3050   24.7230 C   0  0  0  0  0  0  0  0  0  0  0  0
  -21.8820   -3.8140   23.4350 C   0  0  0  0  0  3  0  0  0  0  0  0
  -21.9190   -4.6960   22.3400 C   0  0  0  0  0  0  0  0  0  0  0  0
  -22.1660   -4.2150   21.0980 F   0  0  0  0  0  0  0  0  0  0  0  0
  -21.5630   -3.4540   25.7740 F   0  0  0  0  0  0  0  0  0  0  0  0
  -22.7870  -13.5240   21.1830 C   0  0  0  0  0  0  0  0  0  0  0  0
  -22.0510  -12.8240   22.0390 N   0  0  0  0  0  0  0  0  0  0  0  0
  -22.3560  -14.5550   20.6690 O   0  0  0  0  0  0  0  0  0  0  0  0
  -22.4120  -11.9890   22.4770 H   0  0  0  0  0  0  0  0  0  0  0  0
  -21.1140  -13.1270   22.2610 H   0  0  0  0  0  0  0  0  0  0  0  0
  -25.4360  -15.1860   20.4090 N   0  0  0  0  0  0  0  0  0  0  0  0
  -24.6730  -15.8460   20.5180 H   0  0  0  0  0  0  0  0  0  0  0  0
  -26.2970  -15.6230   20.1020 H   0  0  0  0  0  0  0  0  0  0  0  0
  1  2  1  0
  1 49  1  0
  3  5  2  0
  3  4  1  0
  4  2  1  0
  6  4  1  0
  7  3  1  0
  8 10  1  0
  8  7  1  0
  9 20  2  0
 10 15  1  0
 11 19  1  0
 11 21  1  0
 12 18  1  0
 12 14  1  0
 13 19  1  0
 14 13  1  0
 15 14  2  0
 16 17  1  0
 16 10  2  0
 17 12  2  0
 18 11  1  0
 19  9  1  0
 21 23  2  0
 22 21  1  0
 24 22  1  0
 25 34  2  0
 25 30  1  0
 26 22  1  0
 26 30  1  0
 27 26  1  0
 28 29  1  0
 28 27  1  0
 29 25  1  0
 30 31  2  0
 31 32  1  0
 33 32  2  0
 34 33  1  0
 35  9  1  0
 35 40  1  0
 35 36  1  0
 36 39  1  1
 36 37  1  0
 38 36  1  0
 40 43  1  0
 41 45  1  0
 41 40  1  0
 42 41  2  0
 45 44  1  0
 47 45  1  0
 47 48  1  0
 47 46  1  0
 50 49  1  0
 50 51  1  0
 52 51  1  0
 53 54  1  0
 53 55  2  0
 54 52  1  0
 56 54  1  0
 57 53  1  0
 58 66  1  0
 59 64  1  0
 60 61  1  0
 60 59  1  0
 62 61  1  0
 62 71  1  0
 62 63  1  0
 64 58  1  0
 64 63  1  0
 65 58  2  0
 66 57  1  0
 66 67  1  0
 68 69  2  0
 69 88  1  0
 70 69  1  0
 70 73  1  0
 71 68  1  0
 71 72  1  0
 72 70  2  0
 73 74  1  0
 74 75  2  0
 76 79  1  0
 76 75  1  0
 77 76  2  0
 78 77  1  0
 78 73  2  0
 79 80  1  0
 80 81  1  0
 81 82  2  0
 83 82  1  0
 83 87  1  0
 84 83  2  0
 85 80  2  0
 85 84  1  0
 86 85  1  0
 88 89  1  0
 89 92  1  0
 89 91  1  0
 90 88  2  0
 93 94  1  0
 93 68  1  0
 95 93  1  0
M  ISO  4   7 101   8 101  58 100  66 100
M  END
>  <TORSDO>  (67) 
F 25

>  <SCORE>  (67) 
-2.615

>  <name>  (67) 
67

>  <ligand_id>  (67) 
67

>  <original_smiles>  (67) 
[H]c1c([H])c([H])c2c(c1[H])C([H])([H])C([H])([H])C([H])([H])C2([H])N([H])C(=O)C1([H])N(C(=O)C([H])(N([H])C(=O)C([H])(N([H])C([H])([H])[H])C([H])([H])[H])C(C([H])([H])[H])(C([H])([H])[H])C([H])([H])[H])C([H])([H])c2c([H])c(OC([H])([H])C(=O)N([H])C([H])([H])C([H])([H])C([H])([H])OC([H])([H])C([H])([H])N([H])C(=O)C([H])([H])N([H])C(=O)N3C([H])([H])C([H])([H])C([H])([H])C([H])(n4nc(-c5c([H])c([H])c(Oc6c([H])c([H])c(F)c([H])c6F)c([H])c5[H])c(C(=O)N([H])[H])c4N([H])[H])C3([H])[H])c([H])c([H])c2C1([H])[H]

>  <smiles>  (67) 
[H]c1c([H])c([H])c2c(c1[H])C([H])([H])C([H])([H])C([H])([H])C2([H])N([H])C(=O)C1([H])N(C(=O)C([H])(N([H])C(=O)C([H])(N([H])C([H])([H])[H])C([H])([H])[H])C(C([H])([H])[H])(C([H])([H])[H])C([H])([H])[H])C([H])([H])c2c([H])c(OC([H])([H])C(=O)N([H])C([H])([H])C([H])([H])C([H])([H])OC([H])([H])C([H])([H])N([H])C(=O)C([H])([H])N([H])C(=O)N3C([H])([H])C([H])([H])C([H])([H])C([H])(n4nc(-c5c([H])c([H])c(Oc6c([H])c([H])c(F)c([H])c6F)c([H])c5[H])c(C(=O)N([H])[H])c4N([H])[H])C3([H])[H])c([H])c([H])c2C1([H])[H]

$$$$
68:0:0
     RDKit          3D

 81 85  0  0  1  0  0  0  0  0999 V2000
  -28.1090  -24.6470   20.3000 O   0  0  0  0  0  1  0  0  0  0  0  0
  -24.7100  -31.7810   23.1610 C   0  0  0  0  0  0  0  0  0  0  0  0
  -27.2070  -26.1440   20.2640 C   0  0  0  0  0  0  0  0  0  0  0  0
  -23.5560  -30.3680   21.5220 C   0  0  0  0  0  3  0  0  0  0  0  0
  -25.0090  -28.5810   20.1690 C   0  0  0  0  0  0  0  0  0  0  0  0
  -26.1560  -30.3130   21.5020 C   0  0  0  0  0  2  0  0  0  0  0  0
  -26.2110  -28.8120   20.8490 C   0  0  0  0  0  0  0  0  0  0  0  0
  -27.2590  -27.6460   20.8460 C   0  0  0  0  0  3  0  0  0  0  0  0
  -25.9680  -26.2870   19.5230 C   0  0  0  0  0  3  0  0  0  0  0  0
  -24.9660  -27.3480   19.4800 C   0  0  0  0  0  3  0  0  0  0  0  0
  -23.8360  -29.6140   20.1780 C   0  0  0  0  0  2  0  0  0  0  0  0
  -24.8390  -30.8700   22.1140 N   0  0  0  0  0  0  0  0  0  0  0  0
  -23.6010  -32.1150   23.6230 O   0  0  0  0  0  0  0  0  0  0  0  0
  -22.7620  -29.4580   22.5040 C   0  0  0  0  0  0  0  0  0  0  0  0
  -21.4220  -29.3560   22.3730 N   0  0  0  0  0  0  0  0  0  0  0  0
  -23.3780  -28.8290   23.3670 O   0  0  0  0  0  0  0  0  0  0  0  0
  -20.9670  -29.9120   21.6630 H   0  0  0  0  0  0  0  0  0  0  0  0
  -17.9970  -28.2130   22.9010 C   0  0  0  0  0  0  0  0  0  0  0  0
  -20.5670  -28.4380   23.1430 C   0  0  0  0  0  3  0  0  0  0  0  0
  -20.6330  -27.0060   22.5600 C   0  0  0  0  0  2  0  0  0  0  0  0
  -19.5210  -26.7160   21.5460 C   0  0  0  0  0  2  0  0  0  0  0  0
  -18.1460  -26.8740   22.1990 C   0  0  0  0  0  2  0  0  0  0  0  0
  -19.1320  -28.9550   23.3290 C   0  0  0  0  0  0  0  0  0  0  0  0
  -18.9320  -30.2040   23.9560 C   0  0  0  0  0  3  0  0  0  0  0  0
  -17.6350  -30.7130   24.1530 C   0  0  0  0  0  3  0  0  0  0  0  0
  -16.5160  -29.9710   23.7350 C   0  0  0  0  0  3  0  0  0  0  0  0
  -16.6980  -28.7220   23.1160 C   0  0  0  0  0  3  0  0  0  0  0  0
  -25.9400  -32.4590   23.8420 C   0  0  0  0  0  3  0  0  0  0  0  0
  -25.5980  -33.8650   24.1720 N   0  0  0  0  0  0  0  0  0  0  0  0
  -25.9200  -34.9450   23.4450 C   0  0  0  0  0  0  0  0  0  0  0  0
  -26.5760  -34.8640   22.4040 O   0  0  0  0  0  0  0  0  0  0  0  0
  -25.0070  -33.9990   24.9800 H   0  0  0  0  0  0  0  0  0  0  0  0
  -24.1680  -36.7480   23.1980 C   0  0  0  0  0  1  0  0  0  0  0  0
  -25.4480  -36.3330   23.9420 C   0  0  0  0  0  3  0  0  0  0  0  0
  -27.6060  -37.2470   24.6880 C   0  0  0  0  0  1  0  0  0  0  0  0
  -26.4650  -37.3980   23.7880 N   0  0  0  0  0  0  0  0  0  0  0  0
  -26.0550  -38.3150   23.9480 H   0  0  0  0  0  0  0  0  0  0  0  0
  -26.3960  -31.7200   25.1620 C   0  0  1  0  0  0  0  0  0  0  0  0
  -25.2580  -31.5140   26.1910 C   0  0  0  0  0  1  0  0  0  0  0  0
  -26.9880  -30.3300   24.8490 C   0  0  0  0  0  1  0  0  0  0  0  0
  -27.5230  -32.5250   25.8520 C   0  0  0  0  0  1  0  0  0  0  0  0
  -28.1400  -22.5480   20.1630 C   0  0  0  0  0 15  0  0  0  0  0  0
  -29.1420  -20.4180   20.2160 C   0  0  0  0  0 15  0  0  0  0  0  0
  -29.9010  -16.6470   20.0860 C   0  0  0  0  0  0  0  0  0  0  0  0
  -30.2300  -13.8900   19.2940 C   0  0  0  0  0  2  0  0  0  0  0  0
  -29.4480  -13.0530   18.1990 C   0  0  0  0  0  2  0  0  0  0  0  0
  -28.1340  -12.4820   18.7300 C   0  0  0  0  0  2  0  0  0  0  0  0
  -27.5010  -13.5140   19.6750 C   0  0  0  0  0  3  0  0  0  0  0  0
  -28.4750  -14.2100   20.6950 C   0  0  0  0  0  2  0  0  0  0  0  0
  -29.4550  -15.1290   19.9600 N   0  0  0  0  0  0  0  0  0  0  0  0
  -31.1430  -16.3980   20.0040 O   0  0  0  0  0  0  0  0  0  0  0  0
  -29.2570  -18.3100   20.1340 N   0  0  0  0  0  2  0  0  0  0  0  0
  -30.2580  -18.4710   20.1320 H   0  0  0  0  0  0  0  0  0  0  0  0
  -25.1600  -13.9200   20.5080 C   0  0  0  0  0  0  0  0  0  0  0  0
  -24.1280  -13.1120   20.8810 C   0  0  0  0  0  0  0  0  0  0  0  0
  -24.6260  -11.7720   20.8220 C   0  0  0  0  0  0  0  0  0  0  0  0
  -26.2240  -13.0860   20.2420 N   0  0  0  0  0  0  0  0  0  0  0  0
  -25.9190  -11.7780   20.4820 N   0  0  0  0  0  0  0  0  0  0  0  0
  -23.9140  -10.4950   21.0120 C   0  0  0  0  0  0  0  0  0  0  0  0
  -24.3570   -9.5290   21.9420 C   0  0  0  0  0  3  0  0  0  0  0  0
  -23.6350   -8.3280   22.1300 C   0  0  0  0  0  3  0  0  0  0  0  0
  -22.4560   -8.0830   21.3870 C   0  0  0  0  0  0  0  0  0  0  0  0
  -22.0290   -9.0390   20.4470 C   0  0  0  0  0  3  0  0  0  0  0  0
  -22.7510  -10.2310   20.2590 C   0  0  0  0  0  3  0  0  0  0  0  0
  -21.7070   -6.9350   21.4820 O   0  0  0  0  0  0  0  0  0  0  0  0
  -21.6700   -6.1910   22.6350 C   0  0  0  0  0  0  0  0  0  0  0  0
  -21.2140   -6.7320   23.8560 C   0  0  0  0  0  3  0  0  0  0  0  0
  -21.1260   -5.9140   25.0000 C   0  0  0  0  0  3  0  0  0  0  0  0
  -21.4850   -4.5540   24.9250 C   0  0  0  0  0  0  0  0  0  0  0  0
  -21.9340   -4.0110   23.7070 C   0  0  0  0  0  3  0  0  0  0  0  0
  -22.0220   -4.8270   22.5660 C   0  0  0  0  0  0  0  0  0  0  0  0
  -22.4340   -4.2930   21.3900 F   0  0  0  0  0  0  0  0  0  0  0  0
  -21.3950   -3.7660   26.0220 F   0  0  0  0  0  0  0  0  0  0  0  0
  -22.7270  -13.5620   21.1730 C   0  0  0  0  0  0  0  0  0  0  0  0
  -22.0260  -12.8570   22.0520 N   0  0  0  0  0  0  0  0  0  0  0  0
  -22.2670  -14.5820   20.6590 O   0  0  0  0  0  0  0  0  0  0  0  0
  -22.4140  -12.0340   22.4890 H   0  0  0  0  0  0  0  0  0  0  0  0
  -21.0880  -13.1430   22.2910 H   0  0  0  0  0  0  0  0  0  0  0  0
  -25.2790  -15.2960   20.3350 N   0  0  0  0  0  0  0  0  0  0  0  0
  -24.4980  -15.9290   20.4650 H   0  0  0  0  0  0  0  0  0  0  0  0
  -26.1180  -15.7610   20.0090 H   0  0  0  0  0  0  0  0  0  0  0  0
  2 13  2  0
  3  1  1  0
  3  8  1  0
  4 12  1  0
  4 14  1  0
  5 11  1  0
  5  7  1  0
  6 12  1  0
  7  6  1  0
  8  7  2  0
  9  3  2  0
 10  9  1  0
 10  5  2  0
 11  4  1  0
 12  2  1  0
 14 16  2  0
 15 14  1  0
 17 15  1  0
 18 27  2  0
 18 23  1  0
 19 15  1  0
 19 23  1  0
 20 19  1  0
 21 22  1  0
 21 20  1  0
 22 18  1  0
 23 24  2  0
 24 25  1  0
 26 25  2  0
 27 26  1  0
 28  2  1  0
 28 29  1  0
 28 38  1  0
 29 32  1  0
 30 34  1  0
 30 29  1  0
 31 30  2  0
 34 33  1  0
 36 34  1  0
 36 37  1  0
 36 35  1  0
 38 41  1  1
 38 39  1  0
 40 38  1  0
 44 52  1  0
 45 50  1  0
 46 47  1  0
 46 45  1  0
 48 47  1  0
 48 57  1  0
 48 49  1  0
 50 44  1  0
 50 49  1  0
 51 44  2  0
 53 52  1  0
 54 55  2  0
 55 74  1  0
 56 55  1  0
 56 59  1  0
 57 58  1  0
 57 54  1  0
 58 56  2  0
 59 60  1  0
 60 61  2  0
 62 65  1  0
 62 61  1  0
 63 62  2  0
 64 63  1  0
 64 59  2  0
 65 66  1  0
 66 67  1  0
 67 68  2  0
 69 68  1  0
 69 73  1  0
 70 69  2  0
 71 66  2  0
 71 70  1  0
 72 71  1  0
 74 75  1  0
 75 78  1  0
 75 77  1  0
 76 74  2  0
 79 80  1  0
 79 54  1  0
 81 79  1  0
M  ISO  4   1 101  42 101  44 100  52 100
M  END
>  <TORSDO>  (68) 
F 17

>  <SCORE>  (68) 
-16.141

>  <name>  (68) 
68

>  <ligand_id>  (68) 
68

>  <original_smiles>  (68) 
[H]c1c([H])c([H])c2c(c1[H])C([H])([H])C([H])([H])C([H])([H])C2([H])N([H])C(=O)C1([H])N(C(=O)C([H])(N([H])C(=O)C([H])(N([H])C([H])([H])[H])C([H])([H])[H])C(C([H])([H])[H])(C([H])([H])[H])C([H])([H])[H])C([H])([H])c2c([H])c(OC([H])([H])C([H])([H])N([H])C(=O)N3C([H])([H])C([H])([H])C([H])([H])C([H])(n4nc(-c5c([H])c([H])c(Oc6c([H])c([H])c(F)c([H])c6F)c([H])c5[H])c(C(=O)N([H])[H])c4N([H])[H])C3([H])[H])c([H])c([H])c2C1([H])[H]

>  <smiles>  (68) 
[H]c1c([H])c([H])c2c(c1[H])C([H])([H])C([H])([H])C([H])([H])C2([H])N([H])C(=O)C1([H])N(C(=O)C([H])(N([H])C(=O)C([H])(N([H])C([H])([H])[H])C([H])([H])[H])C(C([H])([H])[H])(C([H])([H])[H])C([H])([H])[H])C([H])([H])c2c([H])c(OC([H])([H])C([H])([H])N([H])C(=O)N3C([H])([H])C([H])([H])C([H])([H])C([H])(n4nc(-c5c([H])c([H])c(Oc6c([H])c([H])c(F)c([H])c6F)c([H])c5[H])c(C(=O)N([H])[H])c4N([H])[H])C3([H])[H])c([H])c([H])c2C1([H])[H]

$$$$
69:0:0
     RDKit          3D

100108  0  0  1  0  0  0  0  0999 V2000
  -26.8560  -26.0720   23.2230 C   0  0  0  0  0  2  0  0  0  0  0  0
  -25.7260  -26.5100   22.2720 C   0  0  0  0  0  2  0  0  0  0  0  0
  -25.6170  -24.1120   21.5180 C   0  0  0  0  0  2  0  0  0  0  0  0
  -28.1250  -25.5130   22.5430 C   0  0  0  0  0  2  0  0  0  0  0  0
  -27.0550  -23.6270   21.2610 C   0  0  0  0  0  2  0  0  0  0  0  0
  -25.4790  -25.5350   21.2150 N   0  0  0  0  0  0  0  0  0  0  0  0
  -28.0560  -24.0440   22.2900 N   0  0  1  0  0  4  0  0  0  0  0  0
  -27.7230  -23.6530   23.1600 H   0  0  0  0  0  0  0  0  0  0  0  0
  -29.4110  -23.4230   22.1110 C   0  0  0  0  0  2  0  0  0  0  0  0
  -29.8890  -23.2710   20.6510 C   0  0  0  0  0  2  0  0  0  0  0  0
  -28.9180  -22.4860   19.9670 O   0  0  0  0  0  0  0  0  0  0  0  0
  -29.1390  -22.3230   18.5730 C   0  0  0  0  0  2  0  0  0  0  0  0
  -27.8410  -21.7380   17.9820 C   0  0  0  0  0  2  0  0  0  0  0  0
  -26.7970  -22.7060   18.1180 O   0  0  0  0  0  0  0  0  0  0  0  0
  -25.5170  -22.1880   18.4840 C   0  0  0  0  0  2  0  0  0  0  0  0
  -24.5030  -22.1490   17.3210 C   0  0  0  0  0  2  0  0  0  0  0  0
  -23.6120  -23.2620   17.4160 O   0  0  0  0  0  0  0  0  0  0  0  0
  -22.3360  -23.0500   16.8200 C   0  0  0  0  0  2  0  0  0  0  0  0
  -21.3860  -24.1540   17.3160 C   0  0  0  0  0  2  0  0  0  0  0  0
  -19.2910  -24.3530   15.9630 C   0  0  0  0  0  0  0  0  0  0  0  0
  -17.0400  -25.0470   15.2420 C   0  0  0  0  0  2  0  0  0  0  0  0
  -16.5960  -26.2840   16.0510 C   0  0  0  0  0  2  0  0  0  0  0  0
  -15.9490  -25.8700   17.3890 C   0  0  0  0  0  2  0  0  0  0  0  0
  -16.8020  -24.8370   18.1720 C   0  0  0  0  0  3  0  0  0  0  0  0
  -17.2310  -23.6770   17.2470 C   0  0  0  0  0  2  0  0  0  0  0  0
  -17.9420  -24.2530   16.0880 N   0  0  0  0  0  0  0  0  0  0  0  0
  -19.8500  -24.9190   15.0190 O   0  0  0  0  0  0  0  0  0  0  0  0
  -19.9800  -23.8860   17.0070 N   0  0  0  0  0  0  0  0  0  0  0  0
  -19.4320  -23.4430   17.7340 H   0  0  0  0  0  0  0  0  0  0  0  0
  -16.5880  -24.1110   20.6350 C   0  0  0  0  0  0  0  0  0  0  0  0
  -15.5050  -23.7360   21.3870 C   0  0  0  0  0  0  0  0  0  0  0  0
  -14.3810  -23.7830   20.5090 C   0  0  0  0  0  0  0  0  0  0  0  0
  -16.1000  -24.3530   19.3600 N   0  0  0  0  0  0  0  0  0  0  0  0
  -14.7670  -24.1020   19.2800 N   0  0  0  0  0  0  0  0  0  0  0  0
  -12.9480  -23.5950   20.7790 C   0  0  0  0  0  0  0  0  0  0  0  0
  -12.2960  -22.3770   20.4840 C   0  0  0  0  0  3  0  0  0  0  0  0
  -10.9230  -22.2130   20.7670 C   0  0  0  0  0  3  0  0  0  0  0  0
  -10.1890  -23.2720   21.3530 C   0  0  0  0  0  0  0  0  0  0  0  0
  -10.8370  -24.4900   21.6220 C   0  0  0  0  0  3  0  0  0  0  0  0
  -12.2020  -24.6530   21.3360 C   0  0  0  0  0  3  0  0  0  0  0  0
   -8.8470  -23.2130   21.6410 O   0  0  0  0  0  0  0  0  0  0  0  0
   -8.2690  -22.0810   22.1580 C   0  0  0  0  0  0  0  0  0  0  0  0
   -8.7220  -21.4980   23.3600 C   0  0  0  0  0  3  0  0  0  0  0  0
   -8.0570  -20.3740   23.8910 C   0  0  0  0  0  3  0  0  0  0  0  0
   -6.9360  -19.8400   23.2270 C   0  0  0  0  0  0  0  0  0  0  0  0
   -6.4790  -20.4260   22.0340 C   0  0  0  0  0  3  0  0  0  0  0  0
   -7.1430  -21.5440   21.5020 C   0  0  0  0  0  0  0  0  0  0  0  0
   -6.6870  -22.1170   20.3610 F   0  0  0  0  0  0  0  0  0  0  0  0
   -6.2900  -18.7680   23.7420 F   0  0  0  0  0  0  0  0  0  0  0  0
  -15.4970  -23.4440   22.8610 C   0  0  0  0  0  0  0  0  0  0  0  0
  -14.5980  -22.5710   23.3050 N   0  0  0  0  0  0  0  0  0  0  0  0
  -16.3210  -23.9530   23.6170 O   0  0  0  0  0  0  0  0  0  0  0  0
  -13.9360  -22.1370   22.6790 H   0  0  0  0  0  0  0  0  0  0  0  0
  -14.5710  -22.3350   24.2870 H   0  0  0  0  0  0  0  0  0  0  0  0
  -17.9380  -24.2800   20.9260 N   0  0  0  0  0  0  0  0  0  0  0  0
  -18.3160  -24.1580   21.8600 H   0  0  0  0  0  0  0  0  0  0  0  0
  -18.6290  -24.6020   20.2610 H   0  0  0  0  0  0  0  0  0  0  0  0
  -25.3280  -25.9860   19.8260 C   0  0  0  0  0  2  0  0  0  0  0  0
  -26.6460  -26.4630   19.1610 C   0  0  0  0  0  2  0  0  0  0  0  0
  -26.5080  -27.7410   18.5420 O   0  0  0  0  0  0  0  0  0  0  0  0
  -25.5460  -31.2520   24.6560 C   0  0  0  0  0  0  0  0  0  0  0  0
  -25.7410  -28.6150   19.2680 C   0  0  0  0  0  0  0  0  0  0  0  0
  -23.6130  -31.2080   23.1090 C   0  0  0  0  0  3  0  0  0  0  0  0
  -24.1010  -30.3610   20.7540 C   0  0  0  0  0  0  0  0  0  0  0  0
  -26.0050  -31.0550   22.2180 C   0  0  0  0  0  2  0  0  0  0  0  0
  -25.4610  -30.2390   21.0690 C   0  0  0  0  0  0  0  0  0  0  0  0
  -26.2890  -29.3680   20.3280 C   0  0  0  0  0  3  0  0  0  0  0  0
  -24.3780  -28.7560   18.9460 C   0  0  0  0  0  3  0  0  0  0  0  0
  -23.5530  -29.6220   19.6890 C   0  0  0  0  0  3  0  0  0  0  0  0
  -23.2840  -31.3150   21.5960 C   0  0  0  0  0  2  0  0  0  0  0  0
  -25.0880  -31.1510   23.3770 N   0  0  0  0  0  0  0  0  0  0  0  0
  -24.7660  -31.4340   25.6020 O   0  0  0  0  0  0  0  0  0  0  0  0
  -22.8380  -30.0080   23.7010 C   0  0  0  0  0  0  0  0  0  0  0  0
  -21.5610  -29.8680   23.3060 N   0  0  0  0  0  0  0  0  0  0  0  0
  -23.3880  -29.2160   24.4710 O   0  0  0  0  0  0  0  0  0  0  0  0
  -21.1770  -30.5650   22.6830 H   0  0  0  0  0  0  0  0  0  0  0  0
  -18.3000  -28.4400   22.6930 C   0  0  0  0  0  0  0  0  0  0  0  0
  -20.6530  -28.7920   23.7040 C   0  0  0  0  0  3  0  0  0  0  0  0
  -21.0330  -27.4570   23.0200 C   0  0  0  0  0  2  0  0  0  0  0  0
  -20.2840  -27.2170   21.7050 C   0  0  0  0  0  2  0  0  0  0  0  0
  -18.7720  -27.2040   21.9450 C   0  0  0  0  0  2  0  0  0  0  0  0
  -19.1880  -29.1950   23.5060 C   0  0  0  0  0  0  0  0  0  0  0  0
  -18.7060  -30.3540   24.1500 C   0  0  0  0  0  3  0  0  0  0  0  0
  -17.3680  -30.7610   23.9990 C   0  0  0  0  0  3  0  0  0  0  0  0
  -16.4900  -30.0030   23.2060 C   0  0  0  0  0  3  0  0  0  0  0  0
  -16.9550  -28.8440   22.5570 C   0  0  0  0  0  3  0  0  0  0  0  0
  -27.0700  -31.1680   24.9900 C   0  0  0  0  0  3  0  0  0  0  0  0
  -27.5150  -32.5210   25.3490 N   0  0  0  0  0  0  0  0  0  0  0  0
  -28.1500  -33.3590   24.5180 C   0  0  0  0  0  0  0  0  0  0  0  0
  -28.4910  -33.0380   23.3770 O   0  0  0  0  0  0  0  0  0  0  0  0
  -27.2260  -32.8680   26.2520 H   0  0  0  0  0  0  0  0  0  0  0  0
  -27.4560  -35.7760   24.4340 C   0  0  0  0  0  1  0  0  0  0  0  0
  -28.4570  -34.7770   25.0380 C   0  0  0  0  0  3  0  0  0  0  0  0
  -30.8490  -34.4920   25.5070 C   0  0  0  0  0  1  0  0  0  0  0  0
  -29.8360  -35.2230   24.7510 N   0  0  0  0  0  0  0  0  0  0  0  0
  -29.9450  -36.2140   24.9510 H   0  0  0  0  0  0  0  0  0  0  0  0
  -27.4000  -30.1440   26.1460 C   0  0  1  0  0  0  0  0  0  0  0  0
  -26.5270  -30.3240   27.4100 C   0  0  0  0  0  1  0  0  0  0  0  0
  -27.2270  -28.6870   25.6570 C   0  0  0  0  0  1  0  0  0  0  0  0
  -28.8800  -30.2950   26.5720 C   0  0  0  0  0  1  0  0  0  0  0  0
  2  1  1  0
  4  1  1  0
  5  3  1  0
  5  7  1  0
  6  3  1  0
  6  2  1  0
  7  4  1  0
  7  8  1  1
  9  7  1  0
 10  9  1  0
 11 10  1  0
 12 11  1  0
 13 14  1  0
 13 12  1  0
 14 15  1  0
 16 17  1  0
 16 15  1  0
 18 19  1  0
 18 17  1  0
 20 26  1  0
 20 28  1  0
 21 22  1  0
 21 26  1  0
 22 23  1  0
 23 24  1  0
 24 25  1  0
 24 33  1  0
 26 25  1  0
 27 20  2  0
 28 19  1  0
 28 29  1  0
 30 55  1  0
 30 31  2  0
 31 50  1  0
 32 35  1  0
 32 31  1  0
 33 30  1  0
 34 33  1  0
 34 32  2  0
 35 40  1  0
 36 37  1  0
 36 35  2  0
 37 38  2  0
 38 39  1  0
 38 41  1  0
 40 39  2  0
 41 42  1  0
 42 43  1  0
 43 44  2  0
 45 49  1  0
 45 44  1  0
 46 45  2  0
 47 46  1  0
 47 42  2  0
 48 47  1  0
 50 51  1  0
 50 52  2  0
 51 54  1  0
 53 51  1  0
 55 56  1  0
 57 55  1  0
 58  6  1  0
 59 58  1  0
 60 59  1  0
 60 62  1  0
 61 72  2  0
 62 67  1  0
 63 71  1  0
 63 73  1  0
 64 66  1  0
 64 70  1  0
 65 71  1  0
 66 65  1  0
 67 66  2  0
 68 62  2  0
 68 69  1  0
 69 64  2  0
 70 63  1  0
 71 61  1  0
 73 75  2  0
 74 73  1  0
 76 74  1  0
 77 82  1  0
 78 74  1  0
 79 78  1  0
 80 81  1  0
 80 79  1  0
 81 77  1  0
 82 78  1  0
 82 83  2  0
 84 83  1  0
 85 84  2  0
 86 77  2  0
 86 85  1  0
 87 61  1  0
 87 88  1  0
 87 97  1  0
 88 91  1  0
 89 93  1  0
 89 88  1  0
 90 89  2  0
 93 92  1  0
 95 96  1  0
 95 93  1  0
 95 94  1  0
 97100  1  1
 97 98  1  0
 99 97  1  0
M  ISO  4  20 100  28 100  59 101  60 101
M  END
>  <TORSDO>  (69) 
F 29

>  <SCORE>  (69) 
-6.740

>  <name>  (69) 
69

>  <ligand_id>  (69) 
69

>  <original_smiles>  (69) 
[H]c1c([H])c([H])c2c(c1[H])C([H])([H])C([H])([H])C([H])([H])C2([H])N([H])C(=O)C1([H])N(C(=O)C([H])(N([H])C(=O)C([H])(N([H])C([H])([H])[H])C([H])([H])[H])C(C([H])([H])[H])(C([H])([H])[H])C([H])([H])[H])C([H])([H])c2c([H])c(OC([H])([H])C([H])([H])N3C([H])([H])C([H])([H])C([H])([H])[N+]([H])(C([H])([H])C([H])([H])OC([H])([H])C([H])([H])OC([H])([H])C([H])([H])OC([H])([H])C([H])([H])N([H])C(=O)N4C([H])([H])C([H])([H])C([H])([H])C([H])(n5nc(-c6c([H])c([H])c(Oc7c([H])c([H])c(F)c([H])c7F)c([H])c6[H])c(C(=O)N([H])[H])c5N([H])[H])C4([H])[H])C([H])([H])C3([H])[H])c([H])c([H])c2C1([H])[H]

>  <smiles>  (69) 
[H]c1c([H])c([H])c2c(c1[H])C([H])([H])C([H])([H])C([H])([H])C2([H])N([H])C(=O)C1([H])N(C(=O)C([H])(N([H])C(=O)C([H])(N([H])C([H])([H])[H])C([H])([H])[H])C(C([H])([H])[H])(C([H])([H])[H])C([H])([H])[H])C([H])([H])c2c([H])c(OC([H])([H])C([H])([H])N3C([H])([H])C([H])([H])C([H])([H])[N+]([H])(C([H])([H])C([H])([H])OC([H])([H])C([H])([H])OC([H])([H])C([H])([H])OC([H])([H])C([H])([H])N([H])C(=O)N4C([H])([H])C([H])([H])C([H])([H])C([H])(n5nc(-c6c([H])c([H])c(Oc7c([H])c([H])c(F)c([H])c7F)c([H])c6[H])c(C(=O)N([H])[H])c5N([H])[H])C4([H])[H])C([H])([H])C3([H])[H])c([H])c([H])c2C1([H])[H]

$$$$
70:0:0
     RDKit          3D

 89 96  0  0  1  0  0  0  0  0999 V2000
  -29.8410  -21.8340   20.3130 C   0  0  0  0  0  2  0  0  0  0  0  0
  -29.2140  -20.4330   20.0330 C   0  0  0  0  0  2  0  0  0  0  0  0
  -29.6010  -18.0220   20.6600 C   0  0  0  0  0  0  0  0  0  0  0  0
  -30.0450  -19.2850   20.4650 N   0  0  0  0  0  0  0  0  0  0  0  0
  -28.4160  -17.7140   20.5170 O   0  0  0  0  0  0  0  0  0  0  0  0
  -31.0340  -19.4580   20.6060 H   0  0  0  0  0  0  0  0  0  0  0  0
  -30.6140  -16.9430   21.1070 C   0  0  0  0  0  2  0  0  0  0  0  0
  -30.7070  -14.5110   20.4540 C   0  0  0  0  0  0  0  0  0  0  0  0
  -30.3510  -12.3670   19.2820 C   0  0  0  0  0  2  0  0  0  0  0  0
  -29.4040  -12.5940   18.0880 C   0  0  0  0  0  2  0  0  0  0  0  0
  -27.9410  -12.4250   18.5360 C   0  0  0  0  0  2  0  0  0  0  0  0
  -27.6060  -13.2550   19.8040 C   0  0  0  0  0  3  0  0  0  0  0  0
  -28.6780  -13.0600   20.9010 C   0  0  0  0  0  2  0  0  0  0  0  0
  -29.9970  -13.3530   20.3180 N   0  0  0  0  0  0  0  0  0  0  0  0
  -31.8280  -14.6550   19.9590 O   0  0  0  0  0  0  0  0  0  0  0  0
  -30.0860  -15.5540   21.0380 N   0  0  0  0  0  0  0  0  0  0  0  0
  -29.1400  -15.4130   21.3640 H   0  0  0  0  0  0  0  0  0  0  0  0
  -25.2110  -13.8410   20.5410 C   0  0  0  0  0  0  0  0  0  0  0  0
  -24.1510  -13.0610   20.9180 C   0  0  0  0  0  0  0  0  0  0  0  0
  -24.6200  -11.7120   20.8770 C   0  0  0  0  0  0  0  0  0  0  0  0
  -26.2610  -12.9670   20.2960 N   0  0  0  0  0  0  0  0  0  0  0  0
  -25.9090  -11.6810   20.5570 N   0  0  0  0  0  0  0  0  0  0  0  0
  -23.9020  -10.4430   21.0660 C   0  0  0  0  0  0  0  0  0  0  0  0
  -24.3600   -9.4630   21.9730 C   0  0  0  0  0  3  0  0  0  0  0  0
  -23.6400   -8.2620   22.1520 C   0  0  0  0  0  3  0  0  0  0  0  0
  -22.4480   -8.0340   21.4240 C   0  0  0  0  0  0  0  0  0  0  0  0
  -22.0080   -9.0030   20.5060 C   0  0  0  0  0  3  0  0  0  0  0  0
  -22.7270  -10.1970   20.3270 C   0  0  0  0  0  3  0  0  0  0  0  0
  -21.7010   -6.8850   21.5110 O   0  0  0  0  0  0  0  0  0  0  0  0
  -21.6750   -6.1270   22.6530 C   0  0  0  0  0  0  0  0  0  0  0  0
  -21.2720   -6.6640   23.8960 C   0  0  0  0  0  3  0  0  0  0  0  0
  -21.1960   -5.8300   25.0300 C   0  0  0  0  0  3  0  0  0  0  0  0
  -21.5190   -4.4640   24.9270 C   0  0  0  0  0  0  0  0  0  0  0  0
  -21.9190   -3.9300   23.6890 C   0  0  0  0  0  3  0  0  0  0  0  0
  -21.9940   -4.7570   22.5550 C   0  0  0  0  0  0  0  0  0  0  0  0
  -22.3590   -4.2320   21.3590 F   0  0  0  0  0  0  0  0  0  0  0  0
  -21.4390   -3.6610   26.0140 F   0  0  0  0  0  0  0  0  0  0  0  0
  -22.7570  -13.5330   21.2160 C   0  0  0  0  0  0  0  0  0  0  0  0
  -22.0610  -12.8420   22.1120 N   0  0  0  0  0  0  0  0  0  0  0  0
  -22.2990  -14.5510   20.6980 O   0  0  0  0  0  0  0  0  0  0  0  0
  -22.4620  -12.0430   22.5820 H   0  0  0  0  0  0  0  0  0  0  0  0
  -21.1320  -13.1460   22.3690 H   0  0  0  0  0  0  0  0  0  0  0  0
  -25.3610  -15.2130   20.3760 N   0  0  0  0  0  0  0  0  0  0  0  0
  -24.5890  -15.8530   20.5190 H   0  0  0  0  0  0  0  0  0  0  0  0
  -26.2210  -15.6730   20.0970 H   0  0  0  0  0  0  0  0  0  0  0  0
  -28.9540  -22.8890   19.8970 O   0  0  0  0  0  0  0  0  0  0  0  0
  -29.3770  -24.2430   20.1620 C   0  0  0  0  0  2  0  0  0  0  0  0
  -28.2270  -25.2310   19.8020 C   0  0  0  0  0  2  0  0  0  0  0  0
  -28.3780  -26.6230   20.1920 O   0  0  0  0  0  0  0  0  0  0  0  0
  -24.6170  -31.9170   23.2470 C   0  0  0  0  0  0  0  0  0  0  0  0
  -27.2270  -27.4120   20.1640 C   0  0  0  0  0  0  0  0  0  0  0  0
  -23.4030  -30.5240   21.6040 C   0  0  0  0  0  3  0  0  0  0  0  0
  -24.8490  -28.9780   20.1850 C   0  0  0  0  0  0  0  0  0  0  0  0
  -25.9410  -30.8500   21.4210 C   0  0  0  0  0  2  0  0  0  0  0  0
  -26.0170  -29.4770   20.7750 C   0  0  0  0  0  0  0  0  0  0  0  0
  -27.2070  -28.7010   20.7640 C   0  0  0  0  0  3  0  0  0  0  0  0
  -26.0310  -26.9550   19.5580 C   0  0  0  0  0  3  0  0  0  0  0  0
  -24.8520  -27.7170   19.5780 C   0  0  0  0  0  3  0  0  0  0  0  0
  -23.6140  -29.8470   20.2260 C   0  0  0  0  0  2  0  0  0  0  0  0
  -24.6720  -31.1130   22.1480 N   0  0  0  0  0  0  0  0  0  0  0  0
  -23.5380  -32.2000   23.7850 O   0  0  0  0  0  0  0  0  0  0  0  0
  -22.7390  -29.5070   22.5640 C   0  0  0  0  0  0  0  0  0  0  0  0
  -21.4120  -29.3400   22.4400 N   0  0  0  0  0  0  0  0  0  0  0  0
  -23.4160  -28.8720   23.3780 O   0  0  0  0  0  0  0  0  0  0  0  0
  -20.9260  -29.9010   21.7540 H   0  0  0  0  0  0  0  0  0  0  0  0
  -18.0240  -28.1870   22.9510 C   0  0  0  0  0  0  0  0  0  0  0  0
  -20.5860  -28.4090   23.2110 C   0  0  0  0  0  3  0  0  0  0  0  0
  -20.6680  -26.9780   22.6300 C   0  0  0  0  0  2  0  0  0  0  0  0
  -19.5580  -26.6740   21.6190 C   0  0  0  0  0  2  0  0  0  0  0  0
  -18.1820  -26.8360   22.2700 C   0  0  0  0  0  2  0  0  0  0  0  0
  -19.1550  -28.9310   23.3790 C   0  0  0  0  0  0  0  0  0  0  0  0
  -18.9580  -30.1950   23.9760 C   0  0  0  0  0  3  0  0  0  0  0  0
  -17.6620  -30.7160   24.1470 C   0  0  0  0  0  3  0  0  0  0  0  0
  -16.5440  -29.9680   23.7370 C   0  0  0  0  0  3  0  0  0  0  0  0
  -16.7260  -28.7040   23.1450 C   0  0  0  0  0  3  0  0  0  0  0  0
  -25.9060  -32.5390   23.8680 C   0  0  0  0  0  3  0  0  0  0  0  0
  -25.6080  -33.9370   24.2000 N   0  0  0  0  0  0  0  0  0  0  0  0
  -25.9360  -34.9880   23.4370 C   0  0  0  0  0  0  0  0  0  0  0  0
  -26.5940  -34.8820   22.3980 O   0  0  0  0  0  0  0  0  0  0  0  0
  -25.0240  -34.0950   25.0080 H   0  0  0  0  0  0  0  0  0  0  0  0
  -24.2100  -36.7850   23.0970 C   0  0  0  0  0  1  0  0  0  0  0  0
  -25.4570  -36.3770   23.8970 C   0  0  0  0  0  3  0  0  0  0  0  0
  -27.6000  -37.2560   24.7110 C   0  0  0  0  0  1  0  0  0  0  0  0
  -26.4900  -37.4270   23.7750 N   0  0  0  0  0  0  0  0  0  0  0  0
  -26.0900  -38.3490   23.9280 H   0  0  0  0  0  0  0  0  0  0  0  0
  -26.4240  -31.7600   25.1390 C   0  0  1  0  0  0  0  0  0  0  0  0
  -25.3290  -31.5280   26.2060 C   0  0  0  0  0  1  0  0  0  0  0  0
  -27.0000  -30.3800   24.7430 C   0  0  0  0  0  1  0  0  0  0  0  0
  -27.5800  -32.5470   25.8020 C   0  0  0  0  0  1  0  0  0  0  0  0
  2  1  1  0
  2  4  1  0
  3  7  1  0
  4  6  1  0
  4  3  1  0
  5  3  2  0
  8 16  1  0
  9 14  1  0
 10 11  1  0
 10  9  1  0
 12 11  1  0
 12 21  1  0
 12 13  1  0
 14  8  1  0
 14 13  1  0
 15  8  2  0
 16  7  1  0
 16 17  1  0
 18 19  2  0
 19 38  1  0
 20 19  1  0
 20 23  1  0
 21 18  1  0
 21 22  1  0
 22 20  2  0
 23 24  1  0
 24 25  2  0
 26 29  1  0
 26 25  1  0
 27 26  2  0
 28 27  1  0
 28 23  2  0
 29 30  1  0
 30 31  1  0
 31 32  2  0
 33 32  1  0
 33 37  1  0
 34 33  2  0
 35 30  2  0
 35 34  1  0
 36 35  1  0
 38 39  1  0
 39 42  1  0
 39 41  1  0
 40 38  2  0
 43 44  1  0
 43 18  1  0
 45 43  1  0
 46 47  1  0
 46  1  1  0
 48 47  1  0
 48 49  1  0
 50 61  2  0
 51 49  1  0
 51 56  1  0
 52 60  1  0
 52 62  1  0
 53 59  1  0
 53 55  1  0
 54 60  1  0
 55 54  1  0
 56 55  2  0
 57 58  1  0
 57 51  2  0
 58 53  2  0
 59 52  1  0
 60 50  1  0
 62 64  2  0
 63 62  1  0
 65 63  1  0
 66 75  2  0
 66 71  1  0
 67 63  1  0
 67 71  1  0
 68 67  1  0
 69 70  1  0
 69 68  1  0
 70 66  1  0
 71 72  2  0
 72 73  1  0
 74 73  2  0
 75 74  1  0
 76 50  1  0
 76 77  1  0
 76 86  1  0
 77 80  1  0
 78 82  1  0
 78 77  1  0
 79 78  2  0
 82 81  1  0
 84 82  1  0
 84 85  1  0
 84 83  1  0
 86 89  1  1
 86 87  1  0
 88 86  1  0
M  ISO  4   8 100  16 100  48 101  49 101
M  END
>  <TORSDO>  (70) 
F 22

>  <SCORE>  (70) 
-13.116

>  <name>  (70) 
70

>  <ligand_id>  (70) 
70

>  <original_smiles>  (70) 
[H]c1c([H])c([H])c2c(c1[H])C([H])([H])C([H])([H])C([H])([H])C2([H])N([H])C(=O)C1([H])N(C(=O)C([H])(N([H])C(=O)C([H])(N([H])C([H])([H])[H])C([H])([H])[H])C(C([H])([H])[H])(C([H])([H])[H])C([H])([H])[H])C([H])([H])c2c([H])c(OC([H])([H])C([H])([H])OC([H])([H])C([H])([H])N([H])C(=O)C([H])([H])N([H])C(=O)N3C([H])([H])C([H])([H])C([H])([H])C([H])(n4nc(-c5c([H])c([H])c(Oc6c([H])c([H])c(F)c([H])c6F)c([H])c5[H])c(C(=O)N([H])[H])c4N([H])[H])C3([H])[H])c([H])c([H])c2C1([H])[H]

>  <smiles>  (70) 
[H]c1c([H])c([H])c2c(c1[H])C([H])([H])C([H])([H])C([H])([H])C2([H])N([H])C(=O)C1([H])N(C(=O)C([H])(N([H])C(=O)C([H])(N([H])C([H])([H])[H])C([H])([H])[H])C(C([H])([H])[H])(C([H])([H])[H])C([H])([H])[H])C([H])([H])c2c([H])c(OC([H])([H])C([H])([H])OC([H])([H])C([H])([H])N([H])C(=O)C([H])([H])N([H])C(=O)N3C([H])([H])C([H])([H])C([H])([H])C([H])(n4nc(-c5c([H])c([H])c(Oc6c([H])c([H])c(F)c([H])c6F)c([H])c5[H])c(C(=O)N([H])[H])c4N([H])[H])C3([H])[H])c([H])c([H])c2C1([H])[H]

$$$$
71:0:0
     RDKit          3D

101108  0  0  1  0  0  0  0  0999 V2000
  -26.5650  -20.0460   20.2370 C   0  0  0  0  0  2  0  0  0  0  0  0
  -27.6770  -20.8760   20.5420 O   0  0  0  0  0  0  0  0  0  0  0  0
  -27.3310  -21.9590   21.3940 C   0  0  0  0  0  2  0  0  0  0  0  0
  -28.6130  -22.6500   21.8730 C   0  0  0  0  0  2  0  0  0  0  0  0
  -29.4220  -21.6950   22.5470 O   0  0  0  0  0  0  0  0  0  0  0  0
  -30.6930  -22.2110   22.9130 C   0  0  0  0  0  2  0  0  0  0  0  0
  -31.6710  -21.0440   23.1030 C   0  0  0  0  0  2  0  0  0  0  0  0
  -31.7590  -20.3030   21.8950 O   0  0  0  0  0  0  0  0  0  0  0  0
  -32.4100  -19.0500   22.0670 C   0  0  0  0  0  2  0  0  0  0  0  0
  -32.4770  -18.3350   20.7110 C   0  0  0  0  0  2  0  0  0  0  0  0
  -31.1990  -17.7820   20.4210 O   0  0  0  0  0  0  0  0  0  0  0  0
  -31.1880  -17.0280   19.2180 C   0  0  0  0  0  2  0  0  0  0  0  0
  -29.7860  -16.4360   19.0350 C   0  0  0  0  0  2  0  0  0  0  0  0
  -30.4110  -14.3520   20.2280 C   0  0  0  0  0  0  0  0  0  0  0  0
  -30.6710  -12.0390   21.0320 C   0  0  0  0  0  2  0  0  0  0  0  0
  -30.1080  -11.0530   19.9910 C   0  0  0  0  0  2  0  0  0  0  0  0
  -28.5960  -10.8420   20.1990 C   0  0  0  0  0  2  0  0  0  0  0  0
  -27.8200  -12.1790   20.3350 C   0  0  0  0  0  3  0  0  0  0  0  0
  -28.5140  -13.1180   21.3460 C   0  0  0  0  0  2  0  0  0  0  0  0
  -29.9150  -13.2960   20.9230 N   0  0  0  0  0  0  0  0  0  0  0  0
  -31.5670  -14.4020   19.8010 O   0  0  0  0  0  0  0  0  0  0  0  0
  -29.5360  -15.3250   19.9520 N   0  0  0  0  0  0  0  0  0  0  0  0
  -28.6090  -15.2430   20.3430 H   0  0  0  0  0  0  0  0  0  0  0  0
  -25.3760  -12.8520   20.7930 C   0  0  0  0  0  0  0  0  0  0  0  0
  -24.2610  -12.1090   21.0800 C   0  0  0  0  0  0  0  0  0  0  0  0
  -24.6950  -10.7490   21.1260 C   0  0  0  0  0  0  0  0  0  0  0  0
  -26.4190  -11.9460   20.6870 N   0  0  0  0  0  0  0  0  0  0  0  0
  -26.0070  -10.6770   20.9420 N   0  0  0  0  0  0  0  0  0  0  0  0
  -23.9280   -9.5060   21.2790 C   0  0  0  0  0  0  0  0  0  0  0  0
  -23.9590   -8.7620   22.4800 C   0  0  0  0  0  3  0  0  0  0  0  0
  -23.2000   -7.5800   22.6100 C   0  0  0  0  0  3  0  0  0  0  0  0
  -22.3970   -7.1300   21.5350 C   0  0  0  0  0  0  0  0  0  0  0  0
  -22.3870   -7.8610   20.3340 C   0  0  0  0  0  3  0  0  0  0  0  0
  -23.1480   -9.0350   20.2040 C   0  0  0  0  0  3  0  0  0  0  0  0
  -21.6470   -5.9800   21.5620 O   0  0  0  0  0  0  0  0  0  0  0  0
  -20.8490   -5.6640   22.6330 C   0  0  0  0  0  0  0  0  0  0  0  0
  -19.8040   -6.5130   23.0590 C   0  0  0  0  0  3  0  0  0  0  0  0
  -18.9660   -6.1180   24.1200 C   0  0  0  0  0  3  0  0  0  0  0  0
  -19.1630   -4.8750   24.7490 C   0  0  0  0  0  0  0  0  0  0  0  0
  -20.2000   -4.0260   24.3220 C   0  0  0  0  0  3  0  0  0  0  0  0
  -21.0380   -4.4190   23.2650 C   0  0  0  0  0  0  0  0  0  0  0  0
  -22.0220   -3.5890   22.8440 F   0  0  0  0  0  0  0  0  0  0  0  0
  -18.3520   -4.4910   25.7640 F   0  0  0  0  0  0  0  0  0  0  0  0
  -22.8550  -12.6190   21.2100 C   0  0  0  0  0  0  0  0  0  0  0  0
  -22.0380  -11.9620   22.0270 N   0  0  0  0  0  0  0  0  0  0  0  0
  -22.4850  -13.6340   20.6220 O   0  0  0  0  0  0  0  0  0  0  0  0
  -22.3460  -11.1400   22.5240 H   0  0  0  0  0  0  0  0  0  0  0  0
  -21.0900  -12.2860   22.1570 H   0  0  0  0  0  0  0  0  0  0  0  0
  -25.5860  -14.2140   20.5970 N   0  0  0  0  0  0  0  0  0  0  0  0
  -24.8280  -14.8860   20.6140 H   0  0  0  0  0  0  0  0  0  0  0  0
  -26.4780  -14.6210   20.3490 H   0  0  0  0  0  0  0  0  0  0  0  0
  -26.8300  -19.3480   18.8990 C   0  0  0  0  0  2  0  0  0  0  0  0
  -27.2610  -20.3290   17.9640 O   0  0  0  0  0  0  0  0  0  0  0  0
  -27.9480  -19.7720   16.8500 C   0  0  0  0  0  2  0  0  0  0  0  0
  -28.8220  -20.8900   16.2690 C   0  0  0  0  0  2  0  0  0  0  0  0
  -29.4860  -21.6370   17.3590 N   0  0  0  0  0  4  0  0  0  0  0  0
  -28.8700  -21.5670   18.1580 H   0  0  0  0  0  0  0  0  0  0  0  0
  -30.3450  -21.1710   17.6090 H   0  0  0  0  0  0  0  0  0  0  0  0
  -29.7600  -23.0630   17.0620 C   0  0  0  0  0  2  0  0  0  0  0  0
  -29.8780  -23.8880   18.3570 C   0  0  0  0  0  2  0  0  0  0  0  0
  -29.9100  -25.2910   18.1000 O   0  0  0  0  0  0  0  0  0  0  0  0
  -25.4660  -29.0920   22.1160 C   0  0  0  0  0  0  0  0  0  0  0  0
  -28.7140  -25.9710   18.1440 C   0  0  0  0  0  0  0  0  0  0  0  0
  -24.6000  -28.4410   19.8920 C   0  0  0  0  0  3  0  0  0  0  0  0
  -26.3140  -27.4530   18.2860 C   0  0  0  0  0  0  0  0  0  0  0  0
  -27.1100  -28.7370   20.2790 C   0  0  0  0  0  2  0  0  0  0  0  0
  -27.3370  -27.6880   19.2110 C   0  0  0  0  0  0  0  0  0  0  0  0
  -28.5410  -26.9580   19.1380 C   0  0  0  0  0  3  0  0  0  0  0  0
  -27.6690  -25.7380   17.2220 C   0  0  0  0  0  3  0  0  0  0  0  0
  -26.4730  -26.4760   17.2880 C   0  0  0  0  0  3  0  0  0  0  0  0
  -25.0660  -28.2950   18.4180 C   0  0  0  0  0  2  0  0  0  0  0  0
  -25.7330  -28.7480   20.8250 N   0  0  0  0  0  0  0  0  0  0  0  0
  -24.3010  -29.2010   22.5230 O   0  0  0  0  0  0  0  0  0  0  0  0
  -23.8100  -27.1720   20.2840 C   0  0  0  0  0  0  0  0  0  0  0  0
  -22.5720  -27.0600   19.7770 N   0  0  0  0  0  0  0  0  0  0  0  0
  -24.3180  -26.3070   21.0000 O   0  0  0  0  0  0  0  0  0  0  0  0
  -22.2280  -27.8180   19.2040 H   0  0  0  0  0  0  0  0  0  0  0  0
  -19.3050  -25.7800   18.9150 C   0  0  0  0  0  0  0  0  0  0  0  0
  -21.6570  -25.9370   19.9770 C   0  0  0  0  0  3  0  0  0  0  0  0
  -22.0350  -24.7430   19.0710 C   0  0  0  0  0  2  0  0  0  0  0  0
  -21.2870  -24.7400   17.7340 C   0  0  0  0  0  2  0  0  0  0  0  0
  -19.7730  -24.6910   17.9650 C   0  0  0  0  0  2  0  0  0  0  0  0
  -20.1930  -26.3760   19.8500 C   0  0  0  0  0  0  0  0  0  0  0  0
  -19.7160  -27.4070   20.6870 C   0  0  0  0  0  3  0  0  0  0  0  0
  -18.3820  -27.8440   20.6030 C   0  0  0  0  0  3  0  0  0  0  0  0
  -17.5010  -27.2380   19.6890 C   0  0  0  0  0  3  0  0  0  0  0  0
  -17.9620  -26.2070   18.8510 C   0  0  0  0  0  3  0  0  0  0  0  0
  -26.6090  -29.3920   23.1360 C   0  0  0  0  0  3  0  0  0  0  0  0
  -26.1920  -30.5490   23.9390 N   0  0  0  0  0  0  0  0  0  0  0  0
  -26.6480  -31.7960   23.7680 C   0  0  0  0  0  0  0  0  0  0  0  0
  -27.5310  -32.0810   22.9550 O   0  0  0  0  0  0  0  0  0  0  0  0
  -25.4320  -30.3990   24.5860 H   0  0  0  0  0  0  0  0  0  0  0  0
  -25.0280  -33.7180   23.8030 C   0  0  0  0  0  1  0  0  0  0  0  0
  -26.0250  -32.9030   24.6410 C   0  0  0  0  0  3  0  0  0  0  0  0
  -27.8440  -33.1680   26.2680 C   0  0  0  0  0  1  0  0  0  0  0  0
  -27.0260  -33.8100   25.2430 N   0  0  0  0  0  0  0  0  0  0  0  0
  -26.5750  -34.6210   25.6590 H   0  0  0  0  0  0  0  0  0  0  0  0
  -26.9530  -28.1620   24.0640 C   0  0  1  0  0  0  0  0  0  0  0  0
  -25.7180  -27.5490   24.7660 C   0  0  0  0  0  1  0  0  0  0  0  0
  -27.6400  -27.0410   23.2480 C   0  0  0  0  0  1  0  0  0  0  0  0
  -27.9590  -28.5940   25.1570 C   0  0  0  0  0  1  0  0  0  0  0  0
  1  2  1  0
  2  3  1  0
  3  4  1  0
  4  5  1  0
  5  6  1  0
  6  7  1  0
  8  9  1  0
  8  7  1  0
 10  9  1  0
 11 10  1  0
 12 11  1  0
 13 12  1  0
 13 22  1  0
 14 20  1  0
 16 17  1  0
 16 15  1  0
 18 17  1  0
 18 27  1  0
 18 19  1  0
 20 15  1  0
 20 19  1  0
 21 14  2  0
 22 14  1  0
 22 23  1  0
 24 25  2  0
 25 26  1  0
 25 44  1  0
 26 29  1  0
 27 24  1  0
 27 28  1  0
 28 26  2  0
 29 30  1  0
 30 31  2  0
 32 35  1  0
 32 31  1  0
 33 32  2  0
 34 33  1  0
 34 29  2  0
 35 36  1  0
 36 37  2  0
 36 41  1  0
 37 38  1  0
 38 39  2  0
 39 43  1  0
 40 39  1  0
 41 40  2  0
 42 41  1  0
 44 45  1  0
 45 48  1  0
 45 47  1  0
 46 44  2  0
 49 50  1  0
 49 24  1  0
 51 49  1  0
 52  1  1  0
 53 52  1  0
 54 53  1  0
 55 54  1  0
 55 56  1  0
 56 58  1  0
 56 57  1  0
 59 56  1  0
 59 60  1  0
 61 63  1  0
 61 60  1  0
 62 73  2  0
 63 68  1  0
 64 74  1  0
 64 72  1  0
 65 71  1  0
 65 67  1  0
 66 72  1  0
 67 66  1  0
 68 67  2  0
 69 70  1  0
 69 63  2  0
 70 65  2  0
 71 64  1  0
 72 62  1  0
 74 76  2  0
 75 74  1  0
 77 75  1  0
 78 83  1  0
 79 75  1  0
 80 79  1  0
 81 82  1  0
 81 80  1  0
 82 78  1  0
 83 79  1  0
 83 84  2  0
 85 84  1  0
 86 85  2  0
 87 78  2  0
 87 86  1  0
 88 62  1  0
 88 89  1  0
 88 98  1  0
 89 92  1  0
 90 89  1  0
 90 94  1  0
 91 90  2  0
 94 93  1  0
 94 96  1  0
 96 97  1  0
 96 95  1  0
 98 99  1  1
 98101  1  0
100 98  1  0
M  ISO  4  14 100  22 100  60 101  61 101
M  END
>  <TORSDO>  (71) 
F 35

>  <SCORE>  (71) 
-4.408

>  <name>  (71) 
71

>  <ligand_id>  (71) 
71

>  <original_smiles>  (71) 
[H]c1c([H])c([H])c2c(c1[H])C([H])([H])C([H])([H])C([H])([H])C2([H])N([H])C(=O)C1([H])N(C(=O)C([H])(N([H])C(=O)C([H])(N([H])C([H])([H])[H])C([H])([H])[H])C(C([H])([H])[H])(C([H])([H])[H])C([H])([H])[H])C([H])([H])c2c([H])c(OC([H])([H])C([H])([H])[N+]([H])([H])C([H])([H])C([H])([H])OC([H])([H])C([H])([H])OC([H])([H])C([H])([H])OC([H])([H])C([H])([H])OC([H])([H])C([H])([H])OC([H])([H])C([H])([H])N([H])C(=O)N3C([H])([H])C([H])([H])C([H])([H])C([H])(n4nc(-c5c([H])c([H])c(Oc6c([H])c([H])c(F)c([H])c6F)c([H])c5[H])c(C(=O)N([H])[H])c4N([H])[H])C3([H])[H])c([H])c([H])c2C1([H])[H]

>  <smiles>  (71) 
[H]c1c([H])c([H])c2c(c1[H])C([H])([H])C([H])([H])C([H])([H])C2([H])N([H])C(=O)C1([H])N(C(=O)C([H])(N([H])C(=O)C([H])(N([H])C([H])([H])[H])C([H])([H])[H])C(C([H])([H])[H])(C([H])([H])[H])C([H])([H])[H])C([H])([H])c2c([H])c(OC([H])([H])C([H])([H])[N+]([H])([H])C([H])([H])C([H])([H])OC([H])([H])C([H])([H])OC([H])([H])C([H])([H])OC([H])([H])C([H])([H])OC([H])([H])C([H])([H])OC([H])([H])C([H])([H])N([H])C(=O)N3C([H])([H])C([H])([H])C([H])([H])C([H])(n4nc(-c5c([H])c([H])c(Oc6c([H])c([H])c(F)c([H])c6F)c([H])c5[H])c(C(=O)N([H])[H])c4N([H])[H])C3([H])[H])c([H])c([H])c2C1([H])[H]

$$$$
72:0:0
     RDKit          3D

 87 94  0  0  1  0  0  0  0  0999 V2000
  -29.3150  -21.8620   20.1030 C   0  0  0  0  0  2  0  0  0  0  0  0
  -29.6240  -19.1120   20.4710 C   0  0  0  0  0  0  0  0  0  0  0  0
  -29.0190  -20.2990   19.9530 N   0  0  0  0  0  0  0  0  0  0  0  0
  -30.2790  -19.2030   21.5080 O   0  0  0  0  0  0  0  0  0  0  0  0
  -28.4340  -20.0990   19.1500 H   0  0  0  0  0  0  0  0  0  0  0  0
  -29.6260  -17.6130   19.7440 C   0  0  0  0  0  2  0  0  0  0  0  0
  -30.4800  -14.9920   20.1470 C   0  0  0  0  0  0  0  0  0  0  0  0
  -30.3600  -12.6390   19.2110 C   0  0  0  0  0  2  0  0  0  0  0  0
  -29.4010  -12.6320   17.9960 C   0  0  0  0  0  2  0  0  0  0  0  0
  -27.9430  -12.4280   18.4540 C   0  0  0  0  0  2  0  0  0  0  0  0
  -27.5720  -13.3210   19.6680 C   0  0  0  0  0  3  0  0  0  0  0  0
  -28.6530  -13.2960   20.7690 C   0  0  0  0  0  2  0  0  0  0  0  0
  -29.9140  -13.7170   20.1450 N   0  0  0  0  0  0  0  0  0  0  0  0
  -31.6510  -15.0840   19.7570 O   0  0  0  0  0  0  0  0  0  0  0  0
  -29.6780  -16.1490   20.3660 N   0  0  0  0  0  0  0  0  0  0  0  0
  -28.8030  -15.9070   20.8080 H   0  0  0  0  0  0  0  0  0  0  0  0
  -25.2050  -13.8880   20.4540 C   0  0  0  0  0  0  0  0  0  0  0  0
  -24.1510  -13.1090   20.8460 C   0  0  0  0  0  0  0  0  0  0  0  0
  -24.6180  -11.7600   20.8020 C   0  0  0  0  0  0  0  0  0  0  0  0
  -26.2440  -13.0150   20.1890 N   0  0  0  0  0  0  0  0  0  0  0  0
  -25.9030  -11.7290   20.4630 N   0  0  0  0  0  0  0  0  0  0  0  0
  -23.9000  -10.4950   21.0030 C   0  0  0  0  0  0  0  0  0  0  0  0
  -24.3510   -9.5260   21.9260 C   0  0  0  0  0  3  0  0  0  0  0  0
  -23.6280   -8.3280   22.1180 C   0  0  0  0  0  3  0  0  0  0  0  0
  -22.4410   -8.0900   21.3860 C   0  0  0  0  0  0  0  0  0  0  0  0
  -22.0080   -9.0480   20.4510 C   0  0  0  0  0  3  0  0  0  0  0  0
  -22.7320  -10.2360   20.2580 C   0  0  0  0  0  3  0  0  0  0  0  0
  -21.6880   -6.9450   21.4860 O   0  0  0  0  0  0  0  0  0  0  0  0
  -21.6630   -6.1990   22.6380 C   0  0  0  0  0  0  0  0  0  0  0  0
  -21.2560   -6.7490   23.8720 C   0  0  0  0  0  3  0  0  0  0  0  0
  -21.1790   -5.9300   25.0160 C   0  0  0  0  0  3  0  0  0  0  0  0
  -21.4980   -4.5620   24.9270 C   0  0  0  0  0  0  0  0  0  0  0  0
  -21.8990   -4.0110   23.6970 C   0  0  0  0  0  3  0  0  0  0  0  0
  -21.9780   -4.8280   22.5550 C   0  0  0  0  0  0  0  0  0  0  0  0
  -22.3450   -4.2880   21.3670 F   0  0  0  0  0  0  0  0  0  0  0  0
  -21.4160   -3.7730   26.0230 F   0  0  0  0  0  0  0  0  0  0  0  0
  -22.7590  -13.5840   21.1460 C   0  0  0  0  0  0  0  0  0  0  0  0
  -22.0500  -12.8860   22.0240 N   0  0  0  0  0  0  0  0  0  0  0  0
  -22.3110  -14.6100   20.6360 O   0  0  0  0  0  0  0  0  0  0  0  0
  -22.4250  -12.0560   22.4590 H   0  0  0  0  0  0  0  0  0  0  0  0
  -21.1180  -13.1880   22.2680 H   0  0  0  0  0  0  0  0  0  0  0  0
  -25.3560  -15.2590   20.2730 N   0  0  0  0  0  0  0  0  0  0  0  0
  -24.5800  -15.9020   20.3910 H   0  0  0  0  0  0  0  0  0  0  0  0
  -26.1740  -15.6970   19.8680 H   0  0  0  0  0  0  0  0  0  0  0  0
  -28.2500  -23.1700   20.3440 C   0  0  0  0  0  2  0  0  0  0  0  0
  -28.4060  -24.7480   19.7110 C   0  0  0  0  0  2  0  0  0  0  0  0
  -28.2750  -26.1870   20.3190 O   0  0  0  0  0  0  0  0  0  0  0  0
  -24.6130  -31.8730   23.2180 C   0  0  0  0  0  0  0  0  0  0  0  0
  -27.2060  -27.1480   20.1930 C   0  0  0  0  0  0  0  0  0  0  0  0
  -23.4220  -30.4760   21.5740 C   0  0  0  0  0  3  0  0  0  0  0  0
  -24.8760  -28.8970   20.1490 C   0  0  0  0  0  0  0  0  0  0  0  0
  -25.9750  -30.7360   21.4230 C   0  0  0  0  0  2  0  0  0  0  0  0
  -26.0490  -29.3440   20.7680 C   0  0  0  0  0  0  0  0  0  0  0  0
  -27.2090  -28.4810   20.7780 C   0  0  0  0  0  3  0  0  0  0  0  0
  -26.0060  -26.8010   19.5360 C   0  0  0  0  0  3  0  0  0  0  0  0
  -24.8680  -27.6410   19.5200 C   0  0  0  0  0  3  0  0  0  0  0  0
  -23.6490  -29.7970   20.1950 C   0  0  0  0  0  2  0  0  0  0  0  0
  -24.6900  -31.0510   22.1270 N   0  0  0  0  0  0  0  0  0  0  0  0
  -23.5250  -32.1580   23.7410 O   0  0  0  0  0  0  0  0  0  0  0  0
  -22.7390  -29.4700   22.5340 C   0  0  0  0  0  0  0  0  0  0  0  0
  -21.4120  -29.2960   22.4000 N   0  0  0  0  0  0  0  0  0  0  0  0
  -23.4070  -28.8470   23.3650 O   0  0  0  0  0  0  0  0  0  0  0  0
  -20.9300  -29.8500   21.7070 H   0  0  0  0  0  0  0  0  0  0  0  0
  -18.0330  -28.0850   22.8840 C   0  0  0  0  0  0  0  0  0  0  0  0
  -20.5890  -28.3590   23.1690 C   0  0  0  0  0  3  0  0  0  0  0  0
  -20.7010  -26.9250   22.6020 C   0  0  0  0  0  2  0  0  0  0  0  0
  -19.6080  -26.5940   21.5810 C   0  0  0  0  0  2  0  0  0  0  0  0
  -18.2200  -26.7350   22.2130 C   0  0  0  0  0  2  0  0  0  0  0  0
  -19.1450  -28.8550   23.3190 C   0  0  0  0  0  0  0  0  0  0  0  0
  -18.9140  -30.1160   23.9090 C   0  0  0  0  0  3  0  0  0  0  0  0
  -17.6060  -30.6100   24.0650 C   0  0  0  0  0  3  0  0  0  0  0  0
  -16.5080  -29.8390   23.6450 C   0  0  0  0  0  3  0  0  0  0  0  0
  -16.7230  -28.5780   23.0600 C   0  0  0  0  0  3  0  0  0  0  0  0
  -25.8880  -32.5090   23.8520 C   0  0  0  0  0  3  0  0  0  0  0  0
  -26.3910  -31.7450   25.1390 C   0  0  1  0  0  0  0  0  0  0  0  0
  -25.2880  -31.5200   26.1990 C   0  0  0  0  0  1  0  0  0  0  0  0
  -26.9750  -30.3630   24.7670 C   0  0  0  0  0  1  0  0  0  0  0  0
  -27.5370  -32.5420   25.8060 C   0  0  0  0  0  1  0  0  0  0  0  0
  -25.5760  -33.9110   24.1790 N   0  0  0  0  0  0  0  0  0  0  0  0
  -25.9100  -34.9660   23.4250 C   0  0  0  0  0  0  0  0  0  0  0  0
  -26.5800  -34.8640   22.3950 O   0  0  0  0  0  0  0  0  0  0  0  0
  -24.9810  -34.0640   24.9800 H   0  0  0  0  0  0  0  0  0  0  0  0
  -24.1840  -36.7660   23.0780 C   0  0  0  0  0  1  0  0  0  0  0  0
  -25.4250  -36.3550   23.8870 C   0  0  0  0  0  3  0  0  0  0  0  0
  -27.5590  -37.2410   24.7190 C   0  0  0  0  0  1  0  0  0  0  0  0
  -26.4590  -37.4080   23.7740 N   0  0  0  0  0  0  0  0  0  0  0  0
  -26.0520  -38.3280   23.9210 H   0  0  0  0  0  0  0  0  0  0  0  0
  1 45  1  0
  2  4  2  0
  3  1  1  0
  3  2  1  0
  5  3  1  0
  6 15  1  0
  6  2  1  0
  7 15  1  0
  8 13  1  0
  9 10  1  0
  9  8  1  0
 11 10  1  0
 11 20  1  0
 11 12  1  0
 13  7  1  0
 13 12  1  0
 14  7  2  0
 15 16  1  0
 17 18  2  0
 18 37  1  0
 19 18  1  0
 19 22  1  0
 20 17  1  0
 20 21  1  0
 21 19  2  0
 22 23  1  0
 23 24  2  0
 25 28  1  0
 25 24  1  0
 26 25  2  0
 27 26  1  0
 27 22  2  0
 28 29  1  0
 29 30  1  0
 30 31  2  0
 32 31  1  0
 32 36  1  0
 33 32  2  0
 34 29  2  0
 34 33  1  0
 35 34  1  0
 37 38  1  0
 38 41  1  0
 38 40  1  0
 39 37  2  0
 42 43  1  0
 42 17  1  0
 44 42  1  0
 46 47  1  0
 46 45  1  0
 48 59  2  0
 49 47  1  0
 49 54  1  0
 50 58  1  0
 50 60  1  0
 51 57  1  0
 51 53  1  0
 52 58  1  0
 53 54  2  0
 53 52  1  0
 55 49  2  0
 56 55  1  0
 56 51  2  0
 57 50  1  0
 58 48  1  0
 60 62  2  0
 61 60  1  0
 63 61  1  0
 64 73  2  0
 64 69  1  0
 65 61  1  0
 65 69  1  0
 66 65  1  0
 67 68  1  0
 67 66  1  0
 68 64  1  0
 69 70  2  0
 70 71  1  0
 72 71  2  0
 73 72  1  0
 74 48  1  0
 74 79  1  0
 74 75  1  0
 75 78  1  1
 75 76  1  0
 77 75  1  0
 79 82  1  0
 80 84  1  0
 80 79  1  0
 81 80  2  0
 84 83  1  0
 86 84  1  0
 86 87  1  0
 86 85  1  0
M  ISO  4   7 100  15 100  46 101  47 101
M  END
>  <TORSDO>  (72) 
F 20

>  <SCORE>  (72) 
-14.791

>  <name>  (72) 
72

>  <ligand_id>  (72) 
72

>  <original_smiles>  (72) 
[H]c1c([H])c([H])c2c(c1[H])C([H])([H])C([H])([H])C([H])([H])C2([H])N([H])C(=O)C1([H])N(C(=O)C([H])(N([H])C(=O)C([H])(N([H])C([H])([H])[H])C([H])([H])[H])C(C([H])([H])[H])(C([H])([H])[H])C([H])([H])[H])C([H])([H])c2c([H])c(OC([H])([H])C([H])([H])C([H])([H])N([H])C(=O)C([H])([H])N([H])C(=O)N3C([H])([H])C([H])([H])C([H])([H])C([H])(n4nc(-c5c([H])c([H])c(Oc6c([H])c([H])c(F)c([H])c6F)c([H])c5[H])c(C(=O)N([H])[H])c4N([H])[H])C3([H])[H])c([H])c([H])c2C1([H])[H]

>  <smiles>  (72) 
[H]c1c([H])c([H])c2c(c1[H])C([H])([H])C([H])([H])C([H])([H])C2([H])N([H])C(=O)C1([H])N(C(=O)C([H])(N([H])C(=O)C([H])(N([H])C([H])([H])[H])C([H])([H])[H])C(C([H])([H])[H])(C([H])([H])[H])C([H])([H])[H])C([H])([H])c2c([H])c(OC([H])([H])C([H])([H])C([H])([H])N([H])C(=O)C([H])([H])N([H])C(=O)N3C([H])([H])C([H])([H])C([H])([H])C([H])(n4nc(-c5c([H])c([H])c(Oc6c([H])c([H])c(F)c([H])c6F)c([H])c5[H])c(C(=O)N([H])[H])c4N([H])[H])C3([H])[H])c([H])c([H])c2C1([H])[H]

$$$$
73:0:0
     RDKit          3D

 93100  0  0  1  0  0  0  0  0999 V2000
  -29.9810  -23.1730   22.3900 O   0  0  0  0  0  0  0  0  0  0  0  0
  -29.4210  -23.8960   23.4830 C   0  0  0  0  0  2  0  0  0  0  0  0
  -30.0210  -25.3120   23.5600 C   0  0  0  0  0  2  0  0  0  0  0  0
  -29.4920  -26.1810   22.5630 O   0  0  0  0  0  0  0  0  0  0  0  0
  -30.1730  -26.1080   21.3140 C   0  0  0  0  0  2  0  0  0  0  0  0
  -29.5730  -27.1310   20.3430 C   0  0  0  0  0  2  0  0  0  0  0  0
  -28.2780  -26.6780   19.9580 O   0  0  0  0  0  0  0  0  0  0  0  0
  -24.5300  -31.8560   23.2210 C   0  0  0  0  0  0  0  0  0  0  0  0
  -27.1600  -27.4780   20.0680 C   0  0  0  0  0  0  0  0  0  0  0  0
  -23.3030  -30.4700   21.5790 C   0  0  0  0  0  3  0  0  0  0  0  0
  -24.7440  -28.9470   20.1290 C   0  0  0  0  0  0  0  0  0  0  0  0
  -25.8210  -30.8420   21.3520 C   0  0  0  0  0  2  0  0  0  0  0  0
  -25.9020  -29.4780   20.7070 C   0  0  0  0  0  0  0  0  0  0  0  0
  -27.1090  -28.7520   20.6840 C   0  0  0  0  0  3  0  0  0  0  0  0
  -25.9770  -26.9490   19.5110 C   0  0  0  0  0  3  0  0  0  0  0  0
  -24.7710  -27.6760   19.5350 C   0  0  0  0  0  3  0  0  0  0  0  0
  -23.4980  -29.7990   20.1920 C   0  0  0  0  0  2  0  0  0  0  0  0
  -24.5700  -31.0700   22.1100 N   0  0  0  0  0  0  0  0  0  0  0  0
  -23.4560  -32.1230   23.7800 O   0  0  0  0  0  0  0  0  0  0  0  0
  -22.6640  -29.4400   22.5360 C   0  0  0  0  0  0  0  0  0  0  0  0
  -21.3360  -29.2650   22.4250 N   0  0  0  0  0  0  0  0  0  0  0  0
  -23.3550  -28.8030   23.3340 O   0  0  0  0  0  0  0  0  0  0  0  0
  -20.8380  -29.8320   21.7520 H   0  0  0  0  0  0  0  0  0  0  0  0
  -17.9640  -28.0840   22.9500 C   0  0  0  0  0  0  0  0  0  0  0  0
  -20.5260  -28.3230   23.1980 C   0  0  0  0  0  3  0  0  0  0  0  0
  -20.6140  -26.8970   22.6070 C   0  0  0  0  0  2  0  0  0  0  0  0
  -19.4990  -26.5920   21.6010 C   0  0  0  0  0  2  0  0  0  0  0  0
  -18.1250  -26.7390   22.2630 C   0  0  0  0  0  2  0  0  0  0  0  0
  -19.0920  -28.8330   23.3770 C   0  0  0  0  0  0  0  0  0  0  0  0
  -18.8890  -30.0920   23.9820 C   0  0  0  0  0  3  0  0  0  0  0  0
  -17.5900  -30.6030   24.1620 C   0  0  0  0  0  3  0  0  0  0  0  0
  -16.4760  -29.8480   23.7560 C   0  0  0  0  0  3  0  0  0  0  0  0
  -16.6640  -28.5890   23.1560 C   0  0  0  0  0  3  0  0  0  0  0  0
  -25.8240  -32.4780   23.8290 C   0  0  0  0  0  3  0  0  0  0  0  0
  -26.3690  -31.6850   25.0810 C   0  0  1  0  0  0  0  0  0  0  0  0
  -25.3010  -31.4340   26.1720 C   0  0  0  0  0  1  0  0  0  0  0  0
  -26.9400  -30.3120   24.6540 C   0  0  0  0  0  1  0  0  0  0  0  0
  -27.5390  -32.4640   25.7250 C   0  0  0  0  0  1  0  0  0  0  0  0
  -25.5220  -33.8710   24.1820 N   0  0  0  0  0  0  0  0  0  0  0  0
  -25.8560  -34.9320   23.4340 C   0  0  0  0  0  0  0  0  0  0  0  0
  -26.5230  -34.8400   22.4010 O   0  0  0  0  0  0  0  0  0  0  0  0
  -24.9160  -34.0150   24.9760 H   0  0  0  0  0  0  0  0  0  0  0  0
  -24.1350  -36.7390   23.1010 C   0  0  0  0  0  1  0  0  0  0  0  0
  -25.3730  -36.3160   23.9090 C   0  0  0  0  0  3  0  0  0  0  0  0
  -27.5120  -37.1760   24.7540 C   0  0  0  0  0  1  0  0  0  0  0  0
  -26.4080  -37.3660   23.8140 N   0  0  0  0  0  0  0  0  0  0  0  0
  -26.0080  -38.2850   23.9820 H   0  0  0  0  0  0  0  0  0  0  0  0
  -29.4550  -21.8590   22.2490 C   0  0  0  0  0  2  0  0  0  0  0  0
  -29.9930  -21.2700   20.9360 C   0  0  0  0  0  2  0  0  0  0  0  0
  -29.4840  -19.8550   20.5940 C   0  0  0  0  0  2  0  0  0  0  0  0
  -29.9360  -17.4840   21.1240 C   0  0  0  0  0  0  0  0  0  0  0  0
  -30.2430  -18.7820   21.2430 N   0  0  0  0  0  0  0  0  0  0  0  0
  -28.9400  -17.1020   20.5010 O   0  0  0  0  0  0  0  0  0  0  0  0
  -31.0700  -19.0290   21.7710 H   0  0  0  0  0  0  0  0  0  0  0  0
  -30.8650  -16.4640   21.8000 C   0  0  0  0  0  2  0  0  0  0  0  0
  -30.8000  -14.3890   20.4200 C   0  0  0  0  0  0  0  0  0  0  0  0
  -30.3910  -12.3320   19.1140 C   0  0  0  0  0  2  0  0  0  0  0  0
  -29.4270  -12.5720   17.9380 C   0  0  0  0  0  2  0  0  0  0  0  0
  -27.9590  -12.4460   18.3940 C   0  0  0  0  0  2  0  0  0  0  0  0
  -27.6600  -13.2760   19.6710 C   0  0  0  0  0  3  0  0  0  0  0  0
  -28.7230  -13.0090   20.7610 C   0  0  0  0  0  2  0  0  0  0  0  0
  -30.0620  -13.2710   20.1990 N   0  0  0  0  0  0  0  0  0  0  0  0
  -31.7640  -14.7180   19.7230 O   0  0  0  0  0  0  0  0  0  0  0  0
  -30.4460  -15.0920   21.5010 N   0  0  0  0  0  0  0  0  0  0  0  0
  -29.6750  -14.7310   22.0420 H   0  0  0  0  0  0  0  0  0  0  0  0
  -25.2790  -13.9110   20.4290 C   0  0  0  0  0  0  0  0  0  0  0  0
  -24.2080  -13.1490   20.8120 C   0  0  0  0  0  0  0  0  0  0  0  0
  -24.6520  -11.7920   20.7730 C   0  0  0  0  0  0  0  0  0  0  0  0
  -26.3100  -13.0190   20.1720 N   0  0  0  0  0  0  0  0  0  0  0  0
  -25.9370  -11.7400   20.4390 N   0  0  0  0  0  0  0  0  0  0  0  0
  -23.9170  -10.5370   20.9760 C   0  0  0  0  0  0  0  0  0  0  0  0
  -24.3530   -9.5720   21.9100 C   0  0  0  0  0  3  0  0  0  0  0  0
  -23.6240   -8.3800   22.1020 C   0  0  0  0  0  3  0  0  0  0  0  0
  -22.4410   -8.1430   21.3600 C   0  0  0  0  0  0  0  0  0  0  0  0
  -22.0230   -9.0970   20.4150 C   0  0  0  0  0  3  0  0  0  0  0  0
  -22.7540  -10.2820   20.2220 C   0  0  0  0  0  3  0  0  0  0  0  0
  -21.6820   -7.0030   21.4620 O   0  0  0  0  0  0  0  0  0  0  0  0
  -21.6320   -6.2720   22.6220 C   0  0  0  0  0  0  0  0  0  0  0  0
  -21.2280   -6.8420   23.8490 C   0  0  0  0  0  3  0  0  0  0  0  0
  -21.1240   -6.0360   25.0000 C   0  0  0  0  0  3  0  0  0  0  0  0
  -21.4130   -4.6610   24.9260 C   0  0  0  0  0  0  0  0  0  0  0  0
  -21.8090   -4.0900   23.7040 C   0  0  0  0  0  3  0  0  0  0  0  0
  -21.9150   -4.8920   22.5550 C   0  0  0  0  0  0  0  0  0  0  0  0
  -22.2770   -4.3320   21.3760 F   0  0  0  0  0  0  0  0  0  0  0  0
  -21.3050   -3.8850   26.0300 F   0  0  0  0  0  0  0  0  0  0  0  0
  -22.8190  -13.6400   21.1090 C   0  0  0  0  0  0  0  0  0  0  0  0
  -22.0950  -12.9570   21.9880 N   0  0  0  0  0  0  0  0  0  0  0  0
  -22.3820  -14.6670   20.5920 O   0  0  0  0  0  0  0  0  0  0  0  0
  -22.4500  -12.1280   22.4400 H   0  0  0  0  0  0  0  0  0  0  0  0
  -21.1630  -13.2770   22.2130 H   0  0  0  0  0  0  0  0  0  0  0  0
  -25.4640  -15.2820   20.2630 N   0  0  0  0  0  0  0  0  0  0  0  0
  -24.7310  -15.9590   20.4430 H   0  0  0  0  0  0  0  0  0  0  0  0
  -26.3490  -15.7140   20.0200 H   0  0  0  0  0  0  0  0  0  0  0  0
  1  2  1  0
  2  3  1  0
  4  3  1  0
  5  4  1  0
  6  5  1  0
  7  9  1  0
  7  6  1  0
  8 19  2  0
  9 14  1  0
 10 18  1  0
 10 20  1  0
 11 17  1  0
 11 13  1  0
 12 18  1  0
 13 12  1  0
 14 13  2  0
 15 16  1  0
 15  9  2  0
 16 11  2  0
 17 10  1  0
 18  8  1  0
 20 22  2  0
 21 20  1  0
 23 21  1  0
 24 33  2  0
 24 29  1  0
 25 21  1  0
 25 29  1  0
 26 25  1  0
 27 28  1  0
 27 26  1  0
 28 24  1  0
 29 30  2  0
 30 31  1  0
 32 31  2  0
 33 32  1  0
 34  8  1  0
 34 39  1  0
 34 35  1  0
 35 38  1  1
 35 36  1  0
 37 35  1  0
 39 42  1  0
 40 44  1  0
 40 39  1  0
 41 40  2  0
 44 43  1  0
 46 44  1  0
 46 47  1  0
 46 45  1  0
 48  1  1  0
 49 48  1  0
 50 49  1  0
 50 52  1  0
 51 52  1  0
 51 55  1  0
 52 54  1  0
 53 51  2  0
 56 64  1  0
 57 62  1  0
 58 59  1  0
 58 57  1  0
 60 59  1  0
 60 69  1  0
 60 61  1  0
 62 56  1  0
 62 61  1  0
 63 56  2  0
 64 55  1  0
 64 65  1  0
 66 67  2  0
 67 86  1  0
 68 67  1  0
 68 71  1  0
 69 66  1  0
 69 70  1  0
 70 68  2  0
 71 72  1  0
 72 73  2  0
 74 77  1  0
 74 73  1  0
 75 74  2  0
 76 75  1  0
 76 71  2  0
 77 78  1  0
 78 79  1  0
 79 80  2  0
 81 80  1  0
 81 85  1  0
 82 81  2  0
 83 78  2  0
 83 82  1  0
 84 83  1  0
 86 87  1  0
 87 90  1  0
 87 89  1  0
 88 86  2  0
 91 66  1  0
 91 92  1  0
 93 91  1  0
M  ISO  4   6 101   7 101  56 100  64 100
M  END
>  <TORSDO>  (73) 
F 26

>  <SCORE>  (73) 
-11.759

>  <name>  (73) 
73

>  <ligand_id>  (73) 
73

>  <original_smiles>  (73) 
[H]c1c([H])c([H])c2c(c1[H])C([H])([H])C([H])([H])C([H])([H])C2([H])N([H])C(=O)C1([H])N(C(=O)C([H])(N([H])C(=O)C([H])(N([H])C([H])([H])[H])C([H])([H])[H])C(C([H])([H])[H])(C([H])([H])[H])C([H])([H])[H])C([H])([H])c2c([H])c(OC([H])([H])C([H])([H])OC([H])([H])C([H])([H])OC([H])([H])C([H])([H])C([H])([H])N([H])C(=O)C([H])([H])N([H])C(=O)N3C([H])([H])C([H])([H])C([H])([H])C([H])(n4nc(-c5c([H])c([H])c(Oc6c([H])c([H])c(F)c([H])c6F)c([H])c5[H])c(C(=O)N([H])[H])c4N([H])[H])C3([H])[H])c([H])c([H])c2C1([H])[H]

>  <smiles>  (73) 
[H]c1c([H])c([H])c2c(c1[H])C([H])([H])C([H])([H])C([H])([H])C2([H])N([H])C(=O)C1([H])N(C(=O)C([H])(N([H])C(=O)C([H])(N([H])C([H])([H])[H])C([H])([H])[H])C(C([H])([H])[H])(C([H])([H])[H])C([H])([H])[H])C([H])([H])c2c([H])c(OC([H])([H])C([H])([H])OC([H])([H])C([H])([H])OC([H])([H])C([H])([H])C([H])([H])N([H])C(=O)C([H])([H])N([H])C(=O)N3C([H])([H])C([H])([H])C([H])([H])C([H])(n4nc(-c5c([H])c([H])c(Oc6c([H])c([H])c(F)c([H])c6F)c([H])c5[H])c(C(=O)N([H])[H])c4N([H])[H])C3([H])[H])c([H])c([H])c2C1([H])[H]

$$$$
74:0:0
     RDKit          3D

 98106  0  0  1  0  0  0  0  0999 V2000
  -33.6670  -22.5590   18.6050 C   0  0  0  0  0  0  0  0  0  0  0  0
  -32.7670  -23.8990   20.4600 C   0  0  0  0  0  2  0  0  0  0  0  0
  -31.3520  -23.5080   18.4810 C   0  0  0  0  0  2  0  0  0  0  0  0
  -32.4960  -25.4020   20.3600 C   0  0  0  0  0  2  0  0  0  0  0  0
  -30.9280  -24.9940   18.5070 C   0  0  0  0  0  2  0  0  0  0  0  0
  -32.6520  -23.2740   19.1370 N   0  0  0  0  0  0  0  0  0  0  0  0
  -33.2540  -21.5850   17.7900 N   0  0  0  0  0  0  0  0  0  0  0  0
  -31.1370  -25.6580   19.8240 N   0  0  2  0  0  4  0  0  0  0  0  0
  -34.8440  -22.6630   18.9610 O   0  0  0  0  0  0  0  0  0  0  0  0
  -32.2650  -21.5860   17.5820 H   0  0  0  0  0  0  0  0  0  0  0  0
  -30.4850  -25.2290   20.4680 H   0  0  0  0  0  0  0  0  0  0  0  0
  -33.9930  -20.3780   17.4460 C   0  0  0  0  0  2  0  0  0  0  0  0
  -33.1370  -19.1470   17.7580 C   0  0  0  0  0  2  0  0  0  0  0  0
  -32.7660  -19.0200   19.2500 C   0  0  0  0  0  2  0  0  0  0  0  0
  -31.9120  -17.7630   19.4860 C   0  0  0  0  0  2  0  0  0  0  0  0
  -31.0610  -17.7740   20.7720 C   0  0  0  0  0  2  0  0  0  0  0  0
  -29.8140  -16.8600   20.7100 C   0  0  0  0  0  2  0  0  0  0  0  0
  -30.6660  -14.4790   20.5690 C   0  0  0  0  0  0  0  0  0  0  0  0
  -30.3790  -12.3210   19.4300 C   0  0  0  0  0  2  0  0  0  0  0  0
  -29.4540  -12.5510   18.2170 C   0  0  0  0  0  2  0  0  0  0  0  0
  -27.9690  -12.4630   18.6170 C   0  0  0  0  0  2  0  0  0  0  0  0
  -27.6320  -13.2680   19.8990 C   0  0  0  0  0  3  0  0  0  0  0  0
  -28.6690  -13.0000   21.0150 C   0  0  0  0  0  2  0  0  0  0  0  0
  -30.0080  -13.2930   20.4700 N   0  0  0  0  0  0  0  0  0  0  0  0
  -31.7610  -14.6790   20.0430 O   0  0  0  0  0  0  0  0  0  0  0  0
  -29.9610  -15.4620   21.1460 N   0  0  0  0  0  0  0  0  0  0  0  0
  -29.1860  -15.1110   21.6890 H   0  0  0  0  0  0  0  0  0  0  0  0
  -25.2170  -13.8940   20.5320 C   0  0  0  0  0  0  0  0  0  0  0  0
  -24.1330  -13.1280   20.8810 C   0  0  0  0  0  0  0  0  0  0  0  0
  -24.5880  -11.7720   20.8760 C   0  0  0  0  0  0  0  0  0  0  0  0
  -26.2640  -13.0040   20.3450 N   0  0  0  0  0  0  0  0  0  0  0  0
  -25.8860  -11.7240   20.6010 N   0  0  0  0  0  0  0  0  0  0  0  0
  -23.8510  -10.5140   21.0650 C   0  0  0  0  0  0  0  0  0  0  0  0
  -24.2760   -9.5380   21.9950 C   0  0  0  0  0  3  0  0  0  0  0  0
  -23.5370   -8.3470   22.1760 C   0  0  0  0  0  3  0  0  0  0  0  0
  -22.3580   -8.1240   21.4250 C   0  0  0  0  0  0  0  0  0  0  0  0
  -21.9510   -9.0890   20.4850 C   0  0  0  0  0  3  0  0  0  0  0  0
  -22.6930  -10.2700   20.3030 C   0  0  0  0  0  3  0  0  0  0  0  0
  -21.5910   -6.9870   21.5120 O   0  0  0  0  0  0  0  0  0  0  0  0
  -21.5600   -6.2260   22.6540 C   0  0  0  0  0  0  0  0  0  0  0  0
  -21.1960   -6.7760   23.9040 C   0  0  0  0  0  3  0  0  0  0  0  0
  -21.1150   -5.9450   25.0390 C   0  0  0  0  0  3  0  0  0  0  0  0
  -21.3810   -4.5660   24.9250 C   0  0  0  0  0  0  0  0  0  0  0  0
  -21.7330   -4.0180   23.6800 C   0  0  0  0  0  3  0  0  0  0  0  0
  -21.8210   -4.8450   22.5480 C   0  0  0  0  0  0  0  0  0  0  0  0
  -22.1400   -4.3080   21.3440 F   0  0  0  0  0  0  0  0  0  0  0  0
  -21.2950   -3.7640   26.0120 F   0  0  0  0  0  0  0  0  0  0  0  0
  -22.7320  -13.6130   21.1180 C   0  0  0  0  0  0  0  0  0  0  0  0
  -21.9890  -12.9260   21.9790 N   0  0  0  0  0  0  0  0  0  0  0  0
  -22.3080  -14.6330   20.5790 O   0  0  0  0  0  0  0  0  0  0  0  0
  -22.3500  -12.0960   22.4250 H   0  0  0  0  0  0  0  0  0  0  0  0
  -21.0480  -13.2270   22.1910 H   0  0  0  0  0  0  0  0  0  0  0  0
  -25.4010  -15.2590   20.3410 N   0  0  0  0  0  0  0  0  0  0  0  0
  -24.6550  -15.9420   20.3920 H   0  0  0  0  0  0  0  0  0  0  0  0
  -26.2920  -15.6700   20.0880 H   0  0  0  0  0  0  0  0  0  0  0  0
  -30.8270  -27.1170   19.8280 C   0  0  0  0  0  2  0  0  0  0  0  0
  -29.4390  -27.4720   19.2730 C   0  0  0  0  0  2  0  0  0  0  0  0
  -28.4060  -26.7820   19.9890 O   0  0  0  0  0  0  0  0  0  0  0  0
  -24.5820  -31.8690   23.1820 C   0  0  0  0  0  0  0  0  0  0  0  0
  -27.2240  -27.4770   20.0750 C   0  0  0  0  0  0  0  0  0  0  0  0
  -23.3550  -30.4560   21.5590 C   0  0  0  0  0  3  0  0  0  0  0  0
  -24.7990  -28.9200   20.1230 C   0  0  0  0  0  0  0  0  0  0  0  0
  -25.8660  -30.8410   21.3180 C   0  0  0  0  0  2  0  0  0  0  0  0
  -25.9540  -29.4640   20.7020 C   0  0  0  0  0  0  0  0  0  0  0  0
  -27.1620  -28.7450   20.6930 C   0  0  0  0  0  3  0  0  0  0  0  0
  -26.0540  -26.9230   19.5190 C   0  0  0  0  0  3  0  0  0  0  0  0
  -24.8420  -27.6460   19.5300 C   0  0  0  0  0  3  0  0  0  0  0  0
  -23.5500  -29.7710   20.1780 C   0  0  0  0  0  2  0  0  0  0  0  0
  -24.6200  -31.0670   22.0830 N   0  0  0  0  0  0  0  0  0  0  0  0
  -23.5100  -32.1400   23.7410 O   0  0  0  0  0  0  0  0  0  0  0  0
  -22.7220  -29.4360   22.5310 C   0  0  0  0  0  0  0  0  0  0  0  0
  -21.3950  -29.2570   22.4250 N   0  0  0  0  0  0  0  0  0  0  0  0
  -23.4180  -28.8100   23.3350 O   0  0  0  0  0  0  0  0  0  0  0  0
  -20.8940  -29.8110   21.7440 H   0  0  0  0  0  0  0  0  0  0  0  0
  -18.0270  -28.0750   22.9650 C   0  0  0  0  0  0  0  0  0  0  0  0
  -20.5880  -28.3260   23.2130 C   0  0  0  0  0  3  0  0  0  0  0  0
  -20.6820  -26.8930   22.6420 C   0  0  0  0  0  2  0  0  0  0  0  0
  -19.5700  -26.5700   21.6390 C   0  0  0  0  0  2  0  0  0  0  0  0
  -18.1930  -26.7220   22.2920 C   0  0  0  0  0  2  0  0  0  0  0  0
  -19.1520  -28.8340   23.3820 C   0  0  0  0  0  0  0  0  0  0  0  0
  -18.9440  -30.1020   23.9680 C   0  0  0  0  0  3  0  0  0  0  0  0
  -17.6430  -30.6090   24.1460 C   0  0  0  0  0  3  0  0  0  0  0  0
  -16.5320  -29.8460   23.7460 C   0  0  0  0  0  3  0  0  0  0  0  0
  -16.7250  -28.5820   23.1600 C   0  0  0  0  0  3  0  0  0  0  0  0
  -25.8760  -32.5030   23.7800 C   0  0  0  0  0  3  0  0  0  0  0  0
  -25.5640  -33.8920   24.1360 N   0  0  0  0  0  0  0  0  0  0  0  0
  -25.8800  -34.9580   23.3870 C   0  0  0  0  0  0  0  0  0  0  0  0
  -26.5340  -34.8750   22.3450 O   0  0  0  0  0  0  0  0  0  0  0  0
  -24.9700  -34.0310   24.9410 H   0  0  0  0  0  0  0  0  0  0  0  0
  -24.1270  -36.7390   23.0970 C   0  0  0  0  0  1  0  0  0  0  0  0
  -25.3890  -36.3350   23.8750 C   0  0  0  0  0  3  0  0  0  0  0  0
  -27.5440  -37.2180   24.6590 C   0  0  0  0  0  1  0  0  0  0  0  0
  -26.4080  -37.4010   23.7580 N   0  0  0  0  0  0  0  0  0  0  0  0
  -25.9980  -38.3100   23.9520 H   0  0  0  0  0  0  0  0  0  0  0  0
  -26.4380  -31.7150   25.0260 C   0  0  1  0  0  0  0  0  0  0  0  0
  -25.3770  -31.4550   26.1210 C   0  0  0  0  0  1  0  0  0  0  0  0
  -27.0130  -30.3480   24.5880 C   0  0  0  0  0  1  0  0  0  0  0  0
  -27.5990  -32.5070   25.6690 C   0  0  0  0  0  1  0  0  0  0  0  0
  1  9  2  0
  1  6  1  0
  3  5  1  0
  3  6  1  0
  4  2  1  0
  5  8  1  0
  6  2  1  0
  7  1  1  0
  8 56  1  0
  8  4  1  0
  8 11  1  1
 10  7  1  0
 12 13  1  0
 12  7  1  0
 13 14  1  0
 14 15  1  0
 15 16  1  0
 17 16  1  0
 17 26  1  0
 18 26  1  0
 19 24  1  0
 20 21  1  0
 20 19  1  0
 22 21  1  0
 22 31  1  0
 22 23  1  0
 24 18  1  0
 24 23  1  0
 25 18  2  0
 26 27  1  0
 28 29  2  0
 29 48  1  0
 30 29  1  0
 30 33  1  0
 31 28  1  0
 31 32  1  0
 32 30  2  0
 33 34  1  0
 34 35  2  0
 36 39  1  0
 36 35  1  0
 37 36  2  0
 38 37  1  0
 38 33  2  0
 39 40  1  0
 40 41  1  0
 41 42  2  0
 43 42  1  0
 43 47  1  0
 44 43  2  0
 45 40  2  0
 45 44  1  0
 46 45  1  0
 48 49  1  0
 49 52  1  0
 49 51  1  0
 50 48  2  0
 53 54  1  0
 53 28  1  0
 55 53  1  0
 57 56  1  0
 57 58  1  0
 58 60  1  0
 59 70  2  0
 60 65  1  0
 61 69  1  0
 61 71  1  0
 62 68  1  0
 62 64  1  0
 63 69  1  0
 64 63  1  0
 65 64  2  0
 66 67  1  0
 66 60  2  0
 67 62  2  0
 68 61  1  0
 69 59  1  0
 71 73  2  0
 72 71  1  0
 74 72  1  0
 75 84  2  0
 75 80  1  0
 76 72  1  0
 76 80  1  0
 77 76  1  0
 78 79  1  0
 78 77  1  0
 79 75  1  0
 80 81  2  0
 81 82  1  0
 83 82  2  0
 84 83  1  0
 85 59  1  0
 85 86  1  0
 85 95  1  0
 86 89  1  0
 87 91  1  0
 87 86  1  0
 88 87  2  0
 91 90  1  0
 93 91  1  0
 93 94  1  0
 93 92  1  0
 95 98  1  1
 95 96  1  0
 97 95  1  0
M  ISO  4  18 100  26 100  57 101  58 101
M  END
>  <TORSDO>  (74) 
F 24

>  <SCORE>  (74) 
-11.940

>  <name>  (74) 
74

>  <ligand_id>  (74) 
74

>  <original_smiles>  (74) 
[H]c1c([H])c([H])c2c(c1[H])C([H])([H])C([H])([H])C([H])([H])C2([H])N([H])C(=O)C1([H])N(C(=O)C([H])(N([H])C(=O)C([H])(N([H])C([H])([H])[H])C([H])([H])[H])C(C([H])([H])[H])(C([H])([H])[H])C([H])([H])[H])C([H])([H])c2c([H])c(OC([H])([H])C([H])([H])[N+]3([H])C([H])([H])C([H])([H])N(C(=O)N([H])C([H])([H])C([H])([H])C([H])([H])C([H])([H])C([H])([H])C([H])([H])N([H])C(=O)N4C([H])([H])C([H])([H])C([H])([H])C([H])(n5nc(-c6c([H])c([H])c(Oc7c([H])c([H])c(F)c([H])c7F)c([H])c6[H])c(C(=O)N([H])[H])c5N([H])[H])C4([H])[H])C([H])([H])C3([H])[H])c([H])c([H])c2C1([H])[H]

>  <smiles>  (74) 
[H]c1c([H])c([H])c2c(c1[H])C([H])([H])C([H])([H])C([H])([H])C2([H])N([H])C(=O)C1([H])N(C(=O)C([H])(N([H])C(=O)C([H])(N([H])C([H])([H])[H])C([H])([H])[H])C(C([H])([H])[H])(C([H])([H])[H])C([H])([H])[H])C([H])([H])c2c([H])c(OC([H])([H])C([H])([H])[N+]3([H])C([H])([H])C([H])([H])N(C(=O)N([H])C([H])([H])C([H])([H])C([H])([H])C([H])([H])C([H])([H])C([H])([H])N([H])C(=O)N4C([H])([H])C([H])([H])C([H])([H])C([H])(n5nc(-c6c([H])c([H])c(Oc7c([H])c([H])c(F)c([H])c7F)c([H])c6[H])c(C(=O)N([H])[H])c5N([H])[H])C4([H])[H])C([H])([H])C3([H])[H])c([H])c([H])c2C1([H])[H]

$$$$
75:0:0
     RDKit          3D

 91 98  0  0  1  0  0  0  0  0999 V2000
  -28.4150  -21.6690   20.6480 C   0  0  0  0  0  0  0  0  0  0  0  0
  -27.9860  -22.4440   21.6520 N   0  0  0  0  0  0  0  0  0  0  0  0
  -28.8410  -22.1240   19.5850 O   0  0  0  0  0  0  0  0  0  0  0  0
  -27.7050  -21.9670   22.5000 H   0  0  0  0  0  0  0  0  0  0  0  0
  -28.2960  -20.1540   20.8480 C   0  0  0  0  0  2  0  0  0  0  0  0
  -29.6470  -19.4160   20.8310 C   0  0  0  0  0  2  0  0  0  0  0  0
  -29.5290  -17.9940   21.4190 C   0  0  0  0  0  2  0  0  0  0  0  0
  -30.8770  -17.3620   21.8200 C   0  0  0  0  0  2  0  0  0  0  0  0
  -31.5280  -16.4820   20.7400 C   0  0  0  0  0  2  0  0  0  0  0  0
  -31.3280  -14.1860   19.8580 C   0  0  0  0  0  0  0  0  0  0  0  0
  -30.9000  -11.9330   18.9630 C   0  0  0  0  0  2  0  0  0  0  0  0
  -29.9380  -12.0170   17.7630 C   0  0  0  0  0  2  0  0  0  0  0  0
  -28.4700  -11.9880   18.2380 C   0  0  0  0  0  2  0  0  0  0  0  0
  -28.1910  -12.9950   19.3860 C   0  0  0  0  0  3  0  0  0  0  0  0
  -29.2640  -12.8860   20.4940 C   0  0  0  0  0  2  0  0  0  0  0  0
  -30.5900  -13.0480   19.8700 N   0  0  0  0  0  0  0  0  0  0  0  0
  -32.3610  -14.3200   19.1930 O   0  0  0  0  0  0  0  0  0  0  0  0
  -30.8650  -15.1860   20.6160 N   0  0  0  0  0  0  0  0  0  0  0  0
  -30.0250  -15.0200   21.1500 H   0  0  0  0  0  0  0  0  0  0  0  0
  -25.8730  -13.7890   20.1790 C   0  0  0  0  0  0  0  0  0  0  0  0
  -24.7710  -13.1060   20.6180 C   0  0  0  0  0  0  0  0  0  0  0  0
  -25.1350  -11.7240   20.6070 C   0  0  0  0  0  0  0  0  0  0  0  0
  -26.8420  -12.8310   19.9270 N   0  0  0  0  0  0  0  0  0  0  0  0
  -26.4020  -11.5840   20.2400 N   0  0  0  0  0  0  0  0  0  0  0  0
  -24.3340  -10.5220   20.8720 C   0  0  0  0  0  0  0  0  0  0  0  0
  -24.7200   -9.5770   21.8470 C   0  0  0  0  0  3  0  0  0  0  0  0
  -23.9230   -8.4380   22.0940 C   0  0  0  0  0  3  0  0  0  0  0  0
  -22.7260   -8.2360   21.3650 C   0  0  0  0  0  0  0  0  0  0  0  0
  -22.3590   -9.1690   20.3810 C   0  0  0  0  0  3  0  0  0  0  0  0
  -23.1550  -10.2990   20.1330 C   0  0  0  0  0  3  0  0  0  0  0  0
  -21.9050   -7.1450   21.5190 O   0  0  0  0  0  0  0  0  0  0  0  0
  -21.7990   -6.4850   22.7180 C   0  0  0  0  0  0  0  0  0  0  0  0
  -21.3970   -7.1470   23.8990 C   0  0  0  0  0  3  0  0  0  0  0  0
  -21.2320   -6.4180   25.0940 C   0  0  0  0  0  3  0  0  0  0  0  0
  -21.4600   -5.0280   25.1070 C   0  0  0  0  0  0  0  0  0  0  0  0
  -21.8560   -4.3670   23.9320 C   0  0  0  0  0  3  0  0  0  0  0  0
  -22.0220   -5.0940   22.7390 C   0  0  0  0  0  0  0  0  0  0  0  0
  -22.3830   -4.4480   21.6040 F   0  0  0  0  0  0  0  0  0  0  0  0
  -21.2960   -4.3260   26.2530 F   0  0  0  0  0  0  0  0  0  0  0  0
  -23.4270  -13.6890   20.9430 C   0  0  0  0  0  0  0  0  0  0  0  0
  -22.7000  -13.0790   21.8740 N   0  0  0  0  0  0  0  0  0  0  0  0
  -23.0310  -14.7210   20.4040 O   0  0  0  0  0  0  0  0  0  0  0  0
  -23.0330  -12.2460   22.3360 H   0  0  0  0  0  0  0  0  0  0  0  0
  -21.7990  -13.4560   22.1330 H   0  0  0  0  0  0  0  0  0  0  0  0
  -26.1260  -15.1390   19.9570 N   0  0  0  0  0  0  0  0  0  0  0  0
  -25.4170  -15.8530   20.0910 H   0  0  0  0  0  0  0  0  0  0  0  0
  -27.0000  -15.5060   19.5980 H   0  0  0  0  0  0  0  0  0  0  0  0
  -27.7060  -23.8790   21.5870 C   0  0  0  0  0  2  0  0  0  0  0  0
  -28.9650  -24.7560   21.7320 C   0  0  0  0  0  2  0  0  0  0  0  0
  -28.6700  -26.2650   21.6490 C   0  0  0  0  0  2  0  0  0  0  0  0
  -28.2460  -26.6160   20.3300 O   0  0  0  0  0  0  0  0  0  0  0  0
  -24.5210  -31.8950   23.2810 C   0  0  0  0  0  0  0  0  0  0  0  0
  -27.1130  -27.3860   20.3040 C   0  0  0  0  0  0  0  0  0  0  0  0
  -23.2910  -30.4630   21.6770 C   0  0  0  0  0  3  0  0  0  0  0  0
  -24.7270  -28.8810   20.2810 C   0  0  0  0  0  0  0  0  0  0  0  0
  -25.8120  -30.8130   21.4460 C   0  0  0  0  0  2  0  0  0  0  0  0
  -25.8870  -29.4240   20.8510 C   0  0  0  0  0  0  0  0  0  0  0  0
  -27.0830  -28.6800   20.8700 C   0  0  0  0  0  3  0  0  0  0  0  0
  -25.9490  -26.8570   19.7160 C   0  0  0  0  0  3  0  0  0  0  0  0
  -24.7500  -27.5940   19.7160 C   0  0  0  0  0  3  0  0  0  0  0  0
  -23.4840  -29.7410   20.3150 C   0  0  0  0  0  2  0  0  0  0  0  0
  -24.5600  -31.0720   22.1940 N   0  0  0  0  0  0  0  0  0  0  0  0
  -23.4470  -32.1890   23.8220 O   0  0  0  0  0  0  0  0  0  0  0  0
  -22.6390  -29.4720   22.6680 C   0  0  0  0  0  0  0  0  0  0  0  0
  -21.3170  -29.2800   22.5330 N   0  0  0  0  0  0  0  0  0  0  0  0
  -23.3180  -28.8750   23.5080 O   0  0  0  0  0  0  0  0  0  0  0  0
  -20.8340  -29.8070   21.8190 H   0  0  0  0  0  0  0  0  0  0  0  0
  -17.9480  -28.0710   23.0110 C   0  0  0  0  0  0  0  0  0  0  0  0
  -20.4950  -28.3670   23.3260 C   0  0  0  0  0  3  0  0  0  0  0  0
  -20.6250  -26.9160   22.8100 C   0  0  0  0  0  2  0  0  0  0  0  0
  -19.5480  -26.5390   21.7870 C   0  0  0  0  0  2  0  0  0  0  0  0
  -18.1530  -26.6960   22.3970 C   0  0  0  0  0  2  0  0  0  0  0  0
  -19.0490  -28.8610   23.4340 C   0  0  0  0  0  0  0  0  0  0  0  0
  -18.8080  -30.1450   23.9680 C   0  0  0  0  0  3  0  0  0  0  0  0
  -17.4960  -30.6410   24.0850 C   0  0  0  0  0  3  0  0  0  0  0  0
  -16.4070  -29.8480   23.6820 C   0  0  0  0  0  3  0  0  0  0  0  0
  -16.6340  -28.5650   23.1520 C   0  0  0  0  0  3  0  0  0  0  0  0
  -25.8160  -32.5270   23.8810 C   0  0  0  0  0  3  0  0  0  0  0  0
  -25.5210  -33.9330   24.1840 N   0  0  0  0  0  0  0  0  0  0  0  0
  -25.8680  -34.9670   23.4060 C   0  0  0  0  0  0  0  0  0  0  0  0
  -26.5430  -34.8370   22.3800 O   0  0  0  0  0  0  0  0  0  0  0  0
  -24.9200  -34.1100   24.9760 H   0  0  0  0  0  0  0  0  0  0  0  0
  -24.1630  -36.7710   23.0000 C   0  0  0  0  0  1  0  0  0  0  0  0
  -25.3900  -36.3690   23.8320 C   0  0  0  0  0  3  0  0  0  0  0  0
  -27.5270  -37.2420   24.6670 C   0  0  0  0  0  1  0  0  0  0  0  0
  -26.4360  -37.4080   23.7100 N   0  0  0  0  0  0  0  0  0  0  0  0
  -26.0390  -38.3340   23.8410 H   0  0  0  0  0  0  0  0  0  0  0  0
  -26.3380  -31.7760   25.1640 C   0  0  1  0  0  0  0  0  0  0  0  0
  -25.2490  -31.5630   26.2420 C   0  0  0  0  0  1  0  0  0  0  0  0
  -26.9100  -30.3890   24.7850 C   0  0  0  0  0  1  0  0  0  0  0  0
  -27.4970  -32.5730   25.8070 C   0  0  0  0  0  1  0  0  0  0  0  0
  1  5  1  0
  1  2  1  0
  2  4  1  0
  3  1  2  0
  6  5  1  0
  6  7  1  0
  7  8  1  0
  9  8  1  0
 10 16  1  0
 10 18  1  0
 11 16  1  0
 12 13  1  0
 12 11  1  0
 14 13  1  0
 14 23  1  0
 14 15  1  0
 16 15  1  0
 17 10  2  0
 18  9  1  0
 18 19  1  0
 20 21  2  0
 21 40  1  0
 22 21  1  0
 22 25  1  0
 23 20  1  0
 23 24  1  0
 24 22  2  0
 25 26  1  0
 26 27  2  0
 28 31  1  0
 28 27  1  0
 29 28  2  0
 30 29  1  0
 30 25  2  0
 31 32  1  0
 32 37  2  0
 32 33  1  0
 33 34  2  0
 34 35  1  0
 35 39  1  0
 36 35  2  0
 37 36  1  0
 38 37  1  0
 40 41  1  0
 41 44  1  0
 41 43  1  0
 42 40  2  0
 45 46  1  0
 45 20  1  0
 47 45  1  0
 48  2  1  0
 48 49  1  0
 50 49  1  0
 51 50  1  0
 52 63  2  0
 53 51  1  0
 53 58  1  0
 54 62  1  0
 54 64  1  0
 55 61  1  0
 55 57  1  0
 56 62  1  0
 57 58  2  0
 57 56  1  0
 59 60  1  0
 59 53  2  0
 60 55  2  0
 61 54  1  0
 62 52  1  0
 64 66  2  0
 65 64  1  0
 67 65  1  0
 68 77  2  0
 68 73  1  0
 69 65  1  0
 69 73  1  0
 70 69  1  0
 71 72  1  0
 71 70  1  0
 72 68  1  0
 73 74  2  0
 74 75  1  0
 76 75  2  0
 77 76  1  0
 78 52  1  0
 78 79  1  0
 78 88  1  0
 79 82  1  0
 80 84  1  0
 80 79  1  0
 81 80  2  0
 84 83  1  0
 86 84  1  0
 86 87  1  0
 86 85  1  0
 88 91  1  1
 88 89  1  0
 90 88  1  0
M  ISO  4  10 100  18 100  50 101  51 101
M  END
>  <TORSDO>  (75) 
F 24

>  <SCORE>  (75) 
-11.755

>  <name>  (75) 
75

>  <ligand_id>  (75) 
75

>  <original_smiles>  (75) 
[H]c1c([H])c([H])c2c(c1[H])C([H])([H])C([H])([H])C([H])([H])C2([H])N([H])C(=O)C1([H])N(C(=O)C([H])(N([H])C(=O)C([H])(N([H])C([H])([H])[H])C([H])([H])[H])C(C([H])([H])[H])(C([H])([H])[H])C([H])([H])[H])C([H])([H])c2c([H])c(OC([H])([H])C([H])([H])C([H])([H])N([H])C(=O)C([H])([H])C([H])([H])C([H])([H])C([H])([H])C([H])([H])N([H])C(=O)N3C([H])([H])C([H])([H])C([H])([H])C([H])(n4nc(-c5c([H])c([H])c(Oc6c([H])c([H])c(F)c([H])c6F)c([H])c5[H])c(C(=O)N([H])[H])c4N([H])[H])C3([H])[H])c([H])c([H])c2C1([H])[H]

>  <smiles>  (75) 
[H]c1c([H])c([H])c2c(c1[H])C([H])([H])C([H])([H])C([H])([H])C2([H])N([H])C(=O)C1([H])N(C(=O)C([H])(N([H])C(=O)C([H])(N([H])C([H])([H])[H])C([H])([H])[H])C(C([H])([H])[H])(C([H])([H])[H])C([H])([H])[H])C([H])([H])c2c([H])c(OC([H])([H])C([H])([H])C([H])([H])N([H])C(=O)C([H])([H])C([H])([H])C([H])([H])C([H])([H])C([H])([H])N([H])C(=O)N3C([H])([H])C([H])([H])C([H])([H])C([H])(n4nc(-c5c([H])c([H])c(Oc6c([H])c([H])c(F)c([H])c6F)c([H])c5[H])c(C(=O)N([H])[H])c4N([H])[H])C3([H])[H])c([H])c([H])c2C1([H])[H]

$$$$
76:0:0
     RDKit          3D

 90 97  0  0  1  0  0  0  0  0999 V2000
  -27.8060  -22.7890   22.0570 C   0  0  0  0  0  2  0  0  0  0  0  0
  -28.1210  -23.6690   20.9800 O   0  0  0  0  0  0  0  0  0  0  0  0
  -28.3570  -25.0040   21.4180 C   0  0  0  0  0  2  0  0  0  0  0  0
  -29.0330  -25.8100   20.2920 C   0  0  0  0  0  2  0  0  0  0  0  0
  -28.9770  -27.2200   20.5330 O   0  0  0  0  0  0  0  0  0  0  0  0
  -24.8130  -32.1180   23.5430 C   0  0  0  0  0  0  0  0  0  0  0  0
  -27.7520  -27.8490   20.4980 C   0  0  0  0  0  0  0  0  0  0  0  0
  -23.7220  -30.6820   21.8480 C   0  0  0  0  0  3  0  0  0  0  0  0
  -25.2850  -29.2330   20.4560 C   0  0  0  0  0  0  0  0  0  0  0  0
  -26.2290  -31.1650   21.7290 C   0  0  0  0  0  2  0  0  0  0  0  0
  -26.3990  -29.8060   21.0820 C   0  0  0  0  0  0  0  0  0  0  0  0
  -27.6340  -29.1210   21.0980 C   0  0  0  0  0  3  0  0  0  0  0  0
  -26.6140  -27.2830   19.8740 C   0  0  0  0  0  3  0  0  0  0  0  0
  -25.3870  -27.9680   19.8540 C   0  0  0  0  0  3  0  0  0  0  0  0
  -24.0040  -30.0320   20.4680 C   0  0  0  0  0  2  0  0  0  0  0  0
  -24.9370  -31.3350   22.4330 N   0  0  0  0  0  0  0  0  0  0  0  0
  -23.7050  -32.3340   24.0530 O   0  0  0  0  0  0  0  0  0  0  0  0
  -23.0900  -29.6210   22.7760 C   0  0  0  0  0  0  0  0  0  0  0  0
  -21.7860  -29.3620   22.5830 N   0  0  0  0  0  0  0  0  0  0  0  0
  -23.7700  -29.0330   23.6190 O   0  0  0  0  0  0  0  0  0  0  0  0
  -21.2950  -29.8870   21.8700 H   0  0  0  0  0  0  0  0  0  0  0  0
  -18.4720  -27.9650   22.9140 C   0  0  0  0  0  0  0  0  0  0  0  0
  -20.9920  -28.3730   23.3120 C   0  0  0  0  0  3  0  0  0  0  0  0
  -21.2090  -26.9500   22.7440 C   0  0  0  0  0  2  0  0  0  0  0  0
  -20.1790  -26.5620   21.6760 C   0  0  0  0  0  2  0  0  0  0  0  0
  -18.7620  -26.6280   22.2540 C   0  0  0  0  0  2  0  0  0  0  0  0
  -19.5210  -28.7900   23.3990 C   0  0  0  0  0  0  0  0  0  0  0  0
  -19.2030  -30.0400   23.9710 C   0  0  0  0  0  3  0  0  0  0  0  0
  -17.8650  -30.4650   24.0730 C   0  0  0  0  0  3  0  0  0  0  0  0
  -16.8290  -29.6370   23.6090 C   0  0  0  0  0  3  0  0  0  0  0  0
  -17.1330  -28.3910   23.0320 C   0  0  0  0  0  3  0  0  0  0  0  0
  -26.0510  -32.7960   24.2080 C   0  0  0  0  0  3  0  0  0  0  0  0
  -26.4950  -32.0970   25.5500 C   0  0  1  0  0  0  0  0  0  0  0  0
  -25.3360  -31.8630   26.5460 C   0  0  0  0  0  1  0  0  0  0  0  0
  -27.1490  -30.7280   25.2540 C   0  0  0  0  0  1  0  0  0  0  0  0
  -27.5660  -32.9570   26.2590 C   0  0  0  0  0  1  0  0  0  0  0  0
  -25.7090  -34.2050   24.4420 N   0  0  0  0  0  0  0  0  0  0  0  0
  -26.0740  -35.2180   23.6420 C   0  0  0  0  0  0  0  0  0  0  0  0
  -26.8020  -35.0650   22.6570 O   0  0  0  0  0  0  0  0  0  0  0  0
  -25.0670  -34.3930   25.1980 H   0  0  0  0  0  0  0  0  0  0  0  0
  -24.3440  -36.9560   23.0900 C   0  0  0  0  0  1  0  0  0  0  0  0
  -25.5440  -36.6220   23.9910 C   0  0  0  0  0  3  0  0  0  0  0  0
  -27.6240  -37.5810   24.8740 C   0  0  0  0  0  1  0  0  0  0  0  0
  -26.5690  -37.6810   23.8690 N   0  0  0  0  0  0  0  0  0  0  0  0
  -26.1450  -38.6010   23.9460 H   0  0  0  0  0  0  0  0  0  0  0  0
  -27.4930  -21.3830   21.5210 C   0  0  0  0  0  2  0  0  0  0  0  0
  -28.6650  -20.7680   20.9950 O   0  0  0  0  0  0  0  0  0  0  0  0
  -28.3670  -19.5800   20.2660 C   0  0  0  0  0  2  0  0  0  0  0  0
  -29.6620  -18.8370   19.8940 C   0  0  0  0  0  2  0  0  0  0  0  0
  -30.0630  -17.9670   20.9490 O   0  0  0  0  0  0  0  0  0  0  0  0
  -31.4690  -17.8850   21.1710 C   0  0  0  0  0  2  0  0  0  0  0  0
  -32.1640  -16.8510   20.2700 C   0  0  0  0  0  2  0  0  0  0  0  0
  -31.9300  -14.4640   19.7030 C   0  0  0  0  0  0  0  0  0  0  0  0
  -31.3700  -12.1870   18.9420 C   0  0  0  0  0  2  0  0  0  0  0  0
  -30.3890  -12.2580   17.7560 C   0  0  0  0  0  2  0  0  0  0  0  0
  -28.9350  -12.3150   18.2570 C   0  0  0  0  0  2  0  0  0  0  0  0
  -28.7260  -13.3820   19.3650 C   0  0  0  0  0  3  0  0  0  0  0  0
  -29.8210  -13.2870   20.4530 C   0  0  0  0  0  2  0  0  0  0  0  0
  -31.1380  -13.3620   19.7950 N   0  0  0  0  0  0  0  0  0  0  0  0
  -32.9520  -14.5110   19.0150 O   0  0  0  0  0  0  0  0  0  0  0  0
  -31.5220  -15.5410   20.3790 N   0  0  0  0  0  0  0  0  0  0  0  0
  -30.6870  -15.4770   20.9440 H   0  0  0  0  0  0  0  0  0  0  0  0
  -26.5230  -14.3100   20.3180 C   0  0  0  0  0  0  0  0  0  0  0  0
  -25.3730  -13.6950   20.7340 C   0  0  0  0  0  0  0  0  0  0  0  0
  -25.5970  -12.2930   20.5790 C   0  0  0  0  0  0  0  0  0  0  0  0
  -27.3840  -13.2930   19.9390 N   0  0  0  0  0  0  0  0  0  0  0  0
  -26.8320  -12.0680   20.1490 N   0  0  0  0  0  0  0  0  0  0  0  0
  -24.6860  -11.1530   20.7540 C   0  0  0  0  0  0  0  0  0  0  0  0
  -25.0150  -10.0650   21.5910 C   0  0  0  0  0  3  0  0  0  0  0  0
  -24.1140   -8.9910   21.7570 C   0  0  0  0  0  3  0  0  0  0  0  0
  -22.8680   -9.0000   21.0880 C   0  0  0  0  0  0  0  0  0  0  0  0
  -22.5550  -10.0750   20.2360 C   0  0  0  0  0  3  0  0  0  0  0  0
  -23.4560  -11.1380   20.0660 C   0  0  0  0  0  3  0  0  0  0  0  0
  -21.9430   -7.9870   21.1680 O   0  0  0  0  0  0  0  0  0  0  0  0
  -21.8340   -7.1990   22.2860 C   0  0  0  0  0  0  0  0  0  0  0  0
  -21.5870   -7.7470   23.5640 C   0  0  0  0  0  3  0  0  0  0  0  0
  -21.4110   -6.8960   24.6730 C   0  0  0  0  0  3  0  0  0  0  0  0
  -21.4730   -5.4990   24.5060 C   0  0  0  0  0  0  0  0  0  0  0  0
  -21.7140   -4.9520   23.2340 C   0  0  0  0  0  3  0  0  0  0  0  0
  -21.8900   -5.8000   22.1260 C   0  0  0  0  0  0  0  0  0  0  0  0
  -22.1010   -5.2670   20.8980 F   0  0  0  0  0  0  0  0  0  0  0  0
  -21.2960   -4.6800   25.5700 F   0  0  0  0  0  0  0  0  0  0  0  0
  -24.1040  -14.3690   21.1660 C   0  0  0  0  0  0  0  0  0  0  0  0
  -23.3490  -13.7420   22.0620 N   0  0  0  0  0  0  0  0  0  0  0  0
  -23.7960  -15.4850   20.7480 O   0  0  0  0  0  0  0  0  0  0  0  0
  -23.6150  -12.8390   22.4260 H   0  0  0  0  0  0  0  0  0  0  0  0
  -22.4980  -14.1770   22.3890 H   0  0  0  0  0  0  0  0  0  0  0  0
  -26.9010  -15.6450   20.2170 N   0  0  0  0  0  0  0  0  0  0  0  0
  -26.2750  -16.4070   20.4510 H   0  0  0  0  0  0  0  0  0  0  0  0
  -27.7960  -15.9620   19.8690 H   0  0  0  0  0  0  0  0  0  0  0  0
  2  3  1  0
  2  1  1  0
  4  5  1  0
  4  3  1  0
  6 17  2  0
  7  5  1  0
  7 12  1  0
  8 16  1  0
  8 18  1  0
  9 15  1  0
  9 11  1  0
 10 16  1  0
 11 12  2  0
 11 10  1  0
 13  7  2  0
 14 13  1  0
 14  9  2  0
 15  8  1  0
 16  6  1  0
 18 20  2  0
 19 18  1  0
 21 19  1  0
 22 31  2  0
 22 27  1  0
 23 19  1  0
 23 27  1  0
 24 23  1  0
 25 26  1  0
 25 24  1  0
 26 22  1  0
 27 28  2  0
 28 29  1  0
 30 29  2  0
 31 30  1  0
 32  6  1  0
 32 37  1  0
 32 33  1  0
 33 36  1  1
 33 34  1  0
 35 33  1  0
 37 40  1  0
 38 42  1  0
 38 37  1  0
 39 38  2  0
 42 41  1  0
 44 45  1  0
 44 42  1  0
 44 43  1  0
 46  1  1  0
 47 46  1  0
 48 47  1  0
 49 48  1  0
 49 50  1  0
 50 51  1  0
 52 61  1  0
 52 51  1  0
 53 59  1  0
 53 61  1  0
 54 59  1  0
 55 56  1  0
 55 54  1  0
 57 56  1  0
 57 66  1  0
 57 58  1  0
 59 58  1  0
 60 53  2  0
 61 62  1  0
 63 64  2  0
 64 83  1  0
 65 64  1  0
 65 68  1  0
 66 67  1  0
 66 63  1  0
 67 65  2  0
 68 69  1  0
 69 70  2  0
 71 74  1  0
 71 70  1  0
 72 71  2  0
 73 72  1  0
 73 68  2  0
 74 75  1  0
 75 76  1  0
 76 77  2  0
 78 77  1  0
 78 82  1  0
 79 78  2  0
 80 75  2  0
 80 79  1  0
 81 80  1  0
 83 84  1  0
 84 87  1  0
 84 86  1  0
 85 83  2  0
 88 63  1  0
 88 89  1  0
 90 88  1  0
M  ISO  4   4 101   5 101  53 100  61 100
M  END
>  <TORSDO>  (76) 
F 26

>  <SCORE>  (76) 
-9.736

>  <name>  (76) 
76

>  <ligand_id>  (76) 
76

>  <original_smiles>  (76) 
[H]c1c([H])c([H])c2c(c1[H])C([H])([H])C([H])([H])C([H])([H])C2([H])N([H])C(=O)C1([H])N(C(=O)C([H])(N([H])C(=O)C([H])(N([H])C([H])([H])[H])C([H])([H])[H])C(C([H])([H])[H])(C([H])([H])[H])C([H])([H])[H])C([H])([H])c2c([H])c(OC([H])([H])C([H])([H])OC([H])([H])C([H])([H])OC([H])([H])C([H])([H])OC([H])([H])C([H])([H])N([H])C(=O)N3C([H])([H])C([H])([H])C([H])([H])C([H])(n4nc(-c5c([H])c([H])c(Oc6c([H])c([H])c(F)c([H])c6F)c([H])c5[H])c(C(=O)N([H])[H])c4N([H])[H])C3([H])[H])c([H])c([H])c2C1([H])[H]

>  <smiles>  (76) 
[H]c1c([H])c([H])c2c(c1[H])C([H])([H])C([H])([H])C([H])([H])C2([H])N([H])C(=O)C1([H])N(C(=O)C([H])(N([H])C(=O)C([H])(N([H])C([H])([H])[H])C([H])([H])[H])C(C([H])([H])[H])(C([H])([H])[H])C([H])([H])[H])C([H])([H])c2c([H])c(OC([H])([H])C([H])([H])OC([H])([H])C([H])([H])OC([H])([H])C([H])([H])OC([H])([H])C([H])([H])N([H])C(=O)N3C([H])([H])C([H])([H])C([H])([H])C([H])(n4nc(-c5c([H])c([H])c(Oc6c([H])c([H])c(F)c([H])c6F)c([H])c5[H])c(C(=O)N([H])[H])c4N([H])[H])C3([H])[H])c([H])c([H])c2C1([H])[H]

$$$$
77:0:0
     RDKit          3D

 90 97  0  0  1  0  0  0  0  0999 V2000
  -28.2020  -21.9040   19.6050 C   0  0  0  0  0  0  0  0  0  0  0  0
  -27.8830  -22.9620   20.3550 N   0  0  0  0  0  0  0  0  0  0  0  0
  -28.9890  -21.9650   18.6570 O   0  0  0  0  0  0  0  0  0  0  0  0
  -27.2940  -22.7860   21.1610 H   0  0  0  0  0  0  0  0  0  0  0  0
  -27.4120  -20.6250   19.8630 C   0  0  0  0  0  2  0  0  0  0  0  0
  -28.0940  -19.6140   20.7940 C   0  0  0  0  0  2  0  0  0  0  0  0
  -29.3200  -18.8960   20.1930 C   0  0  0  0  0  2  0  0  0  0  0  0
  -29.5920  -17.5760   20.9250 C   0  0  0  0  0  2  0  0  0  0  0  0
  -30.7070  -16.7310   20.2990 C   0  0  0  0  0  2  0  0  0  0  0  0
  -31.0830  -14.3050   19.9870 C   0  0  0  0  0  0  0  0  0  0  0  0
  -30.6660  -12.1260   18.9290 C   0  0  0  0  0  2  0  0  0  0  0  0
  -29.6770  -12.3370   17.7640 C   0  0  0  0  0  2  0  0  0  0  0  0
  -28.2280  -12.2240   18.2740 C   0  0  0  0  0  2  0  0  0  0  0  0
  -27.9660  -13.1070   19.5210 C   0  0  0  0  0  3  0  0  0  0  0  0
  -29.0710  -12.9090   20.5870 C   0  0  0  0  0  2  0  0  0  0  0  0
  -30.3790  -13.1450   19.9480 N   0  0  0  0  0  0  0  0  0  0  0  0
  -32.1460  -14.4860   19.3840 O   0  0  0  0  0  0  0  0  0  0  0  0
  -30.4610  -15.3210   20.5890 N   0  0  0  0  0  0  0  0  0  0  0  0
  -29.6080  -15.0960   21.0770 H   0  0  0  0  0  0  0  0  0  0  0  0
  -25.6190  -13.7760   20.3460 C   0  0  0  0  0  0  0  0  0  0  0  0
  -24.5550  -13.0280   20.7740 C   0  0  0  0  0  0  0  0  0  0  0  0
  -24.9800  -11.6660   20.7190 C   0  0  0  0  0  0  0  0  0  0  0  0
  -26.6320  -12.8680   20.0690 N   0  0  0  0  0  0  0  0  0  0  0  0
  -26.2520  -11.5940   20.3470 N   0  0  0  0  0  0  0  0  0  0  0  0
  -24.2340  -10.4220   20.9520 C   0  0  0  0  0  0  0  0  0  0  0  0
  -24.6320   -9.5000   21.9460 C   0  0  0  0  0  3  0  0  0  0  0  0
  -23.8940   -8.3180   22.1630 C   0  0  0  0  0  3  0  0  0  0  0  0
  -22.7400   -8.0490   21.3880 C   0  0  0  0  0  0  0  0  0  0  0  0
  -22.3630   -8.9570   20.3830 C   0  0  0  0  0  3  0  0  0  0  0  0
  -23.1030  -10.1330   20.1640 C   0  0  0  0  0  3  0  0  0  0  0  0
  -21.9750   -6.9150   21.5130 O   0  0  0  0  0  0  0  0  0  0  0  0
  -21.8080   -6.2880   22.7210 C   0  0  0  0  0  0  0  0  0  0  0  0
  -21.2450   -6.9490   23.8320 C   0  0  0  0  0  3  0  0  0  0  0  0
  -21.0270   -6.2460   25.0330 C   0  0  0  0  0  3  0  0  0  0  0  0
  -21.3660   -4.8810   25.1220 C   0  0  0  0  0  0  0  0  0  0  0  0
  -21.9250   -4.2210   24.0130 C   0  0  0  0  0  3  0  0  0  0  0  0
  -22.1420   -4.9220   22.8150 C   0  0  0  0  0  0  0  0  0  0  0  0
  -22.6610   -4.2750   21.7420 F   0  0  0  0  0  0  0  0  0  0  0  0
  -21.1510   -4.2020   26.2730 F   0  0  0  0  0  0  0  0  0  0  0  0
  -23.1860  -13.5370   21.1250 C   0  0  0  0  0  0  0  0  0  0  0  0
  -22.5020  -12.8600   22.0410 N   0  0  0  0  0  0  0  0  0  0  0  0
  -22.7350  -14.5640   20.6220 O   0  0  0  0  0  0  0  0  0  0  0  0
  -22.8830  -12.0290   22.4650 H   0  0  0  0  0  0  0  0  0  0  0  0
  -21.5860  -13.1760   22.3220 H   0  0  0  0  0  0  0  0  0  0  0  0
  -25.8040  -15.1400   20.1480 N   0  0  0  0  0  0  0  0  0  0  0  0
  -25.0480  -15.8070   20.2630 H   0  0  0  0  0  0  0  0  0  0  0  0
  -26.6320  -15.5460   19.7300 H   0  0  0  0  0  0  0  0  0  0  0  0
  -27.8120  -24.3080   19.7990 C   0  0  0  0  0  2  0  0  0  0  0  0
  -28.3110  -25.4160   20.7520 C   0  0  0  0  0  2  0  0  0  0  0  0
  -28.4010  -26.7180   20.1470 O   0  0  0  0  0  0  0  0  0  0  0  0
  -24.5950  -31.8650   23.2800 C   0  0  0  0  0  0  0  0  0  0  0  0
  -27.2440  -27.4670   20.1470 C   0  0  0  0  0  0  0  0  0  0  0  0
  -23.4020  -30.4960   21.6030 C   0  0  0  0  0  3  0  0  0  0  0  0
  -24.8640  -28.9920   20.1570 C   0  0  0  0  0  0  0  0  0  0  0  0
  -25.9320  -30.8470   21.4400 C   0  0  0  0  0  2  0  0  0  0  0  0
  -26.0180  -29.4880   20.7800 C   0  0  0  0  0  0  0  0  0  0  0  0
  -27.2100  -28.7270   20.7850 C   0  0  0  0  0  3  0  0  0  0  0  0
  -26.0900  -27.0190   19.4710 C   0  0  0  0  0  3  0  0  0  0  0  0
  -24.8940  -27.7530   19.5060 C   0  0  0  0  0  3  0  0  0  0  0  0
  -23.6240  -29.8530   20.2090 C   0  0  0  0  0  2  0  0  0  0  0  0
  -24.6610  -31.0810   22.1670 N   0  0  0  0  0  0  0  0  0  0  0  0
  -23.5090  -32.1320   23.8120 O   0  0  0  0  0  0  0  0  0  0  0  0
  -22.7440  -29.4520   22.5380 C   0  0  0  0  0  0  0  0  0  0  0  0
  -21.4280  -29.2410   22.3680 N   0  0  0  0  0  0  0  0  0  0  0  0
  -23.4180  -28.8330   23.3660 O   0  0  0  0  0  0  0  0  0  0  0  0
  -20.9420  -29.7910   21.6730 H   0  0  0  0  0  0  0  0  0  0  0  0
  -18.0690  -27.9820   22.7560 C   0  0  0  0  0  0  0  0  0  0  0  0
  -20.6080  -28.2890   23.1170 C   0  0  0  0  0  3  0  0  0  0  0  0
  -20.7620  -26.8570   22.5550 C   0  0  0  0  0  2  0  0  0  0  0  0
  -19.7020  -26.5080   21.5050 C   0  0  0  0  0  2  0  0  0  0  0  0
  -18.2970  -26.6310   22.1010 C   0  0  0  0  0  2  0  0  0  0  0  0
  -19.1550  -28.7660   23.2220 C   0  0  0  0  0  0  0  0  0  0  0  0
  -18.8930  -30.0290   23.7970 C   0  0  0  0  0  3  0  0  0  0  0  0
  -17.5720  -30.5050   23.9190 C   0  0  0  0  0  3  0  0  0  0  0  0
  -16.4990  -29.7130   23.4750 C   0  0  0  0  0  3  0  0  0  0  0  0
  -16.7490  -28.4570   22.8980 C   0  0  0  0  0  3  0  0  0  0  0  0
  -25.8760  -32.4760   23.9220 C   0  0  0  0  0  3  0  0  0  0  0  0
  -25.5830  -33.8810   24.2400 N   0  0  0  0  0  0  0  0  0  0  0  0
  -25.9490  -34.9220   23.4810 C   0  0  0  0  0  0  0  0  0  0  0  0
  -26.6450  -34.8010   22.4690 O   0  0  0  0  0  0  0  0  0  0  0  0
  -24.9640  -34.0550   25.0200 H   0  0  0  0  0  0  0  0  0  0  0  0
  -24.2650  -36.7400   23.0610 C   0  0  0  0  0  1  0  0  0  0  0  0
  -25.4700  -36.3180   23.9160 C   0  0  0  0  0  3  0  0  0  0  0  0
  -27.5850  -37.1740   24.8230 C   0  0  0  0  0  1  0  0  0  0  0  0
  -26.5220  -37.3520   23.8360 N   0  0  0  0  0  0  0  0  0  0  0  0
  -26.1260  -38.2800   23.9610 H   0  0  0  0  0  0  0  0  0  0  0  0
  -26.3610  -31.7020   25.2080 C   0  0  1  0  0  0  0  0  0  0  0  0
  -25.2490  -31.4720   26.2560 C   0  0  0  0  0  1  0  0  0  0  0  0
  -26.9390  -30.3200   24.8270 C   0  0  0  0  0  1  0  0  0  0  0  0
  -27.5050  -32.4880   25.8920 C   0  0  0  0  0  1  0  0  0  0  0  0
  1  5  1  0
  1  2  1  0
  2  4  1  0
  3  1  2  0
  5  6  1  0
  7  6  1  0
  7  8  1  0
  9 18  1  0
  9  8  1  0
 10 18  1  0
 11 16  1  0
 12 13  1  0
 12 11  1  0
 14 13  1  0
 14 23  1  0
 14 15  1  0
 16 10  1  0
 16 15  1  0
 17 10  2  0
 18 19  1  0
 20 21  2  0
 21 40  1  0
 22 21  1  0
 22 25  1  0
 23 20  1  0
 23 24  1  0
 24 22  2  0
 25 26  1  0
 26 27  2  0
 28 31  1  0
 28 27  1  0
 29 28  2  0
 30 29  1  0
 30 25  2  0
 31 32  1  0
 32 37  2  0
 32 33  1  0
 33 34  2  0
 34 35  1  0
 35 39  1  0
 36 35  2  0
 37 36  1  0
 38 37  1  0
 40 41  1  0
 41 44  1  0
 41 43  1  0
 42 40  2  0
 45 46  1  0
 45 20  1  0
 47 45  1  0
 48  2  1  0
 48 49  1  0
 50 49  1  0
 51 62  2  0
 52 50  1  0
 52 57  1  0
 53 61  1  0
 53 63  1  0
 54 60  1  0
 54 56  1  0
 55 61  1  0
 56 57  2  0
 56 55  1  0
 58 59  1  0
 58 52  2  0
 59 54  2  0
 60 53  1  0
 61 51  1  0
 63 65  2  0
 64 63  1  0
 66 64  1  0
 67 76  2  0
 67 72  1  0
 68 64  1  0
 68 72  1  0
 69 68  1  0
 70 71  1  0
 70 69  1  0
 71 67  1  0
 72 73  2  0
 73 74  1  0
 75 74  2  0
 76 75  1  0
 77 51  1  0
 77 78  1  0
 77 87  1  0
 78 81  1  0
 79 83  1  0
 79 78  1  0
 80 79  2  0
 83 82  1  0
 85 83  1  0
 85 86  1  0
 85 84  1  0
 87 90  1  1
 87 88  1  0
 89 87  1  0
M  ISO  4  10 100  18 100  49 101  50 101
M  END
>  <TORSDO>  (77) 
F 23

>  <SCORE>  (77) 
-11.818

>  <name>  (77) 
77

>  <ligand_id>  (77) 
77

>  <original_smiles>  (77) 
[H]c1c([H])c([H])c2c(c1[H])C([H])([H])C([H])([H])C([H])([H])C2([H])N([H])C(=O)C1([H])N(C(=O)C([H])(N([H])C(=O)C([H])(N([H])C([H])([H])[H])C([H])([H])[H])C(C([H])([H])[H])(C([H])([H])[H])C([H])([H])[H])C([H])([H])c2c([H])c(OC([H])([H])C([H])([H])N([H])C(=O)C([H])([H])C([H])([H])C([H])([H])C([H])([H])C([H])([H])N([H])C(=O)N3C([H])([H])C([H])([H])C([H])([H])C([H])(n4nc(-c5c([H])c([H])c(Oc6c([H])c([H])c(F)c([H])c6F)c([H])c5[H])c(C(=O)N([H])[H])c4N([H])[H])C3([H])[H])c([H])c([H])c2C1([H])[H]

>  <smiles>  (77) 
[H]c1c([H])c([H])c2c(c1[H])C([H])([H])C([H])([H])C([H])([H])C2([H])N([H])C(=O)C1([H])N(C(=O)C([H])(N([H])C(=O)C([H])(N([H])C([H])([H])[H])C([H])([H])[H])C(C([H])([H])[H])(C([H])([H])[H])C([H])([H])[H])C([H])([H])c2c([H])c(OC([H])([H])C([H])([H])N([H])C(=O)C([H])([H])C([H])([H])C([H])([H])C([H])([H])C([H])([H])N([H])C(=O)N3C([H])([H])C([H])([H])C([H])([H])C([H])(n4nc(-c5c([H])c([H])c(Oc6c([H])c([H])c(F)c([H])c6F)c([H])c5[H])c(C(=O)N([H])[H])c4N([H])[H])C3([H])[H])c([H])c([H])c2C1([H])[H]

$$$$
78:0:0
     RDKit          3D

 86 93  0  0  1  0  0  0  0  0999 V2000
  -28.7250  -22.7500   20.5790 C   0  0  0  0  0  0  0  0  0  0  0  0
  -28.8410  -21.3510   20.0620 N   0  0  0  0  0  0  0  0  0  0  0  0
  -29.1550  -22.9050   21.7240 O   0  0  0  0  0  0  0  0  0  0  0  0
  -28.5310  -21.3120   19.0990 H   0  0  0  0  0  0  0  0  0  0  0  0
  -28.0220  -24.2200   19.8880 C   0  0  0  0  0  2  0  0  0  0  0  0
  -28.1810  -25.8160   20.3270 O   0  0  0  0  0  0  0  0  0  0  0  0
  -24.6460  -31.8650   23.1900 C   0  0  0  0  0  0  0  0  0  0  0  0
  -27.1910  -26.9380   20.2110 C   0  0  0  0  0  0  0  0  0  0  0  0
  -23.4510  -30.4600   21.5590 C   0  0  0  0  0  3  0  0  0  0  0  0
  -24.9000  -28.8410   20.1460 C   0  0  0  0  0  0  0  0  0  0  0  0
  -26.0200  -30.6560   21.4210 C   0  0  0  0  0  2  0  0  0  0  0  0
  -26.0860  -29.2400   20.7720 C   0  0  0  0  0  0  0  0  0  0  0  0
  -27.2230  -28.3080   20.7840 C   0  0  0  0  0  3  0  0  0  0  0  0
  -25.9790  -26.7040   19.5210 C   0  0  0  0  0  3  0  0  0  0  0  0
  -24.8730  -27.5950   19.4990 C   0  0  0  0  0  3  0  0  0  0  0  0
  -23.6830  -29.7660   20.1870 C   0  0  0  0  0  2  0  0  0  0  0  0
  -24.7280  -31.0220   22.1090 N   0  0  0  0  0  0  0  0  0  0  0  0
  -23.5560  -32.1610   23.7070 O   0  0  0  0  0  0  0  0  0  0  0  0
  -22.7510  -29.4750   22.5310 C   0  0  0  0  0  0  0  0  0  0  0  0
  -21.4200  -29.3200   22.4100 N   0  0  0  0  0  0  0  0  0  0  0  0
  -23.4130  -28.8500   23.3630 O   0  0  0  0  0  0  0  0  0  0  0  0
  -20.9380  -29.8750   21.7160 H   0  0  0  0  0  0  0  0  0  0  0  0
  -18.0300  -28.1280   22.9270 C   0  0  0  0  0  0  0  0  0  0  0  0
  -20.5920  -28.3910   23.1880 C   0  0  0  0  0  3  0  0  0  0  0  0
  -20.6890  -26.9540   22.6240 C   0  0  0  0  0  2  0  0  0  0  0  0
  -19.5860  -26.6270   21.6110 C   0  0  0  0  0  2  0  0  0  0  0  0
  -18.2040  -26.7760   22.2560 C   0  0  0  0  0  2  0  0  0  0  0  0
  -19.1510  -28.8920   23.3510 C   0  0  0  0  0  0  0  0  0  0  0  0
  -18.9320  -30.1550   23.9430 C   0  0  0  0  0  3  0  0  0  0  0  0
  -17.6260  -30.6550   24.1130 C   0  0  0  0  0  3  0  0  0  0  0  0
  -16.5220  -29.8880   23.7040 C   0  0  0  0  0  3  0  0  0  0  0  0
  -16.7240  -28.6260   23.1170 C   0  0  0  0  0  3  0  0  0  0  0  0
  -25.9170  -32.5090   23.8220 C   0  0  0  0  0  3  0  0  0  0  0  0
  -26.4230  -31.7460   25.1090 C   0  0  1  0  0  0  0  0  0  0  0  0
  -25.3230  -31.5200   26.1740 C   0  0  0  0  0  1  0  0  0  0  0  0
  -27.0050  -30.3630   24.7410 C   0  0  0  0  0  1  0  0  0  0  0  0
  -27.5730  -32.5420   25.7720 C   0  0  0  0  0  1  0  0  0  0  0  0
  -25.5980  -33.9090   24.1570 N   0  0  0  0  0  0  0  0  0  0  0  0
  -25.9300  -34.9720   23.4130 C   0  0  0  0  0  0  0  0  0  0  0  0
  -26.5990  -34.8790   22.3820 O   0  0  0  0  0  0  0  0  0  0  0  0
  -25.0020  -34.0540   24.9580 H   0  0  0  0  0  0  0  0  0  0  0  0
  -24.2010  -36.7750   23.0900 C   0  0  0  0  0  1  0  0  0  0  0  0
  -25.4470  -36.3590   23.8880 C   0  0  0  0  0  3  0  0  0  0  0  0
  -27.5870  -37.2400   24.7120 C   0  0  0  0  0  1  0  0  0  0  0  0
  -26.4790  -37.4140   23.7760 N   0  0  0  0  0  0  0  0  0  0  0  0
  -26.0740  -38.3320   23.9320 H   0  0  0  0  0  0  0  0  0  0  0  0
  -29.1200  -19.7980   20.6660 C   0  0  0  0  0  2  0  0  0  0  0  0
  -29.8280  -18.2610   19.9970 C   0  0  0  0  0  2  0  0  0  0  0  0
  -30.4160  -15.3400   20.2120 C   0  0  0  0  0  0  0  0  0  0  0  0
  -30.3850  -12.8860   19.3430 C   0  0  0  0  0  2  0  0  0  0  0  0
  -29.4590  -12.6810   18.1170 C   0  0  0  0  0  2  0  0  0  0  0  0
  -28.0130  -12.4050   18.5670 C   0  0  0  0  0  2  0  0  0  0  0  0
  -27.5720  -13.3620   19.7030 C   0  0  0  0  0  3  0  0  0  0  0  0
  -28.6280  -13.5140   20.8190 C   0  0  0  0  0  2  0  0  0  0  0  0
  -29.8530  -14.0280   20.1810 N   0  0  0  0  0  0  0  0  0  0  0  0
  -31.6220  -15.3370   19.9210 O   0  0  0  0  0  0  0  0  0  0  0  0
  -29.6630  -16.6220   20.3640 N   0  0  0  0  0  0  0  0  0  0  0  0
  -28.7150  -16.4170   20.6450 H   0  0  0  0  0  0  0  0  0  0  0  0
  -25.2070  -13.9120   20.4730 C   0  0  0  0  0  0  0  0  0  0  0  0
  -24.1500  -13.1320   20.8510 C   0  0  0  0  0  0  0  0  0  0  0  0
  -24.6210  -11.7830   20.8200 C   0  0  0  0  0  0  0  0  0  0  0  0
  -26.2500  -13.0390   20.2220 N   0  0  0  0  0  0  0  0  0  0  0  0
  -25.9100  -11.7530   20.5000 N   0  0  0  0  0  0  0  0  0  0  0  0
  -23.8980  -10.5200   21.0170 C   0  0  0  0  0  0  0  0  0  0  0  0
  -24.3420   -9.5490   21.9430 C   0  0  0  0  0  3  0  0  0  0  0  0
  -23.6160   -8.3540   22.1300 C   0  0  0  0  0  3  0  0  0  0  0  0
  -22.4320   -8.1180   21.3930 C   0  0  0  0  0  0  0  0  0  0  0  0
  -22.0070   -9.0770   20.4550 C   0  0  0  0  0  3  0  0  0  0  0  0
  -22.7330  -10.2640   20.2660 C   0  0  0  0  0  3  0  0  0  0  0  0
  -21.6760   -6.9750   21.4890 O   0  0  0  0  0  0  0  0  0  0  0  0
  -21.6500   -6.2250   22.6370 C   0  0  0  0  0  0  0  0  0  0  0  0
  -21.2600   -6.7740   23.8780 C   0  0  0  0  0  3  0  0  0  0  0  0
  -21.1810   -5.9500   25.0190 C   0  0  0  0  0  3  0  0  0  0  0  0
  -21.4810   -4.5790   24.9200 C   0  0  0  0  0  0  0  0  0  0  0  0
  -21.8640   -4.0290   23.6840 C   0  0  0  0  0  3  0  0  0  0  0  0
  -21.9440   -4.8490   22.5460 C   0  0  0  0  0  0  0  0  0  0  0  0
  -22.2930   -4.3090   21.3530 F   0  0  0  0  0  0  0  0  0  0  0  0
  -21.3980   -3.7860   26.0150 F   0  0  0  0  0  0  0  0  0  0  0  0
  -22.7530  -13.6070   21.1260 C   0  0  0  0  0  0  0  0  0  0  0  0
  -22.0320  -12.9140   22.0000 N   0  0  0  0  0  0  0  0  0  0  0  0
  -22.3120  -14.6280   20.6000 O   0  0  0  0  0  0  0  0  0  0  0  0
  -22.4040  -12.0890   22.4460 H   0  0  0  0  0  0  0  0  0  0  0  0
  -21.0950  -13.2140   22.2270 H   0  0  0  0  0  0  0  0  0  0  0  0
  -25.3620  -15.2830   20.2890 N   0  0  0  0  0  0  0  0  0  0  0  0
  -24.5880  -15.9300   20.3980 H   0  0  0  0  0  0  0  0  0  0  0  0
  -26.1930  -15.7200   19.9130 H   0  0  0  0  0  0  0  0  0  0  0  0
  1  3  2  0
  2  1  1  0
  2 47  1  0
  4  2  1  0
  5  6  1  0
  5  1  1  0
  7 18  2  0
  8  6  1  0
  8 13  1  0
  9 17  1  0
  9 19  1  0
 10 16  1  0
 10 12  1  0
 11 17  1  0
 12 13  2  0
 12 11  1  0
 14  8  2  0
 15 14  1  0
 15 10  2  0
 16  9  1  0
 17  7  1  0
 19 21  2  0
 20 19  1  0
 22 20  1  0
 23 32  2  0
 23 28  1  0
 24 20  1  0
 24 28  1  0
 25 24  1  0
 26 27  1  0
 26 25  1  0
 27 23  1  0
 28 29  2  0
 29 30  1  0
 31 30  2  0
 32 31  1  0
 33  7  1  0
 33 38  1  0
 33 34  1  0
 34 37  1  1
 34 35  1  0
 36 34  1  0
 38 41  1  0
 39 43  1  0
 39 38  1  0
 40 39  2  0
 43 42  1  0
 45 43  1  0
 45 46  1  0
 45 44  1  0
 48 57  1  0
 48 47  1  0
 49 57  1  0
 50 55  1  0
 51 52  1  0
 51 50  1  0
 53 52  1  0
 53 62  1  0
 53 54  1  0
 55 49  1  0
 55 54  1  0
 56 49  2  0
 57 58  1  0
 59 60  2  0
 60 79  1  0
 61 60  1  0
 61 64  1  0
 62 59  1  0
 62 63  1  0
 63 61  2  0
 64 65  1  0
 65 66  2  0
 67 70  1  0
 67 66  1  0
 68 67  2  0
 69 68  1  0
 69 64  2  0
 70 71  1  0
 71 72  1  0
 72 73  2  0
 74 73  1  0
 74 78  1  0
 75 74  2  0
 76 71  2  0
 76 75  1  0
 77 76  1  0
 79 80  1  0
 80 83  1  0
 80 82  1  0
 81 79  2  0
 84 85  1  0
 84 59  1  0
 86 84  1  0
M  ISO  4   5 101   6 101  49 100  57 100
M  END
>  <TORSDO>  (78) 
F 19

>  <SCORE>  (78) 
-16.442

>  <name>  (78) 
78

>  <ligand_id>  (78) 
78

>  <original_smiles>  (78) 
[H]c1c([H])c([H])c2c(c1[H])C([H])([H])C([H])([H])C([H])([H])C2([H])N([H])C(=O)C1([H])N(C(=O)C([H])(N([H])C(=O)C([H])(N([H])C([H])([H])[H])C([H])([H])[H])C(C([H])([H])[H])(C([H])([H])[H])C([H])([H])[H])C([H])([H])c2c([H])c(OC([H])([H])C(=O)N([H])C([H])([H])C([H])([H])N([H])C(=O)N3C([H])([H])C([H])([H])C([H])([H])C([H])(n4nc(-c5c([H])c([H])c(Oc6c([H])c([H])c(F)c([H])c6F)c([H])c5[H])c(C(=O)N([H])[H])c4N([H])[H])C3([H])[H])c([H])c([H])c2C1([H])[H]

>  <smiles>  (78) 
[H]c1c([H])c([H])c2c(c1[H])C([H])([H])C([H])([H])C([H])([H])C2([H])N([H])C(=O)C1([H])N(C(=O)C([H])(N([H])C(=O)C([H])(N([H])C([H])([H])[H])C([H])([H])[H])C(C([H])([H])[H])(C([H])([H])[H])C([H])([H])[H])C([H])([H])c2c([H])c(OC([H])([H])C(=O)N([H])C([H])([H])C([H])([H])N([H])C(=O)N3C([H])([H])C([H])([H])C([H])([H])C([H])(n4nc(-c5c([H])c([H])c(Oc6c([H])c([H])c(F)c([H])c6F)c([H])c5[H])c(C(=O)N([H])[H])c4N([H])[H])C3([H])[H])c([H])c([H])c2C1([H])[H]

$$$$
79:0:0
     RDKit          3D

101108  0  0  1  0  0  0  0  0999 V2000
  -24.0540  -24.0960   23.5170 C   0  0  0  0  0  0  0  0  0  0  0  0
  -24.0890  -24.3930   22.2120 N   0  0  0  0  0  0  0  0  0  0  0  0
  -23.6450  -23.0180   23.9540 O   0  0  0  0  0  0  0  0  0  0  0  0
  -24.4490  -25.3110   21.9850 H   0  0  0  0  0  0  0  0  0  0  0  0
  -23.8510  -23.4560   21.1250 C   0  0  0  0  0  2  0  0  0  0  0  0
  -24.7960  -23.7340   19.9420 C   0  0  0  0  0  2  0  0  0  0  0  0
  -24.7140  -25.1640   19.3810 C   0  0  0  0  0  2  0  0  0  0  0  0
  -26.0070  -25.5790   18.6520 C   0  0  0  0  0  2  0  0  0  0  0  0
  -25.8050  -26.7820   17.7080 C   0  0  0  0  0  2  0  0  0  0  0  0
  -28.1900  -27.0190   16.9240 C   0  0  0  0  0  0  0  0  0  0  0  0
  -27.0290  -27.5160   17.3780 N   0  0  0  0  0  0  0  0  0  0  0  0
  -28.4460  -25.8110   16.9070 O   0  0  0  0  0  0  0  0  0  0  0  0
  -26.9420  -28.5240   17.3420 H   0  0  0  0  0  0  0  0  0  0  0  0
  -29.1840  -28.0080   16.3140 C   0  0  0  0  0  2  0  0  0  0  0  0
  -29.2180  -27.7170   14.9250 O   0  0  0  0  0  0  0  0  0  0  0  0
  -29.9240  -28.4420   14.0530 C   0  0  0  0  0  0  0  0  0  0  0  0
  -30.0850  -28.8010   11.5930 C   0  0  0  0  0  2  0  0  0  0  0  0
  -28.8800  -29.6240   11.1040 C   0  0  0  0  0  2  0  0  0  0  0  0
  -27.6680  -28.7160   10.8070 C   0  0  0  0  0  2  0  0  0  0  0  0
  -27.3630  -27.7230   11.9610 C   0  0  0  0  0  3  0  0  0  0  0  0
  -28.6510  -26.9920   12.4020 C   0  0  0  0  0  2  0  0  0  0  0  0
  -29.6510  -28.0160   12.7480 N   0  0  0  0  0  0  0  0  0  0  0  0
  -30.6610  -29.3840   14.3620 O   0  0  0  0  0  0  0  0  0  0  0  0
  -25.2870  -26.2520   12.3700 C   0  0  0  0  0  0  0  0  0  0  0  0
  -24.5440  -25.4640   11.5290 C   0  0  0  0  0  0  0  0  0  0  0  0
  -25.1690  -25.5610   10.2470 C   0  0  0  0  0  0  0  0  0  0  0  0
  -26.3100  -26.7770   11.5950 N   0  0  0  0  0  0  0  0  0  0  0  0
  -26.2600  -26.3110   10.3200 N   0  0  0  0  0  0  0  0  0  0  0  0
  -24.7590  -25.0280    8.9420 C   0  0  0  0  0  0  0  0  0  0  0  0
  -25.6560  -24.3130    8.1190 C   0  0  0  0  0  3  0  0  0  0  0  0
  -25.2340  -23.7970    6.8760 C   0  0  0  0  0  3  0  0  0  0  0  0
  -23.9000  -23.9920    6.4440 C   0  0  0  0  0  0  0  0  0  0  0  0
  -23.0170  -24.7250    7.2550 C   0  0  0  0  0  3  0  0  0  0  0  0
  -23.4410  -25.2430    8.4900 C   0  0  0  0  0  3  0  0  0  0  0  0
  -23.4080  -23.5510    5.2390 O   0  0  0  0  0  0  0  0  0  0  0  0
  -24.0040  -22.5240    4.5510 C   0  0  0  0  0  0  0  0  0  0  0  0
  -24.1880  -21.2490    5.1270 C   0  0  0  0  0  3  0  0  0  0  0  0
  -24.7400  -20.2030    4.3610 C   0  0  0  0  0  3  0  0  0  0  0  0
  -25.1010  -20.4250    3.0180 C   0  0  0  0  0  0  0  0  0  0  0  0
  -24.9130  -21.6940    2.4420 C   0  0  0  0  0  3  0  0  0  0  0  0
  -24.3640  -22.7390    3.2050 C   0  0  0  0  0  0  0  0  0  0  0  0
  -24.1640  -23.9520    2.6360 F   0  0  0  0  0  0  0  0  0  0  0  0
  -25.6230  -19.4190    2.2790 F   0  0  0  0  0  0  0  0  0  0  0  0
  -23.2740  -24.7380   11.8670 C   0  0  0  0  0  0  0  0  0  0  0  0
  -23.0250  -23.6020   11.2240 N   0  0  0  0  0  0  0  0  0  0  0  0
  -22.5160  -25.1500   12.7430 O   0  0  0  0  0  0  0  0  0  0  0  0
  -23.6580  -23.2530   10.5200 H   0  0  0  0  0  0  0  0  0  0  0  0
  -22.1910  -23.0760   11.4380 H   0  0  0  0  0  0  0  0  0  0  0  0
  -25.1680  -26.5780   13.7160 N   0  0  0  0  0  0  0  0  0  0  0  0
  -24.4110  -26.2360   14.2950 H   0  0  0  0  0  0  0  0  0  0  0  0
  -25.7900  -27.2110   14.2040 H   0  0  0  0  0  0  0  0  0  0  0  0
  -24.6200  -25.1590   24.4580 C   0  0  0  0  0  2  0  0  0  0  0  0
  -25.7840  -25.7080   23.8540 O   0  0  0  0  0  0  0  0  0  0  0  0
  -26.3240  -26.8100   24.5680 C   0  0  0  0  0  2  0  0  0  0  0  0
  -27.8240  -26.8460   24.2870 C   0  0  0  0  0  0  0  0  0  0  0  0
  -28.1800  -27.3850   23.1180 N   0  0  0  0  0  0  0  0  0  0  0  0
  -28.6330  -26.3620   25.0840 O   0  0  0  0  0  0  0  0  0  0  0  0
  -27.4420  -27.7680   22.5420 H   0  0  0  0  0  0  0  0  0  0  0  0
  -29.5340  -27.4970   22.5990 C   0  0  0  0  0  2  0  0  0  0  0  0
  -29.6430  -28.6750   21.6140 C   0  0  0  0  0  2  0  0  0  0  0  0
  -29.3660  -29.9160   22.2640 O   0  0  0  0  0  0  0  0  0  0  0  0
  -24.8930  -29.5690   27.7560 C   0  0  0  0  0  0  0  0  0  0  0  0
  -28.0860  -30.1490   22.7090 C   0  0  0  0  0  0  0  0  0  0  0  0
  -23.8690  -30.1790   25.5850 C   0  0  0  0  0  3  0  0  0  0  0  0
  -25.5080  -30.7150   23.7040 C   0  0  0  0  0  0  0  0  0  0  0  0
  -26.3190  -30.7210   26.0700 C   0  0  0  0  0  2  0  0  0  0  0  0
  -26.5830  -30.5700   24.5880 C   0  0  0  0  0  0  0  0  0  0  0  0
  -27.8740  -30.2960   24.0940 C   0  0  0  0  0  3  0  0  0  0  0  0
  -26.9930  -30.2920   21.8230 C   0  0  0  0  0  3  0  0  0  0  0  0
  -25.7050  -30.5770   22.3180 C   0  0  0  0  0  3  0  0  0  0  0  0
  -24.1620  -31.0280   24.3190 C   0  0  0  0  0  2  0  0  0  0  0  0
  -25.0440  -30.1120   26.5150 N   0  0  0  0  0  0  0  0  0  0  0  0
  -23.7880  -29.1660   28.1480 O   0  0  0  0  0  0  0  0  0  0  0  0
  -23.3620  -28.7890   25.1380 C   0  0  0  0  0  0  0  0  0  0  0  0
  -22.4170  -28.7770   24.1840 N   0  0  0  0  0  0  0  0  0  0  0  0
  -23.8370  -27.7570   25.6180 O   0  0  0  0  0  0  0  0  0  0  0  0
  -22.0760  -29.6680   23.8520 H   0  0  0  0  0  0  0  0  0  0  0  0
  -20.3540  -27.6310   21.4500 C   0  0  0  0  0  0  0  0  0  0  0  0
  -21.8200  -27.5880   23.5760 C   0  0  0  0  0  3  0  0  0  0  0  0
  -22.8590  -26.8190   22.7250 C   0  0  0  0  0  2  0  0  0  0  0  0
  -22.8440  -27.2190   21.2460 C   0  0  0  0  0  2  0  0  0  0  0  0
  -21.4580  -26.9800   20.6350 C   0  0  0  0  0  2  0  0  0  0  0  0
  -20.5300  -27.9310   22.8250 C   0  0  0  0  0  0  0  0  0  0  0  0
  -19.4820  -28.5650   23.5260 C   0  0  0  0  0  3  0  0  0  0  0  0
  -18.2750  -28.8910   22.8810 C   0  0  0  0  0  3  0  0  0  0  0  0
  -18.1000  -28.5770   21.5230 C   0  0  0  0  0  3  0  0  0  0  0  0
  -19.1370  -27.9480   20.8110 C   0  0  0  0  0  3  0  0  0  0  0  0
  -26.0910  -29.4440   28.7500 C   0  0  0  0  0  3  0  0  0  0  0  0
  -25.5340  -29.3990   30.1080 N   0  0  0  0  0  0  0  0  0  0  0  0
  -25.6650  -30.3770   31.0150 C   0  0  0  0  0  0  0  0  0  0  0  0
  -26.3410  -31.3890   30.8160 O   0  0  0  0  0  0  0  0  0  0  0  0
  -24.9280  -28.6190   30.3200 H   0  0  0  0  0  0  0  0  0  0  0  0
  -23.6420  -31.0460   32.3510 C   0  0  0  0  0  1  0  0  0  0  0  0
  -24.9290  -30.2040   32.3580 C   0  0  0  0  0  3  0  0  0  0  0  0
  -26.8530  -29.6390   33.7710 C   0  0  0  0  0  1  0  0  0  0  0  0
  -25.7520  -30.5680   33.5300 N   0  0  0  0  0  0  0  0  0  0  0  0
  -25.1820  -30.6090   34.3720 H   0  0  0  0  0  0  0  0  0  0  0  0
  -26.9980  -28.1820   28.4720 C   0  0  1  0  0  0  0  0  0  0  0  0
  -26.1950  -26.8760   28.2690 C   0  0  0  0  0  1  0  0  0  0  0  0
  -27.8660  -28.4040   27.2100 C   0  0  0  0  0  1  0  0  0  0  0  0
  -27.9760  -27.9710   29.6530 C   0  0  0  0  0  1  0  0  0  0  0  0
  1  3  2  0
  1 52  1  0
  2  1  1  0
  4  2  1  0
  5  2  1  0
  6  5  1  0
  7  6  1  0
  8  7  1  0
  9  8  1  0
 10 11  1  0
 11  9  1  0
 12 10  2  0
 13 11  1  0
 14 10  1  0
 15 14  1  0
 16 23  2  0
 16 15  1  0
 17 22  1  0
 18 17  1  0
 19 18  1  0
 20 19  1  0
 20 21  1  0
 21 22  1  0
 22 16  1  0
 24 49  1  0
 25 44  1  0
 25 24  2  0
 26 28  2  0
 26 25  1  0
 27 20  1  0
 27 24  1  0
 28 27  1  0
 29 26  1  0
 30 29  2  0
 31 30  1  0
 32 31  2  0
 32 33  1  0
 33 34  2  0
 34 29  1  0
 35 32  1  0
 36 37  1  0
 36 35  1  0
 38 37  2  0
 39 38  1  0
 40 39  2  0
 40 41  1  0
 41 36  2  0
 42 41  1  0
 43 39  1  0
 44 46  2  0
 45 48  1  0
 45 44  1  0
 47 45  1  0
 49 51  1  0
 49 50  1  0
 53 52  1  0
 53 54  1  0
 55 54  1  0
 55 57  2  0
 56 55  1  0
 58 56  1  0
 59 56  1  0
 60 61  1  0
 60 59  1  0
 61 63  1  0
 62 73  2  0
 63 68  1  0
 64 74  1  0
 64 72  1  0
 65 71  1  0
 65 67  1  0
 66 72  1  0
 67 66  1  0
 68 67  2  0
 69 70  1  0
 69 63  2  0
 70 65  2  0
 71 64  1  0
 72 62  1  0
 74 76  2  0
 75 74  1  0
 77 75  1  0
 78 83  1  0
 79 75  1  0
 80 79  1  0
 81 80  1  0
 82 81  1  0
 82 78  1  0
 83 84  2  0
 83 79  1  0
 85 84  1  0
 86 85  2  0
 87 78  2  0
 87 86  1  0
 88 62  1  0
 88 89  1  0
 89 92  1  0
 89 90  1  0
 90 94  1  0
 91 90  2  0
 94 93  1  0
 94 96  1  0
 96 95  1  0
 96 97  1  0
 98 88  1  0
 98101  1  1
 99 98  1  0
100 98  1  0
M  ISO  4  15 100  16 100  60 101  61 101
M  END
>  <TORSDO>  (79) 
F 30

>  <SCORE>  (79) 
-2.968

>  <name>  (79) 
79

>  <ligand_id>  (79) 
79

>  <original_smiles>  (79) 
[H]c1c([H])c([H])c2c(c1[H])C([H])([H])C([H])([H])C([H])([H])C2([H])N([H])C(=O)C1([H])N(C(=O)C([H])(N([H])C(=O)C([H])(N([H])C([H])([H])[H])C([H])([H])[H])C(C([H])([H])[H])(C([H])([H])[H])C([H])([H])[H])C([H])([H])c2c([H])c(OC([H])([H])C([H])([H])N([H])C(=O)C([H])([H])OC([H])([H])C(=O)N([H])C([H])([H])C([H])([H])C([H])([H])C([H])([H])C([H])([H])N([H])C(=O)C([H])([H])OC(=O)N3C([H])([H])C([H])([H])C([H])([H])C([H])(n4nc(-c5c([H])c([H])c(Oc6c([H])c([H])c(F)c([H])c6F)c([H])c5[H])c(C(=O)N([H])[H])c4N([H])[H])C3([H])[H])c([H])c([H])c2C1([H])[H]

>  <smiles>  (79) 
[H]c1c([H])c([H])c2c(c1[H])C([H])([H])C([H])([H])C([H])([H])C2([H])N([H])C(=O)C1([H])N(C(=O)C([H])(N([H])C(=O)C([H])(N([H])C([H])([H])[H])C([H])([H])[H])C(C([H])([H])[H])(C([H])([H])[H])C([H])([H])[H])C([H])([H])c2c([H])c(OC([H])([H])C([H])([H])N([H])C(=O)C([H])([H])OC([H])([H])C(=O)N([H])C([H])([H])C([H])([H])C([H])([H])C([H])([H])C([H])([H])N([H])C(=O)C([H])([H])OC(=O)N3C([H])([H])C([H])([H])C([H])([H])C([H])(n4nc(-c5c([H])c([H])c(Oc6c([H])c([H])c(F)c([H])c6F)c([H])c5[H])c(C(=O)N([H])[H])c4N([H])[H])C3([H])[H])c([H])c([H])c2C1([H])[H]

$$$$
