0:0:0
     RDKit          3D

104109  0  0  1  0  0  0  0  0999 V2000
  -30.8450  -16.2780   22.4750 C   0  0  0  0  0  2  0  0  0  0  0  0
  -31.7580  -17.7900   20.7460 C   0  0  0  0  0  0  0  0  0  0  0  0
  -30.7610  -17.4120   21.5590 N   0  0  0  0  0  0  0  0  0  0  0  0
  -32.8260  -17.1740   20.6870 O   0  0  0  0  0  0  0  0  0  0  0  0
  -29.9180  -17.9700   21.5650 H   0  0  0  0  0  0  0  0  0  0  0  0
  -31.5370  -19.0420   19.8850 C   0  0  0  0  0  2  0  0  0  0  0  0
  -32.7920  -19.4910   19.3780 O   0  0  0  0  0  0  0  0  0  0  0  0
  -32.7030  -20.6770   18.6020 C   0  0  0  0  0  2  0  0  0  0  0  0
  -34.1250  -21.1570   18.2680 C   0  0  0  0  0  2  0  0  0  0  0  0
  -34.0990  -22.5070   17.8180 O   0  0  0  0  0  0  0  0  0  0  0  0
  -35.3890  -23.1060   17.8500 C   0  0  0  0  0  2  0  0  0  0  0  0
  -35.2560  -24.6330   17.8330 C   0  0  0  0  0  2  0  0  0  0  0  0
  -34.4880  -25.0290   18.9680 O   0  0  0  0  0  0  0  0  0  0  0  0
  -29.3570  -28.8450   22.0400 C   0  0  0  0  0  0  0  0  0  0  0  0
  -33.3560  -25.7790   18.7600 C   0  0  0  0  0  0  0  0  0  0  0  0
  -29.0320  -28.3560   19.6360 C   0  0  0  0  0  3  0  0  0  0  0  0
  -31.0430  -27.3650   18.4250 C   0  0  0  0  0  0  0  0  0  0  0  0
  -31.3810  -28.4930   20.6320 C   0  0  0  0  0  2  0  0  0  0  0  0
  -31.8160  -27.4890   19.5860 C   0  0  0  0  0  0  0  0  0  0  0  0
  -32.9650  -26.6920   19.7620 C   0  0  0  0  0  3  0  0  0  0  0  0
  -32.5510  -25.6430   17.6050 C   0  0  0  0  0  3  0  0  0  0  0  0
  -31.4020  -26.4360   17.4330 C   0  0  0  0  0  3  0  0  0  0  0  0
  -29.8330  -28.2620   18.3100 C   0  0  0  0  0  2  0  0  0  0  0  0
  -29.9150  -28.5520   20.8300 N   0  0  0  0  0  0  0  0  0  0  0  0
  -28.1340  -28.9950   22.1610 O   0  0  0  0  0  0  0  0  0  0  0  0
  -28.1210  -27.1120   19.7490 C   0  0  0  0  0  0  0  0  0  0  0  0
  -26.9480  -27.1710   19.0970 N   0  0  0  0  0  0  0  0  0  0  0  0
  -28.4830  -26.1170   20.3820 O   0  0  0  0  0  0  0  0  0  0  0  0
  -26.7230  -28.0250   18.6060 H   0  0  0  0  0  0  0  0  0  0  0  0
  -23.6530  -26.3520   17.8650 C   0  0  0  0  0  0  0  0  0  0  0  0
  -25.9480  -26.1070   19.0280 C   0  0  0  0  0  3  0  0  0  0  0  0
  -26.2920  -25.0930   17.9120 C   0  0  0  0  0  2  0  0  0  0  0  0
  -25.6180  -25.4160   16.5750 C   0  0  0  0  0  2  0  0  0  0  0  0
  -24.0950  -25.4410   16.7320 C   0  0  0  0  0  2  0  0  0  0  0  0
  -24.5280  -26.6760   18.9350 C   0  0  0  0  0  0  0  0  0  0  0  0
  -24.0800  -27.5550   19.9440 C   0  0  0  0  0  3  0  0  0  0  0  0
  -22.7840  -28.1010   19.9000 C   0  0  0  0  0  3  0  0  0  0  0  0
  -21.9150  -27.7650   18.8470 C   0  0  0  0  0  3  0  0  0  0  0  0
  -22.3490  -26.8880   17.8350 C   0  0  0  0  0  3  0  0  0  0  0  0
  -30.2310  -29.0310   23.3200 C   0  0  0  0  0  3  0  0  0  0  0  0
  -29.8110  -30.2830   23.9640 N   0  0  0  0  0  0  0  0  0  0  0  0
  -30.4470  -31.4550   23.8310 C   0  0  0  0  0  0  0  0  0  0  0  0
  -31.5020  -31.5770   23.2040 O   0  0  0  0  0  0  0  0  0  0  0  0
  -28.9240  -30.2680   24.4470 H   0  0  0  0  0  0  0  0  0  0  0  0
  -29.0500  -33.5110   23.4480 C   0  0  0  0  0  1  0  0  0  0  0  0
  -29.8090  -32.6870   24.5010 C   0  0  0  0  0  3  0  0  0  0  0  0
  -31.3700  -32.9220   26.3820 C   0  0  0  0  0  1  0  0  0  0  0  0
  -30.7880  -33.5500   25.1970 N   0  0  0  0  0  0  0  0  0  0  0  0
  -30.3590  -34.4260   25.4810 H   0  0  0  0  0  0  0  0  0  0  0  0
  -30.1220  -27.8220   24.3280 C   0  0  1  0  0  0  0  0  0  0  0  0
  -28.6670  -27.4390   24.6860 C   0  0  0  0  0  1  0  0  0  0  0  0
  -30.8120  -26.5650   23.7470 C   0  0  0  0  0  1  0  0  0  0  0  0
  -30.8640  -28.1640   25.6410 C   0  0  0  0  0  1  0  0  0  0  0  0
  -29.5360  -15.4760   22.5500 C   0  0  0  0  0  2  0  0  0  0  0  0
  -29.8290  -14.0270   22.9690 C   0  0  0  0  0  2  0  0  0  0  0  0
  -28.5960  -13.2340   23.4380 C   0  0  0  0  0  2  0  0  0  0  0  0
  -28.9870  -11.9450   24.1900 C   0  0  0  0  0  2  0  0  0  0  0  0
  -29.3500  -10.7960   23.2240 C   0  0  0  0  0  2  0  0  0  0  0  0
  -30.6990  -10.1130   23.5070 C   0  0  0  0  0  2  0  0  0  0  0  0
  -31.2080   -9.5190   22.3130 O   0  0  0  0  0  0  0  0  0  0  0  0
  -28.6510   -7.0300   20.0850 C   0  0  0  0  0  3  0  0  0  0  0  0
  -29.5200   -6.4860   21.0410 C   0  0  0  0  0  3  0  0  0  0  0  0
  -28.6460   -8.4190   19.8610 C   0  0  0  0  0  3  0  0  0  0  0  0
  -30.3630   -7.3350   21.7790 C   0  0  0  0  0  3  0  0  0  0  0  0
  -29.4980   -9.2890   20.5760 C   0  0  0  0  0  0  0  0  0  0  0  0
  -30.3570   -8.7350   21.5750 C   0  0  0  0  0  0  0  0  0  0  0  0
  -30.2990  -12.0330   20.2260 C   0  0  2  0  0  0  0  0  0  0  0  0
  -31.3280  -11.2530   19.2610 C   0  0  0  0  0  1  0  0  0  0  0  0
  -30.0500  -11.6290   17.8990 C   0  0  0  0  0  1  0  0  0  0  0  0
  -28.4370  -12.2020   18.3550 C   0  0  0  0  0  2  0  0  0  0  0  0
  -28.0650  -12.8460   19.9530 C   0  0  0  0  0  2  0  0  0  0  0  0
  -29.2760  -12.5560   21.3680 C   0  0  0  0  0  1  0  0  0  0  0  0
  -30.8340  -11.7400   20.9490 N   0  0  0  0  0  1  0  0  0  0  0  0
  -30.7210  -13.2860   19.8040 O   0  0  0  0  0  1  0  0  0  0  0  0
  -29.3800  -10.6740   20.1750 N   0  0  0  0  0  2  0  0  0  0  0  0
  -28.6390  -10.8120   19.5050 H   0  0  0  0  0  0  0  0  0  0  0  0
  -25.7230  -13.6120   20.6180 C   0  0  0  0  0  0  0  0  0  0  0  0
  -24.5340  -12.9790   20.8530 C   0  0  0  0  0  0  0  0  0  0  0  0
  -24.7730  -11.5850   20.6430 C   0  0  0  0  0  0  0  0  0  0  0  0
  -26.6460  -12.6320   20.3100 N   0  0  0  0  0  0  0  0  0  0  0  0
  -26.0710  -11.3870   20.3520 N   0  0  0  0  0  0  0  0  0  0  0  0
  -23.8110  -10.4630   20.6650 C   0  0  0  0  0  0  0  0  0  0  0  0
  -23.9500   -9.3780   21.5600 C   0  0  0  0  0  3  0  0  0  0  0  0
  -22.9940   -8.3360   21.5920 C   0  0  0  0  0  3  0  0  0  0  0  0
  -21.8790   -8.3650   20.7200 C   0  0  0  0  0  0  0  0  0  0  0  0
  -21.7520   -9.4350   19.8150 C   0  0  0  0  0  3  0  0  0  0  0  0
  -22.7060  -10.4680   19.7850 C   0  0  0  0  0  3  0  0  0  0  0  0
  -20.9200   -7.3790   20.6540 O   0  0  0  0  0  0  0  0  0  0  0  0
  -20.6550   -6.5510   21.7180 C   0  0  0  0  0  0  0  0  0  0  0  0
  -20.1780   -7.0550   22.9490 C   0  0  0  0  0  3  0  0  0  0  0  0
  -19.8510   -6.1700   23.9950 C   0  0  0  0  0  3  0  0  0  0  0  0
  -19.9910   -4.7800   23.8100 C   0  0  0  0  0  0  0  0  0  0  0  0
  -20.4550   -4.2760   22.5820 C   0  0  0  0  0  3  0  0  0  0  0  0
  -20.7850   -5.1600   21.5390 C   0  0  0  0  0  0  0  0  0  0  0  0
  -21.2120   -4.6630   20.3540 F   0  0  0  0  0  0  0  0  0  0  0  0
  -19.6690   -3.9300   24.8120 F   0  0  0  0  0  0  0  0  0  0  0  0
  -23.2290  -13.6560   21.1610 C   0  0  0  0  0  0  0  0  0  0  0  0
  -22.3790  -13.0200   21.9630 N   0  0  0  0  0  0  0  0  0  0  0  0
  -22.9780  -14.7830   20.7380 O   0  0  0  0  0  0  0  0  0  0  0  0
  -22.5950  -12.1010   22.3200 H   0  0  0  0  0  0  0  0  0  0  0  0
  -21.4990  -13.4500   22.2060 H   0  0  0  0  0  0  0  0  0  0  0  0
  -26.0980  -14.9500   20.6270 N   0  0  0  0  0  0  0  0  0  0  0  0
  -25.4310  -15.6980   20.7890 H   0  0  0  0  0  0  0  0  0  0  0  0
  -27.0240  -15.2890   20.4020 H   0  0  0  0  0  0  0  0  0  0  0  0
  1 54  1  0
  2  3  1  0
  3  5  1  0
  3  1  1  0
  4  2  2  0
  6  2  1  0
  7  6  1  0
  8  7  1  0
  9  8  1  0
 10 11  1  0
 10  9  1  0
 12 11  1  0
 12 13  1  0
 14 25  2  0
 15 13  1  0
 15 20  1  0
 16 26  1  0
 16 24  1  0
 17 19  1  0
 18 24  1  0
 19 20  2  0
 19 18  1  0
 21 15  2  0
 22 21  1  0
 22 17  2  0
 23 17  1  0
 23 16  1  0
 24 14  1  0
 26 28  2  0
 27 26  1  0
 29 27  1  0
 30 35  1  0
 31 27  1  0
 32 31  1  0
 33 34  1  0
 33 32  1  0
 34 30  1  0
 35 31  1  0
 35 36  2  0
 37 36  1  0
 38 37  2  0
 39 30  2  0
 39 38  1  0
 40 14  1  0
 40 41  1  0
 40 50  1  0
 41 44  1  0
 42 41  1  0
 42 46  1  0
 43 42  2  0
 46 45  1  0
 46 48  1  0
 48 49  1  0
 48 47  1  0
 50 51  1  1
 50 53  1  0
 52 50  1  0
 54 55  1  0
 55 56  1  0
 56 57  1  0
 58 59  1  0
 58 57  1  0
 60 59  1  0
 61 62  1  0
 62 64  2  0
 63 61  2  0
 63 65  1  0
 65 66  2  0
 66 64  1  0
 66 60  1  0
 67 73  1  0
 67 72  1  1
 68 67  1  0
 69 70  1  0
 70 71  1  0
 71 80  1  0
 74 67  1  0
 75 65  1  0
 76 75  1  0
 77102  1  0
 77 78  2  0
 78 97  1  0
 79 82  1  0
 79 78  1  0
 80 81  1  0
 80 77  1  0
 81 79  2  0
 82 83  1  0
 83 84  2  0
 85 84  1  0
 86 85  2  0
 87 86  1  0
 87 82  2  0
 88 85  1  0
 88 89  1  0
 89 90  1  0
 90 91  2  0
 92 91  1  0
 92 96  1  0
 93 92  2  0
 94 89  2  0
 94 93  1  0
 95 94  1  0
 97 98  1  0
 98101  1  0
 98100  1  0
 99 97  2  0
102103  1  0
104102  1  0
M  ISO  4  12 101  13 101  67 100  75 100
M  END
>  <TORSDO>  (1) 
F 32

>  <SCORE>  (1) 
4.105

>  <name>  (1) 
0

>  <ligand_id>  (1) 
0

>  <original_smiles>  (1) 
[H]c1c([H])c([H])c(N([H])C(=O)N2C([H])([H])C([H])([H])C([H])([H])C([H])(n3nc(-c4c([H])c([H])c(Oc5c([H])c([H])c(F)c([H])c5F)c([H])c4[H])c(C(=O)N([H])[H])c3N([H])[H])C2([H])[H])c(OC([H])([H])C([H])([H])C([H])([H])C([H])([H])C([H])([H])C([H])([H])C([H])([H])N([H])C(=O)C([H])([H])OC([H])([H])C([H])([H])OC([H])([H])C([H])([H])Oc2c([H])c([H])c3c(c2[H])C([H])([H])N(C(=O)C([H])(N([H])C(=O)C([H])(N([H])C([H])([H])[H])C([H])([H])[H])C(C([H])([H])[H])(C([H])([H])[H])C([H])([H])[H])C([H])(C(=O)N([H])C2([H])c4c([H])c([H])c([H])c([H])c4C([H])([H])C([H])([H])C2([H])[H])C3([H])[H])c1[H]

>  <smiles>  (1) 
[H]c1c([H])c([H])c(N([H])C(=O)N2C([H])([H])C([H])([H])C([H])([H])C([H])(n3nc(-c4c([H])c([H])c(Oc5c([H])c([H])c(F)c([H])c5F)c([H])c4[H])c(C(=O)N([H])[H])c3N([H])[H])C2([H])[H])c(OC([H])([H])C([H])([H])C([H])([H])C([H])([H])C([H])([H])C([H])([H])C([H])([H])N([H])C(=O)C([H])([H])OC([H])([H])C([H])([H])OC([H])([H])C([H])([H])Oc2c([H])c([H])c3c(c2[H])C([H])([H])N(C(=O)C([H])(N([H])C(=O)C([H])(N([H])C([H])([H])[H])C([H])([H])[H])C(C([H])([H])[H])(C([H])([H])[H])C([H])([H])[H])C([H])(C(=O)N([H])C2([H])c4c([H])c([H])c([H])c([H])c4C([H])([H])C([H])([H])C2([H])[H])C3([H])[H])c1[H]

$$$$
1:0:0
     RDKit          3D

 82 86  0  0  1  0  0  0  0  0999 V2000
  -28.2030  -25.2140   20.1870 O   0  0  0  0  0  1  0  0  0  0  0  0
  -24.6590  -31.8230   23.1160 C   0  0  0  0  0  0  0  0  0  0  0  0
  -27.2270  -26.5180   20.2190 C   0  0  0  0  0  0  0  0  0  0  0  0
  -23.5030  -30.4040   21.4840 C   0  0  0  0  0  3  0  0  0  0  0  0
  -24.9680  -28.6960   20.1210 C   0  0  0  0  0  0  0  0  0  0  0  0
  -26.0920  -30.4850   21.4080 C   0  0  0  0  0  2  0  0  0  0  0  0
  -26.1660  -29.0180   20.7700 C   0  0  0  0  0  0  0  0  0  0  0  0
  -27.2690  -27.9690   20.7710 C   0  0  0  0  0  3  0  0  0  0  0  0
  -25.9850  -26.4690   19.5130 C   0  0  0  0  0  3  0  0  0  0  0  0
  -24.9320  -27.4500   19.4670 C   0  0  0  0  0  3  0  0  0  0  0  0
  -23.7680  -29.6710   20.1330 C   0  0  0  0  0  2  0  0  0  0  0  0
  -24.7790  -30.9440   22.0540 N   0  0  0  0  0  0  0  0  0  0  0  0
  -23.5550  -32.1300   23.6020 O   0  0  0  0  0  0  0  0  0  0  0  0
  -22.7610  -29.4600   22.4680 C   0  0  0  0  0  0  0  0  0  0  0  0
  -21.4220  -29.3490   22.3610 N   0  0  0  0  0  0  0  0  0  0  0  0
  -23.4040  -28.8170   23.3000 O   0  0  0  0  0  0  0  0  0  0  0  0
  -20.9470  -29.9240   21.6780 H   0  0  0  0  0  0  0  0  0  0  0  0
  -18.0030  -28.1330   22.8590 C   0  0  0  0  0  0  0  0  0  0  0  0
  -20.5950  -28.3830   23.0970 C   0  0  0  0  0  0  0  0  0  0  0  0
  -20.7720  -26.9760   22.4620 C   0  0  0  0  0  3  0  0  0  0  0  0
  -19.5380  -26.4150   21.7220 C   0  0  0  0  0  3  0  0  0  0  0  0
  -18.0990  -26.8440   22.0560 C   0  0  0  0  0  3  0  0  0  0  0  0
  -19.1450  -28.8670   23.2920 C   0  0  0  0  0  0  0  0  0  0  0  0
  -18.9400  -30.1130   23.9270 C   0  0  0  0  0  3  0  0  0  0  0  0
  -17.6430  -30.6230   24.1300 C   0  0  0  0  0  3  0  0  0  0  0  0
  -16.5250  -29.8800   23.7210 C   0  0  0  0  0  3  0  0  0  0  0  0
  -16.7080  -28.6360   23.0960 C   0  0  0  0  0  3  0  0  0  0  0  0
  -25.9010  -32.4970   23.7720 C   0  0  0  0  0  3  0  0  0  0  0  0
  -25.5540  -33.8960   24.1020 N   0  0  0  0  0  0  0  0  0  0  0  0
  -25.8860  -34.9730   23.3740 C   0  0  0  0  0  0  0  0  0  0  0  0
  -26.5670  -34.8910   22.3500 O   0  0  0  0  0  0  0  0  0  0  0  0
  -24.9460  -34.0310   24.8960 H   0  0  0  0  0  0  0  0  0  0  0  0
  -24.1500  -36.7720   23.0460 C   0  0  0  0  0  1  0  0  0  0  0  0
  -25.3900  -36.3550   23.8530 C   0  0  0  0  0  3  0  0  0  0  0  0
  -27.5120  -37.2520   24.7100 C   0  0  0  0  0  1  0  0  0  0  0  0
  -26.4160  -37.4190   23.7590 N   0  0  0  0  0  0  0  0  0  0  0  0
  -26.0000  -38.3340   23.9110 H   0  0  0  0  0  0  0  0  0  0  0  0
  -26.3860  -31.7540   25.0790 C   0  0  1  0  0  0  0  0  0  0  0  0
  -25.2660  -31.5290   26.1240 C   0  0  0  0  0  1  0  0  0  0  0  0
  -26.9880  -30.3730   24.7440 C   0  0  0  0  0  1  0  0  0  0  0  0
  -27.5140  -32.5680   25.7560 C   0  0  0  0  0  1  0  0  0  0  0  0
  -28.2300  -23.3320   20.4390 C   0  0  0  0  0 15  0  0  0  0  0  0
  -28.7870  -21.3790   19.8640 C   0  0  0  0  0 15  0  0  0  0  0  0
  -29.3980  -19.4400   20.4120 C   0  0  0  0  0  1  0  0  0  0  0  0
  -30.1690  -16.0920   20.0360 C   0  0  0  0  0  0  0  0  0  0  0  0
  -30.3590  -13.4710   19.1990 C   0  0  0  0  0  2  0  0  0  0  0  0
  -29.4770  -12.8700   18.0550 C   0  0  0  0  0  2  0  0  0  0  0  0
  -28.1030  -12.4290   18.5740 C   0  0  0  0  0  2  0  0  0  0  0  0
  -27.5630  -13.4490   19.5940 C   0  0  0  0  0  3  0  0  0  0  0  0
  -28.6020  -13.9210   20.6470 C   0  0  0  0  0  2  0  0  0  0  0  0
  -29.6750  -14.6720   19.9180 N   0  0  0  0  0  0  0  0  0  0  0  0
  -31.4150  -15.9560   19.9590 O   0  0  0  0  0  0  0  0  0  0  0  0
  -29.4220  -17.5600   20.0550 N   0  0  0  0  0  0  0  0  0  0  0  0
  -28.4530  -17.3130   19.9040 H   0  0  0  0  0  0  0  0  0  0  0  0
  -25.2310  -13.9310   20.4500 C   0  0  0  0  0  0  0  0  0  0  0  0
  -24.1900  -13.1380   20.8360 C   0  0  0  0  0  0  0  0  0  0  0  0
  -24.6710  -11.7930   20.7770 C   0  0  0  0  0  0  0  0  0  0  0  0
  -26.2760  -13.0750   20.1660 N   0  0  0  0  0  0  0  0  0  0  0  0
  -25.9570  -11.7790   20.4270 N   0  0  0  0  0  0  0  0  0  0  0  0
  -23.9560  -10.5240   20.9740 C   0  0  0  0  0  0  0  0  0  0  0  0
  -24.4050   -9.5560   21.8990 C   0  0  0  0  0  3  0  0  0  0  0  0
  -23.6830   -8.3560   22.0890 C   0  0  0  0  0  3  0  0  0  0  0  0
  -22.4960   -8.1180   21.3550 C   0  0  0  0  0  0  0  0  0  0  0  0
  -22.0660   -9.0740   20.4200 C   0  0  0  0  0  3  0  0  0  0  0  0
  -22.7890  -10.2650   20.2280 C   0  0  0  0  0  3  0  0  0  0  0  0
  -21.7460   -6.9710   21.4550 O   0  0  0  0  0  0  0  0  0  0  0  0
  -21.7090   -6.2310   22.6100 C   0  0  0  0  0  0  0  0  0  0  0  0
  -21.2840   -6.7860   23.8360 C   0  0  0  0  0  3  0  0  0  0  0  0
  -21.1960   -5.9730   24.9840 C   0  0  0  0  0  3  0  0  0  0  0  0
  -21.5230   -4.6050   24.9060 C   0  0  0  0  0  0  0  0  0  0  0  0
  -21.9420   -4.0500   23.6840 C   0  0  0  0  0  3  0  0  0  0  0  0
  -22.0320   -4.8600   22.5390 C   0  0  0  0  0  0  0  0  0  0  0  0
  -22.4140   -4.3150   21.3590 F   0  0  0  0  0  0  0  0  0  0  0  0
  -21.4320   -3.8220   26.0060 F   0  0  0  0  0  0  0  0  0  0  0  0
  -22.7960  -13.6030   21.1400 C   0  0  0  0  0  0  0  0  0  0  0  0
  -22.0920  -12.8960   22.0160 N   0  0  0  0  0  0  0  0  0  0  0  0
  -22.3430  -14.6300   20.6380 O   0  0  0  0  0  0  0  0  0  0  0  0
  -22.4740  -12.0650   22.4440 H   0  0  0  0  0  0  0  0  0  0  0  0
  -21.1580  -13.1890   22.2630 H   0  0  0  0  0  0  0  0  0  0  0  0
  -25.3710  -15.3060   20.2780 N   0  0  0  0  0  0  0  0  0  0  0  0
  -24.5980  -15.9490   20.4140 H   0  0  0  0  0  0  0  0  0  0  0  0
  -26.2020  -15.7550   19.9170 H   0  0  0  0  0  0  0  0  0  0  0  0
  1  3  1  0
  2 13  2  0
  3  8  1  0
  4 12  1  0
  4 14  1  0
  5 11  1  0
  5  7  1  0
  6 12  1  0
  7  8  2  0
  7  6  1  0
  9  3  2  0
 10  9  1  0
 10  5  2  0
 11  4  1  0
 12  2  1  0
 14 16  2  0
 15 14  1  0
 15 19  1  0
 17 15  1  0
 18 27  2  0
 18 23  1  0
 19 23  1  0
 20 19  2  0
 21 22  2  0
 21 20  1  0
 22 18  1  0
 23 24  2  0
 24 25  1  0
 26 25  2  0
 27 26  1  0
 28  2  1  0
 28 29  1  0
 28 38  1  0
 29 32  1  0
 30 34  1  0
 30 29  1  0
 31 30  2  0
 34 33  1  0
 36 34  1  0
 36 37  1  0
 36 35  1  0
 38 41  1  1
 38 39  1  0
 40 38  1  0
 45 53  1  0
 46 51  1  0
 47 48  1  0
 47 46  1  0
 49 48  1  0
 49 58  1  0
 49 50  1  0
 51 45  1  0
 51 50  1  0
 52 45  2  0
 53 44  1  0
 54 53  1  0
 55 56  2  0
 56 75  1  0
 57 56  1  0
 57 60  1  0
 58 59  1  0
 58 55  1  0
 59 57  2  0
 60 61  1  0
 61 62  2  0
 63 66  1  0
 63 62  1  0
 64 63  2  0
 65 64  1  0
 65 60  2  0
 66 67  1  0
 67 68  1  0
 68 69  2  0
 70 69  1  0
 70 74  1  0
 71 70  2  0
 72 67  2  0
 72 71  1  0
 73 72  1  0
 75 76  1  0
 76 79  1  0
 76 78  1  0
 77 75  2  0
 80 81  1  0
 80 55  1  0
 82 80  1  0
M  ISO  4   1 101  42 101  45 100  53 100
M  END
>  <TORSDO>  (2) 
F 18

>  <SCORE>  (2) 
-16.165

>  <name>  (2) 
1

>  <ligand_id>  (2) 
1

>  <original_smiles>  (2) 
[H]c1c([H])c([H])c2c(c1[H])C([H])([H])C([H])([H])C([H])([H])C2([H])N([H])C(=O)C1([H])N(C(=O)C([H])(N([H])C(=O)C([H])(N([H])C([H])([H])[H])C([H])([H])[H])C(C([H])([H])[H])(C([H])([H])[H])C([H])([H])[H])C([H])([H])c2c([H])c(OC([H])([H])C([H])([H])C([H])([H])N([H])C(=O)N3C([H])([H])C([H])([H])C([H])([H])C([H])(n4nc(-c5c([H])c([H])c(Oc6c([H])c([H])c(F)c([H])c6F)c([H])c5[H])c(C(=O)N([H])[H])c4N([H])[H])C3([H])[H])c([H])c([H])c2C1([H])[H]

>  <smiles>  (2) 
[H]c1c([H])c([H])c2c(c1[H])C([H])([H])C([H])([H])C([H])([H])C2([H])N([H])C(=O)C1([H])N(C(=O)C([H])(N([H])C(=O)C([H])(N([H])C([H])([H])[H])C([H])([H])[H])C(C([H])([H])[H])(C([H])([H])[H])C([H])([H])[H])C([H])([H])c2c([H])c(OC([H])([H])C([H])([H])C([H])([H])N([H])C(=O)N3C([H])([H])C([H])([H])C([H])([H])C([H])(n4nc(-c5c([H])c([H])c(Oc6c([H])c([H])c(F)c([H])c6F)c([H])c5[H])c(C(=O)N([H])[H])c4N([H])[H])C3([H])[H])c([H])c([H])c2C1([H])[H]

$$$$
2:0:0
     RDKit          3D

 90 97  0  0  1  0  0  0  0  0999 V2000
  -27.8060  -22.7890   22.0570 C   0  0  0  0  0  2  0  0  0  0  0  0
  -28.1210  -23.6690   20.9800 O   0  0  0  0  0  0  0  0  0  0  0  0
  -28.3570  -25.0040   21.4180 C   0  0  0  0  0  2  0  0  0  0  0  0
  -29.0330  -25.8100   20.2920 C   0  0  0  0  0  2  0  0  0  0  0  0
  -28.9770  -27.2200   20.5330 O   0  0  0  0  0  0  0  0  0  0  0  0
  -24.8130  -32.1180   23.5430 C   0  0  0  0  0  0  0  0  0  0  0  0
  -27.7520  -27.8490   20.4980 C   0  0  0  0  0  0  0  0  0  0  0  0
  -23.7220  -30.6820   21.8480 C   0  0  0  0  0  3  0  0  0  0  0  0
  -25.2850  -29.2330   20.4560 C   0  0  0  0  0  0  0  0  0  0  0  0
  -26.2290  -31.1650   21.7290 C   0  0  0  0  0  2  0  0  0  0  0  0
  -26.3990  -29.8060   21.0820 C   0  0  0  0  0  0  0  0  0  0  0  0
  -27.6340  -29.1210   21.0980 C   0  0  0  0  0  3  0  0  0  0  0  0
  -26.6140  -27.2830   19.8740 C   0  0  0  0  0  3  0  0  0  0  0  0
  -25.3870  -27.9680   19.8540 C   0  0  0  0  0  3  0  0  0  0  0  0
  -24.0040  -30.0320   20.4680 C   0  0  0  0  0  2  0  0  0  0  0  0
  -24.9370  -31.3350   22.4330 N   0  0  0  0  0  0  0  0  0  0  0  0
  -23.7050  -32.3340   24.0530 O   0  0  0  0  0  0  0  0  0  0  0  0
  -23.0900  -29.6210   22.7760 C   0  0  0  0  0  0  0  0  0  0  0  0
  -21.7860  -29.3620   22.5830 N   0  0  0  0  0  0  0  0  0  0  0  0
  -23.7700  -29.0330   23.6190 O   0  0  0  0  0  0  0  0  0  0  0  0
  -21.2950  -29.8870   21.8700 H   0  0  0  0  0  0  0  0  0  0  0  0
  -18.4720  -27.9650   22.9140 C   0  0  0  0  0  0  0  0  0  0  0  0
  -20.9920  -28.3730   23.3120 C   0  0  0  0  0  3  0  0  0  0  0  0
  -21.2090  -26.9500   22.7440 C   0  0  0  0  0  2  0  0  0  0  0  0
  -20.1790  -26.5620   21.6760 C   0  0  0  0  0  2  0  0  0  0  0  0
  -18.7620  -26.6280   22.2540 C   0  0  0  0  0  2  0  0  0  0  0  0
  -19.5210  -28.7900   23.3990 C   0  0  0  0  0  0  0  0  0  0  0  0
  -19.2030  -30.0400   23.9710 C   0  0  0  0  0  3  0  0  0  0  0  0
  -17.8650  -30.4650   24.0730 C   0  0  0  0  0  3  0  0  0  0  0  0
  -16.8290  -29.6370   23.6090 C   0  0  0  0  0  3  0  0  0  0  0  0
  -17.1330  -28.3910   23.0320 C   0  0  0  0  0  3  0  0  0  0  0  0
  -26.0510  -32.7960   24.2080 C   0  0  0  0  0  3  0  0  0  0  0  0
  -26.4950  -32.0970   25.5500 C   0  0  1  0  0  0  0  0  0  0  0  0
  -25.3360  -31.8630   26.5460 C   0  0  0  0  0  1  0  0  0  0  0  0
  -27.1490  -30.7280   25.2540 C   0  0  0  0  0  1  0  0  0  0  0  0
  -27.5660  -32.9570   26.2590 C   0  0  0  0  0  1  0  0  0  0  0  0
  -25.7090  -34.2050   24.4420 N   0  0  0  0  0  0  0  0  0  0  0  0
  -26.0740  -35.2180   23.6420 C   0  0  0  0  0  0  0  0  0  0  0  0
  -26.8020  -35.0650   22.6570 O   0  0  0  0  0  0  0  0  0  0  0  0
  -25.0670  -34.3930   25.1980 H   0  0  0  0  0  0  0  0  0  0  0  0
  -24.3440  -36.9560   23.0900 C   0  0  0  0  0  1  0  0  0  0  0  0
  -25.5440  -36.6220   23.9910 C   0  0  0  0  0  3  0  0  0  0  0  0
  -27.6240  -37.5810   24.8740 C   0  0  0  0  0  1  0  0  0  0  0  0
  -26.5690  -37.6810   23.8690 N   0  0  0  0  0  0  0  0  0  0  0  0
  -26.1450  -38.6010   23.9460 H   0  0  0  0  0  0  0  0  0  0  0  0
  -27.4930  -21.3830   21.5210 C   0  0  0  0  0  2  0  0  0  0  0  0
  -28.6650  -20.7680   20.9950 O   0  0  0  0  0  0  0  0  0  0  0  0
  -28.3670  -19.5800   20.2660 C   0  0  0  0  0  2  0  0  0  0  0  0
  -29.6620  -18.8370   19.8940 C   0  0  0  0  0  2  0  0  0  0  0  0
  -30.0630  -17.9670   20.9490 O   0  0  0  0  0  0  0  0  0  0  0  0
  -31.4690  -17.8850   21.1710 C   0  0  0  0  0  2  0  0  0  0  0  0
  -32.1640  -16.8510   20.2700 C   0  0  0  0  0  2  0  0  0  0  0  0
  -31.9300  -14.4640   19.7030 C   0  0  0  0  0  0  0  0  0  0  0  0
  -31.3700  -12.1870   18.9420 C   0  0  0  0  0  2  0  0  0  0  0  0
  -30.3890  -12.2580   17.7560 C   0  0  0  0  0  2  0  0  0  0  0  0
  -28.9350  -12.3150   18.2570 C   0  0  0  0  0  2  0  0  0  0  0  0
  -28.7260  -13.3820   19.3650 C   0  0  0  0  0  3  0  0  0  0  0  0
  -29.8210  -13.2870   20.4530 C   0  0  0  0  0  2  0  0  0  0  0  0
  -31.1380  -13.3620   19.7950 N   0  0  0  0  0  0  0  0  0  0  0  0
  -32.9520  -14.5110   19.0150 O   0  0  0  0  0  0  0  0  0  0  0  0
  -31.5220  -15.5410   20.3790 N   0  0  0  0  0  0  0  0  0  0  0  0
  -30.6870  -15.4770   20.9440 H   0  0  0  0  0  0  0  0  0  0  0  0
  -26.5230  -14.3100   20.3180 C   0  0  0  0  0  0  0  0  0  0  0  0
  -25.3730  -13.6950   20.7340 C   0  0  0  0  0  0  0  0  0  0  0  0
  -25.5970  -12.2930   20.5790 C   0  0  0  0  0  0  0  0  0  0  0  0
  -27.3840  -13.2930   19.9390 N   0  0  0  0  0  0  0  0  0  0  0  0
  -26.8320  -12.0680   20.1490 N   0  0  0  0  0  0  0  0  0  0  0  0
  -24.6860  -11.1530   20.7540 C   0  0  0  0  0  0  0  0  0  0  0  0
  -25.0150  -10.0650   21.5910 C   0  0  0  0  0  3  0  0  0  0  0  0
  -24.1140   -8.9910   21.7570 C   0  0  0  0  0  3  0  0  0  0  0  0
  -22.8680   -9.0000   21.0880 C   0  0  0  0  0  0  0  0  0  0  0  0
  -22.5550  -10.0750   20.2360 C   0  0  0  0  0  3  0  0  0  0  0  0
  -23.4560  -11.1380   20.0660 C   0  0  0  0  0  3  0  0  0  0  0  0
  -21.9430   -7.9870   21.1680 O   0  0  0  0  0  0  0  0  0  0  0  0
  -21.8340   -7.1990   22.2860 C   0  0  0  0  0  0  0  0  0  0  0  0
  -21.5870   -7.7470   23.5640 C   0  0  0  0  0  3  0  0  0  0  0  0
  -21.4110   -6.8960   24.6730 C   0  0  0  0  0  3  0  0  0  0  0  0
  -21.4730   -5.4990   24.5060 C   0  0  0  0  0  0  0  0  0  0  0  0
  -21.7140   -4.9520   23.2340 C   0  0  0  0  0  3  0  0  0  0  0  0
  -21.8900   -5.8000   22.1260 C   0  0  0  0  0  0  0  0  0  0  0  0
  -22.1010   -5.2670   20.8980 F   0  0  0  0  0  0  0  0  0  0  0  0
  -21.2960   -4.6800   25.5700 F   0  0  0  0  0  0  0  0  0  0  0  0
  -24.1040  -14.3690   21.1660 C   0  0  0  0  0  0  0  0  0  0  0  0
  -23.3490  -13.7420   22.0620 N   0  0  0  0  0  0  0  0  0  0  0  0
  -23.7960  -15.4850   20.7480 O   0  0  0  0  0  0  0  0  0  0  0  0
  -23.6150  -12.8390   22.4260 H   0  0  0  0  0  0  0  0  0  0  0  0
  -22.4980  -14.1770   22.3890 H   0  0  0  0  0  0  0  0  0  0  0  0
  -26.9010  -15.6450   20.2170 N   0  0  0  0  0  0  0  0  0  0  0  0
  -26.2750  -16.4070   20.4510 H   0  0  0  0  0  0  0  0  0  0  0  0
  -27.7960  -15.9620   19.8690 H   0  0  0  0  0  0  0  0  0  0  0  0
  2  3  1  0
  2  1  1  0
  4  5  1  0
  4  3  1  0
  6 17  2  0
  7  5  1  0
  7 12  1  0
  8 16  1  0
  8 18  1  0
  9 15  1  0
  9 11  1  0
 10 16  1  0
 11 12  2  0
 11 10  1  0
 13  7  2  0
 14 13  1  0
 14  9  2  0
 15  8  1  0
 16  6  1  0
 18 20  2  0
 19 18  1  0
 21 19  1  0
 22 31  2  0
 22 27  1  0
 23 19  1  0
 23 27  1  0
 24 23  1  0
 25 26  1  0
 25 24  1  0
 26 22  1  0
 27 28  2  0
 28 29  1  0
 30 29  2  0
 31 30  1  0
 32  6  1  0
 32 37  1  0
 32 33  1  0
 33 36  1  1
 33 34  1  0
 35 33  1  0
 37 40  1  0
 38 42  1  0
 38 37  1  0
 39 38  2  0
 42 41  1  0
 44 45  1  0
 44 42  1  0
 44 43  1  0
 46  1  1  0
 47 46  1  0
 48 47  1  0
 49 48  1  0
 49 50  1  0
 50 51  1  0
 52 61  1  0
 52 51  1  0
 53 59  1  0
 53 61  1  0
 54 59  1  0
 55 56  1  0
 55 54  1  0
 57 56  1  0
 57 66  1  0
 57 58  1  0
 59 58  1  0
 60 53  2  0
 61 62  1  0
 63 64  2  0
 64 83  1  0
 65 64  1  0
 65 68  1  0
 66 67  1  0
 66 63  1  0
 67 65  2  0
 68 69  1  0
 69 70  2  0
 71 74  1  0
 71 70  1  0
 72 71  2  0
 73 72  1  0
 73 68  2  0
 74 75  1  0
 75 76  1  0
 76 77  2  0
 78 77  1  0
 78 82  1  0
 79 78  2  0
 80 75  2  0
 80 79  1  0
 81 80  1  0
 83 84  1  0
 84 87  1  0
 84 86  1  0
 85 83  2  0
 88 63  1  0
 88 89  1  0
 90 88  1  0
M  ISO  4   4 101   5 101  53 100  61 100
M  END
>  <TORSDO>  (3) 
F 26

>  <SCORE>  (3) 
-9.736

>  <name>  (3) 
2

>  <ligand_id>  (3) 
2

>  <original_smiles>  (3) 
[H]c1c([H])c([H])c2c(c1[H])C([H])([H])C([H])([H])C([H])([H])C2([H])N([H])C(=O)C1([H])N(C(=O)C([H])(N([H])C(=O)C([H])(N([H])C([H])([H])[H])C([H])([H])[H])C(C([H])([H])[H])(C([H])([H])[H])C([H])([H])[H])C([H])([H])c2c([H])c(OC([H])([H])C([H])([H])OC([H])([H])C([H])([H])OC([H])([H])C([H])([H])OC([H])([H])C([H])([H])N([H])C(=O)N3C([H])([H])C([H])([H])C([H])([H])C([H])(n4nc(-c5c([H])c([H])c(Oc6c([H])c([H])c(F)c([H])c6F)c([H])c5[H])c(C(=O)N([H])[H])c4N([H])[H])C3([H])[H])c([H])c([H])c2C1([H])[H]

>  <smiles>  (3) 
[H]c1c([H])c([H])c2c(c1[H])C([H])([H])C([H])([H])C([H])([H])C2([H])N([H])C(=O)C1([H])N(C(=O)C([H])(N([H])C(=O)C([H])(N([H])C([H])([H])[H])C([H])([H])[H])C(C([H])([H])[H])(C([H])([H])[H])C([H])([H])[H])C([H])([H])c2c([H])c(OC([H])([H])C([H])([H])OC([H])([H])C([H])([H])OC([H])([H])C([H])([H])OC([H])([H])C([H])([H])N([H])C(=O)N3C([H])([H])C([H])([H])C([H])([H])C([H])(n4nc(-c5c([H])c([H])c(Oc6c([H])c([H])c(F)c([H])c6F)c([H])c5[H])c(C(=O)N([H])[H])c4N([H])[H])C3([H])[H])c([H])c([H])c2C1([H])[H]

$$$$
3:0:0
     RDKit          3D

 90 97  0  0  1  0  0  0  0  0999 V2000
  -27.8060  -22.7890   22.0570 C   0  0  0  0  0  2  0  0  0  0  0  0
  -28.1210  -23.6690   20.9800 O   0  0  0  0  0  0  0  0  0  0  0  0
  -28.3570  -25.0040   21.4180 C   0  0  0  0  0  2  0  0  0  0  0  0
  -29.0330  -25.8100   20.2920 C   0  0  0  0  0  2  0  0  0  0  0  0
  -28.9770  -27.2200   20.5330 O   0  0  0  0  0  0  0  0  0  0  0  0
  -24.8130  -32.1180   23.5430 C   0  0  0  0  0  0  0  0  0  0  0  0
  -27.7520  -27.8490   20.4980 C   0  0  0  0  0  0  0  0  0  0  0  0
  -23.7220  -30.6820   21.8480 C   0  0  0  0  0  3  0  0  0  0  0  0
  -25.2850  -29.2330   20.4560 C   0  0  0  0  0  0  0  0  0  0  0  0
  -26.2290  -31.1650   21.7290 C   0  0  0  0  0  2  0  0  0  0  0  0
  -26.3990  -29.8060   21.0820 C   0  0  0  0  0  0  0  0  0  0  0  0
  -27.6340  -29.1210   21.0980 C   0  0  0  0  0  3  0  0  0  0  0  0
  -26.6140  -27.2830   19.8740 C   0  0  0  0  0  3  0  0  0  0  0  0
  -25.3870  -27.9680   19.8540 C   0  0  0  0  0  3  0  0  0  0  0  0
  -24.0040  -30.0320   20.4680 C   0  0  0  0  0  2  0  0  0  0  0  0
  -24.9370  -31.3350   22.4330 N   0  0  0  0  0  0  0  0  0  0  0  0
  -23.7050  -32.3340   24.0530 O   0  0  0  0  0  0  0  0  0  0  0  0
  -23.0900  -29.6210   22.7760 C   0  0  0  0  0  0  0  0  0  0  0  0
  -21.7860  -29.3620   22.5830 N   0  0  0  0  0  0  0  0  0  0  0  0
  -23.7700  -29.0330   23.6190 O   0  0  0  0  0  0  0  0  0  0  0  0
  -21.2950  -29.8870   21.8700 H   0  0  0  0  0  0  0  0  0  0  0  0
  -18.4720  -27.9650   22.9140 C   0  0  0  0  0  0  0  0  0  0  0  0
  -20.9920  -28.3730   23.3120 C   0  0  0  0  0  3  0  0  0  0  0  0
  -21.2090  -26.9500   22.7440 C   0  0  0  0  0  2  0  0  0  0  0  0
  -20.1790  -26.5620   21.6760 C   0  0  0  0  0  2  0  0  0  0  0  0
  -18.7620  -26.6280   22.2540 C   0  0  0  0  0  2  0  0  0  0  0  0
  -19.5210  -28.7900   23.3990 C   0  0  0  0  0  0  0  0  0  0  0  0
  -19.2030  -30.0400   23.9710 C   0  0  0  0  0  3  0  0  0  0  0  0
  -17.8650  -30.4650   24.0730 C   0  0  0  0  0  3  0  0  0  0  0  0
  -16.8290  -29.6370   23.6090 C   0  0  0  0  0  3  0  0  0  0  0  0
  -17.1330  -28.3910   23.0320 C   0  0  0  0  0  3  0  0  0  0  0  0
  -26.0510  -32.7960   24.2080 C   0  0  0  0  0  3  0  0  0  0  0  0
  -26.4950  -32.0970   25.5500 C   0  0  1  0  0  0  0  0  0  0  0  0
  -25.3360  -31.8630   26.5460 C   0  0  0  0  0  1  0  0  0  0  0  0
  -27.1490  -30.7280   25.2540 C   0  0  0  0  0  1  0  0  0  0  0  0
  -27.5660  -32.9570   26.2590 C   0  0  0  0  0  1  0  0  0  0  0  0
  -25.7090  -34.2050   24.4420 N   0  0  0  0  0  0  0  0  0  0  0  0
  -26.0740  -35.2180   23.6420 C   0  0  0  0  0  0  0  0  0  0  0  0
  -26.8020  -35.0650   22.6570 O   0  0  0  0  0  0  0  0  0  0  0  0
  -25.0670  -34.3930   25.1980 H   0  0  0  0  0  0  0  0  0  0  0  0
  -24.3440  -36.9560   23.0900 C   0  0  0  0  0  1  0  0  0  0  0  0
  -25.5440  -36.6220   23.9910 C   0  0  0  0  0  3  0  0  0  0  0  0
  -27.6240  -37.5810   24.8740 C   0  0  0  0  0  1  0  0  0  0  0  0
  -26.5690  -37.6810   23.8690 N   0  0  0  0  0  0  0  0  0  0  0  0
  -26.1450  -38.6010   23.9460 H   0  0  0  0  0  0  0  0  0  0  0  0
  -27.4930  -21.3830   21.5210 C   0  0  0  0  0  2  0  0  0  0  0  0
  -28.6650  -20.7680   20.9950 O   0  0  0  0  0  0  0  0  0  0  0  0
  -28.3670  -19.5800   20.2660 C   0  0  0  0  0  2  0  0  0  0  0  0
  -29.6620  -18.8370   19.8940 C   0  0  0  0  0  2  0  0  0  0  0  0
  -30.0630  -17.9670   20.9490 O   0  0  0  0  0  0  0  0  0  0  0  0
  -31.4690  -17.8850   21.1710 C   0  0  0  0  0  2  0  0  0  0  0  0
  -32.1640  -16.8510   20.2700 C   0  0  0  0  0  2  0  0  0  0  0  0
  -31.9300  -14.4640   19.7030 C   0  0  0  0  0  0  0  0  0  0  0  0
  -31.3700  -12.1870   18.9420 C   0  0  0  0  0  2  0  0  0  0  0  0
  -30.3890  -12.2580   17.7560 C   0  0  0  0  0  2  0  0  0  0  0  0
  -28.9350  -12.3150   18.2570 C   0  0  0  0  0  2  0  0  0  0  0  0
  -28.7260  -13.3820   19.3650 C   0  0  0  0  0  3  0  0  0  0  0  0
  -29.8210  -13.2870   20.4530 C   0  0  0  0  0  2  0  0  0  0  0  0
  -31.1380  -13.3620   19.7950 N   0  0  0  0  0  0  0  0  0  0  0  0
  -32.9520  -14.5110   19.0150 O   0  0  0  0  0  0  0  0  0  0  0  0
  -31.5220  -15.5410   20.3790 N   0  0  0  0  0  0  0  0  0  0  0  0
  -30.6870  -15.4770   20.9440 H   0  0  0  0  0  0  0  0  0  0  0  0
  -26.5230  -14.3100   20.3180 C   0  0  0  0  0  0  0  0  0  0  0  0
  -25.3730  -13.6950   20.7340 C   0  0  0  0  0  0  0  0  0  0  0  0
  -25.5970  -12.2930   20.5790 C   0  0  0  0  0  0  0  0  0  0  0  0
  -27.3840  -13.2930   19.9390 N   0  0  0  0  0  0  0  0  0  0  0  0
  -26.8320  -12.0680   20.1490 N   0  0  0  0  0  0  0  0  0  0  0  0
  -24.6860  -11.1530   20.7540 C   0  0  0  0  0  0  0  0  0  0  0  0
  -25.0150  -10.0650   21.5910 C   0  0  0  0  0  3  0  0  0  0  0  0
  -24.1140   -8.9910   21.7570 C   0  0  0  0  0  3  0  0  0  0  0  0
  -22.8680   -9.0000   21.0880 C   0  0  0  0  0  0  0  0  0  0  0  0
  -22.5550  -10.0750   20.2360 C   0  0  0  0  0  3  0  0  0  0  0  0
  -23.4560  -11.1380   20.0660 C   0  0  0  0  0  3  0  0  0  0  0  0
  -21.9430   -7.9870   21.1680 O   0  0  0  0  0  0  0  0  0  0  0  0
  -21.8340   -7.1990   22.2860 C   0  0  0  0  0  0  0  0  0  0  0  0
  -21.5870   -7.7470   23.5640 C   0  0  0  0  0  3  0  0  0  0  0  0
  -21.4110   -6.8960   24.6730 C   0  0  0  0  0  3  0  0  0  0  0  0
  -21.4730   -5.4990   24.5060 C   0  0  0  0  0  0  0  0  0  0  0  0
  -21.7140   -4.9520   23.2340 C   0  0  0  0  0  3  0  0  0  0  0  0
  -21.8900   -5.8000   22.1260 C   0  0  0  0  0  0  0  0  0  0  0  0
  -22.1010   -5.2670   20.8980 F   0  0  0  0  0  0  0  0  0  0  0  0
  -21.2960   -4.6800   25.5700 F   0  0  0  0  0  0  0  0  0  0  0  0
  -24.1040  -14.3690   21.1660 C   0  0  0  0  0  0  0  0  0  0  0  0
  -23.3490  -13.7420   22.0620 N   0  0  0  0  0  0  0  0  0  0  0  0
  -23.7960  -15.4850   20.7480 O   0  0  0  0  0  0  0  0  0  0  0  0
  -23.6150  -12.8390   22.4260 H   0  0  0  0  0  0  0  0  0  0  0  0
  -22.4980  -14.1770   22.3890 H   0  0  0  0  0  0  0  0  0  0  0  0
  -26.9010  -15.6450   20.2170 N   0  0  0  0  0  0  0  0  0  0  0  0
  -26.2750  -16.4070   20.4510 H   0  0  0  0  0  0  0  0  0  0  0  0
  -27.7960  -15.9620   19.8690 H   0  0  0  0  0  0  0  0  0  0  0  0
  2  3  1  0
  2  1  1  0
  4  5  1  0
  4  3  1  0
  6 17  2  0
  7  5  1  0
  7 12  1  0
  8 16  1  0
  8 18  1  0
  9 15  1  0
  9 11  1  0
 10 16  1  0
 11 12  2  0
 11 10  1  0
 13  7  2  0
 14 13  1  0
 14  9  2  0
 15  8  1  0
 16  6  1  0
 18 20  2  0
 19 18  1  0
 21 19  1  0
 22 31  2  0
 22 27  1  0
 23 19  1  0
 23 27  1  0
 24 23  1  0
 25 26  1  0
 25 24  1  0
 26 22  1  0
 27 28  2  0
 28 29  1  0
 30 29  2  0
 31 30  1  0
 32  6  1  0
 32 37  1  0
 32 33  1  0
 33 36  1  1
 33 34  1  0
 35 33  1  0
 37 40  1  0
 38 42  1  0
 38 37  1  0
 39 38  2  0
 42 41  1  0
 44 45  1  0
 44 42  1  0
 44 43  1  0
 46  1  1  0
 47 46  1  0
 48 47  1  0
 49 48  1  0
 49 50  1  0
 50 51  1  0
 52 61  1  0
 52 51  1  0
 53 59  1  0
 53 61  1  0
 54 59  1  0
 55 56  1  0
 55 54  1  0
 57 56  1  0
 57 66  1  0
 57 58  1  0
 59 58  1  0
 60 53  2  0
 61 62  1  0
 63 64  2  0
 64 83  1  0
 65 64  1  0
 65 68  1  0
 66 67  1  0
 66 63  1  0
 67 65  2  0
 68 69  1  0
 69 70  2  0
 71 74  1  0
 71 70  1  0
 72 71  2  0
 73 72  1  0
 73 68  2  0
 74 75  1  0
 75 76  1  0
 76 77  2  0
 78 77  1  0
 78 82  1  0
 79 78  2  0
 80 75  2  0
 80 79  1  0
 81 80  1  0
 83 84  1  0
 84 87  1  0
 84 86  1  0
 85 83  2  0
 88 63  1  0
 88 89  1  0
 90 88  1  0
M  ISO  4   4 101   5 101  53 100  61 100
M  END
>  <TORSDO>  (4) 
F 26

>  <SCORE>  (4) 
-9.736

>  <name>  (4) 
3

>  <ligand_id>  (4) 
3

>  <original_smiles>  (4) 
[H]c1c([H])c([H])c2c(c1[H])C([H])([H])C([H])([H])C([H])([H])C2([H])N([H])C(=O)C1([H])N(C(=O)C([H])(N([H])C(=O)C([H])(N([H])C([H])([H])[H])C([H])([H])[H])C(C([H])([H])[H])(C([H])([H])[H])C([H])([H])[H])C([H])([H])c2c([H])c(OC([H])([H])C([H])([H])OC([H])([H])C([H])([H])OC([H])([H])C([H])([H])OC([H])([H])C([H])([H])N([H])C(=O)N3C([H])([H])C([H])([H])C([H])([H])C([H])(n4nc(-c5c([H])c([H])c(Oc6c([H])c([H])c(F)c([H])c6F)c([H])c5[H])c(C(=O)N([H])[H])c4N([H])[H])C3([H])[H])c([H])c([H])c2C1([H])[H]

>  <smiles>  (4) 
[H]c1c([H])c([H])c2c(c1[H])C([H])([H])C([H])([H])C([H])([H])C2([H])N([H])C(=O)C1([H])N(C(=O)C([H])(N([H])C(=O)C([H])(N([H])C([H])([H])[H])C([H])([H])[H])C(C([H])([H])[H])(C([H])([H])[H])C([H])([H])[H])C([H])([H])c2c([H])c(OC([H])([H])C([H])([H])OC([H])([H])C([H])([H])OC([H])([H])C([H])([H])OC([H])([H])C([H])([H])N([H])C(=O)N3C([H])([H])C([H])([H])C([H])([H])C([H])(n4nc(-c5c([H])c([H])c(Oc6c([H])c([H])c(F)c([H])c6F)c([H])c5[H])c(C(=O)N([H])[H])c4N([H])[H])C3([H])[H])c([H])c([H])c2C1([H])[H]

$$$$
4:0:0
     RDKit          3D

 87 94  0  0  1  0  0  0  0  0999 V2000
  -29.1130  -22.7980   20.1480 O   0  0  0  0  0  0  0  0  0  0  0  0
  -29.2650  -24.1800   20.5710 C   0  0  0  0  0  2  0  0  0  0  0  0
  -28.1950  -25.1410   19.9510 C   0  0  0  0  0  2  0  0  0  0  0  0
  -28.3440  -26.5690   20.2300 O   0  0  0  0  0  0  0  0  0  0  0  0
  -24.6030  -31.8820   23.2540 C   0  0  0  0  0  0  0  0  0  0  0  0
  -27.2030  -27.3700   20.1730 C   0  0  0  0  0  0  0  0  0  0  0  0
  -23.3880  -30.4910   21.6140 C   0  0  0  0  0  3  0  0  0  0  0  0
  -24.8290  -28.9470   20.1790 C   0  0  0  0  0  0  0  0  0  0  0  0
  -25.9230  -30.8160   21.4190 C   0  0  0  0  0  2  0  0  0  0  0  0
  -25.9960  -29.4430   20.7740 C   0  0  0  0  0  0  0  0  0  0  0  0
  -27.1840  -28.6630   20.7670 C   0  0  0  0  0  3  0  0  0  0  0  0
  -26.0140  -26.9200   19.5460 C   0  0  0  0  0  3  0  0  0  0  0  0
  -24.8370  -27.6890   19.5590 C   0  0  0  0  0  3  0  0  0  0  0  0
  -23.5920  -29.8180   20.2320 C   0  0  0  0  0  2  0  0  0  0  0  0
  -24.6560  -31.0790   22.1530 N   0  0  0  0  0  0  0  0  0  0  0  0
  -23.5240  -32.1610   23.7950 O   0  0  0  0  0  0  0  0  0  0  0  0
  -22.7290  -29.4710   22.5730 C   0  0  0  0  0  0  0  0  0  0  0  0
  -21.4040  -29.2960   22.4460 N   0  0  0  0  0  0  0  0  0  0  0  0
  -23.4090  -28.8420   23.3890 O   0  0  0  0  0  0  0  0  0  0  0  0
  -20.9160  -29.8550   21.7610 H   0  0  0  0  0  0  0  0  0  0  0  0
  -18.0240  -28.1080   22.9390 C   0  0  0  0  0  0  0  0  0  0  0  0
  -20.5820  -28.3620   23.2170 C   0  0  0  0  0  3  0  0  0  0  0  0
  -20.6820  -26.9290   22.6440 C   0  0  0  0  0  2  0  0  0  0  0  0
  -19.5830  -26.6070   21.6270 C   0  0  0  0  0  2  0  0  0  0  0  0
  -18.2000  -26.7570   22.2670 C   0  0  0  0  0  2  0  0  0  0  0  0
  -19.1430  -28.8680   23.3700 C   0  0  0  0  0  0  0  0  0  0  0  0
  -18.9250  -30.1340   23.9590 C   0  0  0  0  0  3  0  0  0  0  0  0
  -17.6220  -30.6390   24.1180 C   0  0  0  0  0  3  0  0  0  0  0  0
  -16.5170  -29.8760   23.7040 C   0  0  0  0  0  3  0  0  0  0  0  0
  -16.7190  -28.6120   23.1200 C   0  0  0  0  0  3  0  0  0  0  0  0
  -25.8930  -32.5060   23.8720 C   0  0  0  0  0  3  0  0  0  0  0  0
  -26.4080  -31.7310   25.1470 C   0  0  1  0  0  0  0  0  0  0  0  0
  -25.3180  -31.5010   26.2190 C   0  0  0  0  0  1  0  0  0  0  0  0
  -26.9820  -30.3500   24.7520 C   0  0  0  0  0  1  0  0  0  0  0  0
  -27.5640  -32.5190   25.8080 C   0  0  0  0  0  1  0  0  0  0  0  0
  -25.5920  -33.9060   24.2030 N   0  0  0  0  0  0  0  0  0  0  0  0
  -25.9250  -34.9570   23.4410 C   0  0  0  0  0  0  0  0  0  0  0  0
  -26.5890  -34.8480   22.4060 O   0  0  0  0  0  0  0  0  0  0  0  0
  -25.0030  -34.0650   25.0080 H   0  0  0  0  0  0  0  0  0  0  0  0
  -24.2020  -36.7560   23.0930 C   0  0  0  0  0  1  0  0  0  0  0  0
  -25.4460  -36.3470   23.8980 C   0  0  0  0  0  3  0  0  0  0  0  0
  -27.5900  -37.2240   24.7140 C   0  0  0  0  0  1  0  0  0  0  0  0
  -26.4820  -37.3950   23.7780 N   0  0  0  0  0  0  0  0  0  0  0  0
  -26.0800  -38.3170   23.9270 H   0  0  0  0  0  0  0  0  0  0  0  0
  -29.8660  -21.8260   20.9130 C   0  0  0  0  0  2  0  0  0  0  0  0
  -29.9940  -20.3890   20.2800 C   0  0  0  0  0  2  0  0  0  0  0  0
  -29.6060  -19.3250   21.1790 O   0  0  0  0  0  0  0  0  0  0  0  0
  -30.3560  -18.0820   21.1900 C   0  0  0  0  0  2  0  0  0  0  0  0
  -29.9920  -17.0260   20.1000 C   0  0  0  0  0  2  0  0  0  0  0  0
  -30.6580  -14.5630   20.1340 C   0  0  0  0  0  0  0  0  0  0  0  0
  -30.3320  -12.3860   19.0110 C   0  0  0  0  0  2  0  0  0  0  0  0
  -29.3420  -12.5990   17.8440 C   0  0  0  0  0  2  0  0  0  0  0  0
  -27.8850  -12.4670   18.3310 C   0  0  0  0  0  2  0  0  0  0  0  0
  -27.6040  -13.2910   19.6150 C   0  0  0  0  0  3  0  0  0  0  0  0
  -28.7030  -13.0590   20.6790 C   0  0  0  0  0  2  0  0  0  0  0  0
  -30.0040  -13.3660   20.0610 N   0  0  0  0  0  0  0  0  0  0  0  0
  -31.7760  -14.7380   19.6440 O   0  0  0  0  0  0  0  0  0  0  0  0
  -29.9110  -15.6090   20.5580 N   0  0  0  0  0  0  0  0  0  0  0  0
  -29.0360  -15.3490   20.9880 H   0  0  0  0  0  0  0  0  0  0  0  0
  -25.2410  -13.9170   20.4180 C   0  0  0  0  0  0  0  0  0  0  0  0
  -24.1800  -13.1550   20.8240 C   0  0  0  0  0  0  0  0  0  0  0  0
  -24.6260  -11.7980   20.7700 C   0  0  0  0  0  0  0  0  0  0  0  0
  -26.2680  -13.0270   20.1440 N   0  0  0  0  0  0  0  0  0  0  0  0
  -25.9040  -11.7470   20.4140 N   0  0  0  0  0  0  0  0  0  0  0  0
  -23.8950  -10.5420   20.9820 C   0  0  0  0  0  0  0  0  0  0  0  0
  -24.3570   -9.5630   21.8880 C   0  0  0  0  0  3  0  0  0  0  0  0
  -23.6260   -8.3710   22.0880 C   0  0  0  0  0  3  0  0  0  0  0  0
  -22.4190   -8.1520   21.3830 C   0  0  0  0  0  0  0  0  0  0  0  0
  -21.9750   -9.1210   20.4660 C   0  0  0  0  0  3  0  0  0  0  0  0
  -22.7060  -10.3040   20.2640 C   0  0  0  0  0  3  0  0  0  0  0  0
  -21.6570   -7.0150   21.4950 O   0  0  0  0  0  0  0  0  0  0  0  0
  -21.6560   -6.2580   22.6390 C   0  0  0  0  0  0  0  0  0  0  0  0
  -21.3040   -6.8040   23.8930 C   0  0  0  0  0  3  0  0  0  0  0  0
  -21.2500   -5.9740   25.0310 C   0  0  0  0  0  3  0  0  0  0  0  0
  -21.5350   -4.6010   24.9170 C   0  0  0  0  0  0  0  0  0  0  0  0
  -21.8800   -4.0550   23.6680 C   0  0  0  0  0  3  0  0  0  0  0  0
  -21.9370   -4.8820   22.5310 C   0  0  0  0  0  0  0  0  0  0  0  0
  -22.2490   -4.3460   21.3260 F   0  0  0  0  0  0  0  0  0  0  0  0
  -21.4760   -3.8020   26.0080 F   0  0  0  0  0  0  0  0  0  0  0  0
  -22.7990  -13.6450   21.1510 C   0  0  0  0  0  0  0  0  0  0  0  0
  -22.0980  -12.9520   22.0420 N   0  0  0  0  0  0  0  0  0  0  0  0
  -22.3520  -14.6760   20.6520 O   0  0  0  0  0  0  0  0  0  0  0  0
  -22.4730  -12.1180   22.4680 H   0  0  0  0  0  0  0  0  0  0  0  0
  -21.1730  -13.2630   22.3040 H   0  0  0  0  0  0  0  0  0  0  0  0
  -25.4140  -15.2870   20.2390 N   0  0  0  0  0  0  0  0  0  0  0  0
  -24.6560  -15.9470   20.3780 H   0  0  0  0  0  0  0  0  0  0  0  0
  -26.2510  -15.7180   19.8670 H   0  0  0  0  0  0  0  0  0  0  0  0
  1  2  1  0
  1 45  1  0
  3  4  1  0
  3  2  1  0
  5 16  2  0
  6  4  1  0
  6 11  1  0
  7 15  1  0
  7 17  1  0
  8 14  1  0
  8 10  1  0
  9 15  1  0
 10  9  1  0
 11 10  2  0
 12 13  1  0
 12  6  2  0
 13  8  2  0
 14  7  1  0
 15  5  1  0
 17 19  2  0
 18 17  1  0
 20 18  1  0
 21 30  2  0
 21 26  1  0
 22 18  1  0
 22 26  1  0
 23 22  1  0
 24 25  1  0
 24 23  1  0
 25 21  1  0
 26 27  2  0
 27 28  1  0
 29 28  2  0
 30 29  1  0
 31  5  1  0
 31 36  1  0
 31 32  1  0
 32 35  1  1
 32 33  1  0
 34 32  1  0
 36 39  1  0
 37 41  1  0
 37 36  1  0
 38 37  2  0
 41 40  1  0
 43 41  1  0
 43 44  1  0
 43 42  1  0
 46 45  1  0
 46 47  1  0
 47 48  1  0
 49 58  1  0
 49 48  1  0
 50 58  1  0
 51 56  1  0
 52 53  1  0
 52 51  1  0
 54 53  1  0
 54 63  1  0
 54 55  1  0
 56 50  1  0
 56 55  1  0
 57 50  2  0
 58 59  1  0
 60 61  2  0
 61 80  1  0
 62 61  1  0
 62 65  1  0
 63 64  1  0
 63 60  1  0
 64 62  2  0
 65 66  1  0
 66 67  2  0
 68 71  1  0
 68 67  1  0
 69 68  2  0
 70 69  1  0
 70 65  2  0
 71 72  1  0
 72 73  1  0
 73 74  2  0
 75 74  1  0
 75 79  1  0
 76 75  2  0
 77 72  2  0
 77 76  1  0
 78 77  1  0
 80 81  1  0
 81 84  1  0
 81 83  1  0
 82 80  2  0
 85 86  1  0
 85 60  1  0
 87 85  1  0
M  ISO  4   3 101   4 101  50 100  58 100
M  END
>  <TORSDO>  (5) 
F 23

>  <SCORE>  (5) 
-12.462

>  <name>  (5) 
4

>  <ligand_id>  (5) 
4

>  <original_smiles>  (5) 
[H]c1c([H])c([H])c2c(c1[H])C([H])([H])C([H])([H])C([H])([H])C2([H])N([H])C(=O)C1([H])N(C(=O)C([H])(N([H])C(=O)C([H])(N([H])C([H])([H])[H])C([H])([H])[H])C(C([H])([H])[H])(C([H])([H])[H])C([H])([H])[H])C([H])([H])c2c([H])c(OC([H])([H])C([H])([H])OC([H])([H])C([H])([H])OC([H])([H])C([H])([H])N([H])C(=O)N3C([H])([H])C([H])([H])C([H])([H])C([H])(n4nc(-c5c([H])c([H])c(Oc6c([H])c([H])c(F)c([H])c6F)c([H])c5[H])c(C(=O)N([H])[H])c4N([H])[H])C3([H])[H])c([H])c([H])c2C1([H])[H]

>  <smiles>  (5) 
[H]c1c([H])c([H])c2c(c1[H])C([H])([H])C([H])([H])C([H])([H])C2([H])N([H])C(=O)C1([H])N(C(=O)C([H])(N([H])C(=O)C([H])(N([H])C([H])([H])[H])C([H])([H])[H])C(C([H])([H])[H])(C([H])([H])[H])C([H])([H])[H])C([H])([H])c2c([H])c(OC([H])([H])C([H])([H])OC([H])([H])C([H])([H])OC([H])([H])C([H])([H])N([H])C(=O)N3C([H])([H])C([H])([H])C([H])([H])C([H])(n4nc(-c5c([H])c([H])c(Oc6c([H])c([H])c(F)c([H])c6F)c([H])c5[H])c(C(=O)N([H])[H])c4N([H])[H])C3([H])[H])c([H])c([H])c2C1([H])[H]

$$$$
5:0:0
     RDKit          3D

 89 97  0  0  1  0  0  0  0  0999 V2000
  -28.9150  -21.3680   20.4850 C   0  0  0  0  0  2  0  0  0  0  0  0
  -30.6410  -14.6660   20.1610 C   0  0  0  0  0  0  0  0  0  0  0  0
  -30.3580  -12.4400   19.1050 C   0  0  0  0  0  2  0  0  0  0  0  0
  -29.3840  -12.5730   17.9160 C   0  0  0  0  0  2  0  0  0  0  0  0
  -27.9240  -12.4220   18.3900 C   0  0  0  0  0  2  0  0  0  0  0  0
  -27.6040  -13.2800   19.6440 C   0  0  0  0  0  3  0  0  0  0  0  0
  -28.6970  -13.1470   20.7250 C   0  0  0  0  0  2  0  0  0  0  0  0
  -29.9780  -13.4710   20.0910 N   0  0  0  0  0  0  0  0  0  0  0  0
  -31.8320  -14.7400   19.8400 O   0  0  0  0  0  0  0  0  0  0  0  0
  -28.8960  -20.1350   19.4960 C   0  0  0  0  0  0  0  0  0  0  0  0
  -28.7700  -17.6960   18.9470 C   0  0  0  0  0  2  0  0  0  0  0  0
  -29.4420  -18.2820   21.2060 C   0  0  0  0  0  3  0  0  0  0  0  0
  -29.8730  -16.6140   18.9480 C   0  0  0  0  0  2  0  0  0  0  0  0
  -29.9390  -16.7610   21.3480 C   0  0  0  0  0  3  0  0  0  0  0  0
  -29.0820  -18.8080   19.8670 N   0  0  0  0  0  0  0  0  0  0  0  0
  -29.8800  -15.8210   20.1870 N   0  0  0  0  0  0  0  0  0  0  0  0
  -28.6580  -20.4120   18.3140 O   0  0  0  0  0  0  0  0  0  0  0  0
  -25.2370  -13.8640   20.4470 C   0  0  0  0  0  0  0  0  0  0  0  0
  -24.1820  -13.0850   20.8380 C   0  0  0  0  0  0  0  0  0  0  0  0
  -24.6450  -11.7350   20.7820 C   0  0  0  0  0  0  0  0  0  0  0  0
  -26.2740  -12.9890   20.1720 N   0  0  0  0  0  0  0  0  0  0  0  0
  -25.9270  -11.7030   20.4370 N   0  0  0  0  0  0  0  0  0  0  0  0
  -23.9270  -10.4700   20.9810 C   0  0  0  0  0  0  0  0  0  0  0  0
  -24.3740   -9.5030   21.9070 C   0  0  0  0  0  3  0  0  0  0  0  0
  -23.6550   -8.3030   22.0950 C   0  0  0  0  0  3  0  0  0  0  0  0
  -22.4740   -8.0600   21.3530 C   0  0  0  0  0  0  0  0  0  0  0  0
  -22.0450   -9.0160   20.4140 C   0  0  0  0  0  3  0  0  0  0  0  0
  -22.7660  -10.2080   20.2260 C   0  0  0  0  0  3  0  0  0  0  0  0
  -21.7240   -6.9130   21.4490 O   0  0  0  0  0  0  0  0  0  0  0  0
  -21.6740   -6.1820   22.6080 C   0  0  0  0  0  0  0  0  0  0  0  0
  -21.2240   -6.7410   23.8240 C   0  0  0  0  0  3  0  0  0  0  0  0
  -21.1220   -5.9350   24.9750 C   0  0  0  0  0  3  0  0  0  0  0  0
  -21.4600   -4.5700   24.9110 C   0  0  0  0  0  0  0  0  0  0  0  0
  -21.9020   -4.0100   23.7000 C   0  0  0  0  0  3  0  0  0  0  0  0
  -22.0060   -4.8130   22.5510 C   0  0  0  0  0  0  0  0  0  0  0  0
  -22.4130   -4.2630   21.3820 F   0  0  0  0  0  0  0  0  0  0  0  0
  -21.3540   -3.7930   26.0150 F   0  0  0  0  0  0  0  0  0  0  0  0
  -22.7920  -13.5570   21.1530 C   0  0  0  0  0  0  0  0  0  0  0  0
  -22.0870  -12.8500   22.0290 N   0  0  0  0  0  0  0  0  0  0  0  0
  -22.3400  -14.5880   20.6560 O   0  0  0  0  0  0  0  0  0  0  0  0
  -22.4670  -12.0170   22.4540 H   0  0  0  0  0  0  0  0  0  0  0  0
  -21.1560  -13.1480   22.2820 H   0  0  0  0  0  0  0  0  0  0  0  0
  -25.3980  -15.2370   20.2800 N   0  0  0  0  0  0  0  0  0  0  0  0
  -24.6440  -15.8970   20.4310 H   0  0  0  0  0  0  0  0  0  0  0  0
  -26.2540  -15.6750   19.9680 H   0  0  0  0  0  0  0  0  0  0  0  0
  -28.7580  -22.6550   19.7750 O   0  0  0  0  0  0  0  0  0  0  0  0
  -28.5340  -23.8980   20.5240 C   0  0  0  0  0  2  0  0  0  0  0  0
  -28.5460  -25.2230   19.6380 C   0  0  0  0  0  2  0  0  0  0  0  0
  -28.4230  -26.5570   20.2660 O   0  0  0  0  0  0  0  0  0  0  0  0
  -24.5720  -31.8730   23.2220 C   0  0  0  0  0  0  0  0  0  0  0  0
  -27.2650  -27.3440   20.1930 C   0  0  0  0  0  0  0  0  0  0  0  0
  -23.4050  -30.4740   21.5550 C   0  0  0  0  0  3  0  0  0  0  0  0
  -24.8860  -28.9340   20.1530 C   0  0  0  0  0  0  0  0  0  0  0  0
  -25.9440  -30.8080   21.4180 C   0  0  0  0  0  2  0  0  0  0  0  0
  -26.0410  -29.4320   20.7690 C   0  0  0  0  0  0  0  0  0  0  0  0
  -27.2290  -28.6470   20.7790 C   0  0  0  0  0  3  0  0  0  0  0  0
  -26.0780  -26.8860   19.5750 C   0  0  0  0  0  3  0  0  0  0  0  0
  -24.9060  -27.6670   19.5510 C   0  0  0  0  0  3  0  0  0  0  0  0
  -23.6470  -29.8040   20.1770 C   0  0  0  0  0  2  0  0  0  0  0  0
  -24.6580  -31.0680   22.1220 N   0  0  0  0  0  0  0  0  0  0  0  0
  -23.4780  -32.1430   23.7380 O   0  0  0  0  0  0  0  0  0  0  0  0
  -22.7310  -29.4500   22.5000 C   0  0  0  0  0  0  0  0  0  0  0  0
  -21.4080  -29.2720   22.3520 N   0  0  0  0  0  0  0  0  0  0  0  0
  -23.3980  -28.8190   23.3240 O   0  0  0  0  0  0  0  0  0  0  0  0
  -20.9290  -29.8320   21.6590 H   0  0  0  0  0  0  0  0  0  0  0  0
  -18.0180  -28.1010   22.8180 C   0  0  0  0  0  0  0  0  0  0  0  0
  -20.5760  -28.3310   23.1040 C   0  0  0  0  0  3  0  0  0  0  0  0
  -20.6670  -26.9070   22.5090 C   0  0  0  0  0  2  0  0  0  0  0  0
  -19.5680  -26.6100   21.4840 C   0  0  0  0  0  2  0  0  0  0  0  0
  -18.1840  -26.7590   22.1230 C   0  0  0  0  0  2  0  0  0  0  0  0
  -19.1410  -28.8460   23.2650 C   0  0  0  0  0  0  0  0  0  0  0  0
  -18.9310  -30.1020   23.8730 C   0  0  0  0  0  3  0  0  0  0  0  0
  -17.6300  -30.6130   24.0400 C   0  0  0  0  0  3  0  0  0  0  0  0
  -16.5200  -29.8640   23.6100 C   0  0  0  0  0  3  0  0  0  0  0  0
  -16.7150  -28.6090   23.0050 C   0  0  0  0  0  3  0  0  0  0  0  0
  -25.8410  -32.5080   23.8700 C   0  0  0  0  0  3  0  0  0  0  0  0
  -26.3270  -31.7450   25.1630 C   0  0  1  0  0  0  0  0  0  0  0  0
  -25.2090  -31.5130   26.2070 C   0  0  0  0  0  1  0  0  0  0  0  0
  -26.9180  -30.3640   24.7940 C   0  0  0  0  0  1  0  0  0  0  0  0
  -27.4620  -32.5430   25.8480 C   0  0  0  0  0  1  0  0  0  0  0  0
  -25.5250  -33.9080   24.1860 N   0  0  0  0  0  0  0  0  0  0  0  0
  -25.8710  -34.9570   23.4270 C   0  0  0  0  0  0  0  0  0  0  0  0
  -26.5610  -34.8480   22.4100 O   0  0  0  0  0  0  0  0  0  0  0  0
  -24.9180  -34.0670   24.9770 H   0  0  0  0  0  0  0  0  0  0  0  0
  -24.1520  -36.7480   23.0240 C   0  0  0  0  0  1  0  0  0  0  0  0
  -25.3740  -36.3480   23.8650 C   0  0  0  0  0  3  0  0  0  0  0  0
  -27.4890  -37.2370   24.7410 C   0  0  0  0  0  1  0  0  0  0  0  0
  -26.4090  -37.4010   23.7720 N   0  0  0  0  0  0  0  0  0  0  0  0
  -25.9980  -38.3210   23.9070 H   0  0  0  0  0  0  0  0  0  0  0  0
  2 16  1  0
  3  8  1  0
  4  5  1  0
  4  3  1  0
  6  5  1  0
  6 21  1  0
  6  7  1  0
  8  2  1  0
  8  7  1  0
  9  2  2  0
 10 15  1  0
 10  1  1  0
 11 13  1  0
 11 15  1  0
 12 14  2  0
 13 16  1  0
 15 12  1  0
 16 14  1  0
 17 10  2  0
 18 19  2  0
 19 38  1  0
 20 19  1  0
 20 23  1  0
 21 22  1  0
 21 18  1  0
 22 20  2  0
 23 24  1  0
 24 25  2  0
 26 29  1  0
 26 25  1  0
 27 26  2  0
 28 27  1  0
 28 23  2  0
 29 30  1  0
 30 31  1  0
 31 32  2  0
 33 32  1  0
 33 37  1  0
 34 33  2  0
 35 30  2  0
 35 34  1  0
 36 35  1  0
 38 39  1  0
 39 42  1  0
 39 41  1  0
 40 38  2  0
 43 44  1  0
 43 18  1  0
 45 43  1  0
 46  1  1  0
 46 47  1  0
 48 49  1  0
 48 47  1  0
 50 61  2  0
 51 49  1  0
 51 56  1  0
 52 60  1  0
 52 62  1  0
 53 59  1  0
 53 55  1  0
 54 60  1  0
 55 56  2  0
 55 54  1  0
 57 51  2  0
 58 57  1  0
 58 53  2  0
 59 52  1  0
 60 50  1  0
 62 64  2  0
 63 62  1  0
 65 63  1  0
 66 75  2  0
 66 71  1  0
 67 63  1  0
 67 71  1  0
 68 67  1  0
 69 70  1  0
 69 68  1  0
 70 66  1  0
 71 72  2  0
 72 73  1  0
 74 73  2  0
 75 74  1  0
 76 50  1  0
 76 81  1  0
 76 77  1  0
 77 80  1  1
 77 78  1  0
 79 77  1  0
 81 84  1  0
 82 86  1  0
 82 81  1  0
 83 82  2  0
 86 85  1  0
 88 86  1  0
 88 89  1  0
 88 87  1  0
M  ISO  4   2 100  16 100  48 101  49 101
M  END
>  <TORSDO>  (6) 
F 19

>  <SCORE>  (6) 
-14.100

>  <name>  (6) 
5

>  <ligand_id>  (6) 
5

>  <original_smiles>  (6) 
[H]c1c([H])c([H])c2c(c1[H])C([H])([H])C([H])([H])C([H])([H])C2([H])N([H])C(=O)C1([H])N(C(=O)C([H])(N([H])C(=O)C([H])(N([H])C([H])([H])[H])C([H])([H])[H])C(C([H])([H])[H])(C([H])([H])[H])C([H])([H])[H])C([H])([H])c2c([H])c(OC([H])([H])C([H])([H])OC([H])([H])C(=O)N3C([H])([H])C([H])([H])N(C(=O)N4C([H])([H])C([H])([H])C([H])([H])C([H])(n5nc(-c6c([H])c([H])c(Oc7c([H])c([H])c(F)c([H])c7F)c([H])c6[H])c(C(=O)N([H])[H])c5N([H])[H])C4([H])[H])C([H])([H])C3([H])[H])c([H])c([H])c2C1([H])[H]

>  <smiles>  (6) 
[H]c1c([H])c([H])c2c(c1[H])C([H])([H])C([H])([H])C([H])([H])C2([H])N([H])C(=O)C1([H])N(C(=O)C([H])(N([H])C(=O)C([H])(N([H])C([H])([H])[H])C([H])([H])[H])C(C([H])([H])[H])(C([H])([H])[H])C([H])([H])[H])C([H])([H])c2c([H])c(OC([H])([H])C([H])([H])OC([H])([H])C(=O)N3C([H])([H])C([H])([H])N(C(=O)N4C([H])([H])C([H])([H])C([H])([H])C([H])(n5nc(-c6c([H])c([H])c(Oc7c([H])c([H])c(F)c([H])c7F)c([H])c6[H])c(C(=O)N([H])[H])c5N([H])[H])C4([H])[H])C([H])([H])C3([H])[H])c([H])c([H])c2C1([H])[H]

$$$$
6:0:0
     RDKit          3D

 94103  0  0  1  0  0  0  0  0999 V2000
  -32.7060  -25.4190   20.2160 C   0  0  0  0  0  3  0  0  0  0  0  0
  -32.6000  -24.0160   20.2590 C   0  0  0  0  0  3  0  0  0  0  0  0
  -31.5850  -26.2160   20.5130 C   0  0  0  0  0  3  0  0  0  0  0  0
  -30.2620  -24.2020   20.9060 C   0  0  0  0  0  3  0  0  0  0  0  0
  -31.3840  -23.3900   20.6050 C   0  0  0  0  0  0  0  0  0  0  0  0
  -30.3580  -25.6130   20.8550 C   0  0  0  0  0  0  0  0  0  0  0  0
  -30.3500  -21.1160   21.0510 C   0  0  0  0  0  3  0  0  0  0  0  0
  -31.3600  -21.9120   20.6430 C   0  0  0  0  0  3  0  0  0  0  0  0
  -31.4610  -18.8730   20.6160 C   0  0  0  0  0  3  0  0  0  0  0  0
  -29.2170  -18.9430   21.5260 C   0  0  0  0  0  3  0  0  0  0  0  0
  -31.4180  -17.4640   20.6130 C   0  0  0  0  0  3  0  0  0  0  0  0
  -29.1700  -17.5340   21.5220 C   0  0  0  0  0  3  0  0  0  0  0  0
  -30.3560  -19.6350   21.0610 C   0  0  0  0  0  0  0  0  0  0  0  0
  -30.2590  -16.7750   21.0450 C   0  0  0  0  0  0  0  0  0  0  0  0
  -30.6810  -14.4580   20.1940 C   0  0  0  0  0  0  0  0  0  0  0  0
  -30.2940  -12.3660   18.9470 C   0  0  0  0  0  2  0  0  0  0  0  0
  -29.3040  -12.6380   17.7970 C   0  0  0  0  0  2  0  0  0  0  0  0
  -27.8480  -12.4970   18.2820 C   0  0  0  0  0  2  0  0  0  0  0  0
  -27.5770  -13.2800   19.5960 C   0  0  0  0  0  3  0  0  0  0  0  0
  -28.6750  -12.9870   20.6440 C   0  0  0  0  0  2  0  0  0  0  0  0
  -29.9850  -13.2990   20.0420 N   0  0  0  0  0  0  0  0  0  0  0  0
  -31.7320  -14.6830   19.5860 O   0  0  0  0  0  0  0  0  0  0  0  0
  -30.1150  -15.3540   21.0240 N   0  0  0  0  0  0  0  0  0  0  0  0
  -29.3090  -14.9940   21.5100 H   0  0  0  0  0  0  0  0  0  0  0  0
  -25.2180  -13.8760   20.4400 C   0  0  0  0  0  0  0  0  0  0  0  0
  -24.1590  -13.0960   20.8220 C   0  0  0  0  0  0  0  0  0  0  0  0
  -24.6030  -11.7430   20.7030 C   0  0  0  0  0  0  0  0  0  0  0  0
  -26.2410  -12.9980   20.1190 N   0  0  0  0  0  0  0  0  0  0  0  0
  -25.8750  -11.7060   20.3310 N   0  0  0  0  0  0  0  0  0  0  0  0
  -23.8700  -10.4800   20.8690 C   0  0  0  0  0  0  0  0  0  0  0  0
  -24.3220   -9.4780   21.7570 C   0  0  0  0  0  3  0  0  0  0  0  0
  -23.5950   -8.2780   21.9110 C   0  0  0  0  0  3  0  0  0  0  0  0
  -22.4010   -8.0730   21.1790 C   0  0  0  0  0  0  0  0  0  0  0  0
  -21.9670   -9.0640   20.2820 C   0  0  0  0  0  3  0  0  0  0  0  0
  -22.6960  -10.2560   20.1250 C   0  0  0  0  0  3  0  0  0  0  0  0
  -21.6410   -6.9290   21.2470 O   0  0  0  0  0  0  0  0  0  0  0  0
  -21.5960   -6.1610   22.3830 C   0  0  0  0  0  0  0  0  0  0  0  0
  -21.1950   -6.6950   23.6270 C   0  0  0  0  0  3  0  0  0  0  0  0
  -21.0950   -5.8540   24.7550 C   0  0  0  0  0  3  0  0  0  0  0  0
  -21.3860   -4.4810   24.6370 C   0  0  0  0  0  0  0  0  0  0  0  0
  -21.7800   -3.9480   23.3970 C   0  0  0  0  0  3  0  0  0  0  0  0
  -21.8810   -4.7850   22.2730 C   0  0  0  0  0  0  0  0  0  0  0  0
  -22.2420   -4.2620   21.0770 F   0  0  0  0  0  0  0  0  0  0  0  0
  -21.2830   -3.6710   25.7170 F   0  0  0  0  0  0  0  0  0  0  0  0
  -22.7820  -13.5730   21.1850 C   0  0  0  0  0  0  0  0  0  0  0  0
  -22.0910  -12.8480   22.0580 N   0  0  0  0  0  0  0  0  0  0  0  0
  -22.3270  -14.6220   20.7320 O   0  0  0  0  0  0  0  0  0  0  0  0
  -22.4680  -11.9960   22.4480 H   0  0  0  0  0  0  0  0  0  0  0  0
  -21.1730  -13.1540   22.3480 H   0  0  0  0  0  0  0  0  0  0  0  0
  -25.3890  -15.2520   20.3210 N   0  0  0  0  0  0  0  0  0  0  0  0
  -24.6350  -15.9040   20.5040 H   0  0  0  0  0  0  0  0  0  0  0  0
  -26.2320  -15.7010   19.9830 H   0  0  0  0  0  0  0  0  0  0  0  0
  -29.1500  -26.4930   21.1300 C   0  0  0  0  0  2  0  0  0  0  0  0
  -28.4270  -26.7300   19.9270 O   0  0  0  0  0  0  0  0  0  0  0  0
  -24.5830  -31.8360   23.1450 C   0  0  0  0  0  0  0  0  0  0  0  0
  -27.2690  -27.4620   20.0300 C   0  0  0  0  0  0  0  0  0  0  0  0
  -23.3770  -30.4160   21.5140 C   0  0  0  0  0  3  0  0  0  0  0  0
  -24.8410  -28.9010   20.0750 C   0  0  0  0  0  0  0  0  0  0  0  0
  -25.8900  -30.8220   21.2860 C   0  0  0  0  0  2  0  0  0  0  0  0
  -25.9920  -29.4490   20.6570 C   0  0  0  0  0  0  0  0  0  0  0  0
  -27.2080  -28.7330   20.6470 C   0  0  0  0  0  3  0  0  0  0  0  0
  -26.1080  -26.9270   19.4390 C   0  0  0  0  0  3  0  0  0  0  0  0
  -24.8910  -27.6340   19.4690 C   0  0  0  0  0  3  0  0  0  0  0  0
  -23.5820  -29.7370   20.1310 C   0  0  0  0  0  2  0  0  0  0  0  0
  -24.6350  -31.0390   22.0390 N   0  0  0  0  0  0  0  0  0  0  0  0
  -23.5050  -32.0890   23.7010 O   0  0  0  0  0  0  0  0  0  0  0  0
  -22.7560  -29.3830   22.4820 C   0  0  0  0  0  0  0  0  0  0  0  0
  -21.4320  -29.1850   22.3740 N   0  0  0  0  0  0  0  0  0  0  0  0
  -23.4600  -28.7640   23.2830 O   0  0  0  0  0  0  0  0  0  0  0  0
  -20.9250  -29.7350   21.6960 H   0  0  0  0  0  0  0  0  0  0  0  0
  -18.0800  -27.9530   22.9150 C   0  0  0  0  0  0  0  0  0  0  0  0
  -20.6380  -28.2360   23.1540 C   0  0  0  0  0  3  0  0  0  0  0  0
  -20.7480  -26.8090   22.5710 C   0  0  0  0  0  2  0  0  0  0  0  0
  -19.6370  -26.4780   21.5690 C   0  0  0  0  0  2  0  0  0  0  0  0
  -18.2630  -26.6080   22.2310 C   0  0  0  0  0  2  0  0  0  0  0  0
  -19.1960  -28.7250   23.3320 C   0  0  0  0  0  0  0  0  0  0  0  0
  -18.9730  -29.9840   23.9310 C   0  0  0  0  0  3  0  0  0  0  0  0
  -17.6670  -30.4720   24.1150 C   0  0  0  0  0  3  0  0  0  0  0  0
  -16.5650  -29.6960   23.7160 C   0  0  0  0  0  3  0  0  0  0  0  0
  -16.7720  -28.4400   23.1210 C   0  0  0  0  0  3  0  0  0  0  0  0
  -25.8690  -32.4850   23.7460 C   0  0  0  0  0  3  0  0  0  0  0  0
  -26.4300  -31.7080   25.0010 C   0  0  1  0  0  0  0  0  0  0  0  0
  -25.3670  -31.4390   26.0910 C   0  0  0  0  0  1  0  0  0  0  0  0
  -27.0240  -30.3440   24.5750 C   0  0  0  0  0  1  0  0  0  0  0  0
  -27.5840  -32.5140   25.6430 C   0  0  0  0  0  1  0  0  0  0  0  0
  -25.5410  -33.8730   24.0980 N   0  0  0  0  0  0  0  0  0  0  0  0
  -25.8370  -34.9390   23.3420 C   0  0  0  0  0  0  0  0  0  0  0  0
  -26.4880  -34.8590   22.2970 O   0  0  0  0  0  0  0  0  0  0  0  0
  -24.9630  -34.0090   24.9140 H   0  0  0  0  0  0  0  0  0  0  0  0
  -24.0650  -36.6950   23.0380 C   0  0  0  0  0  1  0  0  0  0  0  0
  -25.3290  -36.3110   23.8220 C   0  0  0  0  0  3  0  0  0  0  0  0
  -27.4660  -37.2250   24.6130 C   0  0  0  0  0  1  0  0  0  0  0  0
  -26.3350  -37.3900   23.7040 N   0  0  0  0  0  0  0  0  0  0  0  0
  -25.9130  -38.2960   23.8860 H   0  0  0  0  0  0  0  0  0  0  0  0
  1  2  2  0
  1  3  1  0
  2  5  1  0
  3  6  2  0
  5  8  1  0
  5  4  2  0
  6  4  1  0
  6 53  1  0
  7 13  1  0
  8  7  2  0
  9 13  1  0
 11  9  2  0
 11 14  1  0
 12 10  1  0
 13 10  2  0
 14 12  2  0
 15 23  1  0
 16 21  1  0
 17 18  1  0
 17 16  1  0
 19 18  1  0
 19 28  1  0
 19 20  1  0
 21 15  1  0
 21 20  1  0
 22 15  2  0
 23 14  1  0
 23 24  1  0
 25 26  2  0
 26 45  1  0
 27 26  1  0
 27 30  1  0
 28 29  1  0
 28 25  1  0
 29 27  2  0
 30 31  1  0
 31 32  2  0
 33 36  1  0
 33 32  1  0
 34 33  2  0
 35 34  1  0
 35 30  2  0
 36 37  1  0
 37 38  1  0
 38 39  2  0
 40 39  1  0
 40 44  1  0
 41 40  2  0
 42 37  2  0
 42 41  1  0
 43 42  1  0
 45 46  1  0
 46 49  1  0
 46 48  1  0
 47 45  2  0
 50 25  1  0
 50 51  1  0
 52 50  1  0
 54 56  1  0
 54 53  1  0
 55 66  2  0
 56 61  1  0
 57 65  1  0
 57 67  1  0
 58 64  1  0
 58 60  1  0
 59 65  1  0
 60 59  1  0
 61 60  2  0
 62 63  1  0
 62 56  2  0
 63 58  2  0
 64 57  1  0
 65 55  1  0
 67 69  2  0
 68 67  1  0
 70 68  1  0
 71 80  2  0
 71 76  1  0
 72 68  1  0
 72 76  1  0
 73 72  1  0
 74 75  1  0
 74 73  1  0
 75 71  1  0
 76 77  2  0
 77 78  1  0
 79 78  2  0
 80 79  1  0
 81 55  1  0
 81 86  1  0
 81 82  1  0
 82 85  1  1
 82 83  1  0
 84 82  1  0
 86 89  1  0
 87 91  1  0
 87 86  1  0
 88 87  2  0
 91 90  1  0
 93 91  1  0
 93 94  1  0
 93 92  1  0
M  ISO  4  15 100  23 100  53 101  54 101
M  END
>  <TORSDO>  (7) 
F 19

>  <SCORE>  (7) 
-12.946

>  <name>  (7) 
6

>  <ligand_id>  (7) 
6

>  <original_smiles>  (7) 
[H]C(=C([H])c1c([H])c([H])c([H])c(C([H])([H])Oc2c([H])c([H])c3c(c2[H])C([H])([H])N(C(=O)C([H])(N([H])C(=O)C([H])(N([H])C([H])([H])[H])C([H])([H])[H])C(C([H])([H])[H])(C([H])([H])[H])C([H])([H])[H])C([H])(C(=O)N([H])C2([H])c4c([H])c([H])c([H])c([H])c4C([H])([H])C([H])([H])C2([H])[H])C3([H])[H])c1[H])c1c([H])c([H])c(N([H])C(=O)N2C([H])([H])C([H])([H])C([H])([H])C([H])(n3nc(-c4c([H])c([H])c(Oc5c([H])c([H])c(F)c([H])c5F)c([H])c4[H])c(C(=O)N([H])[H])c3N([H])[H])C2([H])[H])c([H])c1[H]

>  <smiles>  (7) 
[H]C(=C([H])c1c([H])c([H])c([H])c(C([H])([H])Oc2c([H])c([H])c3c(c2[H])C([H])([H])N(C(=O)C([H])(N([H])C(=O)C([H])(N([H])C([H])([H])[H])C([H])([H])[H])C(C([H])([H])[H])(C([H])([H])[H])C([H])([H])[H])C([H])(C(=O)N([H])C2([H])c4c([H])c([H])c([H])c([H])c4C([H])([H])C([H])([H])C2([H])[H])C3([H])[H])c1[H])c1c([H])c([H])c(N([H])C(=O)N2C([H])([H])C([H])([H])C([H])([H])C([H])(n3nc(-c4c([H])c([H])c(Oc5c([H])c([H])c(F)c([H])c5F)c([H])c4[H])c(C(=O)N([H])[H])c3N([H])[H])C2([H])[H])c([H])c1[H]

$$$$
7:0:0
     RDKit          3D

 86 94  0  0  1  0  0  0  0  0999 V2000
  -28.5570  -21.9040   19.1360 C   0  0  0  0  0  3  0  0  0  0  0  0
  -28.9760  -22.1390   21.3880 C   0  0  0  0  0  3  0  0  0  0  0  0
  -28.9570  -20.4780   19.1960 C   0  0  0  0  0  3  0  0  0  0  0  0
  -29.3840  -20.7110   21.4470 C   0  0  0  0  0  3  0  0  0  0  0  0
  -28.5360  -22.8830   20.2160 C   0  0  0  0  0  0  0  0  0  0  0  0
  -29.3980  -19.7330   20.3630 C   0  0  0  0  0  0  0  0  0  0  0  0
  -27.7570  -24.4270   20.1140 C   0  0  0  0  0  2  0  0  0  0  0  0
  -28.1680  -25.9890   20.2600 O   0  0  0  0  0  0  0  0  0  0  0  0
  -24.6380  -31.9110   23.2490 C   0  0  0  0  0  0  0  0  0  0  0  0
  -27.1710  -27.0850   20.1960 C   0  0  0  0  0  0  0  0  0  0  0  0
  -23.4340  -30.5270   21.6080 C   0  0  0  0  0  3  0  0  0  0  0  0
  -24.8740  -28.9430   20.1680 C   0  0  0  0  0  0  0  0  0  0  0  0
  -25.9990  -30.7480   21.4500 C   0  0  0  0  0  2  0  0  0  0  0  0
  -26.0650  -29.3480   20.7840 C   0  0  0  0  0  0  0  0  0  0  0  0
  -27.2100  -28.4400   20.7770 C   0  0  0  0  0  3  0  0  0  0  0  0
  -25.9520  -26.8270   19.5290 C   0  0  0  0  0  3  0  0  0  0  0  0
  -24.8400  -27.7010   19.5210 C   0  0  0  0  0  3  0  0  0  0  0  0
  -23.6540  -29.8580   20.2250 C   0  0  0  0  0  2  0  0  0  0  0  0
  -24.7120  -31.0870   22.1560 N   0  0  0  0  0  0  0  0  0  0  0  0
  -23.5520  -32.1990   23.7770 O   0  0  0  0  0  0  0  0  0  0  0  0
  -22.7470  -29.5210   22.5700 C   0  0  0  0  0  0  0  0  0  0  0  0
  -21.4190  -29.3450   22.4390 N   0  0  0  0  0  0  0  0  0  0  0  0
  -23.4150  -28.9010   23.4010 O   0  0  0  0  0  0  0  0  0  0  0  0
  -20.9350  -29.8950   21.7440 H   0  0  0  0  0  0  0  0  0  0  0  0
  -18.0450  -28.1040   22.9250 C   0  0  0  0  0  0  0  0  0  0  0  0
  -20.5990  -28.4030   23.2090 C   0  0  0  0  0  3  0  0  0  0  0  0
  -20.7220  -26.9690   22.6440 C   0  0  0  0  0  2  0  0  0  0  0  0
  -19.6320  -26.6260   21.6240 C   0  0  0  0  0  2  0  0  0  0  0  0
  -18.2440  -26.7550   22.2550 C   0  0  0  0  0  2  0  0  0  0  0  0
  -19.1510  -28.8850   23.3590 C   0  0  0  0  0  0  0  0  0  0  0  0
  -18.9090  -30.1430   23.9490 C   0  0  0  0  0  3  0  0  0  0  0  0
  -17.5960  -30.6250   24.1090 C   0  0  0  0  0  3  0  0  0  0  0  0
  -16.5040  -29.8430   23.6900 C   0  0  0  0  0  3  0  0  0  0  0  0
  -16.7300  -28.5840   23.1040 C   0  0  0  0  0  3  0  0  0  0  0  0
  -25.9150  -32.5480   23.8770 C   0  0  0  0  0  3  0  0  0  0  0  0
  -26.4160  -31.7850   25.1660 C   0  0  1  0  0  0  0  0  0  0  0  0
  -25.3130  -31.5640   26.2280 C   0  0  0  0  0  1  0  0  0  0  0  0
  -26.9960  -30.4010   24.7990 C   0  0  0  0  0  1  0  0  0  0  0  0
  -27.5670  -32.5800   25.8280 C   0  0  0  0  0  1  0  0  0  0  0  0
  -25.6040  -33.9490   24.2060 N   0  0  0  0  0  0  0  0  0  0  0  0
  -25.9140  -35.0040   23.4380 C   0  0  0  0  0  0  0  0  0  0  0  0
  -26.5530  -34.8980   22.3890 O   0  0  0  0  0  0  0  0  0  0  0  0
  -25.0340  -34.1050   25.0230 H   0  0  0  0  0  0  0  0  0  0  0  0
  -24.1640  -36.7920   23.1510 C   0  0  0  0  0  1  0  0  0  0  0  0
  -25.4410  -36.3950   23.9100 C   0  0  0  0  0  3  0  0  0  0  0  0
  -27.6000  -37.3000   24.6480 C   0  0  0  0  0  1  0  0  0  0  0  0
  -26.4630  -37.4530   23.7450 N   0  0  0  0  0  0  0  0  0  0  0  0
  -26.0570  -38.3720   23.9000 H   0  0  0  0  0  0  0  0  0  0  0  0
  -30.1540  -18.1740   20.3830 C   0  0  0  0  0  2  0  0  0  0  0  0
  -29.6500  -16.6510   20.4790 O   0  0  0  0  0  0  0  0  0  0  0  0
  -30.5190  -15.2870   20.2520 C   0  0  0  0  0  0  0  0  0  0  0  0
  -30.3980  -12.8600   19.3330 C   0  0  0  0  0  2  0  0  0  0  0  0
  -29.4610  -12.7530   18.1040 C   0  0  0  0  0  2  0  0  0  0  0  0
  -28.0120  -12.4960   18.5540 C   0  0  0  0  0  2  0  0  0  0  0  0
  -27.5850  -13.4290   19.7160 C   0  0  0  0  0  3  0  0  0  0  0  0
  -28.6390  -13.5320   20.8330 C   0  0  0  0  0  2  0  0  0  0  0  0
  -29.8940  -13.9630   20.2150 N   0  0  0  0  0  0  0  0  0  0  0  0
  -31.7190  -15.3260   19.9630 O   0  0  0  0  0  0  0  0  0  0  0  0
  -25.2230  -13.9550   20.5160 C   0  0  0  0  0  0  0  0  0  0  0  0
  -24.1760  -13.1620   20.8920 C   0  0  0  0  0  0  0  0  0  0  0  0
  -24.6560  -11.8170   20.8390 C   0  0  0  0  0  0  0  0  0  0  0  0
  -26.2690  -13.0930   20.2400 N   0  0  0  0  0  0  0  0  0  0  0  0
  -25.9430  -11.8010   20.5050 N   0  0  0  0  0  0  0  0  0  0  0  0
  -23.9460  -10.5440   21.0240 C   0  0  0  0  0  0  0  0  0  0  0  0
  -24.3850   -9.5790   21.9570 C   0  0  0  0  0  3  0  0  0  0  0  0
  -23.6700   -8.3740   22.1310 C   0  0  0  0  0  3  0  0  0  0  0  0
  -22.5010   -8.1260   21.3730 C   0  0  0  0  0  0  0  0  0  0  0  0
  -22.0810   -9.0800   20.4290 C   0  0  0  0  0  3  0  0  0  0  0  0
  -22.7970  -10.2760   20.2530 C   0  0  0  0  0  3  0  0  0  0  0  0
  -21.7580   -6.9730   21.4560 O   0  0  0  0  0  0  0  0  0  0  0  0
  -21.6910   -6.2420   22.6150 C   0  0  0  0  0  0  0  0  0  0  0  0
  -21.1990   -6.7940   23.8170 C   0  0  0  0  0  3  0  0  0  0  0  0
  -21.0820   -5.9870   24.9670 C   0  0  0  0  0  3  0  0  0  0  0  0
  -21.4480   -4.6290   24.9140 C   0  0  0  0  0  0  0  0  0  0  0  0
  -21.9330   -4.0760   23.7160 C   0  0  0  0  0  3  0  0  0  0  0  0
  -22.0510   -4.8800   22.5690 C   0  0  0  0  0  0  0  0  0  0  0  0
  -22.4990   -4.3380   21.4120 F   0  0  0  0  0  0  0  0  0  0  0  0
  -21.3300   -3.8520   26.0160 F   0  0  0  0  0  0  0  0  0  0  0  0
  -22.7780  -13.6210   21.1870 C   0  0  0  0  0  0  0  0  0  0  0  0
  -22.0710  -12.9140   22.0600 N   0  0  0  0  0  0  0  0  0  0  0  0
  -22.3230  -14.6440   20.6780 O   0  0  0  0  0  0  0  0  0  0  0  0
  -22.4530  -12.0850   22.4910 H   0  0  0  0  0  0  0  0  0  0  0  0
  -21.1360  -13.2050   22.3030 H   0  0  0  0  0  0  0  0  0  0  0  0
  -25.3720  -15.3300   20.3570 N   0  0  0  0  0  0  0  0  0  0  0  0
  -24.6080  -15.9810   20.5020 H   0  0  0  0  0  0  0  0  0  0  0  0
  -26.2260  -15.7820   20.0550 H   0  0  0  0  0  0  0  0  0  0  0  0
  1  3  2  0
  1  5  1  0
  2  4  1  0
  3  6  1  0
  5  2  2  0
  6 49  1  0
  6  4  2  0
  7  5  1  0
  7  8  1  0
  9 20  2  0
 10  8  1  0
 10 15  1  0
 11 19  1  0
 11 21  1  0
 12 18  1  0
 12 14  1  0
 13 19  1  0
 14 13  1  0
 15 14  2  0
 16 10  2  0
 17 16  1  0
 17 12  2  0
 18 11  1  0
 19  9  1  0
 21 23  2  0
 22 21  1  0
 24 22  1  0
 25 34  2  0
 25 30  1  0
 26 22  1  0
 26 30  1  0
 27 26  1  0
 28 29  1  0
 28 27  1  0
 29 25  1  0
 30 31  2  0
 31 32  1  0
 33 32  2  0
 34 33  1  0
 35  9  1  0
 35 40  1  0
 35 36  1  0
 36 39  1  1
 36 37  1  0
 38 36  1  0
 40 43  1  0
 41 45  1  0
 41 40  1  0
 42 41  2  0
 45 44  1  0
 47 48  1  0
 47 45  1  0
 47 46  1  0
 49 50  1  0
 51 50  1  0
 52 57  1  0
 53 54  1  0
 53 52  1  0
 55 54  1  0
 55 62  1  0
 55 56  1  0
 57 51  1  0
 57 56  1  0
 58 51  2  0
 59 60  2  0
 60 79  1  0
 61 60  1  0
 61 64  1  0
 62 63  1  0
 62 59  1  0
 63 61  2  0
 64 65  1  0
 65 66  2  0
 67 70  1  0
 67 66  1  0
 68 67  2  0
 69 68  1  0
 69 64  2  0
 70 71  1  0
 71 72  1  0
 72 73  2  0
 74 73  1  0
 74 78  1  0
 75 74  2  0
 76 71  2  0
 76 75  1  0
 77 76  1  0
 79 80  1  0
 80 83  1  0
 80 82  1  0
 81 79  2  0
 84 85  1  0
 84 59  1  0
 86 84  1  0
M  ISO  4   7 101   8 101  50 100  51 100
M  END
>  <TORSDO>  (8) 
F 19

>  <SCORE>  (8) 
-15.435

>  <name>  (8) 
7

>  <ligand_id>  (8) 
7

>  <original_smiles>  (8) 
[H]c1c([H])c([H])c2c(c1[H])C([H])([H])C([H])([H])C([H])([H])C2([H])N([H])C(=O)C1([H])N(C(=O)C([H])(N([H])C(=O)C([H])(N([H])C([H])([H])[H])C([H])([H])[H])C(C([H])([H])[H])(C([H])([H])[H])C([H])([H])[H])C([H])([H])c2c([H])c(OC([H])([H])c3c([H])c([H])c(C([H])([H])OC(=O)N4C([H])([H])C([H])([H])C([H])([H])C([H])(n5nc(-c6c([H])c([H])c(Oc7c([H])c([H])c(F)c([H])c7F)c([H])c6[H])c(C(=O)N([H])[H])c5N([H])[H])C4([H])[H])c([H])c3[H])c([H])c([H])c2C1([H])[H]

>  <smiles>  (8) 
[H]c1c([H])c([H])c2c(c1[H])C([H])([H])C([H])([H])C([H])([H])C2([H])N([H])C(=O)C1([H])N(C(=O)C([H])(N([H])C(=O)C([H])(N([H])C([H])([H])[H])C([H])([H])[H])C(C([H])([H])[H])(C([H])([H])[H])C([H])([H])[H])C([H])([H])c2c([H])c(OC([H])([H])c3c([H])c([H])c(C([H])([H])OC(=O)N4C([H])([H])C([H])([H])C([H])([H])C([H])(n5nc(-c6c([H])c([H])c(Oc7c([H])c([H])c(F)c([H])c7F)c([H])c6[H])c(C(=O)N([H])[H])c5N([H])[H])C4([H])[H])c([H])c3[H])c([H])c([H])c2C1([H])[H]

$$$$
8:0:0
     RDKit          3D

 92 99  0  0  1  0  0  0  0  0999 V2000
  -27.9620  -21.5560   19.6440 C   0  0  0  0  0  2  0  0  0  0  0  0
  -27.5850  -22.0990   21.0340 C   0  0  0  0  0  2  0  0  0  0  0  0
  -28.2460  -23.3230   21.3430 O   0  0  0  0  0  0  0  0  0  0  0  0
  -27.7790  -24.4350   20.5890 C   0  0  0  0  0  2  0  0  0  0  0  0
  -28.4630  -25.7220   21.0840 C   0  0  0  0  0  2  0  0  0  0  0  0
  -28.3930  -26.7770   20.1300 O   0  0  0  0  0  0  0  0  0  0  0  0
  -24.5750  -31.8990   23.2430 C   0  0  0  0  0  0  0  0  0  0  0  0
  -27.2200  -27.4840   20.1600 C   0  0  0  0  0  0  0  0  0  0  0  0
  -23.3660  -30.4950   21.6020 C   0  0  0  0  0  3  0  0  0  0  0  0
  -24.8190  -28.9580   20.1810 C   0  0  0  0  0  0  0  0  0  0  0  0
  -25.8870  -30.8610   21.4010 C   0  0  0  0  0  2  0  0  0  0  0  0
  -25.9720  -29.4890   20.7700 C   0  0  0  0  0  0  0  0  0  0  0  0
  -27.1780  -28.7580   20.7610 C   0  0  0  0  0  3  0  0  0  0  0  0
  -26.0580  -26.9600   19.5580 C   0  0  0  0  0  3  0  0  0  0  0  0
  -24.8540  -27.6900   19.5750 C   0  0  0  0  0  3  0  0  0  0  0  0
  -23.5720  -29.8090   20.2240 C   0  0  0  0  0  2  0  0  0  0  0  0
  -24.6270  -31.0970   22.1420 N   0  0  0  0  0  0  0  0  0  0  0  0
  -23.4950  -32.1740   23.7840 O   0  0  0  0  0  0  0  0  0  0  0  0
  -22.7160  -29.4740   22.5640 C   0  0  0  0  0  0  0  0  0  0  0  0
  -21.3920  -29.2940   22.4370 N   0  0  0  0  0  0  0  0  0  0  0  0
  -23.4010  -28.8470   23.3790 O   0  0  0  0  0  0  0  0  0  0  0  0
  -20.9040  -29.8490   21.7480 H   0  0  0  0  0  0  0  0  0  0  0  0
  -18.0150  -28.1150   22.9300 C   0  0  0  0  0  0  0  0  0  0  0  0
  -20.5720  -28.3610   23.2080 C   0  0  0  0  0  3  0  0  0  0  0  0
  -20.6700  -26.9290   22.6320 C   0  0  0  0  0  2  0  0  0  0  0  0
  -19.5690  -26.6120   21.6150 C   0  0  0  0  0  2  0  0  0  0  0  0
  -18.1880  -26.7620   22.2570 C   0  0  0  0  0  2  0  0  0  0  0  0
  -19.1360  -28.8720   23.3620 C   0  0  0  0  0  0  0  0  0  0  0  0
  -18.9230  -30.1380   23.9480 C   0  0  0  0  0  3  0  0  0  0  0  0
  -17.6210  -30.6470   24.1090 C   0  0  0  0  0  3  0  0  0  0  0  0
  -16.5140  -29.8850   23.6960 C   0  0  0  0  0  3  0  0  0  0  0  0
  -16.7110  -28.6220   23.1130 C   0  0  0  0  0  3  0  0  0  0  0  0
  -25.8650  -32.5270   23.8610 C   0  0  0  0  0  3  0  0  0  0  0  0
  -26.3870  -31.7530   25.1320 C   0  0  1  0  0  0  0  0  0  0  0  0
  -25.2990  -31.5160   26.2040 C   0  0  0  0  0  1  0  0  0  0  0  0
  -26.9620  -30.3730   24.7310 C   0  0  0  0  0  1  0  0  0  0  0  0
  -27.5420  -32.5430   25.7930 C   0  0  0  0  0  1  0  0  0  0  0  0
  -25.5610  -33.9250   24.1890 N   0  0  0  0  0  0  0  0  0  0  0  0
  -25.8990  -34.9750   23.4250 C   0  0  0  0  0  0  0  0  0  0  0  0
  -26.5710  -34.8660   22.3960 O   0  0  0  0  0  0  0  0  0  0  0  0
  -24.9680  -34.0840   24.9890 H   0  0  0  0  0  0  0  0  0  0  0  0
  -24.1740  -36.7650   23.0580 C   0  0  0  0  0  1  0  0  0  0  0  0
  -25.4120  -36.3630   23.8760 C   0  0  0  0  0  3  0  0  0  0  0  0
  -27.5460  -37.2430   24.7100 C   0  0  0  0  0  1  0  0  0  0  0  0
  -26.4470  -37.4150   23.7650 N   0  0  0  0  0  0  0  0  0  0  0  0
  -26.0420  -38.3350   23.9130 H   0  0  0  0  0  0  0  0  0  0  0  0
  -27.5610  -20.1990   19.5480 O   0  0  0  0  0  0  0  0  0  0  0  0
  -27.8960  -19.6180   18.2930 C   0  0  0  0  0  2  0  0  0  0  0  0
  -27.6710  -18.1030   18.3920 C   0  0  0  0  0  2  0  0  0  0  0  0
  -29.7150  -17.3150   19.5630 C   0  0  0  0  0  0  0  0  0  0  0  0
  -28.4030  -17.5650   19.5350 N   0  0  0  0  0  0  0  0  0  0  0  0
  -30.4370  -17.4070   18.5700 O   0  0  0  0  0  0  0  0  0  0  0  0
  -27.8900  -17.4910   20.4040 H   0  0  0  0  0  0  0  0  0  0  0  0
  -30.2970  -16.8780   20.9090 C   0  0  0  0  0  2  0  0  0  0  0  0
  -30.7750  -14.4750   20.5460 C   0  0  0  0  0  0  0  0  0  0  0  0
  -30.4920  -12.3380   19.3730 C   0  0  0  0  0  2  0  0  0  0  0  0
  -29.5760  -12.5730   18.1550 C   0  0  0  0  0  2  0  0  0  0  0  0
  -28.0900  -12.4470   18.5520 C   0  0  0  0  0  2  0  0  0  0  0  0
  -27.7360  -13.2780   19.8120 C   0  0  0  0  0  3  0  0  0  0  0  0
  -28.7610  -13.0160   20.9380 C   0  0  0  0  0  2  0  0  0  0  0  0
  -30.1070  -13.3030   20.4080 N   0  0  0  0  0  0  0  0  0  0  0  0
  -31.8900  -14.6890   20.0630 O   0  0  0  0  0  0  0  0  0  0  0  0
  -30.0560  -15.4520   21.1070 N   0  0  0  0  0  0  0  0  0  0  0  0
  -29.1520  -15.1910   21.4690 H   0  0  0  0  0  0  0  0  0  0  0  0
  -25.3180  -13.9090   20.4450 C   0  0  0  0  0  0  0  0  0  0  0  0
  -24.2400  -13.1480   20.8030 C   0  0  0  0  0  0  0  0  0  0  0  0
  -24.6980  -11.7950   20.8100 C   0  0  0  0  0  0  0  0  0  0  0  0
  -26.3670  -13.0210   20.2560 N   0  0  0  0  0  0  0  0  0  0  0  0
  -25.9940  -11.7440   20.5350 N   0  0  0  0  0  0  0  0  0  0  0  0
  -23.9650  -10.5380   21.0100 C   0  0  0  0  0  0  0  0  0  0  0  0
  -24.3910   -9.5790   21.9550 C   0  0  0  0  0  3  0  0  0  0  0  0
  -23.6630   -8.3850   22.1390 C   0  0  0  0  0  3  0  0  0  0  0  0
  -22.4940   -8.1430   21.3800 C   0  0  0  0  0  0  0  0  0  0  0  0
  -22.0880   -9.0900   20.4230 C   0  0  0  0  0  3  0  0  0  0  0  0
  -22.8170  -10.2760   20.2370 C   0  0  0  0  0  3  0  0  0  0  0  0
  -21.7360   -7.0010   21.4730 O   0  0  0  0  0  0  0  0  0  0  0  0
  -21.6920   -6.2590   22.6260 C   0  0  0  0  0  0  0  0  0  0  0  0
  -21.2920   -6.8200   23.8600 C   0  0  0  0  0  3  0  0  0  0  0  0
  -21.1950   -6.0040   25.0050 C   0  0  0  0  0  3  0  0  0  0  0  0
  -21.4880   -4.6290   24.9170 C   0  0  0  0  0  0  0  0  0  0  0  0
  -21.8840   -4.0690   23.6910 C   0  0  0  0  0  3  0  0  0  0  0  0
  -21.9820   -4.8820   22.5480 C   0  0  0  0  0  0  0  0  0  0  0  0
  -22.3440   -4.3340   21.3630 F   0  0  0  0  0  0  0  0  0  0  0  0
  -21.3900   -3.8430   26.0150 F   0  0  0  0  0  0  0  0  0  0  0  0
  -22.8370  -13.6320   21.0350 C   0  0  0  0  0  0  0  0  0  0  0  0
  -22.0890  -12.9530   21.8970 N   0  0  0  0  0  0  0  0  0  0  0  0
  -22.4130  -14.6490   20.4860 O   0  0  0  0  0  0  0  0  0  0  0  0
  -22.4460  -12.1330   22.3680 H   0  0  0  0  0  0  0  0  0  0  0  0
  -21.1460  -13.2580   22.0900 H   0  0  0  0  0  0  0  0  0  0  0  0
  -25.4910  -15.2760   20.2470 N   0  0  0  0  0  0  0  0  0  0  0  0
  -24.7260  -15.9350   20.3410 H   0  0  0  0  0  0  0  0  0  0  0  0
  -26.3410  -15.6980   19.9010 H   0  0  0  0  0  0  0  0  0  0  0  0
  1  2  1  0
  2  3  1  0
  4  5  1  0
  4  3  1  0
  6  8  1  0
  6  5  1  0
  7 18  2  0
  8 13  1  0
  9 17  1  0
  9 19  1  0
 10 16  1  0
 10 12  1  0
 11 17  1  0
 12 11  1  0
 13 12  2  0
 14 15  1  0
 14  8  2  0
 15 10  2  0
 16  9  1  0
 17  7  1  0
 19 21  2  0
 20 19  1  0
 22 20  1  0
 23 32  2  0
 23 28  1  0
 24 20  1  0
 24 28  1  0
 25 24  1  0
 26 27  1  0
 26 25  1  0
 27 23  1  0
 28 29  2  0
 29 30  1  0
 31 30  2  0
 32 31  1  0
 33  7  1  0
 33 38  1  0
 33 34  1  0
 34 37  1  1
 34 35  1  0
 36 34  1  0
 38 41  1  0
 39 43  1  0
 39 38  1  0
 40 39  2  0
 43 42  1  0
 45 43  1  0
 45 46  1  0
 45 44  1  0
 47  1  1  0
 48 49  1  0
 48 47  1  0
 49 51  1  0
 50 54  1  0
 51 50  1  0
 51 53  1  0
 52 50  2  0
 54 63  1  0
 55 63  1  0
 56 61  1  0
 57 58  1  0
 57 56  1  0
 59 58  1  0
 59 68  1  0
 59 60  1  0
 61 55  1  0
 61 60  1  0
 62 55  2  0
 63 64  1  0
 65 66  2  0
 66 67  1  0
 66 85  1  0
 67 70  1  0
 68 65  1  0
 68 69  1  0
 69 67  2  0
 70 71  1  0
 71 72  2  0
 73 76  1  0
 73 72  1  0
 74 73  2  0
 75 74  1  0
 75 70  2  0
 76 77  1  0
 77 78  1  0
 78 79  2  0
 80 79  1  0
 80 84  1  0
 81 80  2  0
 82 77  2  0
 82 81  1  0
 83 82  1  0
 85 86  1  0
 86 89  1  0
 86 88  1  0
 87 85  2  0
 90 91  1  0
 90 65  1  0
 92 90  1  0
M  ISO  4   5 101   6 101  55 100  63 100
M  END
>  <TORSDO>  (9) 
F 25

>  <SCORE>  (9) 
-12.211

>  <name>  (9) 
8

>  <ligand_id>  (9) 
8

>  <original_smiles>  (9) 
[H]c1c([H])c([H])c2c(c1[H])C([H])([H])C([H])([H])C([H])([H])C2([H])N([H])C(=O)C1([H])N(C(=O)C([H])(N([H])C(=O)C([H])(N([H])C([H])([H])[H])C([H])([H])[H])C(C([H])([H])[H])(C([H])([H])[H])C([H])([H])[H])C([H])([H])c2c([H])c(OC([H])([H])C([H])([H])OC([H])([H])C([H])([H])OC([H])([H])C([H])([H])N([H])C(=O)C([H])([H])N([H])C(=O)N3C([H])([H])C([H])([H])C([H])([H])C([H])(n4nc(-c5c([H])c([H])c(Oc6c([H])c([H])c(F)c([H])c6F)c([H])c5[H])c(C(=O)N([H])[H])c4N([H])[H])C3([H])[H])c([H])c([H])c2C1([H])[H]

>  <smiles>  (9) 
[H]c1c([H])c([H])c2c(c1[H])C([H])([H])C([H])([H])C([H])([H])C2([H])N([H])C(=O)C1([H])N(C(=O)C([H])(N([H])C(=O)C([H])(N([H])C([H])([H])[H])C([H])([H])[H])C(C([H])([H])[H])(C([H])([H])[H])C([H])([H])[H])C([H])([H])c2c([H])c(OC([H])([H])C([H])([H])OC([H])([H])C([H])([H])OC([H])([H])C([H])([H])N([H])C(=O)C([H])([H])N([H])C(=O)N3C([H])([H])C([H])([H])C([H])([H])C([H])(n4nc(-c5c([H])c([H])c(Oc6c([H])c([H])c(F)c([H])c6F)c([H])c5[H])c(C(=O)N([H])[H])c4N([H])[H])C3([H])[H])c([H])c([H])c2C1([H])[H]

$$$$
9:0:0
     RDKit          3D

 92 99  0  0  1  0  0  0  0  0999 V2000
  -27.3970  -23.4160   20.8420 C   0  0  0  0  0  2  0  0  0  0  0  0
  -28.5500  -25.3800   19.7760 C   0  0  0  0  0  0  0  0  0  0  0  0
  -27.6290  -24.8460   20.6650 N   0  0  0  0  0  0  0  0  0  0  0  0
  -29.4460  -24.7480   19.2160 O   0  0  0  0  0  0  0  0  0  0  0  0
  -26.9800  -25.4990   21.0820 H   0  0  0  0  0  0  0  0  0  0  0  0
  -28.3890  -26.7280   19.5780 O   0  0  0  0  0  0  0  0  0  0  0  0
  -24.6820  -31.7290   23.0320 C   0  0  0  0  0  0  0  0  0  0  0  0
  -27.1950  -27.4180   19.6790 C   0  0  0  0  0  0  0  0  0  0  0  0
  -23.4060  -30.3870   21.3920 C   0  0  0  0  0  3  0  0  0  0  0  0
  -24.7970  -28.9050   19.8540 C   0  0  0  0  0  0  0  0  0  0  0  0
  -25.9190  -30.7560   21.1030 C   0  0  0  0  0  2  0  0  0  0  0  0
  -25.9760  -29.4080   20.4170 C   0  0  0  0  0  0  0  0  0  0  0  0
  -27.1750  -28.6670   20.3380 C   0  0  0  0  0  3  0  0  0  0  0  0
  -26.0000  -26.9370   19.0940 C   0  0  0  0  0  3  0  0  0  0  0  0
  -24.8010  -27.6650   19.1940 C   0  0  0  0  0  3  0  0  0  0  0  0
  -23.5560  -29.7580   19.9810 C   0  0  0  0  0  2  0  0  0  0  0  0
  -24.6890  -30.9700   21.9000 N   0  0  0  0  0  0  0  0  0  0  0  0
  -23.6250  -31.9790   23.6270 O   0  0  0  0  0  0  0  0  0  0  0  0
  -22.7970  -29.3270   22.3400 C   0  0  0  0  0  0  0  0  0  0  0  0
  -21.4730  -29.1280   22.2400 N   0  0  0  0  0  0  0  0  0  0  0  0
  -23.5110  -28.6910   23.1180 O   0  0  0  0  0  0  0  0  0  0  0  0
  -20.9570  -29.6960   21.5830 H   0  0  0  0  0  0  0  0  0  0  0  0
  -18.1410  -27.8230   22.7350 C   0  0  0  0  0  0  0  0  0  0  0  0
  -20.6900  -28.1570   23.0030 C   0  0  0  0  0  3  0  0  0  0  0  0
  -20.8360  -26.7350   22.4120 C   0  0  0  0  0  2  0  0  0  0  0  0
  -19.7420  -26.3880   21.3980 C   0  0  0  0  0  2  0  0  0  0  0  0
  -18.3570  -26.4860   22.0460 C   0  0  0  0  0  2  0  0  0  0  0  0
  -19.2360  -28.6150   23.1690 C   0  0  0  0  0  0  0  0  0  0  0  0
  -18.9810  -29.8660   23.7700 C   0  0  0  0  0  3  0  0  0  0  0  0
  -17.6630  -30.3270   23.9410 C   0  0  0  0  0  3  0  0  0  0  0  0
  -16.5810  -29.5330   23.5250 C   0  0  0  0  0  3  0  0  0  0  0  0
  -16.8210  -28.2820   22.9270 C   0  0  0  0  0  3  0  0  0  0  0  0
  -25.9930  -32.3370   23.6190 C   0  0  0  0  0  3  0  0  0  0  0  0
  -26.5850  -31.4990   24.8190 C   0  0  1  0  0  0  0  0  0  0  0  0
  -25.5550  -31.1950   25.9310 C   0  0  0  0  0  1  0  0  0  0  0  0
  -27.1500  -30.1510   24.3150 C   0  0  0  0  0  1  0  0  0  0  0  0
  -27.7670  -32.2640   25.4590 C   0  0  0  0  0  1  0  0  0  0  0  0
  -25.6940  -33.7110   24.0410 N   0  0  0  0  0  0  0  0  0  0  0  0
  -25.9970  -34.8060   23.3320 C   0  0  0  0  0  0  0  0  0  0  0  0
  -26.6320  -34.7660   22.2750 O   0  0  0  0  0  0  0  0  0  0  0  0
  -25.1270  -33.8150   24.8700 H   0  0  0  0  0  0  0  0  0  0  0  0
  -24.2510  -36.6050   23.1410 C   0  0  0  0  0  1  0  0  0  0  0  0
  -25.5210  -36.1630   23.8840 C   0  0  0  0  0  3  0  0  0  0  0  0
  -27.6830  -37.0070   24.6840 C   0  0  0  0  0  1  0  0  0  0  0  0
  -26.5450  -37.2260   23.7950 N   0  0  0  0  0  0  0  0  0  0  0  0
  -26.1430  -38.1330   24.0140 H   0  0  0  0  0  0  0  0  0  0  0  0
  -27.6990  -22.9450   22.2710 C   0  0  0  0  0  2  0  0  0  0  0  0
  -29.0980  -22.7580   22.4300 O   0  0  0  0  0  0  0  0  0  0  0  0
  -29.4340  -22.2060   23.6980 C   0  0  0  0  0  2  0  0  0  0  0  0
  -30.9250  -21.8200   23.7280 C   0  0  0  0  0  2  0  0  0  0  0  0
  -31.1890  -20.5410   23.1500 O   0  0  0  0  0  0  0  0  0  0  0  0
  -31.0340  -20.4950   21.7360 C   0  0  0  0  0  2  0  0  0  0  0  0
  -31.7360  -19.2580   21.1590 C   0  0  0  0  0  2  0  0  0  0  0  0
  -30.9770  -18.0730   21.3830 O   0  0  0  0  0  0  0  0  0  0  0  0
  -31.5580  -16.9520   20.7220 C   0  0  0  0  0  2  0  0  0  0  0  0
  -30.7250  -15.6700   20.9290 C   0  0  0  0  0  2  0  0  0  0  0  0
  -31.2420  -14.4800   20.0960 C   0  0  0  0  0  0  0  0  0  0  0  0
  -30.7970  -12.3080   19.0080 C   0  0  0  0  0  2  0  0  0  0  0  0
  -29.8480  -12.4980   17.8090 C   0  0  0  0  0  2  0  0  0  0  0  0
  -28.3770  -12.4550   18.2650 C   0  0  0  0  0  2  0  0  0  0  0  0
  -28.1010  -13.3810   19.4790 C   0  0  0  0  0  3  0  0  0  0  0  0
  -29.1570  -13.1670   20.5870 C   0  0  0  0  0  2  0  0  0  0  0  0
  -30.4900  -13.3540   19.9930 N   0  0  0  0  0  0  0  0  0  0  0  0
  -32.3130  -14.6040   19.4920 O   0  0  0  0  0  0  0  0  0  0  0  0
  -25.7590  -14.1550   20.2230 C   0  0  0  0  0  0  0  0  0  0  0  0
  -24.6500  -13.4580   20.6200 C   0  0  0  0  0  0  0  0  0  0  0  0
  -25.0200  -12.0780   20.5990 C   0  0  0  0  0  0  0  0  0  0  0  0
  -26.7410  -13.2030   19.9860 N   0  0  0  0  0  0  0  0  0  0  0  0
  -26.2980  -11.9500   20.2660 N   0  0  0  0  0  0  0  0  0  0  0  0
  -24.2180  -10.8690   20.8200 C   0  0  0  0  0  0  0  0  0  0  0  0
  -24.6070   -9.8840   21.7540 C   0  0  0  0  0  3  0  0  0  0  0  0
  -23.8090   -8.7380   21.9620 C   0  0  0  0  0  3  0  0  0  0  0  0
  -22.6060   -8.5700   21.2340 C   0  0  0  0  0  0  0  0  0  0  0  0
  -22.2360   -9.5420   20.2880 C   0  0  0  0  0  3  0  0  0  0  0  0
  -23.0340  -10.6790   20.0790 C   0  0  0  0  0  3  0  0  0  0  0  0
  -21.7810   -7.4770   21.3500 O   0  0  0  0  0  0  0  0  0  0  0  0
  -21.7040   -6.7550   22.5140 C   0  0  0  0  0  0  0  0  0  0  0  0
  -21.3630   -7.3570   23.7440 C   0  0  0  0  0  3  0  0  0  0  0  0
  -21.2270   -6.5650   24.9010 C   0  0  0  0  0  3  0  0  0  0  0  0
  -21.4210   -5.1740   24.8300 C   0  0  0  0  0  0  0  0  0  0  0  0
  -21.7560   -4.5710   23.6050 C   0  0  0  0  0  3  0  0  0  0  0  0
  -21.8940   -5.3600   22.4490 C   0  0  0  0  0  0  0  0  0  0  0  0
  -22.1960   -4.7720   21.2670 F   0  0  0  0  0  0  0  0  0  0  0  0
  -21.2820   -4.4110   25.9400 F   0  0  0  0  0  0  0  0  0  0  0  0
  -23.2920  -14.0280   20.9150 C   0  0  0  0  0  0  0  0  0  0  0  0
  -22.5430  -13.3970   21.8120 N   0  0  0  0  0  0  0  0  0  0  0  0
  -22.9060  -15.0700   20.3840 O   0  0  0  0  0  0  0  0  0  0  0  0
  -22.8680  -12.5540   22.2630 H   0  0  0  0  0  0  0  0  0  0  0  0
  -21.6320  -13.7620   22.0510 H   0  0  0  0  0  0  0  0  0  0  0  0
  -26.0090  -15.5080   20.0250 N   0  0  0  0  0  0  0  0  0  0  0  0
  -25.2920  -16.2160   20.1420 H   0  0  0  0  0  0  0  0  0  0  0  0
  -26.8870  -15.8870   19.6910 H   0  0  0  0  0  0  0  0  0  0  0  0
  1 47  1  0
  2  3  1  0
  3  1  1  0
  3  5  1  0
  4  2  2  0
  6  8  1  0
  6  2  1  0
  7 18  2  0
  8 13  1  0
  9 17  1  0
  9 19  1  0
 10 16  1  0
 10 12  1  0
 11 17  1  0
 12 11  1  0
 13 12  2  0
 14 15  1  0
 14  8  2  0
 15 10  2  0
 16  9  1  0
 17  7  1  0
 19 21  2  0
 20 19  1  0
 22 20  1  0
 23 32  2  0
 23 28  1  0
 24 20  1  0
 24 28  1  0
 25 24  1  0
 26 27  1  0
 26 25  1  0
 27 23  1  0
 28 29  2  0
 29 30  1  0
 31 30  2  0
 32 31  1  0
 33  7  1  0
 33 38  1  0
 33 34  1  0
 34 37  1  1
 34 35  1  0
 36 34  1  0
 38 41  1  0
 39 43  1  0
 39 38  1  0
 40 39  2  0
 43 42  1  0
 45 43  1  0
 45 46  1  0
 45 44  1  0
 47 48  1  0
 48 49  1  0
 49 50  1  0
 51 50  1  0
 52 51  1  0
 53 54  1  0
 53 52  1  0
 55 56  1  0
 55 54  1  0
 57 56  1  0
 58 63  1  0
 59 60  1  0
 59 58  1  0
 61 60  1  0
 61 68  1  0
 61 62  1  0
 63 57  1  0
 63 62  1  0
 64 57  2  0
 65 66  2  0
 66 85  1  0
 67 66  1  0
 67 70  1  0
 68 65  1  0
 68 69  1  0
 69 67  2  0
 70 71  1  0
 71 72  2  0
 73 76  1  0
 73 72  1  0
 74 73  2  0
 75 74  1  0
 75 70  2  0
 76 77  1  0
 77 78  1  0
 78 79  2  0
 80 79  1  0
 80 84  1  0
 81 80  2  0
 82 77  2  0
 82 81  1  0
 83 82  1  0
 85 86  1  0
 86 89  1  0
 86 88  1  0
 87 85  2  0
 90 91  1  0
 90 65  1  0
 92 90  1  0
M  ISO  4   2 101   6 101  56 100  57 100
M  END
>  <TORSDO>  (10) 
F 27

>  <SCORE>  (10) 
-10.744

>  <name>  (10) 
9

>  <ligand_id>  (10) 
9

>  <original_smiles>  (10) 
[H]c1c([H])c([H])c2c(c1[H])C([H])([H])C([H])([H])C([H])([H])C2([H])N([H])C(=O)C1([H])N(C(=O)C([H])(N([H])C(=O)C([H])(N([H])C([H])([H])[H])C([H])([H])[H])C(C([H])([H])[H])(C([H])([H])[H])C([H])([H])[H])C([H])([H])c2c([H])c(OC(=O)N([H])C([H])([H])C([H])([H])OC([H])([H])C([H])([H])OC([H])([H])C([H])([H])OC([H])([H])C([H])([H])C(=O)N3C([H])([H])C([H])([H])C([H])([H])C([H])(n4nc(-c5c([H])c([H])c(Oc6c([H])c([H])c(F)c([H])c6F)c([H])c5[H])c(C(=O)N([H])[H])c4N([H])[H])C3([H])[H])c([H])c([H])c2C1([H])[H]

>  <smiles>  (10) 
[H]c1c([H])c([H])c2c(c1[H])C([H])([H])C([H])([H])C([H])([H])C2([H])N([H])C(=O)C1([H])N(C(=O)C([H])(N([H])C(=O)C([H])(N([H])C([H])([H])[H])C([H])([H])[H])C(C([H])([H])[H])(C([H])([H])[H])C([H])([H])[H])C([H])([H])c2c([H])c(OC(=O)N([H])C([H])([H])C([H])([H])OC([H])([H])C([H])([H])OC([H])([H])C([H])([H])OC([H])([H])C([H])([H])C(=O)N3C([H])([H])C([H])([H])C([H])([H])C([H])(n4nc(-c5c([H])c([H])c(Oc6c([H])c([H])c(F)c([H])c6F)c([H])c5[H])c(C(=O)N([H])[H])c4N([H])[H])C3([H])[H])c([H])c([H])c2C1([H])[H]

$$$$
10:0:0
     RDKit          3D

 86 93  0  0  1  0  0  0  0  0999 V2000
  -28.1520  -24.0360   19.9640 C   0  0  0  0  0  2  0  0  0  0  0  0
  -28.3920  -25.3500   20.7900 C   0  0  0  0  0  2  0  0  0  0  0  0
  -28.3770  -26.6310   20.0960 O   0  0  0  0  0  0  0  0  0  0  0  0
  -24.5990  -31.8740   23.2160 C   0  0  0  0  0  0  0  0  0  0  0  0
  -27.2150  -27.3850   20.1400 C   0  0  0  0  0  0  0  0  0  0  0  0
  -23.3840  -30.4740   21.5800 C   0  0  0  0  0  3  0  0  0  0  0  0
  -24.8290  -28.9240   20.1520 C   0  0  0  0  0  0  0  0  0  0  0  0
  -25.9130  -30.8190   21.3710 C   0  0  0  0  0  2  0  0  0  0  0  0
  -25.9940  -29.4420   20.7330 C   0  0  0  0  0  0  0  0  0  0  0  0
  -27.1920  -28.6830   20.7140 C   0  0  0  0  0  3  0  0  0  0  0  0
  -26.0330  -26.8880   19.5570 C   0  0  0  0  0  3  0  0  0  0  0  0
  -24.8460  -27.6490   19.5580 C   0  0  0  0  0  3  0  0  0  0  0  0
  -23.5880  -29.7890   20.2000 C   0  0  0  0  0  2  0  0  0  0  0  0
  -24.6500  -31.0720   22.1130 N   0  0  0  0  0  0  0  0  0  0  0  0
  -23.5200  -32.1480   23.7600 O   0  0  0  0  0  0  0  0  0  0  0  0
  -22.7330  -29.4560   22.5450 C   0  0  0  0  0  0  0  0  0  0  0  0
  -21.4080  -29.2750   22.4230 N   0  0  0  0  0  0  0  0  0  0  0  0
  -23.4180  -28.8320   23.3590 O   0  0  0  0  0  0  0  0  0  0  0  0
  -20.9160  -29.8300   21.7370 H   0  0  0  0  0  0  0  0  0  0  0  0
  -18.0370  -28.0680   22.9220 C   0  0  0  0  0  0  0  0  0  0  0  0
  -20.5930  -28.3370   23.1960 C   0  0  0  0  0  3  0  0  0  0  0  0
  -20.7010  -26.9040   22.6240 C   0  0  0  0  0  2  0  0  0  0  0  0
  -19.6020  -26.5740   21.6090 C   0  0  0  0  0  2  0  0  0  0  0  0
  -18.2190  -26.7170   22.2510 C   0  0  0  0  0  2  0  0  0  0  0  0
  -19.1520  -28.8360   23.3510 C   0  0  0  0  0  0  0  0  0  0  0  0
  -18.9290  -30.1010   23.9370 C   0  0  0  0  0  3  0  0  0  0  0  0
  -17.6230  -30.5990   24.0990 C   0  0  0  0  0  3  0  0  0  0  0  0
  -16.5210  -29.8280   23.6870 C   0  0  0  0  0  3  0  0  0  0  0  0
  -16.7290  -28.5660   23.1040 C   0  0  0  0  0  3  0  0  0  0  0  0
  -25.8870  -32.5040   23.8300 C   0  0  0  0  0  3  0  0  0  0  0  0
  -26.4150  -31.7260   25.0990 C   0  0  1  0  0  0  0  0  0  0  0  0
  -25.3310  -31.4830   26.1750 C   0  0  0  0  0  1  0  0  0  0  0  0
  -26.9930  -30.3500   24.6930 C   0  0  0  0  0  1  0  0  0  0  0  0
  -27.5720  -32.5160   25.7540 C   0  0  0  0  0  1  0  0  0  0  0  0
  -25.5800  -33.9010   24.1710 N   0  0  0  0  0  0  0  0  0  0  0  0
  -25.9080  -34.9570   23.4150 C   0  0  0  0  0  0  0  0  0  0  0  0
  -26.5710  -34.8590   22.3790 O   0  0  0  0  0  0  0  0  0  0  0  0
  -24.9910  -34.0510   24.9760 H   0  0  0  0  0  0  0  0  0  0  0  0
  -24.1760  -36.7500   23.0790 C   0  0  0  0  0  1  0  0  0  0  0  0
  -25.4220  -36.3430   23.8810 C   0  0  0  0  0  3  0  0  0  0  0  0
  -27.5630  -37.2230   24.6990 C   0  0  0  0  0  1  0  0  0  0  0  0
  -26.4530  -37.3970   23.7660 N   0  0  0  0  0  0  0  0  0  0  0  0
  -26.0480  -38.3160   23.9220 H   0  0  0  0  0  0  0  0  0  0  0  0
  -28.9100  -22.8780   20.4230 O   0  0  0  0  0  0  0  0  0  0  0  0
  -28.3720  -21.5820   20.0450 C   0  0  0  0  0  2  0  0  0  0  0  0
  -29.4000  -20.4060   19.8200 C   0  0  0  0  0  2  0  0  0  0  0  0
  -29.3490  -19.2780   20.7360 O   0  0  0  0  0  0  0  0  0  0  0  0
  -29.7840  -18.0010   20.1830 C   0  0  0  0  0  2  0  0  0  0  0  0
  -30.1970  -16.9170   21.2400 C   0  0  0  0  0  2  0  0  0  0  0  0
  -29.7780  -15.5490   20.9980 O   0  0  0  0  0  0  0  0  0  0  0  0
  -30.6130  -14.5690   20.4860 C   0  0  0  0  0  0  0  0  0  0  0  0
  -30.3590  -12.3550   19.3530 C   0  0  0  0  0  2  0  0  0  0  0  0
  -29.4220  -12.5490   18.1410 C   0  0  0  0  0  2  0  0  0  0  0  0
  -27.9430  -12.4080   18.5590 C   0  0  0  0  0  2  0  0  0  0  0  0
  -27.5900  -13.2510   19.8140 C   0  0  0  0  0  3  0  0  0  0  0  0
  -28.6310  -13.0410   20.9330 C   0  0  0  0  0  2  0  0  0  0  0  0
  -29.9560  -13.3290   20.3760 N   0  0  0  0  0  0  0  0  0  0  0  0
  -31.7500  -14.7950   20.0640 O   0  0  0  0  0  0  0  0  0  0  0  0
  -25.1880  -13.8620   20.5000 C   0  0  0  0  0  0  0  0  0  0  0  0
  -24.1170  -13.0940   20.8650 C   0  0  0  0  0  0  0  0  0  0  0  0
  -24.5770  -11.7420   20.8520 C   0  0  0  0  0  0  0  0  0  0  0  0
  -26.2340  -12.9790   20.2830 N   0  0  0  0  0  0  0  0  0  0  0  0
  -25.8710  -11.6980   20.5550 N   0  0  0  0  0  0  0  0  0  0  0  0
  -23.8490  -10.4810   21.0480 C   0  0  0  0  0  0  0  0  0  0  0  0
  -24.2860   -9.5120   21.9780 C   0  0  0  0  0  3  0  0  0  0  0  0
  -23.5580   -8.3160   22.1610 C   0  0  0  0  0  3  0  0  0  0  0  0
  -22.3790   -8.0820   21.4130 C   0  0  0  0  0  0  0  0  0  0  0  0
  -21.9620   -9.0400   20.4730 C   0  0  0  0  0  3  0  0  0  0  0  0
  -22.6910  -10.2270   20.2880 C   0  0  0  0  0  3  0  0  0  0  0  0
  -21.6230   -6.9390   21.5050 O   0  0  0  0  0  0  0  0  0  0  0  0
  -21.5930   -6.1860   22.6520 C   0  0  0  0  0  0  0  0  0  0  0  0
  -21.2090   -6.7350   23.8940 C   0  0  0  0  0  3  0  0  0  0  0  0
  -21.1250   -5.9090   25.0330 C   0  0  0  0  0  3  0  0  0  0  0  0
  -21.4160   -4.5360   24.9310 C   0  0  0  0  0  0  0  0  0  0  0  0
  -21.7920   -3.9860   23.6930 C   0  0  0  0  0  3  0  0  0  0  0  0
  -21.8780   -4.8080   22.5560 C   0  0  0  0  0  0  0  0  0  0  0  0
  -22.2210   -4.2700   21.3610 F   0  0  0  0  0  0  0  0  0  0  0  0
  -21.3270   -3.7400   26.0220 F   0  0  0  0  0  0  0  0  0  0  0  0
  -22.7180  -13.5740   21.1220 C   0  0  0  0  0  0  0  0  0  0  0  0
  -21.9840  -12.8850   21.9900 N   0  0  0  0  0  0  0  0  0  0  0  0
  -22.2830  -14.5940   20.5890 O   0  0  0  0  0  0  0  0  0  0  0  0
  -22.3470  -12.0600   22.4420 H   0  0  0  0  0  0  0  0  0  0  0  0
  -21.0440  -13.1890   22.2050 H   0  0  0  0  0  0  0  0  0  0  0  0
  -25.3570  -15.2310   20.3150 N   0  0  0  0  0  0  0  0  0  0  0  0
  -24.5960  -15.8930   20.4210 H   0  0  0  0  0  0  0  0  0  0  0  0
  -26.2240  -15.6670   20.0240 H   0  0  0  0  0  0  0  0  0  0  0  0
  1 44  1  0
  1  2  1  0
  3  5  1  0
  3  2  1  0
  4 15  2  0
  5 10  1  0
  6 14  1  0
  6 16  1  0
  7 13  1  0
  7  9  1  0
  8 14  1  0
  9  8  1  0
 10  9  2  0
 11 12  1  0
 11  5  2  0
 12  7  2  0
 13  6  1  0
 14  4  1  0
 16 18  2  0
 17 16  1  0
 19 17  1  0
 20 29  2  0
 20 25  1  0
 21 17  1  0
 21 25  1  0
 22 21  1  0
 23 24  1  0
 23 22  1  0
 24 20  1  0
 25 26  2  0
 26 27  1  0
 28 27  2  0
 29 28  1  0
 30  4  1  0
 30 35  1  0
 30 31  1  0
 31 34  1  1
 31 32  1  0
 33 31  1  0
 35 38  1  0
 36 40  1  0
 36 35  1  0
 37 36  2  0
 40 39  1  0
 42 40  1  0
 42 43  1  0
 42 41  1  0
 45 44  1  0
 46 45  1  0
 46 47  1  0
 48 47  1  0
 48 49  1  0
 50 49  1  0
 51 50  1  0
 52 57  1  0
 53 54  1  0
 53 52  1  0
 55 54  1  0
 55 62  1  0
 55 56  1  0
 57 51  1  0
 57 56  1  0
 58 51  2  0
 59 60  2  0
 60 79  1  0
 61 60  1  0
 61 64  1  0
 62 59  1  0
 62 63  1  0
 63 61  2  0
 64 65  1  0
 65 66  2  0
 67 70  1  0
 67 66  1  0
 68 67  2  0
 69 68  1  0
 69 64  2  0
 70 71  1  0
 71 72  1  0
 72 73  2  0
 74 73  1  0
 74 78  1  0
 75 74  2  0
 76 71  2  0
 76 75  1  0
 77 76  1  0
 79 80  1  0
 80 83  1  0
 80 82  1  0
 81 79  2  0
 84 85  1  0
 84 59  1  0
 86 84  1  0
M  ISO  4   2 101   3 101  50 100  51 100
M  END
>  <TORSDO>  (11) 
F 24

>  <SCORE>  (11) 
-12.330

>  <name>  (11) 
10

>  <ligand_id>  (11) 
10

>  <original_smiles>  (11) 
[H]c1c([H])c([H])c2c(c1[H])C([H])([H])C([H])([H])C([H])([H])C2([H])N([H])C(=O)C1([H])N(C(=O)C([H])(N([H])C(=O)C([H])(N([H])C([H])([H])[H])C([H])([H])[H])C(C([H])([H])[H])(C([H])([H])[H])C([H])([H])[H])C([H])([H])c2c([H])c(OC([H])([H])C([H])([H])OC([H])([H])C([H])([H])OC([H])([H])C([H])([H])OC(=O)N3C([H])([H])C([H])([H])C([H])([H])C([H])(n4nc(-c5c([H])c([H])c(Oc6c([H])c([H])c(F)c([H])c6F)c([H])c5[H])c(C(=O)N([H])[H])c4N([H])[H])C3([H])[H])c([H])c([H])c2C1([H])[H]

>  <smiles>  (11) 
[H]c1c([H])c([H])c2c(c1[H])C([H])([H])C([H])([H])C([H])([H])C2([H])N([H])C(=O)C1([H])N(C(=O)C([H])(N([H])C(=O)C([H])(N([H])C([H])([H])[H])C([H])([H])[H])C(C([H])([H])[H])(C([H])([H])[H])C([H])([H])[H])C([H])([H])c2c([H])c(OC([H])([H])C([H])([H])OC([H])([H])C([H])([H])OC([H])([H])C([H])([H])OC(=O)N3C([H])([H])C([H])([H])C([H])([H])C([H])(n4nc(-c5c([H])c([H])c(Oc6c([H])c([H])c(F)c([H])c6F)c([H])c5[H])c(C(=O)N([H])[H])c4N([H])[H])C3([H])[H])c([H])c([H])c2C1([H])[H]

$$$$
11:0:0
     RDKit          3D

 81 85  0  0  1  0  0  0  0  0999 V2000
  -28.1090  -24.6470   20.3000 O   0  0  0  0  0  1  0  0  0  0  0  0
  -24.7100  -31.7810   23.1610 C   0  0  0  0  0  0  0  0  0  0  0  0
  -27.2070  -26.1440   20.2640 C   0  0  0  0  0  0  0  0  0  0  0  0
  -23.5560  -30.3680   21.5220 C   0  0  0  0  0  3  0  0  0  0  0  0
  -25.0090  -28.5810   20.1690 C   0  0  0  0  0  0  0  0  0  0  0  0
  -26.1560  -30.3130   21.5020 C   0  0  0  0  0  2  0  0  0  0  0  0
  -26.2110  -28.8120   20.8490 C   0  0  0  0  0  0  0  0  0  0  0  0
  -27.2590  -27.6460   20.8460 C   0  0  0  0  0  3  0  0  0  0  0  0
  -25.9680  -26.2870   19.5230 C   0  0  0  0  0  3  0  0  0  0  0  0
  -24.9660  -27.3480   19.4800 C   0  0  0  0  0  3  0  0  0  0  0  0
  -23.8360  -29.6140   20.1780 C   0  0  0  0  0  2  0  0  0  0  0  0
  -24.8390  -30.8700   22.1140 N   0  0  0  0  0  0  0  0  0  0  0  0
  -23.6010  -32.1150   23.6230 O   0  0  0  0  0  0  0  0  0  0  0  0
  -22.7620  -29.4580   22.5040 C   0  0  0  0  0  0  0  0  0  0  0  0
  -21.4220  -29.3560   22.3730 N   0  0  0  0  0  0  0  0  0  0  0  0
  -23.3780  -28.8290   23.3670 O   0  0  0  0  0  0  0  0  0  0  0  0
  -20.9670  -29.9120   21.6630 H   0  0  0  0  0  0  0  0  0  0  0  0
  -17.9970  -28.2130   22.9010 C   0  0  0  0  0  0  0  0  0  0  0  0
  -20.5670  -28.4380   23.1430 C   0  0  0  0  0  3  0  0  0  0  0  0
  -20.6330  -27.0060   22.5600 C   0  0  0  0  0  2  0  0  0  0  0  0
  -19.5210  -26.7160   21.5460 C   0  0  0  0  0  2  0  0  0  0  0  0
  -18.1460  -26.8740   22.1990 C   0  0  0  0  0  2  0  0  0  0  0  0
  -19.1320  -28.9550   23.3290 C   0  0  0  0  0  0  0  0  0  0  0  0
  -18.9320  -30.2040   23.9560 C   0  0  0  0  0  3  0  0  0  0  0  0
  -17.6350  -30.7130   24.1530 C   0  0  0  0  0  3  0  0  0  0  0  0
  -16.5160  -29.9710   23.7350 C   0  0  0  0  0  3  0  0  0  0  0  0
  -16.6980  -28.7220   23.1160 C   0  0  0  0  0  3  0  0  0  0  0  0
  -25.9400  -32.4590   23.8420 C   0  0  0  0  0  3  0  0  0  0  0  0
  -25.5980  -33.8650   24.1720 N   0  0  0  0  0  0  0  0  0  0  0  0
  -25.9200  -34.9450   23.4450 C   0  0  0  0  0  0  0  0  0  0  0  0
  -26.5760  -34.8640   22.4040 O   0  0  0  0  0  0  0  0  0  0  0  0
  -25.0070  -33.9990   24.9800 H   0  0  0  0  0  0  0  0  0  0  0  0
  -24.1680  -36.7480   23.1980 C   0  0  0  0  0  1  0  0  0  0  0  0
  -25.4480  -36.3330   23.9420 C   0  0  0  0  0  3  0  0  0  0  0  0
  -27.6060  -37.2470   24.6880 C   0  0  0  0  0  1  0  0  0  0  0  0
  -26.4650  -37.3980   23.7880 N   0  0  0  0  0  0  0  0  0  0  0  0
  -26.0550  -38.3150   23.9480 H   0  0  0  0  0  0  0  0  0  0  0  0
  -26.3960  -31.7200   25.1620 C   0  0  1  0  0  0  0  0  0  0  0  0
  -25.2580  -31.5140   26.1910 C   0  0  0  0  0  1  0  0  0  0  0  0
  -26.9880  -30.3300   24.8490 C   0  0  0  0  0  1  0  0  0  0  0  0
  -27.5230  -32.5250   25.8520 C   0  0  0  0  0  1  0  0  0  0  0  0
  -28.1400  -22.5480   20.1630 C   0  0  0  0  0 15  0  0  0  0  0  0
  -29.1420  -20.4180   20.2160 C   0  0  0  0  0 15  0  0  0  0  0  0
  -29.9010  -16.6470   20.0860 C   0  0  0  0  0  0  0  0  0  0  0  0
  -30.2300  -13.8900   19.2940 C   0  0  0  0  0  2  0  0  0  0  0  0
  -29.4480  -13.0530   18.1990 C   0  0  0  0  0  2  0  0  0  0  0  0
  -28.1340  -12.4820   18.7300 C   0  0  0  0  0  2  0  0  0  0  0  0
  -27.5010  -13.5140   19.6750 C   0  0  0  0  0  3  0  0  0  0  0  0
  -28.4750  -14.2100   20.6950 C   0  0  0  0  0  2  0  0  0  0  0  0
  -29.4550  -15.1290   19.9600 N   0  0  0  0  0  0  0  0  0  0  0  0
  -31.1430  -16.3980   20.0040 O   0  0  0  0  0  0  0  0  0  0  0  0
  -29.2570  -18.3100   20.1340 N   0  0  0  0  0  2  0  0  0  0  0  0
  -30.2580  -18.4710   20.1320 H   0  0  0  0  0  0  0  0  0  0  0  0
  -25.1600  -13.9200   20.5080 C   0  0  0  0  0  0  0  0  0  0  0  0
  -24.1280  -13.1120   20.8810 C   0  0  0  0  0  0  0  0  0  0  0  0
  -24.6260  -11.7720   20.8220 C   0  0  0  0  0  0  0  0  0  0  0  0
  -26.2240  -13.0860   20.2420 N   0  0  0  0  0  0  0  0  0  0  0  0
  -25.9190  -11.7780   20.4820 N   0  0  0  0  0  0  0  0  0  0  0  0
  -23.9140  -10.4950   21.0120 C   0  0  0  0  0  0  0  0  0  0  0  0
  -24.3570   -9.5290   21.9420 C   0  0  0  0  0  3  0  0  0  0  0  0
  -23.6350   -8.3280   22.1300 C   0  0  0  0  0  3  0  0  0  0  0  0
  -22.4560   -8.0830   21.3870 C   0  0  0  0  0  0  0  0  0  0  0  0
  -22.0290   -9.0390   20.4470 C   0  0  0  0  0  3  0  0  0  0  0  0
  -22.7510  -10.2310   20.2590 C   0  0  0  0  0  3  0  0  0  0  0  0
  -21.7070   -6.9350   21.4820 O   0  0  0  0  0  0  0  0  0  0  0  0
  -21.6700   -6.1910   22.6350 C   0  0  0  0  0  0  0  0  0  0  0  0
  -21.2140   -6.7320   23.8560 C   0  0  0  0  0  3  0  0  0  0  0  0
  -21.1260   -5.9140   25.0000 C   0  0  0  0  0  3  0  0  0  0  0  0
  -21.4850   -4.5540   24.9250 C   0  0  0  0  0  0  0  0  0  0  0  0
  -21.9340   -4.0110   23.7070 C   0  0  0  0  0  3  0  0  0  0  0  0
  -22.0220   -4.8270   22.5660 C   0  0  0  0  0  0  0  0  0  0  0  0
  -22.4340   -4.2930   21.3900 F   0  0  0  0  0  0  0  0  0  0  0  0
  -21.3950   -3.7660   26.0220 F   0  0  0  0  0  0  0  0  0  0  0  0
  -22.7270  -13.5620   21.1730 C   0  0  0  0  0  0  0  0  0  0  0  0
  -22.0260  -12.8570   22.0520 N   0  0  0  0  0  0  0  0  0  0  0  0
  -22.2670  -14.5820   20.6590 O   0  0  0  0  0  0  0  0  0  0  0  0
  -22.4140  -12.0340   22.4890 H   0  0  0  0  0  0  0  0  0  0  0  0
  -21.0880  -13.1430   22.2910 H   0  0  0  0  0  0  0  0  0  0  0  0
  -25.2790  -15.2960   20.3350 N   0  0  0  0  0  0  0  0  0  0  0  0
  -24.4980  -15.9290   20.4650 H   0  0  0  0  0  0  0  0  0  0  0  0
  -26.1180  -15.7610   20.0090 H   0  0  0  0  0  0  0  0  0  0  0  0
  2 13  2  0
  3  1  1  0
  3  8  1  0
  4 12  1  0
  4 14  1  0
  5 11  1  0
  5  7  1  0
  6 12  1  0
  7  6  1  0
  8  7  2  0
  9  3  2  0
 10  9  1  0
 10  5  2  0
 11  4  1  0
 12  2  1  0
 14 16  2  0
 15 14  1  0
 17 15  1  0
 18 27  2  0
 18 23  1  0
 19 15  1  0
 19 23  1  0
 20 19  1  0
 21 22  1  0
 21 20  1  0
 22 18  1  0
 23 24  2  0
 24 25  1  0
 26 25  2  0
 27 26  1  0
 28  2  1  0
 28 29  1  0
 28 38  1  0
 29 32  1  0
 30 34  1  0
 30 29  1  0
 31 30  2  0
 34 33  1  0
 36 34  1  0
 36 37  1  0
 36 35  1  0
 38 41  1  1
 38 39  1  0
 40 38  1  0
 44 52  1  0
 45 50  1  0
 46 47  1  0
 46 45  1  0
 48 47  1  0
 48 57  1  0
 48 49  1  0
 50 44  1  0
 50 49  1  0
 51 44  2  0
 53 52  1  0
 54 55  2  0
 55 74  1  0
 56 55  1  0
 56 59  1  0
 57 58  1  0
 57 54  1  0
 58 56  2  0
 59 60  1  0
 60 61  2  0
 62 65  1  0
 62 61  1  0
 63 62  2  0
 64 63  1  0
 64 59  2  0
 65 66  1  0
 66 67  1  0
 67 68  2  0
 69 68  1  0
 69 73  1  0
 70 69  2  0
 71 66  2  0
 71 70  1  0
 72 71  1  0
 74 75  1  0
 75 78  1  0
 75 77  1  0
 76 74  2  0
 79 80  1  0
 79 54  1  0
 81 79  1  0
M  ISO  4   1 101  42 101  44 100  52 100
M  END
>  <TORSDO>  (12) 
F 17

>  <SCORE>  (12) 
-16.141

>  <name>  (12) 
11

>  <ligand_id>  (12) 
11

>  <original_smiles>  (12) 
[H]c1c([H])c([H])c2c(c1[H])C([H])([H])C([H])([H])C([H])([H])C2([H])N([H])C(=O)C1([H])N(C(=O)C([H])(N([H])C(=O)C([H])(N([H])C([H])([H])[H])C([H])([H])[H])C(C([H])([H])[H])(C([H])([H])[H])C([H])([H])[H])C([H])([H])c2c([H])c(OC([H])([H])C([H])([H])N([H])C(=O)N3C([H])([H])C([H])([H])C([H])([H])C([H])(n4nc(-c5c([H])c([H])c(Oc6c([H])c([H])c(F)c([H])c6F)c([H])c5[H])c(C(=O)N([H])[H])c4N([H])[H])C3([H])[H])c([H])c([H])c2C1([H])[H]

>  <smiles>  (12) 
[H]c1c([H])c([H])c2c(c1[H])C([H])([H])C([H])([H])C([H])([H])C2([H])N([H])C(=O)C1([H])N(C(=O)C([H])(N([H])C(=O)C([H])(N([H])C([H])([H])[H])C([H])([H])[H])C(C([H])([H])[H])(C([H])([H])[H])C([H])([H])[H])C([H])([H])c2c([H])c(OC([H])([H])C([H])([H])N([H])C(=O)N3C([H])([H])C([H])([H])C([H])([H])C([H])(n4nc(-c5c([H])c([H])c(Oc6c([H])c([H])c(F)c([H])c6F)c([H])c5[H])c(C(=O)N([H])[H])c4N([H])[H])C3([H])[H])c([H])c([H])c2C1([H])[H]

$$$$
12:0:0
     RDKit          3D

 80 83  0  0  1  0  0  0  0  0999 V2000
  -24.7310  -31.7630   23.0940 C   0  0  0  0  0  0  0  0  0  0  0  0
  -27.2120  -26.2370   20.1170 C   0  0  0  0  0  0  0  0  0  0  0  0
  -23.5510  -30.3570   21.4670 C   0  0  0  0  0  3  0  0  0  0  0  0
  -24.9920  -28.6060   20.0730 C   0  0  0  0  0  0  0  0  0  0  0  0
  -26.1490  -30.3450   21.3880 C   0  0  0  0  0  2  0  0  0  0  0  0
  -26.2020  -28.8580   20.7260 C   0  0  0  0  0  0  0  0  0  0  0  0
  -27.2670  -27.7230   20.7010 C   0  0  0  0  0  3  0  0  0  0  0  0
  -25.9610  -26.3360   19.4020 C   0  0  0  0  0  3  0  0  0  0  0  0
  -24.9430  -27.3750   19.3820 C   0  0  0  0  0  3  0  0  0  0  0  0
  -23.8090  -29.6210   20.1110 C   0  0  0  0  0  2  0  0  0  0  0  0
  -24.8420  -30.8680   22.0340 N   0  0  0  0  0  0  0  0  0  0  0  0
  -23.6300  -32.0840   23.5830 O   0  0  0  0  0  0  0  0  0  0  0  0
  -22.7920  -29.4250   22.4550 C   0  0  0  0  0  0  0  0  0  0  0  0
  -21.4510  -29.3110   22.3500 N   0  0  0  0  0  0  0  0  0  0  0  0
  -23.4310  -28.7940   23.2980 O   0  0  0  0  0  0  0  0  0  0  0  0
  -20.9760  -29.8700   21.6530 H   0  0  0  0  0  0  0  0  0  0  0  0
  -18.0490  -28.1250   22.9140 C   0  0  0  0  0  0  0  0  0  0  0  0
  -20.6170  -28.3820   23.1290 C   0  0  0  0  0  3  0  0  0  0  0  0
  -20.6960  -26.9500   22.5460 C   0  0  0  0  0  2  0  0  0  0  0  0
  -19.5770  -26.6440   21.5450 C   0  0  0  0  0  2  0  0  0  0  0  0
  -18.2080  -26.7870   22.2130 C   0  0  0  0  0  2  0  0  0  0  0  0
  -19.1790  -28.8820   23.3280 C   0  0  0  0  0  0  0  0  0  0  0  0
  -18.9700  -30.1300   23.9550 C   0  0  0  0  0  3  0  0  0  0  0  0
  -17.6680  -30.6230   24.1640 C   0  0  0  0  0  3  0  0  0  0  0  0
  -16.5550  -29.8660   23.7580 C   0  0  0  0  0  3  0  0  0  0  0  0
  -16.7470  -28.6170   23.1410 C   0  0  0  0  0  3  0  0  0  0  0  0
  -25.9740  -32.4410   23.7510 C   0  0  0  0  0  3  0  0  0  0  0  0
  -25.6360  -33.8440   24.0870 N   0  0  0  0  0  0  0  0  0  0  0  0
  -25.9720  -34.9250   23.3680 C   0  0  0  0  0  0  0  0  0  0  0  0
  -26.6420  -34.8470   22.3360 O   0  0  0  0  0  0  0  0  0  0  0  0
  -25.0350  -33.9780   24.8870 H   0  0  0  0  0  0  0  0  0  0  0  0
  -24.2390  -36.7420   23.0930 C   0  0  0  0  0  1  0  0  0  0  0  0
  -25.4980  -36.3120   23.8640 C   0  0  0  0  0  3  0  0  0  0  0  0
  -27.6510  -37.1970   24.6590 C   0  0  0  0  0  1  0  0  0  0  0  0
  -26.5260  -37.3710   23.7430 N   0  0  0  0  0  0  0  0  0  0  0  0
  -26.1210  -38.2880   23.9120 H   0  0  0  0  0  0  0  0  0  0  0  0
  -26.4550  -31.7000   25.0620 C   0  0  1  0  0  0  0  0  0  0  0  0
  -25.3370  -31.4980   26.1140 C   0  0  0  0  0  1  0  0  0  0  0  0
  -27.0360  -30.3080   24.7370 C   0  0  0  0  0  1  0  0  0  0  0  0
  -27.5980  -32.5020   25.7280 C   0  0  0  0  0  1  0  0  0  0  0  0
  -28.1330  -24.7870   20.1310 O   0  0  0  0  0  1  0  0  0  0  0  0
  -28.1340  -22.7360   20.0320 C   0  0  0  0  0 15  0  0  0  0  0  0
  -29.0900  -20.6470   20.0500 C   0  0  0  0  0 15  0  0  0  0  0  0
  -29.0620  -18.5970   20.0550 O   0  0  0  0  0 15  0  0  0  0  0  0
  -30.0510  -16.5410   19.9720 C   0  0  0  0  0  2  0  0  0  0  0  0
  -30.3270  -13.7530   19.2670 C   0  0  0  0  0  2  0  0  0  0  0  0
  -29.5280  -12.9810   18.1470 C   0  0  0  0  0  2  0  0  0  0  0  0
  -28.1890  -12.4510   18.6640 C   0  0  0  0  0  2  0  0  0  0  0  0
  -27.5570  -13.4950   19.6000 C   0  0  0  0  0  3  0  0  0  0  0  0
  -28.5150  -14.1660   20.6400 C   0  0  0  0  0  2  0  0  0  0  0  0
  -29.5650  -14.9820   19.9220 N   0  0  0  0  0  0  0  0  0  0  0  0
  -31.2920  -16.3610   19.8280 O   0  0  0  0  0  1  0  0  0  0  0  0
  -25.2260  -13.9170   20.4480 C   0  0  0  0  0  0  0  0  0  0  0  0
  -24.1960  -13.1110   20.8330 C   0  0  0  0  0  0  0  0  0  0  0  0
  -24.6930  -11.7710   20.7770 C   0  0  0  0  0  0  0  0  0  0  0  0
  -26.2840  -13.0780   20.1710 N   0  0  0  0  0  0  0  0  0  0  0  0
  -25.9810  -11.7720   20.4270 N   0  0  0  0  0  0  0  0  0  0  0  0
  -23.9850  -10.4960   20.9760 C   0  0  0  0  0  0  0  0  0  0  0  0
  -24.4320   -9.5330   21.9070 C   0  0  0  0  0  3  0  0  0  0  0  0
  -23.7140   -8.3330   22.1020 C   0  0  0  0  0  3  0  0  0  0  0  0
  -22.5310   -8.0850   21.3640 C   0  0  0  0  0  0  0  0  0  0  0  0
  -22.1000   -9.0370   20.4240 C   0  0  0  0  0  3  0  0  0  0  0  0
  -22.8200  -10.2290   20.2280 C   0  0  0  0  0  3  0  0  0  0  0  0
  -21.7830   -6.9360   21.4670 O   0  0  0  0  0  0  0  0  0  0  0  0
  -21.7470   -6.2000   22.6240 C   0  0  0  0  0  0  0  0  0  0  0  0
  -21.3430   -6.7630   23.8530 C   0  0  0  0  0  3  0  0  0  0  0  0
  -21.2520   -5.9550   25.0030 C   0  0  0  0  0  3  0  0  0  0  0  0
  -21.5570   -4.5820   24.9260 C   0  0  0  0  0  0  0  0  0  0  0  0
  -21.9550   -4.0180   23.7020 C   0  0  0  0  0  3  0  0  0  0  0  0
  -22.0460   -4.8240   22.5530 C   0  0  0  0  0  0  0  0  0  0  0  0
  -22.4080   -4.2690   21.3710 F   0  0  0  0  0  0  0  0  0  0  0  0
  -21.4640   -3.8030   26.0290 F   0  0  0  0  0  0  0  0  0  0  0  0
  -22.7990  -13.5650   21.1320 C   0  0  0  0  0  0  0  0  0  0  0  0
  -22.1020  -12.8630   22.0170 N   0  0  0  0  0  0  0  0  0  0  0  0
  -22.3380  -14.5840   20.6180 O   0  0  0  0  0  0  0  0  0  0  0  0
  -22.4920  -12.0410   22.4540 H   0  0  0  0  0  0  0  0  0  0  0  0
  -21.1650  -13.1510   22.2610 H   0  0  0  0  0  0  0  0  0  0  0  0
  -25.3500  -15.2920   20.2710 N   0  0  0  0  0  0  0  0  0  0  0  0
  -24.5720  -15.9290   20.4080 H   0  0  0  0  0  0  0  0  0  0  0  0
  -26.1860  -15.7530   19.9340 H   0  0  0  0  0  0  0  0  0  0  0  0
  1 12  2  0
  2 41  1  0
  2  7  1  0
  3 11  1  0
  3 13  1  0
  4 10  1  0
  4  6  1  0
  5 11  1  0
  6  5  1  0
  7  6  2  0
  8  2  2  0
  9  8  1  0
  9  4  2  0
 10  3  1  0
 11  1  1  0
 13 15  2  0
 14 13  1  0
 16 14  1  0
 17 26  2  0
 17 22  1  0
 18 14  1  0
 18 22  1  0
 19 18  1  0
 20 21  1  0
 20 19  1  0
 21 17  1  0
 22 23  2  0
 23 24  1  0
 25 24  2  0
 26 25  1  0
 27  1  1  0
 27 28  1  0
 27 37  1  0
 28 31  1  0
 29 33  1  0
 29 28  1  0
 30 29  2  0
 33 32  1  0
 35 33  1  0
 35 36  1  0
 35 34  1  0
 37 40  1  1
 37 38  1  0
 39 37  1  0
 46 51  1  0
 47 48  1  0
 47 46  1  0
 49 48  1  0
 49 56  1  0
 49 50  1  0
 51 45  1  0
 51 50  1  0
 52 45  1  0
 53 54  2  0
 54 73  1  0
 55 54  1  0
 55 58  1  0
 56 57  1  0
 56 53  1  0
 57 55  2  0
 58 59  1  0
 59 60  2  0
 61 64  1  0
 61 60  1  0
 62 61  2  0
 63 62  1  0
 63 58  2  0
 64 65  1  0
 65 66  1  0
 66 67  2  0
 68 67  1  0
 68 72  1  0
 69 68  2  0
 70 65  2  0
 70 69  1  0
 71 70  1  0
 73 74  1  0
 74 77  1  0
 74 76  1  0
 75 73  2  0
 78 79  1  0
 78 53  1  0
 80 78  1  0
M  ISO  4  41 101  42 101  44 100  45 100
M  END
>  <TORSDO>  (13) 
F 18

>  <SCORE>  (13) 
-16.084

>  <name>  (13) 
12

>  <ligand_id>  (13) 
12

>  <original_smiles>  (13) 
[H]c1c([H])c([H])c2c(c1[H])C([H])([H])C([H])([H])C([H])([H])C2([H])N([H])C(=O)C1([H])N(C(=O)C([H])(N([H])C(=O)C([H])(N([H])C([H])([H])[H])C([H])([H])[H])C(C([H])([H])[H])(C([H])([H])[H])C([H])([H])[H])C([H])([H])c2c([H])c(OC([H])([H])C([H])([H])OC(=O)N3C([H])([H])C([H])([H])C([H])([H])C([H])(n4nc(-c5c([H])c([H])c(Oc6c([H])c([H])c(F)c([H])c6F)c([H])c5[H])c(C(=O)N([H])[H])c4N([H])[H])C3([H])[H])c([H])c([H])c2C1([H])[H]

>  <smiles>  (13) 
[H]c1c([H])c([H])c2c(c1[H])C([H])([H])C([H])([H])C([H])([H])C2([H])N([H])C(=O)C1([H])N(C(=O)C([H])(N([H])C(=O)C([H])(N([H])C([H])([H])[H])C([H])([H])[H])C(C([H])([H])[H])(C([H])([H])[H])C([H])([H])[H])C([H])([H])c2c([H])c(OC([H])([H])C([H])([H])OC(=O)N3C([H])([H])C([H])([H])C([H])([H])C([H])(n4nc(-c5c([H])c([H])c(Oc6c([H])c([H])c(F)c([H])c6F)c([H])c5[H])c(C(=O)N([H])[H])c4N([H])[H])C3([H])[H])c([H])c([H])c2C1([H])[H]

$$$$
13:0:0
     RDKit          3D

100108  0  0  1  0  0  0  0  0999 V2000
  -32.4300  -24.0640   19.8700 N   0  0  0  0  0  4  0  0  0  0  0  0
  -32.0110  -23.5130   19.1340 H   0  0  0  0  0  0  0  0  0  0  0  0
  -33.4290  -23.9940   19.7450 H   0  0  0  0  0  0  0  0  0  0  0  0
  -32.0590  -23.4670   21.1750 C   0  0  0  0  0  2  0  0  0  0  0  0
  -32.9800  -22.3030   21.5570 C   0  0  0  0  0  2  0  0  0  0  0  0
  -32.5380  -21.1070   20.9320 O   0  0  0  0  0  0  0  0  0  0  0  0
  -32.9890  -19.9620   21.6460 C   0  0  0  0  0  2  0  0  0  0  0  0
  -32.0030  -17.1670   19.2250 C   0  0  0  0  0  3  0  0  0  0  0  0
  -31.0880  -16.6290   21.4180 C   0  0  0  0  0  3  0  0  0  0  0  0
  -32.5590  -18.3510   19.7420 C   0  0  0  0  0  3  0  0  0  0  0  0
  -31.6520  -17.8140   21.9380 C   0  0  0  0  0  3  0  0  0  0  0  0
  -31.2660  -16.3000   20.0580 C   0  0  0  0  0  0  0  0  0  0  0  0
  -32.3810  -18.6850   21.1010 C   0  0  0  0  0  0  0  0  0  0  0  0
  -30.6020  -15.0810   19.4360 C   0  0  0  0  0  2  0  0  0  0  0  0
  -30.4690  -13.9550   20.2980 O   0  0  0  0  0  0  0  0  0  0  0  0
  -31.1270  -12.8270   19.9800 C   0  0  0  0  0  0  0  0  0  0  0  0
  -30.5960  -10.4590   19.4750 C   0  0  0  0  0  2  0  0  0  0  0  0
  -29.6670  -10.4580   18.2430 C   0  0  0  0  0  2  0  0  0  0  0  0
  -28.1910  -10.5640   18.6810 C   0  0  0  0  0  2  0  0  0  0  0  0
  -27.9480  -11.7310   19.6790 C   0  0  0  0  0  3  0  0  0  0  0  0
  -28.9960  -11.7230   20.8190 C   0  0  0  0  0  2  0  0  0  0  0  0
  -30.3370  -11.6960   20.2150 N   0  0  0  0  0  0  0  0  0  0  0  0
  -32.2130  -12.8280   19.3970 O   0  0  0  0  0  0  0  0  0  0  0  0
  -25.7480  -12.7430   20.5610 C   0  0  0  0  0  0  0  0  0  0  0  0
  -24.5660  -12.1650   20.9470 C   0  0  0  0  0  0  0  0  0  0  0  0
  -24.7510  -10.7570   20.8060 C   0  0  0  0  0  0  0  0  0  0  0  0
  -26.5880  -11.6970   20.2110 N   0  0  0  0  0  0  0  0  0  0  0  0
  -25.9910  -10.4920   20.4120 N   0  0  0  0  0  0  0  0  0  0  0  0
  -23.8000   -9.6490   20.9640 C   0  0  0  0  0  0  0  0  0  0  0  0
  -23.9420   -8.6900   21.9930 C   0  0  0  0  0  3  0  0  0  0  0  0
  -22.9990   -7.6480   22.1320 C   0  0  0  0  0  3  0  0  0  0  0  0
  -21.9060   -7.5510   21.2380 C   0  0  0  0  0  0  0  0  0  0  0  0
  -21.7820   -8.4960   20.2050 C   0  0  0  0  0  3  0  0  0  0  0  0
  -22.7230   -9.5310   20.0630 C   0  0  0  0  0  3  0  0  0  0  0  0
  -20.9610   -6.5540   21.2790 O   0  0  0  0  0  0  0  0  0  0  0  0
  -20.5320   -6.0180   22.4660 C   0  0  0  0  0  0  0  0  0  0  0  0
  -19.8200   -6.7850   23.4140 C   0  0  0  0  0  3  0  0  0  0  0  0
  -19.3370   -6.1780   24.5900 C   0  0  0  0  0  3  0  0  0  0  0  0
  -19.5570   -4.8060   24.8170 C   0  0  0  0  0  0  0  0  0  0  0  0
  -20.2600   -4.0390   23.8730 C   0  0  0  0  0  3  0  0  0  0  0  0
  -20.7450   -4.6450   22.6990 C   0  0  0  0  0  0  0  0  0  0  0  0
  -21.4070   -3.8990   21.7810 F   0  0  0  0  0  0  0  0  0  0  0  0
  -19.0870   -4.2200   25.9440 F   0  0  0  0  0  0  0  0  0  0  0  0
  -23.3100  -12.8860   21.3380 C   0  0  0  0  0  0  0  0  0  0  0  0
  -22.4940  -12.2760   22.1920 N   0  0  0  0  0  0  0  0  0  0  0  0
  -23.0720  -14.0210   20.9300 O   0  0  0  0  0  0  0  0  0  0  0  0
  -22.7040  -11.3520   22.5370 H   0  0  0  0  0  0  0  0  0  0  0  0
  -21.6560  -12.7450   22.5070 H   0  0  0  0  0  0  0  0  0  0  0  0
  -26.1610  -14.0650   20.4660 N   0  0  0  0  0  0  0  0  0  0  0  0
  -25.5180  -14.8290   20.6500 H   0  0  0  0  0  0  0  0  0  0  0  0
  -27.0650  -14.3770   20.1330 H   0  0  0  0  0  0  0  0  0  0  0  0
  -32.0180  -25.4790   19.7020 C   0  0  0  0  0  2  0  0  0  0  0  0
  -32.2260  -25.9480   18.2490 C   0  0  0  0  0  2  0  0  0  0  0  0
  -31.4170  -25.1710   17.3730 O   0  0  0  0  0  0  0  0  0  0  0  0
  -30.1480  -25.7600   17.1250 C   0  0  0  0  0  2  0  0  0  0  0  0
  -29.1450  -24.6600   16.7550 C   0  0  0  0  0  2  0  0  0  0  0  0
  -28.8370  -23.8430   17.8800 O   0  0  0  0  0  0  0  0  0  0  0  0
  -27.5890  -24.1300   18.5080 C   0  0  0  0  0  2  0  0  0  0  0  0
  -27.7400  -25.0950   19.7000 C   0  0  0  0  0  2  0  0  0  0  0  0
  -27.9000  -26.4560   19.2970 O   0  0  0  0  0  0  0  0  0  0  0  0
  -24.5330  -31.3110   23.2000 C   0  0  0  0  0  0  0  0  0  0  0  0
  -26.7810  -27.2380   19.4290 C   0  0  0  0  0  0  0  0  0  0  0  0
  -23.1900  -30.2410   21.4220 C   0  0  0  0  0  3  0  0  0  0  0  0
  -24.4970  -28.8580   19.7380 C   0  0  0  0  0  0  0  0  0  0  0  0
  -25.7270  -30.4900   21.1760 C   0  0  0  0  0  2  0  0  0  0  0  0
  -25.7030  -29.2280   20.3430 C   0  0  0  0  0  0  0  0  0  0  0  0
  -26.8550  -28.4280   20.1810 C   0  0  0  0  0  3  0  0  0  0  0  0
  -25.5600  -26.8760   18.8230 C   0  0  0  0  0  3  0  0  0  0  0  0
  -24.4180  -27.6830   18.9740 C   0  0  0  0  0  3  0  0  0  0  0  0
  -23.3150  -29.7730   19.9500 C   0  0  0  0  0  2  0  0  0  0  0  0
  -24.5050  -30.6840   21.9920 N   0  0  0  0  0  0  0  0  0  0  0  0
  -23.4870  -31.5630   23.8170 O   0  0  0  0  0  0  0  0  0  0  0  0
  -22.5120  -29.1230   22.2410 C   0  0  0  0  0  0  0  0  0  0  0  0
  -21.1780  -29.0190   22.1150 N   0  0  0  0  0  0  0  0  0  0  0  0
  -23.1780  -28.3590   22.9430 O   0  0  0  0  0  0  0  0  0  0  0  0
  -20.7070  -29.6890   21.5230 H   0  0  0  0  0  0  0  0  0  0  0  0
  -17.7530  -27.9420   22.5190 C   0  0  0  0  0  0  0  0  0  0  0  0
  -20.3250  -28.0230   22.7620 C   0  0  0  0  0  3  0  0  0  0  0  0
  -20.3360  -26.6840   21.9890 C   0  0  0  0  0  2  0  0  0  0  0  0
  -19.2000  -26.5660   20.9670 C   0  0  0  0  0  2  0  0  0  0  0  0
  -17.8400  -26.6930   21.6590 C   0  0  0  0  0  2  0  0  0  0  0  0
  -18.9190  -28.5760   23.0240 C   0  0  0  0  0  0  0  0  0  0  0  0
  -18.7820  -29.7570   23.7850 C   0  0  0  0  0  3  0  0  0  0  0  0
  -17.5100  -30.2980   24.0500 C   0  0  0  0  0  3  0  0  0  0  0  0
  -16.3580  -29.6570   23.5610 C   0  0  0  0  0  3  0  0  0  0  0  0
  -16.4790  -28.4810   22.7990 C   0  0  0  0  0  3  0  0  0  0  0  0
  -25.8730  -31.7660   23.8550 C   0  0  0  0  0  3  0  0  0  0  0  0
  -25.7340  -33.1850   24.2080 N   0  0  0  0  0  0  0  0  0  0  0  0
  -26.2400  -34.1980   23.4940 C   0  0  0  0  0  0  0  0  0  0  0  0
  -26.9450  -34.0280   22.4950 O   0  0  0  0  0  0  0  0  0  0  0  0
  -25.1260  -33.4020   24.9850 H   0  0  0  0  0  0  0  0  0  0  0  0
  -24.7920  -36.2110   23.0790 C   0  0  0  0  0  1  0  0  0  0  0  0
  -25.9110  -35.6280   23.9590 C   0  0  0  0  0  3  0  0  0  0  0  0
  -28.0680  -36.2200   24.9730 C   0  0  0  0  0  1  0  0  0  0  0  0
  -27.0810  -36.5340   23.9440 N   0  0  0  0  0  0  0  0  0  0  0  0
  -26.7890  -37.5000   24.0680 H   0  0  0  0  0  0  0  0  0  0  0  0
  -26.2720  -30.9120   25.1210 C   0  0  1  0  0  0  0  0  0  0  0  0
  -25.1400  -30.7900   26.1710 C   0  0  0  0  0  1  0  0  0  0  0  0
  -26.6860  -29.4800   24.7010 C   0  0  0  0  0  1  0  0  0  0  0  0
  -27.5020  -31.5450   25.8150 C   0  0  0  0  0  1  0  0  0  0  0  0
  1  4  1  0
  2  1  1  0
  3  1  1  0
  4  5  1  0
  6  5  1  0
  6  7  1  0
  8 10  2  0
  8 12  1  0
  9 11  1  0
 10 13  1  0
 12  9  2  0
 13  7  1  0
 13 11  2  0
 14 12  1  0
 14 15  1  0
 16 22  1  0
 16 15  1  0
 17 22  1  0
 18 19  1  0
 18 17  1  0
 20 19  1  0
 20 27  1  0
 20 21  1  0
 22 21  1  0
 23 16  2  0
 24 25  2  0
 25 44  1  0
 26 25  1  0
 26 29  1  0
 27 28  1  0
 27 24  1  0
 28 26  2  0
 29 30  1  0
 30 31  2  0
 32 35  1  0
 32 31  1  0
 33 32  2  0
 34 33  1  0
 34 29  2  0
 35 36  1  0
 36 41  2  0
 36 37  1  0
 37 38  2  0
 38 39  1  0
 39 43  1  0
 40 39  2  0
 41 40  1  0
 42 41  1  0
 44 45  1  0
 45 48  1  0
 45 47  1  0
 46 44  2  0
 49 24  1  0
 49 50  1  0
 51 49  1  0
 52  1  1  0
 53 52  1  0
 54 53  1  0
 55 54  1  0
 56 55  1  0
 56 57  1  0
 57 58  1  0
 58 59  1  0
 60 62  1  0
 60 59  1  0
 61 72  2  0
 62 67  1  0
 63 71  1  0
 63 73  1  0
 64 70  1  0
 64 66  1  0
 65 71  1  0
 66 65  1  0
 67 66  2  0
 68 69  1  0
 68 62  2  0
 69 64  2  0
 70 63  1  0
 71 61  1  0
 73 75  2  0
 74 73  1  0
 76 74  1  0
 77 86  2  0
 77 82  1  0
 78 74  1  0
 78 82  1  0
 79 78  1  0
 80 81  1  0
 80 79  1  0
 81 77  1  0
 82 83  2  0
 83 84  1  0
 85 84  2  0
 86 85  1  0
 87 61  1  0
 87 88  1  0
 87 97  1  0
 88 91  1  0
 89 93  1  0
 89 88  1  0
 90 89  2  0
 93 92  1  0
 95 93  1  0
 95 96  1  0
 95 94  1  0
 97100  1  1
 97 98  1  0
 99 97  1  0
M  ISO  4  15 100  16 100  59 101  60 101
M  END
>  <TORSDO>  (14) 
F 31

>  <SCORE>  (14) 
-6.583

>  <name>  (14) 
13

>  <ligand_id>  (14) 
13

>  <original_smiles>  (14) 
[H]c1c([H])c([H])c2c(c1[H])C([H])([H])C([H])([H])C([H])([H])C2([H])N([H])C(=O)C1([H])N(C(=O)C([H])(N([H])C(=O)C([H])(N([H])C([H])([H])[H])C([H])([H])[H])C(C([H])([H])[H])(C([H])([H])[H])C([H])([H])[H])C([H])([H])c2c([H])c(OC([H])([H])C([H])([H])OC([H])([H])C([H])([H])OC([H])([H])C([H])([H])[N+]([H])([H])C([H])([H])C([H])([H])OC([H])([H])c3c([H])c([H])c(C([H])([H])OC(=O)N4C([H])([H])C([H])([H])C([H])([H])C([H])(n5nc(-c6c([H])c([H])c(Oc7c([H])c([H])c(F)c([H])c7F)c([H])c6[H])c(C(=O)N([H])[H])c5N([H])[H])C4([H])[H])c([H])c3[H])c([H])c([H])c2C1([H])[H]

>  <smiles>  (14) 
[H]c1c([H])c([H])c2c(c1[H])C([H])([H])C([H])([H])C([H])([H])C2([H])N([H])C(=O)C1([H])N(C(=O)C([H])(N([H])C(=O)C([H])(N([H])C([H])([H])[H])C([H])([H])[H])C(C([H])([H])[H])(C([H])([H])[H])C([H])([H])[H])C([H])([H])c2c([H])c(OC([H])([H])C([H])([H])OC([H])([H])C([H])([H])OC([H])([H])C([H])([H])[N+]([H])([H])C([H])([H])C([H])([H])OC([H])([H])c3c([H])c([H])c(C([H])([H])OC(=O)N4C([H])([H])C([H])([H])C([H])([H])C([H])(n5nc(-c6c([H])c([H])c(Oc7c([H])c([H])c(F)c([H])c7F)c([H])c6[H])c(C(=O)N([H])[H])c5N([H])[H])C4([H])[H])c([H])c3[H])c([H])c([H])c2C1([H])[H]

$$$$
14:0:0
     RDKit          3D

 82 87  0  0  1  0  0  0  0  0999 V2000
  -28.1280  -24.4610   20.3080 O   0  0  0  0  0  1  0  0  0  0  0  0
  -24.7170  -31.7540   23.1190 C   0  0  0  0  0  0  0  0  0  0  0  0
  -27.2370  -26.0080   20.2720 C   0  0  0  0  0  0  0  0  0  0  0  0
  -23.5780  -30.3270   21.4830 C   0  0  0  0  0  3  0  0  0  0  0  0
  -25.0440  -28.5110   20.1550 C   0  0  0  0  0  0  0  0  0  0  0  0
  -26.1810  -30.2440   21.4900 C   0  0  0  0  0  2  0  0  0  0  0  0
  -26.2420  -28.7260   20.8450 C   0  0  0  0  0  0  0  0  0  0  0  0
  -27.2830  -27.5330   20.8480 C   0  0  0  0  0  3  0  0  0  0  0  0
  -26.0020  -26.1970   19.5210 C   0  0  0  0  0  3  0  0  0  0  0  0
  -25.0080  -27.2750   19.4680 C   0  0  0  0  0  3  0  0  0  0  0  0
  -23.8740  -29.5550   20.1500 C   0  0  0  0  0  2  0  0  0  0  0  0
  -24.8600  -30.8260   22.0830 N   0  0  0  0  0  0  0  0  0  0  0  0
  -23.6030  -32.0930   23.5670 O   0  0  0  0  0  0  0  0  0  0  0  0
  -22.7700  -29.4320   22.4680 C   0  0  0  0  0  0  0  0  0  0  0  0
  -21.4280  -29.3480   22.3410 N   0  0  0  0  0  0  0  0  0  0  0  0
  -23.3780  -28.7990   23.3320 O   0  0  0  0  0  0  0  0  0  0  0  0
  -20.9780  -29.9060   21.6300 H   0  0  0  0  0  0  0  0  0  0  0  0
  -17.9930  -28.2310   22.8790 C   0  0  0  0  0  0  0  0  0  0  0  0
  -20.5660  -28.4340   23.1110 C   0  0  0  0  0  3  0  0  0  0  0  0
  -20.6160  -27.0030   22.5240 C   0  0  0  0  0  2  0  0  0  0  0  0
  -19.5000  -26.7270   21.5140 C   0  0  0  0  0  2  0  0  0  0  0  0
  -18.1280  -26.8940   22.1710 C   0  0  0  0  0  2  0  0  0  0  0  0
  -19.1360  -28.9630   23.3050 C   0  0  0  0  0  0  0  0  0  0  0  0
  -18.9480  -30.2110   23.9390 C   0  0  0  0  0  3  0  0  0  0  0  0
  -17.6540  -30.7280   24.1430 C   0  0  0  0  0  3  0  0  0  0  0  0
  -16.5290  -29.9960   23.7270 C   0  0  0  0  0  3  0  0  0  0  0  0
  -16.7000  -28.7490   23.1030 C   0  0  0  0  0  3  0  0  0  0  0  0
  -25.9360  -32.4460   23.8080 C   0  0  0  0  0  3  0  0  0  0  0  0
  -25.5800  -33.8480   24.1450 N   0  0  0  0  0  0  0  0  0  0  0  0
  -25.9080  -34.9380   23.4360 C   0  0  0  0  0  0  0  0  0  0  0  0
  -26.5810  -34.8720   22.4060 O   0  0  0  0  0  0  0  0  0  0  0  0
  -24.9750  -33.9700   24.9440 H   0  0  0  0  0  0  0  0  0  0  0  0
  -24.1580  -36.7430   23.1760 C   0  0  0  0  0  1  0  0  0  0  0  0
  -25.4240  -36.3200   23.9410 C   0  0  0  0  0  3  0  0  0  0  0  0
  -27.5680  -37.2270   24.7370 C   0  0  0  0  0  1  0  0  0  0  0  0
  -26.4430  -37.3900   23.8210 N   0  0  0  0  0  0  0  0  0  0  0  0
  -26.0280  -38.3020   23.9860 H   0  0  0  0  0  0  0  0  0  0  0  0
  -26.3930  -31.7080   25.1290 C   0  0  1  0  0  0  0  0  0  0  0  0
  -25.2540  -31.4940   26.1550 C   0  0  0  0  0  1  0  0  0  0  0  0
  -26.9940  -30.3220   24.8160 C   0  0  0  0  0  1  0  0  0  0  0  0
  -27.5150  -32.5170   25.8220 C   0  0  0  0  0  1  0  0  0  0  0  0
  -28.1060  -22.3000   20.1900 C   0  0  0  0  0 15  0  0  0  0  0  0
  -29.8470  -16.8010   20.1650 C   0  0  0  0  0  0  0  0  0  0  0  0
  -30.2580  -13.9950   19.4080 C   0  0  0  0  0  2  0  0  0  0  0  0
  -29.5270  -13.0930   18.3190 C   0  0  0  0  0  2  0  0  0  0  0  0
  -28.2200  -12.4880   18.8300 C   0  0  0  0  0  2  0  0  0  0  0  0
  -27.5450  -13.5220   19.7390 C   0  0  0  0  0  3  0  0  0  0  0  0
  -28.4810  -14.2790   20.7630 C   0  0  0  0  0  2  0  0  0  0  0  0
  -29.4470  -15.2420   20.0430 N   0  0  0  0  0  0  0  0  0  0  0  0
  -31.0970  -16.5490   20.1140 O   0  0  0  0  0  0  0  0  0  0  0  0
  -29.1500  -20.2780   20.2290 C   0  0  0  0  0  2  0  0  0  0  0  0
  -29.0980  -18.4610   20.1800 N   0  0  0  0  0  0  0  0  0  0  0  0
  -30.3470  -20.5670   20.3300 O   0  0  0  0  0  1  0  0  0  0  0  0
  -28.1090  -18.2680   20.1260 H   0  0  0  0  0  0  0  0  0  0  0  0
  -25.1830  -13.9080   20.5150 C   0  0  0  0  0  0  0  0  0  0  0  0
  -24.1480  -13.0970   20.8740 C   0  0  0  0  0  0  0  0  0  0  0  0
  -24.6540  -11.7600   20.8370 C   0  0  0  0  0  0  0  0  0  0  0  0
  -26.2610  -13.0810   20.2820 N   0  0  0  0  0  0  0  0  0  0  0  0
  -25.9550  -11.7710   20.5250 N   0  0  0  0  0  0  0  0  0  0  0  0
  -23.9430  -10.4810   21.0250 C   0  0  0  0  0  0  0  0  0  0  0  0
  -24.3760   -9.5170   21.9600 C   0  0  0  0  0  3  0  0  0  0  0  0
  -23.6530   -8.3170   22.1460 C   0  0  0  0  0  3  0  0  0  0  0  0
  -22.4780   -8.0710   21.3950 C   0  0  0  0  0  0  0  0  0  0  0  0
  -22.0610   -9.0240   20.4500 C   0  0  0  0  0  3  0  0  0  0  0  0
  -22.7850  -10.2140   20.2640 C   0  0  0  0  0  3  0  0  0  0  0  0
  -21.7300   -6.9210   21.4880 O   0  0  0  0  0  0  0  0  0  0  0  0
  -21.6900   -6.1740   22.6390 C   0  0  0  0  0  0  0  0  0  0  0  0
  -21.2570   -6.7210   23.8660 C   0  0  0  0  0  3  0  0  0  0  0  0
  -21.1660   -5.9030   25.0100 C   0  0  0  0  0  3  0  0  0  0  0  0
  -21.4980   -4.5370   24.9270 C   0  0  0  0  0  0  0  0  0  0  0  0
  -21.9230   -3.9890   23.7040 C   0  0  0  0  0  3  0  0  0  0  0  0
  -22.0160   -4.8040   22.5630 C   0  0  0  0  0  0  0  0  0  0  0  0
  -22.4050   -4.2660   21.3830 F   0  0  0  0  0  0  0  0  0  0  0  0
  -21.4040   -3.7480   26.0230 F   0  0  0  0  0  0  0  0  0  0  0  0
  -22.7390  -13.5440   21.1290 C   0  0  0  0  0  0  0  0  0  0  0  0
  -22.0230  -12.8470   22.0010 N   0  0  0  0  0  0  0  0  0  0  0  0
  -22.2870  -14.5560   20.5940 O   0  0  0  0  0  0  0  0  0  0  0  0
  -22.4050  -12.0310   22.4570 H   0  0  0  0  0  0  0  0  0  0  0  0
  -21.0780  -13.1320   22.2180 H   0  0  0  0  0  0  0  0  0  0  0  0
  -25.2960  -15.2820   20.3270 N   0  0  0  0  0  0  0  0  0  0  0  0
  -24.5050  -15.9090   20.4230 H   0  0  0  0  0  0  0  0  0  0  0  0
  -26.1330  -15.7440   19.9940 H   0  0  0  0  0  0  0  0  0  0  0  0
  2 13  2  0
  3  1  1  0
  3  8  1  0
  4 12  1  0
  4 14  1  0
  5  7  1  0
  6 12  1  0
  7  8  2  0
  7  6  1  0
  9  3  2  0
 10  9  1  0
 10  5  2  0
 11  5  1  0
 11  4  1  0
 12  2  1  0
 14 16  2  0
 15 14  1  0
 17 15  1  0
 18 27  2  0
 18 23  1  0
 19 15  1  0
 19 23  1  0
 20 19  1  0
 21 22  1  0
 21 20  1  0
 22 18  1  0
 23 24  2  0
 24 25  1  0
 26 25  2  0
 27 26  1  0
 28  2  1  0
 28 29  1  0
 28 38  1  0
 29 32  1  0
 30 34  1  0
 30 29  1  0
 31 30  2  0
 34 33  1  0
 36 34  1  0
 36 37  1  0
 36 35  1  0
 38 41  1  1
 38 39  1  0
 40 38  1  0
 43 52  1  0
 44 49  1  0
 45 46  1  0
 45 44  1  0
 47 46  1  0
 47 58  1  0
 47 48  1  0
 49 43  1  0
 49 48  1  0
 50 43  2  0
 51 53  1  0
 52 51  1  0
 54 52  1  0
 55 56  2  0
 56 75  1  0
 57 56  1  0
 57 60  1  0
 58 55  1  0
 58 59  1  0
 59 57  2  0
 60 61  1  0
 61 62  2  0
 63 66  1  0
 63 62  1  0
 64 63  2  0
 65 64  1  0
 65 60  2  0
 66 67  1  0
 67 68  1  0
 68 69  2  0
 70 69  1  0
 70 74  1  0
 71 70  2  0
 72 67  2  0
 72 71  1  0
 73 72  1  0
 75 76  1  0
 76 79  1  0
 76 78  1  0
 77 75  2  0
 80 81  1  0
 80 55  1  0
 82 80  1  0
M  ISO  4   1 101  42 101  43 100  52 100
M  END
>  <TORSDO>  (15) 
F 16

>  <SCORE>  (15) 
-16.200

>  <name>  (15) 
14

>  <ligand_id>  (15) 
14

>  <original_smiles>  (15) 
[H]c1c([H])c([H])c2c(c1[H])C([H])([H])C([H])([H])C([H])([H])C2([H])N([H])C(=O)C1([H])N(C(=O)C([H])(N([H])C(=O)C([H])(N([H])C([H])([H])[H])C([H])([H])[H])C(C([H])([H])[H])(C([H])([H])[H])C([H])([H])[H])C([H])([H])c2c([H])c(OC([H])([H])C(=O)N([H])C(=O)N3C([H])([H])C([H])([H])C([H])([H])C([H])(n4nc(-c5c([H])c([H])c(Oc6c([H])c([H])c(F)c([H])c6F)c([H])c5[H])c(C(=O)N([H])[H])c4N([H])[H])C3([H])[H])c([H])c([H])c2C1([H])[H]

>  <smiles>  (15) 
[H]c1c([H])c([H])c2c(c1[H])C([H])([H])C([H])([H])C([H])([H])C2([H])N([H])C(=O)C1([H])N(C(=O)C([H])(N([H])C(=O)C([H])(N([H])C([H])([H])[H])C([H])([H])[H])C(C([H])([H])[H])(C([H])([H])[H])C([H])([H])[H])C([H])([H])c2c([H])c(OC([H])([H])C(=O)N([H])C(=O)N3C([H])([H])C([H])([H])C([H])([H])C([H])(n4nc(-c5c([H])c([H])c(Oc6c([H])c([H])c(F)c([H])c6F)c([H])c5[H])c(C(=O)N([H])[H])c4N([H])[H])C3([H])[H])c([H])c([H])c2C1([H])[H]

$$$$
16:0:0
     RDKit          3D

101109  0  0  1  0  0  0  0  0999 V2000
  -24.8700  -22.6990   18.8730 C   0  0  0  0  0  2  0  0  0  0  0  0
  -26.0750  -20.8760   17.6380 C   0  0  0  0  0  1  0  0  0  0  0  0
  -26.0060  -22.3120   17.9870 N   0  0  2  0  0  4  0  0  0  0  0  0
  -25.7850  -22.7540   17.1070 H   0  0  0  0  0  0  0  0  0  0  0  0
  -27.2970  -22.9510   18.3640 C   0  0  0  0  0  2  0  0  0  0  0  0
  -27.6190  -24.1110   17.4000 C   0  0  0  0  0  2  0  0  0  0  0  0
  -27.9850  -26.5430   17.6410 C   0  0  0  0  0  0  0  0  0  0  0  0
  -28.2270  -25.2520   18.0870 N   0  0  0  0  0  0  0  0  0  0  0  0
  -27.6610  -26.8490   16.4920 O   0  0  0  0  0  0  0  0  0  0  0  0
  -28.4880  -25.1680   19.0620 H   0  0  0  0  0  0  0  0  0  0  0  0
  -27.9220  -27.3820   18.6910 O   0  0  0  0  0  0  0  0  0  0  0  0
  -24.4780  -31.8490   23.0210 C   0  0  0  0  0  0  0  0  0  0  0  0
  -26.7510  -28.0840   18.9350 C   0  0  0  0  0  0  0  0  0  0  0  0
  -23.0790  -30.6880   21.3440 C   0  0  0  0  0  3  0  0  0  0  0  0
  -24.3520  -29.4750   19.5080 C   0  0  0  0  0  0  0  0  0  0  0  0
  -25.5480  -31.1810   20.8760 C   0  0  0  0  0  2  0  0  0  0  0  0
  -25.5710  -29.9330   20.0230 C   0  0  0  0  0  0  0  0  0  0  0  0
  -26.7740  -29.2420   19.7430 C   0  0  0  0  0  3  0  0  0  0  0  0
  -25.5010  -27.6430   18.4210 C   0  0  0  0  0  3  0  0  0  0  0  0
  -24.3120  -28.3300   18.7030 C   0  0  0  0  0  3  0  0  0  0  0  0
  -23.1100  -30.2600   19.8530 C   0  0  0  0  0  2  0  0  0  0  0  0
  -24.3920  -31.2480   21.8020 N   0  0  0  0  0  0  0  0  0  0  0  0
  -23.4770  -31.9810   23.7420 O   0  0  0  0  0  0  0  0  0  0  0  0
  -22.5910  -29.4950   22.1970 C   0  0  0  0  0  0  0  0  0  0  0  0
  -21.2770  -29.2260   22.1460 N   0  0  0  0  0  0  0  0  0  0  0  0
  -23.3850  -28.8220   22.8610 O   0  0  0  0  0  0  0  0  0  0  0  0
  -20.6900  -29.8340   21.5930 H   0  0  0  0  0  0  0  0  0  0  0  0
  -18.0740  -27.6130   22.5890 C   0  0  0  0  0  0  0  0  0  0  0  0
  -20.5940  -28.1330   22.8390 C   0  0  0  0  0  3  0  0  0  0  0  0
  -20.8410  -26.7820   22.1270 C   0  0  0  0  0  2  0  0  0  0  0  0
  -19.7490  -26.4270   21.1100 C   0  0  0  0  0  2  0  0  0  0  0  0
  -18.3780  -26.3560   21.7910 C   0  0  0  0  0  2  0  0  0  0  0  0
  -19.1140  -28.4520   23.0700 C   0  0  0  0  0  0  0  0  0  0  0  0
  -18.7750  -29.6250   23.7790 C   0  0  0  0  0  3  0  0  0  0  0  0
  -17.4280  -29.9570   24.0150 C   0  0  0  0  0  3  0  0  0  0  0  0
  -16.4020  -29.1160   23.5510 C   0  0  0  0  0  3  0  0  0  0  0  0
  -16.7260  -27.9470   22.8410 C   0  0  0  0  0  3  0  0  0  0  0  0
  -25.8270  -32.4210   23.5580 C   0  0  0  0  0  3  0  0  0  0  0  0
  -25.5500  -33.7500   24.1160 N   0  0  0  0  0  0  0  0  0  0  0  0
  -25.8060  -34.9060   23.4870 C   0  0  0  0  0  0  0  0  0  0  0  0
  -26.3690  -34.9630   22.3900 O   0  0  0  0  0  0  0  0  0  0  0  0
  -25.0310  -33.7790   24.9810 H   0  0  0  0  0  0  0  0  0  0  0  0
  -24.0530  -36.7120   23.5530 C   0  0  0  0  0  1  0  0  0  0  0  0
  -25.3590  -36.2050   24.1850 C   0  0  0  0  0  3  0  0  0  0  0  0
  -27.5620  -36.9800   24.9440 C   0  0  0  0  0  1  0  0  0  0  0  0
  -26.3780  -37.2740   24.1410 N   0  0  0  0  0  0  0  0  0  0  0  0
  -25.9860  -38.1560   24.4620 H   0  0  0  0  0  0  0  0  0  0  0  0
  -26.5150  -31.4940   24.6320 C   0  0  1  0  0  0  0  0  0  0  0  0
  -25.5770  -31.0810   25.7890 C   0  0  0  0  0  1  0  0  0  0  0  0
  -27.0500  -30.1970   23.9770 C   0  0  0  0  0  1  0  0  0  0  0  0
  -27.7370  -32.2160   25.2470 C   0  0  0  0  0  1  0  0  0  0  0  0
  -24.7950  -21.9830   20.2470 C   0  0  0  0  0  2  0  0  0  0  0  0
  -25.9340  -22.3010   21.2350 C   0  0  0  0  0  2  0  0  0  0  0  0
  -27.1790  -21.7970   20.7630 O   0  0  0  0  0  0  0  0  0  0  0  0
  -28.3000  -22.2670   21.5110 C   0  0  0  0  0  2  0  0  0  0  0  0
  -29.6040  -21.7110   20.9090 C   0  0  0  0  0  2  0  0  0  0  0  0
  -29.6320  -20.3030   21.1230 O   0  0  0  0  0  0  0  0  0  0  0  0
  -33.1320  -19.3500   20.1950 C   0  0  0  0  0  3  0  0  0  0  0  0
  -32.9930  -17.9470   20.1470 C   0  0  0  0  0  3  0  0  0  0  0  0
  -32.0350  -20.1760   20.5190 C   0  0  0  0  0  3  0  0  0  0  0  0
  -30.6520  -18.1920   20.7860 C   0  0  0  0  0  3  0  0  0  0  0  0
  -31.7420  -17.3620   20.4380 C   0  0  0  0  0  0  0  0  0  0  0  0
  -30.7740  -19.5960   20.8110 C   0  0  0  0  0  0  0  0  0  0  0  0
  -32.1800  -14.9180   19.9460 C   0  0  0  0  0  0  0  0  0  0  0  0
  -31.8090  -12.5530   19.2930 C   0  0  0  0  0  2  0  0  0  0  0  0
  -30.8680  -12.4770   18.0690 C   0  0  0  0  0  2  0  0  0  0  0  0
  -29.3830  -12.5470   18.4850 C   0  0  0  0  0  2  0  0  0  0  0  0
  -29.1000  -13.7150   19.4660 C   0  0  0  0  0  3  0  0  0  0  0  0
  -30.1150  -13.6510   20.6270 C   0  0  0  0  0  2  0  0  0  0  0  0
  -31.4680  -13.7640   20.0490 N   0  0  0  0  0  0  0  0  0  0  0  0
  -33.2750  -14.9930   19.3800 O   0  0  0  0  0  0  0  0  0  0  0  0
  -31.5190  -15.9630   20.4800 N   0  0  0  0  0  0  0  0  0  0  0  0
  -30.6130  -15.6970   20.8350 H   0  0  0  0  0  0  0  0  0  0  0  0
  -26.8620  -14.7500   20.2240 C   0  0  0  0  0  0  0  0  0  0  0  0
  -25.6690  -14.1790   20.5760 C   0  0  0  0  0  0  0  0  0  0  0  0
  -25.8650  -12.7680   20.4890 C   0  0  0  0  0  0  0  0  0  0  0  0
  -27.7210  -13.6950   19.9470 N   0  0  0  0  0  0  0  0  0  0  0  0
  -27.1200  -12.4980   20.1610 N   0  0  0  0  0  0  0  0  0  0  0  0
  -24.9180  -11.6570   20.6380 C   0  0  0  0  0  0  0  0  0  0  0  0
  -25.1890  -10.5740   21.5030 C   0  0  0  0  0  3  0  0  0  0  0  0
  -24.2580   -9.5250   21.6490 C   0  0  0  0  0  3  0  0  0  0  0  0
  -23.0400   -9.5530   20.9260 C   0  0  0  0  0  0  0  0  0  0  0  0
  -22.7850  -10.6240   20.0500 C   0  0  0  0  0  3  0  0  0  0  0  0
  -23.7170  -11.6640   19.9040 C   0  0  0  0  0  3  0  0  0  0  0  0
  -22.0880   -8.5630   20.9830 O   0  0  0  0  0  0  0  0  0  0  0  0
  -21.9290   -7.7800   22.0990 C   0  0  0  0  0  0  0  0  0  0  0  0
  -21.6830   -8.3370   23.3730 C   0  0  0  0  0  3  0  0  0  0  0  0
  -21.4590   -7.4920   24.4780 C   0  0  0  0  0  3  0  0  0  0  0  0
  -21.4710   -6.0940   24.3100 C   0  0  0  0  0  0  0  0  0  0  0  0
  -21.7130   -5.5380   23.0420 C   0  0  0  0  0  3  0  0  0  0  0  0
  -21.9380   -6.3790   21.9380 C   0  0  0  0  0  0  0  0  0  0  0  0
  -22.1480   -5.8410   20.7120 F   0  0  0  0  0  0  0  0  0  0  0  0
  -21.2490   -5.2810   25.3680 F   0  0  0  0  0  0  0  0  0  0  0  0
  -24.3850  -14.8970   20.8910 C   0  0  0  0  0  0  0  0  0  0  0  0
  -23.5530  -14.3200   21.7530 N   0  0  0  0  0  0  0  0  0  0  0  0
  -24.1340  -15.9970   20.4010 O   0  0  0  0  0  0  0  0  0  0  0  0
  -23.7660  -13.4250   22.1680 H   0  0  0  0  0  0  0  0  0  0  0  0
  -22.6910  -14.7830   22.0020 H   0  0  0  0  0  0  0  0  0  0  0  0
  -27.2790  -16.0730   20.1000 N   0  0  0  0  0  0  0  0  0  0  0  0
  -26.6520  -16.8530   20.2650 H   0  0  0  0  0  0  0  0  0  0  0  0
  -28.1950  -16.3560   19.7780 H   0  0  0  0  0  0  0  0  0  0  0  0
  1 52  1  0
  2  3  1  0
  3  5  1  0
  3  1  1  0
  3  4  1  6
  6  8  1  0
  6  5  1  0
  7  8  1  0
  7 11  1  0
  8 10  1  0
  9  7  2  0
 11 13  1  0
 12 23  2  0
 13 18  1  0
 14 22  1  0
 14 24  1  0
 15 21  1  0
 15 17  1  0
 16 22  1  0
 17 16  1  0
 18 17  2  0
 19 20  1  0
 19 13  2  0
 20 15  2  0
 21 14  1  0
 22 12  1  0
 24 26  2  0
 25 24  1  0
 27 25  1  0
 28 37  2  0
 28 33  1  0
 29 25  1  0
 29 33  1  0
 30 29  1  0
 31 32  1  0
 31 30  1  0
 32 28  1  0
 33 34  2  0
 34 35  1  0
 36 35  2  0
 37 36  1  0
 38 12  1  0
 38 39  1  0
 38 48  1  0
 39 42  1  0
 40 39  1  0
 40 44  1  0
 41 40  2  0
 44 43  1  0
 46 44  1  0
 46 47  1  0
 46 45  1  0
 48 51  1  1
 48 49  1  0
 50 48  1  0
 52 53  1  0
 54 53  1  0
 54 55  1  0
 56 57  1  0
 56 55  1  0
 58 60  1  0
 59 58  2  0
 59 62  1  0
 60 63  2  0
 61 63  1  0
 62 72  1  0
 62 61  2  0
 63 57  1  0
 64 70  1  0
 64 72  1  0
 65 70  1  0
 66 67  1  0
 66 65  1  0
 68 67  1  0
 68 77  1  0
 68 69  1  0
 70 69  1  0
 71 64  2  0
 72 73  1  0
 74 75  2  0
 75 94  1  0
 76 75  1  0
 76 79  1  0
 77 78  1  0
 77 74  1  0
 78 76  2  0
 79 80  1  0
 80 81  2  0
 82 85  1  0
 82 81  1  0
 83 82  2  0
 84 83  1  0
 84 79  2  0
 85 86  1  0
 86 87  1  0
 87 88  2  0
 89 88  1  0
 89 93  1  0
 90 89  2  0
 91 86  2  0
 91 90  1  0
 92 91  1  0
 94 95  1  0
 95 98  1  0
 95 97  1  0
 96 94  2  0
 99 74  1  0
 99100  1  0
101 99  1  0
M  ISO  4   7 101  11 101  64 100  72 100
M  END
>  <TORSDO>  (16) 
F 27

>  <SCORE>  (16) 
-6.945

>  <name>  (16) 
16

>  <ligand_id>  (16) 
16

>  <original_smiles>  (16) 
[H]c1c([H])c(OC([H])([H])C([H])([H])OC([H])([H])C([H])([H])C([H])([H])[N+]([H])(C([H])([H])[H])C([H])([H])C([H])([H])N([H])C(=O)Oc2c([H])c([H])c3c(c2[H])C([H])([H])N(C(=O)C([H])(N([H])C(=O)C([H])(N([H])C([H])([H])[H])C([H])([H])[H])C(C([H])([H])[H])(C([H])([H])[H])C([H])([H])[H])C([H])(C(=O)N([H])C2([H])c4c([H])c([H])c([H])c([H])c4C([H])([H])C([H])([H])C2([H])[H])C3([H])[H])c([H])c(N([H])C(=O)N2C([H])([H])C([H])([H])C([H])([H])C([H])(n3nc(-c4c([H])c([H])c(Oc5c([H])c([H])c(F)c([H])c5F)c([H])c4[H])c(C(=O)N([H])[H])c3N([H])[H])C2([H])[H])c1[H]

>  <smiles>  (16) 
[H]c1c([H])c(OC([H])([H])C([H])([H])OC([H])([H])C([H])([H])C([H])([H])[N+]([H])(C([H])([H])[H])C([H])([H])C([H])([H])N([H])C(=O)Oc2c([H])c([H])c3c(c2[H])C([H])([H])N(C(=O)C([H])(N([H])C(=O)C([H])(N([H])C([H])([H])[H])C([H])([H])[H])C(C([H])([H])[H])(C([H])([H])[H])C([H])([H])[H])C([H])(C(=O)N([H])C2([H])c4c([H])c([H])c([H])c([H])c4C([H])([H])C([H])([H])C2([H])[H])C3([H])[H])c([H])c(N([H])C(=O)N2C([H])([H])C([H])([H])C([H])([H])C([H])(n3nc(-c4c([H])c([H])c(Oc5c([H])c([H])c(F)c([H])c5F)c([H])c4[H])c(C(=O)N([H])[H])c3N([H])[H])C2([H])[H])c1[H]

$$$$
17:0:0
     RDKit          3D

 86 93  0  0  1  0  0  0  0  0999 V2000
  -29.2030  -23.8290   20.1430 C   0  0  0  0  0  2  0  0  0  0  0  0
  -28.0400  -24.9350   20.2210 C   0  0  0  0  0  2  0  0  0  0  0  0
  -28.3000  -26.4110   20.1560 O   0  0  0  0  0  0  0  0  0  0  0  0
  -24.6180  -31.8770   23.2020 C   0  0  0  0  0  0  0  0  0  0  0  0
  -27.1890  -27.2850   20.1310 C   0  0  0  0  0  0  0  0  0  0  0  0
  -23.3990  -30.4770   21.5820 C   0  0  0  0  0  3  0  0  0  0  0  0
  -24.8320  -28.9250   20.1440 C   0  0  0  0  0  0  0  0  0  0  0  0
  -25.9400  -30.7870   21.3710 C   0  0  0  0  0  2  0  0  0  0  0  0
  -26.0120  -29.4050   20.7250 C   0  0  0  0  0  0  0  0  0  0  0  0
  -27.1950  -28.5990   20.7040 C   0  0  0  0  0  3  0  0  0  0  0  0
  -25.9790  -26.8710   19.5230 C   0  0  0  0  0  3  0  0  0  0  0  0
  -24.8180  -27.6640   19.5350 C   0  0  0  0  0  3  0  0  0  0  0  0
  -23.5970  -29.8030   20.2010 C   0  0  0  0  0  2  0  0  0  0  0  0
  -24.6740  -31.0630   22.1080 N   0  0  0  0  0  0  0  0  0  0  0  0
  -23.5400  -32.1580   23.7460 O   0  0  0  0  0  0  0  0  0  0  0  0
  -22.7450  -29.4610   22.5490 C   0  0  0  0  0  0  0  0  0  0  0  0
  -21.4180  -29.2820   22.4360 N   0  0  0  0  0  0  0  0  0  0  0  0
  -23.4320  -28.8370   23.3650 O   0  0  0  0  0  0  0  0  0  0  0  0
  -20.9200  -29.8400   21.7550 H   0  0  0  0  0  0  0  0  0  0  0  0
  -18.0480  -28.0720   22.9620 C   0  0  0  0  0  0  0  0  0  0  0  0
  -20.6070  -28.3470   23.2190 C   0  0  0  0  0  3  0  0  0  0  0  0
  -20.7140  -26.9100   22.6580 C   0  0  0  0  0  2  0  0  0  0  0  0
  -19.6100  -26.5710   21.6520 C   0  0  0  0  0  2  0  0  0  0  0  0
  -18.2290  -26.7160   22.2990 C   0  0  0  0  0  2  0  0  0  0  0  0
  -19.1650  -28.8420   23.3790 C   0  0  0  0  0  0  0  0  0  0  0  0
  -18.9430  -30.1100   23.9610 C   0  0  0  0  0  3  0  0  0  0  0  0
  -17.6370  -30.6070   24.1300 C   0  0  0  0  0  3  0  0  0  0  0  0
  -16.5340  -29.8320   23.7290 C   0  0  0  0  0  3  0  0  0  0  0  0
  -16.7400  -28.5670   23.1500 C   0  0  0  0  0  3  0  0  0  0  0  0
  -25.9060  -32.5160   23.8070 C   0  0  0  0  0  3  0  0  0  0  0  0
  -26.4440  -31.7430   25.0740 C   0  0  1  0  0  0  0  0  0  0  0  0
  -25.3660  -31.5020   26.1590 C   0  0  0  0  0  1  0  0  0  0  0  0
  -27.0240  -30.3670   24.6720 C   0  0  0  0  0  1  0  0  0  0  0  0
  -27.6010  -32.5390   25.7200 C   0  0  0  0  0  1  0  0  0  0  0  0
  -25.5940  -33.9110   24.1470 N   0  0  0  0  0  0  0  0  0  0  0  0
  -25.9120  -34.9690   23.3890 C   0  0  0  0  0  0  0  0  0  0  0  0
  -26.5650  -34.8720   22.3480 O   0  0  0  0  0  0  0  0  0  0  0  0
  -25.0090  -34.0590   24.9570 H   0  0  0  0  0  0  0  0  0  0  0  0
  -24.1670  -36.7560   23.0720 C   0  0  0  0  0  1  0  0  0  0  0  0
  -25.4250  -36.3550   23.8610 C   0  0  0  0  0  3  0  0  0  0  0  0
  -27.5700  -37.2450   24.6520 C   0  0  0  0  0  1  0  0  0  0  0  0
  -26.4490  -37.4130   23.7330 N   0  0  0  0  0  0  0  0  0  0  0  0
  -26.0420  -38.3310   23.8950 H   0  0  0  0  0  0  0  0  0  0  0  0
  -28.9330  -22.4840   20.7130 O   0  0  0  0  0  0  0  0  0  0  0  0
  -29.3190  -21.2530   19.9900 C   0  0  0  0  0  3  0  0  0  0  0  0
  -29.6000  -19.9250   20.8520 C   0  0  0  0  0  3  0  0  0  0  0  0
  -29.5640  -18.4590   20.1810 C   0  0  0  0  0  2  0  0  0  0  0  0
  -30.2440  -17.2340   20.9710 C   0  0  0  0  0  2  0  0  0  0  0  0
  -30.6060  -14.6940   20.4100 C   0  0  0  0  0  0  0  0  0  0  0  0
  -30.3900  -12.4410   19.3670 C   0  0  0  0  0  2  0  0  0  0  0  0
  -29.4440  -12.5240   18.1500 C   0  0  0  0  0  2  0  0  0  0  0  0
  -27.9740  -12.3650   18.5840 C   0  0  0  0  0  2  0  0  0  0  0  0
  -27.6100  -13.2540   19.8030 C   0  0  0  0  0  3  0  0  0  0  0  0
  -28.6690  -13.1420   20.9200 C   0  0  0  0  0  2  0  0  0  0  0  0
  -29.9690  -13.4830   20.3260 N   0  0  0  0  0  0  0  0  0  0  0  0
  -31.7900  -14.8090   20.0840 O   0  0  0  0  0  0  0  0  0  0  0  0
  -29.8350  -15.8020   20.6850 N   0  0  0  0  0  0  0  0  0  0  0  0
  -28.8630  -15.5890   20.8570 H   0  0  0  0  0  0  0  0  0  0  0  0
  -25.2230  -13.8600   20.5210 C   0  0  0  0  0  0  0  0  0  0  0  0
  -24.1530  -13.0910   20.8940 C   0  0  0  0  0  0  0  0  0  0  0  0
  -24.6120  -11.7380   20.8720 C   0  0  0  0  0  0  0  0  0  0  0  0
  -26.2640  -12.9750   20.2920 N   0  0  0  0  0  0  0  0  0  0  0  0
  -25.9030  -11.6950   20.5670 N   0  0  0  0  0  0  0  0  0  0  0  0
  -23.8830  -10.4780   21.0650 C   0  0  0  0  0  0  0  0  0  0  0  0
  -24.3250   -9.5030   21.9860 C   0  0  0  0  0  3  0  0  0  0  0  0
  -23.5950   -8.3080   22.1670 C   0  0  0  0  0  3  0  0  0  0  0  0
  -22.4110   -8.0800   21.4270 C   0  0  0  0  0  0  0  0  0  0  0  0
  -21.9870   -9.0460   20.4960 C   0  0  0  0  0  3  0  0  0  0  0  0
  -22.7170  -10.2320   20.3130 C   0  0  0  0  0  3  0  0  0  0  0  0
  -21.6510   -6.9390   21.5180 O   0  0  0  0  0  0  0  0  0  0  0  0
  -21.6330   -6.1760   22.6590 C   0  0  0  0  0  0  0  0  0  0  0  0
  -21.2660   -6.7180   23.9100 C   0  0  0  0  0  3  0  0  0  0  0  0
  -21.1940   -5.8830   25.0430 C   0  0  0  0  0  3  0  0  0  0  0  0
  -21.4780   -4.5100   24.9270 C   0  0  0  0  0  0  0  0  0  0  0  0
  -21.8370   -3.9670   23.6800 C   0  0  0  0  0  3  0  0  0  0  0  0
  -21.9110   -4.7990   22.5490 C   0  0  0  0  0  0  0  0  0  0  0  0
  -22.2380   -4.2690   21.3460 F   0  0  0  0  0  0  0  0  0  0  0  0
  -21.4000   -3.7070   26.0130 F   0  0  0  0  0  0  0  0  0  0  0  0
  -22.7570  -13.5740   21.1600 C   0  0  0  0  0  0  0  0  0  0  0  0
  -22.0270  -12.8830   22.0300 N   0  0  0  0  0  0  0  0  0  0  0  0
  -22.3200  -14.5960   20.6320 O   0  0  0  0  0  0  0  0  0  0  0  0
  -22.3920  -12.0540   22.4740 H   0  0  0  0  0  0  0  0  0  0  0  0
  -21.0910  -13.1870   22.2550 H   0  0  0  0  0  0  0  0  0  0  0  0
  -25.3930  -15.2290   20.3360 N   0  0  0  0  0  0  0  0  0  0  0  0
  -24.6300  -15.8900   20.4300 H   0  0  0  0  0  0  0  0  0  0  0  0
  -26.2410  -15.6550   19.9850 H   0  0  0  0  0  0  0  0  0  0  0  0
  1  2  1  0
  1 44  1  0
  3  2  1  0
  4 15  2  0
  5  3  1  0
  5 10  1  0
  6 14  1  0
  6 16  1  0
  7 13  1  0
  7  9  1  0
  8 14  1  0
  9  8  1  0
 10  9  2  0
 11 12  1  0
 11  5  2  0
 12  7  2  0
 13  6  1  0
 14  4  1  0
 16 18  2  0
 17 16  1  0
 19 17  1  0
 20 29  2  0
 20 25  1  0
 21 17  1  0
 21 25  1  0
 22 21  1  0
 23 24  1  0
 23 22  1  0
 24 20  1  0
 25 26  2  0
 26 27  1  0
 28 27  2  0
 29 28  1  0
 30  4  1  0
 30 35  1  0
 30 31  1  0
 31 34  1  1
 31 32  1  0
 33 31  1  0
 35 38  1  0
 36 40  1  0
 36 35  1  0
 37 36  2  0
 40 39  1  0
 42 40  1  0
 42 43  1  0
 42 41  1  0
 45 44  1  0
 45 46  2  0
 47 46  1  0
 47 48  1  0
 49 57  1  0
 50 55  1  0
 51 52  1  0
 51 50  1  0
 53 52  1  0
 53 62  1  0
 53 54  1  0
 55 49  1  0
 55 54  1  0
 56 49  2  0
 57 58  1  0
 57 48  1  0
 59 60  2  0
 60 79  1  0
 61 60  1  0
 61 64  1  0
 62 59  1  0
 62 63  1  0
 63 61  2  0
 64 65  1  0
 65 66  2  0
 67 70  1  0
 67 66  1  0
 68 67  2  0
 69 68  1  0
 69 64  2  0
 70 71  1  0
 71 72  1  0
 72 73  2  0
 74 73  1  0
 74 78  1  0
 75 74  2  0
 76 71  2  0
 76 75  1  0
 77 76  1  0
 79 80  1  0
 80 83  1  0
 80 82  1  0
 81 79  2  0
 84 85  1  0
 84 59  1  0
 86 84  1  0
M  ISO  4   2 101   3 101  49 100  57 100
M  END
>  <TORSDO>  (17) 
F 22

>  <SCORE>  (17) 
-12.849

>  <name>  (17) 
17

>  <ligand_id>  (17) 
17

>  <original_smiles>  (17) 
[H]c1c([H])c([H])c2c(c1[H])C([H])([H])C([H])([H])C([H])([H])C2([H])N([H])C(=O)C1([H])N(C(=O)C([H])(N([H])C(=O)C([H])(N([H])C([H])([H])[H])C([H])([H])[H])C(C([H])([H])[H])(C([H])([H])[H])C([H])([H])[H])C([H])([H])c2c([H])c(OC([H])([H])C([H])([H])OC([H])([H])C([H])([H])C([H])([H])C([H])([H])N([H])C(=O)N3C([H])([H])C([H])([H])C([H])([H])C([H])(n4nc(-c5c([H])c([H])c(Oc6c([H])c([H])c(F)c([H])c6F)c([H])c5[H])c(C(=O)N([H])[H])c4N([H])[H])C3([H])[H])c([H])c([H])c2C1([H])[H]

>  <smiles>  (17) 
[H]c1c([H])c([H])c2c(c1[H])C([H])([H])C([H])([H])C([H])([H])C2([H])N([H])C(=O)C1([H])N(C(=O)C([H])(N([H])C(=O)C([H])(N([H])C([H])([H])[H])C([H])([H])[H])C(C([H])([H])[H])(C([H])([H])[H])C([H])([H])[H])C([H])([H])c2c([H])c(OC([H])([H])C([H])([H])OC([H])([H])C([H])([H])C([H])([H])C([H])([H])N([H])C(=O)N3C([H])([H])C([H])([H])C([H])([H])C([H])(n4nc(-c5c([H])c([H])c(Oc6c([H])c([H])c(F)c([H])c6F)c([H])c5[H])c(C(=O)N([H])[H])c4N([H])[H])C3([H])[H])c([H])c([H])c2C1([H])[H]

$$$$
18:0:0
     RDKit          3D

 85 92  0  0  1  0  0  0  0  0999 V2000
  -29.0070  -23.4420   20.3590 C   0  0  0  0  0  3  0  0  0  0  0  0
  -28.5670  -21.8280   20.2590 C   0  0  0  0  0  3  0  0  0  0  0  0
  -29.5960  -20.5120   20.3810 C   0  0  0  0  0  3  0  0  0  0  0  0
  -29.1360  -18.9010   20.3870 C   0  0  0  0  0  3  0  0  0  0  0  0
  -30.2010  -17.6110   20.4040 C   0  0  0  0  0  3  0  0  0  0  0  0
  -30.5520  -14.9210   20.3340 C   0  0  0  0  0  0  0  0  0  0  0  0
  -30.4060  -12.5910   19.3770 C   0  0  0  0  0  2  0  0  0  0  0  0
  -29.4680  -12.5760   18.1480 C   0  0  0  0  0  2  0  0  0  0  0  0
  -28.0050  -12.3750   18.5850 C   0  0  0  0  0  2  0  0  0  0  0  0
  -27.6070  -13.2870   19.7750 C   0  0  0  0  0  3  0  0  0  0  0  0
  -28.6680  -13.2770   20.8960 C   0  0  0  0  0  2  0  0  0  0  0  0
  -29.9420  -13.6740   20.2840 N   0  0  0  0  0  0  0  0  0  0  0  0
  -31.7500  -14.9900   20.0420 O   0  0  0  0  0  0  0  0  0  0  0  0
  -29.7900  -16.0990   20.4990 N   0  0  0  0  0  0  0  0  0  0  0  0
  -28.8120  -15.9330   20.6850 H   0  0  0  0  0  0  0  0  0  0  0  0
  -25.2220  -13.8540   20.5160 C   0  0  0  0  0  0  0  0  0  0  0  0
  -24.1640  -13.0730   20.8890 C   0  0  0  0  0  0  0  0  0  0  0  0
  -24.6380  -11.7260   20.8590 C   0  0  0  0  0  0  0  0  0  0  0  0
  -26.2710  -12.9830   20.2750 N   0  0  0  0  0  0  0  0  0  0  0  0
  -25.9280  -11.6980   20.5490 N   0  0  0  0  0  0  0  0  0  0  0  0
  -23.9190  -10.4590   21.0510 C   0  0  0  0  0  0  0  0  0  0  0  0
  -24.3620   -9.4910   21.9800 C   0  0  0  0  0  3  0  0  0  0  0  0
  -23.6420   -8.2900   22.1610 C   0  0  0  0  0  3  0  0  0  0  0  0
  -22.4650   -8.0490   21.4120 C   0  0  0  0  0  0  0  0  0  0  0  0
  -22.0420   -9.0040   20.4720 C   0  0  0  0  0  3  0  0  0  0  0  0
  -22.7630  -10.1970   20.2900 C   0  0  0  0  0  3  0  0  0  0  0  0
  -21.7160   -6.9000   21.5030 O   0  0  0  0  0  0  0  0  0  0  0  0
  -21.6820   -6.1510   22.6510 C   0  0  0  0  0  0  0  0  0  0  0  0
  -21.2690   -6.6990   23.8860 C   0  0  0  0  0  3  0  0  0  0  0  0
  -21.1830   -5.8770   25.0270 C   0  0  0  0  0  3  0  0  0  0  0  0
  -21.4980   -4.5080   24.9350 C   0  0  0  0  0  0  0  0  0  0  0  0
  -21.9040   -3.9590   23.7060 C   0  0  0  0  0  3  0  0  0  0  0  0
  -21.9930   -4.7790   22.5670 C   0  0  0  0  0  0  0  0  0  0  0  0
  -22.3640   -4.2410   21.3790 F   0  0  0  0  0  0  0  0  0  0  0  0
  -21.4080   -3.7150   26.0290 F   0  0  0  0  0  0  0  0  0  0  0  0
  -22.7630  -13.5410   21.1570 C   0  0  0  0  0  0  0  0  0  0  0  0
  -22.0420  -12.8460   22.0300 N   0  0  0  0  0  0  0  0  0  0  0  0
  -22.3170  -14.5590   20.6290 O   0  0  0  0  0  0  0  0  0  0  0  0
  -22.4160  -12.0240   22.4790 H   0  0  0  0  0  0  0  0  0  0  0  0
  -21.1020  -13.1420   22.2540 H   0  0  0  0  0  0  0  0  0  0  0  0
  -25.3730  -15.2260   20.3340 N   0  0  0  0  0  0  0  0  0  0  0  0
  -24.5980  -15.8700   20.4460 H   0  0  0  0  0  0  0  0  0  0  0  0
  -26.2070  -15.6720   19.9740 H   0  0  0  0  0  0  0  0  0  0  0  0
  -27.9610  -24.7240   20.1180 C   0  0  0  0  0  3  0  0  0  0  0  0
  -28.2540  -26.2370   20.2540 O   0  0  0  0  0  0  0  0  0  0  0  0
  -24.6510  -31.8960   23.2470 C   0  0  0  0  0  0  0  0  0  0  0  0
  -27.1910  -27.2030   20.1940 C   0  0  0  0  0  0  0  0  0  0  0  0
  -23.4330  -30.5090   21.6140 C   0  0  0  0  0  3  0  0  0  0  0  0
  -24.8640  -28.9350   20.1790 C   0  0  0  0  0  0  0  0  0  0  0  0
  -25.9850  -30.7730   21.4300 C   0  0  0  0  0  2  0  0  0  0  0  0
  -26.0490  -29.3850   20.7760 C   0  0  0  0  0  0  0  0  0  0  0  0
  -27.2150  -28.5350   20.7650 C   0  0  0  0  0  3  0  0  0  0  0  0
  -25.9780  -26.8470   19.5650 C   0  0  0  0  0  3  0  0  0  0  0  0
  -24.8390  -27.6780   19.5590 C   0  0  0  0  0  3  0  0  0  0  0  0
  -23.6400  -29.8340   20.2340 C   0  0  0  0  0  2  0  0  0  0  0  0
  -24.7090  -31.0800   22.1520 N   0  0  0  0  0  0  0  0  0  0  0  0
  -23.5690  -32.1840   23.7830 O   0  0  0  0  0  0  0  0  0  0  0  0
  -22.7570  -29.5020   22.5790 C   0  0  0  0  0  0  0  0  0  0  0  0
  -21.4290  -29.3350   22.4560 N   0  0  0  0  0  0  0  0  0  0  0  0
  -23.4320  -28.8740   23.4000 O   0  0  0  0  0  0  0  0  0  0  0  0
  -20.9420  -29.8920   21.7690 H   0  0  0  0  0  0  0  0  0  0  0  0
  -18.0480  -28.1350   22.9600 C   0  0  0  0  0  0  0  0  0  0  0  0
  -20.6070  -28.4010   23.2320 C   0  0  0  0  0  3  0  0  0  0  0  0
  -20.7100  -26.9650   22.6660 C   0  0  0  0  0  2  0  0  0  0  0  0
  -19.6110  -26.6360   21.6510 C   0  0  0  0  0  2  0  0  0  0  0  0
  -18.2280  -26.7820   22.2910 C   0  0  0  0  0  2  0  0  0  0  0  0
  -19.1660  -28.9020   23.3870 C   0  0  0  0  0  0  0  0  0  0  0  0
  -18.9430  -30.1670   23.9730 C   0  0  0  0  0  3  0  0  0  0  0  0
  -17.6370  -30.6660   24.1360 C   0  0  0  0  0  3  0  0  0  0  0  0
  -16.5350  -29.8970   23.7250 C   0  0  0  0  0  3  0  0  0  0  0  0
  -16.7410  -28.6330   23.1430 C   0  0  0  0  0  3  0  0  0  0  0  0
  -25.9360  -32.5240   23.8670 C   0  0  0  0  0  3  0  0  0  0  0  0
  -25.6300  -33.9210   24.2100 N   0  0  0  0  0  0  0  0  0  0  0  0
  -25.9390  -34.9800   23.4500 C   0  0  0  0  0  0  0  0  0  0  0  0
  -26.5800  -34.8840   22.4000 O   0  0  0  0  0  0  0  0  0  0  0  0
  -25.0520  -34.0680   25.0240 H   0  0  0  0  0  0  0  0  0  0  0  0
  -24.1860  -36.7660   23.1770 C   0  0  0  0  0  1  0  0  0  0  0  0
  -25.4650  -36.3660   23.9300 C   0  0  0  0  0  3  0  0  0  0  0  0
  -27.6300  -37.2640   24.6640 C   0  0  0  0  0  1  0  0  0  0  0  0
  -26.4850  -37.4260   23.7710 N   0  0  0  0  0  0  0  0  0  0  0  0
  -26.0800  -38.3440   23.9390 H   0  0  0  0  0  0  0  0  0  0  0  0
  -26.4540  -31.7460   25.1390 C   0  0  1  0  0  0  0  0  0  0  0  0
  -25.3650  -31.5130   26.2130 C   0  0  0  0  0  1  0  0  0  0  0  0
  -27.0270  -30.3650   24.7460 C   0  0  0  0  0  1  0  0  0  0  0  0
  -27.6140  -32.5320   25.7960 C   0  0  0  0  0  1  0  0  0  0  0  0
  2  1  1  0
  2  3  2  0
  3  4  1  0
  4  5  2  0
  5 14  1  0
  6 14  1  0
  7 12  1  0
  8  9  1  0
  8  7  1  0
 10  9  1  0
 10 19  1  0
 10 11  1  0
 12  6  1  0
 12 11  1  0
 13  6  2  0
 14 15  1  0
 16 17  2  0
 17 36  1  0
 18 17  1  0
 18 21  1  0
 19 16  1  0
 19 20  1  0
 20 18  2  0
 21 22  1  0
 22 23  2  0
 24 27  1  0
 24 23  1  0
 25 24  2  0
 26 25  1  0
 26 21  2  0
 27 28  1  0
 28 29  1  0
 29 30  2  0
 31 30  1  0
 31 35  1  0
 32 31  2  0
 33 28  2  0
 33 32  1  0
 34 33  1  0
 36 37  1  0
 37 40  1  0
 37 39  1  0
 38 36  2  0
 41 42  1  0
 41 16  1  0
 43 41  1  0
 44 45  1  0
 44  1  2  0
 46 57  2  0
 47 45  1  0
 47 52  1  0
 48 56  1  0
 48 58  1  0
 49 55  1  0
 49 51  1  0
 50 56  1  0
 51 50  1  0
 52 51  2  0
 53 47  2  0
 54 53  1  0
 54 49  2  0
 55 48  1  0
 56 46  1  0
 58 60  2  0
 59 58  1  0
 61 59  1  0
 62 71  2  0
 62 67  1  0
 63 59  1  0
 63 67  1  0
 64 63  1  0
 65 66  1  0
 65 64  1  0
 66 62  1  0
 67 68  2  0
 68 69  1  0
 70 69  2  0
 71 70  1  0
 72 46  1  0
 72 73  1  0
 72 82  1  0
 73 76  1  0
 74 78  1  0
 74 73  1  0
 75 74  2  0
 78 77  1  0
 80 78  1  0
 80 81  1  0
 80 79  1  0
 82 85  1  1
 82 83  1  0
 84 82  1  0
M  ISO  4   6 100  14 100  44 101  45 101
M  END
>  <TORSDO>  (18) 
F 21

>  <SCORE>  (18) 
-13.163

>  <name>  (18) 
18

>  <ligand_id>  (18) 
18

>  <original_smiles>  (18) 
[H]c1c([H])c([H])c2c(c1[H])C([H])([H])C([H])([H])C([H])([H])C2([H])N([H])C(=O)C1([H])N(C(=O)C([H])(N([H])C(=O)C([H])(N([H])C([H])([H])[H])C([H])([H])[H])C(C([H])([H])[H])(C([H])([H])[H])C([H])([H])[H])C([H])([H])c2c([H])c(OC([H])([H])C([H])([H])C([H])([H])C([H])([H])C([H])([H])C([H])([H])N([H])C(=O)N3C([H])([H])C([H])([H])C([H])([H])C([H])(n4nc(-c5c([H])c([H])c(Oc6c([H])c([H])c(F)c([H])c6F)c([H])c5[H])c(C(=O)N([H])[H])c4N([H])[H])C3([H])[H])c([H])c([H])c2C1([H])[H]

>  <smiles>  (18) 
[H]c1c([H])c([H])c2c(c1[H])C([H])([H])C([H])([H])C([H])([H])C2([H])N([H])C(=O)C1([H])N(C(=O)C([H])(N([H])C(=O)C([H])(N([H])C([H])([H])[H])C([H])([H])[H])C(C([H])([H])[H])(C([H])([H])[H])C([H])([H])[H])C([H])([H])c2c([H])c(OC([H])([H])C([H])([H])C([H])([H])C([H])([H])C([H])([H])C([H])([H])N([H])C(=O)N3C([H])([H])C([H])([H])C([H])([H])C([H])(n4nc(-c5c([H])c([H])c(Oc6c([H])c([H])c(F)c([H])c6F)c([H])c5[H])c(C(=O)N([H])[H])c4N([H])[H])C3([H])[H])c([H])c([H])c2C1([H])[H]

$$$$
19:0:0
     RDKit          3D

101110  0  0  1  0  0  0  0  0999 V2000
  -28.2840  -22.0210   20.0000 C   0  0  0  0  0  2  0  0  0  0  0  0
  -27.6480  -23.4000   19.7440 C   0  0  0  0  0  2  0  0  0  0  0  0
  -26.2540  -25.6040   23.2360 C   0  0  0  0  0  3  0  0  0  0  0  0
  -25.7830  -24.3020   22.9790 C   0  0  0  0  0  3  0  0  0  0  0  0
  -27.1950  -26.1970   22.3720 C   0  0  0  0  0  3  0  0  0  0  0  0
  -26.2630  -23.5880   21.8610 C   0  0  0  0  0  3  0  0  0  0  0  0
  -27.6710  -25.4950   21.2430 C   0  0  0  0  0  0  0  0  0  0  0  0
  -27.2110  -24.1730   20.9900 C   0  0  0  0  0  0  0  0  0  0  0  0
  -28.6640  -26.1510   20.3480 C   0  0  0  0  0  0  0  0  0  0  0  0
  -29.8230  -25.7420   20.2640 O   0  0  0  0  0  0  0  0  0  0  0  0
  -28.1760  -27.1100   19.5070 O   0  0  0  0  0  0  0  0  0  0  0  0
  -24.4550  -31.9350   23.1640 C   0  0  0  0  0  0  0  0  0  0  0  0
  -26.9740  -27.7520   19.6890 C   0  0  0  0  0  0  0  0  0  0  0  0
  -23.1780  -30.6500   21.4770 C   0  0  0  0  0  3  0  0  0  0  0  0
  -24.5660  -29.2140   19.8950 C   0  0  0  0  0  0  0  0  0  0  0  0
  -25.6860  -31.0400   21.1900 C   0  0  0  0  0  2  0  0  0  0  0  0
  -25.7430  -29.7180   20.4600 C   0  0  0  0  0  0  0  0  0  0  0  0
  -26.9490  -28.9950   20.3550 C   0  0  0  0  0  3  0  0  0  0  0  0
  -25.7830  -27.2520   19.1180 C   0  0  0  0  0  3  0  0  0  0  0  0
  -24.5770  -27.9770   19.2210 C   0  0  0  0  0  3  0  0  0  0  0  0
  -23.3240  -30.0580   20.0470 C   0  0  0  0  0  2  0  0  0  0  0  0
  -24.4600  -31.2210   22.0010 N   0  0  0  0  0  0  0  0  0  0  0  0
  -23.3990  -32.1640   23.7680 O   0  0  0  0  0  0  0  0  0  0  0  0
  -22.5630  -29.5690   22.3930 C   0  0  0  0  0  0  0  0  0  0  0  0
  -21.2410  -29.3720   22.2820 N   0  0  0  0  0  0  0  0  0  0  0  0
  -23.2750  -28.9090   23.1540 O   0  0  0  0  0  0  0  0  0  0  0  0
  -20.7290  -29.9610   21.6430 H   0  0  0  0  0  0  0  0  0  0  0  0
  -17.8980  -28.0920   22.7910 C   0  0  0  0  0  0  0  0  0  0  0  0
  -20.4550  -28.3750   23.0100 C   0  0  0  0  0  3  0  0  0  0  0  0
  -20.5670  -26.9860   22.3420 C   0  0  0  0  0  2  0  0  0  0  0  0
  -19.4410  -26.7080   21.3390 C   0  0  0  0  0  2  0  0  0  0  0  0
  -18.0740  -26.7900   22.0240 C   0  0  0  0  0  2  0  0  0  0  0  0
  -19.0160  -28.8440   23.2370 C   0  0  0  0  0  0  0  0  0  0  0  0
  -18.7930  -30.0630   23.9140 C   0  0  0  0  0  3  0  0  0  0  0  0
  -17.4860  -30.5310   24.1440 C   0  0  0  0  0  3  0  0  0  0  0  0
  -16.3820  -29.7760   23.7110 C   0  0  0  0  0  3  0  0  0  0  0  0
  -16.5890  -28.5570   23.0420 C   0  0  0  0  0  3  0  0  0  0  0  0
  -25.7710  -32.5160   23.7750 C   0  0  0  0  0  3  0  0  0  0  0  0
  -25.5150  -33.9170   24.1300 N   0  0  0  0  0  0  0  0  0  0  0  0
  -25.8690  -34.9710   23.3830 C   0  0  0  0  0  0  0  0  0  0  0  0
  -26.5180  -34.8670   22.3390 O   0  0  0  0  0  0  0  0  0  0  0  0
  -24.9570  -34.0860   24.9560 H   0  0  0  0  0  0  0  0  0  0  0  0
  -24.1950  -36.8210   23.0760 C   0  0  0  0  0  1  0  0  0  0  0  0
  -25.4280  -36.3640   23.8700 C   0  0  0  0  0  3  0  0  0  0  0  0
  -27.5910  -37.1640   24.7060 C   0  0  0  0  0  1  0  0  0  0  0  0
  -26.4920  -37.3880   23.7700 N   0  0  0  0  0  0  0  0  0  0  0  0
  -26.1170  -38.3170   23.9420 H   0  0  0  0  0  0  0  0  0  0  0  0
  -26.2870  -31.7060   25.0260 C   0  0  1  0  0  0  0  0  0  0  0  0
  -25.2080  -31.4720   26.1090 C   0  0  0  0  0  1  0  0  0  0  0  0
  -26.8330  -30.3280   24.5910 C   0  0  0  0  0  1  0  0  0  0  0  0
  -27.4730  -32.4550   25.6780 C   0  0  0  0  0  1  0  0  0  0  0  0
  -29.7810  -22.0260   20.3290 C   0  0  0  0  0  2  0  0  0  0  0  0
  -30.2750  -20.7290   19.9860 O   0  0  0  0  0  0  0  0  0  0  0  0
  -34.3010  -19.9610   20.9420 C   0  0  0  0  0  3  0  0  0  0  0  0
  -33.9600  -21.1240   20.2360 C   0  0  0  0  0  3  0  0  0  0  0  0
  -33.3070  -19.0170   21.2740 C   0  0  0  0  0  3  0  0  0  0  0  0
  -32.6110  -21.3690   19.9190 C   0  0  0  0  0  3  0  0  0  0  0  0
  -31.9490  -19.2160   20.9100 C   0  0  0  0  0  0  0  0  0  0  0  0
  -31.5930  -20.4520   20.2900 C   0  0  0  0  0  0  0  0  0  0  0  0
  -30.9350  -18.1190   21.1990 C   0  0  0  0  0  0  0  0  0  0  0  0
  -31.3900  -16.8640   21.0480 N   0  0  0  0  0  0  0  0  0  0  0  0
  -29.7640  -18.3630   21.4960 O   0  0  0  0  0  0  0  0  0  0  0  0
  -32.3130  -16.6450   20.6920 H   0  0  0  0  0  0  0  0  0  0  0  0
  -31.0130  -14.6720   20.2360 C   0  0  0  0  0  0  0  0  0  0  0  0
  -30.6230  -12.4650   19.2010 C   0  0  0  0  0  2  0  0  0  0  0  0
  -29.6830  -12.6150   17.9910 C   0  0  0  0  0  2  0  0  0  0  0  0
  -28.2100  -12.5080   18.4370 C   0  0  0  0  0  2  0  0  0  0  0  0
  -27.8830  -13.3760   19.6810 C   0  0  0  0  0  3  0  0  0  0  0  0
  -28.9670  -13.2580   20.7790 C   0  0  0  0  0  2  0  0  0  0  0  0
  -30.2760  -13.5230   20.1660 N   0  0  0  0  0  0  0  0  0  0  0  0
  -32.0830  -14.8070   19.6360 O   0  0  0  0  0  0  0  0  0  0  0  0
  -30.5420  -15.7130   20.9460 N   0  0  0  0  0  0  0  0  0  0  0  0
  -29.6570  -15.8140   21.4150 H   0  0  0  0  0  0  0  0  0  0  0  0
  -25.5180  -13.9600   20.5060 C   0  0  0  0  0  0  0  0  0  0  0  0
  -24.4590  -13.1840   20.8940 C   0  0  0  0  0  0  0  0  0  0  0  0
  -24.9090  -11.8310   20.8040 C   0  0  0  0  0  0  0  0  0  0  0  0
  -26.5480  -13.0840   20.2010 N   0  0  0  0  0  0  0  0  0  0  0  0
  -26.1870  -11.7940   20.4370 N   0  0  0  0  0  0  0  0  0  0  0  0
  -24.1760  -10.5700   20.9880 C   0  0  0  0  0  0  0  0  0  0  0  0
  -24.5940   -9.6010   21.9250 C   0  0  0  0  0  3  0  0  0  0  0  0
  -23.8600   -8.4060   22.0970 C   0  0  0  0  0  3  0  0  0  0  0  0
  -22.6920   -8.1750   21.3290 C   0  0  0  0  0  0  0  0  0  0  0  0
  -22.2960   -9.1330   20.3780 C   0  0  0  0  0  3  0  0  0  0  0  0
  -23.0320  -10.3170   20.2090 C   0  0  0  0  0  3  0  0  0  0  0  0
  -21.9330   -7.0330   21.4060 O   0  0  0  0  0  0  0  0  0  0  0  0
  -21.8040   -6.3320   22.5790 C   0  0  0  0  0  0  0  0  0  0  0  0
  -21.2680   -6.9220   23.7440 C   0  0  0  0  0  3  0  0  0  0  0  0
  -21.0940   -6.1480   24.9090 C   0  0  0  0  0  3  0  0  0  0  0  0
  -21.4360   -4.7820   24.9040 C   0  0  0  0  0  0  0  0  0  0  0  0
  -21.9550   -4.1900   23.7410 C   0  0  0  0  0  3  0  0  0  0  0  0
  -22.1350   -4.9620   22.5810 C   0  0  0  0  0  0  0  0  0  0  0  0
  -22.6210   -4.3830   21.4560 F   0  0  0  0  0  0  0  0  0  0  0  0
  -21.2580   -4.0360   26.0190 F   0  0  0  0  0  0  0  0  0  0  0  0
  -23.0810  -13.6620   21.2430 C   0  0  0  0  0  0  0  0  0  0  0  0
  -22.3890  -12.9520   22.1300 N   0  0  0  0  0  0  0  0  0  0  0  0
  -22.6240  -14.7010   20.7700 O   0  0  0  0  0  0  0  0  0  0  0  0
  -22.7720  -12.1110   22.5370 H   0  0  0  0  0  0  0  0  0  0  0  0
  -21.4610  -13.2490   22.4000 H   0  0  0  0  0  0  0  0  0  0  0  0
  -25.6800  -15.3370   20.3610 N   0  0  0  0  0  0  0  0  0  0  0  0
  -24.9200  -15.9890   20.5190 H   0  0  0  0  0  0  0  0  0  0  0  0
  -26.5250  -15.7820   20.0290 H   0  0  0  0  0  0  0  0  0  0  0  0
  1 52  1  0
  2  1  1  0
  2  8  1  0
  4  3  1  0
  5  3  2  0
  6  4  2  0
  7  5  1  0
  8  7  2  0
  8  6  1  0
  9  7  1  0
 10  9  2  0
 11 13  1  0
 11  9  1  0
 12 23  2  0
 13 18  1  0
 14 22  1  0
 14 24  1  0
 15 21  1  0
 15 17  1  0
 16 22  1  0
 17 16  1  0
 18 17  2  0
 19 20  1  0
 19 13  2  0
 20 15  2  0
 21 14  1  0
 22 12  1  0
 24 26  2  0
 25 24  1  0
 27 25  1  0
 28 37  2  0
 28 33  1  0
 29 25  1  0
 29 33  1  0
 30 29  1  0
 31 32  1  0
 31 30  1  0
 32 28  1  0
 33 34  2  0
 34 35  1  0
 36 35  2  0
 37 36  1  0
 38 12  1  0
 38 39  1  0
 38 48  1  0
 39 42  1  0
 40 44  1  0
 40 39  1  0
 41 40  2  0
 44 43  1  0
 46 44  1  0
 46 47  1  0
 46 45  1  0
 48 51  1  1
 48 49  1  0
 50 48  1  0
 53 59  1  0
 53 52  1  0
 54 56  1  0
 55 54  2  0
 57 55  1  0
 57 59  2  0
 58 60  1  0
 58 56  2  0
 59 58  1  0
 60 62  2  0
 61 60  1  0
 63 61  1  0
 64 72  1  0
 65 70  1  0
 66 67  1  0
 66 65  1  0
 68 67  1  0
 68 77  1  0
 68 69  1  0
 70 64  1  0
 70 69  1  0
 71 64  2  0
 72 61  1  0
 72 73  1  0
 74 75  2  0
 75 94  1  0
 76 75  1  0
 76 79  1  0
 77 78  1  0
 77 74  1  0
 78 76  2  0
 79 80  1  0
 80 81  2  0
 82 85  1  0
 82 81  1  0
 83 82  2  0
 84 83  1  0
 84 79  2  0
 85 86  1  0
 86 91  2  0
 86 87  1  0
 87 88  2  0
 89 88  1  0
 89 93  1  0
 90 89  2  0
 91 90  1  0
 92 91  1  0
 94 95  1  0
 95 98  1  0
 95 97  1  0
 96 94  2  0
 99 74  1  0
 99100  1  0
101 99  1  0
M  ISO  4   9 101  11 101  64 100  72 100
M  END
>  <TORSDO>  (19) 
F 23

>  <SCORE>  (19) 
-12.260

>  <name>  (19) 
19

>  <ligand_id>  (19) 
19

>  <original_smiles>  (19) 
[H]c1c([H])c([H])c(C(=O)N([H])N([H])C(=O)N2C([H])([H])C([H])([H])C([H])([H])C([H])(n3nc(-c4c([H])c([H])c(Oc5c([H])c([H])c(F)c([H])c5F)c([H])c4[H])c(C(=O)N([H])[H])c3N([H])[H])C2([H])[H])c(OC([H])([H])C([H])([H])C([H])([H])c2c([H])c([H])c([H])c([H])c2C(=O)Oc2c([H])c([H])c3c(c2[H])C([H])([H])N(C(=O)C([H])(N([H])C(=O)C([H])(N([H])C([H])([H])[H])C([H])([H])[H])C(C([H])([H])[H])(C([H])([H])[H])C([H])([H])[H])C([H])(C(=O)N([H])C2([H])c4c([H])c([H])c([H])c([H])c4C([H])([H])C([H])([H])C2([H])[H])C3([H])[H])c1[H]

>  <smiles>  (19) 
[H]c1c([H])c([H])c(C(=O)N([H])N([H])C(=O)N2C([H])([H])C([H])([H])C([H])([H])C([H])(n3nc(-c4c([H])c([H])c(Oc5c([H])c([H])c(F)c([H])c5F)c([H])c4[H])c(C(=O)N([H])[H])c3N([H])[H])C2([H])[H])c(OC([H])([H])C([H])([H])C([H])([H])c2c([H])c([H])c([H])c([H])c2C(=O)Oc2c([H])c([H])c3c(c2[H])C([H])([H])N(C(=O)C([H])(N([H])C(=O)C([H])(N([H])C([H])([H])[H])C([H])([H])[H])C(C([H])([H])[H])(C([H])([H])[H])C([H])([H])[H])C([H])(C(=O)N([H])C2([H])c4c([H])c([H])c([H])c([H])c4C([H])([H])C([H])([H])C2([H])[H])C3([H])[H])c1[H]

$$$$
20:0:0
     RDKit          3D

103112  0  0  1  0  0  0  0  0999 V2000
  -27.2710  -20.6640   25.2700 C   0  0  0  0  0  3  0  0  0  0  0  0
  -28.5500  -20.1200   27.2730 C   0  0  0  0  0  3  0  0  0  0  0  0
  -26.2220  -21.1540   26.0690 C   0  0  0  0  0  3  0  0  0  0  0  0
  -27.5080  -20.6250   28.0720 C   0  0  0  0  0  3  0  0  0  0  0  0
  -28.4470  -20.1670   25.8680 C   0  0  0  0  0  0  0  0  0  0  0  0
  -26.3550  -21.1680   27.4700 C   0  0  0  0  0  0  0  0  0  0  0  0
  -29.5280  -19.7520   25.0900 N   0  0  0  0  0  0  0  0  0  0  0  0
  -30.4000  -19.6720   25.6040 H   0  0  0  0  0  0  0  0  0  0  0  0
  -29.6840  -20.5200   23.8630 C   0  0  0  0  0  2  0  0  0  0  0  0
  -32.4570  -19.5560   21.4120 C   0  0  0  0  0  3  0  0  0  0  0  0
  -31.7050  -20.2810   22.3540 C   0  0  0  0  0  3  0  0  0  0  0  0
  -31.9920  -18.3110   20.9450 C   0  0  0  0  0  3  0  0  0  0  0  0
  -30.0240  -18.5140   22.3690 C   0  0  0  0  0  3  0  0  0  0  0  0
  -30.4850  -19.7620   22.8320 C   0  0  0  0  0  0  0  0  0  0  0  0
  -30.7650  -17.7860   21.4170 C   0  0  0  0  0  0  0  0  0  0  0  0
  -30.8080  -15.6390   20.1690 C   0  0  0  0  0  0  0  0  0  0  0  0
  -30.6880  -13.3410   19.2810 C   0  0  0  0  0  2  0  0  0  0  0  0
  -29.7230  -13.2380   18.0870 C   0  0  0  0  0  2  0  0  0  0  0  0
  -28.2820  -12.9920   18.5710 C   0  0  0  0  0  2  0  0  0  0  0  0
  -27.8500  -13.9890   19.6790 C   0  0  0  0  0  3  0  0  0  0  0  0
  -28.9230  -14.0740   20.7880 C   0  0  0  0  0  2  0  0  0  0  0  0
  -30.2150  -14.4180   20.1610 N   0  0  0  0  0  0  0  0  0  0  0  0
  -31.7760  -15.9200   19.4540 O   0  0  0  0  0  0  0  0  0  0  0  0
  -30.2690  -16.5150   21.0270 N   0  0  0  0  0  0  0  0  0  0  0  0
  -29.4000  -16.2240   21.4470 H   0  0  0  0  0  0  0  0  0  0  0  0
  -25.4900  -14.4770   20.5900 C   0  0  0  0  0  0  0  0  0  0  0  0
  -24.4680  -13.6480   20.9710 C   0  0  0  0  0  0  0  0  0  0  0  0
  -24.9580  -12.3160   20.8050 C   0  0  0  0  0  0  0  0  0  0  0  0
  -26.5370  -13.6440   20.2240 N   0  0  0  0  0  0  0  0  0  0  0  0
  -26.2230  -12.3370   20.4060 N   0  0  0  0  0  0  0  0  0  0  0  0
  -24.2760  -11.0240   20.9480 C   0  0  0  0  0  0  0  0  0  0  0  0
  -24.7030  -10.0650   21.8930 C   0  0  0  0  0  3  0  0  0  0  0  0
  -24.0210   -8.8350   22.0230 C   0  0  0  0  0  3  0  0  0  0  0  0
  -22.8990   -8.5560   21.2090 C   0  0  0  0  0  0  0  0  0  0  0  0
  -22.4920   -9.5050   20.2530 C   0  0  0  0  0  3  0  0  0  0  0  0
  -23.1750  -10.7260   20.1210 C   0  0  0  0  0  3  0  0  0  0  0  0
  -22.1900   -7.3790   21.2470 O   0  0  0  0  0  0  0  0  0  0  0  0
  -21.9930   -6.6970   22.4210 C   0  0  0  0  0  0  0  0  0  0  0  0
  -21.3550   -7.2920   23.5310 C   0  0  0  0  0  3  0  0  0  0  0  0
  -21.1100   -6.5320   24.6930 C   0  0  0  0  0  3  0  0  0  0  0  0
  -21.4940   -5.1790   24.7440 C   0  0  0  0  0  0  0  0  0  0  0  0
  -22.1240   -4.5830   23.6360 C   0  0  0  0  0  3  0  0  0  0  0  0
  -22.3700   -5.3400   22.4780 C   0  0  0  0  0  0  0  0  0  0  0  0
  -22.9590   -4.7560   21.4070 F   0  0  0  0  0  0  0  0  0  0  0  0
  -21.2520   -4.4470   25.8560 F   0  0  0  0  0  0  0  0  0  0  0  0
  -23.0830  -14.0640   21.3770 C   0  0  0  0  0  0  0  0  0  0  0  0
  -22.4540  -13.3120   22.2720 N   0  0  0  0  0  0  0  0  0  0  0  0
  -22.5670  -15.0890   20.9330 O   0  0  0  0  0  0  0  0  0  0  0  0
  -22.8830  -12.4810   22.6530 H   0  0  0  0  0  0  0  0  0  0  0  0
  -21.5280  -13.5710   22.5850 H   0  0  0  0  0  0  0  0  0  0  0  0
  -25.6100  -15.8600   20.5070 N   0  0  0  0  0  0  0  0  0  0  0  0
  -24.8360  -16.4840   20.7150 H   0  0  0  0  0  0  0  0  0  0  0  0
  -26.4280  -16.3480   20.1630 H   0  0  0  0  0  0  0  0  0  0  0  0
  -25.3810  -21.7380   28.2420 O   0  0  0  0  0  0  0  0  0  0  0  0
  -25.8280  -22.8920   28.9550 C   0  0  0  0  0  2  0  0  0  0  0  0
  -25.4550  -24.1660   28.1840 C   0  0  0  0  0  2  0  0  0  0  0  0
  -26.3560  -24.3340   27.0980 O   0  0  0  0  0  0  0  0  0  0  0  0
  -26.2640  -25.6030   26.4640 C   0  0  0  0  0  2  0  0  0  0  0  0
  -26.8810  -25.4780   25.0610 C   0  0  0  0  0  2  0  0  0  0  0  0
  -28.2750  -25.1870   25.1430 O   0  0  0  0  0  0  0  0  0  0  0  0
  -29.1190  -26.1360   24.4940 C   0  0  0  0  0  2  0  0  0  0  0  0
  -29.4180  -25.7140   23.0390 C   0  0  0  0  0  2  0  0  0  0  0  0
  -29.4590  -26.8530   22.1850 O   0  0  0  0  0  0  0  0  0  0  0  0
  -24.6200  -31.8550   23.5910 C   0  0  0  0  0  0  0  0  0  0  0  0
  -28.2410  -27.3980   21.8610 C   0  0  0  0  0  0  0  0  0  0  0  0
  -23.9250  -30.1130   21.9760 C   0  0  0  0  0  3  0  0  0  0  0  0
  -25.7770  -28.5700   21.1480 C   0  0  0  0  0  0  0  0  0  0  0  0
  -26.3890  -30.7380   22.2380 C   0  0  0  0  0  2  0  0  0  0  0  0
  -26.7280  -29.3130   21.8590 C   0  0  0  0  0  0  0  0  0  0  0  0
  -27.9650  -28.7330   22.2100 C   0  0  0  0  0  3  0  0  0  0  0  0
  -27.2790  -26.6560   21.1430 C   0  0  0  0  0  3  0  0  0  0  0  0
  -26.0490  -27.2380   20.7850 C   0  0  0  0  0  3  0  0  0  0  0  0
  -24.4870  -29.2700   20.7980 C   0  0  0  0  0  2  0  0  0  0  0  0
  -24.9820  -30.9240   22.6610 N   0  0  0  0  0  0  0  0  0  0  0  0
  -23.4290  -32.0740   23.8500 O   0  0  0  0  0  0  0  0  0  0  0  0
  -23.1640  -29.1670   22.9320 C   0  0  0  0  0  0  0  0  0  0  0  0
  -21.9140  -28.8370   22.5730 N   0  0  0  0  0  0  0  0  0  0  0  0
  -23.7060  -28.7230   23.9480 O   0  0  0  0  0  0  0  0  0  0  0  0
  -21.5410  -29.2500   21.7300 H   0  0  0  0  0  0  0  0  0  0  0  0
  -18.5680  -27.4750   22.6210 C   0  0  0  0  0  0  0  0  0  0  0  0
  -21.0220  -27.9310   23.2950 C   0  0  0  0  0  3  0  0  0  0  0  0
  -21.2950  -26.4570   22.9110 C   0  0  0  0  0  2  0  0  0  0  0  0
  -20.4070  -25.9600   21.7670 C   0  0  0  0  0  2  0  0  0  0  0  0
  -18.9270  -26.0770   22.1460 C   0  0  0  0  0  2  0  0  0  0  0  0
  -19.5550  -28.3510   23.1450 C   0  0  0  0  0  0  0  0  0  0  0  0
  -19.1770  -29.6520   23.5410 C   0  0  0  0  0  3  0  0  0  0  0  0
  -17.8420  -30.0790   23.4250 C   0  0  0  0  0  3  0  0  0  0  0  0
  -16.8650  -29.2040   22.9200 C   0  0  0  0  0  3  0  0  0  0  0  0
  -17.2270  -27.9040   22.5240 C   0  0  0  0  0  3  0  0  0  0  0  0
  -25.6850  -32.7030   24.3530 C   0  0  0  0  0  3  0  0  0  0  0  0
  -25.2020  -34.0890   24.3920 N   0  0  0  0  0  0  0  0  0  0  0  0
  -25.6160  -35.0610   23.5670 C   0  0  0  0  0  0  0  0  0  0  0  0
  -26.5060  -34.8950   22.7290 O   0  0  0  0  0  0  0  0  0  0  0  0
  -24.4260  -34.2820   25.0090 H   0  0  0  0  0  0  0  0  0  0  0  0
  -23.8730  -36.5810   22.5810 C   0  0  0  0  0  1  0  0  0  0  0  0
  -24.9300  -36.4340   23.6890 C   0  0  0  0  0  3  0  0  0  0  0  0
  -26.7550  -37.6460   24.7930 C   0  0  0  0  0  1  0  0  0  0  0  0
  -25.8760  -37.5700   23.6290 N   0  0  0  0  0  0  0  0  0  0  0  0
  -25.3770  -38.4530   23.5540 H   0  0  0  0  0  0  0  0  0  0  0  0
  -25.9740  -32.1720   25.8110 C   0  0  1  0  0  0  0  0  0  0  0  0
  -24.6940  -31.8780   26.6270 C   0  0  0  0  0  1  0  0  0  0  0  0
  -26.8120  -30.8730   25.7590 C   0  0  0  0  0  1  0  0  0  0  0  0
  -26.8120  -33.2110   26.5910 C   0  0  0  0  0  1  0  0  0  0  0  0
  1  5  2  0
  1  3  1  0
  2  4  2  0
  3  6  2  0
  5  2  1  0
  6  4  1  0
  6 54  1  0
  7  8  1  0
  7  5  1  0
  9  7  1  0
 10 11  1  0
 11 14  2  0
 12 10  2  0
 12 15  1  0
 13 14  1  0
 14  9  1  0
 15 13  2  0
 16 24  1  0
 17 22  1  0
 18 19  1  0
 18 17  1  0
 20 19  1  0
 20 29  1  0
 20 21  1  0
 22 16  1  0
 22 21  1  0
 23 16  2  0
 24 15  1  0
 24 25  1  0
 26 27  2  0
 27 46  1  0
 28 31  1  0
 28 27  1  0
 29 30  1  0
 29 26  1  0
 30 28  2  0
 31 32  1  0
 32 33  2  0
 34 37  1  0
 34 33  1  0
 35 34  2  0
 36 35  1  0
 36 31  2  0
 37 38  1  0
 38 43  2  0
 38 39  1  0
 39 40  2  0
 40 41  1  0
 41 45  1  0
 42 41  2  0
 43 42  1  0
 44 43  1  0
 46 47  1  0
 47 50  1  0
 47 49  1  0
 48 46  2  0
 51 26  1  0
 51 52  1  0
 53 51  1  0
 54 55  1  0
 56 55  1  0
 57 56  1  0
 58 57  1  0
 59 60  1  0
 59 58  1  0
 61 60  1  0
 62 61  1  0
 63 62  1  0
 64 75  2  0
 65 63  1  0
 65 70  1  0
 66 74  1  0
 66 76  1  0
 67 69  1  0
 68 74  1  0
 69 70  2  0
 69 68  1  0
 71 65  2  0
 72 71  1  0
 72 67  2  0
 73 67  1  0
 73 66  1  0
 74 64  1  0
 76 78  2  0
 77 76  1  0
 79 77  1  0
 80 85  1  0
 81 77  1  0
 82 81  1  0
 83 84  1  0
 83 82  1  0
 84 80  1  0
 85 81  1  0
 85 86  2  0
 87 86  1  0
 88 87  2  0
 89 80  2  0
 89 88  1  0
 90 64  1  0
 90 91  1  0
 90100  1  0
 91 94  1  0
 92 96  1  0
 92 91  1  0
 93 92  2  0
 96 95  1  0
 98 96  1  0
 98 97  1  0
 99 98  1  0
100103  1  1
100101  1  0
102100  1  0
M  ISO  4  16 100  24 100  62 101  63 101
M  END
>  <TORSDO>  (20) 
F 28

>  <SCORE>  (20) 
28.222

>  <name>  (20) 
20

>  <ligand_id>  (20) 
20

>  <original_smiles>  (20) 
[H]c1c([H])c(N([H])C(=O)N2C([H])([H])C([H])([H])C([H])([H])C([H])(n3nc(-c4c([H])c([H])c(Oc5c([H])c([H])c(F)c([H])c5F)c([H])c4[H])c(C(=O)N([H])[H])c3N([H])[H])C2([H])[H])c([H])c(C([H])([H])N([H])c2c([H])c([H])c(OC([H])([H])C([H])([H])OC([H])([H])C([H])([H])OC([H])([H])C([H])([H])Oc3c([H])c([H])c4c(c3[H])C([H])([H])N(C(=O)C([H])(N([H])C(=O)C([H])(N([H])C([H])([H])[H])C([H])([H])[H])C(C([H])([H])[H])(C([H])([H])[H])C([H])([H])[H])C([H])(C(=O)N([H])C3([H])c5c([H])c([H])c([H])c([H])c5C([H])([H])C([H])([H])C3([H])[H])C4([H])[H])c([H])c2[H])c1[H]

>  <smiles>  (20) 
[H]c1c([H])c(N([H])C(=O)N2C([H])([H])C([H])([H])C([H])([H])C([H])(n3nc(-c4c([H])c([H])c(Oc5c([H])c([H])c(F)c([H])c5F)c([H])c4[H])c(C(=O)N([H])[H])c3N([H])[H])C2([H])[H])c([H])c(C([H])([H])N([H])c2c([H])c([H])c(OC([H])([H])C([H])([H])OC([H])([H])C([H])([H])OC([H])([H])C([H])([H])Oc3c([H])c([H])c4c(c3[H])C([H])([H])N(C(=O)C([H])(N([H])C(=O)C([H])(N([H])C([H])([H])[H])C([H])([H])[H])C(C([H])([H])[H])(C([H])([H])[H])C([H])([H])[H])C([H])(C(=O)N([H])C3([H])c5c([H])c([H])c([H])c([H])c5C([H])([H])C([H])([H])C3([H])[H])C4([H])[H])c([H])c2[H])c1[H]

$$$$
21:0:0
     RDKit          3D

 86 93  0  0  1  0  0  0  0  0999 V2000
  -28.2580  -23.2380   20.4630 C   0  0  0  0  0  2  0  0  0  0  0  0
  -29.2590  -21.8810   20.2410 C   0  0  0  0  0  2  0  0  0  0  0  0
  -28.7800  -20.3630   20.2190 N   0  0  0  0  0  4  0  0  0  0  0  0
  -28.5270  -20.1780   19.2610 H   0  0  0  0  0  0  0  0  0  0  0  0
  -27.9120  -20.3290   20.7290 H   0  0  0  0  0  0  0  0  0  0  0  0
  -29.6230  -19.1040   20.7260 C   0  0  0  0  0  2  0  0  0  0  0  0
  -29.6080  -17.5690   20.0090 C   0  0  0  0  0  2  0  0  0  0  0  0
  -29.6490  -16.1580   20.6600 O   0  0  0  0  0  0  0  0  0  0  0  0
  -30.5160  -14.9560   20.2940 C   0  0  0  0  0  0  0  0  0  0  0  0
  -30.3550  -12.5740   19.3830 C   0  0  0  0  0  2  0  0  0  0  0  0
  -29.4220  -12.5720   18.1480 C   0  0  0  0  0  2  0  0  0  0  0  0
  -27.9560  -12.3790   18.5770 C   0  0  0  0  0  2  0  0  0  0  0  0
  -27.5600  -13.3030   19.7590 C   0  0  0  0  0  3  0  0  0  0  0  0
  -28.6060  -13.3030   20.8920 C   0  0  0  0  0  2  0  0  0  0  0  0
  -29.8980  -13.6530   20.3020 N   0  0  0  0  0  0  0  0  0  0  0  0
  -31.6740  -15.0710   19.8850 O   0  0  0  0  0  0  0  0  0  0  0  0
  -25.1850  -13.8910   20.5040 C   0  0  0  0  0  0  0  0  0  0  0  0
  -24.1200  -13.1210   20.8810 C   0  0  0  0  0  0  0  0  0  0  0  0
  -24.5800  -11.7680   20.8530 C   0  0  0  0  0  0  0  0  0  0  0  0
  -26.2220  -13.0090   20.2600 N   0  0  0  0  0  0  0  0  0  0  0  0
  -25.8690  -11.7270   20.5370 N   0  0  0  0  0  0  0  0  0  0  0  0
  -23.8500  -10.5090   21.0520 C   0  0  0  0  0  0  0  0  0  0  0  0
  -24.2950   -9.5320   21.9700 C   0  0  0  0  0  3  0  0  0  0  0  0
  -23.5630   -8.3400   22.1570 C   0  0  0  0  0  3  0  0  0  0  0  0
  -22.3730   -8.1150   21.4250 C   0  0  0  0  0  0  0  0  0  0  0  0
  -21.9470   -9.0790   20.4950 C   0  0  0  0  0  3  0  0  0  0  0  0
  -22.6790  -10.2640   20.3070 C   0  0  0  0  0  3  0  0  0  0  0  0
  -21.6120   -6.9750   21.5220 O   0  0  0  0  0  0  0  0  0  0  0  0
  -21.5970   -6.2130   22.6640 C   0  0  0  0  0  0  0  0  0  0  0  0
  -21.2380   -6.7560   23.9170 C   0  0  0  0  0  3  0  0  0  0  0  0
  -21.1690   -5.9220   25.0500 C   0  0  0  0  0  3  0  0  0  0  0  0
  -21.4480   -4.5470   24.9330 C   0  0  0  0  0  0  0  0  0  0  0  0
  -21.8010   -4.0050   23.6840 C   0  0  0  0  0  3  0  0  0  0  0  0
  -21.8720   -4.8350   22.5530 C   0  0  0  0  0  0  0  0  0  0  0  0
  -22.1910   -4.3040   21.3480 F   0  0  0  0  0  0  0  0  0  0  0  0
  -21.3750   -3.7450   26.0210 F   0  0  0  0  0  0  0  0  0  0  0  0
  -22.7260  -13.6040   21.1550 C   0  0  0  0  0  0  0  0  0  0  0  0
  -22.0010  -12.9150   22.0300 N   0  0  0  0  0  0  0  0  0  0  0  0
  -22.2910  -14.6280   20.6310 O   0  0  0  0  0  0  0  0  0  0  0  0
  -22.3680  -12.0870   22.4740 H   0  0  0  0  0  0  0  0  0  0  0  0
  -21.0660  -13.2210   22.2570 H   0  0  0  0  0  0  0  0  0  0  0  0
  -25.3550  -15.2610   20.3250 N   0  0  0  0  0  0  0  0  0  0  0  0
  -24.5950  -15.9220   20.4460 H   0  0  0  0  0  0  0  0  0  0  0  0
  -26.2150  -15.6940   20.0140 H   0  0  0  0  0  0  0  0  0  0  0  0
  -28.4260  -24.7640   19.7470 C   0  0  0  0  0  2  0  0  0  0  0  0
  -28.2830  -26.2120   20.3060 O   0  0  0  0  0  0  0  0  0  0  0  0
  -24.6120  -31.8620   23.1970 C   0  0  0  0  0  0  0  0  0  0  0  0
  -27.1970  -27.1480   20.1760 C   0  0  0  0  0  0  0  0  0  0  0  0
  -23.4070  -30.4550   21.5660 C   0  0  0  0  0  3  0  0  0  0  0  0
  -24.8540  -28.8740   20.1390 C   0  0  0  0  0  0  0  0  0  0  0  0
  -25.9570  -30.7290   21.3900 C   0  0  0  0  0  2  0  0  0  0  0  0
  -26.0290  -29.3340   20.7440 C   0  0  0  0  0  0  0  0  0  0  0  0
  -27.1950  -28.4840   20.7490 C   0  0  0  0  0  3  0  0  0  0  0  0
  -25.9970  -26.7810   19.5290 C   0  0  0  0  0  3  0  0  0  0  0  0
  -24.8510  -27.6120   19.5180 C   0  0  0  0  0  3  0  0  0  0  0  0
  -23.6230  -29.7660   20.1900 C   0  0  0  0  0  2  0  0  0  0  0  0
  -24.6780  -31.0380   22.1050 N   0  0  0  0  0  0  0  0  0  0  0  0
  -23.5270  -32.1470   23.7290 O   0  0  0  0  0  0  0  0  0  0  0  0
  -22.7360  -29.4530   22.5380 C   0  0  0  0  0  0  0  0  0  0  0  0
  -21.4070  -29.2820   22.4180 N   0  0  0  0  0  0  0  0  0  0  0  0
  -23.4120  -28.8320   23.3630 O   0  0  0  0  0  0  0  0  0  0  0  0
  -20.9180  -29.8340   21.7270 H   0  0  0  0  0  0  0  0  0  0  0  0
  -18.0330  -28.0680   22.9270 C   0  0  0  0  0  0  0  0  0  0  0  0
  -20.5900  -28.3470   23.1960 C   0  0  0  0  0  3  0  0  0  0  0  0
  -20.7000  -26.9110   22.6350 C   0  0  0  0  0  2  0  0  0  0  0  0
  -19.6020  -26.5730   21.6220 C   0  0  0  0  0  2  0  0  0  0  0  0
  -18.2190  -26.7140   22.2620 C   0  0  0  0  0  2  0  0  0  0  0  0
  -19.1450  -28.8420   23.3530 C   0  0  0  0  0  0  0  0  0  0  0  0
  -18.9180  -30.1060   23.9360 C   0  0  0  0  0  3  0  0  0  0  0  0
  -17.6100  -30.5980   24.0990 C   0  0  0  0  0  3  0  0  0  0  0  0
  -16.5110  -29.8230   23.6900 C   0  0  0  0  0  3  0  0  0  0  0  0
  -16.7240  -28.5600   23.1110 C   0  0  0  0  0  3  0  0  0  0  0  0
  -25.8910  -32.5030   23.8170 C   0  0  0  0  0  3  0  0  0  0  0  0
  -25.5730  -33.8980   24.1580 N   0  0  0  0  0  0  0  0  0  0  0  0
  -25.8960  -34.9620   23.4110 C   0  0  0  0  0  0  0  0  0  0  0  0
  -26.5590  -34.8720   22.3740 O   0  0  0  0  0  0  0  0  0  0  0  0
  -24.9820  -34.0400   24.9640 H   0  0  0  0  0  0  0  0  0  0  0  0
  -24.1540  -36.7520   23.0980 C   0  0  0  0  0  1  0  0  0  0  0  0
  -25.4090  -36.3450   23.8870 C   0  0  0  0  0  3  0  0  0  0  0  0
  -27.5520  -37.2350   24.6930 C   0  0  0  0  0  1  0  0  0  0  0  0
  -26.4340  -37.4040   23.7690 N   0  0  0  0  0  0  0  0  0  0  0  0
  -26.0260  -38.3210   23.9310 H   0  0  0  0  0  0  0  0  0  0  0  0
  -26.4170  -31.7320   25.0910 C   0  0  1  0  0  0  0  0  0  0  0  0
  -25.3300  -31.4920   26.1660 C   0  0  0  0  0  1  0  0  0  0  0  0
  -27.0000  -30.3540   24.7010 C   0  0  0  0  0  1  0  0  0  0  0  0
  -27.5690  -32.5280   25.7470 C   0  0  0  0  0  1  0  0  0  0  0  0
  2  1  1  0
  3  2  1  0
  3  6  1  0
  3  5  1  0
  4  3  1  0
  7  8  1  0
  7  6  1  0
  9 15  1  0
  9  8  1  0
 10 15  1  0
 11 12  1  0
 11 10  1  0
 13 12  1  0
 13 20  1  0
 13 14  1  0
 15 14  1  0
 16  9  2  0
 17 18  2  0
 18 37  1  0
 19 18  1  0
 19 22  1  0
 20 17  1  0
 20 21  1  0
 21 19  2  0
 22 23  1  0
 23 24  2  0
 25 28  1  0
 25 24  1  0
 26 25  2  0
 27 26  1  0
 27 22  2  0
 28 29  1  0
 29 30  1  0
 30 31  2  0
 32 31  1  0
 32 36  1  0
 33 32  2  0
 34 29  2  0
 34 33  1  0
 35 34  1  0
 37 38  1  0
 38 41  1  0
 38 40  1  0
 39 37  2  0
 42 43  1  0
 42 17  1  0
 44 42  1  0
 45 46  1  0
 45  1  1  0
 47 58  2  0
 48 46  1  0
 48 53  1  0
 49 57  1  0
 49 59  1  0
 50 56  1  0
 50 52  1  0
 51 57  1  0
 52 53  2  0
 52 51  1  0
 54 48  2  0
 55 54  1  0
 55 50  2  0
 56 49  1  0
 57 47  1  0
 59 61  2  0
 60 59  1  0
 62 60  1  0
 63 72  2  0
 63 68  1  0
 64 60  1  0
 64 68  1  0
 65 64  1  0
 66 67  1  0
 66 65  1  0
 67 63  1  0
 68 69  2  0
 69 70  1  0
 71 70  2  0
 72 71  1  0
 73 47  1  0
 73 74  1  0
 73 83  1  0
 74 77  1  0
 75 79  1  0
 75 74  1  0
 76 75  2  0
 79 78  1  0
 81 79  1  0
 81 82  1  0
 81 80  1  0
 83 86  1  1
 83 84  1  0
 85 83  1  0
M  ISO  4   8 100   9 100  45 101  46 101
M  END
>  <TORSDO>  (21) 
F 22

>  <SCORE>  (21) 
-14.689

>  <name>  (21) 
21

>  <ligand_id>  (21) 
21

>  <original_smiles>  (21) 
[H]c1c([H])c([H])c2c(c1[H])C([H])([H])C([H])([H])C([H])([H])C2([H])N([H])C(=O)C1([H])N(C(=O)C([H])(N([H])C(=O)C([H])(N([H])C([H])([H])[H])C([H])([H])[H])C(C([H])([H])[H])(C([H])([H])[H])C([H])([H])[H])C([H])([H])c2c([H])c(OC([H])([H])C([H])([H])C([H])([H])[N+]([H])([H])C([H])([H])C([H])([H])OC(=O)N3C([H])([H])C([H])([H])C([H])([H])C([H])(n4nc(-c5c([H])c([H])c(Oc6c([H])c([H])c(F)c([H])c6F)c([H])c5[H])c(C(=O)N([H])[H])c4N([H])[H])C3([H])[H])c([H])c([H])c2C1([H])[H]

>  <smiles>  (21) 
[H]c1c([H])c([H])c2c(c1[H])C([H])([H])C([H])([H])C([H])([H])C2([H])N([H])C(=O)C1([H])N(C(=O)C([H])(N([H])C(=O)C([H])(N([H])C([H])([H])[H])C([H])([H])[H])C(C([H])([H])[H])(C([H])([H])[H])C([H])([H])[H])C([H])([H])c2c([H])c(OC([H])([H])C([H])([H])C([H])([H])[N+]([H])([H])C([H])([H])C([H])([H])OC(=O)N3C([H])([H])C([H])([H])C([H])([H])C([H])(n4nc(-c5c([H])c([H])c(Oc6c([H])c([H])c(F)c([H])c6F)c([H])c5[H])c(C(=O)N([H])[H])c4N([H])[H])C3([H])[H])c([H])c([H])c2C1([H])[H]

$$$$
22:0:0
     RDKit          3D

 94102  0  0  1  0  0  0  0  0999 V2000
  -34.5160  -25.0580   20.4010 C   0  0  0  0  0  3  0  0  0  0  0  0
  -34.6330  -23.7290   20.8550 C   0  0  0  0  0  3  0  0  0  0  0  0
  -33.2710  -25.5470   19.9710 C   0  0  0  0  0  3  0  0  0  0  0  0
  -32.2480  -23.3880   20.4510 C   0  0  0  0  0  3  0  0  0  0  0  0
  -33.4980  -22.8890   20.8920 C   0  0  0  0  0  0  0  0  0  0  0  0
  -32.1310  -24.7240   19.9830 C   0  0  0  0  0  0  0  0  0  0  0  0
  -33.6180  -21.5020   21.5100 C   0  0  0  0  0  2  0  0  0  0  0  0
  -32.6170  -20.5770   21.0730 O   0  0  0  0  0  0  0  0  0  0  0  0
  -32.4730  -19.4700   21.9690 C   0  0  0  0  0  2  0  0  0  0  0  0
  -30.9910  -17.5020   20.8490 C   0  0  0  0  0  0  0  0  0  0  0  0
  -31.6560  -18.3980   21.3660 C   0  0  0  0  0  0  0  0  0  0  0  0
  -30.1560  -16.5380   20.1020 C   0  0  0  0  0  2  0  0  0  0  0  0
  -30.8090  -14.1480   19.7800 C   0  0  0  0  0  0  0  0  0  0  0  0
  -30.3200  -12.0310   18.6110 C   0  0  0  0  0  2  0  0  0  0  0  0
  -29.2570  -12.3210   17.5310 C   0  0  0  0  0  2  0  0  0  0  0  0
  -27.8320  -12.2480   18.1090 C   0  0  0  0  0  2  0  0  0  0  0  0
  -27.6820  -13.0350   19.4370 C   0  0  0  0  0  3  0  0  0  0  0  0
  -28.8390  -12.7010   20.4090 C   0  0  0  0  0  2  0  0  0  0  0  0
  -30.1130  -12.9790   19.7190 N   0  0  0  0  0  0  0  0  0  0  0  0
  -31.8160  -14.3730   19.1020 O   0  0  0  0  0  0  0  0  0  0  0  0
  -30.2170  -15.1190   20.5010 N   0  0  0  0  0  0  0  0  0  0  0  0
  -29.4510  -14.8020   21.0750 H   0  0  0  0  0  0  0  0  0  0  0  0
  -25.3980  -13.7250   20.3970 C   0  0  0  0  0  0  0  0  0  0  0  0
  -24.3460  -12.9890   20.8740 C   0  0  0  0  0  0  0  0  0  0  0  0
  -24.7450  -11.6210   20.7730 C   0  0  0  0  0  0  0  0  0  0  0  0
  -26.3750  -12.8060   20.0480 N   0  0  0  0  0  0  0  0  0  0  0  0
  -25.9910  -11.5350   20.3280 N   0  0  0  0  0  0  0  0  0  0  0  0
  -23.9910  -10.3860   21.0290 C   0  0  0  0  0  0  0  0  0  0  0  0
  -24.4580   -9.4140   21.9400 C   0  0  0  0  0  3  0  0  0  0  0  0
  -23.7110   -8.2420   22.1840 C   0  0  0  0  0  3  0  0  0  0  0  0
  -22.4810   -8.0340   21.5170 C   0  0  0  0  0  0  0  0  0  0  0  0
  -22.0320   -8.9940   20.5960 C   0  0  0  0  0  3  0  0  0  0  0  0
  -22.7770  -10.1580   20.3520 C   0  0  0  0  0  3  0  0  0  0  0  0
  -21.6990   -6.9150   21.6710 O   0  0  0  0  0  0  0  0  0  0  0  0
  -21.6850   -6.2040   22.8450 C   0  0  0  0  0  0  0  0  0  0  0  0
  -21.3250   -6.7980   24.0730 C   0  0  0  0  0  3  0  0  0  0  0  0
  -21.2620   -6.0130   25.2420 C   0  0  0  0  0  3  0  0  0  0  0  0
  -21.5430   -4.6350   25.1800 C   0  0  0  0  0  0  0  0  0  0  0  0
  -21.8950   -4.0410   23.9540 C   0  0  0  0  0  3  0  0  0  0  0  0
  -21.9620   -4.8240   22.7890 C   0  0  0  0  0  0  0  0  0  0  0  0
  -22.2820   -4.2410   21.6100 F   0  0  0  0  0  0  0  0  0  0  0  0
  -21.4740   -3.8790   26.3020 F   0  0  0  0  0  0  0  0  0  0  0  0
  -23.0080  -13.5150   21.3070 C   0  0  0  0  0  0  0  0  0  0  0  0
  -22.3550  -12.8270   22.2380 N   0  0  0  0  0  0  0  0  0  0  0  0
  -22.5570  -14.5670   20.8570 O   0  0  0  0  0  0  0  0  0  0  0  0
  -22.7300  -11.9680   22.6090 H   0  0  0  0  0  0  0  0  0  0  0  0
  -21.4630  -13.1570   22.5770 H   0  0  0  0  0  0  0  0  0  0  0  0
  -25.6000  -15.0900   20.2150 N   0  0  0  0  0  0  0  0  0  0  0  0
  -24.8820  -15.7750   20.4190 H   0  0  0  0  0  0  0  0  0  0  0  0
  -26.4350  -15.4980   19.8130 H   0  0  0  0  0  0  0  0  0  0  0  0
  -30.9690  -25.3150   19.5450 O   0  0  0  0  0  0  0  0  0  0  0  0
  -29.8040  -24.5200   19.4160 C   0  0  0  0  0  2  0  0  0  0  0  0
  -28.6530  -25.4190   18.9540 C   0  0  0  0  0  2  0  0  0  0  0  0
  -28.4070  -26.3720   19.9920 O   0  0  0  0  0  0  0  0  0  0  0  0
  -24.8220  -31.5420   23.2710 C   0  0  0  0  0  0  0  0  0  0  0  0
  -27.2360  -27.0980   20.0080 C   0  0  0  0  0  0  0  0  0  0  0  0
  -23.5310  -30.2520   21.5970 C   0  0  0  0  0  3  0  0  0  0  0  0
  -24.9000  -28.6960   20.1110 C   0  0  0  0  0  0  0  0  0  0  0  0
  -26.0660  -30.5080   21.3750 C   0  0  0  0  0  2  0  0  0  0  0  0
  -26.0830  -29.1490   20.7040 C   0  0  0  0  0  0  0  0  0  0  0  0
  -27.2470  -28.3500   20.6630 C   0  0  0  0  0  3  0  0  0  0  0  0
  -26.0240  -26.6430   19.4410 C   0  0  0  0  0  3  0  0  0  0  0  0
  -24.8640  -27.4360   19.4890 C   0  0  0  0  0  3  0  0  0  0  0  0
  -23.6950  -29.6060   20.1950 C   0  0  0  0  0  2  0  0  0  0  0  0
  -24.8270  -30.7780   22.1430 N   0  0  0  0  0  0  0  0  0  0  0  0
  -23.7600  -31.8460   23.8320 O   0  0  0  0  0  0  0  0  0  0  0  0
  -22.8390  -29.2350   22.5340 C   0  0  0  0  0  0  0  0  0  0  0  0
  -21.5020  -29.1360   22.4330 N   0  0  0  0  0  0  0  0  0  0  0  0
  -23.5040  -28.5370   23.3060 O   0  0  0  0  0  0  0  0  0  0  0  0
  -21.0270  -29.7490   21.7860 H   0  0  0  0  0  0  0  0  0  0  0  0
  -18.0740  -28.1460   22.9960 C   0  0  0  0  0  0  0  0  0  0  0  0
  -20.6520  -28.2200   23.1940 C   0  0  0  0  0  3  0  0  0  0  0  0
  -20.6420  -26.8110   22.5550 C   0  0  0  0  0  2  0  0  0  0  0  0
  -19.4910  -26.6070   21.5660 C   0  0  0  0  0  2  0  0  0  0  0  0
  -18.1420  -26.8160   22.2620 C   0  0  0  0  0  2  0  0  0  0  0  0
  -19.2550  -28.8100   23.4210 C   0  0  0  0  0  0  0  0  0  0  0  0
  -19.1440  -30.0570   24.0720 C   0  0  0  0  0  3  0  0  0  0  0  0
  -17.8840  -30.6400   24.2990 C   0  0  0  0  0  3  0  0  0  0  0  0
  -16.7170  -29.9700   23.8920 C   0  0  0  0  0  3  0  0  0  0  0  0
  -16.8130  -28.7260   23.2460 C   0  0  0  0  0  3  0  0  0  0  0  0
  -26.1430  -32.0910   23.8920 C   0  0  0  0  0  3  0  0  0  0  0  0
  -25.9000  -33.4830   24.2950 N   0  0  0  0  0  0  0  0  0  0  0  0
  -26.2690  -34.5540   23.5780 C   0  0  0  0  0  0  0  0  0  0  0  0
  -26.9240  -34.4700   22.5360 O   0  0  0  0  0  0  0  0  0  0  0  0
  -25.3250  -33.6240   25.1130 H   0  0  0  0  0  0  0  0  0  0  0  0
  -24.6310  -36.4370   23.3000 C   0  0  0  0  0  1  0  0  0  0  0  0
  -25.8460  -35.9410   24.0990 C   0  0  0  0  0  3  0  0  0  0  0  0
  -28.0090  -36.6860   24.9850 C   0  0  0  0  0  1  0  0  0  0  0  0
  -26.9280  -36.9470   24.0370 N   0  0  0  0  0  0  0  0  0  0  0  0
  -26.5660  -37.8790   24.2200 H   0  0  0  0  0  0  0  0  0  0  0  0
  -26.6630  -31.2350   25.1120 C   0  0  1  0  0  0  0  0  0  0  0  0
  -25.5920  -30.9790   26.1960 C   0  0  0  0  0  1  0  0  0  0  0  0
  -27.1850  -29.8610   24.6280 C   0  0  0  0  0  1  0  0  0  0  0  0
  -27.8620  -31.9480   25.7800 C   0  0  0  0  0  1  0  0  0  0  0  0
  1  2  1  0
  2  5  2  0
  3  6  1  0
  3  1  2  0
  4  5  1  0
  5  7  1  0
  6  4  2  0
  8  7  1  0
  8  9  1  0
 10 11  3  0
 11  9  1  0
 12 21  1  0
 12 10  1  0
 13 21  1  0
 14 19  1  0
 15 16  1  0
 15 14  1  0
 17 16  1  0
 17 26  1  0
 17 18  1  0
 19 13  1  0
 19 18  1  0
 20 13  2  0
 21 22  1  0
 23 24  2  0
 24 43  1  0
 25 24  1  0
 25 28  1  0
 26 27  1  0
 26 23  1  0
 27 25  2  0
 28 29  1  0
 29 30  2  0
 31 34  1  0
 31 30  1  0
 32 31  2  0
 33 32  1  0
 33 28  2  0
 34 35  1  0
 35 36  1  0
 36 37  2  0
 38 37  1  0
 38 42  1  0
 39 38  2  0
 40 35  2  0
 40 39  1  0
 41 40  1  0
 43 44  1  0
 44 47  1  0
 44 46  1  0
 45 43  2  0
 48 23  1  0
 48 49  1  0
 50 48  1  0
 51  6  1  0
 52 51  1  0
 53 52  1  0
 53 54  1  0
 54 56  1  0
 55 66  2  0
 56 61  1  0
 57 65  1  0
 57 67  1  0
 58 64  1  0
 58 60  1  0
 59 65  1  0
 60 59  1  0
 61 60  2  0
 62 63  1  0
 62 56  2  0
 63 58  2  0
 64 57  1  0
 65 55  1  0
 67 69  2  0
 68 67  1  0
 70 68  1  0
 71 80  2  0
 71 76  1  0
 72 68  1  0
 72 76  1  0
 73 72  1  0
 74 75  1  0
 74 73  1  0
 75 71  1  0
 76 77  2  0
 77 78  1  0
 79 78  2  0
 80 79  1  0
 81 55  1  0
 81 82  1  0
 81 91  1  0
 82 85  1  0
 83 87  1  0
 83 82  1  0
 84 83  2  0
 87 86  1  0
 89 87  1  0
 89 90  1  0
 89 88  1  0
 91 94  1  1
 91 92  1  0
 93 91  1  0
M  ISO  4  13 100  21 100  53 101  54 101
M  END
>  <TORSDO>  (22) 
F 24

>  <SCORE>  (22) 
-9.710

>  <name>  (22) 
22

>  <ligand_id>  (22) 
22

>  <original_smiles>  (22) 
[H]c1c([H])c(OC([H])([H])C([H])([H])Oc2c([H])c([H])c3c(c2[H])C([H])([H])N(C(=O)C([H])(N([H])C(=O)C([H])(N([H])C([H])([H])[H])C([H])([H])[H])C(C([H])([H])[H])(C([H])([H])[H])C([H])([H])[H])C([H])(C(=O)N([H])C2([H])c4c([H])c([H])c([H])c([H])c4C([H])([H])C([H])([H])C2([H])[H])C3([H])[H])c([H])c(C([H])([H])OC([H])([H])C#CC([H])([H])N([H])C(=O)N2C([H])([H])C([H])([H])C([H])([H])C([H])(n3nc(-c4c([H])c([H])c(Oc5c([H])c([H])c(F)c([H])c5F)c([H])c4[H])c(C(=O)N([H])[H])c3N([H])[H])C2([H])[H])c1[H]

>  <smiles>  (22) 
[H]c1c([H])c(OC([H])([H])C([H])([H])Oc2c([H])c([H])c3c(c2[H])C([H])([H])N(C(=O)C([H])(N([H])C(=O)C([H])(N([H])C([H])([H])[H])C([H])([H])[H])C(C([H])([H])[H])(C([H])([H])[H])C([H])([H])[H])C([H])(C(=O)N([H])C2([H])c4c([H])c([H])c([H])c([H])c4C([H])([H])C([H])([H])C2([H])[H])C3([H])[H])c([H])c(C([H])([H])OC([H])([H])C#CC([H])([H])N([H])C(=O)N2C([H])([H])C([H])([H])C([H])([H])C([H])(n3nc(-c4c([H])c([H])c(Oc5c([H])c([H])c(F)c([H])c5F)c([H])c4[H])c(C(=O)N([H])[H])c3N([H])[H])C2([H])[H])c1[H]

$$$$
23:0:0
     RDKit          3D

 87 94  0  0  1  0  0  0  0  0999 V2000
  -29.1130  -22.7980   20.1480 O   0  0  0  0  0  0  0  0  0  0  0  0
  -29.2650  -24.1800   20.5710 C   0  0  0  0  0  2  0  0  0  0  0  0
  -28.1950  -25.1410   19.9510 C   0  0  0  0  0  2  0  0  0  0  0  0
  -28.3440  -26.5690   20.2300 O   0  0  0  0  0  0  0  0  0  0  0  0
  -24.6030  -31.8820   23.2540 C   0  0  0  0  0  0  0  0  0  0  0  0
  -27.2030  -27.3700   20.1730 C   0  0  0  0  0  0  0  0  0  0  0  0
  -23.3880  -30.4910   21.6140 C   0  0  0  0  0  3  0  0  0  0  0  0
  -24.8290  -28.9470   20.1790 C   0  0  0  0  0  0  0  0  0  0  0  0
  -25.9230  -30.8160   21.4190 C   0  0  0  0  0  2  0  0  0  0  0  0
  -25.9960  -29.4430   20.7740 C   0  0  0  0  0  0  0  0  0  0  0  0
  -27.1840  -28.6630   20.7670 C   0  0  0  0  0  3  0  0  0  0  0  0
  -26.0140  -26.9200   19.5460 C   0  0  0  0  0  3  0  0  0  0  0  0
  -24.8370  -27.6890   19.5590 C   0  0  0  0  0  3  0  0  0  0  0  0
  -23.5920  -29.8180   20.2320 C   0  0  0  0  0  2  0  0  0  0  0  0
  -24.6560  -31.0790   22.1530 N   0  0  0  0  0  0  0  0  0  0  0  0
  -23.5240  -32.1610   23.7950 O   0  0  0  0  0  0  0  0  0  0  0  0
  -22.7290  -29.4710   22.5730 C   0  0  0  0  0  0  0  0  0  0  0  0
  -21.4040  -29.2960   22.4460 N   0  0  0  0  0  0  0  0  0  0  0  0
  -23.4090  -28.8420   23.3890 O   0  0  0  0  0  0  0  0  0  0  0  0
  -20.9160  -29.8550   21.7610 H   0  0  0  0  0  0  0  0  0  0  0  0
  -18.0240  -28.1080   22.9390 C   0  0  0  0  0  0  0  0  0  0  0  0
  -20.5820  -28.3620   23.2170 C   0  0  0  0  0  3  0  0  0  0  0  0
  -20.6820  -26.9290   22.6440 C   0  0  0  0  0  2  0  0  0  0  0  0
  -19.5830  -26.6070   21.6270 C   0  0  0  0  0  2  0  0  0  0  0  0
  -18.2000  -26.7570   22.2670 C   0  0  0  0  0  2  0  0  0  0  0  0
  -19.1430  -28.8680   23.3700 C   0  0  0  0  0  0  0  0  0  0  0  0
  -18.9250  -30.1340   23.9590 C   0  0  0  0  0  3  0  0  0  0  0  0
  -17.6220  -30.6390   24.1180 C   0  0  0  0  0  3  0  0  0  0  0  0
  -16.5170  -29.8760   23.7040 C   0  0  0  0  0  3  0  0  0  0  0  0
  -16.7190  -28.6120   23.1200 C   0  0  0  0  0  3  0  0  0  0  0  0
  -25.8930  -32.5060   23.8720 C   0  0  0  0  0  3  0  0  0  0  0  0
  -26.4080  -31.7310   25.1470 C   0  0  1  0  0  0  0  0  0  0  0  0
  -25.3180  -31.5010   26.2190 C   0  0  0  0  0  1  0  0  0  0  0  0
  -26.9820  -30.3500   24.7520 C   0  0  0  0  0  1  0  0  0  0  0  0
  -27.5640  -32.5190   25.8080 C   0  0  0  0  0  1  0  0  0  0  0  0
  -25.5920  -33.9060   24.2030 N   0  0  0  0  0  0  0  0  0  0  0  0
  -25.9250  -34.9570   23.4410 C   0  0  0  0  0  0  0  0  0  0  0  0
  -26.5890  -34.8480   22.4060 O   0  0  0  0  0  0  0  0  0  0  0  0
  -25.0030  -34.0650   25.0080 H   0  0  0  0  0  0  0  0  0  0  0  0
  -24.2020  -36.7560   23.0930 C   0  0  0  0  0  1  0  0  0  0  0  0
  -25.4460  -36.3470   23.8980 C   0  0  0  0  0  3  0  0  0  0  0  0
  -27.5900  -37.2240   24.7140 C   0  0  0  0  0  1  0  0  0  0  0  0
  -26.4820  -37.3950   23.7780 N   0  0  0  0  0  0  0  0  0  0  0  0
  -26.0800  -38.3170   23.9270 H   0  0  0  0  0  0  0  0  0  0  0  0
  -29.8660  -21.8260   20.9130 C   0  0  0  0  0  2  0  0  0  0  0  0
  -29.9940  -20.3890   20.2800 C   0  0  0  0  0  2  0  0  0  0  0  0
  -29.6060  -19.3250   21.1790 O   0  0  0  0  0  0  0  0  0  0  0  0
  -30.3560  -18.0820   21.1900 C   0  0  0  0  0  2  0  0  0  0  0  0
  -29.9920  -17.0260   20.1000 C   0  0  0  0  0  2  0  0  0  0  0  0
  -30.6580  -14.5630   20.1340 C   0  0  0  0  0  0  0  0  0  0  0  0
  -30.3320  -12.3860   19.0110 C   0  0  0  0  0  2  0  0  0  0  0  0
  -29.3420  -12.5990   17.8440 C   0  0  0  0  0  2  0  0  0  0  0  0
  -27.8850  -12.4670   18.3310 C   0  0  0  0  0  2  0  0  0  0  0  0
  -27.6040  -13.2910   19.6150 C   0  0  0  0  0  3  0  0  0  0  0  0
  -28.7030  -13.0590   20.6790 C   0  0  0  0  0  2  0  0  0  0  0  0
  -30.0040  -13.3660   20.0610 N   0  0  0  0  0  0  0  0  0  0  0  0
  -31.7760  -14.7380   19.6440 O   0  0  0  0  0  0  0  0  0  0  0  0
  -29.9110  -15.6090   20.5580 N   0  0  0  0  0  0  0  0  0  0  0  0
  -29.0360  -15.3490   20.9880 H   0  0  0  0  0  0  0  0  0  0  0  0
  -25.2410  -13.9170   20.4180 C   0  0  0  0  0  0  0  0  0  0  0  0
  -24.1800  -13.1550   20.8240 C   0  0  0  0  0  0  0  0  0  0  0  0
  -24.6260  -11.7980   20.7700 C   0  0  0  0  0  0  0  0  0  0  0  0
  -26.2680  -13.0270   20.1440 N   0  0  0  0  0  0  0  0  0  0  0  0
  -25.9040  -11.7470   20.4140 N   0  0  0  0  0  0  0  0  0  0  0  0
  -23.8950  -10.5420   20.9820 C   0  0  0  0  0  0  0  0  0  0  0  0
  -24.3570   -9.5630   21.8880 C   0  0  0  0  0  3  0  0  0  0  0  0
  -23.6260   -8.3710   22.0880 C   0  0  0  0  0  3  0  0  0  0  0  0
  -22.4190   -8.1520   21.3830 C   0  0  0  0  0  0  0  0  0  0  0  0
  -21.9750   -9.1210   20.4660 C   0  0  0  0  0  3  0  0  0  0  0  0
  -22.7060  -10.3040   20.2640 C   0  0  0  0  0  3  0  0  0  0  0  0
  -21.6570   -7.0150   21.4950 O   0  0  0  0  0  0  0  0  0  0  0  0
  -21.6560   -6.2580   22.6390 C   0  0  0  0  0  0  0  0  0  0  0  0
  -21.3040   -6.8040   23.8930 C   0  0  0  0  0  3  0  0  0  0  0  0
  -21.2500   -5.9740   25.0310 C   0  0  0  0  0  3  0  0  0  0  0  0
  -21.5350   -4.6010   24.9170 C   0  0  0  0  0  0  0  0  0  0  0  0
  -21.8800   -4.0550   23.6680 C   0  0  0  0  0  3  0  0  0  0  0  0
  -21.9370   -4.8820   22.5310 C   0  0  0  0  0  0  0  0  0  0  0  0
  -22.2490   -4.3460   21.3260 F   0  0  0  0  0  0  0  0  0  0  0  0
  -21.4760   -3.8020   26.0080 F   0  0  0  0  0  0  0  0  0  0  0  0
  -22.7990  -13.6450   21.1510 C   0  0  0  0  0  0  0  0  0  0  0  0
  -22.0980  -12.9520   22.0420 N   0  0  0  0  0  0  0  0  0  0  0  0
  -22.3520  -14.6760   20.6520 O   0  0  0  0  0  0  0  0  0  0  0  0
  -22.4730  -12.1180   22.4680 H   0  0  0  0  0  0  0  0  0  0  0  0
  -21.1730  -13.2630   22.3040 H   0  0  0  0  0  0  0  0  0  0  0  0
  -25.4140  -15.2870   20.2390 N   0  0  0  0  0  0  0  0  0  0  0  0
  -24.6560  -15.9470   20.3780 H   0  0  0  0  0  0  0  0  0  0  0  0
  -26.2510  -15.7180   19.8670 H   0  0  0  0  0  0  0  0  0  0  0  0
  1  2  1  0
  1 45  1  0
  3  4  1  0
  3  2  1  0
  5 16  2  0
  6  4  1  0
  6 11  1  0
  7 15  1  0
  7 17  1  0
  8 14  1  0
  8 10  1  0
  9 15  1  0
 10  9  1  0
 11 10  2  0
 12 13  1  0
 12  6  2  0
 13  8  2  0
 14  7  1  0
 15  5  1  0
 17 19  2  0
 18 17  1  0
 20 18  1  0
 21 30  2  0
 21 26  1  0
 22 18  1  0
 22 26  1  0
 23 22  1  0
 24 25  1  0
 24 23  1  0
 25 21  1  0
 26 27  2  0
 27 28  1  0
 29 28  2  0
 30 29  1  0
 31  5  1  0
 31 36  1  0
 31 32  1  0
 32 35  1  1
 32 33  1  0
 34 32  1  0
 36 39  1  0
 37 41  1  0
 37 36  1  0
 38 37  2  0
 41 40  1  0
 43 41  1  0
 43 44  1  0
 43 42  1  0
 46 45  1  0
 46 47  1  0
 47 48  1  0
 49 58  1  0
 49 48  1  0
 50 58  1  0
 51 56  1  0
 52 53  1  0
 52 51  1  0
 54 53  1  0
 54 63  1  0
 54 55  1  0
 56 50  1  0
 56 55  1  0
 57 50  2  0
 58 59  1  0
 60 61  2  0
 61 80  1  0
 62 61  1  0
 62 65  1  0
 63 64  1  0
 63 60  1  0
 64 62  2  0
 65 66  1  0
 66 67  2  0
 68 71  1  0
 68 67  1  0
 69 68  2  0
 70 69  1  0
 70 65  2  0
 71 72  1  0
 72 73  1  0
 73 74  2  0
 75 74  1  0
 75 79  1  0
 76 75  2  0
 77 72  2  0
 77 76  1  0
 78 77  1  0
 80 81  1  0
 81 84  1  0
 81 83  1  0
 82 80  2  0
 85 86  1  0
 85 60  1  0
 87 85  1  0
M  ISO  4   3 101   4 101  50 100  58 100
M  END
>  <TORSDO>  (23) 
F 23

>  <SCORE>  (23) 
-12.462

>  <name>  (23) 
23

>  <ligand_id>  (23) 
23

>  <original_smiles>  (23) 
[H]c1c([H])c([H])c2c(c1[H])C([H])([H])C([H])([H])C([H])([H])C2([H])N([H])C(=O)C1([H])N(C(=O)C([H])(N([H])C(=O)C([H])(N([H])C([H])([H])[H])C([H])([H])[H])C(C([H])([H])[H])(C([H])([H])[H])C([H])([H])[H])C([H])([H])c2c([H])c(OC([H])([H])C([H])([H])OC([H])([H])C([H])([H])OC([H])([H])C([H])([H])N([H])C(=O)N3C([H])([H])C([H])([H])C([H])([H])C([H])(n4nc(-c5c([H])c([H])c(Oc6c([H])c([H])c(F)c([H])c6F)c([H])c5[H])c(C(=O)N([H])[H])c4N([H])[H])C3([H])[H])c([H])c([H])c2C1([H])[H]

>  <smiles>  (23) 
[H]c1c([H])c([H])c2c(c1[H])C([H])([H])C([H])([H])C([H])([H])C2([H])N([H])C(=O)C1([H])N(C(=O)C([H])(N([H])C(=O)C([H])(N([H])C([H])([H])[H])C([H])([H])[H])C(C([H])([H])[H])(C([H])([H])[H])C([H])([H])[H])C([H])([H])c2c([H])c(OC([H])([H])C([H])([H])OC([H])([H])C([H])([H])OC([H])([H])C([H])([H])N([H])C(=O)N3C([H])([H])C([H])([H])C([H])([H])C([H])(n4nc(-c5c([H])c([H])c(Oc6c([H])c([H])c(F)c([H])c6F)c([H])c5[H])c(C(=O)N([H])[H])c4N([H])[H])C3([H])[H])c([H])c([H])c2C1([H])[H]

$$$$
24:0:0
     RDKit          3D

 82 86  0  0  1  0  0  0  0  0999 V2000
  -28.2030  -25.2140   20.1870 O   0  0  0  0  0  1  0  0  0  0  0  0
  -24.6590  -31.8230   23.1160 C   0  0  0  0  0  0  0  0  0  0  0  0
  -27.2270  -26.5180   20.2190 C   0  0  0  0  0  0  0  0  0  0  0  0
  -23.5030  -30.4040   21.4840 C   0  0  0  0  0  3  0  0  0  0  0  0
  -24.9680  -28.6960   20.1210 C   0  0  0  0  0  0  0  0  0  0  0  0
  -26.0920  -30.4850   21.4080 C   0  0  0  0  0  2  0  0  0  0  0  0
  -26.1660  -29.0180   20.7700 C   0  0  0  0  0  0  0  0  0  0  0  0
  -27.2690  -27.9690   20.7710 C   0  0  0  0  0  3  0  0  0  0  0  0
  -25.9850  -26.4690   19.5130 C   0  0  0  0  0  3  0  0  0  0  0  0
  -24.9320  -27.4500   19.4670 C   0  0  0  0  0  3  0  0  0  0  0  0
  -23.7680  -29.6710   20.1330 C   0  0  0  0  0  2  0  0  0  0  0  0
  -24.7790  -30.9440   22.0540 N   0  0  0  0  0  0  0  0  0  0  0  0
  -23.5550  -32.1300   23.6020 O   0  0  0  0  0  0  0  0  0  0  0  0
  -22.7610  -29.4600   22.4680 C   0  0  0  0  0  0  0  0  0  0  0  0
  -21.4220  -29.3490   22.3610 N   0  0  0  0  0  0  0  0  0  0  0  0
  -23.4040  -28.8170   23.3000 O   0  0  0  0  0  0  0  0  0  0  0  0
  -20.9470  -29.9240   21.6780 H   0  0  0  0  0  0  0  0  0  0  0  0
  -18.0030  -28.1330   22.8590 C   0  0  0  0  0  0  0  0  0  0  0  0
  -20.5950  -28.3830   23.0970 C   0  0  0  0  0  0  0  0  0  0  0  0
  -20.7720  -26.9760   22.4620 C   0  0  0  0  0  3  0  0  0  0  0  0
  -19.5380  -26.4150   21.7220 C   0  0  0  0  0  3  0  0  0  0  0  0
  -18.0990  -26.8440   22.0560 C   0  0  0  0  0  3  0  0  0  0  0  0
  -19.1450  -28.8670   23.2920 C   0  0  0  0  0  0  0  0  0  0  0  0
  -18.9400  -30.1130   23.9270 C   0  0  0  0  0  3  0  0  0  0  0  0
  -17.6430  -30.6230   24.1300 C   0  0  0  0  0  3  0  0  0  0  0  0
  -16.5250  -29.8800   23.7210 C   0  0  0  0  0  3  0  0  0  0  0  0
  -16.7080  -28.6360   23.0960 C   0  0  0  0  0  3  0  0  0  0  0  0
  -25.9010  -32.4970   23.7720 C   0  0  0  0  0  3  0  0  0  0  0  0
  -25.5540  -33.8960   24.1020 N   0  0  0  0  0  0  0  0  0  0  0  0
  -25.8860  -34.9730   23.3740 C   0  0  0  0  0  0  0  0  0  0  0  0
  -26.5670  -34.8910   22.3500 O   0  0  0  0  0  0  0  0  0  0  0  0
  -24.9460  -34.0310   24.8960 H   0  0  0  0  0  0  0  0  0  0  0  0
  -24.1500  -36.7720   23.0460 C   0  0  0  0  0  1  0  0  0  0  0  0
  -25.3900  -36.3550   23.8530 C   0  0  0  0  0  3  0  0  0  0  0  0
  -27.5120  -37.2520   24.7100 C   0  0  0  0  0  1  0  0  0  0  0  0
  -26.4160  -37.4190   23.7590 N   0  0  0  0  0  0  0  0  0  0  0  0
  -26.0000  -38.3340   23.9110 H   0  0  0  0  0  0  0  0  0  0  0  0
  -26.3860  -31.7540   25.0790 C   0  0  1  0  0  0  0  0  0  0  0  0
  -25.2660  -31.5290   26.1240 C   0  0  0  0  0  1  0  0  0  0  0  0
  -26.9880  -30.3730   24.7440 C   0  0  0  0  0  1  0  0  0  0  0  0
  -27.5140  -32.5680   25.7560 C   0  0  0  0  0  1  0  0  0  0  0  0
  -28.2300  -23.3320   20.4390 C   0  0  0  0  0 15  0  0  0  0  0  0
  -28.7870  -21.3790   19.8640 C   0  0  0  0  0 15  0  0  0  0  0  0
  -29.3980  -19.4400   20.4120 C   0  0  0  0  0  1  0  0  0  0  0  0
  -30.1690  -16.0920   20.0360 C   0  0  0  0  0  0  0  0  0  0  0  0
  -30.3590  -13.4710   19.1990 C   0  0  0  0  0  2  0  0  0  0  0  0
  -29.4770  -12.8700   18.0550 C   0  0  0  0  0  2  0  0  0  0  0  0
  -28.1030  -12.4290   18.5740 C   0  0  0  0  0  2  0  0  0  0  0  0
  -27.5630  -13.4490   19.5940 C   0  0  0  0  0  3  0  0  0  0  0  0
  -28.6020  -13.9210   20.6470 C   0  0  0  0  0  2  0  0  0  0  0  0
  -29.6750  -14.6720   19.9180 N   0  0  0  0  0  0  0  0  0  0  0  0
  -31.4150  -15.9560   19.9590 O   0  0  0  0  0  0  0  0  0  0  0  0
  -29.4220  -17.5600   20.0550 N   0  0  0  0  0  0  0  0  0  0  0  0
  -28.4530  -17.3130   19.9040 H   0  0  0  0  0  0  0  0  0  0  0  0
  -25.2310  -13.9310   20.4500 C   0  0  0  0  0  0  0  0  0  0  0  0
  -24.1900  -13.1380   20.8360 C   0  0  0  0  0  0  0  0  0  0  0  0
  -24.6710  -11.7930   20.7770 C   0  0  0  0  0  0  0  0  0  0  0  0
  -26.2760  -13.0750   20.1660 N   0  0  0  0  0  0  0  0  0  0  0  0
  -25.9570  -11.7790   20.4270 N   0  0  0  0  0  0  0  0  0  0  0  0
  -23.9560  -10.5240   20.9740 C   0  0  0  0  0  0  0  0  0  0  0  0
  -24.4050   -9.5560   21.8990 C   0  0  0  0  0  3  0  0  0  0  0  0
  -23.6830   -8.3560   22.0890 C   0  0  0  0  0  3  0  0  0  0  0  0
  -22.4960   -8.1180   21.3550 C   0  0  0  0  0  0  0  0  0  0  0  0
  -22.0660   -9.0740   20.4200 C   0  0  0  0  0  3  0  0  0  0  0  0
  -22.7890  -10.2650   20.2280 C   0  0  0  0  0  3  0  0  0  0  0  0
  -21.7460   -6.9710   21.4550 O   0  0  0  0  0  0  0  0  0  0  0  0
  -21.7090   -6.2310   22.6100 C   0  0  0  0  0  0  0  0  0  0  0  0
  -21.2840   -6.7860   23.8360 C   0  0  0  0  0  3  0  0  0  0  0  0
  -21.1960   -5.9730   24.9840 C   0  0  0  0  0  3  0  0  0  0  0  0
  -21.5230   -4.6050   24.9060 C   0  0  0  0  0  0  0  0  0  0  0  0
  -21.9420   -4.0500   23.6840 C   0  0  0  0  0  3  0  0  0  0  0  0
  -22.0320   -4.8600   22.5390 C   0  0  0  0  0  0  0  0  0  0  0  0
  -22.4140   -4.3150   21.3590 F   0  0  0  0  0  0  0  0  0  0  0  0
  -21.4320   -3.8220   26.0060 F   0  0  0  0  0  0  0  0  0  0  0  0
  -22.7960  -13.6030   21.1400 C   0  0  0  0  0  0  0  0  0  0  0  0
  -22.0920  -12.8960   22.0160 N   0  0  0  0  0  0  0  0  0  0  0  0
  -22.3430  -14.6300   20.6380 O   0  0  0  0  0  0  0  0  0  0  0  0
  -22.4740  -12.0650   22.4440 H   0  0  0  0  0  0  0  0  0  0  0  0
  -21.1580  -13.1890   22.2630 H   0  0  0  0  0  0  0  0  0  0  0  0
  -25.3710  -15.3060   20.2780 N   0  0  0  0  0  0  0  0  0  0  0  0
  -24.5980  -15.9490   20.4140 H   0  0  0  0  0  0  0  0  0  0  0  0
  -26.2020  -15.7550   19.9170 H   0  0  0  0  0  0  0  0  0  0  0  0
  1  3  1  0
  2 13  2  0
  3  8  1  0
  4 12  1  0
  4 14  1  0
  5 11  1  0
  5  7  1  0
  6 12  1  0
  7  8  2  0
  7  6  1  0
  9  3  2  0
 10  9  1  0
 10  5  2  0
 11  4  1  0
 12  2  1  0
 14 16  2  0
 15 14  1  0
 15 19  1  0
 17 15  1  0
 18 27  2  0
 18 23  1  0
 19 23  1  0
 20 19  2  0
 21 22  2  0
 21 20  1  0
 22 18  1  0
 23 24  2  0
 24 25  1  0
 26 25  2  0
 27 26  1  0
 28  2  1  0
 28 29  1  0
 28 38  1  0
 29 32  1  0
 30 34  1  0
 30 29  1  0
 31 30  2  0
 34 33  1  0
 36 34  1  0
 36 37  1  0
 36 35  1  0
 38 41  1  1
 38 39  1  0
 40 38  1  0
 45 53  1  0
 46 51  1  0
 47 48  1  0
 47 46  1  0
 49 48  1  0
 49 58  1  0
 49 50  1  0
 51 45  1  0
 51 50  1  0
 52 45  2  0
 53 44  1  0
 54 53  1  0
 55 56  2  0
 56 75  1  0
 57 56  1  0
 57 60  1  0
 58 59  1  0
 58 55  1  0
 59 57  2  0
 60 61  1  0
 61 62  2  0
 63 66  1  0
 63 62  1  0
 64 63  2  0
 65 64  1  0
 65 60  2  0
 66 67  1  0
 67 68  1  0
 68 69  2  0
 70 69  1  0
 70 74  1  0
 71 70  2  0
 72 67  2  0
 72 71  1  0
 73 72  1  0
 75 76  1  0
 76 79  1  0
 76 78  1  0
 77 75  2  0
 80 81  1  0
 80 55  1  0
 82 80  1  0
M  ISO  4   1 101  42 101  45 100  53 100
M  END
>  <TORSDO>  (24) 
F 18

>  <SCORE>  (24) 
-16.165

>  <name>  (24) 
24

>  <ligand_id>  (24) 
24

>  <original_smiles>  (24) 
[H]c1c([H])c([H])c2c(c1[H])C([H])([H])C([H])([H])C([H])([H])C2([H])N([H])C(=O)C1([H])N(C(=O)C([H])(N([H])C(=O)C([H])(N([H])C([H])([H])[H])C([H])([H])[H])C(C([H])([H])[H])(C([H])([H])[H])C([H])([H])[H])C([H])([H])c2c([H])c(OC([H])([H])C([H])([H])C([H])([H])N([H])C(=O)N3C([H])([H])C([H])([H])C([H])([H])C([H])(n4nc(-c5c([H])c([H])c(Oc6c([H])c([H])c(F)c([H])c6F)c([H])c5[H])c(C(=O)N([H])[H])c4N([H])[H])C3([H])[H])c([H])c([H])c2C1([H])[H]

>  <smiles>  (24) 
[H]c1c([H])c([H])c2c(c1[H])C([H])([H])C([H])([H])C([H])([H])C2([H])N([H])C(=O)C1([H])N(C(=O)C([H])(N([H])C(=O)C([H])(N([H])C([H])([H])[H])C([H])([H])[H])C(C([H])([H])[H])(C([H])([H])[H])C([H])([H])[H])C([H])([H])c2c([H])c(OC([H])([H])C([H])([H])C([H])([H])N([H])C(=O)N3C([H])([H])C([H])([H])C([H])([H])C([H])(n4nc(-c5c([H])c([H])c(Oc6c([H])c([H])c(F)c([H])c6F)c([H])c5[H])c(C(=O)N([H])[H])c4N([H])[H])C3([H])[H])c([H])c([H])c2C1([H])[H]

$$$$
25:0:0
     RDKit          3D

 95103  0  0  1  0  0  0  0  0999 V2000
  -24.8660  -20.0320   19.6330 C   0  0  0  0  0  2  0  0  0  0  0  0
  -25.7360  -18.8160   19.2970 C   0  0  0  0  0  2  0  0  0  0  0  0
  -27.1120  -19.2540   19.1390 N   0  0  0  0  0  0  0  0  0  0  0  0
  -27.2030  -19.6180   18.1920 H   0  0  0  0  0  0  0  0  0  0  0  0
  -29.3370  -17.0050   21.0840 C   0  0  0  0  0  3  0  0  0  0  0  0
  -29.8140  -16.7550   18.7010 C   0  0  0  0  0  3  0  0  0  0  0  0
  -28.3000  -17.9080   20.7790 C   0  0  0  0  0  3  0  0  0  0  0  0
  -28.7990  -17.6790   18.4010 C   0  0  0  0  0  3  0  0  0  0  0  0
  -30.1010  -16.4300   20.0480 C   0  0  0  0  0  0  0  0  0  0  0  0
  -28.0540  -18.2720   19.4390 C   0  0  0  0  0  0  0  0  0  0  0  0
  -31.6330  -14.5910   19.6350 C   0  0  0  0  0  0  0  0  0  0  0  0
  -31.3340  -12.2170   19.0340 C   0  0  0  0  0  2  0  0  0  0  0  0
  -30.3340  -12.0300   17.8800 C   0  0  0  0  0  2  0  0  0  0  0  0
  -28.8910  -11.9560   18.4130 C   0  0  0  0  0  2  0  0  0  0  0  0
  -28.5600  -13.1150   19.3900 C   0  0  0  0  0  3  0  0  0  0  0  0
  -29.6590  -13.2440   20.4660 C   0  0  0  0  0  2  0  0  0  0  0  0
  -30.9500  -13.4260   19.7780 N   0  0  0  0  0  0  0  0  0  0  0  0
  -32.6270  -14.7140   18.9140 O   0  0  0  0  0  0  0  0  0  0  0  0
  -31.2130  -15.6200   20.3830 N   0  0  0  0  0  0  0  0  0  0  0  0
  -31.9910  -16.1770   20.7020 H   0  0  0  0  0  0  0  0  0  0  0  0
  -26.3080  -13.9080   20.3530 C   0  0  0  0  0  0  0  0  0  0  0  0
  -25.2060  -13.2210   20.7870 C   0  0  0  0  0  0  0  0  0  0  0  0
  -25.5300  -11.8360   20.6550 C   0  0  0  0  0  0  0  0  0  0  0  0
  -27.2360  -12.9470   19.9850 N   0  0  0  0  0  0  0  0  0  0  0  0
  -26.7750  -11.6920   20.2200 N   0  0  0  0  0  0  0  0  0  0  0  0
  -24.7070  -10.6380   20.8660 C   0  0  0  0  0  0  0  0  0  0  0  0
  -25.0380   -9.6790   21.8480 C   0  0  0  0  0  3  0  0  0  0  0  0
  -24.2220   -8.5430   22.0420 C   0  0  0  0  0  3  0  0  0  0  0  0
  -23.0620   -8.3590   21.2530 C   0  0  0  0  0  0  0  0  0  0  0  0
  -22.7500   -9.3050   20.2610 C   0  0  0  0  0  3  0  0  0  0  0  0
  -23.5650  -10.4320   20.0650 C   0  0  0  0  0  3  0  0  0  0  0  0
  -22.2250   -7.2740   21.3540 O   0  0  0  0  0  0  0  0  0  0  0  0
  -21.9880   -6.6570   22.5560 C   0  0  0  0  0  0  0  0  0  0  0  0
  -21.4310   -7.3510   23.6520 C   0  0  0  0  0  3  0  0  0  0  0  0
  -21.1410   -6.6610   24.8470 C   0  0  0  0  0  3  0  0  0  0  0  0
  -21.3960   -5.2800   24.9450 C   0  0  0  0  0  0  0  0  0  0  0  0
  -21.9460   -4.5870   23.8520 C   0  0  0  0  0  3  0  0  0  0  0  0
  -22.2390   -5.2740   22.6610 C   0  0  0  0  0  0  0  0  0  0  0  0
  -22.7500   -4.5980   21.6040 F   0  0  0  0  0  0  0  0  0  0  0  0
  -21.1100   -4.6160   26.0890 F   0  0  0  0  0  0  0  0  0  0  0  0
  -23.8950  -13.8130   21.2170 C   0  0  0  0  0  0  0  0  0  0  0  0
  -23.2020  -13.1600   22.1440 N   0  0  0  0  0  0  0  0  0  0  0  0
  -23.4980  -14.8840   20.7630 O   0  0  0  0  0  0  0  0  0  0  0  0
  -23.5370  -12.2920   22.5330 H   0  0  0  0  0  0  0  0  0  0  0  0
  -22.3270  -13.5400   22.4730 H   0  0  0  0  0  0  0  0  0  0  0  0
  -26.5920  -15.2630   20.2300 N   0  0  0  0  0  0  0  0  0  0  0  0
  -25.9360  -15.9780   20.5210 H   0  0  0  0  0  0  0  0  0  0  0  0
  -27.5040  -15.6310   19.9840 H   0  0  0  0  0  0  0  0  0  0  0  0
  -25.2460  -21.1070   18.7760 O   0  0  0  0  0  0  0  0  0  0  0  0
  -24.6680  -22.3540   19.1540 C   0  0  0  0  0  2  0  0  0  0  0  0
  -25.6430  -23.1550   20.0340 C   0  0  0  0  0  2  0  0  0  0  0  0
  -26.5550  -23.8740   19.2120 O   0  0  0  0  0  0  0  0  0  0  0  0
  -27.5650  -24.5420   19.9600 C   0  0  0  0  0  2  0  0  0  0  0  0
  -28.2920  -25.5760   19.0700 C   0  0  0  0  0  2  0  0  0  0  0  0
  -28.2910  -26.8970   19.6190 O   0  0  0  0  0  0  0  0  0  0  0  0
  -24.6440  -31.7880   23.2400 C   0  0  0  0  0  0  0  0  0  0  0  0
  -27.1100  -27.6080   19.6870 C   0  0  0  0  0  0  0  0  0  0  0  0
  -23.3620  -30.5650   21.5140 C   0  0  0  0  0  3  0  0  0  0  0  0
  -24.7400  -29.1350   19.9160 C   0  0  0  0  0  0  0  0  0  0  0  0
  -25.8860  -30.8930   21.2770 C   0  0  0  0  0  2  0  0  0  0  0  0
  -25.9240  -29.5870   20.5130 C   0  0  0  0  0  0  0  0  0  0  0  0
  -27.1080  -28.8280   20.3990 C   0  0  0  0  0  3  0  0  0  0  0  0
  -25.9070  -27.1710   19.0850 C   0  0  0  0  0  3  0  0  0  0  0  0
  -24.7250  -27.9230   19.2050 C   0  0  0  0  0  3  0  0  0  0  0  0
  -23.5150  -30.0050   20.0750 C   0  0  0  0  0  2  0  0  0  0  0  0
  -24.6510  -31.0890   22.0710 N   0  0  0  0  0  0  0  0  0  0  0  0
  -23.5840  -32.0290   23.8350 O   0  0  0  0  0  0  0  0  0  0  0  0
  -22.7150  -29.4750   22.3970 C   0  0  0  0  0  0  0  0  0  0  0  0
  -21.3870  -29.3210   22.2780 N   0  0  0  0  0  0  0  0  0  0  0  0
  -23.4040  -28.7740   23.1430 O   0  0  0  0  0  0  0  0  0  0  0  0
  -20.8890  -29.9500   21.6640 H   0  0  0  0  0  0  0  0  0  0  0  0
  -18.0170  -28.0810   22.6830 C   0  0  0  0  0  0  0  0  0  0  0  0
  -20.5730  -28.3270   22.9770 C   0  0  0  0  0  3  0  0  0  0  0  0
  -20.6800  -26.9410   22.2970 C   0  0  0  0  0  2  0  0  0  0  0  0
  -19.5810  -26.6930   21.2600 C   0  0  0  0  0  2  0  0  0  0  0  0
  -18.2010  -26.7820   21.9150 C   0  0  0  0  0  2  0  0  0  0  0  0
  -19.1330  -28.8150   23.1660 C   0  0  0  0  0  0  0  0  0  0  0  0
  -18.9110  -30.0380   23.8360 C   0  0  0  0  0  3  0  0  0  0  0  0
  -17.6040  -30.5250   24.0280 C   0  0  0  0  0  3  0  0  0  0  0  0
  -16.5030  -29.7860   23.5620 C   0  0  0  0  0  3  0  0  0  0  0  0
  -16.7100  -28.5660   22.8950 C   0  0  0  0  0  3  0  0  0  0  0  0
  -25.9630  -32.3350   23.8730 C   0  0  0  0  0  3  0  0  0  0  0  0
  -26.4560  -31.4880   25.1120 C   0  0  1  0  0  0  0  0  0  0  0  0
  -25.3690  -31.2690   26.1900 C   0  0  0  0  0  1  0  0  0  0  0  0
  -26.9530  -30.0950   24.6560 C   0  0  0  0  0  1  0  0  0  0  0  0
  -27.6570  -32.1920   25.7850 C   0  0  0  0  0  1  0  0  0  0  0  0
  -25.7190  -33.7300   24.2620 N   0  0  0  0  0  0  0  0  0  0  0  0
  -26.1000  -34.7960   23.5450 C   0  0  0  0  0  0  0  0  0  0  0  0
  -26.7640  -34.7020   22.5080 O   0  0  0  0  0  0  0  0  0  0  0  0
  -25.1310  -33.8770   25.0700 H   0  0  0  0  0  0  0  0  0  0  0  0
  -24.4530  -36.6760   23.2660 C   0  0  0  0  0  1  0  0  0  0  0  0
  -25.6760  -36.1840   24.0570 C   0  0  0  0  0  3  0  0  0  0  0  0
  -27.8470  -36.9410   24.9200 C   0  0  0  0  0  1  0  0  0  0  0  0
  -26.7540  -37.1930   23.9840 N   0  0  0  0  0  0  0  0  0  0  0  0
  -26.3890  -38.1230   24.1670 H   0  0  0  0  0  0  0  0  0  0  0  0
  2  1  1  0
  3  2  1  0
  3 10  1  0
  4  3  1  0
  6  9  1  0
  7  5  1  0
  8  6  2  0
  8 10  1  0
  9 19  1  0
  9  5  2  0
 10  7  2  0
 11 17  1  0
 11 19  1  0
 12 17  1  0
 13 14  1  0
 13 12  1  0
 15 14  1  0
 15 24  1  0
 15 16  1  0
 17 16  1  0
 18 11  2  0
 19 20  1  0
 21 22  2  0
 22 41  1  0
 23 22  1  0
 23 26  1  0
 24 25  1  0
 24 21  1  0
 25 23  2  0
 26 27  1  0
 27 28  2  0
 29 32  1  0
 29 28  1  0
 30 29  2  0
 31 30  1  0
 31 26  2  0
 32 33  1  0
 33 38  2  0
 33 34  1  0
 34 35  2  0
 35 36  1  0
 36 40  1  0
 37 36  2  0
 38 37  1  0
 39 38  1  0
 41 42  1  0
 42 45  1  0
 42 44  1  0
 43 41  2  0
 46 21  1  0
 46 47  1  0
 48 46  1  0
 49 50  1  0
 49  1  1  0
 50 51  1  0
 52 53  1  0
 52 51  1  0
 54 55  1  0
 54 53  1  0
 55 57  1  0
 56 67  2  0
 57 62  1  0
 58 66  1  0
 58 68  1  0
 59 65  1  0
 59 61  1  0
 60 66  1  0
 61 60  1  0
 62 61  2  0
 63 64  1  0
 63 57  2  0
 64 59  2  0
 65 58  1  0
 66 56  1  0
 68 70  2  0
 69 68  1  0
 71 69  1  0
 72 81  2  0
 72 77  1  0
 73 69  1  0
 73 77  1  0
 74 73  1  0
 75 76  1  0
 75 74  1  0
 76 72  1  0
 77 78  2  0
 78 79  1  0
 80 79  2  0
 81 80  1  0
 82 56  1  0
 82 87  1  0
 82 83  1  0
 83 86  1  1
 83 84  1  0
 85 83  1  0
 87 90  1  0
 88 92  1  0
 88 87  1  0
 89 88  2  0
 92 91  1  0
 94 92  1  0
 94 95  1  0
 94 93  1  0
M  ISO  4  11 100  19 100  54 101  55 101
M  END
>  <TORSDO>  (25) 
F 25

>  <SCORE>  (25) 
-8.607

>  <name>  (25) 
25

>  <ligand_id>  (25) 
25

>  <original_smiles>  (25) 
[H]c1c([H])c([H])c2c(c1[H])C([H])([H])C([H])([H])C([H])([H])C2([H])N([H])C(=O)C1([H])N(C(=O)C([H])(N([H])C(=O)C([H])(N([H])C([H])([H])[H])C([H])([H])[H])C(C([H])([H])[H])(C([H])([H])[H])C([H])([H])[H])C([H])([H])c2c([H])c(OC([H])([H])C([H])([H])OC([H])([H])C([H])([H])OC([H])([H])C([H])([H])N([H])c3c([H])c([H])c(N([H])C(=O)N4C([H])([H])C([H])([H])C([H])([H])C([H])(n5nc(-c6c([H])c([H])c(Oc7c([H])c([H])c(F)c([H])c7F)c([H])c6[H])c(C(=O)N([H])[H])c5N([H])[H])C4([H])[H])c([H])c3[H])c([H])c([H])c2C1([H])[H]

>  <smiles>  (25) 
[H]c1c([H])c([H])c2c(c1[H])C([H])([H])C([H])([H])C([H])([H])C2([H])N([H])C(=O)C1([H])N(C(=O)C([H])(N([H])C(=O)C([H])(N([H])C([H])([H])[H])C([H])([H])[H])C(C([H])([H])[H])(C([H])([H])[H])C([H])([H])[H])C([H])([H])c2c([H])c(OC([H])([H])C([H])([H])OC([H])([H])C([H])([H])OC([H])([H])C([H])([H])N([H])c3c([H])c([H])c(N([H])C(=O)N4C([H])([H])C([H])([H])C([H])([H])C([H])(n5nc(-c6c([H])c([H])c(Oc7c([H])c([H])c(F)c([H])c7F)c([H])c6[H])c(C(=O)N([H])[H])c5N([H])[H])C4([H])[H])c([H])c3[H])c([H])c([H])c2C1([H])[H]

$$$$
26:0:0
     RDKit          3D

109117  0  0  1  0  0  0  0  0999 V2000
  -25.6720  -14.5510   16.7630 C   0  0  0  0  0  2  0  0  0  0  0  0
  -26.1630  -14.1500   15.4940 O   0  0  0  0  0  0  0  0  0  0  0  0
  -27.0540  -13.0460   15.5340 C   0  0  0  0  0  2  0  0  0  0  0  0
  -27.0750  -12.4210   14.1320 C   0  0  0  0  0  2  0  0  0  0  0  0
  -27.7810  -13.2900   13.2510 O   0  0  0  0  0  0  0  0  0  0  0  0
  -29.1160  -12.8850   12.9750 C   0  0  0  0  0  2  0  0  0  0  0  0
  -29.8440  -14.0590   12.3030 C   0  0  0  0  0  2  0  0  0  0  0  0
  -32.3680  -14.1840   12.4340 C   0  0  0  0  0  0  0  0  0  0  0  0
  -31.2160  -13.6920   11.9620 N   0  0  0  0  0  0  0  0  0  0  0  0
  -33.4480  -13.7950   11.9930 O   0  0  0  0  0  0  0  0  0  0  0  0
  -31.3130  -12.9910   11.2410 H   0  0  0  0  0  0  0  0  0  0  0  0
  -32.6290  -17.5380   14.2220 C   0  0  0  0  0  3  0  0  0  0  0  0
  -32.5750  -16.5780   13.1930 C   0  0  0  0  0  3  0  0  0  0  0  0
  -32.4840  -17.1570   15.5710 C   0  0  0  0  0  3  0  0  0  0  0  0
  -32.1780  -14.8460   14.8570 C   0  0  0  0  0  3  0  0  0  0  0  0
  -32.3410  -15.2250   13.5100 C   0  0  0  0  0  0  0  0  0  0  0  0
  -32.2860  -15.8030   15.8990 C   0  0  0  0  0  0  0  0  0  0  0  0
  -33.0050  -14.5140   17.8390 C   0  0  0  0  0  0  0  0  0  0  0  0
  -32.7330  -12.2400   18.6610 C   0  0  0  0  0  2  0  0  0  0  0  0
  -31.6730  -11.5400   17.7840 C   0  0  0  0  0  2  0  0  0  0  0  0
  -30.2650  -11.7800   18.3620 C   0  0  0  0  0  2  0  0  0  0  0  0
  -29.9770  -13.2760   18.6500 C   0  0  0  0  0  3  0  0  0  0  0  0
  -31.1450  -13.9200   19.4370 C   0  0  0  0  0  2  0  0  0  0  0  0
  -32.3910  -13.6660   18.7000 N   0  0  0  0  0  0  0  0  0  0  0  0
  -34.1410  -14.3270   17.4010 O   0  0  0  0  0  0  0  0  0  0  0  0
  -32.1940  -15.4180   17.2670 N   0  0  0  0  0  0  0  0  0  0  0  0
  -31.3540  -15.6720   17.7640 H   0  0  0  0  0  0  0  0  0  0  0  0
  -28.1060  -14.6030   19.8170 C   0  0  0  0  0  0  0  0  0  0  0  0
  -26.8860  -14.2280   20.3060 C   0  0  0  0  0  0  0  0  0  0  0  0
  -26.7940  -12.8180   20.0960 C   0  0  0  0  0  0  0  0  0  0  0  0
  -28.6980  -13.4470   19.3350 N   0  0  0  0  0  0  0  0  0  0  0  0
  -27.9180  -12.3590   19.5620 N   0  0  0  0  0  0  0  0  0  0  0  0
  -25.6780  -11.8910   20.3160 C   0  0  0  0  0  0  0  0  0  0  0  0
  -25.8770  -10.6350   20.9310 C   0  0  0  0  0  3  0  0  0  0  0  0
  -24.7880   -9.7650   21.1490 C   0  0  0  0  0  3  0  0  0  0  0  0
  -23.4840  -10.1490   20.7560 C   0  0  0  0  0  0  0  0  0  0  0  0
  -23.2940  -11.3900   20.1260 C   0  0  0  0  0  3  0  0  0  0  0  0
  -24.3790  -12.2540   19.9050 C   0  0  0  0  0  3  0  0  0  0  0  0
  -22.3700   -9.3580   20.9040 O   0  0  0  0  0  0  0  0  0  0  0  0
  -22.3630   -8.2780   21.7480 C   0  0  0  0  0  0  0  0  0  0  0  0
  -22.5370   -8.4200   23.1420 C   0  0  0  0  0  3  0  0  0  0  0  0
  -22.4530   -7.2900   23.9790 C   0  0  0  0  0  3  0  0  0  0  0  0
  -22.1870   -6.0220   23.4290 C   0  0  0  0  0  0  0  0  0  0  0  0
  -22.0070   -5.8810   22.0400 C   0  0  0  0  0  3  0  0  0  0  0  0
  -22.0920   -7.0070   21.2040 C   0  0  0  0  0  0  0  0  0  0  0  0
  -21.8980   -6.8690   19.8700 F   0  0  0  0  0  0  0  0  0  0  0  0
  -22.1000   -4.9370   24.2330 F   0  0  0  0  0  0  0  0  0  0  0  0
  -25.8200  -15.1390   20.8430 C   0  0  0  0  0  0  0  0  0  0  0  0
  -25.0280  -14.6630   21.7960 N   0  0  0  0  0  0  0  0  0  0  0  0
  -25.7130  -16.3010   20.4480 O   0  0  0  0  0  0  0  0  0  0  0  0
  -25.1200  -13.7130   22.1260 H   0  0  0  0  0  0  0  0  0  0  0  0
  -24.3100  -15.2500   22.1960 H   0  0  0  0  0  0  0  0  0  0  0  0
  -28.7440  -15.8320   19.7150 N   0  0  0  0  0  0  0  0  0  0  0  0
  -28.2340  -16.6750   19.9500 H   0  0  0  0  0  0  0  0  0  0  0  0
  -29.4580  -16.0180   19.0190 H   0  0  0  0  0  0  0  0  0  0  0  0
  -26.0070  -16.0360   16.9410 C   0  0  0  0  0  2  0  0  0  0  0  0
  -27.3640  -16.1520   17.3540 O   0  0  0  0  0  0  0  0  0  0  0  0
  -27.9330  -17.4310   17.1050 C   0  0  0  0  0  2  0  0  0  0  0  0
  -29.2660  -17.5570   17.8700 C   0  0  0  0  0  2  0  0  0  0  0  0
  -28.9890  -18.0720   19.1680 O   0  0  0  0  0  0  0  0  0  0  0  0
  -30.0490  -17.9210   20.1040 C   0  0  0  0  0  2  0  0  0  0  0  0
  -31.0350  -19.1050   20.1330 C   0  0  0  0  0  2  0  0  0  0  0  0
  -32.0750  -19.0210   19.1570 O   0  0  0  0  0  0  0  0  0  0  0  0
  -33.1700  -19.8780   19.4970 C   0  0  0  0  0  2  0  0  0  0  0  0
  -34.1410  -20.1420   18.3270 C   0  0  0  0  0  2  0  0  0  0  0  0
  -33.4350  -20.7700   17.2620 O   0  0  0  0  0  0  0  0  0  0  0  0
  -34.2610  -21.4350   16.3030 C   0  0  0  0  0  2  0  0  0  0  0  0
  -33.3220  -22.2740   15.4190 C   0  0  0  0  0  2  0  0  0  0  0  0
  -33.8450  -23.5540   15.0160 O   0  0  0  0  0  0  0  0  0  0  0  0
  -33.8010  -29.5810   18.7750 C   0  0  0  0  0  0  0  0  0  0  0  0
  -33.0960  -24.6420   15.4220 C   0  0  0  0  0  0  0  0  0  0  0  0
  -31.5850  -28.6830   18.1500 C   0  0  0  0  0  3  0  0  0  0  0  0
  -31.5970  -26.8280   16.4050 C   0  0  0  0  0  0  0  0  0  0  0  0
  -33.6390  -28.2400   16.6820 C   0  0  0  0  0  2  0  0  0  0  0  0
  -32.9860  -26.9370   16.2690 C   0  0  0  0  0  0  0  0  0  0  0  0
  -33.7410  -25.8500   15.7700 C   0  0  0  0  0  3  0  0  0  0  0  0
  -31.6840  -24.5680   15.5330 C   0  0  0  0  0  3  0  0  0  0  0  0
  -30.9400  -25.6450   16.0370 C   0  0  0  0  0  3  0  0  0  0  0  0
  -30.8570  -28.0240   16.9480 C   0  0  0  0  0  2  0  0  0  0  0  0
  -33.0570  -28.8400   17.9070 N   0  0  0  0  0  0  0  0  0  0  0  0
  -33.2790  -30.1590   19.7360 O   0  0  0  0  0  0  0  0  0  0  0  0
  -31.2570  -27.8820   19.4310 C   0  0  0  0  0  0  0  0  0  0  0  0
  -29.9720  -27.8730   19.8210 N   0  0  0  0  0  0  0  0  0  0  0  0
  -32.1410  -27.2660   20.0340 O   0  0  0  0  0  0  0  0  0  0  0  0
  -29.3100  -28.4070   19.2750 H   0  0  0  0  0  0  0  0  0  0  0  0
  -26.9050  -26.9720   21.5040 C   0  0  0  0  0  0  0  0  0  0  0  0
  -29.4270  -27.1600   20.9760 C   0  0  0  0  0  3  0  0  0  0  0  0
  -29.3840  -25.6350   20.7200 C   0  0  0  0  0  2  0  0  0  0  0  0
  -28.0430  -25.1580   20.1560 C   0  0  0  0  0  2  0  0  0  0  0  0
  -26.9010  -25.5030   21.1170 C   0  0  0  0  0  2  0  0  0  0  0  0
  -28.0880  -27.7540   21.4220 C   0  0  0  0  0  0  0  0  0  0  0  0
  -28.0250  -29.1240   21.7600 C   0  0  0  0  0  3  0  0  0  0  0  0
  -26.8140  -29.7100   22.1720 C   0  0  0  0  0  3  0  0  0  0  0  0
  -25.6500  -28.9270   22.2660 C   0  0  0  0  0  3  0  0  0  0  0  0
  -25.6980  -27.5610   21.9360 C   0  0  0  0  0  3  0  0  0  0  0  0
  -35.3400  -29.7580   18.5800 C   0  0  0  0  0  3  0  0  0  0  0  0
  -36.1950  -28.7870   19.4840 C   0  0  1  0  0  0  0  0  0  0  0  0
  -35.8170  -28.8360   20.9810 C   0  0  0  0  0  1  0  0  0  0  0  0
  -36.0430  -27.3220   19.0090 C   0  0  0  0  0  1  0  0  0  0  0  0
  -37.6970  -29.1390   19.3570 C   0  0  0  0  0  1  0  0  0  0  0  0
  -35.6620  -31.1610   18.8740 N   0  0  0  0  0  0  0  0  0  0  0  0
  -35.8440  -32.1090   17.9450 C   0  0  0  0  0  0  0  0  0  0  0  0
  -35.8250  -31.8720   16.7340 O   0  0  0  0  0  0  0  0  0  0  0  0
  -35.6400  -31.4370   19.8450 H   0  0  0  0  0  0  0  0  0  0  0  0
  -34.7800  -34.3550   18.3160 C   0  0  0  0  0  1  0  0  0  0  0  0
  -36.0830  -33.5490   18.4370 C   0  0  0  0  0  3  0  0  0  0  0  0
  -38.4930  -33.6980   17.9970 C   0  0  0  0  0  1  0  0  0  0  0  0
  -37.1680  -34.2450   17.7140 N   0  0  0  0  0  0  0  0  0  0  0  0
  -37.1790  -35.2340   17.9450 H   0  0  0  0  0  0  0  0  0  0  0  0
  1 56  1  0
  2  3  1  0
  2  1  1  0
  4  3  1  0
  5  4  1  0
  6  5  1  0
  7  6  1  0
  8 16  1  0
  9  7  1  0
  9  8  1  0
 10  8  2  0
 11  9  1  0
 12 14  1  0
 13 16  1  0
 13 12  2  0
 14 17  2  0
 15 17  1  0
 16 15  2  0
 17 26  1  0
 18 24  1  0
 19 24  1  0
 20 21  1  0
 20 19  1  0
 22 21  1  0
 22 31  1  0
 22 23  1  0
 24 23  1  0
 25 18  2  0
 26 27  1  0
 26 18  1  0
 28 29  2  0
 29 48  1  0
 30 29  1  0
 30 33  1  0
 31 32  1  0
 31 28  1  0
 32 30  2  0
 33 34  1  0
 34 35  2  0
 36 39  1  0
 36 35  1  0
 37 36  2  0
 38 37  1  0
 38 33  2  0
 39 40  1  0
 40 41  1  0
 41 42  2  0
 43 42  1  0
 43 47  1  0
 44 43  2  0
 45 40  2  0
 45 44  1  0
 46 45  1  0
 48 49  1  0
 49 51  1  0
 49 52  1  0
 50 48  2  0
 53 28  1  0
 53 54  1  0
 55 53  1  0
 56 57  1  0
 58 57  1  0
 58 59  1  0
 59 60  1  0
 60 61  1  0
 61 62  1  0
 63 64  1  0
 63 62  1  0
 65 64  1  0
 66 65  1  0
 67 66  1  0
 68 67  1  0
 69 68  1  0
 69 71  1  0
 70 81  2  0
 71 77  2  0
 71 76  1  0
 72 82  1  0
 73 79  1  0
 74 80  1  0
 75 73  1  0
 75 74  1  0
 76 75  2  0
 77 78  1  0
 78 73  2  0
 79 72  1  0
 80 72  1  0
 80 70  1  0
 82 83  1  0
 82 84  2  0
 85 83  1  0
 86 95  1  0
 87 83  1  0
 87 91  1  0
 88 87  1  0
 89 88  1  0
 89 90  1  0
 90 86  1  0
 91 86  2  0
 91 92  1  0
 92 93  2  0
 93 94  1  0
 95 94  2  0
 96 70  1  0
 96101  1  0
 96 97  1  0
 97 98  1  1
 99 97  1  0
100 97  1  0
101104  1  0
102106  1  0
102101  1  0
103102  2  0
106105  1  0
108109  1  0
108107  1  0
108106  1  0
M  ISO  4  18 100  26 100  68 101  69 101
M  END
>  <TORSDO>  (26) 
F 37

>  <SCORE>  (26) 
29.591

>  <name>  (26) 
26

>  <ligand_id>  (26) 
26

>  <original_smiles>  (26) 
[H]c1c([H])c(C(=O)N([H])C([H])([H])C([H])([H])OC([H])([H])C([H])([H])OC([H])([H])C([H])([H])OC([H])([H])C([H])([H])OC([H])([H])C([H])([H])OC([H])([H])C([H])([H])OC([H])([H])C([H])([H])Oc2c([H])c([H])c3c(c2[H])C([H])([H])N(C(=O)C([H])(N([H])C(=O)C([H])(N([H])C([H])([H])[H])C([H])([H])[H])C(C([H])([H])[H])(C([H])([H])[H])C([H])([H])[H])C([H])(C(=O)N([H])C2([H])c4c([H])c([H])c([H])c([H])c4C([H])([H])C([H])([H])C2([H])[H])C3([H])[H])c([H])c(N([H])C(=O)N2C([H])([H])C([H])([H])C([H])([H])C([H])(n3nc(-c4c([H])c([H])c(Oc5c([H])c([H])c(F)c([H])c5F)c([H])c4[H])c(C(=O)N([H])[H])c3N([H])[H])C2([H])[H])c1[H]

>  <smiles>  (26) 
[H]c1c([H])c(C(=O)N([H])C([H])([H])C([H])([H])OC([H])([H])C([H])([H])OC([H])([H])C([H])([H])OC([H])([H])C([H])([H])OC([H])([H])C([H])([H])OC([H])([H])C([H])([H])OC([H])([H])C([H])([H])Oc2c([H])c([H])c3c(c2[H])C([H])([H])N(C(=O)C([H])(N([H])C(=O)C([H])(N([H])C([H])([H])[H])C([H])([H])[H])C(C([H])([H])[H])(C([H])([H])[H])C([H])([H])[H])C([H])(C(=O)N([H])C2([H])c4c([H])c([H])c([H])c([H])c4C([H])([H])C([H])([H])C2([H])[H])C3([H])[H])c([H])c(N([H])C(=O)N2C([H])([H])C([H])([H])C([H])([H])C([H])(n3nc(-c4c([H])c([H])c(Oc5c([H])c([H])c(F)c([H])c5F)c([H])c4[H])c(C(=O)N([H])[H])c3N([H])[H])C2([H])[H])c1[H]

$$$$
27:0:0
     RDKit          3D

102109  0  0  1  0  0  0  0  0999 V2000
  -27.0210  -29.9080   19.6910 C   0  0  0  0  0  2  0  0  0  0  0  0
  -27.9370  -28.0100   21.6340 C   0  0  0  0  0  3  0  0  0  0  0  0
  -25.3790  -29.7620   20.1060 C   0  0  0  0  0  2  0  0  0  0  0  0
  -26.5090  -27.5250   22.2480 C   0  0  0  0  0  3  0  0  0  0  0  0
  -28.1870  -28.9060   20.3500 C   0  0  0  0  0  3  0  0  0  0  0  0
  -25.0640  -28.1210   21.6720 C   0  0  0  0  0  2  0  0  0  0  0  0
  -24.0830  -27.1270   21.7900 O   0  0  0  0  0  0  0  0  0  0  0  0
  -24.4490  -25.7750   22.1080 C   0  0  0  0  0  2  0  0  0  0  0  0
  -24.1930  -24.8810   23.3450 C   0  0  0  0  0  2  0  0  0  0  0  0
  -24.5810  -23.5330   23.1360 O   0  0  0  0  0  0  0  0  0  0  0  0
  -25.9100  -23.3520   22.6450 C   0  0  0  0  0  2  0  0  0  0  0  0
  -25.8960  -23.0730   21.1330 C   0  0  0  0  0  2  0  0  0  0  0  0
  -25.8870  -24.2730   20.3630 O   0  0  0  0  0  0  0  0  0  0  0  0
  -25.8400  -24.0180   18.9590 C   0  0  0  0  0  2  0  0  0  0  0  0
  -24.4330  -24.2270   18.3720 C   0  0  0  0  0  2  0  0  0  0  0  0
  -24.3980  -25.3910   17.5510 O   0  0  0  0  0  0  0  0  0  0  0  0
  -23.2780  -30.8520   23.2810 C   0  0  0  0  0  0  0  0  0  0  0  0
  -23.4930  -26.3090   17.9130 C   0  0  0  0  0  0  0  0  0  0  0  0
  -21.3350  -29.9970   21.6990 C   0  0  0  0  0  3  0  0  0  0  0  0
  -21.8510  -28.2370   18.9820 C   0  0  0  0  0  3  0  0  0  0  0  0
  -24.4460  -30.4710   20.8890 C   0  0  0  0  0  2  0  0  0  0  0  0
  -23.4510  -28.4420   18.8430 C   0  0  0  0  0  2  0  0  0  0  0  0
  -24.0700  -27.2880   18.5320 C   0  0  0  0  0  3  0  0  0  0  0  0
  -22.1360  -26.3170   17.6520 C   0  0  0  0  0  3  0  0  0  0  0  0
  -21.2840  -27.2430   18.2450 C   0  0  0  0  0  3  0  0  0  0  0  0
  -20.8020  -29.0420   20.1790 C   0  0  0  0  0  2  0  0  0  0  0  0
  -22.9770  -30.7120   21.9960 N   0  0  0  0  0  0  0  0  0  0  0  0
  -22.4030  -30.9310   24.1530 O   0  0  0  0  0  0  0  0  0  0  0  0
  -20.7210  -28.9990   22.7690 C   0  0  0  0  0  0  0  0  0  0  0  0
  -19.5050  -28.4580   22.5620 N   0  0  0  0  0  0  0  0  0  0  0  0
  -21.3830  -28.5400   23.6980 O   0  0  0  0  0  0  0  0  0  0  0  0
  -18.9310  -28.8080   21.8090 H   0  0  0  0  0  0  0  0  0  0  0  0
  -16.6350  -26.2970   22.7520 C   0  0  0  0  0  0  0  0  0  0  0  0
  -18.9480  -27.3160   23.3060 C   0  0  0  0  0  3  0  0  0  0  0  0
  -19.5380  -25.9610   22.8410 C   0  0  0  0  0  2  0  0  0  0  0  0
  -18.7230  -25.3060   21.7170 C   0  0  0  0  0  2  0  0  0  0  0  0
  -17.2800  -25.0440   22.1800 C   0  0  0  0  0  2  0  0  0  0  0  0
  -17.4240  -27.3570   23.2730 C   0  0  0  0  0  0  0  0  0  0  0  0
  -16.7950  -28.5160   23.7670 C   0  0  0  0  0  3  0  0  0  0  0  0
  -15.3970  -28.6310   23.7510 C   0  0  0  0  0  3  0  0  0  0  0  0
  -14.6130  -27.5760   23.2480 C   0  0  0  0  0  3  0  0  0  0  0  0
  -15.2300  -26.4080   22.7600 C   0  0  0  0  0  3  0  0  0  0  0  0
  -24.7650  -31.0100   23.6540 C   0  0  0  0  0  3  0  0  0  0  0  0
  -24.9300  -32.4300   23.8340 N   0  0  0  0  0  0  0  0  0  0  0  0
  -25.5450  -33.2050   22.9310 C   0  0  0  0  0  0  0  0  0  0  0  0
  -26.1000  -32.7810   21.9040 O   0  0  0  0  0  0  0  0  0  0  0  0
  -24.4670  -32.8580   24.6250 H   0  0  0  0  0  0  0  0  0  0  0  0
  -24.5370  -35.3840   22.3350 C   0  0  0  0  0  1  0  0  0  0  0  0
  -25.5500  -34.6910   23.2520 C   0  0  0  0  0  3  0  0  0  0  0  0
  -27.8330  -34.8040   24.1290 C   0  0  0  0  0  1  0  0  0  0  0  0
  -26.8910  -35.2930   23.1250 N   0  0  0  0  0  0  0  0  0  0  0  0
  -26.8440  -36.3040   23.1960 H   0  0  0  0  0  0  0  0  0  0  0  0
  -25.3060  -30.1510   24.8510 C   0  0  1  0  0  0  0  0  0  0  0  0
  -24.3400  -30.1230   26.0390 C   0  0  0  0  0  1  0  0  0  0  0  0
  -25.6210  -28.6940   24.5280 C   0  0  0  0  0  1  0  0  0  0  0  0
  -26.6780  -30.7200   25.2570 C   0  0  0  0  0  1  0  0  0  0  0  0
  -29.3500  -28.0980   19.4010 C   0  0  0  0  0  2  0  0  0  0  0  0
  -29.5730  -26.3690   19.3910 C   0  0  0  0  0  3  0  0  0  0  0  0
  -30.4230  -25.0320   18.7690 C   0  0  0  0  0  3  0  0  0  0  0  0
  -30.0270  -23.5730   19.2310 O   0  0  0  0  0  0  0  0  0  0  0  0
  -30.5860  -22.1430   18.9310 C   0  0  0  0  0  3  0  0  0  0  0  0
  -29.9420  -20.6590   19.5080 C   0  0  0  0  0  3  0  0  0  0  0  0
  -30.5010  -19.2090   19.3590 O   0  0  0  0  0  0  0  0  0  0  0  0
  -29.8350  -17.8870   19.8700 C   0  0  0  0  0  3  0  0  0  0  0  0
  -30.4600  -16.2940   19.7650 C   0  0  0  0  0  3  0  0  0  0  0  0
  -29.8400  -14.9130   20.1750 O   0  0  0  0  0  0  0  0  0  0  0  0
  -30.4980  -13.5330   19.9460 C   0  0  0  0  0  0  0  0  0  0  0  0
  -30.0150  -11.2440   18.9410 C   0  0  0  0  0  2  0  0  0  0  0  0
  -28.9550  -11.3370   17.8230 C   0  0  0  0  0  2  0  0  0  0  0  0
  -27.5410  -11.1540   18.4000 C   0  0  0  0  0  2  0  0  0  0  0  0
  -27.2950  -11.9960   19.6790 C   0  0  0  0  0  3  0  0  0  0  0  0
  -28.4830  -11.9750   20.6690 C   0  0  0  0  0  2  0  0  0  0  0  0
  -29.7120  -12.3100   19.9320 N   0  0  0  0  0  0  0  0  0  0  0  0
  -31.6690  -13.4820   19.5810 O   0  0  0  0  0  0  0  0  0  0  0  0
  -24.9790  -12.5280   20.6390 C   0  0  0  0  0  0  0  0  0  0  0  0
  -23.9570  -11.7400   21.0950 C   0  0  0  0  0  0  0  0  0  0  0  0
  -24.4350  -10.3950   21.0290 C   0  0  0  0  0  0  0  0  0  0  0  0
  -26.0130  -11.6680   20.3100 N   0  0  0  0  0  0  0  0  0  0  0  0
  -25.7000  -10.3790   20.6150 N   0  0  0  0  0  0  0  0  0  0  0  0
  -23.7370   -9.1240   21.2830 C   0  0  0  0  0  0  0  0  0  0  0  0
  -24.2190   -8.1890   22.2250 C   0  0  0  0  0  3  0  0  0  0  0  0
  -23.5170   -6.9870   22.4670 C   0  0  0  0  0  3  0  0  0  0  0  0
  -22.3180   -6.7100   21.7670 C   0  0  0  0  0  0  0  0  0  0  0  0
  -21.8540   -7.6350   20.8150 C   0  0  0  0  0  3  0  0  0  0  0  0
  -22.5560   -8.8280   20.5720 C   0  0  0  0  0  3  0  0  0  0  0  0
  -21.5880   -5.5560   21.9150 O   0  0  0  0  0  0  0  0  0  0  0  0
  -21.5660   -4.8640   23.0990 C   0  0  0  0  0  0  0  0  0  0  0  0
  -21.0590   -5.4380   24.2860 C   0  0  0  0  0  3  0  0  0  0  0  0
  -20.9890   -4.6690   25.4650 C   0  0  0  0  0  3  0  0  0  0  0  0
  -21.4170   -3.3280   25.4590 C   0  0  0  0  0  0  0  0  0  0  0  0
  -21.9160   -2.7530   24.2770 C   0  0  0  0  0  3  0  0  0  0  0  0
  -21.9870   -3.5180   23.1000 C   0  0  0  0  0  0  0  0  0  0  0  0
  -22.4480   -2.9540   21.9570 F   0  0  0  0  0  0  0  0  0  0  0  0
  -21.3430   -2.5870   26.5900 F   0  0  0  0  0  0  0  0  0  0  0  0
  -22.5790  -12.2020   21.4710 C   0  0  0  0  0  0  0  0  0  0  0  0
  -21.9260  -11.5040   22.3930 N   0  0  0  0  0  0  0  0  0  0  0  0
  -22.0930  -13.2210   20.9840 O   0  0  0  0  0  0  0  0  0  0  0  0
  -22.3330  -10.6820   22.8130 H   0  0  0  0  0  0  0  0  0  0  0  0
  -21.0070  -11.8030   22.6840 H   0  0  0  0  0  0  0  0  0  0  0  0
  -25.1040  -13.9010   20.4470 N   0  0  0  0  0  0  0  0  0  0  0  0
  -24.3450  -14.5460   20.6340 H   0  0  0  0  0  0  0  0  0  0  0  0
  -25.9300  -14.3560   20.0750 H   0  0  0  0  0  0  0  0  0  0  0  0
  1  3  1  0
  1  5  1  0
  2  4  2  0
  3 21  1  0
  5 57  1  0
  5  2  1  0
  6  7  1  0
  6  4  1  0
  7  8  1  0
  8  9  1  0
 10  9  1  0
 11 10  1  0
 12 11  1  0
 13 12  1  0
 14 13  1  0
 15 14  1  0
 16 18  1  0
 16 15  1  0
 17 28  2  0
 18 23  2  0
 19 27  1  0
 19 29  1  0
 20 25  1  0
 20 26  1  0
 21 27  1  0
 22 20  1  0
 23 22  1  0
 24 18  1  0
 24 25  2  0
 26 19  1  0
 27 17  1  0
 29 31  2  0
 30 29  1  0
 32 30  1  0
 33 42  2  0
 33 38  1  0
 34 30  1  0
 35 34  1  0
 36 37  1  0
 36 35  1  0
 37 33  1  0
 38 34  1  0
 38 39  2  0
 40 39  1  0
 41 40  2  0
 42 41  1  0
 43 17  1  0
 43 44  1  0
 43 53  1  0
 44 47  1  0
 45 49  1  0
 45 44  1  0
 46 45  2  0
 49 48  1  0
 51 52  1  0
 51 49  1  0
 51 50  1  0
 53 56  1  1
 53 54  1  0
 55 53  1  0
 58 57  1  0
 59 60  1  0
 59 58  2  0
 61 60  1  0
 61 62  2  0
 63 62  1  0
 63 64  1  0
 65 64  2  0
 65 66  1  0
 67 66  1  0
 68 73  1  0
 69 70  1  0
 69 68  1  0
 71 70  1  0
 71 78  1  0
 71 72  1  0
 73 67  1  0
 73 72  1  0
 74 67  2  0
 75 76  2  0
 76 95  1  0
 77 76  1  0
 77 80  1  0
 78 79  1  0
 78 75  1  0
 79 77  2  0
 80 81  1  0
 81 82  2  0
 83 86  1  0
 83 82  1  0
 84 83  2  0
 85 84  1  0
 85 80  2  0
 86 87  1  0
 87 92  2  0
 87 88  1  0
 88 89  2  0
 90 89  1  0
 90 94  1  0
 91 90  2  0
 92 91  1  0
 93 92  1  0
 95 96  1  0
 96 99  1  0
 96 98  1  0
 97 95  2  0
100101  1  0
100 75  1  0
102100  1  0
M  ISO  4  15 101  16 101  66 100  67 100
M  END
>  <TORSDO>  (27) 
F 35

>  <SCORE>  (27) 
-1.183

>  <name>  (27) 
27

>  <ligand_id>  (27) 
27

>  <original_smiles>  (27) 
[H]c1c([H])c([H])c2c(c1[H])C([H])([H])C([H])([H])C([H])([H])C2([H])N([H])C(=O)C1([H])N(C(=O)C([H])(N([H])C(=O)C([H])(N([H])C([H])([H])[H])C([H])([H])[H])C(C([H])([H])[H])(C([H])([H])[H])C([H])([H])[H])C([H])([H])c2c([H])c(OC([H])([H])C([H])([H])OC([H])([H])C([H])([H])OC([H])([H])C([H])([H])Oc3c([H])c([H])c(C([H])([H])C([H])([H])C([H])([H])OC([H])([H])C([H])([H])OC([H])([H])C([H])([H])OC(=O)N4C([H])([H])C([H])([H])C([H])([H])C([H])(n5nc(-c6c([H])c([H])c(Oc7c([H])c([H])c(F)c([H])c7F)c([H])c6[H])c(C(=O)N([H])[H])c5N([H])[H])C4([H])[H])c([H])c3[H])c([H])c([H])c2C1([H])[H]

>  <smiles>  (27) 
[H]c1c([H])c([H])c2c(c1[H])C([H])([H])C([H])([H])C([H])([H])C2([H])N([H])C(=O)C1([H])N(C(=O)C([H])(N([H])C(=O)C([H])(N([H])C([H])([H])[H])C([H])([H])[H])C(C([H])([H])[H])(C([H])([H])[H])C([H])([H])[H])C([H])([H])c2c([H])c(OC([H])([H])C([H])([H])OC([H])([H])C([H])([H])OC([H])([H])C([H])([H])Oc3c([H])c([H])c(C([H])([H])C([H])([H])C([H])([H])OC([H])([H])C([H])([H])OC([H])([H])C([H])([H])OC(=O)N4C([H])([H])C([H])([H])C([H])([H])C([H])(n5nc(-c6c([H])c([H])c(Oc7c([H])c([H])c(F)c([H])c7F)c([H])c6[H])c(C(=O)N([H])[H])c5N([H])[H])C4([H])[H])c([H])c3[H])c([H])c([H])c2C1([H])[H]

$$$$
28:0:0
     RDKit          3D

 96104  0  0  1  0  0  0  0  0999 V2000
  -26.7030  -20.6740   19.6560 C   0  0  0  0  0  3  0  0  0  0  0  0
  -26.5840  -22.0400   19.9600 C   0  0  0  0  0  3  0  0  0  0  0  0
  -27.9730  -20.0760   19.6250 C   0  0  0  0  0  3  0  0  0  0  0  0
  -27.7350  -22.8040   20.2350 C   0  0  0  0  0  3  0  0  0  0  0  0
  -29.1350  -20.8260   19.9140 C   0  0  0  0  0  0  0  0  0  0  0  0
  -29.0240  -22.2080   20.2300 C   0  0  0  0  0  0  0  0  0  0  0  0
  -30.4910  -20.1200   19.8500 C   0  0  0  0  0  2  0  0  0  0  0  0
  -30.4460  -17.7100   20.5600 C   0  0  0  0  0  0  0  0  0  0  0  0
  -30.6360  -19.0160   20.8040 N   0  0  0  0  0  0  0  0  0  0  0  0
  -30.0390  -17.2950   19.4710 O   0  0  0  0  0  0  0  0  0  0  0  0
  -30.9590  -19.2670   21.7300 H   0  0  0  0  0  0  0  0  0  0  0  0
  -30.7480  -16.7370   21.7210 C   0  0  0  0  0  2  0  0  0  0  0  0
  -30.3070  -15.4060   21.4380 O   0  0  0  0  0  0  0  0  0  0  0  0
  -30.9620  -14.6100   20.5630 C   0  0  0  0  0  0  0  0  0  0  0  0
  -30.6200  -12.5300   19.2360 C   0  0  0  0  0  2  0  0  0  0  0  0
  -29.6820  -12.8290   18.0480 C   0  0  0  0  0  2  0  0  0  0  0  0
  -28.2040  -12.6870   18.4650 C   0  0  0  0  0  2  0  0  0  0  0  0
  -27.8730  -13.4520   19.7740 C   0  0  0  0  0  3  0  0  0  0  0  0
  -28.9100  -13.1400   20.8740 C   0  0  0  0  0  2  0  0  0  0  0  0
  -30.2460  -13.4280   20.3300 N   0  0  0  0  0  0  0  0  0  0  0  0
  -32.0260  -14.9180   20.0200 O   0  0  0  0  0  0  0  0  0  0  0  0
  -25.4570  -14.0480   20.4370 C   0  0  0  0  0  0  0  0  0  0  0  0
  -24.3880  -13.2690   20.7930 C   0  0  0  0  0  0  0  0  0  0  0  0
  -24.8580  -11.9200   20.7710 C   0  0  0  0  0  0  0  0  0  0  0  0
  -26.5110  -13.1730   20.2240 N   0  0  0  0  0  0  0  0  0  0  0  0
  -26.1530  -11.8880   20.4800 N   0  0  0  0  0  0  0  0  0  0  0  0
  -24.1390  -10.6530   20.9570 C   0  0  0  0  0  0  0  0  0  0  0  0
  -24.5260   -9.7210   21.9450 C   0  0  0  0  0  3  0  0  0  0  0  0
  -23.8090   -8.5170   22.1160 C   0  0  0  0  0  3  0  0  0  0  0  0
  -22.6890   -8.2380   21.2970 C   0  0  0  0  0  0  0  0  0  0  0  0
  -22.3210   -9.1580   20.2990 C   0  0  0  0  0  3  0  0  0  0  0  0
  -23.0390  -10.3540   20.1280 C   0  0  0  0  0  3  0  0  0  0  0  0
  -21.9460   -7.0850   21.3740 O   0  0  0  0  0  0  0  0  0  0  0  0
  -21.7900   -6.4060   22.5560 C   0  0  0  0  0  0  0  0  0  0  0  0
  -21.1740   -6.9990   23.6800 C   0  0  0  0  0  3  0  0  0  0  0  0
  -20.9730   -6.2440   24.8530 C   0  0  0  0  0  3  0  0  0  0  0  0
  -21.3750   -4.8950   24.8990 C   0  0  0  0  0  0  0  0  0  0  0  0
  -21.9820   -4.3010   23.7780 C   0  0  0  0  0  3  0  0  0  0  0  0
  -22.1860   -5.0550   22.6090 C   0  0  0  0  0  0  0  0  0  0  0  0
  -22.7540   -4.4720   21.5250 F   0  0  0  0  0  0  0  0  0  0  0  0
  -21.1740   -4.1670   26.0220 F   0  0  0  0  0  0  0  0  0  0  0  0
  -22.9850  -13.7350   21.0470 C   0  0  0  0  0  0  0  0  0  0  0  0
  -22.2510  -13.0330   21.9040 N   0  0  0  0  0  0  0  0  0  0  0  0
  -22.5430  -14.7580   20.5220 O   0  0  0  0  0  0  0  0  0  0  0  0
  -22.6190  -12.2050   22.3490 H   0  0  0  0  0  0  0  0  0  0  0  0
  -21.3070  -13.3250   22.1150 H   0  0  0  0  0  0  0  0  0  0  0  0
  -25.6150  -15.4190   20.2590 N   0  0  0  0  0  0  0  0  0  0  0  0
  -24.8490  -16.0760   20.3610 H   0  0  0  0  0  0  0  0  0  0  0  0
  -26.4740  -15.8560   19.9460 H   0  0  0  0  0  0  0  0  0  0  0  0
  -30.1850  -22.9170   20.4770 O   0  0  0  0  0  0  0  0  0  0  0  0
  -30.1670  -24.0970   21.2900 C   0  0  0  0  0  2  0  0  0  0  0  0
  -31.0070  -25.1910   20.6090 C   0  0  0  0  0  2  0  0  0  0  0  0
  -30.4310  -25.6920   19.2670 C   0  0  0  0  0  2  0  0  0  0  0  0
  -29.5270  -26.9260   19.3570 C   0  0  0  0  0  0  0  0  0  0  0  0
  -29.5900  -27.8190   18.5080 O   0  0  0  0  0  0  0  0  0  0  0  0
  -28.6410  -26.8680   20.3670 O   0  0  0  0  0  0  0  0  0  0  0  0
  -24.6000  -31.9410   23.3100 C   0  0  0  0  0  0  0  0  0  0  0  0
  -27.4890  -27.6120   20.3090 C   0  0  0  0  0  0  0  0  0  0  0  0
  -23.4990  -30.5180   21.6110 C   0  0  0  0  0  3  0  0  0  0  0  0
  -25.0520  -29.0290   20.2410 C   0  0  0  0  0  0  0  0  0  0  0  0
  -26.0190  -30.9460   21.5240 C   0  0  0  0  0  2  0  0  0  0  0  0
  -26.1690  -29.5850   20.8800 C   0  0  0  0  0  0  0  0  0  0  0  0
  -27.3910  -28.8790   20.9240 C   0  0  0  0  0  3  0  0  0  0  0  0
  -26.3510  -27.0500   19.6940 C   0  0  0  0  0  3  0  0  0  0  0  0
  -25.1340  -27.7550   19.6510 C   0  0  0  0  0  3  0  0  0  0  0  0
  -23.7850  -29.8530   20.2370 C   0  0  0  0  0  2  0  0  0  0  0  0
  -24.7210  -31.1490   22.2070 N   0  0  0  0  0  0  0  0  0  0  0  0
  -23.4910  -32.1820   23.8070 O   0  0  0  0  0  0  0  0  0  0  0  0
  -22.8360  -29.4730   22.5380 C   0  0  0  0  0  0  0  0  0  0  0  0
  -21.5230  -29.2590   22.3540 N   0  0  0  0  0  0  0  0  0  0  0  0
  -23.5020  -28.8590   23.3760 O   0  0  0  0  0  0  0  0  0  0  0  0
  -21.0480  -29.8080   21.6510 H   0  0  0  0  0  0  0  0  0  0  0  0
  -18.1530  -28.0150   22.7330 C   0  0  0  0  0  0  0  0  0  0  0  0
  -20.6970  -28.2960   23.0840 C   0  0  0  0  0  3  0  0  0  0  0  0
  -20.8350  -26.8790   22.4840 C   0  0  0  0  0  2  0  0  0  0  0  0
  -19.7680  -26.5610   21.4330 C   0  0  0  0  0  2  0  0  0  0  0  0
  -18.3660  -26.6810   22.0390 C   0  0  0  0  0  2  0  0  0  0  0  0
  -19.2500  -28.7820   23.2090 C   0  0  0  0  0  0  0  0  0  0  0  0
  -19.0000  -30.0340   23.8130 C   0  0  0  0  0  3  0  0  0  0  0  0
  -17.6850  -30.5160   23.9510 C   0  0  0  0  0  3  0  0  0  0  0  0
  -16.6020  -29.7450   23.4930 C   0  0  0  0  0  3  0  0  0  0  0  0
  -16.8380  -28.4960   22.8890 C   0  0  0  0  0  3  0  0  0  0  0  0
  -25.8440  -32.5980   23.9860 C   0  0  0  0  0  3  0  0  0  0  0  0
  -26.2780  -31.8830   25.3240 C   0  0  1  0  0  0  0  0  0  0  0  0
  -25.1190  -31.6760   26.3250 C   0  0  0  0  0  1  0  0  0  0  0  0
  -26.8990  -30.4980   25.0290 C   0  0  0  0  0  1  0  0  0  0  0  0
  -27.3750  -32.7160   26.0320 C   0  0  0  0  0  1  0  0  0  0  0  0
  -25.5200  -34.0090   24.2330 N   0  0  0  0  0  0  0  0  0  0  0  0
  -25.9130  -35.0260   23.4540 C   0  0  0  0  0  0  0  0  0  0  0  0
  -26.6570  -34.8770   22.4810 O   0  0  0  0  0  0  0  0  0  0  0  0
  -24.8720  -34.2020   24.9830 H   0  0  0  0  0  0  0  0  0  0  0  0
  -24.2500  -36.8160   22.8620 C   0  0  0  0  0  1  0  0  0  0  0  0
  -25.3950  -36.4320   23.8120 C   0  0  0  0  0  3  0  0  0  0  0  0
  -27.4350  -37.3340   24.8380 C   0  0  0  0  0  1  0  0  0  0  0  0
  -26.4440  -37.4740   23.7750 N   0  0  0  0  0  0  0  0  0  0  0  0
  -26.0310  -38.4000   23.8470 H   0  0  0  0  0  0  0  0  0  0  0  0
  1  2  1  0
  2  4  2  0
  3  1  2  0
  3  5  1  0
  5  6  2  0
  6  4  1  0
  6 50  1  0
  7  5  1  0
  7  9  1  0
  8  9  1  0
  8 12  1  0
  9 11  1  0
 10  8  2  0
 13 12  1  0
 14 13  1  0
 15 20  1  0
 16 17  1  0
 16 15  1  0
 18 17  1  0
 18 25  1  0
 18 19  1  0
 20 14  1  0
 20 19  1  0
 21 14  2  0
 22 23  2  0
 23 42  1  0
 24 23  1  0
 24 27  1  0
 25 22  1  0
 25 26  1  0
 26 24  2  0
 27 28  1  0
 28 29  2  0
 30 33  1  0
 30 29  1  0
 31 30  2  0
 32 31  1  0
 32 27  2  0
 33 34  1  0
 34 39  2  0
 34 35  1  0
 35 36  2  0
 36 37  1  0
 37 41  1  0
 38 37  2  0
 39 38  1  0
 40 39  1  0
 42 43  1  0
 43 46  1  0
 43 45  1  0
 44 42  2  0
 47 48  1  0
 47 22  1  0
 49 47  1  0
 50 51  1  0
 52 51  1  0
 53 54  1  0
 53 52  1  0
 54 56  1  0
 55 54  2  0
 57 68  2  0
 58 56  1  0
 58 63  1  0
 59 67  1  0
 59 69  1  0
 60 62  1  0
 61 67  1  0
 62 63  2  0
 62 61  1  0
 64 58  2  0
 65 64  1  0
 65 60  2  0
 66 60  1  0
 66 59  1  0
 67 57  1  0
 69 71  2  0
 70 69  1  0
 72 70  1  0
 73 82  2  0
 73 78  1  0
 74 70  1  0
 74 78  1  0
 75 74  1  0
 76 77  1  0
 76 75  1  0
 77 73  1  0
 78 79  2  0
 79 80  1  0
 81 80  2  0
 82 81  1  0
 83 57  1  0
 83 88  1  0
 83 84  1  0
 84 87  1  1
 84 85  1  0
 86 84  1  0
 88 91  1  0
 89 93  1  0
 89 88  1  0
 90 89  2  0
 93 92  1  0
 95 93  1  0
 95 96  1  0
 95 94  1  0
M  ISO  4  13 100  14 100  54 101  56 101
M  END
>  <TORSDO>  (28) 
F 25

>  <SCORE>  (28) 
-11.682

>  <name>  (28) 
28

>  <ligand_id>  (28) 
28

>  <original_smiles>  (28) 
[H]c1c([H])c([H])c(C([H])([H])N([H])C(=O)C([H])([H])OC(=O)N2C([H])([H])C([H])([H])C([H])([H])C([H])(n3nc(-c4c([H])c([H])c(Oc5c([H])c([H])c(F)c([H])c5F)c([H])c4[H])c(C(=O)N([H])[H])c3N([H])[H])C2([H])[H])c(OC([H])([H])C([H])([H])C([H])([H])C(=O)Oc2c([H])c([H])c3c(c2[H])C([H])([H])N(C(=O)C([H])(N([H])C(=O)C([H])(N([H])C([H])([H])[H])C([H])([H])[H])C(C([H])([H])[H])(C([H])([H])[H])C([H])([H])[H])C([H])(C(=O)N([H])C2([H])c4c([H])c([H])c([H])c([H])c4C([H])([H])C([H])([H])C2([H])[H])C3([H])[H])c1[H]

>  <smiles>  (28) 
[H]c1c([H])c([H])c(C([H])([H])N([H])C(=O)C([H])([H])OC(=O)N2C([H])([H])C([H])([H])C([H])([H])C([H])(n3nc(-c4c([H])c([H])c(Oc5c([H])c([H])c(F)c([H])c5F)c([H])c4[H])c(C(=O)N([H])[H])c3N([H])[H])C2([H])[H])c(OC([H])([H])C([H])([H])C([H])([H])C(=O)Oc2c([H])c([H])c3c(c2[H])C([H])([H])N(C(=O)C([H])(N([H])C(=O)C([H])(N([H])C([H])([H])[H])C([H])([H])[H])C(C([H])([H])[H])(C([H])([H])[H])C([H])([H])[H])C([H])(C(=O)N([H])C2([H])c4c([H])c([H])c([H])c([H])c4C([H])([H])C([H])([H])C2([H])[H])C3([H])[H])c1[H]

$$$$
29:0:0
     RDKit          3D

 84 91  0  0  1  0  0  0  0  0999 V2000
  -28.0360  -24.2690   20.5090 C   0  0  0  0  0  2  0  0  0  0  0  0
  -28.2220  -25.8810   20.2090 O   0  0  0  0  0  0  0  0  0  0  0  0
  -24.6160  -31.8370   23.1800 C   0  0  0  0  0  0  0  0  0  0  0  0
  -27.1870  -26.9520   20.2070 C   0  0  0  0  0  0  0  0  0  0  0  0
  -23.4240  -30.4230   21.5540 C   0  0  0  0  0  3  0  0  0  0  0  0
  -24.8760  -28.8110   20.1480 C   0  0  0  0  0  0  0  0  0  0  0  0
  -25.9900  -30.6480   21.3990 C   0  0  0  0  0  2  0  0  0  0  0  0
  -26.0650  -29.2330   20.7580 C   0  0  0  0  0  0  0  0  0  0  0  0
  -27.2180  -28.3250   20.7560 C   0  0  0  0  0  3  0  0  0  0  0  0
  -25.9650  -26.6750   19.5560 C   0  0  0  0  0  3  0  0  0  0  0  0
  -24.8500  -27.5530   19.5260 C   0  0  0  0  0  3  0  0  0  0  0  0
  -23.6540  -29.7270   20.1840 C   0  0  0  0  0  2  0  0  0  0  0  0
  -24.6980  -30.9970   22.0980 N   0  0  0  0  0  0  0  0  0  0  0  0
  -23.5260  -32.1260   23.7010 O   0  0  0  0  0  0  0  0  0  0  0  0
  -22.7360  -29.4330   22.5290 C   0  0  0  0  0  0  0  0  0  0  0  0
  -21.4040  -29.2710   22.4160 N   0  0  0  0  0  0  0  0  0  0  0  0
  -23.4070  -28.8080   23.3540 O   0  0  0  0  0  0  0  0  0  0  0  0
  -20.9170  -29.8260   21.7270 H   0  0  0  0  0  0  0  0  0  0  0  0
  -18.0230  -28.0690   22.9520 C   0  0  0  0  0  0  0  0  0  0  0  0
  -20.5850  -28.3390   23.1970 C   0  0  0  0  0  3  0  0  0  0  0  0
  -20.6840  -26.9040   22.6300 C   0  0  0  0  0  2  0  0  0  0  0  0
  -19.5750  -26.5740   21.6240 C   0  0  0  0  0  2  0  0  0  0  0  0
  -18.1970  -26.7180   22.2770 C   0  0  0  0  0  2  0  0  0  0  0  0
  -19.1440  -28.8370   23.3690 C   0  0  0  0  0  0  0  0  0  0  0  0
  -18.9240  -30.0980   23.9630 C   0  0  0  0  0  3  0  0  0  0  0  0
  -17.6200  -30.5940   24.1420 C   0  0  0  0  0  3  0  0  0  0  0  0
  -16.5140  -29.8250   23.7380 C   0  0  0  0  0  3  0  0  0  0  0  0
  -16.7170  -28.5640   23.1490 C   0  0  0  0  0  3  0  0  0  0  0  0
  -25.8860  -32.4890   23.8060 C   0  0  0  0  0  3  0  0  0  0  0  0
  -26.4090  -31.7230   25.0840 C   0  0  1  0  0  0  0  0  0  0  0  0
  -25.3200  -31.4800   26.1550 C   0  0  0  0  0  1  0  0  0  0  0  0
  -27.0000  -30.3470   24.6990 C   0  0  0  0  0  1  0  0  0  0  0  0
  -27.5570  -32.5240   25.7410 C   0  0  0  0  0  1  0  0  0  0  0  0
  -25.5550  -33.8830   24.1530 N   0  0  0  0  0  0  0  0  0  0  0  0
  -25.8660  -34.9530   23.4100 C   0  0  0  0  0  0  0  0  0  0  0  0
  -26.5250  -34.8730   22.3700 O   0  0  0  0  0  0  0  0  0  0  0  0
  -24.9660  -34.0180   24.9610 H   0  0  0  0  0  0  0  0  0  0  0  0
  -24.1090  -36.7340   23.1180 C   0  0  0  0  0  1  0  0  0  0  0  0
  -25.3720  -36.3320   23.8960 C   0  0  0  0  0  3  0  0  0  0  0  0
  -27.5150  -37.2360   24.6870 C   0  0  0  0  0  1  0  0  0  0  0  0
  -26.3890  -37.4000   23.7720 N   0  0  0  0  0  0  0  0  0  0  0  0
  -25.9750  -38.3130   23.9390 H   0  0  0  0  0  0  0  0  0  0  0  0
  -28.7190  -22.6990   19.9240 C   0  0  0  0  0  2  0  0  0  0  0  0
  -28.9900  -21.2170   20.5850 O   0  0  0  0  0  0  0  0  0  0  0  0
  -29.0780  -19.6810   19.9990 C   0  0  0  0  0  2  0  0  0  0  0  0
  -29.8810  -18.1670   20.5600 C   0  0  0  0  0  2  0  0  0  0  0  0
  -30.3820  -15.2640   20.2540 C   0  0  0  0  0  0  0  0  0  0  0  0
  -30.3490  -12.8260   19.3660 C   0  0  0  0  0  2  0  0  0  0  0  0
  -29.4210  -12.6110   18.1440 C   0  0  0  0  0  2  0  0  0  0  0  0
  -27.9740  -12.3490   18.5940 C   0  0  0  0  0  2  0  0  0  0  0  0
  -27.5290  -13.3180   19.7180 C   0  0  0  0  0  3  0  0  0  0  0  0
  -28.5830  -13.4670   20.8330 C   0  0  0  0  0  2  0  0  0  0  0  0
  -29.8060  -13.9670   20.1860 N   0  0  0  0  0  0  0  0  0  0  0  0
  -31.6080  -15.2630   20.0800 O   0  0  0  0  0  0  0  0  0  0  0  0
  -29.6180  -16.5330   20.3180 N   0  0  0  0  0  0  0  0  0  0  0  0
  -28.6290  -16.3280   20.3210 H   0  0  0  0  0  0  0  0  0  0  0  0
  -25.1610  -13.8840   20.4750 C   0  0  0  0  0  0  0  0  0  0  0  0
  -24.0990  -13.1090   20.8510 C   0  0  0  0  0  0  0  0  0  0  0  0
  -24.5680  -11.7590   20.8280 C   0  0  0  0  0  0  0  0  0  0  0  0
  -26.2030  -13.0060   20.2350 N   0  0  0  0  0  0  0  0  0  0  0  0
  -25.8590  -11.7220   20.5170 N   0  0  0  0  0  0  0  0  0  0  0  0
  -23.8400  -10.4970   21.0260 C   0  0  0  0  0  0  0  0  0  0  0  0
  -24.2820   -9.5240   21.9500 C   0  0  0  0  0  3  0  0  0  0  0  0
  -23.5520   -8.3310   22.1370 C   0  0  0  0  0  3  0  0  0  0  0  0
  -22.3660   -8.1010   21.4000 C   0  0  0  0  0  0  0  0  0  0  0  0
  -21.9430   -9.0620   20.4650 C   0  0  0  0  0  3  0  0  0  0  0  0
  -22.6730  -10.2470   20.2760 C   0  0  0  0  0  3  0  0  0  0  0  0
  -21.6060   -6.9600   21.4960 O   0  0  0  0  0  0  0  0  0  0  0  0
  -21.5890   -6.2020   22.6400 C   0  0  0  0  0  0  0  0  0  0  0  0
  -21.2240   -6.7480   23.8900 C   0  0  0  0  0  3  0  0  0  0  0  0
  -21.1520   -5.9180   25.0260 C   0  0  0  0  0  3  0  0  0  0  0  0
  -21.4340   -4.5440   24.9150 C   0  0  0  0  0  0  0  0  0  0  0  0
  -21.7920   -3.9970   23.6700 C   0  0  0  0  0  3  0  0  0  0  0  0
  -21.8660   -4.8250   22.5350 C   0  0  0  0  0  0  0  0  0  0  0  0
  -22.1910   -4.2890   21.3340 F   0  0  0  0  0  0  0  0  0  0  0  0
  -21.3580   -3.7440   26.0040 F   0  0  0  0  0  0  0  0  0  0  0  0
  -22.7020  -13.5880   21.1150 C   0  0  0  0  0  0  0  0  0  0  0  0
  -21.9740  -12.9020   21.9880 N   0  0  0  0  0  0  0  0  0  0  0  0
  -22.2660  -14.6070   20.5800 O   0  0  0  0  0  0  0  0  0  0  0  0
  -22.3410  -12.0790   22.4420 H   0  0  0  0  0  0  0  0  0  0  0  0
  -21.0360  -13.2060   22.2080 H   0  0  0  0  0  0  0  0  0  0  0  0
  -25.3200  -15.2530   20.2870 N   0  0  0  0  0  0  0  0  0  0  0  0
  -24.5470  -15.9020   20.3920 H   0  0  0  0  0  0  0  0  0  0  0  0
  -26.1550  -15.6900   19.9190 H   0  0  0  0  0  0  0  0  0  0  0  0
  2  1  1  0
  3 14  2  0
  4  2  1  0
  4  9  1  0
  5 13  1  0
  5 15  1  0
  6 12  1  0
  6  8  1  0
  7 13  1  0
  8  7  1  0
  9  8  2  0
 10  4  2  0
 11 10  1  0
 11  6  2  0
 12  5  1  0
 13  3  1  0
 15 17  2  0
 16 15  1  0
 18 16  1  0
 19 28  2  0
 19 24  1  0
 20 16  1  0
 20 24  1  0
 21 20  1  0
 22 23  1  0
 22 21  1  0
 23 19  1  0
 24 25  2  0
 25 26  1  0
 27 26  2  0
 28 27  1  0
 29  3  1  0
 29 34  1  0
 29 30  1  0
 30 33  1  1
 30 31  1  0
 32 30  1  0
 34 37  1  0
 35 39  1  0
 35 34  1  0
 36 35  2  0
 39 38  1  0
 41 39  1  0
 41 42  1  0
 41 40  1  0
 43  1  1  0
 43 44  1  0
 45 46  1  0
 45 44  1  0
 47 55  1  0
 48 53  1  0
 49 50  1  0
 49 48  1  0
 51 50  1  0
 51 60  1  0
 51 52  1  0
 53 47  1  0
 53 52  1  0
 54 47  2  0
 55 56  1  0
 55 46  1  0
 57 58  2  0
 58 77  1  0
 59 58  1  0
 59 62  1  0
 60 57  1  0
 60 61  1  0
 61 59  2  0
 62 63  1  0
 63 64  2  0
 65 68  1  0
 65 64  1  0
 66 65  2  0
 67 66  1  0
 67 62  2  0
 68 69  1  0
 69 70  1  0
 70 71  2  0
 72 71  1  0
 72 76  1  0
 73 72  2  0
 74 69  2  0
 74 73  1  0
 75 74  1  0
 77 78  1  0
 78 81  1  0
 78 80  1  0
 79 77  2  0
 82 83  1  0
 82 57  1  0
 84 82  1  0
M  ISO  4   1 101   2 101  47 100  55 100
M  END
>  <TORSDO>  (29) 
F 20

>  <SCORE>  (29) 
-15.761

>  <name>  (29) 
29

>  <ligand_id>  (29) 
29

>  <original_smiles>  (29) 
[H]c1c([H])c([H])c2c(c1[H])C([H])([H])C([H])([H])C([H])([H])C2([H])N([H])C(=O)C1([H])N(C(=O)C([H])(N([H])C(=O)C([H])(N([H])C([H])([H])[H])C([H])([H])[H])C(C([H])([H])[H])(C([H])([H])[H])C([H])([H])[H])C([H])([H])c2c([H])c(OC([H])([H])C([H])([H])OC([H])([H])C([H])([H])N([H])C(=O)N3C([H])([H])C([H])([H])C([H])([H])C([H])(n4nc(-c5c([H])c([H])c(Oc6c([H])c([H])c(F)c([H])c6F)c([H])c5[H])c(C(=O)N([H])[H])c4N([H])[H])C3([H])[H])c([H])c([H])c2C1([H])[H]

>  <smiles>  (29) 
[H]c1c([H])c([H])c2c(c1[H])C([H])([H])C([H])([H])C([H])([H])C2([H])N([H])C(=O)C1([H])N(C(=O)C([H])(N([H])C(=O)C([H])(N([H])C([H])([H])[H])C([H])([H])[H])C(C([H])([H])[H])(C([H])([H])[H])C([H])([H])[H])C([H])([H])c2c([H])c(OC([H])([H])C([H])([H])OC([H])([H])C([H])([H])N([H])C(=O)N3C([H])([H])C([H])([H])C([H])([H])C([H])(n4nc(-c5c([H])c([H])c(Oc6c([H])c([H])c(F)c([H])c6F)c([H])c5[H])c(C(=O)N([H])[H])c4N([H])[H])C3([H])[H])c([H])c([H])c2C1([H])[H]

$$$$
30:0:0
     RDKit          3D

108117  0  0  1  0  0  0  0  0999 V2000
  -29.9890  -21.0140   22.4500 C   0  0  0  0  0  0  0  0  0  0  0  0
  -29.8500  -22.2720   21.9740 N   0  0  0  0  0  0  0  0  0  0  0  0
  -30.3350  -20.7950   23.6160 O   0  0  0  0  0  0  0  0  0  0  0  0
  -30.1210  -23.4180   22.8450 C   0  0  0  0  0  2  0  0  0  0  0  0
  -28.8180  -24.0430   23.3950 C   0  0  0  0  0  2  0  0  0  0  0  0
  -29.0170  -25.5170   23.7610 C   0  0  0  0  0  2  0  0  0  0  0  0
  -29.3880  -26.1340   22.5450 O   0  0  0  0  0  0  0  0  0  0  0  0
  -29.6780  -27.5160   22.5830 C   0  0  0  0  0  2  0  0  0  0  0  0
  -30.8470  -27.7370   21.6000 C   0  0  0  0  0  2  0  0  0  0  0  0
  -30.6450  -27.1070   20.3290 O   0  0  0  0  0  0  0  0  0  0  0  0
  -29.5340  -27.5830   19.5730 C   0  0  0  0  0  2  0  0  0  0  0  0
  -28.4770  -26.4730   19.3330 C   0  0  0  0  0  2  0  0  0  0  0  0
  -27.5980  -26.6970   18.2210 O   0  0  0  0  0  0  0  0  0  0  0  0
  -24.6250  -31.3650   22.6360 C   0  0  0  0  0  0  0  0  0  0  0  0
  -26.4890  -27.4560   18.5140 C   0  0  0  0  0  0  0  0  0  0  0  0
  -23.0760  -30.2890   21.0280 C   0  0  0  0  0  3  0  0  0  0  0  0
  -24.1820  -28.9520   19.1560 C   0  0  0  0  0  0  0  0  0  0  0  0
  -25.5360  -30.6230   20.4450 C   0  0  0  0  0  2  0  0  0  0  0  0
  -25.4380  -29.3740   19.6010 C   0  0  0  0  0  0  0  0  0  0  0  0
  -26.5880  -28.6470   19.2620 C   0  0  0  0  0  3  0  0  0  0  0  0
  -25.2220  -27.0390   18.0600 C   0  0  0  0  0  3  0  0  0  0  0  0
  -24.0630  -27.7800   18.3820 C   0  0  0  0  0  3  0  0  0  0  0  0
  -23.0070  -29.8190   19.5470 C   0  0  0  0  0  2  0  0  0  0  0  0
  -24.4410  -30.7620   21.4280 N   0  0  0  0  0  0  0  0  0  0  0  0
  -23.6700  -31.5820   23.3920 O   0  0  0  0  0  0  0  0  0  0  0  0
  -22.5380  -29.1500   21.9200 C   0  0  0  0  0  0  0  0  0  0  0  0
  -21.2060  -28.9980   21.9470 N   0  0  0  0  0  0  0  0  0  0  0  0
  -23.3080  -28.4080   22.5360 O   0  0  0  0  0  0  0  0  0  0  0  0
  -20.6460  -29.6550   21.4210 H   0  0  0  0  0  0  0  0  0  0  0  0
  -17.9000  -27.7410   22.6570 C   0  0  0  0  0  0  0  0  0  0  0  0
  -20.4710  -27.9680   22.6770 C   0  0  0  0  0  3  0  0  0  0  0  0
  -20.4940  -26.6210   21.9180 C   0  0  0  0  0  2  0  0  0  0  0  0
  -19.2870  -26.4250   20.9970 C   0  0  0  0  0  2  0  0  0  0  0  0
  -17.9870  -26.4860   21.8030 C   0  0  0  0  0  2  0  0  0  0  0  0
  -19.0660  -28.4460   23.0530 C   0  0  0  0  0  0  0  0  0  0  0  0
  -18.9290  -29.6260   23.8160 C   0  0  0  0  0  3  0  0  0  0  0  0
  -17.6560  -30.1020   24.1820 C   0  0  0  0  0  3  0  0  0  0  0  0
  -16.5050  -29.3910   23.7990 C   0  0  0  0  0  3  0  0  0  0  0  0
  -16.6280  -28.2120   23.0430 C   0  0  0  0  0  3  0  0  0  0  0  0
  -26.0350  -31.8330   23.1160 C   0  0  0  0  0  3  0  0  0  0  0  0
  -25.8640  -33.1300   23.7830 N   0  0  0  0  0  0  0  0  0  0  0  0
  -26.1560  -34.3140   23.2280 C   0  0  0  0  0  0  0  0  0  0  0  0
  -26.6770  -34.4210   22.1140 O   0  0  0  0  0  0  0  0  0  0  0  0
  -25.3840  -33.1200   24.6720 H   0  0  0  0  0  0  0  0  0  0  0  0
  -24.5120  -36.1940   23.5200 C   0  0  0  0  0  1  0  0  0  0  0  0
  -25.8220  -35.5810   24.0380 C   0  0  0  0  0  3  0  0  0  0  0  0
  -28.0970  -36.1970   24.7280 C   0  0  0  0  0  1  0  0  0  0  0  0
  -26.8930  -36.5980   24.0040 N   0  0  0  0  0  0  0  0  0  0  0  0
  -26.5660  -37.4740   24.4020 H   0  0  0  0  0  0  0  0  0  0  0  0
  -26.7400  -30.7990   24.0790 C   0  0  1  0  0  0  0  0  0  0  0  0
  -25.8470  -30.3310   25.2540 C   0  0  0  0  0  1  0  0  0  0  0  0
  -27.1880  -29.5430   23.2890 C   0  0  0  0  0  1  0  0  0  0  0  0
  -28.0220  -31.4250   24.6740 C   0  0  0  0  0  1  0  0  0  0  0  0
  -29.3730  -22.6310   20.6280 C   0  0  0  0  0  2  0  0  0  0  0  0
  -30.4500  -22.4450   19.5370 C   0  0  0  0  0  2  0  0  0  0  0  0
  -28.5700  -23.3940   16.3350 C   0  0  0  0  0  3  0  0  0  0  0  0
  -29.3220  -24.4970   15.8970 C   0  0  0  0  0  3  0  0  0  0  0  0
  -28.9610  -22.7260   17.5120 C   0  0  0  0  0  3  0  0  0  0  0  0
  -30.4460  -24.9020   16.6460 C   0  0  0  0  0  2  0  0  0  0  0  0
  -30.0920  -23.1710   18.2390 C   0  0  0  0  0  0  0  0  0  0  0  0
  -30.8040  -24.2560   17.7880 N   0  0  0  0  0  0  0  0  0  0  0  0
  -33.2900  -24.1000   18.1140 C   0  0  0  0  0  1  0  0  0  0  0  0
  -31.9760  -24.7880   18.5250 C   0  0  0  0  0  2  0  0  0  0  0  0
  -29.6980  -19.8250   21.5250 C   0  0  0  0  0  2  0  0  0  0  0  0
  -33.0950  -17.8470   21.2670 C   0  0  0  0  0  2  0  0  0  0  0  0
  -32.1170  -19.0260   21.1110 C   0  0  0  0  0  2  0  0  0  0  0  0
  -32.5460  -16.5700   20.6080 C   0  0  0  0  0  2  0  0  0  0  0  0
  -30.1770  -17.4240   20.9530 C   0  0  0  0  0  2  0  0  0  0  0  0
  -30.7130  -18.6730   21.6580 C   0  0  0  0  0  3  0  0  0  0  0  0
  -31.1420  -16.2510   21.1620 C   0  0  0  0  0  3  0  0  0  0  0  0
  -30.5570  -14.5270   19.4170 C   0  0  0  0  0  0  0  0  0  0  0  0
  -30.0280  -12.4490   18.2170 C   0  0  0  0  0  2  0  0  0  0  0  0
  -28.8950  -12.6060   17.1930 C   0  0  0  0  0  2  0  0  0  0  0  0
  -27.5250  -12.4050   17.8640 C   0  0  0  0  0  2  0  0  0  0  0  0
  -27.3590  -13.2850   19.1290 C   0  0  0  0  0  3  0  0  0  0  0  0
  -28.5750  -13.1340   20.0680 C   0  0  0  0  0  2  0  0  0  0  0  0
  -29.8140  -13.4050   19.3080 N   0  0  0  0  0  0  0  0  0  0  0  0
  -31.2810  -14.9700   18.5190 O   0  0  0  0  0  0  0  0  0  0  0  0
  -30.5610  -15.0160   20.6610 N   0  0  0  0  0  0  0  0  0  0  0  0
  -30.0210  -14.4830   21.3280 H   0  0  0  0  0  0  0  0  0  0  0  0
  -25.1200  -13.8530   20.2780 C   0  0  0  0  0  0  0  0  0  0  0  0
  -24.1280  -13.0590   20.7920 C   0  0  0  0  0  0  0  0  0  0  0  0
  -24.5680  -11.7120   20.6070 C   0  0  0  0  0  0  0  0  0  0  0  0
  -26.1030  -12.9880   19.8210 N   0  0  0  0  0  0  0  0  0  0  0  0
  -25.7810  -11.6930   20.0700 N   0  0  0  0  0  0  0  0  0  0  0  0
  -23.8790  -10.4400   20.8570 C   0  0  0  0  0  0  0  0  0  0  0  0
  -24.3910   -9.4910   21.7700 C   0  0  0  0  0  3  0  0  0  0  0  0
  -23.7030   -8.2820   22.0090 C   0  0  0  0  0  3  0  0  0  0  0  0
  -22.4890   -8.0120   21.3340 C   0  0  0  0  0  0  0  0  0  0  0  0
  -21.9950   -8.9490   20.4100 C   0  0  0  0  0  3  0  0  0  0  0  0
  -22.6830  -10.1500   20.1690 C   0  0  0  0  0  3  0  0  0  0  0  0
  -21.7660   -6.8520   21.4810 O   0  0  0  0  0  0  0  0  0  0  0  0
  -21.7260   -6.1760   22.6740 C   0  0  0  0  0  0  0  0  0  0  0  0
  -21.2730   -6.7880   23.8620 C   0  0  0  0  0  3  0  0  0  0  0  0
  -21.1800   -6.0370   25.0500 C   0  0  0  0  0  3  0  0  0  0  0  0
  -21.5310   -4.6720   25.0500 C   0  0  0  0  0  0  0  0  0  0  0  0
  -21.9770   -4.0600   23.8670 C   0  0  0  0  0  3  0  0  0  0  0  0
  -22.0710   -4.8090   22.6810 C   0  0  0  0  0  0  0  0  0  0  0  0
  -22.4810   -4.2080   21.5380 F   0  0  0  0  0  0  0  0  0  0  0  0
  -21.4360   -3.9480   26.1900 F   0  0  0  0  0  0  0  0  0  0  0  0
  -22.8060  -13.5170   21.3350 C   0  0  0  0  0  0  0  0  0  0  0  0
  -22.2650  -12.8030   22.3170 N   0  0  0  0  0  0  0  0  0  0  0  0
  -22.2640  -14.5420   20.9240 O   0  0  0  0  0  0  0  0  0  0  0  0
  -22.7190  -11.9730   22.6690 H   0  0  0  0  0  0  0  0  0  0  0  0
  -21.3840  -13.0890   22.7210 H   0  0  0  0  0  0  0  0  0  0  0  0
  -25.2600  -15.2300   20.1480 N   0  0  0  0  0  0  0  0  0  0  0  0
  -24.5310  -15.8770   20.4300 H   0  0  0  0  0  0  0  0  0  0  0  0
  -26.0540  -15.6890   19.7180 H   0  0  0  0  0  0  0  0  0  0  0  0
  1  3  2  0
  2  1  1  0
  2  4  1  0
  4  5  1  0
  5  6  1  0
  7  8  1  0
  7  6  1  0
  9  8  1  0
 10  9  1  0
 11 10  1  0
 12 11  1  0
 13 15  1  0
 13 12  1  0
 14 25  2  0
 15 20  1  0
 16 24  1  0
 16 26  1  0
 17 23  1  0
 17 19  1  0
 18 24  1  0
 19 18  1  0
 20 19  2  0
 21 22  1  0
 21 15  2  0
 22 17  2  0
 23 16  1  0
 24 14  1  0
 26 27  1  0
 26 28  2  0
 29 27  1  0
 30 39  2  0
 30 35  1  0
 31 27  1  0
 31 35  1  0
 32 31  1  0
 33 34  1  0
 33 32  1  0
 34 30  1  0
 35 36  2  0
 36 37  1  0
 38 37  2  0
 39 38  1  0
 40 14  1  0
 40 41  1  0
 40 50  1  0
 41 44  1  0
 42 41  1  0
 42 46  1  0
 43 42  2  0
 46 45  1  0
 48 46  1  0
 48 49  1  0
 48 47  1  0
 50 53  1  1
 50 51  1  0
 52 50  1  0
 54  2  1  0
 55 54  1  0
 56 58  1  0
 57 56  2  0
 57 59  1  0
 58 60  2  0
 59 61  1  0
 60 55  1  0
 61 60  1  0
 61 63  1  0
 62 63  1  0
 64  1  1  0
 66 65  1  0
 66 69  1  0
 67 70  1  0
 67 65  1  0
 68 70  1  0
 68 69  1  0
 69 64  1  0
 70 79  1  0
 71 79  1  0
 72 77  1  0
 73 74  1  0
 73 72  1  0
 75 74  1  0
 75 84  1  0
 75 76  1  0
 77 71  1  0
 77 76  1  0
 78 71  2  0
 79 80  1  0
 81 82  2  0
 82101  1  0
 83 82  1  0
 83 86  1  0
 84 85  1  0
 84 81  1  0
 85 83  2  0
 86 87  1  0
 87 88  2  0
 89 92  1  0
 89 88  1  0
 90 89  2  0
 91 90  1  0
 91 86  2  0
 92 93  1  0
 93 98  2  0
 93 94  1  0
 94 95  2  0
 95 96  1  0
 96100  1  0
 97 96  2  0
 98 97  1  0
 99 98  1  0
101102  1  0
102104  1  0
102105  1  0
103101  2  0
106 81  1  0
106107  1  0
108106  1  0
M  ISO  4  12 101  13 101  71 100  79 100
M  END
>  <TORSDO>  (30) 
F 31

>  <SCORE>  (30) 
-6.624

>  <name>  (30) 
30

>  <ligand_id>  (30) 
30

>  <original_smiles>  (30) 
[H]c1c([H])c([H])c2c(c1[H])C([H])([H])C([H])([H])C([H])([H])C2([H])N([H])C(=O)C1([H])N(C(=O)C([H])(N([H])C(=O)C([H])(N([H])C([H])([H])[H])C([H])([H])[H])C(C([H])([H])[H])(C([H])([H])[H])C([H])([H])[H])C([H])([H])c2c([H])c(OC([H])([H])C([H])([H])OC([H])([H])C([H])([H])OC([H])([H])C([H])([H])C([H])([H])N(C(=O)C([H])([H])C3([H])C([H])([H])C([H])([H])C([H])([H])C([H])(N([H])C(=O)N4C([H])([H])C([H])([H])C([H])([H])C([H])(n5nc(-c6c([H])c([H])c(Oc7c([H])c([H])c(F)c([H])c7F)c([H])c6[H])c(C(=O)N([H])[H])c5N([H])[H])C4([H])[H])C3([H])[H])C([H])([H])C([H])([H])c3c([H])c([H])c([H])c([H])[n+]3C([H])([H])C([H])([H])[H])c([H])c([H])c2C1([H])[H]

>  <smiles>  (30) 
[H]c1c([H])c([H])c2c(c1[H])C([H])([H])C([H])([H])C([H])([H])C2([H])N([H])C(=O)C1([H])N(C(=O)C([H])(N([H])C(=O)C([H])(N([H])C([H])([H])[H])C([H])([H])[H])C(C([H])([H])[H])(C([H])([H])[H])C([H])([H])[H])C([H])([H])c2c([H])c(OC([H])([H])C([H])([H])OC([H])([H])C([H])([H])OC([H])([H])C([H])([H])C([H])([H])N(C(=O)C([H])([H])C3([H])C([H])([H])C([H])([H])C([H])([H])C([H])(N([H])C(=O)N4C([H])([H])C([H])([H])C([H])([H])C([H])(n5nc(-c6c([H])c([H])c(Oc7c([H])c([H])c(F)c([H])c7F)c([H])c6[H])c(C(=O)N([H])[H])c5N([H])[H])C4([H])[H])C3([H])[H])C([H])([H])C([H])([H])c3c([H])c([H])c([H])c([H])[n+]3C([H])([H])C([H])([H])[H])c([H])c([H])c2C1([H])[H]

$$$$
31:0:0
     RDKit          3D

 87 94  0  0  1  0  0  0  0  0999 V2000
  -29.1130  -22.7980   20.1480 O   0  0  0  0  0  0  0  0  0  0  0  0
  -29.2650  -24.1800   20.5710 C   0  0  0  0  0  2  0  0  0  0  0  0
  -28.1950  -25.1410   19.9510 C   0  0  0  0  0  2  0  0  0  0  0  0
  -28.3440  -26.5690   20.2300 O   0  0  0  0  0  0  0  0  0  0  0  0
  -24.6030  -31.8820   23.2540 C   0  0  0  0  0  0  0  0  0  0  0  0
  -27.2030  -27.3700   20.1730 C   0  0  0  0  0  0  0  0  0  0  0  0
  -23.3880  -30.4910   21.6140 C   0  0  0  0  0  3  0  0  0  0  0  0
  -24.8290  -28.9470   20.1790 C   0  0  0  0  0  0  0  0  0  0  0  0
  -25.9230  -30.8160   21.4190 C   0  0  0  0  0  2  0  0  0  0  0  0
  -25.9960  -29.4430   20.7740 C   0  0  0  0  0  0  0  0  0  0  0  0
  -27.1840  -28.6630   20.7670 C   0  0  0  0  0  3  0  0  0  0  0  0
  -26.0140  -26.9200   19.5460 C   0  0  0  0  0  3  0  0  0  0  0  0
  -24.8370  -27.6890   19.5590 C   0  0  0  0  0  3  0  0  0  0  0  0
  -23.5920  -29.8180   20.2320 C   0  0  0  0  0  2  0  0  0  0  0  0
  -24.6560  -31.0790   22.1530 N   0  0  0  0  0  0  0  0  0  0  0  0
  -23.5240  -32.1610   23.7950 O   0  0  0  0  0  0  0  0  0  0  0  0
  -22.7290  -29.4710   22.5730 C   0  0  0  0  0  0  0  0  0  0  0  0
  -21.4040  -29.2960   22.4460 N   0  0  0  0  0  0  0  0  0  0  0  0
  -23.4090  -28.8420   23.3890 O   0  0  0  0  0  0  0  0  0  0  0  0
  -20.9160  -29.8550   21.7610 H   0  0  0  0  0  0  0  0  0  0  0  0
  -18.0240  -28.1080   22.9390 C   0  0  0  0  0  0  0  0  0  0  0  0
  -20.5820  -28.3620   23.2170 C   0  0  0  0  0  3  0  0  0  0  0  0
  -20.6820  -26.9290   22.6440 C   0  0  0  0  0  2  0  0  0  0  0  0
  -19.5830  -26.6070   21.6270 C   0  0  0  0  0  2  0  0  0  0  0  0
  -18.2000  -26.7570   22.2670 C   0  0  0  0  0  2  0  0  0  0  0  0
  -19.1430  -28.8680   23.3700 C   0  0  0  0  0  0  0  0  0  0  0  0
  -18.9250  -30.1340   23.9590 C   0  0  0  0  0  3  0  0  0  0  0  0
  -17.6220  -30.6390   24.1180 C   0  0  0  0  0  3  0  0  0  0  0  0
  -16.5170  -29.8760   23.7040 C   0  0  0  0  0  3  0  0  0  0  0  0
  -16.7190  -28.6120   23.1200 C   0  0  0  0  0  3  0  0  0  0  0  0
  -25.8930  -32.5060   23.8720 C   0  0  0  0  0  3  0  0  0  0  0  0
  -26.4080  -31.7310   25.1470 C   0  0  1  0  0  0  0  0  0  0  0  0
  -25.3180  -31.5010   26.2190 C   0  0  0  0  0  1  0  0  0  0  0  0
  -26.9820  -30.3500   24.7520 C   0  0  0  0  0  1  0  0  0  0  0  0
  -27.5640  -32.5190   25.8080 C   0  0  0  0  0  1  0  0  0  0  0  0
  -25.5920  -33.9060   24.2030 N   0  0  0  0  0  0  0  0  0  0  0  0
  -25.9250  -34.9570   23.4410 C   0  0  0  0  0  0  0  0  0  0  0  0
  -26.5890  -34.8480   22.4060 O   0  0  0  0  0  0  0  0  0  0  0  0
  -25.0030  -34.0650   25.0080 H   0  0  0  0  0  0  0  0  0  0  0  0
  -24.2020  -36.7560   23.0930 C   0  0  0  0  0  1  0  0  0  0  0  0
  -25.4460  -36.3470   23.8980 C   0  0  0  0  0  3  0  0  0  0  0  0
  -27.5900  -37.2240   24.7140 C   0  0  0  0  0  1  0  0  0  0  0  0
  -26.4820  -37.3950   23.7780 N   0  0  0  0  0  0  0  0  0  0  0  0
  -26.0800  -38.3170   23.9270 H   0  0  0  0  0  0  0  0  0  0  0  0
  -29.8660  -21.8260   20.9130 C   0  0  0  0  0  2  0  0  0  0  0  0
  -29.9940  -20.3890   20.2800 C   0  0  0  0  0  2  0  0  0  0  0  0
  -29.6060  -19.3250   21.1790 O   0  0  0  0  0  0  0  0  0  0  0  0
  -30.3560  -18.0820   21.1900 C   0  0  0  0  0  2  0  0  0  0  0  0
  -29.9920  -17.0260   20.1000 C   0  0  0  0  0  2  0  0  0  0  0  0
  -30.6580  -14.5630   20.1340 C   0  0  0  0  0  0  0  0  0  0  0  0
  -30.3320  -12.3860   19.0110 C   0  0  0  0  0  2  0  0  0  0  0  0
  -29.3420  -12.5990   17.8440 C   0  0  0  0  0  2  0  0  0  0  0  0
  -27.8850  -12.4670   18.3310 C   0  0  0  0  0  2  0  0  0  0  0  0
  -27.6040  -13.2910   19.6150 C   0  0  0  0  0  3  0  0  0  0  0  0
  -28.7030  -13.0590   20.6790 C   0  0  0  0  0  2  0  0  0  0  0  0
  -30.0040  -13.3660   20.0610 N   0  0  0  0  0  0  0  0  0  0  0  0
  -31.7760  -14.7380   19.6440 O   0  0  0  0  0  0  0  0  0  0  0  0
  -29.9110  -15.6090   20.5580 N   0  0  0  0  0  0  0  0  0  0  0  0
  -29.0360  -15.3490   20.9880 H   0  0  0  0  0  0  0  0  0  0  0  0
  -25.2410  -13.9170   20.4180 C   0  0  0  0  0  0  0  0  0  0  0  0
  -24.1800  -13.1550   20.8240 C   0  0  0  0  0  0  0  0  0  0  0  0
  -24.6260  -11.7980   20.7700 C   0  0  0  0  0  0  0  0  0  0  0  0
  -26.2680  -13.0270   20.1440 N   0  0  0  0  0  0  0  0  0  0  0  0
  -25.9040  -11.7470   20.4140 N   0  0  0  0  0  0  0  0  0  0  0  0
  -23.8950  -10.5420   20.9820 C   0  0  0  0  0  0  0  0  0  0  0  0
  -24.3570   -9.5630   21.8880 C   0  0  0  0  0  3  0  0  0  0  0  0
  -23.6260   -8.3710   22.0880 C   0  0  0  0  0  3  0  0  0  0  0  0
  -22.4190   -8.1520   21.3830 C   0  0  0  0  0  0  0  0  0  0  0  0
  -21.9750   -9.1210   20.4660 C   0  0  0  0  0  3  0  0  0  0  0  0
  -22.7060  -10.3040   20.2640 C   0  0  0  0  0  3  0  0  0  0  0  0
  -21.6570   -7.0150   21.4950 O   0  0  0  0  0  0  0  0  0  0  0  0
  -21.6560   -6.2580   22.6390 C   0  0  0  0  0  0  0  0  0  0  0  0
  -21.3040   -6.8040   23.8930 C   0  0  0  0  0  3  0  0  0  0  0  0
  -21.2500   -5.9740   25.0310 C   0  0  0  0  0  3  0  0  0  0  0  0
  -21.5350   -4.6010   24.9170 C   0  0  0  0  0  0  0  0  0  0  0  0
  -21.8800   -4.0550   23.6680 C   0  0  0  0  0  3  0  0  0  0  0  0
  -21.9370   -4.8820   22.5310 C   0  0  0  0  0  0  0  0  0  0  0  0
  -22.2490   -4.3460   21.3260 F   0  0  0  0  0  0  0  0  0  0  0  0
  -21.4760   -3.8020   26.0080 F   0  0  0  0  0  0  0  0  0  0  0  0
  -22.7990  -13.6450   21.1510 C   0  0  0  0  0  0  0  0  0  0  0  0
  -22.0980  -12.9520   22.0420 N   0  0  0  0  0  0  0  0  0  0  0  0
  -22.3520  -14.6760   20.6520 O   0  0  0  0  0  0  0  0  0  0  0  0
  -22.4730  -12.1180   22.4680 H   0  0  0  0  0  0  0  0  0  0  0  0
  -21.1730  -13.2630   22.3040 H   0  0  0  0  0  0  0  0  0  0  0  0
  -25.4140  -15.2870   20.2390 N   0  0  0  0  0  0  0  0  0  0  0  0
  -24.6560  -15.9470   20.3780 H   0  0  0  0  0  0  0  0  0  0  0  0
  -26.2510  -15.7180   19.8670 H   0  0  0  0  0  0  0  0  0  0  0  0
  1  2  1  0
  1 45  1  0
  3  4  1  0
  3  2  1  0
  5 16  2  0
  6  4  1  0
  6 11  1  0
  7 15  1  0
  7 17  1  0
  8 14  1  0
  8 10  1  0
  9 15  1  0
 10  9  1  0
 11 10  2  0
 12 13  1  0
 12  6  2  0
 13  8  2  0
 14  7  1  0
 15  5  1  0
 17 19  2  0
 18 17  1  0
 20 18  1  0
 21 30  2  0
 21 26  1  0
 22 18  1  0
 22 26  1  0
 23 22  1  0
 24 25  1  0
 24 23  1  0
 25 21  1  0
 26 27  2  0
 27 28  1  0
 29 28  2  0
 30 29  1  0
 31  5  1  0
 31 36  1  0
 31 32  1  0
 32 35  1  1
 32 33  1  0
 34 32  1  0
 36 39  1  0
 37 41  1  0
 37 36  1  0
 38 37  2  0
 41 40  1  0
 43 41  1  0
 43 44  1  0
 43 42  1  0
 46 45  1  0
 46 47  1  0
 47 48  1  0
 49 58  1  0
 49 48  1  0
 50 58  1  0
 51 56  1  0
 52 53  1  0
 52 51  1  0
 54 53  1  0
 54 63  1  0
 54 55  1  0
 56 50  1  0
 56 55  1  0
 57 50  2  0
 58 59  1  0
 60 61  2  0
 61 80  1  0
 62 61  1  0
 62 65  1  0
 63 64  1  0
 63 60  1  0
 64 62  2  0
 65 66  1  0
 66 67  2  0
 68 71  1  0
 68 67  1  0
 69 68  2  0
 70 69  1  0
 70 65  2  0
 71 72  1  0
 72 73  1  0
 73 74  2  0
 75 74  1  0
 75 79  1  0
 76 75  2  0
 77 72  2  0
 77 76  1  0
 78 77  1  0
 80 81  1  0
 81 84  1  0
 81 83  1  0
 82 80  2  0
 85 86  1  0
 85 60  1  0
 87 85  1  0
M  ISO  4   3 101   4 101  50 100  58 100
M  END
>  <TORSDO>  (31) 
F 23

>  <SCORE>  (31) 
-12.462

>  <name>  (31) 
31

>  <ligand_id>  (31) 
31

>  <original_smiles>  (31) 
[H]c1c([H])c([H])c2c(c1[H])C([H])([H])C([H])([H])C([H])([H])C2([H])N([H])C(=O)C1([H])N(C(=O)C([H])(N([H])C(=O)C([H])(N([H])C([H])([H])[H])C([H])([H])[H])C(C([H])([H])[H])(C([H])([H])[H])C([H])([H])[H])C([H])([H])c2c([H])c(OC([H])([H])C([H])([H])OC([H])([H])C([H])([H])OC([H])([H])C([H])([H])N([H])C(=O)N3C([H])([H])C([H])([H])C([H])([H])C([H])(n4nc(-c5c([H])c([H])c(Oc6c([H])c([H])c(F)c([H])c6F)c([H])c5[H])c(C(=O)N([H])[H])c4N([H])[H])C3([H])[H])c([H])c([H])c2C1([H])[H]

>  <smiles>  (31) 
[H]c1c([H])c([H])c2c(c1[H])C([H])([H])C([H])([H])C([H])([H])C2([H])N([H])C(=O)C1([H])N(C(=O)C([H])(N([H])C(=O)C([H])(N([H])C([H])([H])[H])C([H])([H])[H])C(C([H])([H])[H])(C([H])([H])[H])C([H])([H])[H])C([H])([H])c2c([H])c(OC([H])([H])C([H])([H])OC([H])([H])C([H])([H])OC([H])([H])C([H])([H])N([H])C(=O)N3C([H])([H])C([H])([H])C([H])([H])C([H])(n4nc(-c5c([H])c([H])c(Oc6c([H])c([H])c(F)c([H])c6F)c([H])c5[H])c(C(=O)N([H])[H])c4N([H])[H])C3([H])[H])c([H])c([H])c2C1([H])[H]

$$$$
32:0:0
     RDKit          3D

 83 90  0  0  1  0  0  0  0  0999 V2000
  -28.0300  -24.3070   20.5190 C   0  0  0  0  0  2  0  0  0  0  0  0
  -28.2280  -25.9100   20.2180 O   0  0  0  0  0  0  0  0  0  0  0  0
  -24.6140  -31.8440   23.1820 C   0  0  0  0  0  0  0  0  0  0  0  0
  -27.1910  -26.9740   20.2120 C   0  0  0  0  0  0  0  0  0  0  0  0
  -23.4250  -30.4300   21.5550 C   0  0  0  0  0  3  0  0  0  0  0  0
  -24.8790  -28.8230   20.1490 C   0  0  0  0  0  0  0  0  0  0  0  0
  -25.9880  -30.6620   21.4010 C   0  0  0  0  0  2  0  0  0  0  0  0
  -26.0650  -29.2470   20.7600 C   0  0  0  0  0  0  0  0  0  0  0  0
  -27.2200  -28.3450   20.7610 C   0  0  0  0  0  3  0  0  0  0  0  0
  -25.9710  -26.6900   19.5590 C   0  0  0  0  0  3  0  0  0  0  0  0
  -24.8550  -27.5640   19.5270 C   0  0  0  0  0  3  0  0  0  0  0  0
  -23.6550  -29.7360   20.1850 C   0  0  0  0  0  2  0  0  0  0  0  0
  -24.6970  -31.0060   22.1000 N   0  0  0  0  0  0  0  0  0  0  0  0
  -23.5230  -32.1320   23.7030 O   0  0  0  0  0  0  0  0  0  0  0  0
  -22.7370  -29.4380   22.5290 C   0  0  0  0  0  0  0  0  0  0  0  0
  -21.4060  -29.2760   22.4160 N   0  0  0  0  0  0  0  0  0  0  0  0
  -23.4090  -28.8110   23.3530 O   0  0  0  0  0  0  0  0  0  0  0  0
  -20.9170  -29.8320   21.7280 H   0  0  0  0  0  0  0  0  0  0  0  0
  -18.0240  -28.0800   22.9560 C   0  0  0  0  0  0  0  0  0  0  0  0
  -20.5860  -28.3430   23.1970 C   0  0  0  0  0  3  0  0  0  0  0  0
  -20.6800  -26.9090   22.6240 C   0  0  0  0  0  2  0  0  0  0  0  0
  -19.5690  -26.5860   21.6210 C   0  0  0  0  0  2  0  0  0  0  0  0
  -18.1930  -26.7320   22.2770 C   0  0  0  0  0  2  0  0  0  0  0  0
  -19.1470  -28.8440   23.3730 C   0  0  0  0  0  0  0  0  0  0  0  0
  -18.9320  -30.1050   23.9720 C   0  0  0  0  0  3  0  0  0  0  0  0
  -17.6290  -30.6030   24.1540 C   0  0  0  0  0  3  0  0  0  0  0  0
  -16.5210  -29.8380   23.7510 C   0  0  0  0  0  3  0  0  0  0  0  0
  -16.7190  -28.5770   23.1590 C   0  0  0  0  0  3  0  0  0  0  0  0
  -25.8830  -32.4970   23.8100 C   0  0  0  0  0  3  0  0  0  0  0  0
  -25.5520  -33.8910   24.1530 N   0  0  0  0  0  0  0  0  0  0  0  0
  -25.8650  -34.9600   23.4080 C   0  0  0  0  0  0  0  0  0  0  0  0
  -26.5240  -34.8770   22.3690 O   0  0  0  0  0  0  0  0  0  0  0  0
  -24.9630  -34.0270   24.9610 H   0  0  0  0  0  0  0  0  0  0  0  0
  -24.1090  -36.7410   23.1090 C   0  0  0  0  0  1  0  0  0  0  0  0
  -25.3700  -36.3390   23.8910 C   0  0  0  0  0  3  0  0  0  0  0  0
  -27.5100  -37.2440   24.6880 C   0  0  0  0  0  1  0  0  0  0  0  0
  -26.3870  -37.4070   23.7690 N   0  0  0  0  0  0  0  0  0  0  0  0
  -25.9730  -38.3200   23.9340 H   0  0  0  0  0  0  0  0  0  0  0  0
  -26.4040  -31.7320   25.0890 C   0  0  1  0  0  0  0  0  0  0  0  0
  -25.3130  -31.4890   26.1590 C   0  0  0  0  0  1  0  0  0  0  0  0
  -26.9960  -30.3570   24.7070 C   0  0  0  0  0  1  0  0  0  0  0  0
  -27.5500  -32.5350   25.7480 C   0  0  0  0  0  1  0  0  0  0  0  0
  -28.7230  -22.7500   19.9380 C   0  0  0  0  0  2  0  0  0  0  0  0
  -28.9620  -21.2710   20.6010 O   0  0  0  0  0  0  0  0  0  0  0  0
  -29.0780  -19.7570   19.9850 C   0  0  0  0  0  2  0  0  0  0  0  0
  -29.8350  -18.2130   20.5160 C   0  0  0  0  0  2  0  0  0  0  0  0
  -29.5080  -16.6200   20.3480 O   0  0  0  0  0  0  0  0  0  0  0  0
  -30.4360  -15.2510   20.2340 C   0  0  0  0  0  0  0  0  0  0  0  0
  -30.3670  -12.7840   19.3840 C   0  0  0  0  0  2  0  0  0  0  0  0
  -29.4550  -12.6150   18.1420 C   0  0  0  0  0  2  0  0  0  0  0  0
  -27.9960  -12.3650   18.5680 C   0  0  0  0  0  2  0  0  0  0  0  0
  -27.5420  -13.3360   19.6880 C   0  0  0  0  0  3  0  0  0  0  0  0
  -28.5700  -13.4800   20.8230 C   0  0  0  0  0  2  0  0  0  0  0  0
  -29.8300  -13.9130   20.2140 N   0  0  0  0  0  0  0  0  0  0  0  0
  -31.6520  -15.2880   20.0120 O   0  0  0  0  0  0  0  0  0  0  0  0
  -25.1710  -13.8970   20.4330 C   0  0  0  0  0  0  0  0  0  0  0  0
  -24.1090  -13.1220   20.8060 C   0  0  0  0  0  0  0  0  0  0  0  0
  -24.5800  -11.7720   20.7920 C   0  0  0  0  0  0  0  0  0  0  0  0
  -26.2140  -13.0210   20.1960 N   0  0  0  0  0  0  0  0  0  0  0  0
  -25.8720  -11.7380   20.4850 N   0  0  0  0  0  0  0  0  0  0  0  0
  -23.8540  -10.5100   20.9930 C   0  0  0  0  0  0  0  0  0  0  0  0
  -24.2880   -9.5480   21.9310 C   0  0  0  0  0  3  0  0  0  0  0  0
  -23.5590   -8.3530   22.1200 C   0  0  0  0  0  3  0  0  0  0  0  0
  -22.3830   -8.1130   21.3710 C   0  0  0  0  0  0  0  0  0  0  0  0
  -21.9690   -9.0640   20.4220 C   0  0  0  0  0  3  0  0  0  0  0  0
  -22.6980  -10.2490   20.2310 C   0  0  0  0  0  3  0  0  0  0  0  0
  -21.6260   -6.9690   21.4680 O   0  0  0  0  0  0  0  0  0  0  0  0
  -21.5870   -6.2280   22.6210 C   0  0  0  0  0  0  0  0  0  0  0  0
  -21.1880   -6.7880   23.8540 C   0  0  0  0  0  3  0  0  0  0  0  0
  -21.0940   -5.9740   25.0000 C   0  0  0  0  0  3  0  0  0  0  0  0
  -21.3910   -4.6010   24.9140 C   0  0  0  0  0  0  0  0  0  0  0  0
  -21.7840   -4.0400   23.6870 C   0  0  0  0  0  3  0  0  0  0  0  0
  -21.8780   -4.8520   22.5430 C   0  0  0  0  0  0  0  0  0  0  0  0
  -22.2370   -4.3020   21.3570 F   0  0  0  0  0  0  0  0  0  0  0  0
  -21.2950   -3.8160   26.0140 F   0  0  0  0  0  0  0  0  0  0  0  0
  -22.7100  -13.5990   21.0610 C   0  0  0  0  0  0  0  0  0  0  0  0
  -21.9780  -12.9140   21.9310 N   0  0  0  0  0  0  0  0  0  0  0  0
  -22.2760  -14.6170   20.5230 O   0  0  0  0  0  0  0  0  0  0  0  0
  -22.3430  -12.0910   22.3870 H   0  0  0  0  0  0  0  0  0  0  0  0
  -21.0390  -13.2170   22.1460 H   0  0  0  0  0  0  0  0  0  0  0  0
  -25.3350  -15.2670   20.2470 N   0  0  0  0  0  0  0  0  0  0  0  0
  -24.5750  -15.9280   20.3650 H   0  0  0  0  0  0  0  0  0  0  0  0
  -26.1990  -15.7040   19.9490 H   0  0  0  0  0  0  0  0  0  0  0  0
  2  1  1  0
  3 14  2  0
  4  2  1  0
  4  9  1  0
  5 13  1  0
  5 15  1  0
  6 12  1  0
  6  8  1  0
  7 13  1  0
  8  9  2  0
  8  7  1  0
 10  4  2  0
 11 10  1  0
 11  6  2  0
 12  5  1  0
 13  3  1  0
 15 17  2  0
 16 15  1  0
 18 16  1  0
 19 28  2  0
 19 24  1  0
 20 16  1  0
 20 24  1  0
 21 20  1  0
 22 23  1  0
 22 21  1  0
 23 19  1  0
 24 25  2  0
 25 26  1  0
 27 26  2  0
 28 27  1  0
 29  3  1  0
 29 30  1  0
 29 39  1  0
 30 33  1  0
 31 35  1  0
 31 30  1  0
 32 31  2  0
 35 34  1  0
 37 35  1  0
 37 38  1  0
 37 36  1  0
 39 42  1  1
 39 40  1  0
 41 39  1  0
 43  1  1  0
 43 44  1  0
 45 46  1  0
 45 44  1  0
 47 46  1  0
 48 47  1  0
 49 54  1  0
 50 51  1  0
 50 49  1  0
 52 51  1  0
 52 59  1  0
 52 53  1  0
 54 48  1  0
 54 53  1  0
 55 48  2  0
 56 57  2  0
 57 76  1  0
 58 57  1  0
 58 61  1  0
 59 56  1  0
 59 60  1  0
 60 58  2  0
 61 62  1  0
 62 63  2  0
 64 67  1  0
 64 63  1  0
 65 64  2  0
 66 65  1  0
 66 61  2  0
 67 68  1  0
 68 69  1  0
 69 70  2  0
 71 70  1  0
 71 75  1  0
 72 71  2  0
 73 68  2  0
 73 72  1  0
 74 73  1  0
 76 77  1  0
 77 80  1  0
 77 79  1  0
 78 76  2  0
 81 82  1  0
 81 56  1  0
 83 81  1  0
M  ISO  4   1 101   2 101  47 100  48 100
M  END
>  <TORSDO>  (32) 
F 21

>  <SCORE>  (32) 
-15.264

>  <name>  (32) 
32

>  <ligand_id>  (32) 
32

>  <original_smiles>  (32) 
[H]c1c([H])c([H])c2c(c1[H])C([H])([H])C([H])([H])C([H])([H])C2([H])N([H])C(=O)C1([H])N(C(=O)C([H])(N([H])C(=O)C([H])(N([H])C([H])([H])[H])C([H])([H])[H])C(C([H])([H])[H])(C([H])([H])[H])C([H])([H])[H])C([H])([H])c2c([H])c(OC([H])([H])C([H])([H])OC([H])([H])C([H])([H])OC(=O)N3C([H])([H])C([H])([H])C([H])([H])C([H])(n4nc(-c5c([H])c([H])c(Oc6c([H])c([H])c(F)c([H])c6F)c([H])c5[H])c(C(=O)N([H])[H])c4N([H])[H])C3([H])[H])c([H])c([H])c2C1([H])[H]

>  <smiles>  (32) 
[H]c1c([H])c([H])c2c(c1[H])C([H])([H])C([H])([H])C([H])([H])C2([H])N([H])C(=O)C1([H])N(C(=O)C([H])(N([H])C(=O)C([H])(N([H])C([H])([H])[H])C([H])([H])[H])C(C([H])([H])[H])(C([H])([H])[H])C([H])([H])[H])C([H])([H])c2c([H])c(OC([H])([H])C([H])([H])OC([H])([H])C([H])([H])OC(=O)N3C([H])([H])C([H])([H])C([H])([H])C([H])(n4nc(-c5c([H])c([H])c(Oc6c([H])c([H])c(F)c([H])c6F)c([H])c5[H])c(C(=O)N([H])[H])c4N([H])[H])C3([H])[H])c([H])c([H])c2C1([H])[H]

$$$$
33:0:0
     RDKit          3D

 96103  0  0  1  0  0  0  0  0999 V2000
  -26.9860  -20.4960   21.0170 C   0  0  0  0  0  2  0  0  0  0  0  0
  -26.8880  -19.3430   20.1880 O   0  0  0  0  0  0  0  0  0  0  0  0
  -27.5590  -18.2040   20.7130 C   0  0  0  0  0  2  0  0  0  0  0  0
  -28.2800  -17.4560   19.5820 C   0  0  0  0  0  2  0  0  0  0  0  0
  -29.7700  -17.8160   19.4950 C   0  0  0  0  0  2  0  0  0  0  0  0
  -30.4430  -17.3570   18.1940 C   0  0  0  0  0  2  0  0  0  0  0  0
  -31.8620  -17.4760   18.2550 O   0  0  0  0  0  0  0  0  0  0  0  0
  -32.5810  -16.3060   18.6370 C   0  0  0  0  0  2  0  0  0  0  0  0
  -33.1890  -16.4420   20.0480 C   0  0  0  0  0  2  0  0  0  0  0  0
  -34.0330  -15.2350   20.5090 C   0  0  0  0  0  2  0  0  0  0  0  0
  -33.5570  -12.9380   19.6480 C   0  0  0  0  0  0  0  0  0  0  0  0
  -32.5830  -10.9600   18.5530 C   0  0  0  0  0  2  0  0  0  0  0  0
  -31.5900  -11.4090   17.4640 C   0  0  0  0  0  2  0  0  0  0  0  0
  -30.1910  -11.6550   18.0580 C   0  0  0  0  0  2  0  0  0  0  0  0
  -30.2280  -12.5400   19.3310 C   0  0  0  0  0  3  0  0  0  0  0  0
  -31.3040  -12.0350   20.3190 C   0  0  0  0  0  2  0  0  0  0  0  0
  -32.5930  -11.9840   19.6080 N   0  0  0  0  0  0  0  0  0  0  0  0
  -34.5710  -12.9090   18.9430 O   0  0  0  0  0  0  0  0  0  0  0  0
  -33.2920  -13.9720   20.4560 N   0  0  0  0  0  0  0  0  0  0  0  0
  -32.4680  -13.8910   21.0320 H   0  0  0  0  0  0  0  0  0  0  0  0
  -28.2200  -13.7480   20.4000 C   0  0  0  0  0  0  0  0  0  0  0  0
  -27.0060  -13.2920   20.8370 C   0  0  0  0  0  0  0  0  0  0  0  0
  -27.0180  -11.8800   20.6240 C   0  0  0  0  0  0  0  0  0  0  0  0
  -28.9100  -12.6310   19.9560 N   0  0  0  0  0  0  0  0  0  0  0  0
  -28.1930  -11.4950   20.1440 N   0  0  0  0  0  0  0  0  0  0  0  0
  -25.9590  -10.8770   20.7990 C   0  0  0  0  0  0  0  0  0  0  0  0
  -26.0900   -9.8190   21.7260 C   0  0  0  0  0  3  0  0  0  0  0  0
  -25.0510   -8.8760   21.8890 C   0  0  0  0  0  3  0  0  0  0  0  0
  -23.8680   -8.9870   21.1210 C   0  0  0  0  0  0  0  0  0  0  0  0
  -23.7520  -10.0280   20.1830 C   0  0  0  0  0  3  0  0  0  0  0  0
  -24.7890  -10.9630   20.0190 C   0  0  0  0  0  3  0  0  0  0  0  0
  -22.8170   -8.1030   21.1930 O   0  0  0  0  0  0  0  0  0  0  0  0
  -22.3870   -7.5930   22.3900 C   0  0  0  0  0  0  0  0  0  0  0  0
  -21.8840   -8.4230   23.4170 C   0  0  0  0  0  3  0  0  0  0  0  0
  -21.3870   -7.8520   24.6040 C   0  0  0  0  0  3  0  0  0  0  0  0
  -21.3830   -6.4530   24.7660 C   0  0  0  0  0  0  0  0  0  0  0  0
  -21.8800   -5.6240   23.7440 C   0  0  0  0  0  3  0  0  0  0  0  0
  -22.3780   -6.1940   22.5590 C   0  0  0  0  0  0  0  0  0  0  0  0
  -22.8340   -5.3890   21.5690 F   0  0  0  0  0  0  0  0  0  0  0  0
  -20.8990   -5.9040   25.9030 F   0  0  0  0  0  0  0  0  0  0  0  0
  -25.8620  -14.1260   21.3390 C   0  0  0  0  0  0  0  0  0  0  0  0
  -25.0630  -13.5810   22.2520 N   0  0  0  0  0  0  0  0  0  0  0  0
  -25.6980  -15.2850   20.9610 O   0  0  0  0  0  0  0  0  0  0  0  0
  -25.2070  -12.6360   22.5740 H   0  0  0  0  0  0  0  0  0  0  0  0
  -24.2970  -14.1180   22.6290 H   0  0  0  0  0  0  0  0  0  0  0  0
  -28.7910  -15.0150   20.3290 N   0  0  0  0  0  0  0  0  0  0  0  0
  -28.3060  -15.8470   20.6450 H   0  0  0  0  0  0  0  0  0  0  0  0
  -29.7150  -15.1970   19.9640 H   0  0  0  0  0  0  0  0  0  0  0  0
  -27.6760  -21.6260   20.2420 C   0  0  0  0  0  2  0  0  0  0  0  0
  -28.8000  -21.1150   19.5360 O   0  0  0  0  0  0  0  0  0  0  0  0
  -29.8420  -22.0760   19.4150 C   0  0  0  0  0  2  0  0  0  0  0  0
  -30.6240  -21.8380   18.1160 C   0  0  0  0  0  2  0  0  0  0  0  0
  -30.0180  -22.5590   17.0550 O   0  0  0  0  0  0  0  0  0  0  0  0
  -30.8850  -22.7260   15.9390 C   0  0  0  0  0  2  0  0  0  0  0  0
  -30.4200  -23.9530   15.1520 C   0  0  0  0  0  2  0  0  0  0  0  0
  -30.4230  -25.0750   16.0410 O   0  0  0  0  0  0  0  0  0  0  0  0
  -26.8730  -27.7750   21.5680 C   0  0  0  0  0  0  0  0  0  0  0  0
  -29.2460  -25.6670   16.4500 C   0  0  0  0  0  0  0  0  0  0  0  0
  -25.5710  -27.5260   19.4820 C   0  0  0  0  0  3  0  0  0  0  0  0
  -26.9190  -26.9730   17.3950 C   0  0  0  0  0  0  0  0  0  0  0  0
  -28.1090  -27.8590   19.4050 C   0  0  0  0  0  2  0  0  0  0  0  0
  -28.1110  -27.0580   18.1210 C   0  0  0  0  0  0  0  0  0  0  0  0
  -29.2740  -26.4050   17.6550 C   0  0  0  0  0  3  0  0  0  0  0  0
  -28.0290  -25.5960   15.7300 C   0  0  0  0  0  3  0  0  0  0  0  0
  -26.8700  -26.2380   16.2020 C   0  0  0  0  0  3  0  0  0  0  0  0
  -25.7200  -27.7060   17.9480 C   0  0  0  0  0  2  0  0  0  0  0  0
  -26.8710  -27.7020   20.2070 N   0  0  0  0  0  0  0  0  0  0  0  0
  -25.8160  -27.7380   22.2130 O   0  0  0  0  0  0  0  0  0  0  0  0
  -24.8960  -26.1630   19.7550 C   0  0  0  0  0  0  0  0  0  0  0  0
  -23.5690  -26.1020   19.5530 N   0  0  0  0  0  0  0  0  0  0  0  0
  -25.5630  -25.1880   20.1130 O   0  0  0  0  0  0  0  0  0  0  0  0
  -23.0940  -26.9470   19.2710 H   0  0  0  0  0  0  0  0  0  0  0  0
  -20.1670  -24.9010   19.3760 C   0  0  0  0  0  0  0  0  0  0  0  0
  -22.7300  -24.9170   19.7150 C   0  0  0  0  0  3  0  0  0  0  0  0
  -22.7980  -24.0100   18.4640 C   0  0  0  0  0  2  0  0  0  0  0  0
  -21.6910  -24.3030   17.4450 C   0  0  0  0  0  2  0  0  0  0  0  0
  -20.3110  -24.1160   18.0830 C   0  0  0  0  0  2  0  0  0  0  0  0
  -21.3030  -25.2920   20.1330 C   0  0  0  0  0  0  0  0  0  0  0  0
  -21.1160  -26.0540   21.3070 C   0  0  0  0  0  3  0  0  0  0  0  0
  -19.8240  -26.4200   21.7280 C   0  0  0  0  0  3  0  0  0  0  0  0
  -18.7020  -26.0180   20.9840 C   0  0  0  0  0  3  0  0  0  0  0  0
  -18.8740  -25.2590   19.8120 C   0  0  0  0  0  3  0  0  0  0  0  0
  -28.2000  -27.9330   22.3760 C   0  0  0  0  0  3  0  0  0  0  0  0
  -28.0070  -29.0360   23.3270 N   0  0  0  0  0  0  0  0  0  0  0  0
  -28.5220  -30.2640   23.1810 C   0  0  0  0  0  0  0  0  0  0  0  0
  -29.2770  -30.5670   22.2530 O   0  0  0  0  0  0  0  0  0  0  0  0
  -27.3580  -28.8730   24.0820 H   0  0  0  0  0  0  0  0  0  0  0  0
  -27.0720  -32.2640   23.6460 C   0  0  0  0  0  1  0  0  0  0  0  0
  -28.1380  -31.3230   24.2310 C   0  0  0  0  0  3  0  0  0  0  0  0
  -30.2150  -31.3430   25.5410 C   0  0  0  0  0  1  0  0  0  0  0  0
  -29.2890  -32.1150   24.7170 N   0  0  0  0  0  0  0  0  0  0  0  0
  -28.9720  -32.9150   25.2590 H   0  0  0  0  0  0  0  0  0  0  0  0
  -28.6290  -26.6140   23.1300 C   0  0  1  0  0  0  0  0  0  0  0  0
  -27.5070  -26.0000   23.9990 C   0  0  0  0  0  1  0  0  0  0  0  0
  -29.0900  -25.5360   22.1230 C   0  0  0  0  0  1  0  0  0  0  0  0
  -29.8370  -26.9070   24.0500 C   0  0  0  0  0  1  0  0  0  0  0  0
  2  3  1  0
  2  1  1  0
  4  3  1  0
  5  4  1  0
  6  7  1  0
  6  5  1  0
  7  8  1  0
  8  9  1  0
  9 10  1  0
 11 19  1  0
 12 17  1  0
 13 14  1  0
 13 12  1  0
 15 14  1  0
 15 24  1  0
 15 16  1  0
 17 11  1  0
 17 16  1  0
 18 11  2  0
 19 10  1  0
 19 20  1  0
 21 22  2  0
 22 41  1  0
 23 26  1  0
 23 22  1  0
 24 25  1  0
 24 21  1  0
 25 23  2  0
 26 27  1  0
 27 28  2  0
 29 32  1  0
 29 28  1  0
 30 29  2  0
 31 30  1  0
 31 26  2  0
 32 33  1  0
 33 38  2  0
 33 34  1  0
 34 35  2  0
 35 36  1  0
 36 40  1  0
 37 36  2  0
 38 37  1  0
 39 38  1  0
 41 42  1  0
 42 44  1  0
 42 45  1  0
 43 41  2  0
 46 21  1  0
 46 47  1  0
 48 46  1  0
 49  1  1  0
 50 49  1  0
 51 50  1  0
 52 51  1  0
 53 52  1  0
 54 53  1  0
 55 54  1  0
 55 56  1  0
 56 58  1  0
 57 68  2  0
 58 63  1  0
 59 69  1  0
 59 67  1  0
 60 66  1  0
 60 62  1  0
 61 67  1  0
 62 61  1  0
 63 62  2  0
 64 65  1  0
 64 58  2  0
 65 60  2  0
 66 59  1  0
 67 57  1  0
 69 71  2  0
 70 69  1  0
 72 70  1  0
 73 82  2  0
 73 78  1  0
 74 70  1  0
 74 78  1  0
 75 74  1  0
 76 77  1  0
 76 75  1  0
 77 73  1  0
 78 79  2  0
 79 80  1  0
 81 80  2  0
 82 81  1  0
 83 57  1  0
 83 93  1  0
 83 84  1  0
 84 87  1  0
 85 84  1  0
 85 89  1  0
 86 85  2  0
 89 88  1  0
 89 91  1  0
 91 92  1  0
 91 90  1  0
 93 94  1  1
 93 96  1  0
 95 93  1  0
M  ISO  4  11 100  19 100  55 101  56 101
M  END
>  <TORSDO>  (33) 
F 32

>  <SCORE>  (33) 
-0.836

>  <name>  (33) 
33

>  <ligand_id>  (33) 
33

>  <original_smiles>  (33) 
[H]c1c([H])c([H])c2c(c1[H])C([H])([H])C([H])([H])C([H])([H])C2([H])N([H])C(=O)C1([H])N(C(=O)C([H])(N([H])C(=O)C([H])(N([H])C([H])([H])[H])C([H])([H])[H])C(C([H])([H])[H])(C([H])([H])[H])C([H])([H])[H])C([H])([H])c2c([H])c(OC([H])([H])C([H])([H])OC([H])([H])C([H])([H])OC([H])([H])C([H])([H])OC([H])([H])C([H])([H])C([H])([H])C([H])([H])OC([H])([H])C([H])([H])C([H])([H])N([H])C(=O)N3C([H])([H])C([H])([H])C([H])([H])C([H])(n4nc(-c5c([H])c([H])c(Oc6c([H])c([H])c(F)c([H])c6F)c([H])c5[H])c(C(=O)N([H])[H])c4N([H])[H])C3([H])[H])c([H])c([H])c2C1([H])[H]

>  <smiles>  (33) 
[H]c1c([H])c([H])c2c(c1[H])C([H])([H])C([H])([H])C([H])([H])C2([H])N([H])C(=O)C1([H])N(C(=O)C([H])(N([H])C(=O)C([H])(N([H])C([H])([H])[H])C([H])([H])[H])C(C([H])([H])[H])(C([H])([H])[H])C([H])([H])[H])C([H])([H])c2c([H])c(OC([H])([H])C([H])([H])OC([H])([H])C([H])([H])OC([H])([H])C([H])([H])OC([H])([H])C([H])([H])C([H])([H])C([H])([H])OC([H])([H])C([H])([H])C([H])([H])N([H])C(=O)N3C([H])([H])C([H])([H])C([H])([H])C([H])(n4nc(-c5c([H])c([H])c(Oc6c([H])c([H])c(F)c([H])c6F)c([H])c5[H])c(C(=O)N([H])[H])c4N([H])[H])C3([H])[H])c([H])c([H])c2C1([H])[H]

$$$$
34:0:0
     RDKit          3D

 91 98  0  0  1  0  0  0  0  0999 V2000
  -31.6650  -23.4390   19.2480 C   0  0  0  0  0  2  0  0  0  0  0  0
  -30.3500  -23.9430   19.0700 O   0  0  0  0  0  0  0  0  0  0  0  0
  -30.1810  -25.2530   19.5960 C   0  0  0  0  0  2  0  0  0  0  0  0
  -28.7660  -25.7490   19.2880 C   0  0  0  0  0  0  0  0  0  0  0  0
  -28.1030  -25.2520   18.3700 O   0  0  0  0  0  0  0  0  0  0  0  0
  -28.4110  -26.7700   20.1090 O   0  0  0  0  0  0  0  0  0  0  0  0
  -24.6070  -31.8730   23.2340 C   0  0  0  0  0  0  0  0  0  0  0  0
  -27.2020  -27.4380   20.0980 C   0  0  0  0  0  0  0  0  0  0  0  0
  -23.3770  -30.4760   21.6060 C   0  0  0  0  0  3  0  0  0  0  0  0
  -24.8020  -28.9390   20.1610 C   0  0  0  0  0  0  0  0  0  0  0  0
  -25.9000  -30.8310   21.3720 C   0  0  0  0  0  2  0  0  0  0  0  0
  -25.9720  -29.4640   20.7240 C   0  0  0  0  0  0  0  0  0  0  0  0
  -27.1720  -28.7230   20.6830 C   0  0  0  0  0  3  0  0  0  0  0  0
  -26.0010  -26.9140   19.5580 C   0  0  0  0  0  3  0  0  0  0  0  0
  -24.8110  -27.6590   19.5790 C   0  0  0  0  0  3  0  0  0  0  0  0
  -23.5670  -29.8050   20.2210 C   0  0  0  0  0  2  0  0  0  0  0  0
  -24.6490  -31.0720   22.1300 N   0  0  0  0  0  0  0  0  0  0  0  0
  -23.5310  -32.1510   23.7830 O   0  0  0  0  0  0  0  0  0  0  0  0
  -22.7350  -29.4510   22.5690 C   0  0  0  0  0  0  0  0  0  0  0  0
  -21.4110  -29.2710   22.4520 N   0  0  0  0  0  0  0  0  0  0  0  0
  -23.4250  -28.8240   23.3770 O   0  0  0  0  0  0  0  0  0  0  0  0
  -20.9170  -29.8270   21.7680 H   0  0  0  0  0  0  0  0  0  0  0  0
  -18.0390  -28.0780   22.9480 C   0  0  0  0  0  0  0  0  0  0  0  0
  -20.5950  -28.3340   23.2240 C   0  0  0  0  0  3  0  0  0  0  0  0
  -20.6990  -26.9010   22.6500 C   0  0  0  0  0  2  0  0  0  0  0  0
  -19.5950  -26.5760   21.6370 C   0  0  0  0  0  2  0  0  0  0  0  0
  -18.2140  -26.7260   22.2790 C   0  0  0  0  0  2  0  0  0  0  0  0
  -19.1570  -28.8400   23.3770 C   0  0  0  0  0  0  0  0  0  0  0  0
  -18.9350  -30.1080   23.9600 C   0  0  0  0  0  3  0  0  0  0  0  0
  -17.6290  -30.6100   24.1180 C   0  0  0  0  0  3  0  0  0  0  0  0
  -16.5260  -29.8410   23.7080 C   0  0  0  0  0  3  0  0  0  0  0  0
  -16.7330  -28.5760   23.1290 C   0  0  0  0  0  3  0  0  0  0  0  0
  -25.9010  -32.4970   23.8410 C   0  0  0  0  0  3  0  0  0  0  0  0
  -26.4310  -31.7160   25.1040 C   0  0  1  0  0  0  0  0  0  0  0  0
  -25.3520  -31.4730   26.1850 C   0  0  0  0  0  1  0  0  0  0  0  0
  -27.0010  -30.3400   24.6870 C   0  0  0  0  0  1  0  0  0  0  0  0
  -27.5930  -32.5010   25.7580 C   0  0  0  0  0  1  0  0  0  0  0  0
  -25.6000  -33.8930   24.1840 N   0  0  0  0  0  0  0  0  0  0  0  0
  -25.9240  -34.9470   23.4230 C   0  0  0  0  0  0  0  0  0  0  0  0
  -26.5820  -34.8470   22.3830 O   0  0  0  0  0  0  0  0  0  0  0  0
  -25.0200  -34.0430   24.9950 H   0  0  0  0  0  0  0  0  0  0  0  0
  -24.1940  -36.7390   23.0900 C   0  0  0  0  0  1  0  0  0  0  0  0
  -25.4430  -36.3320   23.8910 C   0  0  0  0  0  3  0  0  0  0  0  0
  -27.5890  -37.2080   24.7020 C   0  0  0  0  0  1  0  0  0  0  0  0
  -26.4750  -37.3840   23.7720 N   0  0  0  0  0  0  0  0  0  0  0  0
  -26.0720  -38.3040   23.9310 H   0  0  0  0  0  0  0  0  0  0  0  0
  -31.7080  -22.0450   18.5950 C   0  0  0  0  0  2  0  0  0  0  0  0
  -32.5460  -21.1180   19.2870 O   0  0  0  0  0  0  0  0  0  0  0  0
  -32.6050  -19.8510   18.6230 C   0  0  0  0  0  2  0  0  0  0  0  0
  -32.1940  -18.6490   19.5090 C   0  0  0  0  0  2  0  0  0  0  0  0
  -31.0390  -18.8930   20.3180 O   0  0  0  0  0  0  0  0  0  0  0  0
  -30.2600  -17.7240   20.5960 C   0  0  0  0  0  2  0  0  0  0  0  0
  -30.9140  -16.6930   21.5530 C   0  0  0  0  0  2  0  0  0  0  0  0
  -30.7570  -14.4510   20.4870 C   0  0  0  0  0  0  0  0  0  0  0  0
  -30.3170  -12.3620   19.2540 C   0  0  0  0  0  2  0  0  0  0  0  0
  -29.3640  -12.6370   18.0760 C   0  0  0  0  0  2  0  0  0  0  0  0
  -27.9000  -12.5000   18.5300 C   0  0  0  0  0  2  0  0  0  0  0  0
  -27.6050  -13.2920   19.8290 C   0  0  0  0  0  3  0  0  0  0  0  0
  -28.6810  -13.0570   20.9130 C   0  0  0  0  0  2  0  0  0  0  0  0
  -30.0080  -13.3230   20.3250 N   0  0  0  0  0  0  0  0  0  0  0  0
  -31.7760  -14.6810   19.8300 O   0  0  0  0  0  0  0  0  0  0  0  0
  -30.3270  -15.3540   21.3790 N   0  0  0  0  0  0  0  0  0  0  0  0
  -29.5030  -15.1260   21.9130 H   0  0  0  0  0  0  0  0  0  0  0  0
  -25.2130  -13.8810   20.5610 C   0  0  0  0  0  0  0  0  0  0  0  0
  -24.1520  -13.1080   20.9320 C   0  0  0  0  0  0  0  0  0  0  0  0
  -24.6120  -11.7550   20.8880 C   0  0  0  0  0  0  0  0  0  0  0  0
  -26.2600  -13.0050   20.3190 N   0  0  0  0  0  0  0  0  0  0  0  0
  -25.9010  -11.7190   20.5720 N   0  0  0  0  0  0  0  0  0  0  0  0
  -23.8890  -10.4930   21.0770 C   0  0  0  0  0  0  0  0  0  0  0  0
  -24.3460   -9.5050   21.9780 C   0  0  0  0  0  3  0  0  0  0  0  0
  -23.6220   -8.3070   22.1570 C   0  0  0  0  0  3  0  0  0  0  0  0
  -22.4240   -8.0880   21.4330 C   0  0  0  0  0  0  0  0  0  0  0  0
  -21.9840   -9.0650   20.5220 C   0  0  0  0  0  3  0  0  0  0  0  0
  -22.7090  -10.2540   20.3410 C   0  0  0  0  0  3  0  0  0  0  0  0
  -21.6660   -6.9450   21.5280 O   0  0  0  0  0  0  0  0  0  0  0  0
  -21.6720   -6.1660   22.6580 C   0  0  0  0  0  0  0  0  0  0  0  0
  -21.3320   -6.6880   23.9250 C   0  0  0  0  0  3  0  0  0  0  0  0
  -21.2780   -5.8380   25.0450 C   0  0  0  0  0  3  0  0  0  0  0  0
  -21.5580   -4.4660   24.9040 C   0  0  0  0  0  0  0  0  0  0  0  0
  -21.8950   -3.9420   23.6430 C   0  0  0  0  0  3  0  0  0  0  0  0
  -21.9480   -4.7890   22.5230 C   0  0  0  0  0  0  0  0  0  0  0  0
  -22.2520   -4.2750   21.3070 F   0  0  0  0  0  0  0  0  0  0  0  0
  -21.5000   -3.6460   25.9800 F   0  0  0  0  0  0  0  0  0  0  0  0
  -22.7600  -13.5860   21.2280 C   0  0  0  0  0  0  0  0  0  0  0  0
  -22.0450  -12.8840   22.0980 N   0  0  0  0  0  0  0  0  0  0  0  0
  -22.3200  -14.6230   20.7310 O   0  0  0  0  0  0  0  0  0  0  0  0
  -22.4280  -12.0540   22.5200 H   0  0  0  0  0  0  0  0  0  0  0  0
  -21.1150  -13.1850   22.3500 H   0  0  0  0  0  0  0  0  0  0  0  0
  -25.3770  -15.2530   20.3860 N   0  0  0  0  0  0  0  0  0  0  0  0
  -24.6100  -15.9080   20.4930 H   0  0  0  0  0  0  0  0  0  0  0  0
  -26.2230  -15.6860   20.0480 H   0  0  0  0  0  0  0  0  0  0  0  0
  2  1  1  0
  2  3  1  0
  4  3  1  0
  4  6  1  0
  5  4  2  0
  7 18  2  0
  8  6  1  0
  8 13  1  0
  9 17  1  0
  9 19  1  0
 10 16  1  0
 10 12  1  0
 11 17  1  0
 12 11  1  0
 13 12  2  0
 14 15  1  0
 14  8  2  0
 15 10  2  0
 16  9  1  0
 17  7  1  0
 19 21  2  0
 20 19  1  0
 22 20  1  0
 23 32  2  0
 23 28  1  0
 24 20  1  0
 24 28  1  0
 25 24  1  0
 26 27  1  0
 26 25  1  0
 27 23  1  0
 28 29  2  0
 29 30  1  0
 31 30  2  0
 32 31  1  0
 33  7  1  0
 33 38  1  0
 33 34  1  0
 34 37  1  1
 34 35  1  0
 36 34  1  0
 38 41  1  0
 39 43  1  0
 39 38  1  0
 40 39  2  0
 43 42  1  0
 45 43  1  0
 45 46  1  0
 45 44  1  0
 47  1  1  0
 47 48  1  0
 49 48  1  0
 49 50  1  0
 50 51  1  0
 51 52  1  0
 52 53  1  0
 54 62  1  0
 55 60  1  0
 56 57  1  0
 56 55  1  0
 58 57  1  0
 58 67  1  0
 58 59  1  0
 60 54  1  0
 60 59  1  0
 61 54  2  0
 62 53  1  0
 62 63  1  0
 64 65  2  0
 65 84  1  0
 66 65  1  0
 66 69  1  0
 67 64  1  0
 67 68  1  0
 68 66  2  0
 69 70  1  0
 70 71  2  0
 72 75  1  0
 72 71  1  0
 73 72  2  0
 74 73  1  0
 74 69  2  0
 75 76  1  0
 76 77  1  0
 77 78  2  0
 79 78  1  0
 79 83  1  0
 80 79  2  0
 81 76  2  0
 81 80  1  0
 82 81  1  0
 84 85  1  0
 85 88  1  0
 85 87  1  0
 86 84  2  0
 89 90  1  0
 89 64  1  0
 91 89  1  0
M  ISO  4   4 101   6 101  54 100  62 100
M  END
>  <TORSDO>  (34) 
F 26

>  <SCORE>  (34) 
-11.731

>  <name>  (34) 
34

>  <ligand_id>  (34) 
34

>  <original_smiles>  (34) 
[H]c1c([H])c([H])c2c(c1[H])C([H])([H])C([H])([H])C([H])([H])C2([H])N([H])C(=O)C1([H])N(C(=O)C([H])(N([H])C(=O)C([H])(N([H])C([H])([H])[H])C([H])([H])[H])C(C([H])([H])[H])(C([H])([H])[H])C([H])([H])[H])C([H])([H])c2c([H])c(OC(=O)C([H])([H])OC([H])([H])C([H])([H])OC([H])([H])C([H])([H])OC([H])([H])C([H])([H])N([H])C(=O)N3C([H])([H])C([H])([H])C([H])([H])C([H])(n4nc(-c5c([H])c([H])c(Oc6c([H])c([H])c(F)c([H])c6F)c([H])c5[H])c(C(=O)N([H])[H])c4N([H])[H])C3([H])[H])c([H])c([H])c2C1([H])[H]

>  <smiles>  (34) 
[H]c1c([H])c([H])c2c(c1[H])C([H])([H])C([H])([H])C([H])([H])C2([H])N([H])C(=O)C1([H])N(C(=O)C([H])(N([H])C(=O)C([H])(N([H])C([H])([H])[H])C([H])([H])[H])C(C([H])([H])[H])(C([H])([H])[H])C([H])([H])[H])C([H])([H])c2c([H])c(OC(=O)C([H])([H])OC([H])([H])C([H])([H])OC([H])([H])C([H])([H])OC([H])([H])C([H])([H])N([H])C(=O)N3C([H])([H])C([H])([H])C([H])([H])C([H])(n4nc(-c5c([H])c([H])c(Oc6c([H])c([H])c(F)c([H])c6F)c([H])c5[H])c(C(=O)N([H])[H])c4N([H])[H])C3([H])[H])c([H])c([H])c2C1([H])[H]

$$$$
35:0:0
     RDKit          3D

102110  0  0  1  0  0  0  0  0999 V2000
  -29.4190  -20.1060   16.7680 C   0  0  0  0  0  2  0  0  0  0  0  0
  -29.4870  -21.4060   17.3380 O   0  0  0  0  0  0  0  0  0  0  0  0
  -30.7650  -21.7290   17.8650 C   0  0  0  0  0  2  0  0  0  0  0  0
  -30.8650  -23.5360   19.7140 C   0  0  0  0  0  3  0  0  0  0  0  0
  -30.7590  -23.1250   18.4180 C   0  0  0  0  0  0  0  0  0  0  0  0
  -30.5930  -24.2530   17.6110 N   0  0  0  0  0  0  0  0  0  0  0  0
  -30.5920  -25.3170   18.3550 N   0  0  0  0  0  0  0  0  0  0  0  0
  -30.7210  -24.9080   19.6410 N   0  0  0  0  0  0  0  0  0  0  0  0
  -30.7520  -25.8720   20.7310 C   0  0  0  0  0  2  0  0  0  0  0  0
  -29.6950  -26.9890   20.6300 C   0  0  0  0  0  2  0  0  0  0  0  0
  -28.4310  -26.4480   20.2490 O   0  0  0  0  0  0  0  0  0  0  0  0
  -24.6630  -31.7620   23.1920 C   0  0  0  0  0  0  0  0  0  0  0  0
  -27.3220  -27.2650   20.2470 C   0  0  0  0  0  0  0  0  0  0  0  0
  -23.4770  -30.3820   21.5110 C   0  0  0  0  0  3  0  0  0  0  0  0
  -24.9440  -28.7930   20.1580 C   0  0  0  0  0  0  0  0  0  0  0  0
  -26.0110  -30.6870   21.3990 C   0  0  0  0  0  2  0  0  0  0  0  0
  -26.0880  -29.3090   20.7780 C   0  0  0  0  0  0  0  0  0  0  0  0
  -27.2780  -28.5580   20.8200 C   0  0  0  0  0  3  0  0  0  0  0  0
  -26.1570  -26.7510   19.6390 C   0  0  0  0  0  3  0  0  0  0  0  0
  -24.9710  -27.5090   19.5850 C   0  0  0  0  0  3  0  0  0  0  0  0
  -23.7160  -29.6750   20.1490 C   0  0  0  0  0  2  0  0  0  0  0  0
  -24.7330  -30.9570   22.0940 N   0  0  0  0  0  0  0  0  0  0  0  0
  -23.5710  -32.0690   23.6900 O   0  0  0  0  0  0  0  0  0  0  0  0
  -22.7630  -29.3900   22.4550 C   0  0  0  0  0  0  0  0  0  0  0  0
  -21.4450  -29.2250   22.2610 N   0  0  0  0  0  0  0  0  0  0  0  0
  -23.3930  -28.7680   23.3150 O   0  0  0  0  0  0  0  0  0  0  0  0
  -21.0010  -29.7750   21.5390 H   0  0  0  0  0  0  0  0  0  0  0  0
  -18.0330  -28.0880   22.5840 C   0  0  0  0  0  0  0  0  0  0  0  0
  -20.5730  -28.3150   23.0010 C   0  0  0  0  0  3  0  0  0  0  0  0
  -20.6880  -26.8720   22.4590 C   0  0  0  0  0  2  0  0  0  0  0  0
  -19.6430  -26.5430   21.3900 C   0  0  0  0  0  2  0  0  0  0  0  0
  -18.2280  -26.7230   21.9470 C   0  0  0  0  0  2  0  0  0  0  0  0
  -19.1360  -28.8430   23.0640 C   0  0  0  0  0  0  0  0  0  0  0  0
  -18.9020  -30.1210   23.6140 C   0  0  0  0  0  3  0  0  0  0  0  0
  -17.5980  -30.6460   23.6900 C   0  0  0  0  0  3  0  0  0  0  0  0
  -16.5090  -29.8880   23.2290 C   0  0  0  0  0  3  0  0  0  0  0  0
  -16.7260  -28.6100   22.6830 C   0  0  0  0  0  3  0  0  0  0  0  0
  -25.9440  -32.3570   23.8570 C   0  0  0  0  0  3  0  0  0  0  0  0
  -25.6520  -33.7530   24.2080 N   0  0  0  0  0  0  0  0  0  0  0  0
  -26.0230  -34.8150   23.4790 C   0  0  0  0  0  0  0  0  0  0  0  0
  -26.7170  -34.7210   22.4630 O   0  0  0  0  0  0  0  0  0  0  0  0
  -25.0380  -33.9020   24.9950 H   0  0  0  0  0  0  0  0  0  0  0  0
  -24.3260  -36.6340   23.1210 C   0  0  0  0  0  1  0  0  0  0  0  0
  -25.5450  -36.2010   23.9510 C   0  0  0  0  0  3  0  0  0  0  0  0
  -27.6810  -37.0340   24.8310 C   0  0  0  0  0  1  0  0  0  0  0  0
  -26.5920  -37.2430   23.8800 N   0  0  0  0  0  0  0  0  0  0  0  0
  -26.1960  -38.1630   24.0540 H   0  0  0  0  0  0  0  0  0  0  0  0
  -26.4210  -31.5490   25.1250 C   0  0  1  0  0  0  0  0  0  0  0  0
  -25.3000  -31.2930   26.1580 C   0  0  0  0  0  1  0  0  0  0  0  0
  -27.0020  -30.1770   24.7070 C   0  0  0  0  0  1  0  0  0  0  0  0
  -27.5630  -32.3130   25.8360 C   0  0  0  0  0  1  0  0  0  0  0  0
  -27.9770  -19.8830   16.3010 C   0  0  0  0  0  2  0  0  0  0  0  0
  -27.2060  -19.5410   17.4460 O   0  0  0  0  0  0  0  0  0  0  0  0
  -25.8670  -19.1830   17.1440 C   0  0  0  0  0  2  0  0  0  0  0  0
  -25.2110  -18.6320   18.4190 C   0  0  0  0  0  2  0  0  0  0  0  0
  -26.0230  -17.6050   18.9740 O   0  0  0  0  0  0  0  0  0  0  0  0
  -25.7470  -17.3710   20.3500 C   0  0  0  0  0  2  0  0  0  0  0  0
  -26.8070  -16.4350   20.9450 C   0  0  0  0  0  2  0  0  0  0  0  0
  -28.0910  -17.0390   20.8680 O   0  0  0  0  0  0  0  0  0  0  0  0
  -29.0090  -16.4720   21.7960 C   0  0  0  0  0  2  0  0  0  0  0  0
  -30.4090  -17.0550   21.5680 C   0  0  0  0  0  2  0  0  0  0  0  0
  -31.0880  -16.3090   20.5650 O   0  0  0  0  0  0  0  0  0  0  0  0
  -32.4890  -16.5660   20.5430 C   0  0  0  0  0  2  0  0  0  0  0  0
  -33.1920  -15.4070   19.8280 C   0  0  0  0  0  2  0  0  0  0  0  0
  -32.8570  -12.9440   19.7090 C   0  0  0  0  0  0  0  0  0  0  0  0
  -32.2600  -10.5500   19.7290 C   0  0  0  0  0  2  0  0  0  0  0  0
  -31.2940  -10.1980   18.5810 C   0  0  0  0  0  2  0  0  0  0  0  0
  -29.8310  -10.4680   18.9810 C   0  0  0  0  0  2  0  0  0  0  0  0
  -29.6330  -11.8770   19.6050 C   0  0  0  0  0  3  0  0  0  0  0  0
  -30.6900  -12.1300   20.7020 C   0  0  0  0  0  2  0  0  0  0  0  0
  -32.0300  -11.9480   20.1130 N   0  0  0  0  0  0  0  0  0  0  0  0
  -33.8740  -12.7620   19.0300 O   0  0  0  0  0  0  0  0  0  0  0  0
  -32.5070  -14.1590   20.1310 N   0  0  0  0  0  0  0  0  0  0  0  0
  -31.6590  -14.2320   20.6740 H   0  0  0  0  0  0  0  0  0  0  0  0
  -27.5580  -13.2220   20.3280 C   0  0  0  0  0  0  0  0  0  0  0  0
  -26.3160  -12.8280   20.7500 C   0  0  0  0  0  0  0  0  0  0  0  0
  -26.3390  -11.4000   20.7700 C   0  0  0  0  0  0  0  0  0  0  0  0
  -28.2770  -12.0530   20.1180 N   0  0  0  0  0  0  0  0  0  0  0  0
  -27.5440  -10.9550   20.4360 N   0  0  0  0  0  0  0  0  0  0  0  0
  -25.2690  -10.4300   21.0290 C   0  0  0  0  0  0  0  0  0  0  0  0
  -25.4110   -9.4170   22.0030 C   0  0  0  0  0  3  0  0  0  0  0  0
  -24.3590   -8.5050   22.2460 C   0  0  0  0  0  3  0  0  0  0  0  0
  -23.1510   -8.6050   21.5170 C   0  0  0  0  0  0  0  0  0  0  0  0
  -23.0240   -9.6000   20.5330 C   0  0  0  0  0  3  0  0  0  0  0  0
  -24.0730  -10.5030   20.2870 C   0  0  0  0  0  3  0  0  0  0  0  0
  -22.0870   -7.7510   21.6680 O   0  0  0  0  0  0  0  0  0  0  0  0
  -21.8320   -7.1190   22.8590 C   0  0  0  0  0  0  0  0  0  0  0  0
  -21.6080   -7.8400   24.0520 C   0  0  0  0  0  3  0  0  0  0  0  0
  -21.2820   -7.1540   25.2390 C   0  0  0  0  0  3  0  0  0  0  0  0
  -21.1730   -5.7500   25.2330 C   0  0  0  0  0  0  0  0  0  0  0  0
  -21.3920   -5.0310   24.0450 C   0  0  0  0  0  3  0  0  0  0  0  0
  -21.7180   -5.7140   22.8610 C   0  0  0  0  0  0  0  0  0  0  0  0
  -21.9070   -5.0190   21.7130 F   0  0  0  0  0  0  0  0  0  0  0  0
  -20.8530   -5.0900   26.3710 F   0  0  0  0  0  0  0  0  0  0  0  0
  -25.1410  -13.7210   21.0300 C   0  0  0  0  0  0  0  0  0  0  0  0
  -24.2720  -13.3190   21.9510 N   0  0  0  0  0  0  0  0  0  0  0  0
  -25.0130  -14.8050   20.4620 O   0  0  0  0  0  0  0  0  0  0  0  0
  -24.3870  -12.4400   22.4330 H   0  0  0  0  0  0  0  0  0  0  0  0
  -23.4760  -13.9010   22.1730 H   0  0  0  0  0  0  0  0  0  0  0  0
  -28.1270  -14.4690   20.0910 N   0  0  0  0  0  0  0  0  0  0  0  0
  -27.6000  -15.3300   20.1820 H   0  0  0  0  0  0  0  0  0  0  0  0
  -29.0720  -14.6180   19.7580 H   0  0  0  0  0  0  0  0  0  0  0  0
  1  2  1  0
  2  3  1  0
  3  5  1  0
  5  4  2  0
  6  7  2  0
  6  5  1  0
  7  8  1  0
  8  4  1  0
  8  9  1  0
 10  9  1  0
 11 10  1  0
 12 23  2  0
 13 11  1  0
 13 18  1  0
 14 22  1  0
 14 24  1  0
 15 17  1  0
 16 22  1  0
 17 18  2  0
 17 16  1  0
 19 13  2  0
 20 19  1  0
 20 15  2  0
 21 15  1  0
 21 14  1  0
 22 12  1  0
 24 26  2  0
 25 24  1  0
 27 25  1  0
 28 37  2  0
 28 33  1  0
 29 25  1  0
 29 33  1  0
 30 29  1  0
 31 32  1  0
 31 30  1  0
 32 28  1  0
 33 34  2  0
 34 35  1  0
 36 35  2  0
 37 36  1  0
 38 12  1  0
 38 39  1  0
 38 48  1  0
 39 42  1  0
 40 44  1  0
 40 39  1  0
 41 40  2  0
 44 43  1  0
 46 44  1  0
 46 47  1  0
 46 45  1  0
 48 51  1  1
 48 49  1  0
 50 48  1  0
 52  1  1  0
 52 53  1  0
 54 53  1  0
 54 55  1  0
 55 56  1  0
 56 57  1  0
 57 58  1  0
 59 58  1  0
 59 60  1  0
 61 60  1  0
 62 61  1  0
 63 62  1  0
 64 73  1  0
 64 63  1  0
 65 71  1  0
 65 73  1  0
 66 71  1  0
 67 68  1  0
 67 66  1  0
 69 68  1  0
 69 78  1  0
 69 70  1  0
 71 70  1  0
 72 65  2  0
 73 74  1  0
 75 76  2  0
 76 77  1  0
 76 95  1  0
 77 80  1  0
 78 75  1  0
 78 79  1  0
 79 77  2  0
 80 81  1  0
 81 82  2  0
 83 86  1  0
 83 82  1  0
 84 83  2  0
 85 84  1  0
 85 80  2  0
 86 87  1  0
 87 92  2  0
 87 88  1  0
 88 89  2  0
 90 89  1  0
 90 94  1  0
 91 90  2  0
 92 91  1  0
 93 92  1  0
 95 96  1  0
 96 99  1  0
 96 98  1  0
 97 95  2  0
100101  1  0
100 75  1  0
102100  1  0
M  ISO  4  10 101  11 101  65 100  73 100
M  END
>  <TORSDO>  (35) 
F 34

>  <SCORE>  (35) 
-3.790

>  <name>  (35) 
35

>  <ligand_id>  (35) 
35

>  <original_smiles>  (35) 
[H]c1c([H])c([H])c2c(c1[H])C([H])([H])C([H])([H])C([H])([H])C2([H])N([H])C(=O)C1([H])N(C(=O)C([H])(N([H])C(=O)C([H])(N([H])C([H])([H])[H])C([H])([H])[H])C(C([H])([H])[H])(C([H])([H])[H])C([H])([H])[H])C([H])([H])c2c([H])c(OC([H])([H])C([H])([H])n3nnc(C([H])([H])OC([H])([H])C([H])([H])OC([H])([H])C([H])([H])OC([H])([H])C([H])([H])OC([H])([H])C([H])([H])OC([H])([H])C([H])([H])N([H])C(=O)N4C([H])([H])C([H])([H])C([H])([H])C([H])(n5nc(-c6c([H])c([H])c(Oc7c([H])c([H])c(F)c([H])c7F)c([H])c6[H])c(C(=O)N([H])[H])c5N([H])[H])C4([H])[H])c3[H])c([H])c([H])c2C1([H])[H]

>  <smiles>  (35) 
[H]c1c([H])c([H])c2c(c1[H])C([H])([H])C([H])([H])C([H])([H])C2([H])N([H])C(=O)C1([H])N(C(=O)C([H])(N([H])C(=O)C([H])(N([H])C([H])([H])[H])C([H])([H])[H])C(C([H])([H])[H])(C([H])([H])[H])C([H])([H])[H])C([H])([H])c2c([H])c(OC([H])([H])C([H])([H])n3nnc(C([H])([H])OC([H])([H])C([H])([H])OC([H])([H])C([H])([H])OC([H])([H])C([H])([H])OC([H])([H])C([H])([H])OC([H])([H])C([H])([H])N([H])C(=O)N4C([H])([H])C([H])([H])C([H])([H])C([H])(n5nc(-c6c([H])c([H])c(Oc7c([H])c([H])c(F)c([H])c7F)c([H])c6[H])c(C(=O)N([H])[H])c5N([H])[H])C4([H])[H])c3[H])c([H])c([H])c2C1([H])[H]

$$$$
36:0:0
     RDKit          3D

104112  0  0  1  0  0  0  0  0999 V2000
  -35.3300  -21.4150   23.9260 C   0  0  0  0  0  2  0  0  0  0  0  0
  -35.6150  -20.9080   22.6290 O   0  0  0  0  0  0  0  0  0  0  0  0
  -35.6880  -21.9250   21.6380 C   0  0  0  0  0  2  0  0  0  0  0  0
  -35.4340  -21.2900   20.2680 C   0  0  0  0  0  2  0  0  0  0  0  0
  -33.7440  -19.5290   19.7530 C   0  0  0  0  0  0  0  0  0  0  0  0
  -34.0850  -20.7340   20.2150 N   0  0  0  0  0  0  0  0  0  0  0  0
  -34.5660  -18.6720   19.4180 O   0  0  0  0  0  0  0  0  0  0  0  0
  -33.3310  -21.3240   20.5350 H   0  0  0  0  0  0  0  0  0  0  0  0
  -29.9720  -20.0690   19.3630 C   0  0  0  0  0  3  0  0  0  0  0  0
  -31.3500  -20.3260   19.4850 C   0  0  0  0  0  3  0  0  0  0  0  0
  -29.5030  -18.7440   19.3750 C   0  0  0  0  0  3  0  0  0  0  0  0
  -31.7820  -17.9350   19.6870 C   0  0  0  0  0  3  0  0  0  0  0  0
  -32.2660  -19.2650   19.6710 C   0  0  0  0  0  0  0  0  0  0  0  0
  -30.4080  -17.6710   19.5090 C   0  0  0  0  0  0  0  0  0  0  0  0
  -29.9170  -16.2480   19.3230 C   0  0  0  0  0  2  0  0  0  0  0  0
  -30.9900  -14.2590   20.2430 C   0  0  0  0  0  0  0  0  0  0  0  0
  -30.6790  -12.0040   19.3410 C   0  0  0  0  0  2  0  0  0  0  0  0
  -29.7410  -12.1480   18.1220 C   0  0  0  0  0  2  0  0  0  0  0  0
  -28.2600  -12.0900   18.5550 C   0  0  0  0  0  2  0  0  0  0  0  0
  -27.9470  -13.0190   19.7580 C   0  0  0  0  0  3  0  0  0  0  0  0
  -29.0010  -12.8530   20.8800 C   0  0  0  0  0  2  0  0  0  0  0  0
  -30.3370  -13.0680   20.2940 N   0  0  0  0  0  0  0  0  0  0  0  0
  -32.1230  -14.3980   19.7770 O   0  0  0  0  0  0  0  0  0  0  0  0
  -30.1800  -15.3120   20.4200 N   0  0  0  0  0  0  0  0  0  0  0  0
  -29.3630  -15.1090   20.9740 H   0  0  0  0  0  0  0  0  0  0  0  0
  -25.6020  -13.7550   20.5310 C   0  0  0  0  0  0  0  0  0  0  0  0
  -24.4980  -13.0370   20.9070 C   0  0  0  0  0  0  0  0  0  0  0  0
  -24.8780  -11.6620   20.8330 C   0  0  0  0  0  0  0  0  0  0  0  0
  -26.5880  -12.8180   20.2570 N   0  0  0  0  0  0  0  0  0  0  0  0
  -26.1560  -11.5540   20.4960 N   0  0  0  0  0  0  0  0  0  0  0  0
  -24.0860  -10.4400   21.0130 C   0  0  0  0  0  0  0  0  0  0  0  0
  -24.4620   -9.4430   21.9410 C   0  0  0  0  0  3  0  0  0  0  0  0
  -23.6730   -8.2850   22.1050 C   0  0  0  0  0  3  0  0  0  0  0  0
  -22.4930   -8.1160   21.3420 C   0  0  0  0  0  0  0  0  0  0  0  0
  -22.1370   -9.0990   20.4030 C   0  0  0  0  0  3  0  0  0  0  0  0
  -22.9250  -10.2490   20.2360 C   0  0  0  0  0  3  0  0  0  0  0  0
  -21.6810   -7.0110   21.4150 O   0  0  0  0  0  0  0  0  0  0  0  0
  -21.5600   -6.2830   22.5710 C   0  0  0  0  0  0  0  0  0  0  0  0
  -21.1110   -6.8670   23.7760 C   0  0  0  0  0  3  0  0  0  0  0  0
  -20.9330   -6.0670   24.9220 C   0  0  0  0  0  3  0  0  0  0  0  0
  -21.1970   -4.6860   24.8650 C   0  0  0  0  0  0  0  0  0  0  0  0
  -21.6400   -4.1010   23.6660 C   0  0  0  0  0  3  0  0  0  0  0  0
  -21.8180   -4.8980   22.5210 C   0  0  0  0  0  0  0  0  0  0  0  0
  -22.2260   -4.3260   21.3620 F   0  0  0  0  0  0  0  0  0  0  0  0
  -21.0200   -3.9170   25.9640 F   0  0  0  0  0  0  0  0  0  0  0  0
  -23.1370  -13.5880   21.2230 C   0  0  0  0  0  0  0  0  0  0  0  0
  -22.3930  -12.9260   22.1040 N   0  0  0  0  0  0  0  0  0  0  0  0
  -22.7430  -14.6410   20.7240 O   0  0  0  0  0  0  0  0  0  0  0  0
  -22.7240  -12.0750   22.5320 H   0  0  0  0  0  0  0  0  0  0  0  0
  -21.4820  -13.2810   22.3550 H   0  0  0  0  0  0  0  0  0  0  0  0
  -25.8410  -15.1180   20.3810 N   0  0  0  0  0  0  0  0  0  0  0  0
  -25.1140  -15.8110   20.5320 H   0  0  0  0  0  0  0  0  0  0  0  0
  -26.7020  -15.5150   20.0290 H   0  0  0  0  0  0  0  0  0  0  0  0
  -33.9560  -20.9020   24.3770 C   0  0  0  0  0  2  0  0  0  0  0  0
  -32.9800  -21.3210   23.4340 O   0  0  0  0  0  0  0  0  0  0  0  0
  -31.6650  -20.8880   23.7520 C   0  0  0  0  0  2  0  0  0  0  0  0
  -30.7650  -21.2180   22.5570 C   0  0  0  0  0  2  0  0  0  0  0  0
  -30.4820  -22.6130   22.5560 O   0  0  0  0  0  0  0  0  0  0  0  0
  -30.2040  -23.1150   21.2590 C   0  0  0  0  0  2  0  0  0  0  0  0
  -29.8240  -24.5900   21.3800 C   0  0  0  0  0  2  0  0  0  0  0  0
  -29.4070  -25.2130   20.0330 C   0  0  0  0  0  2  0  0  0  0  0  0
  -28.7720  -26.5950   20.1940 C   0  0  0  0  0  0  0  0  0  0  0  0
  -28.9740  -27.2750   21.2060 O   0  0  0  0  0  0  0  0  0  0  0  0
  -27.9370  -26.9020   19.1680 O   0  0  0  0  0  0  0  0  0  0  0  0
  -24.5240  -31.7340   23.1390 C   0  0  0  0  0  0  0  0  0  0  0  0
  -26.8210  -27.6870   19.3640 C   0  0  0  0  0  0  0  0  0  0  0  0
  -23.1410  -30.5140   21.4860 C   0  0  0  0  0  3  0  0  0  0  0  0
  -24.4310  -29.1420   19.7640 C   0  0  0  0  0  0  0  0  0  0  0  0
  -25.6290  -30.9140   21.0660 C   0  0  0  0  0  2  0  0  0  0  0  0
  -25.6400  -29.6220   20.2800 C   0  0  0  0  0  0  0  0  0  0  0  0
  -26.8360  -28.9090   20.0750 C   0  0  0  0  0  3  0  0  0  0  0  0
  -25.5970  -27.2170   18.8430 C   0  0  0  0  0  3  0  0  0  0  0  0
  -24.4040  -27.9360   19.0390 C   0  0  0  0  0  3  0  0  0  0  0  0
  -23.2000  -29.9800   20.0280 C   0  0  0  0  0  2  0  0  0  0  0  0
  -24.4560  -31.0600   21.9560 N   0  0  0  0  0  0  0  0  0  0  0  0
  -23.5090  -31.9460   23.8160 O   0  0  0  0  0  0  0  0  0  0  0  0
  -22.5830  -29.3970   22.3960 C   0  0  0  0  0  0  0  0  0  0  0  0
  -21.2520  -29.2170   22.3730 N   0  0  0  0  0  0  0  0  0  0  0  0
  -23.3390  -28.7000   23.0780 O   0  0  0  0  0  0  0  0  0  0  0  0
  -20.7020  -29.8360   21.7930 H   0  0  0  0  0  0  0  0  0  0  0  0
  -17.9440  -27.9090   22.9960 C   0  0  0  0  0  0  0  0  0  0  0  0
  -20.5100  -28.2010   23.1150 C   0  0  0  0  0  3  0  0  0  0  0  0
  -20.5970  -26.8250   22.4140 C   0  0  0  0  0  2  0  0  0  0  0  0
  -19.4340  -26.5630   21.4530 C   0  0  0  0  0  2  0  0  0  0  0  0
  -18.0980  -26.6240   22.1990 C   0  0  0  0  0  2  0  0  0  0  0  0
  -19.0770  -28.6580   23.4120 C   0  0  0  0  0  0  0  0  0  0  0  0
  -18.8790  -29.8640   24.1170 C   0  0  0  0  0  3  0  0  0  0  0  0
  -17.5810  -30.3220   24.4120 C   0  0  0  0  0  3  0  0  0  0  0  0
  -16.4640  -29.5690   24.0100 C   0  0  0  0  0  3  0  0  0  0  0  0
  -16.6470  -28.3640   23.3080 C   0  0  0  0  0  3  0  0  0  0  0  0
  -25.8770  -32.2940   23.6850 C   0  0  0  0  0  3  0  0  0  0  0  0
  -25.6350  -33.6680   24.1420 N   0  0  0  0  0  0  0  0  0  0  0  0
  -25.9430  -34.7670   23.4420 C   0  0  0  0  0  0  0  0  0  0  0  0
  -26.5370  -34.7280   22.3590 O   0  0  0  0  0  0  0  0  0  0  0  0
  -25.1040  -33.7750   24.9940 H   0  0  0  0  0  0  0  0  0  0  0  0
  -24.2470  -36.6200   23.3440 C   0  0  0  0  0  1  0  0  0  0  0  0
  -25.5290  -36.1270   24.0330 C   0  0  0  0  0  3  0  0  0  0  0  0
  -27.7380  -36.8980   24.7780 C   0  0  0  0  0  1  0  0  0  0  0  0
  -26.5810  -37.1610   23.9260 N   0  0  0  0  0  0  0  0  0  0  0  0
  -26.2110  -38.0770   24.1670 H   0  0  0  0  0  0  0  0  0  0  0  0
  -26.4890  -31.4180   24.8470 C   0  0  1  0  0  0  0  0  0  0  0  0
  -25.5000  -31.1320   25.9990 C   0  0  0  0  0  1  0  0  0  0  0  0
  -26.9860  -30.0580   24.3010 C   0  0  0  0  0  1  0  0  0  0  0  0
  -27.7240  -32.1300   25.4470 C   0  0  0  0  0  1  0  0  0  0  0  0
  1 54  1  0
  2  1  1  0
  3  2  1  0
  4  3  1  0
  5  6  1  0
  6  4  1  0
  6  8  1  0
  7  5  2  0
  9 11  2  0
  9 10  1  0
 10 13  2  0
 11 14  1  0
 13 12  1  0
 13  5  1  0
 14 12  2  0
 15 14  1  0
 15 24  1  0
 16 22  1  0
 16 24  1  0
 17 22  1  0
 18 19  1  0
 18 17  1  0
 20 19  1  0
 20 29  1  0
 20 21  1  0
 22 21  1  0
 23 16  2  0
 24 25  1  0
 26 27  2  0
 27 46  1  0
 28 27  1  0
 28 31  1  0
 29 30  1  0
 29 26  1  0
 30 28  2  0
 31 32  1  0
 32 33  2  0
 34 37  1  0
 34 33  1  0
 35 34  2  0
 36 35  1  0
 36 31  2  0
 37 38  1  0
 38 39  1  0
 39 40  2  0
 41 40  1  0
 41 45  1  0
 42 41  2  0
 43 38  2  0
 43 42  1  0
 44 43  1  0
 46 47  1  0
 47 50  1  0
 47 49  1  0
 48 46  2  0
 51 26  1  0
 51 52  1  0
 53 51  1  0
 55 56  1  0
 55 54  1  0
 57 56  1  0
 58 57  1  0
 59 60  1  0
 59 58  1  0
 61 62  1  0
 61 60  1  0
 62 63  2  0
 64 66  1  0
 64 62  1  0
 65 76  2  0
 66 71  1  0
 67 75  1  0
 67 77  1  0
 68 74  1  0
 68 70  1  0
 69 75  1  0
 70 69  1  0
 71 70  2  0
 72 73  1  0
 72 66  2  0
 73 68  2  0
 74 67  1  0
 75 65  1  0
 77 79  2  0
 78 77  1  0
 80 78  1  0
 81 90  2  0
 81 86  1  0
 82 78  1  0
 82 86  1  0
 83 82  1  0
 84 85  1  0
 84 83  1  0
 85 81  1  0
 86 87  2  0
 87 88  1  0
 89 88  2  0
 90 89  1  0
 91 65  1  0
 91 92  1  0
 91101  1  0
 92 95  1  0
 93 97  1  0
 93 92  1  0
 94 93  2  0
 97 96  1  0
 99 97  1  0
 99100  1  0
 99 98  1  0
101104  1  1
101102  1  0
103101  1  0
M  ISO  4  16 100  24 100  62 101  64 101
M  END
>  <TORSDO>  (36) 
F 31

>  <SCORE>  (36) 
-8.663

>  <name>  (36) 
36

>  <ligand_id>  (36) 
36

>  <original_smiles>  (36) 
[H]c1c([H])c(C(=O)N([H])C([H])([H])C([H])([H])OC([H])([H])C([H])([H])OC([H])([H])C([H])([H])OC([H])([H])C([H])([H])C([H])([H])C(=O)Oc2c([H])c([H])c3c(c2[H])C([H])([H])N(C(=O)C([H])(N([H])C(=O)C([H])(N([H])C([H])([H])[H])C([H])([H])[H])C(C([H])([H])[H])(C([H])([H])[H])C([H])([H])[H])C([H])(C(=O)N([H])C2([H])c4c([H])c([H])c([H])c([H])c4C([H])([H])C([H])([H])C2([H])[H])C3([H])[H])c([H])c(C([H])([H])N([H])C(=O)N2C([H])([H])C([H])([H])C([H])([H])C([H])(n3nc(-c4c([H])c([H])c(Oc5c([H])c([H])c(F)c([H])c5F)c([H])c4[H])c(C(=O)N([H])[H])c3N([H])[H])C2([H])[H])c1[H]

>  <smiles>  (36) 
[H]c1c([H])c(C(=O)N([H])C([H])([H])C([H])([H])OC([H])([H])C([H])([H])OC([H])([H])C([H])([H])OC([H])([H])C([H])([H])C([H])([H])C(=O)Oc2c([H])c([H])c3c(c2[H])C([H])([H])N(C(=O)C([H])(N([H])C(=O)C([H])(N([H])C([H])([H])[H])C([H])([H])[H])C(C([H])([H])[H])(C([H])([H])[H])C([H])([H])[H])C([H])(C(=O)N([H])C2([H])c4c([H])c([H])c([H])c([H])c4C([H])([H])C([H])([H])C2([H])[H])C3([H])[H])c([H])c(C([H])([H])N([H])C(=O)N2C([H])([H])C([H])([H])C([H])([H])C([H])(n3nc(-c4c([H])c([H])c(Oc5c([H])c([H])c(F)c([H])c5F)c([H])c4[H])c(C(=O)N([H])[H])c3N([H])[H])C2([H])[H])c1[H]

$$$$
37:0:0
     RDKit          3D

 94102  0  0  1  0  0  0  0  0999 V2000
  -27.7950  -21.3360   20.4210 C   0  0  0  0  0  2  0  0  0  0  0  0
  -28.5940  -20.0350   20.3880 C   0  0  0  0  0  2  0  0  0  0  0  0
  -29.9460  -20.3330   20.7130 O   0  0  0  0  0  0  0  0  0  0  0  0
  -33.1700  -18.5960   21.0860 C   0  0  0  0  0  3  0  0  0  0  0  0
  -32.7930  -17.2440   21.0060 C   0  0  0  0  0  3  0  0  0  0  0  0
  -32.1960  -19.6090   20.9810 C   0  0  0  0  0  3  0  0  0  0  0  0
  -30.4590  -17.9220   20.7480 C   0  0  0  0  0  3  0  0  0  0  0  0
  -31.4360  -16.9100   20.8250 C   0  0  0  0  0  0  0  0  0  0  0  0
  -30.8350  -19.2850   20.8110 C   0  0  0  0  0  0  0  0  0  0  0  0
  -31.3680  -14.7150   19.7750 C   0  0  0  0  0  0  0  0  0  0  0  0
  -30.9730  -12.4690   18.8350 C   0  0  0  0  0  2  0  0  0  0  0  0
  -29.9620  -12.4960   17.6750 C   0  0  0  0  0  2  0  0  0  0  0  0
  -28.5200  -12.3980   18.2050 C   0  0  0  0  0  2  0  0  0  0  0  0
  -28.2370  -13.4140   19.3420 C   0  0  0  0  0  3  0  0  0  0  0  0
  -29.3460  -13.3530   20.4150 C   0  0  0  0  0  2  0  0  0  0  0  0
  -30.6530  -13.5620   19.7600 N   0  0  0  0  0  0  0  0  0  0  0  0
  -32.3100  -14.9430   19.0060 O   0  0  0  0  0  0  0  0  0  0  0  0
  -31.0310  -15.5620   20.7540 N   0  0  0  0  0  0  0  0  0  0  0  0
  -30.2480  -15.2810   21.3250 H   0  0  0  0  0  0  0  0  0  0  0  0
  -25.9250  -14.1290   20.2270 C   0  0  0  0  0  0  0  0  0  0  0  0
  -24.8570  -13.4050   20.6860 C   0  0  0  0  0  0  0  0  0  0  0  0
  -25.2570  -12.0340   20.6290 C   0  0  0  0  0  0  0  0  0  0  0  0
  -26.9120  -13.2030   19.9240 N   0  0  0  0  0  0  0  0  0  0  0  0
  -26.5150  -11.9380   20.2200 N   0  0  0  0  0  0  0  0  0  0  0  0
  -24.4970  -10.8040   20.8880 C   0  0  0  0  0  0  0  0  0  0  0  0
  -24.8810   -9.9000   21.9020 C   0  0  0  0  0  3  0  0  0  0  0  0
  -24.1250   -8.7330   22.1440 C   0  0  0  0  0  3  0  0  0  0  0  0
  -22.9710   -8.4630   21.3720 C   0  0  0  0  0  0  0  0  0  0  0  0
  -22.6060   -9.3550   20.3490 C   0  0  0  0  0  3  0  0  0  0  0  0
  -23.3630  -10.5140   20.1060 C   0  0  0  0  0  3  0  0  0  0  0  0
  -22.1900   -7.3420   21.5170 O   0  0  0  0  0  0  0  0  0  0  0  0
  -22.0100   -6.7450   22.7390 C   0  0  0  0  0  0  0  0  0  0  0  0
  -21.4370   -7.4350   23.8290 C   0  0  0  0  0  3  0  0  0  0  0  0
  -21.2050   -6.7630   25.0450 C   0  0  0  0  0  3  0  0  0  0  0  0
  -21.5360   -5.4010   25.1720 C   0  0  0  0  0  0  0  0  0  0  0  0
  -22.1000   -4.7090   24.0860 C   0  0  0  0  0  3  0  0  0  0  0  0
  -22.3340   -5.3790   22.8720 C   0  0  0  0  0  0  0  0  0  0  0  0
  -22.8580   -4.7030   21.8210 F   0  0  0  0  0  0  0  0  0  0  0  0
  -21.3060   -4.7520   26.3380 F   0  0  0  0  0  0  0  0  0  0  0  0
  -23.5070  -13.9410   21.0660 C   0  0  0  0  0  0  0  0  0  0  0  0
  -22.8340  -13.2920   22.0100 N   0  0  0  0  0  0  0  0  0  0  0  0
  -23.0620  -14.9700   20.5610 O   0  0  0  0  0  0  0  0  0  0  0  0
  -23.2080  -12.4600   22.4400 H   0  0  0  0  0  0  0  0  0  0  0  0
  -21.9320  -13.6350   22.3080 H   0  0  0  0  0  0  0  0  0  0  0  0
  -26.1320  -15.4900   20.0260 N   0  0  0  0  0  0  0  0  0  0  0  0
  -25.4060  -16.1780   20.1870 H   0  0  0  0  0  0  0  0  0  0  0  0
  -26.9750  -15.8870   19.6270 H   0  0  0  0  0  0  0  0  0  0  0  0
  -26.3900  -21.1860   19.8130 C   0  0  0  0  0  2  0  0  0  0  0  0
  -25.7500  -22.4390   19.5680 O   0  0  0  0  0  0  0  0  0  0  0  0
  -25.4830  -23.2260   20.7260 C   0  0  0  0  0  2  0  0  0  0  0  0
  -27.4690  -25.0200   21.0370 C   0  0  0  0  0  0  0  0  0  0  0  0
  -26.5740  -24.1920   20.9380 C   0  0  0  0  0  0  0  0  0  0  0  0
  -28.4600  -26.1150   21.0590 C   0  0  0  0  0  2  0  0  0  0  0  0
  -28.3230  -26.9590   19.9100 O   0  0  0  0  0  0  0  0  0  0  0  0
  -24.4530  -31.9250   23.2120 C   0  0  0  0  0  0  0  0  0  0  0  0
  -27.1820  -27.7220   19.9170 C   0  0  0  0  0  0  0  0  0  0  0  0
  -23.2920  -30.6380   21.4470 C   0  0  0  0  0  3  0  0  0  0  0  0
  -24.7870  -29.2020   19.9610 C   0  0  0  0  0  0  0  0  0  0  0  0
  -25.8200  -31.0090   21.3470 C   0  0  0  0  0  2  0  0  0  0  0  0
  -25.9230  -29.6850   20.6250 C   0  0  0  0  0  0  0  0  0  0  0  0
  -27.1240  -28.9450   20.6150 C   0  0  0  0  0  3  0  0  0  0  0  0
  -26.0430  -27.2570   19.2300 C   0  0  0  0  0  3  0  0  0  0  0  0
  -24.8380  -27.9820   19.2640 C   0  0  0  0  0  3  0  0  0  0  0  0
  -23.5410  -30.0530   20.0300 C   0  0  0  0  0  2  0  0  0  0  0  0
  -24.5380  -31.2010   22.0610 N   0  0  0  0  0  0  0  0  0  0  0  0
  -23.3580  -32.1640   23.7380 O   0  0  0  0  0  0  0  0  0  0  0  0
  -22.6150  -29.5570   22.3190 C   0  0  0  0  0  0  0  0  0  0  0  0
  -21.2990  -29.3720   22.1260 N   0  0  0  0  0  0  0  0  0  0  0  0
  -23.2710  -28.8920   23.1250 O   0  0  0  0  0  0  0  0  0  0  0  0
  -20.8310  -29.9660   21.4550 H   0  0  0  0  0  0  0  0  0  0  0  0
  -17.9190  -28.1350   22.4170 C   0  0  0  0  0  0  0  0  0  0  0  0
  -20.4610  -28.3870   22.8070 C   0  0  0  0  0  3  0  0  0  0  0  0
  -20.5960  -26.9930   22.1530 C   0  0  0  0  0  2  0  0  0  0  0  0
  -19.5390  -26.7260   21.0780 C   0  0  0  0  0  2  0  0  0  0  0  0
  -18.1310  -26.8280   21.6730 C   0  0  0  0  0  2  0  0  0  0  0  0
  -19.0140  -28.8750   22.9370 C   0  0  0  0  0  0  0  0  0  0  0  0
  -18.7640  -30.1010   23.5910 C   0  0  0  0  0  3  0  0  0  0  0  0
  -17.4520  -30.5880   23.7290 C   0  0  0  0  0  3  0  0  0  0  0  0
  -16.3690  -29.8440   23.2280 C   0  0  0  0  0  3  0  0  0  0  0  0
  -16.6030  -28.6190   22.5780 C   0  0  0  0  0  3  0  0  0  0  0  0
  -25.7230  -32.5090   23.9070 C   0  0  0  0  0  3  0  0  0  0  0  0
  -25.4400  -33.9120   24.2360 N   0  0  0  0  0  0  0  0  0  0  0  0
  -25.8430  -34.9600   23.5050 C   0  0  0  0  0  0  0  0  0  0  0  0
  -26.5640  -34.8440   22.5100 O   0  0  0  0  0  0  0  0  0  0  0  0
  -24.8070  -34.0740   25.0040 H   0  0  0  0  0  0  0  0  0  0  0  0
  -24.1890  -36.8060   23.0790 C   0  0  0  0  0  1  0  0  0  0  0  0
  -25.3740  -36.3580   23.9500 C   0  0  0  0  0  3  0  0  0  0  0  0
  -27.4870  -37.1750   24.8980 C   0  0  0  0  0  1  0  0  0  0  0  0
  -26.4410  -37.3800   23.9000 N   0  0  0  0  0  0  0  0  0  0  0  0
  -26.0540  -38.3110   24.0310 H   0  0  0  0  0  0  0  0  0  0  0  0
  -26.1520  -31.7060   25.1960 C   0  0  1  0  0  0  0  0  0  0  0  0
  -24.9990  -31.4790   26.2000 C   0  0  0  0  0  1  0  0  0  0  0  0
  -26.7230  -30.3210   24.8110 C   0  0  0  0  0  1  0  0  0  0  0  0
  -27.2810  -32.4640   25.9330 C   0  0  0  0  0  1  0  0  0  0  0  0
  2  1  1  0
  2  3  1  0
  3  9  1  0
  5  4  1  0
  6  4  2  0
  7  9  2  0
  7  8  1  0
  8  5  2  0
  9  6  1  0
 10 18  1  0
 11 16  1  0
 12 13  1  0
 12 11  1  0
 14 13  1  0
 14 23  1  0
 14 15  1  0
 16 10  1  0
 16 15  1  0
 17 10  2  0
 18  8  1  0
 18 19  1  0
 20 21  2  0
 21 40  1  0
 22 21  1  0
 22 25  1  0
 23 24  1  0
 23 20  1  0
 24 22  2  0
 25 26  1  0
 26 27  2  0
 28 31  1  0
 28 27  1  0
 29 28  2  0
 30 29  1  0
 30 25  2  0
 31 32  1  0
 32 37  2  0
 32 33  1  0
 33 34  2  0
 34 35  1  0
 35 39  1  0
 36 35  2  0
 37 36  1  0
 38 37  1  0
 40 41  1  0
 41 44  1  0
 41 43  1  0
 42 40  2  0
 45 46  1  0
 45 20  1  0
 47 45  1  0
 48  1  1  0
 49 48  1  0
 49 50  1  0
 50 52  1  0
 51 53  1  0
 52 51  3  0
 54 56  1  0
 54 53  1  0
 55 66  2  0
 56 61  1  0
 57 65  1  0
 57 67  1  0
 58 64  1  0
 58 60  1  0
 59 65  1  0
 60 59  1  0
 61 60  2  0
 62 63  1  0
 62 56  2  0
 63 58  2  0
 64 57  1  0
 65 55  1  0
 67 69  2  0
 68 67  1  0
 70 68  1  0
 71 80  2  0
 71 76  1  0
 72 68  1  0
 72 76  1  0
 73 72  1  0
 74 75  1  0
 74 73  1  0
 75 71  1  0
 76 77  2  0
 77 78  1  0
 79 78  2  0
 80 79  1  0
 81 55  1  0
 81 82  1  0
 81 91  1  0
 82 85  1  0
 83 87  1  0
 83 82  1  0
 84 83  2  0
 87 86  1  0
 89 87  1  0
 89 90  1  0
 89 88  1  0
 91 94  1  1
 91 92  1  0
 93 91  1  0
M  ISO  4  10 100  18 100  53 101  54 101
M  END
>  <TORSDO>  (37) 
F 24

>  <SCORE>  (37) 
-9.608

>  <name>  (37) 
37

>  <ligand_id>  (37) 
37

>  <original_smiles>  (37) 
[H]c1c([H])c(OC([H])([H])C([H])([H])C([H])([H])OC([H])([H])C#CC([H])([H])Oc2c([H])c([H])c3c(c2[H])C([H])([H])N(C(=O)C([H])(N([H])C(=O)C([H])(N([H])C([H])([H])[H])C([H])([H])[H])C(C([H])([H])[H])(C([H])([H])[H])C([H])([H])[H])C([H])(C(=O)N([H])C2([H])c4c([H])c([H])c([H])c([H])c4C([H])([H])C([H])([H])C2([H])[H])C3([H])[H])c([H])c(N([H])C(=O)N2C([H])([H])C([H])([H])C([H])([H])C([H])(n3nc(-c4c([H])c([H])c(Oc5c([H])c([H])c(F)c([H])c5F)c([H])c4[H])c(C(=O)N([H])[H])c3N([H])[H])C2([H])[H])c1[H]

>  <smiles>  (37) 
[H]c1c([H])c(OC([H])([H])C([H])([H])C([H])([H])OC([H])([H])C#CC([H])([H])Oc2c([H])c([H])c3c(c2[H])C([H])([H])N(C(=O)C([H])(N([H])C(=O)C([H])(N([H])C([H])([H])[H])C([H])([H])[H])C(C([H])([H])[H])(C([H])([H])[H])C([H])([H])[H])C([H])(C(=O)N([H])C2([H])c4c([H])c([H])c([H])c([H])c4C([H])([H])C([H])([H])C2([H])[H])C3([H])[H])c([H])c(N([H])C(=O)N2C([H])([H])C([H])([H])C([H])([H])C([H])(n3nc(-c4c([H])c([H])c(Oc5c([H])c([H])c(F)c([H])c5F)c([H])c4[H])c(C(=O)N([H])[H])c3N([H])[H])C2([H])[H])c1[H]

$$$$
38:0:0
     RDKit          3D

 85 92  0  0  1  0  0  0  0  0999 V2000
  -28.9650  -23.3830   20.3610 C   0  0  0  0  0  3  0  0  0  0  0  0
  -27.9430  -24.7050   20.1010 C   0  0  0  0  0  3  0  0  0  0  0  0
  -28.2270  -26.2300   20.2780 O   0  0  0  0  0  0  0  0  0  0  0  0
  -24.6030  -31.9250   23.2450 C   0  0  0  0  0  0  0  0  0  0  0  0
  -27.1750  -27.2150   20.2080 C   0  0  0  0  0  0  0  0  0  0  0  0
  -23.4040  -30.5400   21.5970 C   0  0  0  0  0  3  0  0  0  0  0  0
  -24.8520  -28.9660   20.1720 C   0  0  0  0  0  0  0  0  0  0  0  0
  -25.9590  -30.7980   21.4430 C   0  0  0  0  0  2  0  0  0  0  0  0
  -26.0310  -29.4070   20.7860 C   0  0  0  0  0  0  0  0  0  0  0  0
  -27.1930  -28.5480   20.7860 C   0  0  0  0  0  3  0  0  0  0  0  0
  -25.9670  -26.8750   19.5570 C   0  0  0  0  0  3  0  0  0  0  0  0
  -24.8330  -27.7140   19.5420 C   0  0  0  0  0  3  0  0  0  0  0  0
  -23.6270  -29.8680   20.2160 C   0  0  0  0  0  2  0  0  0  0  0  0
  -24.6760  -31.1090   22.1500 N   0  0  0  0  0  0  0  0  0  0  0  0
  -23.5160  -32.2120   23.7690 O   0  0  0  0  0  0  0  0  0  0  0  0
  -22.7180  -29.5320   22.5530 C   0  0  0  0  0  0  0  0  0  0  0  0
  -21.3900  -29.3670   22.4200 N   0  0  0  0  0  0  0  0  0  0  0  0
  -23.3830  -28.9000   23.3780 O   0  0  0  0  0  0  0  0  0  0  0  0
  -20.9090  -29.9270   21.7290 H   0  0  0  0  0  0  0  0  0  0  0  0
  -17.9980  -28.1960   22.9200 C   0  0  0  0  0  0  0  0  0  0  0  0
  -20.5600  -28.4310   23.1840 C   0  0  0  0  0  3  0  0  0  0  0  0
  -20.6460  -27.0020   22.5980 C   0  0  0  0  0  2  0  0  0  0  0  0
  -19.5390  -26.6990   21.5830 C   0  0  0  0  0  2  0  0  0  0  0  0
  -18.1610  -26.8510   22.2310 C   0  0  0  0  0  2  0  0  0  0  0  0
  -19.1240  -28.9450   23.3530 C   0  0  0  0  0  0  0  0  0  0  0  0
  -18.9180  -30.2030   23.9580 C   0  0  0  0  0  3  0  0  0  0  0  0
  -17.6170  -30.7130   24.1340 C   0  0  0  0  0  3  0  0  0  0  0  0
  -16.5060  -29.9610   23.7160 C   0  0  0  0  0  3  0  0  0  0  0  0
  -16.6970  -28.7040   23.1150 C   0  0  0  0  0  3  0  0  0  0  0  0
  -25.8810  -32.5530   23.8790 C   0  0  0  0  0  3  0  0  0  0  0  0
  -25.5770  -33.9560   24.2040 N   0  0  0  0  0  0  0  0  0  0  0  0
  -25.8850  -35.0050   23.4290 C   0  0  0  0  0  0  0  0  0  0  0  0
  -26.5240  -34.8940   22.3800 O   0  0  0  0  0  0  0  0  0  0  0  0
  -25.0050  -34.1160   25.0210 H   0  0  0  0  0  0  0  0  0  0  0  0
  -24.1320  -36.7880   23.1360 C   0  0  0  0  0  1  0  0  0  0  0  0
  -25.4130  -36.3980   23.8920 C   0  0  0  0  0  3  0  0  0  0  0  0
  -27.5760  -37.3120   24.6140 C   0  0  0  0  0  1  0  0  0  0  0  0
  -26.4340  -37.4540   23.7140 N   0  0  0  0  0  0  0  0  0  0  0  0
  -26.0270  -38.3750   23.8600 H   0  0  0  0  0  0  0  0  0  0  0  0
  -26.3750  -31.7860   25.1680 C   0  0  1  0  0  0  0  0  0  0  0  0
  -25.2660  -31.5630   26.2230 C   0  0  0  0  0  1  0  0  0  0  0  0
  -26.9540  -30.4020   24.7960 C   0  0  0  0  0  1  0  0  0  0  0  0
  -27.5210  -32.5780   25.8400 C   0  0  0  0  0  1  0  0  0  0  0  0
  -28.5550  -21.8910   20.2640 O   0  0  0  0  0  0  0  0  0  0  0  0
  -29.5070  -20.6800   20.4130 C   0  0  0  0  0  3  0  0  0  0  0  0
  -29.0720  -19.0440   20.4020 C   0  0  0  0  0  3  0  0  0  0  0  0
  -30.1350  -17.7310   20.4670 C   0  0  0  0  0  2  0  0  0  0  0  0
  -30.4990  -15.0100   20.3410 C   0  0  0  0  0  0  0  0  0  0  0  0
  -30.3560  -12.6770   19.3680 C   0  0  0  0  0  2  0  0  0  0  0  0
  -29.4070  -12.6560   18.1480 C   0  0  0  0  0  2  0  0  0  0  0  0
  -27.9500  -12.4400   18.5970 C   0  0  0  0  0  2  0  0  0  0  0  0
  -27.5590  -13.3470   19.7940 C   0  0  0  0  0  3  0  0  0  0  0  0
  -28.6300  -13.3430   20.9060 C   0  0  0  0  0  2  0  0  0  0  0  0
  -29.8930  -13.7580   20.2830 N   0  0  0  0  0  0  0  0  0  0  0  0
  -31.6980  -15.0740   20.0500 O   0  0  0  0  0  0  0  0  0  0  0  0
  -29.7370  -16.1990   20.5160 N   0  0  0  0  0  0  0  0  0  0  0  0
  -28.7600  -16.0250   20.6980 H   0  0  0  0  0  0  0  0  0  0  0  0
  -25.1860  -13.9060   20.5730 C   0  0  0  0  0  0  0  0  0  0  0  0
  -24.1300  -13.1220   20.9460 C   0  0  0  0  0  0  0  0  0  0  0  0
  -24.5980  -11.7740   20.8900 C   0  0  0  0  0  0  0  0  0  0  0  0
  -26.2300  -13.0360   20.3070 N   0  0  0  0  0  0  0  0  0  0  0  0
  -25.8860  -11.7470   20.5630 N   0  0  0  0  0  0  0  0  0  0  0  0
  -23.8780  -10.5050   21.0690 C   0  0  0  0  0  0  0  0  0  0  0  0
  -24.3050   -9.5390   22.0060 C   0  0  0  0  0  3  0  0  0  0  0  0
  -23.5820   -8.3370   22.1740 C   0  0  0  0  0  3  0  0  0  0  0  0
  -22.4190   -8.0950   21.4050 C   0  0  0  0  0  0  0  0  0  0  0  0
  -22.0120   -9.0510   20.4580 C   0  0  0  0  0  3  0  0  0  0  0  0
  -22.7350  -10.2420   20.2880 C   0  0  0  0  0  3  0  0  0  0  0  0
  -21.6690   -6.9460   21.4830 O   0  0  0  0  0  0  0  0  0  0  0  0
  -21.5900   -6.2160   22.6420 C   0  0  0  0  0  0  0  0  0  0  0  0
  -21.0880   -6.7700   23.8390 C   0  0  0  0  0  3  0  0  0  0  0  0
  -20.9580   -5.9640   24.9890 C   0  0  0  0  0  3  0  0  0  0  0  0
  -21.3200   -4.6050   24.9400 C   0  0  0  0  0  0  0  0  0  0  0  0
  -21.8150   -4.0500   23.7470 C   0  0  0  0  0  3  0  0  0  0  0  0
  -21.9460   -4.8530   22.6000 C   0  0  0  0  0  0  0  0  0  0  0  0
  -22.4030   -4.3070   21.4470 F   0  0  0  0  0  0  0  0  0  0  0  0
  -21.1890   -3.8280   26.0410 F   0  0  0  0  0  0  0  0  0  0  0  0
  -22.7340  -13.5900   21.2370 C   0  0  0  0  0  0  0  0  0  0  0  0
  -22.0190  -12.8840   22.1050 N   0  0  0  0  0  0  0  0  0  0  0  0
  -22.2870  -14.6190   20.7330 O   0  0  0  0  0  0  0  0  0  0  0  0
  -22.3940  -12.0510   22.5360 H   0  0  0  0  0  0  0  0  0  0  0  0
  -21.0830  -13.1790   22.3440 H   0  0  0  0  0  0  0  0  0  0  0  0
  -25.3410  -15.2800   20.4120 N   0  0  0  0  0  0  0  0  0  0  0  0
  -24.5670  -15.9250   20.5350 H   0  0  0  0  0  0  0  0  0  0  0  0
  -26.1700  -15.7260   20.0430 H   0  0  0  0  0  0  0  0  0  0  0  0
  2  3  1  0
  2  1  2  0
  4 15  2  0
  5  3  1  0
  5 10  1  0
  6 14  1  0
  6 16  1  0
  7 13  1  0
  7  9  1  0
  8 14  1  0
  9  8  1  0
 10  9  2  0
 11  5  2  0
 12 11  1  0
 12  7  2  0
 13  6  1  0
 14  4  1  0
 16 18  2  0
 17 16  1  0
 19 17  1  0
 20 29  2  0
 20 25  1  0
 21 17  1  0
 21 25  1  0
 22 21  1  0
 23 24  1  0
 23 22  1  0
 24 20  1  0
 25 26  2  0
 26 27  1  0
 28 27  2  0
 29 28  1  0
 30  4  1  0
 30 31  1  0
 30 40  1  0
 31 34  1  0
 32 36  1  0
 32 31  1  0
 33 32  2  0
 36 35  1  0
 38 39  1  0
 38 36  1  0
 38 37  1  0
 40 43  1  1
 40 41  1  0
 42 40  1  0
 44  1  1  0
 44 45  1  0
 46 45  2  0
 46 47  1  0
 47 56  1  0
 48 56  1  0
 49 54  1  0
 50 51  1  0
 50 49  1  0
 52 51  1  0
 52 61  1  0
 52 53  1  0
 54 48  1  0
 54 53  1  0
 55 48  2  0
 56 57  1  0
 58 59  2  0
 59 78  1  0
 60 59  1  0
 60 63  1  0
 61 62  1  0
 61 58  1  0
 62 60  2  0
 63 64  1  0
 64 65  2  0
 66 69  1  0
 66 65  1  0
 67 66  2  0
 68 67  1  0
 68 63  2  0
 69 70  1  0
 70 71  1  0
 71 72  2  0
 73 72  1  0
 73 77  1  0
 74 73  2  0
 75 70  2  0
 75 74  1  0
 76 75  1  0
 78 79  1  0
 79 82  1  0
 79 81  1  0
 80 78  2  0
 83 84  1  0
 83 58  1  0
 85 83  1  0
M  ISO  4   2 101   3 101  48 100  56 100
M  END
>  <TORSDO>  (38) 
F 21

>  <SCORE>  (38) 
-13.169

>  <name>  (38) 
38

>  <ligand_id>  (38) 
38

>  <original_smiles>  (38) 
[H]c1c([H])c([H])c2c(c1[H])C([H])([H])C([H])([H])C([H])([H])C2([H])N([H])C(=O)C1([H])N(C(=O)C([H])(N([H])C(=O)C([H])(N([H])C([H])([H])[H])C([H])([H])[H])C(C([H])([H])[H])(C([H])([H])[H])C([H])([H])[H])C([H])([H])c2c([H])c(OC([H])([H])C([H])([H])OC([H])([H])C([H])([H])C([H])([H])N([H])C(=O)N3C([H])([H])C([H])([H])C([H])([H])C([H])(n4nc(-c5c([H])c([H])c(Oc6c([H])c([H])c(F)c([H])c6F)c([H])c5[H])c(C(=O)N([H])[H])c4N([H])[H])C3([H])[H])c([H])c([H])c2C1([H])[H]

>  <smiles>  (38) 
[H]c1c([H])c([H])c2c(c1[H])C([H])([H])C([H])([H])C([H])([H])C2([H])N([H])C(=O)C1([H])N(C(=O)C([H])(N([H])C(=O)C([H])(N([H])C([H])([H])[H])C([H])([H])[H])C(C([H])([H])[H])(C([H])([H])[H])C([H])([H])[H])C([H])([H])c2c([H])c(OC([H])([H])C([H])([H])OC([H])([H])C([H])([H])C([H])([H])N([H])C(=O)N3C([H])([H])C([H])([H])C([H])([H])C([H])(n4nc(-c5c([H])c([H])c(Oc6c([H])c([H])c(F)c([H])c6F)c([H])c5[H])c(C(=O)N([H])[H])c4N([H])[H])C3([H])[H])c([H])c([H])c2C1([H])[H]

$$$$
39:0:0
     RDKit          3D

 87 94  0  0  1  0  0  0  0  0999 V2000
  -29.2420  -24.3310   20.4670 C   0  0  0  0  0  2  0  0  0  0  0  0
  -28.2770  -25.4560   20.8980 C   0  0  0  0  0  0  0  0  0  0  0  0
  -27.4940  -25.2790   21.8370 O   0  0  0  0  0  0  0  0  0  0  0  0
  -28.3300  -26.6050   20.1340 O   0  0  0  0  0  0  0  0  0  0  0  0
  -24.5980  -31.8690   23.2070 C   0  0  0  0  0  0  0  0  0  0  0  0
  -27.2090  -27.4120   20.1180 C   0  0  0  0  0  0  0  0  0  0  0  0
  -23.3800  -30.4650   21.5750 C   0  0  0  0  0  3  0  0  0  0  0  0
  -24.8230  -28.9330   20.1340 C   0  0  0  0  0  0  0  0  0  0  0  0
  -25.9050  -30.8240   21.3570 C   0  0  0  0  0  2  0  0  0  0  0  0
  -25.9880  -29.4530   20.7150 C   0  0  0  0  0  0  0  0  0  0  0  0
  -27.1890  -28.7010   20.7040 C   0  0  0  0  0  3  0  0  0  0  0  0
  -26.0330  -26.9220   19.5100 C   0  0  0  0  0  3  0  0  0  0  0  0
  -24.8420  -27.6680   19.5250 C   0  0  0  0  0  3  0  0  0  0  0  0
  -23.5790  -29.7890   20.1930 C   0  0  0  0  0  2  0  0  0  0  0  0
  -24.6470  -31.0680   22.1050 N   0  0  0  0  0  0  0  0  0  0  0  0
  -23.5220  -32.1400   23.7550 O   0  0  0  0  0  0  0  0  0  0  0  0
  -22.7370  -29.4440   22.5410 C   0  0  0  0  0  0  0  0  0  0  0  0
  -21.4100  -29.2650   22.4290 N   0  0  0  0  0  0  0  0  0  0  0  0
  -23.4280  -28.8150   23.3470 O   0  0  0  0  0  0  0  0  0  0  0  0
  -20.9140  -29.8230   21.7490 H   0  0  0  0  0  0  0  0  0  0  0  0
  -18.0400  -28.0700   22.9540 C   0  0  0  0  0  0  0  0  0  0  0  0
  -20.6000  -28.3290   23.2070 C   0  0  0  0  0  3  0  0  0  0  0  0
  -20.6990  -26.8960   22.6330 C   0  0  0  0  0  2  0  0  0  0  0  0
  -19.5890  -26.5720   21.6280 C   0  0  0  0  0  2  0  0  0  0  0  0
  -18.2120  -26.7190   22.2810 C   0  0  0  0  0  2  0  0  0  0  0  0
  -19.1610  -28.8330   23.3750 C   0  0  0  0  0  0  0  0  0  0  0  0
  -18.9470  -30.0980   23.9640 C   0  0  0  0  0  3  0  0  0  0  0  0
  -17.6440  -30.6000   24.1370 C   0  0  0  0  0  3  0  0  0  0  0  0
  -16.5370  -29.8350   23.7330 C   0  0  0  0  0  3  0  0  0  0  0  0
  -16.7350  -28.5710   23.1480 C   0  0  0  0  0  3  0  0  0  0  0  0
  -25.8890  -32.5000   23.8140 C   0  0  0  0  0  3  0  0  0  0  0  0
  -25.5750  -33.8900   24.1730 N   0  0  0  0  0  0  0  0  0  0  0  0
  -25.8830  -34.9570   23.4230 C   0  0  0  0  0  0  0  0  0  0  0  0
  -26.5340  -34.8750   22.3780 O   0  0  0  0  0  0  0  0  0  0  0  0
  -24.9950  -34.0260   24.9880 H   0  0  0  0  0  0  0  0  0  0  0  0
  -24.1280  -36.7340   23.1340 C   0  0  0  0  0  1  0  0  0  0  0  0
  -25.3910  -36.3320   23.9110 C   0  0  0  0  0  3  0  0  0  0  0  0
  -27.5380  -37.2250   24.7000 C   0  0  0  0  0  1  0  0  0  0  0  0
  -26.4100  -37.3980   23.7900 N   0  0  0  0  0  0  0  0  0  0  0  0
  -25.9990  -38.3120   23.9640 H   0  0  0  0  0  0  0  0  0  0  0  0
  -26.4390  -31.7110   25.0650 C   0  0  1  0  0  0  0  0  0  0  0  0
  -25.3710  -31.4460   26.1510 C   0  0  0  0  0  1  0  0  0  0  0  0
  -27.0230  -30.3450   24.6350 C   0  0  0  0  0  1  0  0  0  0  0  0
  -27.5970  -32.5010   25.7170 C   0  0  0  0  0  1  0  0  0  0  0  0
  -28.7760  -22.9090   20.9150 C   0  0  0  0  0  2  0  0  0  0  0  0
  -29.7370  -21.7500   20.5600 C   0  0  0  0  0  2  0  0  0  0  0  0
  -29.1890  -20.4790   20.9500 O   0  0  0  0  0  0  0  0  0  0  0  0
  -30.0960  -19.3820   20.7610 C   0  0  0  0  0  2  0  0  0  0  0  0
  -29.4650  -17.9940   21.0620 C   0  0  0  0  0  2  0  0  0  0  0  0
  -30.4900  -16.8410   20.8940 C   0  0  0  0  0  2  0  0  0  0  0  0
  -29.9590  -15.5050   20.9850 O   0  0  0  0  0  0  0  0  0  0  0  0
  -30.7000  -14.4820   20.4550 C   0  0  0  0  0  0  0  0  0  0  0  0
  -30.3550  -12.2910   19.3380 C   0  0  0  0  0  2  0  0  0  0  0  0
  -29.4250  -12.5120   18.1280 C   0  0  0  0  0  2  0  0  0  0  0  0
  -27.9500  -12.3850   18.5520 C   0  0  0  0  0  2  0  0  0  0  0  0
  -27.6090  -13.2330   19.8090 C   0  0  0  0  0  3  0  0  0  0  0  0
  -28.6550  -13.0370   20.9270 C   0  0  0  0  0  2  0  0  0  0  0  0
  -29.9850  -13.2780   20.3590 N   0  0  0  0  0  0  0  0  0  0  0  0
  -31.8270  -14.6590   19.9880 O   0  0  0  0  0  0  0  0  0  0  0  0
  -25.2130  -13.8400   20.5200 C   0  0  0  0  0  0  0  0  0  0  0  0
  -24.1430  -13.0690   20.8870 C   0  0  0  0  0  0  0  0  0  0  0  0
  -24.6010  -11.7160   20.8530 C   0  0  0  0  0  0  0  0  0  0  0  0
  -26.2550  -12.9580   20.2860 N   0  0  0  0  0  0  0  0  0  0  0  0
  -25.8910  -11.6750   20.5450 N   0  0  0  0  0  0  0  0  0  0  0  0
  -23.8720  -10.4550   21.0410 C   0  0  0  0  0  0  0  0  0  0  0  0
  -24.3240   -9.4670   21.9420 C   0  0  0  0  0  3  0  0  0  0  0  0
  -23.5940   -8.2700   22.1180 C   0  0  0  0  0  3  0  0  0  0  0  0
  -22.3980   -8.0550   21.3930 C   0  0  0  0  0  0  0  0  0  0  0  0
  -21.9660   -9.0330   20.4810 C   0  0  0  0  0  3  0  0  0  0  0  0
  -22.6950  -10.2200   20.3020 C   0  0  0  0  0  3  0  0  0  0  0  0
  -21.6390   -6.9140   21.4800 O   0  0  0  0  0  0  0  0  0  0  0  0
  -21.6420   -6.1310   22.6070 C   0  0  0  0  0  0  0  0  0  0  0  0
  -21.3170   -6.6510   23.8770 C   0  0  0  0  0  3  0  0  0  0  0  0
  -21.2640   -5.7960   24.9960 C   0  0  0  0  0  3  0  0  0  0  0  0
  -21.5290   -4.4220   24.8460 C   0  0  0  0  0  0  0  0  0  0  0  0
  -21.8500   -3.9010   23.5800 C   0  0  0  0  0  3  0  0  0  0  0  0
  -21.9030   -4.7520   22.4630 C   0  0  0  0  0  0  0  0  0  0  0  0
  -22.1910   -4.2410   21.2420 F   0  0  0  0  0  0  0  0  0  0  0  0
  -21.4720   -3.5990   25.9200 F   0  0  0  0  0  0  0  0  0  0  0  0
  -22.7470  -13.5490   21.1600 C   0  0  0  0  0  0  0  0  0  0  0  0
  -22.0190  -12.8550   22.0290 N   0  0  0  0  0  0  0  0  0  0  0  0
  -22.3100  -14.5750   20.6400 O   0  0  0  0  0  0  0  0  0  0  0  0
  -22.3860  -12.0260   22.4710 H   0  0  0  0  0  0  0  0  0  0  0  0
  -21.0830  -13.1590   22.2550 H   0  0  0  0  0  0  0  0  0  0  0  0
  -25.3830  -15.2110   20.3480 N   0  0  0  0  0  0  0  0  0  0  0  0
  -24.6250  -15.8740   20.4670 H   0  0  0  0  0  0  0  0  0  0  0  0
  -26.2490  -15.6460   20.0530 H   0  0  0  0  0  0  0  0  0  0  0  0
  1  2  1  0
  1 45  1  0
  2  3  2  0
  4  2  1  0
  5 16  2  0
  6  4  1  0
  6 11  1  0
  7 15  1  0
  7 17  1  0
  8 14  1  0
  8 10  1  0
  9 15  1  0
 10  9  1  0
 11 10  2  0
 12 13  1  0
 12  6  2  0
 13  8  2  0
 14  7  1  0
 15  5  1  0
 17 19  2  0
 18 17  1  0
 20 18  1  0
 21 30  2  0
 21 26  1  0
 22 18  1  0
 22 26  1  0
 23 22  1  0
 24 25  1  0
 24 23  1  0
 25 21  1  0
 26 27  2  0
 27 28  1  0
 29 28  2  0
 30 29  1  0
 31  5  1  0
 31 32  1  0
 31 41  1  0
 32 35  1  0
 33 37  1  0
 33 32  1  0
 34 33  2  0
 37 36  1  0
 39 37  1  0
 39 40  1  0
 39 38  1  0
 41 44  1  1
 41 42  1  0
 43 41  1  0
 46 45  1  0
 46 47  1  0
 48 47  1  0
 48 49  1  0
 50 51  1  0
 50 49  1  0
 52 51  1  0
 53 58  1  0
 54 55  1  0
 54 53  1  0
 56 55  1  0
 56 63  1  0
 56 57  1  0
 58 52  1  0
 58 57  1  0
 59 52  2  0
 60 61  2  0
 61 80  1  0
 62 61  1  0
 62 65  1  0
 63 60  1  0
 63 64  1  0
 64 62  2  0
 65 66  1  0
 66 67  2  0
 68 71  1  0
 68 67  1  0
 69 68  2  0
 70 69  1  0
 70 65  2  0
 71 72  1  0
 72 73  1  0
 73 74  2  0
 75 74  1  0
 75 79  1  0
 76 75  2  0
 77 72  2  0
 77 76  1  0
 78 77  1  0
 80 81  1  0
 81 84  1  0
 81 83  1  0
 82 80  2  0
 85 86  1  0
 85 60  1  0
 87 85  1  0
M  ISO  4   2 101   4 101  51 100  52 100
M  END
>  <TORSDO>  (39) 
F 24

>  <SCORE>  (39) 
-12.280

>  <name>  (39) 
39

>  <ligand_id>  (39) 
39

>  <original_smiles>  (39) 
[H]c1c([H])c([H])c2c(c1[H])C([H])([H])C([H])([H])C([H])([H])C2([H])N([H])C(=O)C1([H])N(C(=O)C([H])(N([H])C(=O)C([H])(N([H])C([H])([H])[H])C([H])([H])[H])C(C([H])([H])[H])(C([H])([H])[H])C([H])([H])[H])C([H])([H])c2c([H])c(OC(=O)C([H])([H])C([H])([H])C([H])([H])OC([H])([H])C([H])([H])C([H])([H])OC(=O)N3C([H])([H])C([H])([H])C([H])([H])C([H])(n4nc(-c5c([H])c([H])c(Oc6c([H])c([H])c(F)c([H])c6F)c([H])c5[H])c(C(=O)N([H])[H])c4N([H])[H])C3([H])[H])c([H])c([H])c2C1([H])[H]

>  <smiles>  (39) 
[H]c1c([H])c([H])c2c(c1[H])C([H])([H])C([H])([H])C([H])([H])C2([H])N([H])C(=O)C1([H])N(C(=O)C([H])(N([H])C(=O)C([H])(N([H])C([H])([H])[H])C([H])([H])[H])C(C([H])([H])[H])(C([H])([H])[H])C([H])([H])[H])C([H])([H])c2c([H])c(OC(=O)C([H])([H])C([H])([H])C([H])([H])OC([H])([H])C([H])([H])C([H])([H])OC(=O)N3C([H])([H])C([H])([H])C([H])([H])C([H])(n4nc(-c5c([H])c([H])c(Oc6c([H])c([H])c(F)c([H])c6F)c([H])c5[H])c(C(=O)N([H])[H])c4N([H])[H])C3([H])[H])c([H])c([H])c2C1([H])[H]

$$$$
40:0:0
     RDKit          3D

 87 94  0  0  1  0  0  0  0  0999 V2000
  -29.1130  -22.7980   20.1480 O   0  0  0  0  0  0  0  0  0  0  0  0
  -29.2650  -24.1800   20.5710 C   0  0  0  0  0  2  0  0  0  0  0  0
  -28.1950  -25.1410   19.9510 C   0  0  0  0  0  2  0  0  0  0  0  0
  -28.3440  -26.5690   20.2300 O   0  0  0  0  0  0  0  0  0  0  0  0
  -24.6030  -31.8820   23.2540 C   0  0  0  0  0  0  0  0  0  0  0  0
  -27.2030  -27.3700   20.1730 C   0  0  0  0  0  0  0  0  0  0  0  0
  -23.3880  -30.4910   21.6140 C   0  0  0  0  0  3  0  0  0  0  0  0
  -24.8290  -28.9470   20.1790 C   0  0  0  0  0  0  0  0  0  0  0  0
  -25.9230  -30.8160   21.4190 C   0  0  0  0  0  2  0  0  0  0  0  0
  -25.9960  -29.4430   20.7740 C   0  0  0  0  0  0  0  0  0  0  0  0
  -27.1840  -28.6630   20.7670 C   0  0  0  0  0  3  0  0  0  0  0  0
  -26.0140  -26.9200   19.5460 C   0  0  0  0  0  3  0  0  0  0  0  0
  -24.8370  -27.6890   19.5590 C   0  0  0  0  0  3  0  0  0  0  0  0
  -23.5920  -29.8180   20.2320 C   0  0  0  0  0  2  0  0  0  0  0  0
  -24.6560  -31.0790   22.1530 N   0  0  0  0  0  0  0  0  0  0  0  0
  -23.5240  -32.1610   23.7950 O   0  0  0  0  0  0  0  0  0  0  0  0
  -22.7290  -29.4710   22.5730 C   0  0  0  0  0  0  0  0  0  0  0  0
  -21.4040  -29.2960   22.4460 N   0  0  0  0  0  0  0  0  0  0  0  0
  -23.4090  -28.8420   23.3890 O   0  0  0  0  0  0  0  0  0  0  0  0
  -20.9160  -29.8550   21.7610 H   0  0  0  0  0  0  0  0  0  0  0  0
  -18.0240  -28.1080   22.9390 C   0  0  0  0  0  0  0  0  0  0  0  0
  -20.5820  -28.3620   23.2170 C   0  0  0  0  0  3  0  0  0  0  0  0
  -20.6820  -26.9290   22.6440 C   0  0  0  0  0  2  0  0  0  0  0  0
  -19.5830  -26.6070   21.6270 C   0  0  0  0  0  2  0  0  0  0  0  0
  -18.2000  -26.7570   22.2670 C   0  0  0  0  0  2  0  0  0  0  0  0
  -19.1430  -28.8680   23.3700 C   0  0  0  0  0  0  0  0  0  0  0  0
  -18.9250  -30.1340   23.9590 C   0  0  0  0  0  3  0  0  0  0  0  0
  -17.6220  -30.6390   24.1180 C   0  0  0  0  0  3  0  0  0  0  0  0
  -16.5170  -29.8760   23.7040 C   0  0  0  0  0  3  0  0  0  0  0  0
  -16.7190  -28.6120   23.1200 C   0  0  0  0  0  3  0  0  0  0  0  0
  -25.8930  -32.5060   23.8720 C   0  0  0  0  0  3  0  0  0  0  0  0
  -26.4080  -31.7310   25.1470 C   0  0  1  0  0  0  0  0  0  0  0  0
  -25.3180  -31.5010   26.2190 C   0  0  0  0  0  1  0  0  0  0  0  0
  -26.9820  -30.3500   24.7520 C   0  0  0  0  0  1  0  0  0  0  0  0
  -27.5640  -32.5190   25.8080 C   0  0  0  0  0  1  0  0  0  0  0  0
  -25.5920  -33.9060   24.2030 N   0  0  0  0  0  0  0  0  0  0  0  0
  -25.9250  -34.9570   23.4410 C   0  0  0  0  0  0  0  0  0  0  0  0
  -26.5890  -34.8480   22.4060 O   0  0  0  0  0  0  0  0  0  0  0  0
  -25.0030  -34.0650   25.0080 H   0  0  0  0  0  0  0  0  0  0  0  0
  -24.2020  -36.7560   23.0930 C   0  0  0  0  0  1  0  0  0  0  0  0
  -25.4460  -36.3470   23.8980 C   0  0  0  0  0  3  0  0  0  0  0  0
  -27.5900  -37.2240   24.7140 C   0  0  0  0  0  1  0  0  0  0  0  0
  -26.4820  -37.3950   23.7780 N   0  0  0  0  0  0  0  0  0  0  0  0
  -26.0800  -38.3170   23.9270 H   0  0  0  0  0  0  0  0  0  0  0  0
  -29.8660  -21.8260   20.9130 C   0  0  0  0  0  2  0  0  0  0  0  0
  -29.9940  -20.3890   20.2800 C   0  0  0  0  0  2  0  0  0  0  0  0
  -29.6060  -19.3250   21.1790 O   0  0  0  0  0  0  0  0  0  0  0  0
  -30.3560  -18.0820   21.1900 C   0  0  0  0  0  2  0  0  0  0  0  0
  -29.9920  -17.0260   20.1000 C   0  0  0  0  0  2  0  0  0  0  0  0
  -30.6580  -14.5630   20.1340 C   0  0  0  0  0  0  0  0  0  0  0  0
  -30.3320  -12.3860   19.0110 C   0  0  0  0  0  2  0  0  0  0  0  0
  -29.3420  -12.5990   17.8440 C   0  0  0  0  0  2  0  0  0  0  0  0
  -27.8850  -12.4670   18.3310 C   0  0  0  0  0  2  0  0  0  0  0  0
  -27.6040  -13.2910   19.6150 C   0  0  0  0  0  3  0  0  0  0  0  0
  -28.7030  -13.0590   20.6790 C   0  0  0  0  0  2  0  0  0  0  0  0
  -30.0040  -13.3660   20.0610 N   0  0  0  0  0  0  0  0  0  0  0  0
  -31.7760  -14.7380   19.6440 O   0  0  0  0  0  0  0  0  0  0  0  0
  -29.9110  -15.6090   20.5580 N   0  0  0  0  0  0  0  0  0  0  0  0
  -29.0360  -15.3490   20.9880 H   0  0  0  0  0  0  0  0  0  0  0  0
  -25.2410  -13.9170   20.4180 C   0  0  0  0  0  0  0  0  0  0  0  0
  -24.1800  -13.1550   20.8240 C   0  0  0  0  0  0  0  0  0  0  0  0
  -24.6260  -11.7980   20.7700 C   0  0  0  0  0  0  0  0  0  0  0  0
  -26.2680  -13.0270   20.1440 N   0  0  0  0  0  0  0  0  0  0  0  0
  -25.9040  -11.7470   20.4140 N   0  0  0  0  0  0  0  0  0  0  0  0
  -23.8950  -10.5420   20.9820 C   0  0  0  0  0  0  0  0  0  0  0  0
  -24.3570   -9.5630   21.8880 C   0  0  0  0  0  3  0  0  0  0  0  0
  -23.6260   -8.3710   22.0880 C   0  0  0  0  0  3  0  0  0  0  0  0
  -22.4190   -8.1520   21.3830 C   0  0  0  0  0  0  0  0  0  0  0  0
  -21.9750   -9.1210   20.4660 C   0  0  0  0  0  3  0  0  0  0  0  0
  -22.7060  -10.3040   20.2640 C   0  0  0  0  0  3  0  0  0  0  0  0
  -21.6570   -7.0150   21.4950 O   0  0  0  0  0  0  0  0  0  0  0  0
  -21.6560   -6.2580   22.6390 C   0  0  0  0  0  0  0  0  0  0  0  0
  -21.3040   -6.8040   23.8930 C   0  0  0  0  0  3  0  0  0  0  0  0
  -21.2500   -5.9740   25.0310 C   0  0  0  0  0  3  0  0  0  0  0  0
  -21.5350   -4.6010   24.9170 C   0  0  0  0  0  0  0  0  0  0  0  0
  -21.8800   -4.0550   23.6680 C   0  0  0  0  0  3  0  0  0  0  0  0
  -21.9370   -4.8820   22.5310 C   0  0  0  0  0  0  0  0  0  0  0  0
  -22.2490   -4.3460   21.3260 F   0  0  0  0  0  0  0  0  0  0  0  0
  -21.4760   -3.8020   26.0080 F   0  0  0  0  0  0  0  0  0  0  0  0
  -22.7990  -13.6450   21.1510 C   0  0  0  0  0  0  0  0  0  0  0  0
  -22.0980  -12.9520   22.0420 N   0  0  0  0  0  0  0  0  0  0  0  0
  -22.3520  -14.6760   20.6520 O   0  0  0  0  0  0  0  0  0  0  0  0
  -22.4730  -12.1180   22.4680 H   0  0  0  0  0  0  0  0  0  0  0  0
  -21.1730  -13.2630   22.3040 H   0  0  0  0  0  0  0  0  0  0  0  0
  -25.4140  -15.2870   20.2390 N   0  0  0  0  0  0  0  0  0  0  0  0
  -24.6560  -15.9470   20.3780 H   0  0  0  0  0  0  0  0  0  0  0  0
  -26.2510  -15.7180   19.8670 H   0  0  0  0  0  0  0  0  0  0  0  0
  1  2  1  0
  1 45  1  0
  3  4  1  0
  3  2  1  0
  5 16  2  0
  6  4  1  0
  6 11  1  0
  7 15  1  0
  7 17  1  0
  8 14  1  0
  8 10  1  0
  9 15  1  0
 10  9  1  0
 11 10  2  0
 12 13  1  0
 12  6  2  0
 13  8  2  0
 14  7  1  0
 15  5  1  0
 17 19  2  0
 18 17  1  0
 20 18  1  0
 21 30  2  0
 21 26  1  0
 22 18  1  0
 22 26  1  0
 23 22  1  0
 24 25  1  0
 24 23  1  0
 25 21  1  0
 26 27  2  0
 27 28  1  0
 29 28  2  0
 30 29  1  0
 31  5  1  0
 31 36  1  0
 31 32  1  0
 32 35  1  1
 32 33  1  0
 34 32  1  0
 36 39  1  0
 37 41  1  0
 37 36  1  0
 38 37  2  0
 41 40  1  0
 43 41  1  0
 43 44  1  0
 43 42  1  0
 46 45  1  0
 46 47  1  0
 47 48  1  0
 49 58  1  0
 49 48  1  0
 50 58  1  0
 51 56  1  0
 52 53  1  0
 52 51  1  0
 54 53  1  0
 54 63  1  0
 54 55  1  0
 56 50  1  0
 56 55  1  0
 57 50  2  0
 58 59  1  0
 60 61  2  0
 61 80  1  0
 62 61  1  0
 62 65  1  0
 63 64  1  0
 63 60  1  0
 64 62  2  0
 65 66  1  0
 66 67  2  0
 68 71  1  0
 68 67  1  0
 69 68  2  0
 70 69  1  0
 70 65  2  0
 71 72  1  0
 72 73  1  0
 73 74  2  0
 75 74  1  0
 75 79  1  0
 76 75  2  0
 77 72  2  0
 77 76  1  0
 78 77  1  0
 80 81  1  0
 81 84  1  0
 81 83  1  0
 82 80  2  0
 85 86  1  0
 85 60  1  0
 87 85  1  0
M  ISO  4   3 101   4 101  50 100  58 100
M  END
>  <TORSDO>  (40) 
F 23

>  <SCORE>  (40) 
-12.462

>  <name>  (40) 
40

>  <ligand_id>  (40) 
40

>  <original_smiles>  (40) 
[H]c1c([H])c([H])c2c(c1[H])C([H])([H])C([H])([H])C([H])([H])C2([H])N([H])C(=O)C1([H])N(C(=O)C([H])(N([H])C(=O)C([H])(N([H])C([H])([H])[H])C([H])([H])[H])C(C([H])([H])[H])(C([H])([H])[H])C([H])([H])[H])C([H])([H])c2c([H])c(OC([H])([H])C([H])([H])OC([H])([H])C([H])([H])OC([H])([H])C([H])([H])N([H])C(=O)N3C([H])([H])C([H])([H])C([H])([H])C([H])(n4nc(-c5c([H])c([H])c(Oc6c([H])c([H])c(F)c([H])c6F)c([H])c5[H])c(C(=O)N([H])[H])c4N([H])[H])C3([H])[H])c([H])c([H])c2C1([H])[H]

>  <smiles>  (40) 
[H]c1c([H])c([H])c2c(c1[H])C([H])([H])C([H])([H])C([H])([H])C2([H])N([H])C(=O)C1([H])N(C(=O)C([H])(N([H])C(=O)C([H])(N([H])C([H])([H])[H])C([H])([H])[H])C(C([H])([H])[H])(C([H])([H])[H])C([H])([H])[H])C([H])([H])c2c([H])c(OC([H])([H])C([H])([H])OC([H])([H])C([H])([H])OC([H])([H])C([H])([H])N([H])C(=O)N3C([H])([H])C([H])([H])C([H])([H])C([H])(n4nc(-c5c([H])c([H])c(Oc6c([H])c([H])c(F)c([H])c6F)c([H])c5[H])c(C(=O)N([H])[H])c4N([H])[H])C3([H])[H])c([H])c([H])c2C1([H])[H]

$$$$
41:0:0
     RDKit          3D

 82 86  0  0  1  0  0  0  0  0999 V2000
  -28.2030  -25.2140   20.1870 O   0  0  0  0  0  1  0  0  0  0  0  0
  -24.6590  -31.8230   23.1160 C   0  0  0  0  0  0  0  0  0  0  0  0
  -27.2270  -26.5180   20.2190 C   0  0  0  0  0  0  0  0  0  0  0  0
  -23.5030  -30.4040   21.4840 C   0  0  0  0  0  3  0  0  0  0  0  0
  -24.9680  -28.6960   20.1210 C   0  0  0  0  0  0  0  0  0  0  0  0
  -26.0920  -30.4850   21.4080 C   0  0  0  0  0  2  0  0  0  0  0  0
  -26.1660  -29.0180   20.7700 C   0  0  0  0  0  0  0  0  0  0  0  0
  -27.2690  -27.9690   20.7710 C   0  0  0  0  0  3  0  0  0  0  0  0
  -25.9850  -26.4690   19.5130 C   0  0  0  0  0  3  0  0  0  0  0  0
  -24.9320  -27.4500   19.4670 C   0  0  0  0  0  3  0  0  0  0  0  0
  -23.7680  -29.6710   20.1330 C   0  0  0  0  0  2  0  0  0  0  0  0
  -24.7790  -30.9440   22.0540 N   0  0  0  0  0  0  0  0  0  0  0  0
  -23.5550  -32.1300   23.6020 O   0  0  0  0  0  0  0  0  0  0  0  0
  -22.7610  -29.4600   22.4680 C   0  0  0  0  0  0  0  0  0  0  0  0
  -21.4220  -29.3490   22.3610 N   0  0  0  0  0  0  0  0  0  0  0  0
  -23.4040  -28.8170   23.3000 O   0  0  0  0  0  0  0  0  0  0  0  0
  -20.9470  -29.9240   21.6780 H   0  0  0  0  0  0  0  0  0  0  0  0
  -18.0030  -28.1330   22.8590 C   0  0  0  0  0  0  0  0  0  0  0  0
  -20.5950  -28.3830   23.0970 C   0  0  0  0  0  0  0  0  0  0  0  0
  -20.7720  -26.9760   22.4620 C   0  0  0  0  0  3  0  0  0  0  0  0
  -19.5380  -26.4150   21.7220 C   0  0  0  0  0  3  0  0  0  0  0  0
  -18.0990  -26.8440   22.0560 C   0  0  0  0  0  3  0  0  0  0  0  0
  -19.1450  -28.8670   23.2920 C   0  0  0  0  0  0  0  0  0  0  0  0
  -18.9400  -30.1130   23.9270 C   0  0  0  0  0  3  0  0  0  0  0  0
  -17.6430  -30.6230   24.1300 C   0  0  0  0  0  3  0  0  0  0  0  0
  -16.5250  -29.8800   23.7210 C   0  0  0  0  0  3  0  0  0  0  0  0
  -16.7080  -28.6360   23.0960 C   0  0  0  0  0  3  0  0  0  0  0  0
  -25.9010  -32.4970   23.7720 C   0  0  0  0  0  3  0  0  0  0  0  0
  -25.5540  -33.8960   24.1020 N   0  0  0  0  0  0  0  0  0  0  0  0
  -25.8860  -34.9730   23.3740 C   0  0  0  0  0  0  0  0  0  0  0  0
  -26.5670  -34.8910   22.3500 O   0  0  0  0  0  0  0  0  0  0  0  0
  -24.9460  -34.0310   24.8960 H   0  0  0  0  0  0  0  0  0  0  0  0
  -24.1500  -36.7720   23.0460 C   0  0  0  0  0  1  0  0  0  0  0  0
  -25.3900  -36.3550   23.8530 C   0  0  0  0  0  3  0  0  0  0  0  0
  -27.5120  -37.2520   24.7100 C   0  0  0  0  0  1  0  0  0  0  0  0
  -26.4160  -37.4190   23.7590 N   0  0  0  0  0  0  0  0  0  0  0  0
  -26.0000  -38.3340   23.9110 H   0  0  0  0  0  0  0  0  0  0  0  0
  -26.3860  -31.7540   25.0790 C   0  0  1  0  0  0  0  0  0  0  0  0
  -25.2660  -31.5290   26.1240 C   0  0  0  0  0  1  0  0  0  0  0  0
  -26.9880  -30.3730   24.7440 C   0  0  0  0  0  1  0  0  0  0  0  0
  -27.5140  -32.5680   25.7560 C   0  0  0  0  0  1  0  0  0  0  0  0
  -28.2300  -23.3320   20.4390 C   0  0  0  0  0 15  0  0  0  0  0  0
  -28.7870  -21.3790   19.8640 C   0  0  0  0  0 15  0  0  0  0  0  0
  -29.3980  -19.4400   20.4120 C   0  0  0  0  0  1  0  0  0  0  0  0
  -30.1690  -16.0920   20.0360 C   0  0  0  0  0  0  0  0  0  0  0  0
  -30.3590  -13.4710   19.1990 C   0  0  0  0  0  2  0  0  0  0  0  0
  -29.4770  -12.8700   18.0550 C   0  0  0  0  0  2  0  0  0  0  0  0
  -28.1030  -12.4290   18.5740 C   0  0  0  0  0  2  0  0  0  0  0  0
  -27.5630  -13.4490   19.5940 C   0  0  0  0  0  3  0  0  0  0  0  0
  -28.6020  -13.9210   20.6470 C   0  0  0  0  0  2  0  0  0  0  0  0
  -29.6750  -14.6720   19.9180 N   0  0  0  0  0  0  0  0  0  0  0  0
  -31.4150  -15.9560   19.9590 O   0  0  0  0  0  0  0  0  0  0  0  0
  -29.4220  -17.5600   20.0550 N   0  0  0  0  0  0  0  0  0  0  0  0
  -28.4530  -17.3130   19.9040 H   0  0  0  0  0  0  0  0  0  0  0  0
  -25.2310  -13.9310   20.4500 C   0  0  0  0  0  0  0  0  0  0  0  0
  -24.1900  -13.1380   20.8360 C   0  0  0  0  0  0  0  0  0  0  0  0
  -24.6710  -11.7930   20.7770 C   0  0  0  0  0  0  0  0  0  0  0  0
  -26.2760  -13.0750   20.1660 N   0  0  0  0  0  0  0  0  0  0  0  0
  -25.9570  -11.7790   20.4270 N   0  0  0  0  0  0  0  0  0  0  0  0
  -23.9560  -10.5240   20.9740 C   0  0  0  0  0  0  0  0  0  0  0  0
  -24.4050   -9.5560   21.8990 C   0  0  0  0  0  3  0  0  0  0  0  0
  -23.6830   -8.3560   22.0890 C   0  0  0  0  0  3  0  0  0  0  0  0
  -22.4960   -8.1180   21.3550 C   0  0  0  0  0  0  0  0  0  0  0  0
  -22.0660   -9.0740   20.4200 C   0  0  0  0  0  3  0  0  0  0  0  0
  -22.7890  -10.2650   20.2280 C   0  0  0  0  0  3  0  0  0  0  0  0
  -21.7460   -6.9710   21.4550 O   0  0  0  0  0  0  0  0  0  0  0  0
  -21.7090   -6.2310   22.6100 C   0  0  0  0  0  0  0  0  0  0  0  0
  -21.2840   -6.7860   23.8360 C   0  0  0  0  0  3  0  0  0  0  0  0
  -21.1960   -5.9730   24.9840 C   0  0  0  0  0  3  0  0  0  0  0  0
  -21.5230   -4.6050   24.9060 C   0  0  0  0  0  0  0  0  0  0  0  0
  -21.9420   -4.0500   23.6840 C   0  0  0  0  0  3  0  0  0  0  0  0
  -22.0320   -4.8600   22.5390 C   0  0  0  0  0  0  0  0  0  0  0  0
  -22.4140   -4.3150   21.3590 F   0  0  0  0  0  0  0  0  0  0  0  0
  -21.4320   -3.8220   26.0060 F   0  0  0  0  0  0  0  0  0  0  0  0
  -22.7960  -13.6030   21.1400 C   0  0  0  0  0  0  0  0  0  0  0  0
  -22.0920  -12.8960   22.0160 N   0  0  0  0  0  0  0  0  0  0  0  0
  -22.3430  -14.6300   20.6380 O   0  0  0  0  0  0  0  0  0  0  0  0
  -22.4740  -12.0650   22.4440 H   0  0  0  0  0  0  0  0  0  0  0  0
  -21.1580  -13.1890   22.2630 H   0  0  0  0  0  0  0  0  0  0  0  0
  -25.3710  -15.3060   20.2780 N   0  0  0  0  0  0  0  0  0  0  0  0
  -24.5980  -15.9490   20.4140 H   0  0  0  0  0  0  0  0  0  0  0  0
  -26.2020  -15.7550   19.9170 H   0  0  0  0  0  0  0  0  0  0  0  0
  1  3  1  0
  2 13  2  0
  3  8  1  0
  4 12  1  0
  4 14  1  0
  5 11  1  0
  5  7  1  0
  6 12  1  0
  7  8  2  0
  7  6  1  0
  9  3  2  0
 10  9  1  0
 10  5  2  0
 11  4  1  0
 12  2  1  0
 14 16  2  0
 15 14  1  0
 15 19  1  0
 17 15  1  0
 18 27  2  0
 18 23  1  0
 19 23  1  0
 20 19  2  0
 21 22  2  0
 21 20  1  0
 22 18  1  0
 23 24  2  0
 24 25  1  0
 26 25  2  0
 27 26  1  0
 28  2  1  0
 28 29  1  0
 28 38  1  0
 29 32  1  0
 30 34  1  0
 30 29  1  0
 31 30  2  0
 34 33  1  0
 36 34  1  0
 36 37  1  0
 36 35  1  0
 38 41  1  1
 38 39  1  0
 40 38  1  0
 45 53  1  0
 46 51  1  0
 47 48  1  0
 47 46  1  0
 49 48  1  0
 49 58  1  0
 49 50  1  0
 51 45  1  0
 51 50  1  0
 52 45  2  0
 53 44  1  0
 54 53  1  0
 55 56  2  0
 56 75  1  0
 57 56  1  0
 57 60  1  0
 58 59  1  0
 58 55  1  0
 59 57  2  0
 60 61  1  0
 61 62  2  0
 63 66  1  0
 63 62  1  0
 64 63  2  0
 65 64  1  0
 65 60  2  0
 66 67  1  0
 67 68  1  0
 68 69  2  0
 70 69  1  0
 70 74  1  0
 71 70  2  0
 72 67  2  0
 72 71  1  0
 73 72  1  0
 75 76  1  0
 76 79  1  0
 76 78  1  0
 77 75  2  0
 80 81  1  0
 80 55  1  0
 82 80  1  0
M  ISO  4   1 101  42 101  45 100  53 100
M  END
>  <TORSDO>  (41) 
F 18

>  <SCORE>  (41) 
-16.165

>  <name>  (41) 
41

>  <ligand_id>  (41) 
41

>  <original_smiles>  (41) 
[H]c1c([H])c([H])c2c(c1[H])C([H])([H])C([H])([H])C([H])([H])C2([H])N([H])C(=O)C1([H])N(C(=O)C([H])(N([H])C(=O)C([H])(N([H])C([H])([H])[H])C([H])([H])[H])C(C([H])([H])[H])(C([H])([H])[H])C([H])([H])[H])C([H])([H])c2c([H])c(OC([H])([H])C([H])([H])C([H])([H])N([H])C(=O)N3C([H])([H])C([H])([H])C([H])([H])C([H])(n4nc(-c5c([H])c([H])c(Oc6c([H])c([H])c(F)c([H])c6F)c([H])c5[H])c(C(=O)N([H])[H])c4N([H])[H])C3([H])[H])c([H])c([H])c2C1([H])[H]

>  <smiles>  (41) 
[H]c1c([H])c([H])c2c(c1[H])C([H])([H])C([H])([H])C([H])([H])C2([H])N([H])C(=O)C1([H])N(C(=O)C([H])(N([H])C(=O)C([H])(N([H])C([H])([H])[H])C([H])([H])[H])C(C([H])([H])[H])(C([H])([H])[H])C([H])([H])[H])C([H])([H])c2c([H])c(OC([H])([H])C([H])([H])C([H])([H])N([H])C(=O)N3C([H])([H])C([H])([H])C([H])([H])C([H])(n4nc(-c5c([H])c([H])c(Oc6c([H])c([H])c(F)c([H])c6F)c([H])c5[H])c(C(=O)N([H])[H])c4N([H])[H])C3([H])[H])c([H])c([H])c2C1([H])[H]

$$$$
43:0:0
     RDKit          3D

 89 96  0  0  1  0  0  0  0  0999 V2000
  -28.7540  -22.1980   18.3190 C   0  0  0  0  0  2  0  0  0  0  0  0
  -28.2500  -23.0350   19.3590 O   0  0  0  0  0  0  0  0  0  0  0  0
  -28.5050  -24.4240   19.1160 C   0  0  0  0  0  2  0  0  0  0  0  0
  -28.2670  -25.2490   20.3980 C   0  0  0  0  0  2  0  0  0  0  0  0
  -28.3830  -26.6640   20.1900 O   0  0  0  0  0  0  0  0  0  0  0  0
  -24.5860  -31.8470   23.2420 C   0  0  0  0  0  0  0  0  0  0  0  0
  -27.2110  -27.3850   20.1790 C   0  0  0  0  0  0  0  0  0  0  0  0
  -23.3750  -30.4450   21.6010 C   0  0  0  0  0  3  0  0  0  0  0  0
  -24.8210  -28.8950   20.1840 C   0  0  0  0  0  0  0  0  0  0  0  0
  -25.9020  -30.7940   21.4040 C   0  0  0  0  0  2  0  0  0  0  0  0
  -25.9800  -29.4190   20.7680 C   0  0  0  0  0  0  0  0  0  0  0  0
  -27.1800  -28.6750   20.7550 C   0  0  0  0  0  3  0  0  0  0  0  0
  -26.0320  -26.8710   19.5920 C   0  0  0  0  0  3  0  0  0  0  0  0
  -24.8420  -27.6210   19.5920 C   0  0  0  0  0  3  0  0  0  0  0  0
  -23.5810  -29.7580   20.2260 C   0  0  0  0  0  2  0  0  0  0  0  0
  -24.6390  -31.0440   22.1390 N   0  0  0  0  0  0  0  0  0  0  0  0
  -23.5040  -32.1240   23.7810 O   0  0  0  0  0  0  0  0  0  0  0  0
  -22.7180  -29.4310   22.5660 C   0  0  0  0  0  0  0  0  0  0  0  0
  -21.3900  -29.2580   22.4410 N   0  0  0  0  0  0  0  0  0  0  0  0
  -23.3960  -28.8000   23.3810 O   0  0  0  0  0  0  0  0  0  0  0  0
  -20.9060  -29.8160   21.7530 H   0  0  0  0  0  0  0  0  0  0  0  0
  -18.0070  -28.0830   22.9260 C   0  0  0  0  0  0  0  0  0  0  0  0
  -20.5660  -28.3260   23.2100 C   0  0  0  0  0  3  0  0  0  0  0  0
  -20.6630  -26.8930   22.6390 C   0  0  0  0  0  2  0  0  0  0  0  0
  -19.5640  -26.5730   21.6210 C   0  0  0  0  0  2  0  0  0  0  0  0
  -18.1790  -26.7280   22.2570 C   0  0  0  0  0  2  0  0  0  0  0  0
  -19.1290  -28.8390   23.3580 C   0  0  0  0  0  0  0  0  0  0  0  0
  -18.9160  -30.1080   23.9390 C   0  0  0  0  0  3  0  0  0  0  0  0
  -17.6150  -30.6200   24.0950 C   0  0  0  0  0  3  0  0  0  0  0  0
  -16.5080  -29.8590   23.6790 C   0  0  0  0  0  3  0  0  0  0  0  0
  -16.7040  -28.5920   23.1010 C   0  0  0  0  0  3  0  0  0  0  0  0
  -25.8750  -32.4700   23.8630 C   0  0  0  0  0  3  0  0  0  0  0  0
  -26.3880  -31.6950   25.1390 C   0  0  1  0  0  0  0  0  0  0  0  0
  -25.2920  -31.4660   26.2060 C   0  0  0  0  0  1  0  0  0  0  0  0
  -26.9580  -30.3140   24.7410 C   0  0  0  0  0  1  0  0  0  0  0  0
  -27.5440  -32.4800   25.8020 C   0  0  0  0  0  1  0  0  0  0  0  0
  -25.5770  -33.8680   24.1920 N   0  0  0  0  0  0  0  0  0  0  0  0
  -25.9070  -34.9210   23.4310 C   0  0  0  0  0  0  0  0  0  0  0  0
  -26.5770  -34.8160   22.4000 O   0  0  0  0  0  0  0  0  0  0  0  0
  -24.9940  -34.0300   24.9990 H   0  0  0  0  0  0  0  0  0  0  0  0
  -24.1790  -36.7120   23.0770 C   0  0  0  0  0  1  0  0  0  0  0  0
  -25.4210  -36.3110   23.8880 C   0  0  0  0  0  3  0  0  0  0  0  0
  -27.5590  -37.1900   24.7070 C   0  0  0  0  0  1  0  0  0  0  0  0
  -26.4520  -37.3640   23.7690 N   0  0  0  0  0  0  0  0  0  0  0  0
  -26.0490  -38.2850   23.9170 H   0  0  0  0  0  0  0  0  0  0  0  0
  -28.1750  -20.7660   18.3420 C   0  0  0  0  0  2  0  0  0  0  0  0
  -28.7180  -19.9320   19.3710 O   0  0  0  0  0  0  0  0  0  0  0  0
  -28.4700  -18.5460   19.1160 C   0  0  0  0  0  2  0  0  0  0  0  0
  -28.3200  -17.7240   20.4100 C   0  0  0  0  0  2  0  0  0  0  0  0
  -29.5890  -17.5510   21.2720 C   0  0  0  0  0  2  0  0  0  0  0  0
  -30.6470  -16.5850   20.7020 C   0  0  0  0  0  2  0  0  0  0  0  0
  -30.8790  -14.1870   20.1030 C   0  0  0  0  0  0  0  0  0  0  0  0
  -30.4870  -12.0450   18.9500 C   0  0  0  0  0  2  0  0  0  0  0  0
  -29.5330  -12.3350   17.7710 C   0  0  0  0  0  2  0  0  0  0  0  0
  -28.0590  -12.2780   18.2280 C   0  0  0  0  0  2  0  0  0  0  0  0
  -27.7970  -13.0860   19.5300 C   0  0  0  0  0  3  0  0  0  0  0  0
  -28.8670  -12.7610   20.5960 C   0  0  0  0  0  2  0  0  0  0  0  0
  -30.1870  -13.0240   20.0010 N   0  0  0  0  0  0  0  0  0  0  0  0
  -31.9950  -14.3640   19.6000 O   0  0  0  0  0  0  0  0  0  0  0  0
  -30.1920  -15.1970   20.6530 N   0  0  0  0  0  0  0  0  0  0  0  0
  -29.2630  -14.9860   20.9890 H   0  0  0  0  0  0  0  0  0  0  0  0
  -25.4430  -13.7900   20.2990 C   0  0  0  0  0  0  0  0  0  0  0  0
  -24.3600  -13.0600   20.7100 C   0  0  0  0  0  0  0  0  0  0  0  0
  -24.7700  -11.6910   20.6730 C   0  0  0  0  0  0  0  0  0  0  0  0
  -26.4460  -12.8680   20.0410 N   0  0  0  0  0  0  0  0  0  0  0  0
  -26.0470  -11.6020   20.3210 N   0  0  0  0  0  0  0  0  0  0  0  0
  -24.0070  -10.4590   20.8980 C   0  0  0  0  0  0  0  0  0  0  0  0
  -24.4340   -9.4870   21.8280 C   0  0  0  0  0  3  0  0  0  0  0  0
  -23.6730   -8.3170   22.0380 C   0  0  0  0  0  3  0  0  0  0  0  0
  -22.4720   -8.1140   21.3190 C   0  0  0  0  0  0  0  0  0  0  0  0
  -22.0640   -9.0740   20.3780 C   0  0  0  0  0  3  0  0  0  0  0  0
  -22.8250  -10.2360   20.1650 C   0  0  0  0  0  3  0  0  0  0  0  0
  -21.6790   -6.9980   21.4410 O   0  0  0  0  0  0  0  0  0  0  0  0
  -21.6380   -6.2670   22.6010 C   0  0  0  0  0  0  0  0  0  0  0  0
  -21.2850   -6.8520   23.8360 C   0  0  0  0  0  3  0  0  0  0  0  0
  -21.1830   -6.0510   24.9910 C   0  0  0  0  0  3  0  0  0  0  0  0
  -21.4290   -4.6670   24.9130 C   0  0  0  0  0  0  0  0  0  0  0  0
  -21.7760   -4.0830   23.6820 C   0  0  0  0  0  3  0  0  0  0  0  0
  -21.8780   -4.8800   22.5300 C   0  0  0  0  0  0  0  0  0  0  0  0
  -22.1930   -4.3090   21.3420 F   0  0  0  0  0  0  0  0  0  0  0  0
  -21.3270   -3.8960   26.0210 F   0  0  0  0  0  0  0  0  0  0  0  0
  -22.9930  -13.5910   21.0270 C   0  0  0  0  0  0  0  0  0  0  0  0
  -22.2730  -12.9270   21.9240 N   0  0  0  0  0  0  0  0  0  0  0  0
  -22.5750  -14.6270   20.5130 O   0  0  0  0  0  0  0  0  0  0  0  0
  -22.6280  -12.0850   22.3530 H   0  0  0  0  0  0  0  0  0  0  0  0
  -21.3540  -13.2600   22.1830 H   0  0  0  0  0  0  0  0  0  0  0  0
  -25.6480  -15.1500   20.0980 N   0  0  0  0  0  0  0  0  0  0  0  0
  -24.9030  -15.8280   20.2060 H   0  0  0  0  0  0  0  0  0  0  0  0
  -26.4810  -15.5380   19.6750 H   0  0  0  0  0  0  0  0  0  0  0  0
  1 46  1  0
  1  2  1  0
  3  2  1  0
  3  4  1  0
  5  4  1  0
  6 17  2  0
  7  5  1  0
  7 12  1  0
  8 16  1  0
  8 18  1  0
  9 15  1  0
  9 11  1  0
 10 16  1  0
 11 10  1  0
 12 11  2  0
 13 14  1  0
 13  7  2  0
 14  9  2  0
 15  8  1  0
 16  6  1  0
 18 20  2  0
 19 18  1  0
 21 19  1  0
 22 31  2  0
 22 27  1  0
 23 19  1  0
 23 27  1  0
 24 23  1  0
 25 26  1  0
 25 24  1  0
 26 22  1  0
 27 28  2  0
 28 29  1  0
 30 29  2  0
 31 30  1  0
 32  6  1  0
 32 37  1  0
 32 33  1  0
 33 36  1  1
 33 34  1  0
 35 33  1  0
 37 40  1  0
 38 42  1  0
 38 37  1  0
 39 38  2  0
 42 41  1  0
 44 42  1  0
 44 45  1  0
 44 43  1  0
 46 47  1  0
 48 47  1  0
 48 49  1  0
 49 50  1  0
 51 50  1  0
 52 60  1  0
 53 58  1  0
 54 55  1  0
 54 53  1  0
 56 55  1  0
 56 65  1  0
 56 57  1  0
 58 52  1  0
 58 57  1  0
 59 52  2  0
 60 51  1  0
 60 61  1  0
 62 63  2  0
 63 82  1  0
 64 63  1  0
 64 67  1  0
 65 62  1  0
 65 66  1  0
 66 64  2  0
 67 68  1  0
 68 69  2  0
 70 73  1  0
 70 69  1  0
 71 70  2  0
 72 71  1  0
 72 67  2  0
 73 74  1  0
 74 75  1  0
 75 76  2  0
 77 76  1  0
 77 81  1  0
 78 77  2  0
 79 74  2  0
 79 78  1  0
 80 79  1  0
 82 83  1  0
 83 86  1  0
 83 85  1  0
 84 82  2  0
 87 88  1  0
 87 62  1  0
 89 87  1  0
M  ISO  4   4 101   5 101  52 100  60 100
M  END
>  <TORSDO>  (42) 
F 25

>  <SCORE>  (42) 
-11.959

>  <name>  (42) 
43

>  <ligand_id>  (42) 
43

>  <original_smiles>  (42) 
[H]c1c([H])c([H])c2c(c1[H])C([H])([H])C([H])([H])C([H])([H])C2([H])N([H])C(=O)C1([H])N(C(=O)C([H])(N([H])C(=O)C([H])(N([H])C([H])([H])[H])C([H])([H])[H])C(C([H])([H])[H])(C([H])([H])[H])C([H])([H])[H])C([H])([H])c2c([H])c(OC([H])([H])C([H])([H])OC([H])([H])C([H])([H])OC([H])([H])C([H])([H])C([H])([H])C([H])([H])N([H])C(=O)N3C([H])([H])C([H])([H])C([H])([H])C([H])(n4nc(-c5c([H])c([H])c(Oc6c([H])c([H])c(F)c([H])c6F)c([H])c5[H])c(C(=O)N([H])[H])c4N([H])[H])C3([H])[H])c([H])c([H])c2C1([H])[H]

>  <smiles>  (42) 
[H]c1c([H])c([H])c2c(c1[H])C([H])([H])C([H])([H])C([H])([H])C2([H])N([H])C(=O)C1([H])N(C(=O)C([H])(N([H])C(=O)C([H])(N([H])C([H])([H])[H])C([H])([H])[H])C(C([H])([H])[H])(C([H])([H])[H])C([H])([H])[H])C([H])([H])c2c([H])c(OC([H])([H])C([H])([H])OC([H])([H])C([H])([H])OC([H])([H])C([H])([H])C([H])([H])C([H])([H])N([H])C(=O)N3C([H])([H])C([H])([H])C([H])([H])C([H])(n4nc(-c5c([H])c([H])c(Oc6c([H])c([H])c(F)c([H])c6F)c([H])c5[H])c(C(=O)N([H])[H])c4N([H])[H])C3([H])[H])c([H])c([H])c2C1([H])[H]

$$$$
44:0:0
     RDKit          3D

102110  0  0  1  0  0  0  0  0999 V2000
  -25.4070  -30.4990   21.7870 C   0  0  0  0  0  2  0  0  0  0  0  0
  -25.4470  -31.0610   20.3500 C   0  0  0  0  0  2  0  0  0  0  0  0
  -24.5890  -30.2890   19.3210 C   0  0  0  0  0  2  0  0  0  0  0  0
  -25.1400  -28.9060   18.9750 C   0  0  0  0  0  0  0  0  0  0  0  0
  -24.2420  -27.9300   18.8150 N   0  0  0  0  0  0  0  0  0  0  0  0
  -26.3530  -28.7320   18.8410 O   0  0  0  0  0  0  0  0  0  0  0  0
  -23.2700  -28.1660   18.9680 H   0  0  0  0  0  0  0  0  0  0  0  0
  -24.5240  -26.5860   18.3260 C   0  0  0  0  0  2  0  0  0  0  0  0
  -23.3970  -26.1120   17.3960 C   0  0  0  0  0  2  0  0  0  0  0  0
  -23.1110  -27.1000   16.2610 C   0  0  0  0  0  2  0  0  0  0  0  0
  -22.5670  -28.2960   16.8150 O   0  0  0  0  0  0  0  0  0  0  0  0
  -21.1920  -26.5390   23.6050 C   0  0  0  0  0  0  0  0  0  0  0  0
  -21.6700  -28.1570   17.8480 C   0  0  0  0  0  0  0  0  0  0  0  0
  -19.2190  -26.8940   22.1480 C   0  0  0  0  0  3  0  0  0  0  0  0
  -19.7050  -27.9170   19.8640 C   0  0  0  0  0  0  0  0  0  0  0  0
  -21.4250  -28.0950   21.6780 C   0  0  0  0  0  2  0  0  0  0  0  0
  -21.0520  -28.0710   20.2130 C   0  0  0  0  0  0  0  0  0  0  0  0
  -22.0360  -28.1940   19.2150 C   0  0  0  0  0  3  0  0  0  0  0  0
  -20.3140  -27.9740   17.5110 C   0  0  0  0  0  3  0  0  0  0  0  0
  -19.3270  -27.8640   18.5110 C   0  0  0  0  0  3  0  0  0  0  0  0
  -18.7170  -27.8180   21.0030 C   0  0  0  0  0  2  0  0  0  0  0  0
  -20.6530  -27.1390   22.5050 N   0  0  0  0  0  0  0  0  0  0  0  0
  -20.5000  -25.8260   24.3460 O   0  0  0  0  0  0  0  0  0  0  0  0
  -18.9320  -25.4270   21.7540 C   0  0  0  0  0  0  0  0  0  0  0  0
  -17.6400  -25.0860   21.6190 N   0  0  0  0  0  0  0  0  0  0  0  0
  -19.8550  -24.6350   21.5440 O   0  0  0  0  0  0  0  0  0  0  0  0
  -16.9450  -25.7900   21.8230 H   0  0  0  0  0  0  0  0  0  0  0  0
  -14.9520  -22.7280   22.1180 C   0  0  0  0  0  0  0  0  0  0  0  0
  -17.1350  -23.7750   21.2160 C   0  0  0  0  0  3  0  0  0  0  0  0
  -16.4130  -23.8450   19.8500 C   0  0  0  0  0  2  0  0  0  0  0  0
  -14.9040  -24.0730   19.9760 C   0  0  0  0  0  2  0  0  0  0  0  0
  -14.2600  -22.9430   20.7830 C   0  0  0  0  0  2  0  0  0  0  0  0
  -16.2970  -23.1320   22.3260 C   0  0  0  0  0  0  0  0  0  0  0  0
  -16.8810  -22.9400   23.5980 C   0  0  0  0  0  3  0  0  0  0  0  0
  -16.1470  -22.3560   24.6470 C   0  0  0  0  0  3  0  0  0  0  0  0
  -14.8210  -21.9440   24.4330 C   0  0  0  0  0  3  0  0  0  0  0  0
  -14.2290  -22.1250   23.1690 C   0  0  0  0  0  3  0  0  0  0  0  0
  -22.6880  -26.7410   24.0000 C   0  0  0  0  0  3  0  0  0  0  0  0
  -23.4990  -26.4850   22.8040 N   0  0  0  0  0  0  0  0  0  0  0  0
  -24.1000  -25.3180   22.5290 C   0  0  0  0  0  0  0  0  0  0  0  0
  -24.0830  -24.3570   23.3020 O   0  0  0  0  0  0  0  0  0  0  0  0
  -23.5000  -27.2040   22.0970 H   0  0  0  0  0  0  0  0  0  0  0  0
  -23.9800  -24.3860   20.1980 C   0  0  0  0  0  1  0  0  0  0  0  0
  -24.8340  -25.2010   21.1800 C   0  0  0  0  0  3  0  0  0  0  0  0
  -27.1440  -25.4560   21.9720 C   0  0  0  0  0  1  0  0  0  0  0  0
  -26.1800  -24.5950   21.2920 N   0  0  0  0  0  0  0  0  0  0  0  0
  -26.5510  -24.3650   20.3740 H   0  0  0  0  0  0  0  0  0  0  0  0
  -22.9930  -28.1750   24.5820 C   0  0  1  0  0  0  0  0  0  0  0  0
  -22.0520  -29.2770   24.0370 C   0  0  0  0  0  1  0  0  0  0  0  0
  -22.8830  -28.1740   26.1240 C   0  0  0  0  0  1  0  0  0  0  0  0
  -24.4490  -28.5780   24.2520 C   0  0  0  0  0  1  0  0  0  0  0  0
  -25.9700  -31.4630   22.8540 C   0  0  0  0  0  2  0  0  0  0  0  0
  -25.2990  -32.8470   22.8490 C   0  0  0  0  0  2  0  0  0  0  0  0
  -26.6200  -34.9540   22.8430 C   0  0  0  0  0  0  0  0  0  0  0  0
  -26.1410  -33.8650   22.2270 N   0  0  0  0  0  0  0  0  0  0  0  0
  -26.3680  -35.2010   24.0260 O   0  0  0  0  0  0  0  0  0  0  0  0
  -26.3570  -33.7450   21.2460 H   0  0  0  0  0  0  0  0  0  0  0  0
  -27.4890  -35.9010   22.0030 C   0  0  0  0  0  2  0  0  0  0  0  0
  -29.9730  -35.5710   21.4860 C   0  0  0  0  0  3  0  0  0  0  0  0
  -31.0620  -35.6720   22.2990 C   0  0  0  0  0  0  0  0  0  0  0  0
  -30.6290  -35.9840   23.5890 N   0  0  0  0  0  0  0  0  0  0  0  0
  -29.3340  -36.0800   23.5920 N   0  0  0  0  0  0  0  0  0  0  0  0
  -28.9070  -35.8270   22.3280 N   0  0  0  0  0  0  0  0  0  0  0  0
  -32.5090  -35.5650   21.9320 C   0  0  0  0  0  2  0  0  0  0  0  0
  -33.9570  -34.2270   20.4380 C   0  0  0  0  0  0  0  0  0  0  0  0
  -34.9860  -32.0280   20.0720 C   0  0  0  0  0  2  0  0  0  0  0  0
  -35.7530  -31.8620   18.7530 C   0  0  0  0  0  2  0  0  0  0  0  0
  -34.7950  -31.4300   17.6300 C   0  0  0  0  0  2  0  0  0  0  0  0
  -33.5540  -32.3530   17.5310 C   0  0  0  0  0  3  0  0  0  0  0  0
  -32.8870  -32.5480   18.9100 C   0  0  0  0  0  2  0  0  0  0  0  0
  -33.9030  -32.9990   19.8780 N   0  0  0  0  0  0  0  0  0  0  0  0
  -34.9990  -34.7500   20.8480 O   0  0  0  0  0  0  0  0  0  0  0  0
  -32.7540  -34.6730   20.8050 N   0  0  0  0  0  0  0  0  0  0  0  0
  -31.9560  -34.1750   20.4450 H   0  0  0  0  0  0  0  0  0  0  0  0
  -32.2410  -32.3930   15.3160 C   0  0  0  0  0  0  0  0  0  0  0  0
  -31.3760  -31.4960   14.7480 C   0  0  0  0  0  0  0  0  0  0  0  0
  -31.2570  -30.4200   15.6820 C   0  0  0  0  0  0  0  0  0  0  0  0
  -32.6030  -31.8530   16.5390 N   0  0  0  0  0  0  0  0  0  0  0  0
  -31.9600  -30.6800   16.7770 N   0  0  0  0  0  0  0  0  0  0  0  0
  -30.5600  -29.1320   15.5720 C   0  0  0  0  0  0  0  0  0  0  0  0
  -31.0340  -27.9760   16.2310 C   0  0  0  0  0  3  0  0  0  0  0  0
  -30.3370  -26.7540   16.1240 C   0  0  0  0  0  3  0  0  0  0  0  0
  -29.1510  -26.6780   15.3550 C   0  0  0  0  0  0  0  0  0  0  0  0
  -28.6940  -27.8260   14.6840 C   0  0  0  0  0  3  0  0  0  0  0  0
  -29.3930  -29.0410   14.7870 C   0  0  0  0  0  3  0  0  0  0  0  0
  -28.4210  -25.5290   15.1740 O   0  0  0  0  0  0  0  0  0  0  0  0
  -27.8190  -25.2400   13.9760 C   0  0  0  0  0  0  0  0  0  0  0  0
  -26.4860  -25.6160   13.7020 C   0  0  0  0  0  3  0  0  0  0  0  0
  -25.9290  -25.3600   12.4320 C   0  0  0  0  0  3  0  0  0  0  0  0
  -26.7050  -24.7390   11.4350 C   0  0  0  0  0  0  0  0  0  0  0  0
  -28.0330  -24.3680   11.7050 C   0  0  0  0  0  3  0  0  0  0  0  0
  -28.5900  -24.6210   12.9710 C   0  0  0  0  0  0  0  0  0  0  0  0
  -29.8780  -24.2810   13.2180 F   0  0  0  0  0  0  0  0  0  0  0  0
  -26.1730  -24.5000   10.2130 F   0  0  0  0  0  0  0  0  0  0  0  0
  -30.7660  -31.5820   13.3800 C   0  0  0  0  0  0  0  0  0  0  0  0
  -29.6640  -30.8750   13.1540 N   0  0  0  0  0  0  0  0  0  0  0  0
  -31.2390  -32.3180   12.5130 O   0  0  0  0  0  0  0  0  0  0  0  0
  -29.2640  -30.2880   13.8710 H   0  0  0  0  0  0  0  0  0  0  0  0
  -29.2130  -30.9220   12.2510 H   0  0  0  0  0  0  0  0  0  0  0  0
  -32.7630  -33.6090   14.8840 N   0  0  0  0  0  0  0  0  0  0  0  0
  -32.5510  -33.9980   13.9720 H   0  0  0  0  0  0  0  0  0  0  0  0
  -33.4270  -34.1660   15.4090 H   0  0  0  0  0  0  0  0  0  0  0  0
  1 52  1  0
  2  1  1  0
  3  2  1  0
  4  3  1  0
  5  7  1  0
  5  4  1  0
  6  4  2  0
  8  5  1  0
  9  8  1  0
 10 11  1  0
 10  9  1  0
 11 13  1  0
 12 23  2  0
 13 18  1  0
 14 24  1  0
 14 22  1  0
 15 17  1  0
 15 21  1  0
 16 22  1  0
 17 16  1  0
 18 17  2  0
 19 13  2  0
 19 20  1  0
 20 15  2  0
 21 14  1  0
 22 12  1  0
 25 24  1  0
 25 27  1  0
 26 24  2  0
 28 33  2  0
 28 37  1  0
 29 25  1  0
 29 33  1  0
 30 31  1  0
 30 29  1  0
 31 32  1  0
 32 28  1  0
 33 34  1  0
 34 35  2  0
 36 35  1  0
 37 36  2  0
 38 12  1  0
 38 48  1  0
 39 38  1  0
 40 39  1  0
 40 41  2  0
 42 39  1  0
 44 43  1  0
 44 46  1  0
 44 40  1  0
 46 45  1  0
 47 46  1  0
 48 50  1  1
 49 48  1  0
 51 48  1  0
 53 52  1  0
 54 56  2  0
 55 54  1  0
 55 53  1  0
 57 55  1  0
 58 63  1  0
 58 54  1  0
 59 60  2  0
 59 63  1  0
 60 61  1  0
 61 62  2  0
 63 62  1  0
 64 60  1  0
 65 73  1  0
 65 72  2  0
 67 66  1  0
 68 67  1  0
 69 78  1  0
 69 68  1  0
 69 70  1  0
 70 71  1  0
 71 66  1  0
 71 65  1  0
 73 64  1  0
 74 73  1  0
 75 78  1  0
 76 75  2  0
 76 77  1  0
 77 79  2  0
 78 79  1  0
 80 77  1  0
 80 81  1  0
 82 81  2  0
 83 82  1  0
 84 85  1  0
 84 83  2  0
 85 80  2  0
 86 83  1  0
 87 86  1  0
 88 87  1  0
 89 88  2  0
 90 91  2  0
 90 89  1  0
 91 92  1  0
 92 93  1  0
 92 87  2  0
 94 90  1  0
 95 76  1  0
 96 95  1  0
 96 98  1  0
 97 95  2  0
 99 96  1  0
100 75  1  0
100102  1  0
101100  1  0
M  ISO  4  10 101  11 101  65 100  73 100
M  END
>  <TORSDO>  (43) 
F 28

>  <SCORE>  (43) 
1.694

>  <name>  (43) 
44

>  <ligand_id>  (43) 
44

>  <original_smiles>  (43) 
[H]c1c([H])c([H])c2c(c1[H])C([H])([H])C([H])([H])C([H])([H])C2([H])N([H])C(=O)C1([H])N(C(=O)C([H])(N([H])C(=O)C([H])(N([H])C([H])([H])[H])C([H])([H])[H])C(C([H])([H])[H])(C([H])([H])[H])C([H])([H])[H])C([H])([H])c2c([H])c(OC([H])([H])C([H])([H])C([H])([H])N([H])C(=O)C([H])([H])C([H])([H])C([H])([H])C([H])([H])C([H])([H])N([H])C(=O)C([H])([H])n3nnc(C([H])([H])N([H])C(=O)N4C([H])([H])C([H])([H])C([H])([H])C([H])(n5nc(-c6c([H])c([H])c(Oc7c([H])c([H])c(F)c([H])c7F)c([H])c6[H])c(C(=O)N([H])[H])c5N([H])[H])C4([H])[H])c3[H])c([H])c([H])c2C1([H])[H]

>  <smiles>  (43) 
[H]c1c([H])c([H])c2c(c1[H])C([H])([H])C([H])([H])C([H])([H])C2([H])N([H])C(=O)C1([H])N(C(=O)C([H])(N([H])C(=O)C([H])(N([H])C([H])([H])[H])C([H])([H])[H])C(C([H])([H])[H])(C([H])([H])[H])C([H])([H])[H])C([H])([H])c2c([H])c(OC([H])([H])C([H])([H])C([H])([H])N([H])C(=O)C([H])([H])C([H])([H])C([H])([H])C([H])([H])C([H])([H])N([H])C(=O)C([H])([H])n3nnc(C([H])([H])N([H])C(=O)N4C([H])([H])C([H])([H])C([H])([H])C([H])(n5nc(-c6c([H])c([H])c(Oc7c([H])c([H])c(F)c([H])c7F)c([H])c6[H])c(C(=O)N([H])[H])c5N([H])[H])C4([H])[H])c3[H])c([H])c([H])c2C1([H])[H]

$$$$
45:0:0
     RDKit          3D

 82 89  0  0  1  0  0  0  0  0999 V2000
  -28.1760  -25.6460   20.2760 O   0  0  0  0  0  0  0  0  0  0  0  0
  -24.6830  -31.8660   23.1840 C   0  0  0  0  0  0  0  0  0  0  0  0
  -27.1930  -26.8230   20.2170 C   0  0  0  0  0  0  0  0  0  0  0  0
  -23.4850  -30.4650   21.5560 C   0  0  0  0  0  3  0  0  0  0  0  0
  -24.9230  -28.8150   20.1490 C   0  0  0  0  0  0  0  0  0  0  0  0
  -26.0600  -30.6180   21.4210 C   0  0  0  0  0  2  0  0  0  0  0  0
  -26.1190  -29.1880   20.7740 C   0  0  0  0  0  0  0  0  0  0  0  0
  -27.2420  -28.2180   20.7750 C   0  0  0  0  0  3  0  0  0  0  0  0
  -25.9620  -26.6390   19.5390 C   0  0  0  0  0  3  0  0  0  0  0  0
  -24.8790  -27.5650   19.5080 C   0  0  0  0  0  3  0  0  0  0  0  0
  -23.7160  -29.7620   20.1880 C   0  0  0  0  0  2  0  0  0  0  0  0
  -24.7660  -31.0150   22.1060 N   0  0  0  0  0  0  0  0  0  0  0  0
  -23.5940  -32.1700   23.6980 O   0  0  0  0  0  0  0  0  0  0  0  0
  -22.7730  -29.4900   22.5330 C   0  0  0  0  0  0  0  0  0  0  0  0
  -21.4390  -29.3450   22.4170 N   0  0  0  0  0  0  0  0  0  0  0  0
  -23.4310  -28.8630   23.3670 O   0  0  0  0  0  0  0  0  0  0  0  0
  -20.9590  -29.9010   21.7230 H   0  0  0  0  0  0  0  0  0  0  0  0
  -18.0450  -28.1650   22.9510 C   0  0  0  0  0  0  0  0  0  0  0  0
  -20.6100  -28.4180   23.1970 C   0  0  0  0  0  3  0  0  0  0  0  0
  -20.6970  -26.9820   22.6290 C   0  0  0  0  0  2  0  0  0  0  0  0
  -19.5880  -26.6620   21.6220 C   0  0  0  0  0  2  0  0  0  0  0  0
  -18.2110  -26.8150   22.2740 C   0  0  0  0  0  2  0  0  0  0  0  0
  -19.1710  -28.9250   23.3700 C   0  0  0  0  0  0  0  0  0  0  0  0
  -18.9590  -30.1850   23.9680 C   0  0  0  0  0  3  0  0  0  0  0  0
  -17.6560  -30.6880   24.1490 C   0  0  0  0  0  3  0  0  0  0  0  0
  -16.5470  -29.9270   23.7430 C   0  0  0  0  0  3  0  0  0  0  0  0
  -16.7420  -28.6670   23.1510 C   0  0  0  0  0  3  0  0  0  0  0  0
  -25.9530  -32.5120   23.8160 C   0  0  0  0  0  3  0  0  0  0  0  0
  -26.4660  -31.7420   25.0980 C   0  0  1  0  0  0  0  0  0  0  0  0
  -25.3700  -31.5100   26.1650 C   0  0  0  0  0  1  0  0  0  0  0  0
  -27.0470  -30.3620   24.7200 C   0  0  0  0  0  1  0  0  0  0  0  0
  -27.6160  -32.5360   25.7590 C   0  0  0  0  0  1  0  0  0  0  0  0
  -25.6300  -33.9090   24.1670 N   0  0  0  0  0  0  0  0  0  0  0  0
  -25.9360  -34.9810   23.4250 C   0  0  0  0  0  0  0  0  0  0  0  0
  -26.5780  -34.9000   22.3750 O   0  0  0  0  0  0  0  0  0  0  0  0
  -25.0540  -34.0440   24.9850 H   0  0  0  0  0  0  0  0  0  0  0  0
  -24.1760  -36.7680   23.1750 C   0  0  0  0  0  1  0  0  0  0  0  0
  -25.4570  -36.3630   23.9220 C   0  0  0  0  0  3  0  0  0  0  0  0
  -27.6190  -37.2660   24.6640 C   0  0  0  0  0  1  0  0  0  0  0  0
  -26.4730  -37.4290   23.7730 N   0  0  0  0  0  0  0  0  0  0  0  0
  -26.0640  -38.3430   23.9470 H   0  0  0  0  0  0  0  0  0  0  0  0
  -27.9610  -23.9320   20.2030 C   0  0  0  0  0  3  0  0  0  0  0  0
  -28.9580  -22.3090   20.2870 C   0  0  0  0  0  3  0  0  0  0  0  0
  -28.6930  -20.4210   20.2880 C   0  0  0  0  0  3  0  0  0  0  0  0
  -29.6870  -18.7930   20.2970 C   0  0  0  0  0  3  0  0  0  0  0  0
  -29.4320  -17.0890   20.3700 O   0  0  0  0  0  0  0  0  0  0  0  0
  -30.3760  -15.5680   20.2340 C   0  0  0  0  0  0  0  0  0  0  0  0
  -30.4150  -13.0230   19.4300 C   0  0  0  0  0  2  0  0  0  0  0  0
  -29.5350  -12.7090   18.1890 C   0  0  0  0  0  2  0  0  0  0  0  0
  -28.0940  -12.3800   18.6120 C   0  0  0  0  0  2  0  0  0  0  0  0
  -27.5770  -13.3680   19.6870 C   0  0  0  0  0  3  0  0  0  0  0  0
  -28.5820  -13.6430   20.8230 C   0  0  0  0  0  2  0  0  0  0  0  0
  -29.8050  -14.1770   20.2080 N   0  0  0  0  0  0  0  0  0  0  0  0
  -31.5990  -15.5590   20.0190 O   0  0  0  0  0  0  0  0  0  0  0  0
  -25.2010  -13.8730   20.4230 C   0  0  0  0  0  0  0  0  0  0  0  0
  -24.1510  -13.0800   20.7860 C   0  0  0  0  0  0  0  0  0  0  0  0
  -24.6440  -11.7380   20.7770 C   0  0  0  0  0  0  0  0  0  0  0  0
  -26.2590  -13.0170   20.1930 N   0  0  0  0  0  0  0  0  0  0  0  0
  -25.9400  -11.7260   20.4780 N   0  0  0  0  0  0  0  0  0  0  0  0
  -23.9370  -10.4660   20.9720 C   0  0  0  0  0  0  0  0  0  0  0  0
  -24.3680   -9.5150   21.9250 C   0  0  0  0  0  3  0  0  0  0  0  0
  -23.6540   -8.3110   22.1080 C   0  0  0  0  0  3  0  0  0  0  0  0
  -22.4960   -8.0480   21.3400 C   0  0  0  0  0  0  0  0  0  0  0  0
  -22.0840   -8.9860   20.3760 C   0  0  0  0  0  3  0  0  0  0  0  0
  -22.7980  -10.1810   20.1920 C   0  0  0  0  0  3  0  0  0  0  0  0
  -21.7550   -6.8930   21.4300 O   0  0  0  0  0  0  0  0  0  0  0  0
  -21.6940   -6.1670   22.5930 C   0  0  0  0  0  0  0  0  0  0  0  0
  -21.2400   -6.7340   23.8030 C   0  0  0  0  0  3  0  0  0  0  0  0
  -21.1270   -5.9330   24.9570 C   0  0  0  0  0  3  0  0  0  0  0  0
  -21.4590   -4.5670   24.9020 C   0  0  0  0  0  0  0  0  0  0  0  0
  -21.9060   -3.9990   23.6960 C   0  0  0  0  0  3  0  0  0  0  0  0
  -22.0200   -4.7970   22.5440 C   0  0  0  0  0  0  0  0  0  0  0  0
  -22.4310   -4.2390   21.3800 F   0  0  0  0  0  0  0  0  0  0  0  0
  -21.3440   -3.7950   26.0090 F   0  0  0  0  0  0  0  0  0  0  0  0
  -22.7430  -13.5360   21.0290 C   0  0  0  0  0  0  0  0  0  0  0  0
  -22.0160  -12.8430   21.8980 N   0  0  0  0  0  0  0  0  0  0  0  0
  -22.2970  -14.5440   20.4840 O   0  0  0  0  0  0  0  0  0  0  0  0
  -22.3920  -12.0290   22.3610 H   0  0  0  0  0  0  0  0  0  0  0  0
  -21.0700  -13.1320   22.1040 H   0  0  0  0  0  0  0  0  0  0  0  0
  -25.3440  -15.2460   20.2370 N   0  0  0  0  0  0  0  0  0  0  0  0
  -24.5710  -15.8930   20.3490 H   0  0  0  0  0  0  0  0  0  0  0  0
  -26.2010  -15.6980   19.9430 H   0  0  0  0  0  0  0  0  0  0  0  0
  2 13  2  0
  3  1  1  0
  3  8  1  0
  4 12  1  0
  4 14  1  0
  5 11  1  0
  5  7  1  0
  6 12  1  0
  7  8  2  0
  7  6  1  0
  9  3  2  0
 10  9  1  0
 10  5  2  0
 11  4  1  0
 12  2  1  0
 14 16  2  0
 15 14  1  0
 17 15  1  0
 18 27  2  0
 18 23  1  0
 19 15  1  0
 19 23  1  0
 20 19  1  0
 21 22  1  0
 21 20  1  0
 22 18  1  0
 23 24  2  0
 24 25  1  0
 26 25  2  0
 27 26  1  0
 28  2  1  0
 28 33  1  0
 28 29  1  0
 29 32  1  1
 29 30  1  0
 31 29  1  0
 33 36  1  0
 34 38  1  0
 34 33  1  0
 35 34  2  0
 38 37  1  0
 40 38  1  0
 40 41  1  0
 40 39  1  0
 42  1  1  0
 42 43  2  0
 43 44  1  0
 44 45  2  0
 45 46  1  0
 47 46  1  0
 48 53  1  0
 49 50  1  0
 49 48  1  0
 51 50  1  0
 51 58  1  0
 51 52  1  0
 53 47  1  0
 53 52  1  0
 54 47  2  0
 55 56  2  0
 56 75  1  0
 57 56  1  0
 57 60  1  0
 58 55  1  0
 58 59  1  0
 59 57  2  0
 60 61  1  0
 61 62  2  0
 63 66  1  0
 63 62  1  0
 64 63  2  0
 65 64  1  0
 65 60  2  0
 66 67  1  0
 67 68  1  0
 68 69  2  0
 70 69  1  0
 70 74  1  0
 71 70  2  0
 72 67  2  0
 72 71  1  0
 73 72  1  0
 75 76  1  0
 76 79  1  0
 76 78  1  0
 77 75  2  0
 80 81  1  0
 80 55  1  0
 82 80  1  0
M  ISO  4   1 101  42 101  46 100  47 100
M  END
>  <TORSDO>  (44) 
F 20

>  <SCORE>  (44) 
-16.168

>  <name>  (44) 
45

>  <ligand_id>  (44) 
45

>  <original_smiles>  (44) 
[H]c1c([H])c([H])c2c(c1[H])C([H])([H])C([H])([H])C([H])([H])C2([H])N([H])C(=O)C1([H])N(C(=O)C([H])(N([H])C(=O)C([H])(N([H])C([H])([H])[H])C([H])([H])[H])C(C([H])([H])[H])(C([H])([H])[H])C([H])([H])[H])C([H])([H])c2c([H])c(OC([H])([H])C([H])([H])C([H])([H])C([H])([H])OC(=O)N3C([H])([H])C([H])([H])C([H])([H])C([H])(n4nc(-c5c([H])c([H])c(Oc6c([H])c([H])c(F)c([H])c6F)c([H])c5[H])c(C(=O)N([H])[H])c4N([H])[H])C3([H])[H])c([H])c([H])c2C1([H])[H]

>  <smiles>  (44) 
[H]c1c([H])c([H])c2c(c1[H])C([H])([H])C([H])([H])C([H])([H])C2([H])N([H])C(=O)C1([H])N(C(=O)C([H])(N([H])C(=O)C([H])(N([H])C([H])([H])[H])C([H])([H])[H])C(C([H])([H])[H])(C([H])([H])[H])C([H])([H])[H])C([H])([H])c2c([H])c(OC([H])([H])C([H])([H])C([H])([H])C([H])([H])OC(=O)N3C([H])([H])C([H])([H])C([H])([H])C([H])(n4nc(-c5c([H])c([H])c(Oc6c([H])c([H])c(F)c([H])c6F)c([H])c5[H])c(C(=O)N([H])[H])c4N([H])[H])C3([H])[H])c([H])c([H])c2C1([H])[H]

$$$$
46:0:0
     RDKit          3D

107115  0  0  1  0  0  0  0  0999 V2000
  -26.2210  -10.0560   17.7400 C   0  0  0  0  0  2  0  0  0  0  0  0
  -25.8250  -11.4190   18.1390 O   0  0  0  0  0  0  0  0  0  0  0  0
  -25.7670  -12.5300   17.1960 C   0  0  0  0  0  2  0  0  0  0  0  0
  -25.4340  -14.0190   17.7280 C   0  0  0  0  0  2  0  0  0  0  0  0
  -26.3700  -14.9000   18.4760 O   0  0  0  0  0  0  0  0  0  0  0  0
  -26.6260  -16.3010   18.0760 C   0  0  0  0  0  2  0  0  0  0  0  0
  -26.7630  -17.5170   19.1350 C   0  0  0  0  0  2  0  0  0  0  0  0
  -28.0200  -18.2540   19.3570 O   0  0  0  0  0  0  0  0  0  0  0  0
  -27.8740  -19.6840   19.6910 C   0  0  0  0  0  3  0  0  0  0  0  0
  -29.0950  -20.4440   20.3850 C   0  0  0  0  0  3  0  0  0  0  0  0
  -28.9630  -21.9040   20.5080 O   0  0  0  0  0  0  0  0  0  0  0  0
  -30.0100  -22.7200   21.1680 C   0  0  0  0  0  2  0  0  0  0  0  0
  -29.6200  -24.2540   21.0270 C   0  0  0  0  0  2  0  0  0  0  0  0
  -30.2730  -25.5150   21.5700 O   0  0  0  0  0  0  0  0  0  0  0  0
  -27.4850  -31.5790   24.5580 C   0  0  0  0  0  0  0  0  0  0  0  0
  -29.4770  -26.6850   21.4640 C   0  0  0  0  0  0  0  0  0  0  0  0
  -26.2400  -30.4860   22.7430 C   0  0  0  0  0  3  0  0  0  0  0  0
  -27.5260  -28.7810   21.3540 C   0  0  0  0  0  0  0  0  0  0  0  0
  -28.8070  -30.3050   22.8400 C   0  0  0  0  0  2  0  0  0  0  0  0
  -28.6940  -28.9650   22.1120 C   0  0  0  0  0  0  0  0  0  0  0  0
  -29.6700  -27.9150   22.1840 C   0  0  0  0  0  3  0  0  0  0  0  0
  -28.3420  -26.6340   20.6250 C   0  0  0  0  0  3  0  0  0  0  0  0
  -27.3550  -27.6200   20.6100 C   0  0  0  0  0  3  0  0  0  0  0  0
  -26.4820  -29.8730   21.3490 C   0  0  0  0  0  2  0  0  0  0  0  0
  -27.5290  -30.8030   23.4400 N   0  0  0  0  0  0  0  0  0  0  0  0
  -26.4160  -32.0360   24.9830 O   0  0  0  0  0  0  0  0  0  0  0  0
  -25.3010  -29.5630   23.5600 C   0  0  0  0  0  0  0  0  0  0  0  0
  -23.9830  -29.6350   23.2930 N   0  0  0  0  0  0  0  0  0  0  0  0
  -25.7700  -28.7930   24.4060 O   0  0  0  0  0  0  0  0  0  0  0  0
  -23.6770  -30.2890   22.5870 H   0  0  0  0  0  0  0  0  0  0  0  0
  -20.4130  -29.0460   23.3780 C   0  0  0  0  0  0  0  0  0  0  0  0
  -22.9320  -28.8350   23.9300 C   0  0  0  0  0  3  0  0  0  0  0  0
  -22.8530  -27.4270   23.2940 C   0  0  0  0  0  2  0  0  0  0  0  0
  -21.8290  -27.3410   22.1580 C   0  0  0  0  0  2  0  0  0  0  0  0
  -20.4290  -27.7120   22.6570 C   0  0  0  0  0  2  0  0  0  0  0  0
  -21.5910  -29.5820   23.9620 C   0  0  0  0  0  0  0  0  0  0  0  0
  -21.5280  -30.8460   24.5880 C   0  0  0  0  0  3  0  0  0  0  0  0
  -20.3200  -31.5670   24.6370 C   0  0  0  0  0  3  0  0  0  0  0  0
  -19.1530  -31.0210   24.0740 C   0  0  0  0  0  3  0  0  0  0  0  0
  -19.2010  -29.7620   23.4510 C   0  0  0  0  0  3  0  0  0  0  0  0
  -28.7780  -31.9510   25.3430 C   0  0  0  0  0  3  0  0  0  0  0  0
  -28.6630  -33.3560   25.7640 N   0  0  0  0  0  0  0  0  0  0  0  0
  -29.2220  -34.3890   25.1220 C   0  0  0  0  0  0  0  0  0  0  0  0
  -29.9480  -34.2470   24.1360 O   0  0  0  0  0  0  0  0  0  0  0  0
  -28.0520  -33.5490   26.5430 H   0  0  0  0  0  0  0  0  0  0  0  0
  -27.8260  -36.4520   24.7730 C   0  0  0  0  0  1  0  0  0  0  0  0
  -28.9130  -35.8030   25.6490 C   0  0  0  0  0  3  0  0  0  0  0  0
  -31.0860  -36.2600   26.6990 C   0  0  0  0  0  1  0  0  0  0  0  0
  -30.1060  -36.6780   25.6990 N   0  0  0  0  0  0  0  0  0  0  0  0
  -29.8440  -37.6400   25.9050 H   0  0  0  0  0  0  0  0  0  0  0  0
  -29.0350  -31.0150   26.5870 C   0  0  1  0  0  0  0  0  0  0  0  0
  -27.8300  -30.8900   27.5440 C   0  0  0  0  0  1  0  0  0  0  0  0
  -29.4270  -29.5920   26.1280 C   0  0  0  0  0  1  0  0  0  0  0  0
  -30.2330  -31.5480   27.4010 C   0  0  0  0  0  1  0  0  0  0  0  0
  -26.5640   -9.1130   18.9840 C   0  0  0  0  0  2  0  0  0  0  0  0
  -27.8140   -9.2150   19.7280 O   0  0  0  0  0  0  0  0  0  0  0  0
  -28.0200   -8.1580   20.7110 C   0  0  0  0  0  2  0  0  0  0  0  0
  -28.4400   -8.5130   22.2130 C   0  0  0  0  0  2  0  0  0  0  0  0
  -29.7830   -8.8180   22.6610 O   0  0  0  0  0  0  0  0  0  0  0  0
  -29.3130  -11.6800   25.1050 C   0  0  0  0  0  3  0  0  0  0  0  0
  -30.1290  -12.6270   24.4360 C   0  0  0  0  0  3  0  0  0  0  0  0
  -30.9590  -10.8300   23.0100 C   0  0  0  0  0  3  0  0  0  0  0  0
  -29.2130  -10.3420   24.6400 C   0  0  0  0  0  0  0  0  0  0  0  0
  -30.9420  -12.2050   23.3540 C   0  0  0  0  0  0  0  0  0  0  0  0
  -29.9530   -9.9490   23.4710 C   0  0  0  0  0  0  0  0  0  0  0  0
  -31.3760  -13.2160   21.0840 C   0  0  0  0  0  0  0  0  0  0  0  0
  -30.6170  -11.6170   19.3580 C   0  0  0  0  0  2  0  0  0  0  0  0
  -29.7340  -12.3110   18.3010 C   0  0  0  0  0  2  0  0  0  0  0  0
  -28.2780  -12.4680   18.7510 C   0  0  0  0  0  2  0  0  0  0  0  0
  -28.0760  -12.8570   20.2610 C   0  0  0  0  0  3  0  0  0  0  0  0
  -29.0780  -12.1780   21.1520 C   0  0  0  0  0  2  0  0  0  0  0  0
  -30.4320  -12.3980   20.5800 N   0  0  0  0  0  0  0  0  0  0  0  0
  -32.2240  -13.7520   20.3370 O   0  0  0  0  0  0  0  0  0  0  0  0
  -31.5180  -13.1770   22.4460 N   0  0  0  0  0  0  0  0  0  0  0  0
  -32.0920  -13.8840   22.8810 H   0  0  0  0  0  0  0  0  0  0  0  0
  -25.9000  -13.5510   21.4190 C   0  0  0  0  0  0  0  0  0  0  0  0
  -24.7880  -12.8220   21.8110 C   0  0  0  0  0  0  0  0  0  0  0  0
  -25.0940  -11.4580   21.5410 C   0  0  0  0  0  0  0  0  0  0  0  0
  -26.7580  -12.6300   20.8610 N   0  0  0  0  0  0  0  0  0  0  0  0
  -26.3220  -11.3620   21.0680 N   0  0  0  0  0  0  0  0  0  0  0  0
  -24.2250  -10.2520   21.6450 C   0  0  0  0  0  0  0  0  0  0  0  0
  -24.6090   -9.1130   22.3910 C   0  0  0  0  0  3  0  0  0  0  0  0
  -23.7760   -7.9730   22.4660 C   0  0  0  0  0  3  0  0  0  0  0  0
  -22.5150   -7.9630   21.8310 C   0  0  0  0  0  0  0  0  0  0  0  0
  -22.1400   -9.1050   21.0970 C   0  0  0  0  0  3  0  0  0  0  0  0
  -22.9770  -10.2300   20.9890 C   0  0  0  0  0  3  0  0  0  0  0  0
  -21.6290   -6.9020   21.8690 O   0  0  0  0  0  0  0  0  0  0  0  0
  -21.6870   -5.9320   22.8450 C   0  0  0  0  0  0  0  0  0  0  0  0
  -21.6340   -6.2630   24.2230 C   0  0  0  0  0  3  0  0  0  0  0  0
  -21.6130   -5.2440   25.2000 C   0  0  0  0  0  3  0  0  0  0  0  0
  -21.6740   -3.8990   24.8010 C   0  0  0  0  0  0  0  0  0  0  0  0
  -21.7200   -3.5570   23.4390 C   0  0  0  0  0  3  0  0  0  0  0  0
  -21.7140   -4.5700   22.4590 C   0  0  0  0  0  0  0  0  0  0  0  0
  -21.7220   -4.2530   21.1400 F   0  0  0  0  0  0  0  0  0  0  0  0
  -21.6950   -2.9150   25.7320 F   0  0  0  0  0  0  0  0  0  0  0  0
  -23.5110  -13.3910   22.3300 C   0  0  0  0  0  0  0  0  0  0  0  0
  -22.8090  -12.6470   23.1940 N   0  0  0  0  0  0  0  0  0  0  0  0
  -23.1590  -14.5230   22.0450 O   0  0  0  0  0  0  0  0  0  0  0  0
  -23.0820  -11.6980   23.3720 H   0  0  0  0  0  0  0  0  0  0  0  0
  -21.9930  -13.0150   23.6540 H   0  0  0  0  0  0  0  0  0  0  0  0
  -26.2580  -14.8990   21.4770 N   0  0  0  0  0  0  0  0  0  0  0  0
  -25.5520  -15.6070   21.6420 H   0  0  0  0  0  0  0  0  0  0  0  0
  -26.8220  -15.2010   20.6800 H   0  0  0  0  0  0  0  0  0  0  0  0
  -28.3310   -9.4200   25.5090 C   0  0  1  0  0  0  0  0  0  0  0  0
  -28.6030   -9.6300   26.8040 F   0  0  0  0  0  0  0  0  0  0  0  0
  -27.0360   -9.6860   25.3240 F   0  0  0  0  0  0  0  0  0  0  0  0
  -28.5420   -8.1180   25.2810 F   0  0  0  0  0  0  0  0  0  0  0  0
  1  2  1  0
  1 55  1  0
  3  4  1  0
  3  2  1  0
  4  5  1  0
  6  5  1  0
  6  7  1  0
  7  8  1  0
  8  9  1  0
  9 10  2  0
 10 11  1  0
 11 12  1  0
 13 12  1  0
 13 14  1  0
 15 26  2  0
 16 14  1  0
 16 21  1  0
 17 25  1  0
 17 27  1  0
 18 20  1  0
 19 25  1  0
 20 21  2  0
 20 19  1  0
 22 16  2  0
 23 22  1  0
 23 18  2  0
 24 18  1  0
 24 17  1  0
 25 15  1  0
 27 29  2  0
 28 27  1  0
 30 28  1  0
 31 40  2  0
 31 36  1  0
 32 28  1  0
 32 36  1  0
 33 32  1  0
 34 35  1  0
 34 33  1  0
 35 31  1  0
 36 37  2  0
 37 38  1  0
 39 38  2  0
 40 39  1  0
 41 15  1  0
 41 42  1  0
 41 51  1  0
 42 45  1  0
 43 47  1  0
 43 42  1  0
 44 43  2  0
 47 46  1  0
 47 49  1  0
 49 50  1  0
 49 48  1  0
 51 54  1  1
 51 52  1  0
 53 51  1  0
 55 56  1  0
 56 57  1  0
 57 58  1  0
 58 59  1  0
 59 65  1  0
 61 60  2  0
 62 64  2  0
 62 65  1  0
 63 60  1  0
 63104  1  0
 64 61  1  0
 65 63  2  0
 66 74  1  0
 67 72  1  0
 68 69  1  0
 68 67  1  0
 70 69  1  0
 70 79  1  0
 70 71  1  0
 72 66  1  0
 72 71  1  0
 73 66  2  0
 74 75  1  0
 74 64  1  0
 76101  1  0
 76 77  2  0
 77 96  1  0
 78 81  1  0
 78 77  1  0
 79 80  1  0
 79 76  1  0
 80 78  2  0
 81 82  1  0
 82 83  2  0
 84 87  1  0
 84 83  1  0
 85 84  2  0
 86 85  1  0
 86 81  2  0
 87 88  1  0
 88 89  1  0
 89 90  2  0
 91 90  1  0
 91 95  1  0
 92 91  2  0
 93 88  2  0
 93 92  1  0
 94 93  1  0
 96 97  1  0
 97 99  1  0
 97100  1  0
 98 96  2  0
101102  1  0
103101  1  0
104105  1  1
106104  1  0
107104  1  0
M  ISO  4  13 101  14 101  66 100  74 100
M  END
>  <TORSDO>  (45) 
F 35

>  <SCORE>  (45) 
25.471

>  <name>  (45) 
46

>  <ligand_id>  (45) 
46

>  <original_smiles>  (45) 
[H]c1c([H])c([H])c2c(c1[H])C([H])([H])C([H])([H])C([H])([H])C2([H])N([H])C(=O)C1([H])N(C(=O)C([H])(N([H])C(=O)C([H])(N([H])C([H])([H])[H])C([H])([H])[H])C(C([H])([H])[H])(C([H])([H])[H])C([H])([H])[H])C([H])([H])c2c([H])c(OC([H])([H])C([H])([H])OC([H])([H])C([H])([H])OC([H])([H])C([H])([H])OC([H])([H])C([H])([H])OC([H])([H])C([H])([H])OC([H])([H])C([H])([H])Oc3c([H])c(N([H])C(=O)N4C([H])([H])C([H])([H])C([H])([H])C([H])(n5nc(-c6c([H])c([H])c(Oc7c([H])c([H])c(F)c([H])c7F)c([H])c6[H])c(C(=O)N([H])[H])c5N([H])[H])C4([H])[H])c([H])c([H])c3C(F)(F)F)c([H])c([H])c2C1([H])[H]

>  <smiles>  (45) 
[H]c1c([H])c([H])c2c(c1[H])C([H])([H])C([H])([H])C([H])([H])C2([H])N([H])C(=O)C1([H])N(C(=O)C([H])(N([H])C(=O)C([H])(N([H])C([H])([H])[H])C([H])([H])[H])C(C([H])([H])[H])(C([H])([H])[H])C([H])([H])[H])C([H])([H])c2c([H])c(OC([H])([H])C([H])([H])OC([H])([H])C([H])([H])OC([H])([H])C([H])([H])OC([H])([H])C([H])([H])OC([H])([H])C([H])([H])OC([H])([H])C([H])([H])Oc3c([H])c(N([H])C(=O)N4C([H])([H])C([H])([H])C([H])([H])C([H])(n5nc(-c6c([H])c([H])c(Oc7c([H])c([H])c(F)c([H])c7F)c([H])c6[H])c(C(=O)N([H])[H])c5N([H])[H])C4([H])[H])c([H])c([H])c3C(F)(F)F)c([H])c([H])c2C1([H])[H]

$$$$
47:0:0
     RDKit          3D

103112  0  0  1  0  0  0  0  0999 V2000
  -33.2210  -23.0720   20.4460 C   0  0  0  0  0  3  0  0  0  0  0  0
  -32.8420  -21.8010   19.9780 C   0  0  0  0  0  3  0  0  0  0  0  0
  -32.7900  -24.2280   19.7710 C   0  0  0  0  0  3  0  0  0  0  0  0
  -31.5910  -22.8440   18.1630 C   0  0  0  0  0  3  0  0  0  0  0  0
  -32.0160  -21.6810   18.8410 C   0  0  0  0  0  0  0  0  0  0  0  0
  -31.9820  -24.1310   18.6210 C   0  0  0  0  0  0  0  0  0  0  0  0
  -31.6460  -20.2950   18.3320 C   0  0  0  0  0  2  0  0  0  0  0  0
  -30.3480  -19.8530   18.7350 O   0  0  0  0  0  0  0  0  0  0  0  0
  -30.9090  -14.3050   20.1390 C   0  0  0  0  0  0  0  0  0  0  0  0
  -30.3710  -12.2800   18.9080 C   0  0  0  0  0  2  0  0  0  0  0  0
  -29.3840  -12.6790   17.7920 C   0  0  0  0  0  2  0  0  0  0  0  0
  -27.9310  -12.5860   18.3020 C   0  0  0  0  0  2  0  0  0  0  0  0
  -27.7160  -13.3110   19.6590 C   0  0  0  0  0  3  0  0  0  0  0  0
  -28.8340  -12.9620   20.6730 C   0  0  0  0  0  2  0  0  0  0  0  0
  -30.1350  -13.1950   20.0290 N   0  0  0  0  0  0  0  0  0  0  0  0
  -32.1190  -14.2730   19.9090 O   0  0  0  0  0  0  0  0  0  0  0  0
  -28.5150  -17.5570   18.9770 C   0  0  0  0  0  0  0  0  0  0  0  0
  -30.7130  -16.6620   19.6850 C   0  0  0  0  0  0  0  0  0  0  0  0
  -28.5190  -18.4110   17.7530 C   0  0  0  0  0  3  0  0  0  0  0  0
  -30.0170  -18.6050   18.1060 C   0  0  0  0  0  3  0  0  0  0  0  0
  -29.8440  -17.4900   19.0640 N   0  0  0  0  0  0  0  0  0  0  0  0
  -30.2160  -15.4620   20.0870 N   0  0  0  0  0  0  0  0  0  0  0  0
  -27.5970  -16.9450   19.5260 O   0  0  0  0  0  0  0  0  0  0  0  0
  -31.9070  -16.9800   19.7500 O   0  0  0  0  0  0  0  0  0  0  0  0
  -29.2130  -15.3670   20.1120 H   0  0  0  0  0  0  0  0  0  0  0  0
  -25.3720  -13.9430   20.5170 C   0  0  0  0  0  0  0  0  0  0  0  0
  -24.3040  -13.1820   20.9030 C   0  0  0  0  0  0  0  0  0  0  0  0
  -24.7370  -11.8240   20.8110 C   0  0  0  0  0  0  0  0  0  0  0  0
  -26.3860  -13.0510   20.2050 N   0  0  0  0  0  0  0  0  0  0  0  0
  -26.0130  -11.7690   20.4500 N   0  0  0  0  0  0  0  0  0  0  0  0
  -23.9900  -10.5760   20.9910 C   0  0  0  0  0  0  0  0  0  0  0  0
  -24.3890   -9.6080   21.9380 C   0  0  0  0  0  3  0  0  0  0  0  0
  -23.6430   -8.4230   22.1030 C   0  0  0  0  0  3  0  0  0  0  0  0
  -22.4850   -8.1960   21.3230 C   0  0  0  0  0  0  0  0  0  0  0  0
  -22.1080   -9.1520   20.3630 C   0  0  0  0  0  3  0  0  0  0  0  0
  -22.8550  -10.3290   20.1960 C   0  0  0  0  0  3  0  0  0  0  0  0
  -21.7140   -7.0640   21.4000 O   0  0  0  0  0  0  0  0  0  0  0  0
  -21.5960   -6.3530   22.5670 C   0  0  0  0  0  0  0  0  0  0  0  0
  -21.0600   -6.9280   23.7390 C   0  0  0  0  0  3  0  0  0  0  0  0
  -20.8870   -6.1410   24.8940 C   0  0  0  0  0  3  0  0  0  0  0  0
  -21.2440   -4.7810   24.8810 C   0  0  0  0  0  0  0  0  0  0  0  0
  -21.7720   -4.2050   23.7140 C   0  0  0  0  0  3  0  0  0  0  0  0
  -21.9460   -4.9880   22.5590 C   0  0  0  0  0  0  0  0  0  0  0  0
  -22.4370   -4.4210   21.4310 F   0  0  0  0  0  0  0  0  0  0  0  0
  -21.0690   -4.0220   25.9900 F   0  0  0  0  0  0  0  0  0  0  0  0
  -22.9300  -13.6810   21.2430 C   0  0  0  0  0  0  0  0  0  0  0  0
  -22.2150  -12.9660   22.1070 N   0  0  0  0  0  0  0  0  0  0  0  0
  -22.4990  -14.7380   20.7850 O   0  0  0  0  0  0  0  0  0  0  0  0
  -22.5770  -12.1070   22.4970 H   0  0  0  0  0  0  0  0  0  0  0  0
  -21.3000  -13.2890   22.3860 H   0  0  0  0  0  0  0  0  0  0  0  0
  -25.5410  -15.3140   20.3890 N   0  0  0  0  0  0  0  0  0  0  0  0
  -24.7700  -15.9480   20.5580 H   0  0  0  0  0  0  0  0  0  0  0  0
  -26.3310  -15.7830   19.9420 H   0  0  0  0  0  0  0  0  0  0  0  0
  -27.8660  -20.5180   16.5050 C   0  0  0  0  0  1  0  0  0  0  0  0
  -26.0570  -19.0610   17.4710 C   0  0  0  0  0  1  0  0  0  0  0  0
  -27.5020  -19.5650   17.6580 C   0  0  0  0  0  3  0  0  0  0  0  0
  -31.6370  -25.3210   18.0210 O   0  0  0  0  0  0  0  0  0  0  0  0
  -30.8620  -25.2910   16.8310 C   0  0  0  0  0  2  0  0  0  0  0  0
  -30.4010  -26.7190   16.5040 C   0  0  0  0  0  2  0  0  0  0  0  0
  -29.2660  -27.0880   17.2870 O   0  0  0  0  0  0  0  0  0  0  0  0
  -29.5120  -28.0330   18.3260 C   0  0  0  0  0  2  0  0  0  0  0  0
  -29.6890  -27.3700   19.7140 C   0  0  0  0  0  2  0  0  0  0  0  0
  -28.5280  -26.6310   20.1050 O   0  0  0  0  0  0  0  0  0  0  0  0
  -24.5610  -31.6700   23.2450 C   0  0  0  0  0  0  0  0  0  0  0  0
  -27.3560  -27.3460   20.1790 C   0  0  0  0  0  0  0  0  0  0  0  0
  -23.4140  -30.2710   21.5560 C   0  0  0  0  0  3  0  0  0  0  0  0
  -24.9240  -28.7720   20.1580 C   0  0  0  0  0  0  0  0  0  0  0  0
  -25.9300  -30.6880   21.4140 C   0  0  0  0  0  2  0  0  0  0  0  0
  -26.0550  -29.3220   20.7760 C   0  0  0  0  0  0  0  0  0  0  0  0
  -27.2700  -28.6120   20.8000 C   0  0  0  0  0  3  0  0  0  0  0  0
  -26.2080  -26.7870   19.5860 C   0  0  0  0  0  3  0  0  0  0  0  0
  -24.9900  -27.4970   19.5690 C   0  0  0  0  0  3  0  0  0  0  0  0
  -23.6680  -29.6120   20.1730 C   0  0  0  0  0  2  0  0  0  0  0  0
  -24.6530  -30.8880   22.1350 N   0  0  0  0  0  0  0  0  0  0  0  0
  -23.4640  -31.9150   23.7640 O   0  0  0  0  0  0  0  0  0  0  0  0
  -22.7620  -29.2240   22.4860 C   0  0  0  0  0  0  0  0  0  0  0  0
  -21.4420  -29.0280   22.3290 N   0  0  0  0  0  0  0  0  0  0  0  0
  -23.4360  -28.5920   23.3030 O   0  0  0  0  0  0  0  0  0  0  0  0
  -20.9610  -29.5910   21.6440 H   0  0  0  0  0  0  0  0  0  0  0  0
  -18.0660  -27.8250   22.7710 C   0  0  0  0  0  0  0  0  0  0  0  0
  -20.6210  -28.0710   23.0690 C   0  0  0  0  0  3  0  0  0  0  0  0
  -20.7270  -26.6560   22.4540 C   0  0  0  0  0  2  0  0  0  0  0  0
  -19.6320  -26.3640   21.4230 C   0  0  0  0  0  2  0  0  0  0  0  0
  -18.2450  -26.4930   22.0620 C   0  0  0  0  0  2  0  0  0  0  0  0
  -19.1820  -28.5730   23.2310 C   0  0  0  0  0  0  0  0  0  0  0  0
  -18.9650  -29.8190   23.8550 C   0  0  0  0  0  3  0  0  0  0  0  0
  -17.6620  -30.3230   24.0210 C   0  0  0  0  0  3  0  0  0  0  0  0
  -16.5580  -29.5730   23.5790 C   0  0  0  0  0  3  0  0  0  0  0  0
  -16.7600  -28.3240   22.9630 C   0  0  0  0  0  3  0  0  0  0  0  0
  -25.8240  -32.3160   23.9000 C   0  0  0  0  0  3  0  0  0  0  0  0
  -26.3130  -31.5490   25.1880 C   0  0  1  0  0  0  0  0  0  0  0  0
  -25.1810  -31.2450   26.1970 C   0  0  0  0  0  1  0  0  0  0  0  0
  -26.9770  -30.2080   24.8010 C   0  0  0  0  0  1  0  0  0  0  0  0
  -27.3920  -32.3820   25.9200 C   0  0  0  0  0  1  0  0  0  0  0  0
  -25.4900  -33.7100   24.2210 N   0  0  0  0  0  0  0  0  0  0  0  0
  -25.8440  -34.7670   23.4770 C   0  0  0  0  0  0  0  0  0  0  0  0
  -26.5580  -34.6710   22.4740 O   0  0  0  0  0  0  0  0  0  0  0  0
  -24.8550  -33.8540   24.9930 H   0  0  0  0  0  0  0  0  0  0  0  0
  -24.1250  -36.5500   23.0400 C   0  0  0  0  0  1  0  0  0  0  0  0
  -25.3260  -36.1510   23.9130 C   0  0  0  0  0  3  0  0  0  0  0  0
  -27.4040  -37.0480   24.8650 C   0  0  0  0  0  1  0  0  0  0  0  0
  -26.3580  -37.2110   23.8590 N   0  0  0  0  0  0  0  0  0  0  0  0
  -25.9370  -38.1300   23.9800 H   0  0  0  0  0  0  0  0  0  0  0  0
  2  1  1  0
  3  1  2  0
  4  6  2  0
  4  5  1  0
  5  2  2  0
  6  3  1  0
  7  8  1  0
  7  5  1  0
 10 15  1  0
 11 12  1  0
 11 10  1  0
 13 12  1  0
 13 29  1  0
 13 14  1  0
 15  9  1  0
 15 14  1  0
 16  9  2  0
 17 21  1  0
 17 23  2  0
 18 24  2  0
 18 22  1  0
 19 56  1  0
 19 20  1  0
 19 17  1  0
 20  8  1  0
 20 21  1  0
 21 18  1  0
 22 25  1  0
 22  9  1  0
 26 27  2  0
 27 46  1  0
 28 27  1  0
 28 31  1  0
 29 30  1  0
 29 26  1  0
 30 28  2  0
 31 32  1  0
 32 33  2  0
 34 37  1  0
 34 33  1  0
 35 34  2  0
 36 35  1  0
 36 31  2  0
 37 38  1  0
 38 39  1  0
 39 40  2  0
 41 40  1  0
 41 45  1  0
 42 41  2  0
 43 38  2  0
 43 42  1  0
 44 43  1  0
 46 47  1  0
 47 50  1  0
 47 49  1  0
 48 46  2  0
 51 26  1  0
 51 52  1  0
 53 51  1  0
 54 56  1  0
 55 56  1  0
 57  6  1  0
 58 57  1  0
 59 58  1  0
 59 60  1  0
 60 61  1  0
 61 62  1  0
 62 63  1  0
 63 65  1  0
 64 75  2  0
 65 70  1  0
 66 74  1  0
 66 76  1  0
 67 73  1  0
 67 69  1  0
 68 74  1  0
 69 70  2  0
 69 68  1  0
 71 65  2  0
 72 71  1  0
 72 67  2  0
 73 66  1  0
 74 64  1  0
 76 78  2  0
 77 76  1  0
 79 77  1  0
 80 89  2  0
 80 85  1  0
 81 77  1  0
 81 85  1  0
 82 81  1  0
 83 84  1  0
 83 82  1  0
 84 80  1  0
 85 86  2  0
 86 87  1  0
 88 87  2  0
 89 88  1  0
 90 64  1  0
 90 95  1  0
 90 91  1  0
 91 94  1  1
 91 92  1  0
 93 91  1  0
 95 98  1  0
 96100  1  0
 96 95  1  0
 97 96  2  0
100 99  1  0
102100  1  0
102103  1  0
102101  1  0
M  ISO  4   9 100  22 100  62 101  63 101
M  END
>  <TORSDO>  (46) 
F 25

>  <SCORE>  (46) 
-10.639

>  <name>  (46) 
47

>  <ligand_id>  (46) 
47

>  <original_smiles>  (46) 
[H]c1c([H])c(OC([H])([H])C([H])([H])OC([H])([H])C([H])([H])Oc2c([H])c([H])c3c(c2[H])C([H])([H])N(C(=O)C([H])(N([H])C(=O)C([H])(N([H])C([H])([H])[H])C([H])([H])[H])C(C([H])([H])[H])(C([H])([H])[H])C([H])([H])[H])C([H])(C(=O)N([H])C2([H])c4c([H])c([H])c([H])c([H])c4C([H])([H])C([H])([H])C2([H])[H])C3([H])[H])c([H])c(C([H])([H])OC2([H])N(C(=O)N([H])C(=O)N3C([H])([H])C([H])([H])C([H])([H])C([H])(n4nc(-c5c([H])c([H])c(Oc6c([H])c([H])c(F)c([H])c6F)c([H])c5[H])c(C(=O)N([H])[H])c4N([H])[H])C3([H])[H])C(=O)C2([H])C([H])(C([H])([H])[H])C([H])([H])[H])c1[H]

>  <smiles>  (46) 
[H]c1c([H])c(OC([H])([H])C([H])([H])OC([H])([H])C([H])([H])Oc2c([H])c([H])c3c(c2[H])C([H])([H])N(C(=O)C([H])(N([H])C(=O)C([H])(N([H])C([H])([H])[H])C([H])([H])[H])C(C([H])([H])[H])(C([H])([H])[H])C([H])([H])[H])C([H])(C(=O)N([H])C2([H])c4c([H])c([H])c([H])c([H])c4C([H])([H])C([H])([H])C2([H])[H])C3([H])[H])c([H])c(C([H])([H])OC2([H])N(C(=O)N([H])C(=O)N3C([H])([H])C([H])([H])C([H])([H])C([H])(n4nc(-c5c([H])c([H])c(Oc6c([H])c([H])c(F)c([H])c6F)c([H])c5[H])c(C(=O)N([H])[H])c4N([H])[H])C3([H])[H])C(=O)C2([H])C([H])(C([H])([H])[H])C([H])([H])[H])c1[H]

$$$$
48:0:0
     RDKit          3D

 93102  0  0  1  0  0  0  0  0999 V2000
  -28.7820  -21.4350   18.4700 C   0  0  0  0  0  3  0  0  0  0  0  0
  -29.0180  -20.0790   18.7540 C   0  0  0  0  0  3  0  0  0  0  0  0
  -28.5250  -22.3310   19.5200 C   0  0  0  0  0  3  0  0  0  0  0  0
  -28.7440  -20.5120   21.1320 C   0  0  0  0  0  3  0  0  0  0  0  0
  -28.9590  -19.5900   20.0810 C   0  0  0  0  0  0  0  0  0  0  0  0
  -28.5460  -21.8830   20.8560 C   0  0  0  0  0  0  0  0  0  0  0  0
  -30.7570  -14.3990   20.0900 C   0  0  0  0  0  0  0  0  0  0  0  0
  -30.3930  -12.2710   18.9220 C   0  0  0  0  0  2  0  0  0  0  0  0
  -29.3940  -12.5370   17.7770 C   0  0  0  0  0  2  0  0  0  0  0  0
  -27.9360  -12.4260   18.2760 C   0  0  0  0  0  2  0  0  0  0  0  0
  -27.6770  -13.2040   19.5970 C   0  0  0  0  0  3  0  0  0  0  0  0
  -28.7920  -12.9260   20.6310 C   0  0  0  0  0  2  0  0  0  0  0  0
  -30.0860  -13.2230   19.9950 N   0  0  0  0  0  0  0  0  0  0  0  0
  -31.8960  -14.5710   19.6470 O   0  0  0  0  0  0  0  0  0  0  0  0
  -29.7960  -17.6910   21.5040 C   0  0  0  0  0  2  0  0  0  0  0  0
  -28.5170  -17.2560   19.3920 C   0  0  0  0  0  2  0  0  0  0  0  0
  -29.8090  -16.1370   21.5710 C   0  0  0  0  0  2  0  0  0  0  0  0
  -29.5890  -16.2260   19.0620 C   0  0  0  0  0  2  0  0  0  0  0  0
  -29.0800  -18.2080   20.3350 N   0  0  0  0  0  0  0  0  0  0  0  0
  -29.9440  -15.4590   20.2650 N   0  0  0  0  0  0  0  0  0  0  0  0
  -25.3210  -13.8200   20.4270 C   0  0  0  0  0  0  0  0  0  0  0  0
  -24.2670  -13.0480   20.8330 C   0  0  0  0  0  0  0  0  0  0  0  0
  -24.7180  -11.6960   20.7610 C   0  0  0  0  0  0  0  0  0  0  0  0
  -26.3480  -12.9360   20.1370 N   0  0  0  0  0  0  0  0  0  0  0  0
  -25.9930  -11.6520   20.3930 N   0  0  0  0  0  0  0  0  0  0  0  0
  -23.9980  -10.4350   20.9660 C   0  0  0  0  0  0  0  0  0  0  0  0
  -24.4470   -9.4770   21.9010 C   0  0  0  0  0  3  0  0  0  0  0  0
  -23.7290   -8.2770   22.0960 C   0  0  0  0  0  3  0  0  0  0  0  0
  -22.5470   -8.0290   21.3590 C   0  0  0  0  0  0  0  0  0  0  0  0
  -22.1150   -8.9800   20.4150 C   0  0  0  0  0  3  0  0  0  0  0  0
  -22.8350  -10.1710   20.2180 C   0  0  0  0  0  3  0  0  0  0  0  0
  -21.7950   -6.8850   21.4670 O   0  0  0  0  0  0  0  0  0  0  0  0
  -21.7310   -6.1760   22.6400 C   0  0  0  0  0  0  0  0  0  0  0  0
  -21.2850   -6.7640   23.8440 C   0  0  0  0  0  3  0  0  0  0  0  0
  -21.1690   -5.9790   25.0080 C   0  0  0  0  0  3  0  0  0  0  0  0
  -21.4850   -4.6090   24.9680 C   0  0  0  0  0  0  0  0  0  0  0  0
  -21.9220   -4.0200   23.7680 C   0  0  0  0  0  3  0  0  0  0  0  0
  -22.0420   -4.8020   22.6060 C   0  0  0  0  0  0  0  0  0  0  0  0
  -22.4440   -4.2260   21.4480 F   0  0  0  0  0  0  0  0  0  0  0  0
  -21.3630   -3.8520   26.0850 F   0  0  0  0  0  0  0  0  0  0  0  0
  -22.8870  -13.5300   21.1770 C   0  0  0  0  0  0  0  0  0  0  0  0
  -22.2030  -12.8380   22.0810 N   0  0  0  0  0  0  0  0  0  0  0  0
  -22.4290  -14.5590   20.6820 O   0  0  0  0  0  0  0  0  0  0  0  0
  -22.5870  -12.0080   22.5050 H   0  0  0  0  0  0  0  0  0  0  0  0
  -21.2790  -13.1450   22.3490 H   0  0  0  0  0  0  0  0  0  0  0  0
  -25.4830  -15.1920   20.2660 N   0  0  0  0  0  0  0  0  0  0  0  0
  -24.7420  -15.8540   20.4720 H   0  0  0  0  0  0  0  0  0  0  0  0
  -26.3470  -15.6350   19.9920 H   0  0  0  0  0  0  0  0  0  0  0  0
  -28.3280  -22.7580   21.8890 O   0  0  0  0  0  0  0  0  0  0  0  0
  -29.4420  -23.5810   22.2330 C   0  0  0  0  0  2  0  0  0  0  0  0
  -29.6330  -24.7900   21.2960 C   0  0  0  0  0  2  0  0  0  0  0  0
  -28.3380  -25.5740   21.0900 C   0  0  0  0  0  2  0  0  0  0  0  0
  -28.5480  -26.6620   20.1930 O   0  0  0  0  0  0  0  0  0  0  0  0
  -24.5800  -31.7010   23.1340 C   0  0  0  0  0  0  0  0  0  0  0  0
  -27.4030  -27.3960   20.0820 C   0  0  0  0  0  0  0  0  0  0  0  0
  -23.4470  -30.2810   21.4560 C   0  0  0  0  0  3  0  0  0  0  0  0
  -24.9740  -28.8090   20.0430 C   0  0  0  0  0  0  0  0  0  0  0  0
  -25.9610  -30.7280   21.3060 C   0  0  0  0  0  2  0  0  0  0  0  0
  -26.1020  -29.3710   20.6550 C   0  0  0  0  0  0  0  0  0  0  0  0
  -27.3260  -28.6730   20.6700 C   0  0  0  0  0  3  0  0  0  0  0  0
  -26.2670  -26.8400   19.4570 C   0  0  0  0  0  3  0  0  0  0  0  0
  -25.0500  -27.5420   19.4380 C   0  0  0  0  0  3  0  0  0  0  0  0
  -23.7030  -29.6230   20.0730 C   0  0  0  0  0  2  0  0  0  0  0  0
  -24.6810  -30.9140   22.0270 N   0  0  0  0  0  0  0  0  0  0  0  0
  -23.4820  -31.9380   23.6540 O   0  0  0  0  0  0  0  0  0  0  0  0
  -22.8090  -29.2310   22.3920 C   0  0  0  0  0  0  0  0  0  0  0  0
  -21.4890  -29.0290   22.2490 N   0  0  0  0  0  0  0  0  0  0  0  0
  -23.4970  -28.6030   23.2010 O   0  0  0  0  0  0  0  0  0  0  0  0
  -20.9970  -29.5930   21.5710 H   0  0  0  0  0  0  0  0  0  0  0  0
  -18.1250  -27.7980   22.6980 C   0  0  0  0  0  0  0  0  0  0  0  0
  -20.6780  -28.0700   22.9970 C   0  0  0  0  0  3  0  0  0  0  0  0
  -20.7970  -26.6500   22.3970 C   0  0  0  0  0  2  0  0  0  0  0  0
  -19.7070  -26.3380   21.3670 C   0  0  0  0  0  2  0  0  0  0  0  0
  -18.3190  -26.4620   22.0000 C   0  0  0  0  0  2  0  0  0  0  0  0
  -19.2340  -28.5590   23.1530 C   0  0  0  0  0  0  0  0  0  0  0  0
  -19.0010  -29.8110   23.7620 C   0  0  0  0  0  3  0  0  0  0  0  0
  -17.6910  -30.3000   23.9240 C   0  0  0  0  0  3  0  0  0  0  0  0
  -16.5960  -29.5330   23.4890 C   0  0  0  0  0  3  0  0  0  0  0  0
  -16.8150  -28.2840   22.8810 C   0  0  0  0  0  3  0  0  0  0  0  0
  -25.8370  -32.3610   23.7850 C   0  0  0  0  0  3  0  0  0  0  0  0
  -26.3610  -31.5850   25.0540 C   0  0  1  0  0  0  0  0  0  0  0  0
  -25.2650  -31.2970   26.1050 C   0  0  0  0  0  1  0  0  0  0  0  0
  -26.9910  -30.2330   24.6410 C   0  0  0  0  0  1  0  0  0  0  0  0
  -27.4780  -32.4040   25.7420 C   0  0  0  0  0  1  0  0  0  0  0  0
  -25.4790  -33.7430   24.1300 N   0  0  0  0  0  0  0  0  0  0  0  0
  -25.7910  -34.8140   23.3890 C   0  0  0  0  0  0  0  0  0  0  0  0
  -26.4810  -34.7460   22.3670 O   0  0  0  0  0  0  0  0  0  0  0  0
  -24.8650  -33.8670   24.9220 H   0  0  0  0  0  0  0  0  0  0  0  0
  -24.0100  -36.5520   23.0310 C   0  0  0  0  0  1  0  0  0  0  0  0
  -25.2520  -36.1800   23.8560 C   0  0  0  0  0  3  0  0  0  0  0  0
  -27.3480  -37.1200   24.7230 C   0  0  0  0  0  1  0  0  0  0  0  0
  -26.2510  -37.2670   23.7710 N   0  0  0  0  0  0  0  0  0  0  0  0
  -25.8140  -38.1700   23.9300 H   0  0  0  0  0  0  0  0  0  0  0  0
  1  2  2  0
  1  3  1  0
  2  5  1  0
  3  6  2  0
  5 19  1  0
  5  4  2  0
  6  4  1  0
  6 49  1  0
  7 20  1  0
  8 13  1  0
  9 10  1  0
  9  8  1  0
 11 10  1  0
 11 24  1  0
 11 12  1  0
 13  7  1  0
 13 12  1  0
 14  7  2  0
 15 17  1  0
 16 19  1  0
 18 16  1  0
 18 20  1  0
 19 15  1  0
 20 17  1  0
 21 22  2  0
 22 41  1  0
 23 22  1  0
 23 26  1  0
 24 25  1  0
 24 21  1  0
 25 23  2  0
 26 27  1  0
 27 28  2  0
 29 32  1  0
 29 28  1  0
 30 29  2  0
 31 30  1  0
 31 26  2  0
 32 33  1  0
 33 34  1  0
 34 35  2  0
 36 35  1  0
 36 40  1  0
 37 36  2  0
 38 33  2  0
 38 37  1  0
 39 38  1  0
 41 42  1  0
 42 45  1  0
 42 44  1  0
 43 41  2  0
 46 21  1  0
 46 47  1  0
 48 46  1  0
 49 50  1  0
 51 50  1  0
 52 51  1  0
 53 52  1  0
 54 65  2  0
 55 53  1  0
 55 60  1  0
 56 64  1  0
 56 66  1  0
 57 63  1  0
 57 59  1  0
 58 64  1  0
 59 60  2  0
 59 58  1  0
 61 55  2  0
 62 61  1  0
 62 57  2  0
 63 56  1  0
 64 54  1  0
 66 68  2  0
 67 66  1  0
 69 67  1  0
 70 79  2  0
 70 75  1  0
 71 67  1  0
 71 75  1  0
 72 71  1  0
 73 74  1  0
 73 72  1  0
 74 70  1  0
 75 76  2  0
 76 77  1  0
 78 77  2  0
 79 78  1  0
 80 54  1  0
 80 85  1  0
 80 81  1  0
 81 84  1  1
 81 82  1  0
 83 81  1  0
 85 88  1  0
 86 90  1  0
 86 85  1  0
 87 86  2  0
 90 89  1  0
 92 90  1  0
 92 93  1  0
 92 91  1  0
M  ISO  4   7 100  20 100  52 101  53 101
M  END
>  <TORSDO>  (47) 
F 20

>  <SCORE>  (47) 
-13.712

>  <name>  (47) 
48

>  <ligand_id>  (47) 
48

>  <original_smiles>  (47) 
[H]c1c([H])c(OC([H])([H])C([H])([H])C([H])([H])Oc2c([H])c([H])c3c(c2[H])C([H])([H])N(C(=O)C([H])(N([H])C(=O)C([H])(N([H])C([H])([H])[H])C([H])([H])[H])C(C([H])([H])[H])(C([H])([H])[H])C([H])([H])[H])C([H])(C(=O)N([H])C2([H])c4c([H])c([H])c([H])c([H])c4C([H])([H])C([H])([H])C2([H])[H])C3([H])[H])c([H])c(N2C([H])([H])C([H])([H])N(C(=O)N3C([H])([H])C([H])([H])C([H])([H])C([H])(n4nc(-c5c([H])c([H])c(Oc6c([H])c([H])c(F)c([H])c6F)c([H])c5[H])c(C(=O)N([H])[H])c4N([H])[H])C3([H])[H])C([H])([H])C2([H])[H])c1[H]

>  <smiles>  (47) 
[H]c1c([H])c(OC([H])([H])C([H])([H])C([H])([H])Oc2c([H])c([H])c3c(c2[H])C([H])([H])N(C(=O)C([H])(N([H])C(=O)C([H])(N([H])C([H])([H])[H])C([H])([H])[H])C(C([H])([H])[H])(C([H])([H])[H])C([H])([H])[H])C([H])(C(=O)N([H])C2([H])c4c([H])c([H])c([H])c([H])c4C([H])([H])C([H])([H])C2([H])[H])C3([H])[H])c([H])c(N2C([H])([H])C([H])([H])N(C(=O)N3C([H])([H])C([H])([H])C([H])([H])C([H])(n4nc(-c5c([H])c([H])c(Oc6c([H])c([H])c(F)c([H])c6F)c([H])c5[H])c(C(=O)N([H])[H])c4N([H])[H])C3([H])[H])C([H])([H])C2([H])[H])c1[H]

$$$$
49:0:0
     RDKit          3D

 81 85  0  0  1  0  0  0  0  0999 V2000
  -28.1090  -24.6470   20.3000 O   0  0  0  0  0  1  0  0  0  0  0  0
  -24.7100  -31.7810   23.1610 C   0  0  0  0  0  0  0  0  0  0  0  0
  -27.2070  -26.1440   20.2640 C   0  0  0  0  0  0  0  0  0  0  0  0
  -23.5560  -30.3680   21.5220 C   0  0  0  0  0  3  0  0  0  0  0  0
  -25.0090  -28.5810   20.1690 C   0  0  0  0  0  0  0  0  0  0  0  0
  -26.1560  -30.3130   21.5020 C   0  0  0  0  0  2  0  0  0  0  0  0
  -26.2110  -28.8120   20.8490 C   0  0  0  0  0  0  0  0  0  0  0  0
  -27.2590  -27.6460   20.8460 C   0  0  0  0  0  3  0  0  0  0  0  0
  -25.9680  -26.2870   19.5230 C   0  0  0  0  0  3  0  0  0  0  0  0
  -24.9660  -27.3480   19.4800 C   0  0  0  0  0  3  0  0  0  0  0  0
  -23.8360  -29.6140   20.1780 C   0  0  0  0  0  2  0  0  0  0  0  0
  -24.8390  -30.8700   22.1140 N   0  0  0  0  0  0  0  0  0  0  0  0
  -23.6010  -32.1150   23.6230 O   0  0  0  0  0  0  0  0  0  0  0  0
  -22.7620  -29.4580   22.5040 C   0  0  0  0  0  0  0  0  0  0  0  0
  -21.4220  -29.3560   22.3730 N   0  0  0  0  0  0  0  0  0  0  0  0
  -23.3780  -28.8290   23.3670 O   0  0  0  0  0  0  0  0  0  0  0  0
  -20.9670  -29.9120   21.6630 H   0  0  0  0  0  0  0  0  0  0  0  0
  -17.9970  -28.2130   22.9010 C   0  0  0  0  0  0  0  0  0  0  0  0
  -20.5670  -28.4380   23.1430 C   0  0  0  0  0  3  0  0  0  0  0  0
  -20.6330  -27.0060   22.5600 C   0  0  0  0  0  2  0  0  0  0  0  0
  -19.5210  -26.7160   21.5460 C   0  0  0  0  0  2  0  0  0  0  0  0
  -18.1460  -26.8740   22.1990 C   0  0  0  0  0  2  0  0  0  0  0  0
  -19.1320  -28.9550   23.3290 C   0  0  0  0  0  0  0  0  0  0  0  0
  -18.9320  -30.2040   23.9560 C   0  0  0  0  0  3  0  0  0  0  0  0
  -17.6350  -30.7130   24.1530 C   0  0  0  0  0  3  0  0  0  0  0  0
  -16.5160  -29.9710   23.7350 C   0  0  0  0  0  3  0  0  0  0  0  0
  -16.6980  -28.7220   23.1160 C   0  0  0  0  0  3  0  0  0  0  0  0
  -25.9400  -32.4590   23.8420 C   0  0  0  0  0  3  0  0  0  0  0  0
  -25.5980  -33.8650   24.1720 N   0  0  0  0  0  0  0  0  0  0  0  0
  -25.9200  -34.9450   23.4450 C   0  0  0  0  0  0  0  0  0  0  0  0
  -26.5760  -34.8640   22.4040 O   0  0  0  0  0  0  0  0  0  0  0  0
  -25.0070  -33.9990   24.9800 H   0  0  0  0  0  0  0  0  0  0  0  0
  -24.1680  -36.7480   23.1980 C   0  0  0  0  0  1  0  0  0  0  0  0
  -25.4480  -36.3330   23.9420 C   0  0  0  0  0  3  0  0  0  0  0  0
  -27.6060  -37.2470   24.6880 C   0  0  0  0  0  1  0  0  0  0  0  0
  -26.4650  -37.3980   23.7880 N   0  0  0  0  0  0  0  0  0  0  0  0
  -26.0550  -38.3150   23.9480 H   0  0  0  0  0  0  0  0  0  0  0  0
  -26.3960  -31.7200   25.1620 C   0  0  1  0  0  0  0  0  0  0  0  0
  -25.2580  -31.5140   26.1910 C   0  0  0  0  0  1  0  0  0  0  0  0
  -26.9880  -30.3300   24.8490 C   0  0  0  0  0  1  0  0  0  0  0  0
  -27.5230  -32.5250   25.8520 C   0  0  0  0  0  1  0  0  0  0  0  0
  -28.1400  -22.5480   20.1630 C   0  0  0  0  0 15  0  0  0  0  0  0
  -29.1420  -20.4180   20.2160 C   0  0  0  0  0 15  0  0  0  0  0  0
  -29.9010  -16.6470   20.0860 C   0  0  0  0  0  0  0  0  0  0  0  0
  -30.2300  -13.8900   19.2940 C   0  0  0  0  0  2  0  0  0  0  0  0
  -29.4480  -13.0530   18.1990 C   0  0  0  0  0  2  0  0  0  0  0  0
  -28.1340  -12.4820   18.7300 C   0  0  0  0  0  2  0  0  0  0  0  0
  -27.5010  -13.5140   19.6750 C   0  0  0  0  0  3  0  0  0  0  0  0
  -28.4750  -14.2100   20.6950 C   0  0  0  0  0  2  0  0  0  0  0  0
  -29.4550  -15.1290   19.9600 N   0  0  0  0  0  0  0  0  0  0  0  0
  -31.1430  -16.3980   20.0040 O   0  0  0  0  0  0  0  0  0  0  0  0
  -29.2570  -18.3100   20.1340 N   0  0  0  0  0  2  0  0  0  0  0  0
  -30.2580  -18.4710   20.1320 H   0  0  0  0  0  0  0  0  0  0  0  0
  -25.1600  -13.9200   20.5080 C   0  0  0  0  0  0  0  0  0  0  0  0
  -24.1280  -13.1120   20.8810 C   0  0  0  0  0  0  0  0  0  0  0  0
  -24.6260  -11.7720   20.8220 C   0  0  0  0  0  0  0  0  0  0  0  0
  -26.2240  -13.0860   20.2420 N   0  0  0  0  0  0  0  0  0  0  0  0
  -25.9190  -11.7780   20.4820 N   0  0  0  0  0  0  0  0  0  0  0  0
  -23.9140  -10.4950   21.0120 C   0  0  0  0  0  0  0  0  0  0  0  0
  -24.3570   -9.5290   21.9420 C   0  0  0  0  0  3  0  0  0  0  0  0
  -23.6350   -8.3280   22.1300 C   0  0  0  0  0  3  0  0  0  0  0  0
  -22.4560   -8.0830   21.3870 C   0  0  0  0  0  0  0  0  0  0  0  0
  -22.0290   -9.0390   20.4470 C   0  0  0  0  0  3  0  0  0  0  0  0
  -22.7510  -10.2310   20.2590 C   0  0  0  0  0  3  0  0  0  0  0  0
  -21.7070   -6.9350   21.4820 O   0  0  0  0  0  0  0  0  0  0  0  0
  -21.6700   -6.1910   22.6350 C   0  0  0  0  0  0  0  0  0  0  0  0
  -21.2140   -6.7320   23.8560 C   0  0  0  0  0  3  0  0  0  0  0  0
  -21.1260   -5.9140   25.0000 C   0  0  0  0  0  3  0  0  0  0  0  0
  -21.4850   -4.5540   24.9250 C   0  0  0  0  0  0  0  0  0  0  0  0
  -21.9340   -4.0110   23.7070 C   0  0  0  0  0  3  0  0  0  0  0  0
  -22.0220   -4.8270   22.5660 C   0  0  0  0  0  0  0  0  0  0  0  0
  -22.4340   -4.2930   21.3900 F   0  0  0  0  0  0  0  0  0  0  0  0
  -21.3950   -3.7660   26.0220 F   0  0  0  0  0  0  0  0  0  0  0  0
  -22.7270  -13.5620   21.1730 C   0  0  0  0  0  0  0  0  0  0  0  0
  -22.0260  -12.8570   22.0520 N   0  0  0  0  0  0  0  0  0  0  0  0
  -22.2670  -14.5820   20.6590 O   0  0  0  0  0  0  0  0  0  0  0  0
  -22.4140  -12.0340   22.4890 H   0  0  0  0  0  0  0  0  0  0  0  0
  -21.0880  -13.1430   22.2910 H   0  0  0  0  0  0  0  0  0  0  0  0
  -25.2790  -15.2960   20.3350 N   0  0  0  0  0  0  0  0  0  0  0  0
  -24.4980  -15.9290   20.4650 H   0  0  0  0  0  0  0  0  0  0  0  0
  -26.1180  -15.7610   20.0090 H   0  0  0  0  0  0  0  0  0  0  0  0
  2 13  2  0
  3  1  1  0
  3  8  1  0
  4 12  1  0
  4 14  1  0
  5 11  1  0
  5  7  1  0
  6 12  1  0
  7  6  1  0
  8  7  2  0
  9  3  2  0
 10  9  1  0
 10  5  2  0
 11  4  1  0
 12  2  1  0
 14 16  2  0
 15 14  1  0
 17 15  1  0
 18 27  2  0
 18 23  1  0
 19 15  1  0
 19 23  1  0
 20 19  1  0
 21 22  1  0
 21 20  1  0
 22 18  1  0
 23 24  2  0
 24 25  1  0
 26 25  2  0
 27 26  1  0
 28  2  1  0
 28 29  1  0
 28 38  1  0
 29 32  1  0
 30 34  1  0
 30 29  1  0
 31 30  2  0
 34 33  1  0
 36 34  1  0
 36 37  1  0
 36 35  1  0
 38 41  1  1
 38 39  1  0
 40 38  1  0
 44 52  1  0
 45 50  1  0
 46 47  1  0
 46 45  1  0
 48 47  1  0
 48 57  1  0
 48 49  1  0
 50 44  1  0
 50 49  1  0
 51 44  2  0
 53 52  1  0
 54 55  2  0
 55 74  1  0
 56 55  1  0
 56 59  1  0
 57 58  1  0
 57 54  1  0
 58 56  2  0
 59 60  1  0
 60 61  2  0
 62 65  1  0
 62 61  1  0
 63 62  2  0
 64 63  1  0
 64 59  2  0
 65 66  1  0
 66 67  1  0
 67 68  2  0
 69 68  1  0
 69 73  1  0
 70 69  2  0
 71 66  2  0
 71 70  1  0
 72 71  1  0
 74 75  1  0
 75 78  1  0
 75 77  1  0
 76 74  2  0
 79 80  1  0
 79 54  1  0
 81 79  1  0
M  ISO  4   1 101  42 101  44 100  52 100
M  END
>  <TORSDO>  (48) 
F 17

>  <SCORE>  (48) 
-16.141

>  <name>  (48) 
49

>  <ligand_id>  (48) 
49

>  <original_smiles>  (48) 
[H]c1c([H])c([H])c2c(c1[H])C([H])([H])C([H])([H])C([H])([H])C2([H])N([H])C(=O)C1([H])N(C(=O)C([H])(N([H])C(=O)C([H])(N([H])C([H])([H])[H])C([H])([H])[H])C(C([H])([H])[H])(C([H])([H])[H])C([H])([H])[H])C([H])([H])c2c([H])c(OC([H])([H])C([H])([H])N([H])C(=O)N3C([H])([H])C([H])([H])C([H])([H])C([H])(n4nc(-c5c([H])c([H])c(Oc6c([H])c([H])c(F)c([H])c6F)c([H])c5[H])c(C(=O)N([H])[H])c4N([H])[H])C3([H])[H])c([H])c([H])c2C1([H])[H]

>  <smiles>  (48) 
[H]c1c([H])c([H])c2c(c1[H])C([H])([H])C([H])([H])C([H])([H])C2([H])N([H])C(=O)C1([H])N(C(=O)C([H])(N([H])C(=O)C([H])(N([H])C([H])([H])[H])C([H])([H])[H])C(C([H])([H])[H])(C([H])([H])[H])C([H])([H])[H])C([H])([H])c2c([H])c(OC([H])([H])C([H])([H])N([H])C(=O)N3C([H])([H])C([H])([H])C([H])([H])C([H])(n4nc(-c5c([H])c([H])c(Oc6c([H])c([H])c(F)c([H])c6F)c([H])c5[H])c(C(=O)N([H])[H])c4N([H])[H])C3([H])[H])c([H])c([H])c2C1([H])[H]

$$$$
50:0:0
     RDKit          3D

 93101  0  0  1  0  0  0  0  0999 V2000
  -29.7250  -21.1440   20.6740 O   0  0  0  0  0  0  0  0  0  0  0  0
  -30.5510  -19.1840   23.7460 C   0  0  0  0  0  3  0  0  0  0  0  0
  -30.8180  -17.9320   23.1590 C   0  0  0  0  0  3  0  0  0  0  0  0
  -30.1760  -20.2800   22.9450 C   0  0  0  0  0  3  0  0  0  0  0  0
  -30.3380  -18.8710   20.9650 C   0  0  0  0  0  3  0  0  0  0  0  0
  -30.7050  -17.7670   21.7630 C   0  0  0  0  0  0  0  0  0  0  0  0
  -30.0710  -20.1320   21.5410 C   0  0  0  0  0  0  0  0  0  0  0  0
  -30.8990  -16.3950   21.1310 C   0  0  0  0  0  2  0  0  0  0  0  0
  -32.3670  -15.9290   21.0030 C   0  0  0  0  0  2  0  0  0  0  0  0
  -33.0670  -14.2240   19.2750 C   0  0  0  0  0  0  0  0  0  0  0  0
  -32.2830  -12.0340   18.4580 C   0  0  0  0  0  2  0  0  0  0  0  0
  -31.2400  -12.2300   17.3380 C   0  0  0  0  0  2  0  0  0  0  0  0
  -29.8250  -12.3970   17.9290 C   0  0  0  0  0  2  0  0  0  0  0  0
  -29.7740  -13.4310   19.0850 C   0  0  0  0  0  3  0  0  0  0  0  0
  -30.9100  -13.1600   20.0970 C   0  0  0  0  0  2  0  0  0  0  0  0
  -32.1880  -13.1870   19.3690 N   0  0  0  0  0  0  0  0  0  0  0  0
  -34.0960  -14.1650   18.5990 O   0  0  0  0  0  0  0  0  0  0  0  0
  -32.6470  -15.4420   19.6500 N   0  0  0  0  0  0  0  0  0  0  0  0
  -33.1260  -16.1490   19.1130 H   0  0  0  0  0  0  0  0  0  0  0  0
  -27.7200  -14.5230   20.1950 C   0  0  0  0  0  0  0  0  0  0  0  0
  -26.5430  -13.9990   20.6550 C   0  0  0  0  0  0  0  0  0  0  0  0
  -26.6260  -12.5910   20.4320 C   0  0  0  0  0  0  0  0  0  0  0  0
  -28.4640  -13.4470   19.7330 N   0  0  0  0  0  0  0  0  0  0  0  0
  -27.8110  -12.2730   19.9280 N   0  0  0  0  0  0  0  0  0  0  0  0
  -25.6200  -11.5370   20.6110 C   0  0  0  0  0  0  0  0  0  0  0  0
  -25.8270  -10.4650   21.5080 C   0  0  0  0  0  3  0  0  0  0  0  0
  -24.8350   -9.4740   21.6780 C   0  0  0  0  0  3  0  0  0  0  0  0
  -23.6230   -9.5510   20.9530 C   0  0  0  0  0  0  0  0  0  0  0  0
  -23.4330  -10.6060   20.0450 C   0  0  0  0  0  3  0  0  0  0  0  0
  -24.4210  -11.5880   19.8720 C   0  0  0  0  0  3  0  0  0  0  0  0
  -22.6160   -8.6210   21.0350 O   0  0  0  0  0  0  0  0  0  0  0  0
  -22.3100   -7.9940   22.2150 C   0  0  0  0  0  0  0  0  0  0  0  0
  -21.9190   -8.7160   23.3640 C   0  0  0  0  0  3  0  0  0  0  0  0
  -21.5480   -8.0290   24.5360 C   0  0  0  0  0  3  0  0  0  0  0  0
  -21.5560   -6.6210   24.5600 C   0  0  0  0  0  0  0  0  0  0  0  0
  -21.9400   -5.9000   23.4160 C   0  0  0  0  0  3  0  0  0  0  0  0
  -22.3130   -6.5850   22.2460 C   0  0  0  0  0  0  0  0  0  0  0  0
  -22.6610   -5.8850   21.1390 F   0  0  0  0  0  0  0  0  0  0  0  0
  -21.1920   -5.9600   25.6840 F   0  0  0  0  0  0  0  0  0  0  0  0
  -25.3660  -14.7710   21.1790 C   0  0  0  0  0  0  0  0  0  0  0  0
  -24.6240  -14.1970   22.1210 N   0  0  0  0  0  0  0  0  0  0  0  0
  -25.1240  -15.9120   20.7890 O   0  0  0  0  0  0  0  0  0  0  0  0
  -24.8320  -13.2670   22.4530 H   0  0  0  0  0  0  0  0  0  0  0  0
  -23.8370  -14.6950   22.5130 H   0  0  0  0  0  0  0  0  0  0  0  0
  -28.2010  -15.8250   20.1030 N   0  0  0  0  0  0  0  0  0  0  0  0
  -27.6400  -16.6220   20.3850 H   0  0  0  0  0  0  0  0  0  0  0  0
  -29.0680  -16.0880   19.6530 H   0  0  0  0  0  0  0  0  0  0  0  0
  -28.9660  -22.2540   21.1490 C   0  0  0  0  0  2  0  0  0  0  0  0
  -29.3230  -23.4240   20.2270 C   0  0  0  0  0  2  0  0  0  0  0  0
  -28.5150  -24.7160   20.4610 C   0  0  0  0  0  2  0  0  0  0  0  0
  -28.9040  -25.8070   19.4470 C   0  0  0  0  0  0  0  0  0  0  0  0
  -29.5200  -25.5300   18.4140 O   0  0  0  0  0  0  0  0  0  0  0  0
  -28.6620  -27.0860   19.8060 O   0  0  0  0  0  0  0  0  0  0  0  0
  -24.6620  -31.7370   23.3890 C   0  0  0  0  0  0  0  0  0  0  0  0
  -27.4140  -27.6490   19.9510 C   0  0  0  0  0  0  0  0  0  0  0  0
  -23.4680  -30.3940   21.6860 C   0  0  0  0  0  3  0  0  0  0  0  0
  -24.9440  -29.0090   20.1380 C   0  0  0  0  0  0  0  0  0  0  0  0
  -25.9650  -30.8780   21.4490 C   0  0  0  0  0  2  0  0  0  0  0  0
  -26.0880  -29.5510   20.7340 C   0  0  0  0  0  0  0  0  0  0  0  0
  -27.3200  -28.8710   20.6520 C   0  0  0  0  0  3  0  0  0  0  0  0
  -26.2500  -27.1130   19.3520 C   0  0  0  0  0  3  0  0  0  0  0  0
  -25.0150  -27.7830   19.4540 C   0  0  0  0  0  3  0  0  0  0  0  0
  -23.6690  -29.8100   20.2620 C   0  0  0  0  0  2  0  0  0  0  0  0
  -24.7180  -31.0150   22.2340 N   0  0  0  0  0  0  0  0  0  0  0  0
  -23.5860  -31.9260   23.9730 O   0  0  0  0  0  0  0  0  0  0  0  0
  -22.8920  -29.2830   22.5930 C   0  0  0  0  0  0  0  0  0  0  0  0
  -21.6160  -28.9320   22.3660 N   0  0  0  0  0  0  0  0  0  0  0  0
  -23.5910  -28.7420   23.4530 O   0  0  0  0  0  0  0  0  0  0  0  0
  -21.1050  -29.4330   21.6520 H   0  0  0  0  0  0  0  0  0  0  0  0
  -18.4670  -27.1670   22.4640 C   0  0  0  0  0  0  0  0  0  0  0  0
  -20.8750  -27.8850   23.0690 C   0  0  0  0  0  3  0  0  0  0  0  0
  -21.3050  -26.4790   22.5910 C   0  0  0  0  0  2  0  0  0  0  0  0
  -20.4320  -25.9360   21.4550 C   0  0  0  0  0  2  0  0  0  0  0  0
  -18.9700  -25.8510   21.8960 C   0  0  0  0  0  2  0  0  0  0  0  0
  -19.3630  -28.1300   23.0020 C   0  0  0  0  0  0  0  0  0  0  0  0
  -18.8470  -29.3520   23.4840 C   0  0  0  0  0  3  0  0  0  0  0  0
  -17.4650  -29.6170   23.4420 C   0  0  0  0  0  3  0  0  0  0  0  0
  -16.5810  -28.6550   22.9250 C   0  0  0  0  0  3  0  0  0  0  0  0
  -17.0820  -27.4330   22.4400 C   0  0  0  0  0  3  0  0  0  0  0  0
  -25.9380  -32.3820   24.0150 C   0  0  0  0  0  3  0  0  0  0  0  0
  -25.6380  -33.7950   24.2770 N   0  0  0  0  0  0  0  0  0  0  0  0
  -26.0410  -34.8130   23.5050 C   0  0  0  0  0  0  0  0  0  0  0  0
  -26.7770  -34.6640   22.5270 O   0  0  0  0  0  0  0  0  0  0  0  0
  -24.9950  -33.9890   25.0300 H   0  0  0  0  0  0  0  0  0  0  0  0
  -24.3640  -36.6130   22.9840 C   0  0  0  0  0  1  0  0  0  0  0  0
  -25.5500  -36.2250   23.8810 C   0  0  0  0  0  3  0  0  0  0  0  0
  -27.6570  -37.1000   24.7870 C   0  0  0  0  0  1  0  0  0  0  0  0
  -26.6040  -37.2590   23.7890 N   0  0  0  0  0  0  0  0  0  0  0  0
  -26.2050  -38.1880   23.8930 H   0  0  0  0  0  0  0  0  0  0  0  0
  -26.4190  -31.6580   25.3320 C   0  0  1  0  0  0  0  0  0  0  0  0
  -25.2930  -31.4480   26.3720 C   0  0  0  0  0  1  0  0  0  0  0  0
  -27.0210  -30.2720   25.0010 C   0  0  0  0  0  1  0  0  0  0  0  0
  -27.5410  -32.4820   26.0050 C   0  0  0  0  0  1  0  0  0  0  0  0
  1 48  1  0
  1  7  1  0
  3  2  1  0
  4  2  2  0
  5  7  2  0
  5  6  1  0
  6  3  2  0
  7  4  1  0
  8  6  1  0
  9  8  1  0
 10 16  1  0
 10 18  1  0
 11 16  1  0
 12 13  1  0
 12 11  1  0
 14 13  1  0
 14 23  1  0
 14 15  1  0
 16 15  1  0
 17 10  2  0
 18  9  1  0
 19 18  1  0
 20 21  2  0
 21 40  1  0
 22 25  1  0
 22 21  1  0
 23 24  1  0
 23 20  1  0
 24 22  2  0
 25 26  1  0
 26 27  2  0
 28 31  1  0
 28 27  1  0
 29 28  2  0
 30 29  1  0
 30 25  2  0
 31 32  1  0
 32 37  2  0
 32 33  1  0
 33 34  2  0
 34 35  1  0
 35 39  1  0
 36 35  2  0
 37 36  1  0
 38 37  1  0
 40 41  1  0
 41 43  1  0
 41 44  1  0
 42 40  2  0
 45 20  1  0
 45 46  1  0
 47 45  1  0
 49 50  1  0
 49 48  1  0
 51 53  1  0
 51 50  1  0
 52 51  2  0
 53 55  1  0
 54 65  2  0
 55 60  1  0
 56 64  1  0
 56 66  1  0
 57 63  1  0
 57 59  1  0
 58 64  1  0
 59 58  1  0
 60 59  2  0
 61 62  1  0
 61 55  2  0
 62 57  2  0
 63 56  1  0
 64 54  1  0
 66 68  2  0
 67 66  1  0
 69 67  1  0
 70 75  1  0
 71 67  1  0
 72 71  1  0
 73 74  1  0
 73 72  1  0
 74 70  1  0
 75 71  1  0
 75 76  2  0
 77 76  1  0
 78 77  2  0
 79 70  2  0
 79 78  1  0
 80 54  1  0
 80 81  1  0
 80 90  1  0
 81 84  1  0
 82 86  1  0
 82 81  1  0
 83 82  2  0
 86 85  1  0
 88 86  1  0
 88 89  1  0
 88 87  1  0
 90 93  1  1
 90 91  1  0
 92 90  1  0
M  ISO  4  10 100  18 100  51 101  53 101
M  END
>  <TORSDO>  (49) 
F 23

>  <SCORE>  (49) 
-7.696

>  <name>  (49) 
50

>  <ligand_id>  (49) 
50

>  <original_smiles>  (49) 
[H]c1c([H])c(OC([H])([H])C([H])([H])C([H])([H])C(=O)Oc2c([H])c([H])c3c(c2[H])C([H])([H])N(C(=O)C([H])(N([H])C(=O)C([H])(N([H])C([H])([H])[H])C([H])([H])[H])C(C([H])([H])[H])(C([H])([H])[H])C([H])([H])[H])C([H])(C(=O)N([H])C2([H])c4c([H])c([H])c([H])c([H])c4C([H])([H])C([H])([H])C2([H])[H])C3([H])[H])c([H])c(C([H])([H])C([H])([H])N([H])C(=O)N2C([H])([H])C([H])([H])C([H])([H])C([H])(n3nc(-c4c([H])c([H])c(Oc5c([H])c([H])c(F)c([H])c5F)c([H])c4[H])c(C(=O)N([H])[H])c3N([H])[H])C2([H])[H])c1[H]

>  <smiles>  (49) 
[H]c1c([H])c(OC([H])([H])C([H])([H])C([H])([H])C(=O)Oc2c([H])c([H])c3c(c2[H])C([H])([H])N(C(=O)C([H])(N([H])C(=O)C([H])(N([H])C([H])([H])[H])C([H])([H])[H])C(C([H])([H])[H])(C([H])([H])[H])C([H])([H])[H])C([H])(C(=O)N([H])C2([H])c4c([H])c([H])c([H])c([H])c4C([H])([H])C([H])([H])C2([H])[H])C3([H])[H])c([H])c(C([H])([H])C([H])([H])N([H])C(=O)N2C([H])([H])C([H])([H])C([H])([H])C([H])(n3nc(-c4c([H])c([H])c(Oc5c([H])c([H])c(F)c([H])c5F)c([H])c4[H])c(C(=O)N([H])[H])c3N([H])[H])C2([H])[H])c1[H]

$$$$
51:0:0
     RDKit          3D

111119  0  0  1  0  0  0  0  0999 V2000
  -33.7310  -20.7430   18.7060 O   0  0  0  0  0  0  0  0  0  0  0  0
  -32.3480  -20.7650   18.3500 C   0  0  0  0  0  2  0  0  0  0  0  0
  -31.6910  -22.1140   18.6790 C   0  0  0  0  0  2  0  0  0  0  0  0
  -30.2920  -21.9230   18.7710 O   0  0  0  0  0  0  0  0  0  0  0  0
  -29.9010  -20.9060   19.6760 C   0  0  0  0  0  2  0  0  0  0  0  0
  -31.0920  -19.9540   19.8970 C   0  0  0  0  0  2  0  0  0  0  0  0
  -30.7620  -18.6050   19.5800 O   0  0  0  0  0  0  0  0  0  0  0  0
  -29.7370  -18.0180   20.3750 C   0  0  0  0  0  2  0  0  0  0  0  0
  -30.2560  -16.7950   21.1640 C   0  0  0  0  0  2  0  0  0  0  0  0
  -29.7980  -15.5320   20.6800 O   0  0  0  0  0  0  0  0  0  0  0  0
  -30.6710  -14.4280   20.8980 C   0  0  0  0  0  2  0  0  0  0  0  0
  -31.5190  -14.1740   19.6400 C   0  0  0  0  0  2  0  0  0  0  0  0
  -30.9260  -14.7870   18.4950 O   0  0  0  0  0  0  0  0  0  0  0  0
  -31.7840  -14.8020   17.3540 C   0  0  0  0  0  2  0  0  0  0  0  0
  -32.7100  -13.5670   17.3360 C   0  0  0  0  0  2  0  0  0  0  0  0
  -33.0810  -13.1900   16.0060 O   0  0  0  0  0  0  0  0  0  0  0  0
  -33.2850  -14.3210   15.1570 C   0  0  0  0  0  2  0  0  0  0  0  0
  -34.3490  -14.0800   14.0620 C   0  0  0  0  0  2  0  0  0  0  0  0
  -36.1580  -12.6040   14.9530 C   0  0  0  0  0  0  0  0  0  0  0  0
  -37.5990  -11.4310   16.5720 C   0  0  0  0  0  2  0  0  0  0  0  0
  -36.9990  -11.5980   17.9840 C   0  0  0  0  0  2  0  0  0  0  0  0
  -37.4780  -12.9070   18.6430 C   0  0  0  0  0  2  0  0  0  0  0  0
  -37.3100  -14.1340   17.7090 C   0  0  0  0  0  3  0  0  0  0  0  0
  -37.8960  -13.8260   16.3120 C   0  0  0  0  0  2  0  0  0  0  0  0
  -37.2270  -12.6180   15.7910 N   0  0  0  0  0  0  0  0  0  0  0  0
  -35.6010  -11.5700   14.5720 O   0  0  0  0  0  0  0  0  0  0  0  0
  -35.6530  -13.8120   14.6730 N   0  0  0  0  0  0  0  0  0  0  0  0
  -36.1580  -14.6010   15.0450 H   0  0  0  0  0  0  0  0  0  0  0  0
  -38.4370  -15.5340   19.5560 C   0  0  0  0  0  0  0  0  0  0  0  0
  -38.9210  -16.8120   19.5640 C   0  0  0  0  0  0  0  0  0  0  0  0
  -38.6590  -17.3410   18.2630 C   0  0  0  0  0  0  0  0  0  0  0  0
  -37.9060  -15.3350   18.2910 N   0  0  0  0  0  0  0  0  0  0  0  0
  -37.9970  -16.4550   17.5320 N   0  0  0  0  0  0  0  0  0  0  0  0
  -39.0490  -18.6160   17.6520 C   0  0  0  0  0  0  0  0  0  0  0  0
  -38.9310  -19.8360   18.3550 C   0  0  0  0  0  3  0  0  0  0  0  0
  -39.3280  -21.0490   17.7530 C   0  0  0  0  0  3  0  0  0  0  0  0
  -39.8520  -21.0510   16.4380 C   0  0  0  0  0  0  0  0  0  0  0  0
  -39.9430  -19.8360   15.7360 C   0  0  0  0  0  3  0  0  0  0  0  0
  -39.5420  -18.6310   16.3340 C   0  0  0  0  0  3  0  0  0  0  0  0
  -40.2400  -22.1810   15.7620 O   0  0  0  0  0  0  0  0  0  0  0  0
  -41.4890  -22.2920   15.2050 C   0  0  0  0  0  0  0  0  0  0  0  0
  -42.3980  -21.2120   15.1940 C   0  0  0  0  0  3  0  0  0  0  0  0
  -43.6440  -21.3490   14.5500 C   0  0  0  0  0  3  0  0  0  0  0  0
  -43.9760  -22.5570   13.9070 C   0  0  0  0  0  0  0  0  0  0  0  0
  -43.0700  -23.6320   13.9160 C   0  0  0  0  0  3  0  0  0  0  0  0
  -41.8270  -23.4970   14.5590 C   0  0  0  0  0  0  0  0  0  0  0  0
  -40.9470  -24.5280   14.5440 F   0  0  0  0  0  0  0  0  0  0  0  0
  -45.1690  -22.6860   13.2810 F   0  0  0  0  0  0  0  0  0  0  0  0
  -39.6740  -17.4820   20.6790 C   0  0  0  0  0  0  0  0  0  0  0  0
  -39.2270  -18.6600   21.1000 N   0  0  0  0  0  0  0  0  0  0  0  0
  -40.6380  -16.9340   21.2160 O   0  0  0  0  0  0  0  0  0  0  0  0
  -38.4280  -19.0970   20.6660 H   0  0  0  0  0  0  0  0  0  0  0  0
  -39.6910  -19.1300   21.8650 H   0  0  0  0  0  0  0  0  0  0  0  0
  -38.4170  -14.5170   20.5070 N   0  0  0  0  0  0  0  0  0  0  0  0
  -38.8630  -14.6200   21.4110 H   0  0  0  0  0  0  0  0  0  0  0  0
  -38.0930  -13.5750   20.3330 H   0  0  0  0  0  0  0  0  0  0  0  0
  -34.2380  -19.4130   18.7910 C   0  0  0  0  0  2  0  0  0  0  0  0
  -33.2570  -18.3960   18.1860 C   0  0  0  0  0  2  0  0  0  0  0  0
  -33.8050  -18.6520   15.7650 C   0  0  0  0  0  0  0  0  0  0  0  0
  -32.9310  -18.6410   16.7800 N   0  0  0  0  0  0  0  0  0  0  0  0
  -34.9610  -18.2310   15.8390 O   0  0  0  0  0  0  0  0  0  0  0  0
  -32.0160  -19.0230   16.5930 H   0  0  0  0  0  0  0  0  0  0  0  0
  -31.4510  -19.9560   13.0680 C   0  0  0  0  0  3  0  0  0  0  0  0
  -31.9270  -19.3720   14.2560 C   0  0  0  0  0  3  0  0  0  0  0  0
  -32.3570  -20.5080   12.1440 C   0  0  0  0  0  3  0  0  0  0  0  0
  -34.2080  -19.9520   13.6260 C   0  0  0  0  0  3  0  0  0  0  0  0
  -33.3100  -19.3480   14.5340 C   0  0  0  0  0  0  0  0  0  0  0  0
  -33.7460  -20.5260   12.4170 C   0  0  0  0  0  0  0  0  0  0  0  0
  -34.6620  -21.1740   11.4310 C   0  0  0  0  0  0  0  0  0  0  0  0
  -35.4760  -22.0430   11.7680 O   0  0  0  0  0  0  0  0  0  0  0  0
  -34.5680  -20.6780   10.1580 O   0  0  0  0  0  0  0  0  0  0  0  0
  -40.6980  -17.9750    7.6140 C   0  0  0  0  0  0  0  0  0  0  0  0
  -35.3550  -19.5940    9.8480 C   0  0  0  0  0  0  0  0  0  0  0  0
  -38.9420  -16.3360    8.2160 C   0  0  0  0  0  3  0  0  0  0  0  0
  -36.9280  -17.2860    9.4550 C   0  0  0  0  0  0  0  0  0  0  0  0
  -39.0380  -18.6250    9.3520 C   0  0  0  0  0  2  0  0  0  0  0  0
  -37.5340  -18.5490    9.4900 C   0  0  0  0  0  0  0  0  0  0  0  0
  -36.7530  -19.7110    9.6680 C   0  0  0  0  0  3  0  0  0  0  0  0
  -34.7490  -18.3240    9.7690 C   0  0  0  0  0  3  0  0  0  0  0  0
  -35.5310  -17.1680    9.5740 C   0  0  0  0  0  3  0  0  0  0  0  0
  -37.8420  -16.0940    9.2860 C   0  0  0  0  0  2  0  0  0  0  0  0
  -39.5910  -17.6820    8.3530 N   0  0  0  0  0  0  0  0  0  0  0  0
  -41.2080  -17.1340    6.8620 O   0  0  0  0  0  0  0  0  0  0  0  0
  -38.3260  -16.0950    6.8210 C   0  0  0  0  0  0  0  0  0  0  0  0
  -38.6510  -14.9400    6.2180 N   0  0  0  0  0  0  0  0  0  0  0  0
  -37.5550  -16.9170    6.3180 O   0  0  0  0  0  0  0  0  0  0  0  0
  -39.2930  -14.3220    6.6940 H   0  0  0  0  0  0  0  0  0  0  0  0
  -36.4180  -12.5960    4.6180 C   0  0  0  0  0  0  0  0  0  0  0  0
  -38.1600  -14.4800    4.9200 C   0  0  0  0  0  3  0  0  0  0  0  0
  -37.0770  -15.4340    4.3650 C   0  0  0  0  0  2  0  0  0  0  0  0
  -35.6530  -15.0070    4.7300 C   0  0  0  0  0  2  0  0  0  0  0  0
  -35.3590  -13.6020    4.1950 C   0  0  0  0  0  2  0  0  0  0  0  0
  -37.7280  -13.0120    4.9730 C   0  0  0  0  0  0  0  0  0  0  0  0
  -38.6650  -12.0420    5.3920 C   0  0  0  0  0  3  0  0  0  0  0  0
  -38.3130  -10.6820    5.4550 C   0  0  0  0  0  3  0  0  0  0  0  0
  -37.0200  -10.2730    5.0870 C   0  0  0  0  0  3  0  0  0  0  0  0
  -36.0770  -11.2290    4.6650 C   0  0  0  0  0  3  0  0  0  0  0  0
  -41.3910  -19.3720    7.7000 C   0  0  0  0  0  3  0  0  0  0  0  0
  -40.4230  -20.5200    8.1830 C   0  0  1  0  0  0  0  0  0  0  0  0
  -39.0340  -20.4890    7.5040 C   0  0  0  0  0  1  0  0  0  0  0  0
  -40.2030  -20.4380    9.7120 C   0  0  0  0  0  1  0  0  0  0  0  0
  -41.0630  -21.9010    7.9010 C   0  0  0  0  0  1  0  0  0  0  0  0
  -41.9380  -19.6740    6.3700 N   0  0  0  0  0  0  0  0  0  0  0  0
  -41.2610  -19.5400    5.2210 C   0  0  0  0  0  0  0  0  0  0  0  0
  -40.1190  -19.0740    5.1650 O   0  0  0  0  0  0  0  0  0  0  0  0
  -42.8460  -20.1110    6.3410 H   0  0  0  0  0  0  0  0  0  0  0  0
  -43.4850  -19.8570    4.0930 C   0  0  0  0  0  1  0  0  0  0  0  0
  -41.9630  -19.9940    3.9280 C   0  0  0  0  0  3  0  0  0  0  0  0
  -40.3790  -21.4730    2.7760 C   0  0  0  0  0  1  0  0  0  0  0  0
  -41.6270  -21.3780    3.5280 N   0  0  0  0  0  0  0  0  0  0  0  0
  -42.3700  -21.7780    2.9620 H   0  0  0  0  0  0  0  0  0  0  0  0
  1 57  1  0
  2  3  1  0
  2  1  1  0
  3  4  1  0
  4  5  1  0
  5  6  1  0
  7  6  1  0
  7  8  1  0
  8  9  1  0
 10 11  1  0
 10  9  1  0
 12 11  1  0
 13 12  1  0
 14 13  1  0
 15 14  1  0
 16 15  1  0
 17 16  1  0
 18 27  1  0
 18 17  1  0
 19 25  1  0
 20 21  1  0
 21 22  1  0
 23 24  1  0
 23 32  1  0
 23 22  1  0
 25 24  1  0
 25 20  1  0
 26 19  2  0
 27 19  1  0
 27 28  1  0
 29 30  2  0
 29 54  1  0
 30 49  1  0
 31 30  1  0
 32 29  1  0
 33 31  2  0
 33 32  1  0
 34 31  1  0
 34 35  1  0
 36 35  2  0
 37 36  1  0
 38 39  1  0
 38 37  2  0
 39 34  2  0
 40 37  1  0
 41 40  1  0
 42 41  1  0
 43 42  2  0
 44 45  2  0
 44 43  1  0
 45 46  1  0
 46 41  2  0
 47 46  1  0
 48 44  1  0
 49 50  1  0
 49 51  2  0
 50 53  1  0
 52 50  1  0
 54 55  1  0
 56 54  1  0
 58 57  1  0
 59 61  2  0
 59 60  1  0
 60 58  1  0
 62 60  1  0
 63 64  1  0
 64 67  2  0
 65 68  1  0
 65 63  2  0
 66 67  1  0
 67 59  1  0
 68 66  2  0
 69 70  2  0
 69 68  1  0
 71 69  1  0
 72 82  1  0
 73 71  1  0
 74 84  1  0
 74 82  1  0
 74 81  1  0
 75 77  2  0
 75 80  1  0
 76 77  1  0
 77 78  1  0
 78 73  2  0
 79 73  1  0
 80 79  2  0
 81 75  1  0
 82 76  1  0
 83 72  2  0
 85 87  1  0
 85 84  1  0
 86 84  2  0
 88 97  2  0
 88 93  1  0
 89 93  1  0
 89 85  1  0
 90 91  1  0
 90 89  1  0
 92 88  1  0
 92 91  1  0
 93 94  2  0
 94 95  1  0
 96 95  2  0
 97 96  1  0
 98 72  1  0
 98 99  1  0
 99101  1  1
100 99  1  0
102 99  1  0
103 98  1  0
104103  1  0
105104  2  0
106103  1  0
108107  1  0
108104  1  0
109110  1  0
110108  1  0
111110  1  0
M  ISO  4  19 100  27 100  69 101  71 101
M  END
>  <TORSDO>  (50) 
F 38

>  <SCORE>  (50) 
-1.219

>  <name>  (50) 
51

>  <ligand_id>  (50) 
51

>  <original_smiles>  (50) 
[H]c1c([H])c(C(=O)Oc2c([H])c([H])c3c(c2[H])C([H])([H])N(C(=O)C([H])(N([H])C(=O)C([H])(N([H])C([H])([H])[H])C([H])([H])[H])C(C([H])([H])[H])(C([H])([H])[H])C([H])([H])[H])C([H])(C(=O)N([H])C2([H])c4c([H])c([H])c([H])c([H])c4C([H])([H])C([H])([H])C2([H])[H])C3([H])[H])c([H])c(C(=O)N([H])C([H])([H])C([H])([H])OC([H])([H])C([H])([H])OC([H])([H])C([H])([H])OC([H])([H])C([H])([H])OC([H])([H])C([H])([H])OC([H])([H])C([H])([H])OC([H])([H])C([H])([H])N([H])C(=O)N2C([H])([H])C([H])([H])C([H])([H])C([H])(n3nc(-c4c([H])c([H])c(Oc5c([H])c([H])c(F)c([H])c5F)c([H])c4[H])c(C(=O)N([H])[H])c3N([H])[H])C2([H])[H])c1[H]

>  <smiles>  (50) 
[H]c1c([H])c(C(=O)Oc2c([H])c([H])c3c(c2[H])C([H])([H])N(C(=O)C([H])(N([H])C(=O)C([H])(N([H])C([H])([H])[H])C([H])([H])[H])C(C([H])([H])[H])(C([H])([H])[H])C([H])([H])[H])C([H])(C(=O)N([H])C2([H])c4c([H])c([H])c([H])c([H])c4C([H])([H])C([H])([H])C2([H])[H])C3([H])[H])c([H])c(C(=O)N([H])C([H])([H])C([H])([H])OC([H])([H])C([H])([H])OC([H])([H])C([H])([H])OC([H])([H])C([H])([H])OC([H])([H])C([H])([H])OC([H])([H])C([H])([H])OC([H])([H])C([H])([H])N([H])C(=O)N2C([H])([H])C([H])([H])C([H])([H])C([H])(n3nc(-c4c([H])c([H])c(Oc5c([H])c([H])c(F)c([H])c5F)c([H])c4[H])c(C(=O)N([H])[H])c3N([H])[H])C2([H])[H])c1[H]

$$$$
52:0:0
     RDKit          3D

 89 96  0  0  1  0  0  0  0  0999 V2000
  -28.5940  -25.8400   21.3130 C   0  0  0  0  0  0  0  0  0  0  0  0
  -28.9820  -24.4970   21.1500 N   0  0  0  0  0  0  0  0  0  0  0  0
  -28.4940  -26.3620   22.4250 O   0  0  0  0  0  0  0  0  0  0  0  0
  -29.1980  -24.0380   22.0250 H   0  0  0  0  0  0  0  0  0  0  0  0
  -28.2980  -26.5140   20.1420 O   0  0  0  0  0  0  0  0  0  0  0  0
  -24.6190  -31.8800   23.2210 C   0  0  0  0  0  0  0  0  0  0  0  0
  -27.2170  -27.3860   20.1380 C   0  0  0  0  0  0  0  0  0  0  0  0
  -23.3980  -30.4760   21.5940 C   0  0  0  0  0  3  0  0  0  0  0  0
  -24.8400  -28.9390   20.1500 C   0  0  0  0  0  0  0  0  0  0  0  0
  -25.9270  -30.8250   21.3720 C   0  0  0  0  0  2  0  0  0  0  0  0
  -26.0080  -29.4510   20.7300 C   0  0  0  0  0  0  0  0  0  0  0  0
  -27.2060  -28.6860   20.7180 C   0  0  0  0  0  3  0  0  0  0  0  0
  -26.0370  -26.9150   19.5280 C   0  0  0  0  0  3  0  0  0  0  0  0
  -24.8520  -27.6730   19.5400 C   0  0  0  0  0  3  0  0  0  0  0  0
  -23.5950  -29.7990   20.2110 C   0  0  0  0  0  2  0  0  0  0  0  0
  -24.6670  -31.0750   22.1200 N   0  0  0  0  0  0  0  0  0  0  0  0
  -23.5430  -32.1530   23.7710 O   0  0  0  0  0  0  0  0  0  0  0  0
  -22.7530  -29.4570   22.5620 C   0  0  0  0  0  0  0  0  0  0  0  0
  -21.4270  -29.2750   22.4500 N   0  0  0  0  0  0  0  0  0  0  0  0
  -23.4450  -28.8330   23.3720 O   0  0  0  0  0  0  0  0  0  0  0  0
  -20.9300  -29.8310   21.7680 H   0  0  0  0  0  0  0  0  0  0  0  0
  -18.0610  -28.0640   22.9740 C   0  0  0  0  0  0  0  0  0  0  0  0
  -20.6200  -28.3380   23.2300 C   0  0  0  0  0  3  0  0  0  0  0  0
  -20.7260  -26.9040   22.6620 C   0  0  0  0  0  2  0  0  0  0  0  0
  -19.6210  -26.5700   21.6550 C   0  0  0  0  0  2  0  0  0  0  0  0
  -18.2420  -26.7120   22.3060 C   0  0  0  0  0  2  0  0  0  0  0  0
  -19.1780  -28.8350   23.3940 C   0  0  0  0  0  0  0  0  0  0  0  0
  -18.9550  -30.1000   23.9780 C   0  0  0  0  0  3  0  0  0  0  0  0
  -17.6500  -30.5960   24.1480 C   0  0  0  0  0  3  0  0  0  0  0  0
  -16.5470  -29.8230   23.7440 C   0  0  0  0  0  3  0  0  0  0  0  0
  -16.7540  -28.5600   23.1630 C   0  0  0  0  0  3  0  0  0  0  0  0
  -25.9110  -32.5130   23.8260 C   0  0  0  0  0  3  0  0  0  0  0  0
  -25.5980  -33.9050   24.1780 N   0  0  0  0  0  0  0  0  0  0  0  0
  -25.9120  -34.9690   23.4260 C   0  0  0  0  0  0  0  0  0  0  0  0
  -26.5650  -34.8800   22.3830 O   0  0  0  0  0  0  0  0  0  0  0  0
  -25.0150  -34.0470   24.9910 H   0  0  0  0  0  0  0  0  0  0  0  0
  -24.1640  -36.7510   23.1230 C   0  0  0  0  0  1  0  0  0  0  0  0
  -25.4230  -36.3480   23.9070 C   0  0  0  0  0  3  0  0  0  0  0  0
  -27.5700  -37.2360   24.7010 C   0  0  0  0  0  1  0  0  0  0  0  0
  -26.4460  -37.4100   23.7850 N   0  0  0  0  0  0  0  0  0  0  0  0
  -26.0370  -38.3250   23.9540 H   0  0  0  0  0  0  0  0  0  0  0  0
  -26.4570  -31.7290   25.0820 C   0  0  1  0  0  0  0  0  0  0  0  0
  -25.3860  -31.4740   26.1690 C   0  0  0  0  0  1  0  0  0  0  0  0
  -27.0390  -30.3600   24.6620 C   0  0  0  0  0  1  0  0  0  0  0  0
  -27.6170  -32.5220   25.7310 C   0  0  0  0  0  1  0  0  0  0  0  0
  -28.9880  -23.6370   19.9490 C   0  0  0  0  0  2  0  0  0  0  0  0
  -29.8260  -22.3100   20.1290 C   0  0  0  0  0  2  0  0  0  0  0  0
  -29.0910  -20.9450   20.4120 C   0  0  0  0  0  2  0  0  0  0  0  0
  -30.0440  -19.6900   20.4830 C   0  0  0  0  0  2  0  0  0  0  0  0
  -29.4110  -18.2540   20.6280 C   0  0  0  0  0  2  0  0  0  0  0  0
  -30.4650  -17.0880   20.7100 C   0  0  0  0  0  2  0  0  0  0  0  0
  -30.6610  -14.5810   20.4210 C   0  0  0  0  0  0  0  0  0  0  0  0
  -30.3720  -12.3720   19.3470 C   0  0  0  0  0  2  0  0  0  0  0  0
  -29.4300  -12.5290   18.1350 C   0  0  0  0  0  2  0  0  0  0  0  0
  -27.9590  -12.3830   18.5730 C   0  0  0  0  0  2  0  0  0  0  0  0
  -27.6150  -13.2460   19.8160 C   0  0  0  0  0  3  0  0  0  0  0  0
  -28.6770  -13.0920   20.9270 C   0  0  0  0  0  2  0  0  0  0  0  0
  -29.9880  -13.3950   20.3370 N   0  0  0  0  0  0  0  0  0  0  0  0
  -31.8230  -14.6960   20.0230 O   0  0  0  0  0  0  0  0  0  0  0  0
  -29.9470  -15.6870   20.7670 N   0  0  0  0  0  0  0  0  0  0  0  0
  -28.9880  -15.5490   21.0510 H   0  0  0  0  0  0  0  0  0  0  0  0
  -25.2240  -13.8480   20.5430 C   0  0  0  0  0  0  0  0  0  0  0  0
  -24.1580  -13.0750   20.9180 C   0  0  0  0  0  0  0  0  0  0  0  0
  -24.6200  -11.7250   20.8880 C   0  0  0  0  0  0  0  0  0  0  0  0
  -26.2680  -12.9680   20.3070 N   0  0  0  0  0  0  0  0  0  0  0  0
  -25.9090  -11.6850   20.5750 N   0  0  0  0  0  0  0  0  0  0  0  0
  -23.8940  -10.4630   21.0820 C   0  0  0  0  0  0  0  0  0  0  0  0
  -24.3480   -9.4810   21.9900 C   0  0  0  0  0  3  0  0  0  0  0  0
  -23.6230   -8.2840   22.1730 C   0  0  0  0  0  3  0  0  0  0  0  0
  -22.4280   -8.0600   21.4480 C   0  0  0  0  0  0  0  0  0  0  0  0
  -21.9930   -9.0310   20.5290 C   0  0  0  0  0  3  0  0  0  0  0  0
  -22.7180  -10.2190   20.3440 C   0  0  0  0  0  3  0  0  0  0  0  0
  -21.6720   -6.9170   21.5420 O   0  0  0  0  0  0  0  0  0  0  0  0
  -21.6740   -6.1440   22.6760 C   0  0  0  0  0  0  0  0  0  0  0  0
  -21.3340   -6.6740   23.9390 C   0  0  0  0  0  3  0  0  0  0  0  0
  -21.2800   -5.8280   25.0650 C   0  0  0  0  0  3  0  0  0  0  0  0
  -21.5570   -4.4540   24.9300 C   0  0  0  0  0  0  0  0  0  0  0  0
  -21.8910   -3.9250   23.6710 C   0  0  0  0  0  3  0  0  0  0  0  0
  -21.9450   -4.7660   22.5470 C   0  0  0  0  0  0  0  0  0  0  0  0
  -22.2470   -4.2470   21.3330 F   0  0  0  0  0  0  0  0  0  0  0  0
  -21.4980   -3.6410   26.0090 F   0  0  0  0  0  0  0  0  0  0  0  0
  -22.7620  -13.5540   21.1940 C   0  0  0  0  0  0  0  0  0  0  0  0
  -22.0380  -12.8630   22.0670 N   0  0  0  0  0  0  0  0  0  0  0  0
  -22.3210  -14.5770   20.6710 O   0  0  0  0  0  0  0  0  0  0  0  0
  -22.4070  -12.0360   22.5140 H   0  0  0  0  0  0  0  0  0  0  0  0
  -21.1010  -13.1650   22.2930 H   0  0  0  0  0  0  0  0  0  0  0  0
  -25.3870  -15.2180   20.3600 N   0  0  0  0  0  0  0  0  0  0  0  0
  -24.6200  -15.8730   20.4690 H   0  0  0  0  0  0  0  0  0  0  0  0
  -26.2310  -15.6550   20.0120 H   0  0  0  0  0  0  0  0  0  0  0  0
  1  3  2  0
  2  1  1  0
  2  4  1  0
  5  1  1  0
  6 17  2  0
  7  5  1  0
  7 12  1  0
  8 16  1  0
  8 18  1  0
  9 15  1  0
  9 11  1  0
 10 16  1  0
 11 10  1  0
 12 11  2  0
 13 14  1  0
 13  7  2  0
 14  9  2  0
 15  8  1  0
 16  6  1  0
 18 20  2  0
 19 18  1  0
 21 19  1  0
 22 31  2  0
 22 27  1  0
 23 19  1  0
 23 27  1  0
 24 23  1  0
 25 26  1  0
 25 24  1  0
 26 22  1  0
 27 28  2  0
 28 29  1  0
 30 29  2  0
 31 30  1  0
 32  6  1  0
 32 33  1  0
 32 42  1  0
 33 36  1  0
 34 38  1  0
 34 33  1  0
 35 34  2  0
 38 37  1  0
 40 38  1  0
 40 41  1  0
 40 39  1  0
 42 45  1  1
 42 43  1  0
 44 42  1  0
 46 47  1  0
 46  2  1  0
 47 48  1  0
 48 49  1  0
 49 50  1  0
 50 51  1  0
 51 60  1  0
 52 60  1  0
 53 58  1  0
 54 55  1  0
 54 53  1  0
 56 55  1  0
 56 65  1  0
 56 57  1  0
 58 52  1  0
 58 57  1  0
 59 52  2  0
 60 61  1  0
 62 63  2  0
 63 82  1  0
 64 63  1  0
 64 67  1  0
 65 62  1  0
 65 66  1  0
 66 64  2  0
 67 68  1  0
 68 69  2  0
 70 73  1  0
 70 69  1  0
 71 70  2  0
 72 71  1  0
 72 67  2  0
 73 74  1  0
 74 75  1  0
 75 76  2  0
 77 76  1  0
 77 81  1  0
 78 77  2  0
 79 74  2  0
 79 78  1  0
 80 79  1  0
 82 83  1  0
 83 86  1  0
 83 85  1  0
 84 82  2  0
 87 88  1  0
 87 62  1  0
 89 87  1  0
M  ISO  4   1 101   5 101  52 100  60 100
M  END
>  <TORSDO>  (51) 
F 22

>  <SCORE>  (51) 
-12.926

>  <name>  (51) 
52

>  <ligand_id>  (51) 
52

>  <original_smiles>  (51) 
[H]c1c([H])c([H])c2c(c1[H])C([H])([H])C([H])([H])C([H])([H])C2([H])N([H])C(=O)C1([H])N(C(=O)C([H])(N([H])C(=O)C([H])(N([H])C([H])([H])[H])C([H])([H])[H])C(C([H])([H])[H])(C([H])([H])[H])C([H])([H])[H])C([H])([H])c2c([H])c(OC(=O)N([H])C([H])([H])C([H])([H])C([H])([H])C([H])([H])C([H])([H])C([H])([H])N([H])C(=O)N3C([H])([H])C([H])([H])C([H])([H])C([H])(n4nc(-c5c([H])c([H])c(Oc6c([H])c([H])c(F)c([H])c6F)c([H])c5[H])c(C(=O)N([H])[H])c4N([H])[H])C3([H])[H])c([H])c([H])c2C1([H])[H]

>  <smiles>  (51) 
[H]c1c([H])c([H])c2c(c1[H])C([H])([H])C([H])([H])C([H])([H])C2([H])N([H])C(=O)C1([H])N(C(=O)C([H])(N([H])C(=O)C([H])(N([H])C([H])([H])[H])C([H])([H])[H])C(C([H])([H])[H])(C([H])([H])[H])C([H])([H])[H])C([H])([H])c2c([H])c(OC(=O)N([H])C([H])([H])C([H])([H])C([H])([H])C([H])([H])C([H])([H])C([H])([H])N([H])C(=O)N3C([H])([H])C([H])([H])C([H])([H])C([H])(n4nc(-c5c([H])c([H])c(Oc6c([H])c([H])c(F)c([H])c6F)c([H])c5[H])c(C(=O)N([H])[H])c4N([H])[H])C3([H])[H])c([H])c([H])c2C1([H])[H]

$$$$
53:0:0
     RDKit          3D

 96105  0  0  1  0  0  0  0  0999 V2000
  -32.5110  -18.5300   21.3370 C   0  0  0  0  0  3  0  0  0  0  0  0
  -30.9780  -20.3010   21.9820 C   0  0  0  0  0  3  0  0  0  0  0  0
  -33.3750  -19.4830   20.7620 C   0  0  0  0  0  3  0  0  0  0  0  0
  -31.8370  -21.2540   21.4000 C   0  0  0  0  0  3  0  0  0  0  0  0
  -31.2950  -18.9250   21.9410 C   0  0  0  0  0  0  0  0  0  0  0  0
  -33.0330  -20.8480   20.7740 C   0  0  0  0  0  0  0  0  0  0  0  0
  -31.0790  -14.5800   19.9690 C   0  0  0  0  0  0  0  0  0  0  0  0
  -30.6670  -12.5300   18.6600 C   0  0  0  0  0  2  0  0  0  0  0  0
  -29.6420  -12.7940   17.5400 C   0  0  0  0  0  2  0  0  0  0  0  0
  -28.1990  -12.6330   18.0590 C   0  0  0  0  0  2  0  0  0  0  0  0
  -27.9530  -13.4110   19.3780 C   0  0  0  0  0  3  0  0  0  0  0  0
  -29.0710  -13.1140   20.4030 C   0  0  0  0  0  2  0  0  0  0  0  0
  -30.3670  -13.4380   19.7770 N   0  0  0  0  0  0  0  0  0  0  0  0
  -32.0880  -14.8680   19.3170 O   0  0  0  0  0  0  0  0  0  0  0  0
  -30.8830  -16.6500   23.1470 C   0  0  0  0  0  2  0  0  0  0  0  0
  -29.2530  -17.4800   21.4580 C   0  0  0  0  0  2  0  0  0  0  0  0
  -31.3270  -15.5270   22.1760 C   0  0  0  0  0  2  0  0  0  0  0  0
  -29.8920  -16.6090   20.3720 C   0  0  0  0  0  2  0  0  0  0  0  0
  -30.2860  -17.9130   22.5010 C   0  0  0  0  0  3  0  0  0  0  0  0
  -30.5830  -15.4210   20.9010 N   0  0  0  0  0  0  0  0  0  0  0  0
  -25.5880  -14.0140   20.1950 C   0  0  0  0  0  0  0  0  0  0  0  0
  -24.5410  -13.2360   20.6170 C   0  0  0  0  0  0  0  0  0  0  0  0
  -25.0060  -11.8870   20.5570 C   0  0  0  0  0  0  0  0  0  0  0  0
  -26.6260  -13.1360   19.9200 N   0  0  0  0  0  0  0  0  0  0  0  0
  -26.2790  -11.8510   20.1850 N   0  0  0  0  0  0  0  0  0  0  0  0
  -24.2960  -10.6220   20.7830 C   0  0  0  0  0  0  0  0  0  0  0  0
  -24.7330   -9.6890   21.7490 C   0  0  0  0  0  3  0  0  0  0  0  0
  -24.0240   -8.4870   21.9560 C   0  0  0  0  0  3  0  0  0  0  0  0
  -22.8630   -8.2080   21.1970 C   0  0  0  0  0  0  0  0  0  0  0  0
  -22.4470   -9.1280   20.2190 C   0  0  0  0  0  3  0  0  0  0  0  0
  -23.1570  -10.3220   20.0110 C   0  0  0  0  0  3  0  0  0  0  0  0
  -22.1280   -7.0530   21.3120 O   0  0  0  0  0  0  0  0  0  0  0  0
  -22.0150   -6.3880   22.5060 C   0  0  0  0  0  0  0  0  0  0  0  0
  -21.5040   -7.0140   23.6640 C   0  0  0  0  0  3  0  0  0  0  0  0
  -21.3410   -6.2730   24.8510 C   0  0  0  0  0  3  0  0  0  0  0  0
  -21.6790   -4.9060   24.8820 C   0  0  0  0  0  0  0  0  0  0  0  0
  -22.1860   -4.2800   23.7290 C   0  0  0  0  0  3  0  0  0  0  0  0
  -22.3490   -5.0190   22.5430 C   0  0  0  0  0  0  0  0  0  0  0  0
  -22.8160   -4.4060   21.4290 F   0  0  0  0  0  0  0  0  0  0  0  0
  -21.5180   -4.1920   26.0200 F   0  0  0  0  0  0  0  0  0  0  0  0
  -23.1570  -13.7070   20.9610 C   0  0  0  0  0  0  0  0  0  0  0  0
  -22.4920  -13.0220   21.8860 N   0  0  0  0  0  0  0  0  0  0  0  0
  -22.6780  -14.7170   20.4480 O   0  0  0  0  0  0  0  0  0  0  0  0
  -22.8930  -12.2020   22.3170 H   0  0  0  0  0  0  0  0  0  0  0  0
  -21.5670  -13.3180   22.1630 H   0  0  0  0  0  0  0  0  0  0  0  0
  -25.7400  -15.3830   20.0100 N   0  0  0  0  0  0  0  0  0  0  0  0
  -24.9800  -16.0370   20.1620 H   0  0  0  0  0  0  0  0  0  0  0  0
  -26.5810  -15.8260   19.6640 H   0  0  0  0  0  0  0  0  0  0  0  0
  -33.9470  -21.8800   20.1340 C   0  0  0  0  0  2  0  0  0  0  0  0
  -33.2330  -22.9660   19.5580 O   0  0  0  0  0  0  0  0  0  0  0  0
  -32.6380  -22.6460   18.3060 C   0  0  0  0  0  2  0  0  0  0  0  0
  -31.8690  -23.8710   17.8130 C   0  0  0  0  0  2  0  0  0  0  0  0
  -30.6200  -23.9670   18.4880 O   0  0  0  0  0  0  0  0  0  0  0  0
  -30.2340  -25.3180   18.6940 C   0  0  0  0  0  2  0  0  0  0  0  0
  -28.7630  -25.4270   19.1080 C   0  0  0  0  0  2  0  0  0  0  0  0
  -28.6250  -26.7270   19.6710 O   0  0  0  0  0  0  0  0  0  0  0  0
  -24.7940  -31.4980   23.2220 C   0  0  0  0  0  0  0  0  0  0  0  0
  -27.4050  -27.3590   19.7350 C   0  0  0  0  0  0  0  0  0  0  0  0
  -23.5670  -30.2500   21.4710 C   0  0  0  0  0  3  0  0  0  0  0  0
  -25.0010  -28.8400   19.9050 C   0  0  0  0  0  0  0  0  0  0  0  0
  -26.0890  -30.6240   21.2800 C   0  0  0  0  0  2  0  0  0  0  0  0
  -26.1610  -29.3150   20.5260 C   0  0  0  0  0  0  0  0  0  0  0  0
  -27.3590  -28.5780   20.4430 C   0  0  0  0  0  3  0  0  0  0  0  0
  -26.2200  -26.8820   19.1230 C   0  0  0  0  0  3  0  0  0  0  0  0
  -25.0240  -27.6200   19.2060 C   0  0  0  0  0  3  0  0  0  0  0  0
  -23.7610  -29.6930   20.0360 C   0  0  0  0  0  2  0  0  0  0  0  0
  -24.8360  -30.8000   22.0510 N   0  0  0  0  0  0  0  0  0  0  0  0
  -23.7200  -31.7200   23.7960 O   0  0  0  0  0  0  0  0  0  0  0  0
  -22.9250  -29.1490   22.3430 C   0  0  0  0  0  0  0  0  0  0  0  0
  -21.6010  -28.9730   22.2010 N   0  0  0  0  0  0  0  0  0  0  0  0
  -23.6110  -28.4580   23.1010 O   0  0  0  0  0  0  0  0  0  0  0  0
  -21.1070  -29.5850   21.5660 H   0  0  0  0  0  0  0  0  0  0  0  0
  -18.2350  -27.7190   22.5810 C   0  0  0  0  0  0  0  0  0  0  0  0
  -20.7900  -27.9710   22.8900 C   0  0  0  0  0  3  0  0  0  0  0  0
  -20.9060  -26.5920   22.2010 C   0  0  0  0  0  2  0  0  0  0  0  0
  -19.8120  -26.3430   21.1580 C   0  0  0  0  0  2  0  0  0  0  0  0
  -18.4250  -26.4280   21.8020 C   0  0  0  0  0  2  0  0  0  0  0  0
  -19.3460  -28.4500   23.0780 C   0  0  0  0  0  0  0  0  0  0  0  0
  -19.1150  -29.6630   23.7660 C   0  0  0  0  0  3  0  0  0  0  0  0
  -17.8070  -30.1430   23.9580 C   0  0  0  0  0  3  0  0  0  0  0  0
  -16.7100  -29.4070   23.4770 C   0  0  0  0  0  3  0  0  0  0  0  0
  -16.9250  -28.1960   22.7960 C   0  0  0  0  0  3  0  0  0  0  0  0
  -26.0890  -32.0660   23.8820 C   0  0  0  0  0  3  0  0  0  0  0  0
  -25.7950  -33.4350   24.3250 N   0  0  0  0  0  0  0  0  0  0  0  0
  -26.1410  -34.5410   23.6530 C   0  0  0  0  0  0  0  0  0  0  0  0
  -26.8140  -34.5150   22.6190 O   0  0  0  0  0  0  0  0  0  0  0  0
  -25.2010  -33.5310   25.1340 H   0  0  0  0  0  0  0  0  0  0  0  0
  -24.4330  -36.3740   23.4350 C   0  0  0  0  0  1  0  0  0  0  0  0
  -25.6660  -35.8920   24.2190 C   0  0  0  0  0  3  0  0  0  0  0  0
  -27.8000  -36.6870   25.1360 C   0  0  0  0  0  1  0  0  0  0  0  0
  -26.7100  -36.9400   24.1960 N   0  0  0  0  0  0  0  0  0  0  0  0
  -26.3120  -37.8500   24.4100 H   0  0  0  0  0  0  0  0  0  0  0  0
  -26.6080  -31.1910   25.0880 C   0  0  1  0  0  0  0  0  0  0  0  0
  -25.5200  -30.8790   26.1430 C   0  0  0  0  0  1  0  0  0  0  0  0
  -27.1760  -29.8460   24.5800 C   0  0  0  0  0  1  0  0  0  0  0  0
  -27.7690  -31.9210   25.8040 C   0  0  0  0  0  1  0  0  0  0  0  0
  1  5  1  0
  3  6  1  0
  3  1  2  0
  4  2  1  0
  5  2  2  0
  6  4  2  0
  7 20  1  0
  8 13  1  0
  9 10  1  0
  9  8  1  0
 11 10  1  0
 11 24  1  0
 11 12  1  0
 13  7  1  0
 13 12  1  0
 14  7  2  0
 16 19  1  0
 17 15  1  0
 18 20  1  0
 18 16  1  0
 19  5  1  0
 19 15  1  0
 20 17  1  0
 21 22  2  0
 22 41  1  0
 23 22  1  0
 23 26  1  0
 24 25  1  0
 24 21  1  0
 25 23  2  0
 26 27  1  0
 27 28  2  0
 29 32  1  0
 29 28  1  0
 30 29  2  0
 31 30  1  0
 31 26  2  0
 32 33  1  0
 33 38  2  0
 33 34  1  0
 34 35  2  0
 35 36  1  0
 36 40  1  0
 37 36  2  0
 38 37  1  0
 39 38  1  0
 41 42  1  0
 42 45  1  0
 42 44  1  0
 43 41  2  0
 46 47  1  0
 46 21  1  0
 48 46  1  0
 49  6  1  0
 50 49  1  0
 51 50  1  0
 52 51  1  0
 52 53  1  0
 53 54  1  0
 54 55  1  0
 55 56  1  0
 56 58  1  0
 57 68  2  0
 58 63  1  0
 59 67  1  0
 59 69  1  0
 60 66  1  0
 60 62  1  0
 61 67  1  0
 62 61  1  0
 63 62  2  0
 64 65  1  0
 64 58  2  0
 65 60  2  0
 66 59  1  0
 67 57  1  0
 69 71  2  0
 70 69  1  0
 72 70  1  0
 73 82  2  0
 73 78  1  0
 74 70  1  0
 74 78  1  0
 75 74  1  0
 76 77  1  0
 76 75  1  0
 77 73  1  0
 78 79  2  0
 79 80  1  0
 81 80  2  0
 82 81  1  0
 83 57  1  0
 83 84  1  0
 83 93  1  0
 84 87  1  0
 85 89  1  0
 85 84  1  0
 86 85  2  0
 89 88  1  0
 91 89  1  0
 91 92  1  0
 91 90  1  0
 93 96  1  1
 93 94  1  0
 95 93  1  0
M  ISO  4   7 100  20 100  55 101  56 101
M  END
>  <TORSDO>  (52) 
F 23

>  <SCORE>  (52) 
-10.038

>  <name>  (52) 
53

>  <ligand_id>  (52) 
53

>  <original_smiles>  (52) 
[H]c1c([H])c([H])c2c(c1[H])C([H])([H])C([H])([H])C([H])([H])C2([H])N([H])C(=O)C1([H])N(C(=O)C([H])(N([H])C(=O)C([H])(N([H])C([H])([H])[H])C([H])([H])[H])C(C([H])([H])[H])(C([H])([H])[H])C([H])([H])[H])C([H])([H])c2c([H])c(OC([H])([H])C([H])([H])OC([H])([H])C([H])([H])OC([H])([H])c3c([H])c([H])c(C4([H])C([H])([H])C([H])([H])N(C(=O)N5C([H])([H])C([H])([H])C([H])([H])C([H])(n6nc(-c7c([H])c([H])c(Oc8c([H])c([H])c(F)c([H])c8F)c([H])c7[H])c(C(=O)N([H])[H])c6N([H])[H])C5([H])[H])C([H])([H])C4([H])[H])c([H])c3[H])c([H])c([H])c2C1([H])[H]

>  <smiles>  (52) 
[H]c1c([H])c([H])c2c(c1[H])C([H])([H])C([H])([H])C([H])([H])C2([H])N([H])C(=O)C1([H])N(C(=O)C([H])(N([H])C(=O)C([H])(N([H])C([H])([H])[H])C([H])([H])[H])C(C([H])([H])[H])(C([H])([H])[H])C([H])([H])[H])C([H])([H])c2c([H])c(OC([H])([H])C([H])([H])OC([H])([H])C([H])([H])OC([H])([H])c3c([H])c([H])c(C4([H])C([H])([H])C([H])([H])N(C(=O)N5C([H])([H])C([H])([H])C([H])([H])C([H])(n6nc(-c7c([H])c([H])c(Oc8c([H])c([H])c(F)c([H])c8F)c([H])c7[H])c(C(=O)N([H])[H])c6N([H])[H])C5([H])[H])C([H])([H])C4([H])[H])c([H])c3[H])c([H])c([H])c2C1([H])[H]

$$$$
54:0:0
     RDKit          3D

100109  0  0  1  0  0  0  0  0999 V2000
  -32.9350  -21.7530   23.3090 C   0  0  0  0  0  3  0  0  0  0  0  0
  -31.6980  -22.3980   23.5050 C   0  0  0  0  0  3  0  0  0  0  0  0
  -33.1170  -20.8990   22.2050 C   0  0  0  0  0  3  0  0  0  0  0  0
  -30.8600  -21.3970   21.4420 C   0  0  0  0  0  3  0  0  0  0  0  0
  -30.6490  -22.2180   22.5780 C   0  0  0  0  0  0  0  0  0  0  0  0
  -32.0740  -20.7020   21.2720 C   0  0  0  0  0  0  0  0  0  0  0  0
  -29.3420  -22.9330   22.7720 C   0  0  0  0  0  0  0  0  0  0  0  0
  -28.3130  -22.4230   22.0870 N   0  0  0  0  0  0  0  0  0  0  0  0
  -29.2340  -23.8880   23.5450 O   0  0  0  0  0  0  0  0  0  0  0  0
  -28.4930  -21.5680   21.5750 H   0  0  0  0  0  0  0  0  0  0  0  0
  -26.9660  -22.9830   22.0330 C   0  0  0  0  0  2  0  0  0  0  0  0
  -26.8460  -24.2360   21.1330 C   0  0  0  0  0  2  0  0  0  0  0  0
  -26.9390  -23.9580   19.6150 C   0  0  0  0  0  2  0  0  0  0  0  0
  -27.2790  -25.1230   18.8580 O   0  0  0  0  0  0  0  0  0  0  0  0
  -25.0010  -30.0910   23.3320 C   0  0  0  0  0  0  0  0  0  0  0  0
  -26.3890  -26.1420   19.0560 C   0  0  0  0  0  0  0  0  0  0  0  0
  -23.4760  -29.5470   21.4620 C   0  0  0  0  0  3  0  0  0  0  0  0
  -24.4740  -28.1280   19.5930 C   0  0  0  0  0  0  0  0  0  0  0  0
  -26.0030  -29.2970   21.1970 C   0  0  0  0  0  2  0  0  0  0  0  0
  -25.7260  -28.1730   20.2200 C   0  0  0  0  0  0  0  0  0  0  0  0
  -26.6960  -27.1930   19.9410 C   0  0  0  0  0  3  0  0  0  0  0  0
  -25.1330  -26.1090   18.4160 C   0  0  0  0  0  3  0  0  0  0  0  0
  -24.1690  -27.0990   18.6820 C   0  0  0  0  0  3  0  0  0  0  0  0
  -23.5050  -29.2300   19.9420 C   0  0  0  0  0  2  0  0  0  0  0  0
  -24.8480  -29.6350   22.0580 N   0  0  0  0  0  0  0  0  0  0  0  0
  -24.0280  -30.4720   23.9940 O   0  0  0  0  0  0  0  0  0  0  0  0
  -22.5700  -28.5060   22.1630 C   0  0  0  0  0  0  0  0  0  0  0  0
  -21.2460  -28.7070   22.0630 N   0  0  0  0  0  0  0  0  0  0  0  0
  -23.0520  -27.5320   22.7460 O   0  0  0  0  0  0  0  0  0  0  0  0
  -20.9300  -29.5320   21.5720 H   0  0  0  0  0  0  0  0  0  0  0  0
  -17.6690  -28.3300   22.3970 C   0  0  0  0  0  0  0  0  0  0  0  0
  -20.1980  -27.8430   22.6000 C   0  0  0  0  0  3  0  0  0  0  0  0
  -19.9360  -26.6390   21.6680 C   0  0  0  0  0  2  0  0  0  0  0  0
  -18.8100  -26.8800   20.6600 C   0  0  0  0  0  2  0  0  0  0  0  0
  -17.5030  -27.2040   21.3870 C   0  0  0  0  0  2  0  0  0  0  0  0
  -18.9380  -28.6400   22.9520 C   0  0  0  0  0  0  0  0  0  0  0  0
  -19.0510  -29.7190   23.8570 C   0  0  0  0  0  3  0  0  0  0  0  0
  -17.9210  -30.4810   24.2060 C   0  0  0  0  0  3  0  0  0  0  0  0
  -16.6630  -30.1580   23.6690 C   0  0  0  0  0  3  0  0  0  0  0  0
  -16.5360  -29.0830   22.7710 C   0  0  0  0  0  3  0  0  0  0  0  0
  -26.4070  -30.1770   24.0080 C   0  0  0  0  0  3  0  0  0  0  0  0
  -26.4890  -31.4750   24.6870 N   0  0  0  0  0  0  0  0  0  0  0  0
  -27.1580  -32.5370   24.2200 C   0  0  0  0  0  0  0  0  0  0  0  0
  -27.8350  -32.5020   23.1880 O   0  0  0  0  0  0  0  0  0  0  0  0
  -25.9150  -31.5960   25.5090 H   0  0  0  0  0  0  0  0  0  0  0  0
  -26.0890  -34.8110   24.3120 C   0  0  0  0  0  1  0  0  0  0  0  0
  -27.0580  -33.8490   25.0200 C   0  0  0  0  0  3  0  0  0  0  0  0
  -29.2570  -33.7900   26.1080 C   0  0  0  0  0  1  0  0  0  0  0  0
  -28.3590  -34.5220   25.2200 N   0  0  0  0  0  0  0  0  0  0  0  0
  -28.2290  -35.4570   25.5960 H   0  0  0  0  0  0  0  0  0  0  0  0
  -26.6790  -28.9940   25.0160 C   0  0  1  0  0  0  0  0  0  0  0  0
  -25.5540  -28.7880   26.0580 C   0  0  0  0  0  1  0  0  0  0  0  0
  -26.8670  -27.6600   24.2560 C   0  0  0  0  0  1  0  0  0  0  0  0
  -27.9960  -29.2520   25.7840 C   0  0  0  0  0  1  0  0  0  0  0  0
  -32.2330  -19.8760   20.1830 O   0  0  0  0  0  0  0  0  0  0  0  0
  -30.6290  -16.5930   20.8300 C   0  0  0  0  0  3  0  0  0  0  0  0
  -33.0320  -16.2840   20.5350 C   0  0  0  0  0  3  0  0  0  0  0  0
  -30.7840  -17.9810   20.6130 C   0  0  0  0  0  3  0  0  0  0  0  0
  -33.1820  -17.6660   20.3140 C   0  0  0  0  0  3  0  0  0  0  0  0
  -31.7590  -15.7430   20.8090 C   0  0  0  0  0  0  0  0  0  0  0  0
  -32.0670  -18.5250   20.3780 C   0  0  0  0  0  0  0  0  0  0  0  0
  -31.6510  -14.2540   21.1080 C   0  0  0  0  0  2  0  0  0  0  0  0
  -30.3810  -13.2030   19.2350 C   0  0  0  0  0  0  0  0  0  0  0  0
  -29.5030  -11.3520   17.8570 C   0  0  0  0  0  2  0  0  0  0  0  0
  -28.3170  -11.7420   16.9600 C   0  0  0  0  0  2  0  0  0  0  0  0
  -26.9940  -11.6110   17.7350 C   0  0  0  0  0  2  0  0  0  0  0  0
  -27.0360  -12.3520   19.0960 C   0  0  0  0  0  3  0  0  0  0  0  0
  -28.2960  -11.9630   19.8960 C   0  0  0  0  0  2  0  0  0  0  0  0
  -29.4870  -12.2000   19.0570 N   0  0  0  0  0  0  0  0  0  0  0  0
  -31.1450  -13.6020   18.3490 O   0  0  0  0  0  0  0  0  0  0  0  0
  -30.5070  -13.5740   20.5150 N   0  0  0  0  0  0  0  0  0  0  0  0
  -29.8830  -13.1140   21.1600 H   0  0  0  0  0  0  0  0  0  0  0  0
  -24.9020  -13.0220   20.3690 C   0  0  0  0  0  0  0  0  0  0  0  0
  -23.9180  -12.2730   20.9620 C   0  0  0  0  0  0  0  0  0  0  0  0
  -24.3010  -10.9100   20.7860 C   0  0  0  0  0  0  0  0  0  0  0  0
  -25.8230  -12.1120   19.8740 N   0  0  0  0  0  0  0  0  0  0  0  0
  -25.4770  -10.8350   20.1770 N   0  0  0  0  0  0  0  0  0  0  0  0
  -23.5880   -9.6660   21.1080 C   0  0  0  0  0  0  0  0  0  0  0  0
  -24.1450   -8.6960   21.9710 C   0  0  0  0  0  3  0  0  0  0  0  0
  -23.4290   -7.5160   22.2770 C   0  0  0  0  0  3  0  0  0  0  0  0
  -22.1460   -7.3020   21.7220 C   0  0  0  0  0  0  0  0  0  0  0  0
  -21.6080   -8.2600   20.8460 C   0  0  0  0  0  3  0  0  0  0  0  0
  -22.3230   -9.4300   20.5370 C   0  0  0  0  0  3  0  0  0  0  0  0
  -21.3880   -6.1760   21.9430 O   0  0  0  0  0  0  0  0  0  0  0  0
  -21.4660   -5.4780   23.1210 C   0  0  0  0  0  0  0  0  0  0  0  0
  -21.1950   -6.0860   24.3680 C   0  0  0  0  0  3  0  0  0  0  0  0
  -21.2190   -5.3140   25.5460 C   0  0  0  0  0  3  0  0  0  0  0  0
  -21.5020   -3.9360   25.4810 C   0  0  0  0  0  0  0  0  0  0  0  0
  -21.7650   -3.3290   24.2410 C   0  0  0  0  0  3  0  0  0  0  0  0
  -21.7450   -4.0980   23.0640 C   0  0  0  0  0  0  0  0  0  0  0  0
  -21.9790   -3.5040   21.8690 F   0  0  0  0  0  0  0  0  0  0  0  0
  -21.5170   -3.1920   26.6120 F   0  0  0  0  0  0  0  0  0  0  0  0
  -22.6470  -12.7900   21.5720 C   0  0  0  0  0  0  0  0  0  0  0  0
  -22.1300  -12.1040   22.5860 N   0  0  0  0  0  0  0  0  0  0  0  0
  -22.1300  -13.8340   21.1820 O   0  0  0  0  0  0  0  0  0  0  0  0
  -22.5590  -11.2520   22.9140 H   0  0  0  0  0  0  0  0  0  0  0  0
  -21.2900  -12.4340   23.0360 H   0  0  0  0  0  0  0  0  0  0  0  0
  -25.0840  -14.3900   20.1980 N   0  0  0  0  0  0  0  0  0  0  0  0
  -24.4020  -15.0770   20.5000 H   0  0  0  0  0  0  0  0  0  0  0  0
  -25.8730  -14.8040   19.7170 H   0  0  0  0  0  0  0  0  0  0  0  0
  1  2  1  0
  3  1  2  0
  4  5  1  0
  5  7  1  0
  5  2  2  0
  6  4  2  0
  6  3  1  0
  7  9  2  0
  8  7  1  0
 10  8  1  0
 11  8  1  0
 12 11  1  0
 13 12  1  0
 14 16  1  0
 14 13  1  0
 15 26  2  0
 16 21  1  0
 17 25  1  0
 17 27  1  0
 18 24  1  0
 18 20  1  0
 19 25  1  0
 20 19  1  0
 21 20  2  0
 22 23  1  0
 22 16  2  0
 23 18  2  0
 24 17  1  0
 25 15  1  0
 27 29  2  0
 28 27  1  0
 30 28  1  0
 31 40  2  0
 31 36  1  0
 32 28  1  0
 32 36  1  0
 33 32  1  0
 34 35  1  0
 34 33  1  0
 35 31  1  0
 36 37  2  0
 37 38  1  0
 39 38  2  0
 40 39  1  0
 41 15  1  0
 41 42  1  0
 41 51  1  0
 42 45  1  0
 43 42  1  0
 43 47  1  0
 44 43  2  0
 47 46  1  0
 47 49  1  0
 49 50  1  0
 49 48  1  0
 51 54  1  1
 51 52  1  0
 53 51  1  0
 55 61  1  0
 55  6  1  0
 57 60  2  0
 58 56  2  0
 59 61  2  0
 59 57  1  0
 60 56  1  0
 60 62  1  0
 61 58  1  0
 63 71  1  0
 64 69  1  0
 65 66  1  0
 65 64  1  0
 67 66  1  0
 67 76  1  0
 67 68  1  0
 69 63  1  0
 69 68  1  0
 70 63  2  0
 71 62  1  0
 71 72  1  0
 73 74  2  0
 74 93  1  0
 75 74  1  0
 75 78  1  0
 76 77  1  0
 76 73  1  0
 77 75  2  0
 78 79  1  0
 79 80  2  0
 81 84  1  0
 81 80  1  0
 82 81  2  0
 83 82  1  0
 83 78  2  0
 84 85  1  0
 85 86  1  0
 86 87  2  0
 88 87  1  0
 88 92  1  0
 89 88  2  0
 90 85  2  0
 90 89  1  0
 91 90  1  0
 93 94  1  0
 94 96  1  0
 94 97  1  0
 95 93  2  0
 98 73  1  0
 98 99  1  0
100 98  1  0
M  ISO  4  13 101  14 101  63 100  71 100
M  END
>  <TORSDO>  (53) 
F 23

>  <SCORE>  (53) 
-4.382

>  <name>  (53) 
54

>  <ligand_id>  (53) 
54

>  <original_smiles>  (53) 
[H]c1c([H])c(Oc2c([H])c([H])c(C([H])([H])N([H])C(=O)N3C([H])([H])C([H])([H])C([H])([H])C([H])(n4nc(-c5c([H])c([H])c(Oc6c([H])c([H])c(F)c([H])c6F)c([H])c5[H])c(C(=O)N([H])[H])c4N([H])[H])C3([H])[H])c([H])c2[H])c([H])c(C(=O)N([H])C([H])([H])C([H])([H])C([H])([H])Oc2c([H])c([H])c3c(c2[H])C([H])([H])N(C(=O)C([H])(N([H])C(=O)C([H])(N([H])C([H])([H])[H])C([H])([H])[H])C(C([H])([H])[H])(C([H])([H])[H])C([H])([H])[H])C([H])(C(=O)N([H])C2([H])c4c([H])c([H])c([H])c([H])c4C([H])([H])C([H])([H])C2([H])[H])C3([H])[H])c1[H]

>  <smiles>  (53) 
[H]c1c([H])c(Oc2c([H])c([H])c(C([H])([H])N([H])C(=O)N3C([H])([H])C([H])([H])C([H])([H])C([H])(n4nc(-c5c([H])c([H])c(Oc6c([H])c([H])c(F)c([H])c6F)c([H])c5[H])c(C(=O)N([H])[H])c4N([H])[H])C3([H])[H])c([H])c2[H])c([H])c(C(=O)N([H])C([H])([H])C([H])([H])C([H])([H])Oc2c([H])c([H])c3c(c2[H])C([H])([H])N(C(=O)C([H])(N([H])C(=O)C([H])(N([H])C([H])([H])[H])C([H])([H])[H])C(C([H])([H])[H])(C([H])([H])[H])C([H])([H])[H])C([H])(C(=O)N([H])C2([H])c4c([H])c([H])c([H])c([H])c4C([H])([H])C([H])([H])C2([H])[H])C3([H])[H])c1[H]

$$$$
55:0:0
     RDKit          3D

115123  0  0  1  0  0  0  0  0999 V2000
  -35.4860  -22.4290   18.7140 C   0  0  0  0  0  3  0  0  0  0  0  0
  -33.2250  -23.0460   19.3830 C   0  0  0  0  0  3  0  0  0  0  0  0
  -35.9940  -23.5670   19.3750 C   0  0  0  0  0  3  0  0  0  0  0  0
  -33.7340  -24.1870   20.0310 C   0  0  0  0  0  3  0  0  0  0  0  0
  -34.1000  -22.1530   18.7240 C   0  0  0  0  0  0  0  0  0  0  0  0
  -35.1170  -24.4470   20.0440 C   0  0  0  0  0  0  0  0  0  0  0  0
  -33.5620  -20.9550   17.9970 C   0  0  0  0  0  0  0  0  0  0  0  0
  -32.5310  -20.3430   18.5880 N   0  0  0  0  0  0  0  0  0  0  0  0
  -34.0730  -20.5630   16.9470 O   0  0  0  0  0  0  0  0  0  0  0  0
  -32.1960  -20.7340   19.4570 H   0  0  0  0  0  0  0  0  0  0  0  0
  -31.7760  -19.2280   18.0300 C   0  0  0  0  0  2  0  0  0  0  0  0
  -30.5640  -19.7450   17.2450 C   0  0  0  0  0  2  0  0  0  0  0  0
  -29.7350  -20.4840   18.1330 O   0  0  0  0  0  0  0  0  0  0  0  0
  -28.5880  -21.0290   17.4920 C   0  0  0  0  0  2  0  0  0  0  0  0
  -27.7220  -21.7400   18.5390 C   0  0  0  0  0  2  0  0  0  0  0  0
  -27.1420  -20.7620   19.3900 O   0  0  0  0  0  0  0  0  0  0  0  0
  -26.3370  -21.3280   20.4160 C   0  0  0  0  0  2  0  0  0  0  0  0
  -25.8250  -20.1940   21.3120 C   0  0  0  0  0  2  0  0  0  0  0  0
  -26.9220  -19.6570   22.0360 O   0  0  0  0  0  0  0  0  0  0  0  0
  -26.5640  -18.5280   22.8210 C   0  0  0  0  0  2  0  0  0  0  0  0
  -27.8190  -18.0000   23.5260 C   0  0  0  0  0  2  0  0  0  0  0  0
  -28.6840  -17.4150   22.5610 O   0  0  0  0  0  0  0  0  0  0  0  0
  -29.9070  -16.9630   23.1270 C   0  0  0  0  0  2  0  0  0  0  0  0
  -30.7720  -16.3410   22.0250 C   0  0  0  0  0  2  0  0  0  0  0  0
  -30.1910  -15.1080   21.6330 O   0  0  0  0  0  0  0  0  0  0  0  0
  -30.7710  -14.3680   20.6800 C   0  0  0  0  0  0  0  0  0  0  0  0
  -30.4190  -12.2770   19.3750 C   0  0  0  0  0  2  0  0  0  0  0  0
  -29.4780  -12.5240   18.1820 C   0  0  0  0  0  2  0  0  0  0  0  0
  -28.0030  -12.3810   18.6080 C   0  0  0  0  0  2  0  0  0  0  0  0
  -27.6660  -13.1980   19.8840 C   0  0  0  0  0  3  0  0  0  0  0  0
  -28.7010  -12.9250   20.9970 C   0  0  0  0  0  2  0  0  0  0  0  0
  -30.0370  -13.2000   20.4450 N   0  0  0  0  0  0  0  0  0  0  0  0
  -31.8080  -14.6930   20.0940 O   0  0  0  0  0  0  0  0  0  0  0  0
  -25.2600  -13.8150   20.5680 C   0  0  0  0  0  0  0  0  0  0  0  0
  -24.1840  -13.0440   20.9160 C   0  0  0  0  0  0  0  0  0  0  0  0
  -24.6380  -11.6900   20.8720 C   0  0  0  0  0  0  0  0  0  0  0  0
  -26.3040  -12.9310   20.3410 N   0  0  0  0  0  0  0  0  0  0  0  0
  -25.9300  -11.6470   20.5760 N   0  0  0  0  0  0  0  0  0  0  0  0
  -23.9040  -10.4300   21.0400 C   0  0  0  0  0  0  0  0  0  0  0  0
  -24.3600   -9.4210   21.9180 C   0  0  0  0  0  3  0  0  0  0  0  0
  -23.6280   -8.2240   22.0750 C   0  0  0  0  0  3  0  0  0  0  0  0
  -22.4270   -8.0280   21.3540 C   0  0  0  0  0  0  0  0  0  0  0  0
  -21.9900   -9.0250   20.4640 C   0  0  0  0  0  3  0  0  0  0  0  0
  -22.7220  -10.2130   20.3050 C   0  0  0  0  0  3  0  0  0  0  0  0
  -21.6630   -6.8870   21.4240 O   0  0  0  0  0  0  0  0  0  0  0  0
  -21.6850   -6.0730   22.5280 C   0  0  0  0  0  0  0  0  0  0  0  0
  -21.4010   -6.5640   23.8210 C   0  0  0  0  0  3  0  0  0  0  0  0
  -21.3660   -5.6790   24.9170 C   0  0  0  0  0  3  0  0  0  0  0  0
  -21.6050   -4.3050   24.7230 C   0  0  0  0  0  0  0  0  0  0  0  0
  -21.8820   -3.8150   23.4350 C   0  0  0  0  0  3  0  0  0  0  0  0
  -21.9190   -4.6960   22.3400 C   0  0  0  0  0  0  0  0  0  0  0  0
  -22.1660   -4.2150   21.0980 F   0  0  0  0  0  0  0  0  0  0  0  0
  -21.5630   -3.4540   25.7740 F   0  0  0  0  0  0  0  0  0  0  0  0
  -22.7860  -13.5240   21.1830 C   0  0  0  0  0  0  0  0  0  0  0  0
  -22.0500  -12.8240   22.0390 N   0  0  0  0  0  0  0  0  0  0  0  0
  -22.3550  -14.5560   20.6680 O   0  0  0  0  0  0  0  0  0  0  0  0
  -22.4110  -11.9900   22.4770 H   0  0  0  0  0  0  0  0  0  0  0  0
  -21.1130  -13.1280   22.2600 H   0  0  0  0  0  0  0  0  0  0  0  0
  -25.4340  -15.1870   20.4100 N   0  0  0  0  0  0  0  0  0  0  0  0
  -24.6700  -15.8450   20.5110 H   0  0  0  0  0  0  0  0  0  0  0  0
  -26.3020  -15.6230   20.1250 H   0  0  0  0  0  0  0  0  0  0  0  0
  -35.6220  -25.6920   20.7470 C   0  0  0  0  0  2  0  0  0  0  0  0
  -36.9690  -25.5700   21.1910 O   0  0  0  0  0  0  0  0  0  0  0  0
  -37.3930  -26.6790   21.9750 C   0  0  0  0  0  2  0  0  0  0  0  0
  -37.2380  -26.3950   23.4800 C   0  0  0  0  0  2  0  0  0  0  0  0
  -35.8700  -26.2530   23.8560 O   0  0  0  0  0  0  0  0  0  0  0  0
  -35.5360  -24.9240   24.2460 C   0  0  0  0  0  2  0  0  0  0  0  0
  -34.0550  -24.8280   24.6440 C   0  0  0  0  0  2  0  0  0  0  0  0
  -33.2330  -24.7910   23.4820 O   0  0  0  0  0  0  0  0  0  0  0  0
  -31.8540  -24.6050   23.7840 C   0  0  0  0  0  2  0  0  0  0  0  0
  -31.0690  -24.3580   22.4820 C   0  0  0  0  0  2  0  0  0  0  0  0
  -30.9270  -25.5630   21.7310 O   0  0  0  0  0  0  0  0  0  0  0  0
  -29.7500  -26.3070   22.0410 C   0  0  0  0  0  2  0  0  0  0  0  0
  -28.5660  -25.8600   21.1600 C   0  0  0  0  0  2  0  0  0  0  0  0
  -28.4080  -26.7450   20.0520 O   0  0  0  0  0  0  0  0  0  0  0  0
  -24.6090  -31.8700   23.2090 C   0  0  0  0  0  0  0  0  0  0  0  0
  -27.2480  -27.4760   20.0880 C   0  0  0  0  0  0  0  0  0  0  0  0
  -23.3980  -30.4880   21.5490 C   0  0  0  0  0  3  0  0  0  0  0  0
  -24.8500  -28.9570   20.1140 C   0  0  0  0  0  0  0  0  0  0  0  0
  -25.9210  -30.8510   21.3530 C   0  0  0  0  0  2  0  0  0  0  0  0
  -26.0060  -29.4840   20.7070 C   0  0  0  0  0  0  0  0  0  0  0  0
  -27.2120  -28.7500   20.6920 C   0  0  0  0  0  3  0  0  0  0  0  0
  -26.0820  -26.9510   19.4970 C   0  0  0  0  0  3  0  0  0  0  0  0
  -24.8820  -27.6880   19.5080 C   0  0  0  0  0  3  0  0  0  0  0  0
  -23.6050  -29.8150   20.1640 C   0  0  0  0  0  2  0  0  0  0  0  0
  -24.6610  -31.0820   22.0970 N   0  0  0  0  0  0  0  0  0  0  0  0
  -23.5290  -32.1430   23.7500 O   0  0  0  0  0  0  0  0  0  0  0  0
  -22.7400  -29.4640   22.5000 C   0  0  0  0  0  0  0  0  0  0  0  0
  -21.4140  -29.3010   22.3750 N   0  0  0  0  0  0  0  0  0  0  0  0
  -23.4190  -28.8190   23.3030 O   0  0  0  0  0  0  0  0  0  0  0  0
  -20.9300  -29.8750   21.7000 H   0  0  0  0  0  0  0  0  0  0  0  0
  -18.0260  -28.1360   22.8470 C   0  0  0  0  0  0  0  0  0  0  0  0
  -20.5850  -28.3630   23.1320 C   0  0  0  0  0  3  0  0  0  0  0  0
  -20.6750  -26.9370   22.5420 C   0  0  0  0  0  2  0  0  0  0  0  0
  -19.5740  -26.6350   21.5200 C   0  0  0  0  0  2  0  0  0  0  0  0
  -18.1910  -26.7890   22.1610 C   0  0  0  0  0  2  0  0  0  0  0  0
  -19.1520  -28.8810   23.2880 C   0  0  0  0  0  0  0  0  0  0  0  0
  -18.9450  -30.1420   23.8890 C   0  0  0  0  0  3  0  0  0  0  0  0
  -17.6460  -30.6570   24.0550 C   0  0  0  0  0  3  0  0  0  0  0  0
  -16.5350  -29.9070   23.6310 C   0  0  0  0  0  3  0  0  0  0  0  0
  -16.7260  -28.6490   23.0320 C   0  0  0  0  0  3  0  0  0  0  0  0
  -25.8990  -32.4840   23.8380 C   0  0  0  0  0  3  0  0  0  0  0  0
  -25.5860  -33.8640   24.2300 N   0  0  0  0  0  0  0  0  0  0  0  0
  -25.9040  -34.9480   23.5120 C   0  0  0  0  0  0  0  0  0  0  0  0
  -26.5620  -34.8940   22.4700 O   0  0  0  0  0  0  0  0  0  0  0  0
  -24.9940  -33.9800   25.0400 H   0  0  0  0  0  0  0  0  0  0  0  0
  -24.1490  -36.7340   23.2640 C   0  0  0  0  0  1  0  0  0  0  0  0
  -25.4120  -36.3130   24.0330 C   0  0  0  0  0  3  0  0  0  0  0  0
  -27.5590  -37.1820   24.8460 C   0  0  0  0  0  1  0  0  0  0  0  0
  -26.4310  -37.3800   23.9400 N   0  0  0  0  0  0  0  0  0  0  0  0
  -26.0210  -38.2890   24.1380 H   0  0  0  0  0  0  0  0  0  0  0  0
  -26.4420  -31.6620   25.0700 C   0  0  1  0  0  0  0  0  0  0  0  0
  -25.3680  -31.3750   26.1450 C   0  0  0  0  0  1  0  0  0  0  0  0
  -27.0230  -30.3070   24.6020 C   0  0  0  0  0  1  0  0  0  0  0  0
  -27.5980  -32.4350   25.7470 C   0  0  0  0  0  1  0  0  0  0  0  0
  1  5  2  0
  1  3  1  0
  2  4  2  0
  3  6  2  0
  4  6  1  0
  5  2  1  0
  6 62  1  0
  7  8  1  0
  7  5  1  0
  8 10  1  0
  9  7  2  0
 11  8  1  0
 12 11  1  0
 12 13  1  0
 14 13  1  0
 14 15  1  0
 15 16  1  0
 16 17  1  0
 17 18  1  0
 18 19  1  0
 19 20  1  0
 20 21  1  0
 22 23  1  0
 22 21  1  0
 24 23  1  0
 25 24  1  0
 26 25  1  0
 27 32  1  0
 28 29  1  0
 28 27  1  0
 30 29  1  0
 30 37  1  0
 30 31  1  0
 32 26  1  0
 32 31  1  0
 33 26  2  0
 34 35  2  0
 35 54  1  0
 36 35  1  0
 36 39  1  0
 37 34  1  0
 37 38  1  0
 38 36  2  0
 39 40  1  0
 40 41  2  0
 42 45  1  0
 42 41  1  0
 43 42  2  0
 44 43  1  0
 44 39  2  0
 45 46  1  0
 46 47  1  0
 47 48  2  0
 49 48  1  0
 49 53  1  0
 50 49  2  0
 51 46  2  0
 51 50  1  0
 52 51  1  0
 54 55  1  0
 55 58  1  0
 55 57  1  0
 56 54  2  0
 59 60  1  0
 59 34  1  0
 61 59  1  0
 62 63  1  0
 63 64  1  0
 64 65  1  0
 65 66  1  0
 66 67  1  0
 67 68  1  0
 69 70  1  0
 69 68  1  0
 71 70  1  0
 72 73  1  0
 72 71  1  0
 74 73  1  0
 75 77  1  0
 75 74  1  0
 76 87  2  0
 77 82  1  0
 78 86  1  0
 78 88  1  0
 79 85  1  0
 79 81  1  0
 80 86  1  0
 81 80  1  0
 82 81  2  0
 83 84  1  0
 83 77  2  0
 84 79  2  0
 85 78  1  0
 86 76  1  0
 88 90  2  0
 89 88  1  0
 91 89  1  0
 92101  2  0
 92 97  1  0
 93 89  1  0
 93 97  1  0
 94 93  1  0
 95 96  1  0
 95 94  1  0
 96 92  1  0
 97 98  2  0
 98 99  1  0
100 99  2  0
101100  1  0
102 76  1  0
102103  1  0
102112  1  0
103106  1  0
104108  1  0
104103  1  0
105104  2  0
108107  1  0
110108  1  0
110111  1  0
110109  1  0
112115  1  1
112113  1  0
114112  1  0
M  ISO  4  25 100  26 100  74 101  75 101
M  END
>  <TORSDO>  (54) 
F 45

>  <SCORE>  (54) 
29.618

>  <name>  (54) 
55

>  <ligand_id>  (54) 
55

>  <original_smiles>  (54) 
[H]c1c([H])c([H])c2c(c1[H])C([H])([H])C([H])([H])C([H])([H])C2([H])N([H])C(=O)C1([H])N(C(=O)C([H])(N([H])C(=O)C([H])(N([H])C([H])([H])[H])C([H])([H])[H])C(C([H])([H])[H])(C([H])([H])[H])C([H])([H])[H])C([H])([H])c2c([H])c(OC([H])([H])C([H])([H])OC([H])([H])C([H])([H])OC([H])([H])C([H])([H])OC([H])([H])C([H])([H])OC([H])([H])c3c([H])c([H])c(C(=O)N([H])C([H])([H])C([H])([H])OC([H])([H])C([H])([H])OC([H])([H])C([H])([H])OC([H])([H])C([H])([H])OC([H])([H])C([H])([H])OC(=O)N4C([H])([H])C([H])([H])C([H])([H])C([H])(n5nc(-c6c([H])c([H])c(Oc7c([H])c([H])c(F)c([H])c7F)c([H])c6[H])c(C(=O)N([H])[H])c5N([H])[H])C4([H])[H])c([H])c3[H])c([H])c([H])c2C1([H])[H]

>  <smiles>  (54) 
[H]c1c([H])c([H])c2c(c1[H])C([H])([H])C([H])([H])C([H])([H])C2([H])N([H])C(=O)C1([H])N(C(=O)C([H])(N([H])C(=O)C([H])(N([H])C([H])([H])[H])C([H])([H])[H])C(C([H])([H])[H])(C([H])([H])[H])C([H])([H])[H])C([H])([H])c2c([H])c(OC([H])([H])C([H])([H])OC([H])([H])C([H])([H])OC([H])([H])C([H])([H])OC([H])([H])C([H])([H])OC([H])([H])c3c([H])c([H])c(C(=O)N([H])C([H])([H])C([H])([H])OC([H])([H])C([H])([H])OC([H])([H])C([H])([H])OC([H])([H])C([H])([H])OC([H])([H])C([H])([H])OC(=O)N4C([H])([H])C([H])([H])C([H])([H])C([H])(n5nc(-c6c([H])c([H])c(Oc7c([H])c([H])c(F)c([H])c7F)c([H])c6[H])c(C(=O)N([H])[H])c5N([H])[H])C4([H])[H])c([H])c3[H])c([H])c([H])c2C1([H])[H]

$$$$
56:0:0
     RDKit          3D

 87 95  0  0  1  0  0  0  0  0999 V2000
  -29.0030  -21.4920   22.2600 C   0  0  0  0  0  3  0  0  0  0  0  0
  -29.3210  -20.2720   21.6050 C   0  0  0  0  0  3  0  0  0  0  0  0
  -28.7740  -22.7190   21.5820 C   0  0  0  0  0  3  0  0  0  0  0  0
  -29.4540  -20.1860   20.2090 C   0  0  0  0  0  0  0  0  0  0  0  0
  -28.8360  -22.8320   20.1820 C   0  0  0  0  0  0  0  0  0  0  0  0
  -29.1860  -21.5110   19.5550 N   0  0  0  0  0  0  0  0  0  0  0  0
  -30.0350  -18.6240   19.5830 C   0  0  0  0  0  2  0  0  0  0  0  0
  -30.6840  -15.6880   19.8160 C   0  0  0  0  0  0  0  0  0  0  0  0
  -30.6600  -13.2050   18.9850 C   0  0  0  0  0  2  0  0  0  0  0  0
  -29.6900  -12.9550   17.8000 C   0  0  0  0  0  2  0  0  0  0  0  0
  -28.2680  -12.6640   18.3080 C   0  0  0  0  0  2  0  0  0  0  0  0
  -27.8610  -13.6250   19.4530 C   0  0  0  0  0  3  0  0  0  0  0  0
  -28.9610  -13.8160   20.5220 C   0  0  0  0  0  2  0  0  0  0  0  0
  -30.1420  -14.3580   19.8260 N   0  0  0  0  0  0  0  0  0  0  0  0
  -31.8720  -15.6830   19.4620 O   0  0  0  0  0  0  0  0  0  0  0  0
  -29.9300  -16.9770   20.0060 N   0  0  0  0  0  0  0  0  0  0  0  0
  -29.0080  -16.7780   20.3650 H   0  0  0  0  0  0  0  0  0  0  0  0
  -25.5630  -14.1620   20.4080 C   0  0  0  0  0  0  0  0  0  0  0  0
  -24.5160  -13.3800   20.8050 C   0  0  0  0  0  0  0  0  0  0  0  0
  -24.9530  -12.0270   20.6570 C   0  0  0  0  0  0  0  0  0  0  0  0
  -26.5690  -13.2900   20.0340 N   0  0  0  0  0  0  0  0  0  0  0  0
  -26.2190  -11.9930   20.2490 N   0  0  0  0  0  0  0  0  0  0  0  0
  -24.2150  -10.7680   20.8190 C   0  0  0  0  0  0  0  0  0  0  0  0
  -24.6220   -9.7860   21.7490 C   0  0  0  0  0  3  0  0  0  0  0  0
  -23.8810   -8.5940   21.9020 C   0  0  0  0  0  3  0  0  0  0  0  0
  -22.7160   -8.3770   21.1280 C   0  0  0  0  0  0  0  0  0  0  0  0
  -22.3300   -9.3470   20.1870 C   0  0  0  0  0  3  0  0  0  0  0  0
  -23.0710  -10.5310   20.0310 C   0  0  0  0  0  3  0  0  0  0  0  0
  -21.9500   -7.2390   21.1910 O   0  0  0  0  0  0  0  0  0  0  0  0
  -21.7940   -6.5400   22.3620 C   0  0  0  0  0  0  0  0  0  0  0  0
  -21.1870   -7.1160   23.5000 C   0  0  0  0  0  3  0  0  0  0  0  0
  -20.9840   -6.3400   24.6590 C   0  0  0  0  0  3  0  0  0  0  0  0
  -21.3770   -4.9890   24.6800 C   0  0  0  0  0  0  0  0  0  0  0  0
  -21.9750   -4.4110   23.5460 C   0  0  0  0  0  3  0  0  0  0  0  0
  -22.1800   -5.1840   22.3900 C   0  0  0  0  0  0  0  0  0  0  0  0
  -22.7380   -4.6170   21.2940 F   0  0  0  0  0  0  0  0  0  0  0  0
  -21.1740   -4.2410   25.7900 F   0  0  0  0  0  0  0  0  0  0  0  0
  -23.1520  -13.8620   21.2000 C   0  0  0  0  0  0  0  0  0  0  0  0
  -22.4790  -13.1420   22.0880 N   0  0  0  0  0  0  0  0  0  0  0  0
  -22.6950  -14.9150   20.7550 O   0  0  0  0  0  0  0  0  0  0  0  0
  -22.8620  -12.2890   22.4680 H   0  0  0  0  0  0  0  0  0  0  0  0
  -21.5640  -13.4470   22.3900 H   0  0  0  0  0  0  0  0  0  0  0  0
  -25.7370  -15.5400   20.3020 N   0  0  0  0  0  0  0  0  0  0  0  0
  -24.9860  -16.1890   20.5110 H   0  0  0  0  0  0  0  0  0  0  0  0
  -26.5430  -15.9890   19.8890 H   0  0  0  0  0  0  0  0  0  0  0  0
  -28.2850  -24.3940   19.5090 C   0  0  0  0  0  2  0  0  0  0  0  0
  -28.3570  -26.0090   19.9870 O   0  0  0  0  0  0  0  0  0  0  0  0
  -24.6690  -31.8920   23.0810 C   0  0  0  0  0  0  0  0  0  0  0  0
  -27.3350  -27.1210   19.9060 C   0  0  0  0  0  0  0  0  0  0  0  0
  -23.5010  -30.4990   21.4210 C   0  0  0  0  0  3  0  0  0  0  0  0
  -24.9820  -28.9740   19.9330 C   0  0  0  0  0  0  0  0  0  0  0  0
  -26.0590  -30.7810   21.2530 C   0  0  0  0  0  2  0  0  0  0  0  0
  -26.1650  -29.3850   20.5580 C   0  0  0  0  0  0  0  0  0  0  0  0
  -27.3280  -28.4790   20.5240 C   0  0  0  0  0  3  0  0  0  0  0  0
  -26.1180  -26.8890   19.2190 C   0  0  0  0  0  3  0  0  0  0  0  0
  -24.9880  -27.7520   19.2410 C   0  0  0  0  0  3  0  0  0  0  0  0
  -23.7350  -29.8580   20.0240 C   0  0  0  0  0  2  0  0  0  0  0  0
  -24.7660  -31.0850   21.9720 N   0  0  0  0  0  0  0  0  0  0  0  0
  -23.5780  -32.1350   23.6200 O   0  0  0  0  0  0  0  0  0  0  0  0
  -22.8480  -29.4610   22.3710 C   0  0  0  0  0  0  0  0  0  0  0  0
  -21.5260  -29.2410   22.2450 N   0  0  0  0  0  0  0  0  0  0  0  0
  -23.5400  -28.8510   23.1910 O   0  0  0  0  0  0  0  0  0  0  0  0
  -21.0170  -29.7870   21.5630 H   0  0  0  0  0  0  0  0  0  0  0  0
  -18.2040  -27.8600   22.7280 C   0  0  0  0  0  0  0  0  0  0  0  0
  -20.7470  -28.2530   23.0010 C   0  0  0  0  0  3  0  0  0  0  0  0
  -20.9230  -26.8360   22.4080 C   0  0  0  0  0  2  0  0  0  0  0  0
  -19.8400  -26.4720   21.3860 C   0  0  0  0  0  2  0  0  0  0  0  0
  -18.4520  -26.5340   22.0280 C   0  0  0  0  0  2  0  0  0  0  0  0
  -19.2820  -28.6740   23.1700 C   0  0  0  0  0  0  0  0  0  0  0  0
  -18.9940  -29.9100   23.7890 C   0  0  0  0  0  3  0  0  0  0  0  0
  -17.6620  -30.3350   23.9670 C   0  0  0  0  0  3  0  0  0  0  0  0
  -16.6020  -29.5200   23.5370 C   0  0  0  0  0  3  0  0  0  0  0  0
  -16.8730  -28.2830   22.9240 C   0  0  0  0  0  3  0  0  0  0  0  0
  -25.9240  -32.5620   23.7150 C   0  0  0  0  0  3  0  0  0  0  0  0
  -25.5720  -33.9500   24.0690 N   0  0  0  0  0  0  0  0  0  0  0  0
  -25.8870  -35.0330   23.3460 C   0  0  0  0  0  0  0  0  0  0  0  0
  -26.5660  -34.9690   22.3170 O   0  0  0  0  0  0  0  0  0  0  0  0
  -24.9670  -34.0700   24.8690 H   0  0  0  0  0  0  0  0  0  0  0  0
  -24.1390  -36.8170   23.0150 C   0  0  0  0  0  1  0  0  0  0  0  0
  -25.3700  -36.4010   23.8370 C   0  0  0  0  0  3  0  0  0  0  0  0
  -27.4620  -37.3060   24.7530 C   0  0  0  0  0  1  0  0  0  0  0  0
  -26.3880  -37.4740   23.7770 N   0  0  0  0  0  0  0  0  0  0  0  0
  -25.9610  -38.3840   23.9270 H   0  0  0  0  0  0  0  0  0  0  0  0
  -26.4560  -31.7970   24.9900 C   0  0  1  0  0  0  0  0  0  0  0  0
  -25.3610  -31.5030   26.0430 C   0  0  0  0  0  1  0  0  0  0  0  0
  -27.1000  -30.4470   24.5980 C   0  0  0  0  0  1  0  0  0  0  0  0
  -27.5670  -32.6280   25.6740 C   0  0  0  0  0  1  0  0  0  0  0  0
  2  1  1  0
  3  1  2  0
  4  2  2  0
  5  3  1  0
  6  5  2  0
  6  4  1  0
  7 16  1  0
  7  4  1  0
  8 14  1  0
  8 16  1  0
  9 14  1  0
 10 11  1  0
 10  9  1  0
 12 11  1  0
 12 21  1  0
 12 13  1  0
 14 13  1  0
 15  8  2  0
 16 17  1  0
 18 19  2  0
 19 38  1  0
 20 19  1  0
 20 23  1  0
 21 22  1  0
 21 18  1  0
 22 20  2  0
 23 24  1  0
 24 25  2  0
 26 29  1  0
 26 25  1  0
 27 26  2  0
 28 27  1  0
 28 23  2  0
 29 30  1  0
 30 35  2  0
 30 31  1  0
 31 32  2  0
 32 33  1  0
 33 37  1  0
 34 33  2  0
 35 34  1  0
 36 35  1  0
 38 39  1  0
 39 42  1  0
 39 41  1  0
 40 38  2  0
 43 18  1  0
 43 44  1  0
 45 43  1  0
 46 47  1  0
 46  5  1  0
 48 59  2  0
 49 47  1  0
 49 54  1  0
 50 58  1  0
 50 60  1  0
 51 57  1  0
 51 53  1  0
 52 58  1  0
 53 52  1  0
 54 53  2  0
 55 56  1  0
 55 49  2  0
 56 51  2  0
 57 50  1  0
 58 48  1  0
 60 62  2  0
 61 60  1  0
 63 61  1  0
 64 73  2  0
 64 69  1  0
 65 61  1  0
 65 69  1  0
 66 65  1  0
 67 68  1  0
 67 66  1  0
 68 64  1  0
 69 70  2  0
 70 71  1  0
 72 71  2  0
 73 72  1  0
 74 48  1  0
 74 75  1  0
 74 84  1  0
 75 78  1  0
 76 80  1  0
 76 75  1  0
 77 76  2  0
 80 79  1  0
 82 80  1  0
 82 83  1  0
 82 81  1  0
 84 87  1  1
 84 85  1  0
 86 84  1  0
M  ISO  4   8 100  16 100  46 101  47 101
M  END
>  <TORSDO>  (55) 
F 18

>  <SCORE>  (55) 
-15.537

>  <name>  (55) 
56

>  <ligand_id>  (55) 
56

>  <original_smiles>  (55) 
[H]c1c(C([H])([H])Oc2c([H])c([H])c3c(c2[H])C([H])([H])N(C(=O)C([H])(N([H])C(=O)C([H])(N([H])C([H])([H])[H])C([H])([H])[H])C(C([H])([H])[H])(C([H])([H])[H])C([H])([H])[H])C([H])(C(=O)N([H])C2([H])c4c([H])c([H])c([H])c([H])c4C([H])([H])C([H])([H])C2([H])[H])C3([H])[H])nc(C([H])([H])N([H])C(=O)N2C([H])([H])C([H])([H])C([H])([H])C([H])(n3nc(-c4c([H])c([H])c(Oc5c([H])c([H])c(F)c([H])c5F)c([H])c4[H])c(C(=O)N([H])[H])c3N([H])[H])C2([H])[H])c([H])c1[H]

>  <smiles>  (55) 
[H]c1c(C([H])([H])Oc2c([H])c([H])c3c(c2[H])C([H])([H])N(C(=O)C([H])(N([H])C(=O)C([H])(N([H])C([H])([H])[H])C([H])([H])[H])C(C([H])([H])[H])(C([H])([H])[H])C([H])([H])[H])C([H])(C(=O)N([H])C2([H])c4c([H])c([H])c([H])c([H])c4C([H])([H])C([H])([H])C2([H])[H])C3([H])[H])nc(C([H])([H])N([H])C(=O)N2C([H])([H])C([H])([H])C([H])([H])C([H])(n3nc(-c4c([H])c([H])c(Oc5c([H])c([H])c(F)c([H])c5F)c([H])c4[H])c(C(=O)N([H])[H])c3N([H])[H])C2([H])[H])c([H])c1[H]

$$$$
57:0:0
     RDKit          3D

 90 97  0  0  1  0  0  0  0  0999 V2000
  -26.3470  -21.5780   18.2530 C   0  0  0  0  0  2  0  0  0  0  0  0
  -26.6040  -20.2300   17.5620 C   0  0  0  0  0  2  0  0  0  0  0  0
  -27.6890  -19.5890   18.2180 O   0  0  0  0  0  0  0  0  0  0  0  0
  -27.9520  -18.2750   17.7440 C   0  0  0  0  0  2  0  0  0  0  0  0
  -29.3060  -17.8340   18.3100 C   0  0  0  0  0  2  0  0  0  0  0  0
  -29.2160  -17.5970   19.7120 O   0  0  0  0  0  0  0  0  0  0  0  0
  -30.4990  -17.5990   20.3280 C   0  0  0  0  0  2  0  0  0  0  0  0
  -30.4640  -16.8850   21.6950 C   0  0  0  0  0  2  0  0  0  0  0  0
  -30.0680  -15.5190   21.5910 O   0  0  0  0  0  0  0  0  0  0  0  0
  -30.8520  -14.6170   20.9710 C   0  0  0  0  0  0  0  0  0  0  0  0
  -30.6130  -12.4650   19.7580 C   0  0  0  0  0  2  0  0  0  0  0  0
  -29.7480  -12.7040   18.5040 C   0  0  0  0  0  2  0  0  0  0  0  0
  -28.2480  -12.5680   18.8360 C   0  0  0  0  0  2  0  0  0  0  0  0
  -27.8300  -13.3960   20.0810 C   0  0  0  0  0  3  0  0  0  0  0  0
  -28.8010  -13.1470   21.2550 C   0  0  0  0  0  2  0  0  0  0  0  0
  -30.1650  -13.4130   20.7800 N   0  0  0  0  0  0  0  0  0  0  0  0
  -31.9790  -14.8710   20.5400 O   0  0  0  0  0  0  0  0  0  0  0  0
  -25.3800  -13.9930   20.5950 C   0  0  0  0  0  0  0  0  0  0  0  0
  -24.2950  -13.2170   20.9040 C   0  0  0  0  0  0  0  0  0  0  0  0
  -24.7710  -11.8700   20.9410 C   0  0  0  0  0  0  0  0  0  0  0  0
  -26.4470  -13.1190   20.4640 N   0  0  0  0  0  0  0  0  0  0  0  0
  -26.0800  -11.8390   20.7260 N   0  0  0  0  0  0  0  0  0  0  0  0
  -24.0460  -10.6050   21.1130 C   0  0  0  0  0  0  0  0  0  0  0  0
  -24.4440   -9.6490   22.0740 C   0  0  0  0  0  3  0  0  0  0  0  0
  -23.7200   -8.4480   22.2330 C   0  0  0  0  0  3  0  0  0  0  0  0
  -22.5850   -8.1930   21.4280 C   0  0  0  0  0  0  0  0  0  0  0  0
  -22.2060   -9.1370   20.4570 C   0  0  0  0  0  3  0  0  0  0  0  0
  -22.9300  -10.3300   20.2980 C   0  0  0  0  0  3  0  0  0  0  0  0
  -21.8370   -7.0400   21.4910 O   0  0  0  0  0  0  0  0  0  0  0  0
  -21.7640   -6.2940   22.6400 C   0  0  0  0  0  0  0  0  0  0  0  0
  -21.3280   -6.8510   23.8620 C   0  0  0  0  0  3  0  0  0  0  0  0
  -21.1980   -6.0310   25.0010 C   0  0  0  0  0  3  0  0  0  0  0  0
  -21.4970   -4.6570   24.9190 C   0  0  0  0  0  0  0  0  0  0  0  0
  -21.9260   -4.1010   23.7020 C   0  0  0  0  0  3  0  0  0  0  0  0
  -22.0570   -4.9170   22.5650 C   0  0  0  0  0  0  0  0  0  0  0  0
  -22.4500   -4.3720   21.3880 F   0  0  0  0  0  0  0  0  0  0  0  0
  -21.3660   -3.8680   26.0120 F   0  0  0  0  0  0  0  0  0  0  0  0
  -22.8770  -13.6840   21.0680 C   0  0  0  0  0  0  0  0  0  0  0  0
  -22.1010  -13.0020   21.9030 N   0  0  0  0  0  0  0  0  0  0  0  0
  -22.4620  -14.6870   20.4900 O   0  0  0  0  0  0  0  0  0  0  0  0
  -22.4490  -12.1910   22.3920 H   0  0  0  0  0  0  0  0  0  0  0  0
  -21.1490  -13.2970   22.0590 H   0  0  0  0  0  0  0  0  0  0  0  0
  -25.5460  -15.3610   20.3970 N   0  0  0  0  0  0  0  0  0  0  0  0
  -24.7750  -16.0180   20.4460 H   0  0  0  0  0  0  0  0  0  0  0  0
  -26.4300  -15.8000   20.1700 H   0  0  0  0  0  0  0  0  0  0  0  0
  -27.5330  -22.5530   18.1690 C   0  0  0  0  0  2  0  0  0  0  0  0
  -27.3150  -23.6230   19.0810 O   0  0  0  0  0  0  0  0  0  0  0  0
  -28.3860  -24.5630   19.1210 C   0  0  0  0  0  2  0  0  0  0  0  0
  -28.2700  -25.4130   20.4010 C   0  0  0  0  0  2  0  0  0  0  0  0
  -28.3470  -26.8180   20.1480 O   0  0  0  0  0  0  0  0  0  0  0  0
  -24.5650  -31.9660   23.2500 C   0  0  0  0  0  0  0  0  0  0  0  0
  -27.1610  -27.5160   20.1580 C   0  0  0  0  0  0  0  0  0  0  0  0
  -23.3370  -30.5690   21.6210 C   0  0  0  0  0  3  0  0  0  0  0  0
  -24.7690  -29.0160   20.1920 C   0  0  0  0  0  0  0  0  0  0  0  0
  -25.8620  -30.9140   21.4020 C   0  0  0  0  0  2  0  0  0  0  0  0
  -25.9330  -29.5420   20.7640 C   0  0  0  0  0  0  0  0  0  0  0  0
  -27.1320  -28.8010   20.7410 C   0  0  0  0  0  3  0  0  0  0  0  0
  -25.9780  -26.9930   19.5900 C   0  0  0  0  0  3  0  0  0  0  0  0
  -24.7840  -27.7390   19.6040 C   0  0  0  0  0  3  0  0  0  0  0  0
  -23.5310  -29.8820   20.2420 C   0  0  0  0  0  2  0  0  0  0  0  0
  -24.6060  -31.1640   22.1490 N   0  0  0  0  0  0  0  0  0  0  0  0
  -23.4910  -32.2480   23.7980 O   0  0  0  0  0  0  0  0  0  0  0  0
  -22.6870  -29.5550   22.5890 C   0  0  0  0  0  0  0  0  0  0  0  0
  -21.3600  -29.3810   22.4690 N   0  0  0  0  0  0  0  0  0  0  0  0
  -23.3710  -28.9270   23.4000 O   0  0  0  0  0  0  0  0  0  0  0  0
  -20.8690  -29.9380   21.7830 H   0  0  0  0  0  0  0  0  0  0  0  0
  -17.9810  -28.2080   22.9750 C   0  0  0  0  0  0  0  0  0  0  0  0
  -20.5410  -28.4530   23.2460 C   0  0  0  0  0  3  0  0  0  0  0  0
  -20.6360  -27.0180   22.6770 C   0  0  0  0  0  2  0  0  0  0  0  0
  -19.5310  -26.6950   21.6670 C   0  0  0  0  0  2  0  0  0  0  0  0
  -18.1510  -26.8530   22.3090 C   0  0  0  0  0  2  0  0  0  0  0  0
  -19.1050  -28.9660   23.4000 C   0  0  0  0  0  0  0  0  0  0  0  0
  -18.8940  -30.2350   23.9810 C   0  0  0  0  0  3  0  0  0  0  0  0
  -17.5930  -30.7470   24.1430 C   0  0  0  0  0  3  0  0  0  0  0  0
  -16.4840  -29.9850   23.7360 C   0  0  0  0  0  3  0  0  0  0  0  0
  -16.6800  -28.7180   23.1580 C   0  0  0  0  0  3  0  0  0  0  0  0
  -25.8620  -32.5870   23.8590 C   0  0  0  0  0  3  0  0  0  0  0  0
  -26.3870  -31.8090   25.1270 C   0  0  1  0  0  0  0  0  0  0  0  0
  -25.3050  -31.5760   26.2060 C   0  0  0  0  0  1  0  0  0  0  0  0
  -26.9560  -30.4280   24.7220 C   0  0  0  0  0  1  0  0  0  0  0  0
  -27.5520  -32.5930   25.7770 C   0  0  0  0  0  1  0  0  0  0  0  0
  -25.5650  -33.9860   24.1900 N   0  0  0  0  0  0  0  0  0  0  0  0
  -25.9040  -35.0350   23.4290 C   0  0  0  0  0  0  0  0  0  0  0  0
  -26.5710  -34.9270   22.3960 O   0  0  0  0  0  0  0  0  0  0  0  0
  -24.9740  -34.1460   24.9930 H   0  0  0  0  0  0  0  0  0  0  0  0
  -24.1870  -36.8380   23.0800 C   0  0  0  0  0  1  0  0  0  0  0  0
  -25.4280  -36.4270   23.8870 C   0  0  0  0  0  3  0  0  0  0  0  0
  -27.5760  -37.2930   24.7040 C   0  0  0  0  0  1  0  0  0  0  0  0
  -26.4680  -37.4720   23.7690 N   0  0  0  0  0  0  0  0  0  0  0  0
  -26.0690  -38.3950   23.9230 H   0  0  0  0  0  0  0  0  0  0  0  0
  2  3  1  0
  2  1  1  0
  4  3  1  0
  4  5  1  0
  5  6  1  0
  6  7  1  0
  7  8  1  0
  9  8  1  0
 10  9  1  0
 11 16  1  0
 12 13  1  0
 12 11  1  0
 14 13  1  0
 14 21  1  0
 14 15  1  0
 16 10  1  0
 16 15  1  0
 17 10  2  0
 18 19  2  0
 19 20  1  0
 19 38  1  0
 20 23  1  0
 21 18  1  0
 21 22  1  0
 22 20  2  0
 23 24  1  0
 24 25  2  0
 26 29  1  0
 26 25  1  0
 27 26  2  0
 28 27  1  0
 28 23  2  0
 29 30  1  0
 30 31  1  0
 31 32  2  0
 33 32  1  0
 33 37  1  0
 34 33  2  0
 35 30  2  0
 35 34  1  0
 36 35  1  0
 38 39  1  0
 39 42  1  0
 39 41  1  0
 40 38  2  0
 43 44  1  0
 43 18  1  0
 45 43  1  0
 46  1  1  0
 46 47  1  0
 47 48  1  0
 48 49  1  0
 50 52  1  0
 50 49  1  0
 51 62  2  0
 52 57  1  0
 53 61  1  0
 53 63  1  0
 54 60  1  0
 54 56  1  0
 55 61  1  0
 56 55  1  0
 57 56  2  0
 58 59  1  0
 58 52  2  0
 59 54  2  0
 60 53  1  0
 61 51  1  0
 63 65  2  0
 64 63  1  0
 66 64  1  0
 67 76  2  0
 67 72  1  0
 68 64  1  0
 68 72  1  0
 69 68  1  0
 70 71  1  0
 70 69  1  0
 71 67  1  0
 72 73  2  0
 73 74  1  0
 75 74  2  0
 76 75  1  0
 77 51  1  0
 77 82  1  0
 77 78  1  0
 78 81  1  1
 78 79  1  0
 80 78  1  0
 82 85  1  0
 83 87  1  0
 83 82  1  0
 84 83  2  0
 87 86  1  0
 89 87  1  0
 89 90  1  0
 89 88  1  0
M  ISO  4   9 100  10 100  49 101  50 101
M  END
>  <TORSDO>  (56) 
F 28

>  <SCORE>  (56) 
-11.467

>  <name>  (56) 
57

>  <ligand_id>  (56) 
57

>  <original_smiles>  (56) 
[H]c1c([H])c([H])c2c(c1[H])C([H])([H])C([H])([H])C([H])([H])C2([H])N([H])C(=O)C1([H])N(C(=O)C([H])(N([H])C(=O)C([H])(N([H])C([H])([H])[H])C([H])([H])[H])C(C([H])([H])[H])(C([H])([H])[H])C([H])([H])[H])C([H])([H])c2c([H])c(OC([H])([H])C([H])([H])OC([H])([H])C([H])([H])C([H])([H])OC([H])([H])C([H])([H])OC([H])([H])C([H])([H])OC(=O)N3C([H])([H])C([H])([H])C([H])([H])C([H])(n4nc(-c5c([H])c([H])c(Oc6c([H])c([H])c(F)c([H])c6F)c([H])c5[H])c(C(=O)N([H])[H])c4N([H])[H])C3([H])[H])c([H])c([H])c2C1([H])[H]

>  <smiles>  (56) 
[H]c1c([H])c([H])c2c(c1[H])C([H])([H])C([H])([H])C([H])([H])C2([H])N([H])C(=O)C1([H])N(C(=O)C([H])(N([H])C(=O)C([H])(N([H])C([H])([H])[H])C([H])([H])[H])C(C([H])([H])[H])(C([H])([H])[H])C([H])([H])[H])C([H])([H])c2c([H])c(OC([H])([H])C([H])([H])OC([H])([H])C([H])([H])C([H])([H])OC([H])([H])C([H])([H])OC([H])([H])C([H])([H])OC(=O)N3C([H])([H])C([H])([H])C([H])([H])C([H])(n4nc(-c5c([H])c([H])c(Oc6c([H])c([H])c(F)c([H])c6F)c([H])c5[H])c(C(=O)N([H])[H])c4N([H])[H])C3([H])[H])c([H])c([H])c2C1([H])[H]

$$$$
59:0:0
     RDKit          3D

 94102  0  0  1  0  0  0  0  0999 V2000
  -25.0440  -20.3960   19.3780 C   0  0  0  0  0  2  0  0  0  0  0  0
  -26.0840  -19.4150   19.9310 C   0  0  0  0  0  2  0  0  0  0  0  0
  -27.0260  -19.0610   18.9170 O   0  0  0  0  0  0  0  0  0  0  0  0
  -30.0970  -17.0510   18.6750 C   0  0  0  0  0  3  0  0  0  0  0  0
  -28.9790  -17.8160   18.2980 C   0  0  0  0  0  3  0  0  0  0  0  0
  -29.4560  -17.4350   20.9750 C   0  0  0  0  0  3  0  0  0  0  0  0
  -30.3260  -16.8250   20.0540 C   0  0  0  0  0  0  0  0  0  0  0  0
  -28.1460  -18.3520   19.2940 C   0  0  0  0  0  0  0  0  0  0  0  0
  -28.3900  -18.1760   20.6100 N   0  0  0  0  0  0  0  0  0  0  0  0
  -32.0130  -15.0490   19.9030 C   0  0  0  0  0  0  0  0  0  0  0  0
  -31.7910  -12.7320   19.0760 C   0  0  0  0  0  2  0  0  0  0  0  0
  -30.8230  -12.6480   17.8820 C   0  0  0  0  0  2  0  0  0  0  0  0
  -29.3680  -12.4930   18.3630 C   0  0  0  0  0  2  0  0  0  0  0  0
  -28.9910  -13.5210   19.4590 C   0  0  0  0  0  3  0  0  0  0  0  0
  -30.0670  -13.5770   20.5650 C   0  0  0  0  0  2  0  0  0  0  0  0
  -31.3630  -13.8550   19.9220 N   0  0  0  0  0  0  0  0  0  0  0  0
  -33.0730  -15.2380   19.3050 O   0  0  0  0  0  0  0  0  0  0  0  0
  -31.4200  -16.0630   20.5500 N   0  0  0  0  0  0  0  0  0  0  0  0
  -32.0530  -16.6020   21.1230 H   0  0  0  0  0  0  0  0  0  0  0  0
  -26.6840  -14.1670   20.3920 C   0  0  0  0  0  0  0  0  0  0  0  0
  -25.6000  -13.4170   20.7520 C   0  0  0  0  0  0  0  0  0  0  0  0
  -25.9830  -12.0550   20.5540 C   0  0  0  0  0  0  0  0  0  0  0  0
  -27.6630  -13.2670   20.0050 N   0  0  0  0  0  0  0  0  0  0  0  0
  -27.2460  -11.9840   20.1540 N   0  0  0  0  0  0  0  0  0  0  0  0
  -25.2020  -10.8170   20.6620 C   0  0  0  0  0  0  0  0  0  0  0  0
  -25.4390   -9.8830   21.6950 C   0  0  0  0  0  3  0  0  0  0  0  0
  -24.6630   -8.7080   21.7890 C   0  0  0  0  0  3  0  0  0  0  0  0
  -23.6370   -8.4600   20.8470 C   0  0  0  0  0  0  0  0  0  0  0  0
  -23.4210   -9.3810   19.8080 C   0  0  0  0  0  3  0  0  0  0  0  0
  -24.1970  -10.5470   19.7120 C   0  0  0  0  0  3  0  0  0  0  0  0
  -22.8510   -7.3320   20.8440 O   0  0  0  0  0  0  0  0  0  0  0  0
  -22.3530   -6.8010   22.0060 C   0  0  0  0  0  0  0  0  0  0  0  0
  -21.4950   -7.5350   22.8530 C   0  0  0  0  0  3  0  0  0  0  0  0
  -20.9500   -6.9280   24.0020 C   0  0  0  0  0  3  0  0  0  0  0  0
  -21.2510   -5.5850   24.2990 C   0  0  0  0  0  0  0  0  0  0  0  0
  -22.1010   -4.8500   23.4530 C   0  0  0  0  0  3  0  0  0  0  0  0
  -22.6470   -5.4570   22.3090 C   0  0  0  0  0  0  0  0  0  0  0  0
  -23.4490   -4.7370   21.4860 F   0  0  0  0  0  0  0  0  0  0  0  0
  -20.7220   -4.9970   25.3980 F   0  0  0  0  0  0  0  0  0  0  0  0
  -24.2530  -13.9340   21.1650 C   0  0  0  0  0  0  0  0  0  0  0  0
  -23.5530  -13.1990   22.0210 N   0  0  0  0  0  0  0  0  0  0  0  0
  -23.8330  -15.0210   20.7700 O   0  0  0  0  0  0  0  0  0  0  0  0
  -23.9040  -12.3160   22.3640 H   0  0  0  0  0  0  0  0  0  0  0  0
  -22.6520  -13.5280   22.3430 H   0  0  0  0  0  0  0  0  0  0  0  0
  -26.9130  -15.5370   20.3390 N   0  0  0  0  0  0  0  0  0  0  0  0
  -26.2040  -16.2180   20.5820 H   0  0  0  0  0  0  0  0  0  0  0  0
  -27.7760  -15.9540   20.0160 H   0  0  0  0  0  0  0  0  0  0  0  0
  -25.7470  -21.5170   18.8550 O   0  0  0  0  0  0  0  0  0  0  0  0
  -24.9860  -22.7170   18.7610 C   0  0  0  0  0  2  0  0  0  0  0  0
  -25.7330  -23.7710   19.5860 C   0  0  0  0  0  2  0  0  0  0  0  0
  -26.9310  -24.1220   18.9010 O   0  0  0  0  0  0  0  0  0  0  0  0
  -27.9350  -24.6590   19.7580 C   0  0  0  0  0  2  0  0  0  0  0  0
  -28.8230  -25.6510   18.9740 C   0  0  0  0  0  2  0  0  0  0  0  0
  -28.7200  -26.9910   19.4640 O   0  0  0  0  0  0  0  0  0  0  0  0
  -24.6270  -31.5630   23.0230 C   0  0  0  0  0  0  0  0  0  0  0  0
  -27.4870  -27.6020   19.5140 C   0  0  0  0  0  0  0  0  0  0  0  0
  -23.4760  -30.2280   21.2840 C   0  0  0  0  0  3  0  0  0  0  0  0
  -24.9930  -28.9170   19.7150 C   0  0  0  0  0  0  0  0  0  0  0  0
  -25.9690  -30.7680   21.0820 C   0  0  0  0  0  2  0  0  0  0  0  0
  -26.1260  -29.4680   20.3240 C   0  0  0  0  0  0  0  0  0  0  0  0
  -27.3730  -28.8160   20.2250 C   0  0  0  0  0  3  0  0  0  0  0  0
  -26.3350  -27.0690   18.8880 C   0  0  0  0  0  3  0  0  0  0  0  0
  -25.0900  -27.7100   19.0030 C   0  0  0  0  0  3  0  0  0  0  0  0
  -23.6970  -29.6780   19.8520 C   0  0  0  0  0  2  0  0  0  0  0  0
  -24.7070  -30.8640   21.8550 N   0  0  0  0  0  0  0  0  0  0  0  0
  -23.5410  -31.7160   23.6030 O   0  0  0  0  0  0  0  0  0  0  0  0
  -22.9130  -29.0860   22.1640 C   0  0  0  0  0  0  0  0  0  0  0  0
  -21.5930  -28.8580   22.0690 N   0  0  0  0  0  0  0  0  0  0  0  0
  -23.6590  -28.4160   22.8830 O   0  0  0  0  0  0  0  0  0  0  0  0
  -21.0500  -29.4730   21.4790 H   0  0  0  0  0  0  0  0  0  0  0  0
  -18.2930  -27.4930   22.6100 C   0  0  0  0  0  0  0  0  0  0  0  0
  -20.8540  -27.8060   22.7640 C   0  0  0  0  0  3  0  0  0  0  0  0
  -20.9620  -26.4580   22.0140 C   0  0  0  0  0  2  0  0  0  0  0  0
  -19.8090  -26.2220   21.0320 C   0  0  0  0  0  2  0  0  0  0  0  0
  -18.4670  -26.2360   21.7700 C   0  0  0  0  0  2  0  0  0  0  0  0
  -19.4140  -28.2400   23.0580 C   0  0  0  0  0  0  0  0  0  0  0  0
  -19.1980  -29.4220   23.7980 C   0  0  0  0  0  3  0  0  0  0  0  0
  -17.8930  -29.8610   24.0870 C   0  0  0  0  0  3  0  0  0  0  0  0
  -16.7870  -29.1090   23.6550 C   0  0  0  0  0  3  0  0  0  0  0  0
  -16.9880  -27.9270   22.9210 C   0  0  0  0  0  3  0  0  0  0  0  0
  -25.8840  -32.2200   23.6710 C   0  0  0  0  0  3  0  0  0  0  0  0
  -26.3470  -31.5040   24.9980 C   0  0  1  0  0  0  0  0  0  0  0  0
  -25.2130  -31.3170   26.0350 C   0  0  0  0  0  1  0  0  0  0  0  0
  -26.9360  -30.1090   24.6890 C   0  0  0  0  0  1  0  0  0  0  0  0
  -27.4710  -32.3260   25.6720 C   0  0  0  0  0  1  0  0  0  0  0  0
  -25.5620  -33.6290   23.9210 N   0  0  0  0  0  0  0  0  0  0  0  0
  -25.9320  -34.6470   23.1320 C   0  0  0  0  0  0  0  0  0  0  0  0
  -26.6530  -34.4980   22.1420 O   0  0  0  0  0  0  0  0  0  0  0  0
  -24.9270  -33.8160   24.6840 H   0  0  0  0  0  0  0  0  0  0  0  0
  -24.2500  -36.4350   22.5830 C   0  0  0  0  0  1  0  0  0  0  0  0
  -25.4210  -36.0520   23.5020 C   0  0  0  0  0  3  0  0  0  0  0  0
  -27.4850  -36.9620   24.4690 C   0  0  0  0  0  1  0  0  0  0  0  0
  -26.4660  -37.0960   23.4320 N   0  0  0  0  0  0  0  0  0  0  0  0
  -26.0550  -38.0230   23.5110 H   0  0  0  0  0  0  0  0  0  0  0  0
  1  2  1  0
  3  8  1  0
  3  2  1  0
  4  7  1  0
  5  4  2  0
  5  8  1  0
  7 18  1  0
  7  6  2  0
  8  9  2  0
  9  6  1  0
 10 16  1  0
 10 18  1  0
 11 16  1  0
 12 13  1  0
 12 11  1  0
 14 13  1  0
 14 23  1  0
 14 15  1  0
 16 15  1  0
 17 10  2  0
 18 19  1  0
 20 21  2  0
 21 40  1  0
 22 25  1  0
 22 21  1  0
 23 24  1  0
 23 20  1  0
 24 22  2  0
 25 26  1  0
 26 27  2  0
 28 27  1  0
 29 28  2  0
 30 29  1  0
 30 25  2  0
 31 28  1  0
 31 32  1  0
 32 37  2  0
 32 33  1  0
 33 34  2  0
 34 35  1  0
 35 39  1  0
 36 35  2  0
 37 36  1  0
 38 37  1  0
 40 41  1  0
 41 44  1  0
 41 43  1  0
 42 40  2  0
 45 20  1  0
 45 46  1  0
 47 45  1  0
 48  1  1  0
 49 48  1  0
 49 50  1  0
 51 50  1  0
 51 52  1  0
 53 54  1  0
 53 52  1  0
 54 56  1  0
 55 66  2  0
 56 61  1  0
 57 65  1  0
 57 67  1  0
 58 64  1  0
 58 60  1  0
 59 65  1  0
 60 59  1  0
 61 60  2  0
 62 63  1  0
 62 56  2  0
 63 58  2  0
 64 57  1  0
 65 55  1  0
 67 69  2  0
 68 67  1  0
 70 68  1  0
 71 80  2  0
 71 76  1  0
 72 68  1  0
 72 76  1  0
 73 72  1  0
 74 75  1  0
 74 73  1  0
 75 71  1  0
 76 77  2  0
 77 78  1  0
 79 78  2  0
 80 79  1  0
 81 55  1  0
 81 86  1  0
 81 82  1  0
 82 85  1  1
 82 83  1  0
 84 82  1  0
 86 89  1  0
 87 91  1  0
 87 86  1  0
 88 87  2  0
 91 90  1  0
 93 91  1  0
 93 94  1  0
 93 92  1  0
M  ISO  4  10 100  18 100  53 101  54 101
M  END
>  <TORSDO>  (57) 
F 25

>  <SCORE>  (57) 
-6.442

>  <name>  (57) 
59

>  <ligand_id>  (57) 
59

>  <original_smiles>  (57) 
[H]c1nc(OC([H])([H])C([H])([H])OC([H])([H])C([H])([H])OC([H])([H])C([H])([H])Oc2c([H])c([H])c3c(c2[H])C([H])([H])N(C(=O)C([H])(N([H])C(=O)C([H])(N([H])C([H])([H])[H])C([H])([H])[H])C(C([H])([H])[H])(C([H])([H])[H])C([H])([H])[H])C([H])(C(=O)N([H])C2([H])c4c([H])c([H])c([H])c([H])c4C([H])([H])C([H])([H])C2([H])[H])C3([H])[H])c([H])c([H])c1N([H])C(=O)N1C([H])([H])C([H])([H])C([H])([H])C([H])(n2nc(-c3c([H])c([H])c(Oc4c([H])c([H])c(F)c([H])c4F)c([H])c3[H])c(C(=O)N([H])[H])c2N([H])[H])C1([H])[H]

>  <smiles>  (57) 
[H]c1nc(OC([H])([H])C([H])([H])OC([H])([H])C([H])([H])OC([H])([H])C([H])([H])Oc2c([H])c([H])c3c(c2[H])C([H])([H])N(C(=O)C([H])(N([H])C(=O)C([H])(N([H])C([H])([H])[H])C([H])([H])[H])C(C([H])([H])[H])(C([H])([H])[H])C([H])([H])[H])C([H])(C(=O)N([H])C2([H])c4c([H])c([H])c([H])c([H])c4C([H])([H])C([H])([H])C2([H])[H])C3([H])[H])c([H])c([H])c1N([H])C(=O)N1C([H])([H])C([H])([H])C([H])([H])C([H])(n2nc(-c3c([H])c([H])c(Oc4c([H])c([H])c(F)c([H])c4F)c([H])c3[H])c(C(=O)N([H])[H])c2N([H])[H])C1([H])[H]

$$$$
60:0:0
     RDKit          3D

 91 99  0  0  1  0  0  0  0  0999 V2000
  -30.1490  -22.0340   20.6770 C   0  0  0  0  0  3  0  0  0  0  0  0
  -30.4600  -20.7440   21.1480 C   0  0  0  0  0  3  0  0  0  0  0  0
  -28.1430  -21.1560   19.6250 C   0  0  0  0  0  3  0  0  0  0  0  0
  -28.4480  -19.8590   20.0960 C   0  0  0  0  0  0  0  0  0  0  0  0
  -28.9790  -22.2550   19.9090 C   0  0  0  0  0  0  0  0  0  0  0  0
  -29.6230  -19.6510   20.8590 C   0  0  0  0  0  0  0  0  0  0  0  0
  -27.4900  -18.7180   19.7960 C   0  0  0  0  0  1  0  0  0  0  0  0
  -28.5930  -23.4900   19.4250 O   0  0  0  0  0  0  0  0  0  0  0  0
  -29.5540  -24.5430   19.4370 C   0  0  0  0  0  2  0  0  0  0  0  0
  -28.9520  -25.8470   18.8890 C   0  0  0  0  0  2  0  0  0  0  0  0
  -28.5730  -26.7020   19.9710 O   0  0  0  0  0  0  0  0  0  0  0  0
  -24.5870  -31.6570   23.1190 C   0  0  0  0  0  0  0  0  0  0  0  0
  -27.3590  -27.3520   19.9550 C   0  0  0  0  0  0  0  0  0  0  0  0
  -23.4250  -30.2660   21.4350 C   0  0  0  0  0  3  0  0  0  0  0  0
  -24.9230  -28.7890   19.9940 C   0  0  0  0  0  0  0  0  0  0  0  0
  -25.9430  -30.6810   21.2710 C   0  0  0  0  0  2  0  0  0  0  0  0
  -26.0610  -29.3260   20.6040 C   0  0  0  0  0  0  0  0  0  0  0  0
  -27.2760  -28.6100   20.5900 C   0  0  0  0  0  3  0  0  0  0  0  0
  -26.1920  -26.8090   19.3670 C   0  0  0  0  0  3  0  0  0  0  0  0
  -24.9800  -27.5260   19.3790 C   0  0  0  0  0  3  0  0  0  0  0  0
  -23.6610  -29.6190   20.0430 C   0  0  0  0  0  2  0  0  0  0  0  0
  -24.6690  -30.8820   22.0000 N   0  0  0  0  0  0  0  0  0  0  0  0
  -23.4950  -31.8970   23.6520 O   0  0  0  0  0  0  0  0  0  0  0  0
  -22.7880  -29.2110   22.3670 C   0  0  0  0  0  0  0  0  0  0  0  0
  -21.4650  -29.0170   22.2310 N   0  0  0  0  0  0  0  0  0  0  0  0
  -23.4770  -28.5710   23.1640 O   0  0  0  0  0  0  0  0  0  0  0  0
  -20.9710  -29.5880   21.5590 H   0  0  0  0  0  0  0  0  0  0  0  0
  -18.1000  -27.7910   22.7000 C   0  0  0  0  0  0  0  0  0  0  0  0
  -20.6570  -28.0510   22.9730 C   0  0  0  0  0  3  0  0  0  0  0  0
  -20.7650  -26.6400   22.3490 C   0  0  0  0  0  2  0  0  0  0  0  0
  -19.6600  -26.3460   21.3280 C   0  0  0  0  0  2  0  0  0  0  0  0
  -18.2800  -26.4650   21.9800 C   0  0  0  0  0  2  0  0  0  0  0  0
  -19.2160  -28.5440   23.1520 C   0  0  0  0  0  0  0  0  0  0  0  0
  -18.9960  -29.7870   23.7820 C   0  0  0  0  0  3  0  0  0  0  0  0
  -17.6890  -30.2780   23.9670 C   0  0  0  0  0  3  0  0  0  0  0  0
  -16.5870  -29.5210   23.5340 C   0  0  0  0  0  3  0  0  0  0  0  0
  -16.7920  -28.2800   22.9060 C   0  0  0  0  0  3  0  0  0  0  0  0
  -25.8540  -32.2980   23.7640 C   0  0  0  0  0  3  0  0  0  0  0  0
  -25.5180  -33.6840   24.1150 N   0  0  0  0  0  0  0  0  0  0  0  0
  -25.8470  -34.7560   23.3800 C   0  0  0  0  0  0  0  0  0  0  0  0
  -26.5380  -34.6820   22.3610 O   0  0  0  0  0  0  0  0  0  0  0  0
  -24.9070  -33.8160   24.9080 H   0  0  0  0  0  0  0  0  0  0  0  0
  -24.0930  -36.5220   23.0230 C   0  0  0  0  0  1  0  0  0  0  0  0
  -25.3250  -36.1260   23.8520 C   0  0  0  0  0  3  0  0  0  0  0  0
  -27.4330  -37.0260   24.7330 C   0  0  0  0  0  1  0  0  0  0  0  0
  -26.3400  -37.2010   23.7810 N   0  0  0  0  0  0  0  0  0  0  0  0
  -25.9140  -38.1080   23.9530 H   0  0  0  0  0  0  0  0  0  0  0  0
  -26.3730  -31.5130   25.0310 C   0  0  1  0  0  0  0  0  0  0  0  0
  -25.2730  -31.2320   26.0810 C   0  0  0  0  0  1  0  0  0  0  0  0
  -26.9870  -30.1550   24.6160 C   0  0  0  0  0  1  0  0  0  0  0  0
  -27.5000  -32.3160   25.7230 C   0  0  0  0  0  1  0  0  0  0  0  0
  -29.9540  -18.4300   21.3880 O   0  0  0  0  0  0  0  0  0  0  0  0
  -30.2260  -17.4030   20.4400 C   0  0  0  0  0  2  0  0  0  0  0  0
  -31.2130  -16.4040   21.0680 C   0  0  0  0  0  2  0  0  0  0  0  0
  -30.7300  -15.0750   20.9200 O   0  0  0  0  0  0  0  0  0  0  0  0
  -31.2930  -14.2120   20.0550 C   0  0  0  0  0  0  0  0  0  0  0  0
  -30.8290  -12.0290   18.9480 C   0  0  0  0  0  2  0  0  0  0  0  0
  -29.8590  -12.2330   17.7700 C   0  0  0  0  0  2  0  0  0  0  0  0
  -28.3950  -12.1850   18.2490 C   0  0  0  0  0  2  0  0  0  0  0  0
  -28.1360  -13.1060   19.4720 C   0  0  0  0  0  3  0  0  0  0  0  0
  -29.1970  -12.8680   20.5670 C   0  0  0  0  0  2  0  0  0  0  0  0
  -30.5250  -13.0460   19.9560 N   0  0  0  0  0  0  0  0  0  0  0  0
  -32.3280  -14.4430   19.4220 O   0  0  0  0  0  0  0  0  0  0  0  0
  -25.8070  -13.8840   20.2520 C   0  0  0  0  0  0  0  0  0  0  0  0
  -24.7010  -13.1890   20.6610 C   0  0  0  0  0  0  0  0  0  0  0  0
  -25.0650  -11.8090   20.6210 C   0  0  0  0  0  0  0  0  0  0  0  0
  -26.7800  -12.9320   19.9930 N   0  0  0  0  0  0  0  0  0  0  0  0
  -26.3370  -11.6780   20.2670 N   0  0  0  0  0  0  0  0  0  0  0  0
  -24.2610  -10.6000   20.8440 C   0  0  0  0  0  0  0  0  0  0  0  0
  -24.6400   -9.6260   21.7940 C   0  0  0  0  0  3  0  0  0  0  0  0
  -23.8420   -8.4800   22.0020 C   0  0  0  0  0  3  0  0  0  0  0  0
  -22.6490   -8.3030   21.2610 C   0  0  0  0  0  0  0  0  0  0  0  0
  -22.2890   -9.2640   20.3010 C   0  0  0  0  0  3  0  0  0  0  0  0
  -23.0880  -10.4010   20.0910 C   0  0  0  0  0  3  0  0  0  0  0  0
  -21.8250   -7.2110   21.3780 O   0  0  0  0  0  0  0  0  0  0  0  0
  -21.7150   -6.5150   22.5550 C   0  0  0  0  0  0  0  0  0  0  0  0
  -21.3160   -7.1400   23.7560 C   0  0  0  0  0  3  0  0  0  0  0  0
  -21.1510   -6.3740   24.9270 C   0  0  0  0  0  3  0  0  0  0  0  0
  -21.3720   -4.9840   24.8960 C   0  0  0  0  0  0  0  0  0  0  0  0
  -21.7620   -4.3590   23.6990 C   0  0  0  0  0  3  0  0  0  0  0  0
  -21.9300   -5.1220   22.5310 C   0  0  0  0  0  0  0  0  0  0  0  0
  -22.2870   -4.5120   21.3750 F   0  0  0  0  0  0  0  0  0  0  0  0
  -21.2030   -4.2460   26.0180 F   0  0  0  0  0  0  0  0  0  0  0  0
  -23.3510  -13.7630   20.9810 C   0  0  0  0  0  0  0  0  0  0  0  0
  -22.6150  -13.1300   21.8870 N   0  0  0  0  0  0  0  0  0  0  0  0
  -22.9590  -14.8090   20.4610 O   0  0  0  0  0  0  0  0  0  0  0  0
  -22.9450  -12.2830   22.3260 H   0  0  0  0  0  0  0  0  0  0  0  0
  -21.7090  -13.4950   22.1450 H   0  0  0  0  0  0  0  0  0  0  0  0
  -26.0620  -15.2390   20.0590 N   0  0  0  0  0  0  0  0  0  0  0  0
  -25.3440  -15.9470   20.1770 H   0  0  0  0  0  0  0  0  0  0  0  0
  -26.9310  -15.6080   19.6970 H   0  0  0  0  0  0  0  0  0  0  0  0
  1  2  1  0
  3  5  1  0
  3  4  2  0
  4  6  1  0
  5  1  2  0
  6  2  2  0
  6 52  1  0
  7  4  1  0
  8  9  1  0
  8  5  1  0
 10  9  1  0
 10 11  1  0
 12 23  2  0
 13 11  1  0
 13 18  1  0
 14 22  1  0
 14 24  1  0
 15 21  1  0
 15 17  1  0
 16 22  1  0
 17 16  1  0
 18 17  2  0
 19 20  1  0
 19 13  2  0
 20 15  2  0
 21 14  1  0
 22 12  1  0
 24 26  2  0
 25 24  1  0
 27 25  1  0
 28 37  2  0
 28 33  1  0
 29 25  1  0
 29 33  1  0
 30 29  1  0
 31 32  1  0
 31 30  1  0
 32 28  1  0
 33 34  2  0
 34 35  1  0
 36 35  2  0
 37 36  1  0
 38 12  1  0
 38 39  1  0
 38 48  1  0
 39 42  1  0
 40 44  1  0
 40 39  1  0
 41 40  2  0
 44 43  1  0
 46 44  1  0
 46 47  1  0
 46 45  1  0
 48 51  1  1
 48 49  1  0
 50 48  1  0
 53 54  1  0
 53 52  1  0
 55 54  1  0
 56 55  1  0
 57 62  1  0
 58 59  1  0
 58 57  1  0
 60 59  1  0
 60 67  1  0
 60 61  1  0
 62 56  1  0
 62 61  1  0
 63 56  2  0
 64 65  2  0
 65 84  1  0
 66 65  1  0
 66 69  1  0
 67 64  1  0
 67 68  1  0
 68 66  2  0
 69 70  1  0
 70 71  2  0
 72 75  1  0
 72 71  1  0
 73 72  2  0
 74 73  1  0
 74 69  2  0
 75 76  1  0
 76 77  1  0
 77 78  2  0
 79 78  1  0
 79 83  1  0
 80 79  2  0
 81 76  2  0
 81 80  1  0
 82 81  1  0
 84 85  1  0
 85 88  1  0
 85 87  1  0
 86 84  2  0
 89 90  1  0
 89 64  1  0
 91 89  1  0
M  ISO  4  10 101  11 101  55 100  56 100
M  END
>  <TORSDO>  (58) 
F 23

>  <SCORE>  (58) 
-12.466

>  <name>  (58) 
60

>  <ligand_id>  (58) 
60

>  <original_smiles>  (58) 
[H]c1c([H])c([H])c2c(c1[H])C([H])([H])C([H])([H])C([H])([H])C2([H])N([H])C(=O)C1([H])N(C(=O)C([H])(N([H])C(=O)C([H])(N([H])C([H])([H])[H])C([H])([H])[H])C(C([H])([H])[H])(C([H])([H])[H])C([H])([H])[H])C([H])([H])c2c([H])c(OC([H])([H])C([H])([H])Oc3c([H])c([H])c(OC([H])([H])C([H])([H])OC(=O)N4C([H])([H])C([H])([H])C([H])([H])C([H])(n5nc(-c6c([H])c([H])c(Oc7c([H])c([H])c(F)c([H])c7F)c([H])c6[H])c(C(=O)N([H])[H])c5N([H])[H])C4([H])[H])c(C([H])([H])[H])c3[H])c([H])c([H])c2C1([H])[H]

>  <smiles>  (58) 
[H]c1c([H])c([H])c2c(c1[H])C([H])([H])C([H])([H])C([H])([H])C2([H])N([H])C(=O)C1([H])N(C(=O)C([H])(N([H])C(=O)C([H])(N([H])C([H])([H])[H])C([H])([H])[H])C(C([H])([H])[H])(C([H])([H])[H])C([H])([H])[H])C([H])([H])c2c([H])c(OC([H])([H])C([H])([H])Oc3c([H])c([H])c(OC([H])([H])C([H])([H])OC(=O)N4C([H])([H])C([H])([H])C([H])([H])C([H])(n5nc(-c6c([H])c([H])c(Oc7c([H])c([H])c(F)c([H])c7F)c([H])c6[H])c(C(=O)N([H])[H])c5N([H])[H])C4([H])[H])c(C([H])([H])[H])c3[H])c([H])c([H])c2C1([H])[H]

$$$$
61:0:0
     RDKit          3D

 96103  0  0  1  0  0  0  0  0999 V2000
  -25.2230  -20.9910   19.5700 C   0  0  0  0  0  2  0  0  0  0  0  0
  -25.5580  -22.3680   18.9610 C   0  0  0  0  0  2  0  0  0  0  0  0
  -25.4380  -22.4420   17.4250 C   0  0  0  0  0  2  0  0  0  0  0  0
  -25.7950  -23.8340   16.8750 C   0  0  0  0  0  2  0  0  0  0  0  0
  -27.1570  -24.0700   17.1900 O   0  0  0  0  0  0  0  0  0  0  0  0
  -27.6430  -25.3640   16.8570 C   0  0  0  0  0  2  0  0  0  0  0  0
  -28.8550  -25.6100   17.7690 C   0  0  0  0  0  2  0  0  0  0  0  0
  -28.5510  -25.5330   19.2850 C   0  0  0  0  0  2  0  0  0  0  0  0
  -28.4550  -26.8180   19.9130 O   0  0  0  0  0  0  0  0  0  0  0  0
  -24.5630  -31.7000   23.3330 C   0  0  0  0  0  0  0  0  0  0  0  0
  -27.2380  -27.4680   19.9780 C   0  0  0  0  0  0  0  0  0  0  0  0
  -23.3490  -30.3350   21.6630 C   0  0  0  0  0  3  0  0  0  0  0  0
  -24.8030  -28.8940   20.1470 C   0  0  0  0  0  0  0  0  0  0  0  0
  -25.8620  -30.7650   21.4230 C   0  0  0  0  0  2  0  0  0  0  0  0
  -25.9650  -29.4260   20.7220 C   0  0  0  0  0  0  0  0  0  0  0  0
  -27.1810  -28.7140   20.6440 C   0  0  0  0  0  3  0  0  0  0  0  0
  -26.0490  -26.9410   19.4270 C   0  0  0  0  0  3  0  0  0  0  0  0
  -24.8360  -27.6470   19.5070 C   0  0  0  0  0  3  0  0  0  0  0  0
  -23.5430  -29.7210   20.2530 C   0  0  0  0  0  2  0  0  0  0  0  0
  -24.6110  -30.9450   22.1980 N   0  0  0  0  0  0  0  0  0  0  0  0
  -23.4910  -31.9180   23.9100 O   0  0  0  0  0  0  0  0  0  0  0  0
  -22.7550  -29.2570   22.5970 C   0  0  0  0  0  0  0  0  0  0  0  0
  -21.4560  -28.9640   22.4230 N   0  0  0  0  0  0  0  0  0  0  0  0
  -23.4600  -28.6880   23.4340 O   0  0  0  0  0  0  0  0  0  0  0  0
  -20.9410  -29.4840   21.7270 H   0  0  0  0  0  0  0  0  0  0  0  0
  -18.2200  -27.3850   22.7150 C   0  0  0  0  0  0  0  0  0  0  0  0
  -20.7000  -27.9520   23.1620 C   0  0  0  0  0  3  0  0  0  0  0  0
  -21.0130  -26.5310   22.6390 C   0  0  0  0  0  2  0  0  0  0  0  0
  -20.0330  -26.0530   21.5600 C   0  0  0  0  0  2  0  0  0  0  0  0
  -18.6030  -26.0460   22.1060 C   0  0  0  0  0  2  0  0  0  0  0  0
  -19.2050  -28.2850   23.2000 C   0  0  0  0  0  0  0  0  0  0  0  0
  -18.8000  -29.5300   23.7260 C   0  0  0  0  0  3  0  0  0  0  0  0
  -17.4380  -29.8820   23.7730 C   0  0  0  0  0  3  0  0  0  0  0  0
  -16.4640  -28.9810   23.3060 C   0  0  0  0  0  3  0  0  0  0  0  0
  -16.8550  -27.7350   22.7840 C   0  0  0  0  0  3  0  0  0  0  0  0
  -25.8490  -32.3410   23.9410 C   0  0  0  0  0  3  0  0  0  0  0  0
  -25.5480  -33.7490   24.2210 N   0  0  0  0  0  0  0  0  0  0  0  0
  -25.8910  -34.7740   23.4250 C   0  0  0  0  0  0  0  0  0  0  0  0
  -26.5690  -34.6320   22.4040 O   0  0  0  0  0  0  0  0  0  0  0  0
  -24.9510  -33.9370   25.0120 H   0  0  0  0  0  0  0  0  0  0  0  0
  -24.1810  -36.5690   22.9840 C   0  0  0  0  0  1  0  0  0  0  0  0
  -25.4030  -36.1790   23.8320 C   0  0  0  0  0  3  0  0  0  0  0  0
  -27.5230  -37.0820   24.6760 C   0  0  0  0  0  1  0  0  0  0  0  0
  -26.4420  -37.2230   23.7040 N   0  0  0  0  0  0  0  0  0  0  0  0
  -26.0360  -38.1480   23.8140 H   0  0  0  0  0  0  0  0  0  0  0  0
  -26.3540  -31.6070   25.2440 C   0  0  1  0  0  0  0  0  0  0  0  0
  -25.2540  -31.4110   26.3110 C   0  0  0  0  0  1  0  0  0  0  0  0
  -26.9350  -30.2150   24.9010 C   0  0  0  0  0  1  0  0  0  0  0  0
  -27.5010  -32.4190   25.8930 C   0  0  0  0  0  1  0  0  0  0  0  0
  -26.1970  -19.8360   19.2410 C   0  0  0  0  0  2  0  0  0  0  0  0
  -27.5350  -19.8790   20.0080 C   0  0  0  0  0  2  0  0  0  0  0  0
  -28.1350  -18.4710   20.2250 C   0  0  0  0  0  2  0  0  0  0  0  0
  -29.5630  -18.4740   20.8080 C   0  0  0  0  0  2  0  0  0  0  0  0
  -30.2170  -17.0660   21.0600 C   0  0  0  0  0  2  0  0  0  0  0  0
  -31.6580  -15.1950   20.3070 C   0  0  0  0  0  0  0  0  0  0  0  0
  -31.4220  -12.8650   19.5370 C   0  0  0  0  0  2  0  0  0  0  0  0
  -30.5890  -12.8190   18.2420 C   0  0  0  0  0  2  0  0  0  0  0  0
  -29.0660  -12.8520   18.5370 C   0  0  0  0  0  2  0  0  0  0  0  0
  -28.6460  -13.8370   19.6680 C   0  0  0  0  0  3  0  0  0  0  0  0
  -29.6210  -13.7650   20.8580 C   0  0  0  0  0  2  0  0  0  0  0  0
  -30.9590  -14.0240   20.3180 N   0  0  0  0  0  0  0  0  0  0  0  0
  -32.8870  -15.1650   20.1860 O   0  0  0  0  0  0  0  0  0  0  0  0
  -30.9780  -16.3530   19.9800 N   0  0  0  0  0  0  0  0  0  0  0  0
  -26.2450  -14.5640   20.2330 C   0  0  0  0  0  0  0  0  0  0  0  0
  -25.1230  -13.8450   20.5530 C   0  0  0  0  0  0  0  0  0  0  0  0
  -25.5260  -12.4760   20.5730 C   0  0  0  0  0  0  0  0  0  0  0  0
  -27.2600  -13.6330   20.0820 N   0  0  0  0  0  0  0  0  0  0  0  0
  -26.8280  -12.3730   20.3450 N   0  0  0  0  0  0  0  0  0  0  0  0
  -24.7340  -11.2510   20.7400 C   0  0  0  0  0  0  0  0  0  0  0  0
  -25.0640  -10.2840   21.7140 C   0  0  0  0  0  3  0  0  0  0  0  0
  -24.2750   -9.1230   21.8670 C   0  0  0  0  0  3  0  0  0  0  0  0
  -23.1460   -8.9190   21.0400 C   0  0  0  0  0  0  0  0  0  0  0  0
  -22.8360   -9.8710   20.0530 C   0  0  0  0  0  3  0  0  0  0  0  0
  -23.6250  -11.0240   19.9000 C   0  0  0  0  0  3  0  0  0  0  0  0
  -22.3380   -7.8090   21.0980 O   0  0  0  0  0  0  0  0  0  0  0  0
  -22.0890   -7.1620   22.2820 C   0  0  0  0  0  0  0  0  0  0  0  0
  -21.5430   -7.8330   23.3960 C   0  0  0  0  0  3  0  0  0  0  0  0
  -21.2410   -7.1180   24.5720 C   0  0  0  0  0  3  0  0  0  0  0  0
  -21.4710   -5.7300   24.6300 C   0  0  0  0  0  0  0  0  0  0  0  0
  -22.0090   -5.0570   23.5200 C   0  0  0  0  0  3  0  0  0  0  0  0
  -22.3150   -5.7710   22.3480 C   0  0  0  0  0  0  0  0  0  0  0  0
  -22.8150   -5.1160   21.2720 F   0  0  0  0  0  0  0  0  0  0  0  0
  -21.1700   -5.0400   25.7550 F   0  0  0  0  0  0  0  0  0  0  0  0
  -23.7350  -14.3890   20.7340 C   0  0  0  0  0  0  0  0  0  0  0  0
  -22.9340  -13.7550   21.5850 N   0  0  0  0  0  0  0  0  0  0  0  0
  -23.3690  -15.4110   20.1600 O   0  0  0  0  0  0  0  0  0  0  0  0
  -23.2410  -12.9290   22.0750 H   0  0  0  0  0  0  0  0  0  0  0  0
  -22.0000  -14.1040   21.7520 H   0  0  0  0  0  0  0  0  0  0  0  0
  -26.4750  -15.9180   20.0340 N   0  0  0  0  0  0  0  0  0  0  0  0
  -25.7310  -16.6050   20.0840 H   0  0  0  0  0  0  0  0  0  0  0  0
  -27.3670  -16.3110   19.7670 H   0  0  0  0  0  0  0  0  0  0  0  0
  -31.6170  -17.2390   18.9550 C   0  0  0  0  0  2  0  0  0  0  0  0
  -31.5560  -16.9750   16.4430 C   0  0  0  0  0  1  0  0  0  0  0  0
  -29.3620  -17.0900   17.6030 C   0  0  0  0  0  1  0  0  0  0  0  0
  -30.8030  -19.1150   17.4630 C   0  0  0  0  0  1  0  0  0  0  0  0
  -30.8190  -17.5870   17.6530 C   0  0  1  0  0  0  0  0  0  0  0  0
  2  1  1  0
  3  2  1  0
  4  5  1  0
  4  3  1  0
  6  5  1  0
  6  7  1  0
  7  8  1  0
  8  9  1  0
  9 11  1  0
 10 21  2  0
 11 16  1  0
 12 20  1  0
 12 22  1  0
 13 19  1  0
 13 15  1  0
 14 20  1  0
 15 14  1  0
 16 15  2  0
 17 18  1  0
 17 11  2  0
 18 13  2  0
 19 12  1  0
 20 10  1  0
 22 24  2  0
 23 22  1  0
 25 23  1  0
 26 35  2  0
 26 31  1  0
 27 23  1  0
 27 31  1  0
 28 27  1  0
 29 30  1  0
 29 28  1  0
 30 26  1  0
 31 32  2  0
 32 33  1  0
 34 33  2  0
 35 34  1  0
 36 10  1  0
 36 37  1  0
 36 46  1  0
 37 40  1  0
 38 42  1  0
 38 37  1  0
 39 38  2  0
 42 41  1  0
 44 45  1  0
 44 42  1  0
 44 43  1  0
 46 49  1  1
 46 47  1  0
 48 46  1  0
 50  1  1  0
 50 51  1  0
 51 52  1  0
 52 53  1  0
 53 54  1  0
 55 61  1  0
 56 61  1  0
 57 58  1  0
 57 56  1  0
 59 58  1  0
 59 67  1  0
 59 60  1  0
 61 60  1  0
 62 55  2  0
 63 55  1  0
 63 54  1  0
 64 65  2  0
 65 66  1  0
 65 84  1  0
 66 69  1  0
 67 64  1  0
 67 68  1  0
 68 66  2  0
 69 70  1  0
 70 71  2  0
 72 75  1  0
 72 71  1  0
 73 72  2  0
 74 73  1  0
 74 69  2  0
 75 76  1  0
 76 81  2  0
 76 77  1  0
 77 78  2  0
 78 79  1  0
 79 83  1  0
 80 79  2  0
 81 80  1  0
 82 81  1  0
 84 85  1  0
 85 88  1  0
 85 87  1  0
 86 84  2  0
 89 90  1  0
 89 64  1  0
 91 89  1  0
 92 63  1  0
 96 93  1  6
 94 96  1  0
 95 96  1  0
 96 92  1  0
M  ISO  4   8 101   9 101  55 100  63 100
M  END
>  <TORSDO>  (59) 
F 30

>  <SCORE>  (59) 
-7.066

>  <name>  (59) 
61

>  <ligand_id>  (59) 
61

>  <original_smiles>  (59) 
[H]c1c([H])c([H])c2c(c1[H])C([H])([H])C([H])([H])C([H])([H])C2([H])N([H])C(=O)C1([H])N(C(=O)C([H])(N([H])C(=O)C([H])(N([H])C([H])([H])[H])C([H])([H])[H])C(C([H])([H])[H])(C([H])([H])[H])C([H])([H])[H])C([H])([H])c2c([H])c(OC([H])([H])C([H])([H])C([H])([H])OC([H])([H])C([H])([H])C([H])([H])C([H])([H])C([H])([H])C([H])([H])C([H])([H])C([H])([H])C([H])([H])N(C(=O)N3C([H])([H])C([H])([H])C([H])([H])C([H])(n4nc(-c5c([H])c([H])c(Oc6c([H])c([H])c(F)c([H])c6F)c([H])c5[H])c(C(=O)N([H])[H])c4N([H])[H])C3([H])[H])C([H])([H])C(C([H])([H])[H])(C([H])([H])[H])C([H])([H])[H])c([H])c([H])c2C1([H])[H]

>  <smiles>  (59) 
[H]c1c([H])c([H])c2c(c1[H])C([H])([H])C([H])([H])C([H])([H])C2([H])N([H])C(=O)C1([H])N(C(=O)C([H])(N([H])C(=O)C([H])(N([H])C([H])([H])[H])C([H])([H])[H])C(C([H])([H])[H])(C([H])([H])[H])C([H])([H])[H])C([H])([H])c2c([H])c(OC([H])([H])C([H])([H])C([H])([H])OC([H])([H])C([H])([H])C([H])([H])C([H])([H])C([H])([H])C([H])([H])C([H])([H])C([H])([H])C([H])([H])N(C(=O)N3C([H])([H])C([H])([H])C([H])([H])C([H])(n4nc(-c5c([H])c([H])c(Oc6c([H])c([H])c(F)c([H])c6F)c([H])c5[H])c(C(=O)N([H])[H])c4N([H])[H])C3([H])[H])C([H])([H])C(C([H])([H])[H])(C([H])([H])[H])C([H])([H])[H])c([H])c([H])c2C1([H])[H]

$$$$
62:0:0
     RDKit          3D

 93100  0  0  1  0  0  0  0  0999 V2000
  -24.7470  -22.6950   22.4510 C   0  0  0  0  0  2  0  0  0  0  0  0
  -24.9610  -22.2810   21.1110 O   0  0  0  0  0  0  0  0  0  0  0  0
  -24.6830  -20.8980   20.9330 C   0  0  0  0  0  2  0  0  0  0  0  0
  -25.5230  -20.3640   19.7690 C   0  0  0  0  0  2  0  0  0  0  0  0
  -27.0140  -20.6590   19.9710 C   0  0  0  0  0  2  0  0  0  0  0  0
  -27.7650  -20.0720   18.9220 O   0  0  0  0  0  0  0  0  0  0  0  0
  -29.0110  -19.5480   19.3610 C   0  0  0  0  0  2  0  0  0  0  0  0
  -29.4550  -18.5010   18.3390 C   0  0  0  0  0  2  0  0  0  0  0  0
  -30.6790  -17.6670   18.7750 C   0  0  0  0  0  2  0  0  0  0  0  0
  -32.0270  -15.7860   17.7610 C   0  0  0  0  0  0  0  0  0  0  0  0
  -32.2610  -13.3500   18.0200 C   0  0  0  0  0  2  0  0  0  0  0  0
  -31.1370  -12.6390   17.2370 C   0  0  0  0  0  2  0  0  0  0  0  0
  -29.8510  -12.5220   18.0820 C   0  0  0  0  0  2  0  0  0  0  0  0
  -29.4540  -13.8610   18.7620 C   0  0  0  0  0  3  0  0  0  0  0  0
  -30.6850  -14.4720   19.4650 C   0  0  0  0  0  2  0  0  0  0  0  0
  -31.7410  -14.6530   18.4580 N   0  0  0  0  0  0  0  0  0  0  0  0
  -32.9240  -15.8510   16.9180 O   0  0  0  0  0  0  0  0  0  0  0  0
  -31.0710  -16.7250   17.7240 N   0  0  0  0  0  0  0  0  0  0  0  0
  -31.1030  -17.1930   16.8300 H   0  0  0  0  0  0  0  0  0  0  0  0
  -27.8270  -14.5520   20.6400 C   0  0  0  0  0  0  0  0  0  0  0  0
  -26.7330  -13.9280   21.1740 C   0  0  0  0  0  0  0  0  0  0  0  0
  -26.6070  -12.6890   20.4760 C   0  0  0  0  0  0  0  0  0  0  0  0
  -28.3300  -13.6830   19.6800 N   0  0  0  0  0  0  0  0  0  0  0  0
  -27.6100  -12.5340   19.6210 N   0  0  0  0  0  0  0  0  0  0  0  0
  -25.5570  -11.6630   20.5320 C   0  0  0  0  0  0  0  0  0  0  0  0
  -25.7670  -10.4200   21.1710 C   0  0  0  0  0  3  0  0  0  0  0  0
  -24.7350   -9.4590   21.2290 C   0  0  0  0  0  3  0  0  0  0  0  0
  -23.4760   -9.7370   20.6480 C   0  0  0  0  0  0  0  0  0  0  0  0
  -23.2770  -10.9660   19.9940 C   0  0  0  0  0  3  0  0  0  0  0  0
  -24.3080  -11.9180   19.9320 C   0  0  0  0  0  3  0  0  0  0  0  0
  -22.4250   -8.8520   20.6330 O   0  0  0  0  0  0  0  0  0  0  0  0
  -22.1290   -8.0690   21.7200 C   0  0  0  0  0  0  0  0  0  0  0  0
  -21.7170   -8.6260   22.9500 C   0  0  0  0  0  3  0  0  0  0  0  0
  -21.3570   -7.7810   24.0200 C   0  0  0  0  0  3  0  0  0  0  0  0
  -21.3970   -6.3840   23.8560 C   0  0  0  0  0  0  0  0  0  0  0  0
  -21.8000   -5.8290   22.6290 C   0  0  0  0  0  3  0  0  0  0  0  0
  -22.1620   -6.6700   21.5630 C   0  0  0  0  0  0  0  0  0  0  0  0
  -22.5310   -6.1290   20.3760 F   0  0  0  0  0  0  0  0  0  0  0  0
  -21.0430   -5.5700   24.8800 F   0  0  0  0  0  0  0  0  0  0  0  0
  -25.7940  -14.4980   22.1990 C   0  0  0  0  0  0  0  0  0  0  0  0
  -25.2370  -13.6490   23.0580 N   0  0  0  0  0  0  0  0  0  0  0  0
  -25.5820  -15.7070   22.2770 O   0  0  0  0  0  0  0  0  0  0  0  0
  -25.4270  -12.6580   23.0150 H   0  0  0  0  0  0  0  0  0  0  0  0
  -24.6060  -13.9990   23.7660 H   0  0  0  0  0  0  0  0  0  0  0  0
  -28.4160  -15.7880   20.8750 N   0  0  0  0  0  0  0  0  0  0  0  0
  -28.0640  -16.4210   21.5850 H   0  0  0  0  0  0  0  0  0  0  0  0
  -29.2400  -16.1340   20.4020 H   0  0  0  0  0  0  0  0  0  0  0  0
  -25.6210  -23.9100   22.7800 C   0  0  0  0  0  2  0  0  0  0  0  0
  -26.9280  -23.7450   22.2310 O   0  0  0  0  0  0  0  0  0  0  0  0
  -27.3660  -24.9310   21.5830 C   0  0  0  0  0  2  0  0  0  0  0  0
  -28.5680  -24.6800   20.6520 C   0  0  0  0  0  2  0  0  0  0  0  0
  -28.6790  -25.6250   19.4250 C   0  0  0  0  0  2  0  0  0  0  0  0
  -28.7720  -27.0270   19.7310 O   0  0  0  0  0  0  0  0  0  0  0  0
  -25.5530  -31.2690   24.4390 C   0  0  0  0  0  0  0  0  0  0  0  0
  -27.6300  -27.7450   20.0220 C   0  0  0  0  0  0  0  0  0  0  0  0
  -24.1090  -30.3470   22.6570 C   0  0  0  0  0  3  0  0  0  0  0  0
  -25.3210  -29.2260   20.7210 C   0  0  0  0  0  0  0  0  0  0  0  0
  -26.6090  -30.7180   22.2510 C   0  0  0  0  0  2  0  0  0  0  0  0
  -26.5600  -29.5560   21.2830 C   0  0  0  0  0  0  0  0  0  0  0  0
  -27.7120  -28.8120   20.9460 C   0  0  0  0  0  3  0  0  0  0  0  0
  -26.3740  -27.4650   19.4310 C   0  0  0  0  0  3  0  0  0  0  0  0
  -25.2210  -28.1770   19.7960 C   0  0  0  0  0  3  0  0  0  0  0  0
  -24.1310  -30.0530   21.1370 C   0  0  0  0  0  2  0  0  0  0  0  0
  -25.4490  -30.7760   23.1740 N   0  0  0  0  0  0  0  0  0  0  0  0
  -24.5530  -31.4020   25.1600 O   0  0  0  0  0  0  0  0  0  0  0  0
  -23.5340  -29.1150   23.3910 C   0  0  0  0  0  0  0  0  0  0  0  0
  -22.3990  -28.5960   22.8950 N   0  0  0  0  0  0  0  0  0  0  0  0
  -24.1170  -28.6310   24.3650 O   0  0  0  0  0  0  0  0  0  0  0  0
  -21.9740  -29.0550   22.1010 H   0  0  0  0  0  0  0  0  0  0  0  0
  -19.8950  -26.1230   22.0830 C   0  0  0  0  0  0  0  0  0  0  0  0
  -21.6990  -27.4180   23.4070 C   0  0  0  0  0  3  0  0  0  0  0  0
  -22.5690  -26.1460   23.2660 C   0  0  0  0  0  2  0  0  0  0  0  0
  -22.3120  -25.3750   21.9670 C   0  0  0  0  0  2  0  0  0  0  0  0
  -20.8420  -24.9540   21.8740 C   0  0  0  0  0  2  0  0  0  0  0  0
  -20.3010  -27.2860   22.7900 C   0  0  0  0  0  0  0  0  0  0  0  0
  -19.3910  -28.3580   22.9220 C   0  0  0  0  0  3  0  0  0  0  0  0
  -18.1000  -28.2790   22.3660 C   0  0  0  0  0  3  0  0  0  0  0  0
  -17.7000  -27.1200   21.6800 C   0  0  0  0  0  3  0  0  0  0  0  0
  -18.5960  -26.0460   21.5420 C   0  0  0  0  0  3  0  0  0  0  0  0
  -26.9260  -31.7100   25.0360 C   0  0  0  0  0  3  0  0  0  0  0  0
  -27.4000  -30.8060   26.2390 C   0  0  1  0  0  0  0  0  0  0  0  0
  -26.3020  -30.5650   27.3010 C   0  0  0  0  0  1  0  0  0  0  0  0
  -27.8810  -29.4270   25.7300 C   0  0  0  0  0  1  0  0  0  0  0  0
  -28.6100  -31.4620   26.9420 C   0  0  0  0  0  1  0  0  0  0  0  0
  -26.7940  -33.1110   25.4590 N   0  0  0  0  0  0  0  0  0  0  0  0
  -27.2290  -34.1620   24.7520 C   0  0  0  0  0  0  0  0  0  0  0  0
  -27.8580  -34.0450   23.6960 O   0  0  0  0  0  0  0  0  0  0  0  0
  -26.2480  -33.2820   26.2910 H   0  0  0  0  0  0  0  0  0  0  0  0
  -25.7190  -36.1610   24.5480 C   0  0  0  0  0  1  0  0  0  0  0  0
  -26.9190  -35.5660   25.3030 C   0  0  0  0  0  3  0  0  0  0  0  0
  -29.1730  -36.1240   26.1030 C   0  0  0  0  0  1  0  0  0  0  0  0
  -28.0670  -36.4960   25.2230 N   0  0  0  0  0  0  0  0  0  0  0  0
  -27.7800  -37.4430   25.4550 H   0  0  0  0  0  0  0  0  0  0  0  0
  1 48  1  0
  2  1  1  0
  3  2  1  0
  4  5  1  0
  4  3  1  0
  6  7  1  0
  6  5  1  0
  8  9  1  0
  8  7  1  0
 10 16  1  0
 11 16  1  0
 12 11  1  0
 12 13  1  0
 14 13  1  0
 14 15  1  0
 14 23  1  0
 16 15  1  0
 17 10  2  0
 18 10  1  0
 18  9  1  0
 19 18  1  0
 20 45  1  0
 20 21  2  0
 21 40  1  0
 22 25  1  0
 22 21  1  0
 23 20  1  0
 24 23  1  0
 24 22  2  0
 25 26  1  0
 26 27  2  0
 28 27  1  0
 29 28  2  0
 30 29  1  0
 30 25  2  0
 31 28  1  0
 31 32  1  0
 32 33  1  0
 33 34  2  0
 35 34  1  0
 35 39  1  0
 36 35  2  0
 37 32  2  0
 37 36  1  0
 38 37  1  0
 40 42  2  0
 40 41  1  0
 41 44  1  0
 43 41  1  0
 45 46  1  0
 47 45  1  0
 49 48  1  0
 50 49  1  0
 51 50  1  0
 52 53  1  0
 52 51  1  0
 53 55  1  0
 54 65  2  0
 55 60  1  0
 56 64  1  0
 56 66  1  0
 57 63  1  0
 57 59  1  0
 58 64  1  0
 59 58  1  0
 60 59  2  0
 61 62  1  0
 61 55  2  0
 62 57  2  0
 63 56  1  0
 64 54  1  0
 66 68  2  0
 67 66  1  0
 69 67  1  0
 70 75  1  0
 71 67  1  0
 72 71  1  0
 73 72  1  0
 74 73  1  0
 74 70  1  0
 75 76  2  0
 75 71  1  0
 77 76  1  0
 78 77  2  0
 79 78  1  0
 79 70  2  0
 80 54  1  0
 80 85  1  0
 80 81  1  0
 81 84  1  1
 81 82  1  0
 83 81  1  0
 85 88  1  0
 86 90  1  0
 86 85  1  0
 87 86  2  0
 90 89  1  0
 92 90  1  0
 92 93  1  0
 92 91  1  0
M  ISO  4  10 100  18 100  52 101  53 101
M  END
>  <TORSDO>  (60) 
F 29

>  <SCORE>  (60) 
5.529

>  <name>  (60) 
62

>  <ligand_id>  (60) 
62

>  <original_smiles>  (60) 
[H]c1c([H])c([H])c2c(c1[H])C([H])([H])C([H])([H])C([H])([H])C2([H])N([H])C(=O)C1([H])N(C(=O)C([H])(N([H])C(=O)C([H])(N([H])C([H])([H])[H])C([H])([H])[H])C(C([H])([H])[H])(C([H])([H])[H])C([H])([H])[H])C([H])([H])c2c([H])c(OC([H])([H])C([H])([H])C([H])([H])OC([H])([H])C([H])([H])OC([H])([H])C([H])([H])C([H])([H])OC([H])([H])C([H])([H])C([H])([H])N([H])C(=O)N3C([H])([H])C([H])([H])C([H])([H])C([H])(n4nc(-c5c([H])c([H])c(Oc6c([H])c([H])c(F)c([H])c6F)c([H])c5[H])c(C(=O)N([H])[H])c4N([H])[H])C3([H])[H])c([H])c([H])c2C1([H])[H]

>  <smiles>  (60) 
[H]c1c([H])c([H])c2c(c1[H])C([H])([H])C([H])([H])C([H])([H])C2([H])N([H])C(=O)C1([H])N(C(=O)C([H])(N([H])C(=O)C([H])(N([H])C([H])([H])[H])C([H])([H])[H])C(C([H])([H])[H])(C([H])([H])[H])C([H])([H])[H])C([H])([H])c2c([H])c(OC([H])([H])C([H])([H])C([H])([H])OC([H])([H])C([H])([H])OC([H])([H])C([H])([H])C([H])([H])OC([H])([H])C([H])([H])C([H])([H])N([H])C(=O)N3C([H])([H])C([H])([H])C([H])([H])C([H])(n4nc(-c5c([H])c([H])c(Oc6c([H])c([H])c(F)c([H])c6F)c([H])c5[H])c(C(=O)N([H])[H])c4N([H])[H])C3([H])[H])c([H])c([H])c2C1([H])[H]

$$$$
63:0:0
     RDKit          3D

101109  0  0  1  0  0  0  0  0999 V2000
  -25.6020  -17.0740   21.3760 C   0  0  0  0  0  0  0  0  0  0  0  0
  -26.2790  -17.4680   20.2930 N   0  0  0  0  0  0  0  0  0  0  0  0
  -25.5690  -17.7260   22.4200 O   0  0  0  0  0  0  0  0  0  0  0  0
  -26.2390  -16.8670   19.4820 H   0  0  0  0  0  0  0  0  0  0  0  0
  -24.8710  -15.7360   21.2650 C   0  0  0  0  0  2  0  0  0  0  0  0
  -25.2880  -14.7830   22.4040 C   0  0  0  0  0  2  0  0  0  0  0  0
  -24.9740  -13.2970   22.1460 C   0  0  0  0  0  2  0  0  0  0  0  0
  -26.6950  -13.2670   20.3280 C   0  0  0  0  0  0  0  0  0  0  0  0
  -25.9230  -12.6640   21.2390 N   0  0  0  0  0  0  0  0  0  0  0  0
  -26.7130  -14.4830   20.1320 O   0  0  0  0  0  0  0  0  0  0  0  0
  -26.0550  -11.6670   21.3430 H   0  0  0  0  0  0  0  0  0  0  0  0
  -29.5190  -11.9950   18.1050 C   0  0  0  0  0  3  0  0  0  0  0  0
  -29.4760  -10.6160   18.3710 C   0  0  0  0  0  3  0  0  0  0  0  0
  -28.6080  -12.8560   18.7390 C   0  0  0  0  0  3  0  0  0  0  0  0
  -27.5410  -10.9390   19.8070 C   0  0  0  0  0  3  0  0  0  0  0  0
  -28.5120  -10.0750   19.2530 C   0  0  0  0  0  0  0  0  0  0  0  0
  -27.6240  -12.3370   19.6070 C   0  0  0  0  0  0  0  0  0  0  0  0
  -28.5620   -8.5960   19.5410 C   0  0  0  0  0  0  0  0  0  0  0  0
  -28.7080   -7.0140   21.4150 C   0  0  0  0  0  2  0  0  0  0  0  0
  -27.8060   -5.7820   21.2830 C   0  0  0  0  0  2  0  0  0  0  0  0
  -26.4040   -6.0740   21.8460 C   0  0  0  0  0  2  0  0  0  0  0  0
  -25.8080   -7.3940   21.2870 C   0  0  0  0  0  3  0  0  0  0  0  0
  -26.8320   -8.5470   21.4160 C   0  0  0  0  0  2  0  0  0  0  0  0
  -28.0730   -8.1480   20.7280 N   0  0  0  0  0  0  0  0  0  0  0  0
  -29.3220   -7.9210   18.8360 O   0  0  0  0  0  0  0  0  0  0  0  0
  -23.8740   -8.9300   22.0200 C   0  0  0  0  0  0  0  0  0  0  0  0
  -22.6930   -8.6700   22.6640 C   0  0  0  0  0  0  0  0  0  0  0  0
  -22.6900   -7.2660   22.9280 C   0  0  0  0  0  0  0  0  0  0  0  0
  -24.5350   -7.7150   21.9320 N   0  0  0  0  0  0  0  0  0  0  0  0
  -23.8300   -6.7180   22.5270 N   0  0  0  0  0  0  0  0  0  0  0  0
  -21.6440   -6.4010   23.4900 C   0  0  0  0  0  0  0  0  0  0  0  0
  -21.4790   -6.2530   24.8850 C   0  0  0  0  0  3  0  0  0  0  0  0
  -20.4520   -5.4330   25.4000 C   0  0  0  0  0  3  0  0  0  0  0  0
  -19.5790   -4.7510   24.5210 C   0  0  0  0  0  0  0  0  0  0  0  0
  -19.7640   -4.8820   23.1330 C   0  0  0  0  0  3  0  0  0  0  0  0
  -20.7870   -5.6960   22.6210 C   0  0  0  0  0  3  0  0  0  0  0  0
  -18.5730   -3.9090   24.9330 O   0  0  0  0  0  0  0  0  0  0  0  0
  -17.6180   -4.3160   25.8300 C   0  0  0  0  0  0  0  0  0  0  0  0
  -16.7210   -5.3660   25.5370 C   0  0  0  0  0  3  0  0  0  0  0  0
  -15.7080   -5.7040   26.4570 C   0  0  0  0  0  3  0  0  0  0  0  0
  -15.5860   -4.9900   27.6650 C   0  0  0  0  0  0  0  0  0  0  0  0
  -16.4760   -3.9410   27.9550 C   0  0  0  0  0  3  0  0  0  0  0  0
  -17.4860   -3.6030   27.0380 C   0  0  0  0  0  0  0  0  0  0  0  0
  -18.3270   -2.5770   27.3120 F   0  0  0  0  0  0  0  0  0  0  0  0
  -14.6080   -5.3070   28.5450 F   0  0  0  0  0  0  0  0  0  0  0  0
  -21.5870   -9.6480   22.9310 C   0  0  0  0  0  0  0  0  0  0  0  0
  -20.8540   -9.4620   24.0250 N   0  0  0  0  0  0  0  0  0  0  0  0
  -21.3970  -10.6160   22.1960 O   0  0  0  0  0  0  0  0  0  0  0  0
  -21.0350   -8.6880   24.6480 H   0  0  0  0  0  0  0  0  0  0  0  0
  -20.1190  -10.1170   24.2510 H   0  0  0  0  0  0  0  0  0  0  0  0
  -24.4270  -10.0910   21.4880 N   0  0  0  0  0  0  0  0  0  0  0  0
  -23.9050  -10.9580   21.4480 H   0  0  0  0  0  0  0  0  0  0  0  0
  -25.2910  -10.1240   20.9630 H   0  0  0  0  0  0  0  0  0  0  0  0
  -27.0740  -18.6860   20.1690 C   0  0  0  0  0  2  0  0  0  0  0  0
  -27.4340  -18.8950   18.6910 C   0  0  0  0  0  2  0  0  0  0  0  0
  -28.1860  -20.1940   18.3840 C   0  0  0  0  0  2  0  0  0  0  0  0
  -28.7920  -20.0080   17.1160 O   0  0  0  0  0  0  0  0  0  0  0  0
  -29.5430  -21.1240   16.6700 C   0  0  0  0  0  2  0  0  0  0  0  0
  -30.5790  -20.6090   15.6670 C   0  0  0  0  0  2  0  0  0  0  0  0
  -31.4490  -21.7020   15.0360 C   0  0  0  0  0  2  0  0  0  0  0  0
  -31.4470  -22.8730   15.8520 O   0  0  0  0  0  0  0  0  0  0  0  0
  -26.9540  -26.5330   19.9310 C   0  0  0  0  0  0  0  0  0  0  0  0
  -30.3700  -23.7340   15.8510 C   0  0  0  0  0  0  0  0  0  0  0  0
  -26.4390  -26.5490   17.5090 C   0  0  0  0  0  3  0  0  0  0  0  0
  -28.2500  -25.6060   15.9870 C   0  0  0  0  0  0  0  0  0  0  0  0
  -28.8410  -26.2540   18.3250 C   0  0  0  0  0  2  0  0  0  0  0  0
  -29.0880  -25.4150   17.0900 C   0  0  0  0  0  0  0  0  0  0  0  0
  -30.1380  -24.4750   17.0290 C   0  0  0  0  0  3  0  0  0  0  0  0
  -29.5050  -23.9340   14.7470 C   0  0  0  0  0  3  0  0  0  0  0  0
  -28.4510  -24.8620   14.8130 C   0  0  0  0  0  3  0  0  0  0  0  0
  -27.1430  -26.6230   16.1280 C   0  0  0  0  0  2  0  0  0  0  0  0
  -27.4050  -26.4220   18.6510 N   0  0  0  0  0  0  0  0  0  0  0  0
  -25.7640  -26.7850   20.1690 O   0  0  0  0  0  0  0  0  0  0  0  0
  -25.3910  -25.4120   17.4640 C   0  0  0  0  0  0  0  0  0  0  0  0
  -24.3110  -25.6310   16.6960 N   0  0  0  0  0  0  0  0  0  0  0  0
  -25.5700  -24.3590   18.0780 O   0  0  0  0  0  0  0  0  0  0  0  0
  -24.2270  -26.5290   16.2380 H   0  0  0  0  0  0  0  0  0  0  0  0
  -21.1910  -25.1810   14.9330 C   0  0  0  0  0  0  0  0  0  0  0  0
  -23.2150  -24.6910   16.4640 C   0  0  0  0  0  3  0  0  0  0  0  0
  -23.6130  -23.6180   15.4250 C   0  0  0  0  0  2  0  0  0  0  0  0
  -23.2150  -23.9870   13.9910 C   0  0  0  0  0  2  0  0  0  0  0  0
  -21.7020  -24.1980   13.8920 C   0  0  0  0  0  2  0  0  0  0  0  0
  -21.9120  -25.4230   16.1320 C   0  0  0  0  0  0  0  0  0  0  0  0
  -21.4140  -26.3740   17.0500 C   0  0  0  0  0  3  0  0  0  0  0  0
  -20.2210  -27.0720   16.7890 C   0  0  0  0  0  3  0  0  0  0  0  0
  -19.5010  -26.8150   15.6100 C   0  0  0  0  0  3  0  0  0  0  0  0
  -19.9840  -25.8680   14.6870 C   0  0  0  0  0  3  0  0  0  0  0  0
  -27.9110  -26.3760   21.1560 C   0  0  0  0  0  3  0  0  0  0  0  0
  -27.5660  -27.4240   22.1250 N   0  0  0  0  0  0  0  0  0  0  0  0
  -28.2440  -28.5690   22.2790 C   0  0  0  0  0  0  0  0  0  0  0  0
  -29.2820  -28.8220   21.6610 O   0  0  0  0  0  0  0  0  0  0  0  0
  -26.7010  -27.3080   22.6320 H   0  0  0  0  0  0  0  0  0  0  0  0
  -26.9260  -30.6970   22.5230 C   0  0  0  0  0  1  0  0  0  0  0  0
  -27.6810  -29.5940   23.2830 C   0  0  0  0  0  3  0  0  0  0  0  0
  -29.2830  -29.2710   25.1130 C   0  0  0  0  0  1  0  0  0  0  0  0
  -28.7160  -30.2040   24.1430 N   0  0  0  0  0  0  0  0  0  0  0  0
  -28.3380  -31.0000   24.6510 H   0  0  0  0  0  0  0  0  0  0  0  0
  -27.8360  -24.9490   21.8210 C   0  0  1  0  0  0  0  0  0  0  0  0
  -26.3980  -24.5040   22.1740 C   0  0  0  0  0  1  0  0  0  0  0  0
  -28.4530  -23.8840   20.8870 C   0  0  0  0  0  1  0  0  0  0  0  0
  -28.6640  -24.9370   23.1270 C   0  0  0  0  0  1  0  0  0  0  0  0
  1  3  2  0
  2  1  1  0
  4  2  1  0
  5  1  1  0
  5  6  1  0
  7  6  1  0
  8  9  1  0
  9 11  1  0
  9  7  1  0
 10  8  2  0
 12 13  2  0
 12 14  1  0
 13 16  1  0
 14 17  2  0
 16 18  1  0
 16 15  2  0
 17 15  1  0
 17  8  1  0
 18 24  1  0
 20 19  1  0
 20 21  1  0
 22 23  1  0
 22 21  1  0
 22 29  1  0
 24 19  1  0
 24 23  1  0
 25 18  2  0
 26 27  2  0
 27 28  1  0
 27 46  1  0
 28 31  1  0
 29 26  1  0
 29 30  1  0
 30 28  2  0
 31 32  1  0
 32 33  2  0
 34 37  1  0
 34 33  1  0
 35 34  2  0
 36 35  1  0
 36 31  2  0
 37 38  1  0
 38 43  1  0
 39 38  2  0
 39 40  1  0
 40 41  2  0
 41 42  1  0
 41 45  1  0
 43 44  1  0
 43 42  2  0
 46 47  1  0
 47 50  1  0
 47 49  1  0
 48 46  2  0
 51 26  1  0
 52 51  1  0
 53 51  1  0
 54  2  1  0
 55 54  1  0
 56 55  1  0
 57 56  1  0
 58 57  1  0
 59 58  1  0
 60 59  1  0
 60 61  1  0
 62 73  2  0
 63 61  1  0
 63 68  1  0
 64 74  1  0
 64 72  1  0
 65 71  1  0
 65 67  1  0
 66 72  1  0
 67 66  1  0
 68 67  2  0
 69 70  1  0
 69 63  2  0
 70 65  2  0
 71 64  1  0
 72 62  1  0
 74 76  2  0
 75 74  1  0
 77 75  1  0
 78 83  1  0
 79 75  1  0
 80 79  1  0
 81 80  1  0
 82 81  1  0
 82 78  1  0
 83 79  1  0
 83 84  2  0
 85 84  1  0
 86 85  2  0
 87 78  2  0
 87 86  1  0
 88 62  1  0
 88 98  1  0
 88 89  1  0
 89 90  1  0
 89 92  1  0
 90 94  1  0
 91 90  2  0
 94 93  1  0
 94 96  1  0
 96 97  1  0
 96 95  1  0
 98 99  1  1
 98101  1  0
100 98  1  0
M  ISO  4  16 100  18 100  60 101  61 101
M  END
>  <TORSDO>  (61) 
F 28

>  <SCORE>  (61) 
14.644

>  <name>  (61) 
63

>  <ligand_id>  (61) 
63

>  <original_smiles>  (61) 
[H]c1c([H])c(C(=O)N([H])C([H])([H])C([H])([H])C([H])([H])C(=O)N([H])C([H])([H])C([H])([H])C([H])([H])OC([H])([H])C([H])([H])C([H])([H])Oc2c([H])c([H])c3c(c2[H])C([H])([H])N(C(=O)C([H])(N([H])C(=O)C([H])(N([H])C([H])([H])[H])C([H])([H])[H])C(C([H])([H])[H])(C([H])([H])[H])C([H])([H])[H])C([H])(C(=O)N([H])C2([H])c4c([H])c([H])c([H])c([H])c4C([H])([H])C([H])([H])C2([H])[H])C3([H])[H])c([H])c(C(=O)N2C([H])([H])C([H])([H])C([H])([H])C([H])(n3nc(-c4c([H])c([H])c(Oc5c([H])c([H])c(F)c([H])c5F)c([H])c4[H])c(C(=O)N([H])[H])c3N([H])[H])C2([H])[H])c1[H]

>  <smiles>  (61) 
[H]c1c([H])c(C(=O)N([H])C([H])([H])C([H])([H])C([H])([H])C(=O)N([H])C([H])([H])C([H])([H])C([H])([H])OC([H])([H])C([H])([H])C([H])([H])Oc2c([H])c([H])c3c(c2[H])C([H])([H])N(C(=O)C([H])(N([H])C(=O)C([H])(N([H])C([H])([H])[H])C([H])([H])[H])C(C([H])([H])[H])(C([H])([H])[H])C([H])([H])[H])C([H])(C(=O)N([H])C2([H])c4c([H])c([H])c([H])c([H])c4C([H])([H])C([H])([H])C2([H])[H])C3([H])[H])c([H])c(C(=O)N2C([H])([H])C([H])([H])C([H])([H])C([H])(n3nc(-c4c([H])c([H])c(Oc5c([H])c([H])c(F)c([H])c5F)c([H])c4[H])c(C(=O)N([H])[H])c3N([H])[H])C2([H])[H])c1[H]

$$$$
64:0:0
     RDKit          3D

101109  0  0  1  0  0  0  0  0999 V2000
  -29.6640  -20.3150   19.5120 C   0  0  0  0  0  3  0  0  0  0  0  0
  -27.9900  -21.9580   20.1800 C   0  0  0  0  0  3  0  0  0  0  0  0
  -28.8150  -19.2780   19.9420 C   0  0  0  0  0  3  0  0  0  0  0  0
  -27.1490  -20.9220   20.6270 C   0  0  0  0  0  3  0  0  0  0  0  0
  -29.2620  -21.6610   19.6450 C   0  0  0  0  0  0  0  0  0  0  0  0
  -27.5650  -19.5820   20.5260 C   0  0  0  0  0  0  0  0  0  0  0  0
  -26.6820  -18.4800   21.0690 C   0  0  0  0  0  2  0  0  0  0  0  0
  -26.8170  -18.3640   22.4770 O   0  0  0  0  0  0  0  0  0  0  0  0
  -25.7590  -17.6420   23.0930 C   0  0  0  0  0  2  0  0  0  0  0  0
  -26.2080  -17.1760   24.4860 C   0  0  0  0  0  2  0  0  0  0  0  0
  -26.7390  -18.2730   25.2250 O   0  0  0  0  0  0  0  0  0  0  0  0
  -28.0380  -18.0570   25.7730 C   0  0  0  0  0  2  0  0  0  0  0  0
  -29.1470  -18.5720   24.8370 C   0  0  0  0  0  2  0  0  0  0  0  0
  -29.7140  -17.4930   24.0990 O   0  0  0  0  0  0  0  0  0  0  0  0
  -30.3780  -17.9400   22.9240 C   0  0  0  0  0  2  0  0  0  0  0  0
  -31.2430  -16.8290   22.3300 C   0  0  0  0  0  2  0  0  0  0  0  0
  -30.4570  -15.7770   21.7730 O   0  0  0  0  0  0  0  0  0  0  0  0
  -31.0210  -14.9880   20.8390 C   0  0  0  0  0  0  0  0  0  0  0  0
  -30.8170  -12.7640   19.7480 C   0  0  0  0  0  2  0  0  0  0  0  0
  -29.9510  -12.8340   18.4820 C   0  0  0  0  0  2  0  0  0  0  0  0
  -28.4610  -12.6560   18.8310 C   0  0  0  0  0  2  0  0  0  0  0  0
  -27.9980  -13.5710   19.9970 C   0  0  0  0  0  3  0  0  0  0  0  0
  -28.9770  -13.5050   21.1930 C   0  0  0  0  0  2  0  0  0  0  0  0
  -30.3290  -13.7810   20.6830 N   0  0  0  0  0  0  0  0  0  0  0  0
  -32.0530  -15.2930   20.2350 O   0  0  0  0  0  0  0  0  0  0  0  0
  -25.5470  -14.1070   20.5710 C   0  0  0  0  0  0  0  0  0  0  0  0
  -24.4860  -13.3100   20.8990 C   0  0  0  0  0  0  0  0  0  0  0  0
  -24.9800  -11.9730   20.8770 C   0  0  0  0  0  0  0  0  0  0  0  0
  -26.6270  -13.2580   20.4000 N   0  0  0  0  0  0  0  0  0  0  0  0
  -26.2840  -11.9640   20.6310 N   0  0  0  0  0  0  0  0  0  0  0  0
  -24.2730  -10.6950   21.0170 C   0  0  0  0  0  0  0  0  0  0  0  0
  -24.6510   -9.7490   21.9950 C   0  0  0  0  0  3  0  0  0  0  0  0
  -23.9470   -8.5330   22.1240 C   0  0  0  0  0  3  0  0  0  0  0  0
  -22.8470   -8.2560   21.2770 C   0  0  0  0  0  0  0  0  0  0  0  0
  -22.4900   -9.1900   20.2890 C   0  0  0  0  0  3  0  0  0  0  0  0
  -23.1950  -10.3970   20.1580 C   0  0  0  0  0  3  0  0  0  0  0  0
  -22.1180   -7.0920   21.3170 O   0  0  0  0  0  0  0  0  0  0  0  0
  -21.8950   -6.4230   22.4930 C   0  0  0  0  0  0  0  0  0  0  0  0
  -21.2760   -7.0460   23.5990 C   0  0  0  0  0  3  0  0  0  0  0  0
  -21.0020   -6.3000   24.7640 C   0  0  0  0  0  3  0  0  0  0  0  0
  -21.3350   -4.9340   24.8200 C   0  0  0  0  0  0  0  0  0  0  0  0
  -21.9440   -4.3110   23.7170 C   0  0  0  0  0  3  0  0  0  0  0  0
  -22.2210   -5.0540   22.5560 C   0  0  0  0  0  0  0  0  0  0  0  0
  -22.7860   -4.4420   21.4880 F   0  0  0  0  0  0  0  0  0  0  0  0
  -21.0640   -4.2180   25.9360 F   0  0  0  0  0  0  0  0  0  0  0  0
  -23.0660  -13.7560   21.1070 C   0  0  0  0  0  0  0  0  0  0  0  0
  -22.3180  -13.0470   21.9460 N   0  0  0  0  0  0  0  0  0  0  0  0
  -22.6280  -14.7720   20.5690 O   0  0  0  0  0  0  0  0  0  0  0  0
  -22.6850  -12.2280   22.4080 H   0  0  0  0  0  0  0  0  0  0  0  0
  -21.3630  -13.3260   22.1240 H   0  0  0  0  0  0  0  0  0  0  0  0
  -25.6730  -15.4740   20.3760 N   0  0  0  0  0  0  0  0  0  0  0  0
  -24.8620  -16.0820   20.3720 H   0  0  0  0  0  0  0  0  0  0  0  0
  -26.5020  -15.9050   19.9870 H   0  0  0  0  0  0  0  0  0  0  0  0
  -30.1870  -22.7810   19.2040 C   0  0  0  0  0  2  0  0  0  0  0  0
  -30.6500  -23.6670   20.3800 C   0  0  0  0  0  2  0  0  0  0  0  0
  -31.2330  -25.0270   19.9590 C   0  0  0  0  0  2  0  0  0  0  0  0
  -29.1490  -26.4330   19.8800 C   0  0  0  0  0  0  0  0  0  0  0  0
  -30.2530  -25.8660   19.2780 N   0  0  0  0  0  0  0  0  0  0  0  0
  -28.8660  -26.3930   21.0800 O   0  0  0  0  0  0  0  0  0  0  0  0
  -30.3330  -26.0160   18.2810 H   0  0  0  0  0  0  0  0  0  0  0  0
  -28.4200  -27.0140   18.9180 O   0  0  0  0  0  0  0  0  0  0  0  0
  -24.6060  -31.5320   22.9080 C   0  0  0  0  0  0  0  0  0  0  0  0
  -27.2220  -27.6220   19.1920 C   0  0  0  0  0  0  0  0  0  0  0  0
  -23.3420  -30.2440   21.2120 C   0  0  0  0  0  3  0  0  0  0  0  0
  -24.7560  -28.9410   19.5380 C   0  0  0  0  0  0  0  0  0  0  0  0
  -25.8190  -30.7710   20.8720 C   0  0  0  0  0  2  0  0  0  0  0  0
  -25.9230  -29.4800   20.0950 C   0  0  0  0  0  0  0  0  0  0  0  0
  -27.1610  -28.8280   19.9230 C   0  0  0  0  0  3  0  0  0  0  0  0
  -26.0430  -27.0870   18.6330 C   0  0  0  0  0  3  0  0  0  0  0  0
  -24.8070  -27.7390   18.8090 C   0  0  0  0  0  3  0  0  0  0  0  0
  -23.4760  -29.7170   19.7570 C   0  0  0  0  0  2  0  0  0  0  0  0
  -24.6110  -30.8600   21.7230 N   0  0  0  0  0  0  0  0  0  0  0  0
  -23.5600  -31.6850   23.5520 O   0  0  0  0  0  0  0  0  0  0  0  0
  -22.8190  -29.0940   22.1010 C   0  0  0  0  0  0  0  0  0  0  0  0
  -21.5030  -28.8350   22.0280 N   0  0  0  0  0  0  0  0  0  0  0  0
  -23.5890  -28.4410   22.8110 O   0  0  0  0  0  0  0  0  0  0  0  0
  -20.9380  -29.4210   21.4280 H   0  0  0  0  0  0  0  0  0  0  0  0
  -18.2580  -27.3310   22.5250 C   0  0  0  0  0  0  0  0  0  0  0  0
  -20.7950  -27.7750   22.7430 C   0  0  0  0  0  3  0  0  0  0  0  0
  -20.9910  -26.4080   22.0490 C   0  0  0  0  0  2  0  0  0  0  0  0
  -19.8830  -26.0760   21.0450 C   0  0  0  0  0  2  0  0  0  0  0  0
  -18.5180  -26.0570   21.7390 C   0  0  0  0  0  2  0  0  0  0  0  0
  -19.3270  -28.1450   22.9830 C   0  0  0  0  0  0  0  0  0  0  0  0
  -19.0310  -29.3380   23.6780 C   0  0  0  0  0  3  0  0  0  0  0  0
  -17.6970  -29.7170   23.9200 C   0  0  0  0  0  3  0  0  0  0  0  0
  -16.6430  -28.8980   23.4790 C   0  0  0  0  0  3  0  0  0  0  0  0
  -16.9240  -27.7070   22.7870 C   0  0  0  0  0  3  0  0  0  0  0  0
  -25.9080  -32.1610   23.4970 C   0  0  0  0  0  3  0  0  0  0  0  0
  -25.5670  -33.5030   23.9860 N   0  0  0  0  0  0  0  0  0  0  0  0
  -25.8250  -34.6400   23.3260 C   0  0  0  0  0  0  0  0  0  0  0  0
  -26.4480  -34.6710   22.2610 O   0  0  0  0  0  0  0  0  0  0  0  0
  -25.0090  -33.5490   24.8260 H   0  0  0  0  0  0  0  0  0  0  0  0
  -24.0250  -36.3920   23.2270 C   0  0  0  0  0  1  0  0  0  0  0  0
  -25.3090  -35.9510   23.9470 C   0  0  0  0  0  3  0  0  0  0  0  0
  -27.4430  -36.8220   24.7940 C   0  0  0  0  0  1  0  0  0  0  0  0
  -26.3010  -37.0490   23.9130 N   0  0  0  0  0  0  0  0  0  0  0  0
  -25.8700  -37.9320   24.1720 H   0  0  0  0  0  0  0  0  0  0  0  0
  -26.5570  -31.2920   24.6430 C   0  0  1  0  0  0  0  0  0  0  0  0
  -25.5640  -30.9050   25.7640 C   0  0  0  0  0  1  0  0  0  0  0  0
  -27.1540  -29.9870   24.0680 C   0  0  0  0  0  1  0  0  0  0  0  0
  -27.7290  -32.0680   25.2900 C   0  0  0  0  0  1  0  0  0  0  0  0
  1  5  2  0
  1  3  1  0
  2  4  2  0
  3  6  2  0
  5  2  1  0
  6  4  1  0
  6  7  1  0
  7  8  1  0
  8  9  1  0
  9 10  1  0
 10 11  1  0
 11 12  1  0
 13 12  1  0
 14 13  1  0
 15 14  1  0
 16 15  1  0
 17 16  1  0
 18 17  1  0
 19 24  1  0
 20 21  1  0
 20 19  1  0
 22 21  1  0
 22 29  1  0
 22 23  1  0
 24 18  1  0
 24 23  1  0
 25 18  2  0
 26 27  2  0
 27 46  1  0
 28 27  1  0
 28 31  1  0
 29 26  1  0
 29 30  1  0
 30 28  2  0
 31 32  1  0
 32 33  2  0
 34 37  1  0
 34 33  1  0
 35 34  2  0
 36 35  1  0
 36 31  2  0
 37 38  1  0
 38 43  2  0
 38 39  1  0
 39 40  2  0
 40 41  1  0
 41 45  1  0
 42 41  2  0
 43 42  1  0
 44 43  1  0
 46 47  1  0
 47 50  1  0
 47 49  1  0
 48 46  2  0
 51 26  1  0
 52 51  1  0
 53 51  1  0
 54  5  1  0
 54 55  1  0
 56 55  1  0
 57 59  2  0
 58 57  1  0
 58 56  1  0
 60 58  1  0
 61 63  1  0
 61 57  1  0
 62 73  2  0
 63 68  1  0
 64 72  1  0
 64 74  1  0
 65 71  1  0
 65 67  1  0
 66 72  1  0
 67 66  1  0
 68 67  2  0
 69 70  1  0
 69 63  2  0
 70 65  2  0
 71 64  1  0
 72 62  1  0
 74 76  2  0
 75 74  1  0
 77 75  1  0
 78 87  2  0
 78 83  1  0
 79 75  1  0
 79 83  1  0
 80 79  1  0
 81 82  1  0
 81 80  1  0
 82 78  1  0
 83 84  2  0
 84 85  1  0
 86 85  2  0
 87 86  1  0
 88 62  1  0
 88 89  1  0
 88 98  1  0
 89 92  1  0
 90 94  1  0
 90 89  1  0
 91 90  2  0
 94 93  1  0
 96 94  1  0
 96 97  1  0
 96 95  1  0
 98101  1  1
 98 99  1  0
100 98  1  0
M  ISO  4  17 100  18 100  57 101  61 101
M  END
>  <TORSDO>  (62) 
F 31

>  <SCORE>  (62) 
22.029

>  <name>  (62) 
64

>  <ligand_id>  (62) 
64

>  <original_smiles>  (62) 
[H]c1c([H])c([H])c2c(c1[H])C([H])([H])C([H])([H])C([H])([H])C2([H])N([H])C(=O)C1([H])N(C(=O)C([H])(N([H])C(=O)C([H])(N([H])C([H])([H])[H])C([H])([H])[H])C(C([H])([H])[H])(C([H])([H])[H])C([H])([H])[H])C([H])([H])c2c([H])c(OC(=O)N([H])C([H])([H])C([H])([H])C([H])([H])c3c([H])c([H])c(C([H])([H])OC([H])([H])C([H])([H])OC([H])([H])C([H])([H])OC([H])([H])C([H])([H])OC(=O)N4C([H])([H])C([H])([H])C([H])([H])C([H])(n5nc(-c6c([H])c([H])c(Oc7c([H])c([H])c(F)c([H])c7F)c([H])c6[H])c(C(=O)N([H])[H])c5N([H])[H])C4([H])[H])c([H])c3[H])c([H])c([H])c2C1([H])[H]

>  <smiles>  (62) 
[H]c1c([H])c([H])c2c(c1[H])C([H])([H])C([H])([H])C([H])([H])C2([H])N([H])C(=O)C1([H])N(C(=O)C([H])(N([H])C(=O)C([H])(N([H])C([H])([H])[H])C([H])([H])[H])C(C([H])([H])[H])(C([H])([H])[H])C([H])([H])[H])C([H])([H])c2c([H])c(OC(=O)N([H])C([H])([H])C([H])([H])C([H])([H])c3c([H])c([H])c(C([H])([H])OC([H])([H])C([H])([H])OC([H])([H])C([H])([H])OC([H])([H])C([H])([H])OC(=O)N4C([H])([H])C([H])([H])C([H])([H])C([H])(n5nc(-c6c([H])c([H])c(Oc7c([H])c([H])c(F)c([H])c7F)c([H])c6[H])c(C(=O)N([H])[H])c5N([H])[H])C4([H])[H])c([H])c3[H])c([H])c([H])c2C1([H])[H]

$$$$
65:0:0
     RDKit          3D

 86 93  0  0  1  0  0  0  0  0999 V2000
  -28.1520  -24.0360   19.9640 C   0  0  0  0  0  2  0  0  0  0  0  0
  -28.3920  -25.3500   20.7900 C   0  0  0  0  0  2  0  0  0  0  0  0
  -28.3770  -26.6310   20.0960 O   0  0  0  0  0  0  0  0  0  0  0  0
  -24.5990  -31.8740   23.2160 C   0  0  0  0  0  0  0  0  0  0  0  0
  -27.2150  -27.3850   20.1400 C   0  0  0  0  0  0  0  0  0  0  0  0
  -23.3840  -30.4740   21.5800 C   0  0  0  0  0  3  0  0  0  0  0  0
  -24.8290  -28.9240   20.1520 C   0  0  0  0  0  0  0  0  0  0  0  0
  -25.9130  -30.8190   21.3710 C   0  0  0  0  0  2  0  0  0  0  0  0
  -25.9940  -29.4420   20.7330 C   0  0  0  0  0  0  0  0  0  0  0  0
  -27.1920  -28.6830   20.7140 C   0  0  0  0  0  3  0  0  0  0  0  0
  -26.0330  -26.8880   19.5570 C   0  0  0  0  0  3  0  0  0  0  0  0
  -24.8460  -27.6490   19.5580 C   0  0  0  0  0  3  0  0  0  0  0  0
  -23.5880  -29.7890   20.2000 C   0  0  0  0  0  2  0  0  0  0  0  0
  -24.6500  -31.0720   22.1130 N   0  0  0  0  0  0  0  0  0  0  0  0
  -23.5200  -32.1480   23.7600 O   0  0  0  0  0  0  0  0  0  0  0  0
  -22.7330  -29.4560   22.5450 C   0  0  0  0  0  0  0  0  0  0  0  0
  -21.4080  -29.2750   22.4230 N   0  0  0  0  0  0  0  0  0  0  0  0
  -23.4180  -28.8320   23.3590 O   0  0  0  0  0  0  0  0  0  0  0  0
  -20.9160  -29.8300   21.7370 H   0  0  0  0  0  0  0  0  0  0  0  0
  -18.0370  -28.0680   22.9220 C   0  0  0  0  0  0  0  0  0  0  0  0
  -20.5930  -28.3370   23.1960 C   0  0  0  0  0  3  0  0  0  0  0  0
  -20.7010  -26.9040   22.6240 C   0  0  0  0  0  2  0  0  0  0  0  0
  -19.6020  -26.5740   21.6090 C   0  0  0  0  0  2  0  0  0  0  0  0
  -18.2190  -26.7170   22.2510 C   0  0  0  0  0  2  0  0  0  0  0  0
  -19.1520  -28.8360   23.3510 C   0  0  0  0  0  0  0  0  0  0  0  0
  -18.9290  -30.1010   23.9370 C   0  0  0  0  0  3  0  0  0  0  0  0
  -17.6230  -30.5990   24.0990 C   0  0  0  0  0  3  0  0  0  0  0  0
  -16.5210  -29.8280   23.6870 C   0  0  0  0  0  3  0  0  0  0  0  0
  -16.7290  -28.5660   23.1040 C   0  0  0  0  0  3  0  0  0  0  0  0
  -25.8870  -32.5040   23.8300 C   0  0  0  0  0  3  0  0  0  0  0  0
  -26.4150  -31.7260   25.0990 C   0  0  1  0  0  0  0  0  0  0  0  0
  -25.3310  -31.4830   26.1750 C   0  0  0  0  0  1  0  0  0  0  0  0
  -26.9930  -30.3500   24.6930 C   0  0  0  0  0  1  0  0  0  0  0  0
  -27.5720  -32.5160   25.7540 C   0  0  0  0  0  1  0  0  0  0  0  0
  -25.5800  -33.9010   24.1710 N   0  0  0  0  0  0  0  0  0  0  0  0
  -25.9080  -34.9570   23.4150 C   0  0  0  0  0  0  0  0  0  0  0  0
  -26.5710  -34.8590   22.3790 O   0  0  0  0  0  0  0  0  0  0  0  0
  -24.9910  -34.0510   24.9760 H   0  0  0  0  0  0  0  0  0  0  0  0
  -24.1760  -36.7500   23.0790 C   0  0  0  0  0  1  0  0  0  0  0  0
  -25.4220  -36.3430   23.8810 C   0  0  0  0  0  3  0  0  0  0  0  0
  -27.5630  -37.2230   24.6990 C   0  0  0  0  0  1  0  0  0  0  0  0
  -26.4530  -37.3970   23.7660 N   0  0  0  0  0  0  0  0  0  0  0  0
  -26.0480  -38.3160   23.9220 H   0  0  0  0  0  0  0  0  0  0  0  0
  -28.9100  -22.8780   20.4230 O   0  0  0  0  0  0  0  0  0  0  0  0
  -28.3720  -21.5820   20.0450 C   0  0  0  0  0  2  0  0  0  0  0  0
  -29.4000  -20.4060   19.8200 C   0  0  0  0  0  2  0  0  0  0  0  0
  -29.3490  -19.2780   20.7360 O   0  0  0  0  0  0  0  0  0  0  0  0
  -29.7840  -18.0010   20.1830 C   0  0  0  0  0  2  0  0  0  0  0  0
  -30.1970  -16.9170   21.2400 C   0  0  0  0  0  2  0  0  0  0  0  0
  -29.7780  -15.5490   20.9980 O   0  0  0  0  0  0  0  0  0  0  0  0
  -30.6130  -14.5690   20.4860 C   0  0  0  0  0  0  0  0  0  0  0  0
  -30.3590  -12.3550   19.3530 C   0  0  0  0  0  2  0  0  0  0  0  0
  -29.4220  -12.5490   18.1410 C   0  0  0  0  0  2  0  0  0  0  0  0
  -27.9430  -12.4080   18.5590 C   0  0  0  0  0  2  0  0  0  0  0  0
  -27.5900  -13.2510   19.8140 C   0  0  0  0  0  3  0  0  0  0  0  0
  -28.6310  -13.0410   20.9330 C   0  0  0  0  0  2  0  0  0  0  0  0
  -29.9560  -13.3290   20.3760 N   0  0  0  0  0  0  0  0  0  0  0  0
  -31.7500  -14.7950   20.0640 O   0  0  0  0  0  0  0  0  0  0  0  0
  -25.1880  -13.8620   20.5000 C   0  0  0  0  0  0  0  0  0  0  0  0
  -24.1170  -13.0940   20.8650 C   0  0  0  0  0  0  0  0  0  0  0  0
  -24.5770  -11.7420   20.8520 C   0  0  0  0  0  0  0  0  0  0  0  0
  -26.2340  -12.9790   20.2830 N   0  0  0  0  0  0  0  0  0  0  0  0
  -25.8710  -11.6980   20.5550 N   0  0  0  0  0  0  0  0  0  0  0  0
  -23.8490  -10.4810   21.0480 C   0  0  0  0  0  0  0  0  0  0  0  0
  -24.2860   -9.5120   21.9780 C   0  0  0  0  0  3  0  0  0  0  0  0
  -23.5580   -8.3160   22.1610 C   0  0  0  0  0  3  0  0  0  0  0  0
  -22.3790   -8.0820   21.4130 C   0  0  0  0  0  0  0  0  0  0  0  0
  -21.9620   -9.0400   20.4730 C   0  0  0  0  0  3  0  0  0  0  0  0
  -22.6910  -10.2270   20.2880 C   0  0  0  0  0  3  0  0  0  0  0  0
  -21.6230   -6.9390   21.5050 O   0  0  0  0  0  0  0  0  0  0  0  0
  -21.5930   -6.1860   22.6520 C   0  0  0  0  0  0  0  0  0  0  0  0
  -21.2090   -6.7350   23.8940 C   0  0  0  0  0  3  0  0  0  0  0  0
  -21.1250   -5.9090   25.0330 C   0  0  0  0  0  3  0  0  0  0  0  0
  -21.4160   -4.5360   24.9310 C   0  0  0  0  0  0  0  0  0  0  0  0
  -21.7920   -3.9860   23.6930 C   0  0  0  0  0  3  0  0  0  0  0  0
  -21.8780   -4.8080   22.5560 C   0  0  0  0  0  0  0  0  0  0  0  0
  -22.2210   -4.2700   21.3610 F   0  0  0  0  0  0  0  0  0  0  0  0
  -21.3270   -3.7400   26.0220 F   0  0  0  0  0  0  0  0  0  0  0  0
  -22.7180  -13.5740   21.1220 C   0  0  0  0  0  0  0  0  0  0  0  0
  -21.9840  -12.8850   21.9900 N   0  0  0  0  0  0  0  0  0  0  0  0
  -22.2830  -14.5940   20.5890 O   0  0  0  0  0  0  0  0  0  0  0  0
  -22.3470  -12.0600   22.4420 H   0  0  0  0  0  0  0  0  0  0  0  0
  -21.0440  -13.1890   22.2050 H   0  0  0  0  0  0  0  0  0  0  0  0
  -25.3570  -15.2310   20.3150 N   0  0  0  0  0  0  0  0  0  0  0  0
  -24.5960  -15.8930   20.4210 H   0  0  0  0  0  0  0  0  0  0  0  0
  -26.2240  -15.6670   20.0240 H   0  0  0  0  0  0  0  0  0  0  0  0
  1 44  1  0
  1  2  1  0
  3  5  1  0
  3  2  1  0
  4 15  2  0
  5 10  1  0
  6 14  1  0
  6 16  1  0
  7 13  1  0
  7  9  1  0
  8 14  1  0
  9  8  1  0
 10  9  2  0
 11 12  1  0
 11  5  2  0
 12  7  2  0
 13  6  1  0
 14  4  1  0
 16 18  2  0
 17 16  1  0
 19 17  1  0
 20 29  2  0
 20 25  1  0
 21 17  1  0
 21 25  1  0
 22 21  1  0
 23 24  1  0
 23 22  1  0
 24 20  1  0
 25 26  2  0
 26 27  1  0
 28 27  2  0
 29 28  1  0
 30  4  1  0
 30 35  1  0
 30 31  1  0
 31 34  1  1
 31 32  1  0
 33 31  1  0
 35 38  1  0
 36 40  1  0
 36 35  1  0
 37 36  2  0
 40 39  1  0
 42 40  1  0
 42 43  1  0
 42 41  1  0
 45 44  1  0
 46 45  1  0
 46 47  1  0
 48 47  1  0
 48 49  1  0
 50 49  1  0
 51 50  1  0
 52 57  1  0
 53 54  1  0
 53 52  1  0
 55 54  1  0
 55 62  1  0
 55 56  1  0
 57 51  1  0
 57 56  1  0
 58 51  2  0
 59 60  2  0
 60 79  1  0
 61 60  1  0
 61 64  1  0
 62 59  1  0
 62 63  1  0
 63 61  2  0
 64 65  1  0
 65 66  2  0
 67 70  1  0
 67 66  1  0
 68 67  2  0
 69 68  1  0
 69 64  2  0
 70 71  1  0
 71 72  1  0
 72 73  2  0
 74 73  1  0
 74 78  1  0
 75 74  2  0
 76 71  2  0
 76 75  1  0
 77 76  1  0
 79 80  1  0
 80 83  1  0
 80 82  1  0
 81 79  2  0
 84 85  1  0
 84 59  1  0
 86 84  1  0
M  ISO  4   2 101   3 101  50 100  51 100
M  END
>  <TORSDO>  (63) 
F 24

>  <SCORE>  (63) 
-12.330

>  <name>  (63) 
65

>  <ligand_id>  (63) 
65

>  <original_smiles>  (63) 
[H]c1c([H])c([H])c2c(c1[H])C([H])([H])C([H])([H])C([H])([H])C2([H])N([H])C(=O)C1([H])N(C(=O)C([H])(N([H])C(=O)C([H])(N([H])C([H])([H])[H])C([H])([H])[H])C(C([H])([H])[H])(C([H])([H])[H])C([H])([H])[H])C([H])([H])c2c([H])c(OC([H])([H])C([H])([H])OC([H])([H])C([H])([H])OC([H])([H])C([H])([H])OC(=O)N3C([H])([H])C([H])([H])C([H])([H])C([H])(n4nc(-c5c([H])c([H])c(Oc6c([H])c([H])c(F)c([H])c6F)c([H])c5[H])c(C(=O)N([H])[H])c4N([H])[H])C3([H])[H])c([H])c([H])c2C1([H])[H]

>  <smiles>  (63) 
[H]c1c([H])c([H])c2c(c1[H])C([H])([H])C([H])([H])C([H])([H])C2([H])N([H])C(=O)C1([H])N(C(=O)C([H])(N([H])C(=O)C([H])(N([H])C([H])([H])[H])C([H])([H])[H])C(C([H])([H])[H])(C([H])([H])[H])C([H])([H])[H])C([H])([H])c2c([H])c(OC([H])([H])C([H])([H])OC([H])([H])C([H])([H])OC([H])([H])C([H])([H])OC(=O)N3C([H])([H])C([H])([H])C([H])([H])C([H])(n4nc(-c5c([H])c([H])c(Oc6c([H])c([H])c(F)c([H])c6F)c([H])c5[H])c(C(=O)N([H])[H])c4N([H])[H])C3([H])[H])c([H])c([H])c2C1([H])[H]

$$$$
66:0:0
     RDKit          3D

 94101  0  0  1  0  0  0  0  0999 V2000
  -25.2700  -24.0230   22.8930 C   0  0  0  0  0  2  0  0  0  0  0  0
  -25.2760  -25.2760   23.7900 C   0  0  0  0  0  2  0  0  0  0  0  0
  -26.6950  -25.7760   24.1150 C   0  0  0  0  0  2  0  0  0  0  0  0
  -27.4600  -25.9430   22.9220 O   0  0  0  0  0  0  0  0  0  0  0  0
  -28.8620  -25.9750   23.1820 C   0  0  0  0  0  2  0  0  0  0  0  0
  -29.7000  -26.0700   21.8860 C   0  0  0  0  0  2  0  0  0  0  0  0
  -29.6260  -27.3500   21.2590 O   0  0  0  0  0  0  0  0  0  0  0  0
  -25.1190  -32.1900   23.7890 C   0  0  0  0  0  0  0  0  0  0  0  0
  -28.3840  -27.9210   21.1370 C   0  0  0  0  0  0  0  0  0  0  0  0
  -24.2000  -30.6480   22.1090 C   0  0  0  0  0  3  0  0  0  0  0  0
  -25.8800  -29.1890   20.8660 C   0  0  0  0  0  0  0  0  0  0  0  0
  -26.6760  -31.2210   22.0950 C   0  0  0  0  0  2  0  0  0  0  0  0
  -26.9270  -29.8420   21.5270 C   0  0  0  0  0  0  0  0  0  0  0  0
  -28.1840  -29.2170   21.6520 C   0  0  0  0  0  3  0  0  0  0  0  0
  -27.3260  -27.2700   20.4660 C   0  0  0  0  0  3  0  0  0  0  0  0
  -26.0720  -27.9030   20.3290 C   0  0  0  0  0  3  0  0  0  0  0  0
  -24.5710  -29.9410   20.7730 C   0  0  0  0  0  2  0  0  0  0  0  0
  -25.3450  -31.3700   22.7250 N   0  0  0  0  0  0  0  0  0  0  0  0
  -23.9730  -32.3850   24.2190 O   0  0  0  0  0  0  0  0  0  0  0  0
  -23.5500  -29.6140   23.0530 C   0  0  0  0  0  0  0  0  0  0  0  0
  -22.3350  -29.2560   22.6590 N   0  0  0  0  0  0  0  0  0  0  0  0
  -24.1330  -29.1420   24.0320 O   0  0  0  0  0  0  0  0  0  0  0  0
  -21.9700  -29.8110   21.8970 H   0  0  0  0  0  0  0  0  0  0  0  0
  -19.1910  -27.2350   22.6500 C   0  0  0  0  0  0  0  0  0  0  0  0
  -21.5220  -28.1040   22.9580 C   0  0  0  0  0  3  0  0  0  0  0  0
  -22.0770  -26.6780   22.9500 C   0  0  0  0  0  2  0  0  0  0  0  0
  -21.2720  -25.8520   21.9230 C   0  0  0  0  0  2  0  0  0  0  0  0
  -19.7510  -25.8850   22.1940 C   0  0  0  0  0  2  0  0  0  0  0  0
  -20.0350  -28.2680   23.1260 C   0  0  0  0  0  0  0  0  0  0  0  0
  -19.4850  -29.4950   23.5530 C   0  0  0  0  0  3  0  0  0  0  0  0
  -18.0990  -29.7160   23.4560 C   0  0  0  0  0  3  0  0  0  0  0  0
  -17.2600  -28.7030   22.9520 C   0  0  0  0  0  3  0  0  0  0  0  0
  -17.8050  -27.4650   22.5650 C   0  0  0  0  0  3  0  0  0  0  0  0
  -26.2850  -32.9390   24.4970 C   0  0  0  0  0  3  0  0  0  0  0  0
  -25.9120  -34.3560   24.5710 N   0  0  0  0  0  0  0  0  0  0  0  0
  -26.3500  -35.3000   23.7270 C   0  0  0  0  0  0  0  0  0  0  0  0
  -27.1790  -35.0740   22.8420 O   0  0  0  0  0  0  0  0  0  0  0  0
  -25.1860  -34.5990   25.2280 H   0  0  0  0  0  0  0  0  0  0  0  0
  -24.6850  -36.9660   22.8430 C   0  0  0  0  0  1  0  0  0  0  0  0
  -25.7780  -36.7200   23.8940 C   0  0  0  0  0  3  0  0  0  0  0  0
  -27.7580  -37.7650   24.9050 C   0  0  0  0  0  1  0  0  0  0  0  0
  -26.8050  -37.7810   23.7990 N   0  0  0  0  0  0  0  0  0  0  0  0
  -26.3710  -38.6990   23.7670 H   0  0  0  0  0  0  0  0  0  0  0  0
  -26.6070  -32.3620   25.9310 C   0  0  1  0  0  0  0  0  0  0  0  0
  -25.3560  -32.1580   26.8180 C   0  0  0  0  0  1  0  0  0  0  0  0
  -27.3360  -31.0020   25.8190 C   0  0  0  0  0  1  0  0  0  0  0  0
  -27.5630  -33.3230   26.6740 C   0  0  0  0  0  1  0  0  0  0  0  0
  -23.8560  -23.5790   22.4650 C   0  0  0  0  0  2  0  0  0  0  0  0
  -23.7730  -22.8510   21.1030 C   0  0  0  0  0  2  0  0  0  0  0  0
  -23.7480  -23.7770   19.8670 C   0  0  0  0  0  2  0  0  0  0  0  0
  -24.9670  -23.7750   19.1290 O   0  0  0  0  0  0  0  0  0  0  0  0
  -25.5610  -25.0590   18.9810 C   0  0  0  0  0  2  0  0  0  0  0  0
  -26.9300  -24.9430   18.3140 C   0  0  0  0  0  2  0  0  0  0  0  0
  -27.8210  -24.1810   19.1170 O   0  0  0  0  0  0  0  0  0  0  0  0
  -29.1310  -24.1950   18.5730 C   0  0  0  0  0  2  0  0  0  0  0  0
  -30.0070  -23.1070   19.2280 C   0  0  0  0  0  2  0  0  0  0  0  0
  -32.3750  -22.7510   20.0900 C   0  0  0  0  0  0  0  0  0  0  0  0
  -33.4140  -20.5220   20.0610 C   0  0  0  0  0  2  0  0  0  0  0  0
  -33.1360  -19.8310   18.7130 C   0  0  0  0  0  2  0  0  0  0  0  0
  -31.7920  -19.0760   18.7530 C   0  0  0  0  0  2  0  0  0  0  0  0
  -30.6340  -19.9470   19.3050 C   0  0  0  0  0  3  0  0  0  0  0  0
  -31.0610  -20.6480   20.6180 C   0  0  0  0  0  2  0  0  0  0  0  0
  -32.2840  -21.4180   20.3410 N   0  0  0  0  0  0  0  0  0  0  0  0
  -33.4410  -23.3410   19.9220 O   0  0  0  0  0  0  0  0  0  0  0  0
  -31.2370  -23.4580   19.9580 N   0  0  0  0  0  0  0  0  0  0  0  0
  -31.4090  -24.4520   19.9720 H   0  0  0  0  0  0  0  0  0  0  0  0
  -28.0860  -19.6120   19.4550 C   0  0  0  0  0  0  0  0  0  0  0  0
  -27.3240  -18.4840   19.5860 C   0  0  0  0  0  0  0  0  0  0  0  0
  -28.2430  -17.3940   19.6660 C   0  0  0  0  0  0  0  0  0  0  0  0
  -29.4050  -19.1810   19.4720 N   0  0  0  0  0  0  0  0  0  0  0  0
  -29.4920  -17.8410   19.6550 N   0  0  0  0  0  0  0  0  0  0  0  0
  -28.0120  -15.9460   19.6950 C   0  0  0  0  0  0  0  0  0  0  0  0
  -28.2810  -15.1810   20.8520 C   0  0  0  0  0  3  0  0  0  0  0  0
  -28.0370  -13.7910   20.8620 C   0  0  0  0  0  3  0  0  0  0  0  0
  -27.5160  -13.1540   19.7100 C   0  0  0  0  0  0  0  0  0  0  0  0
  -27.2700  -13.9180   18.5560 C   0  0  0  0  0  3  0  0  0  0  0  0
  -27.5170  -15.2990   18.5460 C   0  0  0  0  0  3  0  0  0  0  0  0
  -27.2720  -11.8060   19.6200 O   0  0  0  0  0  0  0  0  0  0  0  0
  -26.7140  -11.1050   20.6590 C   0  0  0  0  0  0  0  0  0  0  0  0
  -25.4260  -11.4080   21.1550 C   0  0  0  0  0  3  0  0  0  0  0  0
  -24.8630  -10.6200   22.1790 C   0  0  0  0  0  3  0  0  0  0  0  0
  -25.5800   -9.5260   22.7000 C   0  0  0  0  0  0  0  0  0  0  0  0
  -26.8600   -9.2200   22.2040 C   0  0  0  0  0  3  0  0  0  0  0  0
  -27.4240  -10.0090   21.1850 C   0  0  0  0  0  0  0  0  0  0  0  0
  -28.6480   -9.6990   20.6950 F   0  0  0  0  0  0  0  0  0  0  0  0
  -25.0380   -8.7620   23.6770 F   0  0  0  0  0  0  0  0  0  0  0  0
  -25.8230  -18.4050   19.5430 C   0  0  0  0  0  0  0  0  0  0  0  0
  -25.2450  -17.4060   20.2000 N   0  0  0  0  0  0  0  0  0  0  0  0
  -25.1540  -19.2600   18.9640 O   0  0  0  0  0  0  0  0  0  0  0  0
  -25.7950  -16.7140   20.6860 H   0  0  0  0  0  0  0  0  0  0  0  0
  -24.2370  -17.3340   20.2170 H   0  0  0  0  0  0  0  0  0  0  0  0
  -27.7690  -20.9580   19.3000 N   0  0  0  0  0  0  0  0  0  0  0  0
  -26.8130  -21.2810   19.2250 H   0  0  0  0  0  0  0  0  0  0  0  0
  -28.4520  -21.6890   19.1610 H   0  0  0  0  0  0  0  0  0  0  0  0
  1  2  1  0
  2  3  1  0
  4  5  1  0
  4  3  1  0
  6  5  1  0
  7  6  1  0
  8 19  2  0
  9  7  1  0
  9 14  1  0
 10 18  1  0
 10 20  1  0
 11 13  1  0
 12 18  1  0
 13 14  2  0
 13 12  1  0
 15  9  2  0
 16 15  1  0
 16 11  2  0
 17 11  1  0
 17 10  1  0
 18  8  1  0
 20 22  2  0
 21 20  1  0
 23 21  1  0
 24 29  1  0
 25 21  1  0
 25 29  1  0
 26 25  1  0
 27 28  1  0
 27 26  1  0
 28 24  1  0
 29 30  2  0
 31 30  1  0
 32 31  2  0
 33 24  2  0
 33 32  1  0
 34  8  1  0
 34 35  1  0
 34 44  1  0
 35 38  1  0
 36 40  1  0
 36 35  1  0
 37 36  2  0
 40 39  1  0
 42 40  1  0
 42 41  1  0
 43 42  1  0
 44 47  1  1
 44 45  1  0
 46 44  1  0
 48  1  1  0
 49 48  1  0
 50 49  1  0
 51 50  1  0
 52 51  1  0
 53 52  1  0
 53 54  1  0
 55 54  1  0
 55 56  1  0
 56 65  1  0
 57 63  1  0
 58 63  1  0
 59 60  1  0
 59 58  1  0
 61 60  1  0
 61 70  1  0
 61 62  1  0
 63 62  1  0
 64 57  2  0
 65 66  1  0
 65 57  1  0
 67 70  1  0
 67 68  2  0
 68 69  1  0
 69 72  1  0
 70 71  1  0
 71 69  2  0
 72 73  1  0
 73 74  2  0
 75 74  1  0
 76 75  2  0
 77 76  1  0
 77 72  2  0
 78 75  1  0
 78 79  1  0
 79 80  2  0
 79 84  1  0
 80 81  1  0
 81 82  2  0
 82 86  1  0
 83 82  1  0
 84 83  2  0
 85 84  1  0
 87 68  1  0
 87 88  1  0
 88 91  1  0
 88 90  1  0
 89 87  2  0
 92 67  1  0
 93 92  1  0
 94 92  1  0
M  ISO  4   6 101   7 101  57 100  65 100
M  END
>  <TORSDO>  (64) 
F 30

>  <SCORE>  (64) 
-3.822

>  <name>  (64) 
66

>  <ligand_id>  (64) 
66

>  <original_smiles>  (64) 
[H]c1c([H])c([H])c2c(c1[H])C([H])([H])C([H])([H])C([H])([H])C2([H])N([H])C(=O)C1([H])N(C(=O)C([H])(N([H])C(=O)C([H])(N([H])C([H])([H])[H])C([H])([H])[H])C(C([H])([H])[H])(C([H])([H])[H])C([H])([H])[H])C([H])([H])c2c([H])c(OC([H])([H])C([H])([H])OC([H])([H])C([H])([H])C([H])([H])C([H])([H])C([H])([H])C([H])([H])OC([H])([H])C([H])([H])OC([H])([H])C([H])([H])N([H])C(=O)N3C([H])([H])C([H])([H])C([H])([H])C([H])(n4nc(-c5c([H])c([H])c(Oc6c([H])c([H])c(F)c([H])c6F)c([H])c5[H])c(C(=O)N([H])[H])c4N([H])[H])C3([H])[H])c([H])c([H])c2C1([H])[H]

>  <smiles>  (64) 
[H]c1c([H])c([H])c2c(c1[H])C([H])([H])C([H])([H])C([H])([H])C2([H])N([H])C(=O)C1([H])N(C(=O)C([H])(N([H])C(=O)C([H])(N([H])C([H])([H])[H])C([H])([H])[H])C(C([H])([H])[H])(C([H])([H])[H])C([H])([H])[H])C([H])([H])c2c([H])c(OC([H])([H])C([H])([H])OC([H])([H])C([H])([H])C([H])([H])C([H])([H])C([H])([H])C([H])([H])OC([H])([H])C([H])([H])OC([H])([H])C([H])([H])N([H])C(=O)N3C([H])([H])C([H])([H])C([H])([H])C([H])(n4nc(-c5c([H])c([H])c(Oc6c([H])c([H])c(F)c([H])c6F)c([H])c5[H])c(C(=O)N([H])[H])c4N([H])[H])C3([H])[H])c([H])c([H])c2C1([H])[H]

$$$$
67:0:0
     RDKit          3D

 81 85  0  0  1  0  0  0  0  0999 V2000
  -28.1090  -24.6470   20.3000 O   0  0  0  0  0  1  0  0  0  0  0  0
  -24.7100  -31.7810   23.1610 C   0  0  0  0  0  0  0  0  0  0  0  0
  -27.2070  -26.1440   20.2640 C   0  0  0  0  0  0  0  0  0  0  0  0
  -23.5560  -30.3680   21.5220 C   0  0  0  0  0  3  0  0  0  0  0  0
  -25.0090  -28.5810   20.1690 C   0  0  0  0  0  0  0  0  0  0  0  0
  -26.1560  -30.3130   21.5020 C   0  0  0  0  0  2  0  0  0  0  0  0
  -26.2110  -28.8120   20.8490 C   0  0  0  0  0  0  0  0  0  0  0  0
  -27.2590  -27.6460   20.8460 C   0  0  0  0  0  3  0  0  0  0  0  0
  -25.9680  -26.2870   19.5230 C   0  0  0  0  0  3  0  0  0  0  0  0
  -24.9660  -27.3480   19.4800 C   0  0  0  0  0  3  0  0  0  0  0  0
  -23.8360  -29.6140   20.1780 C   0  0  0  0  0  2  0  0  0  0  0  0
  -24.8390  -30.8700   22.1140 N   0  0  0  0  0  0  0  0  0  0  0  0
  -23.6010  -32.1150   23.6230 O   0  0  0  0  0  0  0  0  0  0  0  0
  -22.7620  -29.4580   22.5040 C   0  0  0  0  0  0  0  0  0  0  0  0
  -21.4220  -29.3560   22.3730 N   0  0  0  0  0  0  0  0  0  0  0  0
  -23.3780  -28.8290   23.3670 O   0  0  0  0  0  0  0  0  0  0  0  0
  -20.9670  -29.9120   21.6630 H   0  0  0  0  0  0  0  0  0  0  0  0
  -17.9970  -28.2130   22.9010 C   0  0  0  0  0  0  0  0  0  0  0  0
  -20.5670  -28.4380   23.1430 C   0  0  0  0  0  3  0  0  0  0  0  0
  -20.6330  -27.0060   22.5600 C   0  0  0  0  0  2  0  0  0  0  0  0
  -19.5210  -26.7160   21.5460 C   0  0  0  0  0  2  0  0  0  0  0  0
  -18.1460  -26.8740   22.1990 C   0  0  0  0  0  2  0  0  0  0  0  0
  -19.1320  -28.9550   23.3290 C   0  0  0  0  0  0  0  0  0  0  0  0
  -18.9320  -30.2040   23.9560 C   0  0  0  0  0  3  0  0  0  0  0  0
  -17.6350  -30.7130   24.1530 C   0  0  0  0  0  3  0  0  0  0  0  0
  -16.5160  -29.9710   23.7350 C   0  0  0  0  0  3  0  0  0  0  0  0
  -16.6980  -28.7220   23.1160 C   0  0  0  0  0  3  0  0  0  0  0  0
  -25.9400  -32.4590   23.8420 C   0  0  0  0  0  3  0  0  0  0  0  0
  -25.5980  -33.8650   24.1720 N   0  0  0  0  0  0  0  0  0  0  0  0
  -25.9200  -34.9450   23.4450 C   0  0  0  0  0  0  0  0  0  0  0  0
  -26.5760  -34.8640   22.4040 O   0  0  0  0  0  0  0  0  0  0  0  0
  -25.0070  -33.9990   24.9800 H   0  0  0  0  0  0  0  0  0  0  0  0
  -24.1680  -36.7480   23.1980 C   0  0  0  0  0  1  0  0  0  0  0  0
  -25.4480  -36.3330   23.9420 C   0  0  0  0  0  3  0  0  0  0  0  0
  -27.6060  -37.2470   24.6880 C   0  0  0  0  0  1  0  0  0  0  0  0
  -26.4650  -37.3980   23.7880 N   0  0  0  0  0  0  0  0  0  0  0  0
  -26.0550  -38.3150   23.9480 H   0  0  0  0  0  0  0  0  0  0  0  0
  -26.3960  -31.7200   25.1620 C   0  0  1  0  0  0  0  0  0  0  0  0
  -25.2580  -31.5140   26.1910 C   0  0  0  0  0  1  0  0  0  0  0  0
  -26.9880  -30.3300   24.8490 C   0  0  0  0  0  1  0  0  0  0  0  0
  -27.5230  -32.5250   25.8520 C   0  0  0  0  0  1  0  0  0  0  0  0
  -28.1400  -22.5480   20.1630 C   0  0  0  0  0 15  0  0  0  0  0  0
  -29.1420  -20.4180   20.2160 C   0  0  0  0  0 15  0  0  0  0  0  0
  -29.9010  -16.6470   20.0860 C   0  0  0  0  0  0  0  0  0  0  0  0
  -30.2300  -13.8900   19.2940 C   0  0  0  0  0  2  0  0  0  0  0  0
  -29.4480  -13.0530   18.1990 C   0  0  0  0  0  2  0  0  0  0  0  0
  -28.1340  -12.4820   18.7300 C   0  0  0  0  0  2  0  0  0  0  0  0
  -27.5010  -13.5140   19.6750 C   0  0  0  0  0  3  0  0  0  0  0  0
  -28.4750  -14.2100   20.6950 C   0  0  0  0  0  2  0  0  0  0  0  0
  -29.4550  -15.1290   19.9600 N   0  0  0  0  0  0  0  0  0  0  0  0
  -31.1430  -16.3980   20.0040 O   0  0  0  0  0  0  0  0  0  0  0  0
  -29.2570  -18.3100   20.1340 N   0  0  0  0  0  2  0  0  0  0  0  0
  -30.2580  -18.4710   20.1320 H   0  0  0  0  0  0  0  0  0  0  0  0
  -25.1600  -13.9200   20.5080 C   0  0  0  0  0  0  0  0  0  0  0  0
  -24.1280  -13.1120   20.8810 C   0  0  0  0  0  0  0  0  0  0  0  0
  -24.6260  -11.7720   20.8220 C   0  0  0  0  0  0  0  0  0  0  0  0
  -26.2240  -13.0860   20.2420 N   0  0  0  0  0  0  0  0  0  0  0  0
  -25.9190  -11.7780   20.4820 N   0  0  0  0  0  0  0  0  0  0  0  0
  -23.9140  -10.4950   21.0120 C   0  0  0  0  0  0  0  0  0  0  0  0
  -24.3570   -9.5290   21.9420 C   0  0  0  0  0  3  0  0  0  0  0  0
  -23.6350   -8.3280   22.1300 C   0  0  0  0  0  3  0  0  0  0  0  0
  -22.4560   -8.0830   21.3870 C   0  0  0  0  0  0  0  0  0  0  0  0
  -22.0290   -9.0390   20.4470 C   0  0  0  0  0  3  0  0  0  0  0  0
  -22.7510  -10.2310   20.2590 C   0  0  0  0  0  3  0  0  0  0  0  0
  -21.7070   -6.9350   21.4820 O   0  0  0  0  0  0  0  0  0  0  0  0
  -21.6700   -6.1910   22.6350 C   0  0  0  0  0  0  0  0  0  0  0  0
  -21.2140   -6.7320   23.8560 C   0  0  0  0  0  3  0  0  0  0  0  0
  -21.1260   -5.9140   25.0000 C   0  0  0  0  0  3  0  0  0  0  0  0
  -21.4850   -4.5540   24.9250 C   0  0  0  0  0  0  0  0  0  0  0  0
  -21.9340   -4.0110   23.7070 C   0  0  0  0  0  3  0  0  0  0  0  0
  -22.0220   -4.8270   22.5660 C   0  0  0  0  0  0  0  0  0  0  0  0
  -22.4340   -4.2930   21.3900 F   0  0  0  0  0  0  0  0  0  0  0  0
  -21.3950   -3.7660   26.0220 F   0  0  0  0  0  0  0  0  0  0  0  0
  -22.7270  -13.5620   21.1730 C   0  0  0  0  0  0  0  0  0  0  0  0
  -22.0260  -12.8570   22.0520 N   0  0  0  0  0  0  0  0  0  0  0  0
  -22.2670  -14.5820   20.6590 O   0  0  0  0  0  0  0  0  0  0  0  0
  -22.4140  -12.0340   22.4890 H   0  0  0  0  0  0  0  0  0  0  0  0
  -21.0880  -13.1430   22.2910 H   0  0  0  0  0  0  0  0  0  0  0  0
  -25.2790  -15.2960   20.3350 N   0  0  0  0  0  0  0  0  0  0  0  0
  -24.4980  -15.9290   20.4650 H   0  0  0  0  0  0  0  0  0  0  0  0
  -26.1180  -15.7610   20.0090 H   0  0  0  0  0  0  0  0  0  0  0  0
  2 13  2  0
  3  1  1  0
  3  8  1  0
  4 12  1  0
  4 14  1  0
  5 11  1  0
  5  7  1  0
  6 12  1  0
  7  6  1  0
  8  7  2  0
  9  3  2  0
 10  9  1  0
 10  5  2  0
 11  4  1  0
 12  2  1  0
 14 16  2  0
 15 14  1  0
 17 15  1  0
 18 27  2  0
 18 23  1  0
 19 15  1  0
 19 23  1  0
 20 19  1  0
 21 22  1  0
 21 20  1  0
 22 18  1  0
 23 24  2  0
 24 25  1  0
 26 25  2  0
 27 26  1  0
 28  2  1  0
 28 29  1  0
 28 38  1  0
 29 32  1  0
 30 34  1  0
 30 29  1  0
 31 30  2  0
 34 33  1  0
 36 34  1  0
 36 37  1  0
 36 35  1  0
 38 41  1  1
 38 39  1  0
 40 38  1  0
 44 52  1  0
 45 50  1  0
 46 47  1  0
 46 45  1  0
 48 47  1  0
 48 57  1  0
 48 49  1  0
 50 44  1  0
 50 49  1  0
 51 44  2  0
 53 52  1  0
 54 55  2  0
 55 74  1  0
 56 55  1  0
 56 59  1  0
 57 58  1  0
 57 54  1  0
 58 56  2  0
 59 60  1  0
 60 61  2  0
 62 65  1  0
 62 61  1  0
 63 62  2  0
 64 63  1  0
 64 59  2  0
 65 66  1  0
 66 67  1  0
 67 68  2  0
 69 68  1  0
 69 73  1  0
 70 69  2  0
 71 66  2  0
 71 70  1  0
 72 71  1  0
 74 75  1  0
 75 78  1  0
 75 77  1  0
 76 74  2  0
 79 80  1  0
 79 54  1  0
 81 79  1  0
M  ISO  4   1 101  42 101  44 100  52 100
M  END
>  <TORSDO>  (65) 
F 17

>  <SCORE>  (65) 
-16.141

>  <name>  (65) 
67

>  <ligand_id>  (65) 
67

>  <original_smiles>  (65) 
[H]c1c([H])c([H])c2c(c1[H])C([H])([H])C([H])([H])C([H])([H])C2([H])N([H])C(=O)C1([H])N(C(=O)C([H])(N([H])C(=O)C([H])(N([H])C([H])([H])[H])C([H])([H])[H])C(C([H])([H])[H])(C([H])([H])[H])C([H])([H])[H])C([H])([H])c2c([H])c(OC([H])([H])C([H])([H])N([H])C(=O)N3C([H])([H])C([H])([H])C([H])([H])C([H])(n4nc(-c5c([H])c([H])c(Oc6c([H])c([H])c(F)c([H])c6F)c([H])c5[H])c(C(=O)N([H])[H])c4N([H])[H])C3([H])[H])c([H])c([H])c2C1([H])[H]

>  <smiles>  (65) 
[H]c1c([H])c([H])c2c(c1[H])C([H])([H])C([H])([H])C([H])([H])C2([H])N([H])C(=O)C1([H])N(C(=O)C([H])(N([H])C(=O)C([H])(N([H])C([H])([H])[H])C([H])([H])[H])C(C([H])([H])[H])(C([H])([H])[H])C([H])([H])[H])C([H])([H])c2c([H])c(OC([H])([H])C([H])([H])N([H])C(=O)N3C([H])([H])C([H])([H])C([H])([H])C([H])(n4nc(-c5c([H])c([H])c(Oc6c([H])c([H])c(F)c([H])c6F)c([H])c5[H])c(C(=O)N([H])[H])c4N([H])[H])C3([H])[H])c([H])c([H])c2C1([H])[H]

$$$$
69:0:0
     RDKit          3D

109118  0  0  1  0  0  0  0  0999 V2000
  -25.6900  -27.2140   26.9040 C   0  0  0  0  0  0  0  0  0  0  0  0
  -22.0930  -26.6580   26.7830 C   0  0  0  0  0  2  0  0  0  0  0  0
  -22.5250  -25.5600   25.8370 C   0  0  0  0  0  2  0  0  0  0  0  0
  -23.1960  -27.7140   26.6660 C   0  0  0  0  0  3  0  0  0  0  0  0
  -24.0540  -25.6740   25.7530 C   0  0  0  0  0  3  0  0  0  0  0  0
  -24.4360  -26.9390   26.4350 N   0  0  0  0  0  0  0  0  0  0  0  0
  -26.6240  -26.3580   26.4860 N   0  0  0  0  0  0  0  0  0  0  0  0
  -25.9920  -28.1530   27.6330 O   0  0  0  0  0  0  0  0  0  0  0  0
  -26.3310  -25.7490   25.7240 H   0  0  0  0  0  0  0  0  0  0  0  0
  -22.6710  -30.5220   29.9590 C   0  0  0  0  0  3  0  0  0  0  0  0
  -22.3500  -30.9040   28.6390 C   0  0  0  0  0  3  0  0  0  0  0  0
  -23.1730  -29.2340   30.2100 C   0  0  0  0  0  3  0  0  0  0  0  0
  -22.5720  -30.0010   27.5770 C   0  0  0  0  0  3  0  0  0  0  0  0
  -23.3620  -28.3200   29.1560 C   0  0  0  0  0  3  0  0  0  0  0  0
  -23.0790  -28.7040   27.8260 C   0  0  0  0  0  0  0  0  0  0  0  0
  -28.0190  -26.2540   26.8750 C   0  0  0  0  0  2  0  0  0  0  0  0
  -28.2690  -24.8760   27.5220 C   0  0  0  0  0  2  0  0  0  0  0  0
  -27.9630  -23.8000   26.6280 O   0  0  0  0  0  0  0  0  0  0  0  0
  -29.0250  -23.4710   25.7350 C   0  0  0  0  0  2  0  0  0  0  0  0
  -28.6690  -22.2490   24.8670 C   0  0  0  0  0  2  0  0  0  0  0  0
  -29.7650  -21.9940   24.0000 O   0  0  0  0  0  0  0  0  0  0  0  0
  -29.5070  -21.0600   22.9570 C   0  0  0  0  0  2  0  0  0  0  0  0
  -29.4260  -19.6000   23.4430 C   0  0  0  0  0  2  0  0  0  0  0  0
  -29.8120  -18.7450   22.3700 O   0  0  0  0  0  0  0  0  0  0  0  0
  -29.8010  -17.3560   22.6790 C   0  0  0  0  0  2  0  0  0  0  0  0
  -30.4070  -16.6120   21.4820 C   0  0  0  0  0  2  0  0  0  0  0  0
  -30.0660  -15.2330   21.4760 O   0  0  0  0  0  0  0  0  0  0  0  0
  -30.7290  -14.3940   20.6500 C   0  0  0  0  0  0  0  0  0  0  0  0
  -30.4170  -12.2650   19.4060 C   0  0  0  0  0  2  0  0  0  0  0  0
  -29.4880  -12.5090   18.2050 C   0  0  0  0  0  2  0  0  0  0  0  0
  -28.0140  -12.3500   18.6200 C   0  0  0  0  0  2  0  0  0  0  0  0
  -27.6620  -13.1900   19.8800 C   0  0  0  0  0  3  0  0  0  0  0  0
  -28.6860  -12.9280   21.0050 C   0  0  0  0  0  2  0  0  0  0  0  0
  -30.0260  -13.2000   20.4660 N   0  0  0  0  0  0  0  0  0  0  0  0
  -31.7840  -14.6900   20.0790 O   0  0  0  0  0  0  0  0  0  0  0  0
  -25.2560  -13.8150   20.5590 C   0  0  0  0  0  0  0  0  0  0  0  0
  -24.1810  -13.0440   20.9120 C   0  0  0  0  0  0  0  0  0  0  0  0
  -24.6350  -11.6910   20.8760 C   0  0  0  0  0  0  0  0  0  0  0  0
  -26.2990  -12.9290   20.3320 N   0  0  0  0  0  0  0  0  0  0  0  0
  -25.9270  -11.6480   20.5770 N   0  0  0  0  0  0  0  0  0  0  0  0
  -23.9060  -10.4290   21.0440 C   0  0  0  0  0  0  0  0  0  0  0  0
  -24.3610   -9.4180   21.9210 C   0  0  0  0  0  3  0  0  0  0  0  0
  -23.6270   -8.2240   22.0800 C   0  0  0  0  0  3  0  0  0  0  0  0
  -22.4260   -8.0290   21.3550 C   0  0  0  0  0  0  0  0  0  0  0  0
  -21.9900   -9.0300   20.4700 C   0  0  0  0  0  3  0  0  0  0  0  0
  -22.7240  -10.2160   20.3090 C   0  0  0  0  0  3  0  0  0  0  0  0
  -21.6620   -6.8890   21.4250 O   0  0  0  0  0  0  0  0  0  0  0  0
  -21.6850   -6.0740   22.5270 C   0  0  0  0  0  0  0  0  0  0  0  0
  -21.4020   -6.5640   23.8220 C   0  0  0  0  0  3  0  0  0  0  0  0
  -21.3660   -5.6780   24.9180 C   0  0  0  0  0  3  0  0  0  0  0  0
  -21.6030   -4.3050   24.7220 C   0  0  0  0  0  0  0  0  0  0  0  0
  -21.8820   -3.8140   23.4350 C   0  0  0  0  0  3  0  0  0  0  0  0
  -21.9180   -4.6970   22.3400 C   0  0  0  0  0  0  0  0  0  0  0  0
  -22.1620   -4.2140   21.0980 F   0  0  0  0  0  0  0  0  0  0  0  0
  -21.5630   -3.4530   25.7750 F   0  0  0  0  0  0  0  0  0  0  0  0
  -22.7820  -13.5280   21.1800 C   0  0  0  0  0  0  0  0  0  0  0  0
  -22.0460  -12.8320   22.0390 N   0  0  0  0  0  0  0  0  0  0  0  0
  -22.3510  -14.5540   20.6600 O   0  0  0  0  0  0  0  0  0  0  0  0
  -22.4000  -11.9930   22.4750 H   0  0  0  0  0  0  0  0  0  0  0  0
  -21.1140  -13.1430   22.2670 H   0  0  0  0  0  0  0  0  0  0  0  0
  -25.4330  -15.1880   20.3980 N   0  0  0  0  0  0  0  0  0  0  0  0
  -24.6770  -15.8540   20.5160 H   0  0  0  0  0  0  0  0  0  0  0  0
  -26.3030  -15.6240   20.1110 H   0  0  0  0  0  0  0  0  0  0  0  0
  -24.5000  -25.5710   24.2650 C   0  0  0  0  0  2  0  0  0  0  0  0
  -25.9120  -25.6870   24.1300 O   0  0  0  0  0  0  0  0  0  0  0  0
  -26.5910  -24.8020   23.2460 C   0  0  0  0  0  2  0  0  0  0  0  0
  -26.7840  -25.4040   21.8530 C   0  0  0  0  0  2  0  0  0  0  0  0
  -28.2000  -25.9900   21.5380 C   0  0  0  0  0  2  0  0  0  0  0  0
  -28.2980  -26.6600   20.2600 O   0  0  0  0  0  0  0  0  0  0  0  0
  -24.6160  -31.8580   23.2120 C   0  0  0  0  0  0  0  0  0  0  0  0
  -27.2490  -27.5110   20.0770 C   0  0  0  0  0  0  0  0  0  0  0  0
  -23.3950  -30.4940   21.5290 C   0  0  0  0  0  3  0  0  0  0  0  0
  -24.8610  -28.9890   20.0710 C   0  0  0  0  0  0  0  0  0  0  0  0
  -25.9180  -30.8580   21.3600 C   0  0  0  0  0  2  0  0  0  0  0  0
  -26.0060  -29.5100   20.6910 C   0  0  0  0  0  0  0  0  0  0  0  0
  -27.2030  -28.7720   20.7120 C   0  0  0  0  0  3  0  0  0  0  0  0
  -26.1220  -27.0300   19.3820 C   0  0  0  0  0  3  0  0  0  0  0  0
  -24.9190  -27.7540   19.4010 C   0  0  0  0  0  3  0  0  0  0  0  0
  -23.6050  -29.8210   20.1420 C   0  0  0  0  0  2  0  0  0  0  0  0
  -24.6580  -31.0760   22.0950 N   0  0  0  0  0  0  0  0  0  0  0  0
  -23.5410  -32.1340   23.7600 O   0  0  0  0  0  0  0  0  0  0  0  0
  -22.7390  -29.4740   22.4770 C   0  0  0  0  0  0  0  0  0  0  0  0
  -21.4150  -29.3030   22.3450 N   0  0  0  0  0  0  0  0  0  0  0  0
  -23.4170  -28.8400   23.2840 O   0  0  0  0  0  0  0  0  0  0  0  0
  -20.9520  -29.8020   21.5980 H   0  0  0  0  0  0  0  0  0  0  0  0
  -18.0360  -28.1470   22.8390 C   0  0  0  0  0  0  0  0  0  0  0  0
  -20.5890  -28.3810   23.1220 C   0  0  0  0  0  3  0  0  0  0  0  0
  -20.6890  -26.9540   22.5440 C   0  0  0  0  0  2  0  0  0  0  0  0
  -19.5960  -26.6490   21.5210 C   0  0  0  0  0  2  0  0  0  0  0  0
  -18.2070  -26.8080   22.1440 C   0  0  0  0  0  2  0  0  0  0  0  0
  -19.1560  -28.8980   23.2800 C   0  0  0  0  0  0  0  0  0  0  0  0
  -18.9430  -30.1530   23.8930 C   0  0  0  0  0  3  0  0  0  0  0  0
  -17.6390  -30.6600   24.0660 C   0  0  0  0  0  3  0  0  0  0  0  0
  -16.5340  -29.9100   23.6260 C   0  0  0  0  0  3  0  0  0  0  0  0
  -16.7330  -28.6520   23.0290 C   0  0  0  0  0  3  0  0  0  0  0  0
  -25.9150  -32.4700   23.8360 C   0  0  0  0  0  3  0  0  0  0  0  0
  -25.6040  -33.8470   24.2330 N   0  0  0  0  0  0  0  0  0  0  0  0
  -25.8940  -34.9340   23.5040 C   0  0  0  0  0  0  0  0  0  0  0  0
  -26.5430  -34.8800   22.4550 O   0  0  0  0  0  0  0  0  0  0  0  0
  -25.0550  -33.9610   25.0710 H   0  0  0  0  0  0  0  0  0  0  0  0
  -24.1360  -36.7290   23.2880 C   0  0  0  0  0  1  0  0  0  0  0  0
  -25.4040  -36.2930   24.0340 C   0  0  0  0  0  3  0  0  0  0  0  0
  -27.5520  -37.1860   24.8200 C   0  0  0  0  0  1  0  0  0  0  0  0
  -26.4060  -37.3730   23.9360 N   0  0  0  0  0  0  0  0  0  0  0  0
  -25.9830  -38.2740   24.1440 H   0  0  0  0  0  0  0  0  0  0  0  0
  -26.4570  -31.6470   25.0700 C   0  0  1  0  0  0  0  0  0  0  0  0
  -25.3760  -31.3750   26.1370 C   0  0  0  0  0  1  0  0  0  0  0  0
  -27.0540  -30.2810   24.6270 C   0  0  0  0  0  1  0  0  0  0  0  0
  -27.6080  -32.4220   25.7560 C   0  0  0  0  0  1  0  0  0  0  0  0
  1  8  2  0
  3  2  1  0
  4  2  1  0
  4 15  1  0
  5 64  1  0
  5  3  1  0
  5  6  1  0
  6  4  1  0
  6  1  1  0
  7 16  1  0
  7  1  1  0
  9  7  1  0
 10 12  1  0
 11 10  2  0
 13 15  2  0
 13 11  1  0
 14 12  2  0
 15 14  1  0
 16 17  1  0
 18 17  1  0
 19 18  1  0
 20 19  1  0
 21 20  1  0
 22 23  1  0
 22 21  1  0
 24 25  1  0
 24 23  1  0
 26 25  1  0
 27 26  1  0
 28 27  1  0
 29 34  1  0
 30 31  1  0
 30 29  1  0
 32 31  1  0
 32 39  1  0
 32 33  1  0
 34 28  1  0
 34 33  1  0
 35 28  2  0
 36 37  2  0
 37 56  1  0
 38 37  1  0
 38 41  1  0
 39 36  1  0
 39 40  1  0
 40 38  2  0
 41 42  1  0
 42 43  2  0
 44 47  1  0
 44 43  1  0
 45 44  2  0
 46 45  1  0
 46 41  2  0
 47 48  1  0
 48 49  1  0
 49 50  2  0
 51 50  1  0
 51 55  1  0
 52 51  2  0
 53 48  2  0
 53 52  1  0
 54 53  1  0
 56 57  1  0
 57 60  1  0
 57 59  1  0
 58 56  2  0
 61 62  1  0
 61 36  1  0
 63 61  1  0
 65 64  1  0
 66 65  1  0
 67 66  1  0
 68 67  1  0
 69 68  1  0
 70 81  2  0
 71 69  1  0
 71 76  1  0
 72 80  1  0
 72 82  1  0
 73 79  1  0
 73 75  1  0
 74 80  1  0
 75 76  2  0
 75 74  1  0
 77 78  1  0
 77 71  2  0
 78 73  2  0
 79 72  1  0
 80 70  1  0
 82 84  2  0
 83 82  1  0
 85 83  1  0
 86 95  2  0
 86 91  1  0
 87 83  1  0
 87 91  1  0
 88 87  1  0
 89 90  1  0
 89 88  1  0
 90 86  1  0
 91 92  2  0
 92 93  1  0
 94 93  2  0
 95 94  1  0
 96 70  1  0
 96 97  1  0
 96106  1  0
 97100  1  0
 98102  1  0
 98 97  1  0
 99 98  2  0
102101  1  0
104102  1  0
104105  1  0
104103  1  0
106109  1  1
106107  1  0
108106  1  0
M  ISO  4  27 100  28 100  68 101  69 101
M  END
>  <TORSDO>  (66) 
F 34

>  <SCORE>  (66) 
13.586

>  <name>  (66) 
69

>  <ligand_id>  (66) 
69

>  <original_smiles>  (66) 
[H]c1c([H])c([H])c(C2([H])N(C(=O)N([H])C([H])([H])C([H])([H])OC([H])([H])C([H])([H])OC([H])([H])C([H])([H])OC([H])([H])C([H])([H])OC(=O)N3C([H])([H])C([H])([H])C([H])([H])C([H])(n4nc(-c5c([H])c([H])c(Oc6c([H])c([H])c(F)c([H])c6F)c([H])c5[H])c(C(=O)N([H])[H])c4N([H])[H])C3([H])[H])C([H])(C([H])([H])OC([H])([H])C([H])([H])C([H])([H])Oc3c([H])c([H])c4c(c3[H])C([H])([H])N(C(=O)C([H])(N([H])C(=O)C([H])(N([H])C([H])([H])[H])C([H])([H])[H])C(C([H])([H])[H])(C([H])([H])[H])C([H])([H])[H])C([H])(C(=O)N([H])C3([H])c5c([H])c([H])c([H])c([H])c5C([H])([H])C([H])([H])C3([H])[H])C4([H])[H])C([H])([H])C2([H])[H])c([H])c1[H]

>  <smiles>  (66) 
[H]c1c([H])c([H])c(C2([H])N(C(=O)N([H])C([H])([H])C([H])([H])OC([H])([H])C([H])([H])OC([H])([H])C([H])([H])OC([H])([H])C([H])([H])OC(=O)N3C([H])([H])C([H])([H])C([H])([H])C([H])(n4nc(-c5c([H])c([H])c(Oc6c([H])c([H])c(F)c([H])c6F)c([H])c5[H])c(C(=O)N([H])[H])c4N([H])[H])C3([H])[H])C([H])(C([H])([H])OC([H])([H])C([H])([H])C([H])([H])Oc3c([H])c([H])c4c(c3[H])C([H])([H])N(C(=O)C([H])(N([H])C(=O)C([H])(N([H])C([H])([H])[H])C([H])([H])[H])C(C([H])([H])[H])(C([H])([H])[H])C([H])([H])[H])C([H])(C(=O)N([H])C3([H])c5c([H])c([H])c([H])c([H])c5C([H])([H])C([H])([H])C3([H])[H])C4([H])[H])C([H])([H])C2([H])[H])c([H])c1[H]

$$$$
70:0:0
     RDKit          3D

 87 94  0  0  1  0  0  0  0  0999 V2000
  -29.1130  -22.7980   20.1480 O   0  0  0  0  0  0  0  0  0  0  0  0
  -29.2650  -24.1800   20.5710 C   0  0  0  0  0  2  0  0  0  0  0  0
  -28.1950  -25.1410   19.9510 C   0  0  0  0  0  2  0  0  0  0  0  0
  -28.3440  -26.5690   20.2300 O   0  0  0  0  0  0  0  0  0  0  0  0
  -24.6030  -31.8820   23.2540 C   0  0  0  0  0  0  0  0  0  0  0  0
  -27.2030  -27.3700   20.1730 C   0  0  0  0  0  0  0  0  0  0  0  0
  -23.3880  -30.4910   21.6140 C   0  0  0  0  0  3  0  0  0  0  0  0
  -24.8290  -28.9470   20.1790 C   0  0  0  0  0  0  0  0  0  0  0  0
  -25.9230  -30.8160   21.4190 C   0  0  0  0  0  2  0  0  0  0  0  0
  -25.9960  -29.4430   20.7740 C   0  0  0  0  0  0  0  0  0  0  0  0
  -27.1840  -28.6630   20.7670 C   0  0  0  0  0  3  0  0  0  0  0  0
  -26.0140  -26.9200   19.5460 C   0  0  0  0  0  3  0  0  0  0  0  0
  -24.8370  -27.6890   19.5590 C   0  0  0  0  0  3  0  0  0  0  0  0
  -23.5920  -29.8180   20.2320 C   0  0  0  0  0  2  0  0  0  0  0  0
  -24.6560  -31.0790   22.1530 N   0  0  0  0  0  0  0  0  0  0  0  0
  -23.5240  -32.1610   23.7950 O   0  0  0  0  0  0  0  0  0  0  0  0
  -22.7290  -29.4710   22.5730 C   0  0  0  0  0  0  0  0  0  0  0  0
  -21.4040  -29.2960   22.4460 N   0  0  0  0  0  0  0  0  0  0  0  0
  -23.4090  -28.8420   23.3890 O   0  0  0  0  0  0  0  0  0  0  0  0
  -20.9160  -29.8550   21.7610 H   0  0  0  0  0  0  0  0  0  0  0  0
  -18.0240  -28.1080   22.9390 C   0  0  0  0  0  0  0  0  0  0  0  0
  -20.5820  -28.3620   23.2170 C   0  0  0  0  0  3  0  0  0  0  0  0
  -20.6820  -26.9290   22.6440 C   0  0  0  0  0  2  0  0  0  0  0  0
  -19.5830  -26.6070   21.6270 C   0  0  0  0  0  2  0  0  0  0  0  0
  -18.2000  -26.7570   22.2670 C   0  0  0  0  0  2  0  0  0  0  0  0
  -19.1430  -28.8680   23.3700 C   0  0  0  0  0  0  0  0  0  0  0  0
  -18.9250  -30.1340   23.9590 C   0  0  0  0  0  3  0  0  0  0  0  0
  -17.6220  -30.6390   24.1180 C   0  0  0  0  0  3  0  0  0  0  0  0
  -16.5170  -29.8760   23.7040 C   0  0  0  0  0  3  0  0  0  0  0  0
  -16.7190  -28.6120   23.1200 C   0  0  0  0  0  3  0  0  0  0  0  0
  -25.8930  -32.5060   23.8720 C   0  0  0  0  0  3  0  0  0  0  0  0
  -26.4080  -31.7310   25.1470 C   0  0  1  0  0  0  0  0  0  0  0  0
  -25.3180  -31.5010   26.2190 C   0  0  0  0  0  1  0  0  0  0  0  0
  -26.9820  -30.3500   24.7520 C   0  0  0  0  0  1  0  0  0  0  0  0
  -27.5640  -32.5190   25.8080 C   0  0  0  0  0  1  0  0  0  0  0  0
  -25.5920  -33.9060   24.2030 N   0  0  0  0  0  0  0  0  0  0  0  0
  -25.9250  -34.9570   23.4410 C   0  0  0  0  0  0  0  0  0  0  0  0
  -26.5890  -34.8480   22.4060 O   0  0  0  0  0  0  0  0  0  0  0  0
  -25.0030  -34.0650   25.0080 H   0  0  0  0  0  0  0  0  0  0  0  0
  -24.2020  -36.7560   23.0930 C   0  0  0  0  0  1  0  0  0  0  0  0
  -25.4460  -36.3470   23.8980 C   0  0  0  0  0  3  0  0  0  0  0  0
  -27.5900  -37.2240   24.7140 C   0  0  0  0  0  1  0  0  0  0  0  0
  -26.4820  -37.3950   23.7780 N   0  0  0  0  0  0  0  0  0  0  0  0
  -26.0800  -38.3170   23.9270 H   0  0  0  0  0  0  0  0  0  0  0  0
  -29.8660  -21.8260   20.9130 C   0  0  0  0  0  2  0  0  0  0  0  0
  -29.9940  -20.3890   20.2800 C   0  0  0  0  0  2  0  0  0  0  0  0
  -29.6060  -19.3250   21.1790 O   0  0  0  0  0  0  0  0  0  0  0  0
  -30.3560  -18.0820   21.1900 C   0  0  0  0  0  2  0  0  0  0  0  0
  -29.9920  -17.0260   20.1000 C   0  0  0  0  0  2  0  0  0  0  0  0
  -30.6580  -14.5630   20.1340 C   0  0  0  0  0  0  0  0  0  0  0  0
  -30.3320  -12.3860   19.0110 C   0  0  0  0  0  2  0  0  0  0  0  0
  -29.3420  -12.5990   17.8440 C   0  0  0  0  0  2  0  0  0  0  0  0
  -27.8850  -12.4670   18.3310 C   0  0  0  0  0  2  0  0  0  0  0  0
  -27.6040  -13.2910   19.6150 C   0  0  0  0  0  3  0  0  0  0  0  0
  -28.7030  -13.0590   20.6790 C   0  0  0  0  0  2  0  0  0  0  0  0
  -30.0040  -13.3660   20.0610 N   0  0  0  0  0  0  0  0  0  0  0  0
  -31.7760  -14.7380   19.6440 O   0  0  0  0  0  0  0  0  0  0  0  0
  -29.9110  -15.6090   20.5580 N   0  0  0  0  0  0  0  0  0  0  0  0
  -29.0360  -15.3490   20.9880 H   0  0  0  0  0  0  0  0  0  0  0  0
  -25.2410  -13.9170   20.4180 C   0  0  0  0  0  0  0  0  0  0  0  0
  -24.1800  -13.1550   20.8240 C   0  0  0  0  0  0  0  0  0  0  0  0
  -24.6260  -11.7980   20.7700 C   0  0  0  0  0  0  0  0  0  0  0  0
  -26.2680  -13.0270   20.1440 N   0  0  0  0  0  0  0  0  0  0  0  0
  -25.9040  -11.7470   20.4140 N   0  0  0  0  0  0  0  0  0  0  0  0
  -23.8950  -10.5420   20.9820 C   0  0  0  0  0  0  0  0  0  0  0  0
  -24.3570   -9.5630   21.8880 C   0  0  0  0  0  3  0  0  0  0  0  0
  -23.6260   -8.3710   22.0880 C   0  0  0  0  0  3  0  0  0  0  0  0
  -22.4190   -8.1520   21.3830 C   0  0  0  0  0  0  0  0  0  0  0  0
  -21.9750   -9.1210   20.4660 C   0  0  0  0  0  3  0  0  0  0  0  0
  -22.7060  -10.3040   20.2640 C   0  0  0  0  0  3  0  0  0  0  0  0
  -21.6570   -7.0150   21.4950 O   0  0  0  0  0  0  0  0  0  0  0  0
  -21.6560   -6.2580   22.6390 C   0  0  0  0  0  0  0  0  0  0  0  0
  -21.3040   -6.8040   23.8930 C   0  0  0  0  0  3  0  0  0  0  0  0
  -21.2500   -5.9740   25.0310 C   0  0  0  0  0  3  0  0  0  0  0  0
  -21.5350   -4.6010   24.9170 C   0  0  0  0  0  0  0  0  0  0  0  0
  -21.8800   -4.0550   23.6680 C   0  0  0  0  0  3  0  0  0  0  0  0
  -21.9370   -4.8820   22.5310 C   0  0  0  0  0  0  0  0  0  0  0  0
  -22.2490   -4.3460   21.3260 F   0  0  0  0  0  0  0  0  0  0  0  0
  -21.4760   -3.8020   26.0080 F   0  0  0  0  0  0  0  0  0  0  0  0
  -22.7990  -13.6450   21.1510 C   0  0  0  0  0  0  0  0  0  0  0  0
  -22.0980  -12.9520   22.0420 N   0  0  0  0  0  0  0  0  0  0  0  0
  -22.3520  -14.6760   20.6520 O   0  0  0  0  0  0  0  0  0  0  0  0
  -22.4730  -12.1180   22.4680 H   0  0  0  0  0  0  0  0  0  0  0  0
  -21.1730  -13.2630   22.3040 H   0  0  0  0  0  0  0  0  0  0  0  0
  -25.4140  -15.2870   20.2390 N   0  0  0  0  0  0  0  0  0  0  0  0
  -24.6560  -15.9470   20.3780 H   0  0  0  0  0  0  0  0  0  0  0  0
  -26.2510  -15.7180   19.8670 H   0  0  0  0  0  0  0  0  0  0  0  0
  1  2  1  0
  1 45  1  0
  3  4  1  0
  3  2  1  0
  5 16  2  0
  6  4  1  0
  6 11  1  0
  7 15  1  0
  7 17  1  0
  8 14  1  0
  8 10  1  0
  9 15  1  0
 10  9  1  0
 11 10  2  0
 12 13  1  0
 12  6  2  0
 13  8  2  0
 14  7  1  0
 15  5  1  0
 17 19  2  0
 18 17  1  0
 20 18  1  0
 21 30  2  0
 21 26  1  0
 22 18  1  0
 22 26  1  0
 23 22  1  0
 24 25  1  0
 24 23  1  0
 25 21  1  0
 26 27  2  0
 27 28  1  0
 29 28  2  0
 30 29  1  0
 31  5  1  0
 31 36  1  0
 31 32  1  0
 32 35  1  1
 32 33  1  0
 34 32  1  0
 36 39  1  0
 37 41  1  0
 37 36  1  0
 38 37  2  0
 41 40  1  0
 43 41  1  0
 43 44  1  0
 43 42  1  0
 46 45  1  0
 46 47  1  0
 47 48  1  0
 49 58  1  0
 49 48  1  0
 50 58  1  0
 51 56  1  0
 52 53  1  0
 52 51  1  0
 54 53  1  0
 54 63  1  0
 54 55  1  0
 56 50  1  0
 56 55  1  0
 57 50  2  0
 58 59  1  0
 60 61  2  0
 61 80  1  0
 62 61  1  0
 62 65  1  0
 63 64  1  0
 63 60  1  0
 64 62  2  0
 65 66  1  0
 66 67  2  0
 68 71  1  0
 68 67  1  0
 69 68  2  0
 70 69  1  0
 70 65  2  0
 71 72  1  0
 72 73  1  0
 73 74  2  0
 75 74  1  0
 75 79  1  0
 76 75  2  0
 77 72  2  0
 77 76  1  0
 78 77  1  0
 80 81  1  0
 81 84  1  0
 81 83  1  0
 82 80  2  0
 85 86  1  0
 85 60  1  0
 87 85  1  0
M  ISO  4   3 101   4 101  50 100  58 100
M  END
>  <TORSDO>  (67) 
F 23

>  <SCORE>  (67) 
-12.462

>  <name>  (67) 
70

>  <ligand_id>  (67) 
70

>  <original_smiles>  (67) 
[H]c1c([H])c([H])c2c(c1[H])C([H])([H])C([H])([H])C([H])([H])C2([H])N([H])C(=O)C1([H])N(C(=O)C([H])(N([H])C(=O)C([H])(N([H])C([H])([H])[H])C([H])([H])[H])C(C([H])([H])[H])(C([H])([H])[H])C([H])([H])[H])C([H])([H])c2c([H])c(OC([H])([H])C([H])([H])OC([H])([H])C([H])([H])OC([H])([H])C([H])([H])N([H])C(=O)N3C([H])([H])C([H])([H])C([H])([H])C([H])(n4nc(-c5c([H])c([H])c(Oc6c([H])c([H])c(F)c([H])c6F)c([H])c5[H])c(C(=O)N([H])[H])c4N([H])[H])C3([H])[H])c([H])c([H])c2C1([H])[H]

>  <smiles>  (67) 
[H]c1c([H])c([H])c2c(c1[H])C([H])([H])C([H])([H])C([H])([H])C2([H])N([H])C(=O)C1([H])N(C(=O)C([H])(N([H])C(=O)C([H])(N([H])C([H])([H])[H])C([H])([H])[H])C(C([H])([H])[H])(C([H])([H])[H])C([H])([H])[H])C([H])([H])c2c([H])c(OC([H])([H])C([H])([H])OC([H])([H])C([H])([H])OC([H])([H])C([H])([H])N([H])C(=O)N3C([H])([H])C([H])([H])C([H])([H])C([H])(n4nc(-c5c([H])c([H])c(Oc6c([H])c([H])c(F)c([H])c6F)c([H])c5[H])c(C(=O)N([H])[H])c4N([H])[H])C3([H])[H])c([H])c([H])c2C1([H])[H]

$$$$
71:0:0
     RDKit          3D

110113  0  0  1  0  0  0  0  0999 V2000
  -30.4690  -15.7590   18.1610 C   0  0  0  0  0  2  0  0  0  0  0  0
  -30.5070  -17.0580   18.7560 O   0  0  0  0  0  0  0  0  0  0  0  0
  -30.6420  -18.0830   17.7630 C   0  0  0  0  0  2  0  0  0  0  0  0
  -30.9770  -19.4550   18.3770 C   0  0  0  0  0  0  0  0  0  0  0  0
  -30.9690  -20.5020   17.5400 N   0  0  0  0  0  0  0  0  0  0  0  0
  -31.2890  -19.5660   19.5640 O   0  0  0  0  0  0  0  0  0  0  0  0
  -30.6670  -20.3270   16.5910 H   0  0  0  0  0  0  0  0  0  0  0  0
  -31.5880  -21.8020   17.8050 C   0  0  0  0  0  2  0  0  0  0  0  0
  -29.7560  -23.5580   17.5350 C   0  0  0  0  0  3  0  0  0  0  0  0
  -30.7150  -23.1920   19.7440 C   0  0  0  0  0  3  0  0  0  0  0  0
  -28.9540  -24.5950   18.0570 C   0  0  0  0  0  3  0  0  0  0  0  0
  -29.9110  -24.2240   20.2640 C   0  0  0  0  0  3  0  0  0  0  0  0
  -30.6520  -22.8610   18.3740 C   0  0  0  0  0  0  0  0  0  0  0  0
  -29.0400  -24.9440   19.4220 C   0  0  0  0  0  0  0  0  0  0  0  0
  -28.1710  -26.0420   20.0090 C   0  0  0  0  0  2  0  0  0  0  0  0
  -28.0710  -27.1870   19.1680 O   0  0  0  0  0  0  0  0  0  0  0  0
  -24.5880  -31.7790   23.3270 C   0  0  0  0  0  0  0  0  0  0  0  0
  -26.9300  -27.9100   19.3890 C   0  0  0  0  0  0  0  0  0  0  0  0
  -23.2400  -30.6660   21.5750 C   0  0  0  0  0  3  0  0  0  0  0  0
  -24.5610  -29.3720   19.8190 C   0  0  0  0  0  0  0  0  0  0  0  0
  -25.7460  -31.0510   21.2460 C   0  0  0  0  0  2  0  0  0  0  0  0
  -25.7650  -29.8010   20.3960 C   0  0  0  0  0  0  0  0  0  0  0  0
  -26.9550  -29.0760   20.1800 C   0  0  0  0  0  3  0  0  0  0  0  0
  -25.7170  -27.4850   18.8110 C   0  0  0  0  0  3  0  0  0  0  0  0
  -24.5290  -28.2090   19.0260 C   0  0  0  0  0  3  0  0  0  0  0  0
  -23.3360  -30.2130   20.0940 C   0  0  0  0  0  2  0  0  0  0  0  0
  -24.5470  -31.1700   22.1090 N   0  0  0  0  0  0  0  0  0  0  0  0
  -23.5550  -31.9650   23.9850 O   0  0  0  0  0  0  0  0  0  0  0  0
  -22.6460  -29.5060   22.4050 C   0  0  0  0  0  0  0  0  0  0  0  0
  -21.3230  -29.3090   22.2930 N   0  0  0  0  0  0  0  0  0  0  0  0
  -23.3710  -28.7910   23.1030 O   0  0  0  0  0  0  0  0  0  0  0  0
  -20.7980  -29.9430   21.7070 H   0  0  0  0  0  0  0  0  0  0  0  0
  -18.0160  -27.8890   22.6050 C   0  0  0  0  0  0  0  0  0  0  0  0
  -20.5510  -28.2540   22.9500 C   0  0  0  0  0  3  0  0  0  0  0  0
  -20.7410  -26.8970   22.2350 C   0  0  0  0  0  2  0  0  0  0  0  0
  -19.6730  -26.6210   21.1730 C   0  0  0  0  0  2  0  0  0  0  0  0
  -18.2760  -26.6250   21.8020 C   0  0  0  0  0  2  0  0  0  0  0  0
  -19.0850  -28.6630   23.1300 C   0  0  0  0  0  0  0  0  0  0  0  0
  -18.7890  -29.8480   23.8380 C   0  0  0  0  0  3  0  0  0  0  0  0
  -17.4570  -30.2600   24.0280 C   0  0  0  0  0  3  0  0  0  0  0  0
  -16.4020  -29.4830   23.5180 C   0  0  0  0  0  3  0  0  0  0  0  0
  -16.6830  -28.2980   22.8130 C   0  0  0  0  0  3  0  0  0  0  0  0
  -25.9270  -32.2940   23.9410 C   0  0  0  0  0  3  0  0  0  0  0  0
  -26.4600  -31.3900   25.1190 C   0  0  1  0  0  0  0  0  0  0  0  0
  -25.4070  -31.1200   26.2200 C   0  0  0  0  0  1  0  0  0  0  0  0
  -26.9430  -30.0220   24.5810 C   0  0  0  0  0  1  0  0  0  0  0  0
  -27.6850  -32.0610   25.7840 C   0  0  0  0  0  1  0  0  0  0  0  0
  -25.7030  -33.6700   24.4000 N   0  0  0  0  0  0  0  0  0  0  0  0
  -26.1040  -34.7660   23.7430 C   0  0  0  0  0  0  0  0  0  0  0  0
  -26.7750  -34.7180   22.7080 O   0  0  0  0  0  0  0  0  0  0  0  0
  -25.1120  -33.7850   25.2120 H   0  0  0  0  0  0  0  0  0  0  0  0
  -24.5050  -36.6940   23.5340 C   0  0  0  0  0  1  0  0  0  0  0  0
  -25.6960  -36.1320   24.3250 C   0  0  0  0  0  3  0  0  0  0  0  0
  -27.8630  -36.7850   25.2770 C   0  0  0  0  0  1  0  0  0  0  0  0
  -26.7980  -37.1190   24.3360 N   0  0  0  0  0  0  0  0  0  0  0  0
  -26.4490  -38.0450   24.5670 H   0  0  0  0  0  0  0  0  0  0  0  0
  -29.9530  -14.6890   19.1280 C   0  0  0  0  0  2  0  0  0  0  0  0
  -31.0240  -14.2210   20.0930 O   0  0  0  0  0  1  0  0  0  0  0  0
  -31.6930  -12.7680   21.7700 C   0  0  0  0  0  1  0  0  0  0  0  0
  -33.0970  -12.1270   22.2200 C   0  0  0  0  0  2  0  0  0  0  0  0
  -33.9750  -13.0760   22.8230 O   0  0  0  0  0  0  0  0  0  0  0  0
  -35.0290  -12.5310   23.6060 C   0  0  0  0  0  2  0  0  0  0  0  0
  -35.9720  -11.6390   22.7730 C   0  0  0  0  0  2  0  0  0  0  0  0
  -36.6540  -12.3690   21.7460 O   0  0  0  0  0  0  0  0  0  0  0  0
  -37.9440  -12.8490   22.1240 C   0  0  0  0  0  2  0  0  0  0  0  0
  -39.0090  -12.4410   21.0880 C   0  0  0  0  0  2  0  0  0  0  0  0
  -38.8650  -13.1390   19.8520 O   0  0  0  0  0  0  0  0  0  0  0  0
  -39.9550  -12.9110   18.9520 C   0  0  0  0  0  2  0  0  0  0  0  0
  -39.8070  -11.5790   18.1970 C   0  0  0  0  0  2  0  0  0  0  0  0
  -40.1070  -10.4970   19.0780 O   0  0  0  0  0  0  0  0  0  0  0  0
  -39.0240   -9.5960   19.2750 C   0  0  0  0  0  2  0  0  0  0  0  0
  -39.4340   -8.4810   20.2560 C   0  0  0  0  0  2  0  0  0  0  0  0
  -38.1530   -7.6240   22.1940 C   0  0  0  0  0  0  0  0  0  0  0  0
  -36.5810   -6.6770   24.1370 C   0  0  0  0  0  1  0  0  0  0  0  0
  -34.7490   -5.7850   24.0980 C   0  0  0  0  0 15  0  0  0  0  0  0
  -33.3910   -6.4840   22.7350 C   0  0  0  0  0 15  0  0  0  0  0  0
  -34.0530   -7.8370   21.4030 C   0  0  0  0  0  1  0  0  0  0  0  0
  -35.8510   -8.6340   21.6280 C   0  0  0  0  0  1  0  0  0  0  0  0
  -37.0400   -7.9530   22.8530 N   0  0  0  0  0  0  0  0  0  0  0  0
  -38.7360   -6.5480   22.3130 O   0  0  0  0  0  0  0  0  0  0  0  0
  -38.6570   -8.6320   21.4810 N   0  0  0  0  0  0  0  0  0  0  0  0
  -38.2420   -9.5400   21.6410 H   0  0  0  0  0  0  0  0  0  0  0  0
  -33.3370   -9.7680   20.0890 C   0  0  0  0  0  0  0  0  0  0  0  0
  -32.0920  -10.1940   19.7750 C   0  0  0  0  0  0  0  0  0  0  0  0
  -31.1800   -9.3780   20.5140 C   0  0  0  0  0  0  0  0  0  0  0  0
  -33.1040   -8.7190   20.9350 N   0  0  0  0  0  0  0  0  0  0  0  0
  -31.8240   -8.5050   21.2430 N   0  0  0  0  0  0  0  0  0  0  0  0
  -29.7340   -9.3000   20.5120 C   0  0  0  0  0  0  0  0  0  0  0  0
  -28.9760   -9.6040   21.6630 C   0  0  0  0  0  3  0  0  0  0  0  0
  -27.5690   -9.5440   21.6140 C   0  0  0  0  0  3  0  0  0  0  0  0
  -26.9250   -9.1830   20.4090 C   0  0  0  0  0  0  0  0  0  0  0  0
  -27.6910   -8.8430   19.2800 C   0  0  0  0  0  3  0  0  0  0  0  0
  -29.0880   -8.8980   19.3310 C   0  0  0  0  0  3  0  0  0  0  0  0
  -25.5650   -9.0970   20.2610 O   0  0  0  0  0  0  0  0  0  0  0  0
  -24.7290  -10.0250   20.8180 C   0  0  0  0  0  0  0  0  0  0  0  0
  -24.7450  -11.3800   20.4220 C   0  0  0  0  0  3  0  0  0  0  0  0
  -23.8190  -12.2850   20.9770 C   0  0  0  0  0  3  0  0  0  0  0  0
  -22.8690  -11.8340   21.9130 C   0  0  0  0  0  0  0  0  0  0  0  0
  -22.8480  -10.4840   22.3050 C   0  0  0  0  0  3  0  0  0  0  0  0
  -23.7760   -9.5820   21.7570 C   0  0  0  0  0  0  0  0  0  0  0  0
  -23.7450   -8.2770   22.1200 F   0  0  0  0  0  0  0  0  0  0  0  0
  -21.9710  -12.7000   22.4390 F   0  0  0  0  0  0  0  0  0  0  0  0
  -31.7810  -11.2370   18.7660 C   0  0  0  0  0  0  0  0  0  0  0  0
  -30.6690  -11.9350   18.9530 N   0  0  0  0  0  0  0  0  0  0  0  0
  -32.5580  -11.4730   17.8410 O   0  0  0  0  0  0  0  0  0  0  0  0
  -30.0560  -11.7510   19.7330 H   0  0  0  0  0  0  0  0  0  0  0  0
  -30.4260  -12.6750   18.3100 H   0  0  0  0  0  0  0  0  0  0  0  0
  -34.6200  -10.1450   19.6950 N   0  0  0  0  0  0  0  0  0  0  0  0
  -34.7790  -10.8830   19.0180 H   0  0  0  0  0  0  0  0  0  0  0  0
  -35.4760   -9.7280   20.0410 H   0  0  0  0  0  0  0  0  0  0  0  0
  1  2  1  0
  1 57  1  0
  3  4  1  0
  3  2  1  0
  4  6  2  0
  5  8  1  0
  5  4  1  0
  7  5  1  0
  8 13  1  0
  9 11  2  0
  9 13  1  0
 10 12  1  0
 11 14  1  0
 13 10  2  0
 14 15  1  0
 14 12  2  0
 16 18  1  0
 16 15  1  0
 17 28  2  0
 18 23  1  0
 19 27  1  0
 19 29  1  0
 20 26  1  0
 20 22  1  0
 21 27  1  0
 22 21  1  0
 23 22  2  0
 24 25  1  0
 24 18  2  0
 25 20  2  0
 26 19  1  0
 27 17  1  0
 29 31  2  0
 30 29  1  0
 32 30  1  0
 33 42  2  0
 33 38  1  0
 34 30  1  0
 34 38  1  0
 35 34  1  0
 36 37  1  0
 36 35  1  0
 37 33  1  0
 38 39  2  0
 39 40  1  0
 41 40  2  0
 42 41  1  0
 43 17  1  0
 43 48  1  0
 43 44  1  0
 44 47  1  1
 44 45  1  0
 46 44  1  0
 48 51  1  0
 49 53  1  0
 49 48  1  0
 50 49  2  0
 53 52  1  0
 53 55  1  0
 55 56  1  0
 55 54  1  0
 57 58  1  0
 59 60  1  0
 60 61  1  0
 61 62  1  0
 63 62  1  0
 64 65  1  0
 64 63  1  0
 66 65  1  0
 67 66  1  0
 68 67  1  0
 69 68  1  0
 69 70  1  0
 70 71  1  0
 71 72  1  0
 72 81  1  0
 73 80  2  0
 73 79  1  0
 78 79  1  0
 79 74  1  0
 81 82  1  0
 81 73  1  0
 83 86  1  0
 84 83  2  0
 84 85  1  0
 85 87  2  0
 86 87  1  0
 86 77  1  0
 88 85  1  0
 88 89  1  0
 90 89  2  0
 91 90  1  0
 92 93  1  0
 92 91  2  0
 93 88  2  0
 94 91  1  0
 94 95  1  0
 95100  1  0
 96 95  2  0
 96 97  1  0
 97 98  2  0
 98 99  1  0
 98102  1  0
100101  1  0
100 99  2  0
103104  1  0
103 84  1  0
104106  1  0
105103  2  0
107104  1  0
108110  1  0
108 83  1  0
109108  1  0
M  ISO  4  15 101  16 101  73 100  81 100
M  END
>  <TORSDO>  (68) 
F 38

>  <SCORE>  (68) 
-4.434

>  <name>  (68) 
71

>  <ligand_id>  (68) 
71

>  <original_smiles>  (68) 
[H]c1c([H])c([H])c2c(c1[H])C([H])([H])C([H])([H])C([H])([H])C2([H])N([H])C(=O)C1([H])N(C(=O)C([H])(N([H])C(=O)C([H])(N([H])C([H])([H])[H])C([H])([H])[H])C(C([H])([H])[H])(C([H])([H])[H])C([H])([H])[H])C([H])([H])c2c([H])c(OC([H])([H])c3c([H])c([H])c(C([H])([H])N([H])C(=O)C([H])([H])OC([H])([H])C([H])([H])OC([H])([H])C([H])([H])OC([H])([H])C([H])([H])OC([H])([H])C([H])([H])OC([H])([H])C([H])([H])OC([H])([H])C([H])([H])N([H])C(=O)N4C([H])([H])C([H])([H])C([H])([H])C([H])(n5nc(-c6c([H])c([H])c(Oc7c([H])c([H])c(F)c([H])c7F)c([H])c6[H])c(C(=O)N([H])[H])c5N([H])[H])C4([H])[H])c([H])c3[H])c([H])c([H])c2C1([H])[H]

>  <smiles>  (68) 
[H]c1c([H])c([H])c2c(c1[H])C([H])([H])C([H])([H])C([H])([H])C2([H])N([H])C(=O)C1([H])N(C(=O)C([H])(N([H])C(=O)C([H])(N([H])C([H])([H])[H])C([H])([H])[H])C(C([H])([H])[H])(C([H])([H])[H])C([H])([H])[H])C([H])([H])c2c([H])c(OC([H])([H])c3c([H])c([H])c(C([H])([H])N([H])C(=O)C([H])([H])OC([H])([H])C([H])([H])OC([H])([H])C([H])([H])OC([H])([H])C([H])([H])OC([H])([H])C([H])([H])OC([H])([H])C([H])([H])OC([H])([H])C([H])([H])N([H])C(=O)N4C([H])([H])C([H])([H])C([H])([H])C([H])(n5nc(-c6c([H])c([H])c(Oc7c([H])c([H])c(F)c([H])c7F)c([H])c6[H])c(C(=O)N([H])[H])c5N([H])[H])C4([H])[H])c([H])c3[H])c([H])c([H])c2C1([H])[H]

$$$$
72:0:0
     RDKit          3D

 92100  0  0  1  0  0  0  0  0999 V2000
  -32.2410  -21.9320   20.4080 C   0  0  0  0  0  2  0  0  0  0  0  0
  -31.7630  -23.3790   20.6240 C   0  0  0  0  0  2  0  0  0  0  0  0
  -30.2500  -23.5980   20.4420 C   0  0  0  0  0  2  0  0  0  0  0  0
  -29.8850  -25.0770   20.5620 C   0  0  0  0  0  2  0  0  0  0  0  0
  -28.4430  -25.3970   20.1520 C   0  0  0  0  0  2  0  0  0  0  0  0
  -28.4080  -26.8120   20.1450 O   0  0  0  0  0  0  0  0  0  0  0  0
  -24.5610  -31.8590   23.2340 C   0  0  0  0  0  0  0  0  0  0  0  0
  -27.1950  -27.4490   20.1480 C   0  0  0  0  0  0  0  0  0  0  0  0
  -23.3440  -30.4550   21.5970 C   0  0  0  0  0  3  0  0  0  0  0  0
  -24.7880  -28.9140   20.1720 C   0  0  0  0  0  0  0  0  0  0  0  0
  -25.8610  -30.8290   21.3780 C   0  0  0  0  0  2  0  0  0  0  0  0
  -25.9440  -29.4580   20.7440 C   0  0  0  0  0  0  0  0  0  0  0  0
  -27.1500  -28.7340   20.7210 C   0  0  0  0  0  3  0  0  0  0  0  0
  -26.0250  -26.9010   19.5790 C   0  0  0  0  0  3  0  0  0  0  0  0
  -24.8210  -27.6340   19.5870 C   0  0  0  0  0  3  0  0  0  0  0  0
  -23.5440  -29.7690   20.2190 C   0  0  0  0  0  2  0  0  0  0  0  0
  -24.6070  -31.0620   22.1300 N   0  0  0  0  0  0  0  0  0  0  0  0
  -23.4840  -32.1340   23.7820 O   0  0  0  0  0  0  0  0  0  0  0  0
  -22.6990  -29.4380   22.5640 C   0  0  0  0  0  0  0  0  0  0  0  0
  -21.3740  -29.2600   22.4430 N   0  0  0  0  0  0  0  0  0  0  0  0
  -23.3850  -28.8090   23.3730 O   0  0  0  0  0  0  0  0  0  0  0  0
  -20.8840  -29.8190   21.7600 H   0  0  0  0  0  0  0  0  0  0  0  0
  -17.9970  -28.0850   22.9570 C   0  0  0  0  0  0  0  0  0  0  0  0
  -20.5570  -28.3250   23.2170 C   0  0  0  0  0  3  0  0  0  0  0  0
  -20.6480  -26.8960   22.6360 C   0  0  0  0  0  2  0  0  0  0  0  0
  -19.5380  -26.5820   21.6270 C   0  0  0  0  0  2  0  0  0  0  0  0
  -18.1620  -26.7350   22.2800 C   0  0  0  0  0  2  0  0  0  0  0  0
  -19.1230  -28.8380   23.3830 C   0  0  0  0  0  0  0  0  0  0  0  0
  -18.9150  -30.1030   23.9740 C   0  0  0  0  0  3  0  0  0  0  0  0
  -17.6140  -30.6140   24.1440 C   0  0  0  0  0  3  0  0  0  0  0  0
  -16.5030  -29.8550   23.7340 C   0  0  0  0  0  3  0  0  0  0  0  0
  -16.6960  -28.5930   23.1460 C   0  0  0  0  0  3  0  0  0  0  0  0
  -25.8540  -32.4870   23.8470 C   0  0  0  0  0  3  0  0  0  0  0  0
  -25.5520  -33.8830   24.1830 N   0  0  0  0  0  0  0  0  0  0  0  0
  -25.8860  -34.9360   23.4230 C   0  0  0  0  0  0  0  0  0  0  0  0
  -26.5540  -34.8310   22.3900 O   0  0  0  0  0  0  0  0  0  0  0  0
  -24.9590  -34.0390   24.9840 H   0  0  0  0  0  0  0  0  0  0  0  0
  -24.1630  -36.7320   23.0700 C   0  0  0  0  0  1  0  0  0  0  0  0
  -25.4020  -36.3240   23.8820 C   0  0  0  0  0  3  0  0  0  0  0  0
  -27.5400  -37.1980   24.7160 C   0  0  0  0  0  1  0  0  0  0  0  0
  -26.4380  -37.3730   23.7740 N   0  0  0  0  0  0  0  0  0  0  0  0
  -26.0360  -38.2950   23.9260 H   0  0  0  0  0  0  0  0  0  0  0  0
  -26.3820  -31.7070   25.1130 C   0  0  1  0  0  0  0  0  0  0  0  0
  -25.3020  -31.4690   26.1930 C   0  0  0  0  0  1  0  0  0  0  0  0
  -26.9520  -30.3290   24.7040 C   0  0  0  0  0  1  0  0  0  0  0  0
  -27.5440  -32.4940   25.7660 C   0  0  0  0  0  1  0  0  0  0  0  0
  -31.8870  -21.3550   19.0270 C   0  0  0  0  0  2  0  0  0  0  0  0
  -30.5460  -20.8610   19.0450 O   0  0  0  0  0  0  0  0  0  0  0  0
  -29.4020  -17.9000   20.9380 C   0  0  0  0  0  3  0  0  0  0  0  0
  -30.9100  -17.1810   19.1690 C   0  0  0  0  0  3  0  0  0  0  0  0
  -29.5480  -19.2370   20.5100 C   0  0  0  0  0  3  0  0  0  0  0  0
  -31.0620  -18.5140   18.7510 C   0  0  0  0  0  3  0  0  0  0  0  0
  -30.1000  -16.8590   20.2890 C   0  0  0  0  0  0  0  0  0  0  0  0
  -30.4020  -19.5530   19.4350 C   0  0  0  0  0  0  0  0  0  0  0  0
  -30.6610  -14.4500   20.4320 C   0  0  0  0  0  0  0  0  0  0  0  0
  -30.3530  -12.2880   19.3380 C   0  0  0  0  0  2  0  0  0  0  0  0
  -29.4360  -12.5170   18.1190 C   0  0  0  0  0  2  0  0  0  0  0  0
  -27.9540  -12.4020   18.5290 C   0  0  0  0  0  2  0  0  0  0  0  0
  -27.6060  -13.2450   19.7850 C   0  0  0  0  0  3  0  0  0  0  0  0
  -28.6440  -13.0180   20.9090 C   0  0  0  0  0  2  0  0  0  0  0  0
  -29.9820  -13.2800   20.3540 N   0  0  0  0  0  0  0  0  0  0  0  0
  -31.8360  -14.5660   20.0750 O   0  0  0  0  0  0  0  0  0  0  0  0
  -29.9100  -15.5210   20.7440 N   0  0  0  0  0  0  0  0  0  0  0  0
  -29.0250  -15.3170   21.1820 H   0  0  0  0  0  0  0  0  0  0  0  0
  -25.1960  -13.8700   20.4410 C   0  0  0  0  0  0  0  0  0  0  0  0
  -24.1200  -13.1050   20.8050 C   0  0  0  0  0  0  0  0  0  0  0  0
  -24.5800  -11.7530   20.8080 C   0  0  0  0  0  0  0  0  0  0  0  0
  -26.2440  -12.9830   20.2450 N   0  0  0  0  0  0  0  0  0  0  0  0
  -25.8750  -11.7060   20.5220 N   0  0  0  0  0  0  0  0  0  0  0  0
  -23.8510  -10.4940   21.0080 C   0  0  0  0  0  0  0  0  0  0  0  0
  -24.2770   -9.5360   21.9540 C   0  0  0  0  0  3  0  0  0  0  0  0
  -23.5480   -8.3420   22.1400 C   0  0  0  0  0  3  0  0  0  0  0  0
  -22.3790   -8.0980   21.3800 C   0  0  0  0  0  0  0  0  0  0  0  0
  -21.9730   -9.0450   20.4250 C   0  0  0  0  0  3  0  0  0  0  0  0
  -22.7020  -10.2300   20.2360 C   0  0  0  0  0  3  0  0  0  0  0  0
  -21.6230   -6.9550   21.4750 O   0  0  0  0  0  0  0  0  0  0  0  0
  -21.5800   -6.2140   22.6290 C   0  0  0  0  0  0  0  0  0  0  0  0
  -21.1740   -6.7760   23.8600 C   0  0  0  0  0  3  0  0  0  0  0  0
  -21.0770   -5.9620   25.0070 C   0  0  0  0  0  3  0  0  0  0  0  0
  -21.3770   -4.5890   24.9230 C   0  0  0  0  0  0  0  0  0  0  0  0
  -21.7760   -4.0270   23.6980 C   0  0  0  0  0  3  0  0  0  0  0  0
  -21.8740   -4.8380   22.5540 C   0  0  0  0  0  0  0  0  0  0  0  0
  -22.2400   -4.2880   21.3710 F   0  0  0  0  0  0  0  0  0  0  0  0
  -21.2760   -3.8050   26.0230 F   0  0  0  0  0  0  0  0  0  0  0  0
  -22.7190  -13.5900   21.0420 C   0  0  0  0  0  0  0  0  0  0  0  0
  -21.9750  -12.9110   21.9090 N   0  0  0  0  0  0  0  0  0  0  0  0
  -22.2920  -14.6060   20.4960 O   0  0  0  0  0  0  0  0  0  0  0  0
  -22.3340  -12.0890   22.3730 H   0  0  0  0  0  0  0  0  0  0  0  0
  -21.0360  -13.2190   22.1120 H   0  0  0  0  0  0  0  0  0  0  0  0
  -25.3650  -15.2360   20.2420 N   0  0  0  0  0  0  0  0  0  0  0  0
  -24.5950  -15.8920   20.3180 H   0  0  0  0  0  0  0  0  0  0  0  0
  -26.2160  -15.6660   19.9020 H   0  0  0  0  0  0  0  0  0  0  0  0
  1  2  1  0
  3  4  1  0
  3  2  1  0
  5  4  1  0
  6  8  1  0
  6  5  1  0
  7 18  2  0
  8 13  1  0
  9 17  1  0
  9 19  1  0
 10 16  1  0
 10 12  1  0
 11 17  1  0
 12 11  1  0
 13 12  2  0
 14 15  1  0
 14  8  2  0
 15 10  2  0
 16  9  1  0
 17  7  1  0
 19 21  2  0
 20 19  1  0
 22 20  1  0
 23 32  2  0
 23 28  1  0
 24 20  1  0
 24 28  1  0
 25 24  1  0
 26 27  1  0
 26 25  1  0
 27 23  1  0
 28 29  2  0
 29 30  1  0
 31 30  2  0
 32 31  1  0
 33  7  1  0
 33 34  1  0
 33 43  1  0
 34 37  1  0
 35 39  1  0
 35 34  1  0
 36 35  2  0
 39 38  1  0
 41 39  1  0
 41 42  1  0
 41 40  1  0
 43 46  1  1
 43 44  1  0
 45 43  1  0
 47 48  1  0
 47  1  1  0
 48 54  1  0
 50 53  1  0
 51 49  1  0
 52 50  2  0
 52 54  1  0
 53 63  1  0
 53 49  2  0
 54 51  2  0
 55 63  1  0
 56 61  1  0
 57 58  1  0
 57 56  1  0
 59 58  1  0
 59 68  1  0
 59 60  1  0
 61 55  1  0
 61 60  1  0
 62 55  2  0
 63 64  1  0
 65 66  2  0
 66 67  1  0
 66 85  1  0
 67 70  1  0
 68 65  1  0
 68 69  1  0
 69 67  2  0
 70 71  1  0
 71 72  2  0
 73 76  1  0
 73 72  1  0
 74 73  2  0
 75 74  1  0
 75 70  2  0
 76 77  1  0
 77 78  1  0
 78 79  2  0
 80 79  1  0
 80 84  1  0
 81 80  2  0
 82 77  2  0
 82 81  1  0
 83 82  1  0
 85 86  1  0
 86 89  1  0
 86 88  1  0
 87 85  2  0
 90 91  1  0
 90 65  1  0
 92 90  1  0
M  ISO  4   5 101   6 101  55 100  63 100
M  END
>  <TORSDO>  (69) 
F 23

>  <SCORE>  (69) 
-12.639

>  <name>  (69) 
72

>  <ligand_id>  (69) 
72

>  <original_smiles>  (69) 
[H]c1c([H])c([H])c2c(c1[H])C([H])([H])C([H])([H])C([H])([H])C2([H])N([H])C(=O)C1([H])N(C(=O)C([H])(N([H])C(=O)C([H])(N([H])C([H])([H])[H])C([H])([H])[H])C(C([H])([H])[H])(C([H])([H])[H])C([H])([H])[H])C([H])([H])c2c([H])c(OC([H])([H])C([H])([H])C([H])([H])C([H])([H])C([H])([H])C([H])([H])Oc3c([H])c([H])c(N([H])C(=O)N4C([H])([H])C([H])([H])C([H])([H])C([H])(n5nc(-c6c([H])c([H])c(Oc7c([H])c([H])c(F)c([H])c7F)c([H])c6[H])c(C(=O)N([H])[H])c5N([H])[H])C4([H])[H])c([H])c3[H])c([H])c([H])c2C1([H])[H]

>  <smiles>  (69) 
[H]c1c([H])c([H])c2c(c1[H])C([H])([H])C([H])([H])C([H])([H])C2([H])N([H])C(=O)C1([H])N(C(=O)C([H])(N([H])C(=O)C([H])(N([H])C([H])([H])[H])C([H])([H])[H])C(C([H])([H])[H])(C([H])([H])[H])C([H])([H])[H])C([H])([H])c2c([H])c(OC([H])([H])C([H])([H])C([H])([H])C([H])([H])C([H])([H])C([H])([H])Oc3c([H])c([H])c(N([H])C(=O)N4C([H])([H])C([H])([H])C([H])([H])C([H])(n5nc(-c6c([H])c([H])c(Oc7c([H])c([H])c(F)c([H])c7F)c([H])c6[H])c(C(=O)N([H])[H])c5N([H])[H])C4([H])[H])c([H])c3[H])c([H])c([H])c2C1([H])[H]

$$$$
73:0:0
     RDKit          3D

 90 97  0  0  1  0  0  0  0  0999 V2000
  -27.8060  -22.7890   22.0570 C   0  0  0  0  0  2  0  0  0  0  0  0
  -28.1210  -23.6690   20.9800 O   0  0  0  0  0  0  0  0  0  0  0  0
  -28.3570  -25.0040   21.4180 C   0  0  0  0  0  2  0  0  0  0  0  0
  -29.0330  -25.8100   20.2920 C   0  0  0  0  0  2  0  0  0  0  0  0
  -28.9770  -27.2200   20.5330 O   0  0  0  0  0  0  0  0  0  0  0  0
  -24.8130  -32.1180   23.5430 C   0  0  0  0  0  0  0  0  0  0  0  0
  -27.7520  -27.8490   20.4980 C   0  0  0  0  0  0  0  0  0  0  0  0
  -23.7220  -30.6820   21.8480 C   0  0  0  0  0  3  0  0  0  0  0  0
  -25.2850  -29.2330   20.4560 C   0  0  0  0  0  0  0  0  0  0  0  0
  -26.2290  -31.1650   21.7290 C   0  0  0  0  0  2  0  0  0  0  0  0
  -26.3990  -29.8060   21.0820 C   0  0  0  0  0  0  0  0  0  0  0  0
  -27.6340  -29.1210   21.0980 C   0  0  0  0  0  3  0  0  0  0  0  0
  -26.6140  -27.2830   19.8740 C   0  0  0  0  0  3  0  0  0  0  0  0
  -25.3870  -27.9680   19.8540 C   0  0  0  0  0  3  0  0  0  0  0  0
  -24.0040  -30.0320   20.4680 C   0  0  0  0  0  2  0  0  0  0  0  0
  -24.9370  -31.3350   22.4330 N   0  0  0  0  0  0  0  0  0  0  0  0
  -23.7050  -32.3340   24.0530 O   0  0  0  0  0  0  0  0  0  0  0  0
  -23.0900  -29.6210   22.7760 C   0  0  0  0  0  0  0  0  0  0  0  0
  -21.7860  -29.3620   22.5830 N   0  0  0  0  0  0  0  0  0  0  0  0
  -23.7700  -29.0330   23.6190 O   0  0  0  0  0  0  0  0  0  0  0  0
  -21.2950  -29.8870   21.8700 H   0  0  0  0  0  0  0  0  0  0  0  0
  -18.4720  -27.9650   22.9140 C   0  0  0  0  0  0  0  0  0  0  0  0
  -20.9920  -28.3730   23.3120 C   0  0  0  0  0  3  0  0  0  0  0  0
  -21.2090  -26.9500   22.7440 C   0  0  0  0  0  2  0  0  0  0  0  0
  -20.1790  -26.5620   21.6760 C   0  0  0  0  0  2  0  0  0  0  0  0
  -18.7620  -26.6280   22.2540 C   0  0  0  0  0  2  0  0  0  0  0  0
  -19.5210  -28.7900   23.3990 C   0  0  0  0  0  0  0  0  0  0  0  0
  -19.2030  -30.0400   23.9710 C   0  0  0  0  0  3  0  0  0  0  0  0
  -17.8650  -30.4650   24.0730 C   0  0  0  0  0  3  0  0  0  0  0  0
  -16.8290  -29.6370   23.6090 C   0  0  0  0  0  3  0  0  0  0  0  0
  -17.1330  -28.3910   23.0320 C   0  0  0  0  0  3  0  0  0  0  0  0
  -26.0510  -32.7960   24.2080 C   0  0  0  0  0  3  0  0  0  0  0  0
  -26.4950  -32.0970   25.5500 C   0  0  1  0  0  0  0  0  0  0  0  0
  -25.3360  -31.8630   26.5460 C   0  0  0  0  0  1  0  0  0  0  0  0
  -27.1490  -30.7280   25.2540 C   0  0  0  0  0  1  0  0  0  0  0  0
  -27.5660  -32.9570   26.2590 C   0  0  0  0  0  1  0  0  0  0  0  0
  -25.7090  -34.2050   24.4420 N   0  0  0  0  0  0  0  0  0  0  0  0
  -26.0740  -35.2180   23.6420 C   0  0  0  0  0  0  0  0  0  0  0  0
  -26.8020  -35.0650   22.6570 O   0  0  0  0  0  0  0  0  0  0  0  0
  -25.0670  -34.3930   25.1980 H   0  0  0  0  0  0  0  0  0  0  0  0
  -24.3440  -36.9560   23.0900 C   0  0  0  0  0  1  0  0  0  0  0  0
  -25.5440  -36.6220   23.9910 C   0  0  0  0  0  3  0  0  0  0  0  0
  -27.6240  -37.5810   24.8740 C   0  0  0  0  0  1  0  0  0  0  0  0
  -26.5690  -37.6810   23.8690 N   0  0  0  0  0  0  0  0  0  0  0  0
  -26.1450  -38.6010   23.9460 H   0  0  0  0  0  0  0  0  0  0  0  0
  -27.4930  -21.3830   21.5210 C   0  0  0  0  0  2  0  0  0  0  0  0
  -28.6650  -20.7680   20.9950 O   0  0  0  0  0  0  0  0  0  0  0  0
  -28.3670  -19.5800   20.2660 C   0  0  0  0  0  2  0  0  0  0  0  0
  -29.6620  -18.8370   19.8940 C   0  0  0  0  0  2  0  0  0  0  0  0
  -30.0630  -17.9670   20.9490 O   0  0  0  0  0  0  0  0  0  0  0  0
  -31.4690  -17.8850   21.1710 C   0  0  0  0  0  2  0  0  0  0  0  0
  -32.1640  -16.8510   20.2700 C   0  0  0  0  0  2  0  0  0  0  0  0
  -31.9300  -14.4640   19.7030 C   0  0  0  0  0  0  0  0  0  0  0  0
  -31.3700  -12.1870   18.9420 C   0  0  0  0  0  2  0  0  0  0  0  0
  -30.3890  -12.2580   17.7560 C   0  0  0  0  0  2  0  0  0  0  0  0
  -28.9350  -12.3150   18.2570 C   0  0  0  0  0  2  0  0  0  0  0  0
  -28.7260  -13.3820   19.3650 C   0  0  0  0  0  3  0  0  0  0  0  0
  -29.8210  -13.2870   20.4530 C   0  0  0  0  0  2  0  0  0  0  0  0
  -31.1380  -13.3620   19.7950 N   0  0  0  0  0  0  0  0  0  0  0  0
  -32.9520  -14.5110   19.0150 O   0  0  0  0  0  0  0  0  0  0  0  0
  -31.5220  -15.5410   20.3790 N   0  0  0  0  0  0  0  0  0  0  0  0
  -30.6870  -15.4770   20.9440 H   0  0  0  0  0  0  0  0  0  0  0  0
  -26.5230  -14.3100   20.3180 C   0  0  0  0  0  0  0  0  0  0  0  0
  -25.3730  -13.6950   20.7340 C   0  0  0  0  0  0  0  0  0  0  0  0
  -25.5970  -12.2930   20.5790 C   0  0  0  0  0  0  0  0  0  0  0  0
  -27.3840  -13.2930   19.9390 N   0  0  0  0  0  0  0  0  0  0  0  0
  -26.8320  -12.0680   20.1490 N   0  0  0  0  0  0  0  0  0  0  0  0
  -24.6860  -11.1530   20.7540 C   0  0  0  0  0  0  0  0  0  0  0  0
  -25.0150  -10.0650   21.5910 C   0  0  0  0  0  3  0  0  0  0  0  0
  -24.1140   -8.9910   21.7570 C   0  0  0  0  0  3  0  0  0  0  0  0
  -22.8680   -9.0000   21.0880 C   0  0  0  0  0  0  0  0  0  0  0  0
  -22.5550  -10.0750   20.2360 C   0  0  0  0  0  3  0  0  0  0  0  0
  -23.4560  -11.1380   20.0660 C   0  0  0  0  0  3  0  0  0  0  0  0
  -21.9430   -7.9870   21.1680 O   0  0  0  0  0  0  0  0  0  0  0  0
  -21.8340   -7.1990   22.2860 C   0  0  0  0  0  0  0  0  0  0  0  0
  -21.5870   -7.7470   23.5640 C   0  0  0  0  0  3  0  0  0  0  0  0
  -21.4110   -6.8960   24.6730 C   0  0  0  0  0  3  0  0  0  0  0  0
  -21.4730   -5.4990   24.5060 C   0  0  0  0  0  0  0  0  0  0  0  0
  -21.7140   -4.9520   23.2340 C   0  0  0  0  0  3  0  0  0  0  0  0
  -21.8900   -5.8000   22.1260 C   0  0  0  0  0  0  0  0  0  0  0  0
  -22.1010   -5.2670   20.8980 F   0  0  0  0  0  0  0  0  0  0  0  0
  -21.2960   -4.6800   25.5700 F   0  0  0  0  0  0  0  0  0  0  0  0
  -24.1040  -14.3690   21.1660 C   0  0  0  0  0  0  0  0  0  0  0  0
  -23.3490  -13.7420   22.0620 N   0  0  0  0  0  0  0  0  0  0  0  0
  -23.7960  -15.4850   20.7480 O   0  0  0  0  0  0  0  0  0  0  0  0
  -23.6150  -12.8390   22.4260 H   0  0  0  0  0  0  0  0  0  0  0  0
  -22.4980  -14.1770   22.3890 H   0  0  0  0  0  0  0  0  0  0  0  0
  -26.9010  -15.6450   20.2170 N   0  0  0  0  0  0  0  0  0  0  0  0
  -26.2750  -16.4070   20.4510 H   0  0  0  0  0  0  0  0  0  0  0  0
  -27.7960  -15.9620   19.8690 H   0  0  0  0  0  0  0  0  0  0  0  0
  2  3  1  0
  2  1  1  0
  4  5  1  0
  4  3  1  0
  6 17  2  0
  7  5  1  0
  7 12  1  0
  8 16  1  0
  8 18  1  0
  9 15  1  0
  9 11  1  0
 10 16  1  0
 11 12  2  0
 11 10  1  0
 13  7  2  0
 14 13  1  0
 14  9  2  0
 15  8  1  0
 16  6  1  0
 18 20  2  0
 19 18  1  0
 21 19  1  0
 22 31  2  0
 22 27  1  0
 23 19  1  0
 23 27  1  0
 24 23  1  0
 25 26  1  0
 25 24  1  0
 26 22  1  0
 27 28  2  0
 28 29  1  0
 30 29  2  0
 31 30  1  0
 32  6  1  0
 32 37  1  0
 32 33  1  0
 33 36  1  1
 33 34  1  0
 35 33  1  0
 37 40  1  0
 38 42  1  0
 38 37  1  0
 39 38  2  0
 42 41  1  0
 44 45  1  0
 44 42  1  0
 44 43  1  0
 46  1  1  0
 47 46  1  0
 48 47  1  0
 49 48  1  0
 49 50  1  0
 50 51  1  0
 52 61  1  0
 52 51  1  0
 53 59  1  0
 53 61  1  0
 54 59  1  0
 55 56  1  0
 55 54  1  0
 57 56  1  0
 57 66  1  0
 57 58  1  0
 59 58  1  0
 60 53  2  0
 61 62  1  0
 63 64  2  0
 64 83  1  0
 65 64  1  0
 65 68  1  0
 66 67  1  0
 66 63  1  0
 67 65  2  0
 68 69  1  0
 69 70  2  0
 71 74  1  0
 71 70  1  0
 72 71  2  0
 73 72  1  0
 73 68  2  0
 74 75  1  0
 75 76  1  0
 76 77  2  0
 78 77  1  0
 78 82  1  0
 79 78  2  0
 80 75  2  0
 80 79  1  0
 81 80  1  0
 83 84  1  0
 84 87  1  0
 84 86  1  0
 85 83  2  0
 88 63  1  0
 88 89  1  0
 90 88  1  0
M  ISO  4   4 101   5 101  53 100  61 100
M  END
>  <TORSDO>  (70) 
F 26

>  <SCORE>  (70) 
-9.736

>  <name>  (70) 
73

>  <ligand_id>  (70) 
73

>  <original_smiles>  (70) 
[H]c1c([H])c([H])c2c(c1[H])C([H])([H])C([H])([H])C([H])([H])C2([H])N([H])C(=O)C1([H])N(C(=O)C([H])(N([H])C(=O)C([H])(N([H])C([H])([H])[H])C([H])([H])[H])C(C([H])([H])[H])(C([H])([H])[H])C([H])([H])[H])C([H])([H])c2c([H])c(OC([H])([H])C([H])([H])OC([H])([H])C([H])([H])OC([H])([H])C([H])([H])OC([H])([H])C([H])([H])N([H])C(=O)N3C([H])([H])C([H])([H])C([H])([H])C([H])(n4nc(-c5c([H])c([H])c(Oc6c([H])c([H])c(F)c([H])c6F)c([H])c5[H])c(C(=O)N([H])[H])c4N([H])[H])C3([H])[H])c([H])c([H])c2C1([H])[H]

>  <smiles>  (70) 
[H]c1c([H])c([H])c2c(c1[H])C([H])([H])C([H])([H])C([H])([H])C2([H])N([H])C(=O)C1([H])N(C(=O)C([H])(N([H])C(=O)C([H])(N([H])C([H])([H])[H])C([H])([H])[H])C(C([H])([H])[H])(C([H])([H])[H])C([H])([H])[H])C([H])([H])c2c([H])c(OC([H])([H])C([H])([H])OC([H])([H])C([H])([H])OC([H])([H])C([H])([H])OC([H])([H])C([H])([H])N([H])C(=O)N3C([H])([H])C([H])([H])C([H])([H])C([H])(n4nc(-c5c([H])c([H])c(Oc6c([H])c([H])c(F)c([H])c6F)c([H])c5[H])c(C(=O)N([H])[H])c4N([H])[H])C3([H])[H])c([H])c([H])c2C1([H])[H]

$$$$
74:0:0
     RDKit          3D

103112  0  0  1  0  0  0  0  0999 V2000
  -31.6900  -22.4250   24.2860 C   0  0  0  0  0  3  0  0  0  0  0  0
  -31.7680  -23.6280   23.5610 C   0  0  0  0  0  3  0  0  0  0  0  0
  -31.1840  -21.2680   23.6710 C   0  0  0  0  0  3  0  0  0  0  0  0
  -30.8500  -22.5060   21.5960 C   0  0  0  0  0  3  0  0  0  0  0  0
  -31.3410  -23.6780   22.2190 C   0  0  0  0  0  0  0  0  0  0  0  0
  -30.7740  -21.2950   22.3220 C   0  0  0  0  0  0  0  0  0  0  0  0
  -31.3620  -25.0160   21.4920 C   0  0  0  0  0  2  0  0  0  0  0  0
  -32.2230  -25.0230   20.2120 C   0  0  0  0  0  2  0  0  0  0  0  0
  -30.7620  -26.4470   18.8350 C   0  0  0  0  0  0  0  0  0  0  0  0
  -31.4440  -25.3160   19.0120 N   0  0  0  0  0  0  0  0  0  0  0  0
  -30.7530  -27.3470   19.6800 O   0  0  0  0  0  0  0  0  0  0  0  0
  -31.4370  -24.6270   18.2730 H   0  0  0  0  0  0  0  0  0  0  0  0
  -30.0690  -26.4800   17.5600 C   0  0  0  0  0  3  0  0  0  0  0  0
  -29.0400  -27.3260   17.4080 C   0  0  0  0  0  3  0  0  0  0  0  0
  -28.2190  -27.5280   16.1460 C   0  0  0  0  0  2  0  0  0  0  0  0
  -26.8620  -26.7890   16.1480 C   0  0  0  0  0  2  0  0  0  0  0  0
  -26.3460  -26.4050   17.4220 O   0  0  0  0  0  0  0  0  0  0  0  0
  -25.2290  -29.6070   23.6580 C   0  0  0  0  0  0  0  0  0  0  0  0
  -25.6210  -27.3290   18.1350 C   0  0  0  0  0  0  0  0  0  0  0  0
  -23.4340  -29.8770   21.9740 C   0  0  0  0  0  3  0  0  0  0  0  0
  -24.0100  -29.1140   19.6150 C   0  0  0  0  0  0  0  0  0  0  0  0
  -25.8630  -29.5450   21.2530 C   0  0  0  0  0  2  0  0  0  0  0  0
  -25.3310  -28.8760   20.0040 C   0  0  0  0  0  0  0  0  0  0  0  0
  -26.1480  -28.0220   19.2460 C   0  0  0  0  0  3  0  0  0  0  0  0
  -24.2750  -27.5430   17.7750 C   0  0  0  0  0  3  0  0  0  0  0  0
  -23.4740  -28.4520   18.4950 C   0  0  0  0  0  3  0  0  0  0  0  0
  -23.2310  -30.1030   20.4520 C   0  0  0  0  0  2  0  0  0  0  0  0
  -24.8690  -29.6460   22.3460 N   0  0  0  0  0  0  0  0  0  0  0  0
  -24.3990  -29.8190   24.5530 O   0  0  0  0  0  0  0  0  0  0  0  0
  -22.4930  -28.7370   22.4230 C   0  0  0  0  0  0  0  0  0  0  0  0
  -21.1790  -29.0070   22.3950 N   0  0  0  0  0  0  0  0  0  0  0  0
  -22.9420  -27.6370   22.7550 O   0  0  0  0  0  0  0  0  0  0  0  0
  -20.8930  -29.9350   22.1150 H   0  0  0  0  0  0  0  0  0  0  0  0
  -17.5960  -28.5910   22.3780 C   0  0  0  0  0  0  0  0  0  0  0  0
  -20.1030  -28.0770   22.7310 C   0  0  0  0  0  3  0  0  0  0  0  0
  -19.9340  -27.0010   21.6320 C   0  0  0  0  0  2  0  0  0  0  0  0
  -18.8950  -27.3800   20.5730 C   0  0  0  0  0  2  0  0  0  0  0  0
  -17.5260  -27.6050   21.2230 C   0  0  0  0  0  2  0  0  0  0  0  0
  -18.8110  -28.8240   23.0750 C   0  0  0  0  0  0  0  0  0  0  0  0
  -18.8370  -29.7810   24.1140 C   0  0  0  0  0  3  0  0  0  0  0  0
  -17.6740  -30.4890   24.4640 C   0  0  0  0  0  3  0  0  0  0  0  0
  -16.4690  -30.2420   23.7850 C   0  0  0  0  0  3  0  0  0  0  0  0
  -16.4290  -29.2940   22.7460 C   0  0  0  0  0  3  0  0  0  0  0  0
  -26.7000  -29.3270   24.1020 C   0  0  0  0  0  3  0  0  0  0  0  0
  -26.9670  -27.8140   24.4670 C   0  0  1  0  0  0  0  0  0  0  0  0
  -25.9570  -27.2370   25.4870 C   0  0  0  0  0  1  0  0  0  0  0  0
  -26.9210  -26.9360   23.1960 C   0  0  0  0  0  1  0  0  0  0  0  0
  -28.3850  -27.6410   25.0590 C   0  0  0  0  0  1  0  0  0  0  0  0
  -26.9880  -30.2020   25.2490 N   0  0  0  0  0  0  0  0  0  0  0  0
  -27.7340  -31.3130   25.1860 C   0  0  0  0  0  0  0  0  0  0  0  0
  -28.3190  -31.6710   24.1580 O   0  0  0  0  0  0  0  0  0  0  0  0
  -26.4790  -30.0170   26.1010 H   0  0  0  0  0  0  0  0  0  0  0  0
  -26.9500  -33.3990   26.3580 C   0  0  0  0  0  1  0  0  0  0  0  0
  -27.8580  -32.1640   26.4650 C   0  0  0  0  0  3  0  0  0  0  0  0
  -30.1100  -31.4910   27.1660 C   0  0  0  0  0  1  0  0  0  0  0  0
  -29.2430  -32.5910   26.7510 N   0  0  0  0  0  0  0  0  0  0  0  0
  -29.2620  -33.2980   27.4790 H   0  0  0  0  0  0  0  0  0  0  0  0
  -30.2180  -20.0210   21.7030 C   0  0  0  0  0  2  0  0  0  0  0  0
  -31.2090  -18.9960   21.7170 O   0  0  0  0  0  0  0  0  0  0  0  0
  -29.2460  -15.9470   20.8160 C   0  0  0  0  0  3  0  0  0  0  0  0
  -31.6110  -15.4120   21.0180 C   0  0  0  0  0  3  0  0  0  0  0  0
  -29.5200  -17.2980   21.1070 C   0  0  0  0  0  3  0  0  0  0  0  0
  -31.8840  -16.7600   21.3100 C   0  0  0  0  0  3  0  0  0  0  0  0
  -30.2860  -14.9940   20.7660 C   0  0  0  0  0  0  0  0  0  0  0  0
  -30.8470  -17.7130   21.3770 C   0  0  0  0  0  0  0  0  0  0  0  0
  -30.2940  -12.8460   19.4870 C   0  0  0  0  0  0  0  0  0  0  0  0
  -29.7420  -10.7390   18.3140 C   0  0  0  0  0  2  0  0  0  0  0  0
  -28.5540  -10.9450   17.3530 C   0  0  0  0  0  2  0  0  0  0  0  0
  -27.2120  -10.7760   18.0910 C   0  0  0  0  0  2  0  0  0  0  0  0
  -27.1490  -11.6030   19.4020 C   0  0  0  0  0  3  0  0  0  0  0  0
  -28.4150  -11.3500   20.2520 C   0  0  0  0  0  2  0  0  0  0  0  0
  -29.5970  -11.6810   19.4320 N   0  0  0  0  0  0  0  0  0  0  0  0
  -31.1670  -13.1440   18.6620 O   0  0  0  0  0  0  0  0  0  0  0  0
  -29.9350  -13.6430   20.5050 N   0  0  0  0  0  0  0  0  0  0  0  0
  -29.1910  -13.2660   21.0710 H   0  0  0  0  0  0  0  0  0  0  0  0
  -24.9840  -12.1960   20.6660 C   0  0  0  0  0  0  0  0  0  0  0  0
  -24.0050  -11.4110   21.2200 C   0  0  0  0  0  0  0  0  0  0  0  0
  -24.4160  -10.0610   21.0050 C   0  0  0  0  0  0  0  0  0  0  0  0
  -25.9290  -11.3170   20.1540 N   0  0  0  0  0  0  0  0  0  0  0  0
  -25.6000  -10.0270   20.4070 N   0  0  0  0  0  0  0  0  0  0  0  0
  -23.7210   -8.7960   21.2770 C   0  0  0  0  0  0  0  0  0  0  0  0
  -24.2280   -7.8620   22.2060 C   0  0  0  0  0  3  0  0  0  0  0  0
  -23.5340   -6.6600   22.4640 C   0  0  0  0  0  3  0  0  0  0  0  0
  -22.3200   -6.3850   21.7930 C   0  0  0  0  0  0  0  0  0  0  0  0
  -21.8300   -7.3090   20.8550 C   0  0  0  0  0  3  0  0  0  0  0  0
  -22.5230   -8.5020   20.5960 C   0  0  0  0  0  3  0  0  0  0  0  0
  -21.5910   -5.2330   21.9610 O   0  0  0  0  0  0  0  0  0  0  0  0
  -21.4480   -4.6460   23.1930 C   0  0  0  0  0  0  0  0  0  0  0  0
  -20.8070   -5.3060   24.2640 C   0  0  0  0  0  3  0  0  0  0  0  0
  -20.6200   -4.6380   25.4910 C   0  0  0  0  0  3  0  0  0  0  0  0
  -21.0630   -3.3100   25.6460 C   0  0  0  0  0  0  0  0  0  0  0  0
  -21.6990   -2.6510   24.5780 C   0  0  0  0  0  3  0  0  0  0  0  0
  -21.8870   -3.3160   23.3540 C   0  0  0  0  0  0  0  0  0  0  0  0
  -22.4810   -2.6700   22.3220 F   0  0  0  0  0  0  0  0  0  0  0  0
  -20.8770   -2.6650   26.8200 F   0  0  0  0  0  0  0  0  0  0  0  0
  -22.7210  -11.8880   21.8340 C   0  0  0  0  0  0  0  0  0  0  0  0
  -22.2160  -11.1710   22.8320 N   0  0  0  0  0  0  0  0  0  0  0  0
  -22.1780  -12.9250   21.4620 O   0  0  0  0  0  0  0  0  0  0  0  0
  -22.6720  -10.3280   23.1500 H   0  0  0  0  0  0  0  0  0  0  0  0
  -21.3680  -11.4750   23.2870 H   0  0  0  0  0  0  0  0  0  0  0  0
  -25.1390  -13.5720   20.5400 N   0  0  0  0  0  0  0  0  0  0  0  0
  -24.4330  -14.2210   20.8720 H   0  0  0  0  0  0  0  0  0  0  0  0
  -25.9020  -14.0260   20.0550 H   0  0  0  0  0  0  0  0  0  0  0  0
  2  1  2  0
  3  1  1  0
  4  5  2  0
  4  6  1  0
  5  2  1  0
  6  3  2  0
  7  5  1  0
  8  7  1  0
  9 10  1  0
  9 11  2  0
 10  8  1  0
 12 10  1  0
 13  9  1  0
 14 13  2  0
 15 16  1  0
 15 14  1  0
 16 17  1  0
 17 19  1  0
 18 29  2  0
 19 24  1  0
 20 28  1  0
 20 30  1  0
 21 23  1  0
 21 27  1  0
 22 28  1  0
 23 22  1  0
 24 23  2  0
 25 19  2  0
 25 26  1  0
 26 21  2  0
 27 20  1  0
 28 18  1  0
 30 32  2  0
 31 30  1  0
 33 31  1  0
 34 43  2  0
 34 39  1  0
 35 31  1  0
 35 39  1  0
 36 35  1  0
 37 38  1  0
 37 36  1  0
 38 34  1  0
 39 40  2  0
 40 41  1  0
 42 41  2  0
 43 42  1  0
 44 18  1  0
 44 45  1  0
 44 49  1  0
 45 48  1  1
 45 46  1  0
 47 45  1  0
 49 52  1  0
 50 49  1  0
 50 54  1  0
 51 50  2  0
 54 53  1  0
 54 56  1  0
 56 55  1  0
 56 57  1  0
 58 59  1  0
 58  6  1  0
 60 62  1  0
 61 63  2  0
 62 65  2  0
 63 65  1  0
 64 60  2  0
 64 61  1  0
 65 59  1  0
 66 74  1  0
 67 72  1  0
 68 69  1  0
 68 67  1  0
 70 69  1  0
 70 79  1  0
 70 71  1  0
 72 66  1  0
 72 71  1  0
 73 66  2  0
 74 64  1  0
 74 75  1  0
 76 77  2  0
 77 96  1  0
 78 77  1  0
 78 81  1  0
 79 80  1  0
 79 76  1  0
 80 78  2  0
 81 82  1  0
 82 83  2  0
 84 87  1  0
 84 83  1  0
 85 84  2  0
 86 85  1  0
 86 81  2  0
 87 88  1  0
 88 93  2  0
 88 89  1  0
 89 90  2  0
 90 91  1  0
 91 95  1  0
 92 91  2  0
 93 92  1  0
 94 93  1  0
 96 97  1  0
 97 99  1  0
 97100  1  0
 98 96  2  0
101 76  1  0
101102  1  0
103101  1  0
M  ISO  4  16 101  17 101  66 100  74 100
M  END
>  <TORSDO>  (71) 
F 25

>  <SCORE>  (71) 
2.335

>  <name>  (71) 
74

>  <ligand_id>  (71) 
74

>  <original_smiles>  (71) 
[H]C(C(=O)N([H])C([H])([H])C([H])([H])c1c([H])c([H])c([H])c(C([H])([H])Oc2c([H])c([H])c(N([H])C(=O)N3C([H])([H])C([H])([H])C([H])([H])C([H])(n4nc(-c5c([H])c([H])c(Oc6c([H])c([H])c(F)c([H])c6F)c([H])c5[H])c(C(=O)N([H])[H])c4N([H])[H])C3([H])[H])c([H])c2[H])c1[H])=C([H])C([H])([H])C([H])([H])Oc1c([H])c([H])c2c(c1[H])C([H])([H])N(C(=O)C([H])(N([H])C(=O)C([H])(N([H])C([H])([H])[H])C([H])([H])[H])C(C([H])([H])[H])(C([H])([H])[H])C([H])([H])[H])C([H])(C(=O)N([H])C1([H])c3c([H])c([H])c([H])c([H])c3C([H])([H])C([H])([H])C1([H])[H])C2([H])[H]

>  <smiles>  (71) 
[H]C(C(=O)N([H])C([H])([H])C([H])([H])c1c([H])c([H])c([H])c(C([H])([H])Oc2c([H])c([H])c(N([H])C(=O)N3C([H])([H])C([H])([H])C([H])([H])C([H])(n4nc(-c5c([H])c([H])c(Oc6c([H])c([H])c(F)c([H])c6F)c([H])c5[H])c(C(=O)N([H])[H])c4N([H])[H])C3([H])[H])c([H])c2[H])c1[H])=C([H])C([H])([H])C([H])([H])Oc1c([H])c([H])c2c(c1[H])C([H])([H])N(C(=O)C([H])(N([H])C(=O)C([H])(N([H])C([H])([H])[H])C([H])([H])[H])C(C([H])([H])[H])(C([H])([H])[H])C([H])([H])[H])C([H])(C(=O)N([H])C1([H])c3c([H])c([H])c([H])c([H])c3C([H])([H])C([H])([H])C1([H])[H])C2([H])[H]

$$$$
75:0:0
     RDKit          3D

111119  0  0  1  0  0  0  0  0999 V2000
  -28.0230  -19.3050   21.2040 O   0  0  0  0  0  0  0  0  0  0  0  0
  -27.9270  -21.2750   19.5900 O   0  0  0  0  0  0  0  0  0  0  0  0
  -27.9230  -19.8260   19.8300 S   0  0  1  0  0  0  0  0  0  0  0  0
  -30.0140  -17.4520   17.2100 C   0  0  0  0  0  3  0  0  0  0  0  0
  -31.3330  -17.9200   17.3780 C   0  0  0  0  0  3  0  0  0  0  0  0
  -28.9590  -18.0320   17.9380 C   0  0  0  0  0  3  0  0  0  0  0  0
  -30.5470  -19.5500   19.0090 C   0  0  0  0  0  3  0  0  0  0  0  0
  -31.6140  -18.9760   18.2750 C   0  0  0  0  0  0  0  0  0  0  0  0
  -29.2320  -19.0760   18.8450 C   0  0  0  0  0  0  0  0  0  0  0  0
  -33.0160  -19.5130   18.3920 C   0  0  0  0  0  0  0  0  0  0  0  0
  -33.1890  -20.5010   19.2780 N   0  0  0  0  0  0  0  0  0  0  0  0
  -33.9320  -19.0560   17.7060 O   0  0  0  0  0  0  0  0  0  0  0  0
  -32.3830  -20.7720   19.8220 H   0  0  0  0  0  0  0  0  0  0  0  0
  -34.4090  -21.2700   19.4840 C   0  0  0  0  0  2  0  0  0  0  0  0
  -35.1020  -20.9340   20.8130 C   0  0  0  0  0  2  0  0  0  0  0  0
  -34.1890  -20.9550   22.0600 C   0  0  0  0  0  2  0  0  0  0  0  0
  -33.5040  -19.6130   22.3950 C   0  0  0  0  0  2  0  0  0  0  0  0
  -31.9990  -19.5490   22.0700 C   0  0  0  0  0  2  0  0  0  0  0  0
  -31.2640  -18.4680   22.8930 C   0  0  0  0  0  2  0  0  0  0  0  0
  -31.2830  -16.5630   21.2440 C   0  0  0  0  0  0  0  0  0  0  0  0
  -31.4450  -14.1980   20.5730 C   0  0  0  0  0  2  0  0  0  0  0  0
  -30.7980  -13.8870   19.2130 C   0  0  0  0  0  2  0  0  0  0  0  0
  -29.2930  -13.6120   19.3740 C   0  0  0  0  0  2  0  0  0  0  0  0
  -28.5730  -14.7010   20.2090 C   0  0  0  0  0  3  0  0  0  0  0  0
  -29.3390  -14.9800   21.5180 C   0  0  0  0  0  2  0  0  0  0  0  0
  -30.7320  -15.3280   21.1810 N   0  0  0  0  0  0  0  0  0  0  0  0
  -32.3410  -16.8640   20.6850 O   0  0  0  0  0  0  0  0  0  0  0  0
  -30.6810  -17.3700   22.1260 N   0  0  0  0  0  0  0  0  0  0  0  0
  -29.8180  -16.9970   22.4940 H   0  0  0  0  0  0  0  0  0  0  0  0
  -26.0540  -15.1450   20.5000 C   0  0  0  0  0  0  0  0  0  0  0  0
  -24.9930  -14.3050   20.7110 C   0  0  0  0  0  0  0  0  0  0  0  0
  -25.5460  -12.9900   20.7940 C   0  0  0  0  0  0  0  0  0  0  0  0
  -27.1810  -14.3390   20.4700 N   0  0  0  0  0  0  0  0  0  0  0  0
  -26.8690  -13.0380   20.7000 N   0  0  0  0  0  0  0  0  0  0  0  0
  -24.8850  -11.6840   20.9000 C   0  0  0  0  0  0  0  0  0  0  0  0
  -25.1950  -10.7820   21.9420 C   0  0  0  0  0  3  0  0  0  0  0  0
  -24.5360   -9.5370   22.0330 C   0  0  0  0  0  3  0  0  0  0  0  0
  -23.5520   -9.1870   21.0780 C   0  0  0  0  0  0  0  0  0  0  0  0
  -23.2630  -10.0770   20.0290 C   0  0  0  0  0  3  0  0  0  0  0  0
  -23.9250  -11.3120   19.9380 C   0  0  0  0  0  3  0  0  0  0  0  0
  -22.8760   -7.9890   21.0720 O   0  0  0  0  0  0  0  0  0  0  0  0
  -22.4870   -7.3770   22.2360 C   0  0  0  0  0  0  0  0  0  0  0  0
  -21.6840   -8.0360   23.1910 C   0  0  0  0  0  3  0  0  0  0  0  0
  -21.2490   -7.3470   24.3420 C   0  0  0  0  0  3  0  0  0  0  0  0
  -21.6080   -5.9990   24.5330 C   0  0  0  0  0  0  0  0  0  0  0  0
  -22.4040   -5.3390   23.5800 C   0  0  0  0  0  3  0  0  0  0  0  0
  -22.8400   -6.0270   22.4330 C   0  0  0  0  0  0  0  0  0  0  0  0
  -23.5910   -5.3810   21.5080 F   0  0  0  0  0  0  0  0  0  0  0  0
  -21.1850   -5.3340   25.6330 F   0  0  0  0  0  0  0  0  0  0  0  0
  -23.5420  -14.6880   20.7430 C   0  0  0  0  0  0  0  0  0  0  0  0
  -22.7310  -13.9570   21.5000 N   0  0  0  0  0  0  0  0  0  0  0  0
  -23.1270  -15.6710   20.1290 O   0  0  0  0  0  0  0  0  0  0  0  0
  -23.0770  -13.1630   22.0180 H   0  0  0  0  0  0  0  0  0  0  0  0
  -21.7520  -14.1960   21.5640 H   0  0  0  0  0  0  0  0  0  0  0  0
  -26.1520  -16.5170   20.3120 N   0  0  0  0  0  0  0  0  0  0  0  0
  -25.3320  -17.0970   20.1880 H   0  0  0  0  0  0  0  0  0  0  0  0
  -27.0200  -16.9940   20.1160 H   0  0  0  0  0  0  0  0  0  0  0  0
  -26.4760  -19.1830   19.1710 N   0  0  0  0  0  0  0  0  0  0  0  0
  -25.9360  -18.6130   19.8260 H   0  0  0  0  0  0  0  0  0  0  0  0
  -25.7290  -19.8720   18.1160 C   0  0  0  0  0  2  0  0  0  0  0  0
  -24.8410  -20.9710   18.7260 C   0  0  0  0  0  2  0  0  0  0  0  0
  -24.0890  -21.6920   17.7530 O   0  0  0  0  0  0  0  0  0  0  0  0
  -24.8150  -22.6020   16.9280 C   0  0  0  0  0  2  0  0  0  0  0  0
  -25.4590  -23.7530   17.7180 C   0  0  0  0  0  2  0  0  0  0  0  0
  -26.7730  -23.3660   18.1030 O   0  0  0  0  0  0  0  0  0  0  0  0
  -27.3970  -24.2630   19.0100 C   0  0  0  0  0  2  0  0  0  0  0  0
  -27.2310  -23.8160   20.4770 C   0  0  0  0  0  2  0  0  0  0  0  0
  -27.6830  -24.8340   21.3630 O   0  0  0  0  0  0  0  0  0  0  0  0
  -29.1010  -24.9080   21.4940 C   0  0  0  0  0  2  0  0  0  0  0  0
  -29.5250  -26.3400   21.8590 C   0  0  0  0  0  2  0  0  0  0  0  0
  -29.3840  -27.1980   20.7300 O   0  0  0  0  0  0  0  0  0  0  0  0
  -24.7630  -31.8910   23.4130 C   0  0  0  0  0  0  0  0  0  0  0  0
  -28.1610  -27.8060   20.6380 C   0  0  0  0  0  0  0  0  0  0  0  0
  -23.8820  -30.3940   21.6430 C   0  0  0  0  0  3  0  0  0  0  0  0
  -25.6330  -29.0190   20.3920 C   0  0  0  0  0  0  0  0  0  0  0  0
  -26.3590  -31.0090   21.7260 C   0  0  0  0  0  2  0  0  0  0  0  0
  -26.6520  -29.6590   21.1100 C   0  0  0  0  0  0  0  0  0  0  0  0
  -27.9170  -29.0510   21.2470 C   0  0  0  0  0  3  0  0  0  0  0  0
  -27.1450  -27.1870   19.8890 C   0  0  0  0  0  3  0  0  0  0  0  0
  -25.8690  -27.7720   19.7870 C   0  0  0  0  0  3  0  0  0  0  0  0
  -24.3100  -29.7450   20.2970 C   0  0  0  0  0  2  0  0  0  0  0  0
  -25.0100  -31.1140   22.3210 N   0  0  0  0  0  0  0  0  0  0  0  0
  -23.6100  -32.0560   23.8320 O   0  0  0  0  0  0  0  0  0  0  0  0
  -23.2350  -29.3080   22.5310 C   0  0  0  0  0  0  0  0  0  0  0  0
  -21.9380  -29.0430   22.3000 N   0  0  0  0  0  0  0  0  0  0  0  0
  -23.8960  -28.7080   23.3840 O   0  0  0  0  0  0  0  0  0  0  0  0
  -21.4600  -29.5870   21.5950 H   0  0  0  0  0  0  0  0  0  0  0  0
  -18.6050  -27.6840   22.5730 C   0  0  0  0  0  0  0  0  0  0  0  0
  -21.1330  -28.0360   22.9850 C   0  0  0  0  0  3  0  0  0  0  0  0
  -21.3290  -26.6410   22.3470 C   0  0  0  0  0  2  0  0  0  0  0  0
  -20.2920  -26.3220   21.2650 C   0  0  0  0  0  2  0  0  0  0  0  0
  -18.8750  -26.3770   21.8450 C   0  0  0  0  0  2  0  0  0  0  0  0
  -19.6670  -28.4710   23.0950 C   0  0  0  0  0  0  0  0  0  0  0  0
  -19.3640  -29.6940   23.7310 C   0  0  0  0  0  3  0  0  0  0  0  0
  -18.0320  -30.1310   23.8560 C   0  0  0  0  0  3  0  0  0  0  0  0
  -16.9850  -29.3420   23.3500 C   0  0  0  0  0  3  0  0  0  0  0  0
  -17.2720  -28.1220   22.7130 C   0  0  0  0  0  3  0  0  0  0  0  0
  -25.9110  -32.6360   24.1680 C   0  0  0  0  0  3  0  0  0  0  0  0
  -26.2300  -32.0150   25.5840 C   0  0  1  0  0  0  0  0  0  0  0  0
  -24.9790  -31.8150   26.4680 C   0  0  0  0  0  1  0  0  0  0  0  0
  -26.9290  -30.6420   25.4400 C   0  0  0  0  0  1  0  0  0  0  0  0
  -27.2070  -32.9310   26.3540 C   0  0  0  0  0  1  0  0  0  0  0  0
  -25.5170  -34.0460   24.2930 N   0  0  0  0  0  0  0  0  0  0  0  0
  -25.9290  -35.0260   23.4780 C   0  0  0  0  0  0  0  0  0  0  0  0
  -26.7440  -34.8400   22.5690 O   0  0  0  0  0  0  0  0  0  0  0  0
  -24.8120  -34.2590   24.9840 H   0  0  0  0  0  0  0  0  0  0  0  0
  -24.2070  -36.6790   22.6850 C   0  0  0  0  0  1  0  0  0  0  0  0
  -25.3400  -36.4340   23.6960 C   0  0  0  0  0  3  0  0  0  0  0  0
  -27.3310  -37.4910   24.6690 C   0  0  0  0  0  1  0  0  0  0  0  0
  -26.3460  -37.5140   23.5910 N   0  0  0  0  0  0  0  0  0  0  0  0
  -25.8980  -38.4270   23.5900 H   0  0  0  0  0  0  0  0  0  0  0  0
  2  3  2  0
  3  1  2  0
  4  5  2  0
  4  6  1  0
  5  8  1  0
  6  9  2  0
  8 10  1  0
  8  7  2  0
  9  7  1  0
  9  3  1  0
 10 11  1  0
 11 14  1  0
 11 13  1  0
 12 10  2  0
 14 15  1  0
 15 16  1  0
 16 17  1  0
 18 17  1  0
 18 19  1  0
 20 28  1  0
 21 26  1  0
 22 23  1  0
 22 21  1  0
 24 23  1  0
 24 33  1  0
 24 25  1  0
 26 20  1  0
 26 25  1  0
 27 20  2  0
 28 29  1  0
 28 19  1  0
 30 31  2  0
 31 50  1  0
 31 32  1  0
 32 35  1  0
 33 30  1  0
 33 34  1  0
 34 32  2  0
 35 36  1  0
 36 37  2  0
 38 37  1  0
 39 38  2  0
 40 39  1  0
 40 35  2  0
 41 38  1  0
 41 42  1  0
 42 47  2  0
 42 43  1  0
 43 44  2  0
 44 45  1  0
 45 49  1  0
 46 45  2  0
 47 46  1  0
 48 47  1  0
 50 51  1  0
 51 54  1  0
 51 53  1  0
 52 50  2  0
 55 30  1  0
 56 55  1  0
 57 55  1  0
 58 59  1  0
  3 58  1  6
 60 61  1  0
 60 58  1  0
 62 61  1  0
 63 64  1  0
 63 62  1  0
 64 65  1  0
 65 66  1  0
 66 67  1  0
 67 68  1  0
 68 69  1  0
 69 70  1  0
 71 70  1  0
 72 83  2  0
 73 71  1  0
 73 78  1  0
 74 82  1  0
 74 84  1  0
 75 77  1  0
 76 82  1  0
 77 78  2  0
 77 76  1  0
 79 73  2  0
 80 79  1  0
 80 75  2  0
 81 75  1  0
 81 74  1  0
 82 72  1  0
 84 86  2  0
 85 84  1  0
 87 85  1  0
 88 97  2  0
 88 93  1  0
 89 85  1  0
 89 93  1  0
 90 89  1  0
 91 92  1  0
 91 90  1  0
 92 88  1  0
 93 94  2  0
 94 95  1  0
 96 95  2  0
 97 96  1  0
 98 72  1  0
 98103  1  0
 98 99  1  0
 99102  1  1
 99100  1  0
101 99  1  0
103106  1  0
104108  1  0
104103  1  0
105104  2  0
108107  1  0
110108  1  0
110109  1  0
111110  1  0
M  ISO  4  20 100  28 100  70 101  71 101
M  END
>  <TORSDO>  (72) 
F 36

>  <SCORE>  (72) 
-6.368

>  <name>  (72) 
75

>  <ligand_id>  (72) 
75

>  <original_smiles>  (72) 
[H]c1c([H])c([H])c2c(c1[H])C([H])([H])C([H])([H])C([H])([H])C2([H])N([H])C(=O)C1([H])N(C(=O)C([H])(N([H])C(=O)C([H])(N([H])C([H])([H])[H])C([H])([H])[H])C(C([H])([H])[H])(C([H])([H])[H])C([H])([H])[H])C([H])([H])c2c([H])c(OC([H])([H])C([H])([H])OC([H])([H])C([H])([H])OC([H])([H])C([H])([H])OC([H])([H])C([H])([H])N([H])S(=O)(=O)c3c([H])c([H])c([H])c(C(=O)N([H])C([H])([H])C([H])([H])C([H])([H])C([H])([H])C([H])([H])C([H])([H])N([H])C(=O)N4C([H])([H])C([H])([H])C([H])([H])C([H])(n5nc(-c6c([H])c([H])c(Oc7c([H])c([H])c(F)c([H])c7F)c([H])c6[H])c(C(=O)N([H])[H])c5N([H])[H])C4([H])[H])c3[H])c([H])c([H])c2C1([H])[H]

>  <smiles>  (72) 
[H]c1c([H])c([H])c2c(c1[H])C([H])([H])C([H])([H])C([H])([H])C2([H])N([H])C(=O)C1([H])N(C(=O)C([H])(N([H])C(=O)C([H])(N([H])C([H])([H])[H])C([H])([H])[H])C(C([H])([H])[H])(C([H])([H])[H])C([H])([H])[H])C([H])([H])c2c([H])c(OC([H])([H])C([H])([H])OC([H])([H])C([H])([H])OC([H])([H])C([H])([H])OC([H])([H])C([H])([H])N([H])S(=O)(=O)c3c([H])c([H])c([H])c(C(=O)N([H])C([H])([H])C([H])([H])C([H])([H])C([H])([H])C([H])([H])C([H])([H])N([H])C(=O)N4C([H])([H])C([H])([H])C([H])([H])C([H])(n5nc(-c6c([H])c([H])c(Oc7c([H])c([H])c(F)c([H])c7F)c([H])c6[H])c(C(=O)N([H])[H])c5N([H])[H])C4([H])[H])c3[H])c([H])c([H])c2C1([H])[H]

$$$$
76:0:0
     RDKit          3D

 86 93  0  0  1  0  0  0  0  0999 V2000
  -28.6720  -23.7700   19.9440 C   0  0  0  0  0  3  0  0  0  0  0  0
  -28.2190  -25.0910   20.7410 C   0  0  0  0  0  2  0  0  0  0  0  0
  -28.3430  -26.4570   20.1560 O   0  0  0  0  0  0  0  0  0  0  0  0
  -24.6310  -31.8710   23.2290 C   0  0  0  0  0  0  0  0  0  0  0  0
  -27.2220  -27.3030   20.1680 C   0  0  0  0  0  0  0  0  0  0  0  0
  -23.4160  -30.4700   21.5970 C   0  0  0  0  0  3  0  0  0  0  0  0
  -24.8570  -28.9120   20.1660 C   0  0  0  0  0  0  0  0  0  0  0  0
  -25.9520  -30.7900   21.3930 C   0  0  0  0  0  2  0  0  0  0  0  0
  -26.0300  -29.4080   20.7510 C   0  0  0  0  0  0  0  0  0  0  0  0
  -27.2190  -28.6170   20.7360 C   0  0  0  0  0  3  0  0  0  0  0  0
  -26.0280  -26.8560   19.5680 C   0  0  0  0  0  3  0  0  0  0  0  0
  -24.8580  -27.6420   19.5660 C   0  0  0  0  0  3  0  0  0  0  0  0
  -23.6210  -29.7890   20.2180 C   0  0  0  0  0  2  0  0  0  0  0  0
  -24.6860  -31.0620   22.1300 N   0  0  0  0  0  0  0  0  0  0  0  0
  -23.5520  -32.1480   23.7710 O   0  0  0  0  0  0  0  0  0  0  0  0
  -22.7600  -29.4560   22.5650 C   0  0  0  0  0  0  0  0  0  0  0  0
  -21.4320  -29.2780   22.4470 N   0  0  0  0  0  0  0  0  0  0  0  0
  -23.4430  -28.8320   23.3800 O   0  0  0  0  0  0  0  0  0  0  0  0
  -20.9390  -29.8330   21.7620 H   0  0  0  0  0  0  0  0  0  0  0  0
  -18.0610  -28.0720   22.9610 C   0  0  0  0  0  0  0  0  0  0  0  0
  -20.6180  -28.3420   23.2240 C   0  0  0  0  0  3  0  0  0  0  0  0
  -20.7260  -26.9080   22.6560 C   0  0  0  0  0  2  0  0  0  0  0  0
  -19.6230  -26.5770   21.6450 C   0  0  0  0  0  2  0  0  0  0  0  0
  -18.2420  -26.7200   22.2920 C   0  0  0  0  0  2  0  0  0  0  0  0
  -19.1780  -28.8410   23.3840 C   0  0  0  0  0  0  0  0  0  0  0  0
  -18.9550  -30.1060   23.9700 C   0  0  0  0  0  3  0  0  0  0  0  0
  -17.6480  -30.6030   24.1360 C   0  0  0  0  0  3  0  0  0  0  0  0
  -16.5460  -29.8320   23.7280 C   0  0  0  0  0  3  0  0  0  0  0  0
  -16.7530  -28.5680   23.1460 C   0  0  0  0  0  3  0  0  0  0  0  0
  -25.9190  -32.5040   23.8420 C   0  0  0  0  0  3  0  0  0  0  0  0
  -26.4500  -31.7270   25.1080 C   0  0  1  0  0  0  0  0  0  0  0  0
  -25.3700  -31.4840   26.1880 C   0  0  0  0  0  1  0  0  0  0  0  0
  -27.0290  -30.3510   24.7030 C   0  0  0  0  0  1  0  0  0  0  0  0
  -27.6090  -32.5180   25.7610 C   0  0  0  0  0  1  0  0  0  0  0  0
  -25.6080  -33.8990   24.1840 N   0  0  0  0  0  0  0  0  0  0  0  0
  -25.9280  -34.9580   23.4280 C   0  0  0  0  0  0  0  0  0  0  0  0
  -26.5840  -34.8640   22.3870 O   0  0  0  0  0  0  0  0  0  0  0  0
  -25.0250  -34.0460   24.9950 H   0  0  0  0  0  0  0  0  0  0  0  0
  -24.1860  -36.7460   23.1160 C   0  0  0  0  0  1  0  0  0  0  0  0
  -25.4440  -36.3430   23.9020 C   0  0  0  0  0  3  0  0  0  0  0  0
  -27.5920  -37.2310   24.6940 C   0  0  0  0  0  1  0  0  0  0  0  0
  -26.4690  -37.4000   23.7750 N   0  0  0  0  0  0  0  0  0  0  0  0
  -26.0630  -38.3180   23.9370 H   0  0  0  0  0  0  0  0  0  0  0  0
  -28.8900  -22.4000   20.7680 C   0  0  0  0  0  3  0  0  0  0  0  0
  -29.0280  -21.1070   20.0540 O   0  0  0  0  0  0  0  0  0  0  0  0
  -29.5860  -19.9460   20.7910 C   0  0  0  0  0  3  0  0  0  0  0  0
  -29.3710  -18.4490   20.2310 C   0  0  0  0  0  3  0  0  0  0  0  0
  -30.2390  -17.2470   20.8600 C   0  0  0  0  0  2  0  0  0  0  0  0
  -30.5850  -14.6890   20.3700 C   0  0  0  0  0  0  0  0  0  0  0  0
  -30.3560  -12.4350   19.3300 C   0  0  0  0  0  2  0  0  0  0  0  0
  -29.4000  -12.5300   18.1210 C   0  0  0  0  0  2  0  0  0  0  0  0
  -27.9350  -12.3670   18.5710 C   0  0  0  0  0  2  0  0  0  0  0  0
  -27.5820  -13.2470   19.8010 C   0  0  0  0  0  3  0  0  0  0  0  0
  -28.6560  -13.1330   20.9060 C   0  0  0  0  0  2  0  0  0  0  0  0
  -29.9470  -13.4750   20.2960 N   0  0  0  0  0  0  0  0  0  0  0  0
  -31.7640  -14.8020   20.0280 O   0  0  0  0  0  0  0  0  0  0  0  0
  -29.8180  -15.8000   20.6520 N   0  0  0  0  0  0  0  0  0  0  0  0
  -28.8500  -15.5990   20.8480 H   0  0  0  0  0  0  0  0  0  0  0  0
  -25.2040  -13.8450   20.5600 C   0  0  0  0  0  0  0  0  0  0  0  0
  -24.1410  -13.0720   20.9420 C   0  0  0  0  0  0  0  0  0  0  0  0
  -24.6010  -11.7200   20.9010 C   0  0  0  0  0  0  0  0  0  0  0  0
  -26.2430  -12.9630   20.3080 N   0  0  0  0  0  0  0  0  0  0  0  0
  -25.8880  -11.6800   20.5760 N   0  0  0  0  0  0  0  0  0  0  0  0
  -23.8750  -10.4580   21.0970 C   0  0  0  0  0  0  0  0  0  0  0  0
  -24.3340   -9.4730   21.9980 C   0  0  0  0  0  3  0  0  0  0  0  0
  -23.6070   -8.2760   22.1820 C   0  0  0  0  0  3  0  0  0  0  0  0
  -22.4070   -8.0570   21.4650 C   0  0  0  0  0  0  0  0  0  0  0  0
  -21.9670   -9.0320   20.5520 C   0  0  0  0  0  3  0  0  0  0  0  0
  -22.6940  -10.2200   20.3650 C   0  0  0  0  0  3  0  0  0  0  0  0
  -21.6490   -6.9150   21.5600 O   0  0  0  0  0  0  0  0  0  0  0  0
  -21.6580   -6.1390   22.6910 C   0  0  0  0  0  0  0  0  0  0  0  0
  -21.3230   -6.6630   23.9590 C   0  0  0  0  0  3  0  0  0  0  0  0
  -21.2750   -5.8140   25.0820 C   0  0  0  0  0  3  0  0  0  0  0  0
  -21.5540   -4.4410   24.9400 C   0  0  0  0  0  0  0  0  0  0  0  0
  -21.8830   -3.9170   23.6780 C   0  0  0  0  0  3  0  0  0  0  0  0
  -21.9310   -4.7620   22.5560 C   0  0  0  0  0  0  0  0  0  0  0  0
  -22.2270   -4.2470   21.3390 F   0  0  0  0  0  0  0  0  0  0  0  0
  -21.5020   -3.6230   26.0180 F   0  0  0  0  0  0  0  0  0  0  0  0
  -22.7480  -13.5510   21.2300 C   0  0  0  0  0  0  0  0  0  0  0  0
  -22.0290  -12.8560   22.1060 N   0  0  0  0  0  0  0  0  0  0  0  0
  -22.3050  -14.5760   20.7150 O   0  0  0  0  0  0  0  0  0  0  0  0
  -22.4020  -12.0270   22.5460 H   0  0  0  0  0  0  0  0  0  0  0  0
  -21.0950  -13.1600   22.3420 H   0  0  0  0  0  0  0  0  0  0  0  0
  -25.3670  -15.2150   20.3830 N   0  0  0  0  0  0  0  0  0  0  0  0
  -24.6000  -15.8680   20.5010 H   0  0  0  0  0  0  0  0  0  0  0  0
  -26.2040  -15.6530   20.0200 H   0  0  0  0  0  0  0  0  0  0  0  0
  1  2  1  0
  1 44  2  0
  3  5  1  0
  3  2  1  0
  4 15  2  0
  5 10  1  0
  6 14  1  0
  6 16  1  0
  7 13  1  0
  7  9  1  0
  8 14  1  0
  9  8  1  0
 10  9  2  0
 11  5  2  0
 12 11  1  0
 12  7  2  0
 13  6  1  0
 14  4  1  0
 16 18  2  0
 17 16  1  0
 19 17  1  0
 20 29  2  0
 20 25  1  0
 21 17  1  0
 21 25  1  0
 22 21  1  0
 23 24  1  0
 23 22  1  0
 24 20  1  0
 25 26  2  0
 26 27  1  0
 28 27  2  0
 29 28  1  0
 30  4  1  0
 30 35  1  0
 30 31  1  0
 31 34  1  1
 31 32  1  0
 33 31  1  0
 35 38  1  0
 36 40  1  0
 36 35  1  0
 37 36  2  0
 40 39  1  0
 42 40  1  0
 42 43  1  0
 42 41  1  0
 45 44  1  0
 45 46  1  0
 47 46  2  0
 47 48  1  0
 49 57  1  0
 50 55  1  0
 51 52  1  0
 51 50  1  0
 53 52  1  0
 53 62  1  0
 53 54  1  0
 55 49  1  0
 55 54  1  0
 56 49  2  0
 57 58  1  0
 57 48  1  0
 59 60  2  0
 60 79  1  0
 61 60  1  0
 61 64  1  0
 62 59  1  0
 62 63  1  0
 63 61  2  0
 64 65  1  0
 65 66  2  0
 67 70  1  0
 67 66  1  0
 68 67  2  0
 69 68  1  0
 69 64  2  0
 70 71  1  0
 71 72  1  0
 72 73  2  0
 74 73  1  0
 74 78  1  0
 75 74  2  0
 76 71  2  0
 76 75  1  0
 77 76  1  0
 79 80  1  0
 80 83  1  0
 80 82  1  0
 81 79  2  0
 84 85  1  0
 84 59  1  0
 86 84  1  0
M  ISO  4   2 101   3 101  49 100  57 100
M  END
>  <TORSDO>  (73) 
F 22

>  <SCORE>  (73) 
-12.830

>  <name>  (73) 
76

>  <ligand_id>  (73) 
76

>  <original_smiles>  (73) 
[H]c1c([H])c([H])c2c(c1[H])C([H])([H])C([H])([H])C([H])([H])C2([H])N([H])C(=O)C1([H])N(C(=O)C([H])(N([H])C(=O)C([H])(N([H])C([H])([H])[H])C([H])([H])[H])C(C([H])([H])[H])(C([H])([H])[H])C([H])([H])[H])C([H])([H])c2c([H])c(OC([H])([H])C([H])([H])C([H])([H])OC([H])([H])C([H])([H])C([H])([H])N([H])C(=O)N3C([H])([H])C([H])([H])C([H])([H])C([H])(n4nc(-c5c([H])c([H])c(Oc6c([H])c([H])c(F)c([H])c6F)c([H])c5[H])c(C(=O)N([H])[H])c4N([H])[H])C3([H])[H])c([H])c([H])c2C1([H])[H]

>  <smiles>  (73) 
[H]c1c([H])c([H])c2c(c1[H])C([H])([H])C([H])([H])C([H])([H])C2([H])N([H])C(=O)C1([H])N(C(=O)C([H])(N([H])C(=O)C([H])(N([H])C([H])([H])[H])C([H])([H])[H])C(C([H])([H])[H])(C([H])([H])[H])C([H])([H])[H])C([H])([H])c2c([H])c(OC([H])([H])C([H])([H])C([H])([H])OC([H])([H])C([H])([H])C([H])([H])N([H])C(=O)N3C([H])([H])C([H])([H])C([H])([H])C([H])(n4nc(-c5c([H])c([H])c(Oc6c([H])c([H])c(F)c([H])c6F)c([H])c5[H])c(C(=O)N([H])[H])c4N([H])[H])C3([H])[H])c([H])c([H])c2C1([H])[H]

$$$$
77:0:0
     RDKit          3D

 96104  0  0  1  0  0  0  0  0999 V2000
  -30.8450  -22.5830   21.6340 C   0  0  0  0  0  0  0  0  0  0  0  0
  -30.2120  -23.7440   21.4190 N   0  0  0  0  0  0  0  0  0  0  0  0
  -31.6530  -22.4170   22.5530 O   0  0  0  0  0  0  0  0  0  0  0  0
  -29.5180  -23.7420   20.6830 H   0  0  0  0  0  0  0  0  0  0  0  0
  -30.5530  -21.4610   20.6320 C   0  0  0  0  0  2  0  0  0  0  0  0
  -30.2790  -20.2330   21.3100 O   0  0  0  0  0  0  0  0  0  0  0  0
  -29.3640  -18.0600   18.4070 C   0  0  0  0  0  3  0  0  0  0  0  0
  -29.4690  -16.7950   19.0080 C   0  0  0  0  0  3  0  0  0  0  0  0
  -29.6280  -19.2200   19.1570 C   0  0  0  0  0  3  0  0  0  0  0  0
  -30.0410  -17.8560   21.1330 C   0  0  0  0  0  3  0  0  0  0  0  0
  -29.8200  -16.6860   20.3730 C   0  0  0  0  0  0  0  0  0  0  0  0
  -29.9830  -19.1330   20.5280 C   0  0  0  0  0  0  0  0  0  0  0  0
  -30.6260  -14.4030   20.4650 C   0  0  0  0  0  0  0  0  0  0  0  0
  -30.3090  -12.2650   19.3110 C   0  0  0  0  0  2  0  0  0  0  0  0
  -29.3610  -12.5440   18.1240 C   0  0  0  0  0  2  0  0  0  0  0  0
  -27.8920  -12.3960   18.5640 C   0  0  0  0  0  2  0  0  0  0  0  0
  -27.5750  -13.1970   19.8550 C   0  0  0  0  0  3  0  0  0  0  0  0
  -28.6400  -12.9310   20.9460 C   0  0  0  0  0  2  0  0  0  0  0  0
  -29.9670  -13.2210   20.3720 N   0  0  0  0  0  0  0  0  0  0  0  0
  -31.7400  -14.6040   19.9710 O   0  0  0  0  0  0  0  0  0  0  0  0
  -29.9130  -15.4100   20.9900 N   0  0  0  0  0  0  0  0  0  0  0  0
  -29.1200  -15.1300   21.5500 H   0  0  0  0  0  0  0  0  0  0  0  0
  -25.1790  -13.8070   20.5740 C   0  0  0  0  0  0  0  0  0  0  0  0
  -24.1120  -13.0350   20.9490 C   0  0  0  0  0  0  0  0  0  0  0  0
  -24.5720  -11.6810   20.9110 C   0  0  0  0  0  0  0  0  0  0  0  0
  -26.2230  -12.9250   20.3370 N   0  0  0  0  0  0  0  0  0  0  0  0
  -25.8600  -11.6430   20.5940 N   0  0  0  0  0  0  0  0  0  0  0  0
  -23.8460  -10.4190   21.1060 C   0  0  0  0  0  0  0  0  0  0  0  0
  -24.3090   -9.4350   22.0090 C   0  0  0  0  0  3  0  0  0  0  0  0
  -23.5890   -8.2360   22.1940 C   0  0  0  0  0  3  0  0  0  0  0  0
  -22.3900   -8.0110   21.4750 C   0  0  0  0  0  0  0  0  0  0  0  0
  -21.9430   -8.9830   20.5640 C   0  0  0  0  0  3  0  0  0  0  0  0
  -22.6660  -10.1740   20.3770 C   0  0  0  0  0  3  0  0  0  0  0  0
  -21.6350   -6.8680   21.5720 O   0  0  0  0  0  0  0  0  0  0  0  0
  -21.6510   -6.0890   22.7020 C   0  0  0  0  0  0  0  0  0  0  0  0
  -21.3260   -6.6120   23.9720 C   0  0  0  0  0  3  0  0  0  0  0  0
  -21.2820   -5.7600   25.0930 C   0  0  0  0  0  3  0  0  0  0  0  0
  -21.5570   -4.3870   24.9460 C   0  0  0  0  0  0  0  0  0  0  0  0
  -21.8810   -3.8650   23.6810 C   0  0  0  0  0  3  0  0  0  0  0  0
  -21.9250   -4.7130   22.5630 C   0  0  0  0  0  0  0  0  0  0  0  0
  -22.2140   -4.2020   21.3410 F   0  0  0  0  0  0  0  0  0  0  0  0
  -21.5090   -3.5660   26.0210 F   0  0  0  0  0  0  0  0  0  0  0  0
  -22.7180  -13.5110   21.2360 C   0  0  0  0  0  0  0  0  0  0  0  0
  -21.9980  -12.8140   22.1070 N   0  0  0  0  0  0  0  0  0  0  0  0
  -22.2740  -14.5380   20.7220 O   0  0  0  0  0  0  0  0  0  0  0  0
  -22.3630  -11.9760   22.5360 H   0  0  0  0  0  0  0  0  0  0  0  0
  -21.0640  -13.1170   22.3390 H   0  0  0  0  0  0  0  0  0  0  0  0
  -25.3460  -15.1790   20.3920 N   0  0  0  0  0  0  0  0  0  0  0  0
  -24.5830  -15.8400   20.4820 H   0  0  0  0  0  0  0  0  0  0  0  0
  -26.1990  -15.6030   20.0460 H   0  0  0  0  0  0  0  0  0  0  0  0
  -30.5180  -25.0350   22.0300 C   0  0  0  0  0  2  0  0  0  0  0  0
  -31.3240  -25.9220   21.0590 C   0  0  0  0  0  2  0  0  0  0  0  0
  -30.6790  -26.1310   19.6720 C   0  0  0  0  0  2  0  0  0  0  0  0
  -29.5760  -27.1830   19.6720 C   0  0  0  0  0  0  0  0  0  0  0  0
  -29.8070  -28.3460   19.3290 O   0  0  0  0  0  0  0  0  0  0  0  0
  -28.3900  -26.6740   20.0640 O   0  0  0  0  0  0  0  0  0  0  0  0
  -24.6370  -31.8570   23.2070 C   0  0  0  0  0  0  0  0  0  0  0  0
  -27.2490  -27.4370   20.1090 C   0  0  0  0  0  0  0  0  0  0  0  0
  -23.4060  -30.4550   21.5770 C   0  0  0  0  0  3  0  0  0  0  0  0
  -24.8420  -28.9120   20.1440 C   0  0  0  0  0  0  0  0  0  0  0  0
  -25.9250  -30.8190   21.3510 C   0  0  0  0  0  2  0  0  0  0  0  0
  -25.9980  -29.4450   20.7240 C   0  0  0  0  0  0  0  0  0  0  0  0
  -27.1980  -28.7090   20.7240 C   0  0  0  0  0  3  0  0  0  0  0  0
  -26.0740  -26.9050   19.5340 C   0  0  0  0  0  3  0  0  0  0  0  0
  -24.8700  -27.6370   19.5490 C   0  0  0  0  0  3  0  0  0  0  0  0
  -23.5980  -29.7680   20.1970 C   0  0  0  0  0  2  0  0  0  0  0  0
  -24.6740  -31.0590   22.1030 N   0  0  0  0  0  0  0  0  0  0  0  0
  -23.5630  -32.1320   23.7600 O   0  0  0  0  0  0  0  0  0  0  0  0
  -22.7680  -29.4360   22.5460 C   0  0  0  0  0  0  0  0  0  0  0  0
  -21.4420  -29.2610   22.4360 N   0  0  0  0  0  0  0  0  0  0  0  0
  -23.4600  -28.8050   23.3490 O   0  0  0  0  0  0  0  0  0  0  0  0
  -20.9460  -29.8240   21.7600 H   0  0  0  0  0  0  0  0  0  0  0  0
  -18.0660  -28.0870   22.9630 C   0  0  0  0  0  0  0  0  0  0  0  0
  -20.6280  -28.3270   23.2130 C   0  0  0  0  0  3  0  0  0  0  0  0
  -20.7150  -26.8960   22.6340 C   0  0  0  0  0  2  0  0  0  0  0  0
  -19.6020  -26.5820   21.6290 C   0  0  0  0  0  2  0  0  0  0  0  0
  -18.2270  -26.7360   22.2860 C   0  0  0  0  0  2  0  0  0  0  0  0
  -19.1940  -28.8410   23.3840 C   0  0  0  0  0  0  0  0  0  0  0  0
  -18.9900  -30.1080   23.9720 C   0  0  0  0  0  3  0  0  0  0  0  0
  -17.6910  -30.6200   24.1470 C   0  0  0  0  0  3  0  0  0  0  0  0
  -16.5780  -29.8610   23.7470 C   0  0  0  0  0  3  0  0  0  0  0  0
  -16.7670  -28.5970   23.1600 C   0  0  0  0  0  3  0  0  0  0  0  0
  -25.9340  -32.4810   23.8140 C   0  0  0  0  0  3  0  0  0  0  0  0
  -25.6310  -33.8730   24.1680 N   0  0  0  0  0  0  0  0  0  0  0  0
  -25.9490  -34.9340   23.4150 C   0  0  0  0  0  0  0  0  0  0  0  0
  -26.6010  -34.8450   22.3720 O   0  0  0  0  0  0  0  0  0  0  0  0
  -25.0510  -34.0170   24.9820 H   0  0  0  0  0  0  0  0  0  0  0  0
  -24.2070  -36.7230   23.1070 C   0  0  0  0  0  1  0  0  0  0  0  0
  -25.4630  -36.3160   23.8950 C   0  0  0  0  0  3  0  0  0  0  0  0
  -27.6100  -37.1970   24.6960 C   0  0  0  0  0  1  0  0  0  0  0  0
  -26.4890  -37.3740   23.7760 N   0  0  0  0  0  0  0  0  0  0  0  0
  -26.0840  -38.2920   23.9410 H   0  0  0  0  0  0  0  0  0  0  0  0
  -26.4790  -31.6900   25.0660 C   0  0  1  0  0  0  0  0  0  0  0  0
  -25.4090  -31.4250   26.1510 C   0  0  0  0  0  1  0  0  0  0  0  0
  -27.0590  -30.3230   24.6310 C   0  0  0  0  0  1  0  0  0  0  0  0
  -27.6410  -32.4750   25.7180 C   0  0  0  0  0  1  0  0  0  0  0  0
  1  3  2  0
  2  1  1  0
  2 51  1  0
  4  2  1  0
  5  6  1  0
  5  1  1  0
  7  8  2  0
  7  9  1  0
  8 11  1  0
  9 12  2  0
 11 21  1  0
 11 10  2  0
 12 10  1  0
 12  6  1  0
 13 21  1  0
 14 19  1  0
 15 16  1  0
 15 14  1  0
 17 16  1  0
 17 26  1  0
 17 18  1  0
 19 13  1  0
 19 18  1  0
 20 13  2  0
 21 22  1  0
 23 24  2  0
 24 43  1  0
 25 24  1  0
 25 28  1  0
 26 23  1  0
 26 27  1  0
 27 25  2  0
 28 29  1  0
 29 30  2  0
 31 34  1  0
 31 30  1  0
 32 31  2  0
 33 32  1  0
 33 28  2  0
 34 35  1  0
 35 36  1  0
 36 37  2  0
 38 37  1  0
 38 42  1  0
 39 38  2  0
 40 35  2  0
 40 39  1  0
 41 40  1  0
 43 44  1  0
 44 47  1  0
 44 46  1  0
 45 43  2  0
 48 49  1  0
 48 23  1  0
 50 48  1  0
 52 51  1  0
 53 52  1  0
 54 53  1  0
 54 56  1  0
 55 54  2  0
 56 58  1  0
 57 68  2  0
 58 63  1  0
 59 67  1  0
 59 69  1  0
 60 66  1  0
 60 62  1  0
 61 67  1  0
 62 61  1  0
 63 62  2  0
 64 65  1  0
 64 58  2  0
 65 60  2  0
 66 59  1  0
 67 57  1  0
 69 71  2  0
 70 69  1  0
 72 70  1  0
 73 82  2  0
 73 78  1  0
 74 70  1  0
 74 78  1  0
 75 74  1  0
 76 77  1  0
 76 75  1  0
 77 73  1  0
 78 79  2  0
 79 80  1  0
 81 80  2  0
 82 81  1  0
 83 57  1  0
 83 84  1  0
 83 93  1  0
 84 87  1  0
 85 89  1  0
 85 84  1  0
 86 85  2  0
 89 88  1  0
 91 89  1  0
 91 92  1  0
 91 90  1  0
 93 96  1  1
 93 94  1  0
 95 93  1  0
M  ISO  4  13 100  21 100  54 101  56 101
M  END
>  <TORSDO>  (74) 
F 23

>  <SCORE>  (74) 
-12.264

>  <name>  (74) 
77

>  <ligand_id>  (74) 
77

>  <original_smiles>  (74) 
[H]c1c([H])c(OC([H])([H])C(=O)N([H])C([H])([H])C([H])([H])C([H])([H])C(=O)Oc2c([H])c([H])c3c(c2[H])C([H])([H])N(C(=O)C([H])(N([H])C(=O)C([H])(N([H])C([H])([H])[H])C([H])([H])[H])C(C([H])([H])[H])(C([H])([H])[H])C([H])([H])[H])C([H])(C(=O)N([H])C2([H])c4c([H])c([H])c([H])c([H])c4C([H])([H])C([H])([H])C2([H])[H])C3([H])[H])c([H])c(N([H])C(=O)N2C([H])([H])C([H])([H])C([H])([H])C([H])(n3nc(-c4c([H])c([H])c(Oc5c([H])c([H])c(F)c([H])c5F)c([H])c4[H])c(C(=O)N([H])[H])c3N([H])[H])C2([H])[H])c1[H]

>  <smiles>  (74) 
[H]c1c([H])c(OC([H])([H])C(=O)N([H])C([H])([H])C([H])([H])C([H])([H])C(=O)Oc2c([H])c([H])c3c(c2[H])C([H])([H])N(C(=O)C([H])(N([H])C(=O)C([H])(N([H])C([H])([H])[H])C([H])([H])[H])C(C([H])([H])[H])(C([H])([H])[H])C([H])([H])[H])C([H])(C(=O)N([H])C2([H])c4c([H])c([H])c([H])c([H])c4C([H])([H])C([H])([H])C2([H])[H])C3([H])[H])c([H])c(N([H])C(=O)N2C([H])([H])C([H])([H])C([H])([H])C([H])(n3nc(-c4c([H])c([H])c(Oc5c([H])c([H])c(F)c([H])c5F)c([H])c4[H])c(C(=O)N([H])[H])c3N([H])[H])C2([H])[H])c1[H]

$$$$
78:0:0
     RDKit          3D

 81 85  0  0  1  0  0  0  0  0999 V2000
  -28.1090  -24.6470   20.3000 O   0  0  0  0  0  1  0  0  0  0  0  0
  -24.7100  -31.7810   23.1610 C   0  0  0  0  0  0  0  0  0  0  0  0
  -27.2070  -26.1440   20.2640 C   0  0  0  0  0  0  0  0  0  0  0  0
  -23.5560  -30.3680   21.5220 C   0  0  0  0  0  3  0  0  0  0  0  0
  -25.0090  -28.5810   20.1690 C   0  0  0  0  0  0  0  0  0  0  0  0
  -26.1560  -30.3130   21.5020 C   0  0  0  0  0  2  0  0  0  0  0  0
  -26.2110  -28.8120   20.8490 C   0  0  0  0  0  0  0  0  0  0  0  0
  -27.2590  -27.6460   20.8460 C   0  0  0  0  0  3  0  0  0  0  0  0
  -25.9680  -26.2870   19.5230 C   0  0  0  0  0  3  0  0  0  0  0  0
  -24.9660  -27.3480   19.4800 C   0  0  0  0  0  3  0  0  0  0  0  0
  -23.8360  -29.6140   20.1780 C   0  0  0  0  0  2  0  0  0  0  0  0
  -24.8390  -30.8700   22.1140 N   0  0  0  0  0  0  0  0  0  0  0  0
  -23.6010  -32.1150   23.6230 O   0  0  0  0  0  0  0  0  0  0  0  0
  -22.7620  -29.4580   22.5040 C   0  0  0  0  0  0  0  0  0  0  0  0
  -21.4220  -29.3560   22.3730 N   0  0  0  0  0  0  0  0  0  0  0  0
  -23.3780  -28.8290   23.3670 O   0  0  0  0  0  0  0  0  0  0  0  0
  -20.9670  -29.9120   21.6630 H   0  0  0  0  0  0  0  0  0  0  0  0
  -17.9970  -28.2130   22.9010 C   0  0  0  0  0  0  0  0  0  0  0  0
  -20.5670  -28.4380   23.1430 C   0  0  0  0  0  3  0  0  0  0  0  0
  -20.6330  -27.0060   22.5600 C   0  0  0  0  0  2  0  0  0  0  0  0
  -19.5210  -26.7160   21.5460 C   0  0  0  0  0  2  0  0  0  0  0  0
  -18.1460  -26.8740   22.1990 C   0  0  0  0  0  2  0  0  0  0  0  0
  -19.1320  -28.9550   23.3290 C   0  0  0  0  0  0  0  0  0  0  0  0
  -18.9320  -30.2040   23.9560 C   0  0  0  0  0  3  0  0  0  0  0  0
  -17.6350  -30.7130   24.1530 C   0  0  0  0  0  3  0  0  0  0  0  0
  -16.5160  -29.9710   23.7350 C   0  0  0  0  0  3  0  0  0  0  0  0
  -16.6980  -28.7220   23.1160 C   0  0  0  0  0  3  0  0  0  0  0  0
  -25.9400  -32.4590   23.8420 C   0  0  0  0  0  3  0  0  0  0  0  0
  -25.5980  -33.8650   24.1720 N   0  0  0  0  0  0  0  0  0  0  0  0
  -25.9200  -34.9450   23.4450 C   0  0  0  0  0  0  0  0  0  0  0  0
  -26.5760  -34.8640   22.4040 O   0  0  0  0  0  0  0  0  0  0  0  0
  -25.0070  -33.9990   24.9800 H   0  0  0  0  0  0  0  0  0  0  0  0
  -24.1680  -36.7480   23.1980 C   0  0  0  0  0  1  0  0  0  0  0  0
  -25.4480  -36.3330   23.9420 C   0  0  0  0  0  3  0  0  0  0  0  0
  -27.6060  -37.2470   24.6880 C   0  0  0  0  0  1  0  0  0  0  0  0
  -26.4650  -37.3980   23.7880 N   0  0  0  0  0  0  0  0  0  0  0  0
  -26.0550  -38.3150   23.9480 H   0  0  0  0  0  0  0  0  0  0  0  0
  -26.3960  -31.7200   25.1620 C   0  0  1  0  0  0  0  0  0  0  0  0
  -25.2580  -31.5140   26.1910 C   0  0  0  0  0  1  0  0  0  0  0  0
  -26.9880  -30.3300   24.8490 C   0  0  0  0  0  1  0  0  0  0  0  0
  -27.5230  -32.5250   25.8520 C   0  0  0  0  0  1  0  0  0  0  0  0
  -28.1400  -22.5480   20.1630 C   0  0  0  0  0 15  0  0  0  0  0  0
  -29.1420  -20.4180   20.2160 C   0  0  0  0  0 15  0  0  0  0  0  0
  -29.9010  -16.6470   20.0860 C   0  0  0  0  0  0  0  0  0  0  0  0
  -30.2300  -13.8900   19.2940 C   0  0  0  0  0  2  0  0  0  0  0  0
  -29.4480  -13.0530   18.1990 C   0  0  0  0  0  2  0  0  0  0  0  0
  -28.1340  -12.4820   18.7300 C   0  0  0  0  0  2  0  0  0  0  0  0
  -27.5010  -13.5140   19.6750 C   0  0  0  0  0  3  0  0  0  0  0  0
  -28.4750  -14.2100   20.6950 C   0  0  0  0  0  2  0  0  0  0  0  0
  -29.4550  -15.1290   19.9600 N   0  0  0  0  0  0  0  0  0  0  0  0
  -31.1430  -16.3980   20.0040 O   0  0  0  0  0  0  0  0  0  0  0  0
  -29.2570  -18.3100   20.1340 N   0  0  0  0  0  2  0  0  0  0  0  0
  -30.2580  -18.4710   20.1320 H   0  0  0  0  0  0  0  0  0  0  0  0
  -25.1600  -13.9200   20.5080 C   0  0  0  0  0  0  0  0  0  0  0  0
  -24.1280  -13.1120   20.8810 C   0  0  0  0  0  0  0  0  0  0  0  0
  -24.6260  -11.7720   20.8220 C   0  0  0  0  0  0  0  0  0  0  0  0
  -26.2240  -13.0860   20.2420 N   0  0  0  0  0  0  0  0  0  0  0  0
  -25.9190  -11.7780   20.4820 N   0  0  0  0  0  0  0  0  0  0  0  0
  -23.9140  -10.4950   21.0120 C   0  0  0  0  0  0  0  0  0  0  0  0
  -24.3570   -9.5290   21.9420 C   0  0  0  0  0  3  0  0  0  0  0  0
  -23.6350   -8.3280   22.1300 C   0  0  0  0  0  3  0  0  0  0  0  0
  -22.4560   -8.0830   21.3870 C   0  0  0  0  0  0  0  0  0  0  0  0
  -22.0290   -9.0390   20.4470 C   0  0  0  0  0  3  0  0  0  0  0  0
  -22.7510  -10.2310   20.2590 C   0  0  0  0  0  3  0  0  0  0  0  0
  -21.7070   -6.9350   21.4820 O   0  0  0  0  0  0  0  0  0  0  0  0
  -21.6700   -6.1910   22.6350 C   0  0  0  0  0  0  0  0  0  0  0  0
  -21.2140   -6.7320   23.8560 C   0  0  0  0  0  3  0  0  0  0  0  0
  -21.1260   -5.9140   25.0000 C   0  0  0  0  0  3  0  0  0  0  0  0
  -21.4850   -4.5540   24.9250 C   0  0  0  0  0  0  0  0  0  0  0  0
  -21.9340   -4.0110   23.7070 C   0  0  0  0  0  3  0  0  0  0  0  0
  -22.0220   -4.8270   22.5660 C   0  0  0  0  0  0  0  0  0  0  0  0
  -22.4340   -4.2930   21.3900 F   0  0  0  0  0  0  0  0  0  0  0  0
  -21.3950   -3.7660   26.0220 F   0  0  0  0  0  0  0  0  0  0  0  0
  -22.7270  -13.5620   21.1730 C   0  0  0  0  0  0  0  0  0  0  0  0
  -22.0260  -12.8570   22.0520 N   0  0  0  0  0  0  0  0  0  0  0  0
  -22.2670  -14.5820   20.6590 O   0  0  0  0  0  0  0  0  0  0  0  0
  -22.4140  -12.0340   22.4890 H   0  0  0  0  0  0  0  0  0  0  0  0
  -21.0880  -13.1430   22.2910 H   0  0  0  0  0  0  0  0  0  0  0  0
  -25.2790  -15.2960   20.3350 N   0  0  0  0  0  0  0  0  0  0  0  0
  -24.4980  -15.9290   20.4650 H   0  0  0  0  0  0  0  0  0  0  0  0
  -26.1180  -15.7610   20.0090 H   0  0  0  0  0  0  0  0  0  0  0  0
  2 13  2  0
  3  1  1  0
  3  8  1  0
  4 12  1  0
  4 14  1  0
  5 11  1  0
  5  7  1  0
  6 12  1  0
  7  6  1  0
  8  7  2  0
  9  3  2  0
 10  9  1  0
 10  5  2  0
 11  4  1  0
 12  2  1  0
 14 16  2  0
 15 14  1  0
 17 15  1  0
 18 27  2  0
 18 23  1  0
 19 15  1  0
 19 23  1  0
 20 19  1  0
 21 22  1  0
 21 20  1  0
 22 18  1  0
 23 24  2  0
 24 25  1  0
 26 25  2  0
 27 26  1  0
 28  2  1  0
 28 29  1  0
 28 38  1  0
 29 32  1  0
 30 34  1  0
 30 29  1  0
 31 30  2  0
 34 33  1  0
 36 34  1  0
 36 37  1  0
 36 35  1  0
 38 41  1  1
 38 39  1  0
 40 38  1  0
 44 52  1  0
 45 50  1  0
 46 47  1  0
 46 45  1  0
 48 47  1  0
 48 57  1  0
 48 49  1  0
 50 44  1  0
 50 49  1  0
 51 44  2  0
 53 52  1  0
 54 55  2  0
 55 74  1  0
 56 55  1  0
 56 59  1  0
 57 58  1  0
 57 54  1  0
 58 56  2  0
 59 60  1  0
 60 61  2  0
 62 65  1  0
 62 61  1  0
 63 62  2  0
 64 63  1  0
 64 59  2  0
 65 66  1  0
 66 67  1  0
 67 68  2  0
 69 68  1  0
 69 73  1  0
 70 69  2  0
 71 66  2  0
 71 70  1  0
 72 71  1  0
 74 75  1  0
 75 78  1  0
 75 77  1  0
 76 74  2  0
 79 80  1  0
 79 54  1  0
 81 79  1  0
M  ISO  4   1 101  42 101  44 100  52 100
M  END
>  <TORSDO>  (75) 
F 17

>  <SCORE>  (75) 
-16.141

>  <name>  (75) 
78

>  <ligand_id>  (75) 
78

>  <original_smiles>  (75) 
[H]c1c([H])c([H])c2c(c1[H])C([H])([H])C([H])([H])C([H])([H])C2([H])N([H])C(=O)C1([H])N(C(=O)C([H])(N([H])C(=O)C([H])(N([H])C([H])([H])[H])C([H])([H])[H])C(C([H])([H])[H])(C([H])([H])[H])C([H])([H])[H])C([H])([H])c2c([H])c(OC([H])([H])C([H])([H])N([H])C(=O)N3C([H])([H])C([H])([H])C([H])([H])C([H])(n4nc(-c5c([H])c([H])c(Oc6c([H])c([H])c(F)c([H])c6F)c([H])c5[H])c(C(=O)N([H])[H])c4N([H])[H])C3([H])[H])c([H])c([H])c2C1([H])[H]

>  <smiles>  (75) 
[H]c1c([H])c([H])c2c(c1[H])C([H])([H])C([H])([H])C([H])([H])C2([H])N([H])C(=O)C1([H])N(C(=O)C([H])(N([H])C(=O)C([H])(N([H])C([H])([H])[H])C([H])([H])[H])C(C([H])([H])[H])(C([H])([H])[H])C([H])([H])[H])C([H])([H])c2c([H])c(OC([H])([H])C([H])([H])N([H])C(=O)N3C([H])([H])C([H])([H])C([H])([H])C([H])(n4nc(-c5c([H])c([H])c(Oc6c([H])c([H])c(F)c([H])c6F)c([H])c5[H])c(C(=O)N([H])[H])c4N([H])[H])C3([H])[H])c([H])c([H])c2C1([H])[H]

$$$$
79:0:0
     RDKit          3D

 83 90  0  0  1  0  0  0  0  0999 V2000
  -27.9490  -23.9120   20.2000 C   0  0  0  0  0  3  0  0  0  0  0  0
  -28.1500  -25.6420   20.2980 O   0  0  0  0  0  0  0  0  0  0  0  0
  -24.6720  -31.8880   23.2420 C   0  0  0  0  0  0  0  0  0  0  0  0
  -27.1710  -26.8340   20.2470 C   0  0  0  0  0  0  0  0  0  0  0  0
  -23.4710  -30.4970   21.6080 C   0  0  0  0  0  3  0  0  0  0  0  0
  -24.9060  -28.8480   20.1930 C   0  0  0  0  0  0  0  0  0  0  0  0
  -26.0490  -30.6390   21.4750 C   0  0  0  0  0  2  0  0  0  0  0  0
  -26.1040  -29.2100   20.8200 C   0  0  0  0  0  0  0  0  0  0  0  0
  -27.2230  -28.2300   20.8150 C   0  0  0  0  0  3  0  0  0  0  0  0
  -25.9390  -26.6690   19.5680 C   0  0  0  0  0  3  0  0  0  0  0  0
  -24.8600  -27.6020   19.5430 C   0  0  0  0  0  3  0  0  0  0  0  0
  -23.7020  -29.8000   20.2370 C   0  0  0  0  0  2  0  0  0  0  0  0
  -24.7550  -31.0400   22.1610 N   0  0  0  0  0  0  0  0  0  0  0  0
  -23.5830  -32.1920   23.7560 O   0  0  0  0  0  0  0  0  0  0  0  0
  -22.7560  -29.5220   22.5800 C   0  0  0  0  0  0  0  0  0  0  0  0
  -21.4230  -29.3690   22.4550 N   0  0  0  0  0  0  0  0  0  0  0  0
  -23.4110  -28.8980   23.4200 O   0  0  0  0  0  0  0  0  0  0  0  0
  -20.9460  -29.9220   21.7570 H   0  0  0  0  0  0  0  0  0  0  0  0
  -18.0330  -28.1690   22.9680 C   0  0  0  0  0  0  0  0  0  0  0  0
  -20.5930  -28.4390   23.2300 C   0  0  0  0  0  3  0  0  0  0  0  0
  -20.6940  -27.0020   22.6640 C   0  0  0  0  0  2  0  0  0  0  0  0
  -19.5940  -26.6750   21.6500 C   0  0  0  0  0  2  0  0  0  0  0  0
  -18.2110  -26.8200   22.2910 C   0  0  0  0  0  2  0  0  0  0  0  0
  -19.1500  -28.9350   23.3940 C   0  0  0  0  0  0  0  0  0  0  0  0
  -18.9270  -30.1950   23.9910 C   0  0  0  0  0  3  0  0  0  0  0  0
  -17.6200  -30.6890   24.1620 C   0  0  0  0  0  3  0  0  0  0  0  0
  -16.5170  -29.9210   23.7490 C   0  0  0  0  0  3  0  0  0  0  0  0
  -16.7250  -28.6620   23.1580 C   0  0  0  0  0  3  0  0  0  0  0  0
  -25.9420  -32.5310   23.8780 C   0  0  0  0  0  3  0  0  0  0  0  0
  -26.4400  -31.7670   25.1680 C   0  0  1  0  0  0  0  0  0  0  0  0
  -25.3350  -31.5460   26.2290 C   0  0  0  0  0  1  0  0  0  0  0  0
  -27.0170  -30.3800   24.8050 C   0  0  0  0  0  1  0  0  0  0  0  0
  -27.5910  -32.5580   25.8350 C   0  0  0  0  0  1  0  0  0  0  0  0
  -25.6270  -33.9320   24.2180 N   0  0  0  0  0  0  0  0  0  0  0  0
  -25.9330  -34.9970   23.4640 C   0  0  0  0  0  0  0  0  0  0  0  0
  -26.5690  -34.9020   22.4100 O   0  0  0  0  0  0  0  0  0  0  0  0
  -25.0570  -34.0770   25.0370 H   0  0  0  0  0  0  0  0  0  0  0  0
  -24.1800  -36.7890   23.2110 C   0  0  0  0  0  1  0  0  0  0  0  0
  -25.4650  -36.3850   23.9520 C   0  0  0  0  0  3  0  0  0  0  0  0
  -27.6320  -37.2910   24.6730 C   0  0  0  0  0  1  0  0  0  0  0  0
  -26.4840  -37.4450   23.7830 N   0  0  0  0  0  0  0  0  0  0  0  0
  -26.0790  -38.3630   23.9460 H   0  0  0  0  0  0  0  0  0  0  0  0
  -28.9470  -22.2690   20.2790 C   0  0  0  0  0  3  0  0  0  0  0  0
  -28.7110  -20.3580   20.2370 C   0  0  0  0  0  3  0  0  0  0  0  0
  -29.7530  -18.7430   20.2450 C   0  0  0  0  0  3  0  0  0  0  0  0
  -30.2820  -15.6460   20.1480 C   0  0  0  0  0  0  0  0  0  0  0  0
  -30.3500  -13.1330   19.2860 C   0  0  0  0  0  2  0  0  0  0  0  0
  -29.4300  -12.7740   18.0850 C   0  0  0  0  0  2  0  0  0  0  0  0
  -28.0130  -12.4240   18.5630 C   0  0  0  0  0  2  0  0  0  0  0  0
  -27.5300  -13.4030   19.6600 C   0  0  0  0  0  3  0  0  0  0  0  0
  -28.5860  -13.6800   20.7550 C   0  0  0  0  0  2  0  0  0  0  0  0
  -29.7510  -14.2930   20.0790 N   0  0  0  0  0  0  0  0  0  0  0  0
  -31.5110  -15.5990   19.9480 O   0  0  0  0  0  0  0  0  0  0  0  0
  -29.5270  -16.9940   20.2480 N   0  0  0  0  0  0  0  0  0  0  0  0
  -28.5450  -16.7820   20.3500 H   0  0  0  0  0  0  0  0  0  0  0  0
  -25.1770  -13.9060   20.4730 C   0  0  0  0  0  0  0  0  0  0  0  0
  -24.1340  -13.1120   20.8550 C   0  0  0  0  0  0  0  0  0  0  0  0
  -24.6200  -11.7680   20.8040 C   0  0  0  0  0  0  0  0  0  0  0  0
  -26.2270  -13.0500   20.2020 N   0  0  0  0  0  0  0  0  0  0  0  0
  -25.9070  -11.7560   20.4690 N   0  0  0  0  0  0  0  0  0  0  0  0
  -23.9110  -10.4960   20.9970 C   0  0  0  0  0  0  0  0  0  0  0  0
  -24.3510   -9.5380   21.9370 C   0  0  0  0  0  3  0  0  0  0  0  0
  -23.6360   -8.3340   22.1190 C   0  0  0  0  0  3  0  0  0  0  0  0
  -22.4690   -8.0770   21.3610 C   0  0  0  0  0  0  0  0  0  0  0  0
  -22.0480   -9.0240   20.4100 C   0  0  0  0  0  3  0  0  0  0  0  0
  -22.7630  -10.2200   20.2260 C   0  0  0  0  0  3  0  0  0  0  0  0
  -21.7270   -6.9240   21.4530 O   0  0  0  0  0  0  0  0  0  0  0  0
  -21.6590   -6.2030   22.6170 C   0  0  0  0  0  0  0  0  0  0  0  0
  -21.1670   -6.7650   23.8150 C   0  0  0  0  0  3  0  0  0  0  0  0
  -21.0490   -5.9670   24.9700 C   0  0  0  0  0  3  0  0  0  0  0  0
  -21.4130   -4.6090   24.9290 C   0  0  0  0  0  0  0  0  0  0  0  0
  -21.8990   -4.0450   23.7360 C   0  0  0  0  0  3  0  0  0  0  0  0
  -22.0180   -4.8400   22.5820 C   0  0  0  0  0  0  0  0  0  0  0  0
  -22.4660   -4.2870   21.4300 F   0  0  0  0  0  0  0  0  0  0  0  0
  -21.2940   -3.8400   26.0380 F   0  0  0  0  0  0  0  0  0  0  0  0
  -22.7360  -13.5700   21.1460 C   0  0  0  0  0  0  0  0  0  0  0  0
  -22.0320  -12.8660   22.0240 N   0  0  0  0  0  0  0  0  0  0  0  0
  -22.2780  -14.5880   20.6300 O   0  0  0  0  0  0  0  0  0  0  0  0
  -22.4170  -12.0420   22.4630 H   0  0  0  0  0  0  0  0  0  0  0  0
  -21.0930  -13.1550   22.2630 H   0  0  0  0  0  0  0  0  0  0  0  0
  -25.3150  -15.2810   20.3020 N   0  0  0  0  0  0  0  0  0  0  0  0
  -24.5370  -15.9190   20.4270 H   0  0  0  0  0  0  0  0  0  0  0  0
  -26.1390  -15.7310   19.9280 H   0  0  0  0  0  0  0  0  0  0  0  0
  1 43  2  0
  1  2  1  0
  3 14  2  0
  4  2  1  0
  4  9  1  0
  5 13  1  0
  5 15  1  0
  6 12  1  0
  6  8  1  0
  7 13  1  0
  8  7  1  0
  9  8  2  0
 10  4  2  0
 11 10  1  0
 11  6  2  0
 12  5  1  0
 13  3  1  0
 15 17  2  0
 16 15  1  0
 18 16  1  0
 19 28  2  0
 19 24  1  0
 20 16  1  0
 20 24  1  0
 21 20  1  0
 22 23  1  0
 22 21  1  0
 23 19  1  0
 24 25  2  0
 25 26  1  0
 27 26  2  0
 28 27  1  0
 29  3  1  0
 29 34  1  0
 29 30  1  0
 30 33  1  1
 30 31  1  0
 32 30  1  0
 34 37  1  0
 35 39  1  0
 35 34  1  0
 36 35  2  0
 39 38  1  0
 41 42  1  0
 41 39  1  0
 41 40  1  0
 44 45  2  0
 44 43  1  0
 45 54  1  0
 46 54  1  0
 47 52  1  0
 48 49  1  0
 48 47  1  0
 50 49  1  0
 50 59  1  0
 50 51  1  0
 52 46  1  0
 52 51  1  0
 53 46  2  0
 54 55  1  0
 56 57  2  0
 57 76  1  0
 58 57  1  0
 58 61  1  0
 59 60  1  0
 59 56  1  0
 60 58  2  0
 61 62  1  0
 62 63  2  0
 64 67  1  0
 64 63  1  0
 65 64  2  0
 66 65  1  0
 66 61  2  0
 67 68  1  0
 68 69  1  0
 69 70  2  0
 71 70  1  0
 71 75  1  0
 72 71  2  0
 73 68  2  0
 73 72  1  0
 74 73  1  0
 76 77  1  0
 77 80  1  0
 77 79  1  0
 78 76  2  0
 81 82  1  0
 81 56  1  0
 83 81  1  0
M  ISO  4   1 101   2 101  46 100  54 100
M  END
>  <TORSDO>  (76) 
F 19

>  <SCORE>  (76) 
-16.287

>  <name>  (76) 
79

>  <ligand_id>  (76) 
79

>  <original_smiles>  (76) 
[H]c1c([H])c([H])c2c(c1[H])C([H])([H])C([H])([H])C([H])([H])C2([H])N([H])C(=O)C1([H])N(C(=O)C([H])(N([H])C(=O)C([H])(N([H])C([H])([H])[H])C([H])([H])[H])C(C([H])([H])[H])(C([H])([H])[H])C([H])([H])[H])C([H])([H])c2c([H])c(OC([H])([H])C([H])([H])C([H])([H])C([H])([H])N([H])C(=O)N3C([H])([H])C([H])([H])C([H])([H])C([H])(n4nc(-c5c([H])c([H])c(Oc6c([H])c([H])c(F)c([H])c6F)c([H])c5[H])c(C(=O)N([H])[H])c4N([H])[H])C3([H])[H])c([H])c([H])c2C1([H])[H]

>  <smiles>  (76) 
[H]c1c([H])c([H])c2c(c1[H])C([H])([H])C([H])([H])C([H])([H])C2([H])N([H])C(=O)C1([H])N(C(=O)C([H])(N([H])C(=O)C([H])(N([H])C([H])([H])[H])C([H])([H])[H])C(C([H])([H])[H])(C([H])([H])[H])C([H])([H])[H])C([H])([H])c2c([H])c(OC([H])([H])C([H])([H])C([H])([H])C([H])([H])N([H])C(=O)N3C([H])([H])C([H])([H])C([H])([H])C([H])(n4nc(-c5c([H])c([H])c(Oc6c([H])c([H])c(F)c([H])c6F)c([H])c5[H])c(C(=O)N([H])[H])c4N([H])[H])C3([H])[H])c([H])c([H])c2C1([H])[H]

$$$$
80:0:0
     RDKit          3D

 94103  0  0  1  0  0  0  0  0999 V2000
  -25.7310  -24.3650   22.3040 C   0  0  0  0  0  3  0  0  0  0  0  0
  -26.1000  -23.0660   21.9580 C   0  0  0  0  0  3  0  0  0  0  0  0
  -26.4550  -25.4560   21.7880 C   0  0  0  0  0  3  0  0  0  0  0  0
  -27.2200  -22.8780   21.1370 C   0  0  0  0  0  3  0  0  0  0  0  0
  -27.6000  -25.3200   20.9390 C   0  0  0  0  0  0  0  0  0  0  0  0
  -28.0470  -23.9540   20.7000 C   0  0  0  0  0  0  0  0  0  0  0  0
  -28.1600  -26.5120   20.3780 O   0  0  0  0  0  0  0  0  0  0  0  0
  -24.6330  -32.0090   23.2720 C   0  0  0  0  0  0  0  0  0  0  0  0
  -27.2290  -27.5290   20.1320 C   0  0  0  0  0  0  0  0  0  0  0  0
  -23.4350  -30.6240   21.6150 C   0  0  0  0  0  3  0  0  0  0  0  0
  -24.9000  -29.1500   20.1200 C   0  0  0  0  0  0  0  0  0  0  0  0
  -25.9740  -30.9630   21.4480 C   0  0  0  0  0  2  0  0  0  0  0  0
  -26.0610  -29.6150   20.7510 C   0  0  0  0  0  0  0  0  0  0  0  0
  -27.2400  -28.8070   20.7660 C   0  0  0  0  0  3  0  0  0  0  0  0
  -26.0850  -27.1570   19.3980 C   0  0  0  0  0  3  0  0  0  0  0  0
  -24.9150  -27.9320   19.4220 C   0  0  0  0  0  3  0  0  0  0  0  0
  -23.6500  -30.0010   20.2110 C   0  0  0  0  0  2  0  0  0  0  0  0
  -24.6970  -31.2130   22.1660 N   0  0  0  0  0  0  0  0  0  0  0  0
  -23.5510  -32.2730   23.8120 O   0  0  0  0  0  0  0  0  0  0  0  0
  -22.7950  -29.5770   22.5570 C   0  0  0  0  0  0  0  0  0  0  0  0
  -21.4690  -29.3910   22.4400 N   0  0  0  0  0  0  0  0  0  0  0  0
  -23.4860  -28.9400   23.3590 O   0  0  0  0  0  0  0  0  0  0  0  0
  -20.9680  -29.9550   21.7700 H   0  0  0  0  0  0  0  0  0  0  0  0
  -18.1070  -28.1640   22.9250 C   0  0  0  0  0  0  0  0  0  0  0  0
  -20.6590  -28.4430   23.2050 C   0  0  0  0  0  3  0  0  0  0  0  0
  -20.7770  -27.0160   22.6190 C   0  0  0  0  0  2  0  0  0  0  0  0
  -19.6840  -26.6930   21.5960 C   0  0  0  0  0  2  0  0  0  0  0  0
  -18.3000  -26.8210   22.2380 C   0  0  0  0  0  2  0  0  0  0  0  0
  -19.2170  -28.9330   23.3620 C   0  0  0  0  0  0  0  0  0  0  0  0
  -18.9850  -30.1910   23.9580 C   0  0  0  0  0  3  0  0  0  0  0  0
  -17.6760  -30.6790   24.1260 C   0  0  0  0  0  3  0  0  0  0  0  0
  -16.5790  -29.9050   23.7070 C   0  0  0  0  0  3  0  0  0  0  0  0
  -16.7960  -28.6490   23.1100 C   0  0  0  0  0  3  0  0  0  0  0  0
  -25.9150  -32.6430   23.8940 C   0  0  0  0  0  3  0  0  0  0  0  0
  -26.4360  -31.8780   25.1730 C   0  0  1  0  0  0  0  0  0  0  0  0
  -25.3410  -31.6360   26.2390 C   0  0  0  0  0  1  0  0  0  0  0  0
  -27.0250  -30.5000   24.7920 C   0  0  0  0  0  1  0  0  0  0  0  0
  -27.5820  -32.6870   25.8260 C   0  0  0  0  0  1  0  0  0  0  0  0
  -25.5960  -34.0430   24.2150 N   0  0  0  0  0  0  0  0  0  0  0  0
  -25.9320  -35.0950   23.4530 C   0  0  0  0  0  0  0  0  0  0  0  0
  -26.6000  -34.9900   22.4230 O   0  0  0  0  0  0  0  0  0  0  0  0
  -24.9780  -34.2000   24.9960 H   0  0  0  0  0  0  0  0  0  0  0  0
  -24.1850  -36.8790   23.1250 C   0  0  0  0  0  1  0  0  0  0  0  0
  -25.4470  -36.4870   23.9090 C   0  0  0  0  0  3  0  0  0  0  0  0
  -27.5930  -37.3920   24.6810 C   0  0  0  0  0  1  0  0  0  0  0  0
  -26.4690  -37.5450   23.7630 N   0  0  0  0  0  0  0  0  0  0  0  0
  -26.0610  -38.4640   23.9100 H   0  0  0  0  0  0  0  0  0  0  0  0
  -29.2940  -23.6380   20.1590 O   0  0  0  0  0  0  0  0  0  0  0  0
  -29.5500  -22.3610   19.4690 C   0  0  0  0  0  2  0  0  0  0  0  0
  -29.8450  -21.0600   20.3080 C   0  0  0  0  0  0  0  0  0  0  0  0
  -29.8660  -19.8790   19.6210 N   0  0  0  0  0  0  0  0  0  0  0  0
  -29.9780  -21.1170   21.5310 O   0  0  0  0  0  0  0  0  0  0  0  0
  -29.8780  -20.0100   18.6140 H   0  0  0  0  0  0  0  0  0  0  0  0
  -30.8540  -14.9140   19.9560 C   0  0  0  0  0  0  0  0  0  0  0  0
  -30.5400  -12.7060   18.8480 C   0  0  0  0  0  2  0  0  0  0  0  0
  -29.5050  -12.7980   17.7030 C   0  0  0  0  0  2  0  0  0  0  0  0
  -28.0900  -12.5640   18.2650 C   0  0  0  0  0  2  0  0  0  0  0  0
  -27.7940  -13.4640   19.4920 C   0  0  0  0  0  3  0  0  0  0  0  0
  -28.9250  -13.3460   20.5380 C   0  0  0  0  0  2  0  0  0  0  0  0
  -30.1760  -13.7220   19.8660 N   0  0  0  0  0  0  0  0  0  0  0  0
  -31.9910  -15.0060   19.4800 O   0  0  0  0  0  0  0  0  0  0  0  0
  -29.5650  -18.0750   21.4860 C   0  0  0  0  0  2  0  0  0  0  0  0
  -29.5470  -16.5220   21.4550 C   0  0  0  0  0  2  0  0  0  0  0  0
  -30.3500  -17.3250   19.3750 C   0  0  0  0  0  2  0  0  0  0  0  0
  -29.5180  -18.4740   20.0160 C   0  0  0  0  0  3  0  0  0  0  0  0
  -30.1290  -16.0760   20.1690 N   0  0  0  0  0  0  0  0  0  0  0  0
  -25.4720  -14.0530   20.4170 C   0  0  0  0  0  0  0  0  0  0  0  0
  -24.4180  -13.2700   20.8100 C   0  0  0  0  0  0  0  0  0  0  0  0
  -24.8570  -11.9200   20.6710 C   0  0  0  0  0  0  0  0  0  0  0  0
  -26.4800  -13.1740   20.0600 N   0  0  0  0  0  0  0  0  0  0  0  0
  -26.1210  -11.8830   20.2800 N   0  0  0  0  0  0  0  0  0  0  0  0
  -24.1300  -10.6520   20.8370 C   0  0  0  0  0  0  0  0  0  0  0  0
  -24.5920   -9.6440   21.7120 C   0  0  0  0  0  3  0  0  0  0  0  0
  -23.8660   -8.4440   21.8720 C   0  0  0  0  0  3  0  0  0  0  0  0
  -22.6650   -8.2420   21.1530 C   0  0  0  0  0  0  0  0  0  0  0  0
  -22.2210   -9.2360   20.2650 C   0  0  0  0  0  3  0  0  0  0  0  0
  -22.9480  -10.4290   20.1030 C   0  0  0  0  0  3  0  0  0  0  0  0
  -21.9110   -7.0960   21.2230 O   0  0  0  0  0  0  0  0  0  0  0  0
  -21.8690   -6.3270   22.3580 C   0  0  0  0  0  0  0  0  0  0  0  0
  -21.4710   -6.8630   23.6010 C   0  0  0  0  0  3  0  0  0  0  0  0
  -21.3780   -6.0240   24.7300 C   0  0  0  0  0  3  0  0  0  0  0  0
  -21.6710   -4.6520   24.6150 C   0  0  0  0  0  0  0  0  0  0  0  0
  -22.0630   -4.1180   23.3750 C   0  0  0  0  0  3  0  0  0  0  0  0
  -22.1570   -4.9520   22.2490 C   0  0  0  0  0  0  0  0  0  0  0  0
  -22.5140   -4.4300   21.0510 F   0  0  0  0  0  0  0  0  0  0  0  0
  -21.5710   -3.8450   25.6950 F   0  0  0  0  0  0  0  0  0  0  0  0
  -23.0510  -13.7400   21.2120 C   0  0  0  0  0  0  0  0  0  0  0  0
  -22.3900  -13.0030   22.1010 N   0  0  0  0  0  0  0  0  0  0  0  0
  -22.5830  -14.7890   20.7790 O   0  0  0  0  0  0  0  0  0  0  0  0
  -22.7920  -12.1480   22.4560 H   0  0  0  0  0  0  0  0  0  0  0  0
  -21.4810  -13.2970   22.4290 H   0  0  0  0  0  0  0  0  0  0  0  0
  -25.6520  -15.4250   20.3060 N   0  0  0  0  0  0  0  0  0  0  0  0
  -24.9260  -16.1030   20.5220 H   0  0  0  0  0  0  0  0  0  0  0  0
  -26.4960  -15.8520   19.9440 H   0  0  0  0  0  0  0  0  0  0  0  0
  2  1  1  0
  3  1  2  0
  4  2  2  0
  5  3  1  0
  6  5  2  0
  6  4  1  0
  7  5  1  0
  8 19  2  0
  9  7  1  0
  9 14  1  0
 10 18  1  0
 10 20  1  0
 11 17  1  0
 11 13  1  0
 12 18  1  0
 13 14  2  0
 13 12  1  0
 15 16  1  0
 15  9  2  0
 16 11  2  0
 17 10  1  0
 18  8  1  0
 20 22  2  0
 21 20  1  0
 23 21  1  0
 24 33  2  0
 24 29  1  0
 25 21  1  0
 25 29  1  0
 26 25  1  0
 27 28  1  0
 27 26  1  0
 28 24  1  0
 29 30  2  0
 30 31  1  0
 32 31  2  0
 33 32  1  0
 34  8  1  0
 34 39  1  0
 34 35  1  0
 35 38  1  1
 35 36  1  0
 37 35  1  0
 39 42  1  0
 40 44  1  0
 40 39  1  0
 41 40  2  0
 44 43  1  0
 46 44  1  0
 46 47  1  0
 46 45  1  0
 48  6  1  0
 49 48  1  0
 49 50  1  0
 50 52  2  0
 51 50  1  0
 53 51  1  0
 54 66  1  0
 55 60  1  0
 56 57  1  0
 56 55  1  0
 58 57  1  0
 58 70  1  0
 58 59  1  0
 60 54  1  0
 60 59  1  0
 61 54  2  0
 63 62  1  0
 64 65  1  0
 64 66  1  0
 65 51  1  0
 65 62  1  0
 66 63  1  0
 67 68  2  0
 68 87  1  0
 69 68  1  0
 69 72  1  0
 70 71  1  0
 70 67  1  0
 71 69  2  0
 72 73  1  0
 73 74  2  0
 75 78  1  0
 75 74  1  0
 76 75  2  0
 77 76  1  0
 77 72  2  0
 78 79  1  0
 79 80  1  0
 80 81  2  0
 82 81  1  0
 82 86  1  0
 83 82  2  0
 84 79  2  0
 84 83  1  0
 85 84  1  0
 87 88  1  0
 88 91  1  0
 88 90  1  0
 89 87  2  0
 92 67  1  0
 92 93  1  0
 94 92  1  0
M  ISO  4   5 101   7 101  54 100  66 100
M  END
>  <TORSDO>  (77) 
F 19

>  <SCORE>  (77) 
-13.502

>  <name>  (77) 
80

>  <ligand_id>  (77) 
80

>  <original_smiles>  (77) 
[H]c1c([H])c([H])c(OC([H])([H])C(=O)N([H])C2([H])C([H])([H])N(C(=O)N3C([H])([H])C([H])([H])C([H])([H])C([H])(n4nc(-c5c([H])c([H])c(Oc6c([H])c([H])c(F)c([H])c6F)c([H])c5[H])c(C(=O)N([H])[H])c4N([H])[H])C3([H])[H])C([H])([H])C2([H])[H])c(Oc2c([H])c([H])c3c(c2[H])C([H])([H])N(C(=O)C([H])(N([H])C(=O)C([H])(N([H])C([H])([H])[H])C([H])([H])[H])C(C([H])([H])[H])(C([H])([H])[H])C([H])([H])[H])C([H])(C(=O)N([H])C2([H])c4c([H])c([H])c([H])c([H])c4C([H])([H])C([H])([H])C2([H])[H])C3([H])[H])c1[H]

>  <smiles>  (77) 
[H]c1c([H])c([H])c(OC([H])([H])C(=O)N([H])C2([H])C([H])([H])N(C(=O)N3C([H])([H])C([H])([H])C([H])([H])C([H])(n4nc(-c5c([H])c([H])c(Oc6c([H])c([H])c(F)c([H])c6F)c([H])c5[H])c(C(=O)N([H])[H])c4N([H])[H])C3([H])[H])C([H])([H])C2([H])[H])c(Oc2c([H])c([H])c3c(c2[H])C([H])([H])N(C(=O)C([H])(N([H])C(=O)C([H])(N([H])C([H])([H])[H])C([H])([H])[H])C(C([H])([H])[H])(C([H])([H])[H])C([H])([H])[H])C([H])(C(=O)N([H])C2([H])c4c([H])c([H])c([H])c([H])c4C([H])([H])C([H])([H])C2([H])[H])C3([H])[H])c1[H]

$$$$
81:0:0
     RDKit          3D

 94102  0  0  1  0  0  0  0  0999 V2000
  -26.7160  -21.3670   21.1760 C   0  0  0  0  0  2  0  0  0  0  0  0
  -27.1910  -20.1720   20.3470 C   0  0  0  0  0  2  0  0  0  0  0  0
  -28.5640  -19.9290   20.6620 O   0  0  0  0  0  0  0  0  0  0  0  0
  -29.9080  -17.7140   17.9950 C   0  0  0  0  0  3  0  0  0  0  0  0
  -30.5400  -16.7370   18.7850 C   0  0  0  0  0  3  0  0  0  0  0  0
  -29.2360  -18.7930   18.5990 C   0  0  0  0  0  3  0  0  0  0  0  0
  -29.8440  -17.9250   20.7950 C   0  0  0  0  0  3  0  0  0  0  0  0
  -30.5080  -16.8310   20.1990 C   0  0  0  0  0  0  0  0  0  0  0  0
  -29.1900  -18.8970   20.0090 C   0  0  0  0  0  0  0  0  0  0  0  0
  -31.7950  -14.7930   20.6530 C   0  0  0  0  0  0  0  0  0  0  0  0
  -31.6900  -12.4280   19.9990 C   0  0  0  0  0  2  0  0  0  0  0  0
  -30.8850  -12.3440   18.6850 C   0  0  0  0  0  2  0  0  0  0  0  0
  -29.3650  -12.2730   18.9530 C   0  0  0  0  0  2  0  0  0  0  0  0
  -28.8840  -13.3410   19.9740 C   0  0  0  0  0  3  0  0  0  0  0  0
  -29.8080  -13.3550   21.2130 C   0  0  0  0  0  2  0  0  0  0  0  0
  -31.1920  -13.5810   20.7570 N   0  0  0  0  0  0  0  0  0  0  0  0
  -32.9130  -14.9640   20.1560 O   0  0  0  0  0  0  0  0  0  0  0  0
  -31.0350  -15.8240   21.0520 N   0  0  0  0  0  0  0  0  0  0  0  0
  -30.4170  -15.5860   21.8150 H   0  0  0  0  0  0  0  0  0  0  0  0
  -26.4720  -14.0670   20.5250 C   0  0  0  0  0  0  0  0  0  0  0  0
  -25.3450  -13.3430   20.8200 C   0  0  0  0  0  0  0  0  0  0  0  0
  -25.7420  -11.9720   20.8030 C   0  0  0  0  0  0  0  0  0  0  0  0
  -27.4860  -13.1350   20.3510 N   0  0  0  0  0  0  0  0  0  0  0  0
  -27.0440  -11.8700   20.5700 N   0  0  0  0  0  0  0  0  0  0  0  0
  -24.9460  -10.7460   20.9370 C   0  0  0  0  0  0  0  0  0  0  0  0
  -25.1950   -9.8120   21.9690 C   0  0  0  0  0  3  0  0  0  0  0  0
  -24.4040   -8.6480   22.0870 C   0  0  0  0  0  3  0  0  0  0  0  0
  -23.3520   -8.4100   21.1720 C   0  0  0  0  0  0  0  0  0  0  0  0
  -23.1210   -9.3320   20.1360 C   0  0  0  0  0  3  0  0  0  0  0  0
  -23.9110  -10.4880   20.0170 C   0  0  0  0  0  3  0  0  0  0  0  0
  -22.5470   -7.2960   21.1930 O   0  0  0  0  0  0  0  0  0  0  0  0
  -22.1820   -6.6930   22.3710 C   0  0  0  0  0  0  0  0  0  0  0  0
  -21.4790   -7.3890   23.3780 C   0  0  0  0  0  3  0  0  0  0  0  0
  -21.0630   -6.7130   24.5420 C   0  0  0  0  0  3  0  0  0  0  0  0
  -21.3410   -5.3420   24.6990 C   0  0  0  0  0  0  0  0  0  0  0  0
  -22.0390   -4.6460   23.6950 C   0  0  0  0  0  3  0  0  0  0  0  0
  -22.4570   -5.3200   22.5340 C   0  0  0  0  0  0  0  0  0  0  0  0
  -23.1080   -4.6390   21.5600 F   0  0  0  0  0  0  0  0  0  0  0  0
  -20.9370   -4.6910   25.8140 F   0  0  0  0  0  0  0  0  0  0  0  0
  -23.9590  -13.8880   21.0140 C   0  0  0  0  0  0  0  0  0  0  0  0
  -23.1620  -13.2480   21.8640 N   0  0  0  0  0  0  0  0  0  0  0  0
  -23.5900  -14.9160   20.4480 O   0  0  0  0  0  0  0  0  0  0  0  0
  -23.4680  -12.4170   22.3440 H   0  0  0  0  0  0  0  0  0  0  0  0
  -22.2310  -13.6000   22.0370 H   0  0  0  0  0  0  0  0  0  0  0  0
  -26.7160  -15.4290   20.3770 N   0  0  0  0  0  0  0  0  0  0  0  0
  -25.9810  -16.1250   20.4570 H   0  0  0  0  0  0  0  0  0  0  0  0
  -27.6120  -15.8290   20.1260 H   0  0  0  0  0  0  0  0  0  0  0  0
  -27.3390  -22.5610   20.7040 O   0  0  0  0  0  0  0  0  0  0  0  0
  -26.8860  -23.7200   21.3980 C   0  0  0  0  0  2  0  0  0  0  0  0
  -27.9910  -24.7860   21.4700 C   0  0  0  0  0  2  0  0  0  0  0  0
  -27.7740  -25.8480   20.5440 O   0  0  0  0  0  0  0  0  0  0  0  0
  -28.8050  -26.3480   19.8240 C   0  0  0  0  0  0  0  0  0  0  0  0
  -29.9160  -25.8290   19.7060 O   0  0  0  0  0  0  0  0  0  0  0  0
  -28.4650  -27.5470   19.2470 O   0  0  0  0  0  0  0  0  0  0  0  0
  -24.7210  -32.0140   23.3360 C   0  0  0  0  0  0  0  0  0  0  0  0
  -27.2700  -28.1930   19.4750 C   0  0  0  0  0  0  0  0  0  0  0  0
  -23.4470  -30.8300   21.5770 C   0  0  0  0  0  3  0  0  0  0  0  0
  -24.8410  -29.5740   19.8520 C   0  0  0  0  0  0  0  0  0  0  0  0
  -25.9380  -31.3130   21.2790 C   0  0  0  0  0  2  0  0  0  0  0  0
  -26.0180  -30.0520   20.4460 C   0  0  0  0  0  0  0  0  0  0  0  0
  -27.2350  -29.3650   20.2600 C   0  0  0  0  0  3  0  0  0  0  0  0
  -26.0830  -27.7340   18.8630 C   0  0  0  0  0  3  0  0  0  0  0  0
  -24.8650  -28.4110   19.0630 C   0  0  0  0  0  3  0  0  0  0  0  0
  -23.5830  -30.3740   20.1000 C   0  0  0  0  0  2  0  0  0  0  0  0
  -24.7240  -31.3910   22.1240 N   0  0  0  0  0  0  0  0  0  0  0  0
  -23.6700  -32.1610   23.9780 O   0  0  0  0  0  0  0  0  0  0  0  0
  -22.8900  -29.6510   22.4090 C   0  0  0  0  0  0  0  0  0  0  0  0
  -21.5750  -29.4060   22.2990 N   0  0  0  0  0  0  0  0  0  0  0  0
  -23.6390  -28.9640   23.1080 O   0  0  0  0  0  0  0  0  0  0  0  0
  -21.0280  -30.0160   21.7080 H   0  0  0  0  0  0  0  0  0  0  0  0
  -18.3130  -27.9010   22.6720 C   0  0  0  0  0  0  0  0  0  0  0  0
  -20.8460  -28.3250   22.9600 C   0  0  0  0  0  3  0  0  0  0  0  0
  -21.0540  -26.9790   22.2260 C   0  0  0  0  0  2  0  0  0  0  0  0
  -19.9660  -26.6750   21.1920 C   0  0  0  0  0  2  0  0  0  0  0  0
  -18.5830  -26.6500   21.8520 C   0  0  0  0  0  2  0  0  0  0  0  0
  -19.3750  -28.6950   23.1800 C   0  0  0  0  0  0  0  0  0  0  0  0
  -19.0690  -29.8660   23.9090 C   0  0  0  0  0  3  0  0  0  0  0  0
  -17.7320  -30.2450   24.1320 C   0  0  0  0  0  3  0  0  0  0  0  0
  -16.6850  -29.4490   23.6350 C   0  0  0  0  0  3  0  0  0  0  0  0
  -16.9770  -28.2780   22.9130 C   0  0  0  0  0  3  0  0  0  0  0  0
  -26.0280  -32.5920   23.9630 C   0  0  0  0  0  3  0  0  0  0  0  0
  -25.7580  -33.9840   24.3470 N   0  0  0  0  0  0  0  0  0  0  0  0
  -26.1340  -35.0550   23.6350 C   0  0  0  0  0  0  0  0  0  0  0  0
  -26.8190  -34.9720   22.6100 O   0  0  0  0  0  0  0  0  0  0  0  0
  -25.1500  -34.1260   25.1410 H   0  0  0  0  0  0  0  0  0  0  0  0
  -24.4740  -36.9160   23.3180 C   0  0  0  0  0  1  0  0  0  0  0  0
  -25.6820  -36.4380   24.1390 C   0  0  0  0  0  3  0  0  0  0  0  0
  -27.8250  -37.2130   25.0530 C   0  0  0  0  0  1  0  0  0  0  0  0
  -26.7500  -37.4590   24.0940 N   0  0  0  0  0  0  0  0  0  0  0  0
  -26.3710  -38.3850   24.2730 H   0  0  0  0  0  0  0  0  0  0  0  0
  -26.5460  -31.7620   25.2000 C   0  0  1  0  0  0  0  0  0  0  0  0
  -25.4580  -31.4920   26.2660 C   0  0  0  0  0  1  0  0  0  0  0  0
  -27.1080  -30.3960   24.7430 C   0  0  0  0  0  1  0  0  0  0  0  0
  -27.7130  -32.5120   25.8880 C   0  0  0  0  0  1  0  0  0  0  0  0
  2  3  1  0
  2  1  1  0
  4  6  2  0
  4  5  1  0
  5  8  2  0
  6  9  1  0
  8  7  1  0
  8 18  1  0
  9  3  1  0
  9  7  2  0
 10 16  1  0
 10 18  1  0
 11 16  1  0
 12 13  1  0
 12 11  1  0
 14 13  1  0
 14 23  1  0
 14 15  1  0
 16 15  1  0
 17 10  2  0
 18 19  1  0
 20 21  2  0
 21 40  1  0
 22 21  1  0
 22 25  1  0
 23 20  1  0
 23 24  1  0
 24 22  2  0
 25 26  1  0
 26 27  2  0
 28 31  1  0
 28 27  1  0
 29 28  2  0
 30 29  1  0
 30 25  2  0
 31 32  1  0
 32 37  2  0
 32 33  1  0
 33 34  2  0
 34 35  1  0
 35 39  1  0
 36 35  2  0
 37 36  1  0
 38 37  1  0
 40 41  1  0
 41 44  1  0
 41 43  1  0
 42 40  2  0
 45 46  1  0
 45 20  1  0
 47 45  1  0
 48  1  1  0
 48 49  1  0
 49 50  1  0
 51 50  1  0
 52 51  1  0
 53 52  2  0
 54 56  1  0
 54 52  1  0
 55 66  2  0
 56 61  1  0
 57 65  1  0
 57 67  1  0
 58 64  1  0
 58 60  1  0
 59 65  1  0
 60 59  1  0
 61 60  2  0
 62 63  1  0
 62 56  2  0
 63 58  2  0
 64 57  1  0
 65 55  1  0
 67 69  2  0
 68 67  1  0
 70 68  1  0
 71 80  2  0
 71 76  1  0
 72 68  1  0
 72 76  1  0
 73 72  1  0
 74 75  1  0
 74 73  1  0
 75 71  1  0
 76 77  2  0
 77 78  1  0
 79 78  2  0
 80 79  1  0
 81 55  1  0
 81 82  1  0
 81 91  1  0
 82 85  1  0
 83 87  1  0
 83 82  1  0
 84 83  2  0
 87 86  1  0
 89 87  1  0
 89 90  1  0
 89 88  1  0
 91 94  1  1
 91 92  1  0
 93 91  1  0
M  ISO  4  10 100  18 100  52 101  54 101
M  END
>  <TORSDO>  (78) 
F 24

>  <SCORE>  (78) 
-8.138

>  <name>  (78) 
81

>  <ligand_id>  (78) 
81

>  <original_smiles>  (78) 
[H]c1c([H])c(OC([H])([H])C([H])([H])OC([H])([H])C([H])([H])OC(=O)Oc2c([H])c([H])c3c(c2[H])C([H])([H])N(C(=O)C([H])(N([H])C(=O)C([H])(N([H])C([H])([H])[H])C([H])([H])[H])C(C([H])([H])[H])(C([H])([H])[H])C([H])([H])[H])C([H])(C(=O)N([H])C2([H])c4c([H])c([H])c([H])c([H])c4C([H])([H])C([H])([H])C2([H])[H])C3([H])[H])c([H])c(N([H])C(=O)N2C([H])([H])C([H])([H])C([H])([H])C([H])(n3nc(-c4c([H])c([H])c(Oc5c([H])c([H])c(F)c([H])c5F)c([H])c4[H])c(C(=O)N([H])[H])c3N([H])[H])C2([H])[H])c1[H]

>  <smiles>  (78) 
[H]c1c([H])c(OC([H])([H])C([H])([H])OC([H])([H])C([H])([H])OC(=O)Oc2c([H])c([H])c3c(c2[H])C([H])([H])N(C(=O)C([H])(N([H])C(=O)C([H])(N([H])C([H])([H])[H])C([H])([H])[H])C(C([H])([H])[H])(C([H])([H])[H])C([H])([H])[H])C([H])(C(=O)N([H])C2([H])c4c([H])c([H])c([H])c([H])c4C([H])([H])C([H])([H])C2([H])[H])C3([H])[H])c([H])c(N([H])C(=O)N2C([H])([H])C([H])([H])C([H])([H])C([H])(n3nc(-c4c([H])c([H])c(Oc5c([H])c([H])c(F)c([H])c5F)c([H])c4[H])c(C(=O)N([H])[H])c3N([H])[H])C2([H])[H])c1[H]

$$$$
82:0:0
     RDKit          3D

 97105  0  0  1  0  0  0  0  0999 V2000
  -21.3090  -27.4120   19.9820 C   0  0  0  0  0  3  0  0  0  0  0  0
  -20.4050  -28.4600   20.5690 C   0  0  0  0  0  3  0  0  0  0  0  0
  -22.3510  -29.0000   19.1270 C   0  0  0  0  0  3  0  0  0  0  0  0
  -22.6820  -27.6890   19.6720 C   0  0  0  0  0  0  0  0  0  0  0  0
  -21.5350  -30.0160   19.9040 C   0  0  0  0  0  0  0  0  0  0  0  0
  -20.9280  -29.6980   21.1870 C   0  0  0  0  0  0  0  0  0  0  0  0
  -21.2310  -31.4100   19.3600 C   0  0  0  0  0  1  0  0  0  0  0  0
  -24.0630  -26.5950   19.7830 C   0  0  0  0  0  2  0  0  0  0  0  0
  -25.6310  -26.6490   20.4310 O   0  0  0  0  0  0  0  0  0  0  0  0
  -24.7040  -31.8560   23.2650 C   0  0  0  0  0  0  0  0  0  0  0  0
  -26.7660  -27.3040   19.9910 C   0  0  0  0  0  3  0  0  0  0  0  0
  -23.7120  -30.3600   21.5590 C   0  0  0  0  0  3  0  0  0  0  0  0
  -25.2660  -29.4660   19.8020 C   0  0  0  0  0  0  0  0  0  0  0  0
  -26.2300  -30.6800   21.7010 C   0  0  0  0  0  2  0  0  0  0  0  0
  -26.2530  -29.4970   20.7550 C   0  0  0  0  0  0  0  0  0  0  0  0
  -27.1310  -28.4100   20.8050 C   0  0  0  0  0  3  0  0  0  0  0  0
  -26.3240  -27.5670   18.7340 C   0  0  0  0  0  2  0  0  0  0  0  0
  -25.3700  -28.5970   18.6980 C   0  0  0  0  0  3  0  0  0  0  0  0
  -24.2470  -30.4930   20.0790 C   0  0  0  0  0  2  0  0  0  0  0  0
  -24.8700  -30.9650   22.2630 N   0  0  0  0  0  0  0  0  0  0  0  0
  -23.5910  -32.1960   23.6890 O   0  0  0  0  0  0  0  0  0  0  0  0
  -23.4200  -28.8330   22.1530 C   0  0  0  0  0  0  0  0  0  0  0  0
  -22.2610  -27.9360   22.3830 N   0  0  0  0  0  0  0  0  0  0  0  0
  -24.3920  -28.4130   22.7200 O   0  0  0  0  0  0  0  0  0  0  0  0
  -22.7200  -27.0510   22.5610 H   0  0  0  0  0  0  0  0  0  0  0  0
  -18.0340  -28.0040   22.8560 C   0  0  0  0  0  0  0  0  0  0  0  0
  -20.7180  -27.6990   23.0660 C   0  0  0  0  0  3  0  0  0  0  0  0
  -20.4500  -26.2800   22.6330 C   0  0  0  0  0  2  0  0  0  0  0  0
  -19.2290  -26.0170   21.7560 C   0  0  0  0  0  2  0  0  0  0  0  0
  -17.9540  -26.6140   22.2860 C   0  0  0  0  0  2  0  0  0  0  0  0
  -19.2770  -28.5900   23.2600 C   0  0  0  0  0  0  0  0  0  0  0  0
  -19.0440  -29.8870   23.8910 C   0  0  0  0  0  3  0  0  0  0  0  0
  -17.7850  -30.5200   24.0380 C   0  0  0  0  0  3  0  0  0  0  0  0
  -16.6280  -29.8900   23.5870 C   0  0  0  0  0  3  0  0  0  0  0  0
  -16.7670  -28.6290   23.0030 C   0  0  0  0  0  3  0  0  0  0  0  0
  -25.9640  -32.4890   23.9080 C   0  0  0  0  0  3  0  0  0  0  0  0
  -26.4680  -31.6810   25.1630 C   0  0  1  0  0  0  0  0  0  0  0  0
  -25.3670  -31.4220   26.2120 C   0  0  0  0  0  1  0  0  0  0  0  0
  -27.0640  -30.2960   24.8120 C   0  0  0  0  0  1  0  0  0  0  0  0
  -27.6130  -32.4720   25.8280 C   0  0  0  0  0  1  0  0  0  0  0  0
  -25.6230  -33.8730   24.2670 N   0  0  0  0  0  0  0  0  0  0  0  0
  -25.9090  -34.9460   23.5190 C   0  0  0  0  0  0  0  0  0  0  0  0
  -26.5540  -34.8800   22.4700 O   0  0  0  0  0  0  0  0  0  0  0  0
  -25.0530  -34.0020   25.0890 H   0  0  0  0  0  0  0  0  0  0  0  0
  -24.1510  -36.7300   23.2560 C   0  0  0  0  0  1  0  0  0  0  0  0
  -25.4110  -36.3120   24.0290 C   0  0  0  0  0  3  0  0  0  0  0  0
  -27.5560  -37.1850   24.8460 C   0  0  0  0  0  1  0  0  0  0  0  0
  -26.4280  -37.3800   23.9380 N   0  0  0  0  0  0  0  0  0  0  0  0
  -26.0150  -38.2880   24.1350 H   0  0  0  0  0  0  0  0  0  0  0  0
  -21.3380  -30.1320   22.7220 O   0  0  0  0  0  0  0  0  0  0  0  0
  -22.0580  -29.4650   24.2810 C   0  0  0  0  0  2  0  0  0  0  0  0
  -23.0710  -27.8610   24.7990 C   0  0  0  0  0  2  0  0  0  0  0  0
  -23.4010  -26.2540   24.2570 O   0  0  0  0  0  0  0  0  0  0  0  0
  -24.6060  -25.2650   23.5610 C   0  0  0  0  0  2  0  0  0  0  0  0
  -25.2310  -23.4780   23.6050 C   0  0  0  0  0  2  0  0  0  0  0  0
  -25.9830  -22.3050   22.6080 O   0  0  0  0  0  0  0  0  0  0  0  0
  -26.9170  -20.8780   22.7760 C   0  0  0  0  0  3  0  0  0  0  0  0
  -27.4220  -19.3470   21.7860 C   0  0  0  0  0  3  0  0  0  0  0  0
  -28.7460  -17.9960   21.8220 C   0  0  0  0  0  2  0  0  0  0  0  0
  -30.0340  -15.3390   20.7580 C   0  0  0  0  0  0  0  0  0  0  0  0
  -30.4050  -12.9490   19.6310 C   0  0  0  0  0  2  0  0  0  0  0  0
  -29.5510  -12.6610   18.3590 C   0  0  0  0  0  2  0  0  0  0  0  0
  -28.0960  -12.3130   18.7260 C   0  0  0  0  0  2  0  0  0  0  0  0
  -27.5780  -13.2430   19.8490 C   0  0  0  0  0  3  0  0  0  0  0  0
  -28.5320  -13.3060   21.0440 C   0  0  0  0  0  2  0  0  0  0  0  0
  -29.7120  -13.9680   20.5290 N   0  0  0  0  0  0  0  0  0  0  0  0
  -31.2380  -15.5340   20.4700 O   0  0  0  0  0  0  0  0  0  0  0  0
  -29.0050  -16.3990   21.1780 N   0  0  0  0  0  0  0  0  0  0  0  0
  -28.1130  -15.9260   21.1880 H   0  0  0  0  0  0  0  0  0  0  0  0
  -25.2210  -13.8160   20.5630 C   0  0  0  0  0  0  0  0  0  0  0  0
  -24.1580  -13.0380   20.9230 C   0  0  0  0  0  0  0  0  0  0  0  0
  -24.6200  -11.6880   20.8730 C   0  0  0  0  0  0  0  0  0  0  0  0
  -26.2460  -12.9300   20.2960 N   0  0  0  0  0  0  0  0  0  0  0  0
  -25.9070  -11.6460   20.5560 N   0  0  0  0  0  0  0  0  0  0  0  0
  -23.8950  -10.4260   21.0440 C   0  0  0  0  0  0  0  0  0  0  0  0
  -24.3560   -9.4190   21.9200 C   0  0  0  0  0  3  0  0  0  0  0  0
  -23.6250   -8.2210   22.0760 C   0  0  0  0  0  3  0  0  0  0  0  0
  -22.4240   -8.0250   21.3550 C   0  0  0  0  0  0  0  0  0  0  0  0
  -21.9850   -9.0210   20.4650 C   0  0  0  0  0  3  0  0  0  0  0  0
  -22.7140  -10.2100   20.3070 C   0  0  0  0  0  3  0  0  0  0  0  0
  -21.6620   -6.8850   21.4250 O   0  0  0  0  0  0  0  0  0  0  0  0
  -21.6840   -6.0720   22.5290 C   0  0  0  0  0  0  0  0  0  0  0  0
  -21.4000   -6.5630   23.8220 C   0  0  0  0  0  3  0  0  0  0  0  0
  -21.3650   -5.6780   24.9190 C   0  0  0  0  0  3  0  0  0  0  0  0
  -21.6050   -4.3060   24.7240 C   0  0  0  0  0  0  0  0  0  0  0  0
  -21.8820   -3.8140   23.4360 C   0  0  0  0  0  3  0  0  0  0  0  0
  -21.9190   -4.6950   22.3410 C   0  0  0  0  0  0  0  0  0  0  0  0
  -22.1660   -4.2140   21.0990 F   0  0  0  0  0  0  0  0  0  0  0  0
  -21.5630   -3.4540   25.7750 F   0  0  0  0  0  0  0  0  0  0  0  0
  -22.7660  -13.5220   21.1920 C   0  0  0  0  0  0  0  0  0  0  0  0
  -22.0300  -12.8210   22.0490 N   0  0  0  0  0  0  0  0  0  0  0  0
  -22.3380  -14.5530   20.6770 O   0  0  0  0  0  0  0  0  0  0  0  0
  -22.3900  -11.9860   22.4860 H   0  0  0  0  0  0  0  0  0  0  0  0
  -21.0950  -13.1300   22.2720 H   0  0  0  0  0  0  0  0  0  0  0  0
  -25.3960  -15.1890   20.4130 N   0  0  0  0  0  0  0  0  0  0  0  0
  -24.6190  -15.8320   20.5190 H   0  0  0  0  0  0  0  0  0  0  0  0
  -26.1920  -15.6110   19.9530 H   0  0  0  0  0  0  0  0  0  0  0  0
  1  2  1  0
  2  6  2  0
  3  4  1  0
  3  5  2  0
  4  8  1  0
  4  1  2  0
  5  6  1  0
  6 50  1  0
  7  5  1  0
  8  9  1  0
 10 21  2  0
 11  9  1  0
 11 16  1  0
 12 22  1  0
 12 20  1  0
 13 19  1  0
 13 15  1  0
 14 20  1  0
 15 16  2  0
 15 14  1  0
 17 11  1  0
 18 17  1  0
 18 13  2  0
 19 12  1  0
 20 10  1  0
 22 23  1  0
 22 24  2  0
 23 25  1  0
 26 35  2  0
 26 31  1  0
 27 23  1  0
 27 31  1  0
 28 27  1  0
 29 30  1  0
 29 28  1  0
 30 26  1  0
 31 32  2  0
 32 33  1  0
 34 33  2  0
 35 34  1  0
 36 10  1  0
 36 41  1  0
 36 37  1  0
 37 40  1  1
 37 38  1  0
 39 37  1  0
 41 44  1  0
 42 46  1  0
 42 41  1  0
 43 42  2  0
 46 45  1  0
 48 46  1  0
 48 49  1  0
 48 47  1  0
 50 51  1  0
 51 52  1  0
 53 52  1  0
 54 55  1  0
 54 53  1  0
 56 57  1  0
 56 55  1  0
 58 59  1  0
 58 57  2  0
 60 68  1  0
 61 66  1  0
 62 63  1  0
 62 61  1  0
 64 63  1  0
 64 73  1  0
 64 65  1  0
 66 60  1  0
 66 65  1  0
 67 60  2  0
 68 69  1  0
 68 59  1  0
 70 71  2  0
 71 90  1  0
 72 71  1  0
 72 75  1  0
 73 74  1  0
 73 70  1  0
 74 72  2  0
 75 76  1  0
 76 77  2  0
 78 81  1  0
 78 77  1  0
 79 78  2  0
 80 79  1  0
 80 75  2  0
 81 82  1  0
 82 83  1  0
 83 84  2  0
 85 84  1  0
 85 89  1  0
 86 85  2  0
 87 82  2  0
 87 86  1  0
 88 87  1  0
 90 91  1  0
 91 94  1  0
 91 93  1  0
 92 90  2  0
 95 96  1  0
 95 70  1  0
 97 95  1  0
M  ISO  4   8 101   9 101  60 100  68 100
M  END
>  <TORSDO>  (79) 
F 27

>  <SCORE>  (79) 
12.215

>  <name>  (79) 
82

>  <ligand_id>  (79) 
82

>  <original_smiles>  (79) 
[H]c1c([H])c([H])c2c(c1[H])C([H])([H])C([H])([H])C([H])([H])C2([H])N([H])C(=O)C1([H])N(C(=O)C([H])(N([H])C(=O)C([H])(N([H])C([H])([H])[H])C([H])([H])[H])C(C([H])([H])[H])(C([H])([H])[H])C([H])([H])[H])C([H])([H])c2c([H])c(OC([H])([H])c3c([H])c([H])c(OC([H])([H])C([H])([H])OC([H])([H])C([H])([H])OC([H])([H])C([H])([H])C([H])([H])N([H])C(=O)N4C([H])([H])C([H])([H])C([H])([H])C([H])(n5nc(-c6c([H])c([H])c(Oc7c([H])c([H])c(F)c([H])c7F)c([H])c6[H])c(C(=O)N([H])[H])c5N([H])[H])C4([H])[H])c(C([H])([H])[H])c3[H])c([H])c([H])c2C1([H])[H]

>  <smiles>  (79) 
[H]c1c([H])c([H])c2c(c1[H])C([H])([H])C([H])([H])C([H])([H])C2([H])N([H])C(=O)C1([H])N(C(=O)C([H])(N([H])C(=O)C([H])(N([H])C([H])([H])[H])C([H])([H])[H])C(C([H])([H])[H])(C([H])([H])[H])C([H])([H])[H])C([H])([H])c2c([H])c(OC([H])([H])c3c([H])c([H])c(OC([H])([H])C([H])([H])OC([H])([H])C([H])([H])OC([H])([H])C([H])([H])C([H])([H])N([H])C(=O)N4C([H])([H])C([H])([H])C([H])([H])C([H])(n5nc(-c6c([H])c([H])c(Oc7c([H])c([H])c(F)c([H])c7F)c([H])c6[H])c(C(=O)N([H])[H])c5N([H])[H])C4([H])[H])c(C([H])([H])[H])c3[H])c([H])c([H])c2C1([H])[H]

$$$$
83:0:0
     RDKit          3D

 84 91  0  0  1  0  0  0  0  0999 V2000
  -28.0360  -24.2690   20.5090 C   0  0  0  0  0  2  0  0  0  0  0  0
  -28.2220  -25.8810   20.2090 O   0  0  0  0  0  0  0  0  0  0  0  0
  -24.6160  -31.8370   23.1800 C   0  0  0  0  0  0  0  0  0  0  0  0
  -27.1870  -26.9520   20.2070 C   0  0  0  0  0  0  0  0  0  0  0  0
  -23.4240  -30.4230   21.5540 C   0  0  0  0  0  3  0  0  0  0  0  0
  -24.8760  -28.8110   20.1480 C   0  0  0  0  0  0  0  0  0  0  0  0
  -25.9900  -30.6480   21.3990 C   0  0  0  0  0  2  0  0  0  0  0  0
  -26.0650  -29.2330   20.7580 C   0  0  0  0  0  0  0  0  0  0  0  0
  -27.2180  -28.3250   20.7560 C   0  0  0  0  0  3  0  0  0  0  0  0
  -25.9650  -26.6750   19.5560 C   0  0  0  0  0  3  0  0  0  0  0  0
  -24.8500  -27.5530   19.5260 C   0  0  0  0  0  3  0  0  0  0  0  0
  -23.6540  -29.7270   20.1840 C   0  0  0  0  0  2  0  0  0  0  0  0
  -24.6980  -30.9970   22.0980 N   0  0  0  0  0  0  0  0  0  0  0  0
  -23.5260  -32.1260   23.7010 O   0  0  0  0  0  0  0  0  0  0  0  0
  -22.7360  -29.4330   22.5290 C   0  0  0  0  0  0  0  0  0  0  0  0
  -21.4040  -29.2710   22.4160 N   0  0  0  0  0  0  0  0  0  0  0  0
  -23.4070  -28.8080   23.3540 O   0  0  0  0  0  0  0  0  0  0  0  0
  -20.9170  -29.8260   21.7270 H   0  0  0  0  0  0  0  0  0  0  0  0
  -18.0230  -28.0690   22.9520 C   0  0  0  0  0  0  0  0  0  0  0  0
  -20.5850  -28.3390   23.1970 C   0  0  0  0  0  3  0  0  0  0  0  0
  -20.6840  -26.9040   22.6300 C   0  0  0  0  0  2  0  0  0  0  0  0
  -19.5750  -26.5740   21.6240 C   0  0  0  0  0  2  0  0  0  0  0  0
  -18.1970  -26.7180   22.2770 C   0  0  0  0  0  2  0  0  0  0  0  0
  -19.1440  -28.8370   23.3690 C   0  0  0  0  0  0  0  0  0  0  0  0
  -18.9240  -30.0980   23.9630 C   0  0  0  0  0  3  0  0  0  0  0  0
  -17.6200  -30.5940   24.1420 C   0  0  0  0  0  3  0  0  0  0  0  0
  -16.5140  -29.8250   23.7380 C   0  0  0  0  0  3  0  0  0  0  0  0
  -16.7170  -28.5640   23.1490 C   0  0  0  0  0  3  0  0  0  0  0  0
  -25.8860  -32.4890   23.8060 C   0  0  0  0  0  3  0  0  0  0  0  0
  -26.4090  -31.7230   25.0840 C   0  0  1  0  0  0  0  0  0  0  0  0
  -25.3200  -31.4800   26.1550 C   0  0  0  0  0  1  0  0  0  0  0  0
  -27.0000  -30.3470   24.6990 C   0  0  0  0  0  1  0  0  0  0  0  0
  -27.5570  -32.5240   25.7410 C   0  0  0  0  0  1  0  0  0  0  0  0
  -25.5550  -33.8830   24.1530 N   0  0  0  0  0  0  0  0  0  0  0  0
  -25.8660  -34.9530   23.4100 C   0  0  0  0  0  0  0  0  0  0  0  0
  -26.5250  -34.8730   22.3700 O   0  0  0  0  0  0  0  0  0  0  0  0
  -24.9660  -34.0180   24.9610 H   0  0  0  0  0  0  0  0  0  0  0  0
  -24.1090  -36.7340   23.1180 C   0  0  0  0  0  1  0  0  0  0  0  0
  -25.3720  -36.3320   23.8960 C   0  0  0  0  0  3  0  0  0  0  0  0
  -27.5150  -37.2360   24.6870 C   0  0  0  0  0  1  0  0  0  0  0  0
  -26.3890  -37.4000   23.7720 N   0  0  0  0  0  0  0  0  0  0  0  0
  -25.9750  -38.3130   23.9390 H   0  0  0  0  0  0  0  0  0  0  0  0
  -28.7190  -22.6990   19.9240 C   0  0  0  0  0  2  0  0  0  0  0  0
  -28.9900  -21.2170   20.5850 O   0  0  0  0  0  0  0  0  0  0  0  0
  -29.0780  -19.6810   19.9990 C   0  0  0  0  0  2  0  0  0  0  0  0
  -29.8810  -18.1670   20.5600 C   0  0  0  0  0  2  0  0  0  0  0  0
  -30.3820  -15.2640   20.2540 C   0  0  0  0  0  0  0  0  0  0  0  0
  -30.3490  -12.8260   19.3660 C   0  0  0  0  0  2  0  0  0  0  0  0
  -29.4210  -12.6110   18.1440 C   0  0  0  0  0  2  0  0  0  0  0  0
  -27.9740  -12.3490   18.5940 C   0  0  0  0  0  2  0  0  0  0  0  0
  -27.5290  -13.3180   19.7180 C   0  0  0  0  0  3  0  0  0  0  0  0
  -28.5830  -13.4670   20.8330 C   0  0  0  0  0  2  0  0  0  0  0  0
  -29.8060  -13.9670   20.1860 N   0  0  0  0  0  0  0  0  0  0  0  0
  -31.6080  -15.2630   20.0800 O   0  0  0  0  0  0  0  0  0  0  0  0
  -29.6180  -16.5330   20.3180 N   0  0  0  0  0  0  0  0  0  0  0  0
  -28.6290  -16.3280   20.3210 H   0  0  0  0  0  0  0  0  0  0  0  0
  -25.1610  -13.8840   20.4750 C   0  0  0  0  0  0  0  0  0  0  0  0
  -24.0990  -13.1090   20.8510 C   0  0  0  0  0  0  0  0  0  0  0  0
  -24.5680  -11.7590   20.8280 C   0  0  0  0  0  0  0  0  0  0  0  0
  -26.2030  -13.0060   20.2350 N   0  0  0  0  0  0  0  0  0  0  0  0
  -25.8590  -11.7220   20.5170 N   0  0  0  0  0  0  0  0  0  0  0  0
  -23.8400  -10.4970   21.0260 C   0  0  0  0  0  0  0  0  0  0  0  0
  -24.2820   -9.5240   21.9500 C   0  0  0  0  0  3  0  0  0  0  0  0
  -23.5520   -8.3310   22.1370 C   0  0  0  0  0  3  0  0  0  0  0  0
  -22.3660   -8.1010   21.4000 C   0  0  0  0  0  0  0  0  0  0  0  0
  -21.9430   -9.0620   20.4650 C   0  0  0  0  0  3  0  0  0  0  0  0
  -22.6730  -10.2470   20.2760 C   0  0  0  0  0  3  0  0  0  0  0  0
  -21.6060   -6.9600   21.4960 O   0  0  0  0  0  0  0  0  0  0  0  0
  -21.5890   -6.2020   22.6400 C   0  0  0  0  0  0  0  0  0  0  0  0
  -21.2240   -6.7480   23.8900 C   0  0  0  0  0  3  0  0  0  0  0  0
  -21.1520   -5.9180   25.0260 C   0  0  0  0  0  3  0  0  0  0  0  0
  -21.4340   -4.5440   24.9150 C   0  0  0  0  0  0  0  0  0  0  0  0
  -21.7920   -3.9970   23.6700 C   0  0  0  0  0  3  0  0  0  0  0  0
  -21.8660   -4.8250   22.5350 C   0  0  0  0  0  0  0  0  0  0  0  0
  -22.1910   -4.2890   21.3340 F   0  0  0  0  0  0  0  0  0  0  0  0
  -21.3580   -3.7440   26.0040 F   0  0  0  0  0  0  0  0  0  0  0  0
  -22.7020  -13.5880   21.1150 C   0  0  0  0  0  0  0  0  0  0  0  0
  -21.9740  -12.9020   21.9880 N   0  0  0  0  0  0  0  0  0  0  0  0
  -22.2660  -14.6070   20.5800 O   0  0  0  0  0  0  0  0  0  0  0  0
  -22.3410  -12.0790   22.4420 H   0  0  0  0  0  0  0  0  0  0  0  0
  -21.0360  -13.2060   22.2080 H   0  0  0  0  0  0  0  0  0  0  0  0
  -25.3200  -15.2530   20.2870 N   0  0  0  0  0  0  0  0  0  0  0  0
  -24.5470  -15.9020   20.3920 H   0  0  0  0  0  0  0  0  0  0  0  0
  -26.1550  -15.6900   19.9190 H   0  0  0  0  0  0  0  0  0  0  0  0
  2  1  1  0
  3 14  2  0
  4  2  1  0
  4  9  1  0
  5 13  1  0
  5 15  1  0
  6 12  1  0
  6  8  1  0
  7 13  1  0
  8  7  1  0
  9  8  2  0
 10  4  2  0
 11 10  1  0
 11  6  2  0
 12  5  1  0
 13  3  1  0
 15 17  2  0
 16 15  1  0
 18 16  1  0
 19 28  2  0
 19 24  1  0
 20 16  1  0
 20 24  1  0
 21 20  1  0
 22 23  1  0
 22 21  1  0
 23 19  1  0
 24 25  2  0
 25 26  1  0
 27 26  2  0
 28 27  1  0
 29  3  1  0
 29 34  1  0
 29 30  1  0
 30 33  1  1
 30 31  1  0
 32 30  1  0
 34 37  1  0
 35 39  1  0
 35 34  1  0
 36 35  2  0
 39 38  1  0
 41 39  1  0
 41 42  1  0
 41 40  1  0
 43  1  1  0
 43 44  1  0
 45 46  1  0
 45 44  1  0
 47 55  1  0
 48 53  1  0
 49 50  1  0
 49 48  1  0
 51 50  1  0
 51 60  1  0
 51 52  1  0
 53 47  1  0
 53 52  1  0
 54 47  2  0
 55 56  1  0
 55 46  1  0
 57 58  2  0
 58 77  1  0
 59 58  1  0
 59 62  1  0
 60 57  1  0
 60 61  1  0
 61 59  2  0
 62 63  1  0
 63 64  2  0
 65 68  1  0
 65 64  1  0
 66 65  2  0
 67 66  1  0
 67 62  2  0
 68 69  1  0
 69 70  1  0
 70 71  2  0
 72 71  1  0
 72 76  1  0
 73 72  2  0
 74 69  2  0
 74 73  1  0
 75 74  1  0
 77 78  1  0
 78 81  1  0
 78 80  1  0
 79 77  2  0
 82 83  1  0
 82 57  1  0
 84 82  1  0
M  ISO  4   1 101   2 101  47 100  55 100
M  END
>  <TORSDO>  (80) 
F 20

>  <SCORE>  (80) 
-15.761

>  <name>  (80) 
83

>  <ligand_id>  (80) 
83

>  <original_smiles>  (80) 
[H]c1c([H])c([H])c2c(c1[H])C([H])([H])C([H])([H])C([H])([H])C2([H])N([H])C(=O)C1([H])N(C(=O)C([H])(N([H])C(=O)C([H])(N([H])C([H])([H])[H])C([H])([H])[H])C(C([H])([H])[H])(C([H])([H])[H])C([H])([H])[H])C([H])([H])c2c([H])c(OC([H])([H])C([H])([H])OC([H])([H])C([H])([H])N([H])C(=O)N3C([H])([H])C([H])([H])C([H])([H])C([H])(n4nc(-c5c([H])c([H])c(Oc6c([H])c([H])c(F)c([H])c6F)c([H])c5[H])c(C(=O)N([H])[H])c4N([H])[H])C3([H])[H])c([H])c([H])c2C1([H])[H]

>  <smiles>  (80) 
[H]c1c([H])c([H])c2c(c1[H])C([H])([H])C([H])([H])C([H])([H])C2([H])N([H])C(=O)C1([H])N(C(=O)C([H])(N([H])C(=O)C([H])(N([H])C([H])([H])[H])C([H])([H])[H])C(C([H])([H])[H])(C([H])([H])[H])C([H])([H])[H])C([H])([H])c2c([H])c(OC([H])([H])C([H])([H])OC([H])([H])C([H])([H])N([H])C(=O)N3C([H])([H])C([H])([H])C([H])([H])C([H])(n4nc(-c5c([H])c([H])c(Oc6c([H])c([H])c(F)c([H])c6F)c([H])c5[H])c(C(=O)N([H])[H])c4N([H])[H])C3([H])[H])c([H])c([H])c2C1([H])[H]

$$$$
84:0:0
     RDKit          3D

107116  0  0  1  0  0  0  0  0999 V2000
  -24.8110  -21.4070   18.1030 O   0  0  0  0  0  0  0  0  0  0  0  0
  -22.4740  -24.2140   17.6790 C   0  0  0  0  0  3  0  0  0  0  0  0
  -23.2400  -23.0610   17.4270 C   0  0  0  0  0  3  0  0  0  0  0  0
  -22.5940  -24.8840   18.9110 C   0  0  0  0  0  3  0  0  0  0  0  0
  -24.2540  -23.2640   19.6300 C   0  0  0  0  0  3  0  0  0  0  0  0
  -24.1240  -22.5640   18.4030 C   0  0  0  0  0  0  0  0  0  0  0  0
  -23.4860  -24.4220   19.9000 C   0  0  0  0  0  0  0  0  0  0  0  0
  -23.5480  -25.1430   21.0770 O   0  0  0  0  0  0  0  0  0  0  0  0
  -24.2820  -24.6290   22.1900 C   0  0  0  0  0  2  0  0  0  0  0  0
  -25.7430  -25.1230   22.2430 C   0  0  0  0  0  2  0  0  0  0  0  0
  -26.5100  -24.5570   21.1850 O   0  0  0  0  0  0  0  0  0  0  0  0
  -27.9280  -24.6170   21.3250 C   0  0  0  0  0  2  0  0  0  0  0  0
  -28.5440  -26.0340   21.3400 C   0  0  0  0  0  2  0  0  0  0  0  0
  -28.3640  -26.7160   20.0980 O   0  0  0  0  0  0  0  0  0  0  0  0
  -24.6100  -31.8700   23.2140 C   0  0  0  0  0  0  0  0  0  0  0  0
  -27.2320  -27.4820   20.0800 C   0  0  0  0  0  0  0  0  0  0  0  0
  -23.3950  -30.4940   21.5490 C   0  0  0  0  0  3  0  0  0  0  0  0
  -24.8460  -28.9740   20.1050 C   0  0  0  0  0  0  0  0  0  0  0  0
  -25.9200  -30.8480   21.3630 C   0  0  0  0  0  2  0  0  0  0  0  0
  -25.9990  -29.4860   20.7120 C   0  0  0  0  0  0  0  0  0  0  0  0
  -27.1960  -28.7430   20.7100 C   0  0  0  0  0  3  0  0  0  0  0  0
  -26.0790  -26.9870   19.4430 C   0  0  0  0  0  3  0  0  0  0  0  0
  -24.8790  -27.7210   19.4690 C   0  0  0  0  0  3  0  0  0  0  0  0
  -23.6040  -29.8300   20.1600 C   0  0  0  0  0  2  0  0  0  0  0  0
  -24.6590  -31.0830   22.1010 N   0  0  0  0  0  0  0  0  0  0  0  0
  -23.5300  -32.1420   23.7580 O   0  0  0  0  0  0  0  0  0  0  0  0
  -22.7390  -29.4640   22.4960 C   0  0  0  0  0  0  0  0  0  0  0  0
  -21.4120  -29.3020   22.3720 N   0  0  0  0  0  0  0  0  0  0  0  0
  -23.4180  -28.8150   23.2950 O   0  0  0  0  0  0  0  0  0  0  0  0
  -20.9220  -29.8760   21.7000 H   0  0  0  0  0  0  0  0  0  0  0  0
  -18.0290  -28.1350   22.8500 C   0  0  0  0  0  0  0  0  0  0  0  0
  -20.5880  -28.3620   23.1320 C   0  0  0  0  0  3  0  0  0  0  0  0
  -20.6780  -26.9380   22.5390 C   0  0  0  0  0  2  0  0  0  0  0  0
  -19.5770  -26.6390   21.5180 C   0  0  0  0  0  2  0  0  0  0  0  0
  -18.1940  -26.7910   22.1590 C   0  0  0  0  0  2  0  0  0  0  0  0
  -19.1530  -28.8790   23.2940 C   0  0  0  0  0  0  0  0  0  0  0  0
  -18.9470  -30.1420   23.8940 C   0  0  0  0  0  3  0  0  0  0  0  0
  -17.6470  -30.6560   24.0590 C   0  0  0  0  0  3  0  0  0  0  0  0
  -16.5370  -29.9060   23.6340 C   0  0  0  0  0  3  0  0  0  0  0  0
  -16.7280  -28.6500   23.0320 C   0  0  0  0  0  3  0  0  0  0  0  0
  -25.9020  -32.4830   23.8400 C   0  0  0  0  0  3  0  0  0  0  0  0
  -25.5890  -33.8620   24.2340 N   0  0  0  0  0  0  0  0  0  0  0  0
  -25.9020  -34.9470   23.5130 C   0  0  0  0  0  0  0  0  0  0  0  0
  -26.5580  -34.8920   22.4700 O   0  0  0  0  0  0  0  0  0  0  0  0
  -25.0070  -33.9780   25.0510 H   0  0  0  0  0  0  0  0  0  0  0  0
  -24.1490  -36.7330   23.2630 C   0  0  0  0  0  1  0  0  0  0  0  0
  -25.4100  -36.3110   24.0340 C   0  0  0  0  0  3  0  0  0  0  0  0
  -27.5580  -37.1810   24.8460 C   0  0  0  0  0  1  0  0  0  0  0  0
  -26.4290  -37.3790   23.9410 N   0  0  0  0  0  0  0  0  0  0  0  0
  -26.0180  -38.2860   24.1410 H   0  0  0  0  0  0  0  0  0  0  0  0
  -26.4480  -31.6580   25.0700 C   0  0  1  0  0  0  0  0  0  0  0  0
  -25.3780  -31.3660   26.1460 C   0  0  0  0  0  1  0  0  0  0  0  0
  -27.0260  -30.3010   24.6030 C   0  0  0  0  0  1  0  0  0  0  0  0
  -27.6060  -32.4270   25.7470 C   0  0  0  0  0  1  0  0  0  0  0  0
  -25.4360  -20.7210   19.1830 C   0  0  0  0  0  2  0  0  0  0  0  0
  -25.7080  -19.2580   18.8010 C   0  0  0  0  0  2  0  0  0  0  0  0
  -25.8650  -18.4490   19.9680 O   0  0  0  0  0  0  0  0  0  0  0  0
  -22.6170  -17.9300   22.6130 C   0  0  0  0  0  3  0  0  0  0  0  0
  -22.3660  -18.1730   21.2520 C   0  0  0  0  0  3  0  0  0  0  0  0
  -23.9420  -17.8520   23.0760 C   0  0  0  0  0  3  0  0  0  0  0  0
  -23.4390  -18.3450   20.3570 C   0  0  0  0  0  3  0  0  0  0  0  0
  -25.0260  -18.0050   22.1850 C   0  0  0  0  0  0  0  0  0  0  0  0
  -24.7820  -18.2680   20.8100 C   0  0  0  0  0  0  0  0  0  0  0  0
  -26.4210  -17.9210   22.7300 C   0  0  0  0  0  0  0  0  0  0  0  0
  -27.1550  -16.9160   22.2470 N   0  0  0  0  0  0  0  0  0  0  0  0
  -26.8190  -18.7170   23.5840 O   0  0  0  0  0  0  0  0  0  0  0  0
  -26.6740  -16.2900   21.6060 H   0  0  0  0  0  0  0  0  0  0  0  0
  -28.5400  -16.6140   22.5900 C   0  0  0  0  0  2  0  0  0  0  0  0
  -29.3260  -16.2180   21.3290 C   0  0  0  0  0  2  0  0  0  0  0  0
  -30.7700  -14.3830   20.6600 C   0  0  0  0  0  0  0  0  0  0  0  0
  -30.4100  -12.2970   19.3950 C   0  0  0  0  0  2  0  0  0  0  0  0
  -29.4770  -12.5090   18.1900 C   0  0  0  0  0  2  0  0  0  0  0  0
  -28.0030  -12.3550   18.6100 C   0  0  0  0  0  2  0  0  0  0  0  0
  -27.6570  -13.1890   19.8680 C   0  0  0  0  0  3  0  0  0  0  0  0
  -28.7000  -12.9670   20.9880 C   0  0  0  0  0  2  0  0  0  0  0  0
  -30.0380  -13.2570   20.4450 N   0  0  0  0  0  0  0  0  0  0  0  0
  -31.8300  -14.6260   20.0800 O   0  0  0  0  0  0  0  0  0  0  0  0
  -30.3400  -15.2080   21.6180 N   0  0  0  0  0  0  0  0  0  0  0  0
  -31.1210  -15.6370   22.0940 H   0  0  0  0  0  0  0  0  0  0  0  0
  -25.2630  -13.8090   20.5670 C   0  0  0  0  0  0  0  0  0  0  0  0
  -24.1850  -13.0450   20.9200 C   0  0  0  0  0  0  0  0  0  0  0  0
  -24.6340  -11.6880   20.8730 C   0  0  0  0  0  0  0  0  0  0  0  0
  -26.3000  -12.9220   20.3330 N   0  0  0  0  0  0  0  0  0  0  0  0
  -25.9260  -11.6400   20.5740 N   0  0  0  0  0  0  0  0  0  0  0  0
  -23.8980  -10.4300   21.0380 C   0  0  0  0  0  0  0  0  0  0  0  0
  -24.3580   -9.4210   21.9120 C   0  0  0  0  0  3  0  0  0  0  0  0
  -23.6300   -8.2230   22.0690 C   0  0  0  0  0  3  0  0  0  0  0  0
  -22.4250   -8.0280   21.3540 C   0  0  0  0  0  0  0  0  0  0  0  0
  -21.9810   -9.0270   20.4690 C   0  0  0  0  0  3  0  0  0  0  0  0
  -22.7120  -10.2160   20.3080 C   0  0  0  0  0  3  0  0  0  0  0  0
  -21.6620   -6.8880   21.4260 O   0  0  0  0  0  0  0  0  0  0  0  0
  -21.6850   -6.0730   22.5290 C   0  0  0  0  0  0  0  0  0  0  0  0
  -21.4020   -6.5630   23.8230 C   0  0  0  0  0  3  0  0  0  0  0  0
  -21.3650   -5.6780   24.9180 C   0  0  0  0  0  3  0  0  0  0  0  0
  -21.6030   -4.3050   24.7220 C   0  0  0  0  0  0  0  0  0  0  0  0
  -21.8830   -3.8140   23.4340 C   0  0  0  0  0  3  0  0  0  0  0  0
  -21.9190   -4.6950   22.3400 C   0  0  0  0  0  0  0  0  0  0  0  0
  -22.1660   -4.2140   21.0990 F   0  0  0  0  0  0  0  0  0  0  0  0
  -21.5590   -3.4540   25.7730 F   0  0  0  0  0  0  0  0  0  0  0  0
  -22.7870  -13.5300   21.1780 C   0  0  0  0  0  0  0  0  0  0  0  0
  -22.0420  -12.8320   22.0280 N   0  0  0  0  0  0  0  0  0  0  0  0
  -22.3610  -14.5590   20.6570 O   0  0  0  0  0  0  0  0  0  0  0  0
  -22.3940  -11.9980   22.4720 H   0  0  0  0  0  0  0  0  0  0  0  0
  -21.1030  -13.1420   22.2380 H   0  0  0  0  0  0  0  0  0  0  0  0
  -25.4420  -15.1770   20.3950 N   0  0  0  0  0  0  0  0  0  0  0  0
  -24.6070  -15.7510   20.4050 H   0  0  0  0  0  0  0  0  0  0  0  0
  -26.1140  -15.5010   19.7120 H   0  0  0  0  0  0  0  0  0  0  0  0
  1  6  1  0
  1 55  1  0
  2  4  1  0
  3  2  2  0
  3  6  1  0
  4  7  2  0
  5  7  1  0
  6  5  2  0
  7  8  1  0
  8  9  1  0
  9 10  1  0
 11 12  1  0
 11 10  1  0
 12 13  1  0
 14 13  1  0
 15 26  2  0
 16 14  1  0
 16 21  1  0
 17 25  1  0
 17 27  1  0
 18 24  1  0
 18 20  1  0
 19 25  1  0
 20 19  1  0
 21 20  2  0
 22 23  1  0
 22 16  2  0
 23 18  2  0
 24 17  1  0
 25 15  1  0
 27 29  2  0
 28 27  1  0
 30 28  1  0
 31 40  2  0
 31 36  1  0
 32 28  1  0
 32 36  1  0
 33 32  1  0
 34 35  1  0
 34 33  1  0
 35 31  1  0
 36 37  2  0
 37 38  1  0
 39 38  2  0
 40 39  1  0
 41 15  1  0
 41 42  1  0
 41 51  1  0
 42 45  1  0
 43 47  1  0
 43 42  1  0
 44 43  2  0
 47 46  1  0
 49 47  1  0
 49 50  1  0
 49 48  1  0
 51 54  1  1
 51 52  1  0
 53 51  1  0
 56 55  1  0
 56 57  1  0
 57 63  1  0
 58 60  1  0
 59 58  2  0
 61 63  2  0
 61 59  1  0
 62 64  1  0
 62 60  2  0
 63 62  1  0
 64 66  2  0
 65 68  1  0
 65 64  1  0
 67 65  1  0
 69 78  1  0
 69 68  1  0
 70 78  1  0
 71 76  1  0
 72 73  1  0
 72 71  1  0
 74 73  1  0
 74 83  1  0
 74 75  1  0
 76 70  1  0
 76 75  1  0
 77 70  2  0
 78 79  1  0
 80 81  2  0
 81100  1  0
 82 81  1  0
 82 85  1  0
 83 80  1  0
 83 84  1  0
 84 82  2  0
 85 86  1  0
 86 87  2  0
 88 91  1  0
 88 87  1  0
 89 88  2  0
 90 89  1  0
 90 85  2  0
 91 92  1  0
 92 93  1  0
 93 94  2  0
 95 94  1  0
 95 99  1  0
 96 95  2  0
 97 92  2  0
 97 96  1  0
 98 97  1  0
100101  1  0
101104  1  0
101103  1  0
102100  2  0
105106  1  0
105 80  1  0
107105  1  0
M  ISO  4  13 101  14 101  70 100  78 100
M  END
>  <TORSDO>  (81) 
F 30

>  <SCORE>  (81) 
42.599

>  <name>  (81) 
84

>  <ligand_id>  (81) 
84

>  <original_smiles>  (81) 
[H]c1c([H])c(OC([H])([H])C([H])([H])Oc2c([H])c([H])c([H])c([H])c2C(=O)N([H])C([H])([H])C([H])([H])N([H])C(=O)N2C([H])([H])C([H])([H])C([H])([H])C([H])(n3nc(-c4c([H])c([H])c(Oc5c([H])c([H])c(F)c([H])c5F)c([H])c4[H])c(C(=O)N([H])[H])c3N([H])[H])C2([H])[H])c([H])c(OC([H])([H])C([H])([H])OC([H])([H])C([H])([H])Oc2c([H])c([H])c3c(c2[H])C([H])([H])N(C(=O)C([H])(N([H])C(=O)C([H])(N([H])C([H])([H])[H])C([H])([H])[H])C(C([H])([H])[H])(C([H])([H])[H])C([H])([H])[H])C([H])(C(=O)N([H])C2([H])c4c([H])c([H])c([H])c([H])c4C([H])([H])C([H])([H])C2([H])[H])C3([H])[H])c1[H]

>  <smiles>  (81) 
[H]c1c([H])c(OC([H])([H])C([H])([H])Oc2c([H])c([H])c([H])c([H])c2C(=O)N([H])C([H])([H])C([H])([H])N([H])C(=O)N2C([H])([H])C([H])([H])C([H])([H])C([H])(n3nc(-c4c([H])c([H])c(Oc5c([H])c([H])c(F)c([H])c5F)c([H])c4[H])c(C(=O)N([H])[H])c3N([H])[H])C2([H])[H])c([H])c(OC([H])([H])C([H])([H])OC([H])([H])C([H])([H])Oc2c([H])c([H])c3c(c2[H])C([H])([H])N(C(=O)C([H])(N([H])C(=O)C([H])(N([H])C([H])([H])[H])C([H])([H])[H])C(C([H])([H])[H])(C([H])([H])[H])C([H])([H])[H])C([H])(C(=O)N([H])C2([H])c4c([H])c([H])c([H])c([H])c4C([H])([H])C([H])([H])C2([H])[H])C3([H])[H])c1[H]

$$$$
85:0:0
     RDKit          3D

 93100  0  0  1  0  0  0  0  0999 V2000
  -25.1720  -23.3380   22.0120 O   0  0  0  0  0  0  0  0  0  0  0  0
  -26.2330  -22.5500   22.5490 C   0  0  0  0  0  2  0  0  0  0  0  0
  -27.1620  -22.1360   21.4030 C   0  0  0  0  0  2  0  0  0  0  0  0
  -27.8580  -23.2870   20.9350 O   0  0  0  0  0  0  0  0  0  0  0  0
  -28.6680  -23.0240   19.7970 C   0  0  0  0  0  2  0  0  0  0  0  0
  -29.5750  -24.2400   19.5130 C   0  0  0  0  0  2  0  0  0  0  0  0
  -30.8040  -24.2090   20.2400 O   0  0  0  0  0  0  0  0  0  0  0  0
  -31.4300  -22.9330   20.2120 C   0  0  0  0  0  2  0  0  0  0  0  0
  -32.7020  -22.9100   21.0740 C   0  0  0  0  0  2  0  0  0  0  0  0
  -33.9700  -20.7620   21.0540 C   0  0  0  0  0  0  0  0  0  0  0  0
  -34.6360  -18.4370   20.5590 C   0  0  0  0  0  2  0  0  0  0  0  0
  -34.2500  -18.0470   19.1180 C   0  0  0  0  0  2  0  0  0  0  0  0
  -32.7880  -17.5610   19.0440 C   0  0  0  0  0  2  0  0  0  0  0  0
  -31.8040  -18.5330   19.7430 C   0  0  0  0  0  3  0  0  0  0  0  0
  -32.3180  -18.8710   21.1600 C   0  0  0  0  0  2  0  0  0  0  0  0
  -33.6770  -19.4380   21.0480 N   0  0  0  0  0  0  0  0  0  0  0  0
  -35.0520  -21.2340   20.6970 O   0  0  0  0  0  0  0  0  0  0  0  0
  -32.9600  -21.5300   21.4660 N   0  0  0  0  0  0  0  0  0  0  0  0
  -32.1740  -21.0280   21.8550 H   0  0  0  0  0  0  0  0  0  0  0  0
  -29.2290  -18.6350   19.6990 C   0  0  0  0  0  0  0  0  0  0  0  0
  -28.2770  -17.6520   19.7250 C   0  0  0  0  0  0  0  0  0  0  0  0
  -28.9880  -16.4160   19.8140 C   0  0  0  0  0  0  0  0  0  0  0  0
  -30.4510  -17.9850   19.7830 N   0  0  0  0  0  0  0  0  0  0  0  0
  -30.2910  -16.6430   19.9070 N   0  0  0  0  0  0  0  0  0  0  0  0
  -28.5070  -15.0300   19.7650 C   0  0  0  0  0  0  0  0  0  0  0  0
  -28.7270  -14.1350   20.8330 C   0  0  0  0  0  3  0  0  0  0  0  0
  -28.2440  -12.8100   20.7690 C   0  0  0  0  0  3  0  0  0  0  0  0
  -27.5260  -12.3710   19.6300 C   0  0  0  0  0  0  0  0  0  0  0  0
  -27.3310  -13.2600   18.5580 C   0  0  0  0  0  3  0  0  0  0  0  0
  -27.8180  -14.5750   18.6210 C   0  0  0  0  0  3  0  0  0  0  0  0
  -27.0370  -11.0970   19.4710 O   0  0  0  0  0  0  0  0  0  0  0  0
  -26.5820  -10.3630   20.5370 C   0  0  0  0  0  0  0  0  0  0  0  0
  -25.5340  -10.8190   21.3660 C   0  0  0  0  0  3  0  0  0  0  0  0
  -25.0500   -9.9980   22.4040 C   0  0  0  0  0  3  0  0  0  0  0  0
  -25.6010   -8.7200   22.6100 C   0  0  0  0  0  0  0  0  0  0  0  0
  -26.6430   -8.2630   21.7820 C   0  0  0  0  0  3  0  0  0  0  0  0
  -27.1270   -9.0800   20.7470 C   0  0  0  0  0  0  0  0  0  0  0  0
  -28.1140   -8.6240   19.9380 F   0  0  0  0  0  0  0  0  0  0  0  0
  -25.1330   -7.9280   23.6030 F   0  0  0  0  0  0  0  0  0  0  0  0
  -26.7940  -17.8330   19.5780 C   0  0  0  0  0  0  0  0  0  0  0  0
  -26.0020  -16.9500   20.1780 N   0  0  0  0  0  0  0  0  0  0  0  0
  -26.3260  -18.7950   18.9700 O   0  0  0  0  0  0  0  0  0  0  0  0
  -26.3800  -16.1720   20.6990 H   0  0  0  0  0  0  0  0  0  0  0  0
  -24.9990  -17.0520   20.1100 H   0  0  0  0  0  0  0  0  0  0  0  0
  -29.1610  -20.0220   19.5910 N   0  0  0  0  0  0  0  0  0  0  0  0
  -28.2780  -20.4970   19.4340 H   0  0  0  0  0  0  0  0  0  0  0  0
  -29.9640  -20.6210   19.4610 H   0  0  0  0  0  0  0  0  0  0  0  0
  -24.9040  -24.5320   22.7430 C   0  0  0  0  0  2  0  0  0  0  0  0
  -26.0460  -25.5490   22.5820 C   0  0  0  0  0  2  0  0  0  0  0  0
  -26.3250  -25.7290   21.1990 O   0  0  0  0  0  0  0  0  0  0  0  0
  -27.7110  -25.8930   20.9330 C   0  0  0  0  0  2  0  0  0  0  0  0
  -27.9270  -26.4910   19.5320 C   0  0  0  0  0  2  0  0  0  0  0  0
  -27.9490  -27.9210   19.5800 O   0  0  0  0  0  0  0  0  0  0  0  0
  -24.5820  -32.4860   23.8510 C   0  0  0  0  0  0  0  0  0  0  0  0
  -26.7770  -28.6050   19.8200 C   0  0  0  0  0  0  0  0  0  0  0  0
  -23.1840  -31.4170   22.1130 C   0  0  0  0  0  3  0  0  0  0  0  0
  -24.4440  -30.1210   20.3180 C   0  0  0  0  0  0  0  0  0  0  0  0
  -25.6910  -31.7550   21.7440 C   0  0  0  0  0  2  0  0  0  0  0  0
  -25.6680  -30.5160   20.8720 C   0  0  0  0  0  0  0  0  0  0  0  0
  -26.8360  -29.7680   20.6170 C   0  0  0  0  0  3  0  0  0  0  0  0
  -25.5330  -28.2160   19.2720 C   0  0  0  0  0  3  0  0  0  0  0  0
  -24.3700  -28.9690   19.5180 C   0  0  0  0  0  3  0  0  0  0  0  0
  -23.2430  -30.9840   20.6240 C   0  0  0  0  0  2  0  0  0  0  0  0
  -24.5100  -31.8890   22.6270 N   0  0  0  0  0  0  0  0  0  0  0  0
  -23.5650  -32.6820   24.5290 O   0  0  0  0  0  0  0  0  0  0  0  0
  -22.5850  -30.2560   22.9400 C   0  0  0  0  0  0  0  0  0  0  0  0
  -21.2770  -30.0070   22.7620 N   0  0  0  0  0  0  0  0  0  0  0  0
  -23.2940  -29.5870   23.6960 O   0  0  0  0  0  0  0  0  0  0  0  0
  -20.7650  -30.6070   22.1320 H   0  0  0  0  0  0  0  0  0  0  0  0
  -18.0310  -28.4260   22.8830 C   0  0  0  0  0  0  0  0  0  0  0  0
  -20.5100  -28.9410   23.4050 C   0  0  0  0  0  3  0  0  0  0  0  0
  -20.8240  -27.5670   22.7700 C   0  0  0  0  0  2  0  0  0  0  0  0
  -19.8570  -27.1890   21.6430 C   0  0  0  0  0  2  0  0  0  0  0  0
  -18.4170  -27.1460   22.1610 C   0  0  0  0  0  2  0  0  0  0  0  0
  -19.0150  -29.2770   23.4520 C   0  0  0  0  0  0  0  0  0  0  0  0
  -18.6040  -30.4740   24.0810 C   0  0  0  0  0  3  0  0  0  0  0  0
  -17.2410  -30.8200   24.1480 C   0  0  0  0  0  3  0  0  0  0  0  0
  -16.2710  -29.9670   23.5960 C   0  0  0  0  0  3  0  0  0  0  0  0
  -16.6660  -28.7710   22.9690 C   0  0  0  0  0  3  0  0  0  0  0  0
  -25.9420  -32.9700   24.4450 C   0  0  0  0  0  3  0  0  0  0  0  0
  -26.4700  -32.0580   25.6190 C   0  0  1  0  0  0  0  0  0  0  0  0
  -25.4150  -31.7830   26.7150 C   0  0  0  0  0  1  0  0  0  0  0  0
  -26.9540  -30.6940   25.0750 C   0  0  0  0  0  1  0  0  0  0  0  0
  -27.6960  -32.7260   26.2880 C   0  0  0  0  0  1  0  0  0  0  0  0
  -25.7540  -34.3520   24.9040 N   0  0  0  0  0  0  0  0  0  0  0  0
  -26.1440  -35.4400   24.2250 C   0  0  0  0  0  0  0  0  0  0  0  0
  -26.7700  -35.3760   23.1640 O   0  0  0  0  0  0  0  0  0  0  0  0
  -25.2020  -34.4810   25.7390 H   0  0  0  0  0  0  0  0  0  0  0  0
  -24.5540  -37.3820   24.0820 C   0  0  0  0  0  1  0  0  0  0  0  0
  -25.7800  -36.8150   24.8160 C   0  0  0  0  0  3  0  0  0  0  0  0
  -27.9990  -37.4550   25.6470 C   0  0  0  0  0  1  0  0  0  0  0  0
  -26.8890  -37.7920   24.7600 N   0  0  0  0  0  0  0  0  0  0  0  0
  -26.5620  -38.7240   25.0000 H   0  0  0  0  0  0  0  0  0  0  0  0
  1  2  1  0
  1 48  1  0
  3  2  1  0
  4  3  1  0
  5  4  1  0
  6  5  1  0
  6  7  1  0
  8  7  1  0
  8  9  1  0
  9 18  1  0
 10 18  1  0
 11 16  1  0
 12 11  1  0
 13 12  1  0
 14 13  1  0
 14 23  1  0
 14 15  1  0
 16 10  1  0
 16 15  1  0
 17 10  2  0
 18 19  1  0
 20 21  2  0
 20 23  1  0
 21 22  1  0
 22 24  2  0
 23 24  1  0
 25 22  1  0
 25 26  1  0
 27 26  2  0
 28 27  1  0
 29 30  1  0
 29 28  2  0
 30 25  2  0
 31 28  1  0
 31 32  1  0
 32 37  2  0
 32 33  1  0
 33 34  2  0
 34 35  1  0
 35 39  1  0
 36 35  2  0
 37 36  1  0
 38 37  1  0
 40 21  1  0
 40 41  1  0
 41 43  1  0
 42 40  2  0
 44 41  1  0
 45 20  1  0
 46 45  1  0
 47 45  1  0
 49 48  1  0
 50 49  1  0
 51 50  1  0
 52 53  1  0
 52 51  1  0
 53 55  1  0
 54 65  2  0
 55 60  1  0
 56 64  1  0
 56 66  1  0
 57 63  1  0
 57 59  1  0
 58 64  1  0
 59 58  1  0
 60 59  2  0
 61 62  1  0
 61 55  2  0
 62 57  2  0
 63 56  1  0
 64 54  1  0
 66 68  2  0
 67 66  1  0
 69 67  1  0
 70 79  2  0
 70 75  1  0
 71 67  1  0
 71 75  1  0
 72 71  1  0
 73 74  1  0
 73 72  1  0
 74 70  1  0
 75 76  2  0
 76 77  1  0
 78 77  2  0
 79 78  1  0
 80 54  1  0
 80 85  1  0
 80 81  1  0
 81 84  1  1
 81 82  1  0
 83 81  1  0
 85 88  1  0
 86 90  1  0
 86 85  1  0
 87 86  2  0
 90 89  1  0
 92 90  1  0
 92 93  1  0
 92 91  1  0
M  ISO  4  10 100  18 100  52 101  53 101
M  END
>  <TORSDO>  (82) 
F 29

>  <SCORE>  (82) 
-2.990

>  <name>  (82) 
85

>  <ligand_id>  (82) 
85

>  <original_smiles>  (82) 
[H]c1c([H])c([H])c2c(c1[H])C([H])([H])C([H])([H])C([H])([H])C2([H])N([H])C(=O)C1([H])N(C(=O)C([H])(N([H])C(=O)C([H])(N([H])C([H])([H])[H])C([H])([H])[H])C(C([H])([H])[H])(C([H])([H])[H])C([H])([H])[H])C([H])([H])c2c([H])c(OC([H])([H])C([H])([H])OC([H])([H])C([H])([H])OC([H])([H])C([H])([H])OC([H])([H])C([H])([H])OC([H])([H])C([H])([H])N([H])C(=O)N3C([H])([H])C([H])([H])C([H])([H])C([H])(n4nc(-c5c([H])c([H])c(Oc6c([H])c([H])c(F)c([H])c6F)c([H])c5[H])c(C(=O)N([H])[H])c4N([H])[H])C3([H])[H])c([H])c([H])c2C1([H])[H]

>  <smiles>  (82) 
[H]c1c([H])c([H])c2c(c1[H])C([H])([H])C([H])([H])C([H])([H])C2([H])N([H])C(=O)C1([H])N(C(=O)C([H])(N([H])C(=O)C([H])(N([H])C([H])([H])[H])C([H])([H])[H])C(C([H])([H])[H])(C([H])([H])[H])C([H])([H])[H])C([H])([H])c2c([H])c(OC([H])([H])C([H])([H])OC([H])([H])C([H])([H])OC([H])([H])C([H])([H])OC([H])([H])C([H])([H])OC([H])([H])C([H])([H])N([H])C(=O)N3C([H])([H])C([H])([H])C([H])([H])C([H])(n4nc(-c5c([H])c([H])c(Oc6c([H])c([H])c(F)c([H])c6F)c([H])c5[H])c(C(=O)N([H])[H])c4N([H])[H])C3([H])[H])c([H])c([H])c2C1([H])[H]

$$$$
86:0:0
     RDKit          3D

 88 96  0  0  1  0  0  0  0  0999 V2000
  -28.1630  -20.3530   20.5900 C   0  0  0  0  0  3  0  0  0  0  0  0
  -30.3520  -20.5620   19.9150 C   0  0  0  0  0  3  0  0  0  0  0  0
  -28.3450  -18.8770   20.6070 C   0  0  0  0  0  3  0  0  0  0  0  0
  -30.5370  -19.0870   19.9340 C   0  0  0  0  0  3  0  0  0  0  0  0
  -29.1610  -21.3490   20.2380 C   0  0  0  0  0  0  0  0  0  0  0  0
  -29.5400  -18.0930   20.2890 C   0  0  0  0  0  0  0  0  0  0  0  0
  -30.4370  -15.3060   20.1370 C   0  0  0  0  0  0  0  0  0  0  0  0
  -30.4150  -12.8850   19.2280 C   0  0  0  0  0  2  0  0  0  0  0  0
  -29.4470  -12.7250   18.0280 C   0  0  0  0  0  2  0  0  0  0  0  0
  -28.0100  -12.4530   18.5120 C   0  0  0  0  0  2  0  0  0  0  0  0
  -27.6030  -13.3880   19.6770 C   0  0  0  0  0  3  0  0  0  0  0  0
  -28.6910  -13.4870   20.7680 C   0  0  0  0  0  2  0  0  0  0  0  0
  -29.9080  -13.9920   20.1120 N   0  0  0  0  0  0  0  0  0  0  0  0
  -31.6340  -15.3760   19.8260 O   0  0  0  0  0  0  0  0  0  0  0  0
  -29.5890  -16.4880   20.3440 N   0  0  0  0  0  0  0  0  0  0  0  0
  -28.6790  -16.1310   20.5960 H   0  0  0  0  0  0  0  0  0  0  0  0
  -25.2580  -13.9280   20.5310 C   0  0  0  0  0  0  0  0  0  0  0  0
  -24.2120  -13.1400   20.9200 C   0  0  0  0  0  0  0  0  0  0  0  0
  -24.6770  -11.7920   20.8330 C   0  0  0  0  0  0  0  0  0  0  0  0
  -26.2910  -13.0610   20.2230 N   0  0  0  0  0  0  0  0  0  0  0  0
  -25.9560  -11.7680   20.4720 N   0  0  0  0  0  0  0  0  0  0  0  0
  -23.9590  -10.5230   21.0150 C   0  0  0  0  0  0  0  0  0  0  0  0
  -24.3950   -9.5510   21.9410 C   0  0  0  0  0  3  0  0  0  0  0  0
  -23.6740   -8.3490   22.1120 C   0  0  0  0  0  3  0  0  0  0  0  0
  -22.5010   -8.1110   21.3570 C   0  0  0  0  0  0  0  0  0  0  0  0
  -22.0830   -9.0730   20.4200 C   0  0  0  0  0  3  0  0  0  0  0  0
  -22.8050  -10.2650   20.2460 C   0  0  0  0  0  3  0  0  0  0  0  0
  -21.7510   -6.9620   21.4370 O   0  0  0  0  0  0  0  0  0  0  0  0
  -21.6620   -6.2420   22.6010 C   0  0  0  0  0  0  0  0  0  0  0  0
  -21.1420   -6.8040   23.7870 C   0  0  0  0  0  3  0  0  0  0  0  0
  -21.0020   -6.0080   24.9410 C   0  0  0  0  0  3  0  0  0  0  0  0
  -21.3730   -4.6510   24.9100 C   0  0  0  0  0  0  0  0  0  0  0  0
  -21.8870   -4.0880   23.7280 C   0  0  0  0  0  3  0  0  0  0  0  0
  -22.0270   -4.8820   22.5760 C   0  0  0  0  0  0  0  0  0  0  0  0
  -22.5020   -4.3280   21.4340 F   0  0  0  0  0  0  0  0  0  0  0  0
  -21.2330   -3.8830   26.0170 F   0  0  0  0  0  0  0  0  0  0  0  0
  -22.8250  -13.6070   21.2530 C   0  0  0  0  0  0  0  0  0  0  0  0
  -22.1310  -12.8910   22.1300 N   0  0  0  0  0  0  0  0  0  0  0  0
  -22.3670  -14.6420   20.7710 O   0  0  0  0  0  0  0  0  0  0  0  0
  -22.5160  -12.0530   22.5410 H   0  0  0  0  0  0  0  0  0  0  0  0
  -21.2020  -13.1850   22.3950 H   0  0  0  0  0  0  0  0  0  0  0  0
  -25.4090  -15.3040   20.3810 N   0  0  0  0  0  0  0  0  0  0  0  0
  -24.6330  -15.9420   20.5220 H   0  0  0  0  0  0  0  0  0  0  0  0
  -26.2120  -15.7480   19.9570 H   0  0  0  0  0  0  0  0  0  0  0  0
  -29.1350  -23.0940   20.2490 C   0  0  0  0  0  2  0  0  0  0  0  0
  -27.9460  -24.3410   20.2770 C   0  0  0  0  0  0  0  0  0  0  0  0
  -26.7860  -23.9280   20.3550 O   0  0  0  0  0  0  0  0  0  0  0  0
  -28.2030  -25.9890   20.2300 O   0  0  0  0  0  0  0  0  0  0  0  0
  -24.6530  -31.9080   23.2530 C   0  0  0  0  0  0  0  0  0  0  0  0
  -27.1960  -27.0800   20.1880 C   0  0  0  0  0  0  0  0  0  0  0  0
  -23.4510  -30.5280   21.6060 C   0  0  0  0  0  3  0  0  0  0  0  0
  -24.8940  -28.9410   20.1670 C   0  0  0  0  0  0  0  0  0  0  0  0
  -26.0160  -30.7440   21.4560 C   0  0  0  0  0  2  0  0  0  0  0  0
  -26.0820  -29.3410   20.7930 C   0  0  0  0  0  0  0  0  0  0  0  0
  -27.2250  -28.4280   20.7880 C   0  0  0  0  0  3  0  0  0  0  0  0
  -25.9810  -26.8320   19.5090 C   0  0  0  0  0  3  0  0  0  0  0  0
  -24.8650  -27.7050   19.5070 C   0  0  0  0  0  3  0  0  0  0  0  0
  -23.6760  -29.8590   20.2230 C   0  0  0  0  0  2  0  0  0  0  0  0
  -24.7280  -31.0850   22.1590 N   0  0  0  0  0  0  0  0  0  0  0  0
  -23.5650  -32.1960   23.7790 O   0  0  0  0  0  0  0  0  0  0  0  0
  -22.7600  -29.5240   22.5640 C   0  0  0  0  0  0  0  0  0  0  0  0
  -21.4310  -29.3550   22.4330 N   0  0  0  0  0  0  0  0  0  0  0  0
  -23.4250  -28.8960   23.3920 O   0  0  0  0  0  0  0  0  0  0  0  0
  -20.9480  -29.9110   21.7420 H   0  0  0  0  0  0  0  0  0  0  0  0
  -18.0480  -28.1440   22.9320 C   0  0  0  0  0  0  0  0  0  0  0  0
  -20.6070  -28.4120   23.1980 C   0  0  0  0  0  3  0  0  0  0  0  0
  -20.7110  -26.9830   22.6150 C   0  0  0  0  0  2  0  0  0  0  0  0
  -19.6090  -26.6650   21.5990 C   0  0  0  0  0  2  0  0  0  0  0  0
  -18.2270  -26.8010   22.2440 C   0  0  0  0  0  2  0  0  0  0  0  0
  -19.1650  -28.9070   23.3660 C   0  0  0  0  0  0  0  0  0  0  0  0
  -18.9410  -30.1620   23.9730 C   0  0  0  0  0  3  0  0  0  0  0  0
  -17.6350  -30.6550   24.1470 C   0  0  0  0  0  3  0  0  0  0  0  0
  -16.5330  -29.8900   23.7270 C   0  0  0  0  0  3  0  0  0  0  0  0
  -16.7400  -28.6360   23.1260 C   0  0  0  0  0  3  0  0  0  0  0  0
  -25.9290  -32.5410   23.8870 C   0  0  0  0  0  3  0  0  0  0  0  0
  -25.6170  -33.9410   24.2270 N   0  0  0  0  0  0  0  0  0  0  0  0
  -25.9180  -35.0000   23.4630 C   0  0  0  0  0  0  0  0  0  0  0  0
  -26.5500  -34.9030   22.4080 O   0  0  0  0  0  0  0  0  0  0  0  0
  -25.0510  -34.0890   25.0490 H   0  0  0  0  0  0  0  0  0  0  0  0
  -24.1610  -36.7850   23.2020 C   0  0  0  0  0  1  0  0  0  0  0  0
  -25.4460  -36.3870   23.9450 C   0  0  0  0  0  3  0  0  0  0  0  0
  -27.6090  -37.3000   24.6700 C   0  0  0  0  0  1  0  0  0  0  0  0
  -26.4640  -37.4480   23.7760 N   0  0  0  0  0  0  0  0  0  0  0  0
  -26.0570  -38.3670   23.9310 H   0  0  0  0  0  0  0  0  0  0  0  0
  -26.4300  -31.7690   25.1690 C   0  0  1  0  0  0  0  0  0  0  0  0
  -25.3270  -31.5360   26.2280 C   0  0  0  0  0  1  0  0  0  0  0  0
  -27.0140  -30.3880   24.7910 C   0  0  0  0  0  1  0  0  0  0  0  0
  -27.5780  -32.5610   25.8410 C   0  0  0  0  0  1  0  0  0  0  0  0
  1  3  1  0
  2  4  2  0
  2  5  1  0
  4  6  1  0
  5 45  1  0
  5  1  2  0
  6 15  1  0
  6  3  2  0
  7 15  1  0
  8 13  1  0
  9 10  1  0
  9  8  1  0
 11 10  1  0
 11 20  1  0
 11 12  1  0
 13  7  1  0
 13 12  1  0
 14  7  2  0
 15 16  1  0
 17 18  2  0
 18 37  1  0
 19 18  1  0
 19 22  1  0
 20 21  1  0
 20 17  1  0
 21 19  2  0
 22 23  1  0
 23 24  2  0
 25 28  1  0
 25 24  1  0
 26 25  2  0
 27 26  1  0
 27 22  2  0
 28 29  1  0
 29 30  1  0
 30 31  2  0
 32 31  1  0
 32 36  1  0
 33 32  2  0
 34 29  2  0
 34 33  1  0
 35 34  1  0
 37 38  1  0
 38 41  1  0
 38 40  1  0
 39 37  2  0
 42 43  1  0
 42 17  1  0
 44 42  1  0
 45 46  1  0
 46 47  2  0
 48 46  1  0
 49 60  2  0
 50 48  1  0
 50 55  1  0
 51 59  1  0
 51 61  1  0
 52 58  1  0
 52 54  1  0
 53 59  1  0
 54 53  1  0
 55 54  2  0
 56 50  2  0
 57 56  1  0
 57 52  2  0
 58 51  1  0
 59 49  1  0
 61 63  2  0
 62 61  1  0
 64 62  1  0
 65 74  2  0
 65 70  1  0
 66 62  1  0
 66 70  1  0
 67 66  1  0
 68 69  1  0
 68 67  1  0
 69 65  1  0
 70 71  2  0
 71 72  1  0
 73 72  2  0
 74 73  1  0
 75 49  1  0
 75 76  1  0
 75 85  1  0
 76 79  1  0
 77 81  1  0
 77 76  1  0
 78 77  2  0
 81 80  1  0
 83 84  1  0
 83 81  1  0
 83 82  1  0
 85 88  1  1
 85 86  1  0
 87 85  1  0
M  ISO  4   7 100  15 100  46 101  48 101
M  END
>  <TORSDO>  (83) 
F 18

>  <SCORE>  (83) 
-16.102

>  <name>  (83) 
86

>  <ligand_id>  (83) 
86

>  <original_smiles>  (83) 
[H]c1c([H])c([H])c2c(c1[H])C([H])([H])C([H])([H])C([H])([H])C2([H])N([H])C(=O)C1([H])N(C(=O)C([H])(N([H])C(=O)C([H])(N([H])C([H])([H])[H])C([H])([H])[H])C(C([H])([H])[H])(C([H])([H])[H])C([H])([H])[H])C([H])([H])c2c([H])c(OC(=O)C([H])([H])c3c([H])c([H])c(N([H])C(=O)N4C([H])([H])C([H])([H])C([H])([H])C([H])(n5nc(-c6c([H])c([H])c(Oc7c([H])c([H])c(F)c([H])c7F)c([H])c6[H])c(C(=O)N([H])[H])c5N([H])[H])C4([H])[H])c([H])c3[H])c([H])c([H])c2C1([H])[H]

>  <smiles>  (83) 
[H]c1c([H])c([H])c2c(c1[H])C([H])([H])C([H])([H])C([H])([H])C2([H])N([H])C(=O)C1([H])N(C(=O)C([H])(N([H])C(=O)C([H])(N([H])C([H])([H])[H])C([H])([H])[H])C(C([H])([H])[H])(C([H])([H])[H])C([H])([H])[H])C([H])([H])c2c([H])c(OC(=O)C([H])([H])c3c([H])c([H])c(N([H])C(=O)N4C([H])([H])C([H])([H])C([H])([H])C([H])(n5nc(-c6c([H])c([H])c(Oc7c([H])c([H])c(F)c([H])c7F)c([H])c6[H])c(C(=O)N([H])[H])c5N([H])[H])C4([H])[H])c([H])c3[H])c([H])c([H])c2C1([H])[H]

$$$$
87:0:0
     RDKit          3D

 83 90  0  0  1  0  0  0  0  0999 V2000
  -28.0300  -24.3070   20.5190 C   0  0  0  0  0  2  0  0  0  0  0  0
  -28.2280  -25.9100   20.2180 O   0  0  0  0  0  0  0  0  0  0  0  0
  -24.6140  -31.8440   23.1820 C   0  0  0  0  0  0  0  0  0  0  0  0
  -27.1910  -26.9740   20.2120 C   0  0  0  0  0  0  0  0  0  0  0  0
  -23.4250  -30.4300   21.5550 C   0  0  0  0  0  3  0  0  0  0  0  0
  -24.8790  -28.8230   20.1490 C   0  0  0  0  0  0  0  0  0  0  0  0
  -25.9880  -30.6620   21.4010 C   0  0  0  0  0  2  0  0  0  0  0  0
  -26.0650  -29.2470   20.7600 C   0  0  0  0  0  0  0  0  0  0  0  0
  -27.2200  -28.3450   20.7610 C   0  0  0  0  0  3  0  0  0  0  0  0
  -25.9710  -26.6900   19.5590 C   0  0  0  0  0  3  0  0  0  0  0  0
  -24.8550  -27.5640   19.5270 C   0  0  0  0  0  3  0  0  0  0  0  0
  -23.6550  -29.7360   20.1850 C   0  0  0  0  0  2  0  0  0  0  0  0
  -24.6970  -31.0060   22.1000 N   0  0  0  0  0  0  0  0  0  0  0  0
  -23.5230  -32.1320   23.7030 O   0  0  0  0  0  0  0  0  0  0  0  0
  -22.7370  -29.4380   22.5290 C   0  0  0  0  0  0  0  0  0  0  0  0
  -21.4060  -29.2760   22.4160 N   0  0  0  0  0  0  0  0  0  0  0  0
  -23.4090  -28.8110   23.3530 O   0  0  0  0  0  0  0  0  0  0  0  0
  -20.9170  -29.8320   21.7280 H   0  0  0  0  0  0  0  0  0  0  0  0
  -18.0240  -28.0800   22.9560 C   0  0  0  0  0  0  0  0  0  0  0  0
  -20.5860  -28.3430   23.1970 C   0  0  0  0  0  3  0  0  0  0  0  0
  -20.6800  -26.9090   22.6240 C   0  0  0  0  0  2  0  0  0  0  0  0
  -19.5690  -26.5860   21.6210 C   0  0  0  0  0  2  0  0  0  0  0  0
  -18.1930  -26.7320   22.2770 C   0  0  0  0  0  2  0  0  0  0  0  0
  -19.1470  -28.8440   23.3730 C   0  0  0  0  0  0  0  0  0  0  0  0
  -18.9320  -30.1050   23.9720 C   0  0  0  0  0  3  0  0  0  0  0  0
  -17.6290  -30.6030   24.1540 C   0  0  0  0  0  3  0  0  0  0  0  0
  -16.5210  -29.8380   23.7510 C   0  0  0  0  0  3  0  0  0  0  0  0
  -16.7190  -28.5770   23.1590 C   0  0  0  0  0  3  0  0  0  0  0  0
  -25.8830  -32.4970   23.8100 C   0  0  0  0  0  3  0  0  0  0  0  0
  -25.5520  -33.8910   24.1530 N   0  0  0  0  0  0  0  0  0  0  0  0
  -25.8650  -34.9600   23.4080 C   0  0  0  0  0  0  0  0  0  0  0  0
  -26.5240  -34.8770   22.3690 O   0  0  0  0  0  0  0  0  0  0  0  0
  -24.9630  -34.0270   24.9610 H   0  0  0  0  0  0  0  0  0  0  0  0
  -24.1090  -36.7410   23.1090 C   0  0  0  0  0  1  0  0  0  0  0  0
  -25.3700  -36.3390   23.8910 C   0  0  0  0  0  3  0  0  0  0  0  0
  -27.5100  -37.2440   24.6880 C   0  0  0  0  0  1  0  0  0  0  0  0
  -26.3870  -37.4070   23.7690 N   0  0  0  0  0  0  0  0  0  0  0  0
  -25.9730  -38.3200   23.9340 H   0  0  0  0  0  0  0  0  0  0  0  0
  -26.4040  -31.7320   25.0890 C   0  0  1  0  0  0  0  0  0  0  0  0
  -25.3130  -31.4890   26.1590 C   0  0  0  0  0  1  0  0  0  0  0  0
  -26.9960  -30.3570   24.7070 C   0  0  0  0  0  1  0  0  0  0  0  0
  -27.5500  -32.5350   25.7480 C   0  0  0  0  0  1  0  0  0  0  0  0
  -28.7230  -22.7500   19.9380 C   0  0  0  0  0  2  0  0  0  0  0  0
  -28.9620  -21.2710   20.6010 O   0  0  0  0  0  0  0  0  0  0  0  0
  -29.0780  -19.7570   19.9850 C   0  0  0  0  0  2  0  0  0  0  0  0
  -29.8350  -18.2130   20.5160 C   0  0  0  0  0  2  0  0  0  0  0  0
  -29.5080  -16.6200   20.3480 O   0  0  0  0  0  0  0  0  0  0  0  0
  -30.4360  -15.2510   20.2340 C   0  0  0  0  0  0  0  0  0  0  0  0
  -30.3670  -12.7840   19.3840 C   0  0  0  0  0  2  0  0  0  0  0  0
  -29.4550  -12.6150   18.1420 C   0  0  0  0  0  2  0  0  0  0  0  0
  -27.9960  -12.3650   18.5680 C   0  0  0  0  0  2  0  0  0  0  0  0
  -27.5420  -13.3360   19.6880 C   0  0  0  0  0  3  0  0  0  0  0  0
  -28.5700  -13.4800   20.8230 C   0  0  0  0  0  2  0  0  0  0  0  0
  -29.8300  -13.9130   20.2140 N   0  0  0  0  0  0  0  0  0  0  0  0
  -31.6520  -15.2880   20.0120 O   0  0  0  0  0  0  0  0  0  0  0  0
  -25.1710  -13.8970   20.4330 C   0  0  0  0  0  0  0  0  0  0  0  0
  -24.1090  -13.1220   20.8060 C   0  0  0  0  0  0  0  0  0  0  0  0
  -24.5800  -11.7720   20.7920 C   0  0  0  0  0  0  0  0  0  0  0  0
  -26.2140  -13.0210   20.1960 N   0  0  0  0  0  0  0  0  0  0  0  0
  -25.8720  -11.7380   20.4850 N   0  0  0  0  0  0  0  0  0  0  0  0
  -23.8540  -10.5100   20.9930 C   0  0  0  0  0  0  0  0  0  0  0  0
  -24.2880   -9.5480   21.9310 C   0  0  0  0  0  3  0  0  0  0  0  0
  -23.5590   -8.3530   22.1200 C   0  0  0  0  0  3  0  0  0  0  0  0
  -22.3830   -8.1130   21.3710 C   0  0  0  0  0  0  0  0  0  0  0  0
  -21.9690   -9.0640   20.4220 C   0  0  0  0  0  3  0  0  0  0  0  0
  -22.6980  -10.2490   20.2310 C   0  0  0  0  0  3  0  0  0  0  0  0
  -21.6260   -6.9690   21.4680 O   0  0  0  0  0  0  0  0  0  0  0  0
  -21.5870   -6.2280   22.6210 C   0  0  0  0  0  0  0  0  0  0  0  0
  -21.1880   -6.7880   23.8540 C   0  0  0  0  0  3  0  0  0  0  0  0
  -21.0940   -5.9740   25.0000 C   0  0  0  0  0  3  0  0  0  0  0  0
  -21.3910   -4.6010   24.9140 C   0  0  0  0  0  0  0  0  0  0  0  0
  -21.7840   -4.0400   23.6870 C   0  0  0  0  0  3  0  0  0  0  0  0
  -21.8780   -4.8520   22.5430 C   0  0  0  0  0  0  0  0  0  0  0  0
  -22.2370   -4.3020   21.3570 F   0  0  0  0  0  0  0  0  0  0  0  0
  -21.2950   -3.8160   26.0140 F   0  0  0  0  0  0  0  0  0  0  0  0
  -22.7100  -13.5990   21.0610 C   0  0  0  0  0  0  0  0  0  0  0  0
  -21.9780  -12.9140   21.9310 N   0  0  0  0  0  0  0  0  0  0  0  0
  -22.2760  -14.6170   20.5230 O   0  0  0  0  0  0  0  0  0  0  0  0
  -22.3430  -12.0910   22.3870 H   0  0  0  0  0  0  0  0  0  0  0  0
  -21.0390  -13.2170   22.1460 H   0  0  0  0  0  0  0  0  0  0  0  0
  -25.3350  -15.2670   20.2470 N   0  0  0  0  0  0  0  0  0  0  0  0
  -24.5750  -15.9280   20.3650 H   0  0  0  0  0  0  0  0  0  0  0  0
  -26.1990  -15.7040   19.9490 H   0  0  0  0  0  0  0  0  0  0  0  0
  2  1  1  0
  3 14  2  0
  4  2  1  0
  4  9  1  0
  5 13  1  0
  5 15  1  0
  6 12  1  0
  6  8  1  0
  7 13  1  0
  8  9  2  0
  8  7  1  0
 10  4  2  0
 11 10  1  0
 11  6  2  0
 12  5  1  0
 13  3  1  0
 15 17  2  0
 16 15  1  0
 18 16  1  0
 19 28  2  0
 19 24  1  0
 20 16  1  0
 20 24  1  0
 21 20  1  0
 22 23  1  0
 22 21  1  0
 23 19  1  0
 24 25  2  0
 25 26  1  0
 27 26  2  0
 28 27  1  0
 29  3  1  0
 29 30  1  0
 29 39  1  0
 30 33  1  0
 31 35  1  0
 31 30  1  0
 32 31  2  0
 35 34  1  0
 37 35  1  0
 37 38  1  0
 37 36  1  0
 39 42  1  1
 39 40  1  0
 41 39  1  0
 43  1  1  0
 43 44  1  0
 45 46  1  0
 45 44  1  0
 47 46  1  0
 48 47  1  0
 49 54  1  0
 50 51  1  0
 50 49  1  0
 52 51  1  0
 52 59  1  0
 52 53  1  0
 54 48  1  0
 54 53  1  0
 55 48  2  0
 56 57  2  0
 57 76  1  0
 58 57  1  0
 58 61  1  0
 59 56  1  0
 59 60  1  0
 60 58  2  0
 61 62  1  0
 62 63  2  0
 64 67  1  0
 64 63  1  0
 65 64  2  0
 66 65  1  0
 66 61  2  0
 67 68  1  0
 68 69  1  0
 69 70  2  0
 71 70  1  0
 71 75  1  0
 72 71  2  0
 73 68  2  0
 73 72  1  0
 74 73  1  0
 76 77  1  0
 77 80  1  0
 77 79  1  0
 78 76  2  0
 81 82  1  0
 81 56  1  0
 83 81  1  0
M  ISO  4   1 101   2 101  47 100  48 100
M  END
>  <TORSDO>  (84) 
F 21

>  <SCORE>  (84) 
-15.264

>  <name>  (84) 
87

>  <ligand_id>  (84) 
87

>  <original_smiles>  (84) 
[H]c1c([H])c([H])c2c(c1[H])C([H])([H])C([H])([H])C([H])([H])C2([H])N([H])C(=O)C1([H])N(C(=O)C([H])(N([H])C(=O)C([H])(N([H])C([H])([H])[H])C([H])([H])[H])C(C([H])([H])[H])(C([H])([H])[H])C([H])([H])[H])C([H])([H])c2c([H])c(OC([H])([H])C([H])([H])OC([H])([H])C([H])([H])OC(=O)N3C([H])([H])C([H])([H])C([H])([H])C([H])(n4nc(-c5c([H])c([H])c(Oc6c([H])c([H])c(F)c([H])c6F)c([H])c5[H])c(C(=O)N([H])[H])c4N([H])[H])C3([H])[H])c([H])c([H])c2C1([H])[H]

>  <smiles>  (84) 
[H]c1c([H])c([H])c2c(c1[H])C([H])([H])C([H])([H])C([H])([H])C2([H])N([H])C(=O)C1([H])N(C(=O)C([H])(N([H])C(=O)C([H])(N([H])C([H])([H])[H])C([H])([H])[H])C(C([H])([H])[H])(C([H])([H])[H])C([H])([H])[H])C([H])([H])c2c([H])c(OC([H])([H])C([H])([H])OC([H])([H])C([H])([H])OC(=O)N3C([H])([H])C([H])([H])C([H])([H])C([H])(n4nc(-c5c([H])c([H])c(Oc6c([H])c([H])c(F)c([H])c6F)c([H])c5[H])c(C(=O)N([H])[H])c4N([H])[H])C3([H])[H])c([H])c([H])c2C1([H])[H]

$$$$
88:0:0
     RDKit          3D

103112  0  0  1  0  0  0  0  0999 V2000
  -31.6590  -28.0830   21.1540 C   0  0  0  0  0  3  0  0  0  0  0  0
  -31.5320  -25.7350   21.8290 C   0  0  0  0  0  3  0  0  0  0  0  0
  -32.5030  -27.7270   20.0850 C   0  0  0  0  0  3  0  0  0  0  0  0
  -32.3800  -25.3820   20.7660 C   0  0  0  0  0  3  0  0  0  0  0  0
  -31.0910  -27.0710   21.9540 C   0  0  0  0  0  0  0  0  0  0  0  0
  -32.7760  -26.3650   19.8360 C   0  0  0  0  0  0  0  0  0  0  0  0
  -29.8320  -27.3600   22.7080 C   0  0  0  0  0  0  0  0  0  0  0  0
  -28.7570  -26.6510   22.3260 N   0  0  0  0  0  0  0  0  0  0  0  0
  -29.7970  -28.2060   23.6010 O   0  0  0  0  0  0  0  0  0  0  0  0
  -27.8960  -26.8300   22.8220 H   0  0  0  0  0  0  0  0  0  0  0  0
  -28.7110  -25.6150   21.2790 C   0  0  0  0  0  2  0  0  0  0  0  0
  -27.5070  -25.7700   20.3440 C   0  0  0  0  0  2  0  0  0  0  0  0
  -27.6340  -26.9520   19.5430 O   0  0  0  0  0  0  0  0  0  0  0  0
  -24.6080  -32.0200   23.4260 C   0  0  0  0  0  0  0  0  0  0  0  0
  -26.5530  -27.7820   19.6700 C   0  0  0  0  0  0  0  0  0  0  0  0
  -23.1230  -30.8690   21.8140 C   0  0  0  0  0  3  0  0  0  0  0  0
  -24.2890  -29.4030   20.0860 C   0  0  0  0  0  0  0  0  0  0  0  0
  -25.6250  -31.1030   21.3480 C   0  0  0  0  0  2  0  0  0  0  0  0
  -25.5400  -29.8060   20.5720 C   0  0  0  0  0  0  0  0  0  0  0  0
  -26.6800  -29.0070   20.3520 C   0  0  0  0  0  3  0  0  0  0  0  0
  -25.2910  -27.3850   19.1770 C   0  0  0  0  0  3  0  0  0  0  0  0
  -24.1570  -28.1910   19.3830 C   0  0  0  0  0  3  0  0  0  0  0  0
  -23.1250  -30.3260   20.3580 C   0  0  0  0  0  2  0  0  0  0  0  0
  -24.4760  -31.3390   22.2530 N   0  0  0  0  0  0  0  0  0  0  0  0
  -23.6210  -32.2970   24.1230 O   0  0  0  0  0  0  0  0  0  0  0  0
  -22.5150  -29.7940   22.7440 C   0  0  0  0  0  0  0  0  0  0  0  0
  -21.1970  -29.5660   22.6170 N   0  0  0  0  0  0  0  0  0  0  0  0
  -23.2250  -29.1680   23.5360 O   0  0  0  0  0  0  0  0  0  0  0  0
  -20.6780  -30.1240   21.9520 H   0  0  0  0  0  0  0  0  0  0  0  0
  -17.9200  -28.0880   22.9330 C   0  0  0  0  0  0  0  0  0  0  0  0
  -20.4210  -28.5770   23.3650 C   0  0  0  0  0  3  0  0  0  0  0  0
  -20.6870  -27.1470   22.8410 C   0  0  0  0  0  2  0  0  0  0  0  0
  -19.6890  -26.7060   21.7650 C   0  0  0  0  0  2  0  0  0  0  0  0
  -18.2600  -26.7440   22.3120 C   0  0  0  0  0  2  0  0  0  0  0  0
  -18.9370  -28.9550   23.4130 C   0  0  0  0  0  0  0  0  0  0  0  0
  -18.5700  -30.2090   23.9480 C   0  0  0  0  0  3  0  0  0  0  0  0
  -17.2200  -30.6000   24.0080 C   0  0  0  0  0  3  0  0  0  0  0  0
  -16.2160  -29.7300   23.5480 C   0  0  0  0  0  3  0  0  0  0  0  0
  -16.5670  -28.4750   23.0170 C   0  0  0  0  0  3  0  0  0  0  0  0
  -26.0030  -32.5020   23.9410 C   0  0  0  0  0  3  0  0  0  0  0  0
  -26.5560  -31.6330   25.1350 C   0  0  1  0  0  0  0  0  0  0  0  0
  -25.5420  -31.4370   26.2870 C   0  0  0  0  0  1  0  0  0  0  0  0
  -26.9820  -30.2300   24.6380 C   0  0  0  0  0  1  0  0  0  0  0  0
  -27.8210  -32.3000   25.7230 C   0  0  0  0  0  1  0  0  0  0  0  0
  -25.8640  -33.9080   24.3420 N   0  0  0  0  0  0  0  0  0  0  0  0
  -26.2260  -34.9520   23.5850 C   0  0  0  0  0  0  0  0  0  0  0  0
  -26.7840  -34.8220   22.4910 O   0  0  0  0  0  0  0  0  0  0  0  0
  -25.3670  -34.0840   25.2030 H   0  0  0  0  0  0  0  0  0  0  0  0
  -24.6390  -36.8940   23.4590 C   0  0  0  0  0  1  0  0  0  0  0  0
  -25.9180  -36.3600   24.1230 C   0  0  0  0  0  3  0  0  0  0  0  0
  -28.1970  -37.0300   24.7400 C   0  0  0  0  0  1  0  0  0  0  0  0
  -27.0240  -37.3190   23.9200 N   0  0  0  0  0  0  0  0  0  0  0  0
  -26.7220  -38.2650   24.1340 H   0  0  0  0  0  0  0  0  0  0  0  0
  -33.2400  -25.9350   18.4600 C   0  0  0  0  0  2  0  0  0  0  0  0
  -32.2230  -24.8940   17.9510 C   0  0  0  0  0  2  0  0  0  0  0  0
  -32.4860  -24.2810   16.5700 C   0  0  0  0  0  2  0  0  0  0  0  0
  -31.3120  -23.5890   16.1450 O   0  0  0  0  0  0  0  0  0  0  0  0
  -31.1580  -20.3340   17.8670 C   0  0  0  0  0  3  0  0  0  0  0  0
  -29.2900  -21.7060   18.6110 C   0  0  0  0  0  3  0  0  0  0  0  0
  -31.6030  -21.3740   17.0310 C   0  0  0  0  0  3  0  0  0  0  0  0
  -29.7310  -22.7470   17.7680 C   0  0  0  0  0  3  0  0  0  0  0  0
  -29.9990  -20.4850   18.6690 C   0  0  0  0  0  0  0  0  0  0  0  0
  -30.8940  -22.5870   16.9810 C   0  0  0  0  0  0  0  0  0  0  0  0
  -29.5310  -19.3760   19.5250 C   0  0  0  0  0  3  0  0  0  0  0  0
  -30.3730  -18.4700   19.8760 N   0  0  0  0  0  0  0  0  0  0  0  0
  -30.8670  -16.3010   20.5680 C   0  0  0  0  0  0  0  0  0  0  0  0
  -31.0260  -13.8990   20.1330 C   0  0  0  0  0  2  0  0  0  0  0  0
  -30.2960  -13.5930   18.8100 C   0  0  0  0  0  2  0  0  0  0  0  0
  -28.8080  -13.3070   19.0820 C   0  0  0  0  0  2  0  0  0  0  0  0
  -28.1360  -14.3860   19.9750 C   0  0  0  0  0  3  0  0  0  0  0  0
  -29.0040  -14.7240   21.2120 C   0  0  0  0  0  2  0  0  0  0  0  0
  -30.3550  -15.0560   20.7400 N   0  0  0  0  0  0  0  0  0  0  0  0
  -32.0510  -16.5030   20.2760 O   0  0  0  0  0  0  0  0  0  0  0  0
  -29.9910  -17.3180   20.4910 N   0  0  0  0  0  0  0  0  0  0  0  0
  -29.0050  -17.1680   20.6470 H   0  0  0  0  0  0  0  0  0  0  0  0
  -25.6560  -14.7760   20.5390 C   0  0  0  0  0  0  0  0  0  0  0  0
  -24.6340  -13.9100   20.8190 C   0  0  0  0  0  0  0  0  0  0  0  0
  -25.2060  -12.6020   20.7870 C   0  0  0  0  0  0  0  0  0  0  0  0
  -26.7830  -13.9900   20.3590 N   0  0  0  0  0  0  0  0  0  0  0  0
  -26.5130  -12.6750   20.5650 N   0  0  0  0  0  0  0  0  0  0  0  0
  -24.5750  -11.2800   20.8970 C   0  0  0  0  0  0  0  0  0  0  0  0
  -24.9130  -10.3820   21.9330 C   0  0  0  0  0  3  0  0  0  0  0  0
  -24.2770   -9.1250   22.0270 C   0  0  0  0  0  3  0  0  0  0  0  0
  -23.2900   -8.7570   21.0840 C   0  0  0  0  0  0  0  0  0  0  0  0
  -22.9740   -9.6440   20.0400 C   0  0  0  0  0  3  0  0  0  0  0  0
  -23.6120  -10.8930   19.9440 C   0  0  0  0  0  3  0  0  0  0  0  0
  -22.6390   -7.5460   21.0820 O   0  0  0  0  0  0  0  0  0  0  0  0
  -22.2680   -6.9280   22.2490 C   0  0  0  0  0  0  0  0  0  0  0  0
  -21.4060   -7.5480   23.1800 C   0  0  0  0  0  3  0  0  0  0  0  0
  -20.9940   -6.8500   24.3320 C   0  0  0  0  0  3  0  0  0  0  0  0
  -21.4320   -5.5300   24.5510 C   0  0  0  0  0  0  0  0  0  0  0  0
  -22.2840   -4.9080   23.6210 C   0  0  0  0  0  3  0  0  0  0  0  0
  -22.6980   -5.6040   22.4730 C   0  0  0  0  0  0  0  0  0  0  0  0
  -23.5010   -4.9920   21.5700 F   0  0  0  0  0  0  0  0  0  0  0  0
  -21.0310   -4.8560   25.6550 F   0  0  0  0  0  0  0  0  0  0  0  0
  -23.1870  -14.2660   21.0070 C   0  0  0  0  0  0  0  0  0  0  0  0
  -22.4680  -13.5020   21.8210 N   0  0  0  0  0  0  0  0  0  0  0  0
  -22.6980  -15.2610   20.4720 O   0  0  0  0  0  0  0  0  0  0  0  0
  -22.8730  -12.6960   22.2760 H   0  0  0  0  0  0  0  0  0  0  0  0
  -21.4970  -13.7240   21.9910 H   0  0  0  0  0  0  0  0  0  0  0  0
  -25.7180  -16.1600   20.4040 N   0  0  0  0  0  0  0  0  0  0  0  0
  -24.8910  -16.7420   20.4720 H   0  0  0  0  0  0  0  0  0  0  0  0
  -26.5410  -16.6780   20.1260 H   0  0  0  0  0  0  0  0  0  0  0  0
  1  5  1  0
  2  5  2  0
  3  1  2  0
  4  2  1  0
  5  7  1  0
  6  3  1  0
  6  4  2  0
  7  9  2  0
  8  7  1  0
  8 10  1  0
 11  8  1  0
 12 11  1  0
 13 15  1  0
 13 12  1  0
 14 25  2  0
 15 20  1  0
 16 24  1  0
 16 26  1  0
 17 23  1  0
 17 19  1  0
 18 24  1  0
 19 18  1  0
 20 19  2  0
 21 22  1  0
 21 15  2  0
 22 17  2  0
 23 16  1  0
 24 14  1  0
 26 28  2  0
 27 26  1  0
 29 27  1  0
 30 39  2  0
 30 35  1  0
 31 27  1  0
 31 35  1  0
 32 31  1  0
 33 34  1  0
 33 32  1  0
 34 30  1  0
 35 36  2  0
 36 37  1  0
 38 37  2  0
 39 38  1  0
 40 14  1  0
 40 45  1  0
 40 41  1  0
 41 44  1  1
 41 42  1  0
 43 41  1  0
 45 48  1  0
 46 50  1  0
 46 45  1  0
 47 46  2  0
 50 49  1  0
 52 50  1  0
 52 53  1  0
 52 51  1  0
 54  6  1  0
 55 54  1  0
 56 55  1  0
 57 56  1  0
 57 63  1  0
 58 62  1  0
 59 62  2  0
 60 58  2  0
 61 59  1  0
 62 64  1  0
 63 60  1  0
 63 61  2  0
 64 65  2  0
 65 74  1  0
 66 72  1  0
 67 72  1  0
 68 69  1  0
 68 67  1  0
 70 69  1  0
 70 79  1  0
 70 71  1  0
 72 71  1  0
 73 66  2  0
 74 66  1  0
 74 75  1  0
 76 77  2  0
 77 96  1  0
 78 77  1  0
 78 81  1  0
 79 76  1  0
 79 80  1  0
 80 78  2  0
 81 82  1  0
 82 83  2  0
 84 83  1  0
 85 84  2  0
 86 85  1  0
 86 81  2  0
 87 84  1  0
 87 88  1  0
 88 93  2  0
 88 89  1  0
 89 90  2  0
 90 91  1  0
 91 95  1  0
 92 91  2  0
 93 92  1  0
 94 93  1  0
 96 97  1  0
 97100  1  0
 97 99  1  0
 98 96  2  0
101102  1  0
101 76  1  0
103101  1  0
M  ISO  4  12 101  13 101  66 100  74 100
M  END
>  <TORSDO>  (85) 
F 25

>  <SCORE>  (85) 
-10.023

>  <name>  (85) 
88

>  <ligand_id>  (85) 
88

>  <original_smiles>  (85) 
[H]C(=NN([H])C(=O)N1C([H])([H])C([H])([H])C([H])([H])C([H])(n2nc(-c3c([H])c([H])c(Oc4c([H])c([H])c(F)c([H])c4F)c([H])c3[H])c(C(=O)N([H])[H])c2N([H])[H])C1([H])[H])c1c([H])c([H])c(OC([H])([H])C([H])([H])C([H])([H])c2c([H])c([H])c(C(=O)N([H])C([H])([H])C([H])([H])Oc3c([H])c([H])c4c(c3[H])C([H])([H])N(C(=O)C([H])(N([H])C(=O)C([H])(N([H])C([H])([H])[H])C([H])([H])[H])C(C([H])([H])[H])(C([H])([H])[H])C([H])([H])[H])C([H])(C(=O)N([H])C3([H])c5c([H])c([H])c([H])c([H])c5C([H])([H])C([H])([H])C3([H])[H])C4([H])[H])c([H])c2[H])c([H])c1[H]

>  <smiles>  (85) 
[H]C(=NN([H])C(=O)N1C([H])([H])C([H])([H])C([H])([H])C([H])(n2nc(-c3c([H])c([H])c(Oc4c([H])c([H])c(F)c([H])c4F)c([H])c3[H])c(C(=O)N([H])[H])c2N([H])[H])C1([H])[H])c1c([H])c([H])c(OC([H])([H])C([H])([H])C([H])([H])c2c([H])c([H])c(C(=O)N([H])C([H])([H])C([H])([H])Oc3c([H])c([H])c4c(c3[H])C([H])([H])N(C(=O)C([H])(N([H])C(=O)C([H])(N([H])C([H])([H])[H])C([H])([H])[H])C(C([H])([H])[H])(C([H])([H])[H])C([H])([H])[H])C([H])(C(=O)N([H])C3([H])c5c([H])c([H])c([H])c([H])c5C([H])([H])C([H])([H])C3([H])[H])C4([H])[H])c([H])c2[H])c([H])c1[H]

$$$$
89:0:0
     RDKit          3D

104112  0  0  1  0  0  0  0  0999 V2000
  -31.4280  -22.1200   15.8310 C   0  0  0  0  0  2  0  0  0  0  0  0
  -32.3150  -23.1870   16.1510 O   0  0  0  0  0  0  0  0  0  0  0  0
  -31.9310  -24.4500   15.6190 C   0  0  0  0  0  2  0  0  0  0  0  0
  -33.1150  -25.4160   15.7860 C   0  0  0  0  0  2  0  0  0  0  0  0
  -33.3890  -25.7310   17.1510 O   0  0  0  0  0  0  0  0  0  0  0  0
  -32.7060  -26.8600   17.6950 C   0  0  0  0  0  2  0  0  0  0  0  0
  -31.4020  -26.4910   18.4290 C   0  0  0  0  0  2  0  0  0  0  0  0
  -31.6450  -25.7480   19.6180 O   0  0  0  0  0  0  0  0  0  0  0  0
  -31.8010  -24.3520   19.4050 C   0  0  0  0  0  2  0  0  0  0  0  0
  -32.0220  -23.6470   20.7430 C   0  0  0  0  0  2  0  0  0  0  0  0
  -32.3080  -22.2710   20.5300 O   0  0  0  0  0  0  0  0  0  0  0  0
  -31.1580  -21.4400   20.6090 C   0  0  0  0  0  2  0  0  0  0  0  0
  -31.5420  -19.9970   20.2520 C   0  0  0  0  0  2  0  0  0  0  0  0
  -30.8390  -19.0890   21.0910 O   0  0  0  0  0  0  0  0  0  0  0  0
  -30.8780  -17.7550   20.6050 C   0  0  0  0  0  2  0  0  0  0  0  0
  -30.6300  -16.7670   21.7620 C   0  0  0  0  0  2  0  0  0  0  0  0
  -30.0650  -15.5290   21.3490 O   0  0  0  0  0  0  0  0  0  0  0  0
  -30.7500  -14.6700   20.5690 C   0  0  0  0  0  0  0  0  0  0  0  0
  -30.4620  -12.4820   19.4210 C   0  0  0  0  0  2  0  0  0  0  0  0
  -29.5480  -12.6440   18.1930 C   0  0  0  0  0  2  0  0  0  0  0  0
  -28.0650  -12.5090   18.5930 C   0  0  0  0  0  2  0  0  0  0  0  0
  -27.6860  -13.3960   19.8090 C   0  0  0  0  0  3  0  0  0  0  0  0
  -28.7020  -13.2160   20.9550 C   0  0  0  0  0  2  0  0  0  0  0  0
  -30.0440  -13.4730   20.4130 N   0  0  0  0  0  0  0  0  0  0  0  0
  -31.8310  -14.9320   20.0400 O   0  0  0  0  0  0  0  0  0  0  0  0
  -25.2730  -14.0110   20.4640 C   0  0  0  0  0  0  0  0  0  0  0  0
  -24.1990  -13.2410   20.8180 C   0  0  0  0  0  0  0  0  0  0  0  0
  -24.6610  -11.8890   20.8070 C   0  0  0  0  0  0  0  0  0  0  0  0
  -26.3220  -13.1290   20.2610 N   0  0  0  0  0  0  0  0  0  0  0  0
  -25.9550  -11.8480   20.5210 N   0  0  0  0  0  0  0  0  0  0  0  0
  -23.9340  -10.6270   20.9930 C   0  0  0  0  0  0  0  0  0  0  0  0
  -24.3500   -9.6690   21.9450 C   0  0  0  0  0  3  0  0  0  0  0  0
  -23.6250   -8.4720   22.1190 C   0  0  0  0  0  3  0  0  0  0  0  0
  -22.4700   -8.2210   21.3390 C   0  0  0  0  0  0  0  0  0  0  0  0
  -22.0740   -9.1670   20.3770 C   0  0  0  0  0  3  0  0  0  0  0  0
  -22.8000  -10.3570   20.2030 C   0  0  0  0  0  3  0  0  0  0  0  0
  -21.7190   -7.0740   21.4210 O   0  0  0  0  0  0  0  0  0  0  0  0
  -21.6400   -6.3450   22.5800 C   0  0  0  0  0  0  0  0  0  0  0  0
  -21.1850   -6.9150   23.7890 C   0  0  0  0  0  3  0  0  0  0  0  0
  -21.0560   -6.1120   24.9400 C   0  0  0  0  0  3  0  0  0  0  0  0
  -21.3700   -4.7410   24.8820 C   0  0  0  0  0  0  0  0  0  0  0  0
  -21.8170   -4.1710   23.6780 C   0  0  0  0  0  3  0  0  0  0  0  0
  -21.9490   -4.9710   22.5290 C   0  0  0  0  0  0  0  0  0  0  0  0
  -22.3620   -4.4130   21.3660 F   0  0  0  0  0  0  0  0  0  0  0  0
  -21.2370   -3.9680   25.9850 F   0  0  0  0  0  0  0  0  0  0  0  0
  -22.7960  -13.7170   21.0640 C   0  0  0  0  0  0  0  0  0  0  0  0
  -22.0540  -13.0250   21.9200 N   0  0  0  0  0  0  0  0  0  0  0  0
  -22.3660  -14.7400   20.5300 O   0  0  0  0  0  0  0  0  0  0  0  0
  -22.4140  -12.1970   22.3730 H   0  0  0  0  0  0  0  0  0  0  0  0
  -21.1120  -13.3260   22.1270 H   0  0  0  0  0  0  0  0  0  0  0  0
  -25.4410  -15.3820   20.2810 N   0  0  0  0  0  0  0  0  0  0  0  0
  -24.6790  -16.0420   20.3790 H   0  0  0  0  0  0  0  0  0  0  0  0
  -26.3080  -15.8160   19.9890 H   0  0  0  0  0  0  0  0  0  0  0  0
  -30.2960  -21.9470   16.8610 C   0  0  0  0  0  2  0  0  0  0  0  0
  -29.2510  -22.8820   16.6190 O   0  0  0  0  0  0  0  0  0  0  0  0
  -28.0460  -22.5560   17.3040 C   0  0  0  0  0  2  0  0  0  0  0  0
  -27.9210  -22.0250   21.1050 C   0  0  0  0  0  3  0  0  0  0  0  0
  -28.1100  -23.3420   21.5710 C   0  0  0  0  0  3  0  0  0  0  0  0
  -27.9140  -21.7600   19.7210 C   0  0  0  0  0  3  0  0  0  0  0  0
  -28.3330  -24.1180   19.2730 C   0  0  0  0  0  3  0  0  0  0  0  0
  -28.3160  -24.3950   20.6560 C   0  0  0  0  0  0  0  0  0  0  0  0
  -28.1140  -22.8100   18.8000 C   0  0  0  0  0  0  0  0  0  0  0  0
  -28.5440  -25.8070   21.1700 C   0  0  0  0  0  2  0  0  0  0  0  0
  -28.4440  -26.7980   20.1490 O   0  0  0  0  0  0  0  0  0  0  0  0
  -24.5880  -31.8850   23.2150 C   0  0  0  0  0  0  0  0  0  0  0  0
  -27.2600  -27.4860   20.1500 C   0  0  0  0  0  0  0  0  0  0  0  0
  -23.3870  -30.4800   21.5670 C   0  0  0  0  0  3  0  0  0  0  0  0
  -24.8510  -28.9470   20.1450 C   0  0  0  0  0  0  0  0  0  0  0  0
  -25.9070  -30.8580   21.3730 C   0  0  0  0  0  2  0  0  0  0  0  0
  -26.0000  -29.4880   20.7380 C   0  0  0  0  0  0  0  0  0  0  0  0
  -27.2070  -28.7640   20.7400 C   0  0  0  0  0  3  0  0  0  0  0  0
  -26.1000  -26.9410   19.5610 C   0  0  0  0  0  3  0  0  0  0  0  0
  -24.8950  -27.6720   19.5540 C   0  0  0  0  0  3  0  0  0  0  0  0
  -23.6010  -29.7960   20.1890 C   0  0  0  0  0  2  0  0  0  0  0  0
  -24.6450  -31.0880   22.1110 N   0  0  0  0  0  0  0  0  0  0  0  0
  -23.5060  -32.1530   23.7550 O   0  0  0  0  0  0  0  0  0  0  0  0
  -22.7390  -29.4570   22.5270 C   0  0  0  0  0  0  0  0  0  0  0  0
  -21.4170  -29.2670   22.3910 N   0  0  0  0  0  0  0  0  0  0  0  0
  -23.4220  -28.8360   23.3470 O   0  0  0  0  0  0  0  0  0  0  0  0
  -20.9290  -29.8190   21.6990 H   0  0  0  0  0  0  0  0  0  0  0  0
  -18.0480  -28.0490   22.8490 C   0  0  0  0  0  0  0  0  0  0  0  0
  -20.5990  -28.3290   23.1560 C   0  0  0  0  0  3  0  0  0  0  0  0
  -20.7230  -26.8940   22.5940 C   0  0  0  0  0  2  0  0  0  0  0  0
  -19.6380  -26.5550   21.5660 C   0  0  0  0  0  2  0  0  0  0  0  0
  -18.2460  -26.6940   22.1880 C   0  0  0  0  0  2  0  0  0  0  0  0
  -19.1540  -28.8230   23.2900 C   0  0  0  0  0  0  0  0  0  0  0  0
  -18.9180  -30.0900   23.8650 C   0  0  0  0  0  3  0  0  0  0  0  0
  -17.6070  -30.5830   24.0060 C   0  0  0  0  0  3  0  0  0  0  0  0
  -16.5150  -29.8070   23.5820 C   0  0  0  0  0  3  0  0  0  0  0  0
  -16.7370  -28.5420   23.0080 C   0  0  0  0  0  3  0  0  0  0  0  0
  -25.8750  -32.5150   23.8360 C   0  0  0  0  0  3  0  0  0  0  0  0
  -26.3950  -31.7400   25.1090 C   0  0  1  0  0  0  0  0  0  0  0  0
  -25.3060  -31.4980   26.1780 C   0  0  0  0  0  1  0  0  0  0  0  0
  -26.9800  -30.3640   24.7100 C   0  0  0  0  0  1  0  0  0  0  0  0
  -27.5430  -32.5350   25.7750 C   0  0  0  0  0  1  0  0  0  0  0  0
  -25.5650  -33.9120   24.1650 N   0  0  0  0  0  0  0  0  0  0  0  0
  -25.9030  -34.9640   23.4090 C   0  0  0  0  0  0  0  0  0  0  0  0
  -26.5830  -34.8630   22.3840 O   0  0  0  0  0  0  0  0  0  0  0  0
  -24.9630  -34.0650   24.9610 H   0  0  0  0  0  0  0  0  0  0  0  0
  -24.1810  -36.7600   23.0350 C   0  0  0  0  0  1  0  0  0  0  0  0
  -25.4100  -36.3510   23.8640 C   0  0  0  0  0  3  0  0  0  0  0  0
  -27.5340  -37.2320   24.7260 C   0  0  0  0  0  1  0  0  0  0  0  0
  -26.4440  -37.4030   23.7690 N   0  0  0  0  0  0  0  0  0  0  0  0
  -26.0360  -38.3230   23.9150 H   0  0  0  0  0  0  0  0  0  0  0  0
  1  2  1  0
  1 54  1  0
  3  4  1  0
  3  2  1  0
  4  5  1  0
  5  6  1  0
  6  7  1  0
  7  8  1  0
  9  8  1  0
  9 10  1  0
 11 12  1  0
 11 10  1  0
 13 12  1  0
 13 14  1  0
 15 14  1  0
 15 16  1  0
 17 16  1  0
 18 17  1  0
 19 24  1  0
 20 21  1  0
 20 19  1  0
 22 21  1  0
 22 29  1  0
 22 23  1  0
 24 18  1  0
 24 23  1  0
 25 18  2  0
 26 27  2  0
 27 46  1  0
 28 27  1  0
 28 31  1  0
 29 26  1  0
 29 30  1  0
 30 28  2  0
 31 32  1  0
 32 33  2  0
 34 37  1  0
 34 33  1  0
 35 34  2  0
 36 35  1  0
 36 31  2  0
 37 38  1  0
 38 39  1  0
 39 40  2  0
 41 40  1  0
 41 45  1  0
 42 41  2  0
 43 38  2  0
 43 42  1  0
 44 43  1  0
 46 47  1  0
 47 50  1  0
 47 49  1  0
 48 46  2  0
 51 52  1  0
 51 26  1  0
 53 51  1  0
 55 54  1  0
 55 56  1  0
 56 62  1  0
 57 58  1  0
 59 57  2  0
 60 61  1  0
 61 63  1  0
 61 58  2  0
 62 60  2  0
 62 59  1  0
 64 66  1  0
 64 63  1  0
 65 76  2  0
 66 71  1  0
 67 75  1  0
 67 77  1  0
 68 74  1  0
 68 70  1  0
 69 75  1  0
 70 71  2  0
 70 69  1  0
 72 66  2  0
 73 72  1  0
 73 68  2  0
 74 67  1  0
 75 65  1  0
 77 79  2  0
 78 77  1  0
 80 78  1  0
 81 90  2  0
 81 86  1  0
 82 78  1  0
 82 86  1  0
 83 82  1  0
 84 85  1  0
 84 83  1  0
 85 81  1  0
 86 87  2  0
 87 88  1  0
 89 88  2  0
 90 89  1  0
 91 65  1  0
 91 96  1  0
 91 92  1  0
 92 95  1  1
 92 93  1  0
 94 92  1  0
 96 99  1  0
 97101  1  0
 97 96  1  0
 98 97  2  0
101100  1  0
103101  1  0
103104  1  0
103102  1  0
M  ISO  4  17 100  18 100  63 101  64 101
M  END
>  <TORSDO>  (86) 
F 37

>  <SCORE>  (86) 
-9.638

>  <name>  (86) 
89

>  <ligand_id>  (86) 
89

>  <original_smiles>  (86) 
[H]c1c([H])c(C([H])([H])Oc2c([H])c([H])c3c(c2[H])C([H])([H])N(C(=O)C([H])(N([H])C(=O)C([H])(N([H])C([H])([H])[H])C([H])([H])[H])C(C([H])([H])[H])(C([H])([H])[H])C([H])([H])[H])C([H])(C(=O)N([H])C2([H])c4c([H])c([H])c([H])c([H])c4C([H])([H])C([H])([H])C2([H])[H])C3([H])[H])c([H])c(C([H])([H])OC([H])([H])C([H])([H])OC([H])([H])C([H])([H])OC([H])([H])C([H])([H])OC([H])([H])C([H])([H])OC([H])([H])C([H])([H])OC([H])([H])C([H])([H])OC(=O)N2C([H])([H])C([H])([H])C([H])([H])C([H])(n3nc(-c4c([H])c([H])c(Oc5c([H])c([H])c(F)c([H])c5F)c([H])c4[H])c(C(=O)N([H])[H])c3N([H])[H])C2([H])[H])c1[H]

>  <smiles>  (86) 
[H]c1c([H])c(C([H])([H])Oc2c([H])c([H])c3c(c2[H])C([H])([H])N(C(=O)C([H])(N([H])C(=O)C([H])(N([H])C([H])([H])[H])C([H])([H])[H])C(C([H])([H])[H])(C([H])([H])[H])C([H])([H])[H])C([H])(C(=O)N([H])C2([H])c4c([H])c([H])c([H])c([H])c4C([H])([H])C([H])([H])C2([H])[H])C3([H])[H])c([H])c(C([H])([H])OC([H])([H])C([H])([H])OC([H])([H])C([H])([H])OC([H])([H])C([H])([H])OC([H])([H])C([H])([H])OC([H])([H])C([H])([H])OC([H])([H])C([H])([H])OC(=O)N2C([H])([H])C([H])([H])C([H])([H])C([H])(n3nc(-c4c([H])c([H])c(Oc5c([H])c([H])c(F)c([H])c5F)c([H])c4[H])c(C(=O)N([H])[H])c3N([H])[H])C2([H])[H])c1[H]

$$$$
90:0:0
     RDKit          3D

102110  0  0  1  0  0  0  0  0999 V2000
  -22.2230  -23.6100   22.2290 C   0  0  0  0  0  2  0  0  0  0  0  0
  -23.5650  -23.5650   21.7510 O   0  0  0  0  0  0  0  0  0  0  0  0
  -24.5020  -24.0450   22.7100 C   0  0  0  0  0  2  0  0  0  0  0  0
  -25.9420  -23.6960   22.2910 C   0  0  0  0  0  2  0  0  0  0  0  0
  -26.4830  -24.4390   19.9020 C   0  0  0  0  0  3  0  0  0  0  0  0
  -27.0490  -25.6000   19.4560 C   0  0  0  0  0  0  0  0  0  0  0  0
  -27.4190  -26.3600   20.5720 N   0  0  0  0  0  0  0  0  0  0  0  0
  -27.0480  -25.7520   21.6520 N   0  0  0  0  0  0  0  0  0  0  0  0
  -26.4670  -24.5880   21.2750 N   0  0  0  0  0  0  0  0  0  0  0  0
  -27.2750  -26.0770   18.0410 C   0  0  0  0  0  2  0  0  0  0  0  0
  -27.3800  -27.5010   17.9400 O   0  0  0  0  0  0  0  0  0  0  0  0
  -25.1510  -31.5400   23.3330 C   0  0  0  0  0  0  0  0  0  0  0  0
  -26.3410  -28.2580   18.4390 C   0  0  0  0  0  0  0  0  0  0  0  0
  -23.4180  -30.9100   21.6820 C   0  0  0  0  0  3  0  0  0  0  0  0
  -24.2740  -29.8450   19.5310 C   0  0  0  0  0  0  0  0  0  0  0  0
  -25.8740  -31.0970   20.9910 C   0  0  0  0  0  2  0  0  0  0  0  0
  -25.5980  -30.0370   19.9460 C   0  0  0  0  0  0  0  0  0  0  0  0
  -26.6330  -29.2540   19.3960 C   0  0  0  0  0  3  0  0  0  0  0  0
  -24.9980  -28.0700   18.0340 C   0  0  0  0  0  3  0  0  0  0  0  0
  -23.9680  -28.8590   18.5770 C   0  0  0  0  0  3  0  0  0  0  0  0
  -23.2230  -30.7360   20.1530 C   0  0  0  0  0  2  0  0  0  0  0  0
  -24.8460  -31.1740   22.0550 N   0  0  0  0  0  0  0  0  0  0  0  0
  -24.2630  -31.7020   24.1810 O   0  0  0  0  0  0  0  0  0  0  0  0
  -22.8160  -29.6800   22.3970 C   0  0  0  0  0  0  0  0  0  0  0  0
  -21.4800  -29.5580   22.3510 N   0  0  0  0  0  0  0  0  0  0  0  0
  -23.5440  -28.8510   22.9510 O   0  0  0  0  0  0  0  0  0  0  0  0
  -20.9530  -30.2810   21.8820 H   0  0  0  0  0  0  0  0  0  0  0  0
  -18.1520  -28.1780   22.5840 C   0  0  0  0  0  0  0  0  0  0  0  0
  -20.6980  -28.4640   22.9240 C   0  0  0  0  0  3  0  0  0  0  0  0
  -20.8530  -27.1720   22.0890 C   0  0  0  0  0  2  0  0  0  0  0  0
  -19.7680  -27.0080   21.0220 C   0  0  0  0  0  2  0  0  0  0  0  0
  -18.3780  -26.9860   21.6670 C   0  0  0  0  0  2  0  0  0  0  0  0
  -19.2420  -28.8800   23.1620 C   0  0  0  0  0  0  0  0  0  0  0  0
  -18.9790  -30.0010   23.9780 C   0  0  0  0  0  3  0  0  0  0  0  0
  -17.6580  -30.4190   24.2230 C   0  0  0  0  0  3  0  0  0  0  0  0
  -16.5820  -29.7090   23.6630 C   0  0  0  0  0  3  0  0  0  0  0  0
  -16.8300  -28.5910   22.8470 C   0  0  0  0  0  3  0  0  0  0  0  0
  -26.6230  -31.8000   23.7790 C   0  0  0  0  0  3  0  0  0  0  0  0
  -26.6420  -33.0630   24.5270 N   0  0  0  0  0  0  0  0  0  0  0  0
  -27.0480  -34.2380   24.0270 C   0  0  0  0  0  0  0  0  0  0  0  0
  -27.5220  -34.3550   22.8930 O   0  0  0  0  0  0  0  0  0  0  0  0
  -26.2180  -33.0530   25.4440 H   0  0  0  0  0  0  0  0  0  0  0  0
  -25.6620  -36.2780   24.5110 C   0  0  0  0  0  1  0  0  0  0  0  0
  -26.9070  -35.4800   24.9260 C   0  0  0  0  0  3  0  0  0  0  0  0
  -29.2700  -35.7620   25.5310 C   0  0  0  0  0  1  0  0  0  0  0  0
  -28.0950  -36.3610   24.9040 N   0  0  0  0  0  0  0  0  0  0  0  0
  -27.8990  -37.2400   25.3770 H   0  0  0  0  0  0  0  0  0  0  0  0
  -27.2240  -30.6280   24.6500 C   0  0  1  0  0  0  0  0  0  0  0  0
  -26.3350  -30.2210   25.8470 C   0  0  0  0  0  1  0  0  0  0  0  0
  -27.4520  -29.3680   23.7810 C   0  0  0  0  0  1  0  0  0  0  0  0
  -28.6090  -31.0410   25.2020 C   0  0  0  0  0  1  0  0  0  0  0  0
  -21.2600  -23.1050   21.1460 C   0  0  0  0  0  2  0  0  0  0  0  0
  -21.0990  -24.0880   20.1310 O   0  0  0  0  0  0  0  0  0  0  0  0
  -20.3890  -23.6030   18.9960 C   0  0  0  0  0  2  0  0  0  0  0  0
  -21.2700  -23.7850   17.7560 C   0  0  0  0  0  2  0  0  0  0  0  0
  -22.4710  -23.0490   17.9480 O   0  0  0  0  0  0  0  0  0  0  0  0
  -23.3710  -23.1320   16.8520 C   0  0  0  0  0  2  0  0  0  0  0  0
  -24.7810  -22.7970   17.3540 C   0  0  0  0  0  2  0  0  0  0  0  0
  -24.9900  -21.3110   17.6790 C   0  0  0  0  0  2  0  0  0  0  0  0
  -26.1700  -21.1710   18.4590 O   0  0  0  0  0  0  0  0  0  0  0  0
  -26.5970  -19.8190   18.5920 C   0  0  0  0  0  2  0  0  0  0  0  0
  -27.4440  -19.6760   19.8660 C   0  0  0  0  0  2  0  0  0  0  0  0
  -28.2980  -18.5390   19.7770 O   0  0  0  0  0  0  0  0  0  0  0  0
  -29.0190  -18.3070   20.9840 C   0  0  0  0  0  2  0  0  0  0  0  0
  -30.2100  -17.3800   20.7190 C   0  0  0  0  0  2  0  0  0  0  0  0
  -29.7850  -16.0240   20.6660 O   0  0  0  0  0  0  0  0  0  0  0  0
  -30.4990  -15.1340   19.9550 C   0  0  0  0  0  0  0  0  0  0  0  0
  -30.3320  -12.8320   19.0330 C   0  0  0  0  0  2  0  0  0  0  0  0
  -29.3310  -12.8210   17.8630 C   0  0  0  0  0  2  0  0  0  0  0  0
  -27.8950  -12.6010   18.3770 C   0  0  0  0  0  2  0  0  0  0  0  0
  -27.5220  -13.5510   19.5460 C   0  0  0  0  0  3  0  0  0  0  0  0
  -28.6230  -13.5540   20.6280 C   0  0  0  0  0  2  0  0  0  0  0  0
  -29.9010  -13.8690   19.9720 N   0  0  0  0  0  0  0  0  0  0  0  0
  -31.5190  -15.4280   19.3270 O   0  0  0  0  0  0  0  0  0  0  0  0
  -25.1760  -14.0490   20.4860 C   0  0  0  0  0  0  0  0  0  0  0  0
  -24.1610  -13.2260   20.8930 C   0  0  0  0  0  0  0  0  0  0  0  0
  -24.6480  -11.8920   20.7360 C   0  0  0  0  0  0  0  0  0  0  0  0
  -26.2170  -13.2130   20.1140 N   0  0  0  0  0  0  0  0  0  0  0  0
  -25.9070  -11.9080   20.3190 N   0  0  0  0  0  0  0  0  0  0  0  0
  -23.9720  -10.5990   20.9070 C   0  0  0  0  0  0  0  0  0  0  0  0
  -24.4460   -9.6330   21.8210 C   0  0  0  0  0  3  0  0  0  0  0  0
  -23.7680   -8.4060   21.9800 C   0  0  0  0  0  3  0  0  0  0  0  0
  -22.6020   -8.1350   21.2240 C   0  0  0  0  0  0  0  0  0  0  0  0
  -22.1500   -9.0910   20.2980 C   0  0  0  0  0  3  0  0  0  0  0  0
  -22.8280  -10.3100   20.1380 C   0  0  0  0  0  3  0  0  0  0  0  0
  -21.8940   -6.9590   21.2930 O   0  0  0  0  0  0  0  0  0  0  0  0
  -21.7970   -6.2450   22.4600 C   0  0  0  0  0  0  0  0  0  0  0  0
  -21.2580   -6.8100   23.6360 C   0  0  0  0  0  3  0  0  0  0  0  0
  -21.1110   -6.0190   24.7930 C   0  0  0  0  0  3  0  0  0  0  0  0
  -21.4930   -4.6640   24.7750 C   0  0  0  0  0  0  0  0  0  0  0  0
  -22.0230   -4.0980   23.6020 C   0  0  0  0  0  3  0  0  0  0  0  0
  -22.1720   -4.8860   22.4470 C   0  0  0  0  0  0  0  0  0  0  0  0
  -22.6640   -4.3310   21.3130 F   0  0  0  0  0  0  0  0  0  0  0  0
  -21.3450   -3.9010   25.8830 F   0  0  0  0  0  0  0  0  0  0  0  0
  -22.7810  -13.6440   21.3110 C   0  0  0  0  0  0  0  0  0  0  0  0
  -22.1490  -12.8790   22.1950 N   0  0  0  0  0  0  0  0  0  0  0  0
  -22.2720  -14.6830   20.8910 O   0  0  0  0  0  0  0  0  0  0  0  0
  -22.5740  -12.0380   22.5590 H   0  0  0  0  0  0  0  0  0  0  0  0
  -21.2270  -13.1380   22.5160 H   0  0  0  0  0  0  0  0  0  0  0  0
  -25.3000  -15.4320   20.3830 N   0  0  0  0  0  0  0  0  0  0  0  0
  -24.5440  -16.0680   20.6060 H   0  0  0  0  0  0  0  0  0  0  0  0
  -26.1360  -15.9030   20.0610 H   0  0  0  0  0  0  0  0  0  0  0  0
  2  1  1  0
  2  3  1  0
  4  3  1  0
  5  9  1  0
  6  5  2  0
  6  7  1  0
  7  8  2  0
  9  8  1  0
  9  4  1  0
 10  6  1  0
 11 10  1  0
 11 13  1  0
 12 23  2  0
 13 18  1  0
 14 22  1  0
 14 24  1  0
 15 17  1  0
 15 21  1  0
 16 22  1  0
 17 16  1  0
 18 17  2  0
 19 13  2  0
 19 20  1  0
 20 15  2  0
 21 14  1  0
 22 12  1  0
 24 26  2  0
 25 24  1  0
 27 25  1  0
 28 37  2  0
 28 33  1  0
 29 25  1  0
 29 33  1  0
 30 29  1  0
 31 32  1  0
 31 30  1  0
 32 28  1  0
 33 34  2  0
 34 35  1  0
 36 35  2  0
 37 36  1  0
 38 12  1  0
 38 39  1  0
 38 48  1  0
 39 42  1  0
 40 39  1  0
 40 44  1  0
 41 40  2  0
 44 43  1  0
 46 44  1  0
 46 47  1  0
 46 45  1  0
 48 51  1  1
 48 49  1  0
 50 48  1  0
 52  1  1  0
 53 52  1  0
 54 53  1  0
 55 56  1  0
 55 54  1  0
 57 58  1  0
 57 56  1  0
 58 59  1  0
 59 60  1  0
 60 61  1  0
 61 62  1  0
 63 62  1  0
 63 64  1  0
 65 64  1  0
 66 65  1  0
 67 73  1  0
 67 66  1  0
 68 73  1  0
 69 70  1  0
 69 68  1  0
 71 70  1  0
 71 78  1  0
 71 72  1  0
 73 72  1  0
 74 67  2  0
 75 76  2  0
 76 95  1  0
 77 76  1  0
 77 80  1  0
 78 79  1  0
 78 75  1  0
 79 77  2  0
 80 81  1  0
 81 82  2  0
 83 86  1  0
 83 82  1  0
 84 83  2  0
 85 84  1  0
 85 80  2  0
 86 87  1  0
 87 88  1  0
 88 89  2  0
 90 89  1  0
 90 94  1  0
 91 90  2  0
 92 87  2  0
 92 91  1  0
 93 92  1  0
 95 96  1  0
 96 99  1  0
 96 98  1  0
 97 95  2  0
100 75  1  0
100101  1  0
102100  1  0
M  ISO  4  10 101  11 101  66 100  67 100
M  END
>  <TORSDO>  (87) 
F 36

>  <SCORE>  (87) 
-6.944

>  <name>  (87) 
90

>  <ligand_id>  (87) 
90

>  <original_smiles>  (87) 
[H]c1c([H])c([H])c2c(c1[H])C([H])([H])C([H])([H])C([H])([H])C2([H])N([H])C(=O)C1([H])N(C(=O)C([H])(N([H])C(=O)C([H])(N([H])C([H])([H])[H])C([H])([H])[H])C(C([H])([H])[H])(C([H])([H])[H])C([H])([H])[H])C([H])([H])c2c([H])c(OC([H])([H])c3nnn(C([H])([H])C([H])([H])OC([H])([H])C([H])([H])OC([H])([H])C([H])([H])OC([H])([H])C([H])([H])C([H])([H])OC([H])([H])C([H])([H])OC([H])([H])C([H])([H])OC(=O)N4C([H])([H])C([H])([H])C([H])([H])C([H])(n5nc(-c6c([H])c([H])c(Oc7c([H])c([H])c(F)c([H])c7F)c([H])c6[H])c(C(=O)N([H])[H])c5N([H])[H])C4([H])[H])c3[H])c([H])c([H])c2C1([H])[H]

>  <smiles>  (87) 
[H]c1c([H])c([H])c2c(c1[H])C([H])([H])C([H])([H])C([H])([H])C2([H])N([H])C(=O)C1([H])N(C(=O)C([H])(N([H])C(=O)C([H])(N([H])C([H])([H])[H])C([H])([H])[H])C(C([H])([H])[H])(C([H])([H])[H])C([H])([H])[H])C([H])([H])c2c([H])c(OC([H])([H])c3nnn(C([H])([H])C([H])([H])OC([H])([H])C([H])([H])OC([H])([H])C([H])([H])OC([H])([H])C([H])([H])C([H])([H])OC([H])([H])C([H])([H])OC([H])([H])C([H])([H])OC(=O)N4C([H])([H])C([H])([H])C([H])([H])C([H])(n5nc(-c6c([H])c([H])c(Oc7c([H])c([H])c(F)c([H])c7F)c([H])c6[H])c(C(=O)N([H])[H])c5N([H])[H])C4([H])[H])c3[H])c([H])c([H])c2C1([H])[H]

$$$$
91:0:0
     RDKit          3D

 88 95  0  0  1  0  0  0  0  0999 V2000
  -29.0170  -23.0530   20.9640 C   0  0  0  0  0  2  0  0  0  0  0  0
  -29.3980  -24.5240   20.7150 C   0  0  0  0  0  2  0  0  0  0  0  0
  -28.2030  -25.2890   20.1230 C   0  0  0  0  0  2  0  0  0  0  0  0
  -28.3680  -26.7120   20.1370 O   0  0  0  0  0  0  0  0  0  0  0  0
  -24.5830  -31.8810   23.2160 C   0  0  0  0  0  0  0  0  0  0  0  0
  -27.1960  -27.4420   20.1100 C   0  0  0  0  0  0  0  0  0  0  0  0
  -23.3590  -30.4760   21.5890 C   0  0  0  0  0  3  0  0  0  0  0  0
  -24.7970  -28.9440   20.1470 C   0  0  0  0  0  0  0  0  0  0  0  0
  -25.8820  -30.8360   21.3640 C   0  0  0  0  0  2  0  0  0  0  0  0
  -25.9610  -29.4680   20.7210 C   0  0  0  0  0  0  0  0  0  0  0  0
  -27.1640  -28.7250   20.6980 C   0  0  0  0  0  3  0  0  0  0  0  0
  -26.0100  -26.9360   19.5230 C   0  0  0  0  0  3  0  0  0  0  0  0
  -24.8160  -27.6760   19.5440 C   0  0  0  0  0  3  0  0  0  0  0  0
  -23.5530  -29.8010   20.2070 C   0  0  0  0  0  2  0  0  0  0  0  0
  -24.6270  -31.0790   22.1140 N   0  0  0  0  0  0  0  0  0  0  0  0
  -23.5090  -32.1550   23.7670 O   0  0  0  0  0  0  0  0  0  0  0  0
  -22.7220  -29.4530   22.5580 C   0  0  0  0  0  0  0  0  0  0  0  0
  -21.3950  -29.2700   22.4470 N   0  0  0  0  0  0  0  0  0  0  0  0
  -23.4150  -28.8290   23.3650 O   0  0  0  0  0  0  0  0  0  0  0  0
  -20.8970  -29.8290   21.7700 H   0  0  0  0  0  0  0  0  0  0  0  0
  -18.0290  -28.0680   22.9730 C   0  0  0  0  0  0  0  0  0  0  0  0
  -20.5870  -28.3340   23.2300 C   0  0  0  0  0  3  0  0  0  0  0  0
  -20.6900  -26.8990   22.6620 C   0  0  0  0  0  2  0  0  0  0  0  0
  -19.5820  -26.5680   21.6570 C   0  0  0  0  0  2  0  0  0  0  0  0
  -18.2040  -26.7140   22.3080 C   0  0  0  0  0  2  0  0  0  0  0  0
  -19.1470  -28.8350   23.3920 C   0  0  0  0  0  0  0  0  0  0  0  0
  -18.9300  -30.1030   23.9750 C   0  0  0  0  0  3  0  0  0  0  0  0
  -17.6260  -30.6020   24.1460 C   0  0  0  0  0  3  0  0  0  0  0  0
  -16.5200  -29.8310   23.7460 C   0  0  0  0  0  3  0  0  0  0  0  0
  -16.7230  -28.5680   23.1620 C   0  0  0  0  0  3  0  0  0  0  0  0
  -25.8760  -32.5140   23.8200 C   0  0  0  0  0  3  0  0  0  0  0  0
  -26.4190  -31.7350   25.0820 C   0  0  1  0  0  0  0  0  0  0  0  0
  -25.3490  -31.4880   26.1710 C   0  0  0  0  0  1  0  0  0  0  0  0
  -26.9970  -30.3620   24.6650 C   0  0  0  0  0  1  0  0  0  0  0  0
  -27.5790  -32.5300   25.7280 C   0  0  0  0  0  1  0  0  0  0  0  0
  -25.5690  -33.9090   24.1620 N   0  0  0  0  0  0  0  0  0  0  0  0
  -25.8820  -34.9640   23.3990 C   0  0  0  0  0  0  0  0  0  0  0  0
  -26.5350  -34.8670   22.3560 O   0  0  0  0  0  0  0  0  0  0  0  0
  -24.9920  -34.0590   24.9770 H   0  0  0  0  0  0  0  0  0  0  0  0
  -24.1360  -36.7460   23.0820 C   0  0  0  0  0  1  0  0  0  0  0  0
  -25.3950  -36.3480   23.8690 C   0  0  0  0  0  3  0  0  0  0  0  0
  -27.5420  -37.2390   24.6570 C   0  0  0  0  0  1  0  0  0  0  0  0
  -26.4180  -37.4070   23.7410 N   0  0  0  0  0  0  0  0  0  0  0  0
  -26.0120  -38.3240   23.9060 H   0  0  0  0  0  0  0  0  0  0  0  0
  -30.1490  -22.2850   21.3560 O   0  0  0  0  0  0  0  0  0  0  0  0
  -29.8130  -20.9360   21.6630 C   0  0  0  0  0  2  0  0  0  0  0  0
  -31.0360  -20.0470   21.3900 C   0  0  0  0  0  2  0  0  0  0  0  0
  -30.7750  -18.5320   21.5160 C   0  0  0  0  0  2  0  0  0  0  0  0
  -29.6850  -18.0210   20.5520 C   0  0  0  0  0  2  0  0  0  0  0  0
  -30.0280  -16.7060   19.8410 C   0  0  0  0  0  2  0  0  0  0  0  0
  -30.6880  -14.4430   20.4630 C   0  0  0  0  0  0  0  0  0  0  0  0
  -30.3610  -12.2740   19.3790 C   0  0  0  0  0  2  0  0  0  0  0  0
  -29.4600  -12.5320   18.1520 C   0  0  0  0  0  2  0  0  0  0  0  0
  -27.9720  -12.4330   18.5430 C   0  0  0  0  0  2  0  0  0  0  0  0
  -27.6270  -13.2620   19.8100 C   0  0  0  0  0  3  0  0  0  0  0  0
  -28.6590  -13.0260   20.9400 C   0  0  0  0  0  2  0  0  0  0  0  0
  -30.0040  -13.2710   20.3960 N   0  0  0  0  0  0  0  0  0  0  0  0
  -31.8430  -14.5790   20.0550 O   0  0  0  0  0  0  0  0  0  0  0  0
  -29.9190  -15.5150   20.6880 N   0  0  0  0  0  0  0  0  0  0  0  0
  -29.0070  -15.3260   21.0770 H   0  0  0  0  0  0  0  0  0  0  0  0
  -25.2210  -13.9020   20.4640 C   0  0  0  0  0  0  0  0  0  0  0  0
  -24.1380  -13.1430   20.8230 C   0  0  0  0  0  0  0  0  0  0  0  0
  -24.5860  -11.7870   20.8120 C   0  0  0  0  0  0  0  0  0  0  0  0
  -26.2610  -13.0070   20.2630 N   0  0  0  0  0  0  0  0  0  0  0  0
  -25.8810  -11.7310   20.5270 N   0  0  0  0  0  0  0  0  0  0  0  0
  -23.8440  -10.5340   21.0030 C   0  0  0  0  0  0  0  0  0  0  0  0
  -24.2650   -9.5610   21.9370 C   0  0  0  0  0  3  0  0  0  0  0  0
  -23.5240   -8.3730   22.1160 C   0  0  0  0  0  3  0  0  0  0  0  0
  -22.3490   -8.1490   21.3600 C   0  0  0  0  0  0  0  0  0  0  0  0
  -21.9470   -9.1100   20.4160 C   0  0  0  0  0  3  0  0  0  0  0  0
  -22.6860  -10.2900   20.2350 C   0  0  0  0  0  3  0  0  0  0  0  0
  -21.5820   -7.0140   21.4490 O   0  0  0  0  0  0  0  0  0  0  0  0
  -21.5390   -6.2590   22.5940 C   0  0  0  0  0  0  0  0  0  0  0  0
  -21.1610   -6.8130   23.8360 C   0  0  0  0  0  3  0  0  0  0  0  0
  -21.0620   -5.9870   24.9740 C   0  0  0  0  0  3  0  0  0  0  0  0
  -21.3330   -4.6100   24.8710 C   0  0  0  0  0  0  0  0  0  0  0  0
  -21.7050   -4.0560   23.6340 C   0  0  0  0  0  3  0  0  0  0  0  0
  -21.8040   -4.8790   22.4990 C   0  0  0  0  0  0  0  0  0  0  0  0
  -22.1430   -4.3360   21.3040 F   0  0  0  0  0  0  0  0  0  0  0  0
  -21.2310   -3.8150   25.9630 F   0  0  0  0  0  0  0  0  0  0  0  0
  -22.7420  -13.6370   21.0690 C   0  0  0  0  0  0  0  0  0  0  0  0
  -21.9930  -12.9560   21.9310 N   0  0  0  0  0  0  0  0  0  0  0  0
  -22.3210  -14.6610   20.5330 O   0  0  0  0  0  0  0  0  0  0  0  0
  -22.3470  -12.1280   22.3870 H   0  0  0  0  0  0  0  0  0  0  0  0
  -21.0550  -13.2680   22.1390 H   0  0  0  0  0  0  0  0  0  0  0  0
  -25.4050  -15.2680   20.2760 N   0  0  0  0  0  0  0  0  0  0  0  0
  -24.6410  -15.9320   20.3480 H   0  0  0  0  0  0  0  0  0  0  0  0
  -26.2660  -15.6900   19.9510 H   0  0  0  0  0  0  0  0  0  0  0  0
  1 45  1  0
  2  1  1  0
  3  4  1  0
  3  2  1  0
  5 16  2  0
  6  4  1  0
  6 11  1  0
  7 15  1  0
  7 17  1  0
  8 14  1  0
  8 10  1  0
  9 15  1  0
 10  9  1  0
 11 10  2  0
 12 13  1  0
 12  6  2  0
 13  8  2  0
 14  7  1  0
 15  5  1  0
 17 19  2  0
 18 17  1  0
 20 18  1  0
 21 30  2  0
 21 26  1  0
 22 18  1  0
 22 26  1  0
 23 22  1  0
 24 25  1  0
 24 23  1  0
 25 21  1  0
 26 27  2  0
 27 28  1  0
 29 28  2  0
 30 29  1  0
 31  5  1  0
 31 36  1  0
 31 32  1  0
 32 35  1  1
 32 33  1  0
 34 32  1  0
 36 39  1  0
 37 41  1  0
 37 36  1  0
 38 37  2  0
 41 40  1  0
 43 41  1  0
 43 44  1  0
 43 42  1  0
 45 46  1  0
 47 48  1  0
 47 46  1  0
 49 48  1  0
 50 49  1  0
 50 59  1  0
 51 59  1  0
 52 57  1  0
 53 54  1  0
 53 52  1  0
 55 54  1  0
 55 64  1  0
 55 56  1  0
 57 51  1  0
 57 56  1  0
 58 51  2  0
 59 60  1  0
 61 62  2  0
 62 81  1  0
 63 62  1  0
 63 66  1  0
 64 61  1  0
 64 65  1  0
 65 63  2  0
 66 67  1  0
 67 68  2  0
 69 72  1  0
 69 68  1  0
 70 69  2  0
 71 70  1  0
 71 66  2  0
 72 73  1  0
 73 74  1  0
 74 75  2  0
 76 75  1  0
 76 80  1  0
 77 76  2  0
 78 73  2  0
 78 77  1  0
 79 78  1  0
 81 82  1  0
 82 85  1  0
 82 84  1  0
 83 81  2  0
 86 87  1  0
 86 61  1  0
 88 86  1  0
M  ISO  4   3 101   4 101  51 100  59 100
M  END
>  <TORSDO>  (88) 
F 24

>  <SCORE>  (88) 
-12.325

>  <name>  (88) 
91

>  <ligand_id>  (88) 
91

>  <original_smiles>  (88) 
[H]c1c([H])c([H])c2c(c1[H])C([H])([H])C([H])([H])C([H])([H])C2([H])N([H])C(=O)C1([H])N(C(=O)C([H])(N([H])C(=O)C([H])(N([H])C([H])([H])[H])C([H])([H])[H])C(C([H])([H])[H])(C([H])([H])[H])C([H])([H])[H])C([H])([H])c2c([H])c(OC([H])([H])C([H])([H])C([H])([H])OC([H])([H])C([H])([H])C([H])([H])C([H])([H])C([H])([H])N([H])C(=O)N3C([H])([H])C([H])([H])C([H])([H])C([H])(n4nc(-c5c([H])c([H])c(Oc6c([H])c([H])c(F)c([H])c6F)c([H])c5[H])c(C(=O)N([H])[H])c4N([H])[H])C3([H])[H])c([H])c([H])c2C1([H])[H]

>  <smiles>  (88) 
[H]c1c([H])c([H])c2c(c1[H])C([H])([H])C([H])([H])C([H])([H])C2([H])N([H])C(=O)C1([H])N(C(=O)C([H])(N([H])C(=O)C([H])(N([H])C([H])([H])[H])C([H])([H])[H])C(C([H])([H])[H])(C([H])([H])[H])C([H])([H])[H])C([H])([H])c2c([H])c(OC([H])([H])C([H])([H])C([H])([H])OC([H])([H])C([H])([H])C([H])([H])C([H])([H])C([H])([H])N([H])C(=O)N3C([H])([H])C([H])([H])C([H])([H])C([H])(n4nc(-c5c([H])c([H])c(Oc6c([H])c([H])c(F)c([H])c6F)c([H])c5[H])c(C(=O)N([H])[H])c4N([H])[H])C3([H])[H])c([H])c([H])c2C1([H])[H]

$$$$
