0:0:0
     RDKit          3D

114121  0  0  1  0  0  0  0  0999 V2000
  -33.0230  -23.9990   20.5200 C   0  0  0  0  0  0  0  0  0  0  0  0
  -32.3420  -24.1100   19.3740 N   0  0  0  0  0  0  0  0  0  0  0  0
  -33.6500  -22.9800   20.8200 O   0  0  0  0  0  0  0  0  0  0  0  0
  -31.8910  -24.9950   19.1820 H   0  0  0  0  0  0  0  0  0  0  0  0
  -32.1600  -23.0440   18.3920 C   0  0  0  0  0  2  0  0  0  0  0  0
  -30.7020  -22.5550   18.3700 C   0  0  0  0  0  2  0  0  0  0  0  0
  -30.3000  -22.1590   19.6810 O   0  0  0  0  0  0  0  0  0  0  0  0
  -29.7640  -20.8410   19.7320 C   0  0  0  0  0  2  0  0  0  0  0  0
  -29.4450  -20.4640   21.1870 C   0  0  0  0  0  2  0  0  0  0  0  0
  -28.2770  -21.1650   21.5990 O   0  0  0  0  0  0  0  0  0  0  0  0
  -28.2330  -21.5040   22.9890 C   0  0  0  0  0  2  0  0  0  0  0  0
  -28.2920  -23.0310   23.1280 C   0  0  0  0  0  0  0  0  0  0  0  0
  -28.6090  -23.7000   22.0160 N   0  0  0  0  0  0  0  0  0  0  0  0
  -28.0200  -23.5840   24.1950 O   0  0  0  0  0  0  0  0  0  0  0  0
  -28.8230  -23.1180   21.2120 H   0  0  0  0  0  0  0  0  0  0  0  0
  -28.5470  -25.1380   21.8120 C   0  0  0  0  0  2  0  0  0  0  0  0
  -28.4860  -25.4210   20.3040 C   0  0  0  0  0  2  0  0  0  0  0  0
  -28.4480  -26.8200   20.0560 O   0  0  0  0  0  0  0  0  0  0  0  0
  -24.6070  -31.8730   23.2090 C   0  0  0  0  0  0  0  0  0  0  0  0
  -27.2380  -27.4710   20.0940 C   0  0  0  0  0  0  0  0  0  0  0  0
  -23.3920  -30.4940   21.5500 C   0  0  0  0  0  3  0  0  0  0  0  0
  -24.8380  -28.9610   20.1200 C   0  0  0  0  0  0  0  0  0  0  0  0
  -25.9160  -30.8500   21.3540 C   0  0  0  0  0  2  0  0  0  0  0  0
  -25.9960  -29.4850   20.7070 C   0  0  0  0  0  0  0  0  0  0  0  0
  -27.1970  -28.7490   20.6870 C   0  0  0  0  0  3  0  0  0  0  0  0
  -26.0620  -26.9480   19.5050 C   0  0  0  0  0  3  0  0  0  0  0  0
  -24.8650  -27.6910   19.5170 C   0  0  0  0  0  3  0  0  0  0  0  0
  -23.5940  -29.8180   20.1680 C   0  0  0  0  0  2  0  0  0  0  0  0
  -24.6570  -31.0870   22.0950 N   0  0  0  0  0  0  0  0  0  0  0  0
  -23.5290  -32.1430   23.7530 O   0  0  0  0  0  0  0  0  0  0  0  0
  -22.7380  -29.4670   22.5000 C   0  0  0  0  0  0  0  0  0  0  0  0
  -21.4120  -29.3010   22.3750 N   0  0  0  0  0  0  0  0  0  0  0  0
  -23.4190  -28.8230   23.3020 O   0  0  0  0  0  0  0  0  0  0  0  0
  -20.9270  -29.8670   21.6930 H   0  0  0  0  0  0  0  0  0  0  0  0
  -18.0270  -28.1370   22.8490 C   0  0  0  0  0  0  0  0  0  0  0  0
  -20.5860  -28.3640   23.1330 C   0  0  0  0  0  3  0  0  0  0  0  0
  -20.6780  -26.9370   22.5410 C   0  0  0  0  0  2  0  0  0  0  0  0
  -19.5750  -26.6370   21.5210 C   0  0  0  0  0  2  0  0  0  0  0  0
  -18.1920  -26.7920   22.1610 C   0  0  0  0  0  2  0  0  0  0  0  0
  -19.1520  -28.8830   23.2900 C   0  0  0  0  0  0  0  0  0  0  0  0
  -18.9450  -30.1450   23.8880 C   0  0  0  0  0  3  0  0  0  0  0  0
  -17.6460  -30.6580   24.0560 C   0  0  0  0  0  3  0  0  0  0  0  0
  -16.5340  -29.9070   23.6340 C   0  0  0  0  0  3  0  0  0  0  0  0
  -16.7260  -28.6500   23.0350 C   0  0  0  0  0  3  0  0  0  0  0  0
  -25.8990  -32.4820   23.8370 C   0  0  0  0  0  3  0  0  0  0  0  0
  -26.4460  -31.6580   25.0680 C   0  0  1  0  0  0  0  0  0  0  0  0
  -25.3750  -31.3670   26.1450 C   0  0  0  0  0  1  0  0  0  0  0  0
  -27.0300  -30.3050   24.6000 C   0  0  0  0  0  1  0  0  0  0  0  0
  -27.6050  -32.4300   25.7440 C   0  0  0  0  0  1  0  0  0  0  0  0
  -25.5880  -33.8620   24.2330 N   0  0  0  0  0  0  0  0  0  0  0  0
  -25.9050  -34.9470   23.5140 C   0  0  0  0  0  0  0  0  0  0  0  0
  -26.5600  -34.8930   22.4680 O   0  0  0  0  0  0  0  0  0  0  0  0
  -25.0100  -33.9800   25.0520 H   0  0  0  0  0  0  0  0  0  0  0  0
  -24.1500  -36.7310   23.2640 C   0  0  0  0  0  1  0  0  0  0  0  0
  -25.4120  -36.3110   24.0350 C   0  0  0  0  0  3  0  0  0  0  0  0
  -27.5600  -37.1800   24.8460 C   0  0  0  0  0  1  0  0  0  0  0  0
  -26.4300  -37.3800   23.9420 N   0  0  0  0  0  0  0  0  0  0  0  0
  -26.0200  -38.2880   24.1420 H   0  0  0  0  0  0  0  0  0  0  0  0
  -33.0060  -25.2200   21.4480 C   0  0  0  0  0  2  0  0  0  0  0  0
  -33.4340  -24.3920   23.7580 C   0  0  0  0  0  0  0  0  0  0  0  0
  -33.8240  -25.0200   22.6450 N   0  0  0  0  0  0  0  0  0  0  0  0
  -32.2820  -23.9800   23.9200 O   0  0  0  0  0  0  0  0  0  0  0  0
  -34.7910  -25.3060   22.5810 H   0  0  0  0  0  0  0  0  0  0  0  0
  -34.4990  -24.2260   24.8520 C   0  0  0  0  0  2  0  0  0  0  0  0
  -34.2330  -21.9190   25.7520 C   0  0  0  0  0  0  0  0  0  0  0  0
  -34.1300  -23.2480   25.8780 N   0  0  0  0  0  0  0  0  0  0  0  0
  -34.6590  -21.3870   24.7230 O   0  0  0  0  0  0  0  0  0  0  0  0
  -33.7580  -23.6140   26.7420 H   0  0  0  0  0  0  0  0  0  0  0  0
  -33.8200  -21.0700   26.9640 C   0  0  0  0  0  2  0  0  0  0  0  0
  -33.7130  -19.7050   26.5730 O   0  0  0  0  0  0  0  0  0  0  0  0
  -33.4770  -18.8130   27.6520 C   0  0  0  0  0  2  0  0  0  0  0  0
  -33.5010  -17.3900   27.0820 C   0  0  0  0  0  2  0  0  0  0  0  0
  -32.2850  -17.0710   26.1920 C   0  0  0  0  0  2  0  0  0  0  0  0
  -32.6530  -16.2200   24.9690 C   0  0  0  0  0  2  0  0  0  0  0  0
  -31.4320  -15.7890   24.1400 C   0  0  0  0  0  2  0  0  0  0  0  0
  -31.8430  -15.3480   22.7290 C   0  0  0  0  0  2  0  0  0  0  0  0
  -30.8500  -14.2600   20.7590 C   0  0  0  0  0  0  0  0  0  0  0  0
  -30.4040  -12.2820   19.3690 C   0  0  0  0  0  2  0  0  0  0  0  0
  -29.4690  -12.5380   18.1790 C   0  0  0  0  0  2  0  0  0  0  0  0
  -28.0020  -12.3780   18.6100 C   0  0  0  0  0  2  0  0  0  0  0  0
  -27.6660  -13.2050   19.8780 C   0  0  0  0  0  3  0  0  0  0  0  0
  -28.7060  -12.9670   20.9960 C   0  0  0  0  0  2  0  0  0  0  0  0
  -30.0580  -13.2060   20.4570 N   0  0  0  0  0  0  0  0  0  0  0  0
  -31.7510  -14.6770   20.0230 O   0  0  0  0  0  0  0  0  0  0  0  0
  -30.7670  -14.6480   22.0360 N   0  0  0  0  0  0  0  0  0  0  0  0
  -30.0420  -14.2210   22.5930 H   0  0  0  0  0  0  0  0  0  0  0  0
  -25.2600  -13.8160   20.5690 C   0  0  0  0  0  0  0  0  0  0  0  0
  -24.1850  -13.0440   20.9170 C   0  0  0  0  0  0  0  0  0  0  0  0
  -24.6400  -11.6910   20.8720 C   0  0  0  0  0  0  0  0  0  0  0  0
  -26.3050  -12.9340   20.3390 N   0  0  0  0  0  0  0  0  0  0  0  0
  -25.9330  -11.6490   20.5760 N   0  0  0  0  0  0  0  0  0  0  0  0
  -23.9060  -10.4300   21.0400 C   0  0  0  0  0  0  0  0  0  0  0  0
  -24.3610   -9.4210   21.9180 C   0  0  0  0  0  3  0  0  0  0  0  0
  -23.6290   -8.2240   22.0750 C   0  0  0  0  0  3  0  0  0  0  0  0
  -22.4270   -8.0280   21.3540 C   0  0  0  0  0  0  0  0  0  0  0  0
  -21.9910   -9.0250   20.4640 C   0  0  0  0  0  3  0  0  0  0  0  0
  -22.7230  -10.2130   20.3050 C   0  0  0  0  0  3  0  0  0  0  0  0
  -21.6640   -6.8880   21.4240 O   0  0  0  0  0  0  0  0  0  0  0  0
  -21.6850   -6.0740   22.5280 C   0  0  0  0  0  0  0  0  0  0  0  0
  -21.4020   -6.5640   23.8210 C   0  0  0  0  0  3  0  0  0  0  0  0
  -21.3660   -5.6790   24.9180 C   0  0  0  0  0  3  0  0  0  0  0  0
  -21.6050   -4.3060   24.7230 C   0  0  0  0  0  0  0  0  0  0  0  0
  -21.8820   -3.8150   23.4350 C   0  0  0  0  0  3  0  0  0  0  0  0
  -21.9190   -4.6970   22.3400 C   0  0  0  0  0  0  0  0  0  0  0  0
  -22.1660   -4.2150   21.0980 F   0  0  0  0  0  0  0  0  0  0  0  0
  -21.5630   -3.4540   25.7740 F   0  0  0  0  0  0  0  0  0  0  0  0
  -22.7870  -13.5240   21.1830 C   0  0  0  0  0  0  0  0  0  0  0  0
  -22.0510  -12.8240   22.0400 N   0  0  0  0  0  0  0  0  0  0  0  0
  -22.3550  -14.5550   20.6680 O   0  0  0  0  0  0  0  0  0  0  0  0
  -22.4120  -11.9890   22.4780 H   0  0  0  0  0  0  0  0  0  0  0  0
  -21.1130  -13.1260   22.2600 H   0  0  0  0  0  0  0  0  0  0  0  0
  -25.4340  -15.1880   20.4100 N   0  0  0  0  0  0  0  0  0  0  0  0
  -24.6730  -15.8490   20.5250 H   0  0  0  0  0  0  0  0  0  0  0  0
  -26.2990  -15.6260   20.1190 H   0  0  0  0  0  0  0  0  0  0  0  0
  1  3  2  0
  1 59  1  0
  2  1  1  0
  4  2  1  0
  5  2  1  0
  6  5  1  0
  6  7  1  0
  7  8  1  0
  8  9  1  0
  9 10  1  0
 10 11  1  0
 11 12  1  0
 12 14  2  0
 13 12  1  0
 15 13  1  0
 16 13  1  0
 17 16  1  0
 18 20  1  0
 18 17  1  0
 19 30  2  0
 20 25  1  0
 21 29  1  0
 21 31  1  0
 22 28  1  0
 22 24  1  0
 23 29  1  0
 24 23  1  0
 25 24  2  0
 26 27  1  0
 26 20  2  0
 27 22  2  0
 28 21  1  0
 29 19  1  0
 31 33  2  0
 32 31  1  0
 34 32  1  0
 35 44  2  0
 35 40  1  0
 36 32  1  0
 36 40  1  0
 37 36  1  0
 38 39  1  0
 38 37  1  0
 39 35  1  0
 40 41  2  0
 41 42  1  0
 43 42  2  0
 44 43  1  0
 45 19  1  0
 45 50  1  0
 45 46  1  0
 46 49  1  1
 46 47  1  0
 48 46  1  0
 50 53  1  0
 51 55  1  0
 51 50  1  0
 52 51  2  0
 55 54  1  0
 57 55  1  0
 57 58  1  0
 57 56  1  0
 59 61  1  0
 60 62  2  0
 60 64  1  0
 61 60  1  0
 63 61  1  0
 64 66  1  0
 65 66  1  0
 65 69  1  0
 66 68  1  0
 67 65  2  0
 70 69  1  0
 70 71  1  0
 72 71  1  0
 73 72  1  0
 74 73  1  0
 75 74  1  0
 76 75  1  0
 77 85  1  0
 78 83  1  0
 79 80  1  0
 79 78  1  0
 81 80  1  0
 81 90  1  0
 81 82  1  0
 83 77  1  0
 83 82  1  0
 84 77  2  0
 85 86  1  0
 85 76  1  0
 87 88  2  0
 88107  1  0
 89 88  1  0
 89 92  1  0
 90 87  1  0
 90 91  1  0
 91 89  2  0
 92 93  1  0
 93 94  2  0
 95 98  1  0
 95 94  1  0
 96 95  2  0
 97 96  1  0
 97 92  2  0
 98 99  1  0
 99100  1  0
100101  2  0
102101  1  0
102106  1  0
103102  2  0
104 99  2  0
104103  1  0
105104  1  0
107108  1  0
108111  1  0
108110  1  0
109107  2  0
112113  1  0
112 87  1  0
114112  1  0
M  ISO  4  17 101  18 101  77 100  85 100
M  END
>  <TORSDO>  (1) 
F 38

>  <SCORE>  (1) 
63.880

>  <name>  (1) 
0

>  <ligand_id>  (1) 
0

>  <original_smiles>  (1) 
[H]c1c([H])c([H])c2c(c1[H])C([H])([H])C([H])([H])C([H])([H])C2([H])N([H])C(=O)C1([H])N(C(=O)C([H])(N([H])C(=O)C([H])(N([H])C([H])([H])[H])C([H])([H])[H])C(C([H])([H])[H])(C([H])([H])[H])C([H])([H])[H])C([H])([H])c2c([H])c(OC([H])([H])C([H])([H])N([H])C(=O)C([H])([H])OC([H])([H])C([H])([H])OC([H])([H])C([H])([H])N([H])C(=O)C([H])([H])N([H])C(=O)C([H])([H])N([H])C(=O)C([H])([H])OC([H])([H])C([H])([H])C([H])([H])C([H])([H])C([H])([H])C([H])([H])N([H])C(=O)N3C([H])([H])C([H])([H])C([H])([H])C([H])(n4nc(-c5c([H])c([H])c(Oc6c([H])c([H])c(F)c([H])c6F)c([H])c5[H])c(C(=O)N([H])[H])c4N([H])[H])C3([H])[H])c([H])c([H])c2C1([H])[H]

>  <smiles>  (1) 
[H]c1c([H])c([H])c2c(c1[H])C([H])([H])C([H])([H])C([H])([H])C2([H])N([H])C(=O)C1([H])N(C(=O)C([H])(N([H])C(=O)C([H])(N([H])C([H])([H])[H])C([H])([H])[H])C(C([H])([H])[H])(C([H])([H])[H])C([H])([H])[H])C([H])([H])c2c([H])c(OC([H])([H])C([H])([H])N([H])C(=O)C([H])([H])OC([H])([H])C([H])([H])OC([H])([H])C([H])([H])N([H])C(=O)C([H])([H])N([H])C(=O)C([H])([H])N([H])C(=O)C([H])([H])OC([H])([H])C([H])([H])C([H])([H])C([H])([H])C([H])([H])C([H])([H])N([H])C(=O)N3C([H])([H])C([H])([H])C([H])([H])C([H])(n4nc(-c5c([H])c([H])c(Oc6c([H])c([H])c(F)c([H])c6F)c([H])c5[H])c(C(=O)N([H])[H])c4N([H])[H])C3([H])[H])c([H])c([H])c2C1([H])[H]

$$$$
1:0:0
     RDKit          3D

104111  0  0  1  0  0  0  0  0999 V2000
  -22.8100  -20.7240   19.1310 C   0  0  0  0  0  2  0  0  0  0  0  0
  -24.9570  -19.4860   19.1230 C   0  0  0  0  0  0  0  0  0  0  0  0
  -23.7600  -19.7500   19.6600 N   0  0  0  0  0  0  0  0  0  0  0  0
  -25.2950  -19.9270   18.0200 O   0  0  0  0  0  0  0  0  0  0  0  0
  -23.5550  -19.3690   20.5740 H   0  0  0  0  0  0  0  0  0  0  0  0
  -25.9250  -18.6470   19.9650 C   0  0  0  0  0  2  0  0  0  0  0  0
  -27.2680  -18.8930   19.5490 O   0  0  0  0  0  0  0  0  0  0  0  0
  -28.1890  -17.9470   20.0780 C   0  0  0  0  0  2  0  0  0  0  0  0
  -29.5490  -18.0750   19.3800 C   0  0  0  0  0  2  0  0  0  0  0  0
  -30.3310  -19.0990   19.9870 O   0  0  0  0  0  0  0  0  0  0  0  0
  -31.4670  -18.6670   20.7320 C   0  0  0  0  0  2  0  0  0  0  0  0
  -31.1230  -17.7050   21.8900 C   0  0  0  0  0  2  0  0  0  0  0  0
  -30.9460  -16.3470   21.4770 O   0  0  0  0  0  0  0  0  0  0  0  0
  -32.1170  -15.7570   20.9110 C   0  0  0  0  0  2  0  0  0  0  0  0
  -32.3970  -14.3960   21.5720 C   0  0  0  0  0  2  0  0  0  0  0  0
  -31.8870  -12.5920   19.9320 C   0  0  0  0  0  0  0  0  0  0  0  0
  -30.9250  -11.1330   18.1950 C   0  0  0  0  0  2  0  0  0  0  0  0
  -29.9900  -11.9610   17.2920 C   0  0  0  0  0  2  0  0  0  0  0  0
  -28.5720  -12.0450   17.8900 C   0  0  0  0  0  2  0  0  0  0  0  0
  -28.5770  -12.4500   19.3880 C   0  0  0  0  0  3  0  0  0  0  0  0
  -29.5900  -11.5920   20.1760 C   0  0  0  0  0  2  0  0  0  0  0  0
  -30.9090  -11.7410   19.5330 N   0  0  0  0  0  0  0  0  0  0  0  0
  -32.9490  -12.7480   19.3230 O   0  0  0  0  0  0  0  0  0  0  0  0
  -31.5830  -13.3250   21.0070 N   0  0  0  0  0  0  0  0  0  0  0  0
  -30.6850  -13.1560   21.4360 H   0  0  0  0  0  0  0  0  0  0  0  0
  -26.3550  -13.3900   20.2820 C   0  0  0  0  0  0  0  0  0  0  0  0
  -25.2120  -12.7790   20.7210 C   0  0  0  0  0  0  0  0  0  0  0  0
  -25.4690  -11.3760   20.6570 C   0  0  0  0  0  0  0  0  0  0  0  0
  -27.2370  -12.3700   19.9660 N   0  0  0  0  0  0  0  0  0  0  0  0
  -26.7120  -11.1530   20.2500 N   0  0  0  0  0  0  0  0  0  0  0  0
  -24.5880  -10.2300   20.9130 C   0  0  0  0  0  0  0  0  0  0  0  0
  -24.9580   -9.2010   21.8060 C   0  0  0  0  0  3  0  0  0  0  0  0
  -24.0870   -8.1180   22.0480 C   0  0  0  0  0  3  0  0  0  0  0  0
  -22.8310   -8.0580   21.3980 C   0  0  0  0  0  0  0  0  0  0  0  0
  -22.4770   -9.0750   20.4940 C   0  0  0  0  0  3  0  0  0  0  0  0
  -23.3470  -10.1500   20.2510 C   0  0  0  0  0  3  0  0  0  0  0  0
  -21.9320   -7.0310   21.5510 O   0  0  0  0  0  0  0  0  0  0  0  0
  -21.7810   -6.3790   22.7490 C   0  0  0  0  0  0  0  0  0  0  0  0
  -21.5480   -7.0780   23.9530 C   0  0  0  0  0  3  0  0  0  0  0  0
  -21.3260   -6.3670   25.1480 C   0  0  0  0  0  3  0  0  0  0  0  0
  -21.3300   -4.9590   25.1410 C   0  0  0  0  0  0  0  0  0  0  0  0
  -21.5570   -4.2610   23.9420 C   0  0  0  0  0  3  0  0  0  0  0  0
  -21.7780   -4.9700   22.7480 C   0  0  0  0  0  0  0  0  0  0  0  0
  -21.9750   -4.2930   21.5910 F   0  0  0  0  0  0  0  0  0  0  0  0
  -21.1090   -4.2730   26.2880 F   0  0  0  0  0  0  0  0  0  0  0  0
  -23.9260  -13.4550   21.0980 C   0  0  0  0  0  0  0  0  0  0  0  0
  -23.2000  -12.8960   22.0610 N   0  0  0  0  0  0  0  0  0  0  0  0
  -23.5810  -14.5130   20.5730 O   0  0  0  0  0  0  0  0  0  0  0  0
  -23.4970  -12.0400   22.5070 H   0  0  0  0  0  0  0  0  0  0  0  0
  -22.3390  -13.3320   22.3570 H   0  0  0  0  0  0  0  0  0  0  0  0
  -26.7140  -14.7210   20.1220 N   0  0  0  0  0  0  0  0  0  0  0  0
  -26.1120  -15.4690   20.4450 H   0  0  0  0  0  0  0  0  0  0  0  0
  -27.6630  -15.0210   19.9390 H   0  0  0  0  0  0  0  0  0  0  0  0
  -23.5370  -22.0610   18.9570 C   0  0  0  0  0  0  0  0  0  0  0  0
  -24.8090  -22.0000   18.5460 N   0  0  0  0  0  0  0  0  0  0  0  0
  -22.9670  -23.1140   19.2420 O   0  0  0  0  0  0  0  0  0  0  0  0
  -25.1820  -21.0760   18.3700 H   0  0  0  0  0  0  0  0  0  0  0  0
  -25.7520  -23.1080   18.4840 C   0  0  0  0  0  2  0  0  0  0  0  0
  -26.7750  -22.9750   19.6240 C   0  0  0  0  0  2  0  0  0  0  0  0
  -27.2700  -24.3290   20.1510 C   0  0  0  0  0  2  0  0  0  0  0  0
  -28.5030  -24.1820   21.0590 C   0  0  0  0  0  2  0  0  0  0  0  0
  -28.8610  -25.4930   21.7830 C   0  0  0  0  0  2  0  0  0  0  0  0
  -30.1750  -26.1400   21.2790 C   0  0  0  0  0  2  0  0  0  0  0  0
  -30.0340  -27.5470   21.0750 O   0  0  0  0  0  0  0  0  0  0  0  0
  -25.1560  -31.9530   23.7420 C   0  0  0  0  0  0  0  0  0  0  0  0
  -28.7670  -28.0710   20.9080 C   0  0  0  0  0  0  0  0  0  0  0  0
  -24.3670  -30.4570   21.9370 C   0  0  0  0  0  3  0  0  0  0  0  0
  -26.1840  -29.2000   20.6720 C   0  0  0  0  0  0  0  0  0  0  0  0
  -26.8170  -31.1800   22.0580 C   0  0  0  0  0  2  0  0  0  0  0  0
  -27.1750  -29.8630   21.4050 C   0  0  0  0  0  0  0  0  0  0  0  0
  -28.4660  -29.3050   21.5240 C   0  0  0  0  0  3  0  0  0  0  0  0
  -27.7520  -27.4210   20.1640 C   0  0  0  0  0  3  0  0  0  0  0  0
  -26.4650  -27.9730   20.0530 C   0  0  0  0  0  3  0  0  0  0  0  0
  -24.8330  -29.8680   20.5810 C   0  0  0  0  0  2  0  0  0  0  0  0
  -25.4550  -31.2110   22.6400 N   0  0  0  0  0  0  0  0  0  0  0  0
  -23.9910  -32.0500   24.1520 O   0  0  0  0  0  0  0  0  0  0  0  0
  -23.7630  -29.3190   22.7900 C   0  0  0  0  0  0  0  0  0  0  0  0
  -22.7770  -28.6070   22.2230 N   0  0  0  0  0  0  0  0  0  0  0  0
  -24.1980  -29.0760   23.9200 O   0  0  0  0  0  0  0  0  0  0  0  0
  -22.4720  -28.8720   21.2970 H   0  0  0  0  0  0  0  0  0  0  0  0
  -20.4600  -25.9250   21.5390 C   0  0  0  0  0  0  0  0  0  0  0  0
  -22.0860  -27.4680   22.8240 C   0  0  0  0  0  3  0  0  0  0  0  0
  -23.0180  -26.2390   22.9180 C   0  0  0  0  0  2  0  0  0  0  0  0
  -22.9080  -25.3010   21.7120 C   0  0  0  0  0  2  0  0  0  0  0  0
  -21.4730  -24.7910   21.5580 C   0  0  0  0  0  2  0  0  0  0  0  0
  -20.7540  -27.1860   22.1200 C   0  0  0  0  0  0  0  0  0  0  0  0
  -19.7930  -28.2170   22.0430 C   0  0  0  0  0  3  0  0  0  0  0  0
  -18.5570  -28.0020   21.4060 C   0  0  0  0  0  3  0  0  0  0  0  0
  -18.2640  -26.7470   20.8470 C   0  0  0  0  0  3  0  0  0  0  0  0
  -19.2130  -25.7110   20.9170 C   0  0  0  0  0  3  0  0  0  0  0  0
  -26.2590  -32.7340   24.5240 C   0  0  0  0  0  3  0  0  0  0  0  0
  -26.5580  -32.1270   25.9490 C   0  0  1  0  0  0  0  0  0  0  0  0
  -25.2840  -31.7910   26.7590 C   0  0  0  0  0  1  0  0  0  0  0  0
  -27.3940  -30.8320   25.8260 C   0  0  0  0  0  1  0  0  0  0  0  0
  -27.4020  -33.1240   26.7770 C   0  0  0  0  0  1  0  0  0  0  0  0
  -25.8160  -34.1290   24.6330 N   0  0  0  0  0  0  0  0  0  0  0  0
  -26.2380  -35.1250   23.8420 C   0  0  0  0  0  0  0  0  0  0  0  0
  -27.1080  -34.9750   22.9810 O   0  0  0  0  0  0  0  0  0  0  0  0
  -25.0650  -34.3140   25.2810 H   0  0  0  0  0  0  0  0  0  0  0  0
  -24.5110  -36.7320   22.9700 C   0  0  0  0  0  1  0  0  0  0  0  0
  -25.5910  -36.5080   24.0410 C   0  0  0  0  0  3  0  0  0  0  0  0
  -27.4710  -37.6310   25.1490 C   0  0  0  0  0  1  0  0  0  0  0  0
  -26.5630  -37.6230   24.0060 N   0  0  0  0  0  0  0  0  0  0  0  0
  -26.0820  -38.5180   23.9740 H   0  0  0  0  0  0  0  0  0  0  0  0
  1  3  1  0
  2  3  1  0
  2  6  1  0
  3  5  1  0
  4  2  2  0
  7  6  1  0
  7  8  1  0
  9 10  1  0
  9  8  1  0
 10 11  1  0
 11 12  1  0
 13 12  1  0
 14 13  1  0
 14 15  1  0
 16 24  1  0
 17 22  1  0
 18 19  1  0
 18 17  1  0
 20 19  1  0
 20 29  1  0
 20 21  1  0
 22 16  1  0
 22 21  1  0
 23 16  2  0
 24 25  1  0
 24 15  1  0
 26 27  2  0
 27 46  1  0
 28 27  1  0
 28 31  1  0
 29 30  1  0
 29 26  1  0
 30 28  2  0
 31 32  1  0
 32 33  2  0
 34 37  1  0
 34 33  1  0
 35 34  2  0
 36 35  1  0
 36 31  2  0
 37 38  1  0
 38 39  1  0
 39 40  2  0
 41 40  1  0
 41 45  1  0
 42 41  2  0
 43 38  2  0
 43 42  1  0
 44 43  1  0
 46 47  1  0
 47 50  1  0
 47 49  1  0
 48 46  2  0
 51 26  1  0
 51 52  1  0
 53 51  1  0
 54  1  1  0
 54 56  2  0
 55 54  1  0
 57 55  1  0
 58 55  1  0
 58 59  1  0
 59 60  1  0
 60 61  1  0
 61 62  1  0
 63 62  1  0
 64 63  1  0
 65 76  2  0
 66 64  1  0
 66 71  1  0
 67 75  1  0
 67 77  1  0
 68 70  1  0
 69 75  1  0
 70 71  2  0
 70 69  1  0
 72 66  2  0
 73 72  1  0
 73 68  2  0
 74 68  1  0
 74 67  1  0
 75 65  1  0
 77 79  2  0
 78 77  1  0
 80 78  1  0
 81 85  1  0
 81 86  1  0
 82 78  1  0
 82 83  1  0
 84 83  1  0
 85 84  1  0
 86 82  1  0
 87 86  2  0
 88 87  1  0
 89 90  1  0
 89 88  2  0
 90 81  2  0
 91 65  1  0
 91 96  1  0
 91 92  1  0
 92 93  1  1
 92 95  1  0
 94 92  1  0
 96 99  1  0
 97101  1  0
 97 96  1  0
 98 97  2  0
101100  1  0
103101  1  0
103102  1  0
104103  1  0
M  ISO  4  16 100  24 100  63 101  64 101
M  END
>  <TORSDO>  (2) 
F 34

>  <SCORE>  (2) 
-1.196

>  <name>  (2) 
1

>  <ligand_id>  (2) 
1

>  <original_smiles>  (2) 
[H]c1c([H])c([H])c2c(c1[H])C([H])([H])C([H])([H])C([H])([H])C2([H])N([H])C(=O)C1([H])N(C(=O)C([H])(N([H])C(=O)C([H])(N([H])C([H])([H])[H])C([H])([H])[H])C(C([H])([H])[H])(C([H])([H])[H])C([H])([H])[H])C([H])([H])c2c([H])c(OC([H])([H])C([H])([H])C([H])([H])C([H])([H])C([H])([H])C([H])([H])N([H])C(=O)C([H])([H])N([H])C(=O)C([H])([H])OC([H])([H])C([H])([H])OC([H])([H])C([H])([H])OC([H])([H])C([H])([H])N([H])C(=O)N3C([H])([H])C([H])([H])C([H])([H])C([H])(n4nc(-c5c([H])c([H])c(Oc6c([H])c([H])c(F)c([H])c6F)c([H])c5[H])c(C(=O)N([H])[H])c4N([H])[H])C3([H])[H])c([H])c([H])c2C1([H])[H]

>  <smiles>  (2) 
[H]c1c([H])c([H])c2c(c1[H])C([H])([H])C([H])([H])C([H])([H])C2([H])N([H])C(=O)C1([H])N(C(=O)C([H])(N([H])C(=O)C([H])(N([H])C([H])([H])[H])C([H])([H])[H])C(C([H])([H])[H])(C([H])([H])[H])C([H])([H])[H])C([H])([H])c2c([H])c(OC([H])([H])C([H])([H])C([H])([H])C([H])([H])C([H])([H])C([H])([H])N([H])C(=O)C([H])([H])N([H])C(=O)C([H])([H])OC([H])([H])C([H])([H])OC([H])([H])C([H])([H])OC([H])([H])C([H])([H])N([H])C(=O)N3C([H])([H])C([H])([H])C([H])([H])C([H])(n4nc(-c5c([H])c([H])c(Oc6c([H])c([H])c(F)c([H])c6F)c([H])c5[H])c(C(=O)N([H])[H])c4N([H])[H])C3([H])[H])c([H])c([H])c2C1([H])[H]

$$$$
2:0:0
     RDKit          3D

108115  0  0  1  0  0  0  0  0999 V2000
  -26.8360  -20.8230   17.4670 C   0  0  0  0  0  2  0  0  0  0  0  0
  -27.5180  -20.4710   16.1380 C   0  0  0  0  0  2  0  0  0  0  0  0
  -29.0120  -20.8330   16.1220 C   0  0  0  0  0  2  0  0  0  0  0  0
  -30.5740  -20.2520   17.9900 C   0  0  0  0  0  0  0  0  0  0  0  0
  -29.7730  -19.9200   16.9700 N   0  0  0  0  0  0  0  0  0  0  0  0
  -30.7510  -21.4180   18.3500 O   0  0  0  0  0  0  0  0  0  0  0  0
  -29.6860  -18.9340   16.7620 H   0  0  0  0  0  0  0  0  0  0  0  0
  -31.2670  -19.0720   18.6960 C   0  0  0  0  0  2  0  0  0  0  0  0
  -31.8510  -19.4260   19.9520 O   0  0  0  0  0  0  0  0  0  0  0  0
  -33.0960  -20.1200   19.8930 C   0  0  0  0  0  2  0  0  0  0  0  0
  -33.7960  -19.9990   21.2550 C   0  0  0  0  0  2  0  0  0  0  0  0
  -33.1180  -20.7750   22.2400 O   0  0  0  0  0  0  0  0  0  0  0  0
  -32.6190  -20.0280   23.3470 C   0  0  0  0  0  2  0  0  0  0  0  0
  -31.2690  -19.3730   23.0090 C   0  0  0  0  0  2  0  0  0  0  0  0
  -31.4440  -18.0890   22.4180 O   0  0  0  0  0  0  0  0  0  0  0  0
  -30.2410  -17.6310   21.8140 C   0  0  0  0  0  2  0  0  0  0  0  0
  -30.3120  -16.1250   21.5580 C   0  0  0  0  0  2  0  0  0  0  0  0
  -31.8010  -14.6560   20.0420 C   0  0  0  0  0  0  0  0  0  0  0  0
  -31.4150  -12.3360   19.2860 C   0  0  0  0  0  2  0  0  0  0  0  0
  -30.4640  -12.3000   18.0690 C   0  0  0  0  0  2  0  0  0  0  0  0
  -28.9840  -12.3020   18.5050 C   0  0  0  0  0  2  0  0  0  0  0  0
  -28.6890  -13.3850   19.5770 C   0  0  0  0  0  3  0  0  0  0  0  0
  -29.7330  -13.2740   20.7050 C   0  0  0  0  0  2  0  0  0  0  0  0
  -31.0640  -13.5030   20.1210 N   0  0  0  0  0  0  0  0  0  0  0  0
  -32.8310  -14.7250   19.3700 O   0  0  0  0  0  0  0  0  0  0  0  0
  -31.4440  -15.7680   20.7120 N   0  0  0  0  0  0  0  0  0  0  0  0
  -32.1040  -16.5240   20.6030 H   0  0  0  0  0  0  0  0  0  0  0  0
  -26.4350  -14.2760   20.4530 C   0  0  0  0  0  0  0  0  0  0  0  0
  -25.2750  -13.6390   20.8050 C   0  0  0  0  0  0  0  0  0  0  0  0
  -25.5220  -12.2440   20.6210 C   0  0  0  0  0  0  0  0  0  0  0  0
  -27.3240  -13.2760   20.0900 N   0  0  0  0  0  0  0  0  0  0  0  0
  -26.7770  -12.0430   20.2420 N   0  0  0  0  0  0  0  0  0  0  0  0
  -24.6210  -11.0920   20.7320 C   0  0  0  0  0  0  0  0  0  0  0  0
  -24.9570   -9.9670   21.5190 C   0  0  0  0  0  3  0  0  0  0  0  0
  -24.0680   -8.8750   21.6220 C   0  0  0  0  0  3  0  0  0  0  0  0
  -22.8280   -8.9020   20.9390 C   0  0  0  0  0  0  0  0  0  0  0  0
  -22.5100  -10.0150   20.1400 C   0  0  0  0  0  3  0  0  0  0  0  0
  -23.3970  -11.0970   20.0340 C   0  0  0  0  0  3  0  0  0  0  0  0
  -21.9120   -7.8790   20.9630 O   0  0  0  0  0  0  0  0  0  0  0  0
  -21.7780   -7.0590   22.0540 C   0  0  0  0  0  0  0  0  0  0  0  0
  -21.4950   -7.5670   23.3410 C   0  0  0  0  0  3  0  0  0  0  0  0
  -21.2960   -6.6830   24.4190 C   0  0  0  0  0  3  0  0  0  0  0  0
  -21.3680   -5.2910   24.2130 C   0  0  0  0  0  0  0  0  0  0  0  0
  -21.6430   -4.7840   22.9310 C   0  0  0  0  0  3  0  0  0  0  0  0
  -21.8450   -5.6650   21.8550 C   0  0  0  0  0  0  0  0  0  0  0  0
  -22.0880   -5.1680   20.6180 F   0  0  0  0  0  0  0  0  0  0  0  0
  -21.1700   -4.4410   25.2470 F   0  0  0  0  0  0  0  0  0  0  0  0
  -23.9790  -14.2890   21.1970 C   0  0  0  0  0  0  0  0  0  0  0  0
  -23.1940  -13.6310   22.0430 N   0  0  0  0  0  0  0  0  0  0  0  0
  -23.6760  -15.4100   20.7890 O   0  0  0  0  0  0  0  0  0  0  0  0
  -23.4520  -12.7190   22.3930 H   0  0  0  0  0  0  0  0  0  0  0  0
  -22.3240  -14.0430   22.3440 H   0  0  0  0  0  0  0  0  0  0  0  0
  -26.8000  -15.6200   20.3920 N   0  0  0  0  0  0  0  0  0  0  0  0
  -26.1400  -16.3640   20.5850 H   0  0  0  0  0  0  0  0  0  0  0  0
  -27.6860  -15.9570   20.0410 H   0  0  0  0  0  0  0  0  0  0  0  0
  -25.3500  -20.4280   17.5080 C   0  0  0  0  0  2  0  0  0  0  0  0
  -24.6130  -21.0450   18.7070 C   0  0  0  0  0  2  0  0  0  0  0  0
  -24.3570  -22.5510   18.5490 C   0  0  0  0  0  2  0  0  0  0  0  0
  -23.7720  -23.0490   19.7450 O   0  0  0  0  0  0  0  0  0  0  0  0
  -24.4300  -24.1810   20.3180 C   0  0  0  0  0  2  0  0  0  0  0  0
  -25.6910  -23.7660   21.0970 C   0  0  0  0  0  0  0  0  0  0  0  0
  -26.8760  -23.9630   20.5030 N   0  0  0  0  0  0  0  0  0  0  0  0
  -25.5820  -23.2840   22.2270 O   0  0  0  0  0  0  0  0  0  0  0  0
  -26.8570  -24.3180   19.5590 H   0  0  0  0  0  0  0  0  0  0  0  0
  -28.1880  -23.8180   21.1340 C   0  0  0  0  0  2  0  0  0  0  0  0
  -28.8200  -25.1980   21.3750 C   0  0  0  0  0  2  0  0  0  0  0  0
  -29.2610  -25.9120   20.0820 C   0  0  0  0  0  2  0  0  0  0  0  0
  -29.1170  -27.3220   20.2190 O   0  0  0  0  0  0  0  0  0  0  0  0
  -24.7100  -31.9310   23.3200 C   0  0  0  0  0  0  0  0  0  0  0  0
  -27.8540  -27.8780   20.1860 C   0  0  0  0  0  0  0  0  0  0  0  0
  -23.6890  -30.5050   21.5760 C   0  0  0  0  0  3  0  0  0  0  0  0
  -25.3260  -29.1530   20.1600 C   0  0  0  0  0  0  0  0  0  0  0  0
  -26.1770  -31.0890   21.4950 C   0  0  0  0  0  2  0  0  0  0  0  0
  -26.4070  -29.7550   20.8120 C   0  0  0  0  0  0  0  0  0  0  0  0
  -27.6700  -29.1260   20.8230 C   0  0  0  0  0  3  0  0  0  0  0  0
  -26.7470  -27.2820   19.5330 C   0  0  0  0  0  3  0  0  0  0  0  0
  -25.4900  -27.9140   19.5190 C   0  0  0  0  0  3  0  0  0  0  0  0
  -24.0090  -29.8970   20.1830 C   0  0  0  0  0  2  0  0  0  0  0  0
  -24.8740  -31.1840   22.1920 N   0  0  0  0  0  0  0  0  0  0  0  0
  -23.5900  -32.0900   23.8240 O   0  0  0  0  0  0  0  0  0  0  0  0
  -23.0900  -29.3930   22.4670 C   0  0  0  0  0  0  0  0  0  0  0  0
  -21.7890  -29.1180   22.2860 N   0  0  0  0  0  0  0  0  0  0  0  0
  -23.7940  -28.7830   23.2760 O   0  0  0  0  0  0  0  0  0  0  0  0
  -21.2770  -29.6670   21.6110 H   0  0  0  0  0  0  0  0  0  0  0  0
  -18.5060  -27.6560   22.5930 C   0  0  0  0  0  0  0  0  0  0  0  0
  -21.0240  -28.0850   22.9810 C   0  0  0  0  0  3  0  0  0  0  0  0
  -21.2570  -26.7000   22.3350 C   0  0  0  0  0  2  0  0  0  0  0  0
  -20.2190  -26.3560   21.2650 C   0  0  0  0  0  2  0  0  0  0  0  0
  -18.8090  -26.3580   21.8640 C   0  0  0  0  0  2  0  0  0  0  0  0
  -19.5460  -28.4760   23.1030 C   0  0  0  0  0  0  0  0  0  0  0  0
  -19.2120  -29.6950   23.7330 C   0  0  0  0  0  3  0  0  0  0  0  0
  -17.8670  -30.0920   23.8650 C   0  0  0  0  0  3  0  0  0  0  0  0
  -16.8390  -29.2680   23.3740 C   0  0  0  0  0  3  0  0  0  0  0  0
  -17.1600  -28.0540   22.7410 C   0  0  0  0  0  3  0  0  0  0  0  0
  -25.9140  -32.6370   24.0160 C   0  0  0  0  0  3  0  0  0  0  0  0
  -26.3660  -31.9230   25.3480 C   0  0  1  0  0  0  0  0  0  0  0  0
  -25.2050  -31.6640   26.3370 C   0  0  0  0  0  1  0  0  0  0  0  0
  -27.0350  -30.5640   25.0370 C   0  0  0  0  0  1  0  0  0  0  0  0
  -27.4310  -32.7820   26.0690 C   0  0  0  0  0  1  0  0  0  0  0  0
  -25.5210  -34.0270   24.2770 N   0  0  0  0  0  0  0  0  0  0  0  0
  -25.8760  -35.0710   23.5150 C   0  0  0  0  0  0  0  0  0  0  0  0
  -26.6390  -34.9680   22.5490 O   0  0  0  0  0  0  0  0  0  0  0  0
  -24.8480  -34.1770   25.0130 H   0  0  0  0  0  0  0  0  0  0  0  0
  -24.1140  -36.7730   22.9510 C   0  0  0  0  0  1  0  0  0  0  0  0
  -25.2930  -36.4470   23.8840 C   0  0  0  0  0  3  0  0  0  0  0  0
  -27.3070  -37.4450   24.8720 C   0  0  0  0  0  1  0  0  0  0  0  0
  -26.2850  -37.5430   23.8320 N   0  0  0  0  0  0  0  0  0  0  0  0
  -25.8300  -38.4460   23.9200 H   0  0  0  0  0  0  0  0  0  0  0  0
  1 56  1  0
  2  1  1  0
  3  2  1  0
  3  5  1  0
  4  6  2  0
  4  8  1  0
  5  4  1  0
  7  5  1  0
  8  9  1  0
 10  9  1  0
 10 11  1  0
 11 12  1  0
 12 13  1  0
 14 13  1  0
 15 14  1  0
 16 15  1  0
 17 16  1  0
 18 24  1  0
 18 26  1  0
 19 24  1  0
 20 21  1  0
 20 19  1  0
 22 21  1  0
 22 31  1  0
 22 23  1  0
 24 23  1  0
 25 18  2  0
 26 17  1  0
 27 26  1  0
 28 29  2  0
 29 48  1  0
 30 33  1  0
 30 29  1  0
 31 32  1  0
 31 28  1  0
 32 30  2  0
 33 34  1  0
 34 35  2  0
 36 39  1  0
 36 35  1  0
 37 36  2  0
 38 37  1  0
 38 33  2  0
 39 40  1  0
 40 41  1  0
 41 42  2  0
 43 42  1  0
 43 47  1  0
 44 43  2  0
 45 40  2  0
 45 44  1  0
 46 45  1  0
 48 49  1  0
 49 52  1  0
 49 51  1  0
 50 48  2  0
 53 28  1  0
 53 54  1  0
 55 53  1  0
 56 57  1  0
 58 57  1  0
 58 59  1  0
 59 60  1  0
 60 61  1  0
 61 63  2  0
 62 61  1  0
 62 65  1  0
 64 62  1  0
 65 66  1  0
 67 68  1  0
 67 66  1  0
 69 80  2  0
 70 68  1  0
 70 75  1  0
 71 79  1  0
 71 81  1  0
 72 78  1  0
 72 74  1  0
 73 79  1  0
 74 75  2  0
 74 73  1  0
 76 70  2  0
 77 76  1  0
 77 72  2  0
 78 71  1  0
 79 69  1  0
 81 83  2  0
 82 81  1  0
 84 82  1  0
 85 94  2  0
 85 90  1  0
 86 82  1  0
 86 90  1  0
 87 86  1  0
 88 89  1  0
 88 87  1  0
 89 85  1  0
 90 91  2  0
 91 92  1  0
 93 92  2  0
 94 93  1  0
 95 69  1  0
 95100  1  0
 95 96  1  0
 96 99  1  1
 96 97  1  0
 98 96  1  0
100103  1  0
101105  1  0
101100  1  0
102101  2  0
105104  1  0
107105  1  0
107108  1  0
107106  1  0
M  ISO  4  18 100  26 100  67 101  68 101
M  END
>  <TORSDO>  (3) 
F 38

>  <SCORE>  (3) 
-7.287

>  <name>  (3) 
2

>  <ligand_id>  (3) 
2

>  <original_smiles>  (3) 
[H]c1c([H])c([H])c2c(c1[H])C([H])([H])C([H])([H])C([H])([H])C2([H])N([H])C(=O)C1([H])N(C(=O)C([H])(N([H])C(=O)C([H])(N([H])C([H])([H])[H])C([H])([H])[H])C(C([H])([H])[H])(C([H])([H])[H])C([H])([H])[H])C([H])([H])c2c([H])c(OC([H])([H])C([H])([H])C([H])([H])N([H])C(=O)C([H])([H])OC([H])([H])C([H])([H])C([H])([H])C([H])([H])C([H])([H])C([H])([H])N([H])C(=O)C([H])([H])OC([H])([H])C([H])([H])OC([H])([H])C([H])([H])OC([H])([H])C([H])([H])N([H])C(=O)N3C([H])([H])C([H])([H])C([H])([H])C([H])(n4nc(-c5c([H])c([H])c(Oc6c([H])c([H])c(F)c([H])c6F)c([H])c5[H])c(C(=O)N([H])[H])c4N([H])[H])C3([H])[H])c([H])c([H])c2C1([H])[H]

>  <smiles>  (3) 
[H]c1c([H])c([H])c2c(c1[H])C([H])([H])C([H])([H])C([H])([H])C2([H])N([H])C(=O)C1([H])N(C(=O)C([H])(N([H])C(=O)C([H])(N([H])C([H])([H])[H])C([H])([H])[H])C(C([H])([H])[H])(C([H])([H])[H])C([H])([H])[H])C([H])([H])c2c([H])c(OC([H])([H])C([H])([H])C([H])([H])N([H])C(=O)C([H])([H])OC([H])([H])C([H])([H])C([H])([H])C([H])([H])C([H])([H])C([H])([H])N([H])C(=O)C([H])([H])OC([H])([H])C([H])([H])OC([H])([H])C([H])([H])OC([H])([H])C([H])([H])N([H])C(=O)N3C([H])([H])C([H])([H])C([H])([H])C([H])(n4nc(-c5c([H])c([H])c(Oc6c([H])c([H])c(F)c([H])c6F)c([H])c5[H])c(C(=O)N([H])[H])c4N([H])[H])C3([H])[H])c([H])c([H])c2C1([H])[H]

$$$$
3:0:0
     RDKit          3D

 92 99  0  0  1  0  0  0  0  0999 V2000
  -28.8670  -20.7410   18.0910 C   0  0  0  0  0  0  0  0  0  0  0  0
  -29.1190  -19.4300   18.0060 N   0  0  0  0  0  0  0  0  0  0  0  0
  -27.7330  -21.2150   17.9600 O   0  0  0  0  0  0  0  0  0  0  0  0
  -30.0840  -19.1410   18.1020 H   0  0  0  0  0  0  0  0  0  0  0  0
  -30.0610  -21.6420   18.4170 C   0  0  0  0  0  2  0  0  0  0  0  0
  -29.6370  -23.0010   18.4970 O   0  0  0  0  0  0  0  0  0  0  0  0
  -30.5030  -23.7890   19.2970 C   0  0  0  0  0  2  0  0  0  0  0  0
  -30.0630  -25.2570   19.2800 C   0  0  0  0  0  2  0  0  0  0  0  0
  -28.5890  -25.4750   19.6650 C   0  0  0  0  0  2  0  0  0  0  0  0
  -28.4630  -26.8200   20.1140 O   0  0  0  0  0  0  0  0  0  0  0  0
  -24.6060  -31.8880   23.2310 C   0  0  0  0  0  0  0  0  0  0  0  0
  -27.2380  -27.4480   20.1430 C   0  0  0  0  0  0  0  0  0  0  0  0
  -23.3850  -30.4780   21.6040 C   0  0  0  0  0  3  0  0  0  0  0  0
  -24.8260  -28.9270   20.1860 C   0  0  0  0  0  0  0  0  0  0  0  0
  -25.9070  -30.8380   21.3840 C   0  0  0  0  0  2  0  0  0  0  0  0
  -25.9860  -29.4620   20.7560 C   0  0  0  0  0  0  0  0  0  0  0  0
  -27.1880  -28.7280   20.7340 C   0  0  0  0  0  3  0  0  0  0  0  0
  -26.0500  -26.9050   19.5950 C   0  0  0  0  0  3  0  0  0  0  0  0
  -24.8510  -27.6450   19.6090 C   0  0  0  0  0  3  0  0  0  0  0  0
  -23.5820  -29.7840   20.2300 C   0  0  0  0  0  2  0  0  0  0  0  0
  -24.6510  -31.0840   22.1320 N   0  0  0  0  0  0  0  0  0  0  0  0
  -23.5290  -32.1660   23.7770 O   0  0  0  0  0  0  0  0  0  0  0  0
  -22.7390  -29.4660   22.5760 C   0  0  0  0  0  0  0  0  0  0  0  0
  -21.4140  -29.2860   22.4560 N   0  0  0  0  0  0  0  0  0  0  0  0
  -23.4270  -28.8430   23.3890 O   0  0  0  0  0  0  0  0  0  0  0  0
  -20.9220  -29.8410   21.7700 H   0  0  0  0  0  0  0  0  0  0  0  0
  -18.0400  -28.1030   22.9690 C   0  0  0  0  0  0  0  0  0  0  0  0
  -20.5990  -28.3550   23.2350 C   0  0  0  0  0  3  0  0  0  0  0  0
  -20.6980  -26.9210   22.6670 C   0  0  0  0  0  2  0  0  0  0  0  0
  -19.5930  -26.5950   21.6580 C   0  0  0  0  0  2  0  0  0  0  0  0
  -18.2120  -26.7470   22.3040 C   0  0  0  0  0  2  0  0  0  0  0  0
  -19.1610  -28.8650   23.3920 C   0  0  0  0  0  0  0  0  0  0  0  0
  -18.9490  -30.1340   23.9720 C   0  0  0  0  0  3  0  0  0  0  0  0
  -17.6450  -30.6410   24.1360 C   0  0  0  0  0  3  0  0  0  0  0  0
  -16.5380  -29.8750   23.7300 C   0  0  0  0  0  3  0  0  0  0  0  0
  -16.7370  -28.6090   23.1530 C   0  0  0  0  0  3  0  0  0  0  0  0
  -25.8980  -32.5180   23.8400 C   0  0  0  0  0  3  0  0  0  0  0  0
  -26.4350  -31.7400   25.1030 C   0  0  1  0  0  0  0  0  0  0  0  0
  -25.3580  -31.4940   26.1840 C   0  0  0  0  0  1  0  0  0  0  0  0
  -27.0140  -30.3670   24.6910 C   0  0  0  0  0  1  0  0  0  0  0  0
  -27.5940  -32.5320   25.7540 C   0  0  0  0  0  1  0  0  0  0  0  0
  -25.5920  -33.9140   24.1800 N   0  0  0  0  0  0  0  0  0  0  0  0
  -25.9150  -34.9690   23.4220 C   0  0  0  0  0  0  0  0  0  0  0  0
  -26.5760  -34.8720   22.3830 O   0  0  0  0  0  0  0  0  0  0  0  0
  -25.0040  -34.0640   24.9880 H   0  0  0  0  0  0  0  0  0  0  0  0
  -24.1760  -36.7570   23.0940 C   0  0  0  0  0  1  0  0  0  0  0  0
  -25.4290  -36.3550   23.8900 C   0  0  0  0  0  3  0  0  0  0  0  0
  -27.5730  -37.2380   24.6940 C   0  0  0  0  0  1  0  0  0  0  0  0
  -26.4570  -37.4110   23.7690 N   0  0  0  0  0  0  0  0  0  0  0  0
  -26.0510  -38.3290   23.9290 H   0  0  0  0  0  0  0  0  0  0  0  0
  -28.1150  -18.3760   17.9230 C   0  0  0  0  0  2  0  0  0  0  0  0
  -27.9670  -17.6610   19.2770 C   0  0  0  0  0  2  0  0  0  0  0  0
  -29.2010  -16.8280   19.6610 C   0  0  0  0  0  2  0  0  0  0  0  0
  -29.1080  -16.2030   21.0720 C   0  0  0  0  0  2  0  0  0  0  0  0
  -30.7310  -14.3890   20.5730 C   0  0  0  0  0  0  0  0  0  0  0  0
  -30.3600  -12.2880   19.3380 C   0  0  0  0  0  2  0  0  0  0  0  0
  -29.4210  -12.5160   18.1390 C   0  0  0  0  0  2  0  0  0  0  0  0
  -27.9450  -12.3930   18.5650 C   0  0  0  0  0  2  0  0  0  0  0  0
  -27.6200  -13.2230   19.8340 C   0  0  0  0  0  3  0  0  0  0  0  0
  -28.6690  -12.9660   20.9400 C   0  0  0  0  0  2  0  0  0  0  0  0
  -30.0000  -13.2570   20.3830 N   0  0  0  0  0  0  0  0  0  0  0  0
  -31.8290  -14.5790   20.0520 O   0  0  0  0  0  0  0  0  0  0  0  0
  -30.2330  -15.3190   21.3970 N   0  0  0  0  0  0  0  0  0  0  0  0
  -30.9840  -15.8440   21.8250 H   0  0  0  0  0  0  0  0  0  0  0  0
  -25.2200  -13.8630   20.5200 C   0  0  0  0  0  0  0  0  0  0  0  0
  -24.1420  -13.1040   20.8820 C   0  0  0  0  0  0  0  0  0  0  0  0
  -24.5930  -11.7490   20.8700 C   0  0  0  0  0  0  0  0  0  0  0  0
  -26.2610  -12.9710   20.3070 N   0  0  0  0  0  0  0  0  0  0  0  0
  -25.8860  -11.6960   20.5760 N   0  0  0  0  0  0  0  0  0  0  0  0
  -23.8560  -10.4950   21.0670 C   0  0  0  0  0  0  0  0  0  0  0  0
  -24.2960   -9.5180   21.9870 C   0  0  0  0  0  3  0  0  0  0  0  0
  -23.5600   -8.3280   22.1730 C   0  0  0  0  0  3  0  0  0  0  0  0
  -22.3700   -8.1080   21.4380 C   0  0  0  0  0  0  0  0  0  0  0  0
  -21.9520   -9.0720   20.5050 C   0  0  0  0  0  3  0  0  0  0  0  0
  -22.6880  -10.2540   20.3190 C   0  0  0  0  0  3  0  0  0  0  0  0
  -21.6050   -6.9690   21.5320 O   0  0  0  0  0  0  0  0  0  0  0  0
  -21.5930   -6.2050   22.6700 C   0  0  0  0  0  0  0  0  0  0  0  0
  -21.2440   -6.7440   23.9280 C   0  0  0  0  0  3  0  0  0  0  0  0
  -21.1750   -5.9080   25.0590 C   0  0  0  0  0  3  0  0  0  0  0  0
  -21.4430   -4.5320   24.9350 C   0  0  0  0  0  0  0  0  0  0  0  0
  -21.7830   -3.9900   23.6840 C   0  0  0  0  0  3  0  0  0  0  0  0
  -21.8550   -4.8250   22.5540 C   0  0  0  0  0  0  0  0  0  0  0  0
  -22.1630   -4.2950   21.3460 F   0  0  0  0  0  0  0  0  0  0  0  0
  -21.3680   -3.7270   26.0200 F   0  0  0  0  0  0  0  0  0  0  0  0
  -22.7470  -13.5970   21.1390 C   0  0  0  0  0  0  0  0  0  0  0  0
  -22.0080  -12.9190   22.0110 N   0  0  0  0  0  0  0  0  0  0  0  0
  -22.3210  -14.6180   20.6010 O   0  0  0  0  0  0  0  0  0  0  0  0
  -22.3670  -12.0940   22.4680 H   0  0  0  0  0  0  0  0  0  0  0  0
  -21.0710  -13.2290   22.2220 H   0  0  0  0  0  0  0  0  0  0  0  0
  -25.3970  -15.2290   20.3370 N   0  0  0  0  0  0  0  0  0  0  0  0
  -24.6330  -15.8920   20.4130 H   0  0  0  0  0  0  0  0  0  0  0  0
  -26.2700  -15.6550   20.0620 H   0  0  0  0  0  0  0  0  0  0  0  0
  1  5  1  0
  2  1  1  0
  2  4  1  0
  3  1  2  0
  5  6  1  0
  6  7  1  0
  8  7  1  0
  8  9  1  0
  9 10  1  0
 10 12  1  0
 11 22  2  0
 12 17  1  0
 13 21  1  0
 13 23  1  0
 14 20  1  0
 14 16  1  0
 15 21  1  0
 16 15  1  0
 17 16  2  0
 18 19  1  0
 18 12  2  0
 19 14  2  0
 20 13  1  0
 21 11  1  0
 23 25  2  0
 24 23  1  0
 26 24  1  0
 27 36  2  0
 27 32  1  0
 28 24  1  0
 28 32  1  0
 29 28  1  0
 30 31  1  0
 30 29  1  0
 31 27  1  0
 32 33  2  0
 33 34  1  0
 35 34  2  0
 36 35  1  0
 37 11  1  0
 37 42  1  0
 37 38  1  0
 38 41  1  1
 38 39  1  0
 40 38  1  0
 42 45  1  0
 43 47  1  0
 43 42  1  0
 44 43  2  0
 47 46  1  0
 49 47  1  0
 49 50  1  0
 49 48  1  0
 51  2  1  0
 51 52  1  0
 52 53  1  0
 53 54  1  0
 54 63  1  0
 55 63  1  0
 56 61  1  0
 57 58  1  0
 57 56  1  0
 59 58  1  0
 59 68  1  0
 59 60  1  0
 61 55  1  0
 61 60  1  0
 62 55  2  0
 63 64  1  0
 65 66  2  0
 66 85  1  0
 67 66  1  0
 67 70  1  0
 68 65  1  0
 68 69  1  0
 69 67  2  0
 70 71  1  0
 71 72  2  0
 73 76  1  0
 73 72  1  0
 74 73  2  0
 75 74  1  0
 75 70  2  0
 76 77  1  0
 77 78  1  0
 78 79  2  0
 80 79  1  0
 80 84  1  0
 81 80  2  0
 82 77  2  0
 82 81  1  0
 83 82  1  0
 85 86  1  0
 86 89  1  0
 86 88  1  0
 87 85  2  0
 90 91  1  0
 90 65  1  0
 92 90  1  0
M  ISO  4   9 101  10 101  55 100  63 100
M  END
>  <TORSDO>  (4) 
F 25

>  <SCORE>  (4) 
-12.187

>  <name>  (4) 
3

>  <ligand_id>  (4) 
3

>  <original_smiles>  (4) 
[H]c1c([H])c([H])c2c(c1[H])C([H])([H])C([H])([H])C([H])([H])C2([H])N([H])C(=O)C1([H])N(C(=O)C([H])(N([H])C(=O)C([H])(N([H])C([H])([H])[H])C([H])([H])[H])C(C([H])([H])[H])(C([H])([H])[H])C([H])([H])[H])C([H])([H])c2c([H])c(OC([H])([H])C([H])([H])C([H])([H])OC([H])([H])C(=O)N([H])C([H])([H])C([H])([H])C([H])([H])C([H])([H])N([H])C(=O)N3C([H])([H])C([H])([H])C([H])([H])C([H])(n4nc(-c5c([H])c([H])c(Oc6c([H])c([H])c(F)c([H])c6F)c([H])c5[H])c(C(=O)N([H])[H])c4N([H])[H])C3([H])[H])c([H])c([H])c2C1([H])[H]

>  <smiles>  (4) 
[H]c1c([H])c([H])c2c(c1[H])C([H])([H])C([H])([H])C([H])([H])C2([H])N([H])C(=O)C1([H])N(C(=O)C([H])(N([H])C(=O)C([H])(N([H])C([H])([H])[H])C([H])([H])[H])C(C([H])([H])[H])(C([H])([H])[H])C([H])([H])[H])C([H])([H])c2c([H])c(OC([H])([H])C([H])([H])C([H])([H])OC([H])([H])C(=O)N([H])C([H])([H])C([H])([H])C([H])([H])C([H])([H])N([H])C(=O)N3C([H])([H])C([H])([H])C([H])([H])C([H])(n4nc(-c5c([H])c([H])c(Oc6c([H])c([H])c(F)c([H])c6F)c([H])c5[H])c(C(=O)N([H])[H])c4N([H])[H])C3([H])[H])c([H])c([H])c2C1([H])[H]

$$$$
4:0:0
     RDKit          3D

114121  0  0  1  0  0  0  0  0999 V2000
  -29.7880  -19.0880   21.9230 C   0  0  0  0  0  2  0  0  0  0  0  0
  -31.0550  -19.9140   22.2000 C   0  0  0  0  0  2  0  0  0  0  0  0
  -32.3270  -19.0590   22.3740 C   0  0  0  0  0  2  0  0  0  0  0  0
  -33.8130  -17.8500   20.7170 C   0  0  0  0  0  0  0  0  0  0  0  0
  -32.6700  -18.4260   21.1040 N   0  0  0  0  0  0  0  0  0  0  0  0
  -33.9200  -17.4120   19.5730 O   0  0  0  0  0  0  0  0  0  0  0  0
  -31.9870  -18.5280   20.3620 H   0  0  0  0  0  0  0  0  0  0  0  0
  -35.0220  -17.7370   21.6570 C   0  0  0  0  0  2  0  0  0  0  0  0
  -36.1950  -18.0990   20.9300 O   0  0  0  0  0  0  0  0  0  0  0  0
  -36.7650  -19.3780   21.2000 C   0  0  0  0  0  2  0  0  0  0  0  0
  -35.8060  -20.5910   21.1710 C   0  0  0  0  0  2  0  0  0  0  0  0
  -35.1570  -20.7110   19.9070 O   0  0  0  0  0  0  0  0  0  0  0  0
  -34.1750  -21.7530   19.8790 C   0  0  0  0  0  2  0  0  0  0  0  0
  -33.2440  -21.5960   18.6670 C   0  0  0  0  0  2  0  0  0  0  0  0
  -32.4970  -20.4010   18.8190 O   0  0  0  0  0  0  0  0  0  0  0  0
  -31.5820  -20.1710   17.7610 C   0  0  0  0  0  2  0  0  0  0  0  0
  -31.4050  -18.6610   17.6300 C   0  0  0  0  0  2  0  0  0  0  0  0
  -30.6260  -18.1920   18.7200 O   0  0  0  0  0  0  0  0  0  0  0  0
  -30.4070  -16.8000   18.5980 C   0  0  0  0  0  2  0  0  0  0  0  0
  -29.4470  -16.3040   19.6940 C   0  0  0  0  0  2  0  0  0  0  0  0
  -30.7590  -14.4250   20.5240 C   0  0  0  0  0  0  0  0  0  0  0  0
  -30.4000  -12.2930   19.3580 C   0  0  0  0  0  2  0  0  0  0  0  0
  -29.4340  -12.4770   18.1730 C   0  0  0  0  0  2  0  0  0  0  0  0
  -27.9780  -12.2880   18.6310 C   0  0  0  0  0  2  0  0  0  0  0  0
  -27.6420  -13.1420   19.8740 C   0  0  0  0  0  3  0  0  0  0  0  0
  -28.7220  -13.0180   20.9770 C   0  0  0  0  0  2  0  0  0  0  0  0
  -30.0300  -13.2920   20.3690 N   0  0  0  0  0  0  0  0  0  0  0  0
  -31.9480  -14.5140   20.2370 O   0  0  0  0  0  0  0  0  0  0  0  0
  -30.0860  -15.5490   20.7870 N   0  0  0  0  0  0  0  0  0  0  0  0
  -30.6690  -16.1630   21.3400 H   0  0  0  0  0  0  0  0  0  0  0  0
  -25.2620  -13.7970   20.5860 C   0  0  0  0  0  0  0  0  0  0  0  0
  -24.1840  -13.0360   20.9280 C   0  0  0  0  0  0  0  0  0  0  0  0
  -24.6340  -11.6820   20.8890 C   0  0  0  0  0  0  0  0  0  0  0  0
  -26.2990  -12.9020   20.3630 N   0  0  0  0  0  0  0  0  0  0  0  0
  -25.9260  -11.6280   20.6080 N   0  0  0  0  0  0  0  0  0  0  0  0
  -23.9010  -10.4250   21.0500 C   0  0  0  0  0  0  0  0  0  0  0  0
  -24.3600   -9.4150   21.9200 C   0  0  0  0  0  3  0  0  0  0  0  0
  -23.6310   -8.2170   22.0730 C   0  0  0  0  0  3  0  0  0  0  0  0
  -22.4260   -8.0260   21.3560 C   0  0  0  0  0  0  0  0  0  0  0  0
  -21.9900   -9.0230   20.4660 C   0  0  0  0  0  3  0  0  0  0  0  0
  -22.7220  -10.2130   20.3080 C   0  0  0  0  0  3  0  0  0  0  0  0
  -21.6620   -6.8870   21.4260 O   0  0  0  0  0  0  0  0  0  0  0  0
  -21.6850   -6.0740   22.5300 C   0  0  0  0  0  0  0  0  0  0  0  0
  -21.4010   -6.5640   23.8220 C   0  0  0  0  0  3  0  0  0  0  0  0
  -21.3630   -5.6780   24.9160 C   0  0  0  0  0  3  0  0  0  0  0  0
  -21.6020   -4.3030   24.7210 C   0  0  0  0  0  0  0  0  0  0  0  0
  -21.8850   -3.8160   23.4320 C   0  0  0  0  0  3  0  0  0  0  0  0
  -21.9220   -4.6990   22.3390 C   0  0  0  0  0  0  0  0  0  0  0  0
  -22.1660   -4.2190   21.0950 F   0  0  0  0  0  0  0  0  0  0  0  0
  -21.5640   -3.4520   25.7700 F   0  0  0  0  0  0  0  0  0  0  0  0
  -22.7870  -13.5230   21.1860 C   0  0  0  0  0  0  0  0  0  0  0  0
  -22.0490  -12.8240   22.0400 N   0  0  0  0  0  0  0  0  0  0  0  0
  -22.3570  -14.5500   20.6600 O   0  0  0  0  0  0  0  0  0  0  0  0
  -22.4190  -11.9890   22.4730 H   0  0  0  0  0  0  0  0  0  0  0  0
  -21.1080  -13.1170   22.2590 H   0  0  0  0  0  0  0  0  0  0  0  0
  -25.4510  -15.1670   20.4230 N   0  0  0  0  0  0  0  0  0  0  0  0
  -24.7080  -15.8390   20.5730 H   0  0  0  0  0  0  0  0  0  0  0  0
  -26.3270  -15.5940   20.1640 H   0  0  0  0  0  0  0  0  0  0  0  0
  -28.6180  -19.8790   21.3010 C   0  0  0  0  0  2  0  0  0  0  0  0
  -27.7730  -20.6860   22.2880 C   0  0  0  0  0  0  0  0  0  0  0  0
  -26.4540  -20.6510   22.0750 N   0  0  0  0  0  0  0  0  0  0  0  0
  -28.2990  -21.3540   23.1830 O   0  0  0  0  0  0  0  0  0  0  0  0
  -26.1270  -20.0170   21.3560 H   0  0  0  0  0  0  0  0  0  0  0  0
  -25.4530  -21.5470   22.6470 C   0  0  0  0  0  2  0  0  0  0  0  0
  -25.2640  -22.8230   21.8000 C   0  0  0  0  0  2  0  0  0  0  0  0
  -24.9760  -22.5760   20.3020 C   0  0  0  0  0  2  0  0  0  0  0  0
  -26.2480  -22.3830   19.4480 C   0  0  0  0  0  2  0  0  0  0  0  0
  -26.1720  -23.0010   18.0370 C   0  0  0  0  0  2  0  0  0  0  0  0
  -27.5270  -22.9480   17.2920 C   0  0  0  0  0  2  0  0  0  0  0  0
  -27.7520  -24.0320   16.2150 C   0  0  0  0  0  2  0  0  0  0  0  0
  -27.6680  -25.5100   16.6660 C   0  0  0  0  0  2  0  0  0  0  0  0
  -28.7410  -26.0320   17.6570 C   0  0  0  0  0  2  0  0  0  0  0  0
  -28.5750  -25.6390   19.1450 C   0  0  0  0  0  2  0  0  0  0  0  0
  -28.4390  -26.7730   20.0100 O   0  0  0  0  0  0  0  0  0  0  0  0
  -24.6200  -31.8670   23.2120 C   0  0  0  0  0  0  0  0  0  0  0  0
  -27.2360  -27.4520   20.0600 C   0  0  0  0  0  0  0  0  0  0  0  0
  -23.4040  -30.4940   21.5530 C   0  0  0  0  0  3  0  0  0  0  0  0
  -24.8420  -28.9540   20.1270 C   0  0  0  0  0  0  0  0  0  0  0  0
  -25.9330  -30.8300   21.3630 C   0  0  0  0  0  2  0  0  0  0  0  0
  -26.0040  -29.4610   20.7200 C   0  0  0  0  0  0  0  0  0  0  0  0
  -27.2010  -28.7120   20.6940 C   0  0  0  0  0  3  0  0  0  0  0  0
  -26.0430  -26.9430   19.5030 C   0  0  0  0  0  3  0  0  0  0  0  0
  -24.8510  -27.6860   19.5260 C   0  0  0  0  0  3  0  0  0  0  0  0
  -23.6140  -29.8320   20.1660 C   0  0  0  0  0  2  0  0  0  0  0  0
  -24.6710  -31.0810   22.1000 N   0  0  0  0  0  0  0  0  0  0  0  0
  -23.5400  -32.1390   23.7560 O   0  0  0  0  0  0  0  0  0  0  0  0
  -22.7440  -29.4650   22.5000 C   0  0  0  0  0  0  0  0  0  0  0  0
  -21.4160  -29.3050   22.3750 N   0  0  0  0  0  0  0  0  0  0  0  0
  -23.4230  -28.8160   23.2980 O   0  0  0  0  0  0  0  0  0  0  0  0
  -20.9330  -29.8900   21.7070 H   0  0  0  0  0  0  0  0  0  0  0  0
  -18.0290  -28.1390   22.8470 C   0  0  0  0  0  0  0  0  0  0  0  0
  -20.5870  -28.3660   23.1310 C   0  0  0  0  0  3  0  0  0  0  0  0
  -20.6770  -26.9400   22.5390 C   0  0  0  0  0  2  0  0  0  0  0  0
  -19.5760  -26.6390   21.5200 C   0  0  0  0  0  2  0  0  0  0  0  0
  -18.1930  -26.7920   22.1620 C   0  0  0  0  0  2  0  0  0  0  0  0
  -19.1530  -28.8840   23.2870 C   0  0  0  0  0  0  0  0  0  0  0  0
  -18.9470  -30.1450   23.8900 C   0  0  0  0  0  3  0  0  0  0  0  0
  -17.6460  -30.6570   24.0570 C   0  0  0  0  0  3  0  0  0  0  0  0
  -16.5350  -29.9100   23.6320 C   0  0  0  0  0  3  0  0  0  0  0  0
  -16.7270  -28.6520   23.0300 C   0  0  0  0  0  3  0  0  0  0  0  0
  -25.9100  -32.4790   23.8400 C   0  0  0  0  0  3  0  0  0  0  0  0
  -25.5960  -33.8580   24.2330 N   0  0  0  0  0  0  0  0  0  0  0  0
  -25.9040  -34.9450   23.5090 C   0  0  0  0  0  0  0  0  0  0  0  0
  -26.5570  -34.8920   22.4640 O   0  0  0  0  0  0  0  0  0  0  0  0
  -25.0190  -33.9750   25.0520 H   0  0  0  0  0  0  0  0  0  0  0  0
  -24.1500  -36.7360   23.2620 C   0  0  0  0  0  1  0  0  0  0  0  0
  -25.4100  -36.3090   24.0310 C   0  0  0  0  0  3  0  0  0  0  0  0
  -27.5570  -37.1810   24.8450 C   0  0  0  0  0  1  0  0  0  0  0  0
  -26.4270  -37.3780   23.9410 N   0  0  0  0  0  0  0  0  0  0  0  0
  -26.0140  -38.2840   24.1420 H   0  0  0  0  0  0  0  0  0  0  0  0
  -26.4530  -31.6570   25.0730 C   0  0  1  0  0  0  0  0  0  0  0  0
  -25.3870  -31.3690   26.1540 C   0  0  0  0  0  1  0  0  0  0  0  0
  -27.0290  -30.2990   24.6070 C   0  0  0  0  0  1  0  0  0  0  0  0
  -27.6080  -32.4290   25.7540 C   0  0  0  0  0  1  0  0  0  0  0  0
  1  2  1  0
  2  3  1  0
  4  5  1  0
  4  8  1  0
  5  3  1  0
  6  4  2  0
  7  5  1  0
  9 10  1  0
  9  8  1  0
 11 10  1  0
 12 11  1  0
 13 12  1  0
 14 15  1  0
 14 13  1  0
 16 15  1  0
 17 16  1  0
 17 18  1  0
 19 18  1  0
 19 20  1  0
 20 29  1  0
 21 29  1  0
 22 27  1  0
 23 24  1  0
 23 22  1  0
 25 24  1  0
 25 34  1  0
 25 26  1  0
 27 21  1  0
 27 26  1  0
 28 21  2  0
 29 30  1  0
 31 32  2  0
 32 51  1  0
 33 32  1  0
 33 36  1  0
 34 31  1  0
 34 35  1  0
 35 33  2  0
 36 37  1  0
 37 38  2  0
 39 42  1  0
 39 38  1  0
 40 39  2  0
 41 40  1  0
 41 36  2  0
 42 43  1  0
 43 44  1  0
 44 45  2  0
 46 45  1  0
 46 50  1  0
 47 46  2  0
 48 43  2  0
 48 47  1  0
 49 48  1  0
 51 52  1  0
 52 55  1  0
 52 54  1  0
 53 51  2  0
 56 57  1  0
 56 31  1  0
 58 56  1  0
 59  1  1  0
 59 60  1  0
 60 62  2  0
 61 60  1  0
 61 64  1  0
 63 61  1  0
 65 64  1  0
 66 65  1  0
 67 66  1  0
 68 67  1  0
 69 68  1  0
 70 71  1  0
 70 69  1  0
 71 72  1  0
 72 73  1  0
 73 74  1  0
 74 76  1  0
 75 86  2  0
 76 81  1  0
 77 85  1  0
 77 87  1  0
 78 84  1  0
 78 80  1  0
 79 85  1  0
 80 79  1  0
 81 80  2  0
 82 83  1  0
 82 76  2  0
 83 78  2  0
 84 77  1  0
 85 75  1  0
 87 89  2  0
 88 87  1  0
 90 88  1  0
 91100  2  0
 91 96  1  0
 92 88  1  0
 92 96  1  0
 93 92  1  0
 94 95  1  0
 94 93  1  0
 95 91  1  0
 96 97  2  0
 97 98  1  0
 99 98  2  0
100 99  1  0
101 75  1  0
101102  1  0
101111  1  0
102105  1  0
103107  1  0
103102  1  0
104103  2  0
107106  1  0
109107  1  0
109110  1  0
109108  1  0
111114  1  1
111112  1  0
113111  1  0
M  ISO  4  21 100  29 100  73 101  74 101
M  END
>  <TORSDO>  (5) 
F 44

>  <SCORE>  (5) 
4.438

>  <name>  (5) 
4

>  <ligand_id>  (5) 
4

>  <original_smiles>  (5) 
[H]c1c([H])c([H])c2c(c1[H])C([H])([H])C([H])([H])C([H])([H])C2([H])N([H])C(=O)C1([H])N(C(=O)C([H])(N([H])C(=O)C([H])(N([H])C([H])([H])[H])C([H])([H])[H])C(C([H])([H])[H])(C([H])([H])[H])C([H])([H])[H])C([H])([H])c2c([H])c(OC([H])([H])C([H])([H])C([H])([H])C([H])([H])C([H])([H])C([H])([H])C([H])([H])C([H])([H])C([H])([H])C([H])([H])N([H])C(=O)C([H])([H])C([H])([H])C([H])([H])C([H])([H])N([H])C(=O)C([H])([H])OC([H])([H])C([H])([H])OC([H])([H])C([H])([H])OC([H])([H])C([H])([H])OC([H])([H])C([H])([H])N([H])C(=O)N3C([H])([H])C([H])([H])C([H])([H])C([H])(n4nc(-c5c([H])c([H])c(Oc6c([H])c([H])c(F)c([H])c6F)c([H])c5[H])c(C(=O)N([H])[H])c4N([H])[H])C3([H])[H])c([H])c([H])c2C1([H])[H]

>  <smiles>  (5) 
[H]c1c([H])c([H])c2c(c1[H])C([H])([H])C([H])([H])C([H])([H])C2([H])N([H])C(=O)C1([H])N(C(=O)C([H])(N([H])C(=O)C([H])(N([H])C([H])([H])[H])C([H])([H])[H])C(C([H])([H])[H])(C([H])([H])[H])C([H])([H])[H])C([H])([H])c2c([H])c(OC([H])([H])C([H])([H])C([H])([H])C([H])([H])C([H])([H])C([H])([H])C([H])([H])C([H])([H])C([H])([H])C([H])([H])N([H])C(=O)C([H])([H])C([H])([H])C([H])([H])C([H])([H])N([H])C(=O)C([H])([H])OC([H])([H])C([H])([H])OC([H])([H])C([H])([H])OC([H])([H])C([H])([H])OC([H])([H])C([H])([H])N([H])C(=O)N3C([H])([H])C([H])([H])C([H])([H])C([H])(n4nc(-c5c([H])c([H])c(Oc6c([H])c([H])c(F)c([H])c6F)c([H])c5[H])c(C(=O)N([H])[H])c4N([H])[H])C3([H])[H])c([H])c([H])c2C1([H])[H]

$$$$
5:0:0
     RDKit          3D

101108  0  0  1  0  0  0  0  0999 V2000
  -22.2330  -20.5580   24.1740 C   0  0  0  0  0  2  0  0  0  0  0  0
  -22.9460  -21.2620   23.1640 O   0  0  0  0  0  0  0  0  0  0  0  0
  -23.9940  -22.1000   23.6360 C   0  0  0  0  0  2  0  0  0  0  0  0
  -24.8700  -22.4720   22.4350 C   0  0  0  0  0  2  0  0  0  0  0  0
  -26.0580  -23.3830   22.7980 C   0  0  0  0  0  2  0  0  0  0  0  0
  -26.8630  -23.7040   21.5990 N   0  0  0  0  0  4  0  0  0  0  0  0
  -26.2220  -23.8030   20.8260 H   0  0  0  0  0  0  0  0  0  0  0  0
  -27.4620  -22.9190   21.3910 H   0  0  0  0  0  0  0  0  0  0  0  0
  -27.6640  -24.9480   21.6970 C   0  0  0  0  0  2  0  0  0  0  0  0
  -28.3030  -25.3280   20.3370 C   0  0  0  0  0  2  0  0  0  0  0  0
  -28.4080  -26.7440   20.1480 O   0  0  0  0  0  0  0  0  0  0  0  0
  -24.6110  -31.8720   23.2120 C   0  0  0  0  0  0  0  0  0  0  0  0
  -27.2340  -27.4650   20.0960 C   0  0  0  0  0  0  0  0  0  0  0  0
  -23.3980  -30.4960   21.5520 C   0  0  0  0  0  3  0  0  0  0  0  0
  -24.8450  -28.9740   20.1090 C   0  0  0  0  0  0  0  0  0  0  0  0
  -25.9240  -30.8510   21.3570 C   0  0  0  0  0  2  0  0  0  0  0  0
  -26.0020  -29.4890   20.7040 C   0  0  0  0  0  0  0  0  0  0  0  0
  -27.1990  -28.7430   20.6930 C   0  0  0  0  0  3  0  0  0  0  0  0
  -26.0600  -26.9640   19.4840 C   0  0  0  0  0  3  0  0  0  0  0  0
  -24.8690  -27.7130   19.4900 C   0  0  0  0  0  3  0  0  0  0  0  0
  -23.6020  -29.8350   20.1640 C   0  0  0  0  0  2  0  0  0  0  0  0
  -24.6630  -31.0850   22.1000 N   0  0  0  0  0  0  0  0  0  0  0  0
  -23.5300  -32.1450   23.7530 O   0  0  0  0  0  0  0  0  0  0  0  0
  -22.7390  -29.4670   22.4990 C   0  0  0  0  0  0  0  0  0  0  0  0
  -21.4120  -29.3060   22.3740 N   0  0  0  0  0  0  0  0  0  0  0  0
  -23.4170  -28.8170   23.3000 O   0  0  0  0  0  0  0  0  0  0  0  0
  -20.9280  -29.8820   21.6990 H   0  0  0  0  0  0  0  0  0  0  0  0
  -18.0260  -28.1380   22.8490 C   0  0  0  0  0  0  0  0  0  0  0  0
  -20.5840  -28.3680   23.1300 C   0  0  0  0  0  3  0  0  0  0  0  0
  -20.6760  -26.9410   22.5400 C   0  0  0  0  0  2  0  0  0  0  0  0
  -19.5730  -26.6340   21.5220 C   0  0  0  0  0  2  0  0  0  0  0  0
  -18.1930  -26.7900   22.1670 C   0  0  0  0  0  2  0  0  0  0  0  0
  -19.1510  -28.8860   23.2890 C   0  0  0  0  0  0  0  0  0  0  0  0
  -18.9450  -30.1460   23.8900 C   0  0  0  0  0  3  0  0  0  0  0  0
  -17.6450  -30.6600   24.0550 C   0  0  0  0  0  3  0  0  0  0  0  0
  -16.5340  -29.9100   23.6310 C   0  0  0  0  0  3  0  0  0  0  0  0
  -16.7250  -28.6500   23.0340 C   0  0  0  0  0  3  0  0  0  0  0  0
  -25.9000  -32.4850   23.8420 C   0  0  0  0  0  3  0  0  0  0  0  0
  -26.4440  -31.6600   25.0730 C   0  0  1  0  0  0  0  0  0  0  0  0
  -25.3700  -31.3690   26.1470 C   0  0  0  0  0  1  0  0  0  0  0  0
  -27.0250  -30.3050   24.6060 C   0  0  0  0  0  1  0  0  0  0  0  0
  -27.6050  -32.4290   25.7480 C   0  0  0  0  0  1  0  0  0  0  0  0
  -25.5870  -33.8650   24.2360 N   0  0  0  0  0  0  0  0  0  0  0  0
  -25.9030  -34.9500   23.5160 C   0  0  0  0  0  0  0  0  0  0  0  0
  -26.5590  -34.8940   22.4730 O   0  0  0  0  0  0  0  0  0  0  0  0
  -25.0010  -33.9830   25.0500 H   0  0  0  0  0  0  0  0  0  0  0  0
  -24.1490  -36.7340   23.2640 C   0  0  0  0  0  1  0  0  0  0  0  0
  -25.4100  -36.3150   24.0360 C   0  0  0  0  0  3  0  0  0  0  0  0
  -27.5580  -37.1820   24.8460 C   0  0  0  0  0  1  0  0  0  0  0  0
  -26.4300  -37.3810   23.9410 N   0  0  0  0  0  0  0  0  0  0  0  0
  -26.0220  -38.2910   24.1380 H   0  0  0  0  0  0  0  0  0  0  0  0
  -23.0910  -19.4000   24.7130 C   0  0  0  0  0  2  0  0  0  0  0  0
  -22.2720  -18.2320   25.2890 C   0  0  0  0  0  2  0  0  0  0  0  0
  -23.1690  -17.1080   25.8190 C   0  0  0  0  0  2  0  0  0  0  0  0
  -23.9990  -16.6730   24.7540 O   0  0  0  0  0  0  0  0  0  0  0  0
  -25.0170  -15.7690   25.1480 C   0  0  0  0  0  2  0  0  0  0  0  0
  -26.1410  -15.8790   24.1150 C   0  0  0  0  0  2  0  0  0  0  0  0
  -27.3850  -15.0790   24.5150 C   0  0  0  0  0  2  0  0  0  0  0  0
  -29.7850  -15.3660   23.8960 C   0  0  0  0  0  0  0  0  0  0  0  0
  -28.4820  -15.3540   23.5950 N   0  0  0  0  0  0  0  0  0  0  0  0
  -30.2110  -15.1630   25.0320 O   0  0  0  0  0  0  0  0  0  0  0  0
  -28.2500  -15.5220   22.6250 H   0  0  0  0  0  0  0  0  0  0  0  0
  -30.7580  -15.6170   22.7430 C   0  0  0  0  0  2  0  0  0  0  0  0
  -30.7430  -14.3840   20.6480 C   0  0  0  0  0  0  0  0  0  0  0  0
  -30.4180  -12.2900   19.3880 C   0  0  0  0  0  2  0  0  0  0  0  0
  -29.4790  -12.5210   18.1880 C   0  0  0  0  0  2  0  0  0  0  0  0
  -28.0020  -12.3820   18.6060 C   0  0  0  0  0  2  0  0  0  0  0  0
  -27.6650  -13.1970   19.8810 C   0  0  0  0  0  3  0  0  0  0  0  0
  -28.7090  -12.9220   20.9830 C   0  0  0  0  0  2  0  0  0  0  0  0
  -30.0420  -13.2400   20.4430 N   0  0  0  0  0  0  0  0  0  0  0  0
  -31.8170  -14.6400   20.0960 O   0  0  0  0  0  0  0  0  0  0  0  0
  -30.1670  -15.2870   21.4450 N   0  0  0  0  0  0  0  0  0  0  0  0
  -29.9170  -16.1250   20.9400 H   0  0  0  0  0  0  0  0  0  0  0  0
  -25.2590  -13.8110   20.5660 C   0  0  0  0  0  0  0  0  0  0  0  0
  -24.1830  -13.0430   20.9170 C   0  0  0  0  0  0  0  0  0  0  0  0
  -24.6380  -11.6890   20.8730 C   0  0  0  0  0  0  0  0  0  0  0  0
  -26.3040  -12.9280   20.3410 N   0  0  0  0  0  0  0  0  0  0  0  0
  -25.9300  -11.6450   20.5750 N   0  0  0  0  0  0  0  0  0  0  0  0
  -23.9040  -10.4290   21.0360 C   0  0  0  0  0  0  0  0  0  0  0  0
  -24.3560   -9.4240   21.9180 C   0  0  0  0  0  3  0  0  0  0  0  0
  -23.6250   -8.2290   22.0790 C   0  0  0  0  0  3  0  0  0  0  0  0
  -22.4260   -8.0280   21.3540 C   0  0  0  0  0  0  0  0  0  0  0  0
  -21.9910   -9.0220   20.4600 C   0  0  0  0  0  3  0  0  0  0  0  0
  -22.7250  -10.2100   20.2980 C   0  0  0  0  0  3  0  0  0  0  0  0
  -21.6640   -6.8870   21.4240 O   0  0  0  0  0  0  0  0  0  0  0  0
  -21.6840   -6.0730   22.5290 C   0  0  0  0  0  0  0  0  0  0  0  0
  -21.3980   -6.5650   23.8200 C   0  0  0  0  0  3  0  0  0  0  0  0
  -21.3650   -5.6830   24.9180 C   0  0  0  0  0  3  0  0  0  0  0  0
  -21.6030   -4.3090   24.7240 C   0  0  0  0  0  0  0  0  0  0  0  0
  -21.8800   -3.8170   23.4370 C   0  0  0  0  0  3  0  0  0  0  0  0
  -21.9180   -4.6970   22.3420 C   0  0  0  0  0  0  0  0  0  0  0  0
  -22.1650   -4.2130   21.1000 F   0  0  0  0  0  0  0  0  0  0  0  0
  -21.5630   -3.4600   25.7760 F   0  0  0  0  0  0  0  0  0  0  0  0
  -22.7870  -13.5230   21.1880 C   0  0  0  0  0  0  0  0  0  0  0  0
  -22.0530  -12.8190   22.0410 N   0  0  0  0  0  0  0  0  0  0  0  0
  -22.3550  -14.5580   20.6790 O   0  0  0  0  0  0  0  0  0  0  0  0
  -22.4080  -11.9680   22.4530 H   0  0  0  0  0  0  0  0  0  0  0  0
  -21.1170  -13.1220   22.2710 H   0  0  0  0  0  0  0  0  0  0  0  0
  -25.4330  -15.1820   20.3950 N   0  0  0  0  0  0  0  0  0  0  0  0
  -24.6640  -15.8350   20.4840 H   0  0  0  0  0  0  0  0  0  0  0  0
  -26.2800  -15.6090   20.0450 H   0  0  0  0  0  0  0  0  0  0  0  0
  1 52  1  0
  2  3  1  0
  2  1  1  0
  4  5  1  0
  4  3  1  0
  6  9  1  0
  6  5  1  0
  7  6  1  0
  8  6  1  0
 10  9  1  0
 11 10  1  0
 12 23  2  0
 13 11  1  0
 13 18  1  0
 14 22  1  0
 14 24  1  0
 15 21  1  0
 15 17  1  0
 16 22  1  0
 17 16  1  0
 18 17  2  0
 19 20  1  0
 19 13  2  0
 20 15  2  0
 21 14  1  0
 22 12  1  0
 24 26  2  0
 25 24  1  0
 27 25  1  0
 28 37  2  0
 28 33  1  0
 29 25  1  0
 29 33  1  0
 30 29  1  0
 31 32  1  0
 31 30  1  0
 32 28  1  0
 33 34  2  0
 34 35  1  0
 36 35  2  0
 37 36  1  0
 38 12  1  0
 38 43  1  0
 38 39  1  0
 39 42  1  1
 39 40  1  0
 41 39  1  0
 43 46  1  0
 44 48  1  0
 44 43  1  0
 45 44  2  0
 48 47  1  0
 50 48  1  0
 50 51  1  0
 50 49  1  0
 52 53  1  0
 53 54  1  0
 55 56  1  0
 55 54  1  0
 57 58  1  0
 57 56  1  0
 59 61  2  0
 60 59  1  0
 60 58  1  0
 62 60  1  0
 63 59  1  0
 64 72  1  0
 65 70  1  0
 66 67  1  0
 66 65  1  0
 68 67  1  0
 68 77  1  0
 68 69  1  0
 70 64  1  0
 70 69  1  0
 71 64  2  0
 72 63  1  0
 73 72  1  0
 74 75  2  0
 75 94  1  0
 76 75  1  0
 76 79  1  0
 77 74  1  0
 77 78  1  0
 78 76  2  0
 79 80  1  0
 80 81  2  0
 82 85  1  0
 82 81  1  0
 83 82  2  0
 84 83  1  0
 84 79  2  0
 85 86  1  0
 86 87  1  0
 87 88  2  0
 89 88  1  0
 89 93  1  0
 90 89  2  0
 91 86  2  0
 91 90  1  0
 92 91  1  0
 94 95  1  0
 95 98  1  0
 95 97  1  0
 96 94  2  0
 99100  1  0
 99 74  1  0
101 99  1  0
M  ISO  4  10 101  11 101  64 100  72 100
M  END
>  <TORSDO>  (6) 
F 32

>  <SCORE>  (6) 
53.468

>  <name>  (6) 
5

>  <ligand_id>  (6) 
5

>  <original_smiles>  (6) 
[H]c1c([H])c([H])c2c(c1[H])C([H])([H])C([H])([H])C([H])([H])C2([H])N([H])C(=O)C1([H])N(C(=O)C([H])(N([H])C(=O)C([H])(N([H])C([H])([H])[H])C([H])([H])[H])C(C([H])([H])[H])(C([H])([H])[H])C([H])([H])[H])C([H])([H])c2c([H])c(OC([H])([H])C([H])([H])[N+]([H])([H])C([H])([H])C([H])([H])C([H])([H])OC([H])([H])C([H])([H])C([H])([H])C([H])([H])OC([H])([H])C([H])([H])C([H])([H])N([H])C(=O)C([H])([H])N([H])C(=O)N3C([H])([H])C([H])([H])C([H])([H])C([H])(n4nc(-c5c([H])c([H])c(Oc6c([H])c([H])c(F)c([H])c6F)c([H])c5[H])c(C(=O)N([H])[H])c4N([H])[H])C3([H])[H])c([H])c([H])c2C1([H])[H]

>  <smiles>  (6) 
[H]c1c([H])c([H])c2c(c1[H])C([H])([H])C([H])([H])C([H])([H])C2([H])N([H])C(=O)C1([H])N(C(=O)C([H])(N([H])C(=O)C([H])(N([H])C([H])([H])[H])C([H])([H])[H])C(C([H])([H])[H])(C([H])([H])[H])C([H])([H])[H])C([H])([H])c2c([H])c(OC([H])([H])C([H])([H])[N+]([H])([H])C([H])([H])C([H])([H])C([H])([H])OC([H])([H])C([H])([H])C([H])([H])C([H])([H])OC([H])([H])C([H])([H])C([H])([H])N([H])C(=O)C([H])([H])N([H])C(=O)N3C([H])([H])C([H])([H])C([H])([H])C([H])(n4nc(-c5c([H])c([H])c(Oc6c([H])c([H])c(F)c([H])c6F)c([H])c5[H])c(C(=O)N([H])[H])c4N([H])[H])C3([H])[H])c([H])c([H])c2C1([H])[H]

$$$$
6:0:0
     RDKit          3D

100106  0  0  1  0  0  0  0  0999 V2000
  -23.5760  -33.5720   24.8600 C   0  0  0  0  0  2  0  0  0  0  0  0
  -24.7550  -34.2720   25.9230 O   0  0  0  0  0  0  0  0  0  0  0  0
  -26.3990  -34.7280   26.3120 C   0  0  0  0  0  2  0  0  0  0  0  0
  -28.2120  -34.7480   25.5670 C   0  0  0  0  0  2  0  0  0  0  0  0
  -29.5210  -33.6360   25.2940 O   0  0  0  0  0  0  0  0  0  0  0  0
  -30.4530  -32.6520   24.2540 C   0  0  0  0  0  3  0  0  0  0  0  0
  -31.3030  -30.9770   24.2240 C   0  0  0  0  0  3  0  0  0  0  0  0
  -32.0050  -29.9010   23.1050 O   0  0  0  0  0  0  0  0  0  0  0  0
  -33.1180  -28.6190   23.1300 C   0  0  0  0  0  3  0  0  0  0  0  0
  -33.9090  -27.4090   21.9250 C   0  0  0  0  0  3  0  0  0  0  0  0
  -35.3220  -26.1660   21.8650 C   0  0  0  0  0  2  0  0  0  0  0  0
  -36.0980  -24.9430   20.6600 C   0  0  0  0  0  3  0  0  0  0  0  0
  -37.6250  -23.8520   20.5530 C   0  0  0  0  0  3  0  0  0  0  0  0
  -39.5700  -21.8990   19.2290 C   0  0  0  0  0  0  0  0  0  0  0  0
  -41.2550  -20.4880   17.7470 C   0  0  0  0  0  2  0  0  0  0  0  0
  -41.4440  -20.8130   16.2340 C   0  0  0  0  0  2  0  0  0  0  0  0
  -40.3910  -20.0880   15.3870 C   0  0  0  0  0  2  0  0  0  0  0  0
  -38.9890  -20.2270   16.0200 C   0  0  0  0  0  3  0  0  0  0  0  0
  -38.9640  -19.9230   17.5470 C   0  0  0  0  0  2  0  0  0  0  0  0
  -39.8620  -20.8760   18.2440 N   0  0  0  0  0  0  0  0  0  0  0  0
  -40.6050  -22.2110   19.8430 O   0  0  0  0  0  0  0  0  0  0  0  0
  -38.2840  -22.6640   19.4830 N   0  0  0  0  0  0  0  0  0  0  0  0
  -37.5830  -22.3410   18.8290 H   0  0  0  0  0  0  0  0  0  0  0  0
  -36.7040  -19.9170   14.9300 C   0  0  0  0  0  0  0  0  0  0  0  0
  -36.1580  -18.9250   14.1770 C   0  0  0  0  0  0  0  0  0  0  0  0
  -37.1540  -17.8960   14.0890 C   0  0  0  0  0  0  0  0  0  0  0  0
  -37.9720  -19.4880   15.2770 N   0  0  0  0  0  0  0  0  0  0  0  0
  -38.2210  -18.2330   14.8120 N   0  0  0  0  0  0  0  0  0  0  0  0
  -37.1650  -16.6470   13.3140 C   0  0  0  0  0  0  0  0  0  0  0  0
  -37.4560  -15.4030   13.9180 C   0  0  0  0  0  3  0  0  0  0  0  0
  -37.4330  -14.2140   13.1550 C   0  0  0  0  0  3  0  0  0  0  0  0
  -37.1140  -14.2600   11.7750 C   0  0  0  0  0  0  0  0  0  0  0  0
  -36.8490  -15.5040   11.1760 C   0  0  0  0  0  3  0  0  0  0  0  0
  -36.8770  -16.6860   11.9340 C   0  0  0  0  0  3  0  0  0  0  0  0
  -37.0970  -13.1600   10.9500 O   0  0  0  0  0  0  0  0  0  0  0  0
  -36.8590  -11.9000   11.4370 C   0  0  0  0  0  0  0  0  0  0  0  0
  -35.6970  -11.5930   12.1740 C   0  0  0  0  0  3  0  0  0  0  0  0
  -35.4570  -10.2700   12.5980 C   0  0  0  0  0  3  0  0  0  0  0  0
  -36.3750   -9.2510   12.2740 C   0  0  0  0  0  0  0  0  0  0  0  0
  -37.5310   -9.5530   11.5320 C   0  0  0  0  0  3  0  0  0  0  0  0
  -37.7710  -10.8730   11.1120 C   0  0  0  0  0  0  0  0  0  0  0  0
  -38.8760  -11.1540   10.3800 F   0  0  0  0  0  0  0  0  0  0  0  0
  -36.1430   -7.9780   12.6720 F   0  0  0  0  0  0  0  0  0  0  0  0
  -34.8250  -18.9570   13.4870 C   0  0  0  0  0  0  0  0  0  0  0  0
  -34.1860  -17.8080   13.3250 N   0  0  0  0  0  0  0  0  0  0  0  0
  -34.3170  -20.0260   13.1340 O   0  0  0  0  0  0  0  0  0  0  0  0
  -34.5910  -16.9360   13.6330 H   0  0  0  0  0  0  0  0  0  0  0  0
  -33.2750  -17.7940   12.8870 H   0  0  0  0  0  0  0  0  0  0  0  0
  -36.2390  -21.1710   15.3370 N   0  0  0  0  0  0  0  0  0  0  0  0
  -35.3360  -21.5280   15.0470 H   0  0  0  0  0  0  0  0  0  0  0  0
  -36.7810  -21.8400   15.8630 H   0  0  0  0  0  0  0  0  0  0  0  0
  -23.2060  -32.9750   23.1220 C   0  0  0  0  0  2  0  0  0  0  0  0
  -22.9330  -30.6500   21.1620 C   0  0  0  0  0  0  0  0  0  0  0  0
  -22.9360  -31.4420   22.4480 N   0  0  0  0  0  0  0  0  0  0  0  0
  -22.5900  -31.2930   20.1700 O   0  0  0  0  0  0  0  0  0  0  0  0
  -23.1420  -30.8300   23.2290 H   0  0  0  0  0  0  0  0  0  0  0  0
  -23.4420  -28.9170   20.7270 C   0  0  0  0  0  1  0  0  0  0  0  0
  -24.7400  -27.4810   21.1470 C   0  0  0  0  0  1  0  0  0  0  0  0
  -26.1680  -26.9970   22.3430 C   0  0  0  0  0  2  0  0  0  0  0  0
  -27.7840  -26.5400   22.5100 O   0  0  0  0  0  0  0  0  0  0  0  0
  -26.3930  -31.6070   24.0250 C   0  0  0  0  0  0  0  0  0  0  0  0
  -28.9260  -27.1050   21.9980 C   0  0  0  0  0  3  0  0  0  0  0  0
  -25.6690  -30.0570   22.4610 C   0  0  0  0  0  3  0  0  0  0  0  0
  -27.3640  -28.9310   20.9270 C   0  0  0  0  0  3  0  0  0  0  0  0
  -28.0450  -30.7120   22.4410 C   0  0  0  0  0  2  0  0  0  0  0  0
  -28.2420  -29.3440   21.9070 C   0  0  0  0  0  3  0  0  0  0  0  0
  -29.1490  -28.4240   22.4200 C   0  0  0  0  0  2  0  0  0  0  0  0
  -28.5640  -26.8450   20.6990 C   0  0  0  0  0  2  0  0  0  0  0  0
  -27.5640  -27.7150   20.2270 C   0  0  0  0  0  2  0  0  0  0  0  0
  -26.1640  -29.7770   20.9200 C   0  0  0  0  0  2  0  0  0  0  0  0
  -26.7160  -30.8160   23.0390 N   0  0  0  0  0  0  0  0  0  0  0  0
  -25.3070  -31.6190   24.5510 O   0  0  0  0  0  0  0  0  0  0  0  0
  -24.6630  -29.2460   23.6200 C   0  0  0  0  0  0  0  0  0  0  0  0
  -23.3020  -29.0630   23.5440 N   0  0  0  0  0  0  0  0  0  0  0  0
  -25.1830  -28.7950   24.6250 O   0  0  0  0  0  0  0  0  0  0  0  0
  -22.9330  -29.4790   22.7000 H   0  0  0  0  0  0  0  0  0  0  0  0
  -19.8090  -27.8180   23.3970 C   0  0  0  0  0  0  0  0  0  0  0  0
  -22.2980  -28.1570   24.1300 C   0  0  0  0  0  3  0  0  0  0  0  0
  -22.4810  -26.6780   23.6910 C   0  0  0  0  0  2  0  0  0  0  0  0
  -21.5490  -26.2090   22.5520 C   0  0  0  0  0  2  0  0  0  0  0  0
  -20.0850  -26.3930   22.9480 C   0  0  0  0  0  2  0  0  0  0  0  0
  -20.8510  -28.6580   23.8940 C   0  0  0  0  0  0  0  0  0  0  0  0
  -20.5370  -29.9980   24.2000 C   0  0  0  0  0  3  0  0  0  0  0  0
  -19.2160  -30.4790   24.0840 C   0  0  0  0  0  3  0  0  0  0  0  0
  -18.1880  -29.6330   23.6400 C   0  0  0  0  0  3  0  0  0  0  0  0
  -18.4900  -28.3090   23.2830 C   0  0  0  0  0  3  0  0  0  0  0  0
  -27.3880  -32.4550   24.5920 C   0  0  0  0  0  3  0  0  0  0  0  0
  -26.9960  -33.7910   23.9050 N   0  0  0  0  0  0  0  0  0  0  0  0
  -27.4400  -34.9050   23.2610 C   0  0  0  0  0  0  0  0  0  0  0  0
  -28.3920  -34.8340   22.5050 O   0  0  0  0  0  0  0  0  0  0  0  0
  -26.2300  -34.1260   24.5020 H   0  0  0  0  0  0  0  0  0  0  0  0
  -25.5980  -36.6270   22.5790 C   0  0  0  0  0  1  0  0  0  0  0  0
  -26.7740  -36.3330   23.5270 C   0  0  0  0  0  3  0  0  0  0  0  0
  -28.6780  -37.6300   24.5180 C   0  0  0  0  0  1  0  0  0  0  0  0
  -27.7270  -37.4710   23.4150 N   0  0  0  0  0  0  0  0  0  0  0  0
  -27.2630  -38.3530   23.2220 H   0  0  0  0  0  0  0  0  0  0  0  0
  -27.3360  -31.9300   26.2890 C   0  0  1  0  0  0  0  0  0  0  0  0
  -25.9480  -31.9550   27.0570 C   0  0  0  0  0  1  0  0  0  0  0  0
  -27.7460  -30.4330   26.1990 C   0  0  0  0  0  1  0  0  0  0  0  0
  -28.2440  -32.2960   27.6130 C   0  0  0  0  0  1  0  0  0  0  0  0
  1  2  1  0
  2  3  1  0
  4  3  1  0
  5  4  1  0
  6  5  1  0
  7  6  2  0
  8  9  1  0
  8  7  1  0
 10  9  2  0
 11 10  1  0
 12 11  1  0
 13 12  2  0
 14 22  1  0
 14 21  2  0
 15 20  1  0
 16 15  1  0
 17 18  1  0
 17 16  1  0
 18 27  1  0
 18 19  1  0
 19 20  1  0
 20 14  1  0
 22 13  1  0
 23 22  1  0
 24 27  1  0
 24 49  1  0
 25 24  2  0
 26 25  1  0
 26 28  2  0
 28 27  1  0
 29 30  1  0
 29 26  1  0
 31 30  2  0
 32 31  1  0
 33 32  2  0
 33 34  1  0
 34 29  2  0
 35 36  1  0
 35 32  1  0
 36 37  1  0
 37 38  2  0
 39 38  1  0
 39 43  1  0
 40 39  2  0
 41 36  2  0
 41 40  1  0
 42 41  1  0
 44 25  1  0
 45 44  1  0
 45 47  1  0
 46 44  2  0
 48 45  1  0
 49 51  1  0
 50 49  1  0
 52  1  1  0
 53 54  1  0
 54 52  1  0
 54 56  1  0
 55 53  2  0
 57 53  1  0
 58 59  1  0
 59 60  1  0
 61 72  2  0
 62 67  1  0
 62 60  1  0
 63 71  1  0
 63 73  1  0
 64 69  1  0
 64 66  1  0
 65 71  1  0
 66 67  1  0
 66 65  1  0
 68 62  1  0
 69 68  1  0
 70 64  1  0
 70 63  1  0
 71 61  1  0
 73 75  2  0
 74 73  1  0
 76 74  1  0
 77 82  1  0
 78 74  1  0
 79 78  1  0
 80 81  1  0
 80 79  1  0
 81 77  1  0
 82 78  1  0
 82 83  2  0
 84 83  1  0
 85 84  2  0
 86 77  2  0
 86 85  1  0
 87 61  1  0
 87 97  1  0
 88 91  1  0
 88 87  1  0
 89 93  1  0
 89 88  1  0
 90 89  2  0
 93 92  1  0
 95 93  1  0
 95 94  1  0
 96 95  1  0
 97 98  1  1
 97100  1  0
 99 97  1  0
M  ISO  4  14 100  22 100  59 101  60 101
M  END
>  <TORSDO>  (7) 
F 33

>  <SCORE>  (7) 
6.736

>  <name>  (7) 
6

>  <ligand_id>  (7) 
6

>  <original_smiles>  (7) 
[H]c1c([H])c([H])c2c(c1[H])C([H])([H])C([H])([H])C([H])([H])C2([H])N([H])C(=O)C1([H])N(C(=O)C([H])(N([H])C(=O)C([H])(N([H])C([H])([H])[H])C([H])([H])[H])C(C([H])([H])[H])(C([H])([H])[H])C([H])([H])[H])C([H])([H])c2c([H])c(OC([H])([H])C([H])([H])C([H])([H])C(=O)N([H])C([H])([H])C([H])([H])OC([H])([H])C([H])([H])OC([H])([H])C([H])([H])OC([H])([H])C([H])([H])C([H])([H])C([H])([H])C([H])([H])N([H])C(=O)N3C([H])([H])C([H])([H])C([H])([H])C([H])(n4nc(-c5c([H])c([H])c(Oc6c([H])c([H])c(F)c([H])c6F)c([H])c5[H])c(C(=O)N([H])[H])c4N([H])[H])C3([H])[H])c([H])c([H])c2C1([H])[H]

>  <smiles>  (7) 
[H]c1c([H])c([H])c2c(c1[H])C([H])([H])C([H])([H])C([H])([H])C2([H])N([H])C(=O)C1([H])N(C(=O)C([H])(N([H])C(=O)C([H])(N([H])C([H])([H])[H])C([H])([H])[H])C(C([H])([H])[H])(C([H])([H])[H])C([H])([H])[H])C([H])([H])c2c([H])c(OC([H])([H])C([H])([H])C([H])([H])C(=O)N([H])C([H])([H])C([H])([H])OC([H])([H])C([H])([H])OC([H])([H])C([H])([H])OC([H])([H])C([H])([H])C([H])([H])C([H])([H])C([H])([H])N([H])C(=O)N3C([H])([H])C([H])([H])C([H])([H])C([H])(n4nc(-c5c([H])c([H])c(Oc6c([H])c([H])c(F)c([H])c6F)c([H])c5[H])c(C(=O)N([H])[H])c4N([H])[H])C3([H])[H])c([H])c([H])c2C1([H])[H]

$$$$
7:0:0
     RDKit          3D

122129  0  0  1  0  0  0  0  0999 V2000
  -17.8440  -12.0300   19.9040 C   0  0  0  0  0  2  0  0  0  0  0  0
  -18.7890  -13.1710   19.5160 C   0  0  0  0  0  0  0  0  0  0  0  0
  -18.9030  -13.4760   18.2170 N   0  0  0  0  0  0  0  0  0  0  0  0
  -19.4260  -13.7590   20.3920 O   0  0  0  0  0  0  0  0  0  0  0  0
  -18.3140  -12.9900   17.5560 H   0  0  0  0  0  0  0  0  0  0  0  0
  -19.7830  -14.5150   17.6780 C   0  0  0  0  0  2  0  0  0  0  0  0
  -19.1680  -15.9220   17.7600 C   0  0  0  0  0  0  0  0  0  0  0  0
  -19.9710  -16.9530   17.4530 N   0  0  0  0  0  0  0  0  0  0  0  0
  -17.9790  -16.0700   18.0640 O   0  0  0  0  0  0  0  0  0  0  0  0
  -20.9320  -16.7360   17.2210 H   0  0  0  0  0  0  0  0  0  0  0  0
  -19.5670  -18.3590   17.3950 C   0  0  0  0  0  2  0  0  0  0  0  0
  -20.3610  -19.2400   18.3790 C   0  0  0  0  0  2  0  0  0  0  0  0
  -21.7420  -19.7010   17.8690 C   0  0  0  0  0  2  0  0  0  0  0  0
  -22.4200  -20.6920   18.8370 C   0  0  0  0  0  2  0  0  0  0  0  0
  -23.7630  -21.2570   18.3300 C   0  0  0  0  0  2  0  0  0  0  0  0
  -24.4330  -22.2020   19.3500 C   0  0  0  0  0  2  0  0  0  0  0  0
  -25.8060  -22.7480   18.9050 C   0  0  0  0  0  2  0  0  0  0  0  0
  -26.4880  -23.5860   20.0070 C   0  0  0  0  0  2  0  0  0  0  0  0
  -27.8060  -24.2760   19.5750 C   0  0  0  0  0  2  0  0  0  0  0  0
  -28.2890  -25.3640   20.5720 C   0  0  0  0  0  2  0  0  0  0  0  0
  -28.3770  -26.6990   20.0520 O   0  0  0  0  0  0  0  0  0  0  0  0
  -24.6130  -31.8690   23.2120 C   0  0  0  0  0  0  0  0  0  0  0  0
  -27.2180  -27.4420   20.0810 C   0  0  0  0  0  0  0  0  0  0  0  0
  -23.3980  -30.4940   21.5540 C   0  0  0  0  0  3  0  0  0  0  0  0
  -24.8400  -28.9670   20.1160 C   0  0  0  0  0  0  0  0  0  0  0  0
  -25.9280  -30.8340   21.3670 C   0  0  0  0  0  2  0  0  0  0  0  0
  -26.0020  -29.4700   20.7150 C   0  0  0  0  0  0  0  0  0  0  0  0
  -27.1950  -28.7120   20.7000 C   0  0  0  0  0  3  0  0  0  0  0  0
  -26.0440  -26.9680   19.4590 C   0  0  0  0  0  3  0  0  0  0  0  0
  -24.8550  -27.7140   19.4840 C   0  0  0  0  0  3  0  0  0  0  0  0
  -23.6050  -29.8320   20.1680 C   0  0  0  0  0  2  0  0  0  0  0  0
  -24.6640  -31.0810   22.1030 N   0  0  0  0  0  0  0  0  0  0  0  0
  -23.5320  -32.1450   23.7510 O   0  0  0  0  0  0  0  0  0  0  0  0
  -22.7390  -29.4650   22.5010 C   0  0  0  0  0  0  0  0  0  0  0  0
  -21.4120  -29.3030   22.3750 N   0  0  0  0  0  0  0  0  0  0  0  0
  -23.4170  -28.8190   23.3040 O   0  0  0  0  0  0  0  0  0  0  0  0
  -20.9270  -29.8760   21.7000 H   0  0  0  0  0  0  0  0  0  0  0  0
  -18.0270  -28.1360   22.8490 C   0  0  0  0  0  0  0  0  0  0  0  0
  -20.5850  -28.3650   23.1330 C   0  0  0  0  0  3  0  0  0  0  0  0
  -20.6770  -26.9400   22.5420 C   0  0  0  0  0  2  0  0  0  0  0  0
  -19.5750  -26.6380   21.5210 C   0  0  0  0  0  2  0  0  0  0  0  0
  -18.1930  -26.7910   22.1620 C   0  0  0  0  0  2  0  0  0  0  0  0
  -19.1510  -28.8820   23.2900 C   0  0  0  0  0  0  0  0  0  0  0  0
  -18.9450  -30.1430   23.8910 C   0  0  0  0  0  3  0  0  0  0  0  0
  -17.6450  -30.6580   24.0560 C   0  0  0  0  0  3  0  0  0  0  0  0
  -16.5340  -29.9080   23.6320 C   0  0  0  0  0  3  0  0  0  0  0  0
  -16.7260  -28.6490   23.0350 C   0  0  0  0  0  3  0  0  0  0  0  0
  -25.9030  -32.4830   23.8410 C   0  0  0  0  0  3  0  0  0  0  0  0
  -26.4460  -31.6600   25.0730 C   0  0  1  0  0  0  0  0  0  0  0  0
  -25.3730  -31.3700   26.1480 C   0  0  0  0  0  1  0  0  0  0  0  0
  -27.0280  -30.3050   24.6080 C   0  0  0  0  0  1  0  0  0  0  0  0
  -27.6030  -32.4320   25.7500 C   0  0  0  0  0  1  0  0  0  0  0  0
  -25.5890  -33.8630   24.2330 N   0  0  0  0  0  0  0  0  0  0  0  0
  -25.9020  -34.9480   23.5120 C   0  0  0  0  0  0  0  0  0  0  0  0
  -26.5600  -34.8920   22.4680 O   0  0  0  0  0  0  0  0  0  0  0  0
  -25.0070  -33.9810   25.0500 H   0  0  0  0  0  0  0  0  0  0  0  0
  -24.1490  -36.7330   23.2630 C   0  0  0  0  0  1  0  0  0  0  0  0
  -25.4110  -36.3120   24.0330 C   0  0  0  0  0  3  0  0  0  0  0  0
  -27.5580  -37.1820   24.8460 C   0  0  0  0  0  1  0  0  0  0  0  0
  -26.4300  -37.3800   23.9390 N   0  0  0  0  0  0  0  0  0  0  0  0
  -26.0180  -38.2880   24.1390 H   0  0  0  0  0  0  0  0  0  0  0  0
  -17.6750  -10.5480   21.9060 C   0  0  0  0  0  0  0  0  0  0  0  0
  -18.3150  -11.4390   21.1490 N   0  0  0  0  0  0  0  0  0  0  0  0
  -16.5420  -10.1410   21.6450 O   0  0  0  0  0  0  0  0  0  0  0  0
  -19.2110  -11.7860   21.4670 H   0  0  0  0  0  0  0  0  0  0  0  0
  -18.4290  -10.0450   23.1470 C   0  0  0  0  0  2  0  0  0  0  0  0
  -18.4000  -11.0190   24.1920 O   0  0  0  0  0  0  0  0  0  0  0  0
  -17.1870  -11.0480   24.9390 C   0  0  0  0  0  2  0  0  0  0  0  0
  -17.2700  -12.1300   26.0320 C   0  0  0  0  0  2  0  0  0  0  0  0
  -17.0830  -13.4250   25.4620 O   0  0  0  0  0  0  0  0  0  0  0  0
  -18.2820  -14.0560   25.0130 C   0  0  0  0  0  2  0  0  0  0  0  0
  -18.7080  -15.1410   26.0180 C   0  0  0  0  0  2  0  0  0  0  0  0
  -18.9590  -14.6100   27.3170 O   0  0  0  0  0  0  0  0  0  0  0  0
  -20.2300  -13.9980   27.5010 C   0  0  0  0  0  2  0  0  0  0  0  0
  -21.3380  -15.0540   27.6150 C   0  0  0  0  0  2  0  0  0  0  0  0
  -21.9710  -15.2070   26.3560 O   0  0  0  0  0  0  0  0  0  0  0  0
  -23.0010  -16.1840   26.4110 C   0  0  0  0  0  2  0  0  0  0  0  0
  -23.7760  -16.1870   25.0850 C   0  0  0  0  0  2  0  0  0  0  0  0
  -24.5480  -14.9920   24.9480 O   0  0  0  0  0  0  0  0  0  0  0  0
  -25.8980  -15.0990   25.3840 C   0  0  0  0  0  2  0  0  0  0  0  0
  -26.7130  -15.9110   24.3630 C   0  0  0  0  0  2  0  0  0  0  0  0
  -28.0570  -15.4520   24.2990 O   0  0  0  0  0  0  0  0  0  0  0  0
  -28.7350  -15.9960   23.1770 C   0  0  0  0  0  2  0  0  0  0  0  0
  -30.0170  -15.2060   22.9220 C   0  0  0  0  0  2  0  0  0  0  0  0
  -30.7980  -14.3730   20.6870 C   0  0  0  0  0  0  0  0  0  0  0  0
  -30.4100  -12.2930   19.4290 C   0  0  0  0  0  2  0  0  0  0  0  0
  -29.4940  -12.5230   18.2100 C   0  0  0  0  0  2  0  0  0  0  0  0
  -28.0150  -12.3820   18.6070 C   0  0  0  0  0  2  0  0  0  0  0  0
  -27.6620  -13.2120   19.8680 C   0  0  0  0  0  3  0  0  0  0  0  0
  -28.6870  -12.9660   20.9910 C   0  0  0  0  0  2  0  0  0  0  0  0
  -30.0410  -13.2550   20.4820 N   0  0  0  0  0  0  0  0  0  0  0  0
  -31.8130  -14.6220   20.0410 O   0  0  0  0  0  0  0  0  0  0  0  0
  -30.3460  -15.3260   21.5070 N   0  0  0  0  0  0  0  0  0  0  0  0
  -30.7610  -16.2220   21.2960 H   0  0  0  0  0  0  0  0  0  0  0  0
  -25.2610  -13.8230   20.5640 C   0  0  0  0  0  0  0  0  0  0  0  0
  -24.1890  -13.0480   20.9140 C   0  0  0  0  0  0  0  0  0  0  0  0
  -24.6400  -11.6930   20.8750 C   0  0  0  0  0  0  0  0  0  0  0  0
  -26.3000  -12.9370   20.3260 N   0  0  0  0  0  0  0  0  0  0  0  0
  -25.9330  -11.6530   20.5710 N   0  0  0  0  0  0  0  0  0  0  0  0
  -23.9060  -10.4300   21.0410 C   0  0  0  0  0  0  0  0  0  0  0  0
  -24.3570   -9.4240   21.9230 C   0  0  0  0  0  3  0  0  0  0  0  0
  -23.6250   -8.2300   22.0840 C   0  0  0  0  0  3  0  0  0  0  0  0
  -22.4270   -8.0310   21.3550 C   0  0  0  0  0  0  0  0  0  0  0  0
  -21.9950   -9.0260   20.4570 C   0  0  0  0  0  3  0  0  0  0  0  0
  -22.7300  -10.2110   20.2980 C   0  0  0  0  0  3  0  0  0  0  0  0
  -21.6680   -6.8900   21.4210 O   0  0  0  0  0  0  0  0  0  0  0  0
  -21.6860   -6.0730   22.5260 C   0  0  0  0  0  0  0  0  0  0  0  0
  -21.4000   -6.5610   23.8200 C   0  0  0  0  0  3  0  0  0  0  0  0
  -21.3570   -5.6720   24.9140 C   0  0  0  0  0  3  0  0  0  0  0  0
  -21.6010   -4.3010   24.7180 C   0  0  0  0  0  0  0  0  0  0  0  0
  -21.8880   -3.8130   23.4330 C   0  0  0  0  0  3  0  0  0  0  0  0
  -21.9200   -4.6940   22.3380 C   0  0  0  0  0  0  0  0  0  0  0  0
  -22.1700   -4.2150   21.0960 F   0  0  0  0  0  0  0  0  0  0  0  0
  -21.5590   -3.4490   25.7690 F   0  0  0  0  0  0  0  0  0  0  0  0
  -22.7970  -13.5340   21.1830 C   0  0  0  0  0  0  0  0  0  0  0  0
  -22.0520  -12.8510   22.0410 N   0  0  0  0  0  0  0  0  0  0  0  0
  -22.3870  -14.5760   20.6760 O   0  0  0  0  0  0  0  0  0  0  0  0
  -22.4060  -12.0260   22.5030 H   0  0  0  0  0  0  0  0  0  0  0  0
  -21.1470  -13.2220   22.2960 H   0  0  0  0  0  0  0  0  0  0  0  0
  -25.4290  -15.1990   20.4130 N   0  0  0  0  0  0  0  0  0  0  0  0
  -24.6410  -15.8340   20.4720 H   0  0  0  0  0  0  0  0  0  0  0  0
  -26.2710  -15.6520   20.0790 H   0  0  0  0  0  0  0  0  0  0  0  0
  1 63  1  0
  2  1  1  0
  2  4  2  0
  3  2  1  0
  5  3  1  0
  6  7  1  0
  6  3  1  0
  7  9  2  0
  8  7  1  0
 10  8  1  0
 11  8  1  0
 11 12  1  0
 13 12  1  0
 13 14  1  0
 15 14  1  0
 15 16  1  0
 17 16  1  0
 17 18  1  0
 19 18  1  0
 19 20  1  0
 21 23  1  0
 21 20  1  0
 22 33  2  0
 23 28  1  0
 24 32  1  0
 24 34  1  0
 25 31  1  0
 25 27  1  0
 26 32  1  0
 27 26  1  0
 28 27  2  0
 29 30  1  0
 29 23  2  0
 30 25  2  0
 31 24  1  0
 32 22  1  0
 34 36  2  0
 35 34  1  0
 37 35  1  0
 38 47  2  0
 38 43  1  0
 39 35  1  0
 39 43  1  0
 40 39  1  0
 41 42  1  0
 41 40  1  0
 42 38  1  0
 43 44  2  0
 44 45  1  0
 46 45  2  0
 47 46  1  0
 48 22  1  0
 48 53  1  0
 48 49  1  0
 49 52  1  1
 49 50  1  0
 51 49  1  0
 53 56  1  0
 54 58  1  0
 54 53  1  0
 55 54  2  0
 58 57  1  0
 60 58  1  0
 60 61  1  0
 60 59  1  0
 62 66  1  0
 63 65  1  0
 63 62  1  0
 64 62  2  0
 66 67  1  0
 67 68  1  0
 68 69  1  0
 70 69  1  0
 71 70  1  0
 71 72  1  0
 72 73  1  0
 73 74  1  0
 74 75  1  0
 76 77  1  0
 76 75  1  0
 78 77  1  0
 79 78  1  0
 79 80  1  0
 81 80  1  0
 82 81  1  0
 83 82  1  0
 84 83  1  0
 85 93  1  0
 86 91  1  0
 87 88  1  0
 87 86  1  0
 89 88  1  0
 89 98  1  0
 89 90  1  0
 91 85  1  0
 91 90  1  0
 92 85  2  0
 93 84  1  0
 94 93  1  0
 95 96  2  0
 96115  1  0
 97 96  1  0
 97100  1  0
 98 95  1  0
 98 99  1  0
 99 97  2  0
100101  1  0
101102  2  0
103106  1  0
103102  1  0
104103  2  0
105104  1  0
105100  2  0
106107  1  0
107108  1  0
108109  2  0
110109  1  0
110114  1  0
111110  2  0
112107  2  0
112111  1  0
113112  1  0
115116  1  0
116119  1  0
116118  1  0
117115  2  0
120121  1  0
120 95  1  0
122120  1  0
M  ISO  4  20 101  21 101  85 100  93 100
M  END
>  <TORSDO>  (8) 
F 49

>  <SCORE>  (8) 
99.897

>  <name>  (8) 
7

>  <ligand_id>  (8) 
7

>  <original_smiles>  (8) 
[H]c1c([H])c([H])c2c(c1[H])C([H])([H])C([H])([H])C([H])([H])C2([H])N([H])C(=O)C1([H])N(C(=O)C([H])(N([H])C(=O)C([H])(N([H])C([H])([H])[H])C([H])([H])[H])C(C([H])([H])[H])(C([H])([H])[H])C([H])([H])[H])C([H])([H])c2c([H])c(OC([H])([H])C([H])([H])C([H])([H])C([H])([H])C([H])([H])C([H])([H])C([H])([H])C([H])([H])C([H])([H])C([H])([H])N([H])C(=O)C([H])([H])N([H])C(=O)C([H])([H])N([H])C(=O)C([H])([H])OC([H])([H])C([H])([H])OC([H])([H])C([H])([H])OC([H])([H])C([H])([H])OC([H])([H])C([H])([H])OC([H])([H])C([H])([H])OC([H])([H])C([H])([H])N([H])C(=O)N3C([H])([H])C([H])([H])C([H])([H])C([H])(n4nc(-c5c([H])c([H])c(Oc6c([H])c([H])c(F)c([H])c6F)c([H])c5[H])c(C(=O)N([H])[H])c4N([H])[H])C3([H])[H])c([H])c([H])c2C1([H])[H]

>  <smiles>  (8) 
[H]c1c([H])c([H])c2c(c1[H])C([H])([H])C([H])([H])C([H])([H])C2([H])N([H])C(=O)C1([H])N(C(=O)C([H])(N([H])C(=O)C([H])(N([H])C([H])([H])[H])C([H])([H])[H])C(C([H])([H])[H])(C([H])([H])[H])C([H])([H])[H])C([H])([H])c2c([H])c(OC([H])([H])C([H])([H])C([H])([H])C([H])([H])C([H])([H])C([H])([H])C([H])([H])C([H])([H])C([H])([H])C([H])([H])N([H])C(=O)C([H])([H])N([H])C(=O)C([H])([H])N([H])C(=O)C([H])([H])OC([H])([H])C([H])([H])OC([H])([H])C([H])([H])OC([H])([H])C([H])([H])OC([H])([H])C([H])([H])OC([H])([H])C([H])([H])OC([H])([H])C([H])([H])N([H])C(=O)N3C([H])([H])C([H])([H])C([H])([H])C([H])(n4nc(-c5c([H])c([H])c(Oc6c([H])c([H])c(F)c([H])c6F)c([H])c5[H])c(C(=O)N([H])[H])c4N([H])[H])C3([H])[H])c([H])c([H])c2C1([H])[H]

$$$$
8:0:0
     RDKit          3D

104111  0  0  1  0  0  0  0  0999 V2000
  -30.9320  -23.5720   29.7530 C   0  0  0  0  0  2  0  0  0  0  0  0
  -32.6380  -21.8440   30.3410 C   0  0  0  0  0  0  0  0  0  0  0  0
  -32.1960  -22.8540   29.5820 N   0  0  0  0  0  0  0  0  0  0  0  0
  -31.9900  -21.3660   31.2740 O   0  0  0  0  0  0  0  0  0  0  0  0
  -32.8150  -23.1600   28.8420 H   0  0  0  0  0  0  0  0  0  0  0  0
  -34.0290  -21.3060   29.9990 C   0  0  0  0  0  2  0  0  0  0  0  0
  -34.1420  -21.2220   28.5840 O   0  0  0  0  0  0  0  0  0  0  0  0
  -35.4210  -20.7960   28.1420 C   0  0  0  0  0  2  0  0  0  0  0  0
  -35.3030  -20.4960   26.6430 C   0  0  0  0  0  2  0  0  0  0  0  0
  -34.4420  -19.2500   26.3830 C   0  0  0  0  0  2  0  0  0  0  0  0
  -33.9920  -19.1060   24.9230 C   0  0  0  0  0  2  0  0  0  0  0  0
  -33.1880  -17.8160   24.7040 C   0  0  0  0  0  2  0  0  0  0  0  0
  -32.4360  -17.8080   23.3670 C   0  0  0  0  0  2  0  0  0  0  0  0
  -31.7280  -16.4700   23.1020 C   0  0  0  0  0  2  0  0  0  0  0  0
  -30.7920  -16.5360   21.8860 C   0  0  0  0  0  2  0  0  0  0  0  0
  -30.7600  -14.3740   20.6590 C   0  0  0  0  0  0  0  0  0  0  0  0
  -30.4170  -12.2840   19.4000 C   0  0  0  0  0  2  0  0  0  0  0  0
  -29.4850  -12.5180   18.1960 C   0  0  0  0  0  2  0  0  0  0  0  0
  -28.0080  -12.3770   18.6120 C   0  0  0  0  0  2  0  0  0  0  0  0
  -27.6670  -13.2010   19.8810 C   0  0  0  0  0  3  0  0  0  0  0  0
  -28.7050  -12.9470   20.9970 C   0  0  0  0  0  2  0  0  0  0  0  0
  -30.0480  -13.2360   20.4570 N   0  0  0  0  0  0  0  0  0  0  0  0
  -31.8050  -14.6360   20.0550 O   0  0  0  0  0  0  0  0  0  0  0  0
  -30.2480  -15.2210   21.5600 N   0  0  0  0  0  0  0  0  0  0  0  0
  -29.3900  -14.9410   22.0140 H   0  0  0  0  0  0  0  0  0  0  0  0
  -25.2610  -13.8150   20.5680 C   0  0  0  0  0  0  0  0  0  0  0  0
  -24.1850  -13.0450   20.9160 C   0  0  0  0  0  0  0  0  0  0  0  0
  -24.6390  -11.6900   20.8730 C   0  0  0  0  0  0  0  0  0  0  0  0
  -26.3050  -12.9320   20.3400 N   0  0  0  0  0  0  0  0  0  0  0  0
  -25.9320  -11.6480   20.5770 N   0  0  0  0  0  0  0  0  0  0  0  0
  -23.9050  -10.4300   21.0400 C   0  0  0  0  0  0  0  0  0  0  0  0
  -24.3610   -9.4220   21.9180 C   0  0  0  0  0  3  0  0  0  0  0  0
  -23.6290   -8.2250   22.0750 C   0  0  0  0  0  3  0  0  0  0  0  0
  -22.4270   -8.0280   21.3540 C   0  0  0  0  0  0  0  0  0  0  0  0
  -21.9910   -9.0260   20.4650 C   0  0  0  0  0  3  0  0  0  0  0  0
  -22.7230  -10.2140   20.3050 C   0  0  0  0  0  3  0  0  0  0  0  0
  -21.6640   -6.8880   21.4240 O   0  0  0  0  0  0  0  0  0  0  0  0
  -21.6850   -6.0740   22.5280 C   0  0  0  0  0  0  0  0  0  0  0  0
  -21.4020   -6.5640   23.8220 C   0  0  0  0  0  3  0  0  0  0  0  0
  -21.3660   -5.6790   24.9180 C   0  0  0  0  0  3  0  0  0  0  0  0
  -21.6040   -4.3050   24.7230 C   0  0  0  0  0  0  0  0  0  0  0  0
  -21.8820   -3.8150   23.4340 C   0  0  0  0  0  3  0  0  0  0  0  0
  -21.9200   -4.6970   22.3400 C   0  0  0  0  0  0  0  0  0  0  0  0
  -22.1660   -4.2150   21.0980 F   0  0  0  0  0  0  0  0  0  0  0  0
  -21.5630   -3.4540   25.7740 F   0  0  0  0  0  0  0  0  0  0  0  0
  -22.7870  -13.5240   21.1830 C   0  0  0  0  0  0  0  0  0  0  0  0
  -22.0510  -12.8240   22.0390 N   0  0  0  0  0  0  0  0  0  0  0  0
  -22.3560  -14.5560   20.6690 O   0  0  0  0  0  0  0  0  0  0  0  0
  -22.4120  -11.9890   22.4770 H   0  0  0  0  0  0  0  0  0  0  0  0
  -21.1130  -13.1270   22.2600 H   0  0  0  0  0  0  0  0  0  0  0  0
  -25.4350  -15.1880   20.4100 N   0  0  0  0  0  0  0  0  0  0  0  0
  -24.6740  -15.8490   20.5220 H   0  0  0  0  0  0  0  0  0  0  0  0
  -26.2990  -15.6250   20.1100 H   0  0  0  0  0  0  0  0  0  0  0  0
  -30.0300  -23.5780   28.5110 C   0  0  0  0  0  0  0  0  0  0  0  0
  -30.4130  -22.8840   27.4290 N   0  0  0  0  0  0  0  0  0  0  0  0
  -28.9870  -24.2350   28.5280 O   0  0  0  0  0  0  0  0  0  0  0  0
  -31.2580  -22.3340   27.5110 H   0  0  0  0  0  0  0  0  0  0  0  0
  -29.6820  -22.8400   26.1610 C   0  0  0  0  0  2  0  0  0  0  0  0
  -29.9850  -24.0710   25.2840 C   0  0  0  0  0  2  0  0  0  0  0  0
  -29.0730  -24.1740   24.0510 C   0  0  0  0  0  2  0  0  0  0  0  0
  -29.4770  -25.2880   23.2620 O   0  0  0  0  0  0  0  0  0  0  0  0
  -28.5580  -25.5890   22.2170 C   0  0  0  0  0  2  0  0  0  0  0  0
  -29.1830  -26.5980   21.2370 C   0  0  0  0  0  2  0  0  0  0  0  0
  -28.3960  -26.7100   20.0490 O   0  0  0  0  0  0  0  0  0  0  0  0
  -24.6090  -31.8710   23.2110 C   0  0  0  0  0  0  0  0  0  0  0  0
  -27.2520  -27.4690   20.1130 C   0  0  0  0  0  0  0  0  0  0  0  0
  -23.3960  -30.4890   21.5530 C   0  0  0  0  0  3  0  0  0  0  0  0
  -24.8490  -28.9580   20.1200 C   0  0  0  0  0  0  0  0  0  0  0  0
  -25.9180  -30.8490   21.3600 C   0  0  0  0  0  2  0  0  0  0  0  0
  -26.0010  -29.4820   20.7190 C   0  0  0  0  0  0  0  0  0  0  0  0
  -27.2010  -28.7440   20.7240 C   0  0  0  0  0  3  0  0  0  0  0  0
  -26.0900  -26.9580   19.4990 C   0  0  0  0  0  3  0  0  0  0  0  0
  -24.8870  -27.6920   19.5090 C   0  0  0  0  0  3  0  0  0  0  0  0
  -23.6050  -29.8180   20.1680 C   0  0  0  0  0  2  0  0  0  0  0  0
  -24.6590  -31.0840   22.1010 N   0  0  0  0  0  0  0  0  0  0  0  0
  -23.5290  -32.1440   23.7540 O   0  0  0  0  0  0  0  0  0  0  0  0
  -22.7390  -29.4630   22.5020 C   0  0  0  0  0  0  0  0  0  0  0  0
  -21.4120  -29.2990   22.3770 N   0  0  0  0  0  0  0  0  0  0  0  0
  -23.4200  -28.8170   23.3040 O   0  0  0  0  0  0  0  0  0  0  0  0
  -20.9290  -29.8750   21.7020 H   0  0  0  0  0  0  0  0  0  0  0  0
  -18.0240  -28.1350   22.8460 C   0  0  0  0  0  0  0  0  0  0  0  0
  -20.5840  -28.3620   23.1340 C   0  0  0  0  0  3  0  0  0  0  0  0
  -20.6740  -26.9380   22.5420 C   0  0  0  0  0  2  0  0  0  0  0  0
  -19.5730  -26.6360   21.5200 C   0  0  0  0  0  2  0  0  0  0  0  0
  -18.1900  -26.7890   22.1600 C   0  0  0  0  0  2  0  0  0  0  0  0
  -19.1500  -28.8800   23.2880 C   0  0  0  0  0  0  0  0  0  0  0  0
  -18.9450  -30.1420   23.8880 C   0  0  0  0  0  3  0  0  0  0  0  0
  -17.6460  -30.6570   24.0550 C   0  0  0  0  0  3  0  0  0  0  0  0
  -16.5340  -29.9070   23.6320 C   0  0  0  0  0  3  0  0  0  0  0  0
  -16.7240  -28.6490   23.0320 C   0  0  0  0  0  3  0  0  0  0  0  0
  -25.8990  -32.4850   23.8410 C   0  0  0  0  0  3  0  0  0  0  0  0
  -26.4450  -31.6610   25.0710 C   0  0  1  0  0  0  0  0  0  0  0  0
  -25.3730  -31.3680   26.1470 C   0  0  0  0  0  1  0  0  0  0  0  0
  -27.0280  -30.3080   24.6020 C   0  0  0  0  0  1  0  0  0  0  0  0
  -27.6020  -32.4340   25.7460 C   0  0  0  0  0  1  0  0  0  0  0  0
  -25.5860  -33.8640   24.2360 N   0  0  0  0  0  0  0  0  0  0  0  0
  -25.9030  -34.9500   23.5170 C   0  0  0  0  0  0  0  0  0  0  0  0
  -26.5590  -34.8940   22.4730 O   0  0  0  0  0  0  0  0  0  0  0  0
  -24.9980  -33.9800   25.0480 H   0  0  0  0  0  0  0  0  0  0  0  0
  -24.1490  -36.7330   23.2640 C   0  0  0  0  0  1  0  0  0  0  0  0
  -25.4110  -36.3140   24.0340 C   0  0  0  0  0  3  0  0  0  0  0  0
  -27.5600  -37.1820   24.8460 C   0  0  0  0  0  1  0  0  0  0  0  0
  -26.4310  -37.3810   23.9400 N   0  0  0  0  0  0  0  0  0  0  0  0
  -26.0210  -38.2890   24.1420 H   0  0  0  0  0  0  0  0  0  0  0  0
  2  4  2  0
  3  1  1  0
  3  2  1  0
  5  3  1  0
  6  2  1  0
  7  6  1  0
  8  7  1  0
  9  8  1  0
 10  9  1  0
 11 10  1  0
 12 11  1  0
 13 12  1  0
 14 13  1  0
 15 14  1  0
 16 24  1  0
 17 22  1  0
 18 19  1  0
 18 17  1  0
 20 19  1  0
 20 29  1  0
 20 21  1  0
 22 16  1  0
 22 21  1  0
 23 16  2  0
 24 15  1  0
 24 25  1  0
 26 27  2  0
 27 46  1  0
 28 27  1  0
 28 31  1  0
 29 26  1  0
 29 30  1  0
 30 28  2  0
 31 32  1  0
 32 33  2  0
 34 37  1  0
 34 33  1  0
 35 34  2  0
 36 35  1  0
 36 31  2  0
 37 38  1  0
 38 39  1  0
 39 40  2  0
 41 40  1  0
 41 45  1  0
 42 41  2  0
 43 38  2  0
 43 42  1  0
 44 43  1  0
 46 47  1  0
 47 50  1  0
 47 49  1  0
 48 46  2  0
 51 52  1  0
 51 26  1  0
 53 51  1  0
 54 56  2  0
 54  1  1  0
 55 57  1  0
 55 54  1  0
 58 55  1  0
 59 58  1  0
 60 59  1  0
 61 60  1  0
 62 61  1  0
 63 62  1  0
 64 66  1  0
 64 63  1  0
 65 76  2  0
 66 71  1  0
 67 75  1  0
 67 77  1  0
 68 74  1  0
 68 70  1  0
 69 75  1  0
 70 71  2  0
 70 69  1  0
 72 73  1  0
 72 66  2  0
 73 68  2  0
 74 67  1  0
 75 65  1  0
 77 79  2  0
 78 77  1  0
 80 78  1  0
 81 90  2  0
 81 86  1  0
 82 78  1  0
 82 86  1  0
 83 82  1  0
 84 85  1  0
 84 83  1  0
 85 81  1  0
 86 87  2  0
 87 88  1  0
 89 88  2  0
 90 89  1  0
 91 65  1  0
 91 96  1  0
 91 92  1  0
 92 95  1  1
 92 93  1  0
 94 92  1  0
 96 99  1  0
 97101  1  0
 97 96  1  0
 98 97  2  0
101100  1  0
103101  1  0
103104  1  0
103102  1  0
M  ISO  4  16 100  24 100  63 101  64 101
M  END
>  <TORSDO>  (9) 
F 34

>  <SCORE>  (9) 
61.645

>  <name>  (9) 
8

>  <ligand_id>  (9) 
8

>  <original_smiles>  (9) 
[H]c1c([H])c([H])c2c(c1[H])C([H])([H])C([H])([H])C([H])([H])C2([H])N([H])C(=O)C1([H])N(C(=O)C([H])(N([H])C(=O)C([H])(N([H])C([H])([H])[H])C([H])([H])[H])C(C([H])([H])[H])(C([H])([H])[H])C([H])([H])[H])C([H])([H])c2c([H])c(OC([H])([H])C([H])([H])OC([H])([H])C([H])([H])C([H])([H])N([H])C(=O)C([H])([H])N([H])C(=O)C([H])([H])OC([H])([H])C([H])([H])C([H])([H])C([H])([H])C([H])([H])C([H])([H])C([H])([H])C([H])([H])N([H])C(=O)N3C([H])([H])C([H])([H])C([H])([H])C([H])(n4nc(-c5c([H])c([H])c(Oc6c([H])c([H])c(F)c([H])c6F)c([H])c5[H])c(C(=O)N([H])[H])c4N([H])[H])C3([H])[H])c([H])c([H])c2C1([H])[H]

>  <smiles>  (9) 
[H]c1c([H])c([H])c2c(c1[H])C([H])([H])C([H])([H])C([H])([H])C2([H])N([H])C(=O)C1([H])N(C(=O)C([H])(N([H])C(=O)C([H])(N([H])C([H])([H])[H])C([H])([H])[H])C(C([H])([H])[H])(C([H])([H])[H])C([H])([H])[H])C([H])([H])c2c([H])c(OC([H])([H])C([H])([H])OC([H])([H])C([H])([H])C([H])([H])N([H])C(=O)C([H])([H])N([H])C(=O)C([H])([H])OC([H])([H])C([H])([H])C([H])([H])C([H])([H])C([H])([H])C([H])([H])C([H])([H])C([H])([H])N([H])C(=O)N3C([H])([H])C([H])([H])C([H])([H])C([H])(n4nc(-c5c([H])c([H])c(Oc6c([H])c([H])c(F)c([H])c6F)c([H])c5[H])c(C(=O)N([H])[H])c4N([H])[H])C3([H])[H])c([H])c([H])c2C1([H])[H]

$$$$
9:0:0
     RDKit          3D

 97104  0  0  1  0  0  0  0  0999 V2000
  -22.5490  -27.0410   19.6080 O   0  0  0  0  0  0  0  0  0  0  0  0
  -21.8730  -28.3220   20.3690 C   0  0  0  0  0  2  0  0  0  0  0  0
  -22.3410  -29.6010   21.5650 C   0  0  0  0  0  2  0  0  0  0  0  0
  -22.6980  -29.7460   23.3700 C   0  0  0  0  0  2  0  0  0  0  0  0
  -23.1190  -28.6430   24.5780 O   0  0  0  0  0  0  0  0  0  0  0  0
  -24.2670  -27.5480   25.1900 C   0  0  0  0  0  2  0  0  0  0  0  0
  -25.7160  -26.4320   24.8380 C   0  0  0  0  0  2  0  0  0  0  0  0
  -27.3570  -26.3200   23.9770 C   0  0  0  0  0  2  0  0  0  0  0  0
  -28.3870  -25.4580   23.0040 O   0  0  0  0  0  0  0  0  0  0  0  0
  -25.8710  -30.1460   23.7840 C   0  0  0  0  0  0  0  0  0  0  0  0
  -28.9080  -25.9110   21.8010 C   0  0  0  0  0  3  0  0  0  0  0  0
  -25.2220  -28.3760   21.9370 C   0  0  0  0  0  3  0  0  0  0  0  0
  -27.0130  -27.3910   20.7110 C   0  0  0  0  0  0  0  0  0  0  0  0
  -27.5810  -29.2430   22.3170 C   0  0  0  0  0  2  0  0  0  0  0  0
  -27.9420  -27.9810   21.5630 C   0  0  0  0  0  0  0  0  0  0  0  0
  -29.0940  -27.2820   21.8890 C   0  0  0  0  0  2  0  0  0  0  0  0
  -28.2460  -25.3400   20.6850 C   0  0  0  0  0  2  0  0  0  0  0  0
  -27.1830  -26.1040   20.1840 C   0  0  0  0  0  2  0  0  0  0  0  0
  -25.7850  -28.1590   20.5360 C   0  0  0  0  0  2  0  0  0  0  0  0
  -26.1990  -29.1860   22.8240 N   0  0  0  0  0  0  0  0  0  0  0  0
  -24.7210  -30.5430   23.9440 O   0  0  0  0  0  0  0  0  0  0  0  0
  -24.5320  -26.9060   22.3600 C   0  0  0  0  0  0  0  0  0  0  0  0
  -23.1820  -26.6590   22.5530 N   0  0  0  0  0  0  0  0  0  0  0  0
  -25.2080  -25.9870   22.6460 O   0  0  0  0  0  0  0  0  0  0  0  0
  -22.7670  -27.5460   22.3150 H   0  0  0  0  0  0  0  0  0  0  0  0
  -19.6880  -25.7350   22.0780 C   0  0  0  0  0  0  0  0  0  0  0  0
  -22.0610  -25.9660   23.1770 C   0  0  0  0  0  3  0  0  0  0  0  0
  -22.1870  -24.4990   22.9030 C   0  0  0  0  0  2  0  0  0  0  0  0
  -21.4830  -23.9620   21.6600 C   0  0  0  0  0  2  0  0  0  0  0  0
  -20.0140  -24.3370   21.6070 C   0  0  0  0  0  2  0  0  0  0  0  0
  -20.6100  -26.5130   22.8270 C   0  0  0  0  0  0  0  0  0  0  0  0
  -20.1000  -27.7410   23.3380 C   0  0  0  0  0  3  0  0  0  0  0  0
  -18.8070  -28.2220   23.0310 C   0  0  0  0  0  3  0  0  0  0  0  0
  -17.9340  -27.4370   22.2750 C   0  0  0  0  0  3  0  0  0  0  0  0
  -18.3690  -26.1830   21.8190 C   0  0  0  0  0  3  0  0  0  0  0  0
  -26.9080  -30.8430   24.7370 C   0  0  0  0  0  3  0  0  0  0  0  0
  -26.5610  -32.2670   24.7880 N   0  0  0  0  0  0  0  0  0  0  0  0
  -27.1270  -33.2070   24.0330 C   0  0  0  0  0  0  0  0  0  0  0  0
  -28.0280  -32.9650   23.2270 O   0  0  0  0  0  0  0  0  0  0  0  0
  -25.7610  -32.5220   25.3540 H   0  0  0  0  0  0  0  0  0  0  0  0
  -25.6120  -34.9630   23.0800 C   0  0  0  0  0  1  0  0  0  0  0  0
  -26.5930  -34.6370   24.2140 C   0  0  0  0  0  3  0  0  0  0  0  0
  -28.4900  -35.5540   25.4660 C   0  0  0  0  0  1  0  0  0  0  0  0
  -27.6640  -35.6530   24.2660 N   0  0  0  0  0  0  0  0  0  0  0  0
  -27.2740  -36.5910   24.2250 H   0  0  0  0  0  0  0  0  0  0  0  0
  -27.0280  -30.3490   26.2460 C   0  0  1  0  0  0  0  0  0  0  0  0
  -25.7020  -30.1630   27.0260 C   0  0  0  0  0  1  0  0  0  0  0  0
  -27.7950  -29.0630   26.2770 C   0  0  0  0  0  1  0  0  0  0  0  0
  -27.8900  -31.3130   27.0760 C   0  0  0  0  0  1  0  0  0  0  0  0
  -22.5420  -25.4200   19.7240 C   0  0  0  0  0  2  0  0  0  0  0  0
  -23.4810  -24.3170   18.8360 C   0  0  0  0  0  0  0  0  0  0  0  0
  -23.9090  -22.9750   19.1950 N   0  0  0  0  0  0  0  0  0  0  0  0
  -23.8300  -24.7160   17.7220 O   0  0  0  0  0  0  0  0  0  0  0  0
  -23.5510  -22.6480   20.0900 H   0  0  0  0  0  0  0  0  0  0  0  0
  -24.9330  -21.9360   18.4970 C   0  0  0  0  0  2  0  0  0  0  0  0
  -25.3260  -20.3010   18.8980 C   0  0  0  0  0  3  0  0  0  0  0  0
  -26.7340  -19.4010   18.4610 C   0  0  0  0  0  3  0  0  0  0  0  0
  -27.2300  -17.8120   18.9240 C   0  0  0  0  0  3  0  0  0  0  0  0
  -28.7920  -17.0710   18.8100 C   0  0  0  0  0  3  0  0  0  0  0  0
  -30.4540  -14.8680   19.5740 C   0  0  0  0  0  0  0  0  0  0  0  0
  -30.8740  -12.3960   19.2130 C   0  0  0  0  0  2  0  0  0  0  0  0
  -29.9140  -11.9860   18.0650 C   0  0  0  0  0  2  0  0  0  0  0  0
  -28.4880  -11.7140   18.5990 C   0  0  0  0  0  2  0  0  0  0  0  0
  -28.0260  -12.8040   19.5970 C   0  0  0  0  0  3  0  0  0  0  0  0
  -29.0960  -13.0840   20.6670 C   0  0  0  0  0  2  0  0  0  0  0  0
  -30.2550  -13.5460   19.9220 N   0  0  0  0  0  0  0  0  0  0  0  0
  -31.5970  -15.1640   19.1740 O   0  0  0  0  0  0  0  0  0  0  0  0
  -29.2860  -15.7160   19.5160 N   0  0  0  0  0  0  0  0  0  0  0  0
  -28.5110  -15.2430   19.9570 H   0  0  0  0  0  0  0  0  0  0  0  0
  -25.7940  -13.4090   20.6680 C   0  0  0  0  0  0  0  0  0  0  0  0
  -24.7540  -12.6370   21.0980 C   0  0  0  0  0  0  0  0  0  0  0  0
  -25.1530  -11.2840   20.8840 C   0  0  0  0  0  0  0  0  0  0  0  0
  -26.7490  -12.5220   20.2120 N   0  0  0  0  0  0  0  0  0  0  0  0
  -26.3890  -11.2310   20.4130 N   0  0  0  0  0  0  0  0  0  0  0  0
  -24.4080  -10.0310   21.0350 C   0  0  0  0  0  0  0  0  0  0  0  0
  -24.7630   -9.0760   22.0120 C   0  0  0  0  0  3  0  0  0  0  0  0
  -24.0210   -7.8850   22.1450 C   0  0  0  0  0  3  0  0  0  0  0  0
  -22.9100   -7.6440   21.3030 C   0  0  0  0  0  0  0  0  0  0  0  0
  -22.5790   -8.5890   20.3150 C   0  0  0  0  0  3  0  0  0  0  0  0
  -23.3220   -9.7720   20.1790 C   0  0  0  0  0  3  0  0  0  0  0  0
  -22.1430   -6.5070   21.3460 O   0  0  0  0  0  0  0  0  0  0  0  0
  -21.8140   -5.9080   22.5360 C   0  0  0  0  0  0  0  0  0  0  0  0
  -21.0660   -6.5800   23.5260 C   0  0  0  0  0  3  0  0  0  0  0  0
  -20.6900   -5.9040   24.7030 C   0  0  0  0  0  3  0  0  0  0  0  0
  -21.0520   -4.5550   24.8880 C   0  0  0  0  0  0  0  0  0  0  0  0
  -21.7920   -3.8840   23.8990 C   0  0  0  0  0  3  0  0  0  0  0  0
  -22.1690   -4.5580   22.7240 C   0  0  0  0  0  0  0  0  0  0  0  0
  -22.8650   -3.9010   21.7650 F   0  0  0  0  0  0  0  0  0  0  0  0
  -20.6840   -3.9020   26.0130 F   0  0  0  0  0  0  0  0  0  0  0  0
  -23.4160  -13.1270   21.5750 C   0  0  0  0  0  0  0  0  0  0  0  0
  -22.7730  -12.3810   22.4590 N   0  0  0  0  0  0  0  0  0  0  0  0
  -22.9630  -14.2070   21.1920 O   0  0  0  0  0  0  0  0  0  0  0  0
  -23.1580  -11.5070   22.7840 H   0  0  0  0  0  0  0  0  0  0  0  0
  -21.8810  -12.6890   22.8240 H   0  0  0  0  0  0  0  0  0  0  0  0
  -25.9920  -14.7870   20.5940 N   0  0  0  0  0  0  0  0  0  0  0  0
  -25.2280  -15.4170   20.8070 H   0  0  0  0  0  0  0  0  0  0  0  0
  -26.7030  -15.2170   20.0210 H   0  0  0  0  0  0  0  0  0  0  0  0
  1 50  1  0
  1  2  1  0
  2  3  1  0
  3  4  1  0
  4  5  1  0
  5  6  1  0
  7  6  1  0
  8  7  1  0
  9  8  1  0
 10 21  2  0
 11 16  1  0
 11  9  1  0
 12 22  1  0
 12 20  1  0
 13 15  2  0
 14 20  1  0
 15 16  1  0
 15 14  1  0
 17 11  1  0
 18 17  1  0
 18 13  1  0
 19 13  1  0
 19 12  1  0
 20 10  1  0
 22 23  1  0
 22 24  2  0
 25 23  1  0
 26 31  1  0
 27 23  1  0
 28 27  1  0
 29 28  1  0
 30 29  1  0
 30 26  1  0
 31 27  1  0
 31 32  2  0
 33 32  1  0
 34 33  2  0
 35 26  2  0
 35 34  1  0
 36 10  1  0
 36 37  1  0
 36 46  1  0
 37 40  1  0
 38 42  1  0
 38 37  1  0
 39 38  2  0
 42 41  1  0
 42 44  1  0
 44 43  1  0
 45 44  1  0
 46 48  1  6
 46 47  1  0
 46 49  1  0
 51 52  1  0
 51 50  1  0
 52 54  1  0
 53 51  2  0
 55 56  1  0
 55 52  1  0
 57 56  2  0
 57 58  1  0
 59 58  2  0
 59 68  1  0
 60 66  1  0
 61 66  1  0
 62 63  1  0
 62 61  1  0
 64 63  1  0
 64 73  1  0
 64 65  1  0
 66 65  1  0
 67 60  2  0
 68 60  1  0
 68 69  1  0
 70 71  2  0
 71 90  1  0
 72 75  1  0
 72 71  1  0
 73 74  1  0
 73 70  1  0
 74 72  2  0
 75 76  1  0
 76 77  2  0
 78 81  1  0
 78 77  1  0
 79 78  2  0
 80 79  1  0
 80 75  2  0
 81 82  1  0
 82 87  2  0
 82 83  1  0
 83 84  2  0
 84 85  1  0
 85 89  1  0
 86 85  2  0
 87 86  1  0
 88 87  1  0
 90 91  1  0
 91 93  1  0
 91 94  1  0
 92 90  2  0
 95 70  1  0
 95 96  1  0
 97 95  1  0
M  ISO  4   8 101   9 101  60 100  68 100
M  END
>  <TORSDO>  (10) 
F 30

>  <SCORE>  (10) 
-9.528

>  <name>  (10) 
9

>  <ligand_id>  (10) 
9

>  <original_smiles>  (10) 
[H]c1c([H])c([H])c2c(c1[H])C([H])([H])C([H])([H])C([H])([H])C2([H])N([H])C(=O)C1([H])N(C(=O)C([H])(N([H])C(=O)C([H])(N([H])C([H])([H])[H])C([H])([H])[H])C(C([H])([H])[H])(C([H])([H])[H])C([H])([H])[H])C([H])([H])c2c([H])c(OC([H])([H])C([H])([H])C([H])([H])OC([H])([H])C([H])([H])C([H])([H])OC([H])([H])C(=O)N([H])C([H])([H])C([H])([H])C([H])([H])C([H])([H])C([H])([H])N([H])C(=O)N3C([H])([H])C([H])([H])C([H])([H])C([H])(n4nc(-c5c([H])c([H])c(Oc6c([H])c([H])c(F)c([H])c6F)c([H])c5[H])c(C(=O)N([H])[H])c4N([H])[H])C3([H])[H])c([H])c([H])c2C1([H])[H]

>  <smiles>  (10) 
[H]c1c([H])c([H])c2c(c1[H])C([H])([H])C([H])([H])C([H])([H])C2([H])N([H])C(=O)C1([H])N(C(=O)C([H])(N([H])C(=O)C([H])(N([H])C([H])([H])[H])C([H])([H])[H])C(C([H])([H])[H])(C([H])([H])[H])C([H])([H])[H])C([H])([H])c2c([H])c(OC([H])([H])C([H])([H])C([H])([H])OC([H])([H])C([H])([H])C([H])([H])OC([H])([H])C(=O)N([H])C([H])([H])C([H])([H])C([H])([H])C([H])([H])C([H])([H])N([H])C(=O)N3C([H])([H])C([H])([H])C([H])([H])C([H])(n4nc(-c5c([H])c([H])c(Oc6c([H])c([H])c(F)c([H])c6F)c([H])c5[H])c(C(=O)N([H])[H])c4N([H])[H])C3([H])[H])c([H])c([H])c2C1([H])[H]

$$$$
10:0:0
     RDKit          3D

113120  0  0  1  0  0  0  0  0999 V2000
  -31.3860  -16.3320   13.7010 C   0  0  0  0  0  0  0  0  0  0  0  0
  -31.5150  -16.7310   14.9740 N   0  0  0  0  0  0  0  0  0  0  0  0
  -30.4390  -16.6860   12.9930 O   0  0  0  0  0  0  0  0  0  0  0  0
  -32.3270  -16.3960   15.4750 H   0  0  0  0  0  0  0  0  0  0  0  0
  -30.4430  -17.3800   15.7230 C   0  0  0  0  0  2  0  0  0  0  0  0
  -30.8930  -17.9790   17.0630 C   0  0  0  0  0  2  0  0  0  0  0  0
  -31.7670  -19.2330   16.9270 C   0  0  0  0  0  2  0  0  0  0  0  0
  -31.9870  -19.9310   18.2800 C   0  0  0  0  0  2  0  0  0  0  0  0
  -30.8620  -20.9130   18.6480 C   0  0  0  0  0  2  0  0  0  0  0  0
  -31.0880  -22.3260   18.0900 C   0  0  0  0  0  2  0  0  0  0  0  0
  -32.2190  -23.0740   18.8320 C   0  0  0  0  0  2  0  0  0  0  0  0
  -32.3240  -24.5740   18.5050 C   0  0  0  0  0  2  0  0  0  0  0  0
  -30.3990  -25.4250   19.8260 C   0  0  0  0  0  0  0  0  0  0  0  0
  -31.0440  -25.2500   18.6670 N   0  0  0  0  0  0  0  0  0  0  0  0
  -30.9190  -25.2070   20.9240 O   0  0  0  0  0  0  0  0  0  0  0  0
  -30.5330  -25.4640   17.8200 H   0  0  0  0  0  0  0  0  0  0  0  0
  -28.9390  -25.8610   19.7320 C   0  0  0  0  0  2  0  0  0  0  0  0
  -28.7840  -27.1160   20.3780 O   0  0  0  0  0  0  0  0  0  0  0  0
  -24.6160  -31.9930   23.3580 C   0  0  0  0  0  0  0  0  0  0  0  0
  -27.5570  -27.7350   20.3190 C   0  0  0  0  0  0  0  0  0  0  0  0
  -23.5310  -30.5930   21.6270 C   0  0  0  0  0  3  0  0  0  0  0  0
  -25.0980  -29.1300   20.2490 C   0  0  0  0  0  0  0  0  0  0  0  0
  -26.0460  -31.0380   21.5590 C   0  0  0  0  0  2  0  0  0  0  0  0
  -26.2050  -29.6860   20.9020 C   0  0  0  0  0  0  0  0  0  0  0  0
  -27.4300  -28.9920   20.9420 C   0  0  0  0  0  3  0  0  0  0  0  0
  -26.4290  -27.1780   19.6650 C   0  0  0  0  0  3  0  0  0  0  0  0
  -25.2040  -27.8710   19.6320 C   0  0  0  0  0  3  0  0  0  0  0  0
  -23.8250  -29.9440   20.2480 C   0  0  0  0  0  2  0  0  0  0  0  0
  -24.7450  -31.2210   22.2420 N   0  0  0  0  0  0  0  0  0  0  0  0
  -23.5020  -32.2220   23.8510 O   0  0  0  0  0  0  0  0  0  0  0  0
  -22.8640  -29.5340   22.5340 C   0  0  0  0  0  0  0  0  0  0  0  0
  -21.5410  -29.3630   22.3810 N   0  0  0  0  0  0  0  0  0  0  0  0
  -23.5360  -28.8710   23.3290 O   0  0  0  0  0  0  0  0  0  0  0  0
  -21.0620  -29.9590   21.7220 H   0  0  0  0  0  0  0  0  0  0  0  0
  -18.1520  -28.1960   22.8140 C   0  0  0  0  0  0  0  0  0  0  0  0
  -20.7120  -28.3920   23.0940 C   0  0  0  0  0  3  0  0  0  0  0  0
  -20.7890  -26.9960   22.4340 C   0  0  0  0  0  2  0  0  0  0  0  0
  -19.6820  -26.7530   21.4030 C   0  0  0  0  0  2  0  0  0  0  0  0
  -18.3030  -26.8860   22.0570 C   0  0  0  0  0  2  0  0  0  0  0  0
  -19.2840  -28.9110   23.2850 C   0  0  0  0  0  0  0  0  0  0  0  0
  -19.0910  -30.1410   23.9500 C   0  0  0  0  0  3  0  0  0  0  0  0
  -17.7970  -30.6580   24.1450 C   0  0  0  0  0  3  0  0  0  0  0  0
  -16.6780  -29.9390   23.6900 C   0  0  0  0  0  3  0  0  0  0  0  0
  -16.8560  -28.7080   23.0330 C   0  0  0  0  0  3  0  0  0  0  0  0
  -25.8530  -32.6430   24.0530 C   0  0  0  0  0  3  0  0  0  0  0  0
  -26.3710  -31.8220   25.2980 C   0  0  1  0  0  0  0  0  0  0  0  0
  -25.2660  -31.4930   26.3280 C   0  0  0  0  0  1  0  0  0  0  0  0
  -27.0080  -30.4880   24.8450 C   0  0  0  0  0  1  0  0  0  0  0  0
  -27.4820  -32.6160   26.0220 C   0  0  0  0  0  1  0  0  0  0  0  0
  -25.4720  -34.0050   24.4500 N   0  0  0  0  0  0  0  0  0  0  0  0
  -25.7910  -35.1130   23.7680 C   0  0  0  0  0  0  0  0  0  0  0  0
  -26.5090  -35.0970   22.7640 O   0  0  0  0  0  0  0  0  0  0  0  0
  -24.8400  -34.0870   25.2320 H   0  0  0  0  0  0  0  0  0  0  0  0
  -24.0010  -36.8470   23.4360 C   0  0  0  0  0  1  0  0  0  0  0  0
  -25.2230  -36.4510   24.2800 C   0  0  0  0  0  3  0  0  0  0  0  0
  -27.2840  -37.3690   25.2480 C   0  0  0  0  0  1  0  0  0  0  0  0
  -26.2110  -37.5510   24.2740 N   0  0  0  0  0  0  0  0  0  0  0  0
  -25.7600  -38.4430   24.4610 H   0  0  0  0  0  0  0  0  0  0  0  0
  -32.4390  -15.3630   13.1270 C   0  0  0  0  0  2  0  0  0  0  0  0
  -33.3460  -14.8570   14.1180 O   0  0  0  0  0  0  0  0  0  0  0  0
  -32.8330  -13.8300   14.9680 C   0  0  0  0  0  2  0  0  0  0  0  0
  -33.9650  -12.8680   15.3530 C   0  0  0  0  0  2  0  0  0  0  0  0
  -34.7590  -13.4180   16.4010 O   0  0  0  0  0  0  0  0  0  0  0  0
  -35.9490  -12.6660   16.6230 C   0  0  0  0  0  2  0  0  0  0  0  0
  -36.5460  -13.0070   17.9990 C   0  0  0  0  0  2  0  0  0  0  0  0
  -36.2120  -11.0140   19.4420 C   0  0  0  0  0  0  0  0  0  0  0  0
  -35.9150  -12.2750   19.0990 N   0  0  0  0  0  0  0  0  0  0  0  0
  -36.9100  -10.2950   18.7260 O   0  0  0  0  0  0  0  0  0  0  0  0
  -35.2870  -12.7900   19.7020 H   0  0  0  0  0  0  0  0  0  0  0  0
  -35.6600  -10.4590   20.7660 C   0  0  0  0  0  2  0  0  0  0  0  0
  -34.1040  -12.0980   21.8260 C   0  0  0  0  0  0  0  0  0  0  0  0
  -34.3460  -10.9700   21.1550 N   0  0  0  0  0  0  0  0  0  0  0  0
  -34.9910  -12.8830   22.1600 O   0  0  0  0  0  0  0  0  0  0  0  0
  -33.5520  -10.3980   20.9060 H   0  0  0  0  0  0  0  0  0  0  0  0
  -32.6330  -12.4260   22.1210 C   0  0  0  0  0  2  0  0  0  0  0  0
  -32.0490  -13.2340   19.9110 C   0  0  0  0  0  0  0  0  0  0  0  0
  -31.0480  -11.7000   18.2640 C   0  0  0  0  0  2  0  0  0  0  0  0
  -30.0610  -12.3990   17.3150 C   0  0  0  0  0  2  0  0  0  0  0  0
  -28.6540  -12.4610   17.9360 C   0  0  0  0  0  2  0  0  0  0  0  0
  -28.6660  -13.0230   19.3800 C   0  0  0  0  0  3  0  0  0  0  0  0
  -29.7350  -12.3040   20.2330 C   0  0  0  0  0  2  0  0  0  0  0  0
  -31.0400  -12.3990   19.5550 N   0  0  0  0  0  0  0  0  0  0  0  0
  -32.9300  -13.6250   19.1460 O   0  0  0  0  0  0  0  0  0  0  0  0
  -32.1510  -13.4770   21.2230 N   0  0  0  0  0  0  0  0  0  0  0  0
  -32.6360  -14.3430   21.4090 H   0  0  0  0  0  0  0  0  0  0  0  0
  -26.4890  -13.9610   20.4070 C   0  0  0  0  0  0  0  0  0  0  0  0
  -25.3430  -13.3490   20.8340 C   0  0  0  0  0  0  0  0  0  0  0  0
  -25.5480  -11.9480   20.6420 C   0  0  0  0  0  0  0  0  0  0  0  0
  -27.3370  -12.9430   19.9910 N   0  0  0  0  0  0  0  0  0  0  0  0
  -26.7730  -11.7200   20.1850 N   0  0  0  0  0  0  0  0  0  0  0  0
  -24.6290  -10.8150   20.8110 C   0  0  0  0  0  0  0  0  0  0  0  0
  -24.9610   -9.7110   21.6260 C   0  0  0  0  0  3  0  0  0  0  0  0
  -24.0540   -8.6440   21.7930 C   0  0  0  0  0  3  0  0  0  0  0  0
  -22.7960   -8.6740   21.1440 C   0  0  0  0  0  0  0  0  0  0  0  0
  -22.4780   -9.7650   20.3160 C   0  0  0  0  0  3  0  0  0  0  0  0
  -23.3830  -10.8240   20.1470 C   0  0  0  0  0  3  0  0  0  0  0  0
  -21.8610   -7.6710   21.2240 O   0  0  0  0  0  0  0  0  0  0  0  0
  -21.7600   -6.8680   22.3330 C   0  0  0  0  0  0  0  0  0  0  0  0
  -21.5210   -7.4010   23.6190 C   0  0  0  0  0  3  0  0  0  0  0  0
  -21.3540   -6.5350   24.7190 C   0  0  0  0  0  3  0  0  0  0  0  0
  -21.4180   -5.1420   24.5350 C   0  0  0  0  0  0  0  0  0  0  0  0
  -21.6480   -4.6090   23.2550 C   0  0  0  0  0  3  0  0  0  0  0  0
  -21.8160   -5.4710   22.1550 C   0  0  0  0  0  0  0  0  0  0  0  0
  -22.0180   -4.9530   20.9190 F   0  0  0  0  0  0  0  0  0  0  0  0
  -21.2500   -4.3110   25.5890 F   0  0  0  0  0  0  0  0  0  0  0  0
  -24.0880  -14.0240   21.3090 C   0  0  0  0  0  0  0  0  0  0  0  0
  -23.3540  -13.3960   22.2200 N   0  0  0  0  0  0  0  0  0  0  0  0
  -23.7730  -15.1430   20.9040 O   0  0  0  0  0  0  0  0  0  0  0  0
  -23.6160  -12.4890   22.5780 H   0  0  0  0  0  0  0  0  0  0  0  0
  -22.5140  -13.8340   22.5730 H   0  0  0  0  0  0  0  0  0  0  0  0
  -26.8780  -15.2970   20.3220 N   0  0  0  0  0  0  0  0  0  0  0  0
  -26.2590  -16.0530   20.5860 H   0  0  0  0  0  0  0  0  0  0  0  0
  -27.7650  -15.6190   19.9560 H   0  0  0  0  0  0  0  0  0  0  0  0
  1  2  1  0
  2  4  1  0
  2  5  1  0
  3  1  2  0
  5  6  1  0
  7  6  1  0
  7  8  1  0
  8  9  1  0
 10  9  1  0
 10 11  1  0
 12 14  1  0
 12 11  1  0
 13 15  2  0
 14 13  1  0
 16 14  1  0
 17 13  1  0
 17 18  1  0
 19 30  2  0
 20 18  1  0
 20 25  1  0
 21 29  1  0
 21 31  1  0
 22 24  1  0
 23 29  1  0
 24 25  2  0
 24 23  1  0
 26 20  2  0
 27 26  1  0
 27 22  2  0
 28 22  1  0
 28 21  1  0
 29 19  1  0
 31 33  2  0
 32 31  1  0
 34 32  1  0
 35 44  2  0
 35 40  1  0
 36 32  1  0
 36 40  1  0
 37 36  1  0
 38 39  1  0
 38 37  1  0
 39 35  1  0
 40 41  2  0
 41 42  1  0
 43 42  2  0
 44 43  1  0
 45 19  1  0
 45 50  1  0
 45 46  1  0
 46 49  1  1
 46 47  1  0
 48 46  1  0
 50 53  1  0
 51 55  1  0
 51 50  1  0
 52 51  2  0
 55 54  1  0
 57 55  1  0
 57 58  1  0
 57 56  1  0
 59  1  1  0
 59 60  1  0
 60 61  1  0
 61 62  1  0
 62 63  1  0
 63 64  1  0
 64 65  1  0
 65 67  1  0
 66 70  1  0
 67 66  1  0
 67 69  1  0
 68 66  2  0
 70 72  1  0
 71 75  1  0
 71 73  2  0
 72 71  1  0
 74 72  1  0
 76 84  1  0
 77 82  1  0
 78 79  1  0
 78 77  1  0
 80 79  1  0
 80 89  1  0
 80 81  1  0
 82 76  1  0
 82 81  1  0
 83 76  2  0
 84 85  1  0
 84 75  1  0
 86 87  2  0
 87106  1  0
 88 91  1  0
 88 87  1  0
 89 90  1  0
 89 86  1  0
 90 88  2  0
 91 92  1  0
 92 93  2  0
 94 97  1  0
 94 93  1  0
 95 94  2  0
 96 95  1  0
 96 91  2  0
 97 98  1  0
 98 99  1  0
 99100  2  0
101100  1  0
101105  1  0
102101  2  0
103 98  2  0
103102  1  0
104103  1  0
106107  1  0
107110  1  0
107109  1  0
108106  2  0
111 86  1  0
111112  1  0
113111  1  0
M  ISO  4  17 101  18 101  76 100  84 100
M  END
>  <TORSDO>  (11) 
F 37

>  <SCORE>  (11) 
-7.814

>  <name>  (11) 
10

>  <ligand_id>  (11) 
10

>  <original_smiles>  (11) 
[H]c1c([H])c([H])c2c(c1[H])C([H])([H])C([H])([H])C([H])([H])C2([H])N([H])C(=O)C1([H])N(C(=O)C([H])(N([H])C(=O)C([H])(N([H])C([H])([H])[H])C([H])([H])[H])C(C([H])([H])[H])(C([H])([H])[H])C([H])([H])[H])C([H])([H])c2c([H])c(OC([H])([H])C(=O)N([H])C([H])([H])C([H])([H])C([H])([H])C([H])([H])C([H])([H])C([H])([H])C([H])([H])C([H])([H])N([H])C(=O)C([H])([H])OC([H])([H])C([H])([H])OC([H])([H])C([H])([H])N([H])C(=O)C([H])([H])N([H])C(=O)C([H])([H])N([H])C(=O)N3C([H])([H])C([H])([H])C([H])([H])C([H])(n4nc(-c5c([H])c([H])c(Oc6c([H])c([H])c(F)c([H])c6F)c([H])c5[H])c(C(=O)N([H])[H])c4N([H])[H])C3([H])[H])c([H])c([H])c2C1([H])[H]

>  <smiles>  (11) 
[H]c1c([H])c([H])c2c(c1[H])C([H])([H])C([H])([H])C([H])([H])C2([H])N([H])C(=O)C1([H])N(C(=O)C([H])(N([H])C(=O)C([H])(N([H])C([H])([H])[H])C([H])([H])[H])C(C([H])([H])[H])(C([H])([H])[H])C([H])([H])[H])C([H])([H])c2c([H])c(OC([H])([H])C(=O)N([H])C([H])([H])C([H])([H])C([H])([H])C([H])([H])C([H])([H])C([H])([H])C([H])([H])C([H])([H])N([H])C(=O)C([H])([H])OC([H])([H])C([H])([H])OC([H])([H])C([H])([H])N([H])C(=O)C([H])([H])N([H])C(=O)C([H])([H])N([H])C(=O)N3C([H])([H])C([H])([H])C([H])([H])C([H])(n4nc(-c5c([H])c([H])c(Oc6c([H])c([H])c(F)c([H])c6F)c([H])c5[H])c(C(=O)N([H])[H])c4N([H])[H])C3([H])[H])c([H])c([H])c2C1([H])[H]

$$$$
13:0:0
     RDKit          3D

105112  0  0  1  0  0  0  0  0999 V2000
  -27.3620  -24.3490   11.7780 C   0  0  0  0  0  2  0  0  0  0  0  0
  -26.9600  -25.1420   12.8920 O   0  0  0  0  0  0  0  0  0  0  0  0
  -25.5980  -24.9350   13.2500 C   0  0  0  0  0  2  0  0  0  0  0  0
  -25.2550  -25.6920   14.5380 C   0  0  0  0  0  2  0  0  0  0  0  0
  -25.9570  -25.1140   15.6340 O   0  0  0  0  0  0  0  0  0  0  0  0
  -25.2550  -25.2800   16.8600 C   0  0  0  0  0  2  0  0  0  0  0  0
  -26.1150  -24.8010   18.0320 C   0  0  0  0  0  0  0  0  0  0  0  0
  -27.4300  -25.0420   17.9550 N   0  0  0  0  0  0  0  0  0  0  0  0
  -25.5870  -24.2860   19.0190 O   0  0  0  0  0  0  0  0  0  0  0  0
  -27.7600  -25.4480   17.0890 H   0  0  0  0  0  0  0  0  0  0  0  0
  -28.4180  -24.7320   18.9870 C   0  0  0  0  0  2  0  0  0  0  0  0
  -28.1240  -25.3580   20.3710 C   0  0  0  0  0  2  0  0  0  0  0  0
  -28.2610  -26.7850   20.4000 O   0  0  0  0  0  0  0  0  0  0  0  0
  -24.6890  -32.0230   23.6460 C   0  0  0  0  0  0  0  0  0  0  0  0
  -27.1120  -27.5460   20.4430 C   0  0  0  0  0  0  0  0  0  0  0  0
  -23.4170  -30.7370   21.9640 C   0  0  0  0  0  3  0  0  0  0  0  0
  -24.7930  -29.1640   20.5140 C   0  0  0  0  0  0  0  0  0  0  0  0
  -25.9640  -30.9730   21.7790 C   0  0  0  0  0  2  0  0  0  0  0  0
  -25.9840  -29.6210   21.0960 C   0  0  0  0  0  0  0  0  0  0  0  0
  -27.1510  -28.8220   21.0460 C   0  0  0  0  0  3  0  0  0  0  0  0
  -25.8920  -27.1010   19.8880 C   0  0  0  0  0  3  0  0  0  0  0  0
  -24.7390  -27.8980   19.9180 C   0  0  0  0  0  3  0  0  0  0  0  0
  -23.5940  -30.0790   20.5740 C   0  0  0  0  0  2  0  0  0  0  0  0
  -24.7100  -31.2550   22.5210 N   0  0  0  0  0  0  0  0  0  0  0  0
  -23.6200  -32.3380   24.1900 O   0  0  0  0  0  0  0  0  0  0  0  0
  -22.7120  -29.7240   22.8910 C   0  0  0  0  0  0  0  0  0  0  0  0
  -21.4020  -29.5200   22.6670 N   0  0  0  0  0  0  0  0  0  0  0  0
  -23.3400  -29.1190   23.7630 O   0  0  0  0  0  0  0  0  0  0  0  0
  -20.9590  -30.0540   21.9330 H   0  0  0  0  0  0  0  0  0  0  0  0
  -18.0320  -28.2380   22.8770 C   0  0  0  0  0  0  0  0  0  0  0  0
  -20.5400  -28.5850   23.3910 C   0  0  0  0  0  3  0  0  0  0  0  0
  -20.7420  -27.1370   22.8860 C   0  0  0  0  0  2  0  0  0  0  0  0
  -19.7570  -26.7420   21.7820 C   0  0  0  0  0  2  0  0  0  0  0  0
  -18.3130  -26.8700   22.2780 C   0  0  0  0  0  2  0  0  0  0  0  0
  -19.0810  -29.0490   23.3850 C   0  0  0  0  0  0  0  0  0  0  0  0
  -18.7700  -30.3290   23.8950 C   0  0  0  0  0  3  0  0  0  0  0  0
  -17.4420  -30.7960   23.9060 C   0  0  0  0  0  3  0  0  0  0  0  0
  -16.4060  -29.9800   23.4200 C   0  0  0  0  0  3  0  0  0  0  0  0
  -16.7010  -28.7030   22.9100 C   0  0  0  0  0  3  0  0  0  0  0  0
  -26.0020  -32.5690   24.2870 C   0  0  0  0  0  3  0  0  0  0  0  0
  -25.8240  -34.0110   24.4960 N   0  0  0  0  0  0  0  0  0  0  0  0
  -26.2770  -34.9590   23.6670 C   0  0  0  0  0  0  0  0  0  0  0  0
  -26.9590  -34.7080   22.6690 O   0  0  0  0  0  0  0  0  0  0  0  0
  -25.2280  -34.2890   25.2630 H   0  0  0  0  0  0  0  0  0  0  0  0
  -24.7330  -36.8700   23.1320 C   0  0  0  0  0  1  0  0  0  0  0  0
  -25.9190  -36.4200   23.9990 C   0  0  0  0  0  3  0  0  0  0  0  0
  -28.1140  -37.1730   24.8050 C   0  0  0  0  0  1  0  0  0  0  0  0
  -27.0480  -37.3590   23.8220 N   0  0  0  0  0  0  0  0  0  0  0  0
  -26.7280  -38.3220   23.8790 H   0  0  0  0  0  0  0  0  0  0  0  0
  -26.3810  -31.8490   25.6410 C   0  0  1  0  0  0  0  0  0  0  0  0
  -25.2140  -31.7720   26.6500 C   0  0  0  0  0  1  0  0  0  0  0  0
  -26.8660  -30.4060   25.3750 C   0  0  0  0  0  1  0  0  0  0  0  0
  -27.5540  -32.5970   26.3200 C   0  0  0  0  0  1  0  0  0  0  0  0
  -28.8560  -24.0020   11.8830 C   0  0  0  0  0  2  0  0  0  0  0  0
  -29.6690  -22.9300   13.9860 C   0  0  0  0  0  0  0  0  0  0  0  0
  -29.0790  -22.8750   12.7850 N   0  0  0  0  0  0  0  0  0  0  0  0
  -30.0930  -23.9770   14.4790 O   0  0  0  0  0  0  0  0  0  0  0  0
  -28.7650  -21.9680   12.4660 H   0  0  0  0  0  0  0  0  0  0  0  0
  -29.8160  -21.6040   14.7400 C   0  0  0  0  0  2  0  0  0  0  0  0
  -29.1740  -21.7050   16.0060 O   0  0  0  0  0  0  0  0  0  0  0  0
  -29.1480  -20.4670   16.6990 C   0  0  0  0  0  2  0  0  0  0  0  0
  -28.3660  -20.6620   17.9990 C   0  0  0  0  0  2  0  0  0  0  0  0
  -28.2890  -19.4100   18.8770 C   0  0  0  0  0  2  0  0  0  0  0  0
  -29.5760  -19.1200   19.4010 O   0  0  0  0  0  0  0  0  0  0  0  0
  -29.5380  -18.0630   20.3440 C   0  0  0  0  0  2  0  0  0  0  0  0
  -30.9660  -17.7800   20.8280 C   0  0  0  0  0  2  0  0  0  0  0  0
  -31.0530  -16.6910   21.9150 C   0  0  0  0  0  2  0  0  0  0  0  0
  -30.9420  -14.6360   20.4950 C   0  0  0  0  0  0  0  0  0  0  0  0
  -30.6190  -12.5230   19.2660 C   0  0  0  0  0  2  0  0  0  0  0  0
  -29.6760  -12.6930   18.0620 C   0  0  0  0  0  2  0  0  0  0  0  0
  -28.2040  -12.5450   18.4870 C   0  0  0  0  0  2  0  0  0  0  0  0
  -27.8530  -13.4110   19.7250 C   0  0  0  0  0  3  0  0  0  0  0  0
  -28.8950  -13.2040   20.8460 C   0  0  0  0  0  2  0  0  0  0  0  0
  -30.2350  -13.4940   20.3000 N   0  0  0  0  0  0  0  0  0  0  0  0
  -31.9470  -14.9380   19.8460 O   0  0  0  0  0  0  0  0  0  0  0  0
  -30.4890  -15.4120   21.4870 N   0  0  0  0  0  0  0  0  0  0  0  0
  -29.6810  -15.0720   21.9880 H   0  0  0  0  0  0  0  0  0  0  0  0
  -25.4460  -14.0210   20.4130 C   0  0  0  0  0  0  0  0  0  0  0  0
  -24.3770  -13.2470   20.7820 C   0  0  0  0  0  0  0  0  0  0  0  0
  -24.8430  -11.8970   20.7590 C   0  0  0  0  0  0  0  0  0  0  0  0
  -26.4950  -13.1400   20.1950 N   0  0  0  0  0  0  0  0  0  0  0  0
  -26.1330  -11.8580   20.4560 N   0  0  0  0  0  0  0  0  0  0  0  0
  -24.1190  -10.6320   20.9550 C   0  0  0  0  0  0  0  0  0  0  0  0
  -24.5230   -9.6920   21.9270 C   0  0  0  0  0  3  0  0  0  0  0  0
  -23.8030   -8.4930   22.1060 C   0  0  0  0  0  3  0  0  0  0  0  0
  -22.6630   -8.2250   21.3120 C   0  0  0  0  0  0  0  0  0  0  0  0
  -22.2790   -9.1530   20.3290 C   0  0  0  0  0  3  0  0  0  0  0  0
  -23.0000  -10.3450   20.1480 C   0  0  0  0  0  3  0  0  0  0  0  0
  -21.9170   -7.0750   21.3990 O   0  0  0  0  0  0  0  0  0  0  0  0
  -21.7810   -6.3900   22.5810 C   0  0  0  0  0  0  0  0  0  0  0  0
  -21.2320   -6.9940   23.7320 C   0  0  0  0  0  3  0  0  0  0  0  0
  -21.0470   -6.2340   24.9050 C   0  0  0  0  0  3  0  0  0  0  0  0
  -21.4030   -4.8720   24.9260 C   0  0  0  0  0  0  0  0  0  0  0  0
  -21.9460   -4.2690   23.7780 C   0  0  0  0  0  3  0  0  0  0  0  0
  -22.1330   -5.0250   22.6080 C   0  0  0  0  0  0  0  0  0  0  0  0
  -22.6360   -4.4340   21.4980 F   0  0  0  0  0  0  0  0  0  0  0  0
  -21.2190   -4.1390   26.0500 F   0  0  0  0  0  0  0  0  0  0  0  0
  -22.9790  -13.7220   21.0480 C   0  0  0  0  0  0  0  0  0  0  0  0
  -22.2570  -13.0370   21.9310 N   0  0  0  0  0  0  0  0  0  0  0  0
  -22.5330  -14.7330   20.5100 O   0  0  0  0  0  0  0  0  0  0  0  0
  -22.6310  -12.2190   22.3880 H   0  0  0  0  0  0  0  0  0  0  0  0
  -21.3180  -13.3370   22.1510 H   0  0  0  0  0  0  0  0  0  0  0  0
  -25.6100  -15.3900   20.2290 N   0  0  0  0  0  0  0  0  0  0  0  0
  -24.8430  -16.0450   20.3310 H   0  0  0  0  0  0  0  0  0  0  0  0
  -26.4630  -15.8230   19.9000 H   0  0  0  0  0  0  0  0  0  0  0  0
  1 54  1  0
  1  2  1  0
  2  3  1  0
  3  4  1  0
  4  5  1  0
  5  6  1  0
  6  7  1  0
  7  9  2  0
  8  7  1  0
  8 11  1  0
 10  8  1  0
 11 12  1  0
 12 13  1  0
 13 15  1  0
 14 25  2  0
 15 20  1  0
 16 24  1  0
 16 26  1  0
 17 23  1  0
 17 19  1  0
 18 24  1  0
 19 18  1  0
 20 19  2  0
 21 22  1  0
 21 15  2  0
 22 17  2  0
 23 16  1  0
 24 14  1  0
 26 28  2  0
 27 26  1  0
 29 27  1  0
 30 39  2  0
 30 35  1  0
 31 27  1  0
 32 31  1  0
 33 34  1  0
 33 32  1  0
 34 30  1  0
 35 31  1  0
 35 36  2  0
 36 37  1  0
 38 37  2  0
 39 38  1  0
 40 14  1  0
 40 41  1  0
 40 50  1  0
 41 44  1  0
 42 46  1  0
 42 41  1  0
 43 42  2  0
 46 45  1  0
 48 49  1  0
 48 46  1  0
 48 47  1  0
 50 53  1  1
 50 51  1  0
 52 50  1  0
 54 56  1  0
 55 57  2  0
 55 59  1  0
 56 55  1  0
 58 56  1  0
 59 60  1  0
 60 61  1  0
 61 62  1  0
 62 63  1  0
 63 64  1  0
 64 65  1  0
 65 66  1  0
 66 67  1  0
 68 76  1  0
 69 74  1  0
 70 71  1  0
 70 69  1  0
 72 71  1  0
 72 81  1  0
 72 73  1  0
 74 68  1  0
 74 73  1  0
 75 68  2  0
 76 67  1  0
 76 77  1  0
 78 79  2  0
 79 98  1  0
 80 79  1  0
 80 83  1  0
 81 78  1  0
 81 82  1  0
 82 80  2  0
 83 84  1  0
 84 85  2  0
 86 89  1  0
 86 85  1  0
 87 86  2  0
 88 87  1  0
 88 83  2  0
 89 90  1  0
 90 95  2  0
 90 91  1  0
 91 92  2  0
 92 93  1  0
 93 97  1  0
 94 93  2  0
 95 94  1  0
 96 95  1  0
 98 99  1  0
 99102  1  0
 99101  1  0
100 98  2  0
103104  1  0
103 78  1  0
105103  1  0
M  ISO  4  12 101  13 101  68 100  76 100
M  END
>  <TORSDO>  (12) 
F 35

>  <SCORE>  (12) 
-9.260

>  <name>  (12) 
13

>  <ligand_id>  (12) 
13

>  <original_smiles>  (12) 
[H]c1c([H])c([H])c2c(c1[H])C([H])([H])C([H])([H])C([H])([H])C2([H])N([H])C(=O)C1([H])N(C(=O)C([H])(N([H])C(=O)C([H])(N([H])C([H])([H])[H])C([H])([H])[H])C(C([H])([H])[H])(C([H])([H])[H])C([H])([H])[H])C([H])([H])c2c([H])c(OC([H])([H])C([H])([H])N([H])C(=O)C([H])([H])OC([H])([H])C([H])([H])OC([H])([H])C([H])([H])N([H])C(=O)C([H])([H])OC([H])([H])C([H])([H])C([H])([H])OC([H])([H])C([H])([H])C([H])([H])N([H])C(=O)N3C([H])([H])C([H])([H])C([H])([H])C([H])(n4nc(-c5c([H])c([H])c(Oc6c([H])c([H])c(F)c([H])c6F)c([H])c5[H])c(C(=O)N([H])[H])c4N([H])[H])C3([H])[H])c([H])c([H])c2C1([H])[H]

>  <smiles>  (12) 
[H]c1c([H])c([H])c2c(c1[H])C([H])([H])C([H])([H])C([H])([H])C2([H])N([H])C(=O)C1([H])N(C(=O)C([H])(N([H])C(=O)C([H])(N([H])C([H])([H])[H])C([H])([H])[H])C(C([H])([H])[H])(C([H])([H])[H])C([H])([H])[H])C([H])([H])c2c([H])c(OC([H])([H])C([H])([H])N([H])C(=O)C([H])([H])OC([H])([H])C([H])([H])OC([H])([H])C([H])([H])N([H])C(=O)C([H])([H])OC([H])([H])C([H])([H])C([H])([H])OC([H])([H])C([H])([H])C([H])([H])N([H])C(=O)N3C([H])([H])C([H])([H])C([H])([H])C([H])(n4nc(-c5c([H])c([H])c(Oc6c([H])c([H])c(F)c([H])c6F)c([H])c5[H])c(C(=O)N([H])[H])c4N([H])[H])C3([H])[H])c([H])c([H])c2C1([H])[H]

$$$$
14:0:0
     RDKit          3D

110116  0  0  1  0  0  0  0  0999 V2000
  -25.0890  -17.6220   22.9970 C   0  0  0  0  0  2  0  0  0  0  0  0
  -23.7420  -16.8760   22.9010 C   0  0  0  0  0  2  0  0  0  0  0  0
  -24.1040  -14.9330   24.4750 C   0  0  0  0  0  0  0  0  0  0  0  0
  -23.4090  -15.9870   24.0200 N   0  0  0  0  0  0  0  0  0  0  0  0
  -25.2590  -14.6890   24.1240 O   0  0  0  0  0  0  0  0  0  0  0  0
  -22.4650  -16.0690   24.3750 H   0  0  0  0  0  0  0  0  0  0  0  0
  -23.3790  -13.9660   25.4250 C   0  0  0  0  0  2  0  0  0  0  0  0
  -22.8660  -12.8830   24.6540 O   0  0  0  0  0  0  0  0  0  0  0  0
  -22.3890  -11.7720   25.4070 C   0  0  0  0  0  2  0  0  0  0  0  0
  -21.8280  -10.7120   24.4400 C   0  0  0  0  0  2  0  0  0  0  0  0
  -22.7820  -10.5210   23.4020 O   0  0  0  0  0  0  0  0  0  0  0  0
  -22.4390   -9.5960   22.3160 C   0  0  0  0  0  1  0  0  0  0  0  0
  -24.3540   -9.2480   19.6470 C   0  0  0  0  0  1  0  0  0  0  0  0
  -26.2100  -11.2350   17.9330 C   0  0  0  0  0  0  0  0  0  0  0  0
  -25.2900  -10.5910   18.9480 N   0  0  0  0  0  0  0  0  0  0  0  0
  -26.4210  -10.5180   16.9540 O   0  0  0  0  0  0  0  0  0  0  0  0
  -25.3530  -11.2410   19.7290 H   0  0  0  0  0  0  0  0  0  0  0  0
  -27.1040  -12.8560   17.8280 C   0  0  0  0  0  2  0  0  0  0  0  0
  -29.7530  -14.0970   19.1230 C   0  0  0  0  0  0  0  0  0  0  0  0
  -30.5910  -12.1110   19.7130 C   0  0  0  0  0  2  0  0  0  0  0  0
  -29.5440  -11.3580   18.9020 C   0  0  0  0  0  2  0  0  0  0  0  0
  -28.2460  -11.4630   19.7920 C   0  0  0  0  0  2  0  0  0  0  0  0
  -27.7140  -12.8640   20.4460 C   0  0  0  0  0  3  0  0  0  0  0  0
  -28.8940  -13.2740   21.2470 C   0  0  0  0  0  2  0  0  0  0  0  0
  -29.9150  -13.3130   20.1850 N   0  0  0  0  0  0  0  0  0  0  0  0
  -30.7530  -14.8640   19.0690 O   0  0  0  0  0  0  0  0  0  0  0  0
  -28.6560  -13.7160   18.0980 N   0  0  0  0  0  0  0  0  0  0  0  0
  -28.8680  -14.2330   17.2570 H   0  0  0  0  0  0  0  0  0  0  0  0
  -25.3520  -13.9450   20.7560 C   0  0  0  0  0  0  0  0  0  0  0  0
  -24.2110  -13.2890   21.0970 C   0  0  0  0  0  0  0  0  0  0  0  0
  -24.6610  -11.9990   21.2870 C   0  0  0  0  0  0  0  0  0  0  0  0
  -26.3650  -12.9650   20.8530 N   0  0  0  0  0  0  0  0  0  0  0  0
  -25.9290  -11.8170   21.2300 N   0  0  0  0  0  0  0  0  0  0  0  0
  -23.9940  -10.8470   21.2270 C   0  0  0  0  0  0  0  0  0  0  0  0
  -24.7310   -9.5010   21.9380 C   0  0  0  0  0  3  0  0  0  0  0  0
  -24.0730   -8.0150   21.7040 C   0  0  0  0  0  3  0  0  0  0  0  0
  -22.7060   -7.8220   20.8310 C   0  0  0  0  0  0  0  0  0  0  0  0
  -22.0120   -9.0980   20.0640 C   0  0  0  0  0  3  0  0  0  0  0  0
  -22.6130  -10.6380   20.2520 C   0  0  0  0  0  3  0  0  0  0  0  0
  -21.7950   -6.8090   21.1850 O   0  0  0  0  0  0  0  0  0  0  0  0
  -21.7700   -6.0730   22.3860 C   0  0  0  0  0  0  0  0  0  0  0  0
  -21.3710   -6.5510   23.6720 C   0  0  0  0  0  3  0  0  0  0  0  0
  -21.3350   -5.6990   24.8020 C   0  0  0  0  0  3  0  0  0  0  0  0
  -21.6160   -4.3290   24.6620 C   0  0  0  0  0  0  0  0  0  0  0  0
  -21.9240   -3.8220   23.3880 C   0  0  0  0  0  3  0  0  0  0  0  0
  -21.9940   -4.6850   22.2740 C   0  0  0  0  0  0  0  0  0  0  0  0
  -22.2380   -4.1620   21.0520 F   0  0  0  0  0  0  0  0  0  0  0  0
  -21.5620   -3.4980   25.7320 F   0  0  0  0  0  0  0  0  0  0  0  0
  -22.7800  -13.7110   21.1650 C   0  0  0  0  0  0  0  0  0  0  0  0
  -21.9880  -13.0190   21.9810 N   0  0  0  0  0  0  0  0  0  0  0  0
  -22.3580  -14.6680   20.5320 O   0  0  0  0  0  0  0  0  0  0  0  0
  -22.3620  -12.2770   22.5660 H   0  0  0  0  0  0  0  0  0  0  0  0
  -21.0200  -13.2850   22.0770 H   0  0  0  0  0  0  0  0  0  0  0  0
  -25.5940  -15.2460   20.3470 N   0  0  0  0  0  0  0  0  0  0  0  0
  -24.8570  -15.9170   20.1780 H   0  0  0  0  0  0  0  0  0  0  0  0
  -26.5180  -15.6290   20.1850 H   0  0  0  0  0  0  0  0  0  0  0  0
  -25.2270  -18.6900   21.8910 C   0  0  0  0  0  2  0  0  0  0  0  0
  -26.6690  -19.1740   21.6570 C   0  0  0  0  0  2  0  0  0  0  0  0
  -26.7280  -20.3900   20.7020 C   0  0  0  0  0  2  0  0  0  0  0  0
  -28.1190  -20.6810   20.1260 C   0  0  0  0  0  0  0  0  0  0  0  0
  -28.1790  -21.5810   19.1350 N   0  0  0  0  0  0  0  0  0  0  0  0
  -29.1160  -20.0870   20.5450 O   0  0  0  0  0  0  0  0  0  0  0  0
  -27.3120  -22.0290   18.8630 H   0  0  0  0  0  0  0  0  0  0  0  0
  -29.3580  -21.8670   18.3150 C   0  0  0  0  0  2  0  0  0  0  0  0
  -30.1190  -23.1280   18.7650 C   0  0  0  0  0  2  0  0  0  0  0  0
  -29.3320  -24.4380   18.5800 C   0  0  0  0  0  2  0  0  0  0  0  0
  -30.1390  -25.6870   18.9900 C   0  0  0  0  0  2  0  0  0  0  0  0
  -29.2770  -26.9540   19.0890 C   0  0  0  0  0  3  0  0  0  0  0  0
  -30.0840  -28.0000   19.3960 F   0  0  0  0  0  0  0  0  0  0  0  0
  -28.3910  -26.7460   20.0960 O   0  0  0  0  0  0  0  0  0  0  0  0
  -24.6090  -31.8710   23.2130 C   0  0  0  0  0  0  0  0  0  0  0  0
  -27.2410  -27.4860   20.0860 C   0  0  0  0  0  0  0  0  0  0  0  0
  -23.3960  -30.4940   21.5510 C   0  0  0  0  0  3  0  0  0  0  0  0
  -24.8450  -28.9630   20.1140 C   0  0  0  0  0  0  0  0  0  0  0  0
  -25.9180  -30.8520   21.3580 C   0  0  0  0  0  2  0  0  0  0  0  0
  -26.0000  -29.4880   20.7090 C   0  0  0  0  0  0  0  0  0  0  0  0
  -27.2010  -28.7520   20.7020 C   0  0  0  0  0  3  0  0  0  0  0  0
  -26.0750  -26.9540   19.5010 C   0  0  0  0  0  3  0  0  0  0  0  0
  -24.8740  -27.6920   19.5100 C   0  0  0  0  0  3  0  0  0  0  0  0
  -23.6030  -29.8230   20.1650 C   0  0  0  0  0  2  0  0  0  0  0  0
  -24.6590  -31.0850   22.1000 N   0  0  0  0  0  0  0  0  0  0  0  0
  -23.5300  -32.1430   23.7550 O   0  0  0  0  0  0  0  0  0  0  0  0
  -22.7380  -29.4670   22.5000 C   0  0  0  0  0  0  0  0  0  0  0  0
  -21.4120  -29.3020   22.3740 N   0  0  0  0  0  0  0  0  0  0  0  0
  -23.4180  -28.8220   23.3030 O   0  0  0  0  0  0  0  0  0  0  0  0
  -20.9270  -29.8740   21.6960 H   0  0  0  0  0  0  0  0  0  0  0  0
  -18.0270  -28.1370   22.8490 C   0  0  0  0  0  0  0  0  0  0  0  0
  -20.5850  -28.3650   23.1330 C   0  0  0  0  0  3  0  0  0  0  0  0
  -20.6750  -26.9390   22.5430 C   0  0  0  0  0  2  0  0  0  0  0  0
  -19.5750  -26.6390   21.5210 C   0  0  0  0  0  2  0  0  0  0  0  0
  -18.1920  -26.7920   22.1620 C   0  0  0  0  0  2  0  0  0  0  0  0
  -19.1510  -28.8830   23.2910 C   0  0  0  0  0  0  0  0  0  0  0  0
  -18.9450  -30.1430   23.8920 C   0  0  0  0  0  3  0  0  0  0  0  0
  -17.6450  -30.6580   24.0570 C   0  0  0  0  0  3  0  0  0  0  0  0
  -16.5340  -29.9090   23.6320 C   0  0  0  0  0  3  0  0  0  0  0  0
  -16.7260  -28.6510   23.0340 C   0  0  0  0  0  3  0  0  0  0  0  0
  -25.9010  -32.4840   23.8410 C   0  0  0  0  0  3  0  0  0  0  0  0
  -26.4460  -31.6600   25.0720 C   0  0  1  0  0  0  0  0  0  0  0  0
  -25.3740  -31.3690   26.1480 C   0  0  0  0  0  1  0  0  0  0  0  0
  -27.0280  -30.3060   24.6050 C   0  0  0  0  0  1  0  0  0  0  0  0
  -27.6040  -32.4310   25.7470 C   0  0  0  0  0  1  0  0  0  0  0  0
  -25.5880  -33.8640   24.2340 N   0  0  0  0  0  0  0  0  0  0  0  0
  -25.9020  -34.9480   23.5140 C   0  0  0  0  0  0  0  0  0  0  0  0
  -26.5590  -34.8930   22.4700 O   0  0  0  0  0  0  0  0  0  0  0  0
  -25.0020  -33.9810   25.0490 H   0  0  0  0  0  0  0  0  0  0  0  0
  -24.1490  -36.7330   23.2640 C   0  0  0  0  0  1  0  0  0  0  0  0
  -25.4100  -36.3120   24.0340 C   0  0  0  0  0  3  0  0  0  0  0  0
  -27.5580  -37.1810   24.8460 C   0  0  0  0  0  1  0  0  0  0  0  0
  -26.4290  -37.3800   23.9410 N   0  0  0  0  0  0  0  0  0  0  0  0
  -26.0180  -38.2880   24.1420 H   0  0  0  0  0  0  0  0  0  0  0  0
  2  1  1  0
  2  4  1  0
  3  7  1  0
  4  6  1  0
  4  3  1  0
  5  3  2  0
  8  9  1  0
  8  7  1  0
 10  9  1  0
 11 10  1  0
 12 11  1  0
 14 15  1  0
 15 13  1  0
 15 17  1  0
 16 14  2  0
 18 14  1  0
 18 27  1  0
 19 25  1  0
 20 25  1  0
 21 20  1  0
 21 22  1  0
 23 22  1  0
 23 32  1  0
 23 24  1  0
 25 24  1  0
 26 19  2  0
 27 19  1  0
 28 27  1  0
 29 32  1  0
 29 30  2  0
 30 49  1  0
 30 31  1  0
 32 33  1  0
 33 31  2  0
 34 31  1  0
 34 35  1  0
 36 35  2  0
 37 40  1  0
 37 36  1  0
 38 39  1  0
 38 37  2  0
 39 34  2  0
 40 41  1  0
 41 42  1  0
 42 43  2  0
 44 43  1  0
 44 48  1  0
 45 44  2  0
 46 41  2  0
 46 45  1  0
 47 46  1  0
 49 50  1  0
 50 53  1  0
 50 52  1  0
 51 49  2  0
 54 29  1  0
 55 54  1  0
 56 54  1  0
 57  1  1  0
 58 57  1  0
 59 58  1  0
 60 62  2  0
 60 59  1  0
 61 60  1  0
 63 61  1  0
 64 65  1  0
 64 61  1  0
 66 65  1  0
 66 67  1  0
 67 68  1  0
 68 69  1  0
 68 70  1  0
 71 82  2  0
 72 70  1  0
 72 77  1  0
 73 81  1  0
 73 83  1  0
 74 80  1  0
 74 76  1  0
 75 81  1  0
 76 75  1  0
 77 76  2  0
 78 79  1  0
 78 72  2  0
 79 74  2  0
 80 73  1  0
 81 71  1  0
 83 85  2  0
 84 83  1  0
 86 84  1  0
 87 96  2  0
 87 92  1  0
 88 84  1  0
 88 92  1  0
 89 88  1  0
 90 91  1  0
 90 89  1  0
 91 87  1  0
 92 93  2  0
 93 94  1  0
 95 94  2  0
 96 95  1  0
 97 71  1  0
 97102  1  0
 97 98  1  0
 98101  1  1
 98 99  1  0
100 98  1  0
102105  1  0
103107  1  0
103102  1  0
104103  2  0
107106  1  0
109107  1  0
109110  1  0
109108  1  0
M  ISO  4  19 100  27 100  68 101  70 101
M  END
>  <TORSDO>  (13) 
F 36

>  <SCORE>  (13) 
38.760

>  <name>  (13) 
14

>  <ligand_id>  (13) 
14

>  <original_smiles>  (13) 
[H]c1c([H])c([H])c2c(c1[H])C([H])([H])C([H])([H])C([H])([H])C2([H])N([H])C(=O)C1([H])N(C(=O)C([H])(N([H])C(=O)C([H])(N([H])C([H])([H])[H])C([H])([H])[H])C(C([H])([H])[H])(C([H])([H])[H])C([H])([H])[H])C([H])([H])c2c([H])c(OC([H])(F)C([H])([H])C([H])([H])C([H])([H])C([H])([H])N([H])C(=O)C([H])([H])C([H])([H])C([H])([H])C([H])([H])C([H])([H])N([H])C(=O)C([H])([H])OC([H])([H])C([H])([H])OC([H])([H])C([H])([H])N([H])C(=O)C([H])([H])N([H])C(=O)N3C([H])([H])C([H])([H])C([H])([H])C([H])(n4nc(-c5c([H])c([H])c(Oc6c([H])c([H])c(F)c([H])c6F)c([H])c5[H])c(C(=O)N([H])[H])c4N([H])[H])C3([H])[H])c([H])c([H])c2C1([H])[H]

>  <smiles>  (13) 
[H]c1c([H])c([H])c2c(c1[H])C([H])([H])C([H])([H])C([H])([H])C2([H])N([H])C(=O)C1([H])N(C(=O)C([H])(N([H])C(=O)C([H])(N([H])C([H])([H])[H])C([H])([H])[H])C(C([H])([H])[H])(C([H])([H])[H])C([H])([H])[H])C([H])([H])c2c([H])c(OC([H])(F)C([H])([H])C([H])([H])C([H])([H])C([H])([H])N([H])C(=O)C([H])([H])C([H])([H])C([H])([H])C([H])([H])C([H])([H])N([H])C(=O)C([H])([H])OC([H])([H])C([H])([H])OC([H])([H])C([H])([H])N([H])C(=O)C([H])([H])N([H])C(=O)N3C([H])([H])C([H])([H])C([H])([H])C([H])(n4nc(-c5c([H])c([H])c(Oc6c([H])c([H])c(F)c([H])c6F)c([H])c5[H])c(C(=O)N([H])[H])c4N([H])[H])C3([H])[H])c([H])c([H])c2C1([H])[H]

$$$$
15:0:0
     RDKit          3D

105112  0  0  1  0  0  0  0  0999 V2000
  -24.9610  -20.2090   25.9620 C   0  0  0  0  0  2  0  0  0  0  0  0
  -25.8390  -20.5890   27.1640 C   0  0  0  0  0  2  0  0  0  0  0  0
  -27.0300  -19.6390   27.3850 C   0  0  0  0  0  2  0  0  0  0  0  0
  -28.8070  -20.5340   25.8820 C   0  0  0  0  0  0  0  0  0  0  0  0
  -27.9140  -19.5970   26.2220 N   0  0  0  0  0  0  0  0  0  0  0  0
  -29.0080  -21.5430   26.5660 O   0  0  0  0  0  0  0  0  0  0  0  0
  -27.8230  -18.7980   25.6070 H   0  0  0  0  0  0  0  0  0  0  0  0
  -29.5740  -20.3030   24.5730 C   0  0  0  0  0  2  0  0  0  0  0  0
  -30.5790  -21.3060   24.4130 O   0  0  0  0  0  0  0  0  0  0  0  0
  -31.2700  -21.2330   23.1700 C   0  0  0  0  0  2  0  0  0  0  0  0
  -30.6940  -22.2400   22.1600 C   0  0  0  0  0  2  0  0  0  0  0  0
  -29.3660  -21.8150   21.5110 C   0  0  0  0  0  2  0  0  0  0  0  0
  -29.5290  -20.6300   20.7360 O   0  0  0  0  0  0  0  0  0  0  0  0
  -29.8880  -20.8940   19.3880 C   0  0  0  0  0  2  0  0  0  0  0  0
  -30.1910  -19.5670   18.6820 C   0  0  0  0  0  2  0  0  0  0  0  0
  -32.6440  -19.2400   18.5730 C   0  0  0  0  0  0  0  0  0  0  0  0
  -34.6080  -18.0560   17.6920 C   0  0  0  0  0  2  0  0  0  0  0  0
  -34.1210  -16.9530   16.7330 C   0  0  0  0  0  2  0  0  0  0  0  0
  -33.7880  -15.6610   17.5000 C   0  0  0  0  0  2  0  0  0  0  0  0
  -32.8960  -15.9070   18.7470 C   0  0  0  0  0  3  0  0  0  0  0  0
  -33.4430  -17.0810   19.5930 C   0  0  0  0  0  2  0  0  0  0  0  0
  -33.5660  -18.2540   18.7100 N   0  0  0  0  0  0  0  0  0  0  0  0
  -32.7910  -20.2130   17.8300 O   0  0  0  0  0  0  0  0  0  0  0  0
  -31.4540  -18.9710   19.1210 N   0  0  0  0  0  0  0  0  0  0  0  0
  -31.3940  -18.1580   19.7150 H   0  0  0  0  0  0  0  0  0  0  0  0
  -31.5840  -14.0370   19.9400 C   0  0  0  0  0  0  0  0  0  0  0  0
  -31.9990  -12.9160   20.6110 C   0  0  0  0  0  0  0  0  0  0  0  0
  -33.4250  -12.9420   20.5810 C   0  0  0  0  0  0  0  0  0  0  0  0
  -32.7430  -14.6900   19.5450 N   0  0  0  0  0  0  0  0  0  0  0  0
  -33.8550  -14.0490   19.9860 N   0  0  0  0  0  0  0  0  0  0  0  0
  -34.4090  -11.9500   21.0320 C   0  0  0  0  0  0  0  0  0  0  0  0
  -35.4720  -12.3060   21.8900 C   0  0  0  0  0  3  0  0  0  0  0  0
  -36.4000  -11.3320   22.3260 C   0  0  0  0  0  3  0  0  0  0  0  0
  -36.2610   -9.9850   21.9090 C   0  0  0  0  0  0  0  0  0  0  0  0
  -35.2130   -9.6430   21.0370 C   0  0  0  0  0  3  0  0  0  0  0  0
  -34.2980  -10.6140   20.6010 C   0  0  0  0  0  3  0  0  0  0  0  0
  -37.1230   -8.9750   22.2660 O   0  0  0  0  0  0  0  0  0  0  0  0
  -37.8510   -9.0260   23.4270 C   0  0  0  0  0  0  0  0  0  0  0  0
  -37.2320   -9.1510   24.6910 C   0  0  0  0  0  3  0  0  0  0  0  0
  -38.0150   -9.1280   25.8620 C   0  0  0  0  0  3  0  0  0  0  0  0
  -39.4110   -8.9710   25.7750 C   0  0  0  0  0  0  0  0  0  0  0  0
  -40.0270   -8.8420   24.5190 C   0  0  0  0  0  3  0  0  0  0  0  0
  -39.2490   -8.8670   23.3490 C   0  0  0  0  0  0  0  0  0  0  0  0
  -39.8450   -8.7190   22.1410 F   0  0  0  0  0  0  0  0  0  0  0  0
  -40.1630   -8.9430   26.9000 F   0  0  0  0  0  0  0  0  0  0  0  0
  -31.1220  -11.8260   21.1580 C   0  0  0  0  0  0  0  0  0  0  0  0
  -31.5550  -11.1630   22.2260 N   0  0  0  0  0  0  0  0  0  0  0  0
  -30.0210  -11.5870   20.6660 O   0  0  0  0  0  0  0  0  0  0  0  0
  -32.4480  -11.3720   22.6450 H   0  0  0  0  0  0  0  0  0  0  0  0
  -30.9850  -10.4300   22.6230 H   0  0  0  0  0  0  0  0  0  0  0  0
  -30.3290  -14.5420   19.6220 N   0  0  0  0  0  0  0  0  0  0  0  0
  -29.4750  -14.0550   19.8740 H   0  0  0  0  0  0  0  0  0  0  0  0
  -30.1610  -15.3650   19.0540 H   0  0  0  0  0  0  0  0  0  0  0  0
  -23.9390  -21.3050   25.6340 C   0  0  0  0  0  2  0  0  0  0  0  0
  -22.9120  -20.8370   24.5990 C   0  0  0  0  0  2  0  0  0  0  0  0
  -21.6960  -21.7630   24.5040 C   0  0  0  0  0  2  0  0  0  0  0  0
  -20.7370  -21.1200   23.6690 O   0  0  0  0  0  0  0  0  0  0  0  0
  -19.7450  -21.9770   23.1080 C   0  0  0  0  0  2  0  0  0  0  0  0
  -20.3890  -23.0050   22.1620 C   0  0  0  0  0  0  0  0  0  0  0  0
  -19.8580  -24.2320   22.1600 N   0  0  0  0  0  0  0  0  0  0  0  0
  -21.3660  -22.6920   21.4770 O   0  0  0  0  0  0  0  0  0  0  0  0
  -19.0590  -24.3940   22.7590 H   0  0  0  0  0  0  0  0  0  0  0  0
  -20.2560  -25.3290   21.2830 C   0  0  0  0  0  2  0  0  0  0  0  0
  -19.0280  -26.0120   20.6550 C   0  0  0  0  0  2  0  0  0  0  0  0
  -18.3260  -25.1090   19.7910 O   0  0  0  0  0  0  0  0  0  0  0  0
  -13.0960  -24.7090   24.5830 C   0  0  0  0  0  0  0  0  0  0  0  0
  -17.3700  -24.3390   20.4050 C   0  0  0  0  0  0  0  0  0  0  0  0
  -13.9490  -22.5440   23.7300 C   0  0  0  0  0  3  0  0  0  0  0  0
  -15.4900  -22.6870   21.7040 C   0  0  0  0  0  0  0  0  0  0  0  0
  -14.0470  -24.6470   22.2870 C   0  0  0  0  0  2  0  0  0  0  0  0
  -15.2870  -24.0730   21.6440 C   0  0  0  0  0  0  0  0  0  0  0  0
  -16.2220  -24.9060   21.0000 C   0  0  0  0  0  3  0  0  0  0  0  0
  -17.5560  -22.9440   20.4450 C   0  0  0  0  0  3  0  0  0  0  0  0
  -16.6300  -22.1150   21.1070 C   0  0  0  0  0  3  0  0  0  0  0  0
  -14.4340  -21.8740   22.4150 C   0  0  0  0  0  2  0  0  0  0  0  0
  -13.6960  -24.0150   23.5760 N   0  0  0  0  0  0  0  0  0  0  0  0
  -12.7080  -24.1360   25.6100 O   0  0  0  0  0  0  0  0  0  0  0  0
  -14.9670  -22.2160   24.8460 C   0  0  0  0  0  0  0  0  0  0  0  0
  -14.7630  -21.0730   25.5200 N   0  0  0  0  0  0  0  0  0  0  0  0
  -15.9250  -22.9610   25.0670 O   0  0  0  0  0  0  0  0  0  0  0  0
  -13.9610  -20.5130   25.2680 H   0  0  0  0  0  0  0  0  0  0  0  0
  -15.0330  -18.4280   27.9650 C   0  0  0  0  0  0  0  0  0  0  0  0
  -15.6080  -20.5380   26.5840 C   0  0  0  0  0  3  0  0  0  0  0  0
  -16.7800  -19.7170   26.0030 C   0  0  0  0  0  2  0  0  0  0  0  0
  -16.4770  -18.2200   25.8980 C   0  0  0  0  0  2  0  0  0  0  0  0
  -16.1260  -17.6340   27.2690 C   0  0  0  0  0  2  0  0  0  0  0  0
  -14.7780  -19.7860   27.6320 C   0  0  0  0  0  0  0  0  0  0  0  0
  -13.7250  -20.4640   28.2830 C   0  0  0  0  0  3  0  0  0  0  0  0
  -12.9430  -19.8170   29.2580 C   0  0  0  0  0  3  0  0  0  0  0  0
  -13.2130  -18.4790   29.5980 C   0  0  0  0  0  3  0  0  0  0  0  0
  -14.2560  -17.7880   28.9530 C   0  0  0  0  0  3  0  0  0  0  0  0
  -12.8410  -26.2470   24.4810 C   0  0  0  0  0  3  0  0  0  0  0  0
  -11.5110  -26.5120   25.0470 N   0  0  0  0  0  0  0  0  0  0  0  0
  -10.3800  -26.5680   24.3320 C   0  0  0  0  0  0  0  0  0  0  0  0
  -10.3580  -26.4750   23.1030 O   0  0  0  0  0  0  0  0  0  0  0  0
  -11.4470  -26.5570   26.0530 H   0  0  0  0  0  0  0  0  0  0  0  0
   -8.4460  -25.3930   25.4250 C   0  0  0  0  0  1  0  0  0  0  0  0
   -9.0640  -26.7640   25.1090 C   0  0  0  0  0  3  0  0  0  0  0  0
   -8.5000  -28.9970   24.2580 C   0  0  0  0  0  1  0  0  0  0  0  0
   -8.0800  -27.6050   24.3930 N   0  0  0  0  0  0  0  0  0  0  0  0
   -7.1810  -27.5900   24.8710 H   0  0  0  0  0  0  0  0  0  0  0  0
  -13.9400  -27.1080   25.2170 C   0  0  1  0  0  0  0  0  0  0  0  0
  -14.1740  -26.6840   26.6830 C   0  0  0  0  0  1  0  0  0  0  0  0
  -15.2910  -27.0260   24.4700 C   0  0  0  0  0  1  0  0  0  0  0  0
  -13.5200  -28.5980   25.2180 C   0  0  0  0  0  1  0  0  0  0  0  0
  1  2  1  0
  2  3  1  0
  4  5  1  0
  4  6  2  0
  5  3  1  0
  7  5  1  0
  8  4  1  0
  9  8  1  0
 10  9  1  0
 11 10  1  0
 12 11  1  0
 13 12  1  0
 14 13  1  0
 15 24  1  0
 15 14  1  0
 16 22  1  0
 16 24  1  0
 17 22  1  0
 18 19  1  0
 18 17  1  0
 20 19  1  0
 20 29  1  0
 20 21  1  0
 22 21  1  0
 23 16  2  0
 24 25  1  0
 26 27  2  0
 27 46  1  0
 28 27  1  0
 28 31  1  0
 29 26  1  0
 29 30  1  0
 30 28  2  0
 31 32  1  0
 32 33  2  0
 34 37  1  0
 34 33  1  0
 35 34  2  0
 36 31  2  0
 36 35  1  0
 37 38  1  0
 38 39  1  0
 39 40  2  0
 41 40  1  0
 41 45  1  0
 42 41  2  0
 43 38  2  0
 43 42  1  0
 44 43  1  0
 46 47  1  0
 47 50  1  0
 47 49  1  0
 48 46  2  0
 51 52  1  0
 51 26  1  0
 53 51  1  0
 54  1  1  0
 55 54  1  0
 56 55  1  0
 57 56  1  0
 58 57  1  0
 59 58  1  0
 60 59  1  0
 60 62  1  0
 61 59  2  0
 63 60  1  0
 64 63  1  0
 65 67  1  0
 65 64  1  0
 66 77  2  0
 67 73  2  0
 67 72  1  0
 68 78  1  0
 69 75  1  0
 70 76  1  0
 71 69  1  0
 71 70  1  0
 72 71  2  0
 73 74  1  0
 74 69  2  0
 75 68  1  0
 76 68  1  0
 76 66  1  0
 78 80  2  0
 78 79  1  0
 81 79  1  0
 82 91  1  0
 83 79  1  0
 83 87  1  0
 84 83  1  0
 85 84  1  0
 85 86  1  0
 86 82  1  0
 87 82  2  0
 87 88  1  0
 88 89  2  0
 89 90  1  0
 91 90  2  0
 92 66  1  0
 92 93  1  0
 92102  1  0
 93 96  1  0
 94 93  1  0
 94 98  1  0
 95 94  2  0
 98 97  1  0
 99100  1  0
100101  1  0
100 98  1  0
102105  1  1
102103  1  0
104102  1  0
M  ISO  4  16 100  24 100  64 101  65 101
M  END
>  <TORSDO>  (14) 
F 35

>  <SCORE>  (14) 
27.456

>  <name>  (14) 
15

>  <ligand_id>  (14) 
15

>  <original_smiles>  (14) 
[H]c1c([H])c([H])c2c(c1[H])C([H])([H])C([H])([H])C([H])([H])C2([H])N([H])C(=O)C1([H])N(C(=O)C([H])(N([H])C(=O)C([H])(N([H])C([H])([H])[H])C([H])([H])[H])C(C([H])([H])[H])(C([H])([H])[H])C([H])([H])[H])C([H])([H])c2c([H])c(OC([H])([H])C([H])([H])N([H])C(=O)C([H])([H])OC([H])([H])C([H])([H])C([H])([H])C([H])([H])C([H])([H])C([H])([H])N([H])C(=O)C([H])([H])OC([H])([H])C([H])([H])C([H])([H])OC([H])([H])C([H])([H])N([H])C(=O)N3C([H])([H])C([H])([H])C([H])([H])C([H])(n4nc(-c5c([H])c([H])c(Oc6c([H])c([H])c(F)c([H])c6F)c([H])c5[H])c(C(=O)N([H])[H])c4N([H])[H])C3([H])[H])c([H])c([H])c2C1([H])[H]

>  <smiles>  (14) 
[H]c1c([H])c([H])c2c(c1[H])C([H])([H])C([H])([H])C([H])([H])C2([H])N([H])C(=O)C1([H])N(C(=O)C([H])(N([H])C(=O)C([H])(N([H])C([H])([H])[H])C([H])([H])[H])C(C([H])([H])[H])(C([H])([H])[H])C([H])([H])[H])C([H])([H])c2c([H])c(OC([H])([H])C([H])([H])N([H])C(=O)C([H])([H])OC([H])([H])C([H])([H])C([H])([H])C([H])([H])C([H])([H])C([H])([H])N([H])C(=O)C([H])([H])OC([H])([H])C([H])([H])C([H])([H])OC([H])([H])C([H])([H])N([H])C(=O)N3C([H])([H])C([H])([H])C([H])([H])C([H])(n4nc(-c5c([H])c([H])c(Oc6c([H])c([H])c(F)c([H])c6F)c([H])c5[H])c(C(=O)N([H])[H])c4N([H])[H])C3([H])[H])c([H])c([H])c2C1([H])[H]

$$$$
16:0:0
     RDKit          3D

109116  0  0  1  0  0  0  0  0999 V2000
  -33.7840  -19.2530   19.3930 C   0  0  0  0  0  0  0  0  0  0  0  0
  -32.4510  -19.1910   19.3660 N   0  0  0  0  0  0  0  0  0  0  0  0
  -34.4440  -19.5420   18.3910 O   0  0  0  0  0  0  0  0  0  0  0  0
  -31.9490  -18.8740   20.1830 H   0  0  0  0  0  0  0  0  0  0  0  0
  -31.6400  -19.6030   18.2200 C   0  0  0  0  0  2  0  0  0  0  0  0
  -30.2230  -19.0250   18.2760 C   0  0  0  0  0  0  0  0  0  0  0  0
  -29.3120  -19.6200   17.4980 N   0  0  0  0  0  0  0  0  0  0  0  0
  -29.9570  -18.0630   19.0030 O   0  0  0  0  0  0  0  0  0  0  0  0
  -29.6140  -20.4280   16.9690 H   0  0  0  0  0  0  0  0  0  0  0  0
  -27.9210  -19.2020   17.3150 C   0  0  0  0  0  2  0  0  0  0  0  0
  -26.9380  -20.0150   18.1800 C   0  0  0  0  0  2  0  0  0  0  0  0
  -27.2660  -21.3960   18.2330 O   0  0  0  0  0  0  0  0  0  0  0  0
  -27.0170  -22.1260   17.0400 C   0  0  0  0  0  2  0  0  0  0  0  0
  -27.0920  -23.5980   17.4490 C   0  0  0  0  0  2  0  0  0  0  0  0
  -28.4550  -23.9720   17.6380 O   0  0  0  0  0  0  0  0  0  0  0  0
  -28.6210  -25.3190   18.0740 C   0  0  0  0  0  2  0  0  0  0  0  0
  -28.5260  -25.4350   19.6120 C   0  0  0  0  0  2  0  0  0  0  0  0
  -28.4630  -26.7940   20.0560 O   0  0  0  0  0  0  0  0  0  0  0  0
  -24.6120  -31.8750   23.2080 C   0  0  0  0  0  0  0  0  0  0  0  0
  -27.2520  -27.4600   20.0760 C   0  0  0  0  0  0  0  0  0  0  0  0
  -23.3970  -30.4950   21.5540 C   0  0  0  0  0  3  0  0  0  0  0  0
  -24.8420  -28.9510   20.1260 C   0  0  0  0  0  0  0  0  0  0  0  0
  -25.9240  -30.8420   21.3560 C   0  0  0  0  0  2  0  0  0  0  0  0
  -26.0030  -29.4770   20.7030 C   0  0  0  0  0  0  0  0  0  0  0  0
  -27.2060  -28.7390   20.6700 C   0  0  0  0  0  3  0  0  0  0  0  0
  -26.0590  -26.9320   19.5230 C   0  0  0  0  0  3  0  0  0  0  0  0
  -24.8610  -27.6710   19.5440 C   0  0  0  0  0  3  0  0  0  0  0  0
  -23.6030  -29.8170   20.1720 C   0  0  0  0  0  2  0  0  0  0  0  0
  -24.6630  -31.0840   22.1000 N   0  0  0  0  0  0  0  0  0  0  0  0
  -23.5320  -32.1540   23.7460 O   0  0  0  0  0  0  0  0  0  0  0  0
  -22.7400  -29.4700   22.5040 C   0  0  0  0  0  0  0  0  0  0  0  0
  -21.4150  -29.3010   22.3720 N   0  0  0  0  0  0  0  0  0  0  0  0
  -23.4170  -28.8290   23.3090 O   0  0  0  0  0  0  0  0  0  0  0  0
  -20.9330  -29.8670   21.6870 H   0  0  0  0  0  0  0  0  0  0  0  0
  -18.0310  -28.1310   22.8490 C   0  0  0  0  0  0  0  0  0  0  0  0
  -20.5890  -28.3630   23.1310 C   0  0  0  0  0  3  0  0  0  0  0  0
  -20.6840  -26.9390   22.5380 C   0  0  0  0  0  2  0  0  0  0  0  0
  -19.5810  -26.6350   21.5200 C   0  0  0  0  0  2  0  0  0  0  0  0
  -18.1970  -26.7880   22.1550 C   0  0  0  0  0  2  0  0  0  0  0  0
  -19.1540  -28.8790   23.2880 C   0  0  0  0  0  0  0  0  0  0  0  0
  -18.9460  -30.1410   23.8850 C   0  0  0  0  0  3  0  0  0  0  0  0
  -17.6470  -30.6550   24.0520 C   0  0  0  0  0  3  0  0  0  0  0  0
  -16.5380  -29.9020   23.6340 C   0  0  0  0  0  3  0  0  0  0  0  0
  -16.7290  -28.6420   23.0380 C   0  0  0  0  0  3  0  0  0  0  0  0
  -25.9030  -32.4850   23.8370 C   0  0  0  0  0  3  0  0  0  0  0  0
  -26.4470  -31.6630   25.0700 C   0  0  1  0  0  0  0  0  0  0  0  0
  -25.3720  -31.3780   26.1440 C   0  0  0  0  0  1  0  0  0  0  0  0
  -27.0350  -30.3090   24.6070 C   0  0  0  0  0  1  0  0  0  0  0  0
  -27.6010  -32.4400   25.7480 C   0  0  0  0  0  1  0  0  0  0  0  0
  -25.5930  -33.8650   24.2300 N   0  0  0  0  0  0  0  0  0  0  0  0
  -25.9100  -34.9490   23.5100 C   0  0  0  0  0  0  0  0  0  0  0  0
  -26.5620  -34.8930   22.4630 O   0  0  0  0  0  0  0  0  0  0  0  0
  -25.0260  -33.9880   25.0540 H   0  0  0  0  0  0  0  0  0  0  0  0
  -24.1570  -36.7350   23.2620 C   0  0  0  0  0  1  0  0  0  0  0  0
  -25.4180  -36.3120   24.0310 C   0  0  0  0  0  3  0  0  0  0  0  0
  -27.5650  -37.1830   24.8450 C   0  0  0  0  0  1  0  0  0  0  0  0
  -26.4380  -37.3790   23.9380 N   0  0  0  0  0  0  0  0  0  0  0  0
  -26.0290  -38.2910   24.1280 H   0  0  0  0  0  0  0  0  0  0  0  0
  -34.4900  -18.9880   20.7340 C   0  0  0  0  0  2  0  0  0  0  0  0
  -35.9970  -19.3350   20.7100 C   0  0  0  0  0  2  0  0  0  0  0  0
  -36.7970  -18.2480   20.1090 N   0  0  0  0  0  4  0  0  0  0  0  0
  -37.6300  -18.6380   19.6910 H   0  0  0  0  0  0  0  0  0  0  0  0
  -36.2480  -17.8790   19.3460 H   0  0  0  0  0  0  0  0  0  0  0  0
  -37.1750  -17.1530   21.0390 C   0  0  0  0  0  2  0  0  0  0  0  0
  -37.5280  -15.8900   20.2300 C   0  0  0  0  0  2  0  0  0  0  0  0
  -37.6880  -14.7140   21.0310 O   0  0  0  0  0  0  0  0  0  0  0  0
  -36.6280  -13.7610   20.9240 C   0  0  0  0  0  2  0  0  0  0  0  0
  -35.4110  -14.2110   21.7440 C   0  0  0  0  0  2  0  0  0  0  0  0
  -34.2490  -13.2060   21.7340 C   0  0  0  0  0  2  0  0  0  0  0  0
  -33.3390  -13.3570   22.9730 C   0  0  0  0  0  2  0  0  0  0  0  0
  -32.2800  -14.4720   22.8600 C   0  0  0  0  0  2  0  0  0  0  0  0
  -30.9110  -14.1270   20.7890 C   0  0  0  0  0  0  0  0  0  0  0  0
  -30.3610  -12.3060   19.2380 C   0  0  0  0  0  2  0  0  0  0  0  0
  -29.3510  -12.5260   18.1010 C   0  0  0  0  0  2  0  0  0  0  0  0
  -27.9080  -12.3840   18.6020 C   0  0  0  0  0  2  0  0  0  0  0  0
  -27.6400  -13.2110   19.8750 C   0  0  0  0  0  3  0  0  0  0  0  0
  -28.7060  -12.9790   20.9650 C   0  0  0  0  0  2  0  0  0  0  0  0
  -30.0480  -13.1730   20.3830 N   0  0  0  0  0  0  0  0  0  0  0  0
  -31.6870  -14.7430   20.0570 O   0  0  0  0  0  0  0  0  0  0  0  0
  -31.1130  -14.0240   22.1090 N   0  0  0  0  0  0  0  0  0  0  0  0
  -30.4970  -13.3770   22.5780 H   0  0  0  0  0  0  0  0  0  0  0  0
  -25.2490  -13.8300   20.5830 C   0  0  0  0  0  0  0  0  0  0  0  0
  -24.1750  -13.0480   20.9310 C   0  0  0  0  0  0  0  0  0  0  0  0
  -24.6340  -11.6970   20.8880 C   0  0  0  0  0  0  0  0  0  0  0  0
  -26.2900  -12.9460   20.3610 N   0  0  0  0  0  0  0  0  0  0  0  0
  -25.9270  -11.6590   20.6020 N   0  0  0  0  0  0  0  0  0  0  0  0
  -23.9040  -10.4310   21.0450 C   0  0  0  0  0  0  0  0  0  0  0  0
  -24.3630   -9.4200   21.9180 C   0  0  0  0  0  3  0  0  0  0  0  0
  -23.6300   -8.2240   22.0750 C   0  0  0  0  0  3  0  0  0  0  0  0
  -22.4280   -8.0300   21.3540 C   0  0  0  0  0  0  0  0  0  0  0  0
  -21.9910   -9.0270   20.4650 C   0  0  0  0  0  3  0  0  0  0  0  0
  -22.7240  -10.2150   20.3050 C   0  0  0  0  0  3  0  0  0  0  0  0
  -21.6640   -6.8900   21.4240 O   0  0  0  0  0  0  0  0  0  0  0  0
  -21.6860   -6.0750   22.5280 C   0  0  0  0  0  0  0  0  0  0  0  0
  -21.4010   -6.5640   23.8220 C   0  0  0  0  0  3  0  0  0  0  0  0
  -21.3660   -5.6780   24.9180 C   0  0  0  0  0  3  0  0  0  0  0  0
  -21.6050   -4.3040   24.7210 C   0  0  0  0  0  0  0  0  0  0  0  0
  -21.8810   -3.8150   23.4320 C   0  0  0  0  0  3  0  0  0  0  0  0
  -21.9180   -4.6980   22.3390 C   0  0  0  0  0  0  0  0  0  0  0  0
  -22.1640   -4.2180   21.0960 F   0  0  0  0  0  0  0  0  0  0  0  0
  -21.5640   -3.4510   25.7710 F   0  0  0  0  0  0  0  0  0  0  0  0
  -22.7760  -13.5240   21.1950 C   0  0  0  0  0  0  0  0  0  0  0  0
  -22.0480  -12.8120   22.0520 N   0  0  0  0  0  0  0  0  0  0  0  0
  -22.3400  -14.5550   20.6860 O   0  0  0  0  0  0  0  0  0  0  0  0
  -22.4170  -11.9700   22.4670 H   0  0  0  0  0  0  0  0  0  0  0  0
  -21.1150  -13.1100   22.2990 H   0  0  0  0  0  0  0  0  0  0  0  0
  -25.4200  -15.1990   20.4190 N   0  0  0  0  0  0  0  0  0  0  0  0
  -24.6860  -15.8750   20.6020 H   0  0  0  0  0  0  0  0  0  0  0  0
  -26.2670  -15.6250   20.0590 H   0  0  0  0  0  0  0  0  0  0  0  0
  1 59  1  0
  2  1  1  0
  2  4  1  0
  3  1  2  0
  5  6  1  0
  5  2  1  0
  6  8  2  0
  7  6  1  0
  9  7  1  0
 10  7  1  0
 10 11  1  0
 11 12  1  0
 13 14  1  0
 13 12  1  0
 14 15  1  0
 15 16  1  0
 16 17  1  0
 17 18  1  0
 18 20  1  0
 19 30  2  0
 20 25  1  0
 21 29  1  0
 21 31  1  0
 22 28  1  0
 22 24  1  0
 23 29  1  0
 24 23  1  0
 25 24  2  0
 26 27  1  0
 26 20  2  0
 27 22  2  0
 28 21  1  0
 29 19  1  0
 31 33  2  0
 32 31  1  0
 34 32  1  0
 35 44  2  0
 35 40  1  0
 36 32  1  0
 36 40  1  0
 37 36  1  0
 38 39  1  0
 38 37  1  0
 39 35  1  0
 40 41  2  0
 41 42  1  0
 43 42  2  0
 44 43  1  0
 45 19  1  0
 45 50  1  0
 45 46  1  0
 46 49  1  1
 46 47  1  0
 48 46  1  0
 50 53  1  0
 51 55  1  0
 51 50  1  0
 52 51  2  0
 55 54  1  0
 57 55  1  0
 57 58  1  0
 57 56  1  0
 60 59  1  0
 61 60  1  0
 61 64  1  0
 62 61  1  0
 63 61  1  0
 65 66  1  0
 65 64  1  0
 67 66  1  0
 67 68  1  0
 69 68  1  0
 69 70  1  0
 71 70  1  0
 72 80  1  0
 73 78  1  0
 74 75  1  0
 74 73  1  0
 76 75  1  0
 76 85  1  0
 76 77  1  0
 78 72  1  0
 78 77  1  0
 79 72  2  0
 80 81  1  0
 80 71  1  0
 82 83  2  0
 83102  1  0
 84 83  1  0
 84 87  1  0
 85 82  1  0
 85 86  1  0
 86 84  2  0
 87 88  1  0
 88 89  2  0
 90 93  1  0
 90 89  1  0
 91 90  2  0
 92 91  1  0
 92 87  2  0
 93 94  1  0
 94 95  1  0
 95 96  2  0
 97 96  1  0
 97101  1  0
 98 97  2  0
 99 94  2  0
 99 98  1  0
100 99  1  0
102103  1  0
103106  1  0
103105  1  0
104102  2  0
107 82  1  0
107108  1  0
109107  1  0
M  ISO  4  17 101  18 101  72 100  80 100
M  END
>  <TORSDO>  (15) 
F 37

>  <SCORE>  (15) 
-3.881

>  <name>  (15) 
16

>  <ligand_id>  (15) 
16

>  <original_smiles>  (15) 
[H]c1c([H])c([H])c2c(c1[H])C([H])([H])C([H])([H])C([H])([H])C2([H])N([H])C(=O)C1([H])N(C(=O)C([H])(N([H])C(=O)C([H])(N([H])C([H])([H])[H])C([H])([H])[H])C(C([H])([H])[H])(C([H])([H])[H])C([H])([H])[H])C([H])([H])c2c([H])c(OC([H])([H])C([H])([H])OC([H])([H])C([H])([H])OC([H])([H])C([H])([H])N([H])C(=O)C([H])([H])N([H])C(=O)C([H])([H])C([H])([H])[N+]([H])([H])C([H])([H])C([H])([H])OC([H])([H])C([H])([H])C([H])([H])C([H])([H])C([H])([H])N([H])C(=O)N3C([H])([H])C([H])([H])C([H])([H])C([H])(n4nc(-c5c([H])c([H])c(Oc6c([H])c([H])c(F)c([H])c6F)c([H])c5[H])c(C(=O)N([H])[H])c4N([H])[H])C3([H])[H])c([H])c([H])c2C1([H])[H]

>  <smiles>  (15) 
[H]c1c([H])c([H])c2c(c1[H])C([H])([H])C([H])([H])C([H])([H])C2([H])N([H])C(=O)C1([H])N(C(=O)C([H])(N([H])C(=O)C([H])(N([H])C([H])([H])[H])C([H])([H])[H])C(C([H])([H])[H])(C([H])([H])[H])C([H])([H])[H])C([H])([H])c2c([H])c(OC([H])([H])C([H])([H])OC([H])([H])C([H])([H])OC([H])([H])C([H])([H])N([H])C(=O)C([H])([H])N([H])C(=O)C([H])([H])C([H])([H])[N+]([H])([H])C([H])([H])C([H])([H])OC([H])([H])C([H])([H])C([H])([H])C([H])([H])C([H])([H])N([H])C(=O)N3C([H])([H])C([H])([H])C([H])([H])C([H])(n4nc(-c5c([H])c([H])c(Oc6c([H])c([H])c(F)c([H])c6F)c([H])c5[H])c(C(=O)N([H])[H])c4N([H])[H])C3([H])[H])c([H])c([H])c2C1([H])[H]

$$$$
17:0:0
     RDKit          3D

100107  0  0  1  0  0  0  0  0999 V2000
  -30.3700  -20.7560   22.3540 C   0  0  0  0  0  0  0  0  0  0  0  0
  -29.6600  -20.6910   21.2220 N   0  0  0  0  0  0  0  0  0  0  0  0
  -31.5980  -20.6350   22.3760 O   0  0  0  0  0  0  0  0  0  0  0  0
  -28.6540  -20.7830   21.2960 H   0  0  0  0  0  0  0  0  0  0  0  0
  -30.2170  -20.5940   19.8760 C   0  0  0  0  0  2  0  0  0  0  0  0
  -30.8440  -21.9270   19.4180 C   0  0  0  0  0  2  0  0  0  0  0  0
  -29.8060  -23.0190   19.0980 C   0  0  0  0  0  2  0  0  0  0  0  0
  -30.4340  -24.3980   18.8730 C   0  0  0  0  0  2  0  0  0  0  0  0
  -29.3920  -25.2790   18.4870 O   0  0  0  0  0  0  0  0  0  0  0  0
  -29.6760  -26.6460   18.7560 C   0  0  0  0  0  2  0  0  0  0  0  0
  -28.4680  -27.4910   18.3340 C   0  0  0  0  0  2  0  0  0  0  0  0
  -27.3000  -26.8840   18.8880 O   0  0  0  0  0  0  0  0  0  0  0  0
  -24.2400  -31.7630   23.1040 C   0  0  0  0  0  0  0  0  0  0  0  0
  -26.2200  -27.6820   19.1740 C   0  0  0  0  0  0  0  0  0  0  0  0
  -22.7430  -30.6140   21.4990 C   0  0  0  0  0  3  0  0  0  0  0  0
  -23.9080  -29.2100   19.7160 C   0  0  0  0  0  0  0  0  0  0  0  0
  -25.2260  -30.9200   20.9810 C   0  0  0  0  0  2  0  0  0  0  0  0
  -25.1560  -29.6350   20.1860 C   0  0  0  0  0  0  0  0  0  0  0  0
  -26.3140  -28.8750   19.9250 C   0  0  0  0  0  3  0  0  0  0  0  0
  -24.9540  -27.2500   18.7280 C   0  0  0  0  0  3  0  0  0  0  0  0
  -23.7980  -28.0120   18.9880 C   0  0  0  0  0  3  0  0  0  0  0  0
  -22.7230  -30.0930   20.0360 C   0  0  0  0  0  2  0  0  0  0  0  0
  -24.0960  -31.1040   21.9190 N   0  0  0  0  0  0  0  0  0  0  0  0
  -23.2600  -32.0050   23.8220 O   0  0  0  0  0  0  0  0  0  0  0  0
  -22.1810  -29.5090   22.4200 C   0  0  0  0  0  0  0  0  0  0  0  0
  -20.8680  -29.2500   22.3080 N   0  0  0  0  0  0  0  0  0  0  0  0
  -22.9200  -28.8880   23.1890 O   0  0  0  0  0  0  0  0  0  0  0  0
  -20.3300  -29.8070   21.6600 H   0  0  0  0  0  0  0  0  0  0  0  0
  -17.6440  -27.6550   22.6190 C   0  0  0  0  0  0  0  0  0  0  0  0
  -20.1270  -28.2260   23.0440 C   0  0  0  0  0  3  0  0  0  0  0  0
  -20.4400  -26.8130   22.5010 C   0  0  0  0  0  2  0  0  0  0  0  0
  -19.4530  -26.3470   21.4270 C   0  0  0  0  0  2  0  0  0  0  0  0
  -18.0260  -26.3290   21.9820 C   0  0  0  0  0  2  0  0  0  0  0  0
  -18.6310  -28.5520   23.1040 C   0  0  0  0  0  0  0  0  0  0  0  0
  -18.2240  -29.7870   23.6550 C   0  0  0  0  0  3  0  0  0  0  0  0
  -16.8600  -30.1270   23.7300 C   0  0  0  0  0  3  0  0  0  0  0  0
  -15.8860  -29.2280   23.2630 C   0  0  0  0  0  3  0  0  0  0  0  0
  -16.2780  -27.9940   22.7130 C   0  0  0  0  0  3  0  0  0  0  0  0
  -25.6330  -32.2640   23.5990 C   0  0  0  0  0  3  0  0  0  0  0  0
  -25.4690  -33.6540   24.0440 N   0  0  0  0  0  0  0  0  0  0  0  0
  -25.8420  -34.7280   23.3340 C   0  0  0  0  0  0  0  0  0  0  0  0
  -26.4320  -34.6440   22.2530 O   0  0  0  0  0  0  0  0  0  0  0  0
  -24.9440  -33.7990   24.8940 H   0  0  0  0  0  0  0  0  0  0  0  0
  -24.2710  -36.6870   23.1990 C   0  0  0  0  0  1  0  0  0  0  0  0
  -25.5050  -36.1130   23.9140 C   0  0  0  0  0  3  0  0  0  0  0  0
  -27.7490  -36.7370   24.6940 C   0  0  0  0  0  1  0  0  0  0  0  0
  -26.6240  -37.0760   23.8250 N   0  0  0  0  0  0  0  0  0  0  0  0
  -26.3130  -38.0140   24.0630 H   0  0  0  0  0  0  0  0  0  0  0  0
  -26.2420  -31.3740   24.7520 C   0  0  1  0  0  0  0  0  0  0  0  0
  -25.2680  -31.1310   25.9290 C   0  0  0  0  0  1  0  0  0  0  0  0
  -26.6750  -29.9950   24.2040 C   0  0  0  0  0  1  0  0  0  0  0  0
  -27.5140  -32.0480   25.3180 C   0  0  0  0  0  1  0  0  0  0  0  0
  -29.5900  -21.0090   23.6500 C   0  0  0  0  0  2  0  0  0  0  0  0
  -30.1540  -20.2300   24.6990 O   0  0  0  0  0  0  0  0  0  0  0  0
  -29.4940  -20.4230   25.9400 C   0  0  0  0  0  2  0  0  0  0  0  0
  -29.8210  -19.2660   26.8970 C   0  0  0  0  0  2  0  0  0  0  0  0
  -29.1920  -18.0580   26.4840 O   0  0  0  0  0  0  0  0  0  0  0  0
  -29.9820  -17.1930   25.6770 C   0  0  0  0  0  2  0  0  0  0  0  0
  -29.8450  -17.4770   24.1690 C   0  0  0  0  0  2  0  0  0  0  0  0
  -31.0510  -18.0470   23.6680 O   0  0  0  0  0  0  0  0  0  0  0  0
  -31.2290  -17.9420   22.2570 C   0  0  0  0  0  2  0  0  0  0  0  0
  -31.2010  -16.4850   21.7650 C   0  0  0  0  0  2  0  0  0  0  0  0
  -32.6220  -15.1770   20.0570 C   0  0  0  0  0  0  0  0  0  0  0  0
  -32.1860  -12.9770   19.0320 C   0  0  0  0  0  2  0  0  0  0  0  0
  -31.2600  -13.1160   17.8040 C   0  0  0  0  0  2  0  0  0  0  0  0
  -29.7710  -13.1050   18.2120 C   0  0  0  0  0  2  0  0  0  0  0  0
  -29.4800  -14.0600   19.3970 C   0  0  0  0  0  3  0  0  0  0  0  0
  -30.4980  -13.7930   20.5240 C   0  0  0  0  0  2  0  0  0  0  0  0
  -31.8510  -14.0470   19.9950 N   0  0  0  0  0  0  0  0  0  0  0  0
  -33.6440  -15.3110   19.3840 O   0  0  0  0  0  0  0  0  0  0  0  0
  -32.3550  -16.1610   20.9340 N   0  0  0  0  0  0  0  0  0  0  0  0
  -33.0600  -16.8820   20.9170 H   0  0  0  0  0  0  0  0  0  0  0  0
  -27.1450  -14.9050   20.0850 C   0  0  0  0  0  0  0  0  0  0  0  0
  -26.0090  -14.2400   20.4620 C   0  0  0  0  0  0  0  0  0  0  0  0
  -26.3400  -12.8500   20.4400 C   0  0  0  0  0  0  0  0  0  0  0  0
  -28.1030  -13.9250   19.8670 N   0  0  0  0  0  0  0  0  0  0  0  0
  -27.6190  -12.6840   20.1300 N   0  0  0  0  0  0  0  0  0  0  0  0
  -25.5000  -11.6640   20.6430 C   0  0  0  0  0  0  0  0  0  0  0  0
  -25.7750  -10.7270   21.6630 C   0  0  0  0  0  3  0  0  0  0  0  0
  -24.9410   -9.6030   21.8480 C   0  0  0  0  0  3  0  0  0  0  0  0
  -23.8180   -9.4090   21.0110 C   0  0  0  0  0  0  0  0  0  0  0  0
  -23.5620  -10.3310   19.9810 C   0  0  0  0  0  3  0  0  0  0  0  0
  -24.3960  -11.4470   19.7950 C   0  0  0  0  0  3  0  0  0  0  0  0
  -22.9660   -8.3340   21.1010 O   0  0  0  0  0  0  0  0  0  0  0  0
  -22.6600   -7.7600   22.3090 C   0  0  0  0  0  0  0  0  0  0  0  0
  -22.0970   -8.5050   23.3670 C   0  0  0  0  0  3  0  0  0  0  0  0
  -21.7300   -7.8600   24.5650 C   0  0  0  0  0  3  0  0  0  0  0  0
  -21.9180   -6.4730   24.7050 C   0  0  0  0  0  0  0  0  0  0  0  0
  -22.4740   -5.7280   23.6500 C   0  0  0  0  0  3  0  0  0  0  0  0
  -22.8410   -6.3700   22.4550 C   0  0  0  0  0  0  0  0  0  0  0  0
  -23.3560   -5.6430   21.4330 F   0  0  0  0  0  0  0  0  0  0  0  0
  -21.5590   -5.8510   25.8520 F   0  0  0  0  0  0  0  0  0  0  0  0
  -24.6640  -14.8490   20.7370 C   0  0  0  0  0  0  0  0  0  0  0  0
  -23.8950  -14.2500   21.6400 N   0  0  0  0  0  0  0  0  0  0  0  0
  -24.3090  -15.8920   20.1870 O   0  0  0  0  0  0  0  0  0  0  0  0
  -24.1940  -13.4060   22.1060 H   0  0  0  0  0  0  0  0  0  0  0  0
  -22.9920  -14.6420   21.8650 H   0  0  0  0  0  0  0  0  0  0  0  0
  -27.4420  -16.2510   19.8980 N   0  0  0  0  0  0  0  0  0  0  0  0
  -26.7360  -16.9780   19.9690 H   0  0  0  0  0  0  0  0  0  0  0  0
  -28.3180  -16.5890   19.5200 H   0  0  0  0  0  0  0  0  0  0  0  0
  1  3  2  0
  1 53  1  0
  2  4  1  0
  2  1  1  0
  5  2  1  0
  6  5  1  0
  7  6  1  0
  8  7  1  0
  9 10  1  0
  9  8  1  0
 11 10  1  0
 11 12  1  0
 12 14  1  0
 13 24  2  0
 14 19  1  0
 15 23  1  0
 15 25  1  0
 16 22  1  0
 16 18  1  0
 17 23  1  0
 18 17  1  0
 19 18  2  0
 20 21  1  0
 20 14  2  0
 21 16  2  0
 22 15  1  0
 23 13  1  0
 25 27  2  0
 26 25  1  0
 28 26  1  0
 29 38  2  0
 29 34  1  0
 30 26  1  0
 30 34  1  0
 31 30  1  0
 32 33  1  0
 32 31  1  0
 33 29  1  0
 34 35  2  0
 35 36  1  0
 37 36  2  0
 38 37  1  0
 39 13  1  0
 39 40  1  0
 39 49  1  0
 40 43  1  0
 41 45  1  0
 41 40  1  0
 42 41  2  0
 45 44  1  0
 47 45  1  0
 47 48  1  0
 47 46  1  0
 49 52  1  1
 49 50  1  0
 51 49  1  0
 53 54  1  0
 54 55  1  0
 55 56  1  0
 57 56  1  0
 58 57  1  0
 59 58  1  0
 60 59  1  0
 61 60  1  0
 62 61  1  0
 63 71  1  0
 64 69  1  0
 65 66  1  0
 65 64  1  0
 67 66  1  0
 67 76  1  0
 67 68  1  0
 69 63  1  0
 69 68  1  0
 70 63  2  0
 71 62  1  0
 72 71  1  0
 73 74  2  0
 74 93  1  0
 75 74  1  0
 75 78  1  0
 76 73  1  0
 76 77  1  0
 77 75  2  0
 78 79  1  0
 79 80  2  0
 81 84  1  0
 81 80  1  0
 82 81  2  0
 83 82  1  0
 83 78  2  0
 84 85  1  0
 85 90  2  0
 85 86  1  0
 86 87  2  0
 87 88  1  0
 88 92  1  0
 89 88  2  0
 90 89  1  0
 91 90  1  0
 93 94  1  0
 94 97  1  0
 94 96  1  0
 95 93  2  0
 98 99  1  0
 98 73  1  0
100 98  1  0
M  ISO  4  11 101  12 101  63 100  71 100
M  END
>  <TORSDO>  (16) 
F 33

>  <SCORE>  (16) 
5.797

>  <name>  (16) 
17

>  <ligand_id>  (16) 
17

>  <original_smiles>  (16) 
[H]c1c([H])c([H])c2c(c1[H])C([H])([H])C([H])([H])C([H])([H])C2([H])N([H])C(=O)C1([H])N(C(=O)C([H])(N([H])C(=O)C([H])(N([H])C([H])([H])[H])C([H])([H])[H])C(C([H])([H])[H])(C([H])([H])[H])C([H])([H])[H])C([H])([H])c2c([H])c(OC([H])([H])C([H])([H])OC([H])([H])C([H])([H])C([H])([H])C([H])([H])N([H])C(=O)C([H])([H])OC([H])([H])C([H])([H])OC([H])([H])C([H])([H])OC([H])([H])C([H])([H])N([H])C(=O)N3C([H])([H])C([H])([H])C([H])([H])C([H])(n4nc(-c5c([H])c([H])c(Oc6c([H])c([H])c(F)c([H])c6F)c([H])c5[H])c(C(=O)N([H])[H])c4N([H])[H])C3([H])[H])c([H])c([H])c2C1([H])[H]

>  <smiles>  (16) 
[H]c1c([H])c([H])c2c(c1[H])C([H])([H])C([H])([H])C([H])([H])C2([H])N([H])C(=O)C1([H])N(C(=O)C([H])(N([H])C(=O)C([H])(N([H])C([H])([H])[H])C([H])([H])[H])C(C([H])([H])[H])(C([H])([H])[H])C([H])([H])[H])C([H])([H])c2c([H])c(OC([H])([H])C([H])([H])OC([H])([H])C([H])([H])C([H])([H])C([H])([H])N([H])C(=O)C([H])([H])OC([H])([H])C([H])([H])OC([H])([H])C([H])([H])OC([H])([H])C([H])([H])N([H])C(=O)N3C([H])([H])C([H])([H])C([H])([H])C([H])(n4nc(-c5c([H])c([H])c(Oc6c([H])c([H])c(F)c([H])c6F)c([H])c5[H])c(C(=O)N([H])[H])c4N([H])[H])C3([H])[H])c([H])c([H])c2C1([H])[H]

$$$$
18:0:0
     RDKit          3D

108115  0  0  1  0  0  0  0  0999 V2000
  -33.6250  -22.0180   22.2770 C   0  0  0  0  0  2  0  0  0  0  0  0
  -32.5920  -22.2680   23.3940 C   0  0  0  0  0  2  0  0  0  0  0  0
  -32.4120  -23.7440   23.8040 C   0  0  0  0  0  2  0  0  0  0  0  0
  -32.1130  -24.6750   22.6140 C   0  0  0  0  0  2  0  0  0  0  0  0
  -31.7440  -26.1100   23.0360 C   0  0  0  0  0  2  0  0  0  0  0  0
  -32.0250  -27.3020   20.8450 C   0  0  0  0  0  0  0  0  0  0  0  0
  -31.2970  -26.9230   21.9060 N   0  0  0  0  0  0  0  0  0  0  0  0
  -33.2270  -27.0540   20.7330 O   0  0  0  0  0  0  0  0  0  0  0  0
  -30.3280  -27.2160   21.9120 H   0  0  0  0  0  0  0  0  0  0  0  0
  -31.2790  -28.0360   19.7160 C   0  0  0  0  0  2  0  0  0  0  0  0
  -31.1280  -27.2070   18.5560 O   0  0  0  0  0  0  0  0  0  0  0  0
  -30.3210  -26.0300   18.6790 C   0  0  0  0  0  2  0  0  0  0  0  0
  -28.8130  -26.3320   18.7140 C   0  0  0  0  0  2  0  0  0  0  0  0
  -28.4420  -26.8050   20.0070 O   0  0  0  0  0  0  0  0  0  0  0  0
  -24.6110  -31.8690   23.2130 C   0  0  0  0  0  0  0  0  0  0  0  0
  -27.2490  -27.4810   20.0600 C   0  0  0  0  0  0  0  0  0  0  0  0
  -23.3970  -30.4920   21.5520 C   0  0  0  0  0  3  0  0  0  0  0  0
  -24.8440  -28.9560   20.1180 C   0  0  0  0  0  0  0  0  0  0  0  0
  -25.9200  -30.8400   21.3630 C   0  0  0  0  0  2  0  0  0  0  0  0
  -25.9980  -29.4710   20.7210 C   0  0  0  0  0  0  0  0  0  0  0  0
  -27.1980  -28.7290   20.7120 C   0  0  0  0  0  3  0  0  0  0  0  0
  -26.0760  -26.9620   19.4680 C   0  0  0  0  0  3  0  0  0  0  0  0
  -24.8740  -27.6940   19.4960 C   0  0  0  0  0  3  0  0  0  0  0  0
  -23.6030  -29.8180   20.1700 C   0  0  0  0  0  2  0  0  0  0  0  0
  -24.6610  -31.0810   22.1030 N   0  0  0  0  0  0  0  0  0  0  0  0
  -23.5310  -32.1450   23.7520 O   0  0  0  0  0  0  0  0  0  0  0  0
  -22.7360  -29.4660   22.5010 C   0  0  0  0  0  0  0  0  0  0  0  0
  -21.4090  -29.3040   22.3750 N   0  0  0  0  0  0  0  0  0  0  0  0
  -23.4140  -28.8210   23.3040 O   0  0  0  0  0  0  0  0  0  0  0  0
  -20.9220  -29.8810   21.7020 H   0  0  0  0  0  0  0  0  0  0  0  0
  -18.0250  -28.1370   22.8520 C   0  0  0  0  0  0  0  0  0  0  0  0
  -20.5840  -28.3650   23.1340 C   0  0  0  0  0  3  0  0  0  0  0  0
  -20.6710  -26.9390   22.5440 C   0  0  0  0  0  2  0  0  0  0  0  0
  -19.5710  -26.6390   21.5210 C   0  0  0  0  0  2  0  0  0  0  0  0
  -18.1890  -26.7930   22.1610 C   0  0  0  0  0  2  0  0  0  0  0  0
  -19.1500  -28.8830   23.2930 C   0  0  0  0  0  0  0  0  0  0  0  0
  -18.9440  -30.1430   23.8950 C   0  0  0  0  0  3  0  0  0  0  0  0
  -17.6440  -30.6580   24.0570 C   0  0  0  0  0  3  0  0  0  0  0  0
  -16.5330  -29.9100   23.6310 C   0  0  0  0  0  3  0  0  0  0  0  0
  -16.7240  -28.6490   23.0370 C   0  0  0  0  0  3  0  0  0  0  0  0
  -25.9010  -32.4820   23.8410 C   0  0  0  0  0  3  0  0  0  0  0  0
  -26.4450  -31.6570   25.0730 C   0  0  1  0  0  0  0  0  0  0  0  0
  -25.3710  -31.3610   26.1470 C   0  0  0  0  0  1  0  0  0  0  0  0
  -27.0320  -30.3030   24.6080 C   0  0  0  0  0  1  0  0  0  0  0  0
  -27.6050  -32.4250   25.7490 C   0  0  0  0  0  1  0  0  0  0  0  0
  -25.5850  -33.8620   24.2330 N   0  0  0  0  0  0  0  0  0  0  0  0
  -25.9030  -34.9470   23.5150 C   0  0  0  0  0  0  0  0  0  0  0  0
  -26.5620  -34.8920   22.4730 O   0  0  0  0  0  0  0  0  0  0  0  0
  -24.9880  -33.9770   25.0390 H   0  0  0  0  0  0  0  0  0  0  0  0
  -24.1470  -36.7330   23.2640 C   0  0  0  0  0  1  0  0  0  0  0  0
  -25.4090  -36.3110   24.0330 C   0  0  0  0  0  3  0  0  0  0  0  0
  -27.5560  -37.1810   24.8450 C   0  0  0  0  0  1  0  0  0  0  0  0
  -26.4270  -37.3800   23.9410 N   0  0  0  0  0  0  0  0  0  0  0  0
  -26.0160  -38.2880   24.1430 H   0  0  0  0  0  0  0  0  0  0  0  0
  -35.0690  -22.3430   22.6930 C   0  0  0  0  0  2  0  0  0  0  0  0
  -36.0930  -22.2270   21.5550 C   0  0  0  0  0  2  0  0  0  0  0  0
  -36.4090  -20.7920   21.1130 C   0  0  0  0  0  2  0  0  0  0  0  0
  -37.5160  -20.7730   20.0450 C   0  0  0  0  0  2  0  0  0  0  0  0
  -37.9330  -19.3610   19.6100 C   0  0  0  0  0  2  0  0  0  0  0  0
  -36.3790  -17.5340   18.9420 C   0  0  0  0  0  0  0  0  0  0  0  0
  -36.9130  -18.7470   18.7690 N   0  0  0  0  0  0  0  0  0  0  0  0
  -36.6820  -16.7910   19.8790 O   0  0  0  0  0  0  0  0  0  0  0  0
  -36.5860  -19.2850   17.9760 H   0  0  0  0  0  0  0  0  0  0  0  0
  -35.3030  -17.1100   17.9300 C   0  0  0  0  0  2  0  0  0  0  0  0
  -34.0190  -17.0550   18.5470 O   0  0  0  0  0  0  0  0  0  0  0  0
  -33.4810  -18.3150   18.9490 C   0  0  0  0  0  2  0  0  0  0  0  0
  -32.2670  -18.0610   19.8460 C   0  0  0  0  0  2  0  0  0  0  0  0
  -32.6430  -17.2330   20.9440 O   0  0  0  0  0  0  0  0  0  0  0  0
  -31.7010  -17.1680   22.0120 C   0  0  0  0  0  2  0  0  0  0  0  0
  -30.2880  -16.6850   21.6150 C   0  0  0  0  0  2  0  0  0  0  0  0
  -30.7200  -14.3940   20.6430 C   0  0  0  0  0  0  0  0  0  0  0  0
  -30.4210  -12.2900   19.3960 C   0  0  0  0  0  2  0  0  0  0  0  0
  -29.4890  -12.5310   18.1930 C   0  0  0  0  0  2  0  0  0  0  0  0
  -28.0110  -12.3890   18.6090 C   0  0  0  0  0  2  0  0  0  0  0  0
  -27.6700  -13.2000   19.8870 C   0  0  0  0  0  3  0  0  0  0  0  0
  -28.7050  -12.9220   20.9990 C   0  0  0  0  0  2  0  0  0  0  0  0
  -30.0470  -13.2280   20.4640 N   0  0  0  0  0  0  0  0  0  0  0  0
  -31.7470  -14.6780   20.0290 O   0  0  0  0  0  0  0  0  0  0  0  0
  -30.1280  -15.2370   21.5010 N   0  0  0  0  0  0  0  0  0  0  0  0
  -29.3280  -14.8510   21.9780 H   0  0  0  0  0  0  0  0  0  0  0  0
  -25.2620  -13.8170   20.5680 C   0  0  0  0  0  0  0  0  0  0  0  0
  -24.1870  -13.0450   20.9180 C   0  0  0  0  0  0  0  0  0  0  0  0
  -24.6430  -11.6920   20.8780 C   0  0  0  0  0  0  0  0  0  0  0  0
  -26.3070  -12.9330   20.3420 N   0  0  0  0  0  0  0  0  0  0  0  0
  -25.9360  -11.6500   20.5830 N   0  0  0  0  0  0  0  0  0  0  0  0
  -23.9110  -10.4290   21.0460 C   0  0  0  0  0  0  0  0  0  0  0  0
  -24.3650   -9.4200   21.9230 C   0  0  0  0  0  3  0  0  0  0  0  0
  -23.6300   -8.2250   22.0810 C   0  0  0  0  0  3  0  0  0  0  0  0
  -22.4300   -8.0300   21.3580 C   0  0  0  0  0  0  0  0  0  0  0  0
  -21.9940   -9.0290   20.4690 C   0  0  0  0  0  3  0  0  0  0  0  0
  -22.7300  -10.2150   20.3090 C   0  0  0  0  0  3  0  0  0  0  0  0
  -21.6630   -6.8910   21.4270 O   0  0  0  0  0  0  0  0  0  0  0  0
  -21.6840   -6.0770   22.5300 C   0  0  0  0  0  0  0  0  0  0  0  0
  -21.4010   -6.5680   23.8240 C   0  0  0  0  0  3  0  0  0  0  0  0
  -21.3640   -5.6830   24.9200 C   0  0  0  0  0  3  0  0  0  0  0  0
  -21.6030   -4.3090   24.7250 C   0  0  0  0  0  0  0  0  0  0  0  0
  -21.8810   -3.8180   23.4360 C   0  0  0  0  0  3  0  0  0  0  0  0
  -21.9190   -4.6990   22.3420 C   0  0  0  0  0  0  0  0  0  0  0  0
  -22.1650   -4.2190   21.0980 F   0  0  0  0  0  0  0  0  0  0  0  0
  -21.5630   -3.4550   25.7760 F   0  0  0  0  0  0  0  0  0  0  0  0
  -22.7880  -13.5230   21.1840 C   0  0  0  0  0  0  0  0  0  0  0  0
  -22.0490  -12.8240   22.0370 N   0  0  0  0  0  0  0  0  0  0  0  0
  -22.3570  -14.5540   20.6670 O   0  0  0  0  0  0  0  0  0  0  0  0
  -22.4050  -11.9870   22.4760 H   0  0  0  0  0  0  0  0  0  0  0  0
  -21.1130  -13.1330   22.2580 H   0  0  0  0  0  0  0  0  0  0  0  0
  -25.4320  -15.1890   20.4070 N   0  0  0  0  0  0  0  0  0  0  0  0
  -24.6660  -15.8450   20.5180 H   0  0  0  0  0  0  0  0  0  0  0  0
  -26.2950  -15.6320   20.1200 H   0  0  0  0  0  0  0  0  0  0  0  0
  1 55  1  0
  1  2  1  0
  2  3  1  0
  4  5  1  0
  4  3  1  0
  6  7  1  0
  7  9  1  0
  7  5  1  0
  8  6  2  0
 10  6  1  0
 11 12  1  0
 11 10  1  0
 12 13  1  0
 13 14  1  0
 14 16  1  0
 15 26  2  0
 16 21  1  0
 17 25  1  0
 17 27  1  0
 18 24  1  0
 18 20  1  0
 19 25  1  0
 20 19  1  0
 21 20  2  0
 22 23  1  0
 22 16  2  0
 23 18  2  0
 24 17  1  0
 25 15  1  0
 27 29  2  0
 28 27  1  0
 30 28  1  0
 31 40  2  0
 31 36  1  0
 32 28  1  0
 32 36  1  0
 33 32  1  0
 34 35  1  0
 34 33  1  0
 35 31  1  0
 36 37  2  0
 37 38  1  0
 39 38  2  0
 40 39  1  0
 41 15  1  0
 41 46  1  0
 41 42  1  0
 42 45  1  1
 42 43  1  0
 44 42  1  0
 46 49  1  0
 47 51  1  0
 47 46  1  0
 48 47  2  0
 51 50  1  0
 53 51  1  0
 53 54  1  0
 53 52  1  0
 56 55  1  0
 57 56  1  0
 58 57  1  0
 59 58  1  0
 60 62  2  0
 61 60  1  0
 61 59  1  0
 63 61  1  0
 64 65  1  0
 64 60  1  0
 65 66  1  0
 66 67  1  0
 67 68  1  0
 68 69  1  0
 70 69  1  0
 71 79  1  0
 72 77  1  0
 73 74  1  0
 73 72  1  0
 75 74  1  0
 75 84  1  0
 75 76  1  0
 77 71  1  0
 77 76  1  0
 78 71  2  0
 79 70  1  0
 79 80  1  0
 81 82  2  0
 82101  1  0
 83 82  1  0
 83 86  1  0
 84 81  1  0
 84 85  1  0
 85 83  2  0
 86 87  1  0
 87 88  2  0
 89 92  1  0
 89 88  1  0
 90 89  2  0
 91 90  1  0
 91 86  2  0
 92 93  1  0
 93 94  1  0
 94 95  2  0
 96 95  1  0
 96100  1  0
 97 96  2  0
 98 93  2  0
 98 97  1  0
 99 98  1  0
101102  1  0
102105  1  0
102104  1  0
103101  2  0
106107  1  0
106 81  1  0
108106  1  0
M  ISO  4  13 101  14 101  71 100  79 100
M  END
>  <TORSDO>  (17) 
F 38

>  <SCORE>  (17) 
2.290

>  <name>  (17) 
18

>  <ligand_id>  (17) 
18

>  <original_smiles>  (17) 
[H]c1c([H])c([H])c2c(c1[H])C([H])([H])C([H])([H])C([H])([H])C2([H])N([H])C(=O)C1([H])N(C(=O)C([H])(N([H])C(=O)C([H])(N([H])C([H])([H])[H])C([H])([H])[H])C(C([H])([H])[H])(C([H])([H])[H])C([H])([H])[H])C([H])([H])c2c([H])c(OC([H])([H])C([H])([H])OC([H])([H])C(=O)N([H])C([H])([H])C([H])([H])C([H])([H])C([H])([H])C([H])([H])C([H])([H])C([H])([H])C([H])([H])C([H])([H])C([H])([H])N([H])C(=O)C([H])([H])OC([H])([H])C([H])([H])OC([H])([H])C([H])([H])N([H])C(=O)N3C([H])([H])C([H])([H])C([H])([H])C([H])(n4nc(-c5c([H])c([H])c(Oc6c([H])c([H])c(F)c([H])c6F)c([H])c5[H])c(C(=O)N([H])[H])c4N([H])[H])C3([H])[H])c([H])c([H])c2C1([H])[H]

>  <smiles>  (17) 
[H]c1c([H])c([H])c2c(c1[H])C([H])([H])C([H])([H])C([H])([H])C2([H])N([H])C(=O)C1([H])N(C(=O)C([H])(N([H])C(=O)C([H])(N([H])C([H])([H])[H])C([H])([H])[H])C(C([H])([H])[H])(C([H])([H])[H])C([H])([H])[H])C([H])([H])c2c([H])c(OC([H])([H])C([H])([H])OC([H])([H])C(=O)N([H])C([H])([H])C([H])([H])C([H])([H])C([H])([H])C([H])([H])C([H])([H])C([H])([H])C([H])([H])C([H])([H])C([H])([H])N([H])C(=O)C([H])([H])OC([H])([H])C([H])([H])OC([H])([H])C([H])([H])N([H])C(=O)N3C([H])([H])C([H])([H])C([H])([H])C([H])(n4nc(-c5c([H])c([H])c(Oc6c([H])c([H])c(F)c([H])c6F)c([H])c5[H])c(C(=O)N([H])[H])c4N([H])[H])C3([H])[H])c([H])c([H])c2C1([H])[H]

$$$$
19:0:0
     RDKit          3D

107114  0  0  1  0  0  0  0  0999 V2000
  -20.4860  -28.9190   19.6350 C   0  0  0  0  0  2  0  0  0  0  0  0
  -21.1940  -29.4830   20.8370 O   0  0  0  0  0  0  0  0  0  0  0  0
  -20.7960  -29.1410   22.2530 C   0  0  0  0  0  2  0  0  0  0  0  0
  -22.4800  -29.8110   24.0880 C   0  0  0  0  0  1  0  0  0  0  0  0
  -21.7900  -28.5570   23.4930 C   0  0  0  0  0  3  0  0  0  0  0  0
  -22.8290  -27.3270   23.6560 N   0  0  0  0  0  4  0  0  0  0  0  0
  -23.7470  -27.7860   23.5570 H   0  0  0  0  0  0  0  0  0  0  0  0
  -22.7840  -27.2480   24.6620 H   0  0  0  0  0  0  0  0  0  0  0  0
  -23.1560  -25.7900   23.3400 C   0  0  0  0  0  3  0  0  0  0  0  0
  -24.4040  -24.9700   22.4450 C   0  0  0  0  0  3  0  0  0  0  0  0
  -25.6930  -25.4030   21.6850 O   0  0  0  0  0  0  0  0  0  0  0  0
  -26.2960  -24.7040   20.4190 C   0  0  0  0  0  2  0  0  0  0  0  0
  -27.7440  -24.9690   19.5690 C   0  0  0  0  0  2  0  0  0  0  0  0
  -28.1180  -25.5510   18.1630 O   0  0  0  0  0  0  0  0  0  0  0  0
  -25.5830  -28.2130   23.0550 C   0  0  0  0  0  0  0  0  0  0  0  0
  -27.6670  -26.8070   17.9710 C   0  0  0  0  0  0  0  0  0  0  0  0
  -24.1800  -28.3280   20.8750 C   0  0  0  0  0  3  0  0  0  0  0  0
  -25.5970  -28.3640   18.8060 C   0  0  0  0  0  0  0  0  0  0  0  0
  -26.7080  -28.7130   21.0010 C   0  0  0  0  0  2  0  0  0  0  0  0
  -26.7420  -28.2500   19.5820 C   0  0  0  0  0  0  0  0  0  0  0  0
  -27.8650  -27.6150   19.0840 C   0  0  0  0  0  3  0  0  0  0  0  0
  -26.6070  -27.0230   17.0680 C   0  0  0  0  0  3  0  0  0  0  0  0
  -25.5650  -27.8610   17.4970 C   0  0  0  0  0  3  0  0  0  0  0  0
  -24.4430  -29.0010   19.5040 C   0  0  0  0  0  2  0  0  0  0  0  0
  -25.4840  -28.2760   21.6880 N   0  0  0  0  0  0  0  0  0  0  0  0
  -24.6090  -28.3250   23.7670 O   0  0  0  0  0  0  0  0  0  0  0  0
  -23.4060  -26.9870   20.4910 C   0  0  0  0  0  0  0  0  0  0  0  0
  -22.0690  -26.8420   20.5250 N   0  0  0  0  0  0  0  0  0  0  0  0
  -23.9810  -26.0260   20.0920 O   0  0  0  0  0  0  0  0  0  0  0  0
  -21.6390  -27.7530   20.4640 H   0  0  0  0  0  0  0  0  0  0  0  0
  -18.5500  -26.0780   20.0820 C   0  0  0  0  0  0  0  0  0  0  0  0
  -21.0900  -25.7370   20.5240 C   0  0  0  0  0  3  0  0  0  0  0  0
  -21.1200  -24.9770   19.2070 C   0  0  0  0  0  2  0  0  0  0  0  0
  -20.0760  -25.3970   18.1660 C   0  0  0  0  0  2  0  0  0  0  0  0
  -18.6690  -25.4350   18.7210 C   0  0  0  0  0  2  0  0  0  0  0  0
  -19.6510  -26.1500   20.9700 C   0  0  0  0  0  0  0  0  0  0  0  0
  -19.3570  -26.5790   22.2880 C   0  0  0  0  0  3  0  0  0  0  0  0
  -18.1100  -27.1160   22.6560 C   0  0  0  0  0  3  0  0  0  0  0  0
  -17.0530  -27.0840   21.7410 C   0  0  0  0  0  3  0  0  0  0  0  0
  -17.2690  -26.5270   20.4720 C   0  0  0  0  0  3  0  0  0  0  0  0
  -26.8920  -28.0960   23.9020 C   0  0  0  0  0  3  0  0  0  0  0  0
  -27.3030  -26.6210   24.2800 C   0  0  1  0  0  0  0  0  0  0  0  0
  -26.1730  -25.7990   24.9460 C   0  0  0  0  0  1  0  0  0  0  0  0
  -27.8970  -25.8910   23.0560 C   0  0  0  0  0  1  0  0  0  0  0  0
  -28.4550  -26.6440   25.3050 C   0  0  0  0  0  1  0  0  0  0  0  0
  -26.6500  -28.8410   25.1530 N   0  0  0  0  0  0  0  0  0  0  0  0
  -26.9540  -30.1270   25.3310 C   0  0  0  0  0  0  0  0  0  0  0  0
  -27.5780  -30.7780   24.4910 O   0  0  0  0  0  0  0  0  0  0  0  0
  -26.1110  -28.3750   25.8670 H   0  0  0  0  0  0  0  0  0  0  0  0
  -25.3020  -31.6940   26.4070 C   0  0  0  0  0  1  0  0  0  0  0  0
  -26.5190  -30.7870   26.6520 C   0  0  0  0  0  3  0  0  0  0  0  0
  -28.6970  -30.7240   27.7780 C   0  0  0  0  0  1  0  0  0  0  0  0
  -27.6020  -31.5610   27.2940 N   0  0  0  0  0  0  0  0  0  0  0  0
  -27.2440  -32.0990   28.0780 H   0  0  0  0  0  0  0  0  0  0  0  0
  -21.0540  -28.7770   18.0670 C   0  0  0  0  0  2  0  0  0  0  0  0
  -22.2690  -27.8400   17.4590 C   0  0  0  0  0  3  0  0  0  0  0  0
  -22.7390  -27.8330   15.9000 C   0  0  0  0  0  3  0  0  0  0  0  0
  -24.9140  -27.4810   14.4330 C   0  0  0  0  0  0  0  0  0  0  0  0
  -24.1070  -27.2480   15.5370 N   0  0  0  0  0  0  0  0  0  0  0  0
  -24.5960  -28.3300   13.5980 O   0  0  0  0  0  0  0  0  0  0  0  0
  -24.4510  -26.5390   16.1700 H   0  0  0  0  0  0  0  0  0  0  0  0
  -26.2650  -26.6610   14.1830 C   0  0  0  0  0  2  0  0  0  0  0  0
  -28.4280  -26.3730   12.7640 C   0  0  0  0  0  0  0  0  0  0  0  0
  -27.3010  -27.0850   13.1380 N   0  0  0  0  0  0  0  0  0  0  0  0
  -28.5930  -25.2460   13.2310 O   0  0  0  0  0  0  0  0  0  0  0  0
  -27.1560  -27.9960   12.7250 H   0  0  0  0  0  0  0  0  0  0  0  0
  -29.4320  -27.0000   11.8300 C   0  0  0  0  0  3  0  0  0  0  0  0
  -30.6670  -26.4430   11.5060 C   0  0  0  0  0  3  0  0  0  0  0  0
  -31.8510  -27.0270   10.6110 C   0  0  0  0  0  2  0  0  0  0  0  0
  -34.0060  -26.2810    9.2130 C   0  0  0  0  0  0  0  0  0  0  0  0
  -34.7440  -25.3720    7.0200 C   0  0  0  0  0  2  0  0  0  0  0  0
  -33.4550  -25.2380    6.1730 C   0  0  0  0  0  2  0  0  0  0  0  0
  -32.7310  -23.9060    6.4670 C   0  0  0  0  0  2  0  0  0  0  0  0
  -32.5940  -23.6270    7.9850 C   0  0  0  0  0  3  0  0  0  0  0  0
  -33.9410  -23.8340    8.7100 C   0  0  0  0  0  2  0  0  0  0  0  0
  -34.3570  -25.2110    8.4360 N   0  0  0  0  0  0  0  0  0  0  0  0
  -34.5410  -27.3840    9.0390 O   0  0  0  0  0  0  0  0  0  0  0  0
  -32.8710  -26.0800    9.9940 N   0  0  0  0  0  0  0  0  0  0  0  0
  -32.6030  -25.1080   10.0280 H   0  0  0  0  0  0  0  0  0  0  0  0
  -30.9320  -21.9800    9.0290 C   0  0  0  0  0  0  0  0  0  0  0  0
  -30.8000  -20.6240    8.9170 C   0  0  0  0  0  0  0  0  0  0  0  0
  -31.8690  -20.1940    8.0700 C   0  0  0  0  0  0  0  0  0  0  0  0
  -32.0390  -22.3150    8.2660 N   0  0  0  0  0  0  0  0  0  0  0  0
  -32.6400  -21.2210    7.7390 N   0  0  0  0  0  0  0  0  0  0  0  0
  -32.1690  -18.8750    7.5030 C   0  0  0  0  0  0  0  0  0  0  0  0
  -33.4570  -18.3060    7.5990 C   0  0  0  0  0  3  0  0  0  0  0  0
  -33.7150  -17.0280    7.0590 C   0  0  0  0  0  3  0  0  0  0  0  0
  -32.6800  -16.3060    6.4210 C   0  0  0  0  0  0  0  0  0  0  0  0
  -31.4050  -16.8890    6.3060 C   0  0  0  0  0  3  0  0  0  0  0  0
  -31.1510  -18.1620    6.8390 C   0  0  0  0  0  3  0  0  0  0  0  0
  -32.8430  -15.0690    5.8460 O   0  0  0  0  0  0  0  0  0  0  0  0
  -33.8330  -14.2120    6.2550 C   0  0  0  0  0  0  0  0  0  0  0  0
  -33.9500  -13.7980    7.5990 C   0  0  0  0  0  3  0  0  0  0  0  0
  -34.9390  -12.8600    7.9630 C   0  0  0  0  0  3  0  0  0  0  0  0
  -35.8020  -12.3320    6.9850 C   0  0  0  0  0  0  0  0  0  0  0  0
  -35.6830  -12.7400    5.6460 C   0  0  0  0  0  3  0  0  0  0  0  0
  -34.6980  -13.6760    5.2810 C   0  0  0  0  0  0  0  0  0  0  0  0
  -34.5750  -14.0500    3.9850 F   0  0  0  0  0  0  0  0  0  0  0  0
  -36.7450  -11.4260    7.3330 F   0  0  0  0  0  0  0  0  0  0  0  0
  -29.6890  -19.7840    9.4750 C   0  0  0  0  0  0  0  0  0  0  0  0
  -29.9730  -18.5280    9.7960 N   0  0  0  0  0  0  0  0  0  0  0  0
  -28.5710  -20.2570    9.6760 O   0  0  0  0  0  0  0  0  0  0  0  0
  -30.8970  -18.1460    9.6520 H   0  0  0  0  0  0  0  0  0  0  0  0
  -29.2560  -17.9370   10.1930 H   0  0  0  0  0  0  0  0  0  0  0  0
  -30.1920  -22.9560    9.6930 N   0  0  0  0  0  0  0  0  0  0  0  0
  -29.3420  -22.7270   10.1970 H   0  0  0  0  0  0  0  0  0  0  0  0
  -30.3340  -23.9530    9.6010 H   0  0  0  0  0  0  0  0  0  0  0  0
  1  2  1  0
  2  3  1  0
  3  5  1  0
  5  6  1  0
  5  4  1  0
  6  8  1  0
  7  6  1  0
  9  6  1  0
 10  9  2  0
 11 10  1  0
 12 11  1  0
 13 12  1  0
 14 13  1  0
 15 26  2  0
 16 14  1  0
 16 21  1  0
 17 27  1  0
 17 25  1  0
 18 24  1  0
 18 20  1  0
 19 25  1  0
 20 19  1  0
 21 20  2  0
 22 23  1  0
 22 16  2  0
 23 18  2  0
 24 17  1  0
 25 15  1  0
 27 28  1  0
 29 27  2  0
 30 28  1  0
 31 40  2  0
 31 36  1  0
 32 28  1  0
 32 36  1  0
 33 32  1  0
 34 35  1  0
 34 33  1  0
 35 31  1  0
 36 37  2  0
 37 38  1  0
 39 38  2  0
 40 39  1  0
 41 15  1  0
 41 42  1  0
 41 46  1  0
 42 43  1  1
 42 45  1  0
 44 42  1  0
 46 47  1  0
 46 49  1  0
 47 51  1  0
 48 47  2  0
 51 50  1  0
 51 53  1  0
 53 52  1  0
 53 54  1  0
 55  1  1  0
 56 55  1  0
 57 56  2  0
 58 59  1  0
 59 57  1  0
 59 61  1  0
 60 58  2  0
 62 58  1  0
 63 64  1  0
 63 65  2  0
 64 62  1  0
 66 64  1  0
 67 63  1  0
 68 67  2  0
 69 68  1  0
 70 78  1  0
 71 76  1  0
 72 73  1  0
 72 71  1  0
 74 73  1  0
 74 83  1  0
 74 75  1  0
 76 75  1  0
 76 70  1  0
 77 70  2  0
 78 79  1  0
 78 69  1  0
 80105  1  0
 81 80  2  0
 81100  1  0
 82 81  1  0
 83 80  1  0
 84 82  2  0
 84 83  1  0
 85 86  1  0
 85 82  1  0
 87 86  2  0
 88 87  1  0
 89 88  2  0
 89 90  1  0
 90 85  2  0
 91 92  1  0
 91 88  1  0
 92 93  1  0
 93 94  2  0
 95 99  1  0
 95 94  1  0
 96 95  2  0
 97 96  1  0
 97 92  2  0
 98 97  1  0
100102  2  0
100101  1  0
101104  1  0
103101  1  0
105106  1  0
107105  1  0
M  ISO  4  13 101  14 101  70 100  78 100
M  END
>  <TORSDO>  (18) 
F 33

>  <SCORE>  (18) 
0.025

>  <name>  (18) 
19

>  <ligand_id>  (18) 
19

>  <original_smiles>  (18) 
[H]C(C(=O)N([H])C([H])([H])C(=O)N([H])C([H])([H])C([H])([H])C([H])([H])C([H])([H])OC([H])([H])C([H])(C([H])([H])[H])[N+]([H])([H])C([H])([H])C([H])([H])OC([H])([H])C([H])([H])Oc1c([H])c([H])c2c(c1[H])C([H])([H])N(C(=O)C([H])(N([H])C(=O)C([H])(N([H])C([H])([H])[H])C([H])([H])[H])C(C([H])([H])[H])(C([H])([H])[H])C([H])([H])[H])C([H])(C(=O)N([H])C1([H])c3c([H])c([H])c([H])c([H])c3C([H])([H])C([H])([H])C1([H])[H])C2([H])[H])=C([H])C([H])([H])N([H])C(=O)N1C([H])([H])C([H])([H])C([H])([H])C([H])(n2nc(-c3c([H])c([H])c(Oc4c([H])c([H])c(F)c([H])c4F)c([H])c3[H])c(C(=O)N([H])[H])c2N([H])[H])C1([H])[H]

>  <smiles>  (18) 
[H]C(C(=O)N([H])C([H])([H])C(=O)N([H])C([H])([H])C([H])([H])C([H])([H])C([H])([H])OC([H])([H])C([H])(C([H])([H])[H])[N+]([H])([H])C([H])([H])C([H])([H])OC([H])([H])C([H])([H])Oc1c([H])c([H])c2c(c1[H])C([H])([H])N(C(=O)C([H])(N([H])C(=O)C([H])(N([H])C([H])([H])[H])C([H])([H])[H])C(C([H])([H])[H])(C([H])([H])[H])C([H])([H])[H])C([H])(C(=O)N([H])C1([H])c3c([H])c([H])c([H])c([H])c3C([H])([H])C([H])([H])C1([H])[H])C2([H])[H])=C([H])C([H])([H])N([H])C(=O)N1C([H])([H])C([H])([H])C([H])([H])C([H])(n2nc(-c3c([H])c([H])c(Oc4c([H])c([H])c(F)c([H])c4F)c([H])c3[H])c(C(=O)N([H])[H])c2N([H])[H])C1([H])[H]

$$$$
20:0:0
     RDKit          3D

113120  0  0  1  0  0  0  0  0999 V2000
  -29.5490  -28.2430   14.9500 C   0  0  0  0  0  0  0  0  0  0  0  0
  -30.4950  -29.0050   14.3870 N   0  0  0  0  0  0  0  0  0  0  0  0
  -29.1820  -28.4070   16.1160 O   0  0  0  0  0  0  0  0  0  0  0  0
  -30.7380  -28.8150   13.4210 H   0  0  0  0  0  0  0  0  0  0  0  0
  -31.1920  -30.1020   15.0550 C   0  0  0  0  0  2  0  0  0  0  0  0
  -32.5500  -29.6420   15.6280 C   0  0  0  0  0  2  0  0  0  0  0  0
  -33.1570  -30.6650   16.6130 C   0  0  0  0  0  2  0  0  0  0  0  0
  -34.5610  -30.3180   17.1650 C   0  0  0  0  0  2  0  0  0  0  0  0
  -34.6020  -29.7910   18.6140 C   0  0  0  0  0  2  0  0  0  0  0  0
  -35.6230  -27.5030   19.1750 C   0  0  0  0  0  1  0  0  0  0  0  0
  -34.3530  -28.2710   18.7680 C   0  0  0  0  0  3  0  0  0  0  0  0
  -33.2870  -27.9990   19.7580 N   0  0  0  0  0  4  0  0  0  0  0  0
  -33.3580  -27.0300   20.0260 H   0  0  0  0  0  0  0  0  0  0  0  0
  -33.4490  -28.5480   20.5900 H   0  0  0  0  0  0  0  0  0  0  0  0
  -31.9140  -28.2310   19.2670 C   0  0  0  0  0  2  0  0  0  0  0  0
  -30.9140  -27.3030   19.9570 C   0  0  0  0  0  2  0  0  0  0  0  0
  -29.5350  -27.3970   19.3030 C   0  0  0  0  0  2  0  0  0  0  0  0
  -28.5680  -26.8540   20.1800 O   0  0  0  0  0  0  0  0  0  0  0  0
  -24.6720  -31.9650   23.2340 C   0  0  0  0  0  0  0  0  0  0  0  0
  -27.4010  -27.5670   20.2050 C   0  0  0  0  0  0  0  0  0  0  0  0
  -23.4940  -30.5230   21.6020 C   0  0  0  0  0  3  0  0  0  0  0  0
  -24.9790  -28.9930   20.2030 C   0  0  0  0  0  0  0  0  0  0  0  0
  -26.0060  -30.9360   21.4010 C   0  0  0  0  0  2  0  0  0  0  0  0
  -26.1210  -29.5600   20.7840 C   0  0  0  0  0  0  0  0  0  0  0  0
  -27.3370  -28.8500   20.7870 C   0  0  0  0  0  3  0  0  0  0  0  0
  -26.2520  -27.0000   19.6260 C   0  0  0  0  0  3  0  0  0  0  0  0
  -25.0360  -27.7100   19.6280 C   0  0  0  0  0  3  0  0  0  0  0  0
  -23.7160  -29.8230   20.2350 C   0  0  0  0  0  2  0  0  0  0  0  0
  -24.7420  -31.1550   22.1390 N   0  0  0  0  0  0  0  0  0  0  0  0
  -23.5880  -32.2200   23.7750 O   0  0  0  0  0  0  0  0  0  0  0  0
  -22.8670  -29.5020   22.5740 C   0  0  0  0  0  0  0  0  0  0  0  0
  -21.5470  -29.2940   22.4470 N   0  0  0  0  0  0  0  0  0  0  0  0
  -23.5660  -28.8970   23.3910 O   0  0  0  0  0  0  0  0  0  0  0  0
  -21.0510  -29.8260   21.7450 H   0  0  0  0  0  0  0  0  0  0  0  0
  -18.1990  -28.0520   22.9760 C   0  0  0  0  0  0  0  0  0  0  0  0
  -20.7530  -28.3490   23.2280 C   0  0  0  0  0  3  0  0  0  0  0  0
  -20.8760  -26.9170   22.6590 C   0  0  0  0  0  2  0  0  0  0  0  0
  -19.7740  -26.5710   21.6530 C   0  0  0  0  0  2  0  0  0  0  0  0
  -18.3930  -26.7000   22.3060 C   0  0  0  0  0  2  0  0  0  0  0  0
  -19.3100  -28.8310   23.3950 C   0  0  0  0  0  0  0  0  0  0  0  0
  -19.0840  -30.0930   23.9820 C   0  0  0  0  0  3  0  0  0  0  0  0
  -17.7750  -30.5820   24.1550 C   0  0  0  0  0  3  0  0  0  0  0  0
  -16.6770  -29.8020   23.7550 C   0  0  0  0  0  3  0  0  0  0  0  0
  -16.8890  -28.5400   23.1700 C   0  0  0  0  0  3  0  0  0  0  0  0
  -25.9480  -32.6270   23.8390 C   0  0  0  0  0  3  0  0  0  0  0  0
  -25.6140  -34.0190   24.1650 N   0  0  0  0  0  0  0  0  0  0  0  0
  -25.9280  -35.0760   23.4050 C   0  0  0  0  0  0  0  0  0  0  0  0
  -26.6050  -34.9830   22.3770 O   0  0  0  0  0  0  0  0  0  0  0  0
  -25.0230  -34.1620   24.9720 H   0  0  0  0  0  0  0  0  0  0  0  0
  -24.1780  -36.8360   23.0180 C   0  0  0  0  0  1  0  0  0  0  0  0
  -25.4090  -36.4540   23.8560 C   0  0  0  0  0  3  0  0  0  0  0  0
  -27.5100  -37.3780   24.7290 C   0  0  0  0  0  1  0  0  0  0  0  0
  -26.4250  -37.5250   23.7630 N   0  0  0  0  0  0  0  0  0  0  0  0
  -25.9990  -38.4380   23.9040 H   0  0  0  0  0  0  0  0  0  0  0  0
  -26.4920  -31.8740   25.1140 C   0  0  1  0  0  0  0  0  0  0  0  0
  -25.4150  -31.6150   26.1910 C   0  0  0  0  0  1  0  0  0  0  0  0
  -27.1120  -30.5120   24.7210 C   0  0  0  0  0  1  0  0  0  0  0  0
  -27.6240  -32.7010   25.7660 C   0  0  0  0  0  1  0  0  0  0  0  0
  -28.9010  -27.1590   14.0770 C   0  0  0  0  0  2  0  0  0  0  0  0
  -28.9400  -25.0430   15.3810 C   0  0  0  0  0  0  0  0  0  0  0  0
  -28.3020  -26.1100   14.8990 N   0  0  0  0  0  0  0  0  0  0  0  0
  -30.1110  -24.7770   15.0940 O   0  0  0  0  0  0  0  0  0  0  0  0
  -27.3660  -26.2880   15.2380 H   0  0  0  0  0  0  0  0  0  0  0  0
  -28.1260  -24.1480   16.3250 C   0  0  0  0  0  2  0  0  0  0  0  0
  -29.5980  -22.6430   17.6450 C   0  0  0  0  0  0  0  0  0  0  0  0
  -28.7830  -22.8740   16.6110 N   0  0  0  0  0  0  0  0  0  0  0  0
  -29.8160  -23.4870   18.5170 O   0  0  0  0  0  0  0  0  0  0  0  0
  -28.6620  -22.1330   15.9350 H   0  0  0  0  0  0  0  0  0  0  0  0
  -30.2620  -21.2630   17.7190 C   0  0  0  0  0  2  0  0  0  0  0  0
  -29.8920  -20.6250   18.9370 O   0  0  0  0  0  0  0  0  0  0  0  0
  -30.4040  -19.3030   19.0490 C   0  0  0  0  0  2  0  0  0  0  0  0
  -30.0720  -18.7610   20.4460 C   0  0  0  0  0  2  0  0  0  0  0  0
  -30.7170  -17.5120   20.6630 O   0  0  0  0  0  0  0  0  0  0  0  0
  -30.6220  -17.0910   22.0180 C   0  0  0  0  0  2  0  0  0  0  0  0
  -31.3290  -15.7430   22.2110 C   0  0  0  0  0  2  0  0  0  0  0  0
  -30.7890  -14.1600   20.3630 C   0  0  0  0  0  0  0  0  0  0  0  0
  -30.2840  -12.2280   18.9200 C   0  0  0  0  0  2  0  0  0  0  0  0
  -29.2960  -12.5580   17.7880 C   0  0  0  0  0  2  0  0  0  0  0  0
  -27.8410  -12.4230   18.2720 C   0  0  0  0  0  2  0  0  0  0  0  0
  -27.5850  -13.1840   19.5980 C   0  0  0  0  0  3  0  0  0  0  0  0
  -28.6650  -12.8350   20.6460 C   0  0  0  0  0  2  0  0  0  0  0  0
  -29.9960  -13.1030   20.0650 N   0  0  0  0  0  0  0  0  0  0  0  0
  -31.7260  -14.5370   19.6550 O   0  0  0  0  0  0  0  0  0  0  0  0
  -30.5720  -14.6730   21.5760 N   0  0  0  0  0  0  0  0  0  0  0  0
  -29.8110  -14.2720   22.1030 H   0  0  0  0  0  0  0  0  0  0  0  0
  -25.1990  -13.8180   20.3410 C   0  0  0  0  0  0  0  0  0  0  0  0
  -24.1380  -13.0580   20.7470 C   0  0  0  0  0  0  0  0  0  0  0  0
  -24.5920  -11.7030   20.7320 C   0  0  0  0  0  0  0  0  0  0  0  0
  -26.2390  -12.9280   20.1080 N   0  0  0  0  0  0  0  0  0  0  0  0
  -25.8750  -11.6520   20.3960 N   0  0  0  0  0  0  0  0  0  0  0  0
  -23.8670  -10.4480   20.9630 C   0  0  0  0  0  0  0  0  0  0  0  0
  -24.3070   -9.5030   21.9160 C   0  0  0  0  0  3  0  0  0  0  0  0
  -23.5820   -8.3110   22.1330 C   0  0  0  0  0  3  0  0  0  0  0  0
  -22.4010   -8.0560   21.3960 C   0  0  0  0  0  0  0  0  0  0  0  0
  -21.9790   -8.9880   20.4330 C   0  0  0  0  0  3  0  0  0  0  0  0
  -22.7040  -10.1720   20.2140 C   0  0  0  0  0  3  0  0  0  0  0  0
  -21.6470   -6.9150   21.5200 O   0  0  0  0  0  0  0  0  0  0  0  0
  -21.6130   -6.1980   22.6890 C   0  0  0  0  0  0  0  0  0  0  0  0
  -21.2030   -6.7800   23.9100 C   0  0  0  0  0  3  0  0  0  0  0  0
  -21.1170   -5.9890   25.0720 C   0  0  0  0  0  3  0  0  0  0  0  0
  -21.4310   -4.6180   25.0180 C   0  0  0  0  0  0  0  0  0  0  0  0
  -21.8350   -4.0360   23.8030 C   0  0  0  0  0  3  0  0  0  0  0  0
  -21.9220   -4.8230   22.6430 C   0  0  0  0  0  0  0  0  0  0  0  0
  -22.2910   -4.2530   21.4700 F   0  0  0  0  0  0  0  0  0  0  0  0
  -21.3410   -3.8560   26.1320 F   0  0  0  0  0  0  0  0  0  0  0  0
  -22.7470  -13.5450   21.0430 C   0  0  0  0  0  0  0  0  0  0  0  0
  -22.0390  -12.8700   21.9410 N   0  0  0  0  0  0  0  0  0  0  0  0
  -22.3000  -14.5610   20.5130 O   0  0  0  0  0  0  0  0  0  0  0  0
  -22.4140  -12.0480   22.3920 H   0  0  0  0  0  0  0  0  0  0  0  0
  -21.1070  -13.1790   22.1810 H   0  0  0  0  0  0  0  0  0  0  0  0
  -25.3670  -15.1850   20.1320 N   0  0  0  0  0  0  0  0  0  0  0  0
  -24.6090  -15.8480   20.2470 H   0  0  0  0  0  0  0  0  0  0  0  0
  -26.2210  -15.6110   19.7930 H   0  0  0  0  0  0  0  0  0  0  0  0
  1  3  2  0
  2  1  1  0
  2  5  1  0
  4  2  1  0
  5  6  1  0
  6  7  1  0
  7  8  1  0
  8  9  1  0
  9 11  1  0
 11 10  1  0
 11 12  1  0
 12 13  1  0
 12 14  1  0
 15 12  1  0
 15 16  1  0
 17 16  1  0
 17 18  1  0
 18 20  1  0
 19 30  2  0
 20 25  1  0
 21 29  1  0
 21 31  1  0
 22 28  1  0
 22 24  1  0
 23 29  1  0
 24 25  2  0
 24 23  1  0
 26 27  1  0
 26 20  2  0
 27 22  2  0
 28 21  1  0
 29 19  1  0
 31 33  2  0
 32 31  1  0
 34 32  1  0
 35 44  2  0
 35 40  1  0
 36 32  1  0
 36 40  1  0
 37 36  1  0
 38 39  1  0
 38 37  1  0
 39 35  1  0
 40 41  2  0
 41 42  1  0
 43 42  2  0
 44 43  1  0
 45 19  1  0
 45 46  1  0
 45 55  1  0
 46 49  1  0
 47 51  1  0
 47 46  1  0
 48 47  2  0
 51 50  1  0
 53 51  1  0
 53 54  1  0
 53 52  1  0
 55 58  1  1
 55 56  1  0
 57 55  1  0
 59 61  1  0
 59  1  1  0
 60 64  1  0
 61 63  1  0
 61 60  1  0
 62 60  2  0
 64 66  1  0
 65 69  1  0
 65 67  2  0
 66 65  1  0
 68 66  1  0
 69 70  1  0
 70 71  1  0
 71 72  1  0
 72 73  1  0
 73 74  1  0
 74 75  1  0
 76 84  1  0
 77 82  1  0
 78 79  1  0
 78 77  1  0
 80 79  1  0
 80 89  1  0
 80 81  1  0
 82 76  1  0
 82 81  1  0
 83 76  2  0
 84 85  1  0
 84 75  1  0
 86 87  2  0
 87106  1  0
 88 87  1  0
 88 91  1  0
 89 86  1  0
 89 90  1  0
 90 88  2  0
 91 92  1  0
 92 93  2  0
 94 97  1  0
 94 93  1  0
 95 94  2  0
 96 95  1  0
 96 91  2  0
 97 98  1  0
 98 99  1  0
 99100  2  0
101100  1  0
101105  1  0
102101  2  0
103 98  2  0
103102  1  0
104103  1  0
106107  1  0
107110  1  0
107109  1  0
108106  2  0
111112  1  0
111 86  1  0
113111  1  0
M  ISO  4  17 101  18 101  76 100  84 100
M  END
>  <TORSDO>  (19) 
F 37

>  <SCORE>  (19) 
-9.008

>  <name>  (19) 
20

>  <ligand_id>  (19) 
20

>  <original_smiles>  (19) 
[H]c1c([H])c([H])c2c(c1[H])C([H])([H])C([H])([H])C([H])([H])C2([H])N([H])C(=O)C1([H])N(C(=O)C([H])(N([H])C(=O)C([H])(N([H])C([H])([H])[H])C([H])([H])[H])C(C([H])([H])[H])(C([H])([H])[H])C([H])([H])[H])C([H])([H])c2c([H])c(OC([H])([H])C([H])([H])C([H])([H])[N+]([H])([H])C([H])(C([H])([H])[H])C([H])([H])C([H])([H])C([H])([H])C([H])([H])C([H])([H])N([H])C(=O)C([H])([H])N([H])C(=O)C([H])([H])N([H])C(=O)C([H])([H])OC([H])([H])C([H])([H])OC([H])([H])C([H])([H])N([H])C(=O)N3C([H])([H])C([H])([H])C([H])([H])C([H])(n4nc(-c5c([H])c([H])c(Oc6c([H])c([H])c(F)c([H])c6F)c([H])c5[H])c(C(=O)N([H])[H])c4N([H])[H])C3([H])[H])c([H])c([H])c2C1([H])[H]

>  <smiles>  (19) 
[H]c1c([H])c([H])c2c(c1[H])C([H])([H])C([H])([H])C([H])([H])C2([H])N([H])C(=O)C1([H])N(C(=O)C([H])(N([H])C(=O)C([H])(N([H])C([H])([H])[H])C([H])([H])[H])C(C([H])([H])[H])(C([H])([H])[H])C([H])([H])[H])C([H])([H])c2c([H])c(OC([H])([H])C([H])([H])C([H])([H])[N+]([H])([H])C([H])(C([H])([H])[H])C([H])([H])C([H])([H])C([H])([H])C([H])([H])C([H])([H])N([H])C(=O)C([H])([H])N([H])C(=O)C([H])([H])N([H])C(=O)C([H])([H])OC([H])([H])C([H])([H])OC([H])([H])C([H])([H])N([H])C(=O)N3C([H])([H])C([H])([H])C([H])([H])C([H])(n4nc(-c5c([H])c([H])c(Oc6c([H])c([H])c(F)c([H])c6F)c([H])c5[H])c(C(=O)N([H])[H])c4N([H])[H])C3([H])[H])c([H])c([H])c2C1([H])[H]

$$$$
21:0:0
     RDKit          3D

118125  0  0  1  0  0  0  0  0999 V2000
  -21.6810  -30.4350   26.2560 C   0  0  0  0  0  2  0  0  0  0  0  0
  -23.5760  -28.9220   26.9220 C   0  0  0  0  0  0  0  0  0  0  0  0
  -22.8370  -30.0480   27.0870 N   0  0  0  0  0  0  0  0  0  0  0  0
  -23.2120  -28.0060   26.1840 O   0  0  0  0  0  0  0  0  0  0  0  0
  -23.1530  -30.7250   27.7680 H   0  0  0  0  0  0  0  0  0  0  0  0
  -24.9170  -28.7410   27.6640 C   0  0  0  0  0  2  0  0  0  0  0  0
  -27.3180  -28.5380   26.9220 C   0  0  0  0  0  0  0  0  0  0  0  0
  -26.0380  -28.8980   26.7250 N   0  0  0  0  0  0  0  0  0  0  0  0
  -27.7060  -28.0190   27.9690 O   0  0  0  0  0  0  0  0  0  0  0  0
  -25.7850  -29.2980   25.8270 H   0  0  0  0  0  0  0  0  0  0  0  0
  -28.3110  -28.8270   25.7770 C   0  0  0  0  0  2  0  0  0  0  0  0
  -30.3530  -27.5440   25.0580 C   0  0  0  0  0  0  0  0  0  0  0  0
  -29.6830  -28.3030   25.9480 N   0  0  0  0  0  0  0  0  0  0  0  0
  -29.7990  -27.0680   24.0650 O   0  0  0  0  0  0  0  0  0  0  0  0
  -30.1790  -28.6070   26.7760 H   0  0  0  0  0  0  0  0  0  0  0  0
  -31.8760  -27.3410   25.2570 C   0  0  0  0  0  2  0  0  0  0  0  0
  -32.5250  -27.0750   23.9970 O   0  0  0  0  0  0  0  0  0  0  0  0
  -33.9470  -26.9290   24.0990 C   0  0  0  0  0  2  0  0  0  0  0  0
  -34.6880  -27.0150   22.7280 C   0  0  0  0  0  2  0  0  0  0  0  0
  -34.9080  -25.7390   22.1010 O   0  0  0  0  0  0  0  0  0  0  0  0
  -35.5400  -25.7870   20.8080 C   0  0  0  0  0  2  0  0  0  0  0  0
  -35.6000  -24.3580   20.1960 C   0  0  0  0  0  2  0  0  0  0  0  0
  -36.9170  -23.7740   18.1130 C   0  0  0  0  0  0  0  0  0  0  0  0
  -38.0100  -23.4730   15.9120 C   0  0  0  0  0  2  0  0  0  0  0  0
  -38.4900  -24.8290   15.3560 C   0  0  0  0  0  2  0  0  0  0  0  0
  -37.3560  -25.5430   14.5930 C   0  0  0  0  0  2  0  0  0  0  0  0
  -36.0330  -25.5890   15.4000 C   0  0  0  0  0  3  0  0  0  0  0  0
  -35.6830  -24.1950   15.9530 C   0  0  0  0  0  2  0  0  0  0  0  0
  -36.8270  -23.7180   16.7550 N   0  0  0  0  0  0  0  0  0  0  0  0
  -37.9170  -23.4090   18.7360 O   0  0  0  0  0  0  0  0  0  0  0  0
  -35.8530  -24.3080   18.7440 N   0  0  0  0  0  0  0  0  0  0  0  0
  -35.1040  -24.6380   18.1510 H   0  0  0  0  0  0  0  0  0  0  0  0
  -34.0820  -27.1930   14.8910 C   0  0  0  0  0  0  0  0  0  0  0  0
  -33.2760  -27.3360   13.8030 C   0  0  0  0  0  0  0  0  0  0  0  0
  -33.6810  -26.3220   12.8760 C   0  0  0  0  0  0  0  0  0  0  0  0
  -34.9310  -26.1330   14.6120 N   0  0  0  0  0  0  0  0  0  0  0  0
  -34.6410  -25.5750   13.4080 N   0  0  0  0  0  0  0  0  0  0  0  0
  -33.2520  -26.0590   11.5000 C   0  0  0  0  0  0  0  0  0  0  0  0
  -32.7740  -24.7880   11.1070 C   0  0  0  0  0  3  0  0  0  0  0  0
  -32.3570  -24.5630    9.7790 C   0  0  0  0  0  3  0  0  0  0  0  0
  -32.4110  -25.6100    8.8290 C   0  0  0  0  0  0  0  0  0  0  0  0
  -32.9110  -26.8650    9.2200 C   0  0  0  0  0  3  0  0  0  0  0  0
  -33.3290  -27.0880   10.5420 C   0  0  0  0  0  3  0  0  0  0  0  0
  -32.0460  -25.4750    7.5110 O   0  0  0  0  0  0  0  0  0  0  0  0
  -31.0770  -24.5870    7.1200 C   0  0  0  0  0  0  0  0  0  0  0  0
  -29.7820  -24.5990    7.6850 C   0  0  0  0  0  3  0  0  0  0  0  0
  -28.7970  -23.7170    7.1990 C   0  0  0  0  0  3  0  0  0  0  0  0
  -29.0980  -22.8320    6.1460 C   0  0  0  0  0  0  0  0  0  0  0  0
  -30.3850  -22.8230    5.5800 C   0  0  0  0  0  3  0  0  0  0  0  0
  -31.3700  -23.7020    6.0620 C   0  0  0  0  0  0  0  0  0  0  0  0
  -32.6020  -23.7040    5.5000 F   0  0  0  0  0  0  0  0  0  0  0  0
  -28.1480  -21.9930    5.6740 F   0  0  0  0  0  0  0  0  0  0  0  0
  -32.2500  -28.4060   13.5740 C   0  0  0  0  0  0  0  0  0  0  0  0
  -31.2000  -28.1030   12.8260 N   0  0  0  0  0  0  0  0  0  0  0  0
  -32.3590  -29.5150   14.1070 O   0  0  0  0  0  0  0  0  0  0  0  0
  -31.0910  -27.1860   12.4150 H   0  0  0  0  0  0  0  0  0  0  0  0
  -30.4890  -28.7990   12.6550 H   0  0  0  0  0  0  0  0  0  0  0  0
  -34.1820  -27.8890   16.0990 N   0  0  0  0  0  0  0  0  0  0  0  0
  -33.6220  -28.7110   16.2950 H   0  0  0  0  0  0  0  0  0  0  0  0
  -34.8760  -27.7040   16.8110 H   0  0  0  0  0  0  0  0  0  0  0  0
  -21.8220  -31.7340   25.3660 C   0  0  0  0  0  2  0  0  0  0  0  0
  -21.6620  -31.5090   23.8100 C   0  0  0  0  0  2  0  0  0  0  0  0
  -22.3760  -32.0240   22.6680 O   0  0  0  0  0  0  0  0  0  0  0  0
  -21.8450  -31.4860   21.4150 C   0  0  0  0  0  2  0  0  0  0  0  0
  -22.8040  -30.8760   20.3190 C   0  0  0  0  0  3  0  0  0  0  0  0
  -22.6930  -29.3230   20.0180 C   0  0  0  0  0  3  0  0  0  0  0  0
  -23.8180  -28.7160   19.1090 C   0  0  0  0  0  2  0  0  0  0  0  0
  -24.1070  -27.1550   19.1830 C   0  0  0  0  0  2  0  0  0  0  0  0
  -25.1920  -26.6400   20.0300 O   0  0  0  0  0  0  0  0  0  0  0  0
  -25.4600  -25.2050   20.0400 C   0  0  0  0  0  2  0  0  0  0  0  0
  -26.9470  -24.6880   20.2300 C   0  0  0  0  0  2  0  0  0  0  0  0
  -27.6830  -24.9180   21.5300 N   0  0  0  0  0  4  0  0  0  0  0  0
  -27.7120  -25.9100   21.6950 H   0  0  0  0  0  0  0  0  0  0  0  0
  -27.1810  -24.5000   22.3000 H   0  0  0  0  0  0  0  0  0  0  0  0
  -29.0970  -24.3780   21.5480 C   0  0  0  0  0  2  0  0  0  0  0  0
  -30.1660  -25.1230   22.4550 C   0  0  0  0  0  2  0  0  0  0  0  0
  -31.4130  -25.9170   21.8600 C   0  0  0  0  0  2  0  0  0  0  0  0
  -31.4020  -27.3680   21.7960 O   0  0  0  0  0  0  0  0  0  0  0  0
  -25.9990  -31.5070   23.6930 C   0  0  0  0  0  0  0  0  0  0  0  0
  -30.2110  -27.9260   21.4210 C   0  0  0  0  0  0  0  0  0  0  0  0
  -25.5320  -29.6750   22.1250 C   0  0  0  0  0  3  0  0  0  0  0  0
  -27.5640  -28.7120   20.9830 C   0  0  0  0  0  0  0  0  0  0  0  0
  -27.8280  -30.8140   22.2440 C   0  0  0  0  0  2  0  0  0  0  0  0
  -28.4080  -29.5280   21.7320 C   0  0  0  0  0  0  0  0  0  0  0  0
  -29.7410  -29.1330   21.9860 C   0  0  0  0  0  3  0  0  0  0  0  0
  -29.3960  -27.2490   20.4990 C   0  0  0  0  0  3  0  0  0  0  0  0
  -28.0570  -27.5970   20.3330 C   0  0  0  0  0  3  0  0  0  0  0  0
  -26.1340  -29.1190   20.8280 C   0  0  0  0  0  2  0  0  0  0  0  0
  -26.4590  -30.6610   22.7570 N   0  0  0  0  0  0  0  0  0  0  0  0
  -24.8210  -31.5090   23.9900 O   0  0  0  0  0  0  0  0  0  0  0  0
  -25.0860  -28.5100   23.0720 C   0  0  0  0  0  0  0  0  0  0  0  0
  -23.9640  -27.8260   22.7600 N   0  0  0  0  0  0  0  0  0  0  0  0
  -25.7640  -28.2220   24.0620 O   0  0  0  0  0  0  0  0  0  0  0  0
  -23.5090  -28.0980   21.9050 H   0  0  0  0  0  0  0  0  0  0  0  0
  -21.0650  -25.5530   22.6610 C   0  0  0  0  0  0  0  0  0  0  0  0
  -23.2850  -26.7050   23.4550 C   0  0  0  0  0  3  0  0  0  0  0  0
  -23.9700  -25.3710   23.0860 C   0  0  0  0  0  2  0  0  0  0  0  0
  -23.2620  -24.5750   21.9790 C   0  0  0  0  0  2  0  0  0  0  0  0
  -21.8070  -24.2960   22.2850 C   0  0  0  0  0  2  0  0  0  0  0  0
  -21.7420  -26.6550   23.2430 C   0  0  0  0  0  0  0  0  0  0  0  0
  -20.9000  -27.6750   23.7160 C   0  0  0  0  0  3  0  0  0  0  0  0
  -19.5510  -27.8010   23.4010 C   0  0  0  0  0  3  0  0  0  0  0  0
  -18.9220  -26.7490   22.7340 C   0  0  0  0  0  3  0  0  0  0  0  0
  -19.6690  -25.5970   22.4340 C   0  0  0  0  0  3  0  0  0  0  0  0
  -26.9060  -32.5360   24.4110 C   0  0  0  0  0  3  0  0  0  0  0  0
  -27.4180  -32.0160   25.7970 C   0  0  1  0  0  0  0  0  0  0  0  0
  -26.2810  -31.4940   26.6830 C   0  0  0  0  0  1  0  0  0  0  0  0
  -28.4420  -30.8710   25.6160 C   0  0  0  0  0  1  0  0  0  0  0  0
  -28.1020  -33.1700   26.5510 C   0  0  0  0  0  1  0  0  0  0  0  0
  -26.0850  -33.7350   24.5920 N   0  0  0  0  0  0  0  0  0  0  0  0
  -26.1340  -34.8050   23.8000 C   0  0  0  0  0  0  0  0  0  0  0  0
  -26.9400  -34.9020   22.8710 O   0  0  0  0  0  0  0  0  0  0  0  0
  -25.3090  -33.6370   25.2300 H   0  0  0  0  0  0  0  0  0  0  0  0
  -23.9640  -35.8900   23.1300 C   0  0  0  0  0  1  0  0  0  0  0  0
  -25.1520  -35.9510   24.1020 C   0  0  0  0  0  3  0  0  0  0  0  0
  -26.7590  -37.5270   25.0820 C   0  0  0  0  0  1  0  0  0  0  0  0
  -25.7850  -37.2880   24.0220 N   0  0  0  0  0  0  0  0  0  0  0  0
  -25.0840  -38.0180   24.0770 H   0  0  0  0  0  0  0  0  0  0  0  0
  1  3  1  0
  2  3  1  0
  2  6  1  0
  3  5  1  0
  4  2  2  0
  7  9  2  0
  8  7  1  0
  8  6  1  0
 10  8  1  0
 11 13  1  0
 11  7  1  0
 12 16  1  0
 12 13  1  0
 13 15  1  0
 14 12  2  0
 17 18  1  0
 17 16  1  0
 19 18  1  0
 20 19  1  0
 21 20  1  0
 22 21  1  0
 23 30  2  0
 23 31  1  0
 24 29  1  0
 25 24  1  0
 26 25  1  0
 27 26  1  0
 27 28  1  0
 28 29  1  0
 29 23  1  0
 31 22  1  0
 32 31  1  0
 33 58  1  0
 34 33  2  0
 35 37  2  0
 35 34  1  0
 36 33  1  0
 36 27  1  0
 37 36  1  0
 38 35  1  0
 39 38  1  0
 40 39  2  0
 41 42  2  0
 41 40  1  0
 42 43  1  0
 43 38  2  0
 44 41  1  0
 45 44  1  0
 45 46  1  0
 47 46  2  0
 48 47  1  0
 49 50  1  0
 49 48  2  0
 50 45  2  0
 51 50  1  0
 52 48  1  0
 53 34  1  0
 53 55  2  0
 54 53  1  0
 56 54  1  0
 57 54  1  0
 58 59  1  0
 58 60  1  0
 61  1  1  0
 62 61  1  0
 63 62  1  0
 64 63  1  0
 65 64  1  0
 66 65  2  0
 67 68  1  0
 67 66  1  0
 68 69  1  0
 69 70  1  0
 70 71  1  0
 71 72  1  0
 72 75  1  0
 72 73  1  0
 72 74  1  0
 75 76  1  0
 77 76  1  0
 78 77  1  0
 79 90  2  0
 80 78  1  0
 80 85  1  0
 81 89  1  0
 81 91  1  0
 82 84  1  0
 83 89  1  0
 84 85  2  0
 84 83  1  0
 86 80  2  0
 87 86  1  0
 87 82  2  0
 88 82  1  0
 88 81  1  0
 89 79  1  0
 91 93  2  0
 92 91  1  0
 94 92  1  0
 95100  1  0
 96 92  1  0
 97 96  1  0
 98 99  1  0
 98 97  1  0
 99 95  1  0
100 96  1  0
100101  2  0
102101  1  0
103102  2  0
104 95  2  0
104103  1  0
105 79  1  0
105110  1  0
105106  1  0
106109  1  1
106107  1  0
108106  1  0
110113  1  0
111115  1  0
111110  1  0
112111  2  0
115114  1  0
117118  1  0
117115  1  0
117116  1  0
M  ISO  4  23 100  31 100  77 101  78 101
M  END
>  <TORSDO>  (20) 
F 43

>  <SCORE>  (20) 
13.550

>  <name>  (20) 
21

>  <ligand_id>  (20) 
21

>  <original_smiles>  (20) 
[H]c1c([H])c([H])c2c(c1[H])C([H])([H])C([H])([H])C([H])([H])C2([H])N([H])C(=O)C1([H])N(C(=O)C([H])(N([H])C(=O)C([H])(N([H])C([H])([H])[H])C([H])([H])[H])C(C([H])([H])[H])(C([H])([H])[H])C([H])([H])[H])C([H])([H])c2c([H])c(OC([H])([H])C([H])([H])C([H])([H])[N+]([H])([H])C([H])([H])C([H])([H])OC([H])([H])C([H])([H])C([H])([H])C([H])([H])C([H])([H])OC([H])([H])C([H])([H])C([H])([H])N([H])C(=O)C([H])([H])N([H])C(=O)C([H])([H])N([H])C(=O)C([H])([H])OC([H])([H])C([H])([H])OC([H])([H])C([H])([H])N([H])C(=O)N3C([H])([H])C([H])([H])C([H])([H])C([H])(n4nc(-c5c([H])c([H])c(Oc6c([H])c([H])c(F)c([H])c6F)c([H])c5[H])c(C(=O)N([H])[H])c4N([H])[H])C3([H])[H])c([H])c([H])c2C1([H])[H]

>  <smiles>  (20) 
[H]c1c([H])c([H])c2c(c1[H])C([H])([H])C([H])([H])C([H])([H])C2([H])N([H])C(=O)C1([H])N(C(=O)C([H])(N([H])C(=O)C([H])(N([H])C([H])([H])[H])C([H])([H])[H])C(C([H])([H])[H])(C([H])([H])[H])C([H])([H])[H])C([H])([H])c2c([H])c(OC([H])([H])C([H])([H])C([H])([H])[N+]([H])([H])C([H])([H])C([H])([H])OC([H])([H])C([H])([H])C([H])([H])C([H])([H])C([H])([H])OC([H])([H])C([H])([H])C([H])([H])N([H])C(=O)C([H])([H])N([H])C(=O)C([H])([H])N([H])C(=O)C([H])([H])OC([H])([H])C([H])([H])OC([H])([H])C([H])([H])N([H])C(=O)N3C([H])([H])C([H])([H])C([H])([H])C([H])(n4nc(-c5c([H])c([H])c(Oc6c([H])c([H])c(F)c([H])c6F)c([H])c5[H])c(C(=O)N([H])[H])c4N([H])[H])C3([H])[H])c([H])c([H])c2C1([H])[H]

$$$$
22:0:0
     RDKit          3D

121125  0  0  1  0  0  0  0  0999 V2000
  -19.6940  -12.4090   21.9200 C   0  0  0  0  0  2  0  0  0  0  0  0
  -20.0840  -12.9740   20.5430 C   0  0  0  0  0  0  0  0  0  0  0  0
  -21.1090  -13.8360   20.4670 N   0  0  0  0  0  0  0  0  0  0  0  0
  -19.4490  -12.6140   19.5480 O   0  0  0  0  0  0  0  0  0  0  0  0
  -21.6250  -14.0960   21.3040 H   0  0  0  0  0  0  0  0  0  0  0  0
  -21.6740  -14.3420   19.2150 C   0  0  0  0  0  2  0  0  0  0  0  0
  -23.1990  -14.4000   19.2970 C   0  0  0  0  0  0  0  0  0  0  0  0
  -23.7600  -15.6080   19.4460 N   0  0  0  0  0  0  0  0  0  0  0  0
  -23.8510  -13.3550   19.2440 O   0  0  0  0  0  0  0  0  0  0  0  0
  -23.1300  -16.4010   19.4750 H   0  0  0  0  0  0  0  0  0  0  0  0
  -25.1830  -15.8530   19.6970 C   0  0  0  0  0  2  0  0  0  0  0  0
  -25.4220  -17.2960   20.1800 C   0  0  0  0  0  2  0  0  0  0  0  0
  -26.8940  -17.7520   20.0880 C   0  0  0  0  0  2  0  0  0  0  0  0
  -27.0750  -19.1820   20.6240 C   0  0  0  0  0  2  0  0  0  0  0  0
  -28.3990  -19.8660   20.2210 C   0  0  0  0  0  2  0  0  0  0  0  0
  -28.6160  -21.1460   21.0520 C   0  0  0  0  0  2  0  0  0  0  0  0
  -28.9990  -22.4030   20.2420 C   0  0  0  0  0  2  0  0  0  0  0  0
  -28.9020  -23.6690   21.1190 C   0  0  0  0  0  2  0  0  0  0  0  0
  -29.7980  -24.8640   20.6900 C   0  0  0  0  0  2  0  0  0  0  0  0
  -30.3820  -25.6880   21.8690 C   0  0  0  0  0  2  0  0  0  0  0  0
  -30.1140  -27.0950   21.8400 O   0  0  0  0  0  0  0  0  0  0  0  0
  -28.2220  -32.6260   25.9200 C   0  0  0  0  0  0  0  0  0  0  0  0
  -29.2250  -27.6060   22.7610 C   0  0  0  0  0  0  0  0  0  0  0  0
  -26.9890  -30.5230   26.3130 C   0  0  0  0  0  3  0  0  0  0  0  0
  -27.3590  -28.6910   24.5910 C   0  0  0  0  0  0  0  0  0  0  0  0
  -27.9990  -31.0350   24.0150 C   0  0  0  0  0  2  0  0  0  0  0  0
  -28.1600  -29.5430   23.8180 C   0  0  0  0  0  0  0  0  0  0  0  0
  -29.0830  -29.0050   22.8920 C   0  0  0  0  0  3  0  0  0  0  0  0
  -28.4170  -26.7740   23.5630 C   0  0  0  0  0  3  0  0  0  0  0  0
  -27.4870  -27.3010   24.4700 C   0  0  0  0  0  3  0  0  0  0  0  0
  -26.3730  -29.3340   25.5340 C   0  0  0  0  0  2  0  0  0  0  0  0
  -27.7840  -31.4340   25.4270 N   0  0  0  0  0  0  0  0  0  0  0  0
  -27.9390  -32.9880   27.0710 O   0  0  0  0  0  0  0  0  0  0  0  0
  -27.7980  -29.9630   27.5050 C   0  0  0  0  0  0  0  0  0  0  0  0
  -27.1700  -29.9360   28.6920 N   0  0  0  0  0  0  0  0  0  0  0  0
  -28.9470  -29.5410   27.3490 O   0  0  0  0  0  0  0  0  0  0  0  0
  -26.2310  -30.3080   28.7390 H   0  0  0  0  0  0  0  0  0  0  0  0
  -26.5900  -29.7140   32.2520 C   0  0  0  0  0  0  0  0  0  0  0  0
  -27.7200  -29.4210   29.9460 C   0  0  0  0  0  3  0  0  0  0  0  0
  -27.4230  -27.9110   30.1060 C   0  0  0  0  0  2  0  0  0  0  0  0
  -26.1380  -27.6290   30.8900 C   0  0  0  0  0  2  0  0  0  0  0  0
  -26.2200  -28.2400   32.2920 C   0  0  0  0  0  2  0  0  0  0  0  0
  -27.2810  -30.2710   31.1430 C   0  0  0  0  0  0  0  0  0  0  0  0
  -27.5700  -31.6530   31.1400 C   0  0  0  0  0  3  0  0  0  0  0  0
  -27.1850  -32.4710   32.2190 C   0  0  0  0  0  3  0  0  0  0  0  0
  -26.5160  -31.9110   33.3210 C   0  0  0  0  0  3  0  0  0  0  0  0
  -26.2240  -30.5360   33.3380 C   0  0  0  0  0  3  0  0  0  0  0  0
  -29.0770  -33.6030   25.0540 C   0  0  0  0  0  3  0  0  0  0  0  0
  -30.6210  -33.5250   25.3700 C   0  0  1  0  0  0  0  0  0  0  0  0
  -30.9520  -33.6030   26.8790 C   0  0  0  0  0  1  0  0  0  0  0  0
  -31.2210  -32.2080   24.8230 C   0  0  0  0  0  1  0  0  0  0  0  0
  -31.3620  -34.6790   24.6560 C   0  0  0  0  0  1  0  0  0  0  0  0
  -28.5670  -34.9610   25.2870 N   0  0  0  0  0  0  0  0  0  0  0  0
  -27.7440  -35.6160   24.4580 C   0  0  0  0  0  0  0  0  0  0  0  0
  -27.3860  -35.1570   23.3690 O   0  0  0  0  0  0  0  0  0  0  0  0
  -28.7740  -35.3740   26.1840 H   0  0  0  0  0  0  0  0  0  0  0  0
  -25.8030  -36.8640   25.4570 C   0  0  0  0  0  1  0  0  0  0  0  0
  -27.2330  -36.9970   24.9090 C   0  0  0  0  0  3  0  0  0  0  0  0
  -28.6160  -38.3930   23.4380 C   0  0  0  0  0  1  0  0  0  0  0  0
  -27.2630  -38.0140   23.8360 N   0  0  0  0  0  0  0  0  0  0  0  0
  -26.7690  -38.8550   24.1210 H   0  0  0  0  0  0  0  0  0  0  0  0
  -19.6430  -10.8630   21.9350 C   0  0  0  0  0  2  0  0  0  0  0  0
  -20.1810  -10.1940   23.2160 C   0  0  0  0  0  2  0  0  0  0  0  0
  -21.7180  -10.1550   23.2830 C   0  0  0  0  0  2  0  0  0  0  0  0
  -22.3260   -9.1370   24.2780 C   0  0  0  0  0  2  0  0  0  0  0  0
  -24.8550   -9.1300   24.4450 C   0  0  0  0  0  0  0  0  0  0  0  0
  -23.6900   -8.8370   23.8480 N   0  0  0  0  0  0  0  0  0  0  0  0
  -24.9520   -9.5500   25.6030 O   0  0  0  0  0  0  0  0  0  0  0  0
  -23.7760   -8.4380   22.9240 H   0  0  0  0  0  0  0  0  0  0  0  0
  -26.0760   -8.9850   23.5230 C   0  0  0  0  0  2  0  0  0  0  0  0
  -27.3390   -9.1490   24.1720 O   0  0  0  0  0  0  0  0  0  0  0  0
  -28.3880   -9.0120   23.2090 C   0  0  0  0  0  2  0  0  0  0  0  0
  -29.7880   -8.9850   23.8540 C   0  0  0  0  0  2  0  0  0  0  0  0
  -29.9960   -7.8550   24.8830 C   0  0  0  0  0  2  0  0  0  0  0  0
  -30.0110   -6.5700   24.2710 O   0  0  0  0  0  0  0  0  0  0  0  0
  -31.2760   -6.1660   23.7510 C   0  0  0  0  0  2  0  0  0  0  0  0
  -31.0760   -4.9960   22.7760 C   0  0  0  0  0  2  0  0  0  0  0  0
  -30.8600   -5.4780   21.4600 O   0  0  0  0  0  0  0  0  0  0  0  0
  -29.5700   -6.0550   21.2540 C   0  0  0  0  0  2  0  0  0  0  0  0
  -29.6740   -7.0160   20.0710 C   0  0  0  0  0  2  0  0  0  0  0  0
  -30.5680   -8.0710   20.4350 O   0  0  0  0  0  0  0  0  0  0  0  0
  -31.0790   -8.7950   19.3180 C   0  0  0  0  0  2  0  0  0  0  0  0
  -30.4000  -10.1620   19.0940 C   0  0  0  0  0  2  0  0  0  0  0  0
  -31.7050  -12.6320   20.1410 C   0  0  2  0  0  0  0  0  0  0  0  0
  -32.7180  -12.0920   18.9960 C   0  0  0  0  0  1  0  0  0  0  0  0
  -31.3160  -12.6070   17.8070 C   0  0  0  0  0  1  0  0  0  0  0  0
  -29.7020  -12.9100   18.4550 C   0  0  0  0  0  2  0  0  0  0  0  0
  -29.4070  -13.2630   20.1420 C   0  0  0  0  0  2  0  0  0  0  0  0
  -30.7320  -12.8960   21.4150 C   0  0  0  0  0  1  0  0  0  0  0  0
  -32.3090  -12.2720   20.7870 N   0  0  0  0  0  1  0  0  0  0  0  0
  -32.0060  -13.9630   19.8670 O   0  0  0  0  0  1  0  0  0  0  0  0
  -30.9760  -11.1650   20.0270 N   0  0  0  0  0  2  0  0  0  0  0  0
  -31.2500  -10.6550   20.8570 H   0  0  0  0  0  0  0  0  0  0  0  0
  -27.1200  -13.8110   21.1220 C   0  0  0  0  0  0  0  0  0  0  0  0
  -25.9890  -13.0890   21.3660 C   0  0  0  0  0  0  0  0  0  0  0  0
  -26.2410  -11.7700   20.8780 C   0  0  0  0  0  0  0  0  0  0  0  0
  -28.0370  -12.9370   20.5660 N   0  0  0  0  0  0  0  0  0  0  0  0
  -27.5020  -11.6830   20.4400 N   0  0  0  0  0  0  0  0  0  0  0  0
  -25.3320  -10.6090   20.7940 C   0  0  0  0  0  0  0  0  0  0  0  0
  -25.7180   -9.3250   21.2340 C   0  0  0  0  0  3  0  0  0  0  0  0
  -24.8100   -8.2410   21.1990 C   0  0  0  0  0  3  0  0  0  0  0  0
  -23.5050   -8.4230   20.6770 C   0  0  0  0  0  0  0  0  0  0  0  0
  -23.1370   -9.6950   20.2010 C   0  0  0  0  0  3  0  0  0  0  0  0
  -24.0360  -10.7760   20.2640 C   0  0  0  0  0  3  0  0  0  0  0  0
  -22.5840   -7.4110   20.5270 O   0  0  0  0  0  0  0  0  0  0  0  0
  -22.4990   -6.3720   21.4210 C   0  0  0  0  0  0  0  0  0  0  0  0
  -22.3620   -6.5970   22.8050 C   0  0  0  0  0  3  0  0  0  0  0  0
  -22.2080   -5.5080   23.6870 C   0  0  0  0  0  3  0  0  0  0  0  0
  -22.1840   -4.1940   23.1800 C   0  0  0  0  0  0  0  0  0  0  0  0
  -22.3120   -3.9680   21.7980 C   0  0  0  0  0  3  0  0  0  0  0  0
  -22.4700   -5.0560   20.9200 C   0  0  0  0  0  0  0  0  0  0  0  0
  -22.5790   -4.8390   19.5840 F   0  0  0  0  0  0  0  0  0  0  0  0
  -22.0190   -3.1450   24.0180 F   0  0  0  0  0  0  0  0  0  0  0  0
  -24.7220  -13.6150   21.9710 C   0  0  0  0  0  0  0  0  0  0  0  0
  -24.0030  -12.7590   22.6840 N   0  0  0  0  0  0  0  0  0  0  0  0
  -24.4050  -14.8000   21.8980 O   0  0  0  0  0  0  0  0  0  0  0  0
  -24.2820  -11.7940   22.7380 H   0  0  0  0  0  0  0  0  0  0  0  0
  -23.2000  -13.0700   23.2040 H   0  0  0  0  0  0  0  0  0  0  0  0
  -27.4430  -15.1440   21.3430 N   0  0  0  0  0  0  0  0  0  0  0  0
  -26.7670  -15.7910   21.7310 H   0  0  0  0  0  0  0  0  0  0  0  0
  -28.3430  -15.5680   21.1500 H   0  0  0  0  0  0  0  0  0  0  0  0
  1 62  1  0
  2  1  1  0
  3  2  1  0
  3  5  1  0
  4  2  2  0
  6  7  1  0
  6  3  1  0
  7  8  1  0
  8 10  1  0
  8 11  1  0
  9  7  2  0
 11 12  1  0
 13 12  1  0
 13 14  1  0
 15 14  1  0
 15 16  1  0
 17 16  1  0
 17 18  1  0
 19 18  1  0
 19 20  1  0
 21 20  1  0
 21 23  1  0
 22 33  2  0
 23 28  2  0
 23 29  1  0
 24 34  1  0
 25 31  1  0
 26 32  1  0
 27 26  1  0
 27 25  2  0
 28 27  1  0
 29 30  2  0
 30 25  1  0
 31 24  1  0
 32 22  1  0
 32 24  1  0
 34 35  1  0
 35 37  1  0
 36 34  2  0
 38 42  1  0
 38 47  1  0
 39 35  1  0
 39 40  1  0
 39 43  1  0
 40 41  1  0
 41 42  1  0
 43 38  2  0
 44 43  1  0
 44 45  2  0
 45 46  1  0
 46 47  2  0
 48 53  1  0
 48 49  1  0
 48 22  1  0
 49 50  1  1
 51 49  1  0
 52 49  1  0
 53 56  1  0
 54 58  1  0
 54 53  1  0
 55 54  2  0
 58 57  1  0
 59 60  1  0
 60 61  1  0
 60 58  1  0
 62 63  1  0
 63 64  1  0
 64 65  1  0
 66 68  2  0
 67 65  1  0
 67 66  1  0
 69 67  1  0
 70 71  1  0
 70 66  1  0
 72 73  1  0
 72 71  1  0
 73 74  1  0
 75 74  1  0
 76 75  1  0
 77 76  1  0
 78 77  1  0
 79 78  1  0
 80 81  1  0
 80 79  1  0
 82 81  1  0
 83 82  1  0
 83 92  1  0
 84 90  1  0
 84 89  1  6
 85 84  1  0
 86 87  1  0
 87 88  1  0
 88 97  1  0
 91 84  1  0
 92 93  1  0
 94119  1  0
 94 95  2  0
 95114  1  0
 96 95  1  0
 97 94  1  0
 98 97  1  0
 98 96  2  0
 99 96  1  0
 99100  1  0
101100  2  0
102101  1  0
103104  1  0
103102  2  0
104 99  2  0
105102  1  0
105106  1  0
106107  1  0
107108  2  0
109108  1  0
109113  1  0
110109  2  0
111106  2  0
111110  1  0
112111  1  0
114115  1  0
115117  1  0
115118  1  0
116114  2  0
119120  1  0
121119  1  0
M  ISO  4  20 101  21 101  84 100  92 100
M  END
>  <TORSDO>  (21) 
F 48

>  <SCORE>  (21) 
17.784

>  <name>  (21) 
22

>  <ligand_id>  (21) 
22

>  <original_smiles>  (21) 
[H]c1c([H])c([H])c2c(c1[H])C([H])([H])C([H])([H])C([H])([H])C2([H])N([H])C(=O)C1([H])N(C(=O)C([H])(N([H])C(=O)C([H])(N([H])C([H])([H])[H])C([H])([H])[H])C(C([H])([H])[H])(C([H])([H])[H])C([H])([H])[H])C([H])([H])c2c([H])c(OC([H])([H])C([H])([H])C([H])([H])C([H])([H])C([H])([H])C([H])([H])C([H])([H])C([H])([H])C([H])([H])C([H])([H])N([H])C(=O)C([H])([H])N([H])C(=O)C([H])([H])C([H])([H])C([H])([H])C([H])([H])C([H])([H])N([H])C(=O)C([H])([H])OC([H])([H])C([H])([H])C([H])([H])OC([H])([H])C([H])([H])OC([H])([H])C([H])([H])OC([H])([H])C([H])([H])N([H])C(=O)N3C([H])([H])C([H])([H])C([H])([H])C([H])(n4nc(-c5c([H])c([H])c(Oc6c([H])c([H])c(F)c([H])c6F)c([H])c5[H])c(C(=O)N([H])[H])c4N([H])[H])C3([H])[H])c([H])c([H])c2C1([H])[H]

>  <smiles>  (21) 
[H]c1c([H])c([H])c2c(c1[H])C([H])([H])C([H])([H])C([H])([H])C2([H])N([H])C(=O)C1([H])N(C(=O)C([H])(N([H])C(=O)C([H])(N([H])C([H])([H])[H])C([H])([H])[H])C(C([H])([H])[H])(C([H])([H])[H])C([H])([H])[H])C([H])([H])c2c([H])c(OC([H])([H])C([H])([H])C([H])([H])C([H])([H])C([H])([H])C([H])([H])C([H])([H])C([H])([H])C([H])([H])C([H])([H])N([H])C(=O)C([H])([H])N([H])C(=O)C([H])([H])C([H])([H])C([H])([H])C([H])([H])C([H])([H])N([H])C(=O)C([H])([H])OC([H])([H])C([H])([H])C([H])([H])OC([H])([H])C([H])([H])OC([H])([H])C([H])([H])OC([H])([H])C([H])([H])N([H])C(=O)N3C([H])([H])C([H])([H])C([H])([H])C([H])(n4nc(-c5c([H])c([H])c(Oc6c([H])c([H])c(F)c([H])c6F)c([H])c5[H])c(C(=O)N([H])[H])c4N([H])[H])C3([H])[H])c([H])c([H])c2C1([H])[H]

$$$$
23:0:0
     RDKit          3D

108115  0  0  1  0  0  0  0  0999 V2000
  -29.1460  -18.0690   18.5580 C   0  0  0  0  0  0  0  0  0  0  0  0
  -30.3820  -17.6180   18.3430 N   0  0  0  0  0  0  0  0  0  0  0  0
  -28.4600  -17.7360   19.5240 O   0  0  0  0  0  0  0  0  0  0  0  0
  -30.8640  -17.9610   17.5210 H   0  0  0  0  0  0  0  0  0  0  0  0
  -31.2480  -16.9120   19.2730 C   0  0  0  0  0  2  0  0  0  0  0  0
  -32.6100  -17.6190   19.2530 C   0  0  0  0  0  2  0  0  0  0  0  0
  -33.5440  -16.6830   18.7270 O   0  0  0  0  0  0  0  0  0  0  0  0
  -34.7080  -17.2630   18.1590 C   0  0  0  0  0  2  0  0  0  0  0  0
  -35.9250  -16.7310   18.9390 C   0  0  0  0  0  2  0  0  0  0  0  0
  -36.3300  -15.4720   18.3980 O   0  0  0  0  0  0  0  0  0  0  0  0
  -36.8420  -15.5620   17.0700 C   0  0  0  0  0  2  0  0  0  0  0  0
  -38.3850  -15.5470   17.0590 C   0  0  0  0  0  2  0  0  0  0  0  0
  -38.8970  -15.6110   15.7280 O   0  0  0  0  0  0  0  0  0  0  0  0
  -40.0530  -14.7930   15.5420 C   0  0  0  0  0  2  0  0  0  0  0  0
  -39.7690  -13.6150   14.5850 C   0  0  0  0  0  2  0  0  0  0  0  0
  -40.2080  -13.8540   13.2480 O   0  0  0  0  0  0  0  0  0  0  0  0
  -41.5530  -13.4580   12.9800 C   0  0  0  0  0  2  0  0  0  0  0  0
  -41.5230  -12.3660   11.9040 C   0  0  0  0  0  2  0  0  0  0  0  0
  -39.7460  -11.5030   10.4810 C   0  0  0  0  0  0  0  0  0  0  0  0
  -37.5360  -10.4890   10.1270 C   0  0  0  0  0  2  0  0  0  0  0  0
  -36.5980  -11.5210    9.4730 C   0  0  0  0  0  2  0  0  0  0  0  0
  -35.9120  -12.3890   10.5480 C   0  0  0  0  0  2  0  0  0  0  0  0
  -36.9180  -12.9740   11.5780 C   0  0  0  0  0  3  0  0  0  0  0  0
  -37.8630  -11.8700   12.1100 C   0  0  0  0  0  2  0  0  0  0  0  0
  -38.5060  -11.2250   10.9480 N   0  0  0  0  0  0  0  0  0  0  0  0
  -40.2450  -10.9860    9.4830 O   0  0  0  0  0  0  0  0  0  0  0  0
  -40.3460  -12.5370   11.0670 N   0  0  0  0  0  0  0  0  0  0  0  0
  -40.4730  -13.3090   10.4310 H   0  0  0  0  0  0  0  0  0  0  0  0
  -35.8780  -14.9980   12.7870 C   0  0  0  0  0  0  0  0  0  0  0  0
  -35.1880  -15.1080   13.9650 C   0  0  0  0  0  0  0  0  0  0  0  0
  -35.1550  -13.7910   14.5210 C   0  0  0  0  0  0  0  0  0  0  0  0
  -36.2300  -13.6630   12.6690 N   0  0  0  0  0  0  0  0  0  0  0  0
  -35.8320  -12.9480   13.7520 N   0  0  0  0  0  0  0  0  0  0  0  0
  -34.4680  -13.2760   15.7130 C   0  0  0  0  0  0  0  0  0  0  0  0
  -35.1710  -12.5970   16.7330 C   0  0  0  0  0  3  0  0  0  0  0  0
  -34.4920  -12.1230   17.8770 C   0  0  0  0  0  3  0  0  0  0  0  0
  -33.0980  -12.3300   18.0110 C   0  0  0  0  0  0  0  0  0  0  0  0
  -32.4000  -12.9880   16.9830 C   0  0  0  0  0  3  0  0  0  0  0  0
  -33.0780  -13.4540   15.8430 C   0  0  0  0  0  3  0  0  0  0  0  0
  -32.3510  -11.8800   19.0720 O   0  0  0  0  0  0  0  0  0  0  0  0
  -32.8990  -11.7050   20.3190 C   0  0  0  0  0  0  0  0  0  0  0  0
  -33.6400  -12.7250   20.9560 C   0  0  0  0  0  3  0  0  0  0  0  0
  -34.1300  -12.5270   22.2620 C   0  0  0  0  0  3  0  0  0  0  0  0
  -33.8730  -11.3180   22.9370 C   0  0  0  0  0  0  0  0  0  0  0  0
  -33.1340  -10.3040   22.3060 C   0  0  0  0  0  3  0  0  0  0  0  0
  -32.6450  -10.4980   21.0010 C   0  0  0  0  0  0  0  0  0  0  0  0
  -31.9160   -9.5250   20.4030 F   0  0  0  0  0  0  0  0  0  0  0  0
  -34.3350  -11.1300   24.1960 F   0  0  0  0  0  0  0  0  0  0  0  0
  -34.5250  -16.3430   14.5010 C   0  0  0  0  0  0  0  0  0  0  0  0
  -34.4640  -16.4840   15.8210 N   0  0  0  0  0  0  0  0  0  0  0  0
  -34.0930  -17.2150   13.7480 O   0  0  0  0  0  0  0  0  0  0  0  0
  -34.8480  -15.7860   16.4390 H   0  0  0  0  0  0  0  0  0  0  0  0
  -34.0440  -17.3140   16.2150 H   0  0  0  0  0  0  0  0  0  0  0  0
  -36.2230  -15.9150   11.8010 N   0  0  0  0  0  0  0  0  0  0  0  0
  -35.9840  -16.9000   11.8660 H   0  0  0  0  0  0  0  0  0  0  0  0
  -36.8810  -15.7240   11.0590 H   0  0  0  0  0  0  0  0  0  0  0  0
  -28.6340  -19.0870   17.5390 C   0  0  0  0  0  2  0  0  0  0  0  0
  -28.0010  -20.3400   18.1820 C   0  0  0  0  0  2  0  0  0  0  0  0
  -26.6420  -20.1190   18.8780 C   0  0  0  0  0  2  0  0  0  0  0  0
  -25.8770  -21.4320   19.0770 C   0  0  0  0  0  2  0  0  0  0  0  0
  -24.3840  -21.2160   19.3890 C   0  0  0  0  0  2  0  0  0  0  0  0
  -23.5620  -22.5160   19.3880 C   0  0  0  0  0  2  0  0  0  0  0  0
  -24.2930  -23.1720   17.0780 C   0  0  0  0  0  0  0  0  0  0  0  0
  -24.0190  -23.4480   18.3590 N   0  0  0  0  0  0  0  0  0  0  0  0
  -24.1420  -22.0500   16.5870 O   0  0  0  0  0  0  0  0  0  0  0  0
  -24.1590  -24.4070   18.6540 H   0  0  0  0  0  0  0  0  0  0  0  0
  -24.8190  -24.3430   16.2280 C   0  0  0  0  0  2  0  0  0  0  0  0
  -24.8240  -24.0360   14.8280 O   0  0  0  0  0  0  0  0  0  0  0  0
  -20.9670  -24.4050    8.8540 C   0  0  0  0  0  0  0  0  0  0  0  0
  -23.6330  -23.7160   14.2070 C   0  0  0  0  0  0  0  0  0  0  0  0
  -19.7910  -23.5190   10.8390 C   0  0  0  0  0  3  0  0  0  0  0  0
  -21.2600  -22.9880   12.8470 C   0  0  0  0  0  0  0  0  0  0  0  0
  -22.3300  -23.2830   10.6090 C   0  0  0  0  0  2  0  0  0  0  0  0
  -22.4090  -23.3170   12.1210 C   0  0  0  0  0  0  0  0  0  0  0  0
  -23.5990  -23.6700   12.7960 C   0  0  0  0  0  3  0  0  0  0  0  0
  -22.4500  -23.4050   14.9190 C   0  0  0  0  0  3  0  0  0  0  0  0
  -21.2730  -23.0330   14.2500 C   0  0  0  0  0  3  0  0  0  0  0  0
  -20.0340  -22.5930   12.0590 C   0  0  0  0  0  2  0  0  0  0  0  0
  -21.0450  -23.7800   10.0630 N   0  0  0  0  0  0  0  0  0  0  0  0
  -19.8730  -24.7240    8.3680 O   0  0  0  0  0  0  0  0  0  0  0  0
  -19.0920  -24.8080   11.3290 C   0  0  0  0  0  0  0  0  0  0  0  0
  -17.7720  -24.7230   11.5570 N   0  0  0  0  0  0  0  0  0  0  0  0
  -19.7360  -25.8440   11.5160 O   0  0  0  0  0  0  0  0  0  0  0  0
  -17.3160  -23.8410   11.3710 H   0  0  0  0  0  0  0  0  0  0  0  0
  -14.3700  -25.5510   12.4530 C   0  0  0  0  0  0  0  0  0  0  0  0
  -16.9110  -25.7980   12.0500 C   0  0  0  0  0  3  0  0  0  0  0  0
  -17.0360  -25.9510   13.5850 C   0  0  0  0  0  2  0  0  0  0  0  0
  -15.9860  -25.1470   14.3580 C   0  0  0  0  0  2  0  0  0  0  0  0
  -14.5740  -25.5830   13.9580 C   0  0  0  0  0  2  0  0  0  0  0  0
  -15.4690  -25.6370   11.5570 C   0  0  0  0  0  0  0  0  0  0  0  0
  -15.2280  -25.5680   10.1680 C   0  0  0  0  0  3  0  0  0  0  0  0
  -13.9210  -25.4180    9.6720 C   0  0  0  0  0  3  0  0  0  0  0  0
  -12.8340  -25.3510   10.5610 C   0  0  0  0  0  3  0  0  0  0  0  0
  -13.0610  -25.4220   11.9480 C   0  0  0  0  0  3  0  0  0  0  0  0
  -22.2440  -24.7240    8.0150 C   0  0  0  0  0  3  0  0  0  0  0  0
  -22.5110  -26.2700    7.8520 C   0  0  1  0  0  0  0  0  0  0  0  0
  -21.3030  -27.0550    7.2920 C   0  0  0  0  0  1  0  0  0  0  0  0
  -22.8970  -26.9060    9.2090 C   0  0  0  0  0  1  0  0  0  0  0  0
  -23.7100  -26.4950    6.9010 C   0  0  0  0  0  1  0  0  0  0  0  0
  -22.0800  -24.0830    6.7040 N   0  0  0  0  0  0  0  0  0  0  0  0
  -22.7050  -22.9610    6.3230 C   0  0  0  0  0  0  0  0  0  0  0  0
  -23.5440  -22.3900    7.0250 O   0  0  0  0  0  0  0  0  0  0  0  0
  -21.3680  -24.4660    6.0980 H   0  0  0  0  0  0  0  0  0  0  0  0
  -21.4200  -21.1620    5.1250 C   0  0  0  0  0  1  0  0  0  0  0  0
  -22.3390  -22.3790    4.9440 C   0  0  0  0  0  3  0  0  0  0  0  0
  -24.3080  -23.1400    3.6890 C   0  0  0  0  0  1  0  0  0  0  0  0
  -23.5180  -21.9950    4.1370 N   0  0  0  0  0  0  0  0  0  0  0  0
  -23.2360  -21.4660    3.3160 H   0  0  0  0  0  0  0  0  0  0  0  0
  1  3  2  0
  2  1  1  0
  2  5  1  0
  4  2  1  0
  6  5  1  0
  7  6  1  0
  8  7  1  0
  8  9  1  0
 10  9  1  0
 11 10  1  0
 12 11  1  0
 13 12  1  0
 14 13  1  0
 15 14  1  0
 16 15  1  0
 17 16  1  0
 18 17  1  0
 19 25  1  0
 19 27  1  0
 20 25  1  0
 21 20  1  0
 21 22  1  0
 23 22  1  0
 23 24  1  0
 23 32  1  0
 25 24  1  0
 26 19  2  0
 27 18  1  0
 28 27  1  0
 29 30  2  0
 30 49  1  0
 30 31  1  0
 31 34  1  0
 32 29  1  0
 32 33  1  0
 33 31  2  0
 34 39  2  0
 34 35  1  0
 35 36  2  0
 36 37  1  0
 37 40  1  0
 38 37  2  0
 39 38  1  0
 40 41  1  0
 41 42  2  0
 41 46  1  0
 42 43  1  0
 43 44  2  0
 44 48  1  0
 45 44  1  0
 46 45  2  0
 47 46  1  0
 49 50  1  0
 50 53  1  0
 50 52  1  0
 51 49  2  0
 54 55  1  0
 54 29  1  0
 56 54  1  0
 57 58  1  0
 57  1  1  0
 58 59  1  0
 59 60  1  0
 60 61  1  0
 62 61  1  0
 63 64  1  0
 64 66  1  0
 64 62  1  0
 65 63  2  0
 67 63  1  0
 68 67  1  0
 69 79  1  0
 70 68  1  0
 70 76  1  0
 71 81  1  0
 71 78  1  0
 72 77  1  0
 73 74  1  0
 74 75  1  0
 74 72  2  0
 75 70  2  0
 77 76  2  0
 78 72  1  0
 79 73  1  0
 79 71  1  0
 80 69  2  0
 81 83  2  0
 81 82  1  0
 84 82  1  0
 85 89  1  0
 86 82  1  0
 86 87  1  0
 87 88  1  0
 89 88  1  0
 90 86  1  0
 90 85  2  0
 91 90  1  0
 92 91  2  0
 92 93  1  0
 93 94  2  0
 94 85  1  0
 95 69  1  0
 96 95  1  0
 96 98  1  1
 97 96  1  0
 99 96  1  0
100 95  1  0
101100  1  0
101102  2  0
103100  1  0
105104  1  0
105101  1  0
106107  1  0
107105  1  0
108107  1  0
M  ISO  4  19 100  27 100  67 101  68 101
M  END
>  <TORSDO>  (22) 
F 38

>  <SCORE>  (22) 
-1.980

>  <name>  (22) 
23

>  <ligand_id>  (22) 
23

>  <original_smiles>  (22) 
[H]c1c([H])c([H])c2c(c1[H])C([H])([H])C([H])([H])C([H])([H])C2([H])N([H])C(=O)C1([H])N(C(=O)C([H])(N([H])C(=O)C([H])(N([H])C([H])([H])[H])C([H])([H])[H])C(C([H])([H])[H])(C([H])([H])[H])C([H])([H])[H])C([H])([H])c2c([H])c(OC([H])([H])C(=O)N([H])C([H])([H])C([H])([H])C([H])([H])C([H])([H])C([H])([H])C([H])([H])C(=O)N([H])C([H])([H])C([H])([H])OC([H])([H])C([H])([H])OC([H])([H])C([H])([H])OC([H])([H])C([H])([H])OC([H])([H])C([H])([H])N([H])C(=O)N3C([H])([H])C([H])([H])C([H])([H])C([H])(n4nc(-c5c([H])c([H])c(Oc6c([H])c([H])c(F)c([H])c6F)c([H])c5[H])c(C(=O)N([H])[H])c4N([H])[H])C3([H])[H])c([H])c([H])c2C1([H])[H]

>  <smiles>  (22) 
[H]c1c([H])c([H])c2c(c1[H])C([H])([H])C([H])([H])C([H])([H])C2([H])N([H])C(=O)C1([H])N(C(=O)C([H])(N([H])C(=O)C([H])(N([H])C([H])([H])[H])C([H])([H])[H])C(C([H])([H])[H])(C([H])([H])[H])C([H])([H])[H])C([H])([H])c2c([H])c(OC([H])([H])C(=O)N([H])C([H])([H])C([H])([H])C([H])([H])C([H])([H])C([H])([H])C([H])([H])C(=O)N([H])C([H])([H])C([H])([H])OC([H])([H])C([H])([H])OC([H])([H])C([H])([H])OC([H])([H])C([H])([H])OC([H])([H])C([H])([H])N([H])C(=O)N3C([H])([H])C([H])([H])C([H])([H])C([H])(n4nc(-c5c([H])c([H])c(Oc6c([H])c([H])c(F)c([H])c6F)c([H])c5[H])c(C(=O)N([H])[H])c4N([H])[H])C3([H])[H])c([H])c([H])c2C1([H])[H]

$$$$
24:0:0
     RDKit          3D

 96103  0  0  1  0  0  0  0  0999 V2000
  -23.6270  -23.5610   23.8160 C   0  0  0  0  0  2  0  0  0  0  0  0
  -23.2910  -24.6590   22.9650 O   0  0  0  0  0  0  0  0  0  0  0  0
  -24.3950  -25.4510   22.5370 C   0  0  0  0  0  2  0  0  0  0  0  0
  -24.8300  -25.0720   21.1150 C   0  0  0  0  0  2  0  0  0  0  0  0
  -26.0530  -25.7260   20.8190 O   0  0  0  0  0  0  0  0  0  0  0  0
  -26.7990  -25.0740   19.7990 C   0  0  0  0  0  2  0  0  0  0  0  0
  -27.7360  -26.0700   19.0930 C   0  0  0  0  0  2  0  0  0  0  0  0
  -27.0220  -26.8020   18.0990 O   0  0  0  0  0  0  0  0  0  0  0  0
  -24.9810  -31.4750   23.0820 C   0  0  0  0  0  0  0  0  0  0  0  0
  -26.0640  -27.6510   18.5830 C   0  0  0  0  0  0  0  0  0  0  0  0
  -23.2240  -30.7090   21.5140 C   0  0  0  0  0  3  0  0  0  0  0  0
  -24.0440  -29.3880   19.4940 C   0  0  0  0  0  0  0  0  0  0  0  0
  -25.6780  -30.7590   20.8020 C   0  0  0  0  0  2  0  0  0  0  0  0
  -25.3720  -29.5880   19.8900 C   0  0  0  0  0  0  0  0  0  0  0  0
  -26.3880  -28.7200   19.4440 C   0  0  0  0  0  3  0  0  0  0  0  0
  -24.7280  -27.4560   18.1830 C   0  0  0  0  0  3  0  0  0  0  0  0
  -23.7130  -28.3190   18.6420 C   0  0  0  0  0  3  0  0  0  0  0  0
  -23.0220  -30.3740   20.0120 C   0  0  0  0  0  2  0  0  0  0  0  0
  -24.6590  -30.9790   21.8540 N   0  0  0  0  0  0  0  0  0  0  0  0
  -24.1040  -31.7550   23.9110 O   0  0  0  0  0  0  0  0  0  0  0  0
  -22.5910  -29.5850   22.3650 C   0  0  0  0  0  0  0  0  0  0  0  0
  -21.2500  -29.5200   22.3650 N   0  0  0  0  0  0  0  0  0  0  0  0
  -23.3000  -28.7800   22.9730 O   0  0  0  0  0  0  0  0  0  0  0  0
  -20.7410  -30.2250   21.8490 H   0  0  0  0  0  0  0  0  0  0  0  0
  -17.8690  -28.3520   22.8570 C   0  0  0  0  0  0  0  0  0  0  0  0
  -20.4400  -28.5240   23.0640 C   0  0  0  0  0  3  0  0  0  0  0  0
  -20.4910  -27.1610   22.3380 C   0  0  0  0  0  2  0  0  0  0  0  0
  -19.3450  -26.9590   21.3400 C   0  0  0  0  0  2  0  0  0  0  0  0
  -17.9890  -27.0740   22.0450 C   0  0  0  0  0  2  0  0  0  0  0  0
  -19.0190  -29.0410   23.3220 C   0  0  0  0  0  0  0  0  0  0  0  0
  -18.8550  -30.2430   24.0460 C   0  0  0  0  0  3  0  0  0  0  0  0
  -17.5690  -30.7490   24.3140 C   0  0  0  0  0  3  0  0  0  0  0  0
  -16.4320  -30.0570   23.8640 C   0  0  0  0  0  3  0  0  0  0  0  0
  -16.5830  -28.8630   23.1390 C   0  0  0  0  0  3  0  0  0  0  0  0
  -26.4650  -31.7380   23.4940 C   0  0  0  0  0  3  0  0  0  0  0  0
  -26.5290  -33.0770   24.0940 N   0  0  0  0  0  0  0  0  0  0  0  0
  -26.9630  -34.1760   23.4610 C   0  0  0  0  0  0  0  0  0  0  0  0
  -27.4300  -34.1520   22.3180 O   0  0  0  0  0  0  0  0  0  0  0  0
  -26.1170  -33.1800   25.0110 H   0  0  0  0  0  0  0  0  0  0  0  0
  -25.6420  -36.3000   23.7110 C   0  0  0  0  0  1  0  0  0  0  0  0
  -26.8630  -35.5150   24.2150 C   0  0  0  0  0  3  0  0  0  0  0  0
  -29.2350  -35.7870   24.7810 C   0  0  0  0  0  1  0  0  0  0  0  0
  -28.0780  -36.3490   24.0940 N   0  0  0  0  0  0  0  0  0  0  0  0
  -27.9120  -37.2800   24.4670 H   0  0  0  0  0  0  0  0  0  0  0  0
  -27.0380  -30.6530   24.4840 C   0  0  1  0  0  0  0  0  0  0  0  0
  -26.1400  -30.4030   25.7160 C   0  0  0  0  0  1  0  0  0  0  0  0
  -27.2330  -29.3040   23.7560 C   0  0  0  0  0  1  0  0  0  0  0  0
  -28.4340  -31.0890   24.9920 C   0  0  0  0  0  1  0  0  0  0  0  0
  -24.4460  -22.4720   23.0970 C   0  0  0  0  0  2  0  0  0  0  0  0
  -25.4800  -23.0590   22.3220 O   0  0  0  0  0  0  0  0  0  0  0  0
  -26.4100  -22.1240   21.7940 C   0  0  0  0  0  2  0  0  0  0  0  0
  -26.9940  -22.7070   20.4980 C   0  0  0  0  0  2  0  0  0  0  0  0
  -28.1460  -21.9860   20.0940 O   0  0  0  0  0  0  0  0  0  0  0  0
  -28.6020  -22.3830   18.8030 C   0  0  0  0  0  2  0  0  0  0  0  0
  -29.8270  -21.5350   18.4450 C   0  0  0  0  0  2  0  0  0  0  0  0
  -29.4060  -20.1820   18.3190 O   0  0  0  0  0  0  0  0  0  0  0  0
  -30.1140  -19.2700   19.1470 C   0  0  0  0  0  2  0  0  0  0  0  0
  -29.6490  -17.8660   18.7350 C   0  0  0  0  0  2  0  0  0  0  0  0
  -30.6810  -15.9390   19.9030 C   0  0  0  0  0  0  0  0  0  0  0  0
  -30.9940  -13.5110   20.1520 C   0  0  0  0  0  2  0  0  0  0  0  0
  -30.3260  -12.8060   18.9520 C   0  0  0  0  0  2  0  0  0  0  0  0
  -28.8280  -12.5540   19.2240 C   0  0  0  0  0  2  0  0  0  0  0  0
  -28.0930  -13.8120   19.7570 C   0  0  0  0  0  3  0  0  0  0  0  0
  -28.8940  -14.4700   20.9050 C   0  0  0  0  0  2  0  0  0  0  0  0
  -30.2560  -14.7540   20.4150 N   0  0  0  0  0  0  0  0  0  0  0  0
  -31.8020  -16.1150   19.4180 O   0  0  0  0  0  0  0  0  0  0  0  0
  -29.7270  -16.8730   19.8040 N   0  0  0  0  0  0  0  0  0  0  0  0
  -28.8660  -16.6720   20.2900 H   0  0  0  0  0  0  0  0  0  0  0  0
  -25.6370  -14.3520   20.3220 C   0  0  0  0  0  0  0  0  0  0  0  0
  -24.5780  -13.5510   20.6560 C   0  0  0  0  0  0  0  0  0  0  0  0
  -25.0850  -12.2170   20.6800 C   0  0  0  0  0  0  0  0  0  0  0  0
  -26.7220  -13.5020   20.1650 N   0  0  0  0  0  0  0  0  0  0  0  0
  -26.3890  -12.2140   20.4340 N   0  0  0  0  0  0  0  0  0  0  0  0
  -24.3940  -10.9340   20.8650 C   0  0  0  0  0  0  0  0  0  0  0  0
  -24.7510  -10.0450   21.9040 C   0  0  0  0  0  3  0  0  0  0  0  0
  -24.0590   -8.8270   22.0710 C   0  0  0  0  0  3  0  0  0  0  0  0
  -22.9970   -8.4870   21.2000 C   0  0  0  0  0  0  0  0  0  0  0  0
  -22.6600   -9.3660   20.1560 C   0  0  0  0  0  3  0  0  0  0  0  0
  -23.3530  -10.5750   19.9860 C   0  0  0  0  0  3  0  0  0  0  0  0
  -22.2870   -7.3130   21.2710 O   0  0  0  0  0  0  0  0  0  0  0  0
  -22.0370   -6.6940   22.4690 C   0  0  0  0  0  0  0  0  0  0  0  0
  -21.3580   -7.3480   23.5190 C   0  0  0  0  0  3  0  0  0  0  0  0
  -21.0580   -6.6520   24.7070 C   0  0  0  0  0  3  0  0  0  0  0  0
  -21.4320   -5.3020   24.8450 C   0  0  0  0  0  0  0  0  0  0  0  0
  -22.1050   -4.6450   23.7990 C   0  0  0  0  0  3  0  0  0  0  0  0
  -22.4030   -5.3410   22.6130 C   0  0  0  0  0  0  0  0  0  0  0  0
  -23.0330   -4.6970   21.6010 F   0  0  0  0  0  0  0  0  0  0  0  0
  -21.1390   -4.6300   25.9840 F   0  0  0  0  0  0  0  0  0  0  0  0
  -23.1530  -13.9870   20.8510 C   0  0  0  0  0  0  0  0  0  0  0  0
  -22.4120  -13.2930   21.7080 N   0  0  0  0  0  0  0  0  0  0  0  0
  -22.7020  -14.9770   20.2790 O   0  0  0  0  0  0  0  0  0  0  0  0
  -22.7860  -12.4950   22.1970 H   0  0  0  0  0  0  0  0  0  0  0  0
  -21.4540  -13.5650   21.8770 H   0  0  0  0  0  0  0  0  0  0  0  0
  -25.7640  -15.7250   20.1220 N   0  0  0  0  0  0  0  0  0  0  0  0
  -24.9690  -16.3540   20.1780 H   0  0  0  0  0  0  0  0  0  0  0  0
  -26.6190  -16.1880   19.8390 H   0  0  0  0  0  0  0  0  0  0  0  0
  2  1  1  0
  3  2  1  0
  4  3  1  0
  5  4  1  0
  6  5  1  0
  7  6  1  0
  8 10  1  0
  8  7  1  0
  9 20  2  0
 10 15  1  0
 11 19  1  0
 11 21  1  0
 12 14  1  0
 12 18  1  0
 13 19  1  0
 14 13  1  0
 15 14  2  0
 16 10  2  0
 16 17  1  0
 17 12  2  0
 18 11  1  0
 19  9  1  0
 21 22  1  0
 21 23  2  0
 24 22  1  0
 25 34  2  0
 25 30  1  0
 26 22  1  0
 26 30  1  0
 27 26  1  0
 28 29  1  0
 28 27  1  0
 29 25  1  0
 30 31  2  0
 31 32  1  0
 33 32  2  0
 34 33  1  0
 35  9  1  0
 35 36  1  0
 35 45  1  0
 36 39  1  0
 37 36  1  0
 37 41  1  0
 38 37  2  0
 41 40  1  0
 43 41  1  0
 43 44  1  0
 43 42  1  0
 45 48  1  1
 45 46  1  0
 47 45  1  0
 49  1  1  0
 50 49  1  0
 51 50  1  0
 52 51  1  0
 53 52  1  0
 54 53  1  0
 55 54  1  0
 56 55  1  0
 56 57  1  0
 58 57  1  0
 58 67  1  0
 59 65  1  0
 60 65  1  0
 61 62  1  0
 61 60  1  0
 63 62  1  0
 63 72  1  0
 63 64  1  0
 65 64  1  0
 66 59  2  0
 67 59  1  0
 67 68  1  0
 69 70  2  0
 70 71  1  0
 70 89  1  0
 71 74  1  0
 72 69  1  0
 72 73  1  0
 73 71  2  0
 74 75  1  0
 75 76  2  0
 77 80  1  0
 77 76  1  0
 78 77  2  0
 79 78  1  0
 79 74  2  0
 80 81  1  0
 81 86  2  0
 81 82  1  0
 82 83  2  0
 83 84  1  0
 84 88  1  0
 85 84  2  0
 86 85  1  0
 87 86  1  0
 89 90  1  0
 90 93  1  0
 90 92  1  0
 91 89  2  0
 94 95  1  0
 94 69  1  0
 96 94  1  0
M  ISO  4   7 101   8 101  59 100  67 100
M  END
>  <TORSDO>  (23) 
F 32

>  <SCORE>  (23) 
-4.596

>  <name>  (23) 
24

>  <ligand_id>  (23) 
24

>  <original_smiles>  (23) 
[H]c1c([H])c([H])c2c(c1[H])C([H])([H])C([H])([H])C([H])([H])C2([H])N([H])C(=O)C1([H])N(C(=O)C([H])(N([H])C(=O)C([H])(N([H])C([H])([H])[H])C([H])([H])[H])C(C([H])([H])[H])(C([H])([H])[H])C([H])([H])[H])C([H])([H])c2c([H])c(OC([H])([H])C([H])([H])OC([H])([H])C([H])([H])OC([H])([H])C([H])([H])OC([H])([H])C([H])([H])OC([H])([H])C([H])([H])OC([H])([H])C([H])([H])N([H])C(=O)N3C([H])([H])C([H])([H])C([H])([H])C([H])(n4nc(-c5c([H])c([H])c(Oc6c([H])c([H])c(F)c([H])c6F)c([H])c5[H])c(C(=O)N([H])[H])c4N([H])[H])C3([H])[H])c([H])c([H])c2C1([H])[H]

>  <smiles>  (23) 
[H]c1c([H])c([H])c2c(c1[H])C([H])([H])C([H])([H])C([H])([H])C2([H])N([H])C(=O)C1([H])N(C(=O)C([H])(N([H])C(=O)C([H])(N([H])C([H])([H])[H])C([H])([H])[H])C(C([H])([H])[H])(C([H])([H])[H])C([H])([H])[H])C([H])([H])c2c([H])c(OC([H])([H])C([H])([H])OC([H])([H])C([H])([H])OC([H])([H])C([H])([H])OC([H])([H])C([H])([H])OC([H])([H])C([H])([H])OC([H])([H])C([H])([H])N([H])C(=O)N3C([H])([H])C([H])([H])C([H])([H])C([H])(n4nc(-c5c([H])c([H])c(Oc6c([H])c([H])c(F)c([H])c6F)c([H])c5[H])c(C(=O)N([H])[H])c4N([H])[H])C3([H])[H])c([H])c([H])c2C1([H])[H]

$$$$
25:0:0
     RDKit          3D

110117  0  0  1  0  0  0  0  0999 V2000
  -24.2270  -25.5220   25.6970 C   0  0  0  0  0  2  0  0  0  0  0  0
  -23.1600  -24.4890   25.2890 C   0  0  0  0  0  2  0  0  0  0  0  0
  -23.7900  -23.6760   23.0180 C   0  0  0  0  0  0  0  0  0  0  0  0
  -23.6890  -23.5110   24.3420 N   0  0  0  0  0  0  0  0  0  0  0  0
  -23.3120  -24.6450   22.4260 O   0  0  0  0  0  0  0  0  0  0  0  0
  -24.0880  -22.6680   24.7350 H   0  0  0  0  0  0  0  0  0  0  0  0
  -24.5530  -22.5780   22.2650 C   0  0  0  0  0  2  0  0  0  0  0  0
  -25.4180  -23.7500   20.2470 C   0  0  0  0  0  0  0  0  0  0  0  0
  -24.6550  -22.8170   20.8260 N   0  0  0  0  0  0  0  0  0  0  0  0
  -26.1180  -24.5290   20.8980 O   0  0  0  0  0  0  0  0  0  0  0  0
  -24.0800  -22.2400   20.2290 H   0  0  0  0  0  0  0  0  0  0  0  0
  -25.3980  -23.8070   18.7130 C   0  0  0  0  0  2  0  0  0  0  0  0
  -26.6030  -24.3990   18.2320 O   0  0  0  0  0  0  0  0  0  0  0  0
  -26.7420  -24.2730   16.8220 C   0  0  0  0  0  2  0  0  0  0  0  0
  -27.9020  -25.1490   16.3320 C   0  0  0  0  0  2  0  0  0  0  0  0
  -29.1430  -24.6390   16.8060 O   0  0  0  0  0  0  0  0  0  0  0  0
  -30.2450  -25.3960   16.3210 C   0  0  0  0  0  2  0  0  0  0  0  0
  -31.5510  -24.8480   16.9160 C   0  0  0  0  0  2  0  0  0  0  0  0
  -31.9010  -22.7970   15.5440 C   0  0  0  0  0  0  0  0  0  0  0  0
  -32.3640  -20.6480   14.4260 C   0  0  0  0  0  2  0  0  0  0  0  0
  -31.0690  -19.9150   14.0330 C   0  0  0  0  0  2  0  0  0  0  0  0
  -30.5470  -19.0620   15.2040 C   0  0  0  0  0  2  0  0  0  0  0  0
  -30.4740  -19.8570   16.5330 C   0  0  0  0  0  3  0  0  0  0  0  0
  -31.7990  -20.6080   16.7930 C   0  0  0  0  0  2  0  0  0  0  0  0
  -32.0930  -21.4560   15.6230 N   0  0  0  0  0  0  0  0  0  0  0  0
  -31.9620  -23.4350   14.4900 O   0  0  0  0  0  0  0  0  0  0  0  0
  -31.6900  -23.4090   16.7140 N   0  0  0  0  0  0  0  0  0  0  0  0
  -31.6440  -22.8210   17.5320 H   0  0  0  0  0  0  0  0  0  0  0  0
  -29.0550  -19.0900   18.5410 C   0  0  0  0  0  0  0  0  0  0  0  0
  -29.1390  -17.9900   19.3510 C   0  0  0  0  0  0  0  0  0  0  0  0
  -30.2740  -17.2500   18.8980 C   0  0  0  0  0  0  0  0  0  0  0  0
  -30.1170  -18.9900   17.6540 N   0  0  0  0  0  0  0  0  0  0  0  0
  -30.8810  -17.8980   17.9120 N   0  0  0  0  0  0  0  0  0  0  0  0
  -30.7870  -15.9370   19.3080 C   0  0  0  0  0  0  0  0  0  0  0  0
  -32.1420  -15.7490   19.6580 C   0  0  0  0  0  3  0  0  0  0  0  0
  -32.6060  -14.4800   20.0660 C   0  0  0  0  0  3  0  0  0  0  0  0
  -31.7120  -13.3840   20.1310 C   0  0  0  0  0  0  0  0  0  0  0  0
  -30.3690  -13.5720   19.7610 C   0  0  0  0  0  3  0  0  0  0  0  0
  -29.9100  -14.8340   19.3490 C   0  0  0  0  0  3  0  0  0  0  0  0
  -32.0790  -12.1110   20.4920 O   0  0  0  0  0  0  0  0  0  0  0  0
  -33.1630  -11.8750   21.2990 C   0  0  0  0  0  0  0  0  0  0  0  0
  -33.2850  -12.4680   22.5750 C   0  0  0  0  0  3  0  0  0  0  0  0
  -34.3800  -12.1430   23.3990 C   0  0  0  0  0  3  0  0  0  0  0  0
  -35.3490  -11.2220   22.9570 C   0  0  0  0  0  0  0  0  0  0  0  0
  -35.2250  -10.6260   21.6900 C   0  0  0  0  0  3  0  0  0  0  0  0
  -34.1340  -10.9490   20.8650 C   0  0  0  0  0  0  0  0  0  0  0  0
  -34.0090  -10.3560   19.6530 F   0  0  0  0  0  0  0  0  0  0  0  0
  -36.3960  -10.9040   23.7530 F   0  0  0  0  0  0  0  0  0  0  0  0
  -28.1660  -17.5920   20.4240 C   0  0  0  0  0  0  0  0  0  0  0  0
  -28.6410  -16.9100   21.4600 N   0  0  0  0  0  0  0  0  0  0  0  0
  -26.9840  -17.9300   20.3730 O   0  0  0  0  0  0  0  0  0  0  0  0
  -29.6160  -16.6500   21.5120 H   0  0  0  0  0  0  0  0  0  0  0  0
  -28.0220  -16.6420   22.2120 H   0  0  0  0  0  0  0  0  0  0  0  0
  -28.1610  -20.1550   18.4720 N   0  0  0  0  0  0  0  0  0  0  0  0
  -27.3500  -20.2210   19.0750 H   0  0  0  0  0  0  0  0  0  0  0  0
  -28.2180  -20.9040   17.7940 H   0  0  0  0  0  0  0  0  0  0  0  0
  -25.3840  -24.9200   26.5190 C   0  0  0  0  0  2  0  0  0  0  0  0
  -26.4860  -25.9400   26.8420 C   0  0  0  0  0  2  0  0  0  0  0  0
  -27.7630  -25.2730   27.3700 C   0  0  0  0  0  2  0  0  0  0  0  0
  -28.3000  -24.4640   26.3280 O   0  0  0  0  0  0  0  0  0  0  0  0
  -29.6030  -24.8470   25.9100 C   0  0  0  0  0  2  0  0  0  0  0  0
  -30.0180  -24.0260   24.6800 C   0  0  0  0  0  2  0  0  0  0  0  0
  -29.5200  -25.4240   22.6880 C   0  0  0  0  0  0  0  0  0  0  0  0
  -29.2440  -24.3980   23.5000 N   0  0  0  0  0  0  0  0  0  0  0  0
  -30.4930  -26.1620   22.8620 O   0  0  0  0  0  0  0  0  0  0  0  0
  -28.4450  -23.8050   23.2830 H   0  0  0  0  0  0  0  0  0  0  0  0
  -28.5480  -25.5540   21.6180 C   0  0  0  0  0  3  0  0  0  0  0  0
  -28.7780  -26.3760   20.5760 C   0  0  0  0  0  3  0  0  0  0  0  0
  -27.8190  -26.5850   19.4230 C   0  0  0  0  0  2  0  0  0  0  0  0
  -27.5540  -27.9800   19.2510 O   0  0  0  0  0  0  0  0  0  0  0  0
  -23.5380  -32.9660   22.3130 C   0  0  0  0  0  0  0  0  0  0  0  0
  -26.2730  -28.4530   19.4360 C   0  0  0  0  0  0  0  0  0  0  0  0
  -22.3040  -31.0920   21.2700 C   0  0  0  0  0  3  0  0  0  0  0  0
  -23.6860  -29.5400   19.8000 C   0  0  0  0  0  0  0  0  0  0  0  0
  -24.6060  -31.7890   20.3960 C   0  0  0  0  0  2  0  0  0  0  0  0
  -24.8170  -30.3470   19.9850 C   0  0  0  0  0  0  0  0  0  0  0  0
  -26.1090  -29.8080   19.7940 C   0  0  0  0  0  3  0  0  0  0  0  0
  -25.1200  -27.6560   19.2400 C   0  0  0  0  0  3  0  0  0  0  0  0
  -23.8330  -28.1920   19.4290 C   0  0  0  0  0  3  0  0  0  0  0  0
  -22.3390  -30.1900   20.0090 C   0  0  0  0  0  2  0  0  0  0  0  0
  -23.5090  -31.9780   21.3740 N   0  0  0  0  0  0  0  0  0  0  0  0
  -22.5650  -33.1770   23.0530 O   0  0  0  0  0  0  0  0  0  0  0  0
  -22.0910  -30.1980   22.5120 C   0  0  0  0  0  0  0  0  0  0  0  0
  -20.8270  -29.8240   22.7680 N   0  0  0  0  0  0  0  0  0  0  0  0
  -23.0450  -29.8340   23.2030 O   0  0  0  0  0  0  0  0  0  0  0  0
  -20.1000  -30.1720   22.1600 H   0  0  0  0  0  0  0  0  0  0  0  0
  -17.9190  -28.3690   24.3410 C   0  0  0  0  0  0  0  0  0  0  0  0
  -20.3900  -28.9560   23.8600 C   0  0  0  0  0  3  0  0  0  0  0  0
  -20.5650  -27.4650   23.4920 C   0  0  0  0  0  2  0  0  0  0  0  0
  -19.3090  -26.8440   22.8730 C   0  0  0  0  0  2  0  0  0  0  0  0
  -18.1280  -26.9480   23.8440 C   0  0  0  0  0  2  0  0  0  0  0  0
  -18.9760  -29.3160   24.3320 C   0  0  0  0  0  0  0  0  0  0  0  0
  -18.7210  -30.6330   24.7700 C   0  0  0  0  0  3  0  0  0  0  0  0
  -17.4390  -31.0080   25.2130 C   0  0  0  0  0  3  0  0  0  0  0  0
  -16.4000  -30.0610   25.2380 C   0  0  0  0  0  3  0  0  0  0  0  0
  -16.6400  -28.7460   24.8050 C   0  0  0  0  0  3  0  0  0  0  0  0
  -24.7790  -33.8960   22.4850 C   0  0  0  0  0  3  0  0  0  0  0  0
  -25.6890  -33.5010   23.7120 C   0  0  1  0  0  0  0  0  0  0  0  0
  -24.9080  -33.3490   25.0380 C   0  0  0  0  0  1  0  0  0  0  0  0
  -26.4250  -32.1690   23.4380 C   0  0  0  0  0  1  0  0  0  0  0  0
  -26.7790  -34.5780   23.9230 C   0  0  0  0  0  1  0  0  0  0  0  0
  -24.2860  -35.2710   22.6260 N   0  0  0  0  0  0  0  0  0  0  0  0
  -24.2260  -36.1650   21.6300 C   0  0  0  0  0  0  0  0  0  0  0  0
  -24.6510  -35.9330   20.4950 O   0  0  0  0  0  0  0  0  0  0  0  0
  -23.8700  -35.5110   23.5140 H   0  0  0  0  0  0  0  0  0  0  0  0
  -22.1300  -37.5460   21.4570 C   0  0  0  0  0  1  0  0  0  0  0  0
  -23.5890  -37.5310   21.9430 C   0  0  0  0  0  3  0  0  0  0  0  0
  -25.6380  -38.8840   21.9440 C   0  0  0  0  0  1  0  0  0  0  0  0
  -24.3220  -38.6730   21.3500 N   0  0  0  0  0  0  0  0  0  0  0  0
  -23.7880  -39.5310   21.4490 H   0  0  0  0  0  0  0  0  0  0  0  0
  1 57  1  0
  2  1  1  0
  3  4  1  0
  4  6  1  0
  4  2  1  0
  5  3  2  0
  7  3  1  0
  8  9  1  0
  8 10  2  0
  9  7  1  0
 11  9  1  0
 12  8  1  0
 13 12  1  0
 14 13  1  0
 15 16  1  0
 15 14  1  0
 17 16  1  0
 17 18  1  0
 19 25  1  0
 19 27  1  0
 20 25  1  0
 21 20  1  0
 21 22  1  0
 23 22  1  0
 23 24  1  0
 23 32  1  0
 25 24  1  0
 26 19  2  0
 27 18  1  0
 27 28  1  0
 29 30  2  0
 30 49  1  0
 31 34  1  0
 31 30  1  0
 32 33  1  0
 32 29  1  0
 33 31  2  0
 34 39  2  0
 34 35  1  0
 35 36  2  0
 36 37  1  0
 37 40  1  0
 38 37  2  0
 39 38  1  0
 40 41  1  0
 41 42  1  0
 42 43  2  0
 44 43  1  0
 44 48  1  0
 45 44  2  0
 46 41  2  0
 46 45  1  0
 47 46  1  0
 49 50  1  0
 50 52  1  0
 50 53  1  0
 51 49  2  0
 54 29  1  0
 54 55  1  0
 56 54  1  0
 57 58  1  0
 58 59  1  0
 60 59  1  0
 61 60  1  0
 62 61  1  0
 63 65  2  0
 63 64  1  0
 64 62  1  0
 66 64  1  0
 67 63  1  0
 68 67  2  0
 69 68  1  0
 70 69  1  0
 70 72  1  0
 71 82  2  0
 72 77  1  0
 73 81  1  0
 73 83  1  0
 74 76  1  0
 74 80  1  0
 75 81  1  0
 76 75  1  0
 77 76  2  0
 78 79  1  0
 78 72  2  0
 79 74  2  0
 80 73  1  0
 81 71  1  0
 83 84  1  0
 83 85  2  0
 86 84  1  0
 87 96  1  0
 88 84  1  0
 88 92  1  0
 89 88  1  0
 90 89  1  0
 90 91  1  0
 91 87  1  0
 92 87  2  0
 92 93  1  0
 93 94  2  0
 94 95  1  0
 96 95  2  0
 97 71  1  0
 97102  1  0
 97 98  1  0
 98101  1  1
 98 99  1  0
100 98  1  0
102105  1  0
103107  1  0
103102  1  0
104103  2  0
107106  1  0
109110  1  0
109107  1  0
109108  1  0
M  ISO  4  19 100  27 100  69 101  70 101
M  END
>  <TORSDO>  (24) 
F 36

>  <SCORE>  (24) 
28.838

>  <name>  (24) 
25

>  <ligand_id>  (24) 
25

>  <original_smiles>  (24) 
[H]C(C(=O)N([H])C([H])([H])C([H])([H])OC([H])([H])C([H])([H])C([H])([H])C([H])([H])C([H])([H])N([H])C(=O)C([H])([H])N([H])C(=O)C([H])([H])OC([H])([H])C([H])([H])OC([H])([H])C([H])([H])N([H])C(=O)N1C([H])([H])C([H])([H])C([H])([H])C([H])(n2nc(-c3c([H])c([H])c(Oc4c([H])c([H])c(F)c([H])c4F)c([H])c3[H])c(C(=O)N([H])[H])c2N([H])[H])C1([H])[H])=C([H])C([H])([H])Oc1c([H])c([H])c2c(c1[H])C([H])([H])N(C(=O)C([H])(N([H])C(=O)C([H])(N([H])C([H])([H])[H])C([H])([H])[H])C(C([H])([H])[H])(C([H])([H])[H])C([H])([H])[H])C([H])(C(=O)N([H])C1([H])c3c([H])c([H])c([H])c([H])c3C([H])([H])C([H])([H])C1([H])[H])C2([H])[H]

>  <smiles>  (24) 
[H]C(C(=O)N([H])C([H])([H])C([H])([H])OC([H])([H])C([H])([H])C([H])([H])C([H])([H])C([H])([H])N([H])C(=O)C([H])([H])N([H])C(=O)C([H])([H])OC([H])([H])C([H])([H])OC([H])([H])C([H])([H])N([H])C(=O)N1C([H])([H])C([H])([H])C([H])([H])C([H])(n2nc(-c3c([H])c([H])c(Oc4c([H])c([H])c(F)c([H])c4F)c([H])c3[H])c(C(=O)N([H])[H])c2N([H])[H])C1([H])[H])=C([H])C([H])([H])Oc1c([H])c([H])c2c(c1[H])C([H])([H])N(C(=O)C([H])(N([H])C(=O)C([H])(N([H])C([H])([H])[H])C([H])([H])[H])C(C([H])([H])[H])(C([H])([H])[H])C([H])([H])[H])C([H])(C(=O)N([H])C1([H])c3c([H])c([H])c([H])c([H])c3C([H])([H])C([H])([H])C1([H])[H])C2([H])[H]

$$$$
26:0:0
     RDKit          3D

104111  0  0  1  0  0  0  0  0999 V2000
  -26.4480  -18.6870   16.6160 C   0  0  0  0  0  2  0  0  0  0  0  0
  -26.5960  -20.1370   16.8570 N   0  0  0  0  0  4  0  0  0  0  0  0
  -25.9890  -20.6710   16.2540 H   0  0  0  0  0  0  0  0  0  0  0  0
  -26.2950  -20.3250   17.8020 H   0  0  0  0  0  0  0  0  0  0  0  0
  -27.9610  -20.6760   16.7000 C   0  0  0  0  0  2  0  0  0  0  0  0
  -27.9380  -22.1940   16.8620 C   0  0  0  0  0  0  0  0  0  0  0  0
  -29.0860  -22.8060   17.1770 N   0  0  0  0  0  0  0  0  0  0  0  0
  -26.8810  -22.8090   16.6980 O   0  0  0  0  0  0  0  0  0  0  0  0
  -29.9160  -22.2340   17.2790 H   0  0  0  0  0  0  0  0  0  0  0  0
  -29.2500  -24.2520   17.3150 C   0  0  0  0  0  2  0  0  0  0  0  0
  -28.7730  -24.7730   18.6840 C   0  0  0  0  0  2  0  0  0  0  0  0
  -28.8520  -26.3050   18.7660 C   0  0  0  0  0  2  0  0  0  0  0  0
  -28.4340  -26.7870   20.0420 O   0  0  0  0  0  0  0  0  0  0  0  0
  -24.6100  -31.8710   23.2130 C   0  0  0  0  0  0  0  0  0  0  0  0
  -27.2440  -27.4750   20.0720 C   0  0  0  0  0  0  0  0  0  0  0  0
  -23.3960  -30.4930   21.5530 C   0  0  0  0  0  3  0  0  0  0  0  0
  -24.8440  -28.9590   20.1180 C   0  0  0  0  0  0  0  0  0  0  0  0
  -25.9210  -30.8410   21.3650 C   0  0  0  0  0  2  0  0  0  0  0  0
  -25.9980  -29.4750   20.7200 C   0  0  0  0  0  0  0  0  0  0  0  0
  -27.1960  -28.7300   20.7120 C   0  0  0  0  0  3  0  0  0  0  0  0
  -26.0700  -26.9570   19.4820 C   0  0  0  0  0  3  0  0  0  0  0  0
  -24.8700  -27.6940   19.5050 C   0  0  0  0  0  3  0  0  0  0  0  0
  -23.6030  -29.8220   20.1680 C   0  0  0  0  0  2  0  0  0  0  0  0
  -24.6600  -31.0820   22.1020 N   0  0  0  0  0  0  0  0  0  0  0  0
  -23.5300  -32.1450   23.7550 O   0  0  0  0  0  0  0  0  0  0  0  0
  -22.7380  -29.4660   22.5020 C   0  0  0  0  0  0  0  0  0  0  0  0
  -21.4120  -29.3020   22.3750 N   0  0  0  0  0  0  0  0  0  0  0  0
  -23.4170  -28.8210   23.3050 O   0  0  0  0  0  0  0  0  0  0  0  0
  -20.9270  -29.8740   21.6980 H   0  0  0  0  0  0  0  0  0  0  0  0
  -18.0260  -28.1370   22.8500 C   0  0  0  0  0  0  0  0  0  0  0  0
  -20.5850  -28.3650   23.1340 C   0  0  0  0  0  3  0  0  0  0  0  0
  -20.6750  -26.9390   22.5420 C   0  0  0  0  0  2  0  0  0  0  0  0
  -19.5730  -26.6380   21.5210 C   0  0  0  0  0  2  0  0  0  0  0  0
  -18.1910  -26.7920   22.1630 C   0  0  0  0  0  2  0  0  0  0  0  0
  -19.1510  -28.8830   23.2910 C   0  0  0  0  0  0  0  0  0  0  0  0
  -18.9440  -30.1430   23.8920 C   0  0  0  0  0  3  0  0  0  0  0  0
  -17.6450  -30.6580   24.0560 C   0  0  0  0  0  3  0  0  0  0  0  0
  -16.5340  -29.9080   23.6320 C   0  0  0  0  0  3  0  0  0  0  0  0
  -16.7250  -28.6500   23.0350 C   0  0  0  0  0  3  0  0  0  0  0  0
  -25.9010  -32.4830   23.8410 C   0  0  0  0  0  3  0  0  0  0  0  0
  -25.5880  -33.8640   24.2340 N   0  0  0  0  0  0  0  0  0  0  0  0
  -25.9030  -34.9490   23.5140 C   0  0  0  0  0  0  0  0  0  0  0  0
  -26.5590  -34.8930   22.4700 O   0  0  0  0  0  0  0  0  0  0  0  0
  -25.0040  -33.9800   25.0490 H   0  0  0  0  0  0  0  0  0  0  0  0
  -24.1490  -36.7320   23.2640 C   0  0  0  0  0  1  0  0  0  0  0  0
  -25.4100  -36.3120   24.0340 C   0  0  0  0  0  3  0  0  0  0  0  0
  -27.5590  -37.1810   24.8460 C   0  0  0  0  0  1  0  0  0  0  0  0
  -26.4290  -37.3800   23.9410 N   0  0  0  0  0  0  0  0  0  0  0  0
  -26.0190  -38.2880   24.1430 H   0  0  0  0  0  0  0  0  0  0  0  0
  -26.4460  -31.6600   25.0720 C   0  0  1  0  0  0  0  0  0  0  0  0
  -25.3740  -31.3690   26.1480 C   0  0  0  0  0  1  0  0  0  0  0  0
  -27.0280  -30.3050   24.6070 C   0  0  0  0  0  1  0  0  0  0  0  0
  -27.6050  -32.4310   25.7470 C   0  0  0  0  0  1  0  0  0  0  0  0
  -25.1000  -18.2010   17.1530 C   0  0  0  0  0  2  0  0  0  0  0  0
  -25.0470  -18.6110   18.5130 O   0  0  0  0  0  0  0  0  0  0  0  0
  -23.9410  -18.0740   19.2220 C   0  0  0  0  0  2  0  0  0  0  0  0
  -24.0550  -18.5690   20.6680 C   0  0  0  0  0  2  0  0  0  0  0  0
  -23.1850  -17.7760   21.6540 C   0  0  0  0  0  2  0  0  0  0  0  0
  -23.2870  -18.3020   23.0960 C   0  0  0  0  0  2  0  0  0  0  0  0
  -23.3510  -17.1780   24.1500 C   0  0  0  0  0  2  0  0  0  0  0  0
  -24.5700  -16.4280   24.1120 O   0  0  0  0  0  0  0  0  0  0  0  0
  -25.7370  -17.1880   24.4130 C   0  0  0  0  0  2  0  0  0  0  0  0
  -26.8060  -16.3220   25.1000 C   0  0  0  0  0  2  0  0  0  0  0  0
  -27.5300  -15.2890   24.2130 C   0  0  0  0  0  2  0  0  0  0  0  0
  -28.3910  -15.8920   23.0790 C   0  0  0  0  0  2  0  0  0  0  0  0
  -29.7630  -15.2020   22.8890 C   0  0  0  0  0  2  0  0  0  0  0  0
  -30.7450  -14.3950   20.7010 C   0  0  0  0  0  0  0  0  0  0  0  0
  -30.4150  -12.3040   19.4260 C   0  0  0  0  0  2  0  0  0  0  0  0
  -29.4960  -12.5300   18.2060 C   0  0  0  0  0  2  0  0  0  0  0  0
  -28.0160  -12.3650   18.5980 C   0  0  0  0  0  2  0  0  0  0  0  0
  -27.6580  -13.1920   19.8560 C   0  0  0  0  0  3  0  0  0  0  0  0
  -28.6750  -12.9280   20.9770 C   0  0  0  0  0  2  0  0  0  0  0  0
  -30.0270  -13.2540   20.4850 N   0  0  0  0  0  0  0  0  0  0  0  0
  -31.7720  -14.6590   20.0700 O   0  0  0  0  0  0  0  0  0  0  0  0
  -30.2380  -15.3410   21.5110 N   0  0  0  0  0  0  0  0  0  0  0  0
  -30.6850  -16.2330   21.3480 H   0  0  0  0  0  0  0  0  0  0  0  0
  -25.2650  -13.8090   20.5630 C   0  0  0  0  0  0  0  0  0  0  0  0
  -24.1840  -13.0420   20.9120 C   0  0  0  0  0  0  0  0  0  0  0  0
  -24.6360  -11.6870   20.8650 C   0  0  0  0  0  0  0  0  0  0  0  0
  -26.2990  -12.9210   20.3160 N   0  0  0  0  0  0  0  0  0  0  0  0
  -25.9250  -11.6380   20.5560 N   0  0  0  0  0  0  0  0  0  0  0  0
  -23.8990  -10.4280   21.0360 C   0  0  0  0  0  0  0  0  0  0  0  0
  -24.3560   -9.4200   21.9140 C   0  0  0  0  0  3  0  0  0  0  0  0
  -23.6240   -8.2240   22.0730 C   0  0  0  0  0  3  0  0  0  0  0  0
  -22.4220   -8.0280   21.3530 C   0  0  0  0  0  0  0  0  0  0  0  0
  -21.9830   -9.0250   20.4630 C   0  0  0  0  0  3  0  0  0  0  0  0
  -22.7150  -10.2140   20.3020 C   0  0  0  0  0  3  0  0  0  0  0  0
  -21.6600   -6.8860   21.4230 O   0  0  0  0  0  0  0  0  0  0  0  0
  -21.6840   -6.0720   22.5270 C   0  0  0  0  0  0  0  0  0  0  0  0
  -21.4010   -6.5630   23.8210 C   0  0  0  0  0  3  0  0  0  0  0  0
  -21.3650   -5.6790   24.9180 C   0  0  0  0  0  3  0  0  0  0  0  0
  -21.6040   -4.3050   24.7260 C   0  0  0  0  0  0  0  0  0  0  0  0
  -21.8800   -3.8140   23.4380 C   0  0  0  0  0  3  0  0  0  0  0  0
  -21.9170   -4.6950   22.3430 C   0  0  0  0  0  0  0  0  0  0  0  0
  -22.1660   -4.2110   21.1010 F   0  0  0  0  0  0  0  0  0  0  0  0
  -21.5610   -3.4540   25.7770 F   0  0  0  0  0  0  0  0  0  0  0  0
  -22.7890  -13.5260   21.1820 C   0  0  0  0  0  0  0  0  0  0  0  0
  -22.0550  -12.8220   22.0370 N   0  0  0  0  0  0  0  0  0  0  0  0
  -22.3500  -14.5490   20.6630 O   0  0  0  0  0  0  0  0  0  0  0  0
  -22.4200  -11.9830   22.4620 H   0  0  0  0  0  0  0  0  0  0  0  0
  -21.1150  -13.1190   22.2570 H   0  0  0  0  0  0  0  0  0  0  0  0
  -25.4580  -15.1760   20.4190 N   0  0  0  0  0  0  0  0  0  0  0  0
  -24.7380  -15.8520   20.6360 H   0  0  0  0  0  0  0  0  0  0  0  0
  -26.3460  -15.5990   20.1870 H   0  0  0  0  0  0  0  0  0  0  0  0
  1  2  1  0
  1 54  1  0
  2  4  1  0
  3  2  1  0
  5  2  1  0
  5  6  1  0
  6  7  1  0
  7  9  1  0
  7 10  1  0
  8  6  2  0
 10 11  1  0
 11 12  1  0
 12 13  1  0
 13 15  1  0
 14 25  2  0
 15 20  1  0
 16 24  1  0
 16 26  1  0
 17 23  1  0
 17 19  1  0
 18 24  1  0
 19 18  1  0
 20 19  2  0
 21 22  1  0
 21 15  2  0
 22 17  2  0
 23 16  1  0
 24 14  1  0
 26 28  2  0
 27 26  1  0
 29 27  1  0
 30 39  2  0
 30 35  1  0
 31 27  1  0
 31 35  1  0
 32 31  1  0
 33 34  1  0
 33 32  1  0
 34 30  1  0
 35 36  2  0
 36 37  1  0
 38 37  2  0
 39 38  1  0
 40 14  1  0
 40 41  1  0
 40 50  1  0
 41 44  1  0
 42 46  1  0
 42 41  1  0
 43 42  2  0
 46 45  1  0
 48 46  1  0
 48 49  1  0
 48 47  1  0
 50 53  1  1
 50 51  1  0
 52 50  1  0
 54 55  1  0
 55 56  1  0
 56 57  1  0
 57 58  1  0
 58 59  1  0
 59 60  1  0
 61 60  1  0
 61 62  1  0
 62 63  1  0
 64 63  1  0
 65 64  1  0
 66 65  1  0
 67 75  1  0
 68 73  1  0
 69 70  1  0
 69 68  1  0
 71 70  1  0
 71 80  1  0
 71 72  1  0
 73 67  1  0
 73 72  1  0
 74 67  2  0
 75 66  1  0
 76 75  1  0
 77 78  2  0
 78 97  1  0
 79 78  1  0
 79 82  1  0
 80 81  1  0
 80 77  1  0
 81 79  2  0
 82 83  1  0
 83 84  2  0
 85 88  1  0
 85 84  1  0
 86 85  2  0
 87 86  1  0
 87 82  2  0
 88 89  1  0
 89 90  1  0
 90 91  2  0
 92 91  1  0
 92 96  1  0
 93 92  2  0
 94 89  2  0
 94 93  1  0
 95 94  1  0
 97 98  1  0
 98101  1  0
 98100  1  0
 99 97  2  0
102 77  1  0
102103  1  0
104102  1  0
M  ISO  4  12 101  13 101  67 100  75 100
M  END
>  <TORSDO>  (25) 
F 35

>  <SCORE>  (25) 
45.943

>  <name>  (25) 
26

>  <ligand_id>  (25) 
26

>  <original_smiles>  (25) 
[H]c1c([H])c([H])c2c(c1[H])C([H])([H])C([H])([H])C([H])([H])C2([H])N([H])C(=O)C1([H])N(C(=O)C([H])(N([H])C(=O)C([H])(N([H])C([H])([H])[H])C([H])([H])[H])C(C([H])([H])[H])(C([H])([H])[H])C([H])([H])[H])C([H])([H])c2c([H])c(OC([H])([H])C([H])([H])C([H])([H])N([H])C(=O)C([H])([H])[N+]([H])([H])C([H])([H])C([H])([H])OC([H])([H])C([H])([H])C([H])([H])C([H])([H])C([H])([H])OC([H])([H])C([H])([H])C([H])([H])C([H])([H])C([H])([H])N([H])C(=O)N3C([H])([H])C([H])([H])C([H])([H])C([H])(n4nc(-c5c([H])c([H])c(Oc6c([H])c([H])c(F)c([H])c6F)c([H])c5[H])c(C(=O)N([H])[H])c4N([H])[H])C3([H])[H])c([H])c([H])c2C1([H])[H]

>  <smiles>  (25) 
[H]c1c([H])c([H])c2c(c1[H])C([H])([H])C([H])([H])C([H])([H])C2([H])N([H])C(=O)C1([H])N(C(=O)C([H])(N([H])C(=O)C([H])(N([H])C([H])([H])[H])C([H])([H])[H])C(C([H])([H])[H])(C([H])([H])[H])C([H])([H])[H])C([H])([H])c2c([H])c(OC([H])([H])C([H])([H])C([H])([H])N([H])C(=O)C([H])([H])[N+]([H])([H])C([H])([H])C([H])([H])OC([H])([H])C([H])([H])C([H])([H])C([H])([H])C([H])([H])OC([H])([H])C([H])([H])C([H])([H])C([H])([H])C([H])([H])N([H])C(=O)N3C([H])([H])C([H])([H])C([H])([H])C([H])(n4nc(-c5c([H])c([H])c(Oc6c([H])c([H])c(F)c([H])c6F)c([H])c5[H])c(C(=O)N([H])[H])c4N([H])[H])C3([H])[H])c([H])c([H])c2C1([H])[H]

$$$$
27:0:0
     RDKit          3D

106113  0  0  1  0  0  0  0  0999 V2000
  -25.1850  -22.7490   28.1470 C   0  0  0  0  0  0  0  0  0  0  0  0
  -25.2370  -23.9810   28.6610 N   0  0  0  0  0  0  0  0  0  0  0  0
  -24.7210  -22.5170   27.0290 O   0  0  0  0  0  0  0  0  0  0  0  0
  -25.6760  -24.0990   29.5630 H   0  0  0  0  0  0  0  0  0  0  0  0
  -24.8200  -25.2000   27.9730 C   0  0  0  0  0  2  0  0  0  0  0  0
  -26.0090  -25.9530   27.3610 C   0  0  0  0  0  0  0  0  0  0  0  0
  -25.7400  -26.7550   26.3240 N   0  0  0  0  0  0  0  0  0  0  0  0
  -27.1400  -25.8460   27.8420 O   0  0  0  0  0  0  0  0  0  0  0  0
  -24.7770  -26.7990   26.0160 H   0  0  0  0  0  0  0  0  0  0  0  0
  -26.6640  -27.7160   25.7220 C   0  0  0  0  0  2  0  0  0  0  0  0
  -27.8730  -27.0910   24.9960 C   0  0  0  0  0  2  0  0  0  0  0  0
  -27.5120  -26.2900   23.7360 C   0  0  0  0  0  2  0  0  0  0  0  0
  -28.7070  -26.0050   23.0130 O   0  0  0  0  0  0  0  0  0  0  0  0
  -28.4810  -25.2130   21.8490 C   0  0  0  0  0  2  0  0  0  0  0  0
  -29.3310  -25.7320   20.6650 C   0  0  0  0  0  2  0  0  0  0  0  0
  -29.2510  -27.1500   20.4780 O   0  0  0  0  0  0  0  0  0  0  0  0
  -24.8300  -31.9340   23.2560 C   0  0  0  0  0  0  0  0  0  0  0  0
  -28.0070  -27.7270   20.3770 C   0  0  0  0  0  0  0  0  0  0  0  0
  -23.8250  -30.3800   21.6180 C   0  0  0  0  0  3  0  0  0  0  0  0
  -25.4720  -28.9650   20.2800 C   0  0  0  0  0  0  0  0  0  0  0  0
  -26.3070  -30.9900   21.4880 C   0  0  0  0  0  2  0  0  0  0  0  0
  -26.5490  -29.6230   20.8860 C   0  0  0  0  0  0  0  0  0  0  0  0
  -27.8190  -29.0110   20.9300 C   0  0  0  0  0  3  0  0  0  0  0  0
  -26.9140  -27.0830   19.7510 C   0  0  0  0  0  3  0  0  0  0  0  0
  -25.6470  -27.6910   19.7130 C   0  0  0  0  0  3  0  0  0  0  0  0
  -24.1440  -29.6890   20.2660 C   0  0  0  0  0  2  0  0  0  0  0  0
  -25.0020  -31.1180   22.1810 N   0  0  0  0  0  0  0  0  0  0  0  0
  -23.7090  -32.1110   23.7510 O   0  0  0  0  0  0  0  0  0  0  0  0
  -23.2500  -29.3180   22.5810 C   0  0  0  0  0  0  0  0  0  0  0  0
  -21.9870  -28.9250   22.3460 N   0  0  0  0  0  0  0  0  0  0  0  0
  -23.9390  -28.8490   23.4900 O   0  0  0  0  0  0  0  0  0  0  0  0
  -21.4920  -29.3640   21.5830 H   0  0  0  0  0  0  0  0  0  0  0  0
  -18.8120  -27.2170   22.5870 C   0  0  0  0  0  0  0  0  0  0  0  0
  -21.2490  -27.9120   23.0980 C   0  0  0  0  0  3  0  0  0  0  0  0
  -21.6420  -26.4850   22.6530 C   0  0  0  0  0  2  0  0  0  0  0  0
  -20.7290  -25.9210   21.5600 C   0  0  0  0  0  2  0  0  0  0  0  0
  -19.2760  -25.8750   22.0440 C   0  0  0  0  0  2  0  0  0  0  0  0
  -19.7400  -28.1800   23.0670 C   0  0  0  0  0  0  0  0  0  0  0  0
  -19.2590  -29.4250   23.5260 C   0  0  0  0  0  3  0  0  0  0  0  0
  -17.8820  -29.7120   23.5190 C   0  0  0  0  0  3  0  0  0  0  0  0
  -16.9660  -28.7520   23.0550 C   0  0  0  0  0  3  0  0  0  0  0  0
  -17.4320  -27.5070   22.5940 C   0  0  0  0  0  3  0  0  0  0  0  0
  -26.0270  -32.7040   23.9020 C   0  0  0  0  0  3  0  0  0  0  0  0
  -26.5880  -32.0040   25.2010 C   0  0  1  0  0  0  0  0  0  0  0  0
  -25.4890  -31.5870   26.2070 C   0  0  0  0  0  1  0  0  0  0  0  0
  -27.3870  -30.7340   24.8290 C   0  0  0  0  0  1  0  0  0  0  0  0
  -27.5730  -32.9460   25.9300 C   0  0  0  0  0  1  0  0  0  0  0  0
  -25.5600  -34.0650   24.2020 N   0  0  0  0  0  0  0  0  0  0  0  0
  -25.8020  -35.1360   23.4330 C   0  0  0  0  0  0  0  0  0  0  0  0
  -26.5110  -35.0900   22.4250 O   0  0  0  0  0  0  0  0  0  0  0  0
  -24.9180  -34.1650   24.9720 H   0  0  0  0  0  0  0  0  0  0  0  0
  -23.8990  -36.7280   23.0020 C   0  0  0  0  0  1  0  0  0  0  0  0
  -25.1520  -36.4710   23.8490 C   0  0  0  0  0  3  0  0  0  0  0  0
  -27.1570  -37.5910   24.7160 C   0  0  0  0  0  1  0  0  0  0  0  0
  -26.0660  -37.6270   23.7460 N   0  0  0  0  0  0  0  0  0  0  0  0
  -25.5590  -38.4990   23.8730 H   0  0  0  0  0  0  0  0  0  0  0  0
  -25.6990  -21.6120   29.0410 C   0  0  0  0  0  2  0  0  0  0  0  0
  -27.3640  -20.6670   27.4540 C   0  0  0  0  0  0  0  0  0  0  0  0
  -26.3190  -20.5290   28.2760 N   0  0  0  0  0  0  0  0  0  0  0  0
  -27.9350  -21.7480   27.2900 O   0  0  0  0  0  0  0  0  0  0  0  0
  -25.8770  -19.6220   28.3320 H   0  0  0  0  0  0  0  0  0  0  0  0
  -27.8400  -19.4160   26.7040 C   0  0  0  0  0  2  0  0  0  0  0  0
  -28.6460  -19.8130   25.5980 O   0  0  0  0  0  0  0  0  0  0  0  0
  -29.3220  -18.7210   24.9930 C   0  0  0  0  0  2  0  0  0  0  0  0
  -30.1740  -19.2390   23.8280 C   0  0  0  0  0  2  0  0  0  0  0  0
  -30.7140  -18.0990   22.9510 C   0  0  0  0  0  2  0  0  0  0  0  0
  -31.3940  -18.6170   21.6750 C   0  0  0  0  0  2  0  0  0  0  0  0
  -32.1420  -17.5260   20.8960 C   0  0  0  0  0  2  0  0  0  0  0  0
  -31.5940  -15.3550   19.8030 C   0  0  0  0  0  0  0  0  0  0  0  0
  -31.5370  -12.9020   19.6380 C   0  0  0  0  0  2  0  0  0  0  0  0
  -30.7010  -12.3550   18.4740 C   0  0  0  0  0  2  0  0  0  0  0  0
  -29.2290  -12.2110   18.8890 C   0  0  0  0  0  2  0  0  0  0  0  0
  -28.6690  -13.5080   19.5250 C   0  0  0  0  0  3  0  0  0  0  0  0
  -29.6100  -14.0430   20.6290 C   0  0  0  0  0  2  0  0  0  0  0  0
  -30.9710  -14.1840   20.0780 N   0  0  0  0  0  0  0  0  0  0  0  0
  -32.4980  -15.4670   18.9700 O   0  0  0  0  0  0  0  0  0  0  0  0
  -31.3270  -16.3270   20.6850 N   0  0  0  0  0  0  0  0  0  0  0  0
  -30.6230  -16.1190   21.3770 H   0  0  0  0  0  0  0  0  0  0  0  0
  -26.3000  -14.2310   20.2380 C   0  0  0  0  0  0  0  0  0  0  0  0
  -25.2050  -13.5110   20.6350 C   0  0  0  0  0  0  0  0  0  0  0  0
  -25.6100  -12.1410   20.6300 C   0  0  0  0  0  0  0  0  0  0  0  0
  -27.3080  -13.3040   20.0220 N   0  0  0  0  0  0  0  0  0  0  0  0
  -26.8950  -12.0420   20.3120 N   0  0  0  0  0  0  0  0  0  0  0  0
  -24.8350  -10.9150   20.8580 C   0  0  0  0  0  0  0  0  0  0  0  0
  -25.1080  -10.0610   21.9510 C   0  0  0  0  0  3  0  0  0  0  0  0
  -24.3380   -8.8960   22.1580 C   0  0  0  0  0  3  0  0  0  0  0  0
  -23.2820   -8.5760   21.2720 C   0  0  0  0  0  0  0  0  0  0  0  0
  -23.0290   -9.4170   20.1740 C   0  0  0  0  0  3  0  0  0  0  0  0
  -23.8000  -10.5730   19.9660 C   0  0  0  0  0  3  0  0  0  0  0  0
  -22.4980   -7.4530   21.3810 O   0  0  0  0  0  0  0  0  0  0  0  0
  -22.0680   -6.9900   22.6000 C   0  0  0  0  0  0  0  0  0  0  0  0
  -21.3200   -7.8010   23.4810 C   0  0  0  0  0  3  0  0  0  0  0  0
  -20.8370   -7.2650   24.6910 C   0  0  0  0  0  3  0  0  0  0  0  0
  -21.0920   -5.9190   25.0180 C   0  0  0  0  0  0  0  0  0  0  0  0
  -21.8300   -5.1080   24.1370 C   0  0  0  0  0  3  0  0  0  0  0  0
  -22.3140   -5.6430   22.9300 C   0  0  0  0  0  0  0  0  0  0  0  0
  -23.0070   -4.8510   22.0760 F   0  0  0  0  0  0  0  0  0  0  0  0
  -20.6210   -5.4020   26.1770 F   0  0  0  0  0  0  0  0  0  0  0  0
  -23.8300  -14.0490   20.9100 C   0  0  0  0  0  0  0  0  0  0  0  0
  -23.1010  -13.4280   21.8320 N   0  0  0  0  0  0  0  0  0  0  0  0
  -23.4140  -15.0600   20.3460 O   0  0  0  0  0  0  0  0  0  0  0  0
  -23.4520  -12.6120   22.3110 H   0  0  0  0  0  0  0  0  0  0  0  0
  -22.1810  -13.7730   22.0640 H   0  0  0  0  0  0  0  0  0  0  0  0
  -26.5190  -15.5890   20.0250 N   0  0  0  0  0  0  0  0  0  0  0  0
  -25.7850  -16.2830   20.1280 H   0  0  0  0  0  0  0  0  0  0  0  0
  -27.3930  -15.9810   19.6990 H   0  0  0  0  0  0  0  0  0  0  0  0
  1  2  1  0
  1 57  1  0
  2  4  1  0
  3  1  2  0
  5  2  1  0
  6  8  2  0
  6  5  1  0
  7  6  1  0
  9  7  1  0
 10  7  1  0
 11 10  1  0
 12 11  1  0
 13 12  1  0
 14 13  1  0
 15 14  1  0
 16 15  1  0
 17 28  2  0
 18 16  1  0
 18 23  1  0
 19 27  1  0
 19 29  1  0
 20 22  1  0
 21 27  1  0
 22 23  2  0
 22 21  1  0
 24 18  2  0
 25 24  1  0
 25 20  2  0
 26 20  1  0
 26 19  1  0
 27 17  1  0
 29 31  2  0
 30 29  1  0
 32 30  1  0
 33 42  2  0
 33 38  1  0
 34 30  1  0
 35 34  1  0
 36 37  1  0
 36 35  1  0
 37 33  1  0
 38 34  1  0
 38 39  2  0
 40 39  1  0
 41 40  2  0
 42 41  1  0
 43 17  1  0
 43 48  1  0
 43 44  1  0
 44 47  1  1
 44 45  1  0
 46 44  1  0
 48 51  1  0
 49 53  1  0
 49 48  1  0
 50 49  2  0
 53 52  1  0
 55 53  1  0
 55 56  1  0
 55 54  1  0
 58 59  1  0
 59 61  1  0
 59 57  1  0
 60 58  2  0
 62 58  1  0
 63 62  1  0
 64 63  1  0
 65 64  1  0
 66 65  1  0
 67 66  1  0
 68 67  1  0
 69 75  1  0
 69 77  1  0
 70 75  1  0
 71 72  1  0
 71 70  1  0
 73 72  1  0
 73 82  1  0
 73 74  1  0
 75 74  1  0
 76 69  2  0
 77 68  1  0
 77 78  1  0
 79 80  2  0
 80 99  1  0
 81 80  1  0
 81 84  1  0
 82 79  1  0
 82 83  1  0
 83 81  2  0
 84 85  1  0
 85 86  2  0
 87 90  1  0
 87 86  1  0
 88 87  2  0
 89 88  1  0
 89 84  2  0
 90 91  1  0
 91 96  2  0
 91 92  1  0
 92 93  2  0
 93 94  1  0
 94 98  1  0
 95 94  2  0
 96 95  1  0
 97 96  1  0
 99100  1  0
100103  1  0
100102  1  0
101 99  2  0
104105  1  0
104 79  1  0
106104  1  0
M  ISO  4  15 101  16 101  69 100  77 100
M  END
>  <TORSDO>  (26) 
F 33

>  <SCORE>  (26) 
13.365

>  <name>  (26) 
27

>  <ligand_id>  (26) 
27

>  <original_smiles>  (26) 
[H]c1c([H])c([H])c2c(c1[H])C([H])([H])C([H])([H])C([H])([H])C2([H])N([H])C(=O)C1([H])N(C(=O)C([H])(N([H])C(=O)C([H])(N([H])C([H])([H])[H])C([H])([H])[H])C(C([H])([H])[H])(C([H])([H])[H])C([H])([H])[H])C([H])([H])c2c([H])c(OC([H])([H])C([H])([H])OC([H])([H])C([H])([H])C([H])([H])N([H])C(=O)C([H])([H])N([H])C(=O)C([H])([H])N([H])C(=O)C([H])([H])OC([H])([H])C([H])([H])C([H])([H])C([H])([H])C([H])([H])N([H])C(=O)N3C([H])([H])C([H])([H])C([H])([H])C([H])(n4nc(-c5c([H])c([H])c(Oc6c([H])c([H])c(F)c([H])c6F)c([H])c5[H])c(C(=O)N([H])[H])c4N([H])[H])C3([H])[H])c([H])c([H])c2C1([H])[H]

>  <smiles>  (26) 
[H]c1c([H])c([H])c2c(c1[H])C([H])([H])C([H])([H])C([H])([H])C2([H])N([H])C(=O)C1([H])N(C(=O)C([H])(N([H])C(=O)C([H])(N([H])C([H])([H])[H])C([H])([H])[H])C(C([H])([H])[H])(C([H])([H])[H])C([H])([H])[H])C([H])([H])c2c([H])c(OC([H])([H])C([H])([H])OC([H])([H])C([H])([H])C([H])([H])N([H])C(=O)C([H])([H])N([H])C(=O)C([H])([H])N([H])C(=O)C([H])([H])OC([H])([H])C([H])([H])C([H])([H])C([H])([H])C([H])([H])N([H])C(=O)N3C([H])([H])C([H])([H])C([H])([H])C([H])(n4nc(-c5c([H])c([H])c(Oc6c([H])c([H])c(F)c([H])c6F)c([H])c5[H])c(C(=O)N([H])[H])c4N([H])[H])C3([H])[H])c([H])c([H])c2C1([H])[H]

$$$$
28:0:0
     RDKit          3D

101106  0  0  1  0  0  0  0  0999 V2000
  -30.0800  -23.3860   24.0830 C   0  0  0  0  0  0  0  0  0  0  0  0
  -30.5520  -24.1500   23.0940 N   0  0  0  0  0  0  0  0  0  0  0  0
  -30.7040  -22.4410   24.5660 O   0  0  0  0  0  0  0  0  0  0  0  0
  -29.9140  -24.8600   22.7560 H   0  0  0  0  0  0  0  0  0  0  0  0
  -28.6870  -23.7640   24.5880 C   0  0  0  0  0  2  0  0  0  0  0  0
  -28.0600  -24.5840   23.6080 O   0  0  0  0  0  0  0  0  0  0  0  0
  -26.6860  -24.8260   23.8760 C   0  0  0  0  0  2  0  0  0  0  0  0
  -25.9760  -25.0600   22.5370 C   0  0  0  0  0  2  0  0  0  0  0  0
  -26.1420  -23.8800   21.5650 C   0  0  0  0  0  2  0  0  0  0  0  0
  -27.2310  -24.1570   20.6960 O   0  0  0  0  0  0  0  0  0  0  0  0
  -27.7280  -23.0030   20.0370 C   0  0  0  0  0  1  0  0  0  0  0  0
  -28.9730  -23.3850   19.2170 C   0  0  0  0  0 15  0  0  0  0  0  0
  -30.0570  -22.4770   19.4240 O   0  0  0  0  0  0  0  0  0  0  0  0
  -29.8520  -21.2040   18.8320 C   0  0  0  0  0  2  0  0  0  0  0  0
  -31.1080  -20.3270   18.9930 C   0  0  0  0  0  2  0  0  0  0  0  0
  -32.0930  -18.5860   17.5200 C   0  0  0  0  0  0  0  0  0  0  0  0
  -33.0860  -17.6950   15.4450 C   0  0  0  0  0  2  0  0  0  0  0  0
  -33.8280  -18.8260   14.7010 C   0  0  0  0  0  2  0  0  0  0  0  0
  -32.8680  -19.6500   13.8190 C   0  0  0  0  0  2  0  0  0  0  0  0
  -31.5870  -20.0860   14.5760 C   0  0  0  0  0  3  0  0  0  0  0  0
  -30.9630  -18.8670   15.2910 C   0  0  0  0  0  2  0  0  0  0  0  0
  -31.9770  -18.2900   16.2030 N   0  0  0  0  0  0  0  0  0  0  0  0
  -33.0750  -18.3040   18.2150 O   0  0  0  0  0  0  0  0  0  0  0  0
  -31.0530  -19.2670   17.9970 N   0  0  0  0  0  0  0  0  0  0  0  0
  -30.2640  -19.3010   17.3730 H   0  0  0  0  0  0  0  0  0  0  0  0
  -30.2500  -22.0660   13.6020 C   0  0  0  0  0  0  0  0  0  0  0  0
  -29.3740  -22.1500   12.5520 C   0  0  0  0  0  0  0  0  0  0  0  0
  -29.2760  -20.8300   12.0180 C   0  0  0  0  0  0  0  0  0  0  0  0
  -30.6310  -20.7350   13.6780 N   0  0  0  0  0  0  0  0  0  0  0  0
  -30.0010  -19.9850   12.7380 N   0  0  0  0  0  0  0  0  0  0  0  0
  -28.5760  -20.3320   10.8250 C   0  0  0  0  0  0  0  0  0  0  0  0
  -27.6140  -19.3020   10.9140 C   0  0  0  0  0  3  0  0  0  0  0  0
  -26.9430  -18.8480    9.7580 C   0  0  0  0  0  3  0  0  0  0  0  0
  -27.2310  -19.4280    8.4980 C   0  0  0  0  0  0  0  0  0  0  0  0
  -28.2060  -20.4390    8.4130 C   0  0  0  0  0  3  0  0  0  0  0  0
  -28.8760  -20.8850    9.5650 C   0  0  0  0  0  3  0  0  0  0  0  0
  -26.6470  -19.0390    7.3170 O   0  0  0  0  0  0  0  0  0  0  0  0
  -25.3540  -18.5840    7.2690 C   0  0  0  0  0  0  0  0  0  0  0  0
  -24.2790  -19.3380    7.7870 C   0  0  0  0  0  3  0  0  0  0  0  0
  -22.9570  -18.8660    7.6560 C   0  0  0  0  0  3  0  0  0  0  0  0
  -22.7090  -17.6440    6.9990 C   0  0  0  0  0  0  0  0  0  0  0  0
  -23.7770  -16.8960    6.4760 C   0  0  0  0  0  3  0  0  0  0  0  0
  -25.0960  -17.3660    6.6110 C   0  0  0  0  0  0  0  0  0  0  0  0
  -26.1200  -16.6490    6.0880 F   0  0  0  0  0  0  0  0  0  0  0  0
  -21.4400  -17.1930    6.8640 F   0  0  0  0  0  0  0  0  0  0  0  0
  -28.7360  -23.3990   12.0130 C   0  0  0  0  0  0  0  0  0  0  0  0
  -27.5390  -23.2840   11.4510 N   0  0  0  0  0  0  0  0  0  0  0  0
  -29.2780  -24.4980   12.1310 O   0  0  0  0  0  0  0  0  0  0  0  0
  -27.0810  -22.3880   11.3730 H   0  0  0  0  0  0  0  0  0  0  0  0
  -27.0690  -24.1050   11.0930 H   0  0  0  0  0  0  0  0  0  0  0  0
  -30.7660  -23.0130   14.4830 N   0  0  0  0  0  0  0  0  0  0  0  0
  -30.5700  -24.0020   14.3760 H   0  0  0  0  0  0  0  0  0  0  0  0
  -31.5070  -22.8220   15.1450 H   0  0  0  0  0  0  0  0  0  0  0  0
  -31.7780  -23.9290   22.3370 C   0  0  0  0  0  2  0  0  0  0  0  0
  -31.4400  -23.2630   20.9970 C   0  0  0  0  0  0  0  0  0  0  0  0
  -30.5310  -23.8250   20.1860 N   0  0  0  0  0  2  0  0  0  0  0  0
  -31.9910  -22.2090   20.6850 O   0  0  0  0  0  0  0  0  0  0  0  0
  -30.3400  -23.3380   19.3210 H   0  0  0  0  0  0  0  0  0  0  0  0
  -29.7750  -25.0580   20.4160 C   0  0  0  0  0  2  0  0  0  0  0  0
  -30.6540  -26.3250   20.3200 C   0  0  0  0  0  2  0  0  0  0  0  0
  -30.3160  -27.2720   21.3350 O   0  0  0  0  0  0  0  0  0  0  0  0
  -26.0360  -31.9940   24.4920 C   0  0  0  0  0  0  0  0  0  0  0  0
  -29.1780  -28.0410   21.2100 C   0  0  0  0  0  0  0  0  0  0  0  0
  -25.2260  -31.0890   22.3400 C   0  0  0  0  0  3  0  0  0  0  0  0
  -26.9160  -29.7280   21.0060 C   0  0  0  0  0  0  0  0  0  0  0  0
  -27.7330  -31.2130   22.8450 C   0  0  0  0  0  2  0  0  0  0  0  0
  -27.9080  -30.0010   21.9520 C   0  0  0  0  0  0  0  0  0  0  0  0
  -29.0380  -29.1610   22.0550 C   0  0  0  0  0  3  0  0  0  0  0  0
  -28.1570  -27.7700   20.2670 C   0  0  0  0  0  3  0  0  0  0  0  0
  -27.0300  -28.6060   20.1660 C   0  0  0  0  0  3  0  0  0  0  0  0
  -25.7520  -30.6870   20.9350 C   0  0  0  0  0  2  0  0  0  0  0  0
  -26.3360  -31.4320   23.2870 N   0  0  0  0  0  0  0  0  0  0  0  0
  -24.8680  -32.2620   24.8010 O   0  0  0  0  0  0  0  0  0  0  0  0
  -24.3010  -29.9650   22.8580 C   0  0  0  0  0  0  0  0  0  0  0  0
  -22.9890  -30.1200   22.6310 N   0  0  0  0  0  0  0  0  0  0  0  0
  -24.7680  -28.9750   23.4260 O   0  0  0  0  0  0  0  0  0  0  0  0
  -22.6860  -30.9670   22.1690 H   0  0  0  0  0  0  0  0  0  0  0  0
  -19.4080  -29.7040   22.8880 C   0  0  0  0  0  0  0  0  0  0  0  0
  -21.9360  -29.1750   22.9990 C   0  0  0  0  0  3  0  0  0  0  0  0
  -21.6690  -28.1660   21.8590 C   0  0  0  0  0  2  0  0  0  0  0  0
  -20.5460  -28.6040   20.9140 C   0  0  0  0  0  2  0  0  0  0  0  0
  -19.2360  -28.7900   21.6860 C   0  0  0  0  0  2  0  0  0  0  0  0
  -20.6780  -29.8960   23.4950 C   0  0  0  0  0  0  0  0  0  0  0  0
  -20.7880  -30.7840   24.5870 C   0  0  0  0  0  3  0  0  0  0  0  0
  -19.6600  -31.4700   25.0760 C   0  0  0  0  0  3  0  0  0  0  0  0
  -18.4030  -31.2650   24.4810 C   0  0  0  0  0  3  0  0  0  0  0  0
  -18.2780  -30.3810   23.3940 C   0  0  0  0  0  3  0  0  0  0  0  0
  -27.1480  -32.3490   25.5280 C   0  0  0  0  0  3  0  0  0  0  0  0
  -27.1940  -31.3560   26.7540 C   0  0  1  0  0  0  0  0  0  0  0  0
  -25.8020  -31.0300   27.3450 C   0  0  0  0  0  1  0  0  0  0  0  0
  -27.8620  -30.0220   26.3500 C   0  0  0  0  0  1  0  0  0  0  0  0
  -28.0610  -31.9630   27.8830 C   0  0  0  0  0  1  0  0  0  0  0  0
  -26.9070  -33.7250   25.9810 N   0  0  0  0  0  0  0  0  0  0  0  0
  -27.5400  -34.8050   25.5060 C   0  0  0  0  0  0  0  0  0  0  0  0
  -28.4520  -34.7340   24.6770 O   0  0  0  0  0  0  0  0  0  0  0  0
  -26.1370  -33.8620   26.6200 H   0  0  0  0  0  0  0  0  0  0  0  0
  -26.1890  -36.8610   24.9890 C   0  0  0  0  0  1  0  0  0  0  0  0
  -27.0890  -36.1820   26.0320 C   0  0  0  0  0  3  0  0  0  0  0  0
  -28.9850  -36.6160   27.5280 C   0  0  0  0  0  1  0  0  0  0  0  0
  -28.2160  -37.0750   26.3760 N   0  0  0  0  0  0  0  0  0  0  0  0
  -27.8830  -38.0160   26.5720 H   0  0  0  0  0  0  0  0  0  0  0  0
  1  3  2  0
  1  5  1  0
  2  1  1  0
  4  2  1  0
  6  7  1  0
  6  5  1  0
  8  7  1  0
  9  8  1  0
 10  9  1  0
 11 10  1  0
 14 15  1  0
 14 13  1  0
 16 24  1  0
 16 23  2  0
 17 22  1  0
 18 17  1  0
 19 20  1  0
 19 18  1  0
 20 29  1  0
 20 21  1  0
 21 22  1  0
 22 16  1  0
 24 15  1  0
 25 24  1  0
 26 29  1  0
 26 51  1  0
 27 26  2  0
 28 27  1  0
 28 30  2  0
 30 29  1  0
 31 32  1  0
 31 28  1  0
 33 32  2  0
 34 33  1  0
 35 34  2  0
 35 36  1  0
 36 31  2  0
 37 34  1  0
 38 37  1  0
 38 39  1  0
 40 39  2  0
 41 40  1  0
 42 43  1  0
 42 41  2  0
 43 38  2  0
 44 43  1  0
 45 41  1  0
 46 48  2  0
 46 27  1  0
 47 46  1  0
 49 47  1  0
 50 47  1  0
 51 53  1  0
 52 51  1  0
 54  2  1  0
 55 54  1  0
 56 59  1  0
 56 55  1  0
 57 55  2  0
 58 13  1  0
 60 59  1  0
 60 61  1  0
 62 73  2  0
 63 61  1  0
 63 68  1  0
 64 74  1  0
 64 72  1  0
 65 67  1  0
 66 72  1  0
 67 68  2  0
 67 66  1  0
 69 63  2  0
 70 69  1  0
 70 65  2  0
 71 65  1  0
 71 64  1  0
 72 62  1  0
 74 76  2  0
 75 74  1  0
 77 75  1  0
 78 87  2  0
 78 83  1  0
 79 75  1  0
 79 83  1  0
 80 79  1  0
 81 82  1  0
 81 80  1  0
 82 78  1  0
 83 84  2  0
 84 85  1  0
 86 85  2  0
 87 86  1  0
 88 62  1  0
 88 93  1  0
 88 89  1  0
 89 90  1  1
 89 92  1  0
 91 89  1  0
 93 96  1  0
 94 93  1  0
 94 98  1  0
 95 94  2  0
 98 97  1  0
 98100  1  0
100101  1  0
100 99  1  0
M  ISO  4  16 100  24 100  60 101  61 101
M  END
>  <TORSDO>  (27) 
F 31

>  <SCORE>  (27) 
8.062

>  <name>  (27) 
28

>  <ligand_id>  (27) 
28

>  <original_smiles>  (27) 
[H]c1c([H])c([H])c2c(c1[H])C([H])([H])C([H])([H])C([H])([H])C2([H])N([H])C(=O)C1([H])N(C(=O)C([H])(N([H])C(=O)C([H])(N([H])C([H])([H])[H])C([H])([H])[H])C(C([H])([H])[H])(C([H])([H])[H])C([H])([H])[H])C([H])([H])c2c([H])c(OC([H])([H])C([H])([H])N([H])C(=O)C([H])([H])N([H])C(=O)C([H])([H])OC([H])([H])C([H])([H])C([H])([H])OC([H])([H])C([H])([H])OC([H])([H])C([H])([H])N([H])C(=O)N3C([H])([H])C([H])([H])C([H])([H])C([H])(n4nc(-c5c([H])c([H])c(Oc6c([H])c([H])c(F)c([H])c6F)c([H])c5[H])c(C(=O)N([H])[H])c4N([H])[H])C3([H])[H])c([H])c([H])c2C1([H])[H]

>  <smiles>  (27) 
[H]c1c([H])c([H])c2c(c1[H])C([H])([H])C([H])([H])C([H])([H])C2([H])N([H])C(=O)C1([H])N(C(=O)C([H])(N([H])C(=O)C([H])(N([H])C([H])([H])[H])C([H])([H])[H])C(C([H])([H])[H])(C([H])([H])[H])C([H])([H])[H])C([H])([H])c2c([H])c(OC([H])([H])C([H])([H])N([H])C(=O)C([H])([H])N([H])C(=O)C([H])([H])OC([H])([H])C([H])([H])C([H])([H])OC([H])([H])C([H])([H])OC([H])([H])C([H])([H])N([H])C(=O)N3C([H])([H])C([H])([H])C([H])([H])C([H])(n4nc(-c5c([H])c([H])c(Oc6c([H])c([H])c(F)c([H])c6F)c([H])c5[H])c(C(=O)N([H])[H])c4N([H])[H])C3([H])[H])c([H])c([H])c2C1([H])[H]

$$$$
29:0:0
     RDKit          3D

104111  0  0  1  0  0  0  0  0999 V2000
  -27.9770  -15.9710   17.9030 C   0  0  0  0  0  3  0  0  0  0  0  0
  -27.4670  -14.5870   18.4170 C   0  0  0  0  0  2  0  0  0  0  0  0
  -28.2670  -13.3520   17.9040 C   0  0  0  0  0  2  0  0  0  0  0  0
  -27.6210  -11.9660   18.2450 C   0  0  0  0  0  2  0  0  0  0  0  0
  -28.4020   -9.6330   18.8210 C   0  0  0  0  0  0  0  0  0  0  0  0
  -28.6190  -10.8820   18.3510 N   0  0  0  0  0  0  0  0  0  0  0  0
  -27.2670   -9.1560   18.9040 O   0  0  0  0  0  0  0  0  0  0  0  0
  -29.5850  -11.1540   18.2250 H   0  0  0  0  0  0  0  0  0  0  0  0
  -29.6310   -8.8080   19.3040 C   0  0  0  0  0  2  0  0  0  0  0  0
  -29.4650   -8.3600   20.6700 O   0  0  0  0  0  0  0  0  0  0  0  0
  -30.5450   -7.5920   21.2430 C   0  0  0  0  0  2  0  0  0  0  0  0
  -30.8060   -7.8790   22.7630 C   0  0  0  0  0  2  0  0  0  0  0  0
  -32.1510   -8.3340   23.0070 O   0  0  0  0  0  0  0  0  0  0  0  0
  -32.4650   -8.9290   24.2780 C   0  0  0  0  0  2  0  0  0  0  0  0
  -33.9170   -9.5230   24.3120 C   0  0  0  0  0  2  0  0  0  0  0  0
  -34.1200  -11.3680   22.5820 C   0  0  0  0  0  0  0  0  0  0  0  0
  -33.2130   -9.8810   20.9780 C   0  0  0  0  0  2  0  0  0  0  0  0
  -32.4240  -10.2060   19.7310 C   0  0  0  0  0  2  0  0  0  0  0  0
  -31.0100  -10.6180   20.0980 C   0  0  0  0  0  2  0  0  0  0  0  0
  -30.8970  -11.7750   21.0750 C   0  0  0  0  0  3  0  0  0  0  0  0
  -31.6760  -11.4250   22.3400 C   0  0  0  0  0  2  0  0  0  0  0  0
  -33.0210  -10.9300   21.9870 N   0  0  0  0  0  0  0  0  0  0  0  0
  -35.1100  -11.8040   21.9790 O   0  0  0  0  0  0  0  0  0  0  0  0
  -34.1570  -10.9330   23.8630 N   0  0  0  0  0  0  0  0  0  0  0  0
  -34.9070  -11.3600   24.3890 H   0  0  0  0  0  0  0  0  0  0  0  0
  -28.8600  -13.2910   21.4300 C   0  0  0  0  0  0  0  0  0  0  0  0
  -27.5190  -13.0350   21.5710 C   0  0  0  0  0  0  0  0  0  0  0  0
  -27.3810  -11.6140   21.5180 C   0  0  0  0  0  0  0  0  0  0  0  0
  -29.4810  -12.0590   21.3320 N   0  0  0  0  0  0  0  0  0  0  0  0
  -28.5780  -11.0430   21.4240 N   0  0  0  0  0  0  0  0  0  0  0  0
  -26.1700  -10.7710   21.5060 C   0  0  0  0  0  0  0  0  0  0  0  0
  -26.1110   -9.5480   22.2100 C   0  0  0  0  0  3  0  0  0  0  0  0
  -24.9360   -8.7670   22.1970 C   0  0  0  0  0  3  0  0  0  0  0  0
  -23.8010   -9.2100   21.4780 C   0  0  0  0  0  0  0  0  0  0  0  0
  -23.8680  -10.4140   20.7610 C   0  0  0  0  0  3  0  0  0  0  0  0
  -25.0400  -11.1890   20.7690 C   0  0  0  0  0  3  0  0  0  0  0  0
  -22.6190   -8.5220   21.3910 O   0  0  0  0  0  0  0  0  0  0  0  0
  -22.2540   -7.5930   22.3320 C   0  0  0  0  0  0  0  0  0  0  0  0
  -22.1780   -7.9090   23.7050 C   0  0  0  0  0  3  0  0  0  0  0  0
  -21.7340   -6.9390   24.6270 C   0  0  0  0  0  3  0  0  0  0  0  0
  -21.3610   -5.6560   24.1760 C   0  0  0  0  0  0  0  0  0  0  0  0
  -21.4330   -5.3420   22.8080 C   0  0  0  0  0  3  0  0  0  0  0  0
  -21.8700   -6.3130   21.8890 C   0  0  0  0  0  0  0  0  0  0  0  0
  -21.9130   -6.0100   20.5700 F   0  0  0  0  0  0  0  0  0  0  0  0
  -20.9370   -4.7220   25.0610 F   0  0  0  0  0  0  0  0  0  0  0  0
  -26.4230  -14.0540   21.6600 C   0  0  0  0  0  0  0  0  0  0  0  0
  -25.2740  -13.6680   22.2140 N   0  0  0  0  0  0  0  0  0  0  0  0
  -26.5960  -15.2140   21.2870 O   0  0  0  0  0  0  0  0  0  0  0  0
  -25.1360  -12.7240   22.5310 H   0  0  0  0  0  0  0  0  0  0  0  0
  -24.5170  -14.3270   22.3310 H   0  0  0  0  0  0  0  0  0  0  0  0
  -29.6040  -14.4600   21.3650 N   0  0  0  0  0  0  0  0  0  0  0  0
  -29.1980  -15.3890   21.3880 H   0  0  0  0  0  0  0  0  0  0  0  0
  -30.6000  -14.4670   21.1970 H   0  0  0  0  0  0  0  0  0  0  0  0
  -27.4060  -17.2410   18.6250 C   0  0  0  0  0  3  0  0  0  0  0  0
  -28.2240  -18.5490   18.4060 C   0  0  0  0  0  0  0  0  0  0  0  0
  -28.1890  -19.5280   19.3450 N   0  0  0  0  0  0  0  0  0  0  0  0
  -28.9290  -18.6550   17.4010 O   0  0  0  0  0  0  0  0  0  0  0  0
  -27.5660  -19.3920   20.1340 H   0  0  0  0  0  0  0  0  0  0  0  0
  -29.2220  -20.5810   19.5180 C   0  0  0  0  0  2  0  0  0  0  0  0
  -28.8900  -22.0500   19.0990 C   0  0  0  0  0  2  0  0  0  0  0  0
  -28.6200  -23.0510   20.2580 C   0  0  0  0  0  2  0  0  0  0  0  0
  -28.9400  -24.5620   19.9860 C   0  0  0  0  0  2  0  0  0  0  0  0
  -27.9710  -25.4660   20.7710 C   0  0  0  0  0  2  0  0  0  0  0  0
  -28.1320  -26.9120   20.7780 O   0  0  0  0  0  0  0  0  0  0  0  0
  -27.8870  -31.9380   25.9040 C   0  0  0  0  0  0  0  0  0  0  0  0
  -27.3970  -27.5510   21.7760 C   0  0  0  0  0  0  0  0  0  0  0  0
  -26.1370  -30.2040   25.9710 C   0  0  0  0  0  3  0  0  0  0  0  0
  -25.9380  -28.7530   23.8950 C   0  0  0  0  0  0  0  0  0  0  0  0
  -27.2180  -30.8810   23.7440 C   0  0  0  0  0  2  0  0  0  0  0  0
  -26.9520  -29.4730   23.2490 C   0  0  0  0  0  0  0  0  0  0  0  0
  -27.6830  -28.8820   22.1860 C   0  0  0  0  0  3  0  0  0  0  0  0
  -26.3470  -26.8700   22.4460 C   0  0  0  0  0  3  0  0  0  0  0  0
  -25.6370  -27.4500   23.4990 C   0  0  0  0  0  3  0  0  0  0  0  0
  -25.1950  -29.4250   25.0230 C   0  0  0  0  0  2  0  0  0  0  0  0
  -27.1350  -31.0320   25.2210 N   0  0  0  0  0  0  0  0  0  0  0  0
  -27.7360  -32.1120   27.1230 O   0  0  0  0  0  0  0  0  0  0  0  0
  -26.7870  -29.2070   26.9600 C   0  0  0  0  0  0  0  0  0  0  0  0
  -26.1990  -29.0860   28.1620 N   0  0  0  0  0  0  0  0  0  0  0  0
  -27.7750  -28.5460   26.6320 O   0  0  0  0  0  0  0  0  0  0  0  0
  -25.3940  -29.6660   28.3550 H   0  0  0  0  0  0  0  0  0  0  0  0
  -25.7520  -28.3380   31.6690 C   0  0  0  0  0  0  0  0  0  0  0  0
  -26.6190  -28.1900   29.2390 C   0  0  0  0  0  3  0  0  0  0  0  0
  -25.8720  -26.8380   29.1620 C   0  0  0  0  0  2  0  0  0  0  0  0
  -24.6030  -26.8010   30.0190 C   0  0  0  0  0  2  0  0  0  0  0  0
  -24.9380  -27.0670   31.4890 C   0  0  0  0  0  2  0  0  0  0  0  0
  -26.5280  -28.8730   30.6080 C   0  0  0  0  0  0  0  0  0  0  0  0
  -27.2390  -30.0750   30.8170 C   0  0  0  0  0  3  0  0  0  0  0  0
  -27.1840  -30.7380   32.0580 C   0  0  0  0  0  3  0  0  0  0  0  0
  -26.4270  -30.1950   33.1100 C   0  0  0  0  0  3  0  0  0  0  0  0
  -25.7160  -28.9970   32.9170 C   0  0  0  0  0  3  0  0  0  0  0  0
  -28.9550  -32.8180   25.1850 C   0  0  0  0  0  3  0  0  0  0  0  0
  -30.4370  -32.3720   25.4950 C   0  0  1  0  0  0  0  0  0  0  0  0
  -30.7320  -32.2060   27.0040 C   0  0  0  0  0  1  0  0  0  0  0  0
  -30.7630  -31.0300   24.7990 C   0  0  0  0  0  1  0  0  0  0  0  0
  -31.4270  -33.4180   24.9270 C   0  0  0  0  0  1  0  0  0  0  0  0
  -28.7320  -34.2080   25.6000 N   0  0  0  0  0  0  0  0  0  0  0  0
  -28.3090  -35.1850   24.7900 C   0  0  0  0  0  0  0  0  0  0  0  0
  -28.1350  -35.0240   23.5780 O   0  0  0  0  0  0  0  0  0  0  0  0
  -28.8010  -34.4010   26.5900 H   0  0  0  0  0  0  0  0  0  0  0  0
  -26.5280  -36.8500   25.4090 C   0  0  0  0  0  1  0  0  0  0  0  0
  -28.0370  -36.5650   25.4220 C   0  0  0  0  0  3  0  0  0  0  0  0
  -30.1960  -37.6580   25.0040 C   0  0  0  0  0  1  0  0  0  0  0  0
  -28.7570  -37.6710   24.7520 N   0  0  0  0  0  0  0  0  0  0  0  0
  -28.3900  -38.5700   25.0500 H   0  0  0  0  0  0  0  0  0  0  0  0
  1  2  1  0
  1 54  2  0
  3  4  1  0
  3  2  1  0
  4  6  1  0
  5  7  2  0
  5  9  1  0
  6  5  1  0
  8  6  1  0
  9 10  1  0
 10 11  1  0
 11 12  1  0
 12 13  1  0
 13 14  1  0
 14 15  1  0
 16 24  1  0
 17 22  1  0
 18 19  1  0
 18 17  1  0
 20 19  1  0
 20 29  1  0
 20 21  1  0
 22 21  1  0
 22 16  1  0
 23 16  2  0
 24 15  1  0
 24 25  1  0
 26 27  2  0
 27 46  1  0
 28 27  1  0
 29 30  1  0
 29 26  1  0
 30 28  2  0
 31 28  1  0
 31 32  1  0
 33 32  2  0
 34 33  1  0
 35 36  1  0
 35 34  2  0
 36 31  2  0
 37 34  1  0
 37 38  1  0
 38 39  1  0
 39 40  2  0
 41 40  1  0
 41 45  1  0
 42 41  2  0
 43 38  2  0
 43 42  1  0
 44 43  1  0
 46 47  1  0
 47 50  1  0
 47 49  1  0
 48 46  2  0
 51 52  1  0
 51 26  1  0
 53 51  1  0
 55 54  1  0
 55 56  1  0
 56 59  1  0
 56 58  1  0
 57 55  2  0
 60 59  1  0
 60 61  1  0
 62 61  1  0
 62 63  1  0
 63 64  1  0
 64 66  1  0
 65 76  2  0
 66 71  2  0
 66 72  1  0
 67 77  1  0
 68 74  1  0
 69 75  1  0
 70 69  1  0
 70 68  2  0
 71 70  1  0
 72 73  2  0
 73 68  1  0
 74 67  1  0
 75 65  1  0
 75 67  1  0
 77 78  1  0
 78 80  1  0
 79 77  2  0
 81 90  1  0
 82 78  1  0
 82 86  1  0
 83 82  1  0
 83 84  1  0
 84 85  1  0
 85 81  1  0
 86 87  1  0
 86 81  2  0
 87 88  2  0
 88 89  1  0
 90 89  2  0
 91 92  1  0
 91 96  1  0
 91 65  1  0
 92 93  1  1
 94 92  1  0
 95 92  1  0
 96 99  1  0
 97101  1  0
 97 96  1  0
 98 97  2  0
101100  1  0
103102  1  0
103104  1  0
103101  1  0
M  ISO  4  16 100  24 100  63 101  64 101
M  END
>  <TORSDO>  (28) 
F 34

>  <SCORE>  (28) 
-2.684

>  <name>  (28) 
29

>  <ligand_id>  (28) 
29

>  <original_smiles>  (28) 
[H]c1c([H])c([H])c2c(c1[H])C([H])([H])C([H])([H])C([H])([H])C2([H])N([H])C(=O)C1([H])N(C(=O)C([H])(N([H])C(=O)C([H])(N([H])C([H])([H])[H])C([H])([H])[H])C(C([H])([H])[H])(C([H])([H])[H])C([H])([H])[H])C([H])([H])c2c([H])c(OC([H])([H])C([H])([H])C([H])([H])C([H])([H])C([H])([H])N([H])C(=O)C([H])([H])C([H])([H])C([H])([H])C([H])([H])C([H])([H])N([H])C(=O)C([H])([H])OC([H])([H])C([H])([H])OC([H])([H])C([H])([H])N([H])C(=O)N3C([H])([H])C([H])([H])C([H])([H])C([H])(n4nc(-c5c([H])c([H])c(Oc6c([H])c([H])c(F)c([H])c6F)c([H])c5[H])c(C(=O)N([H])[H])c4N([H])[H])C3([H])[H])c([H])c([H])c2C1([H])[H]

>  <smiles>  (28) 
[H]c1c([H])c([H])c2c(c1[H])C([H])([H])C([H])([H])C([H])([H])C2([H])N([H])C(=O)C1([H])N(C(=O)C([H])(N([H])C(=O)C([H])(N([H])C([H])([H])[H])C([H])([H])[H])C(C([H])([H])[H])(C([H])([H])[H])C([H])([H])[H])C([H])([H])c2c([H])c(OC([H])([H])C([H])([H])C([H])([H])C([H])([H])C([H])([H])N([H])C(=O)C([H])([H])C([H])([H])C([H])([H])C([H])([H])C([H])([H])N([H])C(=O)C([H])([H])OC([H])([H])C([H])([H])OC([H])([H])C([H])([H])N([H])C(=O)N3C([H])([H])C([H])([H])C([H])([H])C([H])(n4nc(-c5c([H])c([H])c(Oc6c([H])c([H])c(F)c([H])c6F)c([H])c5[H])c(C(=O)N([H])[H])c4N([H])[H])C3([H])[H])c([H])c([H])c2C1([H])[H]

$$$$
30:0:0
     RDKit          3D

114121  0  0  1  0  0  0  0  0999 V2000
  -20.6120  -15.1350   18.6210 C   0  0  0  0  0  0  0  0  0  0  0  0
  -21.8630  -14.9520   18.1940 N   0  0  0  0  0  0  0  0  0  0  0  0
  -19.8320  -14.2040   18.8240 O   0  0  0  0  0  0  0  0  0  0  0  0
  -22.4140  -15.7890   18.0760 H   0  0  0  0  0  0  0  0  0  0  0  0
  -22.5950  -13.6920   18.1030 C   0  0  0  0  0  2  0  0  0  0  0  0
  -24.0450  -13.9100   18.5450 C   0  0  0  0  0  0  0  0  0  0  0  0
  -24.2790  -14.8830   19.4400 N   0  0  0  0  0  0  0  0  0  0  0  0
  -24.9380  -13.2310   18.0450 O   0  0  0  0  0  0  0  0  0  0  0  0
  -23.4590  -15.3440   19.8300 H   0  0  0  0  0  0  0  0  0  0  0  0
  -25.5830  -15.3710   19.8680 C   0  0  0  0  0  2  0  0  0  0  0  0
  -25.5800  -15.8690   21.3200 C   0  0  0  0  0  3  0  0  0  0  0  0
  -26.6280  -16.9750   21.5310 C   0  0  0  0  0  2  0  0  0  0  0  0
  -28.0860  -16.4800   21.5940 C   0  0  0  0  0  2  0  0  0  0  0  0
  -29.0770  -17.4540   20.9380 C   0  0  0  0  0  2  0  0  0  0  0  0
  -30.5560  -17.0450   21.0920 C   0  0  0  0  0  2  0  0  0  0  0  0
  -31.2980  -16.7490   19.7680 C   0  0  0  0  0  3  0  0  0  0  0  0
  -32.7710  -17.1920   19.8180 C   0  0  0  0  0  2  0  0  0  0  0  0
  -33.6370  -16.6260   18.6730 C   0  0  0  0  0  2  0  0  0  0  0  0
  -34.7850  -17.4460   18.4330 O   0  0  0  0  0  0  0  0  0  0  0  0
  -37.2400  -24.0910   17.8070 C   0  0  0  0  0  0  0  0  0  0  0  0
  -34.6110  -18.6780   17.8270 C   0  0  0  0  0  0  0  0  0  0  0  0
  -35.0420  -23.6600   16.7600 C   0  0  0  0  0  3  0  0  0  0  0  0
  -34.3590  -21.2130   16.5910 C   0  0  0  0  0  0  0  0  0  0  0  0
  -36.7560  -21.7750   17.0200 C   0  0  0  0  0  2  0  0  0  0  0  0
  -35.5900  -20.8160   17.1300 C   0  0  0  0  0  0  0  0  0  0  0  0
  -35.7190  -19.5550   17.7490 C   0  0  0  0  0  3  0  0  0  0  0  0
  -33.3780  -19.0990   17.2720 C   0  0  0  0  0  3  0  0  0  0  0  0
  -33.2480  -20.3610   16.6670 C   0  0  0  0  0  3  0  0  0  0  0  0
  -34.3050  -22.5720   15.9370 C   0  0  0  0  0  2  0  0  0  0  0  0
  -36.3850  -23.1950   17.2420 N   0  0  0  0  0  0  0  0  0  0  0  0
  -36.9480  -25.2910   17.8900 O   0  0  0  0  0  0  0  0  0  0  0  0
  -34.1090  -24.1450   17.8930 C   0  0  0  0  0  0  0  0  0  0  0  0
  -33.1790  -25.0570   17.5620 N   0  0  0  0  0  0  0  0  0  0  0  0
  -34.2130  -23.6850   19.0330 O   0  0  0  0  0  0  0  0  0  0  0  0
  -33.1640  -25.3970   16.6100 H   0  0  0  0  0  0  0  0  0  0  0  0
  -30.4640  -27.4300   17.7530 C   0  0  0  0  0  0  0  0  0  0  0  0
  -32.1770  -25.6280   18.4630 C   0  0  0  0  0  3  0  0  0  0  0  0
  -30.9620  -24.6820   18.6200 C   0  0  0  0  0  2  0  0  0  0  0  0
  -29.8330  -24.9840   17.6290 C   0  0  0  0  0  2  0  0  0  0  0  0
  -29.3310  -26.4190   17.8060 C   0  0  0  0  0  2  0  0  0  0  0  0
  -31.8000  -27.0550   18.0470 C   0  0  0  0  0  0  0  0  0  0  0  0
  -32.8190  -28.0270   17.9500 C   0  0  0  0  0  3  0  0  0  0  0  0
  -32.5200  -29.3500   17.5690 C   0  0  0  0  0  3  0  0  0  0  0  0
  -31.1920  -29.7190   17.2920 C   0  0  0  0  0  3  0  0  0  0  0  0
  -30.1670  -28.7610   17.3890 C   0  0  0  0  0  3  0  0  0  0  0  0
  -38.6350  -23.6550   18.3520 C   0  0  0  0  0  3  0  0  0  0  0  0
  -39.6090  -24.6720   17.9360 N   0  0  0  0  0  0  0  0  0  0  0  0
  -40.4330  -24.5490   16.8880 C   0  0  0  0  0  0  0  0  0  0  0  0
  -40.5010  -23.5210   16.2060 O   0  0  0  0  0  0  0  0  0  0  0  0
  -39.5670  -25.5620   18.4130 H   0  0  0  0  0  0  0  0  0  0  0  0
  -40.7150  -26.5210   15.3510 C   0  0  0  0  0  1  0  0  0  0  0  0
  -41.3240  -25.7560   16.5370 C   0  0  0  0  0  3  0  0  0  0  0  0
  -43.4620  -24.8840   17.3750 C   0  0  0  0  0  1  0  0  0  0  0  0
  -42.7210  -25.3830   16.2200 N   0  0  0  0  0  0  0  0  0  0  0  0
  -43.2260  -26.1780   15.8360 H   0  0  0  0  0  0  0  0  0  0  0  0
  -38.6550  -23.4610   19.9160 C   0  0  1  0  0  0  0  0  0  0  0  0
  -38.0920  -24.6670   20.6990 C   0  0  0  0  0  1  0  0  0  0  0  0
  -37.8410  -22.2100   20.3240 C   0  0  0  0  0  1  0  0  0  0  0  0
  -40.1050  -23.2120   20.3910 C   0  0  0  0  0  1  0  0  0  0  0  0
  -20.1650  -16.5850   18.8760 C   0  0  0  0  0  2  0  0  0  0  0  0
  -22.3130  -17.4720   19.8020 C   0  0  0  0  0  0  0  0  0  0  0  0
  -21.2530  -17.5670   18.9880 N   0  0  0  0  0  0  0  0  0  0  0  0
  -22.5320  -16.4750   20.4920 O   0  0  0  0  0  0  0  0  0  0  0  0
  -21.1390  -18.4200   18.4560 H   0  0  0  0  0  0  0  0  0  0  0  0
  -23.2840  -18.6590   19.8280 C   0  0  0  0  0  2  0  0  0  0  0  0
  -24.5410  -18.2970   19.2580 O   0  0  0  0  0  0  0  0  0  0  0  0
  -24.5910  -18.3450   17.8300 C   0  0  0  0  0  2  0  0  0  0  0  0
  -25.9600  -18.8880   17.3690 C   0  0  0  0  0  2  0  0  0  0  0  0
  -26.8590  -17.8230   17.0660 O   0  0  0  0  0  0  0  0  0  0  0  0
  -28.1150  -18.2490   16.5370 C   0  0  0  0  0  2  0  0  0  0  0  0
  -29.2200  -18.2460   17.6180 C   0  0  0  0  0  2  0  0  0  0  0  0
  -30.0720  -16.9650   17.6400 C   0  0  0  0  0  1  0  0  0  0  0  0
  -30.6320  -16.7370   18.9310 O   0  0  0  0  0  0  0  0  0  0  0  0
  -31.4150  -15.5480   18.9690 C   0  0  0  0  0  1  0  0  0  0  0  0
  -31.6390  -15.0560   20.4090 C   0  0  0  0  0  1  0  0  0  0  0  0
  -32.5710  -13.8320   20.4320 C   0  0  0  0  0  2  0  0  0  0  0  0
  -32.9550  -11.8080   21.6650 C   0  0  0  0  0  0  0  0  0  0  0  0
  -32.1470   -9.6670   20.7870 C   0  0  0  0  0  2  0  0  0  0  0  0
  -31.3570   -9.9390   19.4880 C   0  0  0  0  0  2  0  0  0  0  0  0
  -29.8810  -10.2560   19.7970 C   0  0  0  0  0  2  0  0  0  0  0  0
  -29.7250  -11.3360   20.8990 C   0  0  0  0  0  3  0  0  0  0  0  0
  -30.6160  -11.0080   22.1200 C   0  0  0  0  0  2  0  0  0  0  0  0
  -32.0000  -10.8480   21.6440 N   0  0  0  0  0  0  0  0  0  0  0  0
  -34.1320  -11.6190   21.3450 O   0  0  0  0  0  0  0  0  0  0  0  0
  -32.4660  -13.0500   21.6670 N   0  0  0  0  0  0  0  0  0  0  0  0
  -32.6640  -13.5620   22.5160 H   0  0  0  0  0  0  0  0  0  0  0  0
  -27.6110  -12.6700   21.4990 C   0  0  0  0  0  0  0  0  0  0  0  0
  -26.3290  -12.2810   21.7770 C   0  0  0  0  0  0  0  0  0  0  0  0
  -26.3290  -10.8550   21.7020 C   0  0  0  0  0  0  0  0  0  0  0  0
  -28.3270  -11.5050   21.2860 N   0  0  0  0  0  0  0  0  0  0  0  0
  -27.5540  -10.4050   21.4690 N   0  0  0  0  0  0  0  0  0  0  0  0
  -25.2210   -9.8950   21.7900 C   0  0  0  0  0  0  0  0  0  0  0  0
  -25.2800   -8.7820   22.6570 C   0  0  0  0  0  3  0  0  0  0  0  0
  -24.1920   -7.8860   22.7390 C   0  0  0  0  0  3  0  0  0  0  0  0
  -23.0350   -8.0940   21.9520 C   0  0  0  0  0  0  0  0  0  0  0  0
  -22.9910   -9.1920   21.0750 C   0  0  0  0  0  3  0  0  0  0  0  0
  -24.0720  -10.0870   20.9950 C   0  0  0  0  0  3  0  0  0  0  0  0
  -21.9460   -7.2580   21.9510 O   0  0  0  0  0  0  0  0  0  0  0  0
  -21.6610   -6.4430   23.0180 C   0  0  0  0  0  0  0  0  0  0  0  0
  -21.4410   -6.9590   24.3140 C   0  0  0  0  0  3  0  0  0  0  0  0
  -21.0860   -6.0910   25.3640 C   0  0  0  0  0  3  0  0  0  0  0  0
  -20.9400   -4.7130   25.1220 C   0  0  0  0  0  0  0  0  0  0  0  0
  -21.1550   -4.1990   23.8320 C   0  0  0  0  0  3  0  0  0  0  0  0
  -21.5110   -5.0620   22.7820 C   0  0  0  0  0  0  0  0  0  0  0  0
  -21.6960   -4.5630   21.5340 F   0  0  0  0  0  0  0  0  0  0  0  0
  -20.5930   -3.8800   26.1300 F   0  0  0  0  0  0  0  0  0  0  0  0
  -25.1500  -13.1770   22.0050 C   0  0  0  0  0  3  0  0  0  0  0  0
  -24.1710  -12.7150   22.7660 N   0  0  0  0  0  0  0  0  0  0  0  0
  -25.1230  -14.3180   21.5530 O   0  0  0  0  0  0  0  0  0  0  0  0
  -24.2090  -11.7760   23.1350 H   0  0  0  0  0  0  0  0  0  0  0  0
  -23.3640  -13.2920   22.9560 H   0  0  0  0  0  0  0  0  0  0  0  0
  -28.2260  -13.9090   21.3880 N   0  0  0  0  0  0  0  0  0  0  0  0
  -27.6620  -14.7510   21.3520 H   0  0  0  0  0  0  0  0  0  0  0  0
  -29.1280  -14.0130   20.9490 H   0  0  0  0  0  0  0  0  0  0  0  0
  1  3  2  0
  1 60  1  0
  2  1  1  0
  4  2  1  0
  5  2  1  0
  5  6  1  0
  6  7  1  0
  7  9  1  0
  7 10  1  0
  8  6  2  0
 11 10  1  0
 11 12  1  0
 11109  1  0
 12 13  1  0
 14 15  1  0
 14 13  1  0
 16 17  1  0
 16 15  1  0
 18 17  1  0
 19 18  1  0
 20 31  2  0
 21 19  1  0
 22 30  1  0
 22 32  1  0
 23 28  2  0
 23 25  1  0
 24 25  1  0
 24 30  1  0
 25 26  2  0
 26 21  1  0
 27 21  2  0
 28 27  1  0
 29 23  1  0
 29 22  1  0
 30 20  1  0
 32 34  2  0
 33 32  1  0
 35 33  1  0
 36 40  1  0
 36 41  1  0
 37 33  1  0
 37 38  1  0
 39 40  1  0
 39 38  1  0
 41 37  1  0
 42 41  2  0
 43 42  1  0
 44 45  1  0
 44 43  2  0
 45 36  2  0
 46 20  1  0
 46 56  1  0
 47 46  1  0
 47 50  1  0
 48 47  1  0
 49 48  2  0
 52 51  1  0
 52 48  1  0
 54 52  1  0
 54 53  1  0
 55 54  1  0
 56 58  1  6
 56 59  1  0
 56 57  1  0
 60 62  1  0
 61 65  1  0
 61 63  2  0
 62 61  1  0
 64 62  1  0
 66 65  1  0
 67 66  1  0
 68 67  1  0
 69 68  1  0
 70 69  1  0
 70 71  1  0
 71 72  1  0
 73 74  1  0
 73 16  1  0
 75 76  1  0
 76 85  1  0
 77 85  1  0
 78 83  1  0
 79 80  1  0
 79 78  1  0
 81 80  1  0
 81 90  1  0
 81 82  1  0
 83 77  1  0
 83 82  1  0
 84 77  2  0
 85 86  1  0
 87 88  2  0
 88107  1  0
 89 88  1  0
 89 92  1  0
 90 91  1  0
 90 87  1  0
 91 89  2  0
 92 93  1  0
 93 94  2  0
 95 94  1  0
 96 95  2  0
 97 96  1  0
 97 92  2  0
 98 95  1  0
 98 99  1  0
 99100  1  0
100101  2  0
102101  1  0
102106  1  0
103102  2  0
104 99  2  0
104103  1  0
105104  1  0
107109  1  0
107108  1  0
108111  1  0
108110  1  0
112 87  1  0
113112  1  0
114112  1  0
M  ISO  4  18 101  19 101  77 100  85 100
M  END
>  <TORSDO>  (29) 
F 41

>  <SCORE>  (29) 
30.371

>  <name>  (29) 
30

>  <ligand_id>  (29) 
30

>  <original_smiles>  (29) 
[H]c1c([H])c([H])c2c(c1[H])C([H])([H])C([H])([H])C([H])([H])C2([H])N([H])C(=O)C1([H])N(C(=O)C([H])(N([H])C(=O)C([H])(N([H])C([H])([H])[H])C([H])([H])[H])C(C([H])([H])[H])(C([H])([H])[H])C([H])([H])[H])C([H])([H])c2c([H])c(OC([H])([H])C([H])([H])C([H])([H])C([H])([H])C([H])([H])C([H])([H])C([H])([H])C([H])([H])C([H])([H])N([H])C(=O)C([H])([H])N([H])C(=O)C([H])([H])N([H])C(=O)C([H])([H])OC([H])([H])C([H])([H])OC([H])([H])C([H])([H])C([H])([H])OC([H])([H])C([H])([H])C([H])([H])N([H])C(=O)N3C([H])([H])C([H])([H])C([H])([H])C([H])(n4nc(-c5c([H])c([H])c(Oc6c([H])c([H])c(F)c([H])c6F)c([H])c5[H])c(C(=O)N([H])[H])c4N([H])[H])C3([H])[H])c([H])c([H])c2C1([H])[H]

>  <smiles>  (29) 
[H]c1c([H])c([H])c2c(c1[H])C([H])([H])C([H])([H])C([H])([H])C2([H])N([H])C(=O)C1([H])N(C(=O)C([H])(N([H])C(=O)C([H])(N([H])C([H])([H])[H])C([H])([H])[H])C(C([H])([H])[H])(C([H])([H])[H])C([H])([H])[H])C([H])([H])c2c([H])c(OC([H])([H])C([H])([H])C([H])([H])C([H])([H])C([H])([H])C([H])([H])C([H])([H])C([H])([H])C([H])([H])N([H])C(=O)C([H])([H])N([H])C(=O)C([H])([H])N([H])C(=O)C([H])([H])OC([H])([H])C([H])([H])OC([H])([H])C([H])([H])C([H])([H])OC([H])([H])C([H])([H])C([H])([H])N([H])C(=O)N3C([H])([H])C([H])([H])C([H])([H])C([H])(n4nc(-c5c([H])c([H])c(Oc6c([H])c([H])c(F)c([H])c6F)c([H])c5[H])c(C(=O)N([H])[H])c4N([H])[H])C3([H])[H])c([H])c([H])c2C1([H])[H]

$$$$
31:0:0
     RDKit          3D

108115  0  0  1  0  0  0  0  0999 V2000
  -28.2130  -33.3380   26.7560 C   0  0  0  0  0  0  0  0  0  0  0  0
  -27.0510  -33.0470   25.9760 N   0  0  0  0  0  0  0  0  0  0  0  0
  -28.1430  -34.2410   27.5870 O   0  0  0  0  0  0  0  0  0  0  0  0
  -27.3920  -32.3030   25.3820 H   0  0  0  0  0  0  0  0  0  0  0  0
  -25.5740  -33.2720   25.4050 C   0  0  0  0  0  2  0  0  0  0  0  0
  -24.9940  -33.3770   23.7730 C   0  0  0  0  0  0  0  0  0  0  0  0
  -25.0300  -32.4540   22.6770 N   0  0  0  0  0  0  0  0  0  0  0  0
  -24.5000  -34.4690   23.4980 O   0  0  0  0  0  0  0  0  0  0  0  0
  -25.3410  -31.5260   22.9870 H   0  0  0  0  0  0  0  0  0  0  0  0
  -24.7960  -32.2650   21.0770 C   0  0  0  0  0  3  0  0  0  0  0  0
  -24.5390  -30.6780   20.4420 C   0  0  0  0  0  3  0  0  0  0  0  0
  -24.0840  -29.5530   19.1040 C   0  0  0  0  0  2  0  0  0  0  0  0
  -24.0670  -27.7050   18.8000 C   0  0  0  0  0  2  0  0  0  0  0  0
  -24.9310  -26.0410   19.1390 C   0  0  0  0  0  2  0  0  0  0  0  0
  -26.1400  -25.0510   20.1840 C   0  0  0  0  0  2  0  0  0  0  0  0
  -27.7430  -24.8250   20.7150 O   0  0  0  0  0  0  0  0  0  0  0  0
  -26.7950  -29.1960   23.4920 C   0  0  0  0  0  0  0  0  0  0  0  0
  -28.9640  -25.2230   20.2260 C   0  0  0  0  0  3  0  0  0  0  0  0
  -25.9800  -28.3080   21.4430 C   0  0  0  0  0  3  0  0  0  0  0  0
  -27.6830  -27.4480   19.7700 C   0  0  0  0  0  0  0  0  0  0  0  0
  -28.4520  -28.5560   21.8330 C   0  0  0  0  0  2  0  0  0  0  0  0
  -28.5470  -27.4270   20.8550 C   0  0  0  0  0  0  0  0  0  0  0  0
  -29.3690  -26.3150   21.0170 C   0  0  0  0  0  2  0  0  0  0  0  0
  -28.6400  -25.4100   18.9040 C   0  0  0  0  0  2  0  0  0  0  0  0
  -27.8240  -26.5290   18.6980 C   0  0  0  0  0  2  0  0  0  0  0  0
  -26.5850  -28.4030   19.9590 C   0  0  0  0  0  2  0  0  0  0  0  0
  -27.0800  -28.7090   22.3070 N   0  0  0  0  0  0  0  0  0  0  0  0
  -25.6580  -29.2760   23.8710 O   0  0  0  0  0  0  0  0  0  0  0  0
  -24.9150  -27.2320   22.1680 C   0  0  0  0  0  0  0  0  0  0  0  0
  -23.5660  -27.1830   21.9120 N   0  0  0  0  0  0  0  0  0  0  0  0
  -25.3390  -26.4440   22.9950 O   0  0  0  0  0  0  0  0  0  0  0  0
  -23.3240  -27.9460   21.2910 H   0  0  0  0  0  0  0  0  0  0  0  0
  -19.9310  -26.5970   21.2630 C   0  0  0  0  0  0  0  0  0  0  0  0
  -22.4110  -26.2760   22.0530 C   0  0  0  0  0  3  0  0  0  0  0  0
  -22.4220  -25.1050   21.0360 C   0  0  0  0  0  2  0  0  0  0  0  0
  -21.4840  -25.2370   19.8140 C   0  0  0  0  0  2  0  0  0  0  0  0
  -20.0470  -25.4610   20.2640 C   0  0  0  0  0  2  0  0  0  0  0  0
  -21.0380  -27.0120   22.0640 C   0  0  0  0  0  0  0  0  0  0  0  0
  -20.8340  -28.0950   22.9490 C   0  0  0  0  0  3  0  0  0  0  0  0
  -19.5830  -28.7380   23.0520 C   0  0  0  0  0  3  0  0  0  0  0  0
  -18.4970  -28.2960   22.2800 C   0  0  0  0  0  3  0  0  0  0  0  0
  -18.6730  -27.2270   21.3880 C   0  0  0  0  0  3  0  0  0  0  0  0
  -27.8230  -29.6260   24.4800 C   0  0  0  0  0  3  0  0  0  0  0  0
  -27.2000  -28.9990   25.9340 C   0  0  1  0  0  0  0  0  0  0  0  0
  -25.6960  -29.3080   26.2420 C   0  0  0  0  0  1  0  0  0  0  0  0
  -27.2860  -27.4530   25.7730 C   0  0  0  0  0  1  0  0  0  0  0  0
  -27.6240  -29.1990   27.4610 C   0  0  0  0  0  1  0  0  0  0  0  0
  -27.8590  -31.0730   24.0310 N   0  0  0  0  0  0  0  0  0  0  0  0
  -28.7560  -31.8310   23.3460 C   0  0  0  0  0  0  0  0  0  0  0  0
  -29.5850  -31.3130   22.6170 O   0  0  0  0  0  0  0  0  0  0  0  0
  -27.0240  -31.5870   24.2860 H   0  0  0  0  0  0  0  0  0  0  0  0
  -27.4700  -34.0570   23.2900 C   0  0  0  0  0  1  0  0  0  0  0  0
  -28.8200  -33.3890   23.5660 C   0  0  0  0  0  3  0  0  0  0  0  0
  -31.1880  -34.1230   23.4220 C   0  0  0  0  0  1  0  0  0  0  0  0
  -29.8740  -34.0710   22.7870 N   0  0  0  0  0  0  0  0  0  0  0  0
  -29.9710  -33.6170   21.8810 H   0  0  0  0  0  0  0  0  0  0  0  0
  -29.7210  -32.4910   26.6450 C   0  0  0  0  0  2  0  0  0  0  0  0
  -30.8820  -30.0220   25.7250 C   0  0  0  0  0  0  0  0  0  0  0  0
  -30.1110  -30.9180   26.5300 N   0  0  0  0  0  0  0  0  0  0  0  0
  -31.5940  -30.5150   24.8520 O   0  0  0  0  0  0  0  0  0  0  0  0
  -29.6050  -30.3960   27.2320 H   0  0  0  0  0  0  0  0  0  0  0  0
  -30.9110  -28.3410   25.8590 C   0  0  0  0  0  2  0  0  0  0  0  0
  -30.4690  -27.3550   24.7260 O   0  0  0  0  0  0  0  0  0  0  0  0
  -30.4510  -25.7880   24.8320 C   0  0  0  0  0  2  0  0  0  0  0  0
  -29.9180  -24.6290   23.6840 C   0  0  0  0  0  3  0  0  0  0  0  0
  -30.2850  -22.9530   23.5940 C   0  0  0  0  0  3  0  0  0  0  0  0
  -29.9070  -21.9220   22.4710 O   0  0  0  0  0  0  0  0  0  0  0  0
  -30.6130  -20.5560   22.1550 C   0  0  0  0  0  3  0  0  0  0  0  0
  -30.0290  -19.2180   21.2450 C   0  0  0  0  0  3  0  0  0  0  0  0
  -30.8490  -17.7550   20.8870 C   0  0  0  0  0  2  0  0  0  0  0  0
  -30.8020  -15.0880   20.0960 C   0  0  0  0  0  0  0  0  0  0  0  0
  -30.4890  -12.7880   19.0070 C   0  0  0  0  0  2  0  0  0  0  0  0
  -29.4680  -12.7540   17.8440 C   0  0  0  0  0  2  0  0  0  0  0  0
  -28.0470  -12.5170   18.3800 C   0  0  0  0  0  2  0  0  0  0  0  0
  -27.7290  -13.4300   19.5920 C   0  0  0  0  0  3  0  0  0  0  0  0
  -28.8650  -13.4480   20.6450 C   0  0  0  0  0  2  0  0  0  0  0  0
  -30.1070  -13.8710   19.9760 N   0  0  0  0  0  0  0  0  0  0  0  0
  -31.9320  -15.1180   19.6000 O   0  0  0  0  0  0  0  0  0  0  0  0
  -30.2370  -16.2930   20.6320 N   0  0  0  0  0  0  0  0  0  0  0  0
  -29.2870  -16.1770   20.9520 H   0  0  0  0  0  0  0  0  0  0  0  0
  -25.4120  -13.9950   20.5200 C   0  0  0  0  0  0  0  0  0  0  0  0
  -24.3750  -13.2180   20.9540 C   0  0  0  0  0  0  0  0  0  0  0  0
  -24.8230  -11.8650   20.8520 C   0  0  0  0  0  0  0  0  0  0  0  0
  -26.4290  -13.1200   20.1780 N   0  0  0  0  0  0  0  0  0  0  0  0
  -26.0870  -11.8290   20.4390 N   0  0  0  0  0  0  0  0  0  0  0  0
  -24.1010  -10.6030   21.0690 C   0  0  0  0  0  0  0  0  0  0  0  0
  -24.5460   -9.6480   22.0110 C   0  0  0  0  0  3  0  0  0  0  0  0
  -23.8210   -8.4540   22.2170 C   0  0  0  0  0  3  0  0  0  0  0  0
  -22.6390   -8.2050   21.4810 C   0  0  0  0  0  0  0  0  0  0  0  0
  -22.2130   -9.1480   20.5290 C   0  0  0  0  0  3  0  0  0  0  0  0
  -22.9380  -10.3330   20.3210 C   0  0  0  0  0  3  0  0  0  0  0  0
  -21.8860   -7.0610   21.5950 O   0  0  0  0  0  0  0  0  0  0  0  0
  -21.7320   -6.4170   22.7970 C   0  0  0  0  0  0  0  0  0  0  0  0
  -21.1690   -7.0600   23.9200 C   0  0  0  0  0  3  0  0  0  0  0  0
  -20.9650   -6.3400   25.1150 C   0  0  0  0  0  3  0  0  0  0  0  0
  -21.3140   -4.9790   25.1860 C   0  0  0  0  0  0  0  0  0  0  0  0
  -21.8710   -4.3350   24.0660 C   0  0  0  0  0  3  0  0  0  0  0  0
  -22.0750   -5.0520   22.8750 C   0  0  0  0  0  0  0  0  0  0  0  0
  -22.5920   -4.4210   21.7920 F   0  0  0  0  0  0  0  0  0  0  0  0
  -21.1130   -4.2860   26.3310 F   0  0  0  0  0  0  0  0  0  0  0  0
  -23.0070  -13.6970   21.3490 C   0  0  0  0  0  0  0  0  0  0  0  0
  -22.3490  -12.9920   22.2610 N   0  0  0  0  0  0  0  0  0  0  0  0
  -22.5360  -14.7350   20.8830 O   0  0  0  0  0  0  0  0  0  0  0  0
  -22.7460  -12.1530   22.6590 H   0  0  0  0  0  0  0  0  0  0  0  0
  -21.4360  -13.2950   22.5680 H   0  0  0  0  0  0  0  0  0  0  0  0
  -25.5710  -15.3690   20.3640 N   0  0  0  0  0  0  0  0  0  0  0  0
  -24.8170  -16.0240   20.5490 H   0  0  0  0  0  0  0  0  0  0  0  0
  -26.3930  -15.8120   19.9760 H   0  0  0  0  0  0  0  0  0  0  0  0
  1  3  2  0
  2  1  1  0
  4  2  1  0
  5  2  1  0
  6  5  1  0
  7  9  1  0
  7  6  1  0
  8  6  2  0
 10  7  1  0
 11 10  2  0
 12 11  1  0
 13 12  1  0
 13 14  1  0
 14 15  1  0
 15 16  1  0
 17 28  2  0
 18 16  1  0
 18 23  1  0
 19 29  1  0
 19 27  1  0
 20 26  1  0
 20 22  2  0
 21 27  1  0
 22 23  1  0
 22 21  1  0
 24 18  1  0
 25 24  1  0
 25 20  1  0
 26 19  1  0
 27 17  1  0
 29 31  2  0
 30 29  1  0
 32 30  1  0
 33 42  2  0
 33 38  1  0
 34 30  1  0
 34 38  1  0
 35 34  1  0
 36 37  1  0
 36 35  1  0
 37 33  1  0
 38 39  2  0
 39 40  1  0
 41 40  2  0
 42 41  1  0
 43 17  1  0
 43 44  1  0
 44 45  1  1
 44 47  1  0
 46 44  1  0
 48 51  1  0
 48 43  1  0
 49 53  1  0
 49 48  1  0
 50 49  2  0
 53 52  1  0
 55 54  1  0
 55 53  1  0
 56 55  1  0
 57  1  1  0
 58 62  1  0
 58 59  1  0
 59 57  1  0
 59 61  1  0
 60 58  2  0
 63 64  1  0
 63 62  1  0
 65 64  1  0
 66 65  2  0
 67 66  1  0
 68 67  1  0
 69 68  2  0
 70 69  1  0
 71 79  1  0
 72 77  1  0
 73 74  1  0
 73 72  1  0
 75 74  1  0
 75 84  1  0
 75 76  1  0
 77 71  1  0
 77 76  1  0
 78 71  2  0
 79 70  1  0
 79 80  1  0
 81 82  2  0
 82101  1  0
 83 82  1  0
 83 86  1  0
 84 85  1  0
 84 81  1  0
 85 83  2  0
 86 87  1  0
 87 88  2  0
 89 92  1  0
 89 88  1  0
 90 89  2  0
 91 90  1  0
 91 86  2  0
 92 93  1  0
 93 98  2  0
 93 94  1  0
 94 95  2  0
 95 96  1  0
 96100  1  0
 97 96  2  0
 98 97  1  0
 99 98  1  0
101102  1  0
102105  1  0
102104  1  0
103101  2  0
106 81  1  0
106107  1  0
108106  1  0
M  ISO  4  15 101  16 101  71 100  79 100
M  END
>  <TORSDO>  (30) 
F 35

>  <SCORE>  (30) 
-7.161

>  <name>  (30) 
31

>  <ligand_id>  (30) 
31

>  <original_smiles>  (30) 
[H]c1c([H])c([H])c2c(c1[H])C([H])([H])C([H])([H])C([H])([H])C2([H])N([H])C(=O)C1([H])N(C(=O)C([H])(N([H])C(=O)C([H])(N([H])C([H])([H])[H])C([H])([H])[H])C(C([H])([H])[H])(C([H])([H])[H])C([H])([H])[H])C([H])([H])c2c([H])c(OC([H])([H])C([H])([H])C([H])([H])C([H])([H])C([H])([H])C([H])([H])N([H])C(=O)C([H])([H])N([H])C(=O)C([H])([H])N([H])C(=O)C([H])([H])OC([H])([H])C([H])([H])C([H])([H])OC([H])([H])C([H])([H])C([H])([H])N([H])C(=O)N3C([H])([H])C([H])([H])C([H])([H])C([H])(n4nc(-c5c([H])c([H])c(Oc6c([H])c([H])c(F)c([H])c6F)c([H])c5[H])c(C(=O)N([H])[H])c4N([H])[H])C3([H])[H])c([H])c([H])c2C1([H])[H]

>  <smiles>  (30) 
[H]c1c([H])c([H])c2c(c1[H])C([H])([H])C([H])([H])C([H])([H])C2([H])N([H])C(=O)C1([H])N(C(=O)C([H])(N([H])C(=O)C([H])(N([H])C([H])([H])[H])C([H])([H])[H])C(C([H])([H])[H])(C([H])([H])[H])C([H])([H])[H])C([H])([H])c2c([H])c(OC([H])([H])C([H])([H])C([H])([H])C([H])([H])C([H])([H])C([H])([H])N([H])C(=O)C([H])([H])N([H])C(=O)C([H])([H])N([H])C(=O)C([H])([H])OC([H])([H])C([H])([H])C([H])([H])OC([H])([H])C([H])([H])C([H])([H])N([H])C(=O)N3C([H])([H])C([H])([H])C([H])([H])C([H])(n4nc(-c5c([H])c([H])c(Oc6c([H])c([H])c(F)c([H])c6F)c([H])c5[H])c(C(=O)N([H])[H])c4N([H])[H])C3([H])[H])c([H])c([H])c2C1([H])[H]

$$$$
32:0:0
     RDKit          3D

120127  0  0  1  0  0  0  0  0999 V2000
  -21.2520  -22.1100   30.6690 C   0  0  0  0  0  2  0  0  0  0  0  0
  -21.4800  -22.4760   28.2230 C   0  0  0  0  0  0  0  0  0  0  0  0
  -21.8070  -22.7670   29.4870 N   0  0  0  0  0  0  0  0  0  0  0  0
  -20.9140  -21.4300   27.8950 O   0  0  0  0  0  0  0  0  0  0  0  0
  -22.2880  -23.6420   29.6440 H   0  0  0  0  0  0  0  0  0  0  0  0
  -21.7780  -23.5560   27.1860 C   0  0  0  0  0  2  0  0  0  0  0  0
  -22.7640  -22.9560   24.9910 C   0  0  0  0  0  0  0  0  0  0  0  0
  -21.7210  -23.0520   25.8160 N   0  0  0  0  0  0  0  0  0  0  0  0
  -23.8980  -23.3200   25.3140 O   0  0  0  0  0  0  0  0  0  0  0  0
  -20.8310  -22.6870   25.5060 H   0  0  0  0  0  0  0  0  0  0  0  0
  -22.4910  -22.3740   23.5940 C   0  0  0  0  0  2  0  0  0  0  0  0
  -24.5690  -21.1130   23.1440 C   0  0  0  0  0  0  0  0  0  0  0  0
  -23.7300  -22.1150   22.8640 N   0  0  0  0  0  0  0  0  0  0  0  0
  -24.2640  -20.1910   23.9060 O   0  0  0  0  0  0  0  0  0  0  0  0
  -24.0320  -22.8250   22.2120 H   0  0  0  0  0  0  0  0  0  0  0  0
  -25.9620  -21.1840   22.5080 C   0  0  0  0  0  2  0  0  0  0  0  0
  -26.6990  -20.0280   22.8780 O   0  0  0  0  0  0  0  0  0  0  0  0
  -28.0460  -20.0500   22.4450 C   0  0  0  0  0  2  0  0  0  0  0  0
  -28.6410  -18.7030   22.8500 C   0  0  0  0  0  2  0  0  0  0  0  0
  -30.0940  -18.5130   22.4150 C   0  0  0  0  0  2  0  0  0  0  0  0
  -30.4470  -17.1970   22.7950 O   0  0  0  0  0  0  0  0  0  0  0  0
  -31.7630  -16.8290   22.4230 C   0  0  0  0  0  2  0  0  0  0  0  0
  -31.9030  -15.3350   22.7400 C   0  0  0  0  0  2  0  0  0  0  0  0
  -30.8770  -14.2370   20.7660 C   0  0  0  0  0  0  0  0  0  0  0  0
  -30.4060  -12.2810   19.3620 C   0  0  0  0  0  2  0  0  0  0  0  0
  -29.4660  -12.5420   18.1770 C   0  0  0  0  0  2  0  0  0  0  0  0
  -28.0010  -12.3830   18.6110 C   0  0  0  0  0  2  0  0  0  0  0  0
  -27.6700  -13.2080   19.8810 C   0  0  0  0  0  3  0  0  0  0  0  0
  -28.7150  -12.9720   20.9970 C   0  0  0  0  0  2  0  0  0  0  0  0
  -30.0690  -13.1980   20.4560 N   0  0  0  0  0  0  0  0  0  0  0  0
  -31.7440  -14.6860   20.0110 O   0  0  0  0  0  0  0  0  0  0  0  0
  -30.8730  -14.5430   22.0640 N   0  0  0  0  0  0  0  0  0  0  0  0
  -30.1800  -14.0910   22.6420 H   0  0  0  0  0  0  0  0  0  0  0  0
  -25.2610  -13.8170   20.5700 C   0  0  0  0  0  0  0  0  0  0  0  0
  -24.1860  -13.0460   20.9170 C   0  0  0  0  0  0  0  0  0  0  0  0
  -24.6410  -11.6910   20.8740 C   0  0  0  0  0  0  0  0  0  0  0  0
  -26.3090  -12.9360   20.3430 N   0  0  0  0  0  0  0  0  0  0  0  0
  -25.9350  -11.6520   20.5790 N   0  0  0  0  0  0  0  0  0  0  0  0
  -23.9070  -10.4300   21.0400 C   0  0  0  0  0  0  0  0  0  0  0  0
  -24.3620   -9.4210   21.9180 C   0  0  0  0  0  3  0  0  0  0  0  0
  -23.6290   -8.2250   22.0760 C   0  0  0  0  0  3  0  0  0  0  0  0
  -22.4280   -8.0280   21.3550 C   0  0  0  0  0  0  0  0  0  0  0  0
  -21.9910   -9.0260   20.4650 C   0  0  0  0  0  3  0  0  0  0  0  0
  -22.7240  -10.2140   20.3050 C   0  0  0  0  0  3  0  0  0  0  0  0
  -21.6640   -6.8890   21.4240 O   0  0  0  0  0  0  0  0  0  0  0  0
  -21.6850   -6.0740   22.5280 C   0  0  0  0  0  0  0  0  0  0  0  0
  -21.4020   -6.5640   23.8210 C   0  0  0  0  0  3  0  0  0  0  0  0
  -21.3660   -5.6790   24.9170 C   0  0  0  0  0  3  0  0  0  0  0  0
  -21.6040   -4.3060   24.7230 C   0  0  0  0  0  0  0  0  0  0  0  0
  -21.8820   -3.8150   23.4340 C   0  0  0  0  0  3  0  0  0  0  0  0
  -21.9190   -4.6970   22.3400 C   0  0  0  0  0  0  0  0  0  0  0  0
  -22.1660   -4.2150   21.0980 F   0  0  0  0  0  0  0  0  0  0  0  0
  -21.5630   -3.4540   25.7730 F   0  0  0  0  0  0  0  0  0  0  0  0
  -22.7880  -13.5240   21.1830 C   0  0  0  0  0  0  0  0  0  0  0  0
  -22.0520  -12.8240   22.0390 N   0  0  0  0  0  0  0  0  0  0  0  0
  -22.3550  -14.5550   20.6680 O   0  0  0  0  0  0  0  0  0  0  0  0
  -22.4130  -11.9890   22.4780 H   0  0  0  0  0  0  0  0  0  0  0  0
  -21.1140  -13.1260   22.2600 H   0  0  0  0  0  0  0  0  0  0  0  0
  -25.4340  -15.1890   20.4090 N   0  0  0  0  0  0  0  0  0  0  0  0
  -24.6740  -15.8510   20.5260 H   0  0  0  0  0  0  0  0  0  0  0  0
  -26.3000  -15.6270   20.1200 H   0  0  0  0  0  0  0  0  0  0  0  0
  -20.2290  -23.0540   31.3240 C   0  0  0  0  0  2  0  0  0  0  0  0
  -19.3640  -23.5340   30.3000 O   0  0  0  0  0  0  0  0  0  0  0  0
  -18.6100  -24.6810   30.6600 C   0  0  0  0  0  2  0  0  0  0  0  0
  -18.0160  -25.2900   29.3770 C   0  0  0  0  0  2  0  0  0  0  0  0
  -19.0170  -25.6410   28.4140 O   0  0  0  0  0  0  0  0  0  0  0  0
  -19.7670  -26.8120   28.7280 C   0  0  0  0  0  2  0  0  0  0  0  0
  -20.5580  -27.2760   27.4880 C   0  0  0  0  0  2  0  0  0  0  0  0
  -21.8490  -26.6730   27.4540 O   0  0  0  0  0  0  0  0  0  0  0  0
  -22.5430  -26.8690   26.2220 C   0  0  0  0  0  2  0  0  0  0  0  0
  -24.0540  -26.6570   26.4370 C   0  0  0  0  0  2  0  0  0  0  0  0
  -24.7590  -26.3070   25.2400 O   0  0  0  0  0  0  0  0  0  0  0  0
  -26.1600  -26.5410   25.3780 C   0  0  0  0  0  2  0  0  0  0  0  0
  -27.0390  -25.6330   24.4930 C   0  0  0  0  0  2  0  0  0  0  0  0
  -27.0480  -25.9520   23.0350 N   0  0  0  0  0  4  0  0  0  0  0  0
  -26.1910  -25.6140   22.6260 H   0  0  0  0  0  0  0  0  0  0  0  0
  -27.0670  -26.9520   22.8990 H   0  0  0  0  0  0  0  0  0  0  0  0
  -28.2220  -25.3640   22.3280 C   0  0  0  0  0  2  0  0  0  0  0  0
  -28.1930  -25.3990   20.7740 C   0  0  0  0  0  2  0  0  0  0  0  0
  -28.3660  -26.7060   20.2010 O   0  0  0  0  0  0  0  0  0  0  0  0
  -24.6070  -31.8730   23.2090 C   0  0  0  0  0  0  0  0  0  0  0  0
  -27.2200  -27.4550   20.1190 C   0  0  0  0  0  0  0  0  0  0  0  0
  -23.3970  -30.4890   21.5530 C   0  0  0  0  0  3  0  0  0  0  0  0
  -24.8390  -28.9660   20.1140 C   0  0  0  0  0  0  0  0  0  0  0  0
  -25.9200  -30.8450   21.3620 C   0  0  0  0  0  2  0  0  0  0  0  0
  -25.9990  -29.4850   20.7050 C   0  0  0  0  0  0  0  0  0  0  0  0
  -27.1970  -28.7410   20.6970 C   0  0  0  0  0  3  0  0  0  0  0  0
  -26.0560  -26.9550   19.4990 C   0  0  0  0  0  3  0  0  0  0  0  0
  -24.8620  -27.6990   19.5070 C   0  0  0  0  0  3  0  0  0  0  0  0
  -23.5970  -29.8230   20.1660 C   0  0  0  0  0  2  0  0  0  0  0  0
  -24.6590  -31.0850   22.0990 N   0  0  0  0  0  0  0  0  0  0  0  0
  -23.5290  -32.1400   23.7560 O   0  0  0  0  0  0  0  0  0  0  0  0
  -22.7360  -29.4660   22.5060 C   0  0  0  0  0  0  0  0  0  0  0  0
  -21.4110  -29.2990   22.3710 N   0  0  0  0  0  0  0  0  0  0  0  0
  -23.4120  -28.8270   23.3160 O   0  0  0  0  0  0  0  0  0  0  0  0
  -20.9330  -29.8590   21.6800 H   0  0  0  0  0  0  0  0  0  0  0  0
  -18.0240  -28.1390   22.8570 C   0  0  0  0  0  0  0  0  0  0  0  0
  -20.5800  -28.3670   23.1340 C   0  0  0  0  0  3  0  0  0  0  0  0
  -20.6730  -26.9370   22.5520 C   0  0  0  0  0  2  0  0  0  0  0  0
  -19.5680  -26.6240   21.5400 C   0  0  0  0  0  2  0  0  0  0  0  0
  -18.1890  -26.7840   22.1890 C   0  0  0  0  0  2  0  0  0  0  0  0
  -19.1480  -28.8880   23.2940 C   0  0  0  0  0  0  0  0  0  0  0  0
  -18.9420  -30.1500   23.8930 C   0  0  0  0  0  3  0  0  0  0  0  0
  -17.6410  -30.6610   24.0620 C   0  0  0  0  0  3  0  0  0  0  0  0
  -16.5300  -29.9080   23.6390 C   0  0  0  0  0  3  0  0  0  0  0  0
  -16.7230  -28.6520   23.0370 C   0  0  0  0  0  3  0  0  0  0  0  0
  -25.8970  -32.4880   23.8350 C   0  0  0  0  0  3  0  0  0  0  0  0
  -26.4430  -31.6680   25.0670 C   0  0  1  0  0  0  0  0  0  0  0  0
  -25.3730  -31.3610   26.1390 C   0  0  0  0  0  1  0  0  0  0  0  0
  -27.0340  -30.3210   24.5920 C   0  0  0  0  0  1  0  0  0  0  0  0
  -27.5930  -32.4440   25.7540 C   0  0  0  0  0  1  0  0  0  0  0  0
  -25.5910  -33.8680   24.2290 N   0  0  0  0  0  0  0  0  0  0  0  0
  -25.9100  -34.9530   23.5100 C   0  0  0  0  0  0  0  0  0  0  0  0
  -26.5610  -34.8960   22.4650 O   0  0  0  0  0  0  0  0  0  0  0  0
  -25.0050  -33.9860   25.0410 H   0  0  0  0  0  0  0  0  0  0  0  0
  -24.1510  -36.7330   23.2640 C   0  0  0  0  0  1  0  0  0  0  0  0
  -25.4150  -36.3170   24.0310 C   0  0  0  0  0  3  0  0  0  0  0  0
  -27.5620  -37.1820   24.8460 C   0  0  0  0  0  1  0  0  0  0  0  0
  -26.4340  -37.3850   23.9390 N   0  0  0  0  0  0  0  0  0  0  0  0
  -26.0240  -38.2920   24.1460 H   0  0  0  0  0  0  0  0  0  0  0  0
  1 62  1  0
  2  3  1  0
  3  5  1  0
  3  1  1  0
  4  2  2  0
  6  2  1  0
  7  9  2  0
  7  8  1  0
  8  6  1  0
 10  8  1  0
 11  7  1  0
 12 14  2  0
 13 12  1  0
 13 11  1  0
 15 13  1  0
 16 17  1  0
 16 12  1  0
 18 19  1  0
 18 17  1  0
 20 21  1  0
 20 19  1  0
 22 23  1  0
 22 21  1  0
 24 32  1  0
 25 30  1  0
 26 27  1  0
 26 25  1  0
 28 27  1  0
 28 37  1  0
 28 29  1  0
 30 24  1  0
 30 29  1  0
 31 24  2  0
 32 33  1  0
 32 23  1  0
 34 35  2  0
 35 54  1  0
 36 35  1  0
 36 39  1  0
 37 34  1  0
 37 38  1  0
 38 36  2  0
 39 40  1  0
 40 41  2  0
 42 45  1  0
 42 41  1  0
 43 42  2  0
 44 43  1  0
 44 39  2  0
 45 46  1  0
 46 47  1  0
 47 48  2  0
 49 48  1  0
 49 53  1  0
 50 49  2  0
 51 46  2  0
 51 50  1  0
 52 51  1  0
 54 55  1  0
 55 58  1  0
 55 57  1  0
 56 54  2  0
 59 60  1  0
 59 34  1  0
 61 59  1  0
 63 64  1  0
 63 62  1  0
 65 64  1  0
 66 67  1  0
 66 65  1  0
 68 67  1  0
 69 68  1  0
 70 71  1  0
 70 69  1  0
 72 73  1  0
 72 71  1  0
 74 73  1  0
 75 74  1  0
 76 75  1  0
 77 75  1  0
 78 75  1  0
 79 78  1  0
 80 79  1  0
 81 92  2  0
 82 80  1  0
 82 87  1  0
 83 91  1  0
 83 93  1  0
 84 90  1  0
 84 86  1  0
 85 91  1  0
 86 85  1  0
 87 86  2  0
 88 89  1  0
 88 82  2  0
 89 84  2  0
 90 83  1  0
 91 81  1  0
 93 95  2  0
 94 93  1  0
 96 94  1  0
 97106  2  0
 97102  1  0
 98 94  1  0
 98102  1  0
 99 98  1  0
100101  1  0
100 99  1  0
101 97  1  0
102103  2  0
103104  1  0
105104  2  0
106105  1  0
107 81  1  0
107112  1  0
107108  1  0
108111  1  1
108109  1  0
110108  1  0
112115  1  0
113117  1  0
113112  1  0
114113  2  0
117116  1  0
119117  1  0
119120  1  0
119118  1  0
M  ISO  4  24 100  32 100  79 101  80 101
M  END
>  <TORSDO>  (31) 
F 45

>  <SCORE>  (31) 
84.549

>  <name>  (31) 
32

>  <ligand_id>  (31) 
32

>  <original_smiles>  (31) 
[H]c1c([H])c([H])c2c(c1[H])C([H])([H])C([H])([H])C([H])([H])C2([H])N([H])C(=O)C1([H])N(C(=O)C([H])(N([H])C(=O)C([H])(N([H])C([H])([H])[H])C([H])([H])[H])C(C([H])([H])[H])(C([H])([H])[H])C([H])([H])[H])C([H])([H])c2c([H])c(OC([H])([H])C([H])([H])[N+]([H])([H])C([H])([H])C([H])([H])OC([H])([H])C([H])([H])OC([H])([H])C([H])([H])OC([H])([H])C([H])([H])OC([H])([H])C([H])([H])N([H])C(=O)C([H])([H])N([H])C(=O)C([H])([H])N([H])C(=O)C([H])([H])OC([H])([H])C([H])([H])C([H])([H])OC([H])([H])C([H])([H])N([H])C(=O)N3C([H])([H])C([H])([H])C([H])([H])C([H])(n4nc(-c5c([H])c([H])c(Oc6c([H])c([H])c(F)c([H])c6F)c([H])c5[H])c(C(=O)N([H])[H])c4N([H])[H])C3([H])[H])c([H])c([H])c2C1([H])[H]

>  <smiles>  (31) 
[H]c1c([H])c([H])c2c(c1[H])C([H])([H])C([H])([H])C([H])([H])C2([H])N([H])C(=O)C1([H])N(C(=O)C([H])(N([H])C(=O)C([H])(N([H])C([H])([H])[H])C([H])([H])[H])C(C([H])([H])[H])(C([H])([H])[H])C([H])([H])[H])C([H])([H])c2c([H])c(OC([H])([H])C([H])([H])[N+]([H])([H])C([H])([H])C([H])([H])OC([H])([H])C([H])([H])OC([H])([H])C([H])([H])OC([H])([H])C([H])([H])OC([H])([H])C([H])([H])N([H])C(=O)C([H])([H])N([H])C(=O)C([H])([H])N([H])C(=O)C([H])([H])OC([H])([H])C([H])([H])C([H])([H])OC([H])([H])C([H])([H])N([H])C(=O)N3C([H])([H])C([H])([H])C([H])([H])C([H])(n4nc(-c5c([H])c([H])c(Oc6c([H])c([H])c(F)c([H])c6F)c([H])c5[H])c(C(=O)N([H])[H])c4N([H])[H])C3([H])[H])c([H])c([H])c2C1([H])[H]

$$$$
33:0:0
     RDKit          3D

110117  0  0  1  0  0  0  0  0999 V2000
  -28.5120  -21.4870   19.8080 C   0  0  0  0  0  2  0  0  0  0  0  0
  -29.6570  -21.9000   20.7460 C   0  0  0  0  0  0  0  0  0  0  0  0
  -30.8190  -21.2720   20.5640 N   0  0  0  0  0  0  0  0  0  0  0  0
  -29.4870  -22.7690   21.6040 O   0  0  0  0  0  0  0  0  0  0  0  0
  -30.8380  -20.5280   19.8760 H   0  0  0  0  0  0  0  0  0  0  0  0
  -32.0660  -21.5070   21.2870 C   0  0  0  0  0  2  0  0  0  0  0  0
  -32.5490  -20.2110   21.9580 C   0  0  0  0  0  2  0  0  0  0  0  0
  -32.1440  -19.0680   21.2090 O   0  0  0  0  0  0  0  0  0  0  0  0
  -33.0130  -18.6970   20.1440 C   0  0  0  0  0  2  0  0  0  0  0  0
  -32.1580  -18.5540   18.8790 C   0  0  0  0  0  2  0  0  0  0  0  0
  -31.8620  -19.8480   18.3580 O   0  0  0  0  0  0  0  0  0  0  0  0
  -30.9840  -19.7650   17.2380 C   0  0  0  0  0  2  0  0  0  0  0  0
  -30.8170  -21.1330   16.5620 C   0  0  0  0  0  0  0  0  0  0  0  0
  -29.9010  -21.8990   16.8810 O   0  0  0  0  0  0  0  0  0  0  0  0
  -31.7480  -21.3470   15.5990 O   0  0  0  0  0  0  0  0  0  0  0  0
  -34.3380  -25.6440   10.5450 C   0  0  0  0  0  0  0  0  0  0  0  0
  -31.5100  -21.9510   14.3760 C   0  0  0  0  0  0  0  0  0  0  0  0
  -32.0270  -24.8400   10.1740 C   0  0  0  0  0  3  0  0  0  0  0  0
  -31.2240  -23.0130   11.7630 C   0  0  0  0  0  0  0  0  0  0  0  0
  -33.6750  -23.4770   11.5780 C   0  0  0  0  0  2  0  0  0  0  0  0
  -32.4850  -22.9680   12.3670 C   0  0  0  0  0  0  0  0  0  0  0  0
  -32.6300  -22.4450   13.6690 C   0  0  0  0  0  3  0  0  0  0  0  0
  -30.2380  -22.0180   13.7540 C   0  0  0  0  0  3  0  0  0  0  0  0
  -30.0930  -22.5500   12.4570 C   0  0  0  0  0  3  0  0  0  0  0  0
  -31.1560  -23.5680   10.3590 C   0  0  0  0  0  2  0  0  0  0  0  0
  -33.3880  -24.6960   10.7850 N   0  0  0  0  0  0  0  0  0  0  0  0
  -34.1070  -26.6040    9.7960 O   0  0  0  0  0  0  0  0  0  0  0  0
  -31.2390  -26.0550   10.7140 C   0  0  0  0  0  0  0  0  0  0  0  0
  -30.4660  -26.7050    9.8320 N   0  0  0  0  0  0  0  0  0  0  0  0
  -31.3090  -26.3740   11.9030 O   0  0  0  0  0  0  0  0  0  0  0  0
  -30.4710  -26.3850    8.8730 H   0  0  0  0  0  0  0  0  0  0  0  0
  -28.5080  -29.3320    8.3110 C   0  0  0  0  0  0  0  0  0  0  0  0
  -29.6080  -27.8530   10.1220 C   0  0  0  0  0  3  0  0  0  0  0  0
  -28.1740  -27.3990   10.4780 C   0  0  0  0  0  2  0  0  0  0  0  0
  -27.2330  -27.3660    9.2690 C   0  0  0  0  0  2  0  0  0  0  0  0
  -27.1390  -28.7520    8.6240 C   0  0  0  0  0  2  0  0  0  0  0  0
  -29.6690  -28.8970    9.0030 C   0  0  0  0  0  0  0  0  0  0  0  0
  -30.9220  -29.4400    8.6460 C   0  0  0  0  0  3  0  0  0  0  0  0
  -31.0260  -30.4040    7.6250 C   0  0  0  0  0  3  0  0  0  0  0  0
  -29.8720  -30.8420    6.9540 C   0  0  0  0  0  3  0  0  0  0  0  0
  -28.6160  -30.3100    7.3000 C   0  0  0  0  0  3  0  0  0  0  0  0
  -35.7610  -25.5560   11.1790 C   0  0  0  0  0  3  0  0  0  0  0  0
  -35.9820  -26.5830   12.3580 C   0  0  1  0  0  0  0  0  0  0  0  0
  -36.0160  -28.0600   11.9010 C   0  0  0  0  0  1  0  0  0  0  0  0
  -34.8660  -26.4430   13.4180 C   0  0  0  0  0  1  0  0  0  0  0  0
  -37.3150  -26.2750   13.0800 C   0  0  0  0  0  1  0  0  0  0  0  0
  -36.7390  -25.7800   10.1060 N   0  0  0  0  0  0  0  0  0  0  0  0
  -37.3550  -24.8060    9.4230 C   0  0  0  0  0  0  0  0  0  0  0  0
  -37.2110  -23.6100    9.6860 O   0  0  0  0  0  0  0  0  0  0  0  0
  -36.8630  -26.7340    9.7990 H   0  0  0  0  0  0  0  0  0  0  0  0
  -37.5720  -24.9700    6.9220 C   0  0  0  0  0  1  0  0  0  0  0  0
  -38.2780  -25.2280    8.2630 C   0  0  0  0  0  3  0  0  0  0  0  0
  -40.4780  -25.0250    9.3320 C   0  0  0  0  0  1  0  0  0  0  0  0
  -39.5890  -24.5460    8.2750 N   0  0  0  0  0  0  0  0  0  0  0  0
  -40.0670  -24.6670    7.3860 H   0  0  0  0  0  0  0  0  0  0  0  0
  -26.7500  -22.5860   18.4260 C   0  0  0  0  0  0  0  0  0  0  0  0
  -27.6660  -22.6060   19.3990 N   0  0  0  0  0  0  0  0  0  0  0  0
  -26.4260  -21.5760   17.7920 O   0  0  0  0  0  0  0  0  0  0  0  0
  -27.8110  -23.5060   19.8360 H   0  0  0  0  0  0  0  0  0  0  0  0
  -26.1340  -23.9730   18.1020 C   0  0  0  0  0  0  0  0  0  0  0  0
  -24.8460  -23.9370   17.7620 N   0  0  0  0  0  0  0  0  0  0  0  0
  -26.8230  -24.9990   18.1240 O   0  0  0  0  0  0  0  0  0  0  0  0
  -24.4100  -23.0260   17.8110 H   0  0  0  0  0  0  0  0  0  0  0  0
  -24.1030  -25.0260   17.1450 C   0  0  0  0  0  2  0  0  0  0  0  0
  -24.1410  -24.9240   15.6060 C   0  0  0  0  0  2  0  0  0  0  0  0
  -24.6370  -26.0960   14.9570 O   0  0  0  0  0  0  0  0  0  0  0  0
  -25.9900  -26.4370   15.2440 C   0  0  0  0  0  2  0  0  0  0  0  0
  -26.0990  -27.9680   15.3380 C   0  0  0  0  0  2  0  0  0  0  0  0
  -26.0420  -28.3340   16.7130 O   0  0  0  0  0  0  0  0  0  0  0  0
  -24.9290  -29.1380   17.0910 C   0  0  0  0  0  2  0  0  0  0  0  0
  -24.3870  -28.7550   18.4850 C   0  0  0  0  0  2  0  0  0  0  0  0
  -25.2550  -29.2750   19.6510 C   0  0  0  0  0  2  0  0  0  0  0  0
  -25.9870  -27.6020   21.4070 C   0  0  0  0  0  0  0  0  0  0  0  0
  -26.9760  -25.8090   22.7910 C   0  0  0  0  0  2  0  0  0  0  0  0
  -28.0280  -26.3360   23.7850 C   0  0  0  0  0  2  0  0  0  0  0  0
  -29.4140  -26.4560   23.1240 C   0  0  0  0  0  2  0  0  0  0  0  0
  -29.3580  -27.1940   21.7640 C   0  0  0  0  0  3  0  0  0  0  0  0
  -28.2410  -26.6140   20.8730 C   0  0  0  0  0  2  0  0  0  0  0  0
  -26.9640  -26.6850   21.6130 N   0  0  0  0  0  0  0  0  0  0  0  0
  -25.0630  -27.8170   22.2000 O   0  0  0  0  0  0  0  0  0  0  0  0
  -26.0750  -28.2130   20.2210 N   0  0  0  0  0  0  0  0  0  0  0  0
  -26.8590  -27.9220   19.6550 H   0  0  0  0  0  0  0  0  0  0  0  0
  -31.6280  -28.1480   21.0020 C   0  0  0  0  0  0  0  0  0  0  0  0
  -32.6710  -27.5890   20.3150 C   0  0  0  0  0  0  0  0  0  0  0  0
  -32.2710  -26.2520   20.0110 C   0  0  0  0  0  0  0  0  0  0  0  0
  -30.6540  -27.1640   21.0870 N   0  0  0  0  0  0  0  0  0  0  0  0
  -31.0340  -26.0330   20.4380 N   0  0  0  0  0  0  0  0  0  0  0  0
  -33.0150  -25.1470   19.3910 C   0  0  0  0  0  0  0  0  0  0  0  0
  -32.5450  -24.5020   18.2260 C   0  0  0  0  0  3  0  0  0  0  0  0
  -33.2860  -23.4530   17.6390 C   0  0  0  0  0  3  0  0  0  0  0  0
  -34.5120  -23.0430   18.2150 C   0  0  0  0  0  0  0  0  0  0  0  0
  -34.9630  -23.6710   19.3890 C   0  0  0  0  0  3  0  0  0  0  0  0
  -34.2210  -24.7100   19.9750 C   0  0  0  0  0  3  0  0  0  0  0  0
  -35.2860  -22.0170   17.7310 O   0  0  0  0  0  0  0  0  0  0  0  0
  -35.5990  -21.9180   16.3990 C   0  0  0  0  0  0  0  0  0  0  0  0
  -36.3310  -22.9240   15.7280 C   0  0  0  0  0  3  0  0  0  0  0  0
  -36.6870  -22.7530   14.3750 C   0  0  0  0  0  3  0  0  0  0  0  0
  -36.3270  -21.5730   13.6960 C   0  0  0  0  0  0  0  0  0  0  0  0
  -35.6050  -20.5680   14.3630 C   0  0  0  0  0  3  0  0  0  0  0  0
  -35.2460  -20.7380   15.7120 C   0  0  0  0  0  0  0  0  0  0  0  0
  -34.5700  -19.7580   16.3580 F   0  0  0  0  0  0  0  0  0  0  0  0
  -36.6760  -21.4030   12.3990 F   0  0  0  0  0  0  0  0  0  0  0  0
  -34.0060  -28.2200   20.0370 C   0  0  0  0  0  0  0  0  0  0  0  0
  -34.5080  -28.0800   18.8170 N   0  0  0  0  0  0  0  0  0  0  0  0
  -34.5910  -28.8820   20.8930 O   0  0  0  0  0  0  0  0  0  0  0  0
  -34.0170  -27.5560   18.1070 H   0  0  0  0  0  0  0  0  0  0  0  0
  -35.3940  -28.5060   18.5860 H   0  0  0  0  0  0  0  0  0  0  0  0
  -31.4230  -29.3990   21.5790 N   0  0  0  0  0  0  0  0  0  0  0  0
  -32.1070  -30.1500   21.5550 H   0  0  0  0  0  0  0  0  0  0  0  0
  -30.5870  -29.6490   22.0910 H   0  0  0  0  0  0  0  0  0  0  0  0
  1  2  1  0
  2  4  2  0
  3  2  1  0
  3  6  1  0
  5  3  1  0
  6  7  1  0
  8  7  1  0
  9  8  1  0
 10  9  1  0
 11 10  1  0
 12 11  1  0
 13 14  2  0
 13 12  1  0
 15 13  1  0
 16 26  1  0
 17 15  1  0
 18 25  1  0
 18 28  1  0
 18 26  1  0
 19 21  2  0
 19 24  1  0
 20 21  1  0
 21 22  1  0
 22 17  2  0
 23 17  1  0
 24 23  2  0
 25 19  1  0
 26 20  1  0
 27 16  2  0
 28 30  2  0
 29 28  1  0
 31 29  1  0
 32 36  1  0
 32 37  1  0
 33 29  1  0
 33 34  1  0
 35 34  1  0
 36 35  1  0
 37 33  1  0
 38 37  2  0
 39 38  1  0
 40 41  1  0
 40 39  2  0
 41 32  2  0
 42 16  1  0
 42 43  1  0
 43 46  1  1
 43 45  1  0
 44 43  1  0
 47 42  1  0
 48 49  2  0
 48 47  1  0
 50 47  1  0
 52 51  1  0
 52 54  1  0
 52 48  1  0
 54 53  1  0
 55 54  1  0
 56 57  1  0
 57  1  1  0
 57 59  1  0
 58 56  2  0
 60 62  2  0
 60 56  1  0
 61 63  1  0
 61 60  1  0
 64 61  1  0
 65 64  1  0
 66 67  1  0
 66 65  1  0
 67 68  1  0
 68 69  1  0
 69 70  1  0
 70 71  1  0
 71 72  1  0
 72 81  1  0
 73 79  1  0
 73 80  2  0
 74 75  1  0
 76 75  1  0
 77 78  1  0
 77 76  1  0
 78 79  1  0
 79 74  1  0
 81 73  1  0
 82 81  1  0
 83 86  1  0
 83108  1  0
 84 83  2  0
 85 84  1  0
 85 87  2  0
 86 77  1  0
 87 86  1  0
 88 93  1  0
 88 85  1  0
 89 88  2  0
 90 91  2  0
 90 89  1  0
 91 92  1  0
 92 93  2  0
 94 91  1  0
 95 94  1  0
 96 95  1  0
 97 96  2  0
 98 99  2  0
 98 97  1  0
 99100  1  0
100101  1  0
100 95  2  0
102 98  1  0
103 84  1  0
103105  2  0
104103  1  0
106104  1  0
107104  1  0
108110  1  0
109108  1  0
M  ISO  4  13 101  15 101  73 100  81 100
M  END
>  <TORSDO>  (32) 
F 36

>  <SCORE>  (32) 
-3.023

>  <name>  (32) 
33

>  <ligand_id>  (32) 
33

>  <original_smiles>  (32) 
[H]c1c([H])c([H])c2c(c1[H])C([H])([H])C([H])([H])C([H])([H])C2([H])N([H])C(=O)C1([H])N(C(=O)C([H])(N([H])C(=O)C([H])(N([H])C([H])([H])[H])C([H])([H])[H])C(C([H])([H])[H])(C([H])([H])[H])C([H])([H])[H])C([H])([H])c2c([H])c(OC(=O)C([H])([H])OC([H])([H])C([H])([H])OC([H])([H])C([H])([H])N([H])C(=O)C([H])([H])N([H])C(=O)C(=O)N([H])C([H])([H])C([H])([H])OC([H])([H])C([H])([H])OC([H])([H])C([H])([H])C([H])([H])N([H])C(=O)N3C([H])([H])C([H])([H])C([H])([H])C([H])(n4nc(-c5c([H])c([H])c(Oc6c([H])c([H])c(F)c([H])c6F)c([H])c5[H])c(C(=O)N([H])[H])c4N([H])[H])C3([H])[H])c([H])c([H])c2C1([H])[H]

>  <smiles>  (32) 
[H]c1c([H])c([H])c2c(c1[H])C([H])([H])C([H])([H])C([H])([H])C2([H])N([H])C(=O)C1([H])N(C(=O)C([H])(N([H])C(=O)C([H])(N([H])C([H])([H])[H])C([H])([H])[H])C(C([H])([H])[H])(C([H])([H])[H])C([H])([H])[H])C([H])([H])c2c([H])c(OC(=O)C([H])([H])OC([H])([H])C([H])([H])OC([H])([H])C([H])([H])N([H])C(=O)C([H])([H])N([H])C(=O)C(=O)N([H])C([H])([H])C([H])([H])OC([H])([H])C([H])([H])OC([H])([H])C([H])([H])C([H])([H])N([H])C(=O)N3C([H])([H])C([H])([H])C([H])([H])C([H])(n4nc(-c5c([H])c([H])c(Oc6c([H])c([H])c(F)c([H])c6F)c([H])c5[H])c(C(=O)N([H])[H])c4N([H])[H])C3([H])[H])c([H])c([H])c2C1([H])[H]

$$$$
34:0:0
     RDKit          3D

105112  0  0  1  0  0  0  0  0999 V2000
  -21.9190  -23.4270   23.9180 C   0  0  0  0  0  2  0  0  0  0  0  0
  -23.1720  -23.8300   24.5990 N   0  0  0  0  0  4  0  0  0  0  0  0
  -22.9770  -24.0970   25.5510 H   0  0  0  0  0  0  0  0  0  0  0  0
  -23.7960  -23.0350   24.6660 H   0  0  0  0  0  0  0  0  0  0  0  0
  -24.0040  -24.8740   23.9600 C   0  0  0  0  0  2  0  0  0  0  0  0
  -25.4580  -24.3880   23.9680 C   0  0  0  0  0  0  0  0  0  0  0  0
  -26.3850  -25.1170   23.3320 N   0  0  0  0  0  0  0  0  0  0  0  0
  -25.7320  -23.3300   24.5440 O   0  0  0  0  0  0  0  0  0  0  0  0
  -26.1020  -25.9960   22.9190 H   0  0  0  0  0  0  0  0  0  0  0  0
  -27.7980  -24.7410   23.2290 C   0  0  0  0  0  2  0  0  0  0  0  0
  -28.5610  -25.7080   22.3030 C   0  0  0  0  0  2  0  0  0  0  0  0
  -28.2530  -25.5030   20.8080 C   0  0  0  0  0  2  0  0  0  0  0  0
  -28.3830  -26.7420   20.1050 O   0  0  0  0  0  0  0  0  0  0  0  0
  -24.6110  -31.8750   23.2170 C   0  0  0  0  0  0  0  0  0  0  0  0
  -27.2270  -27.4810   20.0920 C   0  0  0  0  0  0  0  0  0  0  0  0
  -23.3980  -30.5040   21.5530 C   0  0  0  0  0  3  0  0  0  0  0  0
  -24.8410  -28.9790   20.1150 C   0  0  0  0  0  0  0  0  0  0  0  0
  -25.9220  -30.8570   21.3630 C   0  0  0  0  0  2  0  0  0  0  0  0
  -26.0010  -29.4990   20.7030 C   0  0  0  0  0  0  0  0  0  0  0  0
  -27.2010  -28.7590   20.6870 C   0  0  0  0  0  3  0  0  0  0  0  0
  -26.0550  -26.9720   19.4910 C   0  0  0  0  0  3  0  0  0  0  0  0
  -24.8600  -27.7110   19.5090 C   0  0  0  0  0  3  0  0  0  0  0  0
  -23.6040  -29.8430   20.1650 C   0  0  0  0  0  2  0  0  0  0  0  0
  -24.6620  -31.0890   22.1050 N   0  0  0  0  0  0  0  0  0  0  0  0
  -23.5300  -32.1520   23.7530 O   0  0  0  0  0  0  0  0  0  0  0  0
  -22.7370  -29.4730   22.4950 C   0  0  0  0  0  0  0  0  0  0  0  0
  -21.4100  -29.3160   22.3630 N   0  0  0  0  0  0  0  0  0  0  0  0
  -23.4110  -28.8180   23.2960 O   0  0  0  0  0  0  0  0  0  0  0  0
  -20.9310  -29.8920   21.6830 H   0  0  0  0  0  0  0  0  0  0  0  0
  -18.0230  -28.1450   22.8480 C   0  0  0  0  0  0  0  0  0  0  0  0
  -20.5820  -28.3840   23.1240 C   0  0  0  0  0  3  0  0  0  0  0  0
  -20.6710  -26.9570   22.5410 C   0  0  0  0  0  2  0  0  0  0  0  0
  -19.5720  -26.6550   21.5190 C   0  0  0  0  0  2  0  0  0  0  0  0
  -18.1870  -26.8000   22.1600 C   0  0  0  0  0  2  0  0  0  0  0  0
  -19.1480  -28.8950   23.2850 C   0  0  0  0  0  0  0  0  0  0  0  0
  -18.9420  -30.1530   23.8900 C   0  0  0  0  0  3  0  0  0  0  0  0
  -17.6430  -30.6620   24.0670 C   0  0  0  0  0  3  0  0  0  0  0  0
  -16.5310  -29.9140   23.6420 C   0  0  0  0  0  3  0  0  0  0  0  0
  -16.7210  -28.6600   23.0360 C   0  0  0  0  0  3  0  0  0  0  0  0
  -25.9040  -32.4830   23.8480 C   0  0  0  0  0  3  0  0  0  0  0  0
  -26.4450  -31.6570   25.0800 C   0  0  1  0  0  0  0  0  0  0  0  0
  -25.3710  -31.3600   26.1490 C   0  0  0  0  0  1  0  0  0  0  0  0
  -27.0270  -30.3010   24.6170 C   0  0  0  0  0  1  0  0  0  0  0  0
  -27.6040  -32.4290   25.7540 C   0  0  0  0  0  1  0  0  0  0  0  0
  -25.5930  -33.8640   24.2430 N   0  0  0  0  0  0  0  0  0  0  0  0
  -25.9020  -34.9490   23.5200 C   0  0  0  0  0  0  0  0  0  0  0  0
  -26.5520  -34.8900   22.4710 O   0  0  0  0  0  0  0  0  0  0  0  0
  -25.0180  -33.9830   25.0640 H   0  0  0  0  0  0  0  0  0  0  0  0
  -24.1470  -36.7310   23.2640 C   0  0  0  0  0  1  0  0  0  0  0  0
  -25.4080  -36.3130   24.0380 C   0  0  0  0  0  3  0  0  0  0  0  0
  -27.5570  -37.1810   24.8450 C   0  0  0  0  0  1  0  0  0  0  0  0
  -26.4280  -37.3790   23.9420 N   0  0  0  0  0  0  0  0  0  0  0  0
  -26.0210  -38.2890   24.1450 H   0  0  0  0  0  0  0  0  0  0  0  0
  -22.1460  -22.9400   22.4700 C   0  0  0  0  0  2  0  0  0  0  0  0
  -21.1700  -21.8430   22.0000 C   0  0  0  0  0  2  0  0  0  0  0  0
  -21.4090  -21.3810   20.5460 C   0  0  0  0  0  2  0  0  0  0  0  0
  -23.5500  -20.1450   20.6770 C   0  0  0  0  0  0  0  0  0  0  0  0
  -22.8310  -21.1940   20.2670 N   0  0  0  0  0  0  0  0  0  0  0  0
  -23.0230  -19.1350   21.1530 O   0  0  0  0  0  0  0  0  0  0  0  0
  -23.3320  -21.9670   19.8450 H   0  0  0  0  0  0  0  0  0  0  0  0
  -25.0790  -20.2630   20.5990 C   0  0  0  0  0  2  0  0  0  0  0  0
  -25.6330  -19.0690   21.1270 O   0  0  0  0  0  0  0  0  0  0  0  0
  -27.0440  -19.0340   21.2260 C   0  0  0  0  0  2  0  0  0  0  0  0
  -27.3790  -17.5540   21.4780 C   0  0  0  0  0  2  0  0  0  0  0  0
  -28.5320  -17.3340   22.2750 O   0  0  0  0  0  0  0  0  0  0  0  0
  -29.7520  -17.6370   21.6150 C   0  0  0  0  0  2  0  0  0  0  0  0
  -30.7660  -16.5390   21.9570 C   0  0  0  0  0  2  0  0  0  0  0  0
  -30.7570  -14.3900   20.6740 C   0  0  0  0  0  0  0  0  0  0  0  0
  -30.4190  -12.2960   19.4110 C   0  0  0  0  0  2  0  0  0  0  0  0
  -29.4910  -12.5200   18.2020 C   0  0  0  0  0  2  0  0  0  0  0  0
  -28.0160  -12.3720   18.6220 C   0  0  0  0  0  2  0  0  0  0  0  0
  -27.6670  -13.2010   19.8850 C   0  0  0  0  0  3  0  0  0  0  0  0
  -28.7040  -12.9560   21.0030 C   0  0  0  0  0  2  0  0  0  0  0  0
  -30.0430  -13.2530   20.4620 N   0  0  0  0  0  0  0  0  0  0  0  0
  -31.7990  -14.6600   20.0730 O   0  0  0  0  0  0  0  0  0  0  0  0
  -30.2440  -15.2240   21.5850 N   0  0  0  0  0  0  0  0  0  0  0  0
  -29.3760  -14.9490   22.0220 H   0  0  0  0  0  0  0  0  0  0  0  0
  -25.2550  -13.8030   20.5540 C   0  0  0  0  0  0  0  0  0  0  0  0
  -24.1850  -13.0370   20.9170 C   0  0  0  0  0  0  0  0  0  0  0  0
  -24.6410  -11.6820   20.8770 C   0  0  0  0  0  0  0  0  0  0  0  0
  -26.3050  -12.9250   20.3400 N   0  0  0  0  0  0  0  0  0  0  0  0
  -25.9340  -11.6400   20.5830 N   0  0  0  0  0  0  0  0  0  0  0  0
  -23.9060  -10.4230   21.0420 C   0  0  0  0  0  0  0  0  0  0  0  0
  -24.3620   -9.4150   21.9200 C   0  0  0  0  0  3  0  0  0  0  0  0
  -23.6300   -8.2180   22.0770 C   0  0  0  0  0  3  0  0  0  0  0  0
  -22.4280   -8.0230   21.3570 C   0  0  0  0  0  0  0  0  0  0  0  0
  -21.9890   -9.0220   20.4700 C   0  0  0  0  0  3  0  0  0  0  0  0
  -22.7220  -10.2090   20.3090 C   0  0  0  0  0  3  0  0  0  0  0  0
  -21.6640   -6.8830   21.4240 O   0  0  0  0  0  0  0  0  0  0  0  0
  -21.6840   -6.0690   22.5280 C   0  0  0  0  0  0  0  0  0  0  0  0
  -21.4010   -6.5620   23.8210 C   0  0  0  0  0  3  0  0  0  0  0  0
  -21.3690   -5.6790   24.9190 C   0  0  0  0  0  3  0  0  0  0  0  0
  -21.6050   -4.3040   24.7240 C   0  0  0  0  0  0  0  0  0  0  0  0
  -21.8820   -3.8130   23.4370 C   0  0  0  0  0  3  0  0  0  0  0  0
  -21.9210   -4.6930   22.3410 C   0  0  0  0  0  0  0  0  0  0  0  0
  -22.1670   -4.2130   21.0990 F   0  0  0  0  0  0  0  0  0  0  0  0
  -21.5650   -3.4530   25.7750 F   0  0  0  0  0  0  0  0  0  0  0  0
  -22.7850  -13.5150   21.1820 C   0  0  0  0  0  0  0  0  0  0  0  0
  -22.0510  -12.8120   22.0350 N   0  0  0  0  0  0  0  0  0  0  0  0
  -22.3520  -14.5450   20.6650 O   0  0  0  0  0  0  0  0  0  0  0  0
  -22.4150  -11.9800   22.4770 H   0  0  0  0  0  0  0  0  0  0  0  0
  -21.1080  -13.1050   22.2480 H   0  0  0  0  0  0  0  0  0  0  0  0
  -25.4190  -15.1690   20.3620 N   0  0  0  0  0  0  0  0  0  0  0  0
  -24.6310  -15.8070   20.3950 H   0  0  0  0  0  0  0  0  0  0  0  0
  -26.2440  -15.5650   19.9330 H   0  0  0  0  0  0  0  0  0  0  0  0
  1  2  1  0
  2  4  1  0
  2  3  1  0
  5  6  1  0
  5  2  1  0
  6  8  2  0
  7  6  1  0
  9  7  1  0
 10  7  1  0
 11 10  1  0
 12 11  1  0
 13 12  1  0
 14 25  2  0
 15 13  1  0
 15 20  1  0
 16 24  1  0
 16 26  1  0
 17 23  1  0
 17 19  1  0
 18 24  1  0
 19 18  1  0
 20 19  2  0
 21 22  1  0
 21 15  2  0
 22 17  2  0
 23 16  1  0
 24 14  1  0
 26 28  2  0
 27 26  1  0
 29 27  1  0
 30 39  2  0
 30 35  1  0
 31 27  1  0
 31 35  1  0
 32 31  1  0
 33 34  1  0
 33 32  1  0
 34 30  1  0
 35 36  2  0
 36 37  1  0
 38 37  2  0
 39 38  1  0
 40 14  1  0
 40 45  1  0
 40 41  1  0
 41 44  1  1
 41 42  1  0
 43 41  1  0
 45 48  1  0
 46 50  1  0
 46 45  1  0
 47 46  2  0
 50 49  1  0
 52 50  1  0
 52 53  1  0
 52 51  1  0
 54  1  1  0
 55 54  1  0
 56 55  1  0
 57 59  2  0
 58 56  1  0
 58 57  1  0
 60 58  1  0
 61 57  1  0
 61 62  1  0
 62 63  1  0
 63 64  1  0
 64 65  1  0
 66 67  1  0
 66 65  1  0
 68 76  1  0
 69 74  1  0
 70 71  1  0
 70 69  1  0
 72 71  1  0
 72 81  1  0
 72 73  1  0
 74 68  1  0
 74 73  1  0
 75 68  2  0
 76 67  1  0
 76 77  1  0
 78 79  2  0
 79 98  1  0
 80 79  1  0
 80 83  1  0
 81 78  1  0
 81 82  1  0
 82 80  2  0
 83 84  1  0
 84 85  2  0
 86 89  1  0
 86 85  1  0
 87 86  2  0
 88 87  1  0
 88 83  2  0
 89 90  1  0
 90 91  1  0
 91 92  2  0
 93 92  1  0
 93 97  1  0
 94 93  2  0
 95 90  2  0
 95 94  1  0
 96 95  1  0
 98 99  1  0
 99102  1  0
 99101  1  0
100 98  2  0
103104  1  0
103 78  1  0
105103  1  0
M  ISO  4  12 101  13 101  68 100  76 100
M  END
>  <TORSDO>  (33) 
F 33

>  <SCORE>  (33) 
25.161

>  <name>  (33) 
34

>  <ligand_id>  (33) 
34

>  <original_smiles>  (33) 
[H]c1c([H])c([H])c2c(c1[H])C([H])([H])C([H])([H])C([H])([H])C2([H])N([H])C(=O)C1([H])N(C(=O)C([H])(N([H])C(=O)C([H])(N([H])C([H])([H])[H])C([H])([H])[H])C(C([H])([H])[H])(C([H])([H])[H])C([H])([H])[H])C([H])([H])c2c([H])c(OC([H])([H])C([H])([H])C([H])([H])N([H])C(=O)C([H])([H])[N+]([H])([H])C([H])([H])C([H])([H])C([H])([H])C([H])([H])N([H])C(=O)C([H])([H])OC([H])([H])C([H])([H])OC([H])([H])C([H])([H])N([H])C(=O)N3C([H])([H])C([H])([H])C([H])([H])C([H])(n4nc(-c5c([H])c([H])c(Oc6c([H])c([H])c(F)c([H])c6F)c([H])c5[H])c(C(=O)N([H])[H])c4N([H])[H])C3([H])[H])c([H])c([H])c2C1([H])[H]

>  <smiles>  (33) 
[H]c1c([H])c([H])c2c(c1[H])C([H])([H])C([H])([H])C([H])([H])C2([H])N([H])C(=O)C1([H])N(C(=O)C([H])(N([H])C(=O)C([H])(N([H])C([H])([H])[H])C([H])([H])[H])C(C([H])([H])[H])(C([H])([H])[H])C([H])([H])[H])C([H])([H])c2c([H])c(OC([H])([H])C([H])([H])C([H])([H])N([H])C(=O)C([H])([H])[N+]([H])([H])C([H])([H])C([H])([H])C([H])([H])C([H])([H])N([H])C(=O)C([H])([H])OC([H])([H])C([H])([H])OC([H])([H])C([H])([H])N([H])C(=O)N3C([H])([H])C([H])([H])C([H])([H])C([H])(n4nc(-c5c([H])c([H])c(Oc6c([H])c([H])c(F)c([H])c6F)c([H])c5[H])c(C(=O)N([H])[H])c4N([H])[H])C3([H])[H])c([H])c([H])c2C1([H])[H]

$$$$
35:0:0
     RDKit          3D

 93100  0  0  1  0  0  0  0  0999 V2000
  -27.3650  -22.7200   20.8430 C   0  0  0  0  0  0  0  0  0  0  0  0
  -27.4500  -21.5570   20.1880 N   0  0  0  0  0  0  0  0  0  0  0  0
  -27.5980  -22.8210   22.0510 O   0  0  0  0  0  0  0  0  0  0  0  0
  -27.1960  -21.5580   19.2080 H   0  0  0  0  0  0  0  0  0  0  0  0
  -28.0200  -20.3220   20.7230 C   0  0  0  0  0  2  0  0  0  0  0  0
  -29.5350  -20.4590   20.9700 C   0  0  0  0  0  2  0  0  0  0  0  0
  -30.2720  -21.1460   19.8060 C   0  0  0  0  0  2  0  0  0  0  0  0
  -31.6170  -21.7690   20.2080 C   0  0  0  0  0  2  0  0  0  0  0  0
  -32.6600  -21.5400   19.1080 C   0  0  0  0  0  2  0  0  0  0  0  0
  -34.1160  -21.7120   19.5570 C   0  0  0  0  0  2  0  0  0  0  0  0
  -35.9650  -20.1000   19.1610 C   0  0  0  0  0  0  0  0  0  0  0  0
  -36.5430  -17.7280   19.4170 C   0  0  0  0  0  2  0  0  0  0  0  0
  -35.9930  -16.9410   18.2130 C   0  0  0  0  0  2  0  0  0  0  0  0
  -34.5400  -16.4920   18.4680 C   0  0  0  0  0  2  0  0  0  0  0  0
  -33.6370  -17.6490   18.9750 C   0  0  0  0  0  3  0  0  0  0  0  0
  -34.3270  -18.4230   20.1210 C   0  0  0  0  0  2  0  0  0  0  0  0
  -35.6460  -18.8700   19.6430 N   0  0  0  0  0  0  0  0  0  0  0  0
  -37.0950  -20.4080   18.7860 O   0  0  0  0  0  0  0  0  0  0  0  0
  -34.9490  -20.8500   18.7300 N   0  0  0  0  0  0  0  0  0  0  0  0
  -35.2410  -21.3460   17.9010 H   0  0  0  0  0  0  0  0  0  0  0  0
  -31.1960  -17.8780   19.7640 C   0  0  0  0  0  0  0  0  0  0  0  0
  -30.2040  -16.9530   19.9480 C   0  0  0  0  0  0  0  0  0  0  0  0
  -30.7840  -15.6860   19.6360 C   0  0  0  0  0  0  0  0  0  0  0  0
  -32.3160  -17.1630   19.3690 N   0  0  0  0  0  0  0  0  0  0  0  0
  -32.0700  -15.8270   19.3430 N   0  0  0  0  0  0  0  0  0  0  0  0
  -30.1720  -14.3510   19.5420 C   0  0  0  0  0  0  0  0  0  0  0  0
  -30.3980  -13.3650   20.5280 C   0  0  0  0  0  3  0  0  0  0  0  0
  -29.7830  -12.0980   20.4250 C   0  0  0  0  0  3  0  0  0  0  0  0
  -28.9320  -11.8070   19.3300 C   0  0  0  0  0  0  0  0  0  0  0  0
  -28.7320  -12.7850   18.3410 C   0  0  0  0  0  3  0  0  0  0  0  0
  -29.3470  -14.0450   18.4420 C   0  0  0  0  0  3  0  0  0  0  0  0
  -28.3140  -10.5970   19.1330 O   0  0  0  0  0  0  0  0  0  0  0  0
  -27.6930   -9.9310   20.1600 C   0  0  0  0  0  0  0  0  0  0  0  0
  -26.5910  -10.4840   20.8500 C   0  0  0  0  0  3  0  0  0  0  0  0
  -25.9380   -9.7380   21.8490 C   0  0  0  0  0  3  0  0  0  0  0  0
  -26.3810   -8.4370   22.1580 C   0  0  0  0  0  0  0  0  0  0  0  0
  -27.4750   -7.8830   21.4720 C   0  0  0  0  0  3  0  0  0  0  0  0
  -28.1270   -8.6280   20.4730 C   0  0  0  0  0  0  0  0  0  0  0  0
  -29.1660   -8.0810   19.7980 F   0  0  0  0  0  0  0  0  0  0  0  0
  -25.7500   -7.7160   23.1150 F   0  0  0  0  0  0  0  0  0  0  0  0
  -28.7720  -17.2350   20.3000 C   0  0  0  0  0  0  0  0  0  0  0  0
  -28.1240  -16.3200   21.0140 N   0  0  0  0  0  0  0  0  0  0  0  0
  -28.2330  -18.2960   19.9880 O   0  0  0  0  0  0  0  0  0  0  0  0
  -28.5700  -15.4550   21.2830 H   0  0  0  0  0  0  0  0  0  0  0  0
  -27.1680  -16.4840   21.2920 H   0  0  0  0  0  0  0  0  0  0  0  0
  -31.2250  -19.2640   19.8800 N   0  0  0  0  0  0  0  0  0  0  0  0
  -30.4050  -19.7990   20.1400 H   0  0  0  0  0  0  0  0  0  0  0  0
  -32.0350  -19.8410   19.6980 H   0  0  0  0  0  0  0  0  0  0  0  0
  -27.0080  -23.9550   20.0070 C   0  0  0  0  0  2  0  0  0  0  0  0
  -27.5930  -25.1230   20.5740 O   0  0  0  0  0  0  0  0  0  0  0  0
  -28.0630  -26.0210   19.5800 C   0  0  0  0  0  2  0  0  0  0  0  0
  -28.7450  -27.2290   20.2460 C   0  0  0  0  0  2  0  0  0  0  0  0
  -28.4770  -28.4300   19.5310 O   0  0  0  0  0  0  0  0  0  0  0  0
  -24.8420  -32.1770   24.3630 C   0  0  0  0  0  0  0  0  0  0  0  0
  -27.2980  -29.0330   19.8780 C   0  0  0  0  0  0  0  0  0  0  0  0
  -23.5190  -31.2550   22.4860 C   0  0  0  0  0  3  0  0  0  0  0  0
  -24.8690  -30.2950   20.5470 C   0  0  0  0  0  0  0  0  0  0  0  0
  -25.9980  -31.8050   22.1900 C   0  0  0  0  0  2  0  0  0  0  0  0
  -26.0590  -30.6910   21.1700 C   0  0  0  0  0  0  0  0  0  0  0  0
  -27.2770  -30.0610   20.8420 C   0  0  0  0  0  3  0  0  0  0  0  0
  -26.0980  -28.6520   19.2440 C   0  0  0  0  0  3  0  0  0  0  0  0
  -24.8780  -29.2730   19.5830 C   0  0  0  0  0  3  0  0  0  0  0  0
  -23.6100  -31.0240   20.9530 C   0  0  0  0  0  2  0  0  0  0  0  0
  -24.8100  -31.7430   23.0720 N   0  0  0  0  0  0  0  0  0  0  0  0
  -23.8130  -32.2150   25.0500 O   0  0  0  0  0  0  0  0  0  0  0  0
  -22.9990  -29.9590   23.1460 C   0  0  0  0  0  0  0  0  0  0  0  0
  -21.7510  -29.5830   22.8200 N   0  0  0  0  0  0  0  0  0  0  0  0
  -23.7150  -29.3040   23.9070 O   0  0  0  0  0  0  0  0  0  0  0  0
  -21.2250  -30.1810   22.2000 H   0  0  0  0  0  0  0  0  0  0  0  0
  -18.7750  -27.5840   22.3950 C   0  0  0  0  0  0  0  0  0  0  0  0
  -21.0670  -28.3780   23.2860 C   0  0  0  0  0  3  0  0  0  0  0  0
  -21.6510  -27.1110   22.6230 C   0  0  0  0  0  2  0  0  0  0  0  0
  -20.9030  -26.6960   21.3520 C   0  0  0  0  0  2  0  0  0  0  0  0
  -19.4280  -26.4250   21.6610 C   0  0  0  0  0  2  0  0  0  0  0  0
  -19.5460  -28.5110   23.1450 C   0  0  0  0  0  0  0  0  0  0  0  0
  -18.8920  -29.5920   23.7760 C   0  0  0  0  0  3  0  0  0  0  0  0
  -17.4980  -29.7520   23.6720 C   0  0  0  0  0  3  0  0  0  0  0  0
  -16.7380  -28.8220   22.9410 C   0  0  0  0  0  3  0  0  0  0  0  0
  -17.3760  -27.7400   22.3080 C   0  0  0  0  0  3  0  0  0  0  0  0
  -26.1660  -32.6660   25.0300 C   0  0  0  0  0  3  0  0  0  0  0  0
  -26.5840  -31.8070   26.2840 C   0  0  1  0  0  0  0  0  0  0  0  0
  -25.4320  -31.5730   27.2870 C   0  0  0  0  0  1  0  0  0  0  0  0
  -27.1150  -30.4230   25.8450 C   0  0  0  0  0  1  0  0  0  0  0  0
  -27.7400  -32.5060   27.0360 C   0  0  0  0  0  1  0  0  0  0  0  0
  -25.9800  -34.0750   25.3980 N   0  0  0  0  0  0  0  0  0  0  0  0
  -26.4250  -35.1130   24.6790 C   0  0  0  0  0  0  0  0  0  0  0  0
  -27.1060  -34.9790   23.6590 O   0  0  0  0  0  0  0  0  0  0  0  0
  -25.3850  -34.2610   26.1930 H   0  0  0  0  0  0  0  0  0  0  0  0
  -24.8720  -37.0620   24.3480 C   0  0  0  0  0  1  0  0  0  0  0  0
  -26.0540  -36.5250   25.1700 C   0  0  0  0  0  3  0  0  0  0  0  0
  -28.2380  -37.1930   26.0750 C   0  0  0  0  0  1  0  0  0  0  0  0
  -27.1800  -37.4830   25.1090 N   0  0  0  0  0  0  0  0  0  0  0  0
  -26.8550  -38.4330   25.2700 H   0  0  0  0  0  0  0  0  0  0  0  0
  1  3  2  0
  2  5  1  0
  2  1  1  0
  4  2  1  0
  5  6  1  0
  7  8  1  0
  7  6  1  0
  9 10  1  0
  9  8  1  0
 11 17  1  0
 12 17  1  0
 13 14  1  0
 13 12  1  0
 15 14  1  0
 15 24  1  0
 15 16  1  0
 17 16  1  0
 18 11  2  0
 19 11  1  0
 19 10  1  0
 20 19  1  0
 21 46  1  0
 21 22  2  0
 22 41  1  0
 23 22  1  0
 24 21  1  0
 25 24  1  0
 25 23  2  0
 26 23  1  0
 26 27  1  0
 28 27  2  0
 29 28  1  0
 30 31  1  0
 30 29  2  0
 31 26  2  0
 32 29  1  0
 32 33  1  0
 33 38  2  0
 33 34  1  0
 34 35  2  0
 35 36  1  0
 36 40  1  0
 37 36  2  0
 38 37  1  0
 39 38  1  0
 41 42  1  0
 42 44  1  0
 42 45  1  0
 43 41  2  0
 46 47  1  0
 48 46  1  0
 49 50  1  0
 49  1  1  0
 51 52  1  0
 51 50  1  0
 53 55  1  0
 53 52  1  0
 54 65  2  0
 55 60  1  0
 56 64  1  0
 56 66  1  0
 57 63  1  0
 57 59  1  0
 58 64  1  0
 59 58  1  0
 60 59  2  0
 61 62  1  0
 61 55  2  0
 62 57  2  0
 63 56  1  0
 64 54  1  0
 66 68  2  0
 67 66  1  0
 69 67  1  0
 70 75  1  0
 71 67  1  0
 72 71  1  0
 73 74  1  0
 73 72  1  0
 74 70  1  0
 75 71  1  0
 75 76  2  0
 77 76  1  0
 78 77  2  0
 79 70  2  0
 79 78  1  0
 80 54  1  0
 80 85  1  0
 80 81  1  0
 81 84  1  1
 81 82  1  0
 83 81  1  0
 85 88  1  0
 86 90  1  0
 86 85  1  0
 87 86  2  0
 90 89  1  0
 92 90  1  0
 92 93  1  0
 92 91  1  0
M  ISO  4  11 100  19 100  52 101  53 101
M  END
>  <TORSDO>  (34) 
F 26

>  <SCORE>  (34) 
-3.904

>  <name>  (34) 
35

>  <ligand_id>  (34) 
35

>  <original_smiles>  (34) 
[H]c1c([H])c([H])c2c(c1[H])C([H])([H])C([H])([H])C([H])([H])C2([H])N([H])C(=O)C1([H])N(C(=O)C([H])(N([H])C(=O)C([H])(N([H])C([H])([H])[H])C([H])([H])[H])C(C([H])([H])[H])(C([H])([H])[H])C([H])([H])[H])C([H])([H])c2c([H])c(OC([H])([H])C([H])([H])OC([H])([H])C(=O)N([H])C([H])([H])C([H])([H])C([H])([H])C([H])([H])C([H])([H])C([H])([H])N([H])C(=O)N3C([H])([H])C([H])([H])C([H])([H])C([H])(n4nc(-c5c([H])c([H])c(Oc6c([H])c([H])c(F)c([H])c6F)c([H])c5[H])c(C(=O)N([H])[H])c4N([H])[H])C3([H])[H])c([H])c([H])c2C1([H])[H]

>  <smiles>  (34) 
[H]c1c([H])c([H])c2c(c1[H])C([H])([H])C([H])([H])C([H])([H])C2([H])N([H])C(=O)C1([H])N(C(=O)C([H])(N([H])C(=O)C([H])(N([H])C([H])([H])[H])C([H])([H])[H])C(C([H])([H])[H])(C([H])([H])[H])C([H])([H])[H])C([H])([H])c2c([H])c(OC([H])([H])C([H])([H])OC([H])([H])C(=O)N([H])C([H])([H])C([H])([H])C([H])([H])C([H])([H])C([H])([H])C([H])([H])N([H])C(=O)N3C([H])([H])C([H])([H])C([H])([H])C([H])(n4nc(-c5c([H])c([H])c(Oc6c([H])c([H])c(F)c([H])c6F)c([H])c5[H])c(C(=O)N([H])[H])c4N([H])[H])C3([H])[H])c([H])c([H])c2C1([H])[H]

$$$$
36:0:0
     RDKit          3D

110117  0  0  1  0  0  0  0  0999 V2000
  -33.7910  -18.6390   13.7600 C   0  0  0  0  0  0  0  0  0  0  0  0
  -32.7180  -18.6820   12.9600 N   0  0  0  0  0  0  0  0  0  0  0  0
  -34.2300  -17.5890   14.2360 O   0  0  0  0  0  0  0  0  0  0  0  0
  -32.4210  -19.5900   12.6270 H   0  0  0  0  0  0  0  0  0  0  0  0
  -31.9440  -17.5340   12.4940 C   0  0  0  0  0  2  0  0  0  0  0  0
  -31.0370  -16.9030   13.5740 C   0  0  0  0  0  2  0  0  0  0  0  0
  -30.0820  -17.8800   14.2860 C   0  0  0  0  0  2  0  0  0  0  0  0
  -30.6200  -18.4770   15.6010 C   0  0  0  0  0  2  0  0  0  0  0  0
  -29.6350  -19.4990   16.1820 C   0  0  0  0  0  2  0  0  0  0  0  0
  -30.1530  -20.2660   17.4170 C   0  0  0  0  0  2  0  0  0  0  0  0
  -29.4200  -21.6130   17.5710 C   0  0  0  0  0  2  0  0  0  0  0  0
  -29.9110  -22.5440   18.7050 C   0  0  0  0  0  2  0  0  0  0  0  0
  -29.9860  -24.0110   18.2260 C   0  0  0  0  0  2  0  0  0  0  0  0
  -29.8830  -25.1040   19.3160 C   0  0  0  0  0  2  0  0  0  0  0  0
  -28.4740  -25.7260   19.3810 C   0  0  0  0  0  2  0  0  0  0  0  0
  -28.4190  -26.9270   20.1600 O   0  0  0  0  0  0  0  0  0  0  0  0
  -24.5440  -32.0140   23.3060 C   0  0  0  0  0  0  0  0  0  0  0  0
  -27.2150  -27.6130   20.1820 C   0  0  0  0  0  0  0  0  0  0  0  0
  -23.3400  -30.6160   21.6600 C   0  0  0  0  0  3  0  0  0  0  0  0
  -24.7990  -29.0950   20.2290 C   0  0  0  0  0  0  0  0  0  0  0  0
  -25.8660  -30.9900   21.4610 C   0  0  0  0  0  2  0  0  0  0  0  0
  -25.9560  -29.6220   20.8180 C   0  0  0  0  0  0  0  0  0  0  0  0
  -27.1610  -28.8830   20.7990 C   0  0  0  0  0  3  0  0  0  0  0  0
  -26.0290  -27.0960   19.6030 C   0  0  0  0  0  3  0  0  0  0  0  0
  -24.8300  -27.8290   19.6270 C   0  0  0  0  0  3  0  0  0  0  0  0
  -23.5510  -29.9440   20.2770 C   0  0  0  0  0  2  0  0  0  0  0  0
  -24.6030  -31.2220   22.2000 N   0  0  0  0  0  0  0  0  0  0  0  0
  -23.4610  -32.2740   23.8490 O   0  0  0  0  0  0  0  0  0  0  0  0
  -22.6990  -29.5850   22.6150 C   0  0  0  0  0  0  0  0  0  0  0  0
  -21.3770  -29.3910   22.4830 N   0  0  0  0  0  0  0  0  0  0  0  0
  -23.3870  -28.9610   23.4270 O   0  0  0  0  0  0  0  0  0  0  0  0
  -20.8830  -29.9470   21.7970 H   0  0  0  0  0  0  0  0  0  0  0  0
  -18.0120  -28.1740   22.9830 C   0  0  0  0  0  0  0  0  0  0  0  0
  -20.5690  -28.4450   23.2500 C   0  0  0  0  0  3  0  0  0  0  0  0
  -20.6790  -27.0180   22.6650 C   0  0  0  0  0  2  0  0  0  0  0  0
  -19.5780  -26.6940   21.6520 C   0  0  0  0  0  2  0  0  0  0  0  0
  -18.1960  -26.8280   22.3000 C   0  0  0  0  0  2  0  0  0  0  0  0
  -19.1280  -28.9380   23.4160 C   0  0  0  0  0  0  0  0  0  0  0  0
  -18.9040  -30.1970   24.0130 C   0  0  0  0  0  3  0  0  0  0  0  0
  -17.5980  -30.6940   24.1800 C   0  0  0  0  0  3  0  0  0  0  0  0
  -16.4960  -29.9260   23.7650 C   0  0  0  0  0  3  0  0  0  0  0  0
  -16.7040  -28.6680   23.1720 C   0  0  0  0  0  3  0  0  0  0  0  0
  -25.8270  -32.6500   23.9240 C   0  0  0  0  0  3  0  0  0  0  0  0
  -26.3340  -31.8950   25.2140 C   0  0  1  0  0  0  0  0  0  0  0  0
  -25.2340  -31.6740   26.2790 C   0  0  0  0  0  1  0  0  0  0  0  0
  -26.9210  -30.5100   24.8450 C   0  0  0  0  0  1  0  0  0  0  0  0
  -27.4800  -32.6970   25.8720 C   0  0  0  0  0  1  0  0  0  0  0  0
  -25.5240  -34.0530   24.2330 N   0  0  0  0  0  0  0  0  0  0  0  0
  -25.8670  -35.0900   23.4590 C   0  0  0  0  0  0  0  0  0  0  0  0
  -26.5420  -34.9670   22.4330 O   0  0  0  0  0  0  0  0  0  0  0  0
  -24.9280  -34.2190   25.0310 H   0  0  0  0  0  0  0  0  0  0  0  0
  -24.1480  -36.8820   23.0550 C   0  0  0  0  0  1  0  0  0  0  0  0
  -25.3770  -36.4850   23.8900 C   0  0  0  0  0  3  0  0  0  0  0  0
  -27.5020  -37.3700   24.7380 C   0  0  0  0  0  1  0  0  0  0  0  0
  -26.4140  -37.5330   23.7800 N   0  0  0  0  0  0  0  0  0  0  0  0
  -26.0080  -38.4560   23.9110 H   0  0  0  0  0  0  0  0  0  0  0  0
  -34.4880  -19.9680   14.0660 C   0  0  0  0  0  2  0  0  0  0  0  0
  -34.2230  -20.8090   16.3910 C   0  0  0  0  0  0  0  0  0  0  0  0
  -34.8380  -20.0480   15.4810 N   0  0  0  0  0  0  0  0  0  0  0  0
  -33.3120  -21.5880   16.1010 O   0  0  0  0  0  0  0  0  0  0  0  0
  -35.5550  -19.4080   15.7980 H   0  0  0  0  0  0  0  0  0  0  0  0
  -34.7410  -20.7260   17.8300 C   0  0  0  0  0  2  0  0  0  0  0  0
  -33.0390  -19.7080   19.3350 C   0  0  0  0  0  0  0  0  0  0  0  0
  -33.6720  -20.7730   18.8280 N   0  0  0  0  0  0  0  0  0  0  0  0
  -33.2680  -18.5620   18.9430 O   0  0  0  0  0  0  0  0  0  0  0  0
  -33.4100  -21.6890   19.1650 H   0  0  0  0  0  0  0  0  0  0  0  0
  -32.0260  -19.9710   20.4620 C   0  0  0  0  0  2  0  0  0  0  0  0
  -30.8450  -17.8910   21.1940 C   0  0  0  0  0  0  0  0  0  0  0  0
  -31.8250  -18.7930   21.3100 N   0  0  0  0  0  0  0  0  0  0  0  0
  -29.9350  -17.9920   20.3700 O   0  0  0  0  0  0  0  0  0  0  0  0
  -32.5400  -18.6150   22.0020 H   0  0  0  0  0  0  0  0  0  0  0  0
  -30.8830  -16.7130   22.1770 C   0  0  0  0  0  2  0  0  0  0  0  0
  -30.6180  -14.7990   20.6120 C   0  0  0  0  0  0  0  0  0  0  0  0
  -30.3430  -12.6930   19.3580 C   0  0  0  0  0  2  0  0  0  0  0  0
  -29.3970  -12.8580   18.1540 C   0  0  0  0  0  2  0  0  0  0  0  0
  -27.9340  -12.6390   18.5820 C   0  0  0  0  0  2  0  0  0  0  0  0
  -27.5520  -13.4760   19.8320 C   0  0  0  0  0  3  0  0  0  0  0  0
  -28.6060  -13.3090   20.9480 C   0  0  0  0  0  2  0  0  0  0  0  0
  -29.9340  -13.6450   20.4000 N   0  0  0  0  0  0  0  0  0  0  0  0
  -31.6010  -15.1370   19.9470 O   0  0  0  0  0  0  0  0  0  0  0  0
  -30.2180  -15.5100   21.6710 N   0  0  0  0  0  0  0  0  0  0  0  0
  -29.4170  -15.1720   22.1830 H   0  0  0  0  0  0  0  0  0  0  0  0
  -25.1270  -13.9790   20.5380 C   0  0  0  0  0  0  0  0  0  0  0  0
  -24.0920  -13.1610   20.8980 C   0  0  0  0  0  0  0  0  0  0  0  0
  -24.6060  -11.8280   20.8550 C   0  0  0  0  0  0  0  0  0  0  0  0
  -26.2090  -13.1440   20.3040 N   0  0  0  0  0  0  0  0  0  0  0  0
  -25.8980  -11.8450   20.5480 N   0  0  0  0  0  0  0  0  0  0  0  0
  -23.9330  -10.5370   21.0320 C   0  0  0  0  0  0  0  0  0  0  0  0
  -24.3830   -9.5920   21.9830 C   0  0  0  0  0  3  0  0  0  0  0  0
  -23.7080   -8.3640   22.1470 C   0  0  0  0  0  3  0  0  0  0  0  0
  -22.5680   -8.0700   21.3610 C   0  0  0  0  0  0  0  0  0  0  0  0
  -22.1380   -9.0030   20.4020 C   0  0  0  0  0  3  0  0  0  0  0  0
  -22.8140  -10.2240   20.2350 C   0  0  0  0  0  3  0  0  0  0  0  0
  -21.8650   -6.8920   21.4340 O   0  0  0  0  0  0  0  0  0  0  0  0
  -21.7840   -6.1740   22.6000 C   0  0  0  0  0  0  0  0  0  0  0  0
  -21.2690   -6.7360   23.7880 C   0  0  0  0  0  3  0  0  0  0  0  0
  -21.1390   -5.9410   24.9440 C   0  0  0  0  0  3  0  0  0  0  0  0
  -21.5110   -4.5830   24.9130 C   0  0  0  0  0  0  0  0  0  0  0  0
  -22.0180   -4.0200   23.7270 C   0  0  0  0  0  3  0  0  0  0  0  0
  -22.1500   -4.8120   22.5740 C   0  0  0  0  0  0  0  0  0  0  0  0
  -22.6190   -4.2590   21.4290 F   0  0  0  0  0  0  0  0  0  0  0  0
  -21.3790   -3.8170   26.0200 F   0  0  0  0  0  0  0  0  0  0  0  0
  -22.6750  -13.5770   21.1760 C   0  0  0  0  0  0  0  0  0  0  0  0
  -21.9850  -12.8580   22.0530 N   0  0  0  0  0  0  0  0  0  0  0  0
  -22.1880  -14.5780   20.6490 O   0  0  0  0  0  0  0  0  0  0  0  0
  -22.3920  -12.0490   22.5020 H   0  0  0  0  0  0  0  0  0  0  0  0
  -21.0360  -13.1180   22.2820 H   0  0  0  0  0  0  0  0  0  0  0  0
  -25.2370  -15.3570   20.3750 N   0  0  0  0  0  0  0  0  0  0  0  0
  -24.4470  -15.9820   20.4920 H   0  0  0  0  0  0  0  0  0  0  0  0
  -26.0780  -15.8330   20.0750 H   0  0  0  0  0  0  0  0  0  0  0  0
  1 57  1  0
  1  3  2  0
  2  1  1  0
  4  2  1  0
  5  2  1  0
  5  6  1  0
  6  7  1  0
  7  8  1  0
  8  9  1  0
  9 10  1  0
 10 11  1  0
 11 12  1  0
 13 12  1  0
 13 14  1  0
 14 15  1  0
 15 16  1  0
 16 18  1  0
 17 28  2  0
 18 23  1  0
 19 27  1  0
 19 29  1  0
 20 26  1  0
 20 22  1  0
 21 27  1  0
 22 21  1  0
 23 22  2  0
 24 25  1  0
 24 18  2  0
 25 20  2  0
 26 19  1  0
 27 17  1  0
 29 31  2  0
 30 29  1  0
 32 30  1  0
 33 42  2  0
 33 38  1  0
 34 30  1  0
 34 38  1  0
 35 34  1  0
 36 37  1  0
 36 35  1  0
 37 33  1  0
 38 39  2  0
 39 40  1  0
 41 40  2  0
 42 41  1  0
 43 17  1  0
 43 48  1  0
 43 44  1  0
 44 47  1  1
 44 45  1  0
 46 44  1  0
 48 51  1  0
 49 53  1  0
 49 48  1  0
 50 49  2  0
 53 52  1  0
 55 53  1  0
 55 56  1  0
 55 54  1  0
 57 59  1  0
 58 62  1  0
 59 61  1  0
 59 58  1  0
 60 58  2  0
 62 64  1  0
 63 67  1  0
 64 66  1  0
 64 63  1  0
 65 63  2  0
 67 69  1  0
 68 69  1  0
 68 72  1  0
 69 71  1  0
 70 68  2  0
 73 81  1  0
 74 79  1  0
 75 76  1  0
 75 74  1  0
 77 76  1  0
 77 86  1  0
 77 78  1  0
 79 73  1  0
 79 78  1  0
 80 73  2  0
 81 72  1  0
 81 82  1  0
 83 84  2  0
 84103  1  0
 85 84  1  0
 85 88  1  0
 86 83  1  0
 86 87  1  0
 87 85  2  0
 88 89  1  0
 89 90  2  0
 91 94  1  0
 91 90  1  0
 92 91  2  0
 93 92  1  0
 93 88  2  0
 94 95  1  0
 95 96  1  0
 96 97  2  0
 98 97  1  0
 98102  1  0
 99 98  2  0
100 95  2  0
100 99  1  0
101100  1  0
103104  1  0
104107  1  0
104106  1  0
105103  2  0
108109  1  0
108 83  1  0
110108  1  0
M  ISO  4  15 101  16 101  73 100  81 100
M  END
>  <TORSDO>  (35) 
F 34

>  <SCORE>  (35) 
-10.202

>  <name>  (35) 
36

>  <ligand_id>  (35) 
36

>  <original_smiles>  (35) 
[H]c1c([H])c([H])c2c(c1[H])C([H])([H])C([H])([H])C([H])([H])C2([H])N([H])C(=O)C1([H])N(C(=O)C([H])(N([H])C(=O)C([H])(N([H])C([H])([H])[H])C([H])([H])[H])C(C([H])([H])[H])(C([H])([H])[H])C([H])([H])[H])C([H])([H])c2c([H])c(OC([H])([H])C([H])([H])C([H])([H])C([H])([H])C([H])([H])C([H])([H])C([H])([H])C([H])([H])C([H])([H])C([H])([H])C([H])([H])N([H])C(=O)C([H])([H])N([H])C(=O)C([H])([H])N([H])C(=O)C([H])([H])N([H])C(=O)C([H])([H])N([H])C(=O)N3C([H])([H])C([H])([H])C([H])([H])C([H])(n4nc(-c5c([H])c([H])c(Oc6c([H])c([H])c(F)c([H])c6F)c([H])c5[H])c(C(=O)N([H])[H])c4N([H])[H])C3([H])[H])c([H])c([H])c2C1([H])[H]

>  <smiles>  (35) 
[H]c1c([H])c([H])c2c(c1[H])C([H])([H])C([H])([H])C([H])([H])C2([H])N([H])C(=O)C1([H])N(C(=O)C([H])(N([H])C(=O)C([H])(N([H])C([H])([H])[H])C([H])([H])[H])C(C([H])([H])[H])(C([H])([H])[H])C([H])([H])[H])C([H])([H])c2c([H])c(OC([H])([H])C([H])([H])C([H])([H])C([H])([H])C([H])([H])C([H])([H])C([H])([H])C([H])([H])C([H])([H])C([H])([H])C([H])([H])N([H])C(=O)C([H])([H])N([H])C(=O)C([H])([H])N([H])C(=O)C([H])([H])N([H])C(=O)C([H])([H])N([H])C(=O)N3C([H])([H])C([H])([H])C([H])([H])C([H])(n4nc(-c5c([H])c([H])c(Oc6c([H])c([H])c(F)c([H])c6F)c([H])c5[H])c(C(=O)N([H])[H])c4N([H])[H])C3([H])[H])c([H])c([H])c2C1([H])[H]

$$$$
37:0:0
     RDKit          3D

104111  0  0  1  0  0  0  0  0999 V2000
  -27.4280  -20.2900   19.9510 C   0  0  0  0  0  0  0  0  0  0  0  0
  -26.5220  -19.6690   19.1850 N   0  0  0  0  0  0  0  0  0  0  0  0
  -27.3460  -21.4900   20.2290 O   0  0  0  0  0  0  0  0  0  0  0  0
  -26.6720  -18.6850   18.9980 H   0  0  0  0  0  0  0  0  0  0  0  0
  -25.2680  -20.2620   18.7200 C   0  0  0  0  0  2  0  0  0  0  0  0
  -25.3690  -20.8560   17.2970 C   0  0  0  0  0  2  0  0  0  0  0  0
  -24.9570  -22.3320   17.2680 C   0  0  0  0  0  0  0  0  0  0  0  0
  -25.8250  -23.1920   16.7230 N   0  0  0  0  0  0  0  0  0  0  0  0
  -23.8880  -22.6890   17.7680 O   0  0  0  0  0  0  0  0  0  0  0  0
  -26.6640  -22.8040   16.3120 H   0  0  0  0  0  0  0  0  0  0  0  0
  -25.7730  -24.6470   16.8360 C   0  0  0  0  0  2  0  0  0  0  0  0
  -26.8740  -25.1150   17.7990 C   0  0  0  0  0  2  0  0  0  0  0  0
  -27.1070  -26.5180   17.7070 O   0  0  0  0  0  0  0  0  0  0  0  0
  -26.3410  -29.8220   23.9450 C   0  0  0  0  0  0  0  0  0  0  0  0
  -26.3120  -27.3370   18.4750 C   0  0  0  0  0  0  0  0  0  0  0  0
  -24.3630  -29.8730   22.4590 C   0  0  0  0  0  3  0  0  0  0  0  0
  -24.7550  -29.0700   20.0710 C   0  0  0  0  0  0  0  0  0  0  0  0
  -26.7210  -29.6880   21.4880 C   0  0  0  0  0  2  0  0  0  0  0  0
  -26.1220  -28.9140   20.3350 C   0  0  0  0  0  0  0  0  0  0  0  0
  -26.9050  -28.0580   19.5330 C   0  0  0  0  0  3  0  0  0  0  0  0
  -24.9310  -27.4990   18.2210 C   0  0  0  0  0  3  0  0  0  0  0  0
  -24.1530  -28.3590   19.0180 C   0  0  0  0  0  3  0  0  0  0  0  0
  -23.9950  -30.0280   20.9600 C   0  0  0  0  0  2  0  0  0  0  0  0
  -25.8420  -29.7680   22.6790 N   0  0  0  0  0  0  0  0  0  0  0  0
  -25.5950  -29.9990   24.9190 O   0  0  0  0  0  0  0  0  0  0  0  0
  -23.5710  -28.6810   23.0390 C   0  0  0  0  0  0  0  0  0  0  0  0
  -22.2480  -28.6770   22.8110 N   0  0  0  0  0  0  0  0  0  0  0  0
  -24.1460  -27.7780   23.6520 O   0  0  0  0  0  0  0  0  0  0  0  0
  -21.8520  -29.4590   22.3080 H   0  0  0  0  0  0  0  0  0  0  0  0
  -18.9390  -27.3450   22.2390 C   0  0  0  0  0  0  0  0  0  0  0  0
  -21.3070  -27.6370   23.2300 C   0  0  0  0  0  3  0  0  0  0  0  0
  -21.6440  -26.2840   22.5640 C   0  0  0  0  0  2  0  0  0  0  0  0
  -20.8780  -26.0470   21.2590 C   0  0  0  0  0  2  0  0  0  0  0  0
  -19.3670  -26.0850   21.5060 C   0  0  0  0  0  2  0  0  0  0  0  0
  -19.8540  -28.0830   23.0350 C   0  0  0  0  0  0  0  0  0  0  0  0
  -19.4150  -29.2660   23.6670 C   0  0  0  0  0  3  0  0  0  0  0  0
  -18.0900  -29.7150   23.5140 C   0  0  0  0  0  3  0  0  0  0  0  0
  -17.1830  -28.9740   22.7360 C   0  0  0  0  0  3  0  0  0  0  0  0
  -17.6070  -27.7910   22.1060 C   0  0  0  0  0  3  0  0  0  0  0  0
  -27.8700  -29.6890   24.2300 C   0  0  0  0  0  3  0  0  0  0  0  0
  -28.2840  -28.2510   24.7310 C   0  0  1  0  0  0  0  0  0  0  0  0
  -27.4460  -27.7440   25.9280 C   0  0  0  0  0  1  0  0  0  0  0  0
  -28.1510  -27.2180   23.5870 C   0  0  0  0  0  1  0  0  0  0  0  0
  -29.7720  -28.2530   25.1580 C   0  0  0  0  0  1  0  0  0  0  0  0
  -28.2240  -30.7070   25.2260 N   0  0  0  0  0  0  0  0  0  0  0  0
  -28.8980  -31.8320   24.9550 C   0  0  0  0  0  0  0  0  0  0  0  0
  -29.3530  -32.0880   23.8360 O   0  0  0  0  0  0  0  0  0  0  0  0
  -27.8390  -30.5880   26.1520 H   0  0  0  0  0  0  0  0  0  0  0  0
  -28.1430  -34.0250   25.9260 C   0  0  0  0  0  1  0  0  0  0  0  0
  -29.0970  -32.8340   26.1070 C   0  0  0  0  0  3  0  0  0  0  0  0
  -31.4240  -32.2990   26.6820 C   0  0  0  0  0  1  0  0  0  0  0  0
  -30.4880  -33.3240   26.2270 N   0  0  0  0  0  0  0  0  0  0  0  0
  -30.5390  -34.1090   26.8710 H   0  0  0  0  0  0  0  0  0  0  0  0
  -28.5690  -19.4330   20.5120 C   0  0  0  0  0  2  0  0  0  0  0  0
  -29.8250  -19.9780   20.1210 O   0  0  0  0  0  0  0  0  0  0  0  0
  -30.8270  -18.9770   20.0070 C   0  0  0  0  0  2  0  0  0  0  0  0
  -32.1950  -19.6290   19.7610 C   0  0  0  0  0  2  0  0  0  0  0  0
  -32.0980  -20.5380   18.6720 O   0  0  0  0  0  0  0  0  0  0  0  0
  -32.5120  -21.8530   19.0180 C   0  0  0  0  0  2  0  0  0  0  0  0
  -32.7630  -22.6520   17.7330 C   0  0  0  0  0  2  0  0  0  0  0  0
  -31.9860  -22.1030   16.6800 O   0  0  0  0  0  0  0  0  0  0  0  0
  -31.6090  -23.0740   15.7120 C   0  0  0  0  0  2  0  0  0  0  0  0
  -31.8050  -22.4720   14.3160 C   0  0  0  0  0  2  0  0  0  0  0  0
  -32.9570  -23.0630   13.7290 O   0  0  0  0  0  0  0  0  0  0  0  0
  -33.2360  -22.5580   12.4320 C   0  0  0  0  0  2  0  0  0  0  0  0
  -33.8550  -23.6910   11.6070 C   0  0  0  0  0  2  0  0  0  0  0  0
  -31.7840  -24.9850   11.1540 C   0  0  0  0  0  0  0  0  0  0  0  0
  -29.9010  -26.4980   10.6640 C   0  0  0  0  0  2  0  0  0  0  0  0
  -30.1430  -27.2630    9.3500 C   0  0  0  0  0  2  0  0  0  0  0  0
  -30.9600  -28.5430    9.6070 C   0  0  0  0  0  2  0  0  0  0  0  0
  -32.2310  -28.2780   10.4590 C   0  0  0  0  0  3  0  0  0  0  0  0
  -31.8830  -27.4440   11.7120 C   0  0  0  0  0  2  0  0  0  0  0  0
  -31.2070  -26.2080   11.2730 N   0  0  0  0  0  0  0  0  0  0  0  0
  -31.2340  -24.0180   10.6220 O   0  0  0  0  0  0  0  0  0  0  0  0
  -33.0200  -24.8880   11.6510 N   0  0  0  0  0  0  0  0  0  0  0  0
  -33.4030  -25.7030   12.1040 H   0  0  0  0  0  0  0  0  0  0  0  0
  -33.8690  -30.2370   10.1130 C   0  0  0  0  0  0  0  0  0  0  0  0
  -34.1090  -31.3680   10.8470 C   0  0  0  0  0  0  0  0  0  0  0  0
  -33.2470  -31.2920   11.9830 C   0  0  0  0  0  0  0  0  0  0  0  0
  -32.9040  -29.5280   10.8120 N   0  0  0  0  0  0  0  0  0  0  0  0
  -32.5680  -30.1510   11.9700 N   0  0  0  0  0  0  0  0  0  0  0  0
  -32.9850  -32.2650   13.0520 C   0  0  0  0  0  0  0  0  0  0  0  0
  -33.2660  -31.9690   14.4040 C   0  0  0  0  0  3  0  0  0  0  0  0
  -33.0220  -32.9260   15.4110 C   0  0  0  0  0  3  0  0  0  0  0  0
  -32.4950  -34.1950   15.0720 C   0  0  0  0  0  0  0  0  0  0  0  0
  -32.1960  -34.4760   13.7280 C   0  0  0  0  0  3  0  0  0  0  0  0
  -32.4340  -33.5190   12.7260 C   0  0  0  0  0  3  0  0  0  0  0  0
  -32.2020  -35.1780   15.9870 O   0  0  0  0  0  0  0  0  0  0  0  0
  -32.9790  -35.3810   17.0990 C   0  0  0  0  0  0  0  0  0  0  0  0
  -34.3410  -35.7410   17.0020 C   0  0  0  0  0  3  0  0  0  0  0  0
  -35.0840  -36.0080   18.1690 C   0  0  0  0  0  3  0  0  0  0  0  0
  -34.4670  -35.9250   19.4310 C   0  0  0  0  0  0  0  0  0  0  0  0
  -33.1100  -35.5720   19.5300 C   0  0  0  0  0  3  0  0  0  0  0  0
  -32.3670  -35.3040   18.3670 C   0  0  0  0  0  0  0  0  0  0  0  0
  -31.0540  -34.9850   18.4660 F   0  0  0  0  0  0  0  0  0  0  0  0
  -35.1780  -36.1890   20.5530 F   0  0  0  0  0  0  0  0  0  0  0  0
  -35.0180  -32.5030   10.4710 C   0  0  0  0  0  0  0  0  0  0  0  0
  -35.6220  -33.1570   11.4570 N   0  0  0  0  0  0  0  0  0  0  0  0
  -35.2350  -32.7850    9.2940 O   0  0  0  0  0  0  0  0  0  0  0  0
  -35.4590  -32.9120   12.4230 H   0  0  0  0  0  0  0  0  0  0  0  0
  -36.2570  -33.9130   11.2430 H   0  0  0  0  0  0  0  0  0  0  0  0
  -34.3750  -29.7630    8.9070 N   0  0  0  0  0  0  0  0  0  0  0  0
  -35.0130  -30.3120    8.3430 H   0  0  0  0  0  0  0  0  0  0  0  0
  -34.0550  -28.9190    8.4480 H   0  0  0  0  0  0  0  0  0  0  0  0
  1  3  2  0
  1 54  1  0
  2  1  1  0
  4  2  1  0
  5  2  1  0
  6  5  1  0
  7  6  1  0
  7  9  2  0
  8 11  1  0
  8  7  1  0
 10  8  1  0
 11 12  1  0
 13 12  1  0
 13 15  1  0
 14 25  2  0
 15 20  1  0
 16 24  1  0
 16 26  1  0
 17 19  1  0
 17 23  1  0
 18 24  1  0
 19 18  1  0
 20 19  2  0
 21 15  2  0
 21 22  1  0
 22 17  2  0
 23 16  1  0
 24 14  1  0
 26 28  2  0
 27 26  1  0
 29 27  1  0
 30 35  1  0
 31 27  1  0
 32 31  1  0
 33 34  1  0
 33 32  1  0
 34 30  1  0
 35 31  1  0
 35 36  2  0
 37 36  1  0
 38 37  2  0
 39 30  2  0
 39 38  1  0
 40 14  1  0
 40 41  1  0
 40 45  1  0
 41 44  1  1
 41 42  1  0
 43 41  1  0
 45 48  1  0
 46 45  1  0
 46 50  1  0
 47 46  2  0
 50 49  1  0
 50 52  1  0
 52 51  1  0
 52 53  1  0
 55 54  1  0
 56 55  1  0
 57 56  1  0
 58 59  1  0
 58 57  1  0
 60 59  1  0
 61 60  1  0
 62 61  1  0
 63 62  1  0
 64 63  1  0
 65 64  1  0
 66 75  1  0
 66 65  1  0
 67 73  1  0
 67 75  1  0
 68 73  1  0
 69 70  1  0
 69 68  1  0
 71 70  1  0
 71 80  1  0
 71 72  1  0
 73 72  1  0
 74 67  2  0
 75 76  1  0
 77 80  1  0
 77 78  2  0
 78 79  1  0
 79 82  1  0
 80 81  1  0
 81 79  2  0
 82 83  1  0
 83 84  2  0
 85 84  1  0
 85 88  1  0
 86 85  2  0
 87 82  2  0
 87 86  1  0
 88 89  1  0
 89 94  1  0
 90 89  2  0
 90 91  1  0
 91 92  2  0
 92 93  1  0
 92 96  1  0
 94 95  1  0
 94 93  2  0
 97 78  1  0
 97 98  1  0
 98100  1  0
 99 97  2  0
101 98  1  0
102 77  1  0
103102  1  0
104102  1  0
M  ISO  4  12 101  13 101  67 100  75 100
M  END
>  <TORSDO>  (36) 
F 34

>  <SCORE>  (36) 
-4.138

>  <name>  (36) 
37

>  <ligand_id>  (36) 
37

>  <original_smiles>  (36) 
[H]c1c([H])c([H])c2c(c1[H])C([H])([H])C([H])([H])C([H])([H])C2([H])N([H])C(=O)C1([H])N(C(=O)C([H])(N([H])C(=O)C([H])(N([H])C([H])([H])[H])C([H])([H])[H])C(C([H])([H])[H])(C([H])([H])[H])C([H])([H])[H])C([H])([H])c2c([H])c(OC([H])([H])C([H])([H])N([H])C(=O)C([H])([H])C([H])([H])N([H])C(=O)C([H])([H])OC([H])([H])C([H])([H])OC([H])([H])C([H])([H])OC([H])([H])C([H])([H])OC([H])([H])C([H])([H])N([H])C(=O)N3C([H])([H])C([H])([H])C([H])([H])C([H])(n4nc(-c5c([H])c([H])c(Oc6c([H])c([H])c(F)c([H])c6F)c([H])c5[H])c(C(=O)N([H])[H])c4N([H])[H])C3([H])[H])c([H])c([H])c2C1([H])[H]

>  <smiles>  (36) 
[H]c1c([H])c([H])c2c(c1[H])C([H])([H])C([H])([H])C([H])([H])C2([H])N([H])C(=O)C1([H])N(C(=O)C([H])(N([H])C(=O)C([H])(N([H])C([H])([H])[H])C([H])([H])[H])C(C([H])([H])[H])(C([H])([H])[H])C([H])([H])[H])C([H])([H])c2c([H])c(OC([H])([H])C([H])([H])N([H])C(=O)C([H])([H])C([H])([H])N([H])C(=O)C([H])([H])OC([H])([H])C([H])([H])OC([H])([H])C([H])([H])OC([H])([H])C([H])([H])OC([H])([H])C([H])([H])N([H])C(=O)N3C([H])([H])C([H])([H])C([H])([H])C([H])(n4nc(-c5c([H])c([H])c(Oc6c([H])c([H])c(F)c([H])c6F)c([H])c5[H])c(C(=O)N([H])[H])c4N([H])[H])C3([H])[H])c([H])c([H])c2C1([H])[H]

$$$$
38:0:0
     RDKit          3D

109116  0  0  1  0  0  0  0  0999 V2000
  -37.6870  -22.7650   18.7480 O   0  0  0  0  0  0  0  0  0  0  0  0
  -37.9650  -22.2550   17.4530 C   0  0  0  0  0  2  0  0  0  0  0  0
  -37.1210  -20.9860   17.2670 C   0  0  0  0  0  2  0  0  0  0  0  0
  -35.7730  -21.3700   17.0450 O   0  0  0  0  0  0  0  0  0  0  0  0
  -34.8660  -20.2770   17.0800 C   0  0  0  0  0  2  0  0  0  0  0  0
  -33.4720  -20.8160   16.7410 C   0  0  0  0  0  2  0  0  0  0  0  0
  -33.0640  -21.6930   17.7820 O   0  0  0  0  0  0  0  0  0  0  0  0
  -31.8310  -22.3550   17.5100 C   0  0  0  0  0  2  0  0  0  0  0  0
  -31.6150  -23.4830   18.5270 C   0  0  0  0  0  0  0  0  0  0  0  0
  -30.4160  -24.0790   18.5440 N   0  0  0  0  0  0  0  0  0  0  0  0
  -32.5270  -23.8260   19.2860 O   0  0  0  0  0  0  0  0  0  0  0  0
  -29.7060  -23.7440   17.9060 H   0  0  0  0  0  0  0  0  0  0  0  0
  -30.0890  -25.2200   19.3920 C   0  0  0  0  0  2  0  0  0  0  0  0
  -28.6170  -25.6450   19.2780 C   0  0  0  0  0  2  0  0  0  0  0  0
  -28.4520  -26.8040   20.0850 O   0  0  0  0  0  0  0  0  0  0  0  0
  -24.6130  -31.8690   23.2070 C   0  0  0  0  0  0  0  0  0  0  0  0
  -27.2470  -27.4650   20.0760 C   0  0  0  0  0  0  0  0  0  0  0  0
  -23.4000  -30.4930   21.5490 C   0  0  0  0  0  3  0  0  0  0  0  0
  -24.8420  -28.9560   20.1110 C   0  0  0  0  0  0  0  0  0  0  0  0
  -25.9240  -30.8360   21.3590 C   0  0  0  0  0  2  0  0  0  0  0  0
  -25.9980  -29.4730   20.7090 C   0  0  0  0  0  0  0  0  0  0  0  0
  -27.1950  -28.7310   20.6970 C   0  0  0  0  0  3  0  0  0  0  0  0
  -26.0700  -26.9490   19.4820 C   0  0  0  0  0  3  0  0  0  0  0  0
  -24.8720  -27.6890   19.5010 C   0  0  0  0  0  3  0  0  0  0  0  0
  -23.6050  -29.8200   20.1620 C   0  0  0  0  0  2  0  0  0  0  0  0
  -24.6640  -31.0820   22.0960 N   0  0  0  0  0  0  0  0  0  0  0  0
  -23.5330  -32.1440   23.7490 O   0  0  0  0  0  0  0  0  0  0  0  0
  -22.7410  -29.4690   22.5010 C   0  0  0  0  0  0  0  0  0  0  0  0
  -21.4140  -29.3040   22.3720 N   0  0  0  0  0  0  0  0  0  0  0  0
  -23.4190  -28.8250   23.3040 O   0  0  0  0  0  0  0  0  0  0  0  0
  -20.9290  -29.8770   21.6970 H   0  0  0  0  0  0  0  0  0  0  0  0
  -18.0290  -28.1400   22.8520 C   0  0  0  0  0  0  0  0  0  0  0  0
  -20.5870  -28.3690   23.1350 C   0  0  0  0  0  3  0  0  0  0  0  0
  -20.6770  -26.9430   22.5450 C   0  0  0  0  0  2  0  0  0  0  0  0
  -19.5750  -26.6400   21.5260 C   0  0  0  0  0  2  0  0  0  0  0  0
  -18.1920  -26.7960   22.1650 C   0  0  0  0  0  2  0  0  0  0  0  0
  -19.1540  -28.8860   23.2920 C   0  0  0  0  0  0  0  0  0  0  0  0
  -18.9460  -30.1460   23.8920 C   0  0  0  0  0  3  0  0  0  0  0  0
  -17.6470  -30.6610   24.0610 C   0  0  0  0  0  3  0  0  0  0  0  0
  -16.5360  -29.9140   23.6340 C   0  0  0  0  0  3  0  0  0  0  0  0
  -16.7270  -28.6560   23.0340 C   0  0  0  0  0  3  0  0  0  0  0  0
  -25.9050  -32.4820   23.8340 C   0  0  0  0  0  3  0  0  0  0  0  0
  -26.4450  -31.6620   25.0680 C   0  0  1  0  0  0  0  0  0  0  0  0
  -25.3710  -31.3810   26.1430 C   0  0  0  0  0  1  0  0  0  0  0  0
  -27.0240  -30.3040   24.6050 C   0  0  0  0  0  1  0  0  0  0  0  0
  -27.5990  -32.4360   25.7460 C   0  0  0  0  0  1  0  0  0  0  0  0
  -25.5930  -33.8610   24.2270 N   0  0  0  0  0  0  0  0  0  0  0  0
  -25.9050  -34.9490   23.5090 C   0  0  0  0  0  0  0  0  0  0  0  0
  -26.5610  -34.8970   22.4650 O   0  0  0  0  0  0  0  0  0  0  0  0
  -25.0200  -33.9780   25.0500 H   0  0  0  0  0  0  0  0  0  0  0  0
  -24.1500  -36.7290   23.2640 C   0  0  0  0  0  1  0  0  0  0  0  0
  -25.4130  -36.3100   24.0340 C   0  0  0  0  0  3  0  0  0  0  0  0
  -27.5590  -37.1810   24.8480 C   0  0  0  0  0  1  0  0  0  0  0  0
  -26.4320  -37.3790   23.9420 N   0  0  0  0  0  0  0  0  0  0  0  0
  -26.0200  -38.2880   24.1370 H   0  0  0  0  0  0  0  0  0  0  0  0
  -38.0570  -24.1240   18.9320 C   0  0  0  0  0  2  0  0  0  0  0  0
  -38.0260  -24.4540   20.4340 C   0  0  0  0  0  2  0  0  0  0  0  0
  -36.2700  -23.1220   21.5860 C   0  0  0  0  0  0  0  0  0  0  0  0
  -36.6870  -24.2440   20.9860 N   0  0  0  0  0  0  0  0  0  0  0  0
  -37.0280  -22.1770   21.8190 O   0  0  0  0  0  0  0  0  0  0  0  0
  -36.0070  -24.9750   20.8260 H   0  0  0  0  0  0  0  0  0  0  0  0
  -34.7890  -23.0410   21.9850 C   0  0  0  0  0  2  0  0  0  0  0  0
  -34.2450  -20.6320   22.2820 C   0  0  0  0  0  0  0  0  0  0  0  0
  -34.2220  -21.7600   21.5630 N   0  0  0  0  0  0  0  0  0  0  0  0
  -34.6130  -20.6080   23.4590 O   0  0  0  0  0  0  0  0  0  0  0  0
  -33.8970  -21.7100   20.6060 H   0  0  0  0  0  0  0  0  0  0  0  0
  -33.8060  -19.3380   21.5880 C   0  0  0  0  0  2  0  0  0  0  0  0
  -32.9050  -18.6420   22.4420 O   0  0  0  0  0  0  0  0  0  0  0  0
  -32.6800  -17.3020   22.0380 C   0  0  0  0  0  2  0  0  0  0  0  0
  -31.7730  -16.6400   23.0830 C   0  0  0  0  0  2  0  0  0  0  0  0
  -31.7300  -15.1050   22.9880 C   0  0  0  0  0  2  0  0  0  0  0  0
  -30.8450  -14.2490   20.8060 C   0  0  0  0  0  0  0  0  0  0  0  0
  -30.4120  -12.3030   19.3570 C   0  0  0  0  0  2  0  0  0  0  0  0
  -29.4650  -12.5480   18.1730 C   0  0  0  0  0  2  0  0  0  0  0  0
  -28.0000  -12.3770   18.6060 C   0  0  0  0  0  2  0  0  0  0  0  0
  -27.6630  -13.2010   19.8730 C   0  0  0  0  0  3  0  0  0  0  0  0
  -28.7010  -12.9500   20.9860 C   0  0  0  0  0  2  0  0  0  0  0  0
  -30.0500  -13.2130   20.4510 N   0  0  0  0  0  0  0  0  0  0  0  0
  -31.7750  -14.6750   20.1140 O   0  0  0  0  0  0  0  0  0  0  0  0
  -30.7010  -14.5800   22.0940 N   0  0  0  0  0  0  0  0  0  0  0  0
  -29.9130  -14.1400   22.5490 H   0  0  0  0  0  0  0  0  0  0  0  0
  -25.2600  -13.8160   20.5670 C   0  0  0  0  0  0  0  0  0  0  0  0
  -24.1840  -13.0440   20.9150 C   0  0  0  0  0  0  0  0  0  0  0  0
  -24.6390  -11.6910   20.8720 C   0  0  0  0  0  0  0  0  0  0  0  0
  -26.3030  -12.9310   20.3360 N   0  0  0  0  0  0  0  0  0  0  0  0
  -25.9310  -11.6480   20.5760 N   0  0  0  0  0  0  0  0  0  0  0  0
  -23.9060  -10.4300   21.0400 C   0  0  0  0  0  0  0  0  0  0  0  0
  -24.3620   -9.4210   21.9180 C   0  0  0  0  0  3  0  0  0  0  0  0
  -23.6290   -8.2240   22.0760 C   0  0  0  0  0  3  0  0  0  0  0  0
  -22.4270   -8.0280   21.3550 C   0  0  0  0  0  0  0  0  0  0  0  0
  -21.9900   -9.0250   20.4650 C   0  0  0  0  0  3  0  0  0  0  0  0
  -22.7230  -10.2130   20.3050 C   0  0  0  0  0  3  0  0  0  0  0  0
  -21.6640   -6.8880   21.4240 O   0  0  0  0  0  0  0  0  0  0  0  0
  -21.6860   -6.0740   22.5280 C   0  0  0  0  0  0  0  0  0  0  0  0
  -21.4010   -6.5640   23.8210 C   0  0  0  0  0  3  0  0  0  0  0  0
  -21.3660   -5.6790   24.9170 C   0  0  0  0  0  3  0  0  0  0  0  0
  -21.6050   -4.3050   24.7220 C   0  0  0  0  0  0  0  0  0  0  0  0
  -21.8820   -3.8150   23.4340 C   0  0  0  0  0  3  0  0  0  0  0  0
  -21.9190   -4.6970   22.3400 C   0  0  0  0  0  0  0  0  0  0  0  0
  -22.1660   -4.2150   21.0980 F   0  0  0  0  0  0  0  0  0  0  0  0
  -21.5630   -3.4540   25.7740 F   0  0  0  0  0  0  0  0  0  0  0  0
  -22.7870  -13.5250   21.1820 C   0  0  0  0  0  0  0  0  0  0  0  0
  -22.0520  -12.8240   22.0390 N   0  0  0  0  0  0  0  0  0  0  0  0
  -22.3560  -14.5560   20.6690 O   0  0  0  0  0  0  0  0  0  0  0  0
  -22.4150  -11.9890   22.4740 H   0  0  0  0  0  0  0  0  0  0  0  0
  -21.1160  -13.1270   22.2630 H   0  0  0  0  0  0  0  0  0  0  0  0
  -25.4360  -15.1870   20.4080 N   0  0  0  0  0  0  0  0  0  0  0  0
  -24.6780  -15.8510   20.5210 H   0  0  0  0  0  0  0  0  0  0  0  0
  -26.3040  -15.6200   20.1140 H   0  0  0  0  0  0  0  0  0  0  0  0
  1 56  1  0
  2  1  1  0
  3  2  1  0
  4  5  1  0
  4  3  1  0
  6  5  1  0
  6  7  1  0
  8  7  1  0
  8  9  1  0
  9 10  1  0
  9 11  2  0
 10 13  1  0
 12 10  1  0
 14 13  1  0
 14 15  1  0
 16 27  2  0
 17 15  1  0
 17 22  1  0
 18 26  1  0
 18 28  1  0
 19 25  1  0
 19 21  1  0
 20 26  1  0
 21 20  1  0
 22 21  2  0
 23 24  1  0
 23 17  2  0
 24 19  2  0
 25 18  1  0
 26 16  1  0
 28 30  2  0
 29 28  1  0
 31 29  1  0
 32 41  2  0
 32 37  1  0
 33 29  1  0
 33 37  1  0
 34 33  1  0
 35 36  1  0
 35 34  1  0
 36 32  1  0
 37 38  2  0
 38 39  1  0
 40 39  2  0
 41 40  1  0
 42 16  1  0
 42 47  1  0
 42 43  1  0
 43 46  1  1
 43 44  1  0
 45 43  1  0
 47 50  1  0
 48 52  1  0
 48 47  1  0
 49 48  2  0
 52 51  1  0
 54 52  1  0
 54 55  1  0
 54 53  1  0
 56 57  1  0
 57 59  1  0
 58 60  2  0
 58 62  1  0
 59 58  1  0
 61 59  1  0
 63 65  2  0
 64 62  1  0
 64 63  1  0
 66 64  1  0
 67 63  1  0
 67 68  1  0
 69 68  1  0
 69 70  1  0
 71 70  1  0
 72 80  1  0
 73 78  1  0
 74 75  1  0
 74 73  1  0
 76 75  1  0
 76 85  1  0
 76 77  1  0
 78 72  1  0
 78 77  1  0
 79 72  2  0
 80 81  1  0
 80 71  1  0
 82 83  2  0
 83102  1  0
 84 83  1  0
 84 87  1  0
 85 82  1  0
 85 86  1  0
 86 84  2  0
 87 88  1  0
 88 89  2  0
 90 93  1  0
 90 89  1  0
 91 90  2  0
 92 91  1  0
 92 87  2  0
 93 94  1  0
 94 95  1  0
 95 96  2  0
 97 96  1  0
 97101  1  0
 98 97  2  0
 99 94  2  0
 99 98  1  0
100 99  1  0
102103  1  0
103106  1  0
103105  1  0
104102  2  0
107108  1  0
107 82  1  0
109107  1  0
M  ISO  4  14 101  15 101  72 100  80 100
M  END
>  <TORSDO>  (37) 
F 36

>  <SCORE>  (37) 
-3.133

>  <name>  (37) 
38

>  <ligand_id>  (37) 
38

>  <original_smiles>  (37) 
[H]c1c([H])c([H])c2c(c1[H])C([H])([H])C([H])([H])C([H])([H])C2([H])N([H])C(=O)C1([H])N(C(=O)C([H])(N([H])C(=O)C([H])(N([H])C([H])([H])[H])C([H])([H])[H])C(C([H])([H])[H])(C([H])([H])[H])C([H])([H])[H])C([H])([H])c2c([H])c(OC([H])([H])C([H])([H])N([H])C(=O)C([H])([H])OC([H])([H])C([H])([H])OC([H])([H])C([H])([H])OC([H])([H])C([H])([H])N([H])C(=O)C([H])([H])N([H])C(=O)C([H])([H])OC([H])([H])C([H])([H])C([H])([H])N([H])C(=O)N3C([H])([H])C([H])([H])C([H])([H])C([H])(n4nc(-c5c([H])c([H])c(Oc6c([H])c([H])c(F)c([H])c6F)c([H])c5[H])c(C(=O)N([H])[H])c4N([H])[H])C3([H])[H])c([H])c([H])c2C1([H])[H]

>  <smiles>  (37) 
[H]c1c([H])c([H])c2c(c1[H])C([H])([H])C([H])([H])C([H])([H])C2([H])N([H])C(=O)C1([H])N(C(=O)C([H])(N([H])C(=O)C([H])(N([H])C([H])([H])[H])C([H])([H])[H])C(C([H])([H])[H])(C([H])([H])[H])C([H])([H])[H])C([H])([H])c2c([H])c(OC([H])([H])C([H])([H])N([H])C(=O)C([H])([H])OC([H])([H])C([H])([H])OC([H])([H])C([H])([H])OC([H])([H])C([H])([H])N([H])C(=O)C([H])([H])N([H])C(=O)C([H])([H])OC([H])([H])C([H])([H])C([H])([H])N([H])C(=O)N3C([H])([H])C([H])([H])C([H])([H])C([H])(n4nc(-c5c([H])c([H])c(Oc6c([H])c([H])c(F)c([H])c6F)c([H])c5[H])c(C(=O)N([H])[H])c4N([H])[H])C3([H])[H])c([H])c([H])c2C1([H])[H]

$$$$
39:0:0
     RDKit          3D

104109  0  0  1  0  0  0  0  0999 V2000
  -21.5110  -22.6360   23.4800 C   0  0  0  0  0  0  0  0  0  0  0  0
  -20.8830  -21.6200   22.8770 N   0  0  0  0  0  0  0  0  0  0  0  0
  -20.9070  -23.5900   23.9790 O   0  0  0  0  0  0  0  0  0  0  0  0
  -21.4620  -20.9070   22.4560 H   0  0  0  0  0  0  0  0  0  0  0  0
  -19.4390  -21.4220   22.7660 C   0  0  0  0  0  2  0  0  0  0  0  0
  -18.7770  -22.4860   21.8880 C   0  0  0  0  0  0  0  0  0  0  0  0
  -19.2160  -23.7440   22.0570 N   0  0  0  0  0  0  0  0  0  0  0  0
  -17.9060  -22.1700   21.0750 O   0  0  0  0  0  0  0  0  0  0  0  0
  -19.9800  -23.8310   22.7200 H   0  0  0  0  0  0  0  0  0  0  0  0
  -18.7400  -25.0380   21.4210 C   0  0  0  0  0  2  0  0  0  0  0  0
  -20.1360  -26.9230   19.7400 C   0  0  0  0  0  2  0  0  0  0  0  0
  -22.1300  -26.8300   19.1290 C   0  0  0  0  0  1  0  0  0  0  0  0
  -23.9500  -26.7000   19.4890 O   0  0  0  0  0  0  0  0  0  0  0  0
  -25.0610  -30.0380   23.5140 C   0  0  0  0  0  0  0  0  0  0  0  0
  -25.2630  -26.8980   18.8450 C   0  0  0  0  0  3  0  0  0  0  0  0
  -23.5810  -29.8910   21.5940 C   0  0  0  0  0  3  0  0  0  0  0  0
  -24.5760  -29.2930   19.2940 C   0  0  0  0  0  3  0  0  0  0  0  0
  -26.0800  -29.6420   21.2650 C   0  0  0  0  0  2  0  0  0  0  0  0
  -25.6860  -28.8610   20.0310 C   0  0  0  0  0  3  0  0  0  0  0  0
  -26.2050  -27.6090   19.6590 C   0  0  0  0  0  2  0  0  0  0  0  0
  -25.0040  -27.5360   17.6630 C   0  0  0  0  0  2  0  0  0  0  0  0
  -24.3630  -28.7420   17.9970 C   0  0  0  0  0  2  0  0  0  0  0  0
  -23.5750  -30.1340   20.0420 C   0  0  0  0  0  2  0  0  0  0  0  0
  -24.9410  -29.8950   22.1690 N   0  0  0  0  0  0  0  0  0  0  0  0
  -24.0750  -30.2490   24.2380 O   0  0  0  0  0  0  0  0  0  0  0  0
  -22.9110  -28.5900   22.0780 C   0  0  0  0  0  0  0  0  0  0  0  0
  -21.7300  -28.7150   22.5860 N   0  0  0  0  0  0  0  0  0  0  0  0
  -23.4550  -27.4930   22.1120 O   0  0  0  0  0  0  0  0  0  0  0  0
  -21.3430  -29.6450   22.6800 H   0  0  0  0  0  0  0  0  0  0  0  0
  -18.1050  -28.8220   22.1380 C   0  0  0  0  0  0  0  0  0  0  0  0
  -20.8050  -27.6170   22.7560 C   0  0  0  0  0  2  0  0  0  0  0  0
  -20.6810  -26.0720   21.3480 C   0  0  0  0  0  1  0  0  0  0  0  0
  -18.9380  -26.3010   20.1310 C   0  0  0  0  0  2  0  0  0  0  0  0
  -17.7610  -27.7890   20.6870 C   0  0  0  0  0  1  0  0  0  0  0  0
  -19.4170  -28.7460   22.9960 C   0  0  0  0  0  0  0  0  0  0  0  0
  -19.4110  -29.3810   24.2670 C   0  0  0  0  0  3  0  0  0  0  0  0
  -18.2620  -29.9410   24.8550 C   0  0  0  0  0  3  0  0  0  0  0  0
  -17.0270  -29.8310   24.2000 C   0  0  0  0  0  3  0  0  0  0  0  0
  -16.9570  -29.2730   22.8970 C   0  0  0  0  0  3  0  0  0  0  0  0
  -26.4470  -29.9670   24.1950 C   0  0  0  0  0  3  0  0  0  0  0  0
  -26.6710  -28.6400   25.0150 C   0  0  1  0  0  0  0  0  0  0  0  0
  -25.5280  -28.3160   26.0070 C   0  0  0  0  0  1  0  0  0  0  0  0
  -26.8280  -27.4260   24.0690 C   0  0  0  0  0  1  0  0  0  0  0  0
  -27.9940  -28.7530   25.8070 C   0  0  0  0  0  1  0  0  0  0  0  0
  -26.5360  -31.1430   25.0650 N   0  0  0  0  0  0  0  0  0  0  0  0
  -27.2860  -32.2170   24.7990 C   0  0  0  0  0  0  0  0  0  0  0  0
  -28.0490  -32.2770   23.8310 O   0  0  0  0  0  0  0  0  0  0  0  0
  -25.9060  -31.1780   25.8520 H   0  0  0  0  0  0  0  0  0  0  0  0
  -26.3530  -34.5290   25.1070 C   0  0  0  0  0  1  0  0  0  0  0  0
  -27.1740  -33.4100   25.7640 C   0  0  0  0  0  3  0  0  0  0  0  0
  -29.2200  -33.0050   27.0560 C   0  0  0  0  0  1  0  0  0  0  0  0
  -28.4890  -33.9320   26.1950 N   0  0  0  0  0  0  0  0  0  0  0  0
  -28.3830  -34.8120   26.6920 H   0  0  0  0  0  0  0  0  0  0  0  0
  -23.0390  -22.5310   23.5350 C   0  0  0  0  0  2  0  0  0  0  0  0
  -24.6830  -24.0840   22.4900 C   0  0  0  0  0  0  0  0  0  0  0  0
  -23.7330  -23.1460   22.4060 N   0  0  0  0  0  0  0  0  0  0  0  0
  -24.9520  -24.6750   23.5390 O   0  0  0  0  0  0  0  0  0  0  0  0
  -23.5580  -22.7460   21.4940 H   0  0  0  0  0  0  0  0  0  0  0  0
  -25.5010  -24.3300   21.2140 C   0  0  0  0  0  2  0  0  0  0  0  0
  -26.8870  -24.1750   21.5140 O   0  0  0  0  0  0  0  0  0  0  0  0
  -27.7430  -24.7930   20.5640 C   0  0  0  0  0  2  0  0  0  0  0  0
  -29.1780  -24.7080   21.0930 C   0  0  0  0  0  2  0  0  0  0  0  0
  -29.9380  -26.0380   21.0370 C   0  0  0  0  0  2  0  0  0  0  0  0
  -30.0720  -26.4900   19.6920 O   0  0  0  0  0  0  0  0  0  0  0  0
  -30.9540  -27.6020   19.5910 C   0  0  0  0  0  2  0  0  0  0  0  0
  -32.3250  -27.1390   19.0450 C   0  0  0  0  0  2  0  0  0  0  0  0
  -33.4160  -28.9760   17.7940 C   0  0  0  0  0  0  0  0  0  0  0  0
  -34.3540  -30.7670   16.3860 C   0  0  0  0  0  2  0  0  0  0  0  0
  -33.2740  -31.8170   16.0690 C   0  0  0  0  0  2  0  0  0  0  0  0
  -32.4740  -31.4120   14.8170 C   0  0  0  0  0  2  0  0  0  0  0  0
  -31.9600  -29.9500   14.8930 C   0  0  0  0  0  3  0  0  0  0  0  0
  -33.1040  -28.9910   15.2910 C   0  0  0  0  0  2  0  0  0  0  0  0
  -33.6850  -29.4690   16.5590 N   0  0  0  0  0  0  0  0  0  0  0  0
  -33.7920  -29.5140   18.8400 O   0  0  0  0  0  0  0  0  0  0  0  0
  -32.7040  -27.8450   17.8220 N   0  0  0  0  0  0  0  0  0  0  0  0
  -32.4170  -27.4460   16.9390 H   0  0  0  0  0  0  0  0  0  0  0  0
  -30.0660  -28.9960   13.4290 C   0  0  0  0  0  0  0  0  0  0  0  0
  -29.9350  -28.8690   12.0720 C   0  0  0  0  0  0  0  0  0  0  0  0
  -31.1500  -29.3700   11.5110 C   0  0  0  0  0  0  0  0  0  0  0  0
  -31.3220  -29.5460   13.6420 N   0  0  0  0  0  0  0  0  0  0  0  0
  -31.9910  -29.7240   12.4740 N   0  0  0  0  0  0  0  0  0  0  0  0
  -31.5360  -29.5890   10.1110 C   0  0  0  0  0  0  0  0  0  0  0  0
  -32.7660  -29.1150    9.6030 C   0  0  0  0  0  3  0  0  0  0  0  0
  -33.1080  -29.3210    8.2490 C   0  0  0  0  0  3  0  0  0  0  0  0
  -32.2170  -30.0030    7.3880 C   0  0  0  0  0  0  0  0  0  0  0  0
  -31.0020  -30.4910    7.9030 C   0  0  0  0  0  3  0  0  0  0  0  0
  -30.6660  -30.2910    9.2520 C   0  0  0  0  0  3  0  0  0  0  0  0
  -32.4770  -30.2710    6.0650 O   0  0  0  0  0  0  0  0  0  0  0  0
  -33.3380  -29.4970    5.3290 C   0  0  0  0  0  0  0  0  0  0  0  0
  -33.1450  -28.1060    5.1780 C   0  0  0  0  0  3  0  0  0  0  0  0
  -34.0140  -27.3610    4.3560 C   0  0  0  0  0  3  0  0  0  0  0  0
  -35.0660  -28.0040    3.6790 C   0  0  0  0  0  0  0  0  0  0  0  0
  -35.2570  -29.3900    3.8240 C   0  0  0  0  0  3  0  0  0  0  0  0
  -34.3920  -30.1340    4.6450 C   0  0  0  0  0  0  0  0  0  0  0  0
  -34.5660  -31.4730    4.7650 F   0  0  0  0  0  0  0  0  0  0  0  0
  -35.8970  -27.2910    2.8820 F   0  0  0  0  0  0  0  0  0  0  0  0
  -28.7160  -28.3980   11.3310 C   0  0  0  0  0  0  0  0  0  0  0  0
  -28.9060  -27.7580   10.1820 N   0  0  0  0  0  0  0  0  0  0  0  0
  -27.5870  -28.5550   11.7910 O   0  0  0  0  0  0  0  0  0  0  0  0
  -29.8340  -27.6040    9.8140 H   0  0  0  0  0  0  0  0  0  0  0  0
  -28.1110  -27.4130    9.6630 H   0  0  0  0  0  0  0  0  0  0  0  0
  -29.2250  -28.7070   14.4990 N   0  0  0  0  0  0  0  0  0  0  0  0
  -28.2820  -28.3560   14.3740 H   0  0  0  0  0  0  0  0  0  0  0  0
  -29.4570  -28.8820   15.4690 H   0  0  0  0  0  0  0  0  0  0  0  0
  1 54  1  0
  1  3  2  0
  2  1  1  0
  4  2  1  0
  5  2  1  0
  6  7  1  0
  6  5  1  0
  7  9  1  0
  8  6  2  0
 10  7  1  0
 11 33  1  0
 11 32  1  0
 12 13  1  0
 14 25  2  0
 15 13  1  0
 15 20  1  0
 16 26  1  0
 16 24  1  0
 17 22  1  0
 17 19  1  0
 17 23  1  0
 18 24  1  0
 19 20  1  0
 19 18  1  0
 21 22  1  0
 21 15  1  0
 23 16  1  0
 24 14  1  0
 26 28  2  0
 26 27  1  0
 27 29  1  0
 27 31  1  0
 30 39  2  0
 30 35  1  0
 31 35  1  0
 33 10  1  0
 34 30  1  0
 35 36  2  0
 36 37  1  0
 38 37  2  0
 39 38  1  0
 40 14  1  0
 40 41  1  0
 40 45  1  0
 41 44  1  1
 41 42  1  0
 43 41  1  0
 45 48  1  0
 46 45  1  0
 46 50  1  0
 47 46  2  0
 50 49  1  0
 50 52  1  0
 52 53  1  0
 52 51  1  0
 55 57  2  0
 56 55  1  0
 56 54  1  0
 58 56  1  0
 59 60  1  0
 59 55  1  0
 61 62  1  0
 61 60  1  0
 63 62  1  0
 64 63  1  0
 65 64  1  0
 66 65  1  0
 67 75  1  0
 67 74  2  0
 68 73  1  0
 69 68  1  0
 70 71  1  0
 70 69  1  0
 71 80  1  0
 71 72  1  0
 72 73  1  0
 73 67  1  0
 75 66  1  0
 76 75  1  0
 77 80  1  0
 77102  1  0
 78 77  2  0
 79 78  1  0
 79 81  2  0
 81 80  1  0
 82 79  1  0
 83 82  1  0
 84 83  2  0
 85 86  2  0
 85 84  1  0
 86 87  1  0
 87 82  2  0
 88 85  1  0
 89 88  1  0
 90 89  1  0
 91 90  2  0
 92 93  2  0
 92 91  1  0
 93 94  1  0
 94 95  1  0
 94 89  2  0
 96 92  1  0
 97 99  2  0
 97 78  1  0
 98 97  1  0
100 98  1  0
101 98  1  0
102104  1  0
103102  1  0
M  ISO  4  12 101  13 101  67 100  75 100
M  END
>  <TORSDO>  (38) 
F 31

>  <SCORE>  (38) 
7.569

>  <name>  (38) 
39

>  <ligand_id>  (38) 
39

>  <original_smiles>  (38) 
[H]c1c([H])c([H])c2c(c1[H])C([H])([H])C([H])([H])C([H])([H])C2([H])N([H])C(=O)C1([H])N(C(=O)C([H])(N([H])C(=O)C([H])(N([H])C([H])([H])[H])C([H])([H])[H])C(C([H])([H])[H])(C([H])([H])[H])C([H])([H])[H])C([H])([H])c2c([H])c(OC([H])([H])C([H])([H])C([H])([H])N([H])C(=O)C([H])([H])N([H])C(=O)C([H])([H])N([H])C(=O)C([H])([H])OC([H])([H])C([H])([H])C([H])([H])OC([H])([H])C([H])([H])N([H])C(=O)N3C([H])([H])C([H])([H])C([H])([H])C([H])(n4nc(-c5c([H])c([H])c(Oc6c([H])c([H])c(F)c([H])c6F)c([H])c5[H])c(C(=O)N([H])[H])c4N([H])[H])C3([H])[H])c([H])c([H])c2C1([H])[H]

>  <smiles>  (38) 
[H]c1c([H])c([H])c2c(c1[H])C([H])([H])C([H])([H])C([H])([H])C2([H])N([H])C(=O)C1([H])N(C(=O)C([H])(N([H])C(=O)C([H])(N([H])C([H])([H])[H])C([H])([H])[H])C(C([H])([H])[H])(C([H])([H])[H])C([H])([H])[H])C([H])([H])c2c([H])c(OC([H])([H])C([H])([H])C([H])([H])N([H])C(=O)C([H])([H])N([H])C(=O)C([H])([H])N([H])C(=O)C([H])([H])OC([H])([H])C([H])([H])C([H])([H])OC([H])([H])C([H])([H])N([H])C(=O)N3C([H])([H])C([H])([H])C([H])([H])C([H])(n4nc(-c5c([H])c([H])c(Oc6c([H])c([H])c(F)c([H])c6F)c([H])c5[H])c(C(=O)N([H])[H])c4N([H])[H])C3([H])[H])c([H])c([H])c2C1([H])[H]

$$$$
40:0:0
     RDKit          3D

112119  0  0  1  0  0  0  0  0999 V2000
  -25.4820  -16.1960   25.2520 C   0  0  0  0  0  0  0  0  0  0  0  0
  -24.1870  -16.0570   25.5470 N   0  0  0  0  0  0  0  0  0  0  0  0
  -25.8810  -16.4800   24.1200 O   0  0  0  0  0  0  0  0  0  0  0  0
  -23.9360  -15.8680   26.5070 H   0  0  0  0  0  0  0  0  0  0  0  0
  -23.0920  -16.3180   24.6180 C   0  0  0  0  0  2  0  0  0  0  0  0
  -22.0240  -17.2320   25.2290 C   0  0  0  0  0  0  0  0  0  0  0  0
  -21.3120  -17.9740   24.3760 N   0  0  0  0  0  0  0  0  0  0  0  0
  -21.8260  -17.2420   26.4480 O   0  0  0  0  0  0  0  0  0  0  0  0
  -21.5260  -17.8820   23.3910 H   0  0  0  0  0  0  0  0  0  0  0  0
  -20.2140  -18.8700   24.7300 C   0  0  0  0  0  2  0  0  0  0  0  0
  -20.6510  -20.3450   24.8080 C   0  0  0  0  0  2  0  0  0  0  0  0
  -20.3650  -21.1610   23.5350 C   0  0  0  0  0  2  0  0  0  0  0  0
  -20.7360  -22.6420   23.7200 C   0  0  0  0  0  2  0  0  0  0  0  0
  -20.4280  -23.5140   22.4910 C   0  0  0  0  0  2  0  0  0  0  0  0
  -21.2110  -24.8370   22.5180 C   0  0  0  0  0  2  0  0  0  0  0  0
  -21.0340  -25.6880   21.2470 C   0  0  0  0  0  2  0  0  0  0  0  0
  -22.0420  -26.8520   21.2010 C   0  0  0  0  0  2  0  0  0  0  0  0
  -21.7460  -27.9060   20.1110 C   0  0  0  0  0  2  0  0  0  0  0  0
  -22.7240  -28.9500   20.1140 O   0  0  0  0  0  0  0  0  0  0  0  0
  -27.7670  -31.4360   24.4430 C   0  0  0  0  0  0  0  0  0  0  0  0
  -22.9810  -29.5950   21.3060 C   0  0  0  0  0  0  0  0  0  0  0  0
  -25.4870  -31.3490   25.3990 C   0  0  0  0  0  3  0  0  0  0  0  0
  -23.6080  -30.8950   23.7360 C   0  0  0  0  0  0  0  0  0  0  0  0
  -25.8400  -31.6290   22.8780 C   0  0  0  0  0  2  0  0  0  0  0  0
  -24.5220  -30.9140   22.6750 C   0  0  0  0  0  0  0  0  0  0  0  0
  -24.2090  -30.2750   21.4570 C   0  0  0  0  0  3  0  0  0  0  0  0
  -22.0680  -29.5890   22.3890 C   0  0  0  0  0  3  0  0  0  0  0  0
  -22.3800  -30.2300   23.6000 C   0  0  0  0  0  3  0  0  0  0  0  0
  -24.0110  -31.6140   25.0020 C   0  0  0  0  0  2  0  0  0  0  0  0
  -26.4210  -31.4470   24.2290 N   0  0  0  0  0  0  0  0  0  0  0  0
  -28.2330  -31.3850   25.5890 O   0  0  0  0  0  0  0  0  0  0  0  0
  -25.5630  -29.9890   26.1280 C   0  0  0  0  0  0  0  0  0  0  0  0
  -25.2670  -29.9960   27.4370 N   0  0  0  0  0  0  0  0  0  0  0  0
  -25.8570  -28.9580   25.5150 O   0  0  0  0  0  0  0  0  0  0  0  0
  -25.0480  -30.8830   27.8690 H   0  0  0  0  0  0  0  0  0  0  0  0
  -24.8930  -28.9560   30.8780 C   0  0  0  0  0  0  0  0  0  0  0  0
  -25.2380  -28.8290   28.3190 C   0  0  0  0  0  3  0  0  0  0  0  0
  -23.8610  -28.1270   28.2700 C   0  0  0  0  0  2  0  0  0  0  0  0
  -22.8980  -28.6130   29.3580 C   0  0  0  0  0  2  0  0  0  0  0  0
  -23.4940  -28.3770   30.7490 C   0  0  0  0  0  2  0  0  0  0  0  0
  -25.7050  -29.1850   29.7350 C   0  0  0  0  0  0  0  0  0  0  0  0
  -26.9830  -29.7600   29.9060 C   0  0  0  0  0  3  0  0  0  0  0  0
  -27.4530  -30.1030   31.1880 C   0  0  0  0  0  3  0  0  0  0  0  0
  -26.6500  -29.8620   32.3170 C   0  0  0  0  0  3  0  0  0  0  0  0
  -25.3770  -29.2840   32.1610 C   0  0  0  0  0  3  0  0  0  0  0  0
  -28.7820  -31.5110   23.2600 C   0  0  0  0  0  3  0  0  0  0  0  0
  -29.7750  -32.5420   23.5950 N   0  0  0  0  0  0  0  0  0  0  0  0
  -29.7200  -33.8130   23.1780 C   0  0  0  0  0  0  0  0  0  0  0  0
  -28.8540  -34.2280   22.4010 O   0  0  0  0  0  0  0  0  0  0  0  0
  -30.4840  -32.2850   24.2650 H   0  0  0  0  0  0  0  0  0  0  0  0
  -30.2230  -35.5980   24.8770 C   0  0  0  0  0  1  0  0  0  0  0  0
  -30.7960  -34.7820   23.7080 C   0  0  0  0  0  3  0  0  0  0  0  0
  -32.1110  -35.0160   21.6470 C   0  0  0  0  0  1  0  0  0  0  0  0
  -31.3250  -35.6960   22.6720 N   0  0  0  0  0  0  0  0  0  0  0  0
  -31.9070  -36.4170   23.0930 H   0  0  0  0  0  0  0  0  0  0  0  0
  -29.4870  -30.1320   22.9550 C   0  0  1  0  0  0  0  0  0  0  0  0
  -30.1100  -29.4640   24.2030 C   0  0  0  0  0  1  0  0  0  0  0  0
  -28.4860  -29.1310   22.3320 C   0  0  0  0  0  1  0  0  0  0  0  0
  -30.6130  -30.3380   21.9160 C   0  0  0  0  0  1  0  0  0  0  0  0
  -26.4840  -15.9840   26.3920 C   0  0  0  0  0  2  0  0  0  0  0  0
  -27.6870  -18.1330   26.1260 C   0  0  0  0  0  0  0  0  0  0  0  0
  -27.6790  -16.7960   26.1760 N   0  0  0  0  0  0  0  0  0  0  0  0
  -26.6970  -18.8120   26.4090 O   0  0  0  0  0  0  0  0  0  0  0  0
  -28.5250  -16.3060   25.9150 H   0  0  0  0  0  0  0  0  0  0  0  0
  -28.9910  -18.7970   25.6730 C   0  0  0  0  0  2  0  0  0  0  0  0
  -28.7010  -20.0090   24.9740 O   0  0  0  0  0  0  0  0  0  0  0  0
  -29.7670  -20.9510   25.0320 C   0  0  0  0  0  2  0  0  0  0  0  0
  -30.2390  -21.3180   23.6140 C   0  0  0  0  0  2  0  0  0  0  0  0
  -31.0470  -20.2870   23.0640 O   0  0  0  0  0  0  0  0  0  0  0  0
  -31.8250  -20.7220   21.9520 C   0  0  0  0  0  2  0  0  0  0  0  0
  -31.8890  -19.5990   20.9110 C   0  0  0  0  0  2  0  0  0  0  0  0
  -32.6540  -18.5010   21.3960 O   0  0  0  0  0  0  0  0  0  0  0  0
  -32.2810  -17.2910   20.7540 C   0  0  0  0  0  2  0  0  0  0  0  0
  -33.2010  -16.1340   21.1670 C   0  0  0  0  0  2  0  0  0  0  0  0
  -32.7780  -13.9080   20.0630 C   0  0  0  0  0  0  0  0  0  0  0  0
  -31.9520  -11.7680   19.1480 C   0  0  0  0  0  2  0  0  0  0  0  0
  -31.0080  -11.9900   17.9500 C   0  0  0  0  0  2  0  0  0  0  0  0
  -29.5620  -12.2460   18.4190 C   0  0  0  0  0  2  0  0  0  0  0  0
  -29.4830  -13.3230   19.5310 C   0  0  0  0  0  3  0  0  0  0  0  0
  -30.4980  -13.0110   20.6490 C   0  0  0  0  0  2  0  0  0  0  0  0
  -31.8440  -12.9250   20.0430 N   0  0  0  0  0  0  0  0  0  0  0  0
  -33.8010  -13.9090   19.3680 O   0  0  0  0  0  0  0  0  0  0  0  0
  -32.5040  -14.8770   20.9390 N   0  0  0  0  0  0  0  0  0  0  0  0
  -31.6540  -14.7440   21.4670 H   0  0  0  0  0  0  0  0  0  0  0  0
  -27.4130  -14.5930   20.3960 C   0  0  0  0  0  0  0  0  0  0  0  0
  -26.1720  -14.1600   20.7790 C   0  0  0  0  0  0  0  0  0  0  0  0
  -26.1920  -12.7380   20.6450 C   0  0  0  0  0  0  0  0  0  0  0  0
  -28.1260  -13.4520   20.0600 N   0  0  0  0  0  0  0  0  0  0  0  0
  -27.3940  -12.3290   20.2610 N   0  0  0  0  0  0  0  0  0  0  0  0
  -25.1210  -11.7470   20.8040 C   0  0  0  0  0  0  0  0  0  0  0  0
  -25.3190  -10.5570   21.5370 C   0  0  0  0  0  3  0  0  0  0  0  0
  -24.2700   -9.6250   21.6880 C   0  0  0  0  0  3  0  0  0  0  0  0
  -23.0050   -9.8820   21.1070 C   0  0  0  0  0  0  0  0  0  0  0  0
  -22.8190  -11.0580   20.3590 C   0  0  0  0  0  3  0  0  0  0  0  0
  -23.8670  -11.9810   20.2070 C   0  0  0  0  0  3  0  0  0  0  0  0
  -21.9330   -9.0240   21.1810 O   0  0  0  0  0  0  0  0  0  0  0  0
  -21.8520   -8.0560   22.1480 C   0  0  0  0  0  0  0  0  0  0  0  0
  -21.7720   -8.3780   23.5210 C   0  0  0  0  0  3  0  0  0  0  0  0
  -21.6220   -7.3540   24.4770 C   0  0  0  0  0  3  0  0  0  0  0  0
  -21.5390   -6.0110   24.0620 C   0  0  0  0  0  0  0  0  0  0  0  0
  -21.6100   -5.6890   22.6950 C   0  0  0  0  0  3  0  0  0  0  0  0
  -21.7630   -6.7100   21.7410 C   0  0  0  0  0  0  0  0  0  0  0  0
  -21.8120   -6.3960   20.4240 F   0  0  0  0  0  0  0  0  0  0  0  0
  -21.3840   -5.0270   24.9790 F   0  0  0  0  0  0  0  0  0  0  0  0
  -25.0000  -15.0180   21.1550 C   0  0  0  0  0  0  0  0  0  0  0  0
  -24.1370  -14.5260   22.0370 N   0  0  0  0  0  0  0  0  0  0  0  0
  -24.8750  -16.1600   20.7140 O   0  0  0  0  0  0  0  0  0  0  0  0
  -24.2450  -13.5930   22.4090 H   0  0  0  0  0  0  0  0  0  0  0  0
  -23.3390  -15.0770   22.3180 H   0  0  0  0  0  0  0  0  0  0  0  0
  -27.9860  -15.8570   20.2880 N   0  0  0  0  0  0  0  0  0  0  0  0
  -27.4600  -16.7070   20.4520 H   0  0  0  0  0  0  0  0  0  0  0  0
  -28.9170  -16.0310   19.9300 H   0  0  0  0  0  0  0  0  0  0  0  0
  1  2  1  0
  1 60  1  0
  2  4  1  0
  3  1  2  0
  5  6  1  0
  5  2  1  0
  6  8  2  0
  7 10  1  0
  7  6  1  0
  9  7  1  0
 10 11  1  0
 12 13  1  0
 12 11  1  0
 14 15  1  0
 14 13  1  0
 16 15  1  0
 17 16  1  0
 18 19  1  0
 18 17  1  0
 19 21  1  0
 20 31  2  0
 21 26  2  0
 21 27  1  0
 22 32  1  0
 23 29  1  0
 24 30  1  0
 25 24  1  0
 25 23  2  0
 26 25  1  0
 27 28  2  0
 28 23  1  0
 29 22  1  0
 30 20  1  0
 30 22  1  0
 32 33  1  0
 33 35  1  0
 34 32  2  0
 36 45  1  0
 37 33  1  0
 37 41  1  0
 38 37  1  0
 38 39  1  0
 39 40  1  0
 40 36  1  0
 41 42  1  0
 41 36  2  0
 42 43  2  0
 43 44  1  0
 45 44  2  0
 46 47  1  0
 46 20  1  0
 47 50  1  0
 48 47  1  0
 48 52  1  0
 49 48  2  0
 52 51  1  0
 53 54  1  0
 54 55  1  0
 54 52  1  0
 56 46  1  0
 56 57  1  1
 58 56  1  0
 59 56  1  0
 61 62  1  0
 61 63  2  0
 62 60  1  0
 64 62  1  0
 65 61  1  0
 66 67  1  0
 66 65  1  0
 68 67  1  0
 69 68  1  0
 70 69  1  0
 71 72  1  0
 71 70  1  0
 73 74  1  0
 73 72  1  0
 75 83  1  0
 76 81  1  0
 77 78  1  0
 77 76  1  0
 79 78  1  0
 79 88  1  0
 79 80  1  0
 81 75  1  0
 81 80  1  0
 82 75  2  0
 83 74  1  0
 83 84  1  0
 85 86  2  0
 86105  1  0
 87 86  1  0
 87 90  1  0
 88 89  1  0
 88 85  1  0
 89 87  2  0
 90 91  1  0
 91 92  2  0
 93 96  1  0
 93 92  1  0
 94 93  2  0
 95 94  1  0
 95 90  2  0
 96 97  1  0
 97 98  1  0
 98 99  2  0
100 99  1  0
100104  1  0
101100  2  0
102 97  2  0
102101  1  0
103102  1  0
105106  1  0
106109  1  0
106108  1  0
107105  2  0
110 85  1  0
110111  1  0
112110  1  0
M  ISO  4  18 101  19 101  75 100  83 100
M  END
>  <TORSDO>  (39) 
F 39

>  <SCORE>  (39) 
44.170

>  <name>  (39) 
40

>  <ligand_id>  (39) 
40

>  <original_smiles>  (39) 
[H]c1c([H])c([H])c2c(c1[H])C([H])([H])C([H])([H])C([H])([H])C2([H])N([H])C(=O)C1([H])N(C(=O)C([H])(N([H])C(=O)C([H])(N([H])C([H])([H])[H])C([H])([H])[H])C(C([H])([H])[H])(C([H])([H])[H])C([H])([H])[H])C([H])([H])c2c([H])c(OC([H])([H])C([H])([H])C([H])([H])C([H])([H])C([H])([H])C([H])([H])C([H])([H])C([H])([H])C([H])([H])N([H])C(=O)C([H])([H])N([H])C(=O)C([H])([H])N([H])C(=O)C([H])([H])OC([H])([H])C([H])([H])OC([H])([H])C([H])([H])OC([H])([H])C([H])([H])N([H])C(=O)N3C([H])([H])C([H])([H])C([H])([H])C([H])(n4nc(-c5c([H])c([H])c(Oc6c([H])c([H])c(F)c([H])c6F)c([H])c5[H])c(C(=O)N([H])[H])c4N([H])[H])C3([H])[H])c([H])c([H])c2C1([H])[H]

>  <smiles>  (39) 
[H]c1c([H])c([H])c2c(c1[H])C([H])([H])C([H])([H])C([H])([H])C2([H])N([H])C(=O)C1([H])N(C(=O)C([H])(N([H])C(=O)C([H])(N([H])C([H])([H])[H])C([H])([H])[H])C(C([H])([H])[H])(C([H])([H])[H])C([H])([H])[H])C([H])([H])c2c([H])c(OC([H])([H])C([H])([H])C([H])([H])C([H])([H])C([H])([H])C([H])([H])C([H])([H])C([H])([H])C([H])([H])N([H])C(=O)C([H])([H])N([H])C(=O)C([H])([H])N([H])C(=O)C([H])([H])OC([H])([H])C([H])([H])OC([H])([H])C([H])([H])OC([H])([H])C([H])([H])N([H])C(=O)N3C([H])([H])C([H])([H])C([H])([H])C([H])(n4nc(-c5c([H])c([H])c(Oc6c([H])c([H])c(F)c([H])c6F)c([H])c5[H])c(C(=O)N([H])[H])c4N([H])[H])C3([H])[H])c([H])c([H])c2C1([H])[H]

$$$$
41:0:0
     RDKit          3D

 91 98  0  0  1  0  0  0  0  0999 V2000
  -31.4660  -22.2740   20.4310 C   0  0  0  0  0  0  0  0  0  0  0  0
  -30.2450  -21.7710   20.1980 N   0  0  0  0  0  0  0  0  0  0  0  0
  -32.4780  -21.5660   20.4270 O   0  0  0  0  0  0  0  0  0  0  0  0
  -29.4890  -22.4460   20.2070 H   0  0  0  0  0  0  0  0  0  0  0  0
  -31.6100  -23.7870   20.6640 C   0  0  0  0  0  2  0  0  0  0  0  0
  -30.3460  -24.4480   20.8220 O   0  0  0  0  0  0  0  0  0  0  0  0
  -30.5350  -25.8670   20.8490 C   0  0  0  0  0  2  0  0  0  0  0  0
  -29.2690  -26.6740   21.1880 C   0  0  0  0  0  2  0  0  0  0  0  0
  -28.3820  -26.6860   20.0710 O   0  0  0  0  0  0  0  0  0  0  0  0
  -24.5830  -31.8670   23.2510 C   0  0  0  0  0  0  0  0  0  0  0  0
  -27.2410  -27.4530   20.1590 C   0  0  0  0  0  0  0  0  0  0  0  0
  -23.3740  -30.4660   21.6050 C   0  0  0  0  0  3  0  0  0  0  0  0
  -24.8290  -28.9320   20.1790 C   0  0  0  0  0  0  0  0  0  0  0  0
  -25.8920  -30.8380   21.3990 C   0  0  0  0  0  2  0  0  0  0  0  0
  -25.9810  -29.4620   20.7710 C   0  0  0  0  0  0  0  0  0  0  0  0
  -27.1880  -28.7300   20.7710 C   0  0  0  0  0  3  0  0  0  0  0  0
  -26.0750  -26.9380   19.5600 C   0  0  0  0  0  3  0  0  0  0  0  0
  -24.8660  -27.6630   19.5720 C   0  0  0  0  0  3  0  0  0  0  0  0
  -23.5860  -29.7910   20.2220 C   0  0  0  0  0  2  0  0  0  0  0  0
  -24.6340  -31.0700   22.1450 N   0  0  0  0  0  0  0  0  0  0  0  0
  -23.5030  -32.1350   23.7950 O   0  0  0  0  0  0  0  0  0  0  0  0
  -22.7270  -29.4420   22.5640 C   0  0  0  0  0  0  0  0  0  0  0  0
  -21.4030  -29.2590   22.4390 N   0  0  0  0  0  0  0  0  0  0  0  0
  -23.4140  -28.8150   23.3760 O   0  0  0  0  0  0  0  0  0  0  0  0
  -20.9130  -29.8150   21.7520 H   0  0  0  0  0  0  0  0  0  0  0  0
  -18.0300  -28.0690   22.9440 C   0  0  0  0  0  0  0  0  0  0  0  0
  -20.5890  -28.3210   23.2100 C   0  0  0  0  0  3  0  0  0  0  0  0
  -20.6870  -26.8910   22.6310 C   0  0  0  0  0  2  0  0  0  0  0  0
  -19.5820  -26.5730   21.6180 C   0  0  0  0  0  2  0  0  0  0  0  0
  -18.2020  -26.7200   22.2670 C   0  0  0  0  0  2  0  0  0  0  0  0
  -19.1500  -28.8270   23.3750 C   0  0  0  0  0  0  0  0  0  0  0  0
  -18.9370  -30.0890   23.9690 C   0  0  0  0  0  3  0  0  0  0  0  0
  -17.6330  -30.5930   24.1410 C   0  0  0  0  0  3  0  0  0  0  0  0
  -16.5260  -29.8310   23.7260 C   0  0  0  0  0  3  0  0  0  0  0  0
  -16.7260  -28.5710   23.1340 C   0  0  0  0  0  3  0  0  0  0  0  0
  -25.8710  -32.4950   23.8670 C   0  0  0  0  0  3  0  0  0  0  0  0
  -25.5650  -33.8930   24.1980 N   0  0  0  0  0  0  0  0  0  0  0  0
  -25.9010  -34.9440   23.4370 C   0  0  0  0  0  0  0  0  0  0  0  0
  -26.5710  -34.8380   22.4060 O   0  0  0  0  0  0  0  0  0  0  0  0
  -24.9660  -34.0500   24.9950 H   0  0  0  0  0  0  0  0  0  0  0  0
  -24.1780  -36.7390   23.0740 C   0  0  0  0  0  1  0  0  0  0  0  0
  -25.4160  -36.3340   23.8910 C   0  0  0  0  0  3  0  0  0  0  0  0
  -27.5510  -37.2090   24.7290 C   0  0  0  0  0  1  0  0  0  0  0  0
  -26.4530  -37.3840   23.7820 N   0  0  0  0  0  0  0  0  0  0  0  0
  -26.0500  -38.3050   23.9290 H   0  0  0  0  0  0  0  0  0  0  0  0
  -26.3960  -31.7200   25.1370 C   0  0  1  0  0  0  0  0  0  0  0  0
  -25.3100  -31.4770   26.2120 C   0  0  0  0  0  1  0  0  0  0  0  0
  -26.9740  -30.3440   24.7300 C   0  0  0  0  0  1  0  0  0  0  0  0
  -27.5500  -32.5100   25.7950 C   0  0  0  0  0  1  0  0  0  0  0  0
  -29.9460  -20.3950   19.7760 C   0  0  0  0  0  2  0  0  0  0  0  0
  -30.1550  -19.3390   20.8900 C   0  0  0  0  0  2  0  0  0  0  0  0
  -29.8330  -17.8870   20.4460 C   0  0  0  0  0  2  0  0  0  0  0  0
  -30.3400  -16.8250   21.4520 C   0  0  0  0  0  2  0  0  0  0  0  0
  -30.6320  -14.4900   20.5120 C   0  0  0  0  0  0  0  0  0  0  0  0
  -30.3600  -12.3430   19.3180 C   0  0  0  0  0  2  0  0  0  0  0  0
  -29.4140  -12.5610   18.1180 C   0  0  0  0  0  2  0  0  0  0  0  0
  -27.9360  -12.4310   18.5410 C   0  0  0  0  0  2  0  0  0  0  0  0
  -27.6000  -13.2370   19.8250 C   0  0  0  0  0  3  0  0  0  0  0  0
  -28.6570  -12.9800   20.9230 C   0  0  0  0  0  2  0  0  0  0  0  0
  -29.9790  -13.3070   20.3600 N   0  0  0  0  0  0  0  0  0  0  0  0
  -31.7450  -14.7140   20.0280 O   0  0  0  0  0  0  0  0  0  0  0  0
  -29.9230  -15.4510   21.1350 N   0  0  0  0  0  0  0  0  0  0  0  0
  -29.0100  -15.1720   21.4580 H   0  0  0  0  0  0  0  0  0  0  0  0
  -25.1980  -13.8280   20.5400 C   0  0  0  0  0  0  0  0  0  0  0  0
  -24.1360  -13.0480   20.9110 C   0  0  0  0  0  0  0  0  0  0  0  0
  -24.6050  -11.7000   20.8790 C   0  0  0  0  0  0  0  0  0  0  0  0
  -26.2500  -12.9540   20.3050 N   0  0  0  0  0  0  0  0  0  0  0  0
  -25.8960  -11.6690   20.5660 N   0  0  0  0  0  0  0  0  0  0  0  0
  -23.8890  -10.4330   21.0720 C   0  0  0  0  0  0  0  0  0  0  0  0
  -24.3410   -9.4610   21.9920 C   0  0  0  0  0  3  0  0  0  0  0  0
  -23.6250   -8.2580   22.1710 C   0  0  0  0  0  3  0  0  0  0  0  0
  -22.4430   -8.0200   21.4320 C   0  0  0  0  0  0  0  0  0  0  0  0
  -22.0110   -8.9800   20.5000 C   0  0  0  0  0  3  0  0  0  0  0  0
  -22.7280  -10.1720   20.3190 C   0  0  0  0  0  3  0  0  0  0  0  0
  -21.6960   -6.8700   21.5240 O   0  0  0  0  0  0  0  0  0  0  0  0
  -21.6820   -6.1080   22.6650 C   0  0  0  0  0  0  0  0  0  0  0  0
  -21.2910   -6.6420   23.9110 C   0  0  0  0  0  3  0  0  0  0  0  0
  -21.2200   -5.8050   25.0430 C   0  0  0  0  0  3  0  0  0  0  0  0
  -21.5360   -4.4380   24.9300 C   0  0  0  0  0  0  0  0  0  0  0  0
  -21.9220   -3.9050   23.6890 C   0  0  0  0  0  3  0  0  0  0  0  0
  -21.9930   -4.7370   22.5590 C   0  0  0  0  0  0  0  0  0  0  0  0
  -22.3440   -4.2120   21.3600 F   0  0  0  0  0  0  0  0  0  0  0  0
  -21.4620   -3.6360   26.0180 F   0  0  0  0  0  0  0  0  0  0  0  0
  -22.7350  -13.5160   21.1840 C   0  0  0  0  0  0  0  0  0  0  0  0
  -22.0080  -12.8190   22.0510 N   0  0  0  0  0  0  0  0  0  0  0  0
  -22.2900  -14.5380   20.6620 O   0  0  0  0  0  0  0  0  0  0  0  0
  -22.3760  -11.9950   22.5030 H   0  0  0  0  0  0  0  0  0  0  0  0
  -21.0690  -13.1170   22.2660 H   0  0  0  0  0  0  0  0  0  0  0  0
  -25.3510  -15.1990   20.3640 N   0  0  0  0  0  0  0  0  0  0  0  0
  -24.5800  -15.8470   20.4820 H   0  0  0  0  0  0  0  0  0  0  0  0
  -26.1960  -15.6460   20.0290 H   0  0  0  0  0  0  0  0  0  0  0  0
  1  5  1  0
  2  4  1  0
  2  1  1  0
  3  1  2  0
  5  6  1  0
  6  7  1  0
  7  8  1  0
  9 11  1  0
  9  8  1  0
 10 21  2  0
 11 16  1  0
 12 20  1  0
 12 22  1  0
 13 19  1  0
 13 15  1  0
 14 20  1  0
 15 16  2  0
 15 14  1  0
 17 18  1  0
 17 11  2  0
 18 13  2  0
 19 12  1  0
 20 10  1  0
 22 24  2  0
 23 22  1  0
 25 23  1  0
 26 35  2  0
 26 31  1  0
 27 23  1  0
 27 31  1  0
 28 27  1  0
 29 30  1  0
 29 28  1  0
 30 26  1  0
 31 32  2  0
 32 33  1  0
 34 33  2  0
 35 34  1  0
 36 10  1  0
 36 37  1  0
 36 46  1  0
 37 40  1  0
 38 42  1  0
 38 37  1  0
 39 38  2  0
 42 41  1  0
 44 42  1  0
 44 45  1  0
 44 43  1  0
 46 49  1  1
 46 47  1  0
 48 46  1  0
 50  2  1  0
 50 51  1  0
 52 51  1  0
 52 53  1  0
 54 62  1  0
 55 60  1  0
 56 57  1  0
 56 55  1  0
 58 57  1  0
 58 67  1  0
 58 59  1  0
 60 54  1  0
 60 59  1  0
 61 54  2  0
 62 53  1  0
 62 63  1  0
 64 65  2  0
 65 84  1  0
 66 65  1  0
 66 69  1  0
 67 64  1  0
 67 68  1  0
 68 66  2  0
 69 70  1  0
 70 71  2  0
 72 75  1  0
 72 71  1  0
 73 72  2  0
 74 73  1  0
 74 69  2  0
 75 76  1  0
 76 77  1  0
 77 78  2  0
 79 78  1  0
 79 83  1  0
 80 79  2  0
 81 76  2  0
 81 80  1  0
 82 81  1  0
 84 85  1  0
 85 88  1  0
 85 87  1  0
 86 84  2  0
 89 90  1  0
 89 64  1  0
 91 89  1  0
M  ISO  4   8 101   9 101  54 100  62 100
M  END
>  <TORSDO>  (40) 
F 24

>  <SCORE>  (40) 
-12.428

>  <name>  (40) 
41

>  <ligand_id>  (40) 
41

>  <original_smiles>  (40) 
[H]c1c([H])c([H])c2c(c1[H])C([H])([H])C([H])([H])C([H])([H])C2([H])N([H])C(=O)C1([H])N(C(=O)C([H])(N([H])C(=O)C([H])(N([H])C([H])([H])[H])C([H])([H])[H])C(C([H])([H])[H])(C([H])([H])[H])C([H])([H])[H])C([H])([H])c2c([H])c(OC([H])([H])C([H])([H])OC([H])([H])C(=O)N([H])C([H])([H])C([H])([H])C([H])([H])C([H])([H])N([H])C(=O)N3C([H])([H])C([H])([H])C([H])([H])C([H])(n4nc(-c5c([H])c([H])c(Oc6c([H])c([H])c(F)c([H])c6F)c([H])c5[H])c(C(=O)N([H])[H])c4N([H])[H])C3([H])[H])c([H])c([H])c2C1([H])[H]

>  <smiles>  (40) 
[H]c1c([H])c([H])c2c(c1[H])C([H])([H])C([H])([H])C([H])([H])C2([H])N([H])C(=O)C1([H])N(C(=O)C([H])(N([H])C(=O)C([H])(N([H])C([H])([H])[H])C([H])([H])[H])C(C([H])([H])[H])(C([H])([H])[H])C([H])([H])[H])C([H])([H])c2c([H])c(OC([H])([H])C([H])([H])OC([H])([H])C(=O)N([H])C([H])([H])C([H])([H])C([H])([H])C([H])([H])N([H])C(=O)N3C([H])([H])C([H])([H])C([H])([H])C([H])(n4nc(-c5c([H])c([H])c(Oc6c([H])c([H])c(F)c([H])c6F)c([H])c5[H])c(C(=O)N([H])[H])c4N([H])[H])C3([H])[H])c([H])c([H])c2C1([H])[H]

$$$$
42:0:0
     RDKit          3D

101108  0  0  1  0  0  0  0  0999 V2000
  -26.0260  -23.0030   20.6420 C   0  0  0  0  0  0  0  0  0  0  0  0
  -27.1550  -22.4400   21.0900 N   0  0  0  0  0  0  0  0  0  0  0  0
  -25.7580  -24.1940   20.8260 O   0  0  0  0  0  0  0  0  0  0  0  0
  -27.3000  -21.4600   20.8870 H   0  0  0  0  0  0  0  0  0  0  0  0
  -25.0770  -22.0920   19.8520 C   0  0  0  0  0  2  0  0  0  0  0  0
  -24.9850  -22.5320   18.4960 O   0  0  0  0  0  0  0  0  0  0  0  0
  -25.0010  -21.4650   17.5510 C   0  0  0  0  0  2  0  0  0  0  0  0
  -26.4250  -21.3240   16.9760 C   0  0  0  0  0  2  0  0  0  0  0  0
  -27.3930  -21.0960   17.9970 O   0  0  0  0  0  0  0  0  0  0  0  0
  -27.5940  -19.7310   18.3360 C   0  0  0  0  0  2  0  0  0  0  0  0
  -28.4700  -19.6620   19.5930 C   0  0  0  0  0  2  0  0  0  0  0  0
  -28.8520  -18.3190   19.8530 O   0  0  0  0  0  0  0  0  0  0  0  0
  -29.4100  -18.1540   21.1510 C   0  0  0  0  0  2  0  0  0  0  0  0
  -30.6110  -17.2020   21.0710 C   0  0  0  0  0  2  0  0  0  0  0  0
  -30.8360  -14.8370   20.3280 C   0  0  0  0  0  0  0  0  0  0  0  0
  -30.6460  -12.5520   19.4200 C   0  0  0  0  0  2  0  0  0  0  0  0
  -29.7170  -12.5490   18.1910 C   0  0  0  0  0  2  0  0  0  0  0  0
  -28.2430  -12.4040   18.6170 C   0  0  0  0  0  2  0  0  0  0  0  0
  -27.8440  -13.3930   19.7450 C   0  0  0  0  0  3  0  0  0  0  0  0
  -28.8800  -13.3490   20.8910 C   0  0  0  0  0  2  0  0  0  0  0  0
  -30.2080  -13.6330   20.3150 N   0  0  0  0  0  0  0  0  0  0  0  0
  -31.9060  -15.0540   19.7490 O   0  0  0  0  0  0  0  0  0  0  0  0
  -30.1870  -15.8060   20.9840 N   0  0  0  0  0  0  0  0  0  0  0  0
  -29.2990  -15.5680   21.3970 H   0  0  0  0  0  0  0  0  0  0  0  0
  -25.4780  -14.0260   20.5410 C   0  0  0  0  0  0  0  0  0  0  0  0
  -24.3930  -13.2650   20.8860 C   0  0  0  0  0  0  0  0  0  0  0  0
  -24.8110  -11.9040   20.7570 C   0  0  0  0  0  0  0  0  0  0  0  0
  -26.4900  -13.1310   20.2330 N   0  0  0  0  0  0  0  0  0  0  0  0
  -26.0910  -11.8470   20.4160 N   0  0  0  0  0  0  0  0  0  0  0  0
  -24.0510  -10.6550   20.8880 C   0  0  0  0  0  0  0  0  0  0  0  0
  -24.4240   -9.6610   21.8180 C   0  0  0  0  0  3  0  0  0  0  0  0
  -23.6710   -8.4730   21.9370 C   0  0  0  0  0  3  0  0  0  0  0  0
  -22.5290   -8.2720   21.1230 C   0  0  0  0  0  0  0  0  0  0  0  0
  -22.1750   -9.2560   20.1840 C   0  0  0  0  0  3  0  0  0  0  0  0
  -22.9280  -10.4360   20.0640 C   0  0  0  0  0  3  0  0  0  0  0  0
  -21.7520   -7.1400   21.1500 O   0  0  0  0  0  0  0  0  0  0  0  0
  -21.5180   -6.4530   22.3150 C   0  0  0  0  0  0  0  0  0  0  0  0
  -20.9090   -7.0670   23.4320 C   0  0  0  0  0  3  0  0  0  0  0  0
  -20.6260   -6.3070   24.5850 C   0  0  0  0  0  3  0  0  0  0  0  0
  -20.9400   -4.9340   24.6190 C   0  0  0  0  0  0  0  0  0  0  0  0
  -21.5400   -4.3210   23.5050 C   0  0  0  0  0  3  0  0  0  0  0  0
  -21.8270   -5.0790   22.3560 C   0  0  0  0  0  0  0  0  0  0  0  0
  -22.3870   -4.4780   21.2780 F   0  0  0  0  0  0  0  0  0  0  0  0
  -20.6600   -4.2010   25.7220 F   0  0  0  0  0  0  0  0  0  0  0  0
  -23.0180  -13.7640   21.2240 C   0  0  0  0  0  0  0  0  0  0  0  0
  -22.2860  -13.0350   22.0610 N   0  0  0  0  0  0  0  0  0  0  0  0
  -22.6010  -14.8340   20.7830 O   0  0  0  0  0  0  0  0  0  0  0  0
  -22.6340  -12.1700   22.4430 H   0  0  0  0  0  0  0  0  0  0  0  0
  -21.3620  -13.3520   22.3210 H   0  0  0  0  0  0  0  0  0  0  0  0
  -25.6840  -15.4010   20.4510 N   0  0  0  0  0  0  0  0  0  0  0  0
  -24.9450  -16.0690   20.6290 H   0  0  0  0  0  0  0  0  0  0  0  0
  -26.5590  -15.8310   20.1820 H   0  0  0  0  0  0  0  0  0  0  0  0
  -28.2840  -23.1450   21.6930 C   0  0  0  0  0  2  0  0  0  0  0  0
  -29.3690  -23.4620   20.6550 C   0  0  0  0  0  0  0  0  0  0  0  0
  -30.2690  -24.4020   20.9720 N   0  0  0  0  0  0  0  0  0  0  0  0
  -29.4040  -22.8540   19.5820 O   0  0  0  0  0  0  0  0  0  0  0  0
  -30.1960  -24.8260   21.8880 H   0  0  0  0  0  0  0  0  0  0  0  0
  -31.3570  -24.8630   20.1070 C   0  0  0  0  0  2  0  0  0  0  0  0
  -30.8490  -25.7080   18.9240 C   0  0  0  0  0  2  0  0  0  0  0  0
  -29.9840  -26.9120   19.3320 C   0  0  0  0  0  2  0  0  0  0  0  0
  -29.0920  -27.1650   18.2560 O   0  0  0  0  0  0  0  0  0  0  0  0
  -24.8040  -30.4740   22.9140 C   0  0  0  0  0  0  0  0  0  0  0  0
  -27.8400  -27.5930   18.6090 C   0  0  0  0  0  0  0  0  0  0  0  0
  -23.6890  -29.2790   21.0560 C   0  0  0  0  0  3  0  0  0  0  0  0
  -25.2230  -28.4660   19.1880 C   0  0  0  0  0  0  0  0  0  0  0  0
  -26.0520  -30.2100   20.7780 C   0  0  0  0  0  2  0  0  0  0  0  0
  -26.3180  -29.0750   19.8140 C   0  0  0  0  0  0  0  0  0  0  0  0
  -27.6300  -28.6360   19.5390 C   0  0  0  0  0  3  0  0  0  0  0  0
  -26.7320  -26.9880   17.9850 C   0  0  0  0  0  3  0  0  0  0  0  0
  -25.4220  -27.4110   18.2790 C   0  0  0  0  0  3  0  0  0  0  0  0
  -23.8530  -29.0030   19.5360 C   0  0  0  0  0  2  0  0  0  0  0  0
  -24.8700  -29.9910   21.6410 N   0  0  0  0  0  0  0  0  0  0  0  0
  -23.7680  -30.3750   23.5840 O   0  0  0  0  0  0  0  0  0  0  0  0
  -23.3670  -27.9450   21.7650 C   0  0  0  0  0  0  0  0  0  0  0  0
  -22.1240  -27.4650   21.6000 N   0  0  0  0  0  0  0  0  0  0  0  0
  -24.2280  -27.3540   22.4230 O   0  0  0  0  0  0  0  0  0  0  0  0
  -21.4730  -28.0150   21.0540 H   0  0  0  0  0  0  0  0  0  0  0  0
  -19.2220  -25.3150   21.6970 C   0  0  0  0  0  0  0  0  0  0  0  0
  -21.6060  -26.2080   22.1410 C   0  0  0  0  0  3  0  0  0  0  0  0
  -22.1040  -24.9990   21.3160 C   0  0  0  0  0  2  0  0  0  0  0  0
  -21.1330  -24.5870   20.2050 C   0  0  0  0  0  2  0  0  0  0  0  0
  -19.7670  -24.2210   20.7950 C   0  0  0  0  0  2  0  0  0  0  0  0
  -20.0850  -26.2580   22.3170 C   0  0  0  0  0  0  0  0  0  0  0  0
  -19.5250  -27.2760   23.1180 C   0  0  0  0  0  3  0  0  0  0  0  0
  -18.1330  -27.3600   23.3070 C   0  0  0  0  0  3  0  0  0  0  0  0
  -17.2840  -26.4140   22.7050 C   0  0  0  0  0  3  0  0  0  0  0  0
  -17.8290  -25.3940   21.9060 C   0  0  0  0  0  3  0  0  0  0  0  0
  -26.0190  -31.1970   23.5790 C   0  0  0  0  0  3  0  0  0  0  0  0
  -26.6960  -30.3510   24.7250 C   0  0  1  0  0  0  0  0  0  0  0  0
  -25.6950  -29.8100   25.7720 C   0  0  0  0  0  1  0  0  0  0  0  0
  -27.4600  -29.1450   24.1320 C   0  0  0  0  0  1  0  0  0  0  0  0
  -27.7420  -31.2150   25.4670 C   0  0  0  0  0  1  0  0  0  0  0  0
  -25.5370  -32.4860   24.0960 N   0  0  0  0  0  0  0  0  0  0  0  0
  -25.7400  -33.6670   23.4990 C   0  0  0  0  0  0  0  0  0  0  0  0
  -26.4240  -33.7930   22.4790 O   0  0  0  0  0  0  0  0  0  0  0  0
  -24.9240  -32.4490   24.8970 H   0  0  0  0  0  0  0  0  0  0  0  0
  -23.8190  -35.2800   23.3370 C   0  0  0  0  0  1  0  0  0  0  0  0
  -25.0790  -34.9050   24.1340 C   0  0  0  0  0  3  0  0  0  0  0  0
  -27.0750  -35.8900   25.1700 C   0  0  0  0  0  1  0  0  0  0  0  0
  -25.9820  -36.0740   24.2190 N   0  0  0  0  0  0  0  0  0  0  0  0
  -25.4660  -36.9080   24.4870 H   0  0  0  0  0  0  0  0  0  0  0  0
  1  3  2  0
  1  2  1  0
  2 53  1  0
  4  2  1  0
  5  1  1  0
  6  5  1  0
  7  6  1  0
  8  7  1  0
  8  9  1  0
  9 10  1  0
 10 11  1  0
 11 12  1  0
 12 13  1  0
 14 13  1  0
 15 23  1  0
 16 21  1  0
 17 18  1  0
 17 16  1  0
 19 18  1  0
 19 28  1  0
 19 20  1  0
 21 15  1  0
 21 20  1  0
 22 15  2  0
 23 14  1  0
 23 24  1  0
 25 26  2  0
 26 45  1  0
 27 26  1  0
 27 30  1  0
 28 29  1  0
 28 25  1  0
 29 27  2  0
 30 31  1  0
 31 32  2  0
 33 36  1  0
 33 32  1  0
 34 33  2  0
 35 34  1  0
 35 30  2  0
 36 37  1  0
 37 42  2  0
 37 38  1  0
 38 39  2  0
 39 40  1  0
 40 44  1  0
 41 40  2  0
 42 41  1  0
 43 42  1  0
 45 46  1  0
 46 49  1  0
 46 48  1  0
 47 45  2  0
 50 25  1  0
 50 51  1  0
 52 50  1  0
 54 55  1  0
 54 53  1  0
 55 57  1  0
 56 54  2  0
 58 55  1  0
 59 60  1  0
 59 58  1  0
 61 63  1  0
 61 60  1  0
 62 73  2  0
 63 68  1  0
 64 72  1  0
 64 74  1  0
 65 71  1  0
 65 67  1  0
 66 72  1  0
 67 66  1  0
 68 67  2  0
 69 70  1  0
 69 63  2  0
 70 65  2  0
 71 64  1  0
 72 62  1  0
 74 76  2  0
 75 74  1  0
 77 75  1  0
 78 87  2  0
 78 83  1  0
 79 75  1  0
 79 83  1  0
 80 79  1  0
 81 82  1  0
 81 80  1  0
 82 78  1  0
 83 84  2  0
 84 85  1  0
 86 85  2  0
 87 86  1  0
 88 62  1  0
 88 93  1  0
 88 89  1  0
 89 92  1  1
 89 90  1  0
 91 89  1  0
 93 96  1  0
 94 93  1  0
 94 98  1  0
 95 94  2  0
 98 97  1  0
 98100  1  0
100101  1  0
100 99  1  0
M  ISO  4  15 100  23 100  60 101  61 101
M  END
>  <TORSDO>  (41) 
F 31

>  <SCORE>  (41) 
-7.037

>  <name>  (41) 
42

>  <ligand_id>  (41) 
42

>  <original_smiles>  (41) 
[H]c1c([H])c([H])c2c(c1[H])C([H])([H])C([H])([H])C([H])([H])C2([H])N([H])C(=O)C1([H])N(C(=O)C([H])(N([H])C(=O)C([H])(N([H])C([H])([H])[H])C([H])([H])[H])C(C([H])([H])[H])(C([H])([H])[H])C([H])([H])[H])C([H])([H])c2c([H])c(OC([H])([H])C([H])([H])C([H])([H])N([H])C(=O)C([H])([H])N([H])C(=O)C([H])([H])OC([H])([H])C([H])([H])OC([H])([H])C([H])([H])OC([H])([H])C([H])([H])N([H])C(=O)N3C([H])([H])C([H])([H])C([H])([H])C([H])(n4nc(-c5c([H])c([H])c(Oc6c([H])c([H])c(F)c([H])c6F)c([H])c5[H])c(C(=O)N([H])[H])c4N([H])[H])C3([H])[H])c([H])c([H])c2C1([H])[H]

>  <smiles>  (41) 
[H]c1c([H])c([H])c2c(c1[H])C([H])([H])C([H])([H])C([H])([H])C2([H])N([H])C(=O)C1([H])N(C(=O)C([H])(N([H])C(=O)C([H])(N([H])C([H])([H])[H])C([H])([H])[H])C(C([H])([H])[H])(C([H])([H])[H])C([H])([H])[H])C([H])([H])c2c([H])c(OC([H])([H])C([H])([H])C([H])([H])N([H])C(=O)C([H])([H])N([H])C(=O)C([H])([H])OC([H])([H])C([H])([H])OC([H])([H])C([H])([H])OC([H])([H])C([H])([H])N([H])C(=O)N3C([H])([H])C([H])([H])C([H])([H])C([H])(n4nc(-c5c([H])c([H])c(Oc6c([H])c([H])c(F)c([H])c6F)c([H])c5[H])c(C(=O)N([H])[H])c4N([H])[H])C3([H])[H])c([H])c([H])c2C1([H])[H]

$$$$
43:0:0
     RDKit          3D

106113  0  0  1  0  0  0  0  0999 V2000
  -23.5100  -31.9070   20.8380 C   0  0  0  0  0  2  0  0  0  0  0  0
  -24.1480  -30.3360   18.6690 C   0  0  0  0  0  0  0  0  0  0  0  0
  -23.5380  -30.6500   19.9100 N   0  0  0  0  0  0  0  0  0  0  0  0
  -24.7300  -31.2380   18.0660 O   0  0  0  0  0  0  0  0  0  0  0  0
  -22.9910  -29.8870   20.2820 H   0  0  0  0  0  0  0  0  0  0  0  0
  -24.1090  -28.8580   17.9160 C   0  0  0  0  0  2  0  0  0  0  0  0
  -25.3120  -28.3360   17.1300 O   0  0  0  0  0  0  0  0  0  0  0  0
  -25.4530  -26.8840   16.6630 C   0  0  0  0  0  2  0  0  0  0  0  0
  -26.6230  -26.3290   15.5980 C   0  0  0  0  0  2  0  0  0  0  0  0
  -27.4830  -24.8930   15.7010 C   0  0  0  0  0  2  0  0  0  0  0  0
  -28.9920  -24.7040   15.4920 O   0  0  0  0  0  0  0  0  0  0  0  0
  -29.6350  -23.4660   14.8570 C   0  0  0  0  0  3  0  0  0  0  0  0
  -31.2330  -22.9880   15.0480 C   0  0  0  0  0  3  0  0  0  0  0  0
  -32.0810  -21.9300   14.0550 C   0  0  0  0  0  2  0  0  0  0  0  0
  -33.5800  -21.2350   14.3600 C   0  0  0  0  0  3  0  0  0  0  0  0
  -34.5090  -20.4350   13.2150 C   0  0  0  0  0  3  0  0  0  0  0  0
  -36.7810  -19.0490   12.6660 C   0  0  0  0  0  0  0  0  0  0  0  0
  -37.6080  -16.8290   11.8670 C   0  0  0  0  0  2  0  0  0  0  0  0
  -36.4370  -15.8260   11.9830 C   0  0  0  0  0  2  0  0  0  0  0  0
  -36.4060  -15.1930   13.3900 C   0  0  0  0  0  2  0  0  0  0  0  0
  -36.5640  -16.2400   14.5250 C   0  0  0  0  0  3  0  0  0  0  0  0
  -37.6970  -17.2480   14.2390 C   0  0  0  0  0  2  0  0  0  0  0  0
  -37.4100  -17.8430   12.9290 N   0  0  0  0  0  0  0  0  0  0  0  0
  -36.9710  -19.5720   11.5620 O   0  0  0  0  0  0  0  0  0  0  0  0
  -35.7410  -19.5040   13.5080 N   0  0  0  0  0  0  0  0  0  0  0  0
  -35.6810  -18.9910   14.3770 H   0  0  0  0  0  0  0  0  0  0  0  0
  -35.9830  -15.8770   16.9930 C   0  0  0  0  0  0  0  0  0  0  0  0
  -36.4090  -14.9660   17.9140 C   0  0  0  0  0  0  0  0  0  0  0  0
  -37.4000  -14.1720   17.2550 C   0  0  0  0  0  0  0  0  0  0  0  0
  -36.6960  -15.6170   15.8370 N   0  0  0  0  0  0  0  0  0  0  0  0
  -37.6050  -14.6250   16.0250 N   0  0  0  0  0  0  0  0  0  0  0  0
  -38.1170  -12.9730   17.7100 C   0  0  0  0  0  0  0  0  0  0  0  0
  -39.5280  -12.9040   17.6910 C   0  0  0  0  0  3  0  0  0  0  0  0
  -40.1950  -11.7490   18.1500 C   0  0  0  0  0  3  0  0  0  0  0  0
  -39.4530  -10.6480   18.6420 C   0  0  0  0  0  0  0  0  0  0  0  0
  -38.0480  -10.7130   18.6390 C   0  0  0  0  0  3  0  0  0  0  0  0
  -37.3840  -11.8610   18.1750 C   0  0  0  0  0  3  0  0  0  0  0  0
  -40.0150   -9.4770   19.0860 O   0  0  0  0  0  0  0  0  0  0  0  0
  -41.2580   -9.4490   19.6640 C   0  0  0  0  0  0  0  0  0  0  0  0
  -41.5630  -10.2090   20.8140 C   0  0  0  0  0  3  0  0  0  0  0  0
  -42.8320  -10.0970   21.4150 C   0  0  0  0  0  3  0  0  0  0  0  0
  -43.7940   -9.2240   20.8760 C   0  0  0  0  0  0  0  0  0  0  0  0
  -43.4920   -8.4620   19.7340 C   0  0  0  0  0  3  0  0  0  0  0  0
  -42.2250   -8.5720   19.1300 C   0  0  0  0  0  0  0  0  0  0  0  0
  -41.9320   -7.8210   18.0410 F   0  0  0  0  0  0  0  0  0  0  0  0
  -45.0110   -9.1090   21.4580 F   0  0  0  0  0  0  0  0  0  0  0  0
  -35.8580  -14.7680   19.2970 C   0  0  0  0  0  0  0  0  0  0  0  0
  -36.6870  -14.3310   20.2350 N   0  0  0  0  0  0  0  0  0  0  0  0
  -34.6880  -15.0550   19.5620 O   0  0  0  0  0  0  0  0  0  0  0  0
  -37.6510  -14.1150   20.0260 H   0  0  0  0  0  0  0  0  0  0  0  0
  -36.3530  -14.2120   21.1820 H   0  0  0  0  0  0  0  0  0  0  0  0
  -35.0200  -16.8870   17.0290 N   0  0  0  0  0  0  0  0  0  0  0  0
  -34.4400  -17.0450   17.8440 H   0  0  0  0  0  0  0  0  0  0  0  0
  -34.7370  -17.4440   16.2360 H   0  0  0  0  0  0  0  0  0  0  0  0
  -23.3830  -32.1800   22.4900 C   0  0  0  0  0  0  0  0  0  0  0  0
  -23.2230  -31.2910   23.5730 N   0  0  0  0  0  0  0  0  0  0  0  0
  -23.5190  -33.3620   22.7980 O   0  0  0  0  0  0  0  0  0  0  0  0
  -22.9470  -30.3770   23.2660 H   0  0  0  0  0  0  0  0  0  0  0  0
  -23.7890  -31.2610   25.0420 C   0  0  0  0  0  2  0  0  0  0  0  0
  -24.3640  -29.8870   25.9600 C   0  0  0  0  0  2  0  0  0  0  0  0
  -25.6500  -28.7840   25.9010 C   0  0  0  0  0  3  0  0  0  0  0  0
  -25.8360  -27.1830   26.3100 C   0  0  0  0  0  3  0  0  0  0  0  0
  -27.2080  -26.2510   26.0200 C   0  0  0  0  0  2  0  0  0  0  0  0
  -27.7620  -25.5980   24.6010 C   0  0  0  0  0  3  0  0  0  0  0  0
  -29.1950  -24.8020   24.3600 C   0  0  0  0  0  3  0  0  0  0  0  0
  -29.7530  -24.2980   23.0110 O   0  0  0  0  0  0  0  0  0  0  0  0
  -27.4930  -30.1690   23.7010 C   0  0  0  0  0  0  0  0  0  0  0  0
  -29.2860  -25.0340   21.9880 C   0  0  0  0  0  0  0  0  0  0  0  0
  -26.0410  -28.5800   22.1420 C   0  0  0  0  0  3  0  0  0  0  0  0
  -27.3540  -26.7340   21.1480 C   0  0  0  0  0  0  0  0  0  0  0  0
  -28.6090  -28.6680   22.2380 C   0  0  0  0  0  2  0  0  0  0  0  0
  -28.5250  -27.2630   21.7290 C   0  0  0  0  0  0  0  0  0  0  0  0
  -29.5620  -26.3940   22.0610 C   0  0  0  0  0  3  0  0  0  0  0  0
  -28.1930  -24.5080   21.2860 C   0  0  0  0  0  3  0  0  0  0  0  0
  -27.2130  -25.3820   20.8350 C   0  0  0  0  0  3  0  0  0  0  0  0
  -26.1630  -27.5590   21.0080 C   0  0  0  0  0  2  0  0  0  0  0  0
  -27.3470  -29.1740   22.7520 N   0  0  0  0  0  0  0  0  0  0  0  0
  -26.5740  -30.7720   24.1560 O   0  0  0  0  0  0  0  0  0  0  0  0
  -25.0300  -27.8760   23.0270 C   0  0  0  0  0  0  0  0  0  0  0  0
  -23.7030  -27.9730   22.8170 N   0  0  0  0  0  0  0  0  0  0  0  0
  -25.4630  -27.0450   23.7640 O   0  0  0  0  0  0  0  0  0  0  0  0
  -23.3580  -28.5460   22.0640 H   0  0  0  0  0  0  0  0  0  0  0  0
  -20.1850  -27.2010   22.9130 C   0  0  0  0  0  0  0  0  0  0  0  0
  -22.6770  -27.2590   23.5870 C   0  0  0  0  0  3  0  0  0  0  0  0
  -22.7090  -25.7460   23.2700 C   0  0  0  0  0  2  0  0  0  0  0  0
  -21.7360  -25.3590   22.1660 C   0  0  0  0  0  2  0  0  0  0  0  0
  -20.3070  -25.7330   22.5590 C   0  0  0  0  0  2  0  0  0  0  0  0
  -21.2880  -27.9180   23.4250 C   0  0  0  0  0  0  0  0  0  0  0  0
  -21.0570  -29.2640   23.7870 C   0  0  0  0  0  3  0  0  0  0  0  0
  -19.8480  -29.9320   23.5710 C   0  0  0  0  0  3  0  0  0  0  0  0
  -18.7750  -29.2090   23.0500 C   0  0  0  0  0  3  0  0  0  0  0  0
  -18.9410  -27.8460   22.7460 C   0  0  0  0  0  3  0  0  0  0  0  0
  -28.7790  -30.7000   24.4030 C   0  0  0  0  0  3  0  0  0  0  0  0
  -29.2210  -29.7980   25.6300 C   0  0  1  0  0  0  0  0  0  0  0  0
  -28.2160  -29.6190   26.8000 C   0  0  0  0  0  1  0  0  0  0  0  0
  -29.6870  -28.4260   25.1080 C   0  0  0  0  0  1  0  0  0  0  0  0
  -30.4650  -30.4130   26.2870 C   0  0  0  0  0  1  0  0  0  0  0  0
  -28.4710  -32.0530   24.9260 N   0  0  0  0  0  0  0  0  0  0  0  0
  -28.7660  -33.1970   24.3100 C   0  0  0  0  0  0  0  0  0  0  0  0
  -29.4350  -33.2230   23.2770 O   0  0  0  0  0  0  0  0  0  0  0  0
  -27.8330  -32.0950   25.7050 H   0  0  0  0  0  0  0  0  0  0  0  0
  -27.0950  -35.1080   24.2130 C   0  0  0  0  0  1  0  0  0  0  0  0
  -28.3010  -34.5170   24.9670 C   0  0  0  0  0  3  0  0  0  0  0  0
  -30.4260  -35.1600   25.9860 C   0  0  0  0  0  1  0  0  0  0  0  0
  -29.3810  -35.5250   25.0350 N   0  0  0  0  0  0  0  0  0  0  0  0
  -29.0200  -36.4420   25.2820 H   0  0  0  0  0  0  0  0  0  0  0  0
  1 55  1  0
  2  3  1  0
  3  5  1  0
  3  1  1  0
  4  2  2  0
  6  2  1  0
  7  6  1  0
  8  7  1  0
  9 10  1  0
  9  8  1  0
 11 10  1  0
 12 13  2  0
 12 11  1  0
 14 15  1  0
 14 13  1  0
 16 25  1  0
 16 15  2  0
 17 23  1  0
 17 25  1  0
 18 19  1  0
 18 23  1  0
 19 20  1  0
 21 20  1  0
 21 30  1  0
 22 21  1  0
 23 22  1  0
 24 17  2  0
 25 26  1  0
 27 52  1  0
 27 28  2  0
 28 47  1  0
 29 32  1  0
 29 28  1  0
 30 31  1  0
 30 27  1  0
 31 29  2  0
 32 37  1  0
 33 32  2  0
 33 34  1  0
 34 35  2  0
 35 38  1  0
 36 35  1  0
 37 36  2  0
 38 39  1  0
 39 40  1  0
 40 41  2  0
 42 41  1  0
 42 46  1  0
 43 42  2  0
 44 39  2  0
 44 43  1  0
 45 44  1  0
 47 49  2  0
 47 48  1  0
 48 51  1  0
 50 48  1  0
 52 53  1  0
 54 52  1  0
 55 57  2  0
 55 56  1  0
 56 59  1  0
 58 56  1  0
 59 60  1  0
 61 60  1  0
 61 62  2  0
 63 62  1  0
 64 63  1  0
 65 64  2  0
 66 65  1  0
 67 78  2  0
 68 73  1  0
 68 66  1  0
 69 77  1  0
 69 79  1  0
 70 72  1  0
 71 77  1  0
 72 73  2  0
 72 71  1  0
 74 68  2  0
 75 70  2  0
 75 74  1  0
 76 70  1  0
 76 69  1  0
 77 67  1  0
 79 81  2  0
 80 79  1  0
 82 80  1  0
 83 88  1  0
 84 80  1  0
 85 84  1  0
 86 87  1  0
 86 85  1  0
 87 83  1  0
 88 84  1  0
 88 89  2  0
 90 89  1  0
 91 90  2  0
 92 83  2  0
 92 91  1  0
 93 67  1  0
 93 98  1  0
 93 94  1  0
 94 97  1  1
 94 95  1  0
 96 94  1  0
 98101  1  0
 99 98  1  0
 99103  1  0
100 99  2  0
103102  1  0
103105  1  0
105106  1  0
105104  1  0
M  ISO  4  17 100  25 100  65 101  66 101
M  END
>  <TORSDO>  (42) 
F 36

>  <SCORE>  (42) 
0.535

>  <name>  (42) 
43

>  <ligand_id>  (42) 
43

>  <original_smiles>  (42) 
[H]c1c([H])c([H])c2c(c1[H])C([H])([H])C([H])([H])C([H])([H])C2([H])N([H])C(=O)C1([H])N(C(=O)C([H])(N([H])C(=O)C([H])(N([H])C([H])([H])[H])C([H])([H])[H])C(C([H])([H])[H])(C([H])([H])[H])C([H])([H])[H])C([H])([H])c2c([H])c(OC([H])([H])C([H])([H])C([H])([H])C([H])([H])C([H])([H])C([H])([H])C([H])([H])N([H])C(=O)C([H])([H])N([H])C(=O)C([H])([H])OC([H])([H])C([H])([H])C([H])([H])OC([H])([H])C([H])([H])C([H])([H])C([H])([H])C([H])([H])N([H])C(=O)N3C([H])([H])C([H])([H])C([H])([H])C([H])(n4nc(-c5c([H])c([H])c(Oc6c([H])c([H])c(F)c([H])c6F)c([H])c5[H])c(C(=O)N([H])[H])c4N([H])[H])C3([H])[H])c([H])c([H])c2C1([H])[H]

>  <smiles>  (42) 
[H]c1c([H])c([H])c2c(c1[H])C([H])([H])C([H])([H])C([H])([H])C2([H])N([H])C(=O)C1([H])N(C(=O)C([H])(N([H])C(=O)C([H])(N([H])C([H])([H])[H])C([H])([H])[H])C(C([H])([H])[H])(C([H])([H])[H])C([H])([H])[H])C([H])([H])c2c([H])c(OC([H])([H])C([H])([H])C([H])([H])C([H])([H])C([H])([H])C([H])([H])C([H])([H])N([H])C(=O)C([H])([H])N([H])C(=O)C([H])([H])OC([H])([H])C([H])([H])C([H])([H])OC([H])([H])C([H])([H])C([H])([H])C([H])([H])C([H])([H])N([H])C(=O)N3C([H])([H])C([H])([H])C([H])([H])C([H])(n4nc(-c5c([H])c([H])c(Oc6c([H])c([H])c(F)c([H])c6F)c([H])c5[H])c(C(=O)N([H])[H])c4N([H])[H])C3([H])[H])c([H])c([H])c2C1([H])[H]

$$$$
44:0:0
     RDKit          3D

105113  0  0  1  0  0  0  0  0999 V2000
  -23.5340  -21.6920   23.4850 O   0  0  0  0  0  0  0  0  0  0  0  0
  -23.4530  -20.4150   22.8620 C   0  0  0  0  0  2  0  0  0  0  0  0
  -23.4270  -19.3170   23.9450 C   0  0  0  0  0  2  0  0  0  0  0  0
  -24.0670  -18.1120   23.5360 O   0  0  0  0  0  0  0  0  0  0  0  0
  -23.6420  -17.6150   22.2710 C   0  0  0  0  0  2  0  0  0  0  0  0
  -23.8370  -16.0950   22.2680 C   0  0  0  0  0  2  0  0  0  0  0  0
  -25.2240  -15.8270   22.4250 O   0  0  0  0  0  0  0  0  0  0  0  0
  -25.4980  -14.5460   22.9720 C   0  0  0  0  0  2  0  0  0  0  0  0
  -26.9420  -14.5700   23.4880 C   0  0  0  0  0  2  0  0  0  0  0  0
  -27.7750  -13.8860   22.5560 O   0  0  0  0  0  0  0  0  0  0  0  0
  -29.1200  -14.3520   22.5510 C   0  0  0  0  0  2  0  0  0  0  0  0
  -30.0520  -13.2190   22.0900 C   0  0  0  0  0  2  0  0  0  0  0  0
  -31.0540  -13.6910   21.1790 O   0  0  0  0  0  0  0  0  0  0  0  0
  -31.3070  -12.7220   20.1700 C   0  0  0  0  0  2  0  0  0  0  0  0
  -31.7220  -13.2620   18.7800 C   0  0  0  0  0  2  0  0  0  0  0  0
  -31.0160  -11.5110   17.1440 C   0  0  0  0  0  0  0  0  0  0  0  0
  -29.9600   -9.3180   16.6710 C   0  0  0  0  0  2  0  0  0  0  0  0
  -28.6440   -9.4490   15.8760 C   0  0  0  0  0  2  0  0  0  0  0  0
  -27.4480   -9.7560   16.8050 C   0  0  0  0  0  2  0  0  0  0  0  0
  -27.7410  -10.9150   17.7900 C   0  0  0  0  0  3  0  0  0  0  0  0
  -29.0760  -10.6410   18.4990 C   0  0  0  0  0  2  0  0  0  0  0  0
  -30.1250  -10.5410   17.4650 N   0  0  0  0  0  0  0  0  0  0  0  0
  -31.8850  -11.3980   16.2740 O   0  0  0  0  0  0  0  0  0  0  0  0
  -30.8100  -12.6540   17.8110 N   0  0  0  0  0  0  0  0  0  0  0  0
  -29.8580  -12.7100   18.1380 H   0  0  0  0  0  0  0  0  0  0  0  0
  -26.2130  -12.2750   19.3580 C   0  0  0  0  0  0  0  0  0  0  0  0
  -25.1360  -11.9090   20.1210 C   0  0  0  0  0  0  0  0  0  0  0  0
  -24.9790  -10.5010   19.9350 C   0  0  0  0  0  0  0  0  0  0  0  0
  -26.6610  -11.1080   18.7550 N   0  0  0  0  0  0  0  0  0  0  0  0
  -25.9420  -10.0290   19.1540 N   0  0  0  0  0  0  0  0  0  0  0  0
  -23.9320   -9.5860   20.4020 C   0  0  0  0  0  0  0  0  0  0  0  0
  -24.2440   -8.4410   21.1660 C   0  0  0  0  0  3  0  0  0  0  0  0
  -23.2170   -7.5830   21.6190 C   0  0  0  0  0  3  0  0  0  0  0  0
  -21.8640   -7.8710   21.3150 C   0  0  0  0  0  0  0  0  0  0  0  0
  -21.5620   -9.0020   20.5350 C   0  0  0  0  0  3  0  0  0  0  0  0
  -22.5860   -9.8510   20.0780 C   0  0  0  0  0  3  0  0  0  0  0  0
  -20.8040   -7.0790   21.6880 O   0  0  0  0  0  0  0  0  0  0  0  0
  -20.8920   -6.2190   22.7550 C   0  0  0  0  0  0  0  0  0  0  0  0
  -21.0260   -6.6870   24.0790 C   0  0  0  0  0  3  0  0  0  0  0  0
  -21.0380   -5.7730   25.1520 C   0  0  0  0  0  3  0  0  0  0  0  0
  -20.9100   -4.3940   24.9020 C   0  0  0  0  0  0  0  0  0  0  0  0
  -20.7720   -3.9240   23.5840 C   0  0  0  0  0  3  0  0  0  0  0  0
  -20.7610   -4.8360   22.5140 C   0  0  0  0  0  0  0  0  0  0  0  0
  -20.6080   -4.3780   21.2480 F   0  0  0  0  0  0  0  0  0  0  0  0
  -20.9140   -3.5190   25.9350 F   0  0  0  0  0  0  0  0  0  0  0  0
  -24.2360  -12.8300   20.8940 C   0  0  0  0  0  0  0  0  0  0  0  0
  -23.6620  -12.3490   21.9920 N   0  0  0  0  0  0  0  0  0  0  0  0
  -24.0730  -14.0000   20.5520 O   0  0  0  0  0  0  0  0  0  0  0  0
  -23.8130  -11.3970   22.2840 H   0  0  0  0  0  0  0  0  0  0  0  0
  -23.0590  -12.9440   22.5400 H   0  0  0  0  0  0  0  0  0  0  0  0
  -26.8300  -13.4990   19.1190 N   0  0  0  0  0  0  0  0  0  0  0  0
  -26.4550  -14.3610   19.5010 H   0  0  0  0  0  0  0  0  0  0  0  0
  -27.5880  -13.6560   18.4670 H   0  0  0  0  0  0  0  0  0  0  0  0
  -23.4360  -22.7740   22.5670 C   0  0  0  0  0  2  0  0  0  0  0  0
  -24.0690  -24.0080   23.2300 C   0  0  0  0  0  2  0  0  0  0  0  0
  -27.6090  -25.4980   23.1300 C   0  0  0  0  0  2  0  0  0  0  0  0
  -27.3570  -24.0560   21.2510 C   0  0  0  0  0  2  0  0  0  0  0  0
  -26.1000  -25.3980   23.4470 C   0  0  0  0  0  2  0  0  0  0  0  0
  -25.8430  -23.9360   21.5100 C   0  0  0  0  0  2  0  0  0  0  0  0
  -27.8170  -25.3790   21.6800 N   0  0  0  0  0  0  0  0  0  0  0  0
  -25.5240  -24.1210   22.9510 N   0  0  2  0  0  4  0  0  0  0  0  0
  -25.9840  -23.3830   23.4660 H   0  0  0  0  0  0  0  0  0  0  0  0
  -29.2190  -25.5740   21.2960 C   0  0  0  0  0  2  0  0  0  0  0  0
  -29.4910  -27.0110   20.8050 C   0  0  0  0  0  2  0  0  0  0  0  0
  -28.8200  -27.2240   19.5620 O   0  0  0  0  0  0  0  0  0  0  0  0
  -24.4440  -31.5210   23.1620 C   0  0  0  0  0  0  0  0  0  0  0  0
  -27.5740  -27.7870   19.6720 C   0  0  0  0  0  0  0  0  0  0  0  0
  -23.3830  -30.0910   21.4420 C   0  0  0  0  0  3  0  0  0  0  0  0
  -24.9870  -28.8890   19.8620 C   0  0  0  0  0  0  0  0  0  0  0  0
  -25.8190  -30.8310   21.2090 C   0  0  0  0  0  2  0  0  0  0  0  0
  -26.0740  -29.5400   20.4630 C   0  0  0  0  0  0  0  0  0  0  0  0
  -27.3700  -28.9960   20.3700 C   0  0  0  0  0  3  0  0  0  0  0  0
  -26.4800  -27.1440   19.0600 C   0  0  0  0  0  3  0  0  0  0  0  0
  -25.1830  -27.6840   19.1580 C   0  0  0  0  0  3  0  0  0  0  0  0
  -23.6340  -29.5480   20.0080 C   0  0  0  0  0  2  0  0  0  0  0  0
  -24.5640  -30.8290   21.9950 N   0  0  0  0  0  0  0  0  0  0  0  0
  -23.3580  -31.5930   23.7550 O   0  0  0  0  0  0  0  0  0  0  0  0
  -22.9200  -28.9190   22.3350 C   0  0  0  0  0  0  0  0  0  0  0  0
  -21.6720  -28.4700   22.1320 N   0  0  0  0  0  0  0  0  0  0  0  0
  -23.6840  -28.4110   23.1610 O   0  0  0  0  0  0  0  0  0  0  0  0
  -21.1040  -28.9520   21.4510 H   0  0  0  0  0  0  0  0  0  0  0  0
  -18.6650  -26.4680   22.2990 C   0  0  0  0  0  0  0  0  0  0  0  0
  -21.0390  -27.3430   22.8160 C   0  0  0  0  0  3  0  0  0  0  0  0
  -21.5520  -25.9910   22.2630 C   0  0  0  0  0  2  0  0  0  0  0  0
  -20.6630  -25.4050   21.1640 C   0  0  0  0  0  2  0  0  0  0  0  0
  -19.2340  -25.2040   21.6760 C   0  0  0  0  0  2  0  0  0  0  0  0
  -19.5140  -27.4780   22.8230 C   0  0  0  0  0  0  0  0  0  0  0  0
  -18.9370  -28.6480   23.3630 C   0  0  0  0  0  3  0  0  0  0  0  0
  -17.5410  -28.8180   23.3810 C   0  0  0  0  0  3  0  0  0  0  0  0
  -16.7020  -27.8070   22.8780 C   0  0  0  0  0  3  0  0  0  0  0  0
  -17.2640  -26.6340   22.3420 C   0  0  0  0  0  3  0  0  0  0  0  0
  -25.6550  -32.2770   23.7940 C   0  0  0  0  0  3  0  0  0  0  0  0
  -25.2330  -33.6630   24.0320 N   0  0  0  0  0  0  0  0  0  0  0  0
  -25.5140  -34.6920   23.2210 C   0  0  0  0  0  0  0  0  0  0  0  0
  -26.2270  -34.5810   22.2210 O   0  0  0  0  0  0  0  0  0  0  0  0
  -24.5990  -33.8140   24.8020 H   0  0  0  0  0  0  0  0  0  0  0  0
  -23.6630  -36.3160   22.7110 C   0  0  0  0  0  1  0  0  0  0  0  0
  -24.9070  -36.0610   23.5790 C   0  0  0  0  0  3  0  0  0  0  0  0
  -26.9390  -37.1600   24.4070 C   0  0  0  0  0  1  0  0  0  0  0  0
  -25.8580  -37.1830   23.4260 N   0  0  0  0  0  0  0  0  0  0  0  0
  -25.3780  -38.0760   23.5020 H   0  0  0  0  0  0  0  0  0  0  0  0
  -26.1760  -31.6140   25.1300 C   0  0  1  0  0  0  0  0  0  0  0  0
  -25.0550  -31.3170   26.1540 C   0  0  0  0  0  1  0  0  0  0  0  0
  -26.9090  -30.2850   24.8320 C   0  0  0  0  0  1  0  0  0  0  0  0
  -27.2070  -32.5450   25.8100 C   0  0  0  0  0  1  0  0  0  0  0  0
  2  1  1  0
  2  3  1  0
  4  3  1  0
  5  4  1  0
  6  5  1  0
  6  7  1  0
  7  8  1  0
  8  9  1  0
 10  9  1  0
 11 10  1  0
 12 11  1  0
 13 12  1  0
 14 13  1  0
 15 14  1  0
 16 22  1  0
 16 24  1  0
 17 22  1  0
 18 17  1  0
 18 19  1  0
 20 19  1  0
 20 21  1  0
 20 29  1  0
 22 21  1  0
 23 16  2  0
 24 25  1  0
 24 15  1  0
 26 27  2  0
 27 46  1  0
 28 27  1  0
 28 31  1  0
 29 30  1  0
 29 26  1  0
 30 28  2  0
 31 32  1  0
 32 33  2  0
 34 33  1  0
 34 37  1  0
 35 34  2  0
 36 31  2  0
 36 35  1  0
 37 38  1  0
 38 39  1  0
 39 40  2  0
 41 40  1  0
 41 45  1  0
 42 41  2  0
 43 38  2  0
 43 42  1  0
 44 43  1  0
 46 47  1  0
 47 49  1  0
 47 50  1  0
 48 46  2  0
 51 26  1  0
 51 52  1  0
 53 51  1  0
 54 55  1  0
 54  1  1  0
 56 58  1  0
 57 59  1  0
 57 60  1  0
 59 61  1  0
 60 56  1  0
 61 55  1  0
 61 58  1  0
 61 62  1  1
 63 60  1  0
 64 63  1  0
 65 67  1  0
 65 64  1  0
 66 77  2  0
 67 72  1  0
 68 76  1  0
 68 78  1  0
 69 75  1  0
 69 71  1  0
 70 76  1  0
 71 70  1  0
 72 71  2  0
 73 74  1  0
 73 67  2  0
 74 69  2  0
 75 68  1  0
 76 66  1  0
 78 80  2  0
 79 78  1  0
 81 79  1  0
 82 91  2  0
 82 87  1  0
 83 79  1  0
 83 87  1  0
 84 83  1  0
 85 86  1  0
 85 84  1  0
 86 82  1  0
 87 88  2  0
 88 89  1  0
 90 89  2  0
 91 90  1  0
 92 66  1  0
 92 93  1  0
 92102  1  0
 93 96  1  0
 94 98  1  0
 94 93  1  0
 95 94  2  0
 98 97  1  0
100101  1  0
100 98  1  0
100 99  1  0
102105  1  1
102103  1  0
104102  1  0
M  ISO  4  16 100  24 100  64 101  65 101
M  END
>  <TORSDO>  (43) 
F 35

>  <SCORE>  (43) 
48.750

>  <name>  (43) 
44

>  <ligand_id>  (43) 
44

>  <original_smiles>  (43) 
[H]c1c([H])c([H])c2c(c1[H])C([H])([H])C([H])([H])C([H])([H])C2([H])N([H])C(=O)C1([H])N(C(=O)C([H])(N([H])C(=O)C([H])(N([H])C([H])([H])[H])C([H])([H])[H])C(C([H])([H])[H])(C([H])([H])[H])C([H])([H])[H])C([H])([H])c2c([H])c(OC([H])([H])C([H])([H])N3C([H])([H])C([H])([H])[N+]([H])(C([H])([H])C([H])([H])OC([H])([H])C([H])([H])OC([H])([H])C([H])([H])OC([H])([H])C([H])([H])OC([H])([H])C([H])([H])OC([H])([H])C([H])([H])N([H])C(=O)N4C([H])([H])C([H])([H])C([H])([H])C([H])(n5nc(-c6c([H])c([H])c(Oc7c([H])c([H])c(F)c([H])c7F)c([H])c6[H])c(C(=O)N([H])[H])c5N([H])[H])C4([H])[H])C([H])([H])C3([H])[H])c([H])c([H])c2C1([H])[H]

>  <smiles>  (43) 
[H]c1c([H])c([H])c2c(c1[H])C([H])([H])C([H])([H])C([H])([H])C2([H])N([H])C(=O)C1([H])N(C(=O)C([H])(N([H])C(=O)C([H])(N([H])C([H])([H])[H])C([H])([H])[H])C(C([H])([H])[H])(C([H])([H])[H])C([H])([H])[H])C([H])([H])c2c([H])c(OC([H])([H])C([H])([H])N3C([H])([H])C([H])([H])[N+]([H])(C([H])([H])C([H])([H])OC([H])([H])C([H])([H])OC([H])([H])C([H])([H])OC([H])([H])C([H])([H])OC([H])([H])C([H])([H])OC([H])([H])C([H])([H])N([H])C(=O)N4C([H])([H])C([H])([H])C([H])([H])C([H])(n5nc(-c6c([H])c([H])c(Oc7c([H])c([H])c(F)c([H])c7F)c([H])c6[H])c(C(=O)N([H])[H])c5N([H])[H])C4([H])[H])C([H])([H])C3([H])[H])c([H])c([H])c2C1([H])[H]

$$$$
45:0:0
     RDKit          3D

109117  0  0  1  0  0  0  0  0999 V2000
  -31.4910  -19.0000   21.5770 C   0  0  0  0  0  2  0  0  0  0  0  0
  -31.3240  -18.6550   23.0560 C   0  0  0  0  0  2  0  0  0  0  0  0
  -30.3070  -19.5200   23.5400 O   0  0  0  0  0  0  0  0  0  0  0  0
  -30.1740  -19.5290   24.9560 C   0  0  0  0  0  2  0  0  0  0  0  0
  -29.2800  -20.7360   25.2800 C   0  0  0  0  0  2  0  0  0  0  0  0
  -31.3240  -23.5200   23.6270 C   0  0  0  0  0  2  0  0  0  0  0  0
  -28.9900  -24.1050   23.4450 C   0  0  0  0  0  2  0  0  0  0  0  0
  -30.9830  -22.4690   24.6940 C   0  0  0  0  0  2  0  0  0  0  0  0
  -28.6220  -22.9910   24.4520 C   0  0  0  0  0  2  0  0  0  0  0  0
  -30.3570  -24.6200   23.6620 N   0  0  0  0  0  0  0  0  0  0  0  0
  -29.6350  -21.9080   24.4340 N   0  0  2  0  0  4  0  0  0  0  0  0
  -29.6660  -21.5330   23.4950 H   0  0  0  0  0  0  0  0  0  0  0  0
  -30.7230  -25.5890   22.6210 C   0  0  0  0  0  2  0  0  0  0  0  0
  -30.6580  -27.0300   23.1310 C   0  0  0  0  0  2  0  0  0  0  0  0
  -31.3550  -27.8650   22.2110 O   0  0  0  0  0  0  0  0  0  0  0  0
  -30.4780  -32.7000   27.3020 C   0  0  0  0  0  0  0  0  0  0  0  0
  -31.1640  -29.1850   22.5040 C   0  0  0  0  0  0  0  0  0  0  0  0
  -29.8630  -33.4170   25.0130 C   0  0  0  0  0  3  0  0  0  0  0  0
  -30.6140  -31.8690   23.1290 C   0  0  0  0  0  0  0  0  0  0  0  0
  -31.6720  -31.6540   25.3880 C   0  0  0  0  0  2  0  0  0  0  0  0
  -31.2750  -31.0560   24.0590 C   0  0  0  0  0  0  0  0  0  0  0  0
  -31.5530  -29.7110   23.7530 C   0  0  0  0  0  3  0  0  0  0  0  0
  -30.5100  -30.0080   21.5680 C   0  0  0  0  0  3  0  0  0  0  0  0
  -30.2280  -31.3520   21.8790 C   0  0  0  0  0  3  0  0  0  0  0  0
  -30.3550  -33.2990   23.5440 C   0  0  0  0  0  2  0  0  0  0  0  0
  -30.6560  -32.5660   25.9580 N   0  0  0  0  0  0  0  0  0  0  0  0
  -29.7010  -33.5480   27.7620 O   0  0  0  0  0  0  0  0  0  0  0  0
  -28.3470  -33.1220   25.0520 C   0  0  0  0  0  0  0  0  0  0  0  0
  -27.5430  -34.0650   24.5320 N   0  0  0  0  0  0  0  0  0  0  0  0
  -27.9200  -32.0590   25.5090 O   0  0  0  0  0  0  0  0  0  0  0  0
  -27.9720  -34.9090   24.1830 H   0  0  0  0  0  0  0  0  0  0  0  0
  -24.6630  -35.5830   22.9700 C   0  0  0  0  0  0  0  0  0  0  0  0
  -26.0870  -33.9910   24.4250 C   0  0  0  0  0  3  0  0  0  0  0  0
  -25.6570  -32.8750   23.4450 C   0  0  0  0  0  2  0  0  0  0  0  0
  -25.4520  -33.3770   22.0130 C   0  0  0  0  0  2  0  0  0  0  0  0
  -24.3800  -34.4690   21.9750 C   0  0  0  0  0  2  0  0  0  0  0  0
  -25.4770  -35.3600   24.1120 C   0  0  0  0  0  0  0  0  0  0  0  0
  -25.7390  -36.4390   24.9870 C   0  0  0  0  0  3  0  0  0  0  0  0
  -25.1990  -37.7150   24.7370 C   0  0  0  0  0  3  0  0  0  0  0  0
  -24.3790  -37.9240   23.6160 C   0  0  0  0  0  3  0  0  0  0  0  0
  -24.1090  -36.8580   22.7370 C   0  0  0  0  0  3  0  0  0  0  0  0
  -31.2560  -31.8140   28.3250 C   0  0  0  0  0  3  0  0  0  0  0  0
  -30.3180  -30.8620   29.1650 C   0  0  1  0  0  0  0  0  0  0  0  0
  -29.0900  -31.5780   29.7720 C   0  0  0  0  0  1  0  0  0  0  0  0
  -29.8020  -29.6960   28.2880 C   0  0  0  0  0  1  0  0  0  0  0  0
  -31.1200  -30.2240   30.3240 C   0  0  0  0  0  1  0  0  0  0  0  0
  -32.0090  -32.7140   29.2070 N   0  0  0  0  0  0  0  0  0  0  0  0
  -33.2910  -33.0610   29.0260 C   0  0  0  0  0  0  0  0  0  0  0  0
  -33.9910  -32.5900   28.1260 O   0  0  0  0  0  0  0  0  0  0  0  0
  -31.4840  -33.1800   29.9340 H   0  0  0  0  0  0  0  0  0  0  0  0
  -33.8530  -35.4900   29.3500 C   0  0  0  0  0  1  0  0  0  0  0  0
  -33.8900  -34.0960   29.9960 C   0  0  0  0  0  3  0  0  0  0  0  0
  -35.3630  -32.5830   31.2500 C   0  0  0  0  0  1  0  0  0  0  0  0
  -35.2720  -33.7790   30.4160 N   0  0  0  0  0  0  0  0  0  0  0  0
  -35.6790  -34.5550   30.9310 H   0  0  0  0  0  0  0  0  0  0  0  0
  -32.1450  -20.2580   21.4160 O   0  0  0  0  0  0  0  0  0  0  0  0
  -32.6360  -20.4490   20.0910 C   0  0  0  0  0  2  0  0  0  0  0  0
  -33.6370  -21.6080   20.0140 C   0  0  0  0  0  2  0  0  0  0  0  0
  -32.9890  -22.9950   20.1200 C   0  0  0  0  0  2  0  0  0  0  0  0
  -32.2860  -23.3330   18.9370 O   0  0  0  0  0  0  0  0  0  0  0  0
  -32.0620  -24.7350   18.8120 C   0  0  0  0  0  2  0  0  0  0  0  0
  -31.2800  -24.9970   17.5260 C   0  0  0  0  0  2  0  0  0  0  0  0
  -32.0730  -24.4470   16.4930 O   0  0  0  0  0  0  0  0  0  0  0  0
  -31.5330  -24.6180   15.1990 C   0  0  0  0  0  2  0  0  0  0  0  0
  -32.3360  -23.6810   14.2870 C   0  0  0  0  0  2  0  0  0  0  0  0
  -32.0140  -22.3360   14.6010 O   0  0  0  0  0  0  0  0  0  0  0  0
  -30.6630  -21.9980   14.3210 C   0  0  0  0  0  2  0  0  0  0  0  0
  -30.2010  -20.9560   15.3480 C   0  0  0  0  0  2  0  0  0  0  0  0
  -30.0050  -21.5210   16.6490 O   0  0  0  0  0  0  0  0  0  0  0  0
  -30.9340  -21.0670   17.6330 C   0  0  0  0  0  2  0  0  0  0  0  0
  -30.4980  -19.7270   18.2770 C   0  0  0  0  0  2  0  0  0  0  0  0
  -28.4620  -19.0000   19.4690 C   0  0  0  0  0  0  0  0  0  0  0  0
  -26.3080  -19.2000   18.3820 C   0  0  0  0  0  2  0  0  0  0  0  0
  -26.5410  -20.1890   17.2170 C   0  0  0  0  0  2  0  0  0  0  0  0
  -26.3370  -21.6460   17.6750 C   0  0  0  0  0  2  0  0  0  0  0  0
  -27.1010  -21.9800   18.9820 C   0  0  0  0  0  3  0  0  0  0  0  0
  -26.9170  -20.8740   20.0550 C   0  0  0  0  0  2  0  0  0  0  0  0
  -27.2370  -19.5710   19.4500 N   0  0  0  0  0  0  0  0  0  0  0  0
  -28.6850  -17.8080   19.2470 O   0  0  0  0  0  0  0  0  0  0  0  0
  -29.4130  -19.9110   19.2440 N   0  0  0  0  0  0  0  0  0  0  0  0
  -29.1130  -20.8610   19.3780 H   0  0  0  0  0  0  0  0  0  0  0  0
  -27.5920  -24.3170   19.9280 C   0  0  0  0  0  0  0  0  0  0  0  0
  -26.7690  -25.3730   20.2180 C   0  0  0  0  0  0  0  0  0  0  0  0
  -25.4440  -24.9280   19.9330 C   0  0  0  0  0  0  0  0  0  0  0  0
  -26.7570  -23.3000   19.4940 N   0  0  0  0  0  0  0  0  0  0  0  0
  -25.4510  -23.6560   19.5580 N   0  0  0  0  0  0  0  0  0  0  0  0
  -24.1690  -25.6540   19.9440 C   0  0  0  0  0  0  0  0  0  0  0  0
  -23.0660  -25.1910   20.6950 C   0  0  0  0  0  3  0  0  0  0  0  0
  -21.8520  -25.9110   20.7010 C   0  0  0  0  0  3  0  0  0  0  0  0
  -21.7360  -27.1110   19.9580 C   0  0  0  0  0  0  0  0  0  0  0  0
  -22.8310  -27.5550   19.1950 C   0  0  0  0  0  3  0  0  0  0  0  0
  -24.0370  -26.8330   19.1850 C   0  0  0  0  0  3  0  0  0  0  0  0
  -20.5920  -27.8640   19.8840 O   0  0  0  0  0  0  0  0  0  0  0  0
  -19.6810  -27.8890   20.9110 C   0  0  0  0  0  0  0  0  0  0  0  0
  -20.0390  -28.2900   22.2160 C   0  0  0  0  0  3  0  0  0  0  0  0
  -19.0560  -28.3680   23.2240 C   0  0  0  0  0  3  0  0  0  0  0  0
  -17.7150  -28.0560   22.9240 C   0  0  0  0  0  0  0  0  0  0  0  0
  -17.3570  -27.6620   21.6230 C   0  0  0  0  0  3  0  0  0  0  0  0
  -18.3370  -27.5820   20.6180 C   0  0  0  0  0  0  0  0  0  0  0  0
  -17.9820  -27.2240   19.3610 F   0  0  0  0  0  0  0  0  0  0  0  0
  -16.7690  -28.1380   23.8880 F   0  0  0  0  0  0  0  0  0  0  0  0
  -27.1960  -26.7480   20.6380 C   0  0  0  0  0  0  0  0  0  0  0  0
  -26.3680  -27.4170   21.4330 N   0  0  0  0  0  0  0  0  0  0  0  0
  -28.2820  -27.2180   20.3050 O   0  0  0  0  0  0  0  0  0  0  0  0
  -25.4820  -27.0200   21.7020 H   0  0  0  0  0  0  0  0  0  0  0  0
  -26.6230  -28.3330   21.7730 H   0  0  0  0  0  0  0  0  0  0  0  0
  -28.9720  -24.1490   19.9700 N   0  0  0  0  0  0  0  0  0  0  0  0
  -29.5850  -24.9300   20.1830 H   0  0  0  0  0  0  0  0  0  0  0  0
  -29.4600  -23.3610   19.5640 H   0  0  0  0  0  0  0  0  0  0  0  0
  1  2  1  0
  2  3  1  0
  3  4  1  0
  4  5  1  0
  6 10  1  0
  6  8  1  0
  7 10  1  0
  7  9  1  0
 11  9  1  0
 11  8  1  0
 11  5  1  0
 11 12  1  6
 13 14  1  0
 13 10  1  0
 15 17  1  0
 15 14  1  0
 16 27  2  0
 17 22  1  0
 18 28  1  0
 18 26  1  0
 19 25  1  0
 19 21  1  0
 20 26  1  0
 21 20  1  0
 22 21  2  0
 23 24  1  0
 23 17  2  0
 24 19  2  0
 25 18  1  0
 26 16  1  0
 28 30  2  0
 29 28  1  0
 31 29  1  0
 32 37  1  0
 33 29  1  0
 34 33  1  0
 35 34  1  0
 36 35  1  0
 36 32  1  0
 37 33  1  0
 37 38  2  0
 39 38  1  0
 40 39  2  0
 41 32  2  0
 41 40  1  0
 42 16  1  0
 42 43  1  0
 42 47  1  0
 43 44  1  1
 43 46  1  0
 45 43  1  0
 47 50  1  0
 48 47  1  0
 48 52  1  0
 49 48  2  0
 52 51  1  0
 52 54  1  0
 54 55  1  0
 54 53  1  0
 56  1  1  0
 57 56  1  0
 58 57  1  0
 58 59  1  0
 60 59  1  0
 61 60  1  0
 62 61  1  0
 63 62  1  0
 64 63  1  0
 65 66  1  0
 65 64  1  0
 67 66  1  0
 67 68  1  0
 68 69  1  0
 69 70  1  0
 70 71  1  0
 71 80  1  0
 73 78  1  0
 74 75  1  0
 74 73  1  0
 76 75  1  0
 76 85  1  0
 76 77  1  0
 78 72  1  0
 78 77  1  0
 79 72  2  0
 80 81  1  0
 80 72  1  0
 82107  1  0
 82 83  2  0
 83102  1  0
 84 87  1  0
 84 83  1  0
 85 86  1  0
 85 82  1  0
 86 84  2  0
 87 88  1  0
 88 89  2  0
 90 89  1  0
 91 90  2  0
 92 91  1  0
 92 87  2  0
 93 90  1  0
 93 94  1  0
 94 95  1  0
 95 96  2  0
 97 96  1  0
 97101  1  0
 98 97  2  0
 99 94  2  0
 99 98  1  0
100 99  1  0
102103  1  0
103105  1  0
103106  1  0
104102  2  0
107108  1  0
109107  1  0
M  ISO  4  14 101  15 101  72 100  80 100
M  END
>  <TORSDO>  (44) 
F 39

>  <SCORE>  (44) 
7.700

>  <name>  (44) 
45

>  <ligand_id>  (44) 
45

>  <original_smiles>  (44) 
[H]c1c([H])c([H])c2c(c1[H])C([H])([H])C([H])([H])C([H])([H])C2([H])N([H])C(=O)C1([H])N(C(=O)C([H])(N([H])C(=O)C([H])(N([H])C([H])([H])[H])C([H])([H])[H])C(C([H])([H])[H])(C([H])([H])[H])C([H])([H])[H])C([H])([H])c2c([H])c(OC([H])([H])C([H])([H])N3C([H])([H])C([H])([H])[N+]([H])(C([H])([H])C([H])([H])OC([H])([H])C([H])([H])OC([H])([H])C([H])([H])C([H])([H])OC([H])([H])C([H])([H])OC([H])([H])C([H])([H])OC([H])([H])C([H])([H])OC([H])([H])C([H])([H])N([H])C(=O)N4C([H])([H])C([H])([H])C([H])([H])C([H])(n5nc(-c6c([H])c([H])c(Oc7c([H])c([H])c(F)c([H])c7F)c([H])c6[H])c(C(=O)N([H])[H])c5N([H])[H])C4([H])[H])C([H])([H])C3([H])[H])c([H])c([H])c2C1([H])[H]

>  <smiles>  (44) 
[H]c1c([H])c([H])c2c(c1[H])C([H])([H])C([H])([H])C([H])([H])C2([H])N([H])C(=O)C1([H])N(C(=O)C([H])(N([H])C(=O)C([H])(N([H])C([H])([H])[H])C([H])([H])[H])C(C([H])([H])[H])(C([H])([H])[H])C([H])([H])[H])C([H])([H])c2c([H])c(OC([H])([H])C([H])([H])N3C([H])([H])C([H])([H])[N+]([H])(C([H])([H])C([H])([H])OC([H])([H])C([H])([H])OC([H])([H])C([H])([H])C([H])([H])OC([H])([H])C([H])([H])OC([H])([H])C([H])([H])OC([H])([H])C([H])([H])OC([H])([H])C([H])([H])N([H])C(=O)N4C([H])([H])C([H])([H])C([H])([H])C([H])(n5nc(-c6c([H])c([H])c(Oc7c([H])c([H])c(F)c([H])c7F)c([H])c6[H])c(C(=O)N([H])[H])c5N([H])[H])C4([H])[H])C([H])([H])C3([H])[H])c([H])c([H])c2C1([H])[H]

$$$$
46:0:0
     RDKit          3D

107114  0  0  1  0  0  0  0  0999 V2000
  -30.6120  -21.5140   16.8910 C   0  0  0  0  0  2  0  0  0  0  0  0
  -32.5080  -23.0300   17.4170 C   0  0  0  0  0  0  0  0  0  0  0  0
  -31.3370  -22.4650   17.7320 N   0  0  0  0  0  0  0  0  0  0  0  0
  -33.0490  -22.8540   16.3250 O   0  0  0  0  0  0  0  0  0  0  0  0
  -30.9270  -22.6940   18.6250 H   0  0  0  0  0  0  0  0  0  0  0  0
  -33.1690  -23.9000   18.4930 C   0  0  0  0  0  2  0  0  0  0  0  0
  -34.6180  -24.3400   18.1700 C   0  0  0  0  0  2  0  0  0  0  0  0
  -36.2580  -22.8390   19.2910 C   0  0  0  0  0  0  0  0  0  0  0  0
  -35.5830  -23.2420   18.2090 N   0  0  0  0  0  0  0  0  0  0  0  0
  -36.1000  -23.3460   20.4040 O   0  0  0  0  0  0  0  0  0  0  0  0
  -35.7740  -22.7620   17.3390 H   0  0  0  0  0  0  0  0  0  0  0  0
  -37.2350  -21.6790   19.1050 C   0  0  0  0  0  2  0  0  0  0  0  0
  -36.6600  -20.5070   19.6710 O   0  0  0  0  0  0  0  0  0  0  0  0
  -37.4670  -19.3640   19.4480 C   0  0  0  0  0  2  0  0  0  0  0  0
  -36.9680  -18.2280   20.3470 C   0  0  0  0  0  2  0  0  0  0  0  0
  -37.8050  -16.9530   20.1740 C   0  0  0  0  0  2  0  0  0  0  0  0
  -36.4140  -15.6080   18.6030 C   0  0  0  0  0  0  0  0  0  0  0  0
  -36.0440  -13.8030   16.9690 C   0  0  0  0  0  2  0  0  0  0  0  0
  -34.5700  -13.4460   16.7350 C   0  0  0  0  0  2  0  0  0  0  0  0
  -34.0810  -12.4320   17.7830 C   0  0  0  0  0  2  0  0  0  0  0  0
  -34.4120  -12.8750   19.2320 C   0  0  0  0  0  3  0  0  0  0  0  0
  -35.8980  -13.2690   19.3520 C   0  0  0  0  0  2  0  0  0  0  0  0
  -36.1960  -14.3010   18.3410 N   0  0  0  0  0  0  0  0  0  0  0  0
  -36.2920  -16.5120   17.7680 O   0  0  0  0  0  0  0  0  0  0  0  0
  -37.0040  -15.7990   19.7870 N   0  0  0  0  0  0  0  0  0  0  0  0
  -37.0900  -14.9740   20.3640 H   0  0  0  0  0  0  0  0  0  0  0  0
  -33.1540  -11.8920   21.2510 C   0  0  0  0  0  0  0  0  0  0  0  0
  -33.1420  -10.6370   21.7950 C   0  0  0  0  0  0  0  0  0  0  0  0
  -34.0590   -9.8610   21.0220 C   0  0  0  0  0  0  0  0  0  0  0  0
  -34.0550  -11.8400   20.1980 N   0  0  0  0  0  0  0  0  0  0  0  0
  -34.6380  -10.6180   20.0990 N   0  0  0  0  0  0  0  0  0  0  0  0
  -34.3760   -8.4290   21.0650 C   0  0  0  0  0  0  0  0  0  0  0  0
  -35.7100   -7.9680   21.1120 C   0  0  0  0  0  3  0  0  0  0  0  0
  -35.9890   -6.5860   21.1700 C   0  0  0  0  0  3  0  0  0  0  0  0
  -34.9300   -5.6480   21.1870 C   0  0  0  0  0  0  0  0  0  0  0  0
  -33.6040   -6.1110   21.1160 C   0  0  0  0  0  3  0  0  0  0  0  0
  -33.3280   -7.4870   21.0540 C   0  0  0  0  0  3  0  0  0  0  0  0
  -35.1050   -4.2860   21.2170 O   0  0  0  0  0  0  0  0  0  0  0  0
  -36.2620   -3.7210   21.6900 C   0  0  0  0  0  0  0  0  0  0  0  0
  -36.7290   -3.9640   23.0010 C   0  0  0  0  0  3  0  0  0  0  0  0
  -37.8840   -3.3070   23.4700 C   0  0  0  0  0  3  0  0  0  0  0  0
  -38.5690   -2.4020   22.6360 C   0  0  0  0  0  0  0  0  0  0  0  0
  -38.1030   -2.1550   21.3330 C   0  0  0  0  0  3  0  0  0  0  0  0
  -36.9510   -2.8110   20.8630 C   0  0  0  0  0  0  0  0  0  0  0  0
  -36.4940   -2.5530   19.6130 F   0  0  0  0  0  0  0  0  0  0  0  0
  -39.6740   -1.7650   23.0880 F   0  0  0  0  0  0  0  0  0  0  0  0
  -32.2610  -10.1530   22.9120 C   0  0  0  0  0  0  0  0  0  0  0  0
  -32.7690   -9.2510   23.7460 N   0  0  0  0  0  0  0  0  0  0  0  0
  -31.1320  -10.6090   23.0770 O   0  0  0  0  0  0  0  0  0  0  0  0
  -33.7030   -8.8890   23.6220 H   0  0  0  0  0  0  0  0  0  0  0  0
  -32.2140   -8.9180   24.5220 H   0  0  0  0  0  0  0  0  0  0  0  0
  -32.4640  -13.0640   21.5460 N   0  0  0  0  0  0  0  0  0  0  0  0
  -31.7600  -13.1120   22.2750 H   0  0  0  0  0  0  0  0  0  0  0  0
  -32.5570  -13.9280   21.0280 H   0  0  0  0  0  0  0  0  0  0  0  0
  -31.0820  -20.0600   17.1030 C   0  0  0  0  0  2  0  0  0  0  0  0
  -30.5920  -19.5670   18.3450 O   0  0  0  0  0  0  0  0  0  0  0  0
  -31.5720  -19.5020   19.3790 C   0  0  0  0  0  2  0  0  0  0  0  0
  -30.8700  -19.6770   20.7280 C   0  0  0  0  0  2  0  0  0  0  0  0
  -30.2790  -20.9640   20.7290 O   0  0  0  0  0  0  0  0  0  0  0  0
  -29.5030  -21.2630   21.8900 C   0  0  0  0  0  2  0  0  0  0  0  0
  -28.8580  -22.6390   21.6860 C   0  0  0  0  0  0  0  0  0  0  0  0
  -29.1460  -23.2300   20.5240 N   0  0  0  0  0  0  0  0  0  0  0  0
  -28.1080  -23.1330   22.5310 O   0  0  0  0  0  0  0  0  0  0  0  0
  -29.7700  -22.6870   19.9420 H   0  0  0  0  0  0  0  0  0  0  0  0
  -28.5400  -24.4240   19.9640 C   0  0  0  0  0  2  0  0  0  0  0  0
  -28.7890  -25.6790   20.8190 C   0  0  0  0  0  2  0  0  0  0  0  0
  -28.6900  -26.8610   20.0390 O   0  0  0  0  0  0  0  0  0  0  0  0
  -24.5680  -31.7510   23.1090 C   0  0  0  0  0  0  0  0  0  0  0  0
  -27.4710  -27.4890   20.0520 C   0  0  0  0  0  0  0  0  0  0  0  0
  -23.4660  -30.3420   21.3970 C   0  0  0  0  0  3  0  0  0  0  0  0
  -25.0230  -28.8830   20.0060 C   0  0  0  0  0  0  0  0  0  0  0  0
  -25.9810  -30.7990   21.2970 C   0  0  0  0  0  2  0  0  0  0  0  0
  -26.1360  -29.4430   20.6450 C   0  0  0  0  0  0  0  0  0  0  0  0
  -27.3630  -28.7490   20.6710 C   0  0  0  0  0  3  0  0  0  0  0  0
  -26.3470  -26.9400   19.3990 C   0  0  0  0  0  3  0  0  0  0  0  0
  -25.1200  -27.6260   19.3840 C   0  0  0  0  0  3  0  0  0  0  0  0
  -23.7450  -29.6900   20.0170 C   0  0  0  0  0  2  0  0  0  0  0  0
  -24.6890  -30.9770   21.9930 N   0  0  0  0  0  0  0  0  0  0  0  0
  -23.4600  -31.9800   23.6120 O   0  0  0  0  0  0  0  0  0  0  0  0
  -22.8180  -29.2830   22.3180 C   0  0  0  0  0  0  0  0  0  0  0  0
  -21.4910  -29.1180   22.1940 N   0  0  0  0  0  0  0  0  0  0  0  0
  -23.5010  -28.6130   23.0970 O   0  0  0  0  0  0  0  0  0  0  0  0
  -21.0030  -29.7150   21.5410 H   0  0  0  0  0  0  0  0  0  0  0  0
  -18.0930  -28.0190   22.7410 C   0  0  0  0  0  0  0  0  0  0  0  0
  -20.6670  -28.1560   22.9240 C   0  0  0  0  0  3  0  0  0  0  0  0
  -20.6880  -26.7700   22.2380 C   0  0  0  0  0  2  0  0  0  0  0  0
  -19.5340  -26.5700   21.2490 C   0  0  0  0  0  2  0  0  0  0  0  0
  -18.1860  -26.7170   21.9610 C   0  0  0  0  0  2  0  0  0  0  0  0
  -19.2570  -28.7030   23.1780 C   0  0  0  0  0  0  0  0  0  0  0  0
  -19.1150  -29.9270   23.8680 C   0  0  0  0  0  3  0  0  0  0  0  0
  -17.8400  -30.4630   24.1260 C   0  0  0  0  0  3  0  0  0  0  0  0
  -16.6900  -29.7740   23.7040 C   0  0  0  0  0  3  0  0  0  0  0  0
  -16.8180  -28.5530   23.0160 C   0  0  0  0  0  3  0  0  0  0  0  0
  -25.8130  -32.4060   23.7900 C   0  0  0  0  0  3  0  0  0  0  0  0
  -26.2950  -31.6380   25.0800 C   0  0  1  0  0  0  0  0  0  0  0  0
  -25.1620  -31.3620   26.0960 C   0  0  0  0  0  1  0  0  0  0  0  0
  -26.9340  -30.2800   24.7020 C   0  0  0  0  0  1  0  0  0  0  0  0
  -27.4010  -32.4520   25.7930 C   0  0  0  0  0  1  0  0  0  0  0  0
  -25.4580  -33.7920   24.1120 N   0  0  0  0  0  0  0  0  0  0  0  0
  -25.8070  -34.8570   23.3770 C   0  0  0  0  0  0  0  0  0  0  0  0
  -26.5320  -34.7760   22.3820 O   0  0  0  0  0  0  0  0  0  0  0  0
  -24.8180  -33.9260   24.8810 H   0  0  0  0  0  0  0  0  0  0  0  0
  -24.0590  -36.6120   22.9370 C   0  0  0  0  0  1  0  0  0  0  0  0
  -25.2620  -36.2290   23.8140 C   0  0  0  0  0  3  0  0  0  0  0  0
  -27.3290  -37.1530   24.7580 C   0  0  0  0  0  1  0  0  0  0  0  0
  -26.2740  -37.3060   23.7620 N   0  0  0  0  0  0  0  0  0  0  0  0
  -25.8410  -38.2160   23.8940 H   0  0  0  0  0  0  0  0  0  0  0  0
  1 55  1  0
  1  3  1  0
  2  3  1  0
  2  6  1  0
  3  5  1  0
  4  2  2  0
  7  9  1  0
  7  6  1  0
  8 10  2  0
  9  8  1  0
 11  9  1  0
 12  8  1  0
 12 13  1  0
 14 13  1  0
 14 15  1  0
 16 15  1  0
 17 25  1  0
 18 23  1  0
 19 18  1  0
 19 20  1  0
 21 20  1  0
 21 22  1  0
 21 30  1  0
 23 17  1  0
 23 22  1  0
 24 17  2  0
 25 16  1  0
 25 26  1  0
 27 52  1  0
 27 28  2  0
 28 47  1  0
 29 32  1  0
 29 28  1  0
 30 27  1  0
 31 30  1  0
 31 29  2  0
 32 33  1  0
 33 34  2  0
 34 35  1  0
 35 38  1  0
 36 35  2  0
 37 32  2  0
 37 36  1  0
 38 39  1  0
 39 40  1  0
 40 41  2  0
 42 46  1  0
 42 41  1  0
 43 42  2  0
 44 43  1  0
 44 39  2  0
 45 44  1  0
 47 49  2  0
 47 48  1  0
 48 51  1  0
 50 48  1  0
 52 53  1  0
 54 52  1  0
 55 56  1  0
 56 57  1  0
 57 58  1  0
 58 59  1  0
 59 60  1  0
 61 60  1  0
 61 63  2  0
 62 61  1  0
 64 62  1  0
 65 62  1  0
 65 66  1  0
 67 69  1  0
 67 66  1  0
 68 79  2  0
 69 74  1  0
 70 78  1  0
 70 80  1  0
 71 77  1  0
 71 73  1  0
 72 78  1  0
 73 74  2  0
 73 72  1  0
 75 69  2  0
 76 75  1  0
 76 71  2  0
 77 70  1  0
 78 68  1  0
 80 82  2  0
 81 80  1  0
 83 81  1  0
 84 93  2  0
 84 89  1  0
 85 81  1  0
 85 89  1  0
 86 85  1  0
 87 88  1  0
 87 86  1  0
 88 84  1  0
 89 90  2  0
 90 91  1  0
 92 91  2  0
 93 92  1  0
 94 68  1  0
 94 99  1  0
 94 95  1  0
 95 98  1  1
 95 96  1  0
 97 95  1  0
 99102  1  0
100104  1  0
100 99  1  0
101100  2  0
104103  1  0
106104  1  0
106107  1  0
106105  1  0
M  ISO  4  17 100  25 100  66 101  67 101
M  END
>  <TORSDO>  (45) 
F 34

>  <SCORE>  (45) 
-6.732

>  <name>  (45) 
46

>  <ligand_id>  (45) 
46

>  <original_smiles>  (45) 
[H]c1c([H])c([H])c2c(c1[H])C([H])([H])C([H])([H])C([H])([H])C2([H])N([H])C(=O)C1([H])N(C(=O)C([H])(N([H])C(=O)C([H])(N([H])C([H])([H])[H])C([H])([H])[H])C(C([H])([H])[H])(C([H])([H])[H])C([H])([H])[H])C([H])([H])c2c([H])c(OC([H])([H])C([H])([H])N([H])C(=O)C([H])([H])OC([H])([H])C([H])([H])OC([H])([H])C([H])([H])N([H])C(=O)C([H])([H])C([H])([H])N([H])C(=O)C([H])([H])OC([H])([H])C([H])([H])C([H])([H])N([H])C(=O)N3C([H])([H])C([H])([H])C([H])([H])C([H])(n4nc(-c5c([H])c([H])c(Oc6c([H])c([H])c(F)c([H])c6F)c([H])c5[H])c(C(=O)N([H])[H])c4N([H])[H])C3([H])[H])c([H])c([H])c2C1([H])[H]

>  <smiles>  (45) 
[H]c1c([H])c([H])c2c(c1[H])C([H])([H])C([H])([H])C([H])([H])C2([H])N([H])C(=O)C1([H])N(C(=O)C([H])(N([H])C(=O)C([H])(N([H])C([H])([H])[H])C([H])([H])[H])C(C([H])([H])[H])(C([H])([H])[H])C([H])([H])[H])C([H])([H])c2c([H])c(OC([H])([H])C([H])([H])N([H])C(=O)C([H])([H])OC([H])([H])C([H])([H])OC([H])([H])C([H])([H])N([H])C(=O)C([H])([H])C([H])([H])N([H])C(=O)C([H])([H])OC([H])([H])C([H])([H])C([H])([H])N([H])C(=O)N3C([H])([H])C([H])([H])C([H])([H])C([H])(n4nc(-c5c([H])c([H])c(Oc6c([H])c([H])c(F)c([H])c6F)c([H])c5[H])c(C(=O)N([H])[H])c4N([H])[H])C3([H])[H])c([H])c([H])c2C1([H])[H]

$$$$
47:0:0
     RDKit          3D

127134  0  0  1  0  0  0  0  0999 V2000
  -21.9730  -21.9590   18.6790 C   0  0  0  0  0  2  0  0  0  0  0  0
  -23.4760  -21.8800   18.3830 C   0  0  0  0  0  0  0  0  0  0  0  0
  -23.8590  -21.0560   17.4020 N   0  0  0  0  0  0  0  0  0  0  0  0
  -24.2810  -22.5440   19.0400 O   0  0  0  0  0  0  0  0  0  0  0  0
  -23.1480  -20.5120   16.9320 H   0  0  0  0  0  0  0  0  0  0  0  0
  -25.2480  -20.7940   17.0300 C   0  0  0  0  0  2  0  0  0  0  0  0
  -25.7880  -19.5300   17.7060 C   0  0  0  0  0  0  0  0  0  0  0  0
  -27.1160  -19.4220   17.7910 N   0  0  0  0  0  0  0  0  0  0  0  0
  -25.0160  -18.6710   18.1420 O   0  0  0  0  0  0  0  0  0  0  0  0
  -27.6760  -20.1920   17.4530 H   0  0  0  0  0  0  0  0  0  0  0  0
  -27.8390  -18.3530   18.4680 C   0  0  0  0  0  2  0  0  0  0  0  0
  -28.2590  -18.8000   19.8750 C   0  0  0  0  0  2  0  0  0  0  0  0
  -29.3420  -19.7200   19.7870 O   0  0  0  0  0  0  0  0  0  0  0  0
  -29.7580  -20.1670   21.0720 C   0  0  0  0  0  2  0  0  0  0  0  0
  -31.0810  -20.9370   20.9790 C   0  0  0  0  0  2  0  0  0  0  0  0
  -30.9250  -22.0960   20.1720 O   0  0  0  0  0  0  0  0  0  0  0  0
  -32.1000  -22.8980   20.1510 C   0  0  0  0  0  2  0  0  0  0  0  0
  -31.9190  -24.0120   19.1160 C   0  0  0  0  0  0  0  0  0  0  0  0
  -31.1980  -25.0800   19.4780 N   0  0  0  0  0  0  0  0  0  0  0  0
  -32.4050  -23.8930   17.9920 O   0  0  0  0  0  0  0  0  0  0  0  0
  -30.8200  -25.1110   20.4170 H   0  0  0  0  0  0  0  0  0  0  0  0
  -30.8430  -26.1780   18.5840 C   0  0  0  0  0  2  0  0  0  0  0  0
  -30.6760  -27.5110   19.3390 C   0  0  0  0  0  2  0  0  0  0  0  0
  -30.1390  -27.3860   20.6610 O   0  0  0  0  0  0  0  0  0  0  0  0
  -26.1260  -30.4760   25.6670 C   0  0  0  0  0  0  0  0  0  0  0  0
  -28.9730  -28.0600   20.9430 C   0  0  0  0  0  0  0  0  0  0  0  0
  -25.0620  -30.1900   23.4540 C   0  0  0  0  0  3  0  0  0  0  0  0
  -26.6150  -29.4880   21.5600 C   0  0  0  0  0  0  0  0  0  0  0  0
  -27.6030  -30.4140   23.6620 C   0  0  0  0  0  2  0  0  0  0  0  0
  -27.7170  -29.5540   22.4200 C   0  0  0  0  0  0  0  0  0  0  0  0
  -28.8960  -28.8350   22.1210 C   0  0  0  0  0  3  0  0  0  0  0  0
  -27.8440  -27.9920   20.0960 C   0  0  0  0  0  3  0  0  0  0  0  0
  -26.6690  -28.6990   20.4020 C   0  0  0  0  0  3  0  0  0  0  0  0
  -25.3930  -30.2920   21.9420 C   0  0  0  0  0  2  0  0  0  0  0  0
  -26.2760  -30.3420   24.3190 N   0  0  0  0  0  0  0  0  0  0  0  0
  -25.0020  -30.5130   26.1850 O   0  0  0  0  0  0  0  0  0  0  0  0
  -24.2970  -28.8700   23.7020 C   0  0  0  0  0  0  0  0  0  0  0  0
  -23.0620  -28.7890   23.1810 N   0  0  0  0  0  0  0  0  0  0  0  0
  -24.8220  -27.9410   24.3200 O   0  0  0  0  0  0  0  0  0  0  0  0
  -22.7030  -29.5970   22.6900 H   0  0  0  0  0  0  0  0  0  0  0  0
  -19.9770  -27.4060   21.9100 C   0  0  0  0  0  0  0  0  0  0  0  0
  -22.1710  -27.6330   23.2550 C   0  0  0  0  0  3  0  0  0  0  0  0
  -22.7030  -26.4650   22.3940 C   0  0  0  0  0  2  0  0  0  0  0  0
  -22.1280  -26.4490   20.9760 C   0  0  0  0  0  2  0  0  0  0  0  0
  -20.5990  -26.3460   21.0150 C   0  0  0  0  0  2  0  0  0  0  0  0
  -20.7200  -28.0200   22.9520 C   0  0  0  0  0  0  0  0  0  0  0  0
  -20.1070  -29.0250   23.7320 C   0  0  0  0  0  3  0  0  0  0  0  0
  -18.7750  -29.4110   23.4890 C   0  0  0  0  0  3  0  0  0  0  0  0
  -18.0400  -28.7880   22.4670 C   0  0  0  0  0  3  0  0  0  0  0  0
  -18.6380  -27.7870   21.6820 C   0  0  0  0  0  3  0  0  0  0  0  0
  -27.3560  -30.6130   26.6190 C   0  0  0  0  0  3  0  0  0  0  0  0
  -27.2550  -29.7010   27.9020 C   0  0  1  0  0  0  0  0  0  0  0  0
  -25.9220  -29.8560   28.6720 C   0  0  0  0  0  1  0  0  0  0  0  0
  -27.4130  -28.2110   27.5220 C   0  0  0  0  0  1  0  0  0  0  0  0
  -28.4160  -30.0300   28.8710 C   0  0  0  0  0  1  0  0  0  0  0  0
  -27.4680  -32.0270   26.9940 N   0  0  0  0  0  0  0  0  0  0  0  0
  -28.3680  -32.8800   26.4900 C   0  0  0  0  0  0  0  0  0  0  0  0
  -29.2520  -32.5350   25.7000 O   0  0  0  0  0  0  0  0  0  0  0  0
  -26.7480  -32.3930   27.6010 H   0  0  0  0  0  0  0  0  0  0  0  0
  -27.5880  -35.1780   25.8300 C   0  0  0  0  0  1  0  0  0  0  0  0
  -28.2740  -34.3540   26.9310 C   0  0  0  0  0  3  0  0  0  0  0  0
  -30.2100  -34.3630   28.4400 C   0  0  0  0  0  1  0  0  0  0  0  0
  -29.5840  -34.9570   27.2630 N   0  0  0  0  0  0  0  0  0  0  0  0
  -29.4870  -35.9560   27.4260 H   0  0  0  0  0  0  0  0  0  0  0  0
  -21.3400  -23.7830   17.1160 C   0  0  0  0  0  0  0  0  0  0  0  0
  -21.4160  -23.2680   18.3470 N   0  0  0  0  0  0  0  0  0  0  0  0
  -21.6970  -23.1560   16.1140 O   0  0  0  0  0  0  0  0  0  0  0  0
  -21.1420  -23.8560   19.1240 H   0  0  0  0  0  0  0  0  0  0  0  0
  -20.7820  -25.2070   16.9980 C   0  0  0  0  0  2  0  0  0  0  0  0
  -20.8290  -25.6360   15.6430 O   0  0  0  0  0  0  0  0  0  0  0  0
  -20.6900  -27.0440   15.5020 C   0  0  0  0  0  2  0  0  0  0  0  0
  -21.2020  -27.4490   14.1150 C   0  0  0  0  0  2  0  0  0  0  0  0
  -22.5660  -27.0670   14.0100 O   0  0  0  0  0  0  0  0  0  0  0  0
  -22.9390  -26.6690   12.6980 C   0  0  0  0  0  2  0  0  0  0  0  0
  -24.3530  -26.0690   12.7420 C   0  0  0  0  0  2  0  0  0  0  0  0
  -25.5080  -25.6280   14.9100 C   0  0  0  0  0  0  0  0  0  0  0  0
  -24.5730  -25.3460   13.9930 N   0  0  0  0  0  0  0  0  0  0  0  0
  -26.3540  -26.5130   14.7520 O   0  0  0  0  0  0  0  0  0  0  0  0
  -23.9270  -24.5970   14.2090 H   0  0  0  0  0  0  0  0  0  0  0  0
  -25.4860  -24.7760   16.1870 C   0  0  0  0  0  2  0  0  0  0  0  0
  -26.7880  -24.7130   16.7680 O   0  0  0  0  0  0  0  0  0  0  0  0
  -26.8230  -23.8690   17.9110 C   0  0  0  0  0  2  0  0  0  0  0  0
  -28.2250  -23.2670   18.0830 C   0  0  0  0  0  2  0  0  0  0  0  0
  -28.4190  -22.1860   17.1770 O   0  0  0  0  0  0  0  0  0  0  0  0
  -29.6540  -21.5110   17.3910 C   0  0  0  0  0  2  0  0  0  0  0  0
  -30.0340  -20.7100   16.1380 C   0  0  0  0  0  2  0  0  0  0  0  0
  -31.4040  -20.3260   16.1930 O   0  0  0  0  0  0  0  0  0  0  0  0
  -32.0430  -20.4620   14.9290 C   0  0  0  0  0  2  0  0  0  0  0  0
  -33.5680  -20.5360   15.1160 C   0  0  0  0  0  2  0  0  0  0  0  0
  -34.4260  -18.5950   13.8150 C   0  0  0  0  0  0  0  0  0  0  0  0
  -34.8430  -16.3900   12.7980 C   0  0  0  0  0  2  0  0  0  0  0  0
  -33.6010  -15.4930   12.9710 C   0  0  0  0  0  2  0  0  0  0  0  0
  -33.6380  -14.7630   14.3270 C   0  0  0  0  0  2  0  0  0  0  0  0
  -33.9310  -15.7210   15.5140 C   0  0  0  0  0  3  0  0  0  0  0  0
  -35.1490  -16.6170   15.2000 C   0  0  0  0  0  2  0  0  0  0  0  0
  -34.8830  -17.3230   13.9330 N   0  0  0  0  0  0  0  0  0  0  0  0
  -34.1530  -19.1240   12.7350 O   0  0  0  0  0  0  0  0  0  0  0  0
  -34.2010  -19.2260   14.9720 N   0  0  0  0  0  0  0  0  0  0  0  0
  -34.4080  -18.7200   15.8190 H   0  0  0  0  0  0  0  0  0  0  0  0
  -33.3320  -14.9830   17.9060 C   0  0  0  0  0  0  0  0  0  0  0  0
  -33.8980  -14.0680   18.7500 C   0  0  0  0  0  0  0  0  0  0  0  0
  -35.0290  -13.5400   18.0560 C   0  0  0  0  0  0  0  0  0  0  0  0
  -34.1140  -14.9830   16.7620 N   0  0  0  0  0  0  0  0  0  0  0  0
  -35.1730  -14.1430   16.8830 N   0  0  0  0  0  0  0  0  0  0  0  0
  -35.9500  -12.4540   18.4140 C   0  0  0  0  0  0  0  0  0  0  0  0
  -37.3470  -12.5810   18.2360 C   0  0  0  0  0  3  0  0  0  0  0  0
  -38.2130  -11.5300   18.6050 C   0  0  0  0  0  3  0  0  0  0  0  0
  -37.6880  -10.3380   19.1610 C   0  0  0  0  0  0  0  0  0  0  0  0
  -36.2960  -10.2080   19.3130 C   0  0  0  0  0  3  0  0  0  0  0  0
  -35.4340  -11.2540   18.9410 C   0  0  0  0  0  3  0  0  0  0  0  0
  -38.4520   -9.2560   19.5250 O   0  0  0  0  0  0  0  0  0  0  0  0
  -39.7960   -9.3720   19.7690 C   0  0  0  0  0  0  0  0  0  0  0  0
  -40.3070  -10.3150   20.6870 C   0  0  0  0  0  3  0  0  0  0  0  0
  -41.6900  -10.3540   20.9600 C   0  0  0  0  0  3  0  0  0  0  0  0
  -42.5590   -9.4470   20.3260 C   0  0  0  0  0  0  0  0  0  0  0  0
  -42.0500   -8.5040   19.4160 C   0  0  0  0  0  3  0  0  0  0  0  0
  -40.6730   -8.4650   19.1420 C   0  0  0  0  0  0  0  0  0  0  0  0
  -40.1850   -7.5390   18.2800 F   0  0  0  0  0  0  0  0  0  0  0  0
  -43.8850   -9.4790   20.5930 F   0  0  0  0  0  0  0  0  0  0  0  0
  -33.3690  -13.6380   20.0890 C   0  0  0  0  0  0  0  0  0  0  0  0
  -34.2580  -13.2960   21.0160 N   0  0  0  0  0  0  0  0  0  0  0  0
  -32.1650  -13.6510   20.3350 O   0  0  0  0  0  0  0  0  0  0  0  0
  -35.2480  -13.3040   20.8210 H   0  0  0  0  0  0  0  0  0  0  0  0
  -33.9420  -13.0210   21.9360 H   0  0  0  0  0  0  0  0  0  0  0  0
  -32.2100  -15.8000   18.0080 N   0  0  0  0  0  0  0  0  0  0  0  0
  -31.6390  -15.8000   18.8430 H   0  0  0  0  0  0  0  0  0  0  0  0
  -31.9060  -16.4500   17.2960 H   0  0  0  0  0  0  0  0  0  0  0  0
  2  1  1  0
  2  4  2  0
  3  2  1  0
  5  3  1  0
  6  3  1  0
  6  7  1  0
  7  8  1  0
  7  9  2  0
  8 11  1  0
 10  8  1  0
 11 12  1  0
 13 12  1  0
 13 14  1  0
 15 14  1  0
 16 15  1  0
 17 16  1  0
 18 19  1  0
 18 17  1  0
 19 21  1  0
 20 18  2  0
 22 23  1  0
 22 19  1  0
 23 24  1  0
 24 26  1  0
 25 36  2  0
 26 31  1  0
 27 37  1  0
 27 35  1  0
 28 34  1  0
 28 30  1  0
 29 35  1  0
 30 29  1  0
 31 30  2  0
 32 33  1  0
 32 26  2  0
 33 28  2  0
 34 27  1  0
 35 25  1  0
 37 39  2  0
 38 37  1  0
 40 38  1  0
 41 46  1  0
 42 38  1  0
 43 42  1  0
 44 45  1  0
 44 43  1  0
 45 41  1  0
 46 42  1  0
 46 47  2  0
 48 47  1  0
 49 48  2  0
 50 41  2  0
 50 49  1  0
 51 25  1  0
 51 56  1  0
 51 52  1  0
 52 53  1  1
 52 55  1  0
 54 52  1  0
 56 59  1  0
 57 61  1  0
 57 56  1  0
 58 57  2  0
 61 60  1  0
 61 63  1  0
 63 64  1  0
 63 62  1  0
 65 66  1  0
 66  1  1  0
 66 68  1  0
 67 65  2  0
 69 65  1  0
 70 69  1  0
 71 70  1  0
 72 71  1  0
 73 72  1  0
 74 75  1  0
 74 73  1  0
 75 77  1  0
 76 80  1  0
 77 79  1  0
 77 76  1  0
 78 76  2  0
 80 81  1  0
 81 82  1  0
 82 83  1  0
 84 85  1  0
 84 83  1  0
 86 87  1  0
 86 85  1  0
 88 89  1  0
 88 87  1  0
 90 96  1  0
 90 98  1  0
 91 92  1  0
 91 96  1  0
 92 93  1  0
 94 93  1  0
 94103  1  0
 95 94  1  0
 96 95  1  0
 97 90  2  0
 98 89  1  0
 98 99  1  0
100125  1  0
100101  2  0
101120  1  0
102105  1  0
102101  1  0
103104  1  0
103100  1  0
104102  2  0
105110  1  0
106105  2  0
106107  1  0
107108  2  0
108109  1  0
108111  1  0
110109  2  0
111112  1  0
112113  1  0
113114  2  0
115119  1  0
115114  1  0
116115  2  0
117116  1  0
117112  2  0
118117  1  0
120122  2  0
120121  1  0
121124  1  0
123121  1  0
125126  1  0
127125  1  0
M  ISO  4  23 101  24 101  90 100  98 100
M  END
>  <TORSDO>  (46) 
F 48

>  <SCORE>  (46) 
-1.274

>  <name>  (46) 
47

>  <ligand_id>  (46) 
47

>  <original_smiles>  (46) 
[H]c1c([H])c([H])c2c(c1[H])C([H])([H])C([H])([H])C([H])([H])C2([H])N([H])C(=O)C1([H])N(C(=O)C([H])(N([H])C(=O)C([H])(N([H])C([H])([H])[H])C([H])([H])[H])C(C([H])([H])[H])(C([H])([H])[H])C([H])([H])[H])C([H])([H])c2c([H])c(OC([H])([H])C([H])([H])N([H])C(=O)C([H])([H])OC([H])([H])C([H])([H])OC([H])([H])C([H])([H])N([H])C(=O)C([H])([H])N([H])C(=O)C([H])([H])N([H])C(=O)C([H])([H])OC([H])([H])C([H])([H])OC([H])([H])C([H])([H])N([H])C(=O)C([H])([H])OC([H])([H])C([H])([H])OC([H])([H])C([H])([H])OC([H])([H])C([H])([H])N([H])C(=O)N3C([H])([H])C([H])([H])C([H])([H])C([H])(n4nc(-c5c([H])c([H])c(Oc6c([H])c([H])c(F)c([H])c6F)c([H])c5[H])c(C(=O)N([H])[H])c4N([H])[H])C3([H])[H])c([H])c([H])c2C1([H])[H]

>  <smiles>  (46) 
[H]c1c([H])c([H])c2c(c1[H])C([H])([H])C([H])([H])C([H])([H])C2([H])N([H])C(=O)C1([H])N(C(=O)C([H])(N([H])C(=O)C([H])(N([H])C([H])([H])[H])C([H])([H])[H])C(C([H])([H])[H])(C([H])([H])[H])C([H])([H])[H])C([H])([H])c2c([H])c(OC([H])([H])C([H])([H])N([H])C(=O)C([H])([H])OC([H])([H])C([H])([H])OC([H])([H])C([H])([H])N([H])C(=O)C([H])([H])N([H])C(=O)C([H])([H])N([H])C(=O)C([H])([H])OC([H])([H])C([H])([H])OC([H])([H])C([H])([H])N([H])C(=O)C([H])([H])OC([H])([H])C([H])([H])OC([H])([H])C([H])([H])OC([H])([H])C([H])([H])N([H])C(=O)N3C([H])([H])C([H])([H])C([H])([H])C([H])(n4nc(-c5c([H])c([H])c(Oc6c([H])c([H])c(F)c([H])c6F)c([H])c5[H])c(C(=O)N([H])[H])c4N([H])[H])C3([H])[H])c([H])c([H])c2C1([H])[H]

$$$$
48:0:0
     RDKit          3D

 94101  0  0  1  0  0  0  0  0999 V2000
  -24.9570  -24.2040   21.0510 C   0  0  0  0  0  0  0  0  0  0  0  0
  -23.9850  -24.0550   20.1460 N   0  0  0  0  0  0  0  0  0  0  0  0
  -24.8930  -23.7130   22.1810 O   0  0  0  0  0  0  0  0  0  0  0  0
  -24.0970  -24.5300   19.2590 H   0  0  0  0  0  0  0  0  0  0  0  0
  -26.2020  -24.9600   20.5810 C   0  0  0  0  0  2  0  0  0  0  0  0
  -27.4420  -24.7400   21.4670 C   0  0  0  0  0  2  0  0  0  0  0  0
  -28.7490  -24.9540   20.6920 C   0  0  0  0  0  2  0  0  0  0  0  0
  -29.8910  -25.4710   21.5860 C   0  0  0  0  0  2  0  0  0  0  0  0
  -29.9680  -26.8880   21.5150 O   0  0  0  0  0  0  0  0  0  0  0  0
  -25.6850  -29.2560   26.6960 C   0  0  0  0  0  0  0  0  0  0  0  0
  -28.8180  -27.5430   21.8680 C   0  0  0  0  0  0  0  0  0  0  0  0
  -24.8200  -29.4690   24.3860 C   0  0  0  0  0  3  0  0  0  0  0  0
  -26.5020  -29.0080   22.5260 C   0  0  0  0  0  0  0  0  0  0  0  0
  -27.3340  -29.4600   24.8420 C   0  0  0  0  0  2  0  0  0  0  0  0
  -27.5160  -28.8340   23.4780 C   0  0  0  0  0  0  0  0  0  0  0  0
  -28.6720  -28.0930   23.1590 C   0  0  0  0  0  3  0  0  0  0  0  0
  -27.7950  -27.7260   20.9160 C   0  0  0  0  0  3  0  0  0  0  0  0
  -26.6310  -28.4450   21.2460 C   0  0  0  0  0  3  0  0  0  0  0  0
  -25.2990  -29.8190   22.9520 C   0  0  0  0  0  2  0  0  0  0  0  0
  -25.9510  -29.3670   25.3630 N   0  0  0  0  0  0  0  0  0  0  0  0
  -24.5220  -29.2850   27.1210 O   0  0  0  0  0  0  0  0  0  0  0  0
  -23.9540  -28.1920   24.3150 C   0  0  0  0  0  0  0  0  0  0  0  0
  -22.8230  -28.2770   23.5980 N   0  0  0  0  0  0  0  0  0  0  0  0
  -24.3170  -27.1520   24.8700 O   0  0  0  0  0  0  0  0  0  0  0  0
  -22.5870  -29.1710   23.1910 H   0  0  0  0  0  0  0  0  0  0  0  0
  -19.8150  -27.3830   21.8050 C   0  0  0  0  0  0  0  0  0  0  0  0
  -21.8760  -27.1900   23.3550 C   0  0  0  0  0  3  0  0  0  0  0  0
  -22.4360  -26.1860   22.3200 C   0  0  0  0  0  2  0  0  0  0  0  0
  -21.9960  -26.4880   20.8840 C   0  0  0  0  0  2  0  0  0  0  0  0
  -20.4680  -26.4770   20.7760 C   0  0  0  0  0  2  0  0  0  0  0  0
  -20.4830  -27.7290   23.0100 C   0  0  0  0  0  0  0  0  0  0  0  0
  -19.8450  -28.6010   23.9190 C   0  0  0  0  0  3  0  0  0  0  0  0
  -18.5680  -29.1230   23.6430 C   0  0  0  0  0  3  0  0  0  0  0  0
  -17.9050  -28.7640   22.4560 C   0  0  0  0  0  3  0  0  0  0  0  0
  -18.5270  -27.8920   21.5450 C   0  0  0  0  0  3  0  0  0  0  0  0
  -26.8270  -29.1150   27.7490 C   0  0  0  0  0  3  0  0  0  0  0  0
  -26.5820  -27.9470   28.7820 C   0  0  1  0  0  0  0  0  0  0  0  0
  -25.1750  -27.9710   29.4230 C   0  0  0  0  0  1  0  0  0  0  0  0
  -26.7650  -26.5710   28.1000 C   0  0  0  0  0  1  0  0  0  0  0  0
  -27.6270  -28.0230   29.9190 C   0  0  0  0  0  1  0  0  0  0  0  0
  -26.9530  -30.4040   28.4390 N   0  0  0  0  0  0  0  0  0  0  0  0
  -27.8440  -31.3530   28.1220 C   0  0  0  0  0  0  0  0  0  0  0  0
  -28.7060  -31.1970   27.2530 O   0  0  0  0  0  0  0  0  0  0  0  0
  -26.2440  -30.6210   29.1250 H   0  0  0  0  0  0  0  0  0  0  0  0
  -26.9780  -33.7120   28.0660 C   0  0  0  0  0  1  0  0  0  0  0  0
  -27.7660  -32.6840   28.8920 C   0  0  0  0  0  3  0  0  0  0  0  0
  -29.7940  -32.4590   30.2590 C   0  0  0  0  0  1  0  0  0  0  0  0
  -29.0920  -33.2390   29.2420 N   0  0  0  0  0  0  0  0  0  0  0  0
  -29.0050  -34.1930   29.5820 H   0  0  0  0  0  0  0  0  0  0  0  0
  -22.8880  -23.0940   20.2370 C   0  0  0  0  0  2  0  0  0  0  0  0
  -23.1380  -21.8740   19.3200 C   0  0  0  0  0  2  0  0  0  0  0  0
  -24.1980  -22.1360   18.2310 C   0  0  0  0  0  2  0  0  0  0  0  0
  -25.2600  -21.0310   18.0910 C   0  0  0  0  0  2  0  0  0  0  0  0
  -26.4410  -21.5460   17.2540 C   0  0  0  0  0  2  0  0  0  0  0  0
  -27.8250  -21.2930   17.8640 C   0  0  0  0  0  2  0  0  0  0  0  0
  -28.9150  -21.4620   16.7950 C   0  0  0  0  0  2  0  0  0  0  0  0
  -31.2850  -21.0410   17.0780 C   0  0  0  0  0  0  0  0  0  0  0  0
  -32.6950  -19.1010   17.6640 C   0  0  0  0  0  2  0  0  0  0  0  0
  -32.2770  -17.8350   16.8940 C   0  0  0  0  0  2  0  0  0  0  0  0
  -31.1610  -17.0880   17.6480 C   0  0  0  0  0  2  0  0  0  0  0  0
  -29.9940  -18.0210   18.0570 C   0  0  0  0  0  3  0  0  0  0  0  0
  -30.5230  -19.2990   18.7450 C   0  0  0  0  0  2  0  0  0  0  0  0
  -31.5030  -19.9430   17.8510 N   0  0  0  0  0  0  0  0  0  0  0  0
  -32.0720  -21.4350   16.2170 O   0  0  0  0  0  0  0  0  0  0  0  0
  -30.2110  -21.7790   17.3820 N   0  0  0  0  0  0  0  0  0  0  0  0
  -30.4090  -22.7630   17.2740 H   0  0  0  0  0  0  0  0  0  0  0  0
  -28.0380  -17.8450   19.7230 C   0  0  0  0  0  0  0  0  0  0  0  0
  -27.3490  -16.7680   20.2140 C   0  0  0  0  0  0  0  0  0  0  0  0
  -27.9560  -15.6150   19.6300 C   0  0  0  0  0  0  0  0  0  0  0  0
  -29.0170  -17.3250   18.8910 N   0  0  0  0  0  0  0  0  0  0  0  0
  -28.9910  -15.9680   18.8800 N   0  0  0  0  0  0  0  0  0  0  0  0
  -27.5780  -14.1970   19.6940 C   0  0  0  0  0  0  0  0  0  0  0  0
  -27.7930  -13.4280   20.8590 C   0  0  0  0  0  3  0  0  0  0  0  0
  -27.4020  -12.0710   20.9040 C   0  0  0  0  0  3  0  0  0  0  0  0
  -26.7900  -11.4720   19.7780 C   0  0  0  0  0  0  0  0  0  0  0  0
  -26.5980  -12.2360   18.6150 C   0  0  0  0  0  3  0  0  0  0  0  0
  -26.9900  -13.5840   18.5690 C   0  0  0  0  0  3  0  0  0  0  0  0
  -26.4040  -10.1550   19.7220 O   0  0  0  0  0  0  0  0  0  0  0  0
  -25.3720   -9.6760   20.4890 C   0  0  0  0  0  0  0  0  0  0  0  0
  -24.0400  -10.1000   20.2950 C   0  0  0  0  0  3  0  0  0  0  0  0
  -23.0000   -9.5280   21.0570 C   0  0  0  0  0  3  0  0  0  0  0  0
  -23.2880   -8.5270   22.0040 C   0  0  0  0  0  0  0  0  0  0  0  0
  -24.6150   -8.1000   22.1940 C   0  0  0  0  0  3  0  0  0  0  0  0
  -25.6520   -8.6710   21.4360 C   0  0  0  0  0  0  0  0  0  0  0  0
  -26.9240   -8.2400   21.6080 F   0  0  0  0  0  0  0  0  0  0  0  0
  -22.2910   -7.9720   22.7300 F   0  0  0  0  0  0  0  0  0  0  0  0
  -26.1320  -16.8080   21.0920 C   0  0  0  0  0  0  0  0  0  0  0  0
  -26.0040  -15.8520   22.0060 N   0  0  0  0  0  0  0  0  0  0  0  0
  -25.3080  -17.7160   21.0040 O   0  0  0  0  0  0  0  0  0  0  0  0
  -26.6870  -15.1130   22.0900 H   0  0  0  0  0  0  0  0  0  0  0  0
  -25.2110  -15.8600   22.6330 H   0  0  0  0  0  0  0  0  0  0  0  0
  -27.9040  -19.2170   19.8980 N   0  0  0  0  0  0  0  0  0  0  0  0
  -27.1720  -19.6140   20.4750 H   0  0  0  0  0  0  0  0  0  0  0  0
  -28.4720  -19.9140   19.4350 H   0  0  0  0  0  0  0  0  0  0  0  0
  1  3  2  0
  2 50  1  0
  2  1  1  0
  4  2  1  0
  5  1  1  0
  5  6  1  0
  7  6  1  0
  7  8  1  0
  9  8  1  0
  9 11  1  0
 10 21  2  0
 11 16  1  0
 12 22  1  0
 12 20  1  0
 13 19  1  0
 13 15  1  0
 14 20  1  0
 15 14  1  0
 16 15  2  0
 17 18  1  0
 17 11  2  0
 18 13  2  0
 19 12  1  0
 20 10  1  0
 22 24  2  0
 23 22  1  0
 25 23  1  0
 26 31  1  0
 27 23  1  0
 28 27  1  0
 29 28  1  0
 30 29  1  0
 30 26  1  0
 31 27  1  0
 31 32  2  0
 33 32  1  0
 34 33  2  0
 35 26  2  0
 35 34  1  0
 36 10  1  0
 36 41  1  0
 36 37  1  0
 37 38  1  1
 37 40  1  0
 39 37  1  0
 41 44  1  0
 42 41  1  0
 42 46  1  0
 43 42  2  0
 46 45  1  0
 46 48  1  0
 48 49  1  0
 48 47  1  0
 51 50  1  0
 52 51  1  0
 53 52  1  0
 54 55  1  0
 54 53  1  0
 56 65  1  0
 56 55  1  0
 57 65  1  0
 57 63  1  0
 58 63  1  0
 59 60  1  0
 59 58  1  0
 61 60  1  0
 61 62  1  0
 61 70  1  0
 63 62  1  0
 64 57  2  0
 66 65  1  0
 67 92  1  0
 67 68  2  0
 68 87  1  0
 69 72  1  0
 69 68  1  0
 70 67  1  0
 71 70  1  0
 71 69  2  0
 72 73  1  0
 73 74  2  0
 75 74  1  0
 76 75  2  0
 77 76  1  0
 77 72  2  0
 78 75  1  0
 78 79  1  0
 79 84  1  0
 80 79  2  0
 80 81  1  0
 81 82  2  0
 82 83  1  0
 82 86  1  0
 84 85  1  0
 84 83  2  0
 87 88  1  0
 88 90  1  0
 88 91  1  0
 89 87  2  0
 92 93  1  0
 94 92  1  0
M  ISO  4   8 101   9 101  57 100  65 100
M  END
>  <TORSDO>  (47) 
F 27

>  <SCORE>  (47) 
0.119

>  <name>  (47) 
48

>  <ligand_id>  (47) 
48

>  <original_smiles>  (47) 
[H]c1c([H])c([H])c2c(c1[H])C([H])([H])C([H])([H])C([H])([H])C2([H])N([H])C(=O)C1([H])N(C(=O)C([H])(N([H])C(=O)C([H])(N([H])C([H])([H])[H])C([H])([H])[H])C(C([H])([H])[H])(C([H])([H])[H])C([H])([H])[H])C([H])([H])c2c([H])c(OC([H])([H])C([H])([H])C([H])([H])C([H])([H])C(=O)N([H])C([H])([H])C([H])([H])C([H])([H])C([H])([H])C([H])([H])C([H])([H])C([H])([H])N([H])C(=O)N3C([H])([H])C([H])([H])C([H])([H])C([H])(n4nc(-c5c([H])c([H])c(Oc6c([H])c([H])c(F)c([H])c6F)c([H])c5[H])c(C(=O)N([H])[H])c4N([H])[H])C3([H])[H])c([H])c([H])c2C1([H])[H]

>  <smiles>  (47) 
[H]c1c([H])c([H])c2c(c1[H])C([H])([H])C([H])([H])C([H])([H])C2([H])N([H])C(=O)C1([H])N(C(=O)C([H])(N([H])C(=O)C([H])(N([H])C([H])([H])[H])C([H])([H])[H])C(C([H])([H])[H])(C([H])([H])[H])C([H])([H])[H])C([H])([H])c2c([H])c(OC([H])([H])C([H])([H])C([H])([H])C([H])([H])C(=O)N([H])C([H])([H])C([H])([H])C([H])([H])C([H])([H])C([H])([H])C([H])([H])C([H])([H])N([H])C(=O)N3C([H])([H])C([H])([H])C([H])([H])C([H])(n4nc(-c5c([H])c([H])c(Oc6c([H])c([H])c(F)c([H])c6F)c([H])c5[H])c(C(=O)N([H])[H])c4N([H])[H])C3([H])[H])c([H])c([H])c2C1([H])[H]

$$$$
49:0:0
     RDKit          3D

106113  0  0  1  0  0  0  0  0999 V2000
  -21.4750  -22.8550   22.3280 C   0  0  0  0  0  2  0  0  0  0  0  0
  -22.4490  -23.5220   20.1330 C   0  0  0  0  0  0  0  0  0  0  0  0
  -22.2420  -22.6280   21.1060 N   0  0  0  0  0  0  0  0  0  0  0  0
  -21.9320  -24.6400   20.1320 O   0  0  0  0  0  0  0  0  0  0  0  0
  -22.6700  -21.7180   20.9970 H   0  0  0  0  0  0  0  0  0  0  0  0
  -23.3510  -23.0870   18.9710 C   0  0  0  0  0  2  0  0  0  0  0  0
  -25.3250  -24.2700   18.0040 C   0  0  0  0  0  0  0  0  0  0  0  0
  -24.0480  -24.2360   18.3990 N   0  0  0  0  0  0  0  0  0  0  0  0
  -26.0770  -23.3000   18.1180 O   0  0  0  0  0  0  0  0  0  0  0  0
  -23.5290  -25.1050   18.3830 H   0  0  0  0  0  0  0  0  0  0  0  0
  -25.8270  -25.5840   17.3870 C   0  0  0  0  0  2  0  0  0  0  0  0
  -27.1560  -25.8510   17.8320 O   0  0  0  0  0  0  0  0  0  0  0  0
  -27.4650  -27.2400   17.8990 C   0  0  0  0  0  2  0  0  0  0  0  0
  -28.8760  -27.4930   17.3520 C   0  0  0  0  0  2  0  0  0  0  0  0
  -29.9450  -26.5570   18.0170 C   0  0  0  0  0  2  0  0  0  0  0  0
  -32.2490  -26.8340   16.9610 C   0  0  0  0  0  0  0  0  0  0  0  0
  -33.2320  -25.3710   15.2440 C   0  0  0  0  0  2  0  0  0  0  0  0
  -32.1200  -24.7440   14.3830 C   0  0  0  0  0  2  0  0  0  0  0  0
  -31.6200  -23.4350   15.0270 C   0  0  0  0  0  2  0  0  0  0  0  0
  -31.2610  -23.6040   16.5250 C   0  0  0  0  0  3  0  0  0  0  0  0
  -32.3960  -24.3330   17.2800 C   0  0  0  0  0  2  0  0  0  0  0  0
  -32.6740  -25.6010   16.5810 N   0  0  0  0  0  0  0  0  0  0  0  0
  -32.5480  -27.8740   16.3730 O   0  0  0  0  0  0  0  0  0  0  0  0
  -31.3960  -26.8840   17.9990 N   0  0  0  0  0  0  0  0  0  0  0  0
  -31.5580  -27.7310   18.5220 H   0  0  0  0  0  0  0  0  0  0  0  0
  -29.7900  -21.9880   17.8770 C   0  0  0  0  0  0  0  0  0  0  0  0
  -29.9290  -20.6570   18.1710 C   0  0  0  0  0  0  0  0  0  0  0  0
  -31.1720  -20.2560   17.5910 C   0  0  0  0  0  0  0  0  0  0  0  0
  -30.9210  -22.3330   17.1520 N   0  0  0  0  0  0  0  0  0  0  0  0
  -31.7790  -21.2930   17.0320 N   0  0  0  0  0  0  0  0  0  0  0  0
  -31.7930  -18.9330   17.4790 C   0  0  0  0  0  0  0  0  0  0  0  0
  -33.1190  -18.7030   17.9060 C   0  0  0  0  0  3  0  0  0  0  0  0
  -33.6880  -17.4150   17.8020 C   0  0  0  0  0  3  0  0  0  0  0  0
  -32.9290  -16.3460   17.2730 C   0  0  0  0  0  0  0  0  0  0  0  0
  -31.6170  -16.5860   16.8300 C   0  0  0  0  0  3  0  0  0  0  0  0
  -31.0530  -17.8680   16.9270 C   0  0  0  0  0  3  0  0  0  0  0  0
  -33.4060  -15.0680   17.1120 O   0  0  0  0  0  0  0  0  0  0  0  0
  -34.3950  -14.5640   17.9190 C   0  0  0  0  0  0  0  0  0  0  0  0
  -34.2600  -14.5170   19.3240 C   0  0  0  0  0  3  0  0  0  0  0  0
  -35.2720  -13.9300   20.1080 C   0  0  0  0  0  3  0  0  0  0  0  0
  -36.4120  -13.3780   19.4920 C   0  0  0  0  0  0  0  0  0  0  0  0
  -36.5430  -13.4140   18.0920 C   0  0  0  0  0  3  0  0  0  0  0  0
  -35.5350  -14.0040   17.3070 C   0  0  0  0  0  0  0  0  0  0  0  0
  -35.6580  -14.0210   15.9580 F   0  0  0  0  0  0  0  0  0  0  0  0
  -37.3800  -12.8050   20.2430 F   0  0  0  0  0  0  0  0  0  0  0  0
  -28.9280  -19.7850   18.8670 C   0  0  0  0  0  0  0  0  0  0  0  0
  -29.3960  -18.7660   19.5800 N   0  0  0  0  0  0  0  0  0  0  0  0
  -27.7230  -20.0260   18.8190 O   0  0  0  0  0  0  0  0  0  0  0  0
  -30.3860  -18.5840   19.6440 H   0  0  0  0  0  0  0  0  0  0  0  0
  -28.7500  -18.1690   20.0780 H   0  0  0  0  0  0  0  0  0  0  0  0
  -28.7960  -22.9240   18.1420 N   0  0  0  0  0  0  0  0  0  0  0  0
  -27.8940  -22.6740   18.5400 H   0  0  0  0  0  0  0  0  0  0  0  0
  -28.8040  -23.8760   17.7980 H   0  0  0  0  0  0  0  0  0  0  0  0
  -22.3850  -22.8170   23.5700 C   0  0  0  0  0  2  0  0  0  0  0  0
  -22.5870  -24.1290   24.0900 O   0  0  0  0  0  0  0  0  0  0  0  0
  -23.8120  -24.7430   23.7000 C   0  0  0  0  0  2  0  0  0  0  0  0
  -23.7140  -26.2520   23.9710 C   0  0  0  0  0  2  0  0  0  0  0  0
  -22.6280  -26.7690   23.2210 O   0  0  0  0  0  0  0  0  0  0  0  0
  -22.3470  -28.1340   23.4940 C   0  0  0  0  0  2  0  0  0  0  0  0
  -21.1520  -28.5620   22.6360 C   0  0  0  0  0  0  0  0  0  0  0  0
  -20.0450  -28.9560   23.2700 N   0  0  0  0  0  0  0  0  0  0  0  0
  -21.2130  -28.4960   21.4060 O   0  0  0  0  0  0  0  0  0  0  0  0
  -20.0620  -28.9920   24.2800 H   0  0  0  0  0  0  0  0  0  0  0  0
  -18.7680  -29.1460   22.5910 C   0  0  0  0  0  2  0  0  0  0  0  0
  -17.6400  -29.4420   23.5920 C   0  0  0  0  0  2  0  0  0  0  0  0
  -16.3510  -29.3980   22.9870 O   0  0  0  0  0  0  0  0  0  0  0  0
  -12.4000  -24.6720   26.5740 C   0  0  0  0  0  0  0  0  0  0  0  0
  -15.7390  -28.1690   23.0030 C   0  0  0  0  0  0  0  0  0  0  0  0
  -13.3870  -23.8730   24.4500 C   0  0  0  0  0  3  0  0  0  0  0  0
  -14.4330  -25.6680   22.9740 C   0  0  0  0  0  0  0  0  0  0  0  0
  -12.8620  -26.3520   24.7940 C   0  0  0  0  0  2  0  0  0  0  0  0
  -14.0240  -26.6600   23.8750 C   0  0  0  0  0  0  0  0  0  0  0  0
  -14.6790  -27.9120   23.8980 C   0  0  0  0  0  3  0  0  0  0  0  0
  -16.1220  -27.1700   22.0840 C   0  0  0  0  0  3  0  0  0  0  0  0
  -15.4870  -25.9140   22.0800 C   0  0  0  0  0  3  0  0  0  0  0  0
  -13.6780  -24.3580   23.0040 C   0  0  0  0  0  2  0  0  0  0  0  0
  -12.8820  -24.9720   25.3350 N   0  0  0  0  0  0  0  0  0  0  0  0
  -12.3260  -23.4990   26.9640 O   0  0  0  0  0  0  0  0  0  0  0  0
  -14.6520  -23.1750   25.0000 C   0  0  0  0  0  0  0  0  0  0  0  0
  -14.8450  -21.9010   24.6220 N   0  0  0  0  0  0  0  0  0  0  0  0
  -15.4470  -23.7830   25.7230 O   0  0  0  0  0  0  0  0  0  0  0  0
  -14.1390  -21.4700   24.0400 H   0  0  0  0  0  0  0  0  0  0  0  0
  -16.2380  -18.5890   24.2670 C   0  0  0  0  0  0  0  0  0  0  0  0
  -15.9850  -21.0590   24.9830 C   0  0  0  0  0  3  0  0  0  0  0  0
  -17.1980  -21.3440   24.0650 C   0  0  0  0  0  2  0  0  0  0  0  0
  -17.2630  -20.4180   22.8470 C   0  0  0  0  0  2  0  0  0  0  0  0
  -17.3450  -18.9550   23.2910 C   0  0  0  0  0  2  0  0  0  0  0  0
  -15.5910  -19.5810   25.0500 C   0  0  0  0  0  0  0  0  0  0  0  0
  -14.5440  -19.1950   25.9160 C   0  0  0  0  0  3  0  0  0  0  0  0
  -14.1460  -17.8480   26.0090 C   0  0  0  0  0  3  0  0  0  0  0  0
  -14.8020  -16.8680   25.2430 C   0  0  0  0  0  3  0  0  0  0  0  0
  -15.8500  -17.2390   24.3800 C   0  0  0  0  0  3  0  0  0  0  0  0
  -11.8970  -25.7840   27.5490 C   0  0  0  0  0  3  0  0  0  0  0  0
  -12.9510  -26.1680   28.6610 C   0  0  1  0  0  0  0  0  0  0  0  0
  -13.4990  -24.9520   29.4420 C   0  0  0  0  0  1  0  0  0  0  0  0
  -14.1560  -26.9120   28.0370 C   0  0  0  0  0  1  0  0  0  0  0  0
  -12.3090  -27.1340   29.6840 C   0  0  0  0  0  1  0  0  0  0  0  0
  -10.6480  -25.3070   28.1560 N   0  0  0  0  0  0  0  0  0  0  0  0
   -9.4230  -25.6620   27.7470 C   0  0  0  0  0  0  0  0  0  0  0  0
   -9.2280  -26.4940   26.8570 O   0  0  0  0  0  0  0  0  0  0  0  0
  -10.7340  -24.5840   28.8550 H   0  0  0  0  0  0  0  0  0  0  0  0
   -7.6860  -23.8530   27.5490 C   0  0  0  0  0  1  0  0  0  0  0  0
   -8.2240  -24.9850   28.4370 C   0  0  0  0  0  3  0  0  0  0  0  0
   -7.4810  -26.8780   29.8150 C   0  0  0  0  0  1  0  0  0  0  0  0
   -7.1290  -25.9220   28.7680 N   0  0  0  0  0  0  0  0  0  0  0  0
   -6.3010  -25.4140   29.0660 H   0  0  0  0  0  0  0  0  0  0  0  0
  1 54  1  0
  2  3  1  0
  3  1  1  0
  4  2  2  0
  5  3  1  0
  6  2  1  0
  7  9  2  0
  7  8  1  0
  8  6  1  0
 10  8  1  0
 11 12  1  0
 11  7  1  0
 12 13  1  0
 14 13  1  0
 14 15  1  0
 16 24  1  0
 17 22  1  0
 18 19  1  0
 18 17  1  0
 20 19  1  0
 20 29  1  0
 20 21  1  0
 22 16  1  0
 22 21  1  0
 23 16  2  0
 24 15  1  0
 24 25  1  0
 26 51  1  0
 26 27  2  0
 27 46  1  0
 28 27  1  0
 29 26  1  0
 30 29  1  0
 30 28  2  0
 31 28  1  0
 31 32  1  0
 33 32  2  0
 34 33  1  0
 35 36  1  0
 35 34  2  0
 36 31  2  0
 37 34  1  0
 37 38  1  0
 38 39  1  0
 39 40  2  0
 41 40  1  0
 41 45  1  0
 42 41  2  0
 43 38  2  0
 43 42  1  0
 44 43  1  0
 46 47  1  0
 47 49  1  0
 47 50  1  0
 48 46  2  0
 51 52  1  0
 53 51  1  0
 54 55  1  0
 56 57  1  0
 56 55  1  0
 58 59  1  0
 58 57  1  0
 60 61  1  0
 60 59  1  0
 61 63  1  0
 62 60  2  0
 64 61  1  0
 64 65  1  0
 66 68  1  0
 66 65  1  0
 67 78  2  0
 68 73  1  0
 69 79  1  0
 69 77  1  0
 70 76  1  0
 70 72  1  0
 71 77  1  0
 72 73  2  0
 72 71  1  0
 74 68  2  0
 75 74  1  0
 75 70  2  0
 76 69  1  0
 77 67  1  0
 79 81  2  0
 80 79  1  0
 82 80  1  0
 83 92  2  0
 83 88  1  0
 84 80  1  0
 84 88  1  0
 85 84  1  0
 86 87  1  0
 86 85  1  0
 87 83  1  0
 88 89  2  0
 89 90  1  0
 91 90  2  0
 92 91  1  0
 93 67  1  0
 93 98  1  0
 93 94  1  0
 94 95  1  1
 94 97  1  0
 96 94  1  0
 98101  1  0
 99 98  1  0
 99103  1  0
100 99  2  0
103102  1  0
103105  1  0
105106  1  0
105104  1  0
M  ISO  4  16 100  24 100  65 101  66 101
M  END
>  <TORSDO>  (48) 
F 33

>  <SCORE>  (48) 
2.734

>  <name>  (48) 
49

>  <ligand_id>  (48) 
49

>  <original_smiles>  (48) 
[H]c1c([H])c([H])c2c(c1[H])C([H])([H])C([H])([H])C([H])([H])C2([H])N([H])C(=O)C1([H])N(C(=O)C([H])(N([H])C(=O)C([H])(N([H])C([H])([H])[H])C([H])([H])[H])C(C([H])([H])[H])(C([H])([H])[H])C([H])([H])[H])C([H])([H])c2c([H])c(OC([H])([H])C([H])([H])N([H])C(=O)C([H])([H])OC([H])([H])C([H])([H])OC([H])([H])C([H])([H])N([H])C(=O)C([H])([H])N([H])C(=O)C([H])([H])OC([H])([H])C([H])([H])C([H])([H])N([H])C(=O)N3C([H])([H])C([H])([H])C([H])([H])C([H])(n4nc(-c5c([H])c([H])c(Oc6c([H])c([H])c(F)c([H])c6F)c([H])c5[H])c(C(=O)N([H])[H])c4N([H])[H])C3([H])[H])c([H])c([H])c2C1([H])[H]

>  <smiles>  (48) 
[H]c1c([H])c([H])c2c(c1[H])C([H])([H])C([H])([H])C([H])([H])C2([H])N([H])C(=O)C1([H])N(C(=O)C([H])(N([H])C(=O)C([H])(N([H])C([H])([H])[H])C([H])([H])[H])C(C([H])([H])[H])(C([H])([H])[H])C([H])([H])[H])C([H])([H])c2c([H])c(OC([H])([H])C([H])([H])N([H])C(=O)C([H])([H])OC([H])([H])C([H])([H])OC([H])([H])C([H])([H])N([H])C(=O)C([H])([H])N([H])C(=O)C([H])([H])OC([H])([H])C([H])([H])C([H])([H])N([H])C(=O)N3C([H])([H])C([H])([H])C([H])([H])C([H])(n4nc(-c5c([H])c([H])c(Oc6c([H])c([H])c(F)c([H])c6F)c([H])c5[H])c(C(=O)N([H])[H])c4N([H])[H])C3([H])[H])c([H])c([H])c2C1([H])[H]

$$$$
50:0:0
     RDKit          3D

104107  0  0  1  0  0  0  0  0999 V2000
  -20.2110  -28.7650   19.9100 C   0  0  0  0  0  0  0  0  0  0  0  0
  -20.4180  -28.1460   18.7120 N   0  0  0  0  0  0  0  0  0  0  0  0
  -20.5330  -29.9510   19.9930 O   0  0  0  0  0  0  0  0  0  0  0  0
  -20.0510  -27.2090   18.5880 H   0  0  0  0  0  0  0  0  0  0  0  0
  -19.3800  -28.1320   21.1770 C   0  0  0  0  0  1  0  0  0  0  0  0
  -19.7790  -26.5800   22.9930 O   0  0  0  0  0  1  0  0  0  0  0  0
  -20.7780  -25.4130   23.5590 C   0  0  0  0  0  2  0  0  0  0  0  0
  -21.3900  -23.8690   23.0890 C   0  0  0  0  0  2  0  0  0  0  0  0
  -22.9270  -23.3250   22.6140 C   0  0  0  0  0  2  0  0  0  0  0  0
  -23.5650  -21.9380   22.8990 O   0  0  0  0  0  0  0  0  0  0  0  0
  -24.3630  -21.0110   21.9440 C   0  0  0  0  0  2  0  0  0  0  0  0
  -25.9060  -20.3380   22.0640 C   0  0  0  0  0  3  0  0  0  0  0  0
  -26.3040  -18.7380   21.7340 C   0  0  0  0  0  3  0  0  0  0  0  0
  -27.8350  -18.1080   21.4100 C   0  0  0  0  0  3  0  0  0  0  0  0
  -28.1850  -16.4770   21.1740 C   0  0  0  0  0  3  0  0  0  0  0  0
  -30.3750  -14.7830   20.6280 C   0  0  0  0  0  0  0  0  0  0  0  0
  -30.3870  -12.4790   19.5470 C   0  0  0  0  0  2  0  0  0  0  0  0
  -29.5140  -12.5140   18.2700 C   0  0  0  0  0  2  0  0  0  0  0  0
  -28.0260  -12.3040   18.6320 C   0  0  0  0  0  2  0  0  0  0  0  0
  -27.5920  -13.2020   19.8200 C   0  0  0  0  0  3  0  0  0  0  0  0
  -28.5770  -13.0920   20.9940 C   0  0  0  0  0  2  0  0  0  0  0  0
  -29.8550  -13.5170   20.4790 N   0  0  0  0  0  0  0  0  0  0  0  0
  -31.5600  -14.9370   20.2950 O   0  0  0  0  0  0  0  0  0  0  0  0
  -29.6360  -15.8770   21.1610 N   0  0  0  0  0  0  0  0  0  0  0  0
  -30.3040  -16.5670   21.4790 H   0  0  0  0  0  0  0  0  0  0  0  0
  -25.2140  -13.8070   20.5450 C   0  0  0  0  0  0  0  0  0  0  0  0
  -24.1570  -13.0360   20.9300 C   0  0  0  0  0  0  0  0  0  0  0  0
  -24.6190  -11.6850   20.8820 C   0  0  0  0  0  0  0  0  0  0  0  0
  -26.2470  -12.9230   20.2830 N   0  0  0  0  0  0  0  0  0  0  0  0
  -25.9050  -11.6460   20.5600 N   0  0  0  0  0  0  0  0  0  0  0  0
  -23.8920  -10.4250   21.0460 C   0  0  0  0  0  0  0  0  0  0  0  0
  -24.3520   -9.4190   21.9210 C   0  0  0  0  0  3  0  0  0  0  0  0
  -23.6230   -8.2200   22.0760 C   0  0  0  0  0  3  0  0  0  0  0  0
  -22.4180   -8.0260   21.3580 C   0  0  0  0  0  0  0  0  0  0  0  0
  -21.9820   -9.0200   20.4630 C   0  0  0  0  0  3  0  0  0  0  0  0
  -22.7150  -10.2070   20.3070 C   0  0  0  0  0  3  0  0  0  0  0  0
  -21.6620   -6.8800   21.4230 O   0  0  0  0  0  0  0  0  0  0  0  0
  -21.6850   -6.0730   22.5300 C   0  0  0  0  0  0  0  0  0  0  0  0
  -21.4060   -6.5660   23.8250 C   0  0  0  0  0  3  0  0  0  0  0  0
  -21.3630   -5.6800   24.9190 C   0  0  0  0  0  3  0  0  0  0  0  0
  -21.6050   -4.3060   24.7270 C   0  0  0  0  0  0  0  0  0  0  0  0
  -21.8820   -3.8140   23.4410 C   0  0  0  0  0  3  0  0  0  0  0  0
  -21.9180   -4.6950   22.3450 C   0  0  0  0  0  0  0  0  0  0  0  0
  -22.1660   -4.2150   21.1020 F   0  0  0  0  0  0  0  0  0  0  0  0
  -21.5560   -3.4530   25.7770 F   0  0  0  0  0  0  0  0  0  0  0  0
  -22.7630  -13.5080   21.1960 C   0  0  0  0  0  0  0  0  0  0  0  0
  -22.0270  -12.8070   22.0560 N   0  0  0  0  0  0  0  0  0  0  0  0
  -22.3310  -14.5370   20.6790 O   0  0  0  0  0  0  0  0  0  0  0  0
  -22.3770  -11.9590   22.4770 H   0  0  0  0  0  0  0  0  0  0  0  0
  -21.0880  -13.1100   22.2830 H   0  0  0  0  0  0  0  0  0  0  0  0
  -25.3620  -15.1750   20.3500 N   0  0  0  0  0  0  0  0  0  0  0  0
  -24.5200  -15.7360   20.2900 H   0  0  0  0  0  0  0  0  0  0  0  0
  -26.0830  -15.5110   19.7230 H   0  0  0  0  0  0  0  0  0  0  0  0
  -20.6560  -28.8850   17.4290 C   0  0  0  0  0  2  0  0  0  0  0  0
  -22.0130  -29.5550   17.0430 C   0  0  0  0  0  0  0  0  0  0  0  0
  -23.1680  -28.8600   16.9070 N   0  0  0  0  0  0  0  0  0  0  0  0
  -21.9860  -30.7670   16.7840 O   0  0  0  0  0  0  0  0  0  0  0  0
  -23.1520  -27.8590   17.0220 H   0  0  0  0  0  0  0  0  0  0  0  0
  -24.4130  -29.5250   16.4390 C   0  0  0  0  0  2  0  0  0  0  0  0
  -25.7050  -28.6900   16.1560 C   0  0  0  0  0  2  0  0  0  0  0  0
  -26.3640  -28.2980   17.3600 O   0  0  0  0  0  0  0  0  0  0  0  0
  -27.8000  -28.2680   17.4210 C   0  0  0  0  0  2  0  0  0  0  0  0
  -28.3140  -26.9520   18.1310 C   0  0  0  0  0  2  0  0  0  0  0  0
  -28.3310  -26.9480   19.5970 O   0  0  0  0  0  0  0  0  0  0  0  0
  -24.6610  -31.9280   23.2200 C   0  0  0  0  0  0  0  0  0  0  0  0
  -27.1630  -27.4770   20.0550 C   0  0  0  0  0  0  0  0  0  0  0  0
  -23.4590  -30.6140   21.5600 C   0  0  0  0  0  3  0  0  0  0  0  0
  -24.8180  -28.9860   20.1820 C   0  0  0  0  0  0  0  0  0  0  0  0
  -25.9720  -30.8660   21.3660 C   0  0  0  0  0  2  0  0  0  0  0  0
  -25.9990  -29.4890   20.7380 C   0  0  0  0  0  0  0  0  0  0  0  0
  -27.1830  -28.7360   20.6860 C   0  0  0  0  0  3  0  0  0  0  0  0
  -25.9430  -26.9050   19.6460 C   0  0  0  0  0  3  0  0  0  0  0  0
  -24.7670  -27.6760   19.6770 C   0  0  0  0  0  3  0  0  0  0  0  0
  -23.6270  -29.8970   20.2010 C   0  0  0  0  0  2  0  0  0  0  0  0
  -24.7230  -31.1630   22.0980 N   0  0  0  0  0  0  0  0  0  0  0  0
  -23.5750  -32.2070   23.7560 O   0  0  0  0  0  0  0  0  0  0  0  0
  -22.8690  -29.6160   22.5370 C   0  0  0  0  0  0  0  0  0  0  0  0
  -21.5570  -29.5750   22.5280 N   0  0  0  0  0  0  0  0  0  0  0  0
  -23.5730  -28.8930   23.2520 O   0  0  0  0  0  0  0  0  0  0  0  0
  -21.0490  -30.1410   21.8590 H   0  0  0  0  0  0  0  0  0  0  0  0
  -17.8830  -27.8460   23.0420 C   0  0  0  0  0  0  0  0  0  0  0  0
  -20.9420  -28.3960   22.9850 C   0  0  0  0  0  2  0  0  0  0  0  0
  -21.3660  -26.9470   21.6000 C   0  0  0  0  0 15  0  0  0  0  0  0
  -19.7160  -25.8510   20.9570 C   0  0  0  0  0 15  0  0  0  0  0  0
  -17.9250  -26.3400   21.8690 C   0  0  0  0  0  1  0  0  0  0  0  0
  -19.1820  -28.7160   23.5240 C   0  0  0  0  0  0  0  0  0  0  0  0
  -18.9330  -30.0320   23.9690 C   0  0  0  0  0  3  0  0  0  0  0  0
  -17.6350  -30.5650   24.0450 C   0  0  0  0  0  3  0  0  0  0  0  0
  -16.5140  -29.7940   23.6920 C   0  0  0  0  0  3  0  0  0  0  0  0
  -16.6390  -28.4800   23.1980 C   0  0  0  0  0  3  0  0  0  0  0  0
  -25.9420  -32.5080   23.8620 C   0  0  0  0  0  3  0  0  0  0  0  0
  -26.4550  -31.6610   25.0880 C   0  0  1  0  0  0  0  0  0  0  0  0
  -25.3470  -31.3750   26.1320 C   0  0  0  0  0  1  0  0  0  0  0  0
  -27.0260  -30.3070   24.6120 C   0  0  0  0  0  1  0  0  0  0  0  0
  -27.6190  -32.4080   25.7770 C   0  0  0  0  0  1  0  0  0  0  0  0
  -25.6250  -33.8870   24.2670 N   0  0  0  0  0  0  0  0  0  0  0  0
  -25.8990  -34.9680   23.5200 C   0  0  0  0  0  0  0  0  0  0  0  0
  -26.5400  -34.9010   22.4710 O   0  0  0  0  0  0  0  0  0  0  0  0
  -25.0280  -33.9990   25.0790 H   0  0  0  0  0  0  0  0  0  0  0  0
  -24.1390  -36.7550   23.2550 C   0  0  0  0  0  1  0  0  0  0  0  0
  -25.3980  -36.3300   24.0280 C   0  0  0  0  0  3  0  0  0  0  0  0
  -27.5560  -37.2040   24.8250 C   0  0  0  0  0  1  0  0  0  0  0  0
  -26.4200  -37.3970   23.9260 N   0  0  0  0  0  0  0  0  0  0  0  0
  -26.0110  -38.3140   24.0990 H   0  0  0  0  0  0  0  0  0  0  0  0
  1  3  2  0
  1  5  1  0
  2  1  1  0
  4  2  1  0
  6  7  1  0
  8  7  1  0
  9 10  1  0
  9  8  1  0
 11 12  1  0
 11 10  1  0
 13 12  2  0
 14 13  1  0
 15 14  2  0
 16 24  1  0
 17 22  1  0
 18 19  1  0
 18 17  1  0
 20 19  1  0
 20 29  1  0
 20 21  1  0
 22 16  1  0
 22 21  1  0
 23 16  2  0
 24 15  1  0
 24 25  1  0
 26 27  2  0
 27 46  1  0
 28 27  1  0
 28 31  1  0
 29 26  1  0
 29 30  1  0
 30 28  2  0
 31 32  1  0
 32 33  2  0
 34 37  1  0
 34 33  1  0
 35 34  2  0
 36 35  1  0
 36 31  2  0
 37 38  1  0
 38 39  1  0
 39 40  2  0
 41 40  1  0
 41 45  1  0
 42 41  2  0
 43 38  2  0
 43 42  1  0
 44 43  1  0
 46 47  1  0
 47 50  1  0
 47 49  1  0
 48 46  2  0
 51 26  1  0
 52 51  1  0
 53 51  1  0
 54  2  1  0
 55 54  1  0
 56 58  1  0
 56 55  1  0
 57 55  2  0
 59 56  1  0
 60 59  1  0
 60 61  1  0
 61 62  1  0
 62 63  1  0
 63 64  1  0
 64 66  1  0
 65 76  2  0
 66 71  1  0
 67 75  1  0
 67 77  1  0
 68 74  1  0
 68 70  1  0
 69 75  1  0
 70 69  1  0
 71 70  2  0
 72 73  1  0
 72 66  2  0
 73 68  2  0
 74 67  1  0
 75 65  1  0
 77 79  2  0
 78 77  1  0
 78 82  1  0
 80 78  1  0
 81 90  2  0
 81 86  1  0
 82 86  1  0
 85 81  1  0
 86 87  2  0
 87 88  1  0
 89 88  2  0
 90 89  1  0
 91 65  1  0
 91 96  1  0
 91 92  1  0
 92 95  1  1
 92 93  1  0
 94 92  1  0
 96 99  1  0
 97101  1  0
 97 96  1  0
 98 97  2  0
101100  1  0
103101  1  0
103104  1  0
103102  1  0
M  ISO  4  16 100  24 100  63 101  64 101
M  END
>  <TORSDO>  (49) 
F 34

>  <SCORE>  (49) 
33.452

>  <name>  (49) 
50

>  <ligand_id>  (49) 
50

>  <original_smiles>  (49) 
[H]c1c([H])c([H])c2c(c1[H])C([H])([H])C([H])([H])C([H])([H])C2([H])N([H])C(=O)C1([H])N(C(=O)C([H])(N([H])C(=O)C([H])(N([H])C([H])([H])[H])C([H])([H])[H])C(C([H])([H])[H])(C([H])([H])[H])C([H])([H])[H])C([H])([H])c2c([H])c(OC([H])([H])C([H])([H])OC([H])([H])C([H])([H])N([H])C(=O)C([H])([H])N([H])C(=O)C([H])([H])OC([H])([H])C([H])([H])C([H])([H])OC([H])([H])C([H])([H])C([H])([H])C([H])([H])C([H])([H])N([H])C(=O)N3C([H])([H])C([H])([H])C([H])([H])C([H])(n4nc(-c5c([H])c([H])c(Oc6c([H])c([H])c(F)c([H])c6F)c([H])c5[H])c(C(=O)N([H])[H])c4N([H])[H])C3([H])[H])c([H])c([H])c2C1([H])[H]

>  <smiles>  (49) 
[H]c1c([H])c([H])c2c(c1[H])C([H])([H])C([H])([H])C([H])([H])C2([H])N([H])C(=O)C1([H])N(C(=O)C([H])(N([H])C(=O)C([H])(N([H])C([H])([H])[H])C([H])([H])[H])C(C([H])([H])[H])(C([H])([H])[H])C([H])([H])[H])C([H])([H])c2c([H])c(OC([H])([H])C([H])([H])OC([H])([H])C([H])([H])N([H])C(=O)C([H])([H])N([H])C(=O)C([H])([H])OC([H])([H])C([H])([H])C([H])([H])OC([H])([H])C([H])([H])C([H])([H])C([H])([H])C([H])([H])N([H])C(=O)N3C([H])([H])C([H])([H])C([H])([H])C([H])(n4nc(-c5c([H])c([H])c(Oc6c([H])c([H])c(F)c([H])c6F)c([H])c5[H])c(C(=O)N([H])[H])c4N([H])[H])C3([H])[H])c([H])c([H])c2C1([H])[H]

$$$$
51:0:0
     RDKit          3D

109116  0  0  1  0  0  0  0  0999 V2000
  -34.1270  -18.7610   17.3350 C   0  0  0  0  0  0  0  0  0  0  0  0
  -34.8510  -19.8750   17.1840 N   0  0  0  0  0  0  0  0  0  0  0  0
  -33.2560  -18.6340   18.1950 O   0  0  0  0  0  0  0  0  0  0  0  0
  -35.5030  -19.9220   16.4120 H   0  0  0  0  0  0  0  0  0  0  0  0
  -34.4120  -17.5990   16.3850 C   0  0  0  0  0  2  0  0  0  0  0  0
  -34.1520  -16.3030   17.0480 N   0  0  0  0  0  4  0  0  0  0  0  0
  -33.9100  -15.6230   16.3440 H   0  0  0  0  0  0  0  0  0  0  0  0
  -33.3400  -16.4590   17.6300 H   0  0  0  0  0  0  0  0  0  0  0  0
  -35.2850  -15.7960   17.8660 C   0  0  0  0  0  2  0  0  0  0  0  0
  -34.9140  -14.5760   18.7320 C   0  0  0  0  0  2  0  0  0  0  0  0
  -36.0470  -14.1240   19.4740 O   0  0  0  0  0  0  0  0  0  0  0  0
  -36.0260  -14.3940   20.8770 C   0  0  0  0  0  2  0  0  0  0  0  0
  -36.4820  -15.8330   21.2120 C   0  0  0  0  0  2  0  0  0  0  0  0
  -35.4800  -16.7920   20.8730 O   0  0  0  0  0  0  0  0  0  0  0  0
  -34.6020  -17.1690   21.9300 C   0  0  0  0  0  2  0  0  0  0  0  0
  -33.3860  -17.8990   21.3150 C   0  0  0  0  0  2  0  0  0  0  0  0
  -32.3200  -18.1120   22.2450 O   0  0  0  0  0  0  0  0  0  0  0  0
  -31.1310  -17.3740   21.9630 C   0  0  0  0  0  2  0  0  0  0  0  0
  -31.2690  -15.9480   22.5240 C   0  0  0  0  0  2  0  0  0  0  0  0
  -30.7520  -14.3380   20.7240 C   0  0  0  0  0  0  0  0  0  0  0  0
  -30.4200  -12.3070   19.3740 C   0  0  0  0  0  2  0  0  0  0  0  0
  -29.4770  -12.5510   18.1810 C   0  0  0  0  0  2  0  0  0  0  0  0
  -28.0050  -12.3800   18.6040 C   0  0  0  0  0  2  0  0  0  0  0  0
  -27.6610  -13.1980   19.8770 C   0  0  0  0  0  3  0  0  0  0  0  0
  -28.6930  -12.9210   20.9890 C   0  0  0  0  0  2  0  0  0  0  0  0
  -30.0370  -13.2220   20.4600 N   0  0  0  0  0  0  0  0  0  0  0  0
  -31.7260  -14.6940   20.0510 O   0  0  0  0  0  0  0  0  0  0  0  0
  -30.4210  -14.9670   21.8570 N   0  0  0  0  0  0  0  0  0  0  0  0
  -29.6390  -14.5980   22.3790 H   0  0  0  0  0  0  0  0  0  0  0  0
  -25.2560  -13.8120   20.5660 C   0  0  0  0  0  0  0  0  0  0  0  0
  -24.1790  -13.0430   20.9130 C   0  0  0  0  0  0  0  0  0  0  0  0
  -24.6310  -11.6880   20.8670 C   0  0  0  0  0  0  0  0  0  0  0  0
  -26.2990  -12.9290   20.3340 N   0  0  0  0  0  0  0  0  0  0  0  0
  -25.9250  -11.6450   20.5720 N   0  0  0  0  0  0  0  0  0  0  0  0
  -23.8970  -10.4270   21.0310 C   0  0  0  0  0  0  0  0  0  0  0  0
  -24.3530   -9.4220   21.9120 C   0  0  0  0  0  3  0  0  0  0  0  0
  -23.6220   -8.2250   22.0740 C   0  0  0  0  0  3  0  0  0  0  0  0
  -22.4230   -8.0240   21.3530 C   0  0  0  0  0  0  0  0  0  0  0  0
  -21.9820   -9.0180   20.4620 C   0  0  0  0  0  3  0  0  0  0  0  0
  -22.7120  -10.2070   20.2980 C   0  0  0  0  0  3  0  0  0  0  0  0
  -21.6630   -6.8820   21.4220 O   0  0  0  0  0  0  0  0  0  0  0  0
  -21.6860   -6.0690   22.5260 C   0  0  0  0  0  0  0  0  0  0  0  0
  -21.4020   -6.5600   23.8190 C   0  0  0  0  0  3  0  0  0  0  0  0
  -21.3650   -5.6770   24.9160 C   0  0  0  0  0  3  0  0  0  0  0  0
  -21.6040   -4.3030   24.7230 C   0  0  0  0  0  0  0  0  0  0  0  0
  -21.8820   -3.8110   23.4350 C   0  0  0  0  0  3  0  0  0  0  0  0
  -21.9200   -4.6920   22.3400 C   0  0  0  0  0  0  0  0  0  0  0  0
  -22.1660   -4.2100   21.0970 F   0  0  0  0  0  0  0  0  0  0  0  0
  -21.5610   -3.4520   25.7740 F   0  0  0  0  0  0  0  0  0  0  0  0
  -22.7790  -13.5230   21.1780 C   0  0  0  0  0  0  0  0  0  0  0  0
  -22.0430  -12.8230   22.0320 N   0  0  0  0  0  0  0  0  0  0  0  0
  -22.3460  -14.5530   20.6600 O   0  0  0  0  0  0  0  0  0  0  0  0
  -22.4020  -11.9880   22.4710 H   0  0  0  0  0  0  0  0  0  0  0  0
  -21.0990  -13.1150   22.2470 H   0  0  0  0  0  0  0  0  0  0  0  0
  -25.4340  -15.1830   20.4040 N   0  0  0  0  0  0  0  0  0  0  0  0
  -24.6820  -15.8530   20.5260 H   0  0  0  0  0  0  0  0  0  0  0  0
  -26.2980  -15.6090   20.0900 H   0  0  0  0  0  0  0  0  0  0  0  0
  -34.7950  -21.0600   18.0500 C   0  0  0  0  0  2  0  0  0  0  0  0
  -34.0430  -22.2420   17.4250 C   0  0  0  0  0  0  0  0  0  0  0  0
  -33.4690  -22.0390   16.2350 N   0  0  0  0  0  0  0  0  0  0  0  0
  -34.0190  -23.3300   18.0030 O   0  0  0  0  0  0  0  0  0  0  0  0
  -33.5660  -21.1080   15.8540 H   0  0  0  0  0  0  0  0  0  0  0  0
  -32.7210  -23.0100   15.4480 C   0  0  0  0  0  2  0  0  0  0  0  0
  -31.2730  -23.1380   15.9380 C   0  0  0  0  0  2  0  0  0  0  0  0
  -31.2370  -24.0190   17.0550 O   0  0  0  0  0  0  0  0  0  0  0  0
  -29.9180  -24.2710   17.5050 C   0  0  0  0  0  2  0  0  0  0  0  0
  -29.9360  -25.2850   18.6600 C   0  0  0  0  0  2  0  0  0  0  0  0
  -28.5050  -25.7010   19.0230 C   0  0  0  0  0  2  0  0  0  0  0  0
  -28.4380  -26.7630   19.9820 O   0  0  0  0  0  0  0  0  0  0  0  0
  -24.6130  -31.8680   23.2120 C   0  0  0  0  0  0  0  0  0  0  0  0
  -27.2400  -27.4500   20.0580 C   0  0  0  0  0  0  0  0  0  0  0  0
  -23.4000  -30.4910   21.5560 C   0  0  0  0  0  3  0  0  0  0  0  0
  -24.8440  -28.9570   20.1260 C   0  0  0  0  0  0  0  0  0  0  0  0
  -25.9300  -30.8320   21.3670 C   0  0  0  0  0  2  0  0  0  0  0  0
  -26.0070  -29.4650   20.7190 C   0  0  0  0  0  0  0  0  0  0  0  0
  -27.2040  -28.7130   20.6950 C   0  0  0  0  0  3  0  0  0  0  0  0
  -26.0410  -26.9430   19.4990 C   0  0  0  0  0  3  0  0  0  0  0  0
  -24.8540  -27.6900   19.5250 C   0  0  0  0  0  3  0  0  0  0  0  0
  -23.6070  -29.8200   20.1730 C   0  0  0  0  0  2  0  0  0  0  0  0
  -24.6670  -31.0770   22.1040 N   0  0  0  0  0  0  0  0  0  0  0  0
  -23.5330  -32.1450   23.7520 O   0  0  0  0  0  0  0  0  0  0  0  0
  -22.7390  -29.4660   22.5050 C   0  0  0  0  0  0  0  0  0  0  0  0
  -21.4120  -29.3020   22.3770 N   0  0  0  0  0  0  0  0  0  0  0  0
  -23.4170  -28.8210   23.3090 O   0  0  0  0  0  0  0  0  0  0  0  0
  -20.9290  -29.8710   21.6970 H   0  0  0  0  0  0  0  0  0  0  0  0
  -18.0260  -28.1370   22.8510 C   0  0  0  0  0  0  0  0  0  0  0  0
  -20.5850  -28.3640   23.1340 C   0  0  0  0  0  3  0  0  0  0  0  0
  -20.6780  -26.9400   22.5410 C   0  0  0  0  0  2  0  0  0  0  0  0
  -19.5750  -26.6390   21.5200 C   0  0  0  0  0  2  0  0  0  0  0  0
  -18.1920  -26.7930   22.1610 C   0  0  0  0  0  2  0  0  0  0  0  0
  -19.1520  -28.8830   23.2920 C   0  0  0  0  0  0  0  0  0  0  0  0
  -18.9440  -30.1440   23.8920 C   0  0  0  0  0  3  0  0  0  0  0  0
  -17.6440  -30.6580   24.0560 C   0  0  0  0  0  3  0  0  0  0  0  0
  -16.5330  -29.9090   23.6340 C   0  0  0  0  0  3  0  0  0  0  0  0
  -16.7250  -28.6500   23.0360 C   0  0  0  0  0  3  0  0  0  0  0  0
  -25.9040  -32.4830   23.8390 C   0  0  0  0  0  3  0  0  0  0  0  0
  -26.4480  -31.6590   25.0710 C   0  0  1  0  0  0  0  0  0  0  0  0
  -25.3750  -31.3590   26.1430 C   0  0  0  0  0  1  0  0  0  0  0  0
  -27.0350  -30.3070   24.6030 C   0  0  0  0  0  1  0  0  0  0  0  0
  -27.6040  -32.4300   25.7500 C   0  0  0  0  0  1  0  0  0  0  0  0
  -25.5900  -33.8620   24.2350 N   0  0  0  0  0  0  0  0  0  0  0  0
  -25.9030  -34.9480   23.5150 C   0  0  0  0  0  0  0  0  0  0  0  0
  -26.5590  -34.8930   22.4700 O   0  0  0  0  0  0  0  0  0  0  0  0
  -25.0080  -33.9800   25.0510 H   0  0  0  0  0  0  0  0  0  0  0  0
  -24.1480  -36.7300   23.2640 C   0  0  0  0  0  1  0  0  0  0  0  0
  -25.4110  -36.3120   24.0350 C   0  0  0  0  0  3  0  0  0  0  0  0
  -27.5570  -37.1830   24.8470 C   0  0  0  0  0  1  0  0  0  0  0  0
  -26.4300  -37.3800   23.9390 N   0  0  0  0  0  0  0  0  0  0  0  0
  -26.0190  -38.2880   24.1380 H   0  0  0  0  0  0  0  0  0  0  0  0
  1  3  2  0
  2  1  1  0
  2 58  1  0
  4  2  1  0
  5  6  1  0
  5  1  1  0
  6  8  1  0
  6  9  1  0
  7  6  1  0
  9 10  1  0
 10 11  1  0
 11 12  1  0
 12 13  1  0
 14 13  1  0
 14 15  1  0
 16 15  1  0
 16 17  1  0
 18 17  1  0
 18 19  1  0
 20 28  1  0
 21 26  1  0
 22 23  1  0
 22 21  1  0
 24 23  1  0
 24 33  1  0
 24 25  1  0
 26 20  1  0
 26 25  1  0
 27 20  2  0
 28 29  1  0
 28 19  1  0
 30 31  2  0
 31 50  1  0
 32 31  1  0
 32 35  1  0
 33 30  1  0
 33 34  1  0
 34 32  2  0
 35 36  1  0
 36 37  2  0
 38 41  1  0
 38 37  1  0
 39 38  2  0
 40 39  1  0
 40 35  2  0
 41 42  1  0
 42 43  1  0
 43 44  2  0
 45 44  1  0
 45 49  1  0
 46 45  2  0
 47 42  2  0
 47 46  1  0
 48 47  1  0
 50 51  1  0
 51 54  1  0
 51 53  1  0
 52 50  2  0
 55 56  1  0
 55 30  1  0
 57 55  1  0
 59 61  2  0
 59 58  1  0
 60 59  1  0
 62 60  1  0
 63 64  1  0
 63 60  1  0
 64 65  1  0
 65 66  1  0
 66 67  1  0
 67 68  1  0
 68 69  1  0
 69 71  1  0
 70 81  2  0
 71 76  1  0
 72 80  1  0
 72 82  1  0
 73 79  1  0
 73 75  1  0
 74 80  1  0
 75 74  1  0
 76 75  2  0
 77 78  1  0
 77 71  2  0
 78 73  2  0
 79 72  1  0
 80 70  1  0
 82 84  2  0
 83 82  1  0
 85 83  1  0
 86 95  2  0
 86 91  1  0
 87 83  1  0
 87 91  1  0
 88 87  1  0
 89 90  1  0
 89 88  1  0
 90 86  1  0
 91 92  2  0
 92 93  1  0
 94 93  2  0
 95 94  1  0
 96 70  1  0
 96101  1  0
 96 97  1  0
 97100  1  1
 97 98  1  0
 99 97  1  0
101104  1  0
102106  1  0
102101  1  0
103102  2  0
106105  1  0
108106  1  0
108109  1  0
108107  1  0
M  ISO  4  20 100  28 100  68 101  69 101
M  END
>  <TORSDO>  (50) 
F 37

>  <SCORE>  (50) 
-2.151

>  <name>  (50) 
51

>  <ligand_id>  (50) 
51

>  <original_smiles>  (50) 
[H]c1c([H])c([H])c2c(c1[H])C([H])([H])C([H])([H])C([H])([H])C2([H])N([H])C(=O)C1([H])N(C(=O)C([H])(N([H])C(=O)C([H])(N([H])C([H])([H])[H])C([H])([H])[H])C(C([H])([H])[H])(C([H])([H])[H])C([H])([H])[H])C([H])([H])c2c([H])c(OC([H])([H])C([H])([H])C([H])([H])OC([H])([H])C([H])([H])N([H])C(=O)C([H])([H])N([H])C(=O)C([H])([H])[N+]([H])([H])C([H])([H])C([H])([H])OC([H])([H])C([H])([H])OC([H])([H])C([H])([H])OC([H])([H])C([H])([H])N([H])C(=O)N3C([H])([H])C([H])([H])C([H])([H])C([H])(n4nc(-c5c([H])c([H])c(Oc6c([H])c([H])c(F)c([H])c6F)c([H])c5[H])c(C(=O)N([H])[H])c4N([H])[H])C3([H])[H])c([H])c([H])c2C1([H])[H]

>  <smiles>  (50) 
[H]c1c([H])c([H])c2c(c1[H])C([H])([H])C([H])([H])C([H])([H])C2([H])N([H])C(=O)C1([H])N(C(=O)C([H])(N([H])C(=O)C([H])(N([H])C([H])([H])[H])C([H])([H])[H])C(C([H])([H])[H])(C([H])([H])[H])C([H])([H])[H])C([H])([H])c2c([H])c(OC([H])([H])C([H])([H])C([H])([H])OC([H])([H])C([H])([H])N([H])C(=O)C([H])([H])N([H])C(=O)C([H])([H])[N+]([H])([H])C([H])([H])C([H])([H])OC([H])([H])C([H])([H])OC([H])([H])C([H])([H])OC([H])([H])C([H])([H])N([H])C(=O)N3C([H])([H])C([H])([H])C([H])([H])C([H])(n4nc(-c5c([H])c([H])c(Oc6c([H])c([H])c(F)c([H])c6F)c([H])c5[H])c(C(=O)N([H])[H])c4N([H])[H])C3([H])[H])c([H])c([H])c2C1([H])[H]

$$$$
52:0:0
     RDKit          3D

117124  0  0  1  0  0  0  0  0999 V2000
  -23.7830  -29.0200   25.4420 C   0  0  0  0  0  2  0  0  0  0  0  0
  -24.8310  -29.7630   26.3280 C   0  0  0  0  0  0  0  0  0  0  0  0
  -25.7480  -30.5550   25.7120 N   0  0  0  0  0  0  0  0  0  0  0  0
  -24.7970  -29.6110   27.5500 O   0  0  0  0  0  0  0  0  0  0  0  0
  -25.7350  -30.5530   24.6890 H   0  0  0  0  0  0  0  0  0  0  0  0
  -26.9220  -31.3510   26.1850 C   0  0  0  0  0  2  0  0  0  0  0  0
  -27.4840  -31.1330   27.6650 C   0  0  0  0  0  2  0  0  0  0  0  0
  -28.9100  -31.0450   27.9580 O   0  0  0  0  0  0  0  0  0  0  0  0
  -29.5710  -29.8590   28.5240 C   0  0  0  0  0  2  0  0  0  0  0  0
  -29.0940  -29.2820   29.9520 C   0  0  0  0  0  2  0  0  0  0  0  0
  -28.9660  -30.1370   31.1430 O   0  0  0  0  0  0  0  0  0  0  0  0
  -28.2000  -29.5800   32.2770 C   0  0  0  0  0  2  0  0  0  0  0  0
  -27.9660  -30.4890   33.5700 C   0  0  0  0  0  0  0  0  0  0  0  0
  -26.8660  -31.2880   33.6910 N   0  0  0  0  0  0  0  0  0  0  0  0
  -28.7400  -30.3890   34.5200 O   0  0  0  0  0  0  0  0  0  0  0  0
  -26.3580  -31.4320   32.8270 H   0  0  0  0  0  0  0  0  0  0  0  0
  -26.1860  -31.9040   34.8880 C   0  0  0  0  0  2  0  0  0  0  0  0
  -26.4750  -33.4070   35.4080 C   0  0  0  0  0  2  0  0  0  0  0  0
  -25.7220  -34.5910   34.9020 O   0  0  0  0  0  0  0  0  0  0  0  0
  -31.2990  -37.6620   32.0020 C   0  0  0  0  0  0  0  0  0  0  0  0
  -26.3130  -34.9540   33.7500 C   0  0  0  0  0  0  0  0  0  0  0  0
  -30.2610  -35.7490   30.7450 C   0  0  0  0  0  3  0  0  0  0  0  0
  -28.3050  -34.6730   31.8620 C   0  0  0  0  0  0  0  0  0  0  0  0
  -29.8210  -36.1890   33.2190 C   0  0  0  0  0  2  0  0  0  0  0  0
  -28.4870  -35.5500   32.9490 C   0  0  0  0  0  0  0  0  0  0  0  0
  -27.4620  -35.7440   33.8680 C   0  0  0  0  0  3  0  0  0  0  0  0
  -26.0700  -34.1590   32.6210 C   0  0  0  0  0  3  0  0  0  0  0  0
  -27.0890  -34.0030   31.6670 C   0  0  0  0  0  3  0  0  0  0  0  0
  -29.4750  -34.4470   30.9670 C   0  0  0  0  0  2  0  0  0  0  0  0
  -30.5020  -36.5700   31.9890 N   0  0  0  0  0  0  0  0  0  0  0  0
  -31.8870  -38.0020   30.9930 O   0  0  0  0  0  0  0  0  0  0  0  0
  -29.5860  -36.5010   29.6020 C   0  0  0  0  0  0  0  0  0  0  0  0
  -30.0240  -36.1970   28.3710 N   0  0  0  0  0  0  0  0  0  0  0  0
  -28.6610  -37.2770   29.8310 O   0  0  0  0  0  0  0  0  0  0  0  0
  -30.7730  -35.5220   28.3030 H   0  0  0  0  0  0  0  0  0  0  0  0
  -30.4040  -36.2380   24.7500 C   0  0  0  0  0  0  0  0  0  0  0  0
  -29.4660  -36.6820   27.1150 C   0  0  0  0  0  3  0  0  0  0  0  0
  -28.2570  -35.8250   26.6950 C   0  0  0  0  0  2  0  0  0  0  0  0
  -28.6220  -34.7110   25.7110 C   0  0  0  0  0  2  0  0  0  0  0  0
  -29.2430  -35.3040   24.4390 C   0  0  0  0  0  2  0  0  0  0  0  0
  -30.5360  -36.8300   26.0310 C   0  0  0  0  0  0  0  0  0  0  0  0
  -31.7080  -37.5500   26.3180 C   0  0  0  0  0  3  0  0  0  0  0  0
  -32.6960  -37.7700   25.3550 C   0  0  0  0  0  3  0  0  0  0  0  0
  -32.5180  -37.2530   24.0660 C   0  0  0  0  0  3  0  0  0  0  0  0
  -31.3850  -36.4790   23.7650 C   0  0  0  0  0  3  0  0  0  0  0  0
  -31.5210  -38.5760   33.2400 C   0  0  0  0  0  3  0  0  0  0  0  0
  -32.9500  -38.9400   33.2760 N   0  0  0  0  0  0  0  0  0  0  0  0
  -33.8540  -38.4030   34.1090 C   0  0  0  0  0  0  0  0  0  0  0  0
  -33.5480  -37.5900   34.9860 O   0  0  0  0  0  0  0  0  0  0  0  0
  -33.2830  -39.5440   32.5380 H   0  0  0  0  0  0  0  0  0  0  0  0
  -36.1320  -37.7440   33.2120 C   0  0  0  0  0  1  0  0  0  0  0  0
  -35.3310  -38.8310   33.9530 C   0  0  0  0  0  3  0  0  0  0  0  0
  -35.5050  -40.3830   35.8520 C   0  0  0  0  0  1  0  0  0  0  0  0
  -35.9830  -39.1440   35.2440 N   0  0  0  0  0  0  0  0  0  0  0  0
  -36.9900  -39.2240   35.1240 H   0  0  0  0  0  0  0  0  0  0  0  0
  -30.6150  -39.8650   33.1850 C   0  0  1  0  0  0  0  0  0  0  0  0
  -30.9550  -40.8360   32.0310 C   0  0  0  0  0  1  0  0  0  0  0  0
  -29.1170  -39.5050   33.0160 C   0  0  0  0  0  1  0  0  0  0  0  0
  -30.7310  -40.6200   34.5300 C   0  0  0  0  0  1  0  0  0  0  0  0
  -25.4490  -27.1750   24.9490 C   0  0  0  0  0  0  0  0  0  0  0  0
  -24.2110  -27.7100   24.8920 N   0  0  0  0  0  0  0  0  0  0  0  0
  -26.3840  -27.7570   25.4980 O   0  0  0  0  0  0  0  0  0  0  0  0
  -23.4780  -27.1620   24.4650 H   0  0  0  0  0  0  0  0  0  0  0  0
  -25.7030  -25.7940   24.2940 C   0  0  0  0  0  2  0  0  0  0  0  0
  -24.6970  -26.2080   22.0100 C   0  0  0  0  0  0  0  0  0  0  0  0
  -24.8500  -25.4760   23.1270 N   0  0  0  0  0  0  0  0  0  0  0  0
  -25.2230  -27.3160   21.8880 O   0  0  0  0  0  0  0  0  0  0  0  0
  -24.3700  -24.5900   23.1660 H   0  0  0  0  0  0  0  0  0  0  0  0
  -23.8680  -25.6090   20.8490 C   0  0  0  0  0  2  0  0  0  0  0  0
  -22.5240  -26.1120   20.8840 O   0  0  0  0  0  0  0  0  0  0  0  0
  -21.7600  -25.9090   19.6920 C   0  0  0  0  0  2  0  0  0  0  0  0
  -22.5890  -25.5580   18.4320 C   0  0  0  0  0  2  0  0  0  0  0  0
  -22.8810  -24.0450   18.3520 C   0  0  0  0  0  2  0  0  0  0  0  0
  -24.2220  -23.7840   17.9330 O   0  0  0  0  0  0  0  0  0  0  0  0
  -24.8120  -22.6780   18.6260 C   0  0  0  0  0  2  0  0  0  0  0  0
  -26.1990  -23.0510   19.1880 C   0  0  0  0  0  2  0  0  0  0  0  0
  -26.9770  -21.8730   19.3670 O   0  0  0  0  0  0  0  0  0  0  0  0
  -28.2180  -22.1870   19.9680 C   0  0  0  0  0  2  0  0  0  0  0  0
  -29.3320  -21.2280   19.5220 C   0  0  0  0  0  2  0  0  0  0  0  0
  -31.6310  -22.3140   20.0030 C   0  0  0  0  0  0  0  0  0  0  0  0
  -32.8390  -24.1860   18.9770 C   0  0  0  0  0  2  0  0  0  0  0  0
  -32.6770  -25.4770   19.8090 C   0  0  0  0  0  2  0  0  0  0  0  0
  -31.4390  -26.2590   19.3330 C   0  0  0  0  0  2  0  0  0  0  0  0
  -30.1770  -25.3550   19.2670 C   0  0  0  0  0  3  0  0  0  0  0  0
  -30.4780  -24.0590   18.4920 C   0  0  0  0  0  2  0  0  0  0  0  0
  -31.6170  -23.3720   19.1310 N   0  0  0  0  0  0  0  0  0  0  0  0
  -32.6280  -21.9980   20.6470 O   0  0  0  0  0  0  0  0  0  0  0  0
  -30.5550  -21.5540   20.2420 N   0  0  0  0  0  0  0  0  0  0  0  0
  -30.7340  -20.9060   20.9990 H   0  0  0  0  0  0  0  0  0  0  0  0
  -27.9910  -26.7180   19.3170 C   0  0  0  0  0  0  0  0  0  0  0  0
  -27.2410  -27.2830   18.3120 C   0  0  0  0  0  0  0  0  0  0  0  0
  -27.9060  -26.9440   17.0990 C   0  0  0  0  0  0  0  0  0  0  0  0
  -29.0430  -26.0710   18.6830 N   0  0  0  0  0  0  0  0  0  0  0  0
  -28.9520  -26.1650   17.3340 N   0  0  0  0  0  0  0  0  0  0  0  0
  -27.6360  -27.3630   15.7160 C   0  0  0  0  0  0  0  0  0  0  0  0
  -27.1360  -26.4600   14.7550 C   0  0  0  0  0  3  0  0  0  0  0  0
  -26.8470  -26.8960   13.4420 C   0  0  0  0  0  3  0  0  0  0  0  0
  -27.0770  -28.2470   13.0820 C   0  0  0  0  0  0  0  0  0  0  0  0
  -27.6180  -29.1280   14.0340 C   0  0  0  0  0  3  0  0  0  0  0  0
  -27.9000  -28.6940   15.3400 C   0  0  0  0  0  3  0  0  0  0  0  0
  -26.8750  -28.7560   11.8210 O   0  0  0  0  0  0  0  0  0  0  0  0
  -25.8560  -28.3200   11.0220 C   0  0  0  0  0  0  0  0  0  0  0  0
  -24.4980  -28.5090   11.3760 C   0  0  0  0  0  3  0  0  0  0  0  0
  -23.4790  -28.1210   10.4830 C   0  0  0  0  0  3  0  0  0  0  0  0
  -23.8100  -27.5250    9.2510 C   0  0  0  0  0  0  0  0  0  0  0  0
  -25.1590  -27.3270    8.9060 C   0  0  0  0  0  3  0  0  0  0  0  0
  -26.1750  -27.7390    9.7770 C   0  0  0  0  0  0  0  0  0  0  0  0
  -27.4720  -27.5770    9.4190 F   0  0  0  0  0  0  0  0  0  0  0  0
  -22.8250  -27.1390    8.4070 F   0  0  0  0  0  0  0  0  0  0  0  0
  -26.0280  -28.1530   18.4790 C   0  0  0  0  0  0  0  0  0  0  0  0
  -25.0550  -28.0110   17.5760 N   0  0  0  0  0  0  0  0  0  0  0  0
  -25.9100  -28.9110   19.4390 O   0  0  0  0  0  0  0  0  0  0  0  0
  -25.1550  -27.3510   16.8180 H   0  0  0  0  0  0  0  0  0  0  0  0
  -24.2030  -28.5510   17.6520 H   0  0  0  0  0  0  0  0  0  0  0  0
  -27.8730  -26.7210   20.7000 N   0  0  0  0  0  0  0  0  0  0  0  0
  -27.2320  -27.3250   21.2030 H   0  0  0  0  0  0  0  0  0  0  0  0
  -28.5830  -26.3100   21.2970 H   0  0  0  0  0  0  0  0  0  0  0  0
  1  2  1  0
  2  4  2  0
  3  6  1  0
  3  2  1  0
  5  3  1  0
  6  7  1  0
  7  8  1  0
  8  9  1  0
  9 10  1  0
 10 11  1  0
 11 12  1  0
 12 13  1  0
 13 14  1  0
 13 15  2  0
 14 17  1  0
 16 14  1  0
 17 18  1  0
 19 18  1  0
 21 26  1  0
 21 19  1  0
 22 32  1  0
 22 29  1  0
 22 30  1  0
 23 25  1  0
 25 24  1  0
 25 26  2  0
 27 21  2  0
 28 23  2  0
 28 27  1  0
 29 23  1  0
 30 20  1  0
 30 24  1  0
 31 20  2  0
 32 34  2  0
 33 32  1  0
 35 33  1  0
 36 41  1  0
 37 33  1  0
 38 37  1  0
 39 38  1  0
 40 36  1  0
 40 39  1  0
 41 42  2  0
 41 37  1  0
 43 42  1  0
 44 43  2  0
 45 44  1  0
 45 36  2  0
 46 20  1  0
 46 47  1  0
 47 48  1  0
 48 49  2  0
 50 47  1  0
 52 51  1  0
 52 48  1  0
 52 54  1  0
 54 53  1  0
 55 54  1  0
 56 46  1  0
 56 59  1  1
 57 56  1  0
 58 56  1  0
 60 62  2  0
 61 60  1  0
 61  1  1  0
 63 61  1  0
 64 60  1  0
 65 66  1  0
 66 68  1  0
 66 64  1  0
 67 65  2  0
 69 70  1  0
 69 65  1  0
 71 70  1  0
 72 71  1  0
 73 72  1  0
 74 73  1  0
 74 75  1  0
 75 76  1  0
 76 77  1  0
 77 78  1  0
 79 78  1  0
 79 88  1  0
 80 88  1  0
 80 87  2  0
 81 86  1  0
 81 82  1  0
 83 82  1  0
 84 85  1  0
 84 83  1  0
 85 86  1  0
 86 80  1  0
 88 89  1  0
 90115  1  0
 91110  1  0
 91 90  2  0
 92 94  2  0
 92 91  1  0
 93 84  1  0
 93 90  1  0
 94 93  1  0
 95 92  1  0
 96 95  2  0
 97 96  1  0
 98 97  2  0
 98 99  1  0
 99100  2  0
100 95  1  0
101 98  1  0
102103  1  0
102101  1  0
104103  2  0
105104  1  0
106105  2  0
106107  1  0
107102  2  0
108107  1  0
109105  1  0
110112  2  0
111114  1  0
111110  1  0
113111  1  0
115116  1  0
115117  1  0
M  ISO  4  18 101  19 101  80 100  88 100
M  END
>  <TORSDO>  (51) 
F 41

>  <SCORE>  (51) 
-4.702

>  <name>  (51) 
52

>  <ligand_id>  (51) 
52

>  <original_smiles>  (51) 
[H]c1c([H])c([H])c2c(c1[H])C([H])([H])C([H])([H])C([H])([H])C2([H])N([H])C(=O)C1([H])N(C(=O)C([H])(N([H])C(=O)C([H])(N([H])C([H])([H])[H])C([H])([H])[H])C(C([H])([H])[H])(C([H])([H])[H])C([H])([H])[H])C([H])([H])c2c([H])c(OC([H])([H])C([H])([H])N([H])C(=O)C([H])([H])OC([H])([H])C([H])([H])OC([H])([H])C([H])([H])N([H])C(=O)C([H])([H])N([H])C(=O)C([H])([H])N([H])C(=O)C([H])([H])OC([H])([H])C([H])([H])C([H])([H])OC([H])([H])C([H])([H])OC([H])([H])C([H])([H])N([H])C(=O)N3C([H])([H])C([H])([H])C([H])([H])C([H])(n4nc(-c5c([H])c([H])c(Oc6c([H])c([H])c(F)c([H])c6F)c([H])c5[H])c(C(=O)N([H])[H])c4N([H])[H])C3([H])[H])c([H])c([H])c2C1([H])[H]

>  <smiles>  (51) 
[H]c1c([H])c([H])c2c(c1[H])C([H])([H])C([H])([H])C([H])([H])C2([H])N([H])C(=O)C1([H])N(C(=O)C([H])(N([H])C(=O)C([H])(N([H])C([H])([H])[H])C([H])([H])[H])C(C([H])([H])[H])(C([H])([H])[H])C([H])([H])[H])C([H])([H])c2c([H])c(OC([H])([H])C([H])([H])N([H])C(=O)C([H])([H])OC([H])([H])C([H])([H])OC([H])([H])C([H])([H])N([H])C(=O)C([H])([H])N([H])C(=O)C([H])([H])N([H])C(=O)C([H])([H])OC([H])([H])C([H])([H])C([H])([H])OC([H])([H])C([H])([H])OC([H])([H])C([H])([H])N([H])C(=O)N3C([H])([H])C([H])([H])C([H])([H])C([H])(n4nc(-c5c([H])c([H])c(Oc6c([H])c([H])c(F)c([H])c6F)c([H])c5[H])c(C(=O)N([H])[H])c4N([H])[H])C3([H])[H])c([H])c([H])c2C1([H])[H]

$$$$
53:0:0
     RDKit          3D

115122  0  0  1  0  0  0  0  0999 V2000
  -33.2410  -15.2790   24.2250 C   0  0  0  0  0  2  0  0  0  0  0  0
  -31.7430  -15.5510   24.0430 C   0  0  0  0  0  0  0  0  0  0  0  0
  -31.2960  -16.7610   24.4090 N   0  0  0  0  0  0  0  0  0  0  0  0
  -31.0070  -14.6920   23.5540 O   0  0  0  0  0  0  0  0  0  0  0  0
  -31.9650  -17.3810   24.8470 H   0  0  0  0  0  0  0  0  0  0  0  0
  -30.0320  -17.3590   23.9820 C   0  0  0  0  0  2  0  0  0  0  0  0
  -28.7750  -16.8160   24.6890 C   0  0  0  0  0  2  0  0  0  0  0  0
  -27.5140  -16.8520   23.7950 C   0  0  0  0  0  2  0  0  0  0  0  0
  -26.7960  -18.2140   23.6150 C   0  0  0  0  0  2  0  0  0  0  0  0
  -27.4370  -19.2760   22.6830 C   0  0  0  0  0  2  0  0  0  0  0  0
  -26.5670  -20.5580   22.6500 C   0  0  0  0  0  2  0  0  0  0  0  0
  -27.0810  -21.7500   21.8060 C   0  0  0  0  0  2  0  0  0  0  0  0
  -27.0130  -21.5320   20.2780 C   0  0  0  0  0  2  0  0  0  0  0  0
  -27.0600  -22.8270   19.4310 C   0  0  0  0  0  2  0  0  0  0  0  0
  -28.4160  -23.5640   19.3580 C   0  0  0  0  0  2  0  0  0  0  0  0
  -28.3870  -24.7950   18.4150 C   0  0  0  0  0  2  0  0  0  0  0  0
  -28.9530  -26.1370   18.9520 C   0  0  0  0  0  2  0  0  0  0  0  0
  -28.3910  -26.6880   20.1480 O   0  0  0  0  0  0  0  0  0  0  0  0
  -24.6140  -31.8680   23.2070 C   0  0  0  0  0  0  0  0  0  0  0  0
  -27.2400  -27.4460   20.0790 C   0  0  0  0  0  0  0  0  0  0  0  0
  -23.4030  -30.4950   21.5440 C   0  0  0  0  0  3  0  0  0  0  0  0
  -24.8510  -28.9630   20.1070 C   0  0  0  0  0  0  0  0  0  0  0  0
  -25.9260  -30.8410   21.3510 C   0  0  0  0  0  2  0  0  0  0  0  0
  -26.0100  -29.4730   20.7040 C   0  0  0  0  0  0  0  0  0  0  0  0
  -27.2050  -28.7180   20.6960 C   0  0  0  0  0  3  0  0  0  0  0  0
  -26.0560  -26.9430   19.4970 C   0  0  0  0  0  3  0  0  0  0  0  0
  -24.8680  -27.6950   19.5050 C   0  0  0  0  0  3  0  0  0  0  0  0
  -23.6130  -29.8290   20.1580 C   0  0  0  0  0  2  0  0  0  0  0  0
  -24.6660  -31.0820   22.0950 N   0  0  0  0  0  0  0  0  0  0  0  0
  -23.5330  -32.1430   23.7480 O   0  0  0  0  0  0  0  0  0  0  0  0
  -22.7400  -29.4670   22.4920 C   0  0  0  0  0  0  0  0  0  0  0  0
  -21.4120  -29.3030   22.3660 N   0  0  0  0  0  0  0  0  0  0  0  0
  -23.4170  -28.8190   23.2950 O   0  0  0  0  0  0  0  0  0  0  0  0
  -20.9220  -29.8850   21.7020 H   0  0  0  0  0  0  0  0  0  0  0  0
  -18.0280  -28.1350   22.8490 C   0  0  0  0  0  0  0  0  0  0  0  0
  -20.5880  -28.3640   23.1280 C   0  0  0  0  0  3  0  0  0  0  0  0
  -20.6750  -26.9380   22.5400 C   0  0  0  0  0  2  0  0  0  0  0  0
  -19.5750  -26.6370   21.5180 C   0  0  0  0  0  2  0  0  0  0  0  0
  -18.1930  -26.7900   22.1610 C   0  0  0  0  0  2  0  0  0  0  0  0
  -19.1530  -28.8810   23.2900 C   0  0  0  0  0  0  0  0  0  0  0  0
  -18.9460  -30.1410   23.8930 C   0  0  0  0  0  3  0  0  0  0  0  0
  -17.6460  -30.6560   24.0550 C   0  0  0  0  0  3  0  0  0  0  0  0
  -16.5360  -29.9080   23.6300 C   0  0  0  0  0  3  0  0  0  0  0  0
  -16.7270  -28.6490   23.0340 C   0  0  0  0  0  3  0  0  0  0  0  0
  -25.9030  -32.4820   23.8370 C   0  0  0  0  0  3  0  0  0  0  0  0
  -25.5920  -33.8610   24.2350 N   0  0  0  0  0  0  0  0  0  0  0  0
  -25.9030  -34.9470   23.5130 C   0  0  0  0  0  0  0  0  0  0  0  0
  -26.5580  -34.8920   22.4690 O   0  0  0  0  0  0  0  0  0  0  0  0
  -25.0130  -33.9780   25.0550 H   0  0  0  0  0  0  0  0  0  0  0  0
  -24.1500  -36.7310   23.2630 C   0  0  0  0  0  1  0  0  0  0  0  0
  -25.4110  -36.3100   24.0350 C   0  0  0  0  0  3  0  0  0  0  0  0
  -27.5590  -37.1800   24.8470 C   0  0  0  0  0  1  0  0  0  0  0  0
  -26.4300  -37.3790   23.9420 N   0  0  0  0  0  0  0  0  0  0  0  0
  -26.0190  -38.2860   24.1440 H   0  0  0  0  0  0  0  0  0  0  0  0
  -26.4490  -31.6560   25.0670 C   0  0  1  0  0  0  0  0  0  0  0  0
  -25.3770  -31.3640   26.1430 C   0  0  0  0  0  1  0  0  0  0  0  0
  -27.0290  -30.3020   24.5950 C   0  0  0  0  0  1  0  0  0  0  0  0
  -27.6120  -32.4200   25.7410 C   0  0  0  0  0  1  0  0  0  0  0  0
  -33.8770  -13.1850   23.0400 C   0  0  0  0  0  0  0  0  0  0  0  0
  -33.7970  -14.5230   23.1020 N   0  0  0  0  0  0  0  0  0  0  0  0
  -33.4990  -12.4660   23.9650 O   0  0  0  0  0  0  0  0  0  0  0  0
  -34.0650  -15.0480   22.2840 H   0  0  0  0  0  0  0  0  0  0  0  0
  -34.4900  -12.5400   21.7900 C   0  0  0  0  0  2  0  0  0  0  0  0
  -35.0950  -13.3260   19.5120 C   0  0  0  0  0  0  0  0  0  0  0  0
  -35.0500  -13.4970   20.8390 N   0  0  0  0  0  0  0  0  0  0  0  0
  -34.5960  -12.3540   18.9410 O   0  0  0  0  0  0  0  0  0  0  0  0
  -35.4980  -14.3210   21.2130 H   0  0  0  0  0  0  0  0  0  0  0  0
  -35.8430  -14.3970   18.7170 C   0  0  0  0  0  2  0  0  0  0  0  0
  -34.9110  -15.3540   18.2280 O   0  0  0  0  0  0  0  0  0  0  0  0
  -35.5440  -16.4320   17.5490 C   0  0  0  0  0  2  0  0  0  0  0  0
  -34.4840  -17.4310   17.0650 C   0  0  0  0  0  2  0  0  0  0  0  0
  -33.8940  -18.0340   18.2060 O   0  0  0  0  0  0  0  0  0  0  0  0
  -32.9570  -19.0490   17.8820 C   0  0  0  0  0  2  0  0  0  0  0  0
  -32.3000  -19.5720   19.1770 C   0  0  0  0  0  2  0  0  0  0  0  0
  -31.1340  -18.8300   19.5230 O   0  0  0  0  0  0  0  0  0  0  0  0
  -31.3560  -17.5750   20.1570 C   0  0  0  0  0  2  0  0  0  0  0  0
  -30.0250  -16.8060   20.0360 C   0  0  0  0  0  2  0  0  0  0  0  0
  -30.7150  -14.4510   20.4840 C   0  0  0  0  0  0  0  0  0  0  0  0
  -30.4240  -12.2560   19.4550 C   0  0  0  0  0  2  0  0  0  0  0  0
  -29.5190  -12.4640   18.2230 C   0  0  0  0  0  2  0  0  0  0  0  0
  -28.0320  -12.3600   18.6230 C   0  0  0  0  0  2  0  0  0  0  0  0
  -27.6730  -13.2050   19.8770 C   0  0  0  0  0  3  0  0  0  0  0  0
  -28.7110  -13.0090   21.0070 C   0  0  0  0  0  2  0  0  0  0  0  0
  -30.0490  -13.2690   20.4480 N   0  0  0  0  0  0  0  0  0  0  0  0
  -31.8610  -14.5990   20.0750 O   0  0  0  0  0  0  0  0  0  0  0  0
  -29.9300  -15.5110   20.7170 N   0  0  0  0  0  0  0  0  0  0  0  0
  -29.0360  -15.2970   21.1260 H   0  0  0  0  0  0  0  0  0  0  0  0
  -25.2690  -13.8160   20.5670 C   0  0  0  0  0  0  0  0  0  0  0  0
  -24.1940  -13.0440   20.9180 C   0  0  0  0  0  0  0  0  0  0  0  0
  -24.6480  -11.6910   20.8750 C   0  0  0  0  0  0  0  0  0  0  0  0
  -26.3120  -12.9310   20.3350 N   0  0  0  0  0  0  0  0  0  0  0  0
  -25.9410  -11.6480   20.5790 N   0  0  0  0  0  0  0  0  0  0  0  0
  -23.9120  -10.4300   21.0390 C   0  0  0  0  0  0  0  0  0  0  0  0
  -24.3660   -9.4200   21.9150 C   0  0  0  0  0  3  0  0  0  0  0  0
  -23.6310   -8.2250   22.0730 C   0  0  0  0  0  3  0  0  0  0  0  0
  -22.4290   -8.0320   21.3530 C   0  0  0  0  0  0  0  0  0  0  0  0
  -21.9940   -9.0280   20.4620 C   0  0  0  0  0  3  0  0  0  0  0  0
  -22.7280  -10.2160   20.3030 C   0  0  0  0  0  3  0  0  0  0  0  0
  -21.6660   -6.8920   21.4230 O   0  0  0  0  0  0  0  0  0  0  0  0
  -21.6850   -6.0770   22.5260 C   0  0  0  0  0  0  0  0  0  0  0  0
  -21.4010   -6.5650   23.8210 C   0  0  0  0  0  3  0  0  0  0  0  0
  -21.3660   -5.6800   24.9160 C   0  0  0  0  0  3  0  0  0  0  0  0
  -21.6050   -4.3060   24.7200 C   0  0  0  0  0  0  0  0  0  0  0  0
  -21.8830   -3.8160   23.4320 C   0  0  0  0  0  3  0  0  0  0  0  0
  -21.9190   -4.6980   22.3390 C   0  0  0  0  0  0  0  0  0  0  0  0
  -22.1670   -4.2180   21.0960 F   0  0  0  0  0  0  0  0  0  0  0  0
  -21.5630   -3.4540   25.7700 F   0  0  0  0  0  0  0  0  0  0  0  0
  -22.7950  -13.5230   21.1850 C   0  0  0  0  0  0  0  0  0  0  0  0
  -22.0610  -12.8200   22.0410 N   0  0  0  0  0  0  0  0  0  0  0  0
  -22.3590  -14.5540   20.6730 O   0  0  0  0  0  0  0  0  0  0  0  0
  -22.4260  -11.9850   22.4770 H   0  0  0  0  0  0  0  0  0  0  0  0
  -21.1220  -13.1210   22.2670 H   0  0  0  0  0  0  0  0  0  0  0  0
  -25.4430  -15.1880   20.4060 N   0  0  0  0  0  0  0  0  0  0  0  0
  -24.6760  -15.8420   20.5130 H   0  0  0  0  0  0  0  0  0  0  0  0
  -26.2980  -15.6250   20.0850 H   0  0  0  0  0  0  0  0  0  0  0  0
  2  1  1  0
  2  3  1  0
  3  5  1  0
  4  2  2  0
  6  3  1  0
  6  7  1  0
  8  7  1  0
  9  8  1  0
 10  9  1  0
 11 10  1  0
 12 11  1  0
 13 12  1  0
 14 13  1  0
 15 14  1  0
 16 17  1  0
 16 15  1  0
 17 18  1  0
 19 30  2  0
 20 18  1  0
 20 25  1  0
 21 29  1  0
 21 31  1  0
 22 28  1  0
 22 24  1  0
 23 29  1  0
 24 23  1  0
 25 24  2  0
 26 27  1  0
 26 20  2  0
 27 22  2  0
 28 21  1  0
 29 19  1  0
 31 33  2  0
 32 31  1  0
 34 32  1  0
 35 44  2  0
 35 40  1  0
 36 32  1  0
 36 40  1  0
 37 36  1  0
 38 39  1  0
 38 37  1  0
 39 35  1  0
 40 41  2  0
 41 42  1  0
 43 42  2  0
 44 43  1  0
 45 19  1  0
 45 46  1  0
 45 55  1  0
 46 49  1  0
 47 51  1  0
 47 46  1  0
 48 47  2  0
 51 50  1  0
 53 51  1  0
 53 54  1  0
 53 52  1  0
 55 58  1  1
 55 56  1  0
 57 55  1  0
 59 60  1  0
 59 61  2  0
 60  1  1  0
 62 60  1  0
 63 59  1  0
 64 65  1  0
 65 67  1  0
 65 63  1  0
 66 64  2  0
 68 64  1  0
 69 68  1  0
 70 69  1  0
 71 70  1  0
 71 72  1  0
 73 72  1  0
 73 74  1  0
 74 75  1  0
 75 76  1  0
 77 76  1  0
 77 86  1  0
 78 86  1  0
 79 84  1  0
 80 81  1  0
 80 79  1  0
 82 81  1  0
 82 91  1  0
 82 83  1  0
 84 78  1  0
 84 83  1  0
 85 78  2  0
 86 87  1  0
 88 89  2  0
 89108  1  0
 90 89  1  0
 90 93  1  0
 91 88  1  0
 91 92  1  0
 92 90  2  0
 93 94  1  0
 94 95  2  0
 96 99  1  0
 96 95  1  0
 97 96  2  0
 98 97  1  0
 98 93  2  0
 99100  1  0
100101  1  0
101102  2  0
103102  1  0
103107  1  0
104103  2  0
105100  2  0
105104  1  0
106105  1  0
108109  1  0
109112  1  0
109111  1  0
110108  2  0
113114  1  0
113 88  1  0
115113  1  0
M  ISO  4  17 101  18 101  78 100  86 100
M  END
>  <TORSDO>  (52) 
F 42

>  <SCORE>  (52) 
37.886

>  <name>  (52) 
53

>  <ligand_id>  (52) 
53

>  <original_smiles>  (52) 
[H]c1c([H])c([H])c2c(c1[H])C([H])([H])C([H])([H])C([H])([H])C2([H])N([H])C(=O)C1([H])N(C(=O)C([H])(N([H])C(=O)C([H])(N([H])C([H])([H])[H])C([H])([H])[H])C(C([H])([H])[H])(C([H])([H])[H])C([H])([H])[H])C([H])([H])c2c([H])c(OC([H])([H])C([H])([H])C([H])([H])C([H])([H])C([H])([H])C([H])([H])C([H])([H])C([H])([H])C([H])([H])C([H])([H])C([H])([H])C([H])([H])N([H])C(=O)C([H])([H])N([H])C(=O)C([H])([H])N([H])C(=O)C([H])([H])OC([H])([H])C([H])([H])OC([H])([H])C([H])([H])OC([H])([H])C([H])([H])N([H])C(=O)N3C([H])([H])C([H])([H])C([H])([H])C([H])(n4nc(-c5c([H])c([H])c(Oc6c([H])c([H])c(F)c([H])c6F)c([H])c5[H])c(C(=O)N([H])[H])c4N([H])[H])C3([H])[H])c([H])c([H])c2C1([H])[H]

>  <smiles>  (52) 
[H]c1c([H])c([H])c2c(c1[H])C([H])([H])C([H])([H])C([H])([H])C2([H])N([H])C(=O)C1([H])N(C(=O)C([H])(N([H])C(=O)C([H])(N([H])C([H])([H])[H])C([H])([H])[H])C(C([H])([H])[H])(C([H])([H])[H])C([H])([H])[H])C([H])([H])c2c([H])c(OC([H])([H])C([H])([H])C([H])([H])C([H])([H])C([H])([H])C([H])([H])C([H])([H])C([H])([H])C([H])([H])C([H])([H])C([H])([H])C([H])([H])N([H])C(=O)C([H])([H])N([H])C(=O)C([H])([H])N([H])C(=O)C([H])([H])OC([H])([H])C([H])([H])OC([H])([H])C([H])([H])OC([H])([H])C([H])([H])N([H])C(=O)N3C([H])([H])C([H])([H])C([H])([H])C([H])(n4nc(-c5c([H])c([H])c(Oc6c([H])c([H])c(F)c([H])c6F)c([H])c5[H])c(C(=O)N([H])[H])c4N([H])[H])C3([H])[H])c([H])c([H])c2C1([H])[H]

$$$$
56:0:0
     RDKit          3D

101108  0  0  1  0  0  0  0  0999 V2000
  -31.8150  -16.9060   25.1080 C   0  0  0  0  0  2  0  0  0  0  0  0
  -32.7230  -16.5800   26.3030 C   0  0  0  0  0  2  0  0  0  0  0  0
  -32.5070  -14.3370   27.3830 C   0  0  0  0  0  0  0  0  0  0  0  0
  -32.9650  -15.1440   26.4190 N   0  0  0  0  0  0  0  0  0  0  0  0
  -31.6860  -14.6930   28.2310 O   0  0  0  0  0  0  0  0  0  0  0  0
  -33.6230  -14.7320   25.7690 H   0  0  0  0  0  0  0  0  0  0  0  0
  -33.0900  -12.9180   27.4050 C   0  0  0  0  0  2  0  0  0  0  0  0
  -32.6680  -12.1750   26.2620 O   0  0  0  0  0  0  0  0  0  0  0  0
  -31.3750  -11.5970   26.4080 C   0  0  0  0  0  2  0  0  0  0  0  0
  -30.9900  -10.8130   25.1420 C   0  0  0  0  0  2  0  0  0  0  0  0
  -30.3550  -11.6710   24.2040 O   0  0  0  0  0  0  0  0  0  0  0  0
  -31.2300  -12.4270   23.3840 C   0  0  0  0  0  2  0  0  0  0  0  0
  -30.6340  -13.8420   23.2930 C   0  0  0  0  0  2  0  0  0  0  0  0
  -30.8860  -14.2350   20.7830 C   0  0  0  0  0  0  0  0  0  0  0  0
  -30.4040  -12.2790   19.3830 C   0  0  0  0  0  2  0  0  0  0  0  0
  -29.4740  -12.5270   18.1840 C   0  0  0  0  0  2  0  0  0  0  0  0
  -28.0060  -12.3570   18.6030 C   0  0  0  0  0  2  0  0  0  0  0  0
  -27.6590  -13.2030   19.8490 C   0  0  0  0  0  3  0  0  0  0  0  0
  -28.6900  -13.0150   20.9780 C   0  0  0  0  0  2  0  0  0  0  0  0
  -30.0620  -13.2020   20.4730 N   0  0  0  0  0  0  0  0  0  0  0  0
  -31.6870  -14.7300   19.9900 O   0  0  0  0  0  0  0  0  0  0  0  0
  -30.9910  -14.5790   22.0750 N   0  0  0  0  0  0  0  0  0  0  0  0
  -31.6240  -15.3520   22.2210 H   0  0  0  0  0  0  0  0  0  0  0  0
  -25.2610  -13.8150   20.5610 C   0  0  0  0  0  0  0  0  0  0  0  0
  -24.1860  -13.0430   20.9170 C   0  0  0  0  0  0  0  0  0  0  0  0
  -24.6410  -11.6900   20.8720 C   0  0  0  0  0  0  0  0  0  0  0  0
  -26.3020  -12.9310   20.3220 N   0  0  0  0  0  0  0  0  0  0  0  0
  -25.9320  -11.6470   20.5690 N   0  0  0  0  0  0  0  0  0  0  0  0
  -23.9090  -10.4270   21.0440 C   0  0  0  0  0  0  0  0  0  0  0  0
  -24.3640   -9.4180   21.9210 C   0  0  0  0  0  3  0  0  0  0  0  0
  -23.6320   -8.2220   22.0780 C   0  0  0  0  0  3  0  0  0  0  0  0
  -22.4290   -8.0270   21.3580 C   0  0  0  0  0  0  0  0  0  0  0  0
  -21.9940   -9.0240   20.4680 C   0  0  0  0  0  3  0  0  0  0  0  0
  -22.7270  -10.2120   20.3080 C   0  0  0  0  0  3  0  0  0  0  0  0
  -21.6640   -6.8880   21.4260 O   0  0  0  0  0  0  0  0  0  0  0  0
  -21.6850   -6.0740   22.5290 C   0  0  0  0  0  0  0  0  0  0  0  0
  -21.4010   -6.5650   23.8230 C   0  0  0  0  0  3  0  0  0  0  0  0
  -21.3650   -5.6800   24.9190 C   0  0  0  0  0  3  0  0  0  0  0  0
  -21.6020   -4.3060   24.7240 C   0  0  0  0  0  0  0  0  0  0  0  0
  -21.8820   -3.8170   23.4360 C   0  0  0  0  0  3  0  0  0  0  0  0
  -21.9190   -4.6980   22.3410 C   0  0  0  0  0  0  0  0  0  0  0  0
  -22.1680   -4.2160   21.0990 F   0  0  0  0  0  0  0  0  0  0  0  0
  -21.5610   -3.4550   25.7760 F   0  0  0  0  0  0  0  0  0  0  0  0
  -22.7890  -13.5240   21.1870 C   0  0  0  0  0  0  0  0  0  0  0  0
  -22.0530  -12.8210   22.0410 N   0  0  0  0  0  0  0  0  0  0  0  0
  -22.3560  -14.5550   20.6740 O   0  0  0  0  0  0  0  0  0  0  0  0
  -22.4160  -11.9870   22.4770 H   0  0  0  0  0  0  0  0  0  0  0  0
  -21.1150  -13.1210   22.2600 H   0  0  0  0  0  0  0  0  0  0  0  0
  -25.4400  -15.1850   20.4010 N   0  0  0  0  0  0  0  0  0  0  0  0
  -24.6920  -15.8590   20.5200 H   0  0  0  0  0  0  0  0  0  0  0  0
  -26.3120  -15.6150   20.1180 H   0  0  0  0  0  0  0  0  0  0  0  0
  -31.6900  -18.4180   24.8800 C   0  0  0  0  0  2  0  0  0  0  0  0
  -30.7520  -18.7740   23.7170 C   0  0  0  0  0  2  0  0  0  0  0  0
  -30.7810  -20.2740   23.3990 C   0  0  0  0  0  2  0  0  0  0  0  0
  -29.8040  -20.6670   22.2830 C   0  0  0  0  0  2  0  0  0  0  0  0
  -29.9300  -22.1490   21.8960 C   0  0  0  0  0  2  0  0  0  0  0  0
  -28.9640  -22.5510   20.7780 C   0  0  0  0  0  2  0  0  0  0  0  0
  -29.1950  -23.9100   20.4420 O   0  0  0  0  0  0  0  0  0  0  0  0
  -28.2610  -24.3970   19.4880 C   0  0  0  0  0  2  0  0  0  0  0  0
  -28.6700  -25.8090   19.0370 C   0  0  0  0  0  2  0  0  0  0  0  0
  -28.4410  -26.7900   20.0500 O   0  0  0  0  0  0  0  0  0  0  0  0
  -24.6110  -31.8700   23.2130 C   0  0  0  0  0  0  0  0  0  0  0  0
  -27.2380  -27.4630   20.0690 C   0  0  0  0  0  0  0  0  0  0  0  0
  -23.3970  -30.4950   21.5540 C   0  0  0  0  0  3  0  0  0  0  0  0
  -24.8400  -28.9620   20.1180 C   0  0  0  0  0  0  0  0  0  0  0  0
  -25.9240  -30.8380   21.3670 C   0  0  0  0  0  2  0  0  0  0  0  0
  -25.9970  -29.4720   20.7180 C   0  0  0  0  0  0  0  0  0  0  0  0
  -27.1930  -28.7220   20.7040 C   0  0  0  0  0  3  0  0  0  0  0  0
  -26.0550  -26.9560   19.4790 C   0  0  0  0  0  3  0  0  0  0  0  0
  -24.8600  -27.6980   19.5060 C   0  0  0  0  0  3  0  0  0  0  0  0
  -23.6020  -29.8270   20.1690 C   0  0  0  0  0  2  0  0  0  0  0  0
  -24.6620  -31.0820   22.1030 N   0  0  0  0  0  0  0  0  0  0  0  0
  -23.5310  -32.1450   23.7540 O   0  0  0  0  0  0  0  0  0  0  0  0
  -22.7380  -29.4670   22.5010 C   0  0  0  0  0  0  0  0  0  0  0  0
  -21.4120  -29.3030   22.3740 N   0  0  0  0  0  0  0  0  0  0  0  0
  -23.4170  -28.8220   23.3050 O   0  0  0  0  0  0  0  0  0  0  0  0
  -20.9270  -29.8740   21.6960 H   0  0  0  0  0  0  0  0  0  0  0  0
  -18.0270  -28.1370   22.8500 C   0  0  0  0  0  0  0  0  0  0  0  0
  -20.5850  -28.3650   23.1330 C   0  0  0  0  0  3  0  0  0  0  0  0
  -20.6770  -26.9400   22.5420 C   0  0  0  0  0  2  0  0  0  0  0  0
  -19.5750  -26.6390   21.5210 C   0  0  0  0  0  2  0  0  0  0  0  0
  -18.1920  -26.7920   22.1620 C   0  0  0  0  0  2  0  0  0  0  0  0
  -19.1510  -28.8830   23.2910 C   0  0  0  0  0  0  0  0  0  0  0  0
  -18.9450  -30.1440   23.8920 C   0  0  0  0  0  3  0  0  0  0  0  0
  -17.6450  -30.6580   24.0570 C   0  0  0  0  0  3  0  0  0  0  0  0
  -16.5340  -29.9090   23.6320 C   0  0  0  0  0  3  0  0  0  0  0  0
  -16.7260  -28.6500   23.0350 C   0  0  0  0  0  3  0  0  0  0  0  0
  -25.9020  -32.4830   23.8410 C   0  0  0  0  0  3  0  0  0  0  0  0
  -25.5900  -33.8630   24.2340 N   0  0  0  0  0  0  0  0  0  0  0  0
  -25.9040  -34.9480   23.5130 C   0  0  0  0  0  0  0  0  0  0  0  0
  -26.5600  -34.8920   22.4690 O   0  0  0  0  0  0  0  0  0  0  0  0
  -25.0060  -33.9800   25.0490 H   0  0  0  0  0  0  0  0  0  0  0  0
  -24.1490  -36.7320   23.2640 C   0  0  0  0  0  1  0  0  0  0  0  0
  -25.4110  -36.3120   24.0340 C   0  0  0  0  0  3  0  0  0  0  0  0
  -27.5590  -37.1810   24.8460 C   0  0  0  0  0  1  0  0  0  0  0  0
  -26.4300  -37.3800   23.9410 N   0  0  0  0  0  0  0  0  0  0  0  0
  -26.0180  -38.2880   24.1430 H   0  0  0  0  0  0  0  0  0  0  0  0
  -26.4460  -31.6600   25.0730 C   0  0  1  0  0  0  0  0  0  0  0  0
  -25.3740  -31.3690   26.1480 C   0  0  0  0  0  1  0  0  0  0  0  0
  -27.0280  -30.3050   24.6080 C   0  0  0  0  0  1  0  0  0  0  0  0
  -27.6050  -32.4310   25.7480 C   0  0  0  0  0  1  0  0  0  0  0  0
  1  2  1  0
  2  4  1  0
  3  7  1  0
  3  5  2  0
  4  3  1  0
  6  4  1  0
  8  9  1  0
  8  7  1  0
 10  9  1  0
 11 10  1  0
 12 11  1  0
 13 12  1  0
 14 22  1  0
 15 20  1  0
 16 17  1  0
 16 15  1  0
 18 17  1  0
 18 27  1  0
 18 19  1  0
 20 14  1  0
 20 19  1  0
 21 14  2  0
 22 23  1  0
 22 13  1  0
 24 25  2  0
 25 44  1  0
 26 25  1  0
 26 29  1  0
 27 24  1  0
 27 28  1  0
 28 26  2  0
 29 30  1  0
 30 31  2  0
 32 35  1  0
 32 31  1  0
 33 32  2  0
 34 33  1  0
 34 29  2  0
 35 36  1  0
 36 37  1  0
 37 38  2  0
 39 38  1  0
 39 43  1  0
 40 39  2  0
 41 36  2  0
 41 40  1  0
 42 41  1  0
 44 45  1  0
 45 48  1  0
 45 47  1  0
 46 44  2  0
 49 50  1  0
 49 24  1  0
 51 49  1  0
 52  1  1  0
 53 52  1  0
 54 53  1  0
 55 54  1  0
 56 55  1  0
 57 56  1  0
 58 57  1  0
 59 58  1  0
 60 59  1  0
 60 61  1  0
 61 63  1  0
 62 73  2  0
 63 68  1  0
 64 72  1  0
 64 74  1  0
 65 71  1  0
 65 67  1  0
 66 72  1  0
 67 66  1  0
 68 67  2  0
 69 70  1  0
 69 63  2  0
 70 65  2  0
 71 64  1  0
 72 62  1  0
 74 76  2  0
 75 74  1  0
 77 75  1  0
 78 87  2  0
 78 83  1  0
 79 75  1  0
 79 83  1  0
 80 79  1  0
 81 82  1  0
 81 80  1  0
 82 78  1  0
 83 84  2  0
 84 85  1  0
 86 85  2  0
 87 86  1  0
 88 62  1  0
 88 89  1  0
 88 98  1  0
 89 92  1  0
 90 94  1  0
 90 89  1  0
 91 90  2  0
 94 93  1  0
 96 94  1  0
 96 97  1  0
 96 95  1  0
 98101  1  1
 98 99  1  0
100 98  1  0
M  ISO  4  14 100  22 100  60 101  61 101
M  END
>  <TORSDO>  (53) 
F 34

>  <SCORE>  (53) 
37.350

>  <name>  (53) 
56

>  <ligand_id>  (53) 
56

>  <original_smiles>  (53) 
[H]c1c([H])c([H])c2c(c1[H])C([H])([H])C([H])([H])C([H])([H])C2([H])N([H])C(=O)C1([H])N(C(=O)C([H])(N([H])C(=O)C([H])(N([H])C([H])([H])[H])C([H])([H])[H])C(C([H])([H])[H])(C([H])([H])[H])C([H])([H])[H])C([H])([H])c2c([H])c(OC([H])([H])C([H])([H])OC([H])([H])C([H])([H])C([H])([H])C([H])([H])C([H])([H])C([H])([H])C([H])([H])C([H])([H])N([H])C(=O)C([H])([H])OC([H])([H])C([H])([H])OC([H])([H])C([H])([H])N([H])C(=O)N3C([H])([H])C([H])([H])C([H])([H])C([H])(n4nc(-c5c([H])c([H])c(Oc6c([H])c([H])c(F)c([H])c6F)c([H])c5[H])c(C(=O)N([H])[H])c4N([H])[H])C3([H])[H])c([H])c([H])c2C1([H])[H]

>  <smiles>  (53) 
[H]c1c([H])c([H])c2c(c1[H])C([H])([H])C([H])([H])C([H])([H])C2([H])N([H])C(=O)C1([H])N(C(=O)C([H])(N([H])C(=O)C([H])(N([H])C([H])([H])[H])C([H])([H])[H])C(C([H])([H])[H])(C([H])([H])[H])C([H])([H])[H])C([H])([H])c2c([H])c(OC([H])([H])C([H])([H])OC([H])([H])C([H])([H])C([H])([H])C([H])([H])C([H])([H])C([H])([H])C([H])([H])C([H])([H])N([H])C(=O)C([H])([H])OC([H])([H])C([H])([H])OC([H])([H])C([H])([H])N([H])C(=O)N3C([H])([H])C([H])([H])C([H])([H])C([H])(n4nc(-c5c([H])c([H])c(Oc6c([H])c([H])c(F)c([H])c6F)c([H])c5[H])c(C(=O)N([H])[H])c4N([H])[H])C3([H])[H])c([H])c([H])c2C1([H])[H]

$$$$
57:0:0
     RDKit          3D

103110  0  0  1  0  0  0  0  0999 V2000
  -24.1970  -26.5240   24.9570 C   0  0  0  0  0  0  0  0  0  0  0  0
  -24.1560  -27.9380   24.8680 N   0  0  0  0  0  0  0  0  0  0  0  0
  -23.2910  -25.8890   25.4970 O   0  0  0  0  0  0  0  0  0  0  0  0
  -25.0510  -28.1880   24.4540 H   0  0  0  0  0  0  0  0  0  0  0  0
  -23.1650  -29.1710   24.6180 C   0  0  0  0  0  2  0  0  0  0  0  0
  -23.0120  -30.5650   23.4800 C   0  0  0  0  0  0  0  0  0  0  0  0
  -23.8530  -31.2660   22.4400 N   0  0  0  0  0  0  0  0  0  0  0  0
  -21.9050  -31.0890   23.5690 O   0  0  0  0  0  0  0  0  0  0  0  0
  -23.2290  -31.9560   22.0360 H   0  0  0  0  0  0  0  0  0  0  0  0
  -25.3650  -31.4690   21.6610 C   0  0  0  0  0  3  0  0  0  0  0  0
  -27.1770  -31.8060   22.0930 C   0  0  0  0  0  3  0  0  0  0  0  0
  -28.4740  -32.0220   23.4250 C   0  0  0  0  0  2  0  0  0  0  0  0
  -29.2720  -33.0760   24.4910 O   0  0  0  0  0  0  0  0  0  0  0  0
  -27.0860  -30.6670   29.1310 C   0  0  0  0  0  0  0  0  0  0  0  0
  -28.9520  -34.3210   24.9700 C   0  0  0  0  0  3  0  0  0  0  0  0
  -26.4830  -30.9210   26.7530 C   0  0  0  0  0  3  0  0  0  0  0  0
  -26.6910  -33.1940   25.6830 C   0  0  0  0  0  0  0  0  0  0  0  0
  -27.3470  -32.8820   28.0610 C   0  0  0  0  0  2  0  0  0  0  0  0
  -27.6060  -33.4650   26.6930 C   0  0  0  0  0  0  0  0  0  0  0  0
  -28.7390  -34.2110   26.3610 C   0  0  0  0  0  2  0  0  0  0  0  0
  -27.9040  -34.6070   24.1340 C   0  0  0  0  0  2  0  0  0  0  0  0
  -26.7440  -33.8880   24.4460 C   0  0  0  0  0  2  0  0  0  0  0  0
  -25.7480  -32.1160   26.0320 C   0  0  0  0  0  2  0  0  0  0  0  0
  -27.0050  -31.4490   28.0270 N   0  0  0  0  0  0  0  0  0  0  0  0
  -26.6670  -29.5110   29.1570 O   0  0  0  0  0  0  0  0  0  0  0  0
  -27.6570  -30.0420   26.0060 C   0  0  0  0  0  0  0  0  0  0  0  0
  -27.5350  -29.3600   24.7540 N   0  0  0  0  0  0  0  0  0  0  0  0
  -28.6490  -29.9340   26.6680 O   0  0  0  0  0  0  0  0  0  0  0  0
  -26.6220  -29.7230   24.4750 H   0  0  0  0  0  0  0  0  0  0  0  0
  -28.0340  -28.1610   21.0510 C   0  0  0  0  0  0  0  0  0  0  0  0
  -27.7010  -28.2420   23.7050 C   0  0  0  0  0  3  0  0  0  0  0  0
  -29.2060  -27.9870   23.7340 C   0  0  0  0  0  2  0  0  0  0  0  0
  -30.0080  -28.5750   22.5730 C   0  0  0  0  0  2  0  0  0  0  0  0
  -29.5210  -28.0120   21.2520 C   0  0  0  0  0  2  0  0  0  0  0  0
  -27.1370  -28.3100   22.1540 C   0  0  0  0  0  0  0  0  0  0  0  0
  -25.7660  -28.3420   21.6760 C   0  0  0  0  0  3  0  0  0  0  0  0
  -25.3250  -28.3560   20.3510 C   0  0  0  0  0  3  0  0  0  0  0  0
  -26.2530  -28.2050   19.3400 C   0  0  0  0  0  3  0  0  0  0  0  0
  -27.5990  -28.0880   19.7010 C   0  0  0  0  0  3  0  0  0  0  0  0
  -27.6910  -31.2120   30.4380 C   0  0  0  0  0  3  0  0  0  0  0  0
  -27.1860  -30.3680   31.5290 N   0  0  0  0  0  0  0  0  0  0  0  0
  -26.1520  -30.6920   32.3120 C   0  0  0  0  0  0  0  0  0  0  0  0
  -25.5720  -31.7780   32.2350 O   0  0  0  0  0  0  0  0  0  0  0  0
  -27.5790  -29.4420   31.6070 H   0  0  0  0  0  0  0  0  0  0  0  0
  -24.5180  -28.8410   32.8030 C   0  0  0  0  0  1  0  0  0  0  0  0
  -25.7010  -29.6540   33.3560 C   0  0  0  0  0  3  0  0  0  0  0  0
  -26.4540  -30.8950   35.3350 C   0  0  0  0  0  1  0  0  0  0  0  0
  -25.3290  -30.2580   34.6530 N   0  0  0  0  0  0  0  0  0  0  0  0
  -24.9350  -29.5590   35.2760 H   0  0  0  0  0  0  0  0  0  0  0  0
  -29.2630  -31.2140   30.4130 C   0  0  1  0  0  0  0  0  0  0  0  0
  -29.8920  -29.8930   29.9220 C   0  0  0  0  0  1  0  0  0  0  0  0
  -29.8160  -32.3520   29.5220 C   0  0  0  0  0  1  0  0  0  0  0  0
  -29.7820  -31.4830   31.8390 C   0  0  0  0  0  1  0  0  0  0  0  0
  -25.3900  -25.7110   24.1730 C   0  0  0  0  0  2  0  0  0  0  0  0
  -25.9640  -24.2930   22.0620 C   0  0  0  0  0  0  0  0  0  0  0  0
  -25.5210  -24.3840   23.3940 N   0  0  0  0  0  0  0  0  0  0  0  0
  -25.9770  -25.3140   21.3750 O   0  0  0  0  0  0  0  0  0  0  0  0
  -25.4770  -23.5320   23.9370 H   0  0  0  0  0  0  0  0  0  0  0  0
  -26.5240  -22.9650   21.3200 C   0  0  0  0  0  2  0  0  0  0  0  0
  -27.0250  -23.1270   19.8990 O   0  0  0  0  0  0  0  0  0  0  0  0
  -28.1520  -22.2890   19.3430 C   0  0  0  0  0  2  0  0  0  0  0  0
  -28.8560  -22.5890   17.8840 C   0  0  0  0  0  2  0  0  0  0  0  0
  -30.3200  -22.3360   17.6070 O   0  0  0  0  0  0  0  0  0  0  0  0
  -30.9420  -22.6320   16.2630 C   0  0  0  0  0  3  0  0  0  0  0  0
  -32.5590  -22.8740   16.0630 C   0  0  0  0  0  3  0  0  0  0  0  0
  -34.3440  -23.4580   14.0820 C   0  0  0  0  0  0  0  0  0  0  0  0
  -35.3370  -24.0810   11.8330 C   0  0  0  0  0  2  0  0  0  0  0  0
  -34.4440  -25.1150   11.1000 C   0  0  0  0  0  2  0  0  0  0  0  0
  -33.2480  -24.4370   10.3970 C   0  0  0  0  0  2  0  0  0  0  0  0
  -32.5410  -23.4080   11.3150 C   0  0  0  0  0  3  0  0  0  0  0  0
  -33.5690  -22.4420   11.9300 C   0  0  0  0  0  2  0  0  0  0  0  0
  -34.4810  -23.2610   12.7290 N   0  0  0  0  0  0  0  0  0  0  0  0
  -35.1940  -24.1280   14.6910 O   0  0  0  0  0  0  0  0  0  0  0  0
  -33.1690  -22.9490   14.6510 N   0  0  0  0  0  0  0  0  0  0  0  0
  -32.6080  -22.4730   13.9610 H   0  0  0  0  0  0  0  0  0  0  0  0
  -30.1720  -22.4800   11.0070 C   0  0  0  0  0  0  0  0  0  0  0  0
  -29.5950  -21.7720    9.9890 C   0  0  0  0  0  0  0  0  0  0  0  0
  -30.6220  -21.5720    9.0160 C   0  0  0  0  0  0  0  0  0  0  0  0
  -31.4890  -22.6790   10.6250 N   0  0  0  0  0  0  0  0  0  0  0  0
  -31.7710  -22.0770    9.4450 N   0  0  0  0  0  0  0  0  0  0  0  0
  -30.5650  -20.9830    7.6740 C   0  0  0  0  0  0  0  0  0  0  0  0
  -31.4340  -19.9370    7.2900 C   0  0  0  0  0  3  0  0  0  0  0  0
  -31.3480  -19.3760    5.9980 C   0  0  0  0  0  3  0  0  0  0  0  0
  -30.3870  -19.8580    5.0780 C   0  0  0  0  0  0  0  0  0  0  0  0
  -29.5420  -20.9150    5.4580 C   0  0  0  0  0  3  0  0  0  0  0  0
  -29.6320  -21.4770    6.7420 C   0  0  0  0  0  3  0  0  0  0  0  0
  -30.2470  -19.3910    3.7940 O   0  0  0  0  0  0  0  0  0  0  0  0
  -30.6630  -18.1340    3.4350 C   0  0  0  0  0  0  0  0  0  0  0  0
  -30.1490  -16.9750    4.0570 C   0  0  0  0  0  3  0  0  0  0  0  0
  -30.5520  -15.7000    3.6110 C   0  0  0  0  0  3  0  0  0  0  0  0
  -31.4590  -15.5820    2.5400 C   0  0  0  0  0  0  0  0  0  0  0  0
  -31.9670  -16.7360    1.9180 C   0  0  0  0  0  3  0  0  0  0  0  0
  -31.5680  -18.0070    2.3630 C   0  0  0  0  0  0  0  0  0  0  0  0
  -32.0440  -19.1160    1.7460 F   0  0  0  0  0  0  0  0  0  0  0  0
  -31.8400  -14.3590    2.1060 F   0  0  0  0  0  0  0  0  0  0  0  0
  -28.1490  -21.3890    9.8770 C   0  0  0  0  0  0  0  0  0  0  0  0
  -27.8700  -20.2030    9.3480 N   0  0  0  0  0  0  0  0  0  0  0  0
  -27.2580  -22.1220   10.3040 O   0  0  0  0  0  0  0  0  0  0  0  0
  -28.6010  -19.5920    9.0170 H   0  0  0  0  0  0  0  0  0  0  0  0
  -26.9080  -19.9000    9.2750 H   0  0  0  0  0  0  0  0  0  0  0  0
  -29.6890  -22.9870   12.2110 N   0  0  0  0  0  0  0  0  0  0  0  0
  -28.7100  -22.9150   12.4660 H   0  0  0  0  0  0  0  0  0  0  0  0
  -30.2170  -23.5840   12.8330 H   0  0  0  0  0  0  0  0  0  0  0  0
  1  3  2  0
  2  1  1  0
  4  2  1  0
  5  2  1  0
  6  8  2  0
  6  5  1  0
  7  6  1  0
  9  7  1  0
 10 11  2  0
 10  7  1  0
 11 12  1  0
 12 13  1  0
 14 25  2  0
 15 13  1  0
 15 20  1  0
 16 26  1  0
 16 24  1  0
 17 23  1  0
 17 19  2  0
 19 18  1  0
 20 19  1  0
 21 22  1  0
 21 15  1  0
 22 17  1  0
 23 16  1  0
 24 18  1  0
 24 14  1  0
 26 28  2  0
 27 26  1  0
 29 27  1  0
 30 34  1  0
 30 35  1  0
 31 32  1  0
 31 27  1  0
 33 32  1  0
 34 33  1  0
 35 31  1  0
 36 35  2  0
 37 36  1  0
 38 39  1  0
 38 37  2  0
 39 30  2  0
 40 14  1  0
 40 41  1  0
 41 44  1  0
 41 42  1  0
 42 46  1  0
 43 42  2  0
 46 45  1  0
 46 48  1  0
 48 49  1  0
 48 47  1  0
 50 40  1  0
 50 53  1  1
 51 50  1  0
 52 50  1  0
 54  1  1  0
 55 56  1  0
 56 58  1  0
 56 54  1  0
 57 55  2  0
 59 55  1  0
 60 59  1  0
 61 60  1  0
 62 61  1  0
 63 62  1  0
 64 63  1  0
 65 64  2  0
 66 74  1  0
 66 73  2  0
 67 72  1  0
 68 67  1  0
 69 68  1  0
 70 69  1  0
 70 71  1  0
 71 72  1  0
 72 66  1  0
 74 65  1  0
 75 74  1  0
 76101  1  0
 77 76  2  0
 78 80  2  0
 78 77  1  0
 79 76  1  0
 79 70  1  0
 80 79  1  0
 81 78  1  0
 82 81  1  0
 83 82  2  0
 84 85  2  0
 84 83  1  0
 85 86  1  0
 86 81  2  0
 87 84  1  0
 88 87  1  0
 88 89  1  0
 90 89  2  0
 91 90  1  0
 92 93  1  0
 92 91  2  0
 93 88  2  0
 94 93  1  0
 95 91  1  0
 96 77  1  0
 96 98  2  0
 97 96  1  0
 99 97  1  0
100 97  1  0
101102  1  0
101103  1  0
M  ISO  4  12 101  13 101  66 100  74 100
M  END
>  <TORSDO>  (54) 
F 30

>  <SCORE>  (54) 
-2.718

>  <name>  (54) 
57

>  <ligand_id>  (54) 
57

>  <original_smiles>  (54) 
[H]c1c([H])c([H])c2c(c1[H])C([H])([H])C([H])([H])C([H])([H])C2([H])N([H])C(=O)C1([H])N(C(=O)C([H])(N([H])C(=O)C([H])(N([H])C([H])([H])[H])C([H])([H])[H])C(C([H])([H])[H])(C([H])([H])[H])C([H])([H])[H])C([H])([H])c2c([H])c(OC([H])([H])C([H])([H])C([H])([H])N([H])C(=O)C([H])([H])N([H])C(=O)C([H])([H])N([H])C(=O)C([H])([H])OC([H])([H])C([H])([H])OC([H])([H])C([H])([H])N([H])C(=O)N3C([H])([H])C([H])([H])C([H])([H])C([H])(n4nc(-c5c([H])c([H])c(Oc6c([H])c([H])c(F)c([H])c6F)c([H])c5[H])c(C(=O)N([H])[H])c4N([H])[H])C3([H])[H])c([H])c([H])c2C1([H])[H]

>  <smiles>  (54) 
[H]c1c([H])c([H])c2c(c1[H])C([H])([H])C([H])([H])C([H])([H])C2([H])N([H])C(=O)C1([H])N(C(=O)C([H])(N([H])C(=O)C([H])(N([H])C([H])([H])[H])C([H])([H])[H])C(C([H])([H])[H])(C([H])([H])[H])C([H])([H])[H])C([H])([H])c2c([H])c(OC([H])([H])C([H])([H])C([H])([H])N([H])C(=O)C([H])([H])N([H])C(=O)C([H])([H])N([H])C(=O)C([H])([H])OC([H])([H])C([H])([H])OC([H])([H])C([H])([H])N([H])C(=O)N3C([H])([H])C([H])([H])C([H])([H])C([H])(n4nc(-c5c([H])c([H])c(Oc6c([H])c([H])c(F)c([H])c6F)c([H])c5[H])c(C(=O)N([H])[H])c4N([H])[H])C3([H])[H])c([H])c([H])c2C1([H])[H]

$$$$
58:0:0
     RDKit          3D

127134  0  0  1  0  0  0  0  0999 V2000
  -20.2840  -28.4900   17.9780 C   0  0  0  0  0  2  0  0  0  0  0  0
  -19.4200  -29.3060   18.9710 C   0  0  0  0  0  0  0  0  0  0  0  0
  -19.9110  -30.4550   19.4820 N   0  0  0  0  0  0  0  0  0  0  0  0
  -18.2930  -28.9010   19.2520 O   0  0  0  0  0  0  0  0  0  0  0  0
  -20.8130  -30.7720   19.1570 H   0  0  0  0  0  0  0  0  0  0  0  0
  -19.2010  -31.3310   20.4360 C   0  0  0  0  0  2  0  0  0  0  0  0
  -20.1250  -32.2250   21.3000 C   0  0  0  0  0  0  0  0  0  0  0  0
  -20.0110  -32.1540   22.6420 N   0  0  0  0  0  0  0  0  0  0  0  0
  -20.9320  -32.9730   20.7450 O   0  0  0  0  0  0  0  0  0  0  0  0
  -19.3100  -31.5160   23.0050 H   0  0  0  0  0  0  0  0  0  0  0  0
  -20.7470  -32.9290   23.6640 C   0  0  0  0  0  2  0  0  0  0  0  0
  -21.1510  -32.1970   25.0090 C   0  0  0  0  0  2  0  0  0  0  0  0
  -21.7810  -30.8850   24.9090 O   0  0  0  0  0  0  0  0  0  0  0  0
  -22.1220  -30.2410   26.1590 C   0  0  0  0  0  2  0  0  0  0  0  0
  -22.9010  -28.8650   26.1360 C   0  0  0  0  0  2  0  0  0  0  0  0
  -24.2380  -28.8210   25.5760 O   0  0  0  0  0  0  0  0  0  0  0  0
  -24.9400  -27.5530   25.6660 C   0  0  0  0  0  2  0  0  0  0  0  0
  -25.2970  -26.7200   24.3650 C   0  0  0  0  0  2  0  0  0  0  0  0
  -26.5200  -27.1210   23.5810 N   0  0  0  0  0  4  0  0  0  0  0  0
  -26.2690  -27.9170   23.0090 H   0  0  0  0  0  0  0  0  0  0  0  0
  -27.2300  -27.3860   24.2460 H   0  0  0  0  0  0  0  0  0  0  0  0
  -27.1290  -26.0670   22.6970 C   0  0  0  0  0  2  0  0  0  0  0  0
  -28.4120  -26.5110   21.8830 C   0  0  0  0  0  2  0  0  0  0  0  0
  -28.2550  -26.6590   20.4450 O   0  0  0  0  0  0  0  0  0  0  0  0
  -24.6490  -31.9060   23.1630 C   0  0  0  0  0  0  0  0  0  0  0  0
  -27.2180  -27.4920   20.1570 C   0  0  0  0  0  0  0  0  0  0  0  0
  -23.3900  -30.4970   21.5240 C   0  0  0  0  0  3  0  0  0  0  0  0
  -24.8440  -28.9890   20.0680 C   0  0  0  0  0  0  0  0  0  0  0  0
  -25.9150  -30.8620   21.3470 C   0  0  0  0  0  2  0  0  0  0  0  0
  -25.9910  -29.5200   20.6730 C   0  0  0  0  0  0  0  0  0  0  0  0
  -27.1900  -28.7970   20.6860 C   0  0  0  0  0  3  0  0  0  0  0  0
  -26.0910  -26.9750   19.4950 C   0  0  0  0  0  3  0  0  0  0  0  0
  -24.9010  -27.7270   19.4390 C   0  0  0  0  0  3  0  0  0  0  0  0
  -23.6050  -29.8560   20.1220 C   0  0  0  0  0  2  0  0  0  0  0  0
  -24.6620  -31.0780   22.0830 N   0  0  0  0  0  0  0  0  0  0  0  0
  -23.5930  -32.2640   23.6520 O   0  0  0  0  0  0  0  0  0  0  0  0
  -22.7220  -29.4420   22.4310 C   0  0  0  0  0  0  0  0  0  0  0  0
  -21.3850  -29.2990   22.3680 N   0  0  0  0  0  0  0  0  0  0  0  0
  -23.4220  -28.7320   23.1370 O   0  0  0  0  0  0  0  0  0  0  0  0
  -20.8890  -29.9570   21.7940 H   0  0  0  0  0  0  0  0  0  0  0  0
  -17.9910  -28.1040   22.8270 C   0  0  0  0  0  0  0  0  0  0  0  0
  -20.5540  -28.3520   23.1310 C   0  0  0  0  0  3  0  0  0  0  0  0
  -20.6520  -26.9100   22.6010 C   0  0  0  0  0  2  0  0  0  0  0  0
  -19.5790  -26.5750   21.5670 C   0  0  0  0  0  2  0  0  0  0  0  0
  -18.1630  -26.7730   22.1170 C   0  0  0  0  0  2  0  0  0  0  0  0
  -19.1040  -28.8260   23.3140 C   0  0  0  0  0  0  0  0  0  0  0  0
  -18.8460  -29.9980   24.0400 C   0  0  0  0  0  3  0  0  0  0  0  0
  -17.5730  -30.5790   24.1130 C   0  0  0  0  0  3  0  0  0  0  0  0
  -16.4800  -29.8800   23.5840 C   0  0  0  0  0  3  0  0  0  0  0  0
  -16.6890  -28.6160   23.0040 C   0  0  0  0  0  3  0  0  0  0  0  0
  -25.9380  -32.5060   23.8200 C   0  0  0  0  0  3  0  0  0  0  0  0
  -26.4630  -31.6960   25.0640 C   0  0  1  0  0  0  0  0  0  0  0  0
  -25.3900  -31.5000   26.1550 C   0  0  0  0  0  1  0  0  0  0  0  0
  -26.9850  -30.3140   24.6260 C   0  0  0  0  0  1  0  0  0  0  0  0
  -27.6560  -32.4320   25.7090 C   0  0  0  0  0  1  0  0  0  0  0  0
  -25.6300  -33.8790   24.2400 N   0  0  0  0  0  0  0  0  0  0  0  0
  -25.9190  -34.9620   23.5150 C   0  0  0  0  0  0  0  0  0  0  0  0
  -26.5520  -34.9040   22.4570 O   0  0  0  0  0  0  0  0  0  0  0  0
  -25.0960  -33.9890   25.0870 H   0  0  0  0  0  0  0  0  0  0  0  0
  -24.1680  -36.7330   23.2740 C   0  0  0  0  0  1  0  0  0  0  0  0
  -25.4340  -36.3220   24.0460 C   0  0  0  0  0  3  0  0  0  0  0  0
  -27.5790  -37.2090   24.8730 C   0  0  0  0  0  1  0  0  0  0  0  0
  -26.4600  -37.3840   23.9450 N   0  0  0  0  0  0  0  0  0  0  0  0
  -26.0520  -38.3000   24.1110 H   0  0  0  0  0  0  0  0  0  0  0  0
  -20.7600  -26.0680   18.4560 C   0  0  0  0  0  0  0  0  0  0  0  0
  -19.9890  -27.0420   17.9410 N   0  0  0  0  0  0  0  0  0  0  0  0
  -21.7850  -26.3330   19.0850 O   0  0  0  0  0  0  0  0  0  0  0  0
  -19.1270  -26.7730   17.4840 H   0  0  0  0  0  0  0  0  0  0  0  0
  -20.3520  -24.5920   18.2370 C   0  0  0  0  0  2  0  0  0  0  0  0
  -20.9450  -23.7260   19.2230 O   0  0  0  0  0  0  0  0  0  0  0  0
  -20.8430  -22.3450   18.8530 C   0  0  0  0  0  2  0  0  0  0  0  0
  -20.9620  -21.3500   20.0280 C   0  0  0  0  0  2  0  0  0  0  0  0
  -22.3160  -21.0760   20.3870 O   0  0  0  0  0  0  0  0  0  0  0  0
  -22.4070  -19.9520   21.2630 C   0  0  0  0  0  2  0  0  0  0  0  0
  -23.8280  -19.8180   21.8300 C   0  0  0  0  0  2  0  0  0  0  0  0
  -26.0980  -19.2440   21.0250 C   0  0  0  0  0  0  0  0  0  0  0  0
  -24.8050  -19.5070   20.7900 N   0  0  0  0  0  0  0  0  0  0  0  0
  -26.5790  -19.2780   22.1610 O   0  0  0  0  0  0  0  0  0  0  0  0
  -24.4750  -19.4890   19.8350 H   0  0  0  0  0  0  0  0  0  0  0  0
  -26.9780  -18.8840   19.8170 C   0  0  0  0  0  2  0  0  0  0  0  0
  -28.3080  -19.3590   20.0210 O   0  0  0  0  0  0  0  0  0  0  0  0
  -29.2040  -18.9460   18.9940 C   0  0  0  0  0  2  0  0  0  0  0  0
  -30.6230  -19.4290   19.3250 C   0  0  0  0  0  2  0  0  0  0  0  0
  -31.0070  -18.8230   20.5460 O   0  0  0  0  0  0  0  0  0  0  0  0
  -32.3570  -19.0650   20.9190 C   0  0  0  0  0  2  0  0  0  0  0  0
  -32.5510  -18.4030   22.2830 C   0  0  0  0  0  2  0  0  0  0  0  0
  -32.3370  -17.0120   22.0970 O   0  0  0  0  0  0  0  0  0  0  0  0
  -31.9040  -16.3510   23.2700 C   0  0  0  0  0  2  0  0  0  0  0  0
  -31.8750  -14.8490   22.9860 C   0  0  0  0  0  2  0  0  0  0  0  0
  -30.8480  -14.2280   20.8090 C   0  0  0  0  0  0  0  0  0  0  0  0
  -30.4000  -12.3010   19.3490 C   0  0  0  0  0  2  0  0  0  0  0  0
  -29.4540  -12.5400   18.1650 C   0  0  0  0  0  2  0  0  0  0  0  0
  -27.9890  -12.3840   18.6030 C   0  0  0  0  0  2  0  0  0  0  0  0
  -27.6560  -13.2080   19.8720 C   0  0  0  0  0  3  0  0  0  0  0  0
  -28.6910  -12.9580   20.9840 C   0  0  0  0  0  2  0  0  0  0  0  0
  -30.0380  -13.2120   20.4400 N   0  0  0  0  0  0  0  0  0  0  0  0
  -31.7620  -14.6720   20.1090 O   0  0  0  0  0  0  0  0  0  0  0  0
  -30.7690  -14.4570   22.1220 N   0  0  0  0  0  0  0  0  0  0  0  0
  -29.9900  -14.0060   22.5780 H   0  0  0  0  0  0  0  0  0  0  0  0
  -25.2550  -13.8140   20.5700 C   0  0  0  0  0  0  0  0  0  0  0  0
  -24.1800  -13.0460   20.9180 C   0  0  0  0  0  0  0  0  0  0  0  0
  -24.6350  -11.6890   20.8750 C   0  0  0  0  0  0  0  0  0  0  0  0
  -26.2980  -12.9360   20.3380 N   0  0  0  0  0  0  0  0  0  0  0  0
  -25.9260  -11.6500   20.5760 N   0  0  0  0  0  0  0  0  0  0  0  0
  -23.9010  -10.4290   21.0400 C   0  0  0  0  0  0  0  0  0  0  0  0
  -24.3580   -9.4190   21.9180 C   0  0  0  0  0  3  0  0  0  0  0  0
  -23.6270   -8.2230   22.0740 C   0  0  0  0  0  3  0  0  0  0  0  0
  -22.4250   -8.0250   21.3530 C   0  0  0  0  0  0  0  0  0  0  0  0
  -21.9880   -9.0230   20.4630 C   0  0  0  0  0  3  0  0  0  0  0  0
  -22.7190  -10.2120   20.3050 C   0  0  0  0  0  3  0  0  0  0  0  0
  -21.6640   -6.8860   21.4220 O   0  0  0  0  0  0  0  0  0  0  0  0
  -21.6850   -6.0700   22.5270 C   0  0  0  0  0  0  0  0  0  0  0  0
  -21.4010   -6.5620   23.8180 C   0  0  0  0  0  3  0  0  0  0  0  0
  -21.3660   -5.6780   24.9160 C   0  0  0  0  0  3  0  0  0  0  0  0
  -21.6040   -4.3040   24.7220 C   0  0  0  0  0  0  0  0  0  0  0  0
  -21.8820   -3.8120   23.4350 C   0  0  0  0  0  3  0  0  0  0  0  0
  -21.9190   -4.6940   22.3390 C   0  0  0  0  0  0  0  0  0  0  0  0
  -22.1660   -4.2110   21.0980 F   0  0  0  0  0  0  0  0  0  0  0  0
  -21.5640   -3.4530   25.7740 F   0  0  0  0  0  0  0  0  0  0  0  0
  -22.7820  -13.5230   21.1890 C   0  0  0  0  0  0  0  0  0  0  0  0
  -22.0470  -12.8220   22.0420 N   0  0  0  0  0  0  0  0  0  0  0  0
  -22.3500  -14.5570   20.6750 O   0  0  0  0  0  0  0  0  0  0  0  0
  -22.4110  -11.9850   22.4780 H   0  0  0  0  0  0  0  0  0  0  0  0
  -21.1080  -13.1190   22.2670 H   0  0  0  0  0  0  0  0  0  0  0  0
  -25.4330  -15.1870   20.4080 N   0  0  0  0  0  0  0  0  0  0  0  0
  -24.6840  -15.8580   20.5310 H   0  0  0  0  0  0  0  0  0  0  0  0
  -26.2980  -15.6000   20.0850 H   0  0  0  0  0  0  0  0  0  0  0  0
  1  2  1  0
  2  4  2  0
  2  3  1  0
  3  6  1  0
  5  3  1  0
  6  7  1  0
  7  8  1  0
  8 10  1  0
  8 11  1  0
  9  7  2  0
 11 12  1  0
 13 12  1  0
 13 14  1  0
 15 14  1  0
 16 17  1  0
 16 15  1  0
 18 17  1  0
 19 21  1  0
 19 18  1  0
 20 19  1  0
 22 19  1  0
 23 22  1  0
 24 23  1  0
 25 36  2  0
 26 24  1  0
 26 31  1  0
 27 35  1  0
 27 37  1  0
 28 34  1  0
 28 30  1  0
 29 35  1  0
 30 31  2  0
 30 29  1  0
 32 26  2  0
 33 32  1  0
 33 28  2  0
 34 27  1  0
 35 25  1  0
 37 39  2  0
 38 37  1  0
 40 38  1  0
 41 50  2  0
 41 46  1  0
 42 38  1  0
 42 46  1  0
 43 42  1  0
 44 45  1  0
 44 43  1  0
 45 41  1  0
 46 47  2  0
 47 48  1  0
 49 48  2  0
 50 49  1  0
 51 25  1  0
 51 56  1  0
 51 52  1  0
 52 55  1  1
 52 53  1  0
 54 52  1  0
 56 59  1  0
 57 61  1  0
 57 56  1  0
 58 57  2  0
 61 60  1  0
 63 61  1  0
 63 64  1  0
 63 62  1  0
 65 67  2  0
 66  1  1  0
 66 65  1  0
 68 66  1  0
 69 65  1  0
 69 70  1  0
 71 70  1  0
 71 72  1  0
 72 73  1  0
 73 74  1  0
 74 75  1  0
 76 78  2  0
 77 76  1  0
 77 75  1  0
 79 77  1  0
 80 81  1  0
 80 76  1  0
 82 83  1  0
 82 81  1  0
 83 84  1  0
 84 85  1  0
 85 86  1  0
 87 86  1  0
 87 88  1  0
 89 88  1  0
 90 98  1  0
 91 96  1  0
 92 93  1  0
 92 91  1  0
 94 93  1  0
 94103  1  0
 94 95  1  0
 96 90  1  0
 96 95  1  0
 97 90  2  0
 98 99  1  0
 98 89  1  0
100101  2  0
101120  1  0
102101  1  0
102105  1  0
103100  1  0
103104  1  0
104102  2  0
105106  1  0
106107  2  0
108111  1  0
108107  1  0
109108  2  0
110109  1  0
110105  2  0
111112  1  0
112113  1  0
113114  2  0
115114  1  0
115119  1  0
116115  2  0
117112  2  0
117116  1  0
118117  1  0
120121  1  0
121124  1  0
121123  1  0
122120  2  0
125126  1  0
125100  1  0
127125  1  0
M  ISO  4  23 101  24 101  90 100  98 100
M  END
>  <TORSDO>  (55) 
F 49

>  <SCORE>  (55) 
58.912

>  <name>  (55) 
58

>  <ligand_id>  (55) 
58

>  <original_smiles>  (55) 
[H]c1c([H])c([H])c2c(c1[H])C([H])([H])C([H])([H])C([H])([H])C2([H])N([H])C(=O)C1([H])N(C(=O)C([H])(N([H])C(=O)C([H])(N([H])C([H])([H])[H])C([H])([H])[H])C(C([H])([H])[H])(C([H])([H])[H])C([H])([H])[H])C([H])([H])c2c([H])c(OC([H])([H])C([H])([H])[N+]([H])([H])C([H])([H])C([H])([H])OC([H])([H])C([H])([H])OC([H])([H])C([H])([H])N([H])C(=O)C([H])([H])N([H])C(=O)C([H])([H])N([H])C(=O)C([H])([H])OC([H])([H])C([H])([H])OC([H])([H])C([H])([H])N([H])C(=O)C([H])([H])OC([H])([H])C([H])([H])OC([H])([H])C([H])([H])OC([H])([H])C([H])([H])N([H])C(=O)N3C([H])([H])C([H])([H])C([H])([H])C([H])(n4nc(-c5c([H])c([H])c(Oc6c([H])c([H])c(F)c([H])c6F)c([H])c5[H])c(C(=O)N([H])[H])c4N([H])[H])C3([H])[H])c([H])c([H])c2C1([H])[H]

>  <smiles>  (55) 
[H]c1c([H])c([H])c2c(c1[H])C([H])([H])C([H])([H])C([H])([H])C2([H])N([H])C(=O)C1([H])N(C(=O)C([H])(N([H])C(=O)C([H])(N([H])C([H])([H])[H])C([H])([H])[H])C(C([H])([H])[H])(C([H])([H])[H])C([H])([H])[H])C([H])([H])c2c([H])c(OC([H])([H])C([H])([H])[N+]([H])([H])C([H])([H])C([H])([H])OC([H])([H])C([H])([H])OC([H])([H])C([H])([H])N([H])C(=O)C([H])([H])N([H])C(=O)C([H])([H])N([H])C(=O)C([H])([H])OC([H])([H])C([H])([H])OC([H])([H])C([H])([H])N([H])C(=O)C([H])([H])OC([H])([H])C([H])([H])OC([H])([H])C([H])([H])OC([H])([H])C([H])([H])N([H])C(=O)N3C([H])([H])C([H])([H])C([H])([H])C([H])(n4nc(-c5c([H])c([H])c(Oc6c([H])c([H])c(F)c([H])c6F)c([H])c5[H])c(C(=O)N([H])[H])c4N([H])[H])C3([H])[H])c([H])c([H])c2C1([H])[H]

$$$$
59:0:0
     RDKit          3D

106113  0  0  1  0  0  0  0  0999 V2000
  -19.9980  -21.2210   21.5820 C   0  0  0  0  0  2  0  0  0  0  0  0
  -21.1150  -20.1730   21.7870 C   0  0  0  0  0  2  0  0  0  0  0  0
  -22.2040  -20.1720   20.7040 C   0  0  0  0  0  2  0  0  0  0  0  0
  -22.7730  -18.7650   20.4440 C   0  0  0  0  0  2  0  0  0  0  0  0
  -25.1030  -18.5590   19.5950 C   0  0  0  0  0  0  0  0  0  0  0  0
  -23.8020  -18.8120   19.4140 N   0  0  0  0  0  0  0  0  0  0  0  0
  -25.5580  -18.1350   20.6620 O   0  0  0  0  0  0  0  0  0  0  0  0
  -23.5120  -19.1130   18.4920 H   0  0  0  0  0  0  0  0  0  0  0  0
  -26.0260  -18.8710   18.4120 C   0  0  0  0  0  2  0  0  0  0  0  0
  -27.3570  -19.0840   18.8770 O   0  0  0  0  0  0  0  0  0  0  0  0
  -28.3150  -18.8360   17.8610 C   0  0  0  0  0  2  0  0  0  0  0  0
  -29.6640  -19.4600   18.2440 C   0  0  0  0  0  2  0  0  0  0  0  0
  -30.8380  -18.6760   17.6450 C   0  0  0  0  0  2  0  0  0  0  0  0
  -31.2090  -17.6480   18.5510 O   0  0  0  0  0  0  0  0  0  0  0  0
  -32.3990  -16.9790   18.1570 C   0  0  0  0  0  2  0  0  0  0  0  0
  -32.9120  -16.1570   19.3400 C   0  0  0  0  0  2  0  0  0  0  0  0
  -32.2190  -13.7810   19.5600 C   0  0  0  0  0  0  0  0  0  0  0  0
  -32.0750  -11.7230   20.8940 C   0  0  0  0  0  2  0  0  0  0  0  0
  -31.3180  -10.5690   20.2220 C   0  0  0  0  0  2  0  0  0  0  0  0
  -29.8150  -10.6760   20.5200 C   0  0  0  0  0  2  0  0  0  0  0  0
  -29.2490  -12.0830   20.1980 C   0  0  0  0  0  3  0  0  0  0  0  0
  -30.1200  -13.1990   20.8210 C   0  0  0  0  0  2  0  0  0  0  0  0
  -31.5250  -13.0010   20.4220 N   0  0  0  0  0  0  0  0  0  0  0  0
  -33.1790  -13.3830   18.8950 O   0  0  0  0  0  0  0  0  0  0  0  0
  -31.9800  -15.0880   19.7040 N   0  0  0  0  0  0  0  0  0  0  0  0
  -31.2000  -15.3510   20.2870 H   0  0  0  0  0  0  0  0  0  0  0  0
  -27.0970  -13.3290   20.8710 C   0  0  0  0  0  0  0  0  0  0  0  0
  -25.8300  -12.8870   21.1410 C   0  0  0  0  0  0  0  0  0  0  0  0
  -25.8720  -11.4650   21.0150 C   0  0  0  0  0  0  0  0  0  0  0  0
  -27.8510  -12.1940   20.6110 N   0  0  0  0  0  0  0  0  0  0  0  0
  -27.1100  -11.0630   20.7500 N   0  0  0  0  0  0  0  0  0  0  0  0
  -24.7970  -10.4660   21.0780 C   0  0  0  0  0  0  0  0  0  0  0  0
  -24.9140   -9.3020   21.8690 C   0  0  0  0  0  3  0  0  0  0  0  0
  -23.8590   -8.3660   21.9280 C   0  0  0  0  0  3  0  0  0  0  0  0
  -22.6700   -8.5900   21.1950 C   0  0  0  0  0  0  0  0  0  0  0  0
  -22.5670   -9.7400   20.3910 C   0  0  0  0  0  3  0  0  0  0  0  0
  -23.6200  -10.6680   20.3290 C   0  0  0  0  0  3  0  0  0  0  0  0
  -21.6030   -7.7240   21.1700 O   0  0  0  0  0  0  0  0  0  0  0  0
  -21.3720   -6.8390   22.1930 C   0  0  0  0  0  0  0  0  0  0  0  0
  -21.0690   -7.2740   23.5010 C   0  0  0  0  0  3  0  0  0  0  0  0
  -20.7690   -6.3310   24.5050 C   0  0  0  0  0  3  0  0  0  0  0  0
  -20.7630   -4.9570   24.2020 C   0  0  0  0  0  0  0  0  0  0  0  0
  -21.0600   -4.5220   22.8990 C   0  0  0  0  0  3  0  0  0  0  0  0
  -21.3600   -5.4610   21.8960 C   0  0  0  0  0  0  0  0  0  0  0  0
  -21.6250   -5.0370   20.6370 F   0  0  0  0  0  0  0  0  0  0  0  0
  -20.4680   -4.0510   25.1640 F   0  0  0  0  0  0  0  0  0  0  0  0
  -24.6240  -13.7410   21.4080 C   0  0  0  0  0  0  0  0  0  0  0  0
  -23.7000  -13.2560   22.2290 N   0  0  0  0  0  0  0  0  0  0  0  0
  -24.5250  -14.8700   20.9310 O   0  0  0  0  0  0  0  0  0  0  0  0
  -23.7910  -12.3380   22.6380 H   0  0  0  0  0  0  0  0  0  0  0  0
  -22.8840  -13.8100   22.4480 H   0  0  0  0  0  0  0  0  0  0  0  0
  -27.6660  -14.5970   20.8040 N   0  0  0  0  0  0  0  0  0  0  0  0
  -27.0840  -15.4220   20.7420 H   0  0  0  0  0  0  0  0  0  0  0  0
  -28.6060  -14.7550   20.4600 H   0  0  0  0  0  0  0  0  0  0  0  0
  -19.9960  -22.4190   22.5570 C   0  0  0  0  0  2  0  0  0  0  0  0
  -21.0530  -23.4860   22.2590 C   0  0  0  0  0  0  0  0  0  0  0  0
  -20.8110  -24.3020   21.2240 N   0  0  0  0  0  0  0  0  0  0  0  0
  -22.0520  -23.5890   22.9700 O   0  0  0  0  0  0  0  0  0  0  0  0
  -19.9560  -24.1570   20.7080 H   0  0  0  0  0  0  0  0  0  0  0  0
  -21.6840  -25.3850   20.7730 C   0  0  0  0  0  2  0  0  0  0  0  0
  -22.5510  -24.9340   19.5870 C   0  0  0  0  0  2  0  0  0  0  0  0
  -23.9810  -25.4860   19.6470 C   0  0  0  0  0  2  0  0  0  0  0  0
  -24.6020  -25.3080   18.3820 O   0  0  0  0  0  0  0  0  0  0  0  0
  -26.0240  -25.3390   18.4360 C   0  0  0  0  0  2  0  0  0  0  0  0
  -26.5930  -26.3200   17.3890 C   0  0  0  0  0  2  0  0  0  0  0  0
  -26.9380  -27.5760   17.9820 O   0  0  0  0  0  0  0  0  0  0  0  0
  -24.8180  -30.8710   23.9020 C   0  0  0  0  0  0  0  0  0  0  0  0
  -25.9490  -28.3350   18.5690 C   0  0  0  0  0  0  0  0  0  0  0  0
  -23.1310  -30.7220   22.0980 C   0  0  0  0  0  3  0  0  0  0  0  0
  -24.0000  -29.9480   19.8310 C   0  0  0  0  0  0  0  0  0  0  0  0
  -25.6290  -30.7510   21.5510 C   0  0  0  0  0  2  0  0  0  0  0  0
  -25.3090  -29.9140   20.3290 C   0  0  0  0  0  0  0  0  0  0  0  0
  -26.2850  -29.1110   19.7010 C   0  0  0  0  0  3  0  0  0  0  0  0
  -24.6240  -28.3920   18.0740 C   0  0  0  0  0  3  0  0  0  0  0  0
  -23.6510  -29.1890   18.7030 C   0  0  0  0  0  3  0  0  0  0  0  0
  -23.0130  -30.8340   20.5540 C   0  0  0  0  0  2  0  0  0  0  0  0
  -24.5540  -30.7600   22.5690 N   0  0  0  0  0  0  0  0  0  0  0  0
  -23.9030  -30.9860   24.7300 O   0  0  0  0  0  0  0  0  0  0  0  0
  -22.3670  -29.4610   22.5610 C   0  0  0  0  0  0  0  0  0  0  0  0
  -21.0270  -29.5100   22.4760 N   0  0  0  0  0  0  0  0  0  0  0  0
  -22.9730  -28.4630   22.9550 O   0  0  0  0  0  0  0  0  0  0  0  0
  -20.6050  -30.3680   22.1510 H   0  0  0  0  0  0  0  0  0  0  0  0
  -17.5560  -28.5230   22.3880 C   0  0  0  0  0  0  0  0  0  0  0  0
  -20.1020  -28.4330   22.8240 C   0  0  0  0  0  3  0  0  0  0  0  0
  -20.1370  -27.3040   21.7670 C   0  0  0  0  0  2  0  0  0  0  0  0
  -19.0860  -27.4800   20.6660 C   0  0  0  0  0  2  0  0  0  0  0  0
  -17.6790  -27.5030   21.2690 C   0  0  0  0  0  2  0  0  0  0  0  0
  -18.6950  -28.9730   23.1060 C   0  0  0  0  0  0  0  0  0  0  0  0
  -18.5300  -29.9520   24.1080 C   0  0  0  0  0  3  0  0  0  0  0  0
  -17.2560  -30.4740   24.4020 C   0  0  0  0  0  3  0  0  0  0  0  0
  -16.1290  -30.0130   23.7000 C   0  0  0  0  0  3  0  0  0  0  0  0
  -16.2810  -29.0370   22.6970 C   0  0  0  0  0  3  0  0  0  0  0  0
  -26.2780  -30.8880   24.4500 C   0  0  0  0  0  3  0  0  0  0  0  0
  -26.6050  -29.6590   25.3850 C   0  0  1  0  0  0  0  0  0  0  0  0
  -25.6030  -29.4780   26.5480 C   0  0  0  0  0  1  0  0  0  0  0  0
  -26.6240  -28.3450   24.5690 C   0  0  0  0  0  1  0  0  0  0  0  0
  -28.0180  -29.8220   25.9920 C   0  0  0  0  0  1  0  0  0  0  0  0
  -26.4660  -32.1540   25.1700 N   0  0  0  0  0  0  0  0  0  0  0  0
  -27.1800  -33.1910   24.7110 C   0  0  0  0  0  0  0  0  0  0  0  0
  -27.8150  -33.1520   23.6540 O   0  0  0  0  0  0  0  0  0  0  0  0
  -25.9340  -32.2760   26.0190 H   0  0  0  0  0  0  0  0  0  0  0  0
  -26.2970  -35.5380   24.8960 C   0  0  0  0  0  1  0  0  0  0  0  0
  -27.1910  -34.4770   25.5580 C   0  0  0  0  0  3  0  0  0  0  0  0
  -29.3770  -34.2050   26.6440 C   0  0  0  0  0  1  0  0  0  0  0  0
  -28.5470  -35.0300   25.7700 N   0  0  0  0  0  0  0  0  0  0  0  0
  -28.4970  -35.9630   26.1690 H   0  0  0  0  0  0  0  0  0  0  0  0
  1  2  1  0
  1 55  1  0
  3  2  1  0
  4  3  1  0
  5  7  2  0
  6  5  1  0
  6  4  1  0
  8  6  1  0
  9 10  1  0
  9  5  1  0
 11 12  1  0
 11 10  1  0
 13 12  1  0
 13 14  1  0
 15 14  1  0
 15 16  1  0
 16 25  1  0
 17 25  1  0
 17 23  1  0
 19 20  1  0
 19 18  1  0
 21 20  1  0
 21 30  1  0
 21 22  1  0
 23 22  1  0
 23 18  1  0
 24 17  2  0
 25 26  1  0
 27 28  2  0
 28 47  1  0
 29 32  1  0
 29 28  1  0
 30 31  1  0
 30 27  1  0
 31 29  2  0
 32 33  1  0
 33 34  2  0
 35 34  1  0
 36 35  2  0
 37 36  1  0
 37 32  2  0
 38 35  1  0
 38 39  1  0
 39 40  1  0
 40 41  2  0
 42 41  1  0
 42 46  1  0
 43 42  2  0
 44 39  2  0
 44 43  1  0
 45 44  1  0
 47 48  1  0
 48 51  1  0
 48 50  1  0
 49 47  2  0
 52 27  1  0
 53 52  1  0
 54 52  1  0
 56 55  1  0
 56 58  2  0
 57 56  1  0
 59 57  1  0
 60 57  1  0
 61 62  1  0
 61 60  1  0
 63 64  1  0
 63 62  1  0
 65 66  1  0
 65 64  1  0
 66 68  1  0
 67 78  2  0
 68 73  1  0
 69 79  1  0
 69 77  1  0
 70 72  1  0
 70 76  1  0
 71 77  1  0
 72 71  1  0
 73 72  2  0
 74 68  2  0
 74 75  1  0
 75 70  2  0
 76 69  1  0
 77 67  1  0
 79 81  2  0
 80 79  1  0
 82 80  1  0
 83 92  2  0
 83 88  1  0
 84 80  1  0
 84 88  1  0
 85 84  1  0
 86 87  1  0
 86 85  1  0
 87 83  1  0
 88 89  2  0
 89 90  1  0
 91 90  2  0
 92 91  1  0
 93 67  1  0
 93 98  1  0
 93 94  1  0
 94 97  1  1
 94 95  1  0
 96 94  1  0
 98101  1  0
 99 98  1  0
 99103  1  0
100 99  2  0
103102  1  0
103105  1  0
105106  1  0
105104  1  0
M  ISO  4  17 100  25 100  65 101  66 101
M  END
>  <TORSDO>  (56) 
F 36

>  <SCORE>  (56) 
9.261

>  <name>  (56) 
59

>  <ligand_id>  (56) 
59

>  <original_smiles>  (56) 
[H]c1c([H])c([H])c2c(c1[H])C([H])([H])C([H])([H])C([H])([H])C2([H])N([H])C(=O)C1([H])N(C(=O)C([H])(N([H])C(=O)C([H])(N([H])C([H])([H])[H])C([H])([H])[H])C(C([H])([H])[H])(C([H])([H])[H])C([H])([H])[H])C([H])([H])c2c([H])c(OC([H])([H])C([H])([H])OC([H])([H])C([H])([H])C([H])([H])N([H])C(=O)C([H])([H])C([H])([H])C([H])([H])C([H])([H])C([H])([H])N([H])C(=O)C([H])([H])OC([H])([H])C([H])([H])C([H])([H])OC([H])([H])C([H])([H])N([H])C(=O)N3C([H])([H])C([H])([H])C([H])([H])C([H])(n4nc(-c5c([H])c([H])c(Oc6c([H])c([H])c(F)c([H])c6F)c([H])c5[H])c(C(=O)N([H])[H])c4N([H])[H])C3([H])[H])c([H])c([H])c2C1([H])[H]

>  <smiles>  (56) 
[H]c1c([H])c([H])c2c(c1[H])C([H])([H])C([H])([H])C([H])([H])C2([H])N([H])C(=O)C1([H])N(C(=O)C([H])(N([H])C(=O)C([H])(N([H])C([H])([H])[H])C([H])([H])[H])C(C([H])([H])[H])(C([H])([H])[H])C([H])([H])[H])C([H])([H])c2c([H])c(OC([H])([H])C([H])([H])OC([H])([H])C([H])([H])C([H])([H])N([H])C(=O)C([H])([H])C([H])([H])C([H])([H])C([H])([H])C([H])([H])N([H])C(=O)C([H])([H])OC([H])([H])C([H])([H])C([H])([H])OC([H])([H])C([H])([H])N([H])C(=O)N3C([H])([H])C([H])([H])C([H])([H])C([H])(n4nc(-c5c([H])c([H])c(Oc6c([H])c([H])c(F)c([H])c6F)c([H])c5[H])c(C(=O)N([H])[H])c4N([H])[H])C3([H])[H])c([H])c([H])c2C1([H])[H]

$$$$
60:0:0
     RDKit          3D

113117  0  0  1  0  0  0  0  0999 V2000
  -29.5260  -17.7120   21.1190 C   0  0  0  0  0  0  0  0  0  0  0  0
  -30.0540  -18.6760   21.8900 N   0  0  0  0  0  0  0  0  0  0  0  0
  -28.3620  -17.7620   20.7150 O   0  0  0  0  0  0  0  0  0  0  0  0
  -30.9960  -18.5240   22.2270 H   0  0  0  0  0  0  0  0  0  0  0  0
  -29.4580  -19.9860   22.1620 C   0  0  0  0  0  2  0  0  0  0  0  0
  -30.3880  -21.1030   21.6440 C   0  0  0  0  0  2  0  0  0  0  0  0
  -29.7960  -22.5210   21.7460 C   0  0  0  0  0  2  0  0  0  0  0  0
  -30.7790  -23.6000   21.2570 C   0  0  0  0  0  2  0  0  0  0  0  0
  -30.1310  -24.9930   21.1010 C   0  0  0  0  0  2  0  0  0  0  0  0
  -31.0060  -25.9900   20.3250 C   0  0  0  0  0  2  0  0  0  0  0  0
  -31.3740  -25.3680   19.1050 O   0  0  0  0  0  0  0  0  0  0  0  0
  -32.4150  -26.0110   18.3750 C   0  0  0  0  0  2  0  0  0  0  0  0
  -33.5140  -24.9630   18.1820 C   0  0  0  0  0  0  0  0  0  0  0  0
  -34.5200  -24.9770   19.0680 N   0  0  0  0  0  0  0  0  0  0  0  0
  -33.4030  -24.1120   17.2980 O   0  0  0  0  0  0  0  0  0  0  0  0
  -34.4920  -25.7000   19.7750 H   0  0  0  0  0  0  0  0  0  0  0  0
  -35.6200  -24.0180   19.1660 C   0  0  0  0  0  2  0  0  0  0  0  0
  -36.9650  -24.6480   18.7620 C   0  0  0  0  0  2  0  0  0  0  0  0
  -37.4470  -24.0080   17.5880 O   0  0  0  0  0  0  0  0  0  0  0  0
  -35.9120  -29.9650   14.0210 C   0  0  0  0  0  0  0  0  0  0  0  0
  -37.0050  -24.5830   16.4300 C   0  0  0  0  0  0  0  0  0  0  0  0
  -35.1940  -27.8450   12.9640 C   0  0  0  0  0  3  0  0  0  0  0  0
  -36.1080  -25.7160   14.0170 C   0  0  0  0  0  0  0  0  0  0  0  0
  -37.2140  -27.9040   14.5230 C   0  0  0  0  0  2  0  0  0  0  0  0
  -36.8810  -26.4810   14.9030 C   0  0  0  0  0  0  0  0  0  0  0  0
  -37.3410  -25.9170   16.1090 C   0  0  0  0  0  3  0  0  0  0  0  0
  -36.2260  -23.8210   15.5380 C   0  0  0  0  0  3  0  0  0  0  0  0
  -35.7720  -24.3850   14.3310 C   0  0  0  0  0  3  0  0  0  0  0  0
  -35.6890  -26.3910   12.7350 C   0  0  0  0  0  2  0  0  0  0  0  0
  -36.0980  -28.6240   13.8690 N   0  0  0  0  0  0  0  0  0  0  0  0
  -35.0360  -30.5670   13.3840 O   0  0  0  0  0  0  0  0  0  0  0  0
  -33.7270  -27.7980   13.4450 C   0  0  0  0  0  0  0  0  0  0  0  0
  -32.7990  -27.5620   12.5040 N   0  0  0  0  0  0  0  0  0  0  0  0
  -33.4470  -27.9430   14.6400 O   0  0  0  0  0  0  0  0  0  0  0  0
  -33.1180  -27.4360   11.5550 H   0  0  0  0  0  0  0  0  0  0  0  0
  -29.6330  -26.9520   10.8650 C   0  0  0  0  0  0  0  0  0  0  0  0
  -31.3580  -27.4470   12.7280 C   0  0  0  0  0  3  0  0  0  0  0  0
  -30.9990  -26.0550   13.2910 C   0  0  0  0  0  2  0  0  0  0  0  0
  -30.6160  -25.0430   12.2070 C   0  0  0  0  0  2  0  0  0  0  0  0
  -29.4150  -25.5490   11.4030 C   0  0  0  0  0  2  0  0  0  0  0  0
  -30.5570  -27.8380   11.4800 C   0  0  0  0  0  0  0  0  0  0  0  0
  -30.7500  -29.1210   10.9190 C   0  0  0  0  0  3  0  0  0  0  0  0
  -30.0360  -29.5210    9.7730 C   0  0  0  0  0  3  0  0  0  0  0  0
  -29.1100  -28.6440    9.1790 C   0  0  0  0  0  3  0  0  0  0  0  0
  -28.9100  -27.3640    9.7250 C   0  0  0  0  0  3  0  0  0  0  0  0
  -36.8010  -30.8100   14.9820 C   0  0  0  0  0  3  0  0  0  0  0  0
  -37.1680  -32.0450   14.2740 N   0  0  0  0  0  0  0  0  0  0  0  0
  -38.3290  -32.2330   13.6310 C   0  0  0  0  0  0  0  0  0  0  0  0
  -39.2430  -31.4030   13.6410 O   0  0  0  0  0  0  0  0  0  0  0  0
  -36.4440  -32.7390   14.1710 H   0  0  0  0  0  0  0  0  0  0  0  0
  -38.2500  -33.3080   11.3610 C   0  0  0  0  0  1  0  0  0  0  0  0
  -38.5080  -33.5510   12.8560 C   0  0  0  0  0  3  0  0  0  0  0  0
  -40.0620  -34.6690   14.3950 C   0  0  0  0  0  1  0  0  0  0  0  0
  -39.8410  -34.1690   13.0400 N   0  0  0  0  0  0  0  0  0  0  0  0
  -39.9790  -34.9380   12.3900 H   0  0  0  0  0  0  0  0  0  0  0  0
  -36.1000  -31.1380   16.3570 C   0  0  1  0  0  0  0  0  0  0  0  0
  -34.6940  -31.7690   16.2090 C   0  0  0  0  0  1  0  0  0  0  0  0
  -35.9490  -29.8570   17.2090 C   0  0  0  0  0  1  0  0  0  0  0  0
  -36.9860  -32.1080   17.1730 C   0  0  0  0  0  1  0  0  0  0  0  0
  -30.4570  -16.5500   20.7160 C   0  0  0  0  0  2  0  0  0  0  0  0
  -29.7050  -15.5040   20.0960 O   0  0  0  0  0  0  0  0  0  0  0  0
  -30.1170  -14.1940   20.4660 C   0  0  0  0  0  2  0  0  0  0  0  0
  -29.1990  -13.1610   19.7800 C   0  0  0  0  0  2  0  0  0  0  0  0
  -27.7730  -13.7010   19.5650 C   0  0  0  0  0  2  0  0  0  0  0  0
  -26.7490  -12.6850   19.0160 C   0  0  0  0  0  2  0  0  0  0  0  0
  -25.4730  -13.4270   16.9580 C   0  0  0  0  0  0  0  0  0  0  0  0
  -25.6740  -13.3670   18.2850 N   0  0  0  0  0  0  0  0  0  0  0  0
  -26.1720  -12.8110   16.1480 O   0  0  0  0  0  0  0  0  0  0  0  0
  -25.0320  -13.9050   18.8520 H   0  0  0  0  0  0  0  0  0  0  0  0
  -24.3260  -14.3420   16.4720 C   0  0  0  0  0  2  0  0  0  0  0  0
  -24.8210  -15.2790   15.5070 O   0  0  0  0  0  0  0  0  0  0  0  0
  -23.9100  -16.3270   15.1850 C   0  0  0  0  0  2  0  0  0  0  0  0
  -24.6380  -17.5220   14.5180 C   0  0  0  0  0  2  0  0  0  0  0  0
  -24.9400  -18.7430   15.4390 C   0  0  0  0  0  2  0  0  0  0  0  0
  -26.4410  -19.1320   15.5160 C   0  0  0  0  0  2  0  0  0  0  0  0
  -27.6990  -20.5130   17.8890 C   0  0  2  0  0  0  0  0  0  0  0  0
  -26.4490  -19.8990   18.7050 C   0  0  0  0  0  1  0  0  0  0  0  0
  -27.2480  -18.2290   18.2480 C   0  0  0  0  0  1  0  0  0  0  0  0
  -28.6020  -18.1940   17.0880 C   0  0  0  0  0  2  0  0  0  0  0  0
  -29.3960  -19.6430   16.4620 C   0  0  0  0  0  2  0  0  0  0  0  0
  -28.7060  -21.3290   16.9090 C   0  0  0  0  0  1  0  0  0  0  0  0
  -27.2470  -21.3630   17.9620 N   0  0  0  0  0  1  0  0  0  0  0  0
  -28.5850  -20.3250   18.9360 O   0  0  0  0  0  1  0  0  0  0  0  0
  -26.8380  -20.1560   16.5330 N   0  0  0  0  0  2  0  0  0  0  0  0
  -26.3110  -20.9960   16.3500 H   0  0  0  0  0  0  0  0  0  0  0  0
  -31.2420  -19.4130   14.6960 C   0  0  0  0  0  0  0  0  0  0  0  0
  -31.2640  -19.3080   13.3320 C   0  0  0  0  0  0  0  0  0  0  0  0
  -29.9000  -19.3360   12.9080 C   0  0  0  0  0  0  0  0  0  0  0  0
  -29.9170  -19.5230   15.0760 N   0  0  0  0  0  0  0  0  0  0  0  0
  -29.1100  -19.5180   13.9690 N   0  0  0  0  0  0  0  0  0  0  0  0
  -29.3220  -19.1610   11.5610 C   0  0  0  0  0  0  0  0  0  0  0  0
  -28.4200  -20.0970   11.0010 C   0  0  0  0  0  3  0  0  0  0  0  0
  -27.9160  -19.9200    9.6910 C   0  0  0  0  0  3  0  0  0  0  0  0
  -28.3120  -18.8020    8.9220 C   0  0  0  0  0  0  0  0  0  0  0  0
  -29.1920  -17.8620    9.4860 C   0  0  0  0  0  3  0  0  0  0  0  0
  -29.6900  -18.0370   10.7910 C   0  0  0  0  0  3  0  0  0  0  0  0
  -27.8550  -18.5330    7.6530 O   0  0  0  0  0  0  0  0  0  0  0  0
  -27.4070  -19.5250    6.8200 C   0  0  0  0  0  0  0  0  0  0  0  0
  -28.2310  -20.6090    6.4480 C   0  0  0  0  0  3  0  0  0  0  0  0
  -27.7610  -21.5680    5.5320 C   0  0  0  0  0  3  0  0  0  0  0  0
  -26.4700  -21.4440    4.9800 C   0  0  0  0  0  0  0  0  0  0  0  0
  -25.6500  -20.3630    5.3450 C   0  0  0  0  0  3  0  0  0  0  0  0
  -26.1180  -19.4040    6.2600 C   0  0  0  0  0  0  0  0  0  0  0  0
  -25.3330  -18.3460    6.5870 F   0  0  0  0  0  0  0  0  0  0  0  0
  -26.0180  -22.3660    4.1010 F   0  0  0  0  0  0  0  0  0  0  0  0
  -32.4840  -19.1340   12.4780 C   0  0  0  0  0  0  0  0  0  0  0  0
  -32.4890  -19.7160   11.2850 N   0  0  0  0  0  0  0  0  0  0  0  0
  -33.4720  -18.5250   12.8910 O   0  0  0  0  0  0  0  0  0  0  0  0
  -31.6890  -20.2350   10.9530 H   0  0  0  0  0  0  0  0  0  0  0  0
  -33.3000  -19.6360   10.6880 H   0  0  0  0  0  0  0  0  0  0  0  0
  -32.2570  -19.4320   15.6470 N   0  0  0  0  0  0  0  0  0  0  0  0
  -33.2310  -19.3710   15.3820 H   0  0  0  0  0  0  0  0  0  0  0  0
  -32.1340  -19.6490   16.6350 H   0  0  0  0  0  0  0  0  0  0  0  0
  1  2  1  0
  2  5  1  0
  2  4  1  0
  3  1  2  0
  6  7  1  0
  6  5  1  0
  8  7  1  0
  9  8  1  0
 10  9  1  0
 11 10  1  0
 12 11  1  0
 13 12  1  0
 13 14  1  0
 14 17  1  0
 14 16  1  0
 15 13  2  0
 18 17  1  0
 19 18  1  0
 21 19  1  0
 22 32  1  0
 22 30  1  0
 23 28  2  0
 23 25  1  0
 24 25  1  0
 25 26  2  0
 26 21  1  0
 27 21  2  0
 28 27  1  0
 29 22  1  0
 29 23  1  0
 30 20  1  0
 30 24  1  0
 31 20  2  0
 32 34  2  0
 33 32  1  0
 35 33  1  0
 36 40  1  0
 36 41  1  0
 37 33  1  0
 37 38  1  0
 39 38  1  0
 40 39  1  0
 41 37  1  0
 42 41  2  0
 43 42  1  0
 44 45  1  0
 44 43  2  0
 45 36  2  0
 46 20  1  0
 46 56  1  0
 47 46  1  0
 48 49  2  0
 48 47  1  0
 50 47  1  0
 52 51  1  0
 52 54  1  0
 52 48  1  0
 54 53  1  0
 55 54  1  0
 56 59  1  1
 56 58  1  0
 57 56  1  0
 60  1  1  0
 61 62  1  0
 61 60  1  0
 63 62  1  0
 64 63  1  0
 65 64  1  0
 66 67  1  0
 67 69  1  0
 67 65  1  0
 68 66  2  0
 70 66  1  0
 71 70  1  0
 72 71  1  0
 73 72  1  0
 73 74  1  0
 74 75  1  0
 75 84  1  0
 76 82  1  0
 76 77  1  6
 76 83  1  0
 79 78  1  0
 80 79  1  0
 81 76  1  0
 85 84  1  0
 86 89  1  0
 86111  1  0
 87 86  2  0
 88 87  1  0
 88 90  2  0
 89 80  1  0
 90 89  1  0
 91 88  1  0
 92 91  1  0
 93 92  2  0
 94 95  2  0
 94 93  1  0
 95 96  1  0
 96 91  2  0
 97 94  1  0
 98 97  1  0
 99 98  1  0
100 99  2  0
101102  2  0
101100  1  0
102103  1  0
103104  1  0
103 98  2  0
105101  1  0
106108  2  0
106 87  1  0
107106  1  0
109107  1  0
110107  1  0
111113  1  0
112111  1  0
M  ISO  4  18 101  19 101  76 100  84 100
M  END
>  <TORSDO>  (57) 
F 40

>  <SCORE>  (57) 
18.113

>  <name>  (57) 
60

>  <ligand_id>  (57) 
60

>  <original_smiles>  (57) 
[H]c1c([H])c([H])c2c(c1[H])C([H])([H])C([H])([H])C([H])([H])C2([H])N([H])C(=O)C1([H])N(C(=O)C([H])(N([H])C(=O)C([H])(N([H])C([H])([H])[H])C([H])([H])[H])C(C([H])([H])[H])(C([H])([H])[H])C([H])([H])[H])C([H])([H])c2c([H])c(OC([H])([H])C([H])([H])N([H])C(=O)C([H])([H])OC([H])([H])C([H])([H])C([H])([H])C([H])([H])C([H])([H])C([H])([H])N([H])C(=O)C([H])([H])OC([H])([H])C([H])([H])C([H])([H])C([H])([H])N([H])C(=O)C([H])([H])OC([H])([H])C([H])([H])C([H])([H])C([H])([H])N([H])C(=O)N3C([H])([H])C([H])([H])C([H])([H])C([H])(n4nc(-c5c([H])c([H])c(Oc6c([H])c([H])c(F)c([H])c6F)c([H])c5[H])c(C(=O)N([H])[H])c4N([H])[H])C3([H])[H])c([H])c([H])c2C1([H])[H]

>  <smiles>  (57) 
[H]c1c([H])c([H])c2c(c1[H])C([H])([H])C([H])([H])C([H])([H])C2([H])N([H])C(=O)C1([H])N(C(=O)C([H])(N([H])C(=O)C([H])(N([H])C([H])([H])[H])C([H])([H])[H])C(C([H])([H])[H])(C([H])([H])[H])C([H])([H])[H])C([H])([H])c2c([H])c(OC([H])([H])C([H])([H])N([H])C(=O)C([H])([H])OC([H])([H])C([H])([H])C([H])([H])C([H])([H])C([H])([H])C([H])([H])N([H])C(=O)C([H])([H])OC([H])([H])C([H])([H])C([H])([H])C([H])([H])N([H])C(=O)C([H])([H])OC([H])([H])C([H])([H])C([H])([H])C([H])([H])N([H])C(=O)N3C([H])([H])C([H])([H])C([H])([H])C([H])(n4nc(-c5c([H])c([H])c(Oc6c([H])c([H])c(F)c([H])c6F)c([H])c5[H])c(C(=O)N([H])[H])c4N([H])[H])C3([H])[H])c([H])c([H])c2C1([H])[H]

$$$$
61:0:0
     RDKit          3D

105109  0  0  1  0  0  0  0  0999 V2000
  -22.5330  -18.6650   20.6440 C   0  0  0  0  0  0  0  0  0  0  0  0
  -23.8000  -18.2270   20.5180 N   0  0  0  0  0  0  0  0  0  0  0  0
  -22.1450  -19.6960   20.0860 O   0  0  0  0  0  0  0  0  0  0  0  0
  -24.0740  -17.4030   21.0370 H   0  0  0  0  0  0  0  0  0  0  0  0
  -24.8420  -18.9290   19.7540 C   0  0  0  0  0  2  0  0  0  0  0  0
  -25.9870  -18.0290   19.2400 C   0  0  0  0  0  2  0  0  0  0  0  0
  -26.6420  -17.3060   20.2840 O   0  0  0  0  0  0  0  0  0  0  0  0
  -27.9900  -16.9620   19.9360 C   0  0  0  0  0  2  0  0  0  0  0  0
  -28.4860  -15.7240   20.7030 C   0  0  0  0  0  2  0  0  0  0  0  0
  -29.8540  -15.4250   20.4030 O   0  0  0  0  0  0  0  0  0  0  0  0
  -30.1720  -14.0450   20.5750 C   0  0  0  0  0  2  0  0  0  0  0  0
  -31.6700  -13.7240   20.3590 C   0  0  0  0  0  2  0  0  0  0  0  0
  -32.0060  -13.5210   18.9800 O   0  0  0  0  0  0  0  0  0  0  0  0
  -38.5790  -15.9610   18.0070 C   0  0  0  0  0  0  0  0  0  0  0  0
  -32.7840  -14.5210   18.4670 C   0  0  0  0  0  0  0  0  0  0  0  0
  -36.7580  -17.5870   17.6080 C   0  0  0  0  0  3  0  0  0  0  0  0
  -34.4040  -16.6070   17.5000 C   0  0  0  0  0  0  0  0  0  0  0  0
  -36.3790  -15.0890   17.2510 C   0  0  0  0  0  2  0  0  0  0  0  0
  -34.9290  -15.3130   17.6260 C   0  0  0  0  0  0  0  0  0  0  0  0
  -34.1180  -14.2650   18.1010 C   0  0  0  0  0  3  0  0  0  0  0  0
  -32.2560  -15.8190   18.3270 C   0  0  0  0  0  3  0  0  0  0  0  0
  -33.0650  -16.8630   17.8440 C   0  0  0  0  0  3  0  0  0  0  0  0
  -35.3420  -17.6720   16.9760 C   0  0  0  0  0  2  0  0  0  0  0  0
  -37.2810  -16.1850   17.6610 N   0  0  0  0  0  0  0  0  0  0  0  0
  -39.3470  -16.9040   18.2440 O   0  0  0  0  0  0  0  0  0  0  0  0
  -36.7140  -18.2690   18.9940 C   0  0  0  0  0  0  0  0  0  0  0  0
  -36.8800  -19.6030   19.0100 N   0  0  0  0  0  0  0  0  0  0  0  0
  -36.5060  -17.6120   20.0200 O   0  0  0  0  0  0  0  0  0  0  0  0
  -37.0520  -20.0600   18.1270 H   0  0  0  0  0  0  0  0  0  0  0  0
  -37.2980  -23.0040   20.1380 C   0  0  0  0  0  0  0  0  0  0  0  0
  -36.8410  -20.4640   20.1930 C   0  0  0  0  0  3  0  0  0  0  0  0
  -35.3860  -20.8340   20.5630 C   0  0  0  0  0  2  0  0  0  0  0  0
  -34.9260  -22.1480   19.9170 C   0  0  0  0  0  2  0  0  0  0  0  0
  -35.8250  -23.3030   20.3650 C   0  0  0  0  0  2  0  0  0  0  0  0
  -37.7730  -21.6690   20.0380 C   0  0  0  0  0  0  0  0  0  0  0  0
  -39.1470  -21.4440   19.7880 C   0  0  0  0  0  3  0  0  0  0  0  0
  -40.0370  -22.5240   19.6420 C   0  0  0  0  0  3  0  0  0  0  0  0
  -39.5630  -23.8450   19.7480 C   0  0  0  0  0  3  0  0  0  0  0  0
  -38.1990  -24.0800   20.0040 C   0  0  0  0  0  3  0  0  0  0  0  0
  -39.1670  -14.5190   18.1040 C   0  0  0  0  0  3  0  0  0  0  0  0
  -40.3720  -14.4820   17.2700 N   0  0  0  0  0  0  0  0  0  0  0  0
  -40.4220  -13.9990   16.0200 C   0  0  0  0  0  0  0  0  0  0  0  0
  -39.4530  -13.4770   15.4670 O   0  0  0  0  0  0  0  0  0  0  0  0
  -41.1790  -14.9670   17.6320 H   0  0  0  0  0  0  0  0  0  0  0  0
  -41.6970  -15.3300   14.2970 C   0  0  0  0  0  1  0  0  0  0  0  0
  -41.7610  -14.1340   15.2610 C   0  0  0  0  0  3  0  0  0  0  0  0
  -42.4900  -11.7950   15.3790 C   0  0  0  0  0  1  0  0  0  0  0  0
  -42.1400  -12.9170   14.5140 N   0  0  0  0  0  0  0  0  0  0  0  0
  -42.9290  -13.0980   13.8980 H   0  0  0  0  0  0  0  0  0  0  0  0
  -39.4970  -14.0760   19.5810 C   0  0  1  0  0  0  0  0  0  0  0  0
  -40.3980  -15.0740   20.3520 C   0  0  0  0  0  1  0  0  0  0  0  0
  -38.1920  -13.8890   20.3910 C   0  0  0  0  0  1  0  0  0  0  0  0
  -40.2160  -12.7060   19.5630 C   0  0  0  0  0  1  0  0  0  0  0  0
  -21.5710  -17.8410   21.5230 C   0  0  0  0  0  2  0  0  0  0  0  0
  -20.2980  -18.4950   21.6490 O   0  0  0  0  0  0  0  0  0  0  0  0
  -20.2090  -19.3980   22.7540 C   0  0  0  0  0  2  0  0  0  0  0  0
  -18.7350  -19.6170   23.1490 C   0  0  0  0  0  2  0  0  0  0  0  0
  -18.3470  -21.0520   23.6000 C   0  0  0  0  0  2  0  0  0  0  0  0
  -16.1490  -22.3020   23.5840 C   0  0  0  0  0  0  0  0  0  0  0  0
  -17.0990  -21.5450   23.0010 N   0  0  0  0  0  0  0  0  0  0  0  0
  -16.1180  -22.5270   24.7960 O   0  0  0  0  0  0  0  0  0  0  0  0
  -17.0010  -21.4130   22.0020 H   0  0  0  0  0  0  0  0  0  0  0  0
  -15.1260  -22.9350   22.6270 C   0  0  0  0  0  2  0  0  0  0  0  0
  -14.0730  -23.7220   23.2370 O   0  0  0  0  0  0  0  0  0  0  0  0
  -13.1920  -24.1830   22.1910 C   0  0  0  0  0  2  0  0  0  0  0  0
  -11.8450  -24.8690   22.4770 C   0  0  0  0  0  2  0  0  0  0  0  0
  -10.7720  -24.5720   21.3620 C   0  0  0  0  0  2  0  0  0  0  0  0
   -9.3900  -21.9760   20.7730 C   0  0  2  0  0  0  0  0  0  0  0  0
   -9.9400  -22.6520   19.4290 C   0  0  0  0  0  1  0  0  0  0  0  0
  -11.6510  -22.1010   20.1080 C   0  0  0  0  0  1  0  0  0  0  0  0
  -11.7250  -21.4370   21.7580 C   0  0  0  0  0  2  0  0  0  0  0  0
  -10.3230  -21.2100   22.8340 C   0  0  0  0  0  2  0  0  0  0  0  0
   -8.6170  -21.6280   22.1750 C   0  0  0  0  0  1  0  0  0  0  0  0
   -8.5370  -22.3850   20.5600 N   0  0  0  0  0  1  0  0  0  0  0  0
   -9.4940  -20.6760   20.2840 O   0  0  0  0  0  1  0  0  0  0  0  0
   -9.9020  -23.3530   21.5460 N   0  0  0  0  0  2  0  0  0  0  0  0
   -9.0660  -23.6920   22.0020 H   0  0  0  0  0  0  0  0  0  0  0  0
  -10.8420  -20.7610   25.2940 C   0  0  0  0  0  0  0  0  0  0  0  0
  -10.8850  -21.5210   26.4310 C   0  0  0  0  0  0  0  0  0  0  0  0
  -10.5980  -22.8600   26.0430 C   0  0  0  0  0  0  0  0  0  0  0  0
  -10.5100  -21.6070   24.2560 N   0  0  0  0  0  0  0  0  0  0  0  0
  -10.3030  -22.8760   24.7380 N   0  0  0  0  0  0  0  0  0  0  0  0
  -10.6310  -24.1030   26.8600 C   0  0  0  0  0  0  0  0  0  0  0  0
   -9.4950  -24.9160   27.0770 C   0  0  0  0  0  3  0  0  0  0  0  0
   -9.5690  -26.0670   27.8970 C   0  0  0  0  0  3  0  0  0  0  0  0
  -10.7870  -26.4210   28.5230 C   0  0  0  0  0  0  0  0  0  0  0  0
  -11.9230  -25.6260   28.2920 C   0  0  0  0  0  3  0  0  0  0  0  0
  -11.8420  -24.4830   27.4800 C   0  0  0  0  0  3  0  0  0  0  0  0
  -10.9560  -27.5430   29.3060 O   0  0  0  0  0  0  0  0  0  0  0  0
   -9.9600  -28.0020   30.1320 C   0  0  0  0  0  0  0  0  0  0  0  0
   -9.4430  -27.2170   31.1850 C   0  0  0  0  0  3  0  0  0  0  0  0
   -8.4770  -27.7570   32.0610 C   0  0  0  0  0  3  0  0  0  0  0  0
   -8.0280  -29.0790   31.8830 C   0  0  0  0  0  0  0  0  0  0  0  0
   -8.5410  -29.8640   30.8340 C   0  0  0  0  0  3  0  0  0  0  0  0
   -9.5050  -29.3280   29.9630 C   0  0  0  0  0  0  0  0  0  0  0  0
  -10.0160  -30.0980   28.9710 F   0  0  0  0  0  0  0  0  0  0  0  0
   -7.0990  -29.5990   32.7190 F   0  0  0  0  0  0  0  0  0  0  0  0
  -11.2500  -21.0090   27.7950 C   0  0  0  0  0  0  0  0  0  0  0  0
  -10.5930  -21.5090   28.8390 N   0  0  0  0  0  0  0  0  0  0  0  0
  -12.0780  -20.1130   27.9240 O   0  0  0  0  0  0  0  0  0  0  0  0
   -9.8860  -22.2170   28.7270 H   0  0  0  0  0  0  0  0  0  0  0  0
  -10.8060  -21.1970   29.7760 H   0  0  0  0  0  0  0  0  0  0  0  0
  -11.0600  -19.4060   25.0820 N   0  0  0  0  0  0  0  0  0  0  0  0
  -11.3430  -18.8220   25.8640 H   0  0  0  0  0  0  0  0  0  0  0  0
  -10.9350  -18.8910   24.2230 H   0  0  0  0  0  0  0  0  0  0  0  0
  1 54  1  0
  2  1  1  0
  2  4  1  0
  3  1  2  0
  5  2  1  0
  6  5  1  0
  6  7  1  0
  8  7  1  0
  8  9  1  0
 10 11  1  0
 10  9  1  0
 12 11  1  0
 13 12  1  0
 14 25  2  0
 15 13  1  0
 16 24  1  0
 16 26  1  0
 17 19  2  0
 17 22  1  0
 18 19  1  0
 18 24  1  0
 19 20  1  0
 20 15  2  0
 21 15  1  0
 22 21  2  0
 23 17  1  0
 23 16  1  0
 24 14  1  0
 26 27  1  0
 26 28  2  0
 29 27  1  0
 30 34  1  0
 31 27  1  0
 31 32  1  0
 33 34  1  0
 33 32  1  0
 35 30  1  0
 35 31  1  0
 36 35  2  0
 37 38  2  0
 37 36  1  0
 38 39  1  0
 39 30  2  0
 40 14  1  0
 40 50  1  0
 41 44  1  0
 41 40  1  0
 42 41  1  0
 43 42  2  0
 46 45  1  0
 46 42  1  0
 48 46  1  0
 48 47  1  0
 49 48  1  0
 50 51  1  1
 50 52  1  0
 53 50  1  0
 54 55  1  0
 55 56  1  0
 56 57  1  0
 57 58  1  0
 59 61  2  0
 60 59  1  0
 60 58  1  0
 62 60  1  0
 63 64  1  0
 63 59  1  0
 65 66  1  0
 65 64  1  0
 67 76  1  0
 67 66  1  0
 68 73  1  1
 69 68  1  0
 70 71  1  0
 71 72  1  0
 72 81  1  0
 74 68  1  0
 75 68  1  0
 76 77  1  0
 78 79  2  0
 79 98  1  0
 80 79  1  0
 80 83  1  0
 81 82  1  0
 81 78  1  0
 82 80  2  0
 83 84  2  0
 83 88  1  0
 84 85  1  0
 85 86  2  0
 86 89  1  0
 87 86  1  0
 88 87  2  0
 89 90  1  0
 90 91  1  0
 91 92  2  0
 93 92  1  0
 93 97  1  0
 94 93  2  0
 95 90  2  0
 95 94  1  0
 96 95  1  0
 98100  2  0
 98 99  1  0
 99102  1  0
101 99  1  0
103 78  1  0
103104  1  0
105103  1  0
M  ISO  4  12 101  13 101  68 100  76 100
M  END
>  <TORSDO>  (58) 
F 35

>  <SCORE>  (58) 
16.932

>  <name>  (58) 
61

>  <ligand_id>  (58) 
61

>  <original_smiles>  (58) 
[H]c1c([H])c([H])c2c(c1[H])C([H])([H])C([H])([H])C([H])([H])C2([H])N([H])C(=O)C1([H])N(C(=O)C([H])(N([H])C(=O)C([H])(N([H])C([H])([H])[H])C([H])([H])[H])C(C([H])([H])[H])(C([H])([H])[H])C([H])([H])[H])C([H])([H])c2c([H])c(OC([H])([H])C([H])([H])OC([H])([H])C([H])([H])OC([H])([H])C([H])([H])N([H])C(=O)C([H])([H])OC([H])([H])C([H])([H])C([H])([H])N([H])C(=O)C([H])([H])OC([H])([H])C([H])([H])C([H])([H])N([H])C(=O)N3C([H])([H])C([H])([H])C([H])([H])C([H])(n4nc(-c5c([H])c([H])c(Oc6c([H])c([H])c(F)c([H])c6F)c([H])c5[H])c(C(=O)N([H])[H])c4N([H])[H])C3([H])[H])c([H])c([H])c2C1([H])[H]

>  <smiles>  (58) 
[H]c1c([H])c([H])c2c(c1[H])C([H])([H])C([H])([H])C([H])([H])C2([H])N([H])C(=O)C1([H])N(C(=O)C([H])(N([H])C(=O)C([H])(N([H])C([H])([H])[H])C([H])([H])[H])C(C([H])([H])[H])(C([H])([H])[H])C([H])([H])[H])C([H])([H])c2c([H])c(OC([H])([H])C([H])([H])OC([H])([H])C([H])([H])OC([H])([H])C([H])([H])N([H])C(=O)C([H])([H])OC([H])([H])C([H])([H])C([H])([H])N([H])C(=O)C([H])([H])OC([H])([H])C([H])([H])C([H])([H])N([H])C(=O)N3C([H])([H])C([H])([H])C([H])([H])C([H])(n4nc(-c5c([H])c([H])c(Oc6c([H])c([H])c(F)c([H])c6F)c([H])c5[H])c(C(=O)N([H])[H])c4N([H])[H])C3([H])[H])c([H])c([H])c2C1([H])[H]

$$$$
62:0:0
     RDKit          3D

107114  0  0  1  0  0  0  0  0999 V2000
  -23.9800  -23.8930   22.3560 C   0  0  0  0  0  0  0  0  0  0  0  0
  -23.6920  -25.1170   21.8920 N   0  0  0  0  0  0  0  0  0  0  0  0
  -24.8670  -23.1790   21.8790 O   0  0  0  0  0  0  0  0  0  0  0  0
  -22.9300  -25.5980   22.3590 H   0  0  0  0  0  0  0  0  0  0  0  0
  -24.2600  -25.8180   20.7420 C   0  0  0  0  0  2  0  0  0  0  0  0
  -25.7100  -25.4070   20.3760 C   0  0  0  0  0  2  0  0  0  0  0  0
  -25.8090  -24.7320   18.9920 C   0  0  0  0  0  2  0  0  0  0  0  0
  -27.2170  -24.2090   18.6730 C   0  0  0  0  0  2  0  0  0  0  0  0
  -27.1460  -23.4500   17.4660 O   0  0  0  0  0  0  0  0  0  0  0  0
  -28.4020  -23.2110   16.8160 C   0  0  0  0  0  2  0  0  0  0  0  0
  -29.1910  -22.0730   17.4760 C   0  0  0  0  0  0  0  0  0  0  0  0
  -28.6530  -21.5190   18.5700 N   0  0  0  0  0  0  0  0  0  0  0  0
  -30.2650  -21.6990   16.9970 O   0  0  0  0  0  0  0  0  0  0  0  0
  -27.7540  -21.8850   18.8550 H   0  0  0  0  0  0  0  0  0  0  0  0
  -29.2960  -20.5210   19.4210 C   0  0  0  0  0  2  0  0  0  0  0  0
  -30.0680  -21.2170   20.5590 C   0  0  0  0  0  2  0  0  0  0  0  0
  -31.2830  -20.5380   20.8860 O   0  0  0  0  0  0  0  0  0  0  0  0
  -38.0830  -19.9450   18.8830 C   0  0  0  0  0  0  0  0  0  0  0  0
  -32.1530  -20.1960   19.8660 C   0  0  0  0  0  0  0  0  0  0  0  0
  -36.4060  -19.6210   17.0890 C   0  0  0  0  0  3  0  0  0  0  0  0
  -33.9920  -19.4080   17.8610 C   0  0  0  0  0  0  0  0  0  0  0  0
  -35.8300  -19.1050   19.5260 C   0  0  0  0  0  2  0  0  0  0  0  0
  -34.3970  -19.4640   19.2010 C   0  0  0  0  0  0  0  0  0  0  0  0
  -33.4810  -19.8460   20.2040 C   0  0  0  0  0  3  0  0  0  0  0  0
  -31.7760  -20.1640   18.5030 C   0  0  0  0  0  3  0  0  0  0  0  0
  -32.6820  -19.7640   17.5060 C   0  0  0  0  0  3  0  0  0  0  0  0
  -35.0220  -18.9670   16.8520 C   0  0  0  0  0  2  0  0  0  0  0  0
  -36.8130  -19.5930   18.5330 N   0  0  0  0  0  0  0  0  0  0  0  0
  -38.9210  -20.2500   18.0200 O   0  0  0  0  0  0  0  0  0  0  0  0
  -36.3940  -21.0430   16.4860 C   0  0  0  0  0  0  0  0  0  0  0  0
  -36.6140  -21.1320   15.1650 N   0  0  0  0  0  0  0  0  0  0  0  0
  -36.1720  -22.0270   17.1940 O   0  0  0  0  0  0  0  0  0  0  0  0
  -36.8010  -20.2790   14.6590 H   0  0  0  0  0  0  0  0  0  0  0  0
  -37.0860  -22.4340   11.8320 C   0  0  0  0  0  0  0  0  0  0  0  0
  -36.6120  -22.3590   14.3720 C   0  0  0  0  0  3  0  0  0  0  0  0
  -35.1670  -22.7810   14.0120 C   0  0  0  0  0  2  0  0  0  0  0  0
  -34.7030  -22.2360   12.6590 C   0  0  0  0  0  2  0  0  0  0  0  0
  -35.6230  -22.7270   11.5370 C   0  0  0  0  0  2  0  0  0  0  0  0
  -37.5480  -22.2430   13.1640 C   0  0  0  0  0  0  0  0  0  0  0  0
  -38.9080  -21.9330   13.3790 C   0  0  0  0  0  3  0  0  0  0  0  0
  -39.8020  -21.8220   12.2970 C   0  0  0  0  0  3  0  0  0  0  0  0
  -39.3460  -22.0320   10.9840 C   0  0  0  0  0  3  0  0  0  0  0  0
  -37.9910  -22.3390   10.7550 C   0  0  0  0  0  3  0  0  0  0  0  0
  -38.5470  -19.9620   20.3730 C   0  0  0  0  0  3  0  0  0  0  0  0
  -38.4500  -21.3880   21.0440 C   0  0  1  0  0  0  0  0  0  0  0  0
  -39.1890  -22.5010   20.2650 C   0  0  0  0  0  1  0  0  0  0  0  0
  -36.9670  -21.8130   21.1860 C   0  0  0  0  0  1  0  0  0  0  0  0
  -39.0410  -21.3260   22.4770 C   0  0  0  0  0  1  0  0  0  0  0  0
  -39.9320  -19.4710   20.4050 N   0  0  0  0  0  0  0  0  0  0  0  0
  -40.2900  -18.2240   20.7400 C   0  0  0  0  0  0  0  0  0  0  0  0
  -39.4820  -17.3770   21.1240 O   0  0  0  0  0  0  0  0  0  0  0  0
  -40.6410  -20.0910   20.0490 H   0  0  0  0  0  0  0  0  0  0  0  0
  -42.0320  -17.0660   19.3400 C   0  0  0  0  0  1  0  0  0  0  0  0
  -41.7850  -17.8570   20.6350 C   0  0  0  0  0  3  0  0  0  0  0  0
  -42.3590  -17.8760   23.0230 C   0  0  0  0  0  1  0  0  0  0  0  0
  -42.2870  -17.0890   21.7950 N   0  0  0  0  0  0  0  0  0  0  0  0
  -43.2140  -16.7120   21.6050 H   0  0  0  0  0  0  0  0  0  0  0  0
  -23.1250  -23.3840   23.5230 C   0  0  0  0  0  2  0  0  0  0  0  0
  -21.0990  -22.2360   22.5200 C   0  0  0  0  0  0  0  0  0  0  0  0
  -22.2660  -22.2390   23.1830 N   0  0  0  0  0  0  0  0  0  0  0  0
  -20.5420  -21.1740   22.2400 O   0  0  0  0  0  0  0  0  0  0  0  0
  -22.5870  -21.3420   23.5140 H   0  0  0  0  0  0  0  0  0  0  0  0
  -20.4090  -23.5690   22.1870 C   0  0  0  0  0  2  0  0  0  0  0  0
  -20.8820  -24.1310   20.9630 O   0  0  0  0  0  0  0  0  0  0  0  0
  -19.9990  -24.0740   19.8480 C   0  0  0  0  0  2  0  0  0  0  0  0
  -18.5930  -23.7570   20.3780 C   0  0  0  0  0  2  0  0  0  0  0  0
  -17.5550  -24.3870   19.6370 O   0  0  0  0  0  0  0  0  0  0  0  0
  -16.2740  -24.0310   20.1420 C   0  0  0  0  0  2  0  0  0  0  0  0
  -15.1570  -24.5050   19.1970 C   0  0  0  0  0  2  0  0  0  0  0  0
  -12.6690  -24.3180   19.3420 C   0  0  0  0  0  0  0  0  0  0  0  0
  -10.2480  -24.5720   19.7460 C   0  0  0  0  0  2  0  0  0  0  0  0
   -9.8580  -26.0600   19.8370 C   0  0  0  0  0  2  0  0  0  0  0  0
  -10.0710  -26.6000   21.2670 C   0  0  0  0  0  2  0  0  0  0  0  0
  -11.4660  -26.2420   21.8410 C   0  0  0  0  0  3  0  0  0  0  0  0
  -11.7640  -24.7400   21.6490 C   0  0  0  0  0  2  0  0  0  0  0  0
  -11.6340  -24.4330   20.2130 N   0  0  0  0  0  0  0  0  0  0  0  0
  -12.5340  -24.1080   18.1360 O   0  0  0  0  0  0  0  0  0  0  0  0
  -13.8700  -24.5260   19.8880 N   0  0  0  0  0  0  0  0  0  0  0  0
  -13.8770  -24.7920   20.8630 H   0  0  0  0  0  0  0  0  0  0  0  0
  -12.3990  -27.6030   23.8190 C   0  0  0  0  0  0  0  0  0  0  0  0
  -12.0660  -27.6250   25.1460 C   0  0  0  0  0  0  0  0  0  0  0  0
  -11.0340  -26.6530   25.3100 C   0  0  0  0  0  0  0  0  0  0  0  0
  -11.5850  -26.6400   23.2410 N   0  0  0  0  0  0  0  0  0  0  0  0
  -10.7990  -26.0290   24.1640 N   0  0  0  0  0  0  0  0  0  0  0  0
  -10.2160  -26.3120   26.4820 C   0  0  0  0  0  0  0  0  0  0  0  0
  -10.3480  -25.0700   27.1370 C   0  0  0  0  0  3  0  0  0  0  0  0
   -9.5600  -24.7710   28.2700 C   0  0  0  0  0  3  0  0  0  0  0  0
   -8.6330  -25.7230   28.7600 C   0  0  0  0  0  0  0  0  0  0  0  0
   -8.4890  -26.9490   28.0850 C   0  0  0  0  0  3  0  0  0  0  0  0
   -9.2700  -27.2410   26.9550 C   0  0  0  0  0  3  0  0  0  0  0  0
   -7.8080  -25.5140   29.8380 O   0  0  0  0  0  0  0  0  0  0  0  0
   -8.2230  -24.8020   30.9360 C   0  0  0  0  0  0  0  0  0  0  0  0
   -9.2870  -25.2430   31.7510 C   0  0  0  0  0  3  0  0  0  0  0  0
   -9.6380  -24.5170   32.9060 C   0  0  0  0  0  3  0  0  0  0  0  0
   -8.9180  -23.3560   33.2540 C   0  0  0  0  0  0  0  0  0  0  0  0
   -7.8530  -22.9200   32.4450 C   0  0  0  0  0  3  0  0  0  0  0  0
   -7.5060  -23.6420   31.2900 C   0  0  0  0  0  0  0  0  0  0  0  0
   -6.4630  -23.2290   30.5280 F   0  0  0  0  0  0  0  0  0  0  0  0
   -9.2470  -22.6610   34.3660 F   0  0  0  0  0  0  0  0  0  0  0  0
  -12.6050  -28.5630   26.1900 C   0  0  0  0  0  0  0  0  0  0  0  0
  -12.7340  -28.0890   27.4240 N   0  0  0  0  0  0  0  0  0  0  0  0
  -12.9590  -29.7040   25.9050 O   0  0  0  0  0  0  0  0  0  0  0  0
  -12.4560  -27.1460   27.6520 H   0  0  0  0  0  0  0  0  0  0  0  0
  -13.1100  -28.6810   28.1500 H   0  0  0  0  0  0  0  0  0  0  0  0
  -13.3040  -28.3310   23.0520 N   0  0  0  0  0  0  0  0  0  0  0  0
  -13.8760  -29.0750   23.4400 H   0  0  0  0  0  0  0  0  0  0  0  0
  -13.3960  -28.2510   22.0480 H   0  0  0  0  0  0  0  0  0  0  0  0
  1 58  1  0
  2  1  1  0
  2  4  1  0
  3  1  2  0
  5  2  1  0
  6  5  1  0
  7  6  1  0
  8  7  1  0
  9  8  1  0
 10  9  1  0
 10 11  1  0
 11 12  1  0
 12 14  1  0
 12 15  1  0
 13 11  2  0
 15 16  1  0
 16 17  1  0
 19 24  1  0
 19 17  1  0
 20 30  1  0
 20 28  1  0
 21 23  1  0
 23 22  1  0
 23 24  2  0
 25 19  2  0
 26 21  2  0
 26 25  1  0
 27 20  1  0
 27 21  1  0
 28 18  1  0
 28 22  1  0
 29 18  2  0
 30 32  2  0
 31 30  1  0
 33 31  1  0
 34 39  1  0
 35 31  1  0
 36 35  1  0
 37 36  1  0
 38 34  1  0
 38 37  1  0
 39 40  2  0
 39 35  1  0
 41 40  1  0
 42 41  2  0
 43 42  1  0
 43 34  2  0
 44 18  1  0
 44 49  1  0
 44 45  1  0
 45 47  1  1
 45 48  1  0
 46 45  1  0
 49 50  1  0
 50 51  2  0
 52 49  1  0
 54 53  1  0
 54 50  1  0
 54 56  1  0
 56 55  1  0
 57 56  1  0
 59 60  1  0
 60 62  1  0
 60 58  1  0
 61 59  2  0
 63 59  1  0
 64 63  1  0
 65 66  1  0
 65 64  1  0
 67 68  1  0
 67 66  1  0
 69 78  1  0
 69 68  1  0
 70 78  1  0
 70 76  1  0
 71 72  1  0
 71 76  1  0
 72 73  1  0
 74 73  1  0
 74 83  1  0
 75 74  1  0
 76 75  1  0
 77 70  2  0
 78 79  1  0
 80 81  2  0
 81 82  1  0
 81100  1  0
 82 85  1  0
 83 80  1  0
 83 84  1  0
 84 82  2  0
 85 90  2  0
 85 86  1  0
 86 87  2  0
 87 88  1  0
 88 91  1  0
 89 88  2  0
 90 89  1  0
 91 92  1  0
 92 97  2  0
 92 93  1  0
 93 94  2  0
 94 95  1  0
 95 99  1  0
 96 95  2  0
 97 96  1  0
 98 97  1  0
100101  1  0
101103  1  0
101104  1  0
102100  2  0
105106  1  0
105 80  1  0
107105  1  0
M  ISO  4  16 101  17 101  70 100  78 100
M  END
>  <TORSDO>  (59) 
F 34

>  <SCORE>  (59) 
8.798

>  <name>  (59) 
62

>  <ligand_id>  (59) 
62

>  <original_smiles>  (59) 
[H]c1c([H])c([H])c2c(c1[H])C([H])([H])C([H])([H])C([H])([H])C2([H])N([H])C(=O)C1([H])N(C(=O)C([H])(N([H])C(=O)C([H])(N([H])C([H])([H])[H])C([H])([H])[H])C(C([H])([H])[H])(C([H])([H])[H])C([H])([H])[H])C([H])([H])c2c([H])c(OC([H])([H])C([H])([H])N([H])C(=O)C([H])([H])OC([H])([H])C([H])([H])C([H])([H])C([H])([H])N([H])C(=O)C([H])([H])N([H])C(=O)C([H])([H])OC([H])([H])C([H])([H])OC([H])([H])C([H])([H])N([H])C(=O)N3C([H])([H])C([H])([H])C([H])([H])C([H])(n4nc(-c5c([H])c([H])c(Oc6c([H])c([H])c(F)c([H])c6F)c([H])c5[H])c(C(=O)N([H])[H])c4N([H])[H])C3([H])[H])c([H])c([H])c2C1([H])[H]

>  <smiles>  (59) 
[H]c1c([H])c([H])c2c(c1[H])C([H])([H])C([H])([H])C([H])([H])C2([H])N([H])C(=O)C1([H])N(C(=O)C([H])(N([H])C(=O)C([H])(N([H])C([H])([H])[H])C([H])([H])[H])C(C([H])([H])[H])(C([H])([H])[H])C([H])([H])[H])C([H])([H])c2c([H])c(OC([H])([H])C([H])([H])N([H])C(=O)C([H])([H])OC([H])([H])C([H])([H])C([H])([H])C([H])([H])N([H])C(=O)C([H])([H])N([H])C(=O)C([H])([H])OC([H])([H])C([H])([H])OC([H])([H])C([H])([H])N([H])C(=O)N3C([H])([H])C([H])([H])C([H])([H])C([H])(n4nc(-c5c([H])c([H])c(Oc6c([H])c([H])c(F)c([H])c6F)c([H])c5[H])c(C(=O)N([H])[H])c4N([H])[H])C3([H])[H])c([H])c([H])c2C1([H])[H]

$$$$
63:0:0
     RDKit          3D

 93100  0  0  1  0  0  0  0  0999 V2000
  -28.2260  -22.2850   21.2980 C   0  0  0  0  0  0  0  0  0  0  0  0
  -28.4910  -23.2320   20.3860 N   0  0  0  0  0  0  0  0  0  0  0  0
  -27.1810  -21.6390   21.2020 O   0  0  0  0  0  0  0  0  0  0  0  0
  -27.7840  -23.3350   19.6730 H   0  0  0  0  0  0  0  0  0  0  0  0
  -29.5770  -24.2180   20.3430 C   0  0  0  0  0  2  0  0  0  0  0  0
  -29.4080  -25.2420   19.1930 C   0  0  0  0  0  2  0  0  0  0  0  0
  -27.9530  -25.5980   18.8840 C   0  0  0  0  0  2  0  0  0  0  0  0
  -27.8950  -26.8890   18.2840 O   0  0  0  0  0  0  0  0  0  0  0  0
  -24.7060  -31.2060   22.9110 C   0  0  0  0  0  0  0  0  0  0  0  0
  -26.7600  -27.5960   18.5860 C   0  0  0  0  0  0  0  0  0  0  0  0
  -23.2420  -30.1510   21.2200 C   0  0  0  0  0  3  0  0  0  0  0  0
  -24.4280  -29.0080   19.2810 C   0  0  0  0  0  0  0  0  0  0  0  0
  -25.7090  -30.6050   20.7150 C   0  0  0  0  0  2  0  0  0  0  0  0
  -25.6700  -29.4110   19.7920 C   0  0  0  0  0  0  0  0  0  0  0  0
  -26.8430  -28.7130   19.4430 C   0  0  0  0  0  3  0  0  0  0  0  0
  -25.5050  -27.2190   18.0530 C   0  0  0  0  0  3  0  0  0  0  0  0
  -24.3400  -27.9150   18.4050 C   0  0  0  0  0  3  0  0  0  0  0  0
  -23.2170  -29.7970   19.7120 C   0  0  0  0  0  2  0  0  0  0  0  0
  -24.5800  -30.6550   21.6730 N   0  0  0  0  0  0  0  0  0  0  0  0
  -23.7250  -31.3440   23.6550 O   0  0  0  0  0  0  0  0  0  0  0  0
  -22.7320  -28.9390   22.0280 C   0  0  0  0  0  0  0  0  0  0  0  0
  -21.4240  -28.6590   21.9170 N   0  0  0  0  0  0  0  0  0  0  0  0
  -23.5050  -28.2620   22.7090 O   0  0  0  0  0  0  0  0  0  0  0  0
  -20.8500  -29.2610   21.3410 H   0  0  0  0  0  0  0  0  0  0  0  0
  -18.2530  -26.9410   22.1110 C   0  0  0  0  0  0  0  0  0  0  0  0
  -20.7250  -27.5450   22.5540 C   0  0  0  0  0  3  0  0  0  0  0  0
  -21.0750  -26.2060   21.8620 C   0  0  0  0  0  2  0  0  0  0  0  0
  -20.0810  -25.8240   20.7620 C   0  0  0  0  0  2  0  0  0  0  0  0
  -18.6600  -25.7050   21.3270 C   0  0  0  0  0  2  0  0  0  0  0  0
  -19.2240  -27.8170   22.6700 C   0  0  0  0  0  0  0  0  0  0  0  0
  -18.7930  -28.9800   23.3440 C   0  0  0  0  0  3  0  0  0  0  0  0
  -17.4230  -29.2740   23.4640 C   0  0  0  0  0  3  0  0  0  0  0  0
  -16.4660  -28.3930   22.9290 C   0  0  0  0  0  3  0  0  0  0  0  0
  -16.8820  -27.2290   22.2630 C   0  0  0  0  0  3  0  0  0  0  0  0
  -26.0840  -31.7120   23.4420 C   0  0  0  0  0  3  0  0  0  0  0  0
  -26.7600  -30.7150   24.4640 C   0  0  1  0  0  0  0  0  0  0  0  0
  -25.8320  -30.2870   25.6210 C   0  0  0  0  0  1  0  0  0  0  0  0
  -27.2270  -29.4270   23.7430 C   0  0  0  0  0  1  0  0  0  0  0  0
  -28.0150  -31.3710   25.0900 C   0  0  0  0  0  1  0  0  0  0  0  0
  -25.8640  -33.0280   24.0560 N   0  0  0  0  0  0  0  0  0  0  0  0
  -26.2180  -34.1930   23.4980 C   0  0  0  0  0  0  0  0  0  0  0  0
  -26.8410  -34.2690   22.4360 O   0  0  0  0  0  0  0  0  0  0  0  0
  -25.2950  -33.0570   24.8880 H   0  0  0  0  0  0  0  0  0  0  0  0
  -24.6120  -36.1320   23.5520 C   0  0  0  0  0  1  0  0  0  0  0  0
  -25.8210  -35.4830   24.2430 C   0  0  0  0  0  3  0  0  0  0  0  0
  -28.0090  -36.0330   25.2160 C   0  0  0  0  0  1  0  0  0  0  0  0
  -26.9220  -36.4680   24.3420 N   0  0  0  0  0  0  0  0  0  0  0  0
  -26.5730  -37.3580   24.6900 H   0  0  0  0  0  0  0  0  0  0  0  0
  -29.2050  -21.9610   22.4500 C   0  0  0  0  0  2  0  0  0  0  0  0
  -29.9780  -20.7820   22.1800 O   0  0  0  0  0  0  0  0  0  0  0  0
  -30.6860  -20.7760   20.9390 C   0  0  0  0  0  2  0  0  0  0  0  0
  -31.9640  -19.9050   21.0530 C   0  0  0  0  0  2  0  0  0  0  0  0
  -31.7280  -18.5340   21.3990 O   0  0  0  0  0  0  0  0  0  0  0  0
  -31.8270  -17.5820   20.3440 C   0  0  0  0  0  2  0  0  0  0  0  0
  -31.7490  -16.1560   20.9450 C   0  0  0  0  0  2  0  0  0  0  0  0
  -33.1650  -14.0810   20.6270 C   0  0  0  0  0  0  0  0  0  0  0  0
  -32.8110  -11.6470   20.8310 C   0  0  0  0  0  2  0  0  0  0  0  0
  -32.0450  -11.1440   19.5930 C   0  0  0  0  0  2  0  0  0  0  0  0
  -30.5230  -11.2740   19.8050 C   0  0  0  0  0  2  0  0  0  0  0  0
  -30.1120  -12.6790   20.3350 C   0  0  0  0  0  3  0  0  0  0  0  0
  -31.0060  -13.0840   21.5310 C   0  0  0  0  0  2  0  0  0  0  0  0
  -32.4000  -13.0440   21.0720 N   0  0  0  0  0  0  0  0  0  0  0  0
  -34.3390  -13.9440   20.2900 O   0  0  0  0  0  0  0  0  0  0  0  0
  -32.5330  -15.1780   20.1800 N   0  0  0  0  0  0  0  0  0  0  0  0
  -33.1120  -15.6240   19.4820 H   0  0  0  0  0  0  0  0  0  0  0  0
  -27.8570  -13.8160   20.8200 C   0  0  0  0  0  0  0  0  0  0  0  0
  -26.6120  -13.3020   21.0740 C   0  0  0  0  0  0  0  0  0  0  0  0
  -26.7600  -11.8840   21.0600 C   0  0  0  0  0  0  0  0  0  0  0  0
  -28.6940  -12.7210   20.6740 N   0  0  0  0  0  0  0  0  0  0  0  0
  -28.0310  -11.5540   20.8750 N   0  0  0  0  0  0  0  0  0  0  0  0
  -25.7570  -10.8170   21.1630 C   0  0  0  0  0  0  0  0  0  0  0  0
  -25.8980   -9.7550   22.0840 C   0  0  0  0  0  3  0  0  0  0  0  0
  -24.9100   -8.7520   22.1800 C   0  0  0  0  0  3  0  0  0  0  0  0
  -23.7620   -8.8070   21.3540 C   0  0  0  0  0  0  0  0  0  0  0  0
  -23.6410   -9.8500   20.4180 C   0  0  0  0  0  3  0  0  0  0  0  0
  -24.6290  -10.8440   20.3200 C   0  0  0  0  0  3  0  0  0  0  0  0
  -22.7690   -7.8590   21.3520 O   0  0  0  0  0  0  0  0  0  0  0  0
  -22.3530   -7.2480   22.5070 C   0  0  0  0  0  0  0  0  0  0  0  0
  -21.9410   -7.9940   23.6330 C   0  0  0  0  0  3  0  0  0  0  0  0
  -21.4530   -7.3310   24.7770 C   0  0  0  0  0  3  0  0  0  0  0  0
  -21.3730   -5.9260   24.7950 C   0  0  0  0  0  0  0  0  0  0  0  0
  -21.7760   -5.1810   23.6710 C   0  0  0  0  0  3  0  0  0  0  0  0
  -22.2590   -5.8420   22.5280 C   0  0  0  0  0  0  0  0  0  0  0  0
  -22.6280   -5.1230   21.4410 F   0  0  0  0  0  0  0  0  0  0  0  0
  -20.8950   -5.2880   25.8890 F   0  0  0  0  0  0  0  0  0  0  0  0
  -25.3400  -14.0800   21.2300 C   0  0  0  0  0  0  0  0  0  0  0  0
  -24.3860  -13.5360   21.9800 N   0  0  0  0  0  0  0  0  0  0  0  0
  -25.2030  -15.1890   20.7200 O   0  0  0  0  0  0  0  0  0  0  0  0
  -24.5190  -12.6310   22.4110 H   0  0  0  0  0  0  0  0  0  0  0  0
  -23.5070  -14.0170   22.1150 H   0  0  0  0  0  0  0  0  0  0  0  0
  -28.3360  -15.1140   20.6870 N   0  0  0  0  0  0  0  0  0  0  0  0
  -27.7170  -15.9090   20.7720 H   0  0  0  0  0  0  0  0  0  0  0  0
  -29.3010  -15.3710   20.5110 H   0  0  0  0  0  0  0  0  0  0  0  0
  1 49  1  0
  2  1  1  0
  3  1  2  0
  4  2  1  0
  5  2  1  0
  6  5  1  0
  7  6  1  0
  8 10  1  0
  8  7  1  0
  9 20  2  0
 10 15  1  0
 11 19  1  0
 11 21  1  0
 12 18  1  0
 12 14  1  0
 13 19  1  0
 14 13  1  0
 15 14  2  0
 16 17  1  0
 16 10  2  0
 17 12  2  0
 18 11  1  0
 19  9  1  0
 21 23  2  0
 22 21  1  0
 24 22  1  0
 25 34  2  0
 25 30  1  0
 26 22  1  0
 26 30  1  0
 27 26  1  0
 28 29  1  0
 28 27  1  0
 29 25  1  0
 30 31  2  0
 31 32  1  0
 33 32  2  0
 34 33  1  0
 35  9  1  0
 35 40  1  0
 35 36  1  0
 36 39  1  1
 36 37  1  0
 38 36  1  0
 40 43  1  0
 41 40  1  0
 41 45  1  0
 42 41  2  0
 45 44  1  0
 45 47  1  0
 47 48  1  0
 47 46  1  0
 50 49  1  0
 51 52  1  0
 51 50  1  0
 52 53  1  0
 54 55  1  0
 54 53  1  0
 56 62  1  0
 57 62  1  0
 58 59  1  0
 58 57  1  0
 60 59  1  0
 60 69  1  0
 60 61  1  0
 62 61  1  0
 63 56  2  0
 64 56  1  0
 64 55  1  0
 65 64  1  0
 66 67  2  0
 67 86  1  0
 68 67  1  0
 68 71  1  0
 69 66  1  0
 69 70  1  0
 70 68  2  0
 71 72  1  0
 72 73  2  0
 74 73  1  0
 75 74  2  0
 76 75  1  0
 76 71  2  0
 77 74  1  0
 77 78  1  0
 78 83  2  0
 78 79  1  0
 79 80  2  0
 80 81  1  0
 81 85  1  0
 82 81  2  0
 83 82  1  0
 84 83  1  0
 86 87  1  0
 87 90  1  0
 87 89  1  0
 88 86  2  0
 91 92  1  0
 91 66  1  0
 93 91  1  0
M  ISO  4   7 101   8 101  56 100  64 100
M  END
>  <TORSDO>  (60) 
F 26

>  <SCORE>  (60) 
-8.457

>  <name>  (60) 
63

>  <ligand_id>  (60) 
63

>  <original_smiles>  (60) 
[H]c1c([H])c([H])c2c(c1[H])C([H])([H])C([H])([H])C([H])([H])C2([H])N([H])C(=O)C1([H])N(C(=O)C([H])(N([H])C(=O)C([H])(N([H])C([H])([H])[H])C([H])([H])[H])C(C([H])([H])[H])(C([H])([H])[H])C([H])([H])[H])C([H])([H])c2c([H])c(OC([H])([H])C([H])([H])C([H])([H])N([H])C(=O)C([H])([H])OC([H])([H])C([H])([H])OC([H])([H])C([H])([H])N([H])C(=O)N3C([H])([H])C([H])([H])C([H])([H])C([H])(n4nc(-c5c([H])c([H])c(Oc6c([H])c([H])c(F)c([H])c6F)c([H])c5[H])c(C(=O)N([H])[H])c4N([H])[H])C3([H])[H])c([H])c([H])c2C1([H])[H]

>  <smiles>  (60) 
[H]c1c([H])c([H])c2c(c1[H])C([H])([H])C([H])([H])C([H])([H])C2([H])N([H])C(=O)C1([H])N(C(=O)C([H])(N([H])C(=O)C([H])(N([H])C([H])([H])[H])C([H])([H])[H])C(C([H])([H])[H])(C([H])([H])[H])C([H])([H])[H])C([H])([H])c2c([H])c(OC([H])([H])C([H])([H])C([H])([H])N([H])C(=O)C([H])([H])OC([H])([H])C([H])([H])OC([H])([H])C([H])([H])N([H])C(=O)N3C([H])([H])C([H])([H])C([H])([H])C([H])(n4nc(-c5c([H])c([H])c(Oc6c([H])c([H])c(F)c([H])c6F)c([H])c5[H])c(C(=O)N([H])[H])c4N([H])[H])C3([H])[H])c([H])c([H])c2C1([H])[H]

$$$$
64:0:0
     RDKit          3D

119126  0  0  1  0  0  0  0  0999 V2000
  -27.7170  -18.9070   20.5420 C   0  0  0  0  0  0  0  0  0  0  0  0
  -27.7210  -20.0270   21.2660 N   0  0  0  0  0  0  0  0  0  0  0  0
  -28.7380  -18.2650   20.2860 O   0  0  0  0  0  0  0  0  0  0  0  0
  -26.8500  -20.5250   21.3920 H   0  0  0  0  0  0  0  0  0  0  0  0
  -26.3700  -18.3930   20.0600 C   0  0  0  0  0  2  0  0  0  0  0  0
  -25.7750  -19.4100   19.1810 N   0  0  0  0  0  4  0  0  0  0  0  0
  -26.5760  -19.8830   18.7830 H   0  0  0  0  0  0  0  0  0  0  0  0
  -25.2820  -20.0800   19.7490 H   0  0  0  0  0  0  0  0  0  0  0  0
  -24.9100  -18.8790   18.1110 C   0  0  0  0  0  2  0  0  0  0  0  0
  -24.4870  -19.9840   17.1350 C   0  0  0  0  0  2  0  0  0  0  0  0
  -23.1930  -19.6480   16.3770 C   0  0  0  0  0  2  0  0  0  0  0  0
  -22.7630  -20.7760   15.6290 O   0  0  0  0  0  0  0  0  0  0  0  0
  -22.4770  -21.9190   16.4270 C   0  0  0  0  0  2  0  0  0  0  0  0
  -23.4990  -23.0230   16.1340 C   0  0  0  0  0  2  0  0  0  0  0  0
  -24.8110  -22.8880   16.9280 C   0  0  0  0  0  2  0  0  0  0  0  0
  -25.5600  -21.7600   16.5030 O   0  0  0  0  0  0  0  0  0  0  0  0
  -26.9430  -21.8750   16.8220 C   0  0  0  0  0  2  0  0  0  0  0  0
  -27.6780  -20.6030   16.3710 C   0  0  0  0  0  2  0  0  0  0  0  0
  -27.8360  -19.7070   17.4680 O   0  0  0  0  0  0  0  0  0  0  0  0
  -29.1670  -19.6250   17.9690 C   0  0  0  0  0  2  0  0  0  0  0  0
  -29.8010  -18.2520   17.6730 C   0  0  0  0  0  2  0  0  0  0  0  0
  -30.6350  -17.8970   18.7710 O   0  0  0  0  0  0  0  0  0  0  0  0
  -31.0810  -16.5480   18.7900 C   0  0  0  0  0  2  0  0  0  0  0  0
  -30.7820  -15.9440   20.1870 C   0  0  0  0  0  2  0  0  0  0  0  0
  -32.0840  -13.8790   19.8590 C   0  0  0  0  0  0  0  0  0  0  0  0
  -31.3770  -11.8750   18.6330 C   0  0  0  0  0  2  0  0  0  0  0  0
  -30.4430  -12.2570   17.4660 C   0  0  0  0  0  2  0  0  0  0  0  0
  -28.9750  -12.3050   17.9300 C   0  0  0  0  0  2  0  0  0  0  0  0
  -28.7950  -13.1470   19.2180 C   0  0  0  0  0  3  0  0  0  0  0  0
  -29.8440  -12.7720   20.2900 C   0  0  0  0  0  2  0  0  0  0  0  0
  -31.1860  -12.8730   19.6910 N   0  0  0  0  0  0  0  0  0  0  0  0
  -33.1920  -13.9010   19.3240 O   0  0  0  0  0  0  0  0  0  0  0  0
  -31.7280  -14.9100   20.6260 N   0  0  0  0  0  0  0  0  0  0  0  0
  -32.5610  -15.3300   21.0170 H   0  0  0  0  0  0  0  0  0  0  0  0
  -26.5110  -14.0460   19.9660 C   0  0  0  0  0  0  0  0  0  0  0  0
  -25.3600  -13.4120   20.3520 C   0  0  0  0  0  0  0  0  0  0  0  0
  -25.6540  -12.0160   20.3380 C   0  0  0  0  0  0  0  0  0  0  0  0
  -27.4350  -13.0420   19.7300 N   0  0  0  0  0  0  0  0  0  0  0  0
  -26.9270  -11.8150   20.0180 N   0  0  0  0  0  0  0  0  0  0  0  0
  -24.7840  -10.8550   20.5550 C   0  0  0  0  0  0  0  0  0  0  0  0
  -25.0970   -9.8630   21.5110 C   0  0  0  0  0  3  0  0  0  0  0  0
  -24.2320   -8.7670   21.7140 C   0  0  0  0  0  3  0  0  0  0  0  0
  -23.0400   -8.6550   20.9620 C   0  0  0  0  0  0  0  0  0  0  0  0
  -22.7440   -9.6350   19.9960 C   0  0  0  0  0  3  0  0  0  0  0  0
  -23.6110  -10.7200   19.7890 C   0  0  0  0  0  3  0  0  0  0  0  0
  -22.1520   -7.6120   21.0800 O   0  0  0  0  0  0  0  0  0  0  0  0
  -21.9620   -6.9610   22.2710 C   0  0  0  0  0  0  0  0  0  0  0  0
  -21.5600   -7.6490   23.4390 C   0  0  0  0  0  3  0  0  0  0  0  0
  -21.3030   -6.9340   24.6260 C   0  0  0  0  0  3  0  0  0  0  0  0
  -21.4380   -5.5330   24.6480 C   0  0  0  0  0  0  0  0  0  0  0  0
  -21.8330   -4.8450   23.4860 C   0  0  0  0  0  3  0  0  0  0  0  0
  -22.0900   -5.5570   22.3010 C   0  0  0  0  0  0  0  0  0  0  0  0
  -22.4480   -4.8900   21.1790 F   0  0  0  0  0  0  0  0  0  0  0  0
  -21.1810   -4.8430   25.7820 F   0  0  0  0  0  0  0  0  0  0  0  0
  -24.0390  -14.0650   20.6350 C   0  0  0  0  0  0  0  0  0  0  0  0
  -23.2690  -13.5160   21.5700 N   0  0  0  0  0  0  0  0  0  0  0  0
  -23.7060  -15.1040   20.0680 O   0  0  0  0  0  0  0  0  0  0  0  0
  -23.5510  -12.6800   22.0570 H   0  0  0  0  0  0  0  0  0  0  0  0
  -22.3830  -13.9440   21.8030 H   0  0  0  0  0  0  0  0  0  0  0  0
  -26.8360  -15.3830   19.7860 N   0  0  0  0  0  0  0  0  0  0  0  0
  -26.1550  -16.1170   19.9210 H   0  0  0  0  0  0  0  0  0  0  0  0
  -27.7620  -15.7340   19.5840 H   0  0  0  0  0  0  0  0  0  0  0  0
  -28.9000  -20.5890   21.9160 C   0  0  0  0  0  2  0  0  0  0  0  0
  -30.0060  -21.0050   20.9350 C   0  0  0  0  0  0  0  0  0  0  0  0
  -31.2280  -20.5250   21.1950 N   0  0  0  0  0  0  0  0  0  0  0  0
  -29.7720  -21.7710   19.9980 O   0  0  0  0  0  0  0  0  0  0  0  0
  -31.3190  -19.9090   21.9900 H   0  0  0  0  0  0  0  0  0  0  0  0
  -32.4620  -20.8480   20.4810 C   0  0  0  0  0  2  0  0  0  0  0  0
  -32.3780  -20.7400   18.9490 C   0  0  0  0  0  0  0  0  0  0  0  0
  -33.1910  -21.5460   18.2530 N   0  0  0  0  0  0  0  0  0  0  0  0
  -31.6060  -19.9490   18.4050 O   0  0  0  0  0  0  0  0  0  0  0  0
  -33.8290  -22.1270   18.7810 H   0  0  0  0  0  0  0  0  0  0  0  0
  -33.2140  -21.7070   16.7960 C   0  0  0  0  0  2  0  0  0  0  0  0
  -32.1390  -22.6970   16.2980 C   0  0  0  0  0  2  0  0  0  0  0  0
  -32.1980  -24.0700   16.9870 C   0  0  0  0  0  2  0  0  0  0  0  0
  -31.0470  -24.8350   16.6540 O   0  0  0  0  0  0  0  0  0  0  0  0
  -30.9460  -26.0060   17.4570 C   0  0  0  0  0  2  0  0  0  0  0  0
  -29.9000  -26.9720   16.8920 C   0  0  0  0  0  2  0  0  0  0  0  0
  -28.6200  -26.3530   17.0050 O   0  0  0  0  0  0  0  0  0  0  0  0
  -25.5970  -29.8580   22.4570 C   0  0  0  0  0  0  0  0  0  0  0  0
  -27.5590  -27.0550   17.5300 C   0  0  0  0  0  0  0  0  0  0  0  0
  -24.0940  -29.2180   20.5960 C   0  0  0  0  0  3  0  0  0  0  0  0
  -25.2500  -28.3810   18.4840 C   0  0  0  0  0  0  0  0  0  0  0  0
  -26.5750  -29.6590   20.1780 C   0  0  0  0  0  2  0  0  0  0  0  0
  -26.4990  -28.6540   19.0500 C   0  0  0  0  0  0  0  0  0  0  0  0
  -27.6570  -28.0040   18.5760 C   0  0  0  0  0  3  0  0  0  0  0  0
  -26.2910  -26.7820   16.9790 C   0  0  0  0  0  3  0  0  0  0  0  0
  -25.1360  -27.4410   17.4440 C   0  0  0  0  0  3  0  0  0  0  0  0
  -24.0680  -29.1380   19.0460 C   0  0  0  0  0  2  0  0  0  0  0  0
  -25.4490  -29.5670   21.1340 N   0  0  0  0  0  0  0  0  0  0  0  0
  -24.6210  -29.8860   23.2190 O   0  0  0  0  0  0  0  0  0  0  0  0
  -23.5300  -27.8980   21.1650 C   0  0  0  0  0  0  0  0  0  0  0  0
  -22.1960  -27.7520   21.1250 N   0  0  0  0  0  0  0  0  0  0  0  0
  -24.2840  -27.0220   21.6010 O   0  0  0  0  0  0  0  0  0  0  0  0
  -21.6480  -28.5190   20.7600 H   0  0  0  0  0  0  0  0  0  0  0  0
  -18.8680  -26.3910   21.4700 C   0  0  0  0  0  0  0  0  0  0  0  0
  -21.4440  -26.5780   21.5660 C   0  0  0  0  0  3  0  0  0  0  0  0
  -21.4630  -25.4680   20.4890 C   0  0  0  0  0  2  0  0  0  0  0  0
  -20.2600  -25.5250   19.5420 C   0  0  0  0  0  2  0  0  0  0  0  0
  -18.9520  -25.3930   20.3270 C   0  0  0  0  0  2  0  0  0  0  0  0
  -20.0380  -26.9600   22.0410 C   0  0  0  0  0  0  0  0  0  0  0  0
  -19.9020  -27.9090   23.0770 C   0  0  0  0  0  3  0  0  0  0  0  0
  -18.6300  -28.2880   23.5440 C   0  0  0  0  0  3  0  0  0  0  0  0
  -17.4770  -27.7110   22.9870 C   0  0  0  0  0  3  0  0  0  0  0  0
  -17.5970  -26.7610   21.9560 C   0  0  0  0  0  3  0  0  0  0  0  0
  -26.9940  -30.1930   23.0720 C   0  0  0  0  0  3  0  0  0  0  0  0
  -27.6170  -28.9960   23.8900 C   0  0  1  0  0  0  0  0  0  0  0  0
  -26.6700  -28.4190   24.9670 C   0  0  0  0  0  1  0  0  0  0  0  0
  -28.0170  -27.8410   22.9430 C   0  0  0  0  0  1  0  0  0  0  0  0
  -28.9140  -29.4620   24.5940 C   0  0  0  0  0  1  0  0  0  0  0  0
  -26.8280  -31.3770   23.9250 N   0  0  0  0  0  0  0  0  0  0  0  0
  -27.2710  -32.6030   23.6150 C   0  0  0  0  0  0  0  0  0  0  0  0
  -27.9330  -32.8400   22.6020 O   0  0  0  0  0  0  0  0  0  0  0  0
  -26.2470  -31.2680   24.7430 H   0  0  0  0  0  0  0  0  0  0  0  0
  -25.7440  -34.5590   24.0240 C   0  0  0  0  0  1  0  0  0  0  0  0
  -26.9230  -33.7490   24.5850 C   0  0  0  0  0  3  0  0  0  0  0  0
  -29.1350  -34.0140   25.6170 C   0  0  0  0  0  1  0  0  0  0  0  0
  -28.0620  -34.6510   24.8600 N   0  0  0  0  0  0  0  0  0  0  0  0
  -27.7540  -35.4720   25.3760 H   0  0  0  0  0  0  0  0  0  0  0  0
  1  2  1  0
  2  4  1  0
  2 63  1  0
  3  1  2  0
  5  1  1  0
  6  8  1  0
  6  5  1  0
  7  6  1  0
  9  6  1  0
 10  9  1  0
 11 10  1  0
 12 11  1  0
 12 13  1  0
 14 13  1  0
 14 15  1  0
 16 17  1  0
 16 15  1  0
 18 17  1  0
 18 19  1  0
 19 20  1  0
 21 20  1  0
 21 22  1  0
 22 23  1  0
 23 24  1  0
 24 33  1  0
 25 33  1  0
 26 31  1  0
 27 28  1  0
 27 26  1  0
 29 28  1  0
 29 38  1  0
 29 30  1  0
 31 25  1  0
 31 30  1  0
 32 25  2  0
 33 34  1  0
 35 36  2  0
 36 55  1  0
 37 36  1  0
 37 40  1  0
 38 35  1  0
 38 39  1  0
 39 37  2  0
 40 41  1  0
 41 42  2  0
 43 46  1  0
 43 42  1  0
 44 43  2  0
 45 44  1  0
 45 40  2  0
 46 47  1  0
 47 52  2  0
 47 48  1  0
 48 49  2  0
 49 50  1  0
 50 54  1  0
 51 50  2  0
 52 51  1  0
 53 52  1  0
 55 56  1  0
 56 59  1  0
 56 58  1  0
 57 55  2  0
 60 61  1  0
 60 35  1  0
 62 60  1  0
 64 65  1  0
 64 63  1  0
 65 67  1  0
 66 64  2  0
 68 65  1  0
 69 68  1  0
 70 72  1  0
 70 69  1  0
 71 69  2  0
 73 70  1  0
 74 73  1  0
 74 75  1  0
 76 75  1  0
 76 77  1  0
 78 79  1  0
 78 77  1  0
 79 81  1  0
 80 91  2  0
 81 86  1  0
 82 90  1  0
 82 92  1  0
 83 89  1  0
 83 85  1  0
 84 90  1  0
 85 84  1  0
 86 85  2  0
 87 88  1  0
 87 81  2  0
 88 83  2  0
 89 82  1  0
 90 80  1  0
 92 94  2  0
 93 92  1  0
 95 93  1  0
 96105  2  0
 96101  1  0
 97 93  1  0
 97101  1  0
 98 97  1  0
 99100  1  0
 99 98  1  0
100 96  1  0
101102  2  0
102103  1  0
104103  2  0
105104  1  0
106 80  1  0
106107  1  0
106111  1  0
107110  1  1
107108  1  0
109107  1  0
111114  1  0
112111  1  0
112116  1  0
113112  2  0
116115  1  0
116118  1  0
118119  1  0
118117  1  0
M  ISO  4  25 100  33 100  78 101  79 101
M  END
>  <TORSDO>  (61) 
F 44

>  <SCORE>  (61) 
-1.310

>  <name>  (61) 
64

>  <ligand_id>  (61) 
64

>  <original_smiles>  (61) 
[H]c1c([H])c([H])c2c(c1[H])C([H])([H])C([H])([H])C([H])([H])C2([H])N([H])C(=O)C1([H])N(C(=O)C([H])(N([H])C(=O)C([H])(N([H])C([H])([H])[H])C([H])([H])[H])C(C([H])([H])[H])(C([H])([H])[H])C([H])([H])[H])C([H])([H])c2c([H])c(OC([H])([H])C([H])([H])OC([H])([H])C([H])([H])C([H])([H])N([H])C(=O)C([H])([H])N([H])C(=O)C([H])([H])N([H])C(=O)C([H])([H])[N+]([H])([H])C([H])([H])C([H])([H])C([H])([H])OC([H])([H])C([H])([H])C([H])([H])OC([H])([H])C([H])([H])OC([H])([H])C([H])([H])OC([H])([H])C([H])([H])N([H])C(=O)N3C([H])([H])C([H])([H])C([H])([H])C([H])(n4nc(-c5c([H])c([H])c(Oc6c([H])c([H])c(F)c([H])c6F)c([H])c5[H])c(C(=O)N([H])[H])c4N([H])[H])C3([H])[H])c([H])c([H])c2C1([H])[H]

>  <smiles>  (61) 
[H]c1c([H])c([H])c2c(c1[H])C([H])([H])C([H])([H])C([H])([H])C2([H])N([H])C(=O)C1([H])N(C(=O)C([H])(N([H])C(=O)C([H])(N([H])C([H])([H])[H])C([H])([H])[H])C(C([H])([H])[H])(C([H])([H])[H])C([H])([H])[H])C([H])([H])c2c([H])c(OC([H])([H])C([H])([H])OC([H])([H])C([H])([H])C([H])([H])N([H])C(=O)C([H])([H])N([H])C(=O)C([H])([H])N([H])C(=O)C([H])([H])[N+]([H])([H])C([H])([H])C([H])([H])C([H])([H])OC([H])([H])C([H])([H])C([H])([H])OC([H])([H])C([H])([H])OC([H])([H])C([H])([H])OC([H])([H])C([H])([H])N([H])C(=O)N3C([H])([H])C([H])([H])C([H])([H])C([H])(n4nc(-c5c([H])c([H])c(Oc6c([H])c([H])c(F)c([H])c6F)c([H])c5[H])c(C(=O)N([H])[H])c4N([H])[H])C3([H])[H])c([H])c([H])c2C1([H])[H]

$$$$
65:0:0
     RDKit          3D

105111  0  0  1  0  0  0  0  0999 V2000
  -23.9200  -20.4670   24.8870 C   0  0  0  0  0  0  0  0  0  0  0  0
  -23.2690  -21.5740   24.5200 N   0  0  0  0  0  0  0  0  0  0  0  0
  -25.1100  -20.4770   25.2200 O   0  0  0  0  0  0  0  0  0  0  0  0
  -22.3110  -21.4900   24.2090 H   0  0  0  0  0  0  0  0  0  0  0  0
  -23.8030  -22.9300   24.6280 C   0  0  0  0  0  2  0  0  0  0  0  0
  -24.3220  -23.5160   23.3140 C   0  0  0  0  0  0  0  0  0  0  0  0
  -25.4220  -24.2680   23.4280 N   0  0  0  0  0  0  0  0  0  0  0  0
  -23.7160  -23.3460   22.2540 O   0  0  0  0  0  0  0  0  0  0  0  0
  -25.8080  -24.3240   24.3590 H   0  0  0  0  0  0  0  0  0  0  0  0
  -25.9760  -25.1680   22.4170 C   0  0  0  0  0  2  0  0  0  0  0  0
  -27.2650  -24.6310   21.7550 C   0  0  0  0  0  2  0  0  0  0  0  0
  -28.2900  -25.7060   21.3020 C   0  0  0  0  0  2  0  0  0  0  0  0
  -28.0260  -26.3200   20.0390 O   0  0  0  0  0  0  0  0  0  0  0  0
  -24.4720  -31.6510   23.1490 C   0  0  0  0  0  0  0  0  0  0  0  0
  -26.9250  -27.1360   20.0350 C   0  0  0  0  0  0  0  0  0  0  0  0
  -23.1950  -30.2620   21.5510 C   0  0  0  0  0  3  0  0  0  0  0  0
  -24.5790  -28.6880   20.0910 C   0  0  0  0  0  0  0  0  0  0  0  0
  -25.7240  -30.5550   21.3000 C   0  0  0  0  0  2  0  0  0  0  0  0
  -25.7560  -29.1790   20.6710 C   0  0  0  0  0  0  0  0  0  0  0  0
  -26.9290  -28.4000   20.6680 C   0  0  0  0  0  3  0  0  0  0  0  0
  -25.7590  -26.6850   19.3940 C   0  0  0  0  0  3  0  0  0  0  0  0
  -24.5710  -27.4380   19.4520 C   0  0  0  0  0  3  0  0  0  0  0  0
  -23.3550  -29.5750   20.1690 C   0  0  0  0  0  2  0  0  0  0  0  0
  -24.4830  -30.8400   22.0560 N   0  0  0  0  0  0  0  0  0  0  0  0
  -23.4080  -31.9540   23.7050 O   0  0  0  0  0  0  0  0  0  0  0  0
  -22.5440  -29.2580   22.5290 C   0  0  0  0  0  0  0  0  0  0  0  0
  -21.2250  -29.0490   22.3810 N   0  0  0  0  0  0  0  0  0  0  0  0
  -23.2220  -28.6720   23.3760 O   0  0  0  0  0  0  0  0  0  0  0  0
  -20.7370  -29.5820   21.6740 H   0  0  0  0  0  0  0  0  0  0  0  0
  -17.8580  -27.8220   22.8400 C   0  0  0  0  0  0  0  0  0  0  0  0
  -20.4050  -28.1290   23.1680 C   0  0  0  0  0  3  0  0  0  0  0  0
  -20.5420  -26.6730   22.6620 C   0  0  0  0  0  2  0  0  0  0  0  0
  -19.4720  -26.2900   21.6330 C   0  0  0  0  0  2  0  0  0  0  0  0
  -18.0700  -26.4460   22.2330 C   0  0  0  0  0  2  0  0  0  0  0  0
  -18.9550  -28.6180   23.2650 C   0  0  0  0  0  0  0  0  0  0  0  0
  -18.7030  -29.9030   23.7910 C   0  0  0  0  0  3  0  0  0  0  0  0
  -17.3880  -30.3930   23.9000 C   0  0  0  0  0  3  0  0  0  0  0  0
  -16.3050  -29.5920   23.4960 C   0  0  0  0  0  3  0  0  0  0  0  0
  -16.5390  -28.3100   22.9690 C   0  0  0  0  0  3  0  0  0  0  0  0
  -25.7890  -32.2480   23.7340 C   0  0  0  0  0  3  0  0  0  0  0  0
  -25.5110  -33.6410   24.1120 N   0  0  0  0  0  0  0  0  0  0  0  0
  -25.8060  -34.7050   23.3540 C   0  0  0  0  0  0  0  0  0  0  0  0
  -26.4140  -34.6180   22.2830 O   0  0  0  0  0  0  0  0  0  0  0  0
  -24.9550  -33.7840   24.9420 H   0  0  0  0  0  0  0  0  0  0  0  0
  -24.0610  -36.5050   23.1410 C   0  0  0  0  0  1  0  0  0  0  0  0
  -25.3510  -36.0840   23.8620 C   0  0  0  0  0  3  0  0  0  0  0  0
  -27.5350  -36.9590   24.5660 C   0  0  0  0  0  1  0  0  0  0  0  0
  -26.3740  -37.1400   23.6970 N   0  0  0  0  0  0  0  0  0  0  0  0
  -25.9770  -38.0570   23.8820 H   0  0  0  0  0  0  0  0  0  0  0  0
  -26.3470  -31.4360   24.9660 C   0  0  1  0  0  0  0  0  0  0  0  0
  -25.2840  -31.1390   26.0440 C   0  0  0  0  0  1  0  0  0  0  0  0
  -26.9480  -30.0840   24.5090 C   0  0  0  0  0  1  0  0  0  0  0  0
  -27.4970  -32.2280   25.6340 C   0  0  0  0  0  1  0  0  0  0  0  0
  -23.1210  -19.1540   24.9290 C   0  0  0  0  0  2  0  0  0  0  0  0
  -23.8970  -16.8840   24.1990 C   0  0  0  0  0  0  0  0  0  0  0  0
  -24.0550  -18.0330   24.8620 N   0  0  0  0  0  0  0  0  0  0  0  0
  -22.8440  -16.5860   23.6330 O   0  0  0  0  0  0  0  0  0  0  0  0
  -24.9430  -18.2210   25.3070 H   0  0  0  0  0  0  0  0  0  0  0  0
  -25.1210  -15.9460   24.1680 C   0  0  0  0  0  2  0  0  0  0  0  0
  -24.8360  -14.7470   23.4310 O   0  0  0  0  0  0  0  0  0  0  0  0
  -25.5050  -13.5590   23.8900 C   0  0  0  0  0  2  0  0  0  0  0  0
  -26.6460  -13.1910   22.9290 C   0  0  0  0  0  0  0  0  0  0  0  0
  -26.3050  -12.3630   21.8860 N   0  0  0  0  0  2  0  0  0  0  0  0
  -27.7400  -13.7510   23.0190 O   0  0  0  0  0  0  0  0  0  0  0  0
  -25.4780  -11.8390   22.1240 H   0  0  0  0  0  0  0  0  0  0  0  0
  -26.9590  -12.1410   18.5740 C   0  0  0  0  0  1  0  0  0  0  0  0
  -28.5290  -12.9070   17.8420 C   0  0  0  0  0  2  0  0  0  0  0  0
  -31.2690  -13.3090   19.2050 C   0  0  0  0  0  0  0  0  0  0  0  0
  -31.7910  -11.0290   19.5610 C   0  0  0  0  0  2  0  0  0  0  0  0
  -30.8020  -10.5900   18.4860 C   0  0  0  0  0  2  0  0  0  0  0  0
  -29.4190  -10.6750   19.1520 C   0  0  0  0  0  2  0  0  0  0  0  0
  -29.1680  -11.9100   20.2240 C   0  0  0  0  0  3  0  0  0  0  0  0
  -30.2640  -12.1550   21.1240 C   0  0  0  0  0  2  0  0  0  0  0  0
  -31.2670  -12.2870   20.0890 N   0  0  0  0  0  0  0  0  0  0  0  0
  -32.3950  -13.8470   19.1380 O   0  0  0  0  0  0  0  0  0  0  0  0
  -30.0930  -13.4810   18.2940 N   0  0  0  0  0  0  0  0  0  0  0  0
  -30.3370  -14.2300   17.6580 H   0  0  0  0  0  0  0  0  0  0  0  0
  -26.7380  -13.7100   20.1570 C   0  0  0  0  0  0  0  0  0  0  0  0
  -25.2790  -12.9510   19.8380 C   0  0  0  0  0  0  0  0  0  0  0  0
  -25.4950  -11.2390   19.9330 C   0  0  0  0  0  0  0  0  0  0  0  0
  -27.9210  -12.2620   20.5070 N   0  0  0  0  0  0  0  0  0  0  0  0
  -27.0190  -10.8430   20.3010 N   0  0  0  0  0  0  0  0  0  0  0  0
  -24.5900  -10.2010   20.4200 C   0  0  0  0  0  0  0  0  0  0  0  0
  -24.9550   -9.2850   21.4560 C   0  0  0  0  0  3  0  0  0  0  0  0
  -24.0730   -8.2570   21.8440 C   0  0  0  0  0  3  0  0  0  0  0  0
  -22.8180   -8.1580   21.2030 C   0  0  0  0  0  0  0  0  0  0  0  0
  -22.4630   -9.0910   20.2150 C   0  0  0  0  0  3  0  0  0  0  0  0
  -23.3330  -10.1120   19.8340 C   0  0  0  0  0  3  0  0  0  0  0  0
  -21.9110   -7.1530   21.4170 O   0  0  0  0  0  0  0  0  0  0  0  0
  -21.8240   -6.4860   22.6050 C   0  0  0  0  0  0  0  0  0  0  0  0
  -21.6720   -7.1660   23.8340 C   0  0  0  0  0  3  0  0  0  0  0  0
  -21.4940   -6.4320   25.0210 C   0  0  0  0  0  3  0  0  0  0  0  0
  -21.4570   -5.0260   24.9810 C   0  0  0  0  0  0  0  0  0  0  0  0
  -21.6050   -4.3490   23.7610 C   0  0  0  0  0  3  0  0  0  0  0  0
  -21.7850   -5.0780   22.5720 C   0  0  0  0  0  0  0  0  0  0  0  0
  -21.8980   -4.4270   21.3880 F   0  0  0  0  0  0  0  0  0  0  0  0
  -21.2760   -4.3200   26.1220 F   0  0  0  0  0  0  0  0  0  0  0  0
  -23.9400  -13.5780   19.9380 C   0  0  0  0  0  0  0  0  0  0  0  0
  -23.0580  -13.0170   20.7690 N   0  0  0  0  0  0  0  0  0  0  0  0
  -23.6920  -14.5920   19.3080 O   0  0  0  0  0  0  0  0  0  0  0  0
  -23.2690  -12.1910   21.3020 H   0  0  0  0  0  0  0  0  0  0  0  0
  -22.1600  -13.4620   20.8980 H   0  0  0  0  0  0  0  0  0  0  0  0
  -27.1260  -14.9890   19.8240 N   0  0  0  0  0  0  0  0  0  0  0  0
  -26.4810  -15.7170   19.5460 H   0  0  0  0  0  0  0  0  0  0  0  0
  -28.0840  -15.3080   19.9090 H   0  0  0  0  0  0  0  0  0  0  0  0
  1 54  1  0
  1  3  2  0
  2  5  1  0
  2  1  1  0
  4  2  1  0
  6  7  1  0
  6  5  1  0
  7  9  1  0
  8  6  2  0
 10  7  1  0
 11 10  1  0
 12 11  1  0
 13 12  1  0
 14 25  2  0
 15 13  1  0
 15 20  1  0
 16 24  1  0
 16 26  1  0
 17 23  1  0
 17 19  1  0
 18 24  1  0
 19 18  1  0
 20 19  2  0
 21 22  1  0
 21 15  2  0
 22 17  2  0
 23 16  1  0
 24 14  1  0
 26 28  2  0
 27 26  1  0
 29 27  1  0
 30 39  2  0
 30 35  1  0
 31 27  1  0
 31 35  1  0
 32 31  1  0
 33 34  1  0
 33 32  1  0
 34 30  1  0
 35 36  2  0
 36 37  1  0
 38 37  2  0
 39 38  1  0
 40 14  1  0
 40 41  1  0
 40 50  1  0
 41 44  1  0
 42 46  1  0
 42 41  1  0
 43 42  2  0
 46 45  1  0
 48 46  1  0
 48 49  1  0
 48 47  1  0
 50 53  1  1
 50 51  1  0
 52 50  1  0
 55 56  1  0
 56 54  1  0
 56 58  1  0
 57 55  2  0
 59 55  1  0
 60 61  1  0
 60 59  1  0
 62 64  2  0
 62 61  1  0
 63 65  1  0
 63 62  1  0
 67 76  1  0
 67 66  1  0
 68 74  1  0
 69 74  1  0
 70 71  1  0
 70 69  1  0
 72 71  1  0
 72 81  1  0
 72 73  1  0
 74 73  1  0
 75 68  2  0
 76 68  1  0
 77 76  1  0
 78 81  1  0
 79 80  1  0
 79 98  1  0
 79 78  2  0
 80 82  2  0
 80 83  1  0
 82 81  1  0
 83 84  1  0
 84 85  2  0
 86 89  1  0
 86 85  1  0
 87 86  2  0
 88 87  1  0
 88 83  2  0
 89 90  1  0
 90 91  1  0
 91 92  2  0
 93 92  1  0
 93 97  1  0
 94 93  2  0
 95 90  2  0
 95 94  1  0
 96 95  1  0
 98 99  1  0
 99102  1  0
 99101  1  0
100 98  2  0
103105  1  0
103 78  1  0
104103  1  0
M  ISO  4  12 101  13 101  68 100  76 100
M  END
>  <TORSDO>  (62) 
F 29

>  <SCORE>  (62) 
39.220

>  <name>  (62) 
65

>  <ligand_id>  (62) 
65

>  <original_smiles>  (62) 
[H]c1c([H])c([H])c2c(c1[H])C([H])([H])C([H])([H])C([H])([H])C2([H])N([H])C(=O)C1([H])N(C(=O)C([H])(N([H])C(=O)C([H])(N([H])C([H])([H])[H])C([H])([H])[H])C(C([H])([H])[H])(C([H])([H])[H])C([H])([H])[H])C([H])([H])c2c([H])c(OC([H])([H])C([H])([H])C([H])([H])N([H])C(=O)C([H])([H])N([H])C(=O)C([H])([H])N([H])C(=O)C([H])([H])OC([H])([H])C(=O)N([H])C([H])([H])C([H])([H])N([H])C(=O)N3C([H])([H])C([H])([H])C([H])([H])C([H])(n4nc(-c5c([H])c([H])c(Oc6c([H])c([H])c(F)c([H])c6F)c([H])c5[H])c(C(=O)N([H])[H])c4N([H])[H])C3([H])[H])c([H])c([H])c2C1([H])[H]

>  <smiles>  (62) 
[H]c1c([H])c([H])c2c(c1[H])C([H])([H])C([H])([H])C([H])([H])C2([H])N([H])C(=O)C1([H])N(C(=O)C([H])(N([H])C(=O)C([H])(N([H])C([H])([H])[H])C([H])([H])[H])C(C([H])([H])[H])(C([H])([H])[H])C([H])([H])[H])C([H])([H])c2c([H])c(OC([H])([H])C([H])([H])C([H])([H])N([H])C(=O)C([H])([H])N([H])C(=O)C([H])([H])N([H])C(=O)C([H])([H])OC([H])([H])C(=O)N([H])C([H])([H])C([H])([H])N([H])C(=O)N3C([H])([H])C([H])([H])C([H])([H])C([H])(n4nc(-c5c([H])c([H])c(Oc6c([H])c([H])c(F)c([H])c6F)c([H])c5[H])c(C(=O)N([H])[H])c4N([H])[H])C3([H])[H])c([H])c([H])c2C1([H])[H]

$$$$
66:0:0
     RDKit          3D

101108  0  0  1  0  0  0  0  0999 V2000
  -26.8230  -24.7630   25.7610 C   0  0  0  0  0  0  0  0  0  0  0  0
  -25.9540  -24.0510   25.0250 N   0  0  0  0  0  0  0  0  0  0  0  0
  -26.5000  -25.7950   26.3520 O   0  0  0  0  0  0  0  0  0  0  0  0
  -26.3150  -23.2270   24.5660 H   0  0  0  0  0  0  0  0  0  0  0  0
  -24.5530  -24.4040   24.7770 C   0  0  0  0  0  2  0  0  0  0  0  0
  -24.0450  -23.9730   23.3800 C   0  0  0  0  0  2  0  0  0  0  0  0
  -25.1340  -23.6360   22.3450 C   0  0  0  0  0  2  0  0  0  0  0  0
  -26.2030  -24.7280   22.1770 C   0  0  0  0  0  2  0  0  0  0  0  0
  -27.5260  -24.1660   21.6390 C   0  0  0  0  0  2  0  0  0  0  0  0
  -28.6380  -25.2140   21.7240 C   0  0  0  0  0  2  0  0  0  0  0  0
  -29.9190  -24.7940   20.9870 C   0  0  0  0  0  2  0  0  0  0  0  0
  -30.9480  -25.9290   20.8430 C   0  0  0  0  0  2  0  0  0  0  0  0
  -30.6570  -26.7910   19.7430 O   0  0  0  0  0  0  0  0  0  0  0  0
  -25.5940  -30.0190   23.5620 C   0  0  0  0  0  0  0  0  0  0  0  0
  -29.4060  -27.3470   19.7720 C   0  0  0  0  0  0  0  0  0  0  0  0
  -24.9100  -29.1710   21.3400 C   0  0  0  0  0  3  0  0  0  0  0  0
  -26.8070  -28.4280   19.8050 C   0  0  0  0  0  0  0  0  0  0  0  0
  -27.3310  -29.8660   21.7880 C   0  0  0  0  0  2  0  0  0  0  0  0
  -27.7490  -28.8410   20.7570 C   0  0  0  0  0  0  0  0  0  0  0  0
  -29.0540  -28.3080   20.7430 C   0  0  0  0  0  3  0  0  0  0  0  0
  -28.4620  -26.9600   18.8000 C   0  0  0  0  0  3  0  0  0  0  0  0
  -27.1570  -27.4850   18.8230 C   0  0  0  0  0  3  0  0  0  0  0  0
  -25.4330  -29.0500   19.8840 C   0  0  0  0  0  2  0  0  0  0  0  0
  -25.9510  -29.6820   22.2900 N   0  0  0  0  0  0  0  0  0  0  0  0
  -24.4150  -29.9590   23.9330 O   0  0  0  0  0  0  0  0  0  0  0  0
  -24.3130  -27.8080   21.7580 C   0  0  0  0  0  0  0  0  0  0  0  0
  -23.1090  -27.5050   21.2500 N   0  0  0  0  0  0  0  0  0  0  0  0
  -24.9400  -27.0470   22.5000 O   0  0  0  0  0  0  0  0  0  0  0  0
  -22.6570  -28.1880   20.6570 H   0  0  0  0  0  0  0  0  0  0  0  0
  -20.0690  -25.7390   20.4190 C   0  0  0  0  0  0  0  0  0  0  0  0
  -22.3710  -26.2600   21.4710 C   0  0  0  0  0  3  0  0  0  0  0  0
  -22.9190  -25.1180   20.5820 C   0  0  0  0  0  2  0  0  0  0  0  0
  -22.1790  -24.9860   19.2450 C   0  0  0  0  0  2  0  0  0  0  0  0
  -20.6910  -24.7160   19.4840 C   0  0  0  0  0  2  0  0  0  0  0  0
  -20.8590  -26.4740   21.3410 C   0  0  0  0  0  0  0  0  0  0  0  0
  -20.2330  -27.4360   22.1610 C   0  0  0  0  0  3  0  0  0  0  0  0
  -18.8470  -27.6680   22.0750 C   0  0  0  0  0  3  0  0  0  0  0  0
  -18.0680  -26.9270   21.1700 C   0  0  0  0  0  3  0  0  0  0  0  0
  -18.6780  -25.9640   20.3470 C   0  0  0  0  0  3  0  0  0  0  0  0
  -26.6460  -30.5200   24.6010 C   0  0  0  0  0  3  0  0  0  0  0  0
  -26.9100  -29.4910   25.7680 C   0  0  1  0  0  0  0  0  0  0  0  0
  -25.6200  -28.9380   26.4150 C   0  0  0  0  0  1  0  0  0  0  0  0
  -27.7340  -28.2850   25.2570 C   0  0  0  0  0  1  0  0  0  0  0  0
  -27.7610  -30.1610   26.8720 C   0  0  0  0  0  1  0  0  0  0  0  0
  -26.1650  -31.7990   25.1420 N   0  0  0  0  0  0  0  0  0  0  0  0
  -26.5800  -33.0050   24.7310 C   0  0  0  0  0  0  0  0  0  0  0  0
  -27.4770  -33.1540   23.8980 O   0  0  0  0  0  0  0  0  0  0  0  0
  -25.4040  -31.7540   25.8020 H   0  0  0  0  0  0  0  0  0  0  0  0
  -24.8530  -34.7850   24.3430 C   0  0  0  0  0  1  0  0  0  0  0  0
  -25.8920  -34.2420   25.3360 C   0  0  0  0  0  3  0  0  0  0  0  0
  -27.7250  -34.9470   26.8070 C   0  0  0  0  0  1  0  0  0  0  0  0
  -26.8350  -35.3180   25.7090 N   0  0  0  0  0  0  0  0  0  0  0  0
  -26.3340  -36.1620   25.9790 H   0  0  0  0  0  0  0  0  0  0  0  0
  -28.2700  -24.2580   25.8840 C   0  0  0  0  0  2  0  0  0  0  0  0
  -29.3220  -22.5580   24.3930 C   0  0  0  0  0  0  0  0  0  0  0  0
  -28.4680  -22.9070   25.3600 N   0  0  0  0  0  0  0  0  0  0  0  0
  -30.0670  -23.3660   23.8370 O   0  0  0  0  0  0  0  0  0  0  0  0
  -27.9060  -22.1760   25.7750 H   0  0  0  0  0  0  0  0  0  0  0  0
  -29.3070  -21.0780   23.9950 C   0  0  0  0  0  2  0  0  0  0  0  0
  -29.6440  -20.8840   22.6200 O   0  0  0  0  0  0  0  0  0  0  0  0
  -31.0110  -20.5780   22.3520 C   0  0  0  0  0  2  0  0  0  0  0  0
  -30.9760  -19.5080   21.2490 C   0  0  0  0  0  2  0  0  0  0  0  0
  -32.2710  -18.6850   21.0900 C   0  0  0  0  0  2  0  0  0  0  0  0
  -32.5150  -16.3860   20.0440 C   0  0  0  0  0  0  0  0  0  0  0  0
  -32.3250  -14.0670   19.1990 C   0  0  0  0  0  2  0  0  0  0  0  0
  -31.4810  -13.9920   17.9130 C   0  0  0  0  0  2  0  0  0  0  0  0
  -29.9770  -13.9090   18.2390 C   0  0  0  0  0  2  0  0  0  0  0  0
  -29.5290  -14.9930   19.2520 C   0  0  0  0  0  3  0  0  0  0  0  0
  -30.4660  -14.9830   20.4740 C   0  0  0  0  0  2  0  0  0  0  0  0
  -31.8510  -15.2030   19.9990 N   0  0  0  0  0  0  0  0  0  0  0  0
  -33.5780  -16.6050   19.4530 O   0  0  0  0  0  0  0  0  0  0  0  0
  -31.9150  -17.2940   20.8200 N   0  0  0  0  0  0  0  0  0  0  0  0
  -31.0750  -16.9580   21.2680 H   0  0  0  0  0  0  0  0  0  0  0  0
  -27.1220  -15.7580   19.7690 C   0  0  0  0  0  0  0  0  0  0  0  0
  -25.9910  -15.0590   20.1040 C   0  0  0  0  0  0  0  0  0  0  0  0
  -26.3840  -13.6880   20.1650 C   0  0  0  0  0  0  0  0  0  0  0  0
  -28.1330  -14.8160   19.6480 N   0  0  0  0  0  0  0  0  0  0  0  0
  -27.6860  -13.5670   19.9410 N   0  0  0  0  0  0  0  0  0  0  0  0
  -25.5840  -12.4720   20.3680 C   0  0  0  0  0  0  0  0  0  0  0  0
  -25.9050  -11.5370   21.3780 C   0  0  0  0  0  3  0  0  0  0  0  0
  -25.1130  -10.3820   21.5630 C   0  0  0  0  0  3  0  0  0  0  0  0
  -23.9860  -10.1570   20.7360 C   0  0  0  0  0  0  0  0  0  0  0  0
  -23.6830  -11.0790   19.7190 C   0  0  0  0  0  3  0  0  0  0  0  0
  -24.4760  -12.2230   19.5330 C   0  0  0  0  0  3  0  0  0  0  0  0
  -23.1750   -9.0500   20.8260 O   0  0  0  0  0  0  0  0  0  0  0  0
  -22.8600   -8.4850   22.0370 C   0  0  0  0  0  0  0  0  0  0  0  0
  -22.2660   -9.2330   23.0770 C   0  0  0  0  0  3  0  0  0  0  0  0
  -21.8940   -8.5970   24.2770 C   0  0  0  0  0  3  0  0  0  0  0  0
  -22.1050   -7.2140   24.4380 C   0  0  0  0  0  0  0  0  0  0  0  0
  -22.6920   -6.4660   23.4010 C   0  0  0  0  0  3  0  0  0  0  0  0
  -23.0650   -7.1000   22.2030 C   0  0  0  0  0  0  0  0  0  0  0  0
  -23.6100   -6.3710   21.1980 F   0  0  0  0  0  0  0  0  0  0  0  0
  -21.7420   -6.6010   25.5880 F   0  0  0  0  0  0  0  0  0  0  0  0
  -24.6070  -15.6160   20.2670 C   0  0  0  0  0  0  0  0  0  0  0  0
  -23.7770  -14.9730   21.0800 N   0  0  0  0  0  0  0  0  0  0  0  0
  -24.2650  -16.6530   19.7030 O   0  0  0  0  0  0  0  0  0  0  0  0
  -24.0610  -14.1310   21.5600 H   0  0  0  0  0  0  0  0  0  0  0  0
  -22.8450  -15.3300   21.2290 H   0  0  0  0  0  0  0  0  0  0  0  0
  -27.3680  -17.1090   19.5440 N   0  0  0  0  0  0  0  0  0  0  0  0
  -26.6350  -17.8090   19.5750 H   0  0  0  0  0  0  0  0  0  0  0  0
  -28.2670  -17.4880   19.2720 H   0  0  0  0  0  0  0  0  0  0  0  0
  1 54  1  0
  1  3  2  0
  2  1  1  0
  4  2  1  0
  5  2  1  0
  6  5  1  0
  7  6  1  0
  8  7  1  0
  9 10  1  0
  9  8  1  0
 11 10  1  0
 12 11  1  0
 13 15  1  0
 13 12  1  0
 14 25  2  0
 15 20  1  0
 16 26  1  0
 16 24  1  0
 17 23  1  0
 17 19  1  0
 18 24  1  0
 19 18  1  0
 20 19  2  0
 21 22  1  0
 21 15  2  0
 22 17  2  0
 23 16  1  0
 24 14  1  0
 26 28  2  0
 27 26  1  0
 29 27  1  0
 30 35  1  0
 31 27  1  0
 32 31  1  0
 33 34  1  0
 33 32  1  0
 34 30  1  0
 35 31  1  0
 35 36  2  0
 37 36  1  0
 38 37  2  0
 39 30  2  0
 39 38  1  0
 40 14  1  0
 40 45  1  0
 40 41  1  0
 41 42  1  1
 41 44  1  0
 43 41  1  0
 45 48  1  0
 46 45  1  0
 46 50  1  0
 47 46  2  0
 50 49  1  0
 50 52  1  0
 52 53  1  0
 52 51  1  0
 55 56  1  0
 56 58  1  0
 56 54  1  0
 57 55  2  0
 59 55  1  0
 60 59  1  0
 61 60  1  0
 62 61  1  0
 63 62  1  0
 64 72  1  0
 65 70  1  0
 66 67  1  0
 66 65  1  0
 68 67  1  0
 68 77  1  0
 68 69  1  0
 70 64  1  0
 70 69  1  0
 71 64  2  0
 72 63  1  0
 72 73  1  0
 74 75  2  0
 75 76  1  0
 75 94  1  0
 76 79  1  0
 77 74  1  0
 77 78  1  0
 78 76  2  0
 79 80  1  0
 80 81  2  0
 82 85  1  0
 82 81  1  0
 83 82  2  0
 84 83  1  0
 84 79  2  0
 85 86  1  0
 86 91  2  0
 86 87  1  0
 87 88  2  0
 88 89  1  0
 89 93  1  0
 90 89  2  0
 91 90  1  0
 92 91  1  0
 94 95  1  0
 95 98  1  0
 95 97  1  0
 96 94  2  0
 99100  1  0
 99 74  1  0
101 99  1  0
M  ISO  4  12 101  13 101  64 100  72 100
M  END
>  <TORSDO>  (63) 
F 31

>  <SCORE>  (63) 
6.488

>  <name>  (63) 
66

>  <ligand_id>  (63) 
66

>  <original_smiles>  (63) 
[H]c1c([H])c([H])c2c(c1[H])C([H])([H])C([H])([H])C([H])([H])C2([H])N([H])C(=O)C1([H])N(C(=O)C([H])(N([H])C(=O)C([H])(N([H])C([H])([H])[H])C([H])([H])[H])C(C([H])([H])[H])(C([H])([H])[H])C([H])([H])[H])C([H])([H])c2c([H])c(OC([H])([H])C([H])([H])C([H])([H])C([H])([H])C([H])([H])C([H])([H])C([H])([H])C([H])([H])N([H])C(=O)C([H])([H])N([H])C(=O)C([H])([H])OC([H])([H])C([H])([H])C([H])([H])N([H])C(=O)N3C([H])([H])C([H])([H])C([H])([H])C([H])(n4nc(-c5c([H])c([H])c(Oc6c([H])c([H])c(F)c([H])c6F)c([H])c5[H])c(C(=O)N([H])[H])c4N([H])[H])C3([H])[H])c([H])c([H])c2C1([H])[H]

>  <smiles>  (63) 
[H]c1c([H])c([H])c2c(c1[H])C([H])([H])C([H])([H])C([H])([H])C2([H])N([H])C(=O)C1([H])N(C(=O)C([H])(N([H])C(=O)C([H])(N([H])C([H])([H])[H])C([H])([H])[H])C(C([H])([H])[H])(C([H])([H])[H])C([H])([H])[H])C([H])([H])c2c([H])c(OC([H])([H])C([H])([H])C([H])([H])C([H])([H])C([H])([H])C([H])([H])C([H])([H])C([H])([H])N([H])C(=O)C([H])([H])N([H])C(=O)C([H])([H])OC([H])([H])C([H])([H])C([H])([H])N([H])C(=O)N3C([H])([H])C([H])([H])C([H])([H])C([H])(n4nc(-c5c([H])c([H])c(Oc6c([H])c([H])c(F)c([H])c6F)c([H])c5[H])c(C(=O)N([H])[H])c4N([H])[H])C3([H])[H])c([H])c([H])c2C1([H])[H]

$$$$
67:0:0
     RDKit          3D

107114  0  0  1  0  0  0  0  0999 V2000
  -29.4550  -21.1100   23.8290 C   0  0  0  0  0  2  0  0  0  0  0  0
  -30.4200  -20.5910   22.9310 O   0  0  0  0  0  0  0  0  0  0  0  0
  -31.2110  -19.5830   23.5400 C   0  0  0  0  0  2  0  0  0  0  0  0
  -32.1820  -19.0360   22.4980 C   0  0  0  0  0  2  0  0  0  0  0  0
  -32.6960  -20.1320   21.7520 O   0  0  0  0  0  0  0  0  0  0  0  0
  -33.6810  -19.7220   20.8170 C   0  0  0  0  0  2  0  0  0  0  0  0
  -33.7550  -20.7430   19.6760 C   0  0  0  0  0  2  0  0  0  0  0  0
  -32.1650  -21.2800   17.8290 C   0  0  0  0  0  0  0  0  0  0  0  0
  -32.4390  -20.8580   19.0670 N   0  0  0  0  0  0  0  0  0  0  0  0
  -33.0300  -21.6620   17.0360 O   0  0  0  0  0  0  0  0  0  0  0  0
  -31.6490  -20.5690   19.6370 H   0  0  0  0  0  0  0  0  0  0  0  0
  -30.6780  -21.2910   17.4350 C   0  0  0  0  0  2  0  0  0  0  0  0
  -29.8970  -20.5340   18.3700 O   0  0  0  0  0  0  0  0  0  0  0  0
  -29.7560  -19.1500   18.0560 C   0  0  0  0  0  2  0  0  0  0  0  0
  -29.9700  -18.2500   19.2890 C   0  0  0  0  0  2  0  0  0  0  0  0
  -29.5260  -16.8120   18.9960 C   0  0  0  0  0  2  0  0  0  0  0  0
  -30.4090  -15.0280   20.4420 C   0  0  0  0  0  0  0  0  0  0  0  0
  -30.4920  -12.6050   20.1430 C   0  0  0  0  0  2  0  0  0  0  0  0
  -29.7030  -12.2970   18.8520 C   0  0  0  0  0  2  0  0  0  0  0  0
  -28.2030  -12.1110   19.1700 C   0  0  0  0  0  2  0  0  0  0  0  0
  -27.6240  -13.2530   20.0480 C   0  0  0  0  0  3  0  0  0  0  0  0
  -28.5480  -13.5500   21.2550 C   0  0  0  0  0  2  0  0  0  0  0  0
  -29.9010  -13.8060   20.7430 N   0  0  0  0  0  0  0  0  0  0  0  0
  -31.5770  -15.2230   20.1110 O   0  0  0  0  0  0  0  0  0  0  0  0
  -29.4630  -15.9390   20.1740 N   0  0  0  0  0  0  0  0  0  0  0  0
  -28.5380  -15.7050   20.5020 H   0  0  0  0  0  0  0  0  0  0  0  0
  -25.2310  -13.8520   20.7830 C   0  0  0  0  0  0  0  0  0  0  0  0
  -24.1330  -13.0770   21.0450 C   0  0  0  0  0  0  0  0  0  0  0  0
  -24.5570  -11.7250   20.8710 C   0  0  0  0  0  0  0  0  0  0  0  0
  -26.2550  -12.9690   20.4710 N   0  0  0  0  0  0  0  0  0  0  0  0
  -25.8490  -11.6790   20.5790 N   0  0  0  0  0  0  0  0  0  0  0  0
  -23.7950  -10.4710   20.9090 C   0  0  0  0  0  0  0  0  0  0  0  0
  -24.0870   -9.4580   21.8470 C   0  0  0  0  0  3  0  0  0  0  0  0
  -23.3320   -8.2660   21.8710 C   0  0  0  0  0  3  0  0  0  0  0  0
  -22.2720   -8.0830   20.9530 C   0  0  0  0  0  0  0  0  0  0  0  0
  -22.0000   -9.0840   20.0050 C   0  0  0  0  0  3  0  0  0  0  0  0
  -22.7560  -10.2670   19.9790 C   0  0  0  0  0  3  0  0  0  0  0  0
  -21.4960   -6.9500   20.8870 O   0  0  0  0  0  0  0  0  0  0  0  0
  -21.1430   -6.2530   22.0130 C   0  0  0  0  0  0  0  0  0  0  0  0
  -20.4300   -6.8590   23.0700 C   0  0  0  0  0  3  0  0  0  0  0  0
  -20.0300   -6.0900   24.1800 C   0  0  0  0  0  3  0  0  0  0  0  0
  -20.3260   -4.7150   24.2290 C   0  0  0  0  0  0  0  0  0  0  0  0
  -21.0280   -4.1080   23.1730 C   0  0  0  0  0  3  0  0  0  0  0  0
  -21.4320   -4.8750   22.0670 C   0  0  0  0  0  0  0  0  0  0  0  0
  -22.0920   -4.2820   21.0440 F   0  0  0  0  0  0  0  0  0  0  0  0
  -19.9320   -3.9740   25.2900 F   0  0  0  0  0  0  0  0  0  0  0  0
  -22.7450  -13.5670   21.3430 C   0  0  0  0  0  0  0  0  0  0  0  0
  -21.9910  -12.8160   22.1400 N   0  0  0  0  0  0  0  0  0  0  0  0
  -22.3370  -14.6440   20.9130 O   0  0  0  0  0  0  0  0  0  0  0  0
  -22.3340  -11.9460   22.5190 H   0  0  0  0  0  0  0  0  0  0  0  0
  -21.0570  -13.1180   22.3770 H   0  0  0  0  0  0  0  0  0  0  0  0
  -25.4310  -15.2290   20.7610 N   0  0  0  0  0  0  0  0  0  0  0  0
  -24.6680  -15.8800   20.9110 H   0  0  0  0  0  0  0  0  0  0  0  0
  -26.2840  -15.6890   20.4710 H   0  0  0  0  0  0  0  0  0  0  0  0
  -29.1310  -22.5500   23.4010 C   0  0  0  0  0  2  0  0  0  0  0  0
  -28.8160  -22.6570   22.0120 O   0  0  0  0  0  0  0  0  0  0  0  0
  -27.4970  -22.2330   21.6770 C   0  0  0  0  0  2  0  0  0  0  0  0
  -27.4180  -21.9260   20.1780 C   0  0  0  0  0  2  0  0  0  0  0  0
  -27.5500  -23.1160   19.4130 O   0  0  0  0  0  0  0  0  0  0  0  0
  -27.3830  -22.8780   18.0180 C   0  0  0  0  0  2  0  0  0  0  0  0
  -27.6220  -24.2230   17.3340 C   0  0  0  0  0  2  0  0  0  0  0  0
  -29.0270  -24.6480   17.5450 N   0  0  0  0  0  4  0  0  0  0  0  0
  -29.5290  -24.5280   16.6740 H   0  0  0  0  0  0  0  0  0  0  0  0
  -29.4360  -24.0090   18.2150 H   0  0  0  0  0  0  0  0  0  0  0  0
  -29.2090  -26.0220   18.0680 C   0  0  0  0  0  2  0  0  0  0  0  0
  -29.1920  -26.0450   19.6150 C   0  0  0  0  0  2  0  0  0  0  0  0
  -29.0500  -27.3550   20.1710 O   0  0  0  0  0  0  0  0  0  0  0  0
  -24.8000  -31.9910   23.5160 C   0  0  0  0  0  0  0  0  0  0  0  0
  -27.8000  -27.9410   20.2180 C   0  0  0  0  0  0  0  0  0  0  0  0
  -23.7240  -30.6150   21.7690 C   0  0  0  0  0  3  0  0  0  0  0  0
  -25.3020  -29.2680   20.2960 C   0  0  0  0  0  0  0  0  0  0  0  0
  -26.2210  -31.1570   21.6440 C   0  0  0  0  0  2  0  0  0  0  0  0
  -26.4140  -29.8340   20.9310 C   0  0  0  0  0  0  0  0  0  0  0  0
  -27.6650  -29.1780   20.8890 C   0  0  0  0  0  3  0  0  0  0  0  0
  -26.6540  -27.3730   19.6140 C   0  0  0  0  0  3  0  0  0  0  0  0
  -25.4140  -28.0320   19.6440 C   0  0  0  0  0  3  0  0  0  0  0  0
  -24.0070  -30.0440   20.3570 C   0  0  0  0  0  2  0  0  0  0  0  0
  -24.9330  -31.2650   22.3720 N   0  0  0  0  0  0  0  0  0  0  0  0
  -23.6920  -32.1600   24.0410 O   0  0  0  0  0  0  0  0  0  0  0  0
  -23.1330  -29.4910   22.6450 C   0  0  0  0  0  0  0  0  0  0  0  0
  -21.8470  -29.1730   22.4160 N   0  0  0  0  0  0  0  0  0  0  0  0
  -23.8270  -28.9160   23.4870 O   0  0  0  0  0  0  0  0  0  0  0  0
  -21.3530  -29.6970   21.7090 H   0  0  0  0  0  0  0  0  0  0  0  0
  -18.6150  -27.5730   22.5830 C   0  0  0  0  0  0  0  0  0  0  0  0
  -21.0860  -28.1270   23.0990 C   0  0  0  0  0  3  0  0  0  0  0  0
  -21.4140  -26.7320   22.5170 C   0  0  0  0  0  2  0  0  0  0  0  0
  -20.4540  -26.3020   21.4040 C   0  0  0  0  0  2  0  0  0  0  0  0
  -19.0120  -26.2680   21.9170 C   0  0  0  0  0  2  0  0  0  0  0  0
  -19.5880  -28.4540   23.1240 C   0  0  0  0  0  0  0  0  0  0  0  0
  -19.1630  -29.6720   23.6990 C   0  0  0  0  0  3  0  0  0  0  0  0
  -17.7960  -30.0040   23.7510 C   0  0  0  0  0  3  0  0  0  0  0  0
  -16.8380  -29.1230   23.2260 C   0  0  0  0  0  3  0  0  0  0  0  0
  -17.2470  -27.9100   22.6450 C   0  0  0  0  0  3  0  0  0  0  0  0
  -26.0270  -32.6680   24.2040 C   0  0  0  0  0  3  0  0  0  0  0  0
  -26.4510  -31.9650   25.5510 C   0  0  1  0  0  0  0  0  0  0  0  0
  -25.2720  -31.7240   26.5230 C   0  0  0  0  0  1  0  0  0  0  0  0
  -27.1140  -30.5950   25.2640 C   0  0  0  0  0  1  0  0  0  0  0  0
  -27.5140  -32.8210   26.2820 C   0  0  0  0  0  1  0  0  0  0  0  0
  -25.6850  -34.0760   24.4350 N   0  0  0  0  0  0  0  0  0  0  0  0
  -26.0730  -35.0900   23.6480 C   0  0  0  0  0  0  0  0  0  0  0  0
  -26.8290  -34.9410   22.6850 O   0  0  0  0  0  0  0  0  0  0  0  0
  -25.0290  -34.2710   25.1770 H   0  0  0  0  0  0  0  0  0  0  0  0
  -24.3720  -36.8390   23.0440 C   0  0  0  0  0  1  0  0  0  0  0  0
  -25.5350  -36.4930   23.9870 C   0  0  0  0  0  3  0  0  0  0  0  0
  -27.5840  -37.4320   24.9640 C   0  0  0  0  0  1  0  0  0  0  0  0
  -26.5680  -37.5490   23.9190 N   0  0  0  0  0  0  0  0  0  0  0  0
  -26.1440  -38.4690   23.9970 H   0  0  0  0  0  0  0  0  0  0  0  0
  2  3  1  0
  2  1  1  0
  4  3  1  0
  5  4  1  0
  6  5  1  0
  7  6  1  0
  8  9  1  0
  9 11  1  0
  9  7  1  0
 10  8  2  0
 12  8  1  0
 12 13  1  0
 14 13  1  0
 14 15  1  0
 16 15  1  0
 16 25  1  0
 17 23  1  0
 18 23  1  0
 19 20  1  0
 19 18  1  0
 21 20  1  0
 21 30  1  0
 21 22  1  0
 23 22  1  0
 24 17  2  0
 25 17  1  0
 25 26  1  0
 27 28  2  0
 28 47  1  0
 29 32  1  0
 29 28  1  0
 30 31  1  0
 30 27  1  0
 31 29  2  0
 32 33  1  0
 33 34  2  0
 35 34  1  0
 36 35  2  0
 37 36  1  0
 37 32  2  0
 38 35  1  0
 38 39  1  0
 39 44  2  0
 39 40  1  0
 40 41  2  0
 41 42  1  0
 42 46  1  0
 43 42  2  0
 44 43  1  0
 45 44  1  0
 47 48  1  0
 48 51  1  0
 48 50  1  0
 49 47  2  0
 52 27  1  0
 52 53  1  0
 54 52  1  0
 55  1  1  0
 56 55  1  0
 57 56  1  0
 58 57  1  0
 59 58  1  0
 60 59  1  0
 61 62  1  0
 61 60  1  0
 62 65  1  0
 62 64  1  0
 63 62  1  0
 65 66  1  0
 66 67  1  0
 67 69  1  0
 68 79  2  0
 69 74  1  0
 70 78  1  0
 70 80  1  0
 71 77  1  0
 71 73  1  0
 72 78  1  0
 73 72  1  0
 74 73  2  0
 75 76  1  0
 75 69  2  0
 76 71  2  0
 77 70  1  0
 78 68  1  0
 80 82  2  0
 81 80  1  0
 83 81  1  0
 84 93  2  0
 84 89  1  0
 85 81  1  0
 85 89  1  0
 86 85  1  0
 87 88  1  0
 87 86  1  0
 88 84  1  0
 89 90  2  0
 90 91  1  0
 92 91  2  0
 93 92  1  0
 94 68  1  0
 94 99  1  0
 94 95  1  0
 95 98  1  1
 95 96  1  0
 97 95  1  0
 99102  1  0
100104  1  0
100 99  1  0
101100  2  0
104103  1  0
106104  1  0
106107  1  0
106105  1  0
M  ISO  4  17 100  25 100  66 101  67 101
M  END
>  <TORSDO>  (64) 
F 38

>  <SCORE>  (64) 
-7.282

>  <name>  (64) 
67

>  <ligand_id>  (64) 
67

>  <original_smiles>  (64) 
[H]c1c([H])c([H])c2c(c1[H])C([H])([H])C([H])([H])C([H])([H])C2([H])N([H])C(=O)C1([H])N(C(=O)C([H])(N([H])C(=O)C([H])(N([H])C([H])([H])[H])C([H])([H])[H])C(C([H])([H])[H])(C([H])([H])[H])C([H])([H])[H])C([H])([H])c2c([H])c(OC([H])([H])C([H])([H])[N+]([H])([H])C([H])([H])C([H])([H])OC([H])([H])C([H])([H])OC([H])([H])C([H])([H])OC([H])([H])C([H])([H])OC([H])([H])C([H])([H])N([H])C(=O)C([H])([H])OC([H])([H])C([H])([H])C([H])([H])N([H])C(=O)N3C([H])([H])C([H])([H])C([H])([H])C([H])(n4nc(-c5c([H])c([H])c(Oc6c([H])c([H])c(F)c([H])c6F)c([H])c5[H])c(C(=O)N([H])[H])c4N([H])[H])C3([H])[H])c([H])c([H])c2C1([H])[H]

>  <smiles>  (64) 
[H]c1c([H])c([H])c2c(c1[H])C([H])([H])C([H])([H])C([H])([H])C2([H])N([H])C(=O)C1([H])N(C(=O)C([H])(N([H])C(=O)C([H])(N([H])C([H])([H])[H])C([H])([H])[H])C(C([H])([H])[H])(C([H])([H])[H])C([H])([H])[H])C([H])([H])c2c([H])c(OC([H])([H])C([H])([H])[N+]([H])([H])C([H])([H])C([H])([H])OC([H])([H])C([H])([H])OC([H])([H])C([H])([H])OC([H])([H])C([H])([H])OC([H])([H])C([H])([H])N([H])C(=O)C([H])([H])OC([H])([H])C([H])([H])C([H])([H])N([H])C(=O)N3C([H])([H])C([H])([H])C([H])([H])C([H])(n4nc(-c5c([H])c([H])c(Oc6c([H])c([H])c(F)c([H])c6F)c([H])c5[H])c(C(=O)N([H])[H])c4N([H])[H])C3([H])[H])c([H])c([H])c2C1([H])[H]

$$$$
68:0:0
     RDKit          3D

120127  0  0  1  0  0  0  0  0999 V2000
  -29.0570  -19.6540   11.7650 C   0  0  0  0  0  0  0  0  0  0  0  0
  -29.1560  -18.6460   10.8940 N   0  0  0  0  0  0  0  0  0  0  0  0
  -29.4630  -20.7910   11.5100 O   0  0  0  0  0  0  0  0  0  0  0  0
  -28.8150  -17.7380   11.1780 H   0  0  0  0  0  0  0  0  0  0  0  0
  -29.8750  -18.7110    9.6220 C   0  0  0  0  0  2  0  0  0  0  0  0
  -31.3960  -18.7220    9.8370 C   0  0  0  0  0  0  0  0  0  0  0  0
  -32.0640  -19.7820    9.3700 N   0  0  0  0  0  0  0  0  0  0  0  0
  -31.9570  -17.7770   10.3970 O   0  0  0  0  0  0  0  0  0  0  0  0
  -31.5270  -20.5040    8.9090 H   0  0  0  0  0  0  0  0  0  0  0  0
  -33.5120  -19.9640    9.4320 C   0  0  0  0  0  2  0  0  0  0  0  0
  -34.0170  -20.2280   10.8650 C   0  0  0  0  0  2  0  0  0  0  0  0
  -33.4090  -21.4910   11.4980 C   0  0  0  0  0  2  0  0  0  0  0  0
  -33.7730  -21.6710   12.9820 C   0  0  0  0  0  2  0  0  0  0  0  0
  -33.2150  -22.9900   13.5440 C   0  0  0  0  0  2  0  0  0  0  0  0
  -33.3010  -23.0980   15.0730 C   0  0  0  0  0  2  0  0  0  0  0  0
  -32.9140  -24.5040   15.5670 C   0  0  0  0  0  2  0  0  0  0  0  0
  -32.7750  -24.5960   17.0930 C   0  0  0  0  0  2  0  0  0  0  0  0
  -32.6590  -26.0500   17.5920 C   0  0  0  0  0  2  0  0  0  0  0  0
  -32.6590  -26.1910   19.1270 C   0  0  0  0  0  2  0  0  0  0  0  0
  -31.3270  -26.6210   19.7710 C   0  0  0  0  0  2  0  0  0  0  0  0
  -30.1850  -25.5930   19.6670 C   0  0  0  0  0  2  0  0  0  0  0  0
  -29.2850  -25.8990   18.6000 O   0  0  0  0  0  0  0  0  0  0  0  0
  -25.6390  -29.7500   23.3820 C   0  0  0  0  0  0  0  0  0  0  0  0
  -28.2080  -26.7100   18.8930 C   0  0  0  0  0  0  0  0  0  0  0  0
  -24.4700  -29.2660   21.2540 C   0  0  0  0  0  3  0  0  0  0  0  0
  -25.9200  -28.3000   19.3900 C   0  0  0  0  0  0  0  0  0  0  0  0
  -27.0160  -29.4260   21.3360 C   0  0  0  0  0  2  0  0  0  0  0  0
  -27.0530  -28.4250   20.2030 C   0  0  0  0  0  0  0  0  0  0  0  0
  -28.1940  -27.6350   19.9620 C   0  0  0  0  0  3  0  0  0  0  0  0
  -27.0670  -26.6040   18.0710 C   0  0  0  0  0  3  0  0  0  0  0  0
  -25.9200  -27.3880   18.3160 C   0  0  0  0  0  3  0  0  0  0  0  0
  -24.7410  -29.1850   19.7260 C   0  0  0  0  0  2  0  0  0  0  0  0
  -25.7230  -29.4670   22.0520 N   0  0  0  0  0  0  0  0  0  0  0  0
  -24.5410  -29.8910   23.9400 O   0  0  0  0  0  0  0  0  0  0  0  0
  -23.6650  -28.0180   21.6790 C   0  0  0  0  0  0  0  0  0  0  0  0
  -22.3400  -28.0640   21.4700 N   0  0  0  0  0  0  0  0  0  0  0  0
  -24.2320  -27.0330   22.1570 O   0  0  0  0  0  0  0  0  0  0  0  0
  -21.9520  -28.9120   21.0830 H   0  0  0  0  0  0  0  0  0  0  0  0
  -18.8370  -27.1940   21.3850 C   0  0  0  0  0  0  0  0  0  0  0  0
  -21.3860  -26.9930   21.7550 C   0  0  0  0  0  3  0  0  0  0  0  0
  -21.3670  -25.9470   20.6160 C   0  0  0  0  0  2  0  0  0  0  0  0
  -20.2980  -26.2310   19.5560 C   0  0  0  0  0  2  0  0  0  0  0  0
  -18.9050  -26.2540   20.1920 C   0  0  0  0  0  2  0  0  0  0  0  0
  -20.0050  -27.5540   22.1090 C   0  0  0  0  0  0  0  0  0  0  0  0
  -19.8910  -28.4600   23.1870 C   0  0  0  0  0  3  0  0  0  0  0  0
  -18.6410  -28.9990   23.5470 C   0  0  0  0  0  3  0  0  0  0  0  0
  -17.4860  -28.6250   22.8390 C   0  0  0  0  0  3  0  0  0  0  0  0
  -17.5840  -27.7220   21.7650 C   0  0  0  0  0  3  0  0  0  0  0  0
  -26.9150  -29.9330   24.2630 C   0  0  0  0  0  3  0  0  0  0  0  0
  -27.2240  -28.6840   25.1770 C   0  0  1  0  0  0  0  0  0  0  0  0
  -26.0200  -28.2190   26.0260 C   0  0  0  0  0  1  0  0  0  0  0  0
  -27.6880  -27.4850   24.3160 C   0  0  0  0  0  1  0  0  0  0  0  0
  -28.3850  -29.0130   26.1460 C   0  0  0  0  0  1  0  0  0  0  0  0
  -26.7230  -31.1410   25.0740 N   0  0  0  0  0  0  0  0  0  0  0  0
  -27.3170  -32.3170   24.8370 C   0  0  0  0  0  0  0  0  0  0  0  0
  -28.1520  -32.4800   23.9410 O   0  0  0  0  0  0  0  0  0  0  0  0
  -26.0120  -31.0990   25.7900 H   0  0  0  0  0  0  0  0  0  0  0  0
  -26.0170  -34.4660   24.9490 C   0  0  0  0  0  1  0  0  0  0  0  0
  -26.9230  -33.5050   25.7350 C   0  0  0  0  0  3  0  0  0  0  0  0
  -28.8450  -33.4860   27.2640 C   0  0  0  0  0  1  0  0  0  0  0  0
  -28.0820  -34.2460   26.2760 N   0  0  0  0  0  0  0  0  0  0  0  0
  -27.7840  -35.1160   26.7080 H   0  0  0  0  0  0  0  0  0  0  0  0
  -28.3970  -19.3430   13.1140 C   0  0  0  0  0  2  0  0  0  0  0  0
  -29.7470  -20.1570   15.0310 C   0  0  0  0  0  0  0  0  0  0  0  0
  -28.7700  -20.3190   14.1330 N   0  0  0  0  0  0  0  0  0  0  0  0
  -30.3770  -19.1030   15.1450 O   0  0  0  0  0  0  0  0  0  0  0  0
  -28.3160  -21.2220   14.0850 H   0  0  0  0  0  0  0  0  0  0  0  0
  -30.0390  -21.3530   15.9470 C   0  0  0  0  0  2  0  0  0  0  0  0
  -32.0620  -20.4880   17.1140 C   0  0  0  0  0  0  0  0  0  0  0  0
  -30.8210  -20.9880   17.1260 N   0  0  0  0  0  0  0  0  0  0  0  0
  -32.6890  -20.2890   16.0720 O   0  0  0  0  0  0  0  0  0  0  0  0
  -30.3680  -21.0930   18.0230 H   0  0  0  0  0  0  0  0  0  0  0  0
  -32.6850  -20.1980   18.4840 C   0  0  0  0  0  2  0  0  0  0  0  0
  -34.0800  -19.9480   18.3420 O   0  0  0  0  0  0  0  0  0  0  0  0
  -34.7550  -19.9670   19.5920 C   0  0  0  0  0  2  0  0  0  0  0  0
  -35.9660  -19.0290   19.5360 C   0  0  0  0  0  2  0  0  0  0  0  0
  -35.4750  -17.7030   19.4120 O   0  0  0  0  0  0  0  0  0  0  0  0
  -36.4470  -16.7200   19.7300 C   0  0  0  0  0  2  0  0  0  0  0  0
  -35.8620  -15.3550   19.3650 C   0  0  0  0  0  2  0  0  0  0  0  0
  -34.6520  -15.1710   20.0900 O   0  0  0  0  0  0  0  0  0  0  0  0
  -34.4500  -13.8140   20.4460 C   0  0  0  0  0  2  0  0  0  0  0  0
  -33.3240  -13.7190   21.4940 C   0  0  0  0  0  2  0  0  0  0  0  0
  -32.2780  -11.8240   20.2810 C   0  0  0  0  0  0  0  0  0  0  0  0
  -31.3690   -9.5960   19.7580 C   0  0  0  0  0  2  0  0  0  0  0  0
  -30.4580   -9.5960   18.5170 C   0  0  0  0  0  2  0  0  0  0  0  0
  -29.0080   -9.9250   18.9130 C   0  0  0  0  0  2  0  0  0  0  0  0
  -28.9160  -11.1950   19.7990 C   0  0  0  0  0  3  0  0  0  0  0  0
  -29.9360  -11.1520   20.9590 C   0  0  0  0  0  2  0  0  0  0  0  0
  -31.2800  -10.9130   20.4010 N   0  0  0  0  0  0  0  0  0  0  0  0
  -33.2750  -11.6450   19.5790 O   0  0  0  0  0  0  0  0  0  0  0  0
  -32.1920  -12.8760   21.0980 N   0  0  0  0  0  0  0  0  0  0  0  0
  -31.3450  -12.9600   21.6400 H   0  0  0  0  0  0  0  0  0  0  0  0
  -26.8630  -12.5880   20.4850 C   0  0  0  0  0  0  0  0  0  0  0  0
  -25.6030  -12.2270   20.8810 C   0  0  0  0  0  0  0  0  0  0  0  0
  -25.5900  -10.7970   20.8980 C   0  0  0  0  0  0  0  0  0  0  0  0
  -27.5540  -11.4030   20.2860 N   0  0  0  0  0  0  0  0  0  0  0  0
  -26.7890  -10.3220   20.5880 N   0  0  0  0  0  0  0  0  0  0  0  0
  -24.4880   -9.8540   21.1340 C   0  0  0  0  0  0  0  0  0  0  0  0
  -24.6070   -8.8000   22.0690 C   0  0  0  0  0  3  0  0  0  0  0  0
  -23.5300   -7.9150   22.2870 C   0  0  0  0  0  3  0  0  0  0  0  0
  -22.3180   -8.0820   21.5740 C   0  0  0  0  0  0  0  0  0  0  0  0
  -22.2150   -9.1170   20.6290 C   0  0  0  0  0  3  0  0  0  0  0  0
  -23.2900   -9.9940   20.4070 C   0  0  0  0  0  3  0  0  0  0  0  0
  -21.2280   -7.2560   21.7040 O   0  0  0  0  0  0  0  0  0  0  0  0
  -21.0040   -6.5330   22.8490 C   0  0  0  0  0  0  0  0  0  0  0  0
  -20.8140   -7.1590   24.1000 C   0  0  0  0  0  3  0  0  0  0  0  0
  -20.5200   -6.3830   25.2400 C   0  0  0  0  0  3  0  0  0  0  0  0
  -20.4050   -4.9840   25.1290 C   0  0  0  0  0  0  0  0  0  0  0  0
  -20.5850   -4.3590   23.8820 C   0  0  0  0  0  3  0  0  0  0  0  0
  -20.8810   -5.1330   22.7440 C   0  0  0  0  0  0  0  0  0  0  0  0
  -21.0330   -4.5280   21.5420 F   0  0  0  0  0  0  0  0  0  0  0  0
  -20.1160   -4.2370   26.2200 F   0  0  0  0  0  0  0  0  0  0  0  0
  -24.4470  -13.1470   21.1410 C   0  0  0  0  0  0  0  0  0  0  0  0
  -23.5510  -12.7650   22.0450 N   0  0  0  0  0  0  0  0  0  0  0  0
  -24.3530  -14.2350   20.5720 O   0  0  0  0  0  0  0  0  0  0  0  0
  -23.6400  -11.8780   22.5210 H   0  0  0  0  0  0  0  0  0  0  0  0
  -22.7640  -13.3580   22.2640 H   0  0  0  0  0  0  0  0  0  0  0  0
  -27.4780  -13.8170   20.2590 N   0  0  0  0  0  0  0  0  0  0  0  0
  -26.9980  -14.7010   20.3790 H   0  0  0  0  0  0  0  0  0  0  0  0
  -28.4440  -13.9200   19.9770 H   0  0  0  0  0  0  0  0  0  0  0  0
  1 63  1  0
  2  4  1  0
  2  1  1  0
  3  1  2  0
  5  6  1  0
  5  2  1  0
  6  8  2  0
  7 10  1  0
  7  6  1  0
  9  7  1  0
 10 11  1  0
 11 12  1  0
 12 13  1  0
 13 14  1  0
 14 15  1  0
 15 16  1  0
 16 17  1  0
 17 18  1  0
 18 19  1  0
 19 20  1  0
 21 20  1  0
 22 24  1  0
 22 21  1  0
 23 34  2  0
 24 29  1  0
 25 35  1  0
 25 33  1  0
 26 32  1  0
 26 28  1  0
 27 33  1  0
 28 27  1  0
 29 28  2  0
 30 31  1  0
 30 24  2  0
 31 26  2  0
 32 25  1  0
 33 23  1  0
 35 37  2  0
 36 35  1  0
 38 36  1  0
 39 48  2  0
 39 44  1  0
 40 36  1  0
 40 44  1  0
 41 40  1  0
 42 43  1  0
 42 41  1  0
 43 39  1  0
 44 45  2  0
 45 46  1  0
 47 46  2  0
 48 47  1  0
 49 23  1  0
 49 54  1  0
 49 50  1  0
 50 51  1  1
 50 53  1  0
 52 50  1  0
 54 57  1  0
 55 54  1  0
 55 59  1  0
 56 55  2  0
 59 58  1  0
 59 61  1  0
 61 62  1  0
 61 60  1  0
 63 65  1  0
 64 66  2  0
 64 68  1  0
 65 64  1  0
 67 65  1  0
 68 70  1  0
 69 70  1  0
 69 73  1  0
 70 72  1  0
 71 69  2  0
 74 73  1  0
 74 75  1  0
 76 75  1  0
 77 76  1  0
 77 78  1  0
 79 78  1  0
 79 80  1  0
 80 81  1  0
 81 82  1  0
 83 89  1  0
 83 91  1  0
 84 89  1  0
 85 86  1  0
 85 84  1  0
 87 86  1  0
 87 96  1  0
 87 88  1  0
 89 88  1  0
 90 83  2  0
 91 82  1  0
 91 92  1  0
 93 94  2  0
 94 95  1  0
 94113  1  0
 95 98  1  0
 96 93  1  0
 96 97  1  0
 97 95  2  0
 98 99  1  0
 99100  2  0
101104  1  0
101100  1  0
102101  2  0
103102  1  0
103 98  2  0
104105  1  0
105106  1  0
106107  2  0
108107  1  0
108112  1  0
109108  2  0
110105  2  0
110109  1  0
111110  1  0
113114  1  0
114117  1  0
114116  1  0
115113  2  0
118119  1  0
118 93  1  0
120118  1  0
M  ISO  4  21 101  22 101  83 100  91 100
M  END
>  <TORSDO>  (65) 
F 44

>  <SCORE>  (65) 
-2.581

>  <name>  (65) 
68

>  <ligand_id>  (65) 
68

>  <original_smiles>  (65) 
[H]c1c([H])c([H])c2c(c1[H])C([H])([H])C([H])([H])C([H])([H])C2([H])N([H])C(=O)C1([H])N(C(=O)C([H])(N([H])C(=O)C([H])(N([H])C([H])([H])[H])C([H])([H])[H])C(C([H])([H])[H])(C([H])([H])[H])C([H])([H])[H])C([H])([H])c2c([H])c(OC([H])([H])C([H])([H])C([H])([H])C([H])([H])C([H])([H])C([H])([H])C([H])([H])C([H])([H])C([H])([H])C([H])([H])C([H])([H])C([H])([H])N([H])C(=O)C([H])([H])N([H])C(=O)C([H])([H])N([H])C(=O)C([H])([H])N([H])C(=O)C([H])([H])OC([H])([H])C([H])([H])OC([H])([H])C([H])([H])OC([H])([H])C([H])([H])N([H])C(=O)N3C([H])([H])C([H])([H])C([H])([H])C([H])(n4nc(-c5c([H])c([H])c(Oc6c([H])c([H])c(F)c([H])c6F)c([H])c5[H])c(C(=O)N([H])[H])c4N([H])[H])C3([H])[H])c([H])c([H])c2C1([H])[H]

>  <smiles>  (65) 
[H]c1c([H])c([H])c2c(c1[H])C([H])([H])C([H])([H])C([H])([H])C2([H])N([H])C(=O)C1([H])N(C(=O)C([H])(N([H])C(=O)C([H])(N([H])C([H])([H])[H])C([H])([H])[H])C(C([H])([H])[H])(C([H])([H])[H])C([H])([H])[H])C([H])([H])c2c([H])c(OC([H])([H])C([H])([H])C([H])([H])C([H])([H])C([H])([H])C([H])([H])C([H])([H])C([H])([H])C([H])([H])C([H])([H])C([H])([H])C([H])([H])N([H])C(=O)C([H])([H])N([H])C(=O)C([H])([H])N([H])C(=O)C([H])([H])N([H])C(=O)C([H])([H])OC([H])([H])C([H])([H])OC([H])([H])C([H])([H])OC([H])([H])C([H])([H])N([H])C(=O)N3C([H])([H])C([H])([H])C([H])([H])C([H])(n4nc(-c5c([H])c([H])c(Oc6c([H])c([H])c(F)c([H])c6F)c([H])c5[H])c(C(=O)N([H])[H])c4N([H])[H])C3([H])[H])c([H])c([H])c2C1([H])[H]

$$$$
69:0:0
     RDKit          3D

 92 99  0  0  1  0  0  0  0  0999 V2000
  -27.9330  -22.1500   22.4490 C   0  0  0  0  0  2  0  0  0  0  0  0
  -27.2170  -23.3020   21.7130 C   0  0  0  0  0  2  0  0  0  0  0  0
  -28.0950  -24.3770   21.3630 O   0  0  0  0  0  0  0  0  0  0  0  0
  -27.4370  -25.3370   20.5310 C   0  0  0  0  0  2  0  0  0  0  0  0
  -28.4100  -26.3370   19.8510 C   0  0  0  0  0  2  0  0  0  0  0  0
  -27.7990  -27.1310   18.8210 O   0  0  0  0  0  0  0  0  0  0  0  0
  -25.7390  -31.3860   24.1290 C   0  0  0  0  0  0  0  0  0  0  0  0
  -26.8670  -28.0220   19.2900 C   0  0  0  0  0  0  0  0  0  0  0  0
  -24.0240  -30.8600   22.4260 C   0  0  0  0  0  3  0  0  0  0  0  0
  -24.8840  -29.7580   20.2910 C   0  0  0  0  0  0  0  0  0  0  0  0
  -26.5080  -30.9020   21.8080 C   0  0  0  0  0  2  0  0  0  0  0  0
  -26.2020  -29.8540   20.7590 C   0  0  0  0  0  0  0  0  0  0  0  0
  -27.2000  -28.9850   20.2670 C   0  0  0  0  0  3  0  0  0  0  0  0
  -25.5480  -27.9670   18.7940 C   0  0  0  0  0  3  0  0  0  0  0  0
  -24.5500  -28.8120   19.3080 C   0  0  0  0  0  3  0  0  0  0  0  0
  -23.8680  -30.7070   20.8890 C   0  0  0  0  0  2  0  0  0  0  0  0
  -25.4530  -31.0380   22.8420 N   0  0  0  0  0  0  0  0  0  0  0  0
  -24.8380  -31.5940   24.9520 O   0  0  0  0  0  0  0  0  0  0  0  0
  -23.3290  -29.6630   23.1170 C   0  0  0  0  0  0  0  0  0  0  0  0
  -22.0080  -29.5380   22.9080 N   0  0  0  0  0  0  0  0  0  0  0  0
  -23.9770  -28.8640   23.7970 O   0  0  0  0  0  0  0  0  0  0  0  0
  -21.5490  -30.2360   22.3410 H   0  0  0  0  0  0  0  0  0  0  0  0
  -18.7290  -28.0460   22.6370 C   0  0  0  0  0  0  0  0  0  0  0  0
  -21.1540  -28.4700   23.4260 C   0  0  0  0  0  3  0  0  0  0  0  0
  -21.4970  -27.1120   22.7720 C   0  0  0  0  0  2  0  0  0  0  0  0
  -20.6420  -26.8010   21.5420 C   0  0  0  0  0  2  0  0  0  0  0  0
  -19.1550  -26.7820   21.9080 C   0  0  0  0  0  2  0  0  0  0  0  0
  -19.6700  -28.8450   23.3370 C   0  0  0  0  0  0  0  0  0  0  0  0
  -19.2270  -30.0260   23.9680 C   0  0  0  0  0  3  0  0  0  0  0  0
  -17.8750  -30.4110   23.9100 C   0  0  0  0  0  3  0  0  0  0  0  0
  -16.9440  -29.6060   23.2320 C   0  0  0  0  0  3  0  0  0  0  0  0
  -17.3700  -28.4230   22.6010 C   0  0  0  0  0  3  0  0  0  0  0  0
  -27.2100  -31.5580   24.6210 C   0  0  0  0  0  3  0  0  0  0  0  0
  -27.7290  -30.3340   25.4690 C   0  0  1  0  0  0  0  0  0  0  0  0
  -26.7800  -29.9280   26.6200 C   0  0  0  0  0  1  0  0  0  0  0  0
  -27.9350  -29.0970   24.5680 C   0  0  0  0  0  1  0  0  0  0  0  0
  -29.1120  -30.6640   26.0770 C   0  0  0  0  0  1  0  0  0  0  0  0
  -27.2730  -32.8000   25.4050 N   0  0  0  0  0  0  0  0  0  0  0  0
  -27.8140  -33.9440   24.9720 C   0  0  0  0  0  0  0  0  0  0  0  0
  -28.3830  -34.0440   23.8810 O   0  0  0  0  0  0  0  0  0  0  0  0
  -26.7740  -32.8040   26.2830 H   0  0  0  0  0  0  0  0  0  0  0  0
  -26.6080  -36.1120   25.3650 C   0  0  0  0  0  1  0  0  0  0  0  0
  -27.7060  -35.1740   25.8930 C   0  0  0  0  0  3  0  0  0  0  0  0
  -29.9980  -35.1810   26.7720 C   0  0  0  0  0  1  0  0  0  0  0  0
  -28.9760  -35.9170   26.0320 N   0  0  0  0  0  0  0  0  0  0  0  0
  -28.8270  -36.8080   26.4950 H   0  0  0  0  0  0  0  0  0  0  0  0
  -29.0260  -21.6090   21.7020 O   0  0  0  0  0  0  0  0  0  0  0  0
  -30.0920  -21.1690   22.5590 C   0  0  0  0  0  2  0  0  0  0  0  0
  -31.1230  -20.3340   21.7780 C   0  0  0  0  0  0  0  0  0  0  0  0
  -30.6560  -19.5290   20.8160 N   0  0  0  0  0  0  0  0  0  0  0  0
  -32.3250  -20.4250   22.0370 O   0  0  0  0  0  0  0  0  0  0  0  0
  -29.6520  -19.5500   20.6800 H   0  0  0  0  0  0  0  0  0  0  0  0
  -31.4600  -18.7740   19.8550 C   0  0  0  0  0  2  0  0  0  0  0  0
  -31.6480  -17.2910   20.2480 C   0  0  0  0  0  2  0  0  0  0  0  0
  -32.9560  -15.3890   19.1940 C   0  0  0  0  0  0  0  0  0  0  0  0
  -32.5120  -13.0260   18.6730 C   0  0  0  0  0  2  0  0  0  0  0  0
  -31.5780  -12.9630   17.4460 C   0  0  0  0  0  2  0  0  0  0  0  0
  -30.1000  -13.0370   17.8790 C   0  0  0  0  0  2  0  0  0  0  0  0
  -29.8280  -14.2100   18.8570 C   0  0  0  0  0  3  0  0  0  0  0  0
  -30.8670  -14.2020   19.9990 C   0  0  0  0  0  2  0  0  0  0  0  0
  -32.2040  -14.2740   19.3900 N   0  0  0  0  0  0  0  0  0  0  0  0
  -34.0810  -15.3570   18.6900 O   0  0  0  0  0  0  0  0  0  0  0  0
  -32.3040  -16.5610   19.1600 N   0  0  0  0  0  0  0  0  0  0  0  0
  -32.7700  -17.1950   18.5280 H   0  0  0  0  0  0  0  0  0  0  0  0
  -27.5780  -15.2200   19.5860 C   0  0  0  0  0  0  0  0  0  0  0  0
  -26.4140  -14.6420   20.0240 C   0  0  0  0  0  0  0  0  0  0  0  0
  -26.6600  -13.2360   20.0520 C   0  0  0  0  0  0  0  0  0  0  0  0
  -28.4620  -14.1760   19.3740 N   0  0  0  0  0  0  0  0  0  0  0  0
  -27.9160  -12.9790   19.7100 N   0  0  0  0  0  0  0  0  0  0  0  0
  -25.7590  -12.1100   20.3280 C   0  0  0  0  0  0  0  0  0  0  0  0
  -26.0380  -11.1710   21.3450 C   0  0  0  0  0  3  0  0  0  0  0  0
  -25.1460  -10.1070   21.6010 C   0  0  0  0  0  3  0  0  0  0  0  0
  -23.9590   -9.9800   20.8440 C   0  0  0  0  0  0  0  0  0  0  0  0
  -23.6970  -10.9040   19.8180 C   0  0  0  0  0  3  0  0  0  0  0  0
  -24.5880  -11.9590   19.5600 C   0  0  0  0  0  3  0  0  0  0  0  0
  -23.0470   -8.9660   21.0060 O   0  0  0  0  0  0  0  0  0  0  0  0
  -22.7160   -8.4860   22.2470 C   0  0  0  0  0  0  0  0  0  0  0  0
  -22.1230   -9.3080   23.2300 C   0  0  0  0  0  3  0  0  0  0  0  0
  -21.7390   -8.7580   24.4680 C   0  0  0  0  0  3  0  0  0  0  0  0
  -21.9320   -7.3870   24.7210 C   0  0  0  0  0  0  0  0  0  0  0  0
  -22.5190   -6.5660   23.7420 C   0  0  0  0  0  3  0  0  0  0  0  0
  -22.9040   -7.1150   22.5050 C   0  0  0  0  0  0  0  0  0  0  0  0
  -23.4490   -6.3150   21.5580 F   0  0  0  0  0  0  0  0  0  0  0  0
  -21.5540   -6.8550   25.9080 F   0  0  0  0  0  0  0  0  0  0  0  0
  -25.1160  -15.3430   20.3050 C   0  0  0  0  0  0  0  0  0  0  0  0
  -24.2880  -14.7720   21.1740 N   0  0  0  0  0  0  0  0  0  0  0  0
  -24.8500  -16.4260   19.7900 O   0  0  0  0  0  0  0  0  0  0  0  0
  -24.5140  -13.8880   21.6070 H   0  0  0  0  0  0  0  0  0  0  0  0
  -23.4210  -15.2300   21.4160 H   0  0  0  0  0  0  0  0  0  0  0  0
  -27.9540  -16.5370   19.3400 N   0  0  0  0  0  0  0  0  0  0  0  0
  -27.3170  -17.3190   19.4380 H   0  0  0  0  0  0  0  0  0  0  0  0
  -28.8610  -16.8050   18.9770 H   0  0  0  0  0  0  0  0  0  0  0  0
  2  1  1  0
  3  2  1  0
  4  3  1  0
  5  4  1  0
  6  8  1  0
  6  5  1  0
  7 18  2  0
  8 13  1  0
  9 17  1  0
  9 19  1  0
 10 12  1  0
 10 16  1  0
 11 17  1  0
 12 11  1  0
 13 12  2  0
 14  8  2  0
 14 15  1  0
 15 10  2  0
 16  9  1  0
 17  7  1  0
 19 21  2  0
 20 19  1  0
 22 20  1  0
 23 28  1  0
 24 20  1  0
 25 24  1  0
 26 27  1  0
 26 25  1  0
 27 23  1  0
 28 24  1  0
 28 29  2  0
 30 29  1  0
 31 30  2  0
 32 23  2  0
 32 31  1  0
 33  7  1  0
 33 38  1  0
 33 34  1  0
 34 37  1  1
 34 35  1  0
 36 34  1  0
 38 41  1  0
 39 38  1  0
 39 43  1  0
 40 39  2  0
 43 42  1  0
 43 45  1  0
 45 46  1  0
 45 44  1  0
 47  1  1  0
 47 48  1  0
 49 51  2  0
 49 48  1  0
 50 49  1  0
 52 50  1  0
 53 54  1  0
 53 50  1  0
 55 61  1  0
 56 61  1  0
 57 58  1  0
 57 56  1  0
 59 58  1  0
 59 68  1  0
 59 60  1  0
 61 60  1  0
 62 55  2  0
 63 55  1  0
 63 54  1  0
 64 63  1  0
 65 66  2  0
 66 67  1  0
 66 85  1  0
 67 70  1  0
 68 65  1  0
 68 69  1  0
 69 67  2  0
 70 71  1  0
 71 72  2  0
 73 76  1  0
 73 72  1  0
 74 73  2  0
 75 74  1  0
 75 70  2  0
 76 77  1  0
 77 82  2  0
 77 78  1  0
 78 79  2  0
 79 80  1  0
 80 84  1  0
 81 80  2  0
 82 81  1  0
 83 82  1  0
 85 86  1  0
 86 89  1  0
 86 88  1  0
 87 85  2  0
 90 91  1  0
 90 65  1  0
 92 90  1  0
M  ISO  4   5 101   6 101  55 100  63 100
M  END
>  <TORSDO>  (66) 
F 25

>  <SCORE>  (66) 
-5.851

>  <name>  (66) 
69

>  <ligand_id>  (66) 
69

>  <original_smiles>  (66) 
[H]c1c([H])c([H])c2c(c1[H])C([H])([H])C([H])([H])C([H])([H])C2([H])N([H])C(=O)C1([H])N(C(=O)C([H])(N([H])C(=O)C([H])(N([H])C([H])([H])[H])C([H])([H])[H])C(C([H])([H])[H])(C([H])([H])[H])C([H])([H])[H])C([H])([H])c2c([H])c(OC([H])([H])C([H])([H])OC([H])([H])C([H])([H])OC([H])([H])C(=O)N([H])C([H])([H])C([H])([H])N([H])C(=O)N3C([H])([H])C([H])([H])C([H])([H])C([H])(n4nc(-c5c([H])c([H])c(Oc6c([H])c([H])c(F)c([H])c6F)c([H])c5[H])c(C(=O)N([H])[H])c4N([H])[H])C3([H])[H])c([H])c([H])c2C1([H])[H]

>  <smiles>  (66) 
[H]c1c([H])c([H])c2c(c1[H])C([H])([H])C([H])([H])C([H])([H])C2([H])N([H])C(=O)C1([H])N(C(=O)C([H])(N([H])C(=O)C([H])(N([H])C([H])([H])[H])C([H])([H])[H])C(C([H])([H])[H])(C([H])([H])[H])C([H])([H])[H])C([H])([H])c2c([H])c(OC([H])([H])C([H])([H])OC([H])([H])C([H])([H])OC([H])([H])C(=O)N([H])C([H])([H])C([H])([H])N([H])C(=O)N3C([H])([H])C([H])([H])C([H])([H])C([H])(n4nc(-c5c([H])c([H])c(Oc6c([H])c([H])c(F)c([H])c6F)c([H])c5[H])c(C(=O)N([H])[H])c4N([H])[H])C3([H])[H])c([H])c([H])c2C1([H])[H]

$$$$
70:0:0
     RDKit          3D

117124  0  0  1  0  0  0  0  0999 V2000
  -33.8060  -20.3740   18.9420 C   0  0  0  0  0  2  0  0  0  0  0  0
  -33.1500  -20.1360   20.1890 O   0  0  0  0  0  0  0  0  0  0  0  0
  -34.0240  -20.0480   21.3130 C   0  0  0  0  0  2  0  0  0  0  0  0
  -33.3020  -19.6550   22.6290 C   0  0  0  0  0  2  0  0  0  0  0  0
  -32.5720  -20.7640   23.1610 O   0  0  0  0  0  0  0  0  0  0  0  0
  -31.7460  -20.4500   24.2900 C   0  0  0  0  0  2  0  0  0  0  0  0
  -31.0840  -21.7380   24.8130 C   0  0  0  0  0  0  0  0  0  0  0  0
  -29.8140  -21.6680   25.2530 N   0  0  0  0  0  0  0  0  0  0  0  0
  -31.7190  -22.7940   24.8000 O   0  0  0  0  0  0  0  0  0  0  0  0
  -29.3800  -20.7540   25.2700 H   0  0  0  0  0  0  0  0  0  0  0  0
  -29.0500  -22.7850   25.8300 C   0  0  0  0  0  2  0  0  0  0  0  0
  -27.7180  -23.0620   25.1020 C   0  0  0  0  0  2  0  0  0  0  0  0
  -27.8030  -24.4610   23.0320 C   0  0  0  0  0  0  0  0  0  0  0  0
  -27.9510  -23.2890   23.6770 N   0  0  0  0  0  0  0  0  0  0  0  0
  -27.1380  -25.3980   23.4780 O   0  0  0  0  0  0  0  0  0  0  0  0
  -28.4310  -22.5400   23.1970 H   0  0  0  0  0  0  0  0  0  0  0  0
  -28.6060  -24.6280   21.7400 C   0  0  0  0  0  2  0  0  0  0  0  0
  -27.9000  -25.1970   20.4880 C   0  0  0  0  0  2  0  0  0  0  0  0
  -28.2540  -26.5810   20.2270 O   0  0  0  0  0  0  0  0  0  0  0  0
  -24.6060  -31.8700   23.2180 C   0  0  0  0  0  0  0  0  0  0  0  0
  -27.1730  -27.4250   20.1090 C   0  0  0  0  0  0  0  0  0  0  0  0
  -23.3900  -30.5090   21.5550 C   0  0  0  0  0  3  0  0  0  0  0  0
  -24.8320  -28.9920   20.0960 C   0  0  0  0  0  0  0  0  0  0  0  0
  -25.9190  -30.8390   21.3770 C   0  0  0  0  0  2  0  0  0  0  0  0
  -25.9920  -29.4780   20.7150 C   0  0  0  0  0  0  0  0  0  0  0  0
  -27.1660  -28.6910   20.7400 C   0  0  0  0  0  3  0  0  0  0  0  0
  -26.0300  -27.0080   19.4000 C   0  0  0  0  0  3  0  0  0  0  0  0
  -24.8470  -27.7630   19.4250 C   0  0  0  0  0  3  0  0  0  0  0  0
  -23.5960  -29.8540   20.1640 C   0  0  0  0  0  2  0  0  0  0  0  0
  -24.6550  -31.0830   22.1070 N   0  0  0  0  0  0  0  0  0  0  0  0
  -23.5250  -32.1410   23.7580 O   0  0  0  0  0  0  0  0  0  0  0  0
  -22.7360  -29.4740   22.4970 C   0  0  0  0  0  0  0  0  0  0  0  0
  -21.4100  -29.3030   22.3710 N   0  0  0  0  0  0  0  0  0  0  0  0
  -23.4170  -28.8240   23.2930 O   0  0  0  0  0  0  0  0  0  0  0  0
  -20.9210  -29.8860   21.7080 H   0  0  0  0  0  0  0  0  0  0  0  0
  -18.0260  -28.1350   22.8490 C   0  0  0  0  0  0  0  0  0  0  0  0
  -20.5850  -28.3650   23.1340 C   0  0  0  0  0  3  0  0  0  0  0  0
  -20.6720  -26.9380   22.5420 C   0  0  0  0  0  2  0  0  0  0  0  0
  -19.5720  -26.6360   21.5190 C   0  0  0  0  0  2  0  0  0  0  0  0
  -18.1920  -26.7900   22.1610 C   0  0  0  0  0  2  0  0  0  0  0  0
  -19.1500  -28.8800   23.2930 C   0  0  0  0  0  0  0  0  0  0  0  0
  -18.9450  -30.1430   23.8910 C   0  0  0  0  0  3  0  0  0  0  0  0
  -17.6440  -30.6560   24.0560 C   0  0  0  0  0  3  0  0  0  0  0  0
  -16.5340  -29.9080   23.6310 C   0  0  0  0  0  3  0  0  0  0  0  0
  -16.7250  -28.6480   23.0330 C   0  0  0  0  0  3  0  0  0  0  0  0
  -25.8980  -32.4860   23.8410 C   0  0  0  0  0  3  0  0  0  0  0  0
  -25.5810  -33.8660   24.2340 N   0  0  0  0  0  0  0  0  0  0  0  0
  -25.9100  -34.9490   23.5140 C   0  0  0  0  0  0  0  0  0  0  0  0
  -26.5650  -34.8880   22.4700 O   0  0  0  0  0  0  0  0  0  0  0  0
  -24.9600  -33.9770   25.0190 H   0  0  0  0  0  0  0  0  0  0  0  0
  -24.1600  -36.7360   23.2680 C   0  0  0  0  0  1  0  0  0  0  0  0
  -25.4200  -36.3120   24.0350 C   0  0  0  0  0  3  0  0  0  0  0  0
  -27.5660  -37.1830   24.8450 C   0  0  0  0  0  1  0  0  0  0  0  0
  -26.4400  -37.3770   23.9340 N   0  0  0  0  0  0  0  0  0  0  0  0
  -26.0350  -38.2890   24.1170 H   0  0  0  0  0  0  0  0  0  0  0  0
  -26.4420  -31.6540   25.0670 C   0  0  1  0  0  0  0  0  0  0  0  0
  -25.3740  -31.3630   26.1450 C   0  0  0  0  0  1  0  0  0  0  0  0
  -27.0270  -30.3040   24.5950 C   0  0  0  0  0  1  0  0  0  0  0  0
  -27.5980  -32.4200   25.7460 C   0  0  0  0  0  1  0  0  0  0  0  0
  -32.7980  -20.2350   17.7860 C   0  0  0  0  0  2  0  0  0  0  0  0
  -30.8890  -21.4950   16.8390 C   0  0  0  0  0  0  0  0  0  0  0  0
  -31.8360  -21.3250   17.7730 N   0  0  0  0  0  0  0  0  0  0  0  0
  -30.7760  -20.7180   15.8940 O   0  0  0  0  0  0  0  0  0  0  0  0
  -31.8650  -21.9610   18.5560 H   0  0  0  0  0  0  0  0  0  0  0  0
  -29.9500  -22.7120   16.9510 C   0  0  0  0  0  2  0  0  0  0  0  0
  -31.1920  -24.8030   17.4250 C   0  0  0  0  0  0  0  0  0  0  0  0
  -30.5280  -23.7190   17.8340 N   0  0  0  0  0  0  0  0  0  0  0  0
  -31.0290  -25.3000   16.3110 O   0  0  0  0  0  0  0  0  0  0  0  0
  -30.7200  -23.4290   18.7850 H   0  0  0  0  0  0  0  0  0  0  0  0
  -32.2550  -25.3470   18.3880 C   0  0  0  0  0  2  0  0  0  0  0  0
  -32.5510  -24.3440   19.3640 O   0  0  0  0  0  0  0  0  0  0  0  0
  -31.9080  -24.5440   20.6160 C   0  0  0  0  0  2  0  0  0  0  0  0
  -31.5820  -23.1830   21.2500 C   0  0  0  0  0  2  0  0  0  0  0  0
  -30.6560  -22.4500   20.4380 O   0  0  0  0  0  0  0  0  0  0  0  0
  -30.2420  -21.2120   21.0280 C   0  0  0  0  0  2  0  0  0  0  0  0
  -29.3160  -20.4070   20.0930 C   0  0  0  0  0  2  0  0  0  0  0  0
  -29.8880  -19.1300   19.8430 O   0  0  0  0  0  0  0  0  0  0  0  0
  -29.3610  -18.0400   20.5880 C   0  0  0  0  0  2  0  0  0  0  0  0
  -30.4650  -16.9580   20.6540 C   0  0  0  0  0  2  0  0  0  0  0  0
  -30.7080  -14.4890   20.5050 C   0  0  0  0  0  0  0  0  0  0  0  0
  -30.4150  -12.3110   19.4090 C   0  0  0  0  0  2  0  0  0  0  0  0
  -29.4770  -12.4860   18.1960 C   0  0  0  0  0  2  0  0  0  0  0  0
  -27.9970  -12.3680   18.6100 C   0  0  0  0  0  2  0  0  0  0  0  0
  -27.6490  -13.2120   19.8650 C   0  0  0  0  0  3  0  0  0  0  0  0
  -28.7000  -13.0090   20.9800 C   0  0  0  0  0  2  0  0  0  0  0  0
  -30.0230  -13.3130   20.4110 N   0  0  0  0  0  0  0  0  0  0  0  0
  -31.8670  -14.6170   20.1260 O   0  0  0  0  0  0  0  0  0  0  0  0
  -29.9810  -15.5750   20.8290 N   0  0  0  0  0  0  0  0  0  0  0  0
  -29.0240  -15.4400   21.1080 H   0  0  0  0  0  0  0  0  0  0  0  0
  -25.2530  -13.8190   20.5700 C   0  0  0  0  0  0  0  0  0  0  0  0
  -24.1790  -13.0430   20.9200 C   0  0  0  0  0  0  0  0  0  0  0  0
  -24.6360  -11.6920   20.8750 C   0  0  0  0  0  0  0  0  0  0  0  0
  -26.2940  -12.9340   20.3300 N   0  0  0  0  0  0  0  0  0  0  0  0
  -25.9290  -11.6500   20.5760 N   0  0  0  0  0  0  0  0  0  0  0  0
  -23.9060  -10.4290   21.0420 C   0  0  0  0  0  0  0  0  0  0  0  0
  -24.3600   -9.4210   21.9200 C   0  0  0  0  0  3  0  0  0  0  0  0
  -23.6270   -8.2240   22.0770 C   0  0  0  0  0  3  0  0  0  0  0  0
  -22.4280   -8.0270   21.3540 C   0  0  0  0  0  0  0  0  0  0  0  0
  -21.9900   -9.0240   20.4650 C   0  0  0  0  0  3  0  0  0  0  0  0
  -22.7210  -10.2130   20.3050 C   0  0  0  0  0  3  0  0  0  0  0  0
  -21.6630   -6.8870   21.4240 O   0  0  0  0  0  0  0  0  0  0  0  0
  -21.6860   -6.0740   22.5270 C   0  0  0  0  0  0  0  0  0  0  0  0
  -21.4020   -6.5640   23.8210 C   0  0  0  0  0  3  0  0  0  0  0  0
  -21.3650   -5.6780   24.9160 C   0  0  0  0  0  3  0  0  0  0  0  0
  -21.6040   -4.3040   24.7210 C   0  0  0  0  0  0  0  0  0  0  0  0
  -21.8830   -3.8140   23.4330 C   0  0  0  0  0  3  0  0  0  0  0  0
  -21.9190   -4.6960   22.3390 C   0  0  0  0  0  0  0  0  0  0  0  0
  -22.1660   -4.2150   21.0970 F   0  0  0  0  0  0  0  0  0  0  0  0
  -21.5630   -3.4530   25.7730 F   0  0  0  0  0  0  0  0  0  0  0  0
  -22.7800  -13.5220   21.1820 C   0  0  0  0  0  0  0  0  0  0  0  0
  -22.0430  -12.8230   22.0410 N   0  0  0  0  0  0  0  0  0  0  0  0
  -22.3480  -14.5500   20.6670 O   0  0  0  0  0  0  0  0  0  0  0  0
  -22.4080  -11.9920   22.4790 H   0  0  0  0  0  0  0  0  0  0  0  0
  -21.1010  -13.1250   22.2560 H   0  0  0  0  0  0  0  0  0  0  0  0
  -25.4200  -15.1910   20.4190 N   0  0  0  0  0  0  0  0  0  0  0  0
  -24.6550  -15.8420   20.5670 H   0  0  0  0  0  0  0  0  0  0  0  0
  -26.2640  -15.6390   20.0870 H   0  0  0  0  0  0  0  0  0  0  0  0
  1  2  1  0
  2  3  1  0
  3  4  1  0
  4  5  1  0
  5  6  1  0
  6  7  1  0
  7  8  1  0
  8 10  1  0
  8 11  1  0
  9  7  2  0
 12 11  1  0
 13 15  2  0
 13 14  1  0
 14 12  1  0
 16 14  1  0
 17 13  1  0
 18 17  1  0
 19 18  1  0
 20 31  2  0
 21 19  1  0
 21 26  1  0
 22 30  1  0
 22 32  1  0
 23 29  1  0
 23 25  1  0
 24 30  1  0
 25 26  2  0
 25 24  1  0
 27 28  1  0
 27 21  2  0
 28 23  2  0
 29 22  1  0
 30 20  1  0
 32 34  2  0
 33 32  1  0
 35 33  1  0
 36 45  2  0
 36 41  1  0
 37 33  1  0
 37 41  1  0
 38 37  1  0
 39 40  1  0
 39 38  1  0
 40 36  1  0
 41 42  2  0
 42 43  1  0
 44 43  2  0
 45 44  1  0
 46 20  1  0
 46 47  1  0
 46 56  1  0
 47 50  1  0
 48 52  1  0
 48 47  1  0
 49 48  2  0
 52 51  1  0
 54 52  1  0
 54 55  1  0
 54 53  1  0
 56 59  1  1
 56 57  1  0
 58 56  1  0
 60  1  1  0
 61 65  1  0
 61 62  1  0
 62 60  1  0
 62 64  1  0
 63 61  2  0
 65 67  1  0
 66 67  1  0
 66 70  1  0
 67 69  1  0
 68 66  2  0
 70 71  1  0
 71 72  1  0
 72 73  1  0
 74 75  1  0
 74 73  1  0
 76 75  1  0
 77 76  1  0
 77 78  1  0
 78 79  1  0
 79 88  1  0
 80 88  1  0
 81 86  1  0
 82 83  1  0
 82 81  1  0
 84 83  1  0
 84 93  1  0
 84 85  1  0
 86 80  1  0
 86 85  1  0
 87 80  2  0
 88 89  1  0
 90 91  2  0
 91110  1  0
 92 91  1  0
 92 95  1  0
 93 90  1  0
 93 94  1  0
 94 92  2  0
 95 96  1  0
 96 97  2  0
 98101  1  0
 98 97  1  0
 99 98  2  0
100 99  1  0
100 95  2  0
101102  1  0
102103  1  0
103104  2  0
105104  1  0
105109  1  0
106105  2  0
107102  2  0
107106  1  0
108107  1  0
110111  1  0
111114  1  0
111113  1  0
112110  2  0
115116  1  0
115 90  1  0
117115  1  0
M  ISO  4  18 101  19 101  80 100  88 100
M  END
>  <TORSDO>  (67) 
F 41

>  <SCORE>  (67) 
-0.788

>  <name>  (67) 
70

>  <ligand_id>  (67) 
70

>  <original_smiles>  (67) 
[H]c1c([H])c([H])c2c(c1[H])C([H])([H])C([H])([H])C([H])([H])C2([H])N([H])C(=O)C1([H])N(C(=O)C([H])(N([H])C(=O)C([H])(N([H])C([H])([H])[H])C([H])([H])[H])C(C([H])([H])[H])(C([H])([H])[H])C([H])([H])[H])C([H])([H])c2c([H])c(OC([H])([H])C([H])([H])C(=O)N([H])C([H])([H])C([H])([H])N([H])C(=O)C([H])([H])OC([H])([H])C([H])([H])OC([H])([H])C([H])([H])N([H])C(=O)C([H])([H])N([H])C(=O)C([H])([H])OC([H])([H])C([H])([H])OC([H])([H])C([H])([H])OC([H])([H])C([H])([H])N([H])C(=O)N3C([H])([H])C([H])([H])C([H])([H])C([H])(n4nc(-c5c([H])c([H])c(Oc6c([H])c([H])c(F)c([H])c6F)c([H])c5[H])c(C(=O)N([H])[H])c4N([H])[H])C3([H])[H])c([H])c([H])c2C1([H])[H]

>  <smiles>  (67) 
[H]c1c([H])c([H])c2c(c1[H])C([H])([H])C([H])([H])C([H])([H])C2([H])N([H])C(=O)C1([H])N(C(=O)C([H])(N([H])C(=O)C([H])(N([H])C([H])([H])[H])C([H])([H])[H])C(C([H])([H])[H])(C([H])([H])[H])C([H])([H])[H])C([H])([H])c2c([H])c(OC([H])([H])C([H])([H])C(=O)N([H])C([H])([H])C([H])([H])N([H])C(=O)C([H])([H])OC([H])([H])C([H])([H])OC([H])([H])C([H])([H])N([H])C(=O)C([H])([H])N([H])C(=O)C([H])([H])OC([H])([H])C([H])([H])OC([H])([H])C([H])([H])OC([H])([H])C([H])([H])N([H])C(=O)N3C([H])([H])C([H])([H])C([H])([H])C([H])(n4nc(-c5c([H])c([H])c(Oc6c([H])c([H])c(F)c([H])c6F)c([H])c5[H])c(C(=O)N([H])[H])c4N([H])[H])C3([H])[H])c([H])c([H])c2C1([H])[H]

$$$$
71:0:0
     RDKit          3D

102109  0  0  1  0  0  0  0  0999 V2000
  -31.6270  -22.5820   22.3650 C   0  0  0  0  0  0  0  0  0  0  0  0
  -32.1670  -21.9220   23.3980 N   0  0  0  0  0  0  0  0  0  0  0  0
  -30.4280  -22.8730   22.3230 O   0  0  0  0  0  0  0  0  0  0  0  0
  -33.1520  -21.6970   23.3430 H   0  0  0  0  0  0  0  0  0  0  0  0
  -31.4640  -21.5830   24.6310 C   0  0  0  0  0  2  0  0  0  0  0  0
  -30.5210  -20.3840   24.4330 C   0  0  0  0  0  2  0  0  0  0  0  0
  -29.9840  -19.8240   25.7640 C   0  0  0  0  0  2  0  0  0  0  0  0
  -29.0300  -18.6250   25.5960 C   0  0  0  0  0  2  0  0  0  0  0  0
  -29.6650  -17.3020   25.1110 C   0  0  0  0  0  2  0  0  0  0  0  0
  -30.3340  -17.3370   23.7280 C   0  0  0  0  0  2  0  0  0  0  0  0
  -30.7930  -15.9400   23.2710 C   0  0  0  0  0  2  0  0  0  0  0  0
  -31.9790  -15.9950   22.3000 C   0  0  0  0  0  2  0  0  0  0  0  0
  -31.5040  -15.7630   20.9810 O   0  0  0  0  0  0  0  0  0  0  0  0
  -32.1520  -14.6810   20.3430 C   0  0  0  0  0  2  0  0  0  0  0  0
  -31.1090  -15.3300   18.1040 C   0  0  0  0  0  1  0  0  0  0  0  0
  -31.2990  -14.2160   19.1470 C   0  0  0  0  0  3  0  0  0  0  0  0
  -31.4880  -12.3220   17.5420 C   0  0  0  0  0  0  0  0  0  0  0  0
  -30.5310  -10.0780   17.1970 C   0  0  0  0  0  2  0  0  0  0  0  0
  -29.2500  -10.1070   16.3500 C   0  0  0  0  0  2  0  0  0  0  0  0
  -28.0110  -10.3510   17.2320 C   0  0  0  0  0  2  0  0  0  0  0  0
  -28.1980  -11.5590   18.1840 C   0  0  0  0  0  3  0  0  0  0  0  0
  -29.5440  -11.4620   18.9290 C   0  0  0  0  0  2  0  0  0  0  0  0
  -30.6380  -11.3410   17.9460 N   0  0  0  0  0  0  0  0  0  0  0  0
  -32.1050  -12.2930   16.4770 O   0  0  0  0  0  0  0  0  0  0  0  0
  -31.9770  -13.0930   18.5140 N   0  0  0  0  0  0  0  0  0  0  0  0
  -32.9390  -13.3220   18.3170 H   0  0  0  0  0  0  0  0  0  0  0  0
  -26.4270  -12.8150   19.5670 C   0  0  0  0  0  0  0  0  0  0  0  0
  -25.4030  -12.3700   20.3600 C   0  0  0  0  0  0  0  0  0  0  0  0
  -25.4700  -10.9440   20.3310 C   0  0  0  0  0  0  0  0  0  0  0  0
  -27.0740  -11.6770   19.1090 N   0  0  0  0  0  0  0  0  0  0  0  0
  -26.5180  -10.5470   19.6170 N   0  0  0  0  0  0  0  0  0  0  0  0
  -24.5640   -9.9370   20.8950 C   0  0  0  0  0  0  0  0  0  0  0  0
  -24.8950   -9.2160   22.0640 C   0  0  0  0  0  3  0  0  0  0  0  0
  -24.0000   -8.2620   22.5930 C   0  0  0  0  0  3  0  0  0  0  0  0
  -22.7560   -8.0280   21.9580 C   0  0  0  0  0  0  0  0  0  0  0  0
  -22.4410   -8.7320   20.7830 C   0  0  0  0  0  3  0  0  0  0  0  0
  -23.3370   -9.6750   20.2540 C   0  0  0  0  0  3  0  0  0  0  0  0
  -21.8360   -7.1040   22.3870 O   0  0  0  0  0  0  0  0  0  0  0  0
  -21.4410   -7.0420   23.6990 C   0  0  0  0  0  0  0  0  0  0  0  0
  -21.0000   -8.1810   24.4050 C   0  0  0  0  0  3  0  0  0  0  0  0
  -20.5340   -8.0510   25.7290 C   0  0  0  0  0  3  0  0  0  0  0  0
  -20.5080   -6.7870   26.3460 C   0  0  0  0  0  0  0  0  0  0  0  0
  -20.9480   -5.6520   25.6460 C   0  0  0  0  0  3  0  0  0  0  0  0
  -21.4090   -5.7790   24.3240 C   0  0  0  0  0  0  0  0  0  0  0  0
  -21.8080   -4.6750   23.6450 F   0  0  0  0  0  0  0  0  0  0  0  0
  -20.0560   -6.6640   27.6160 F   0  0  0  0  0  0  0  0  0  0  0  0
  -24.3560  -13.2200   21.0250 C   0  0  0  0  0  0  0  0  0  0  0  0
  -23.9100  -12.8350   22.2160 N   0  0  0  0  0  0  0  0  0  0  0  0
  -23.9580  -14.2620   20.5090 O   0  0  0  0  0  0  0  0  0  0  0  0
  -24.2370  -11.9820   22.6470 H   0  0  0  0  0  0  0  0  0  0  0  0
  -23.2150  -13.3950   22.6910 H   0  0  0  0  0  0  0  0  0  0  0  0
  -26.8480  -14.0850   19.1930 N   0  0  0  0  0  0  0  0  0  0  0  0
  -26.3350  -14.9120   19.4850 H   0  0  0  0  0  0  0  0  0  0  0  0
  -27.5880  -14.2890   18.5340 H   0  0  0  0  0  0  0  0  0  0  0  0
  -32.5740  -23.0090   21.2360 C   0  0  0  0  0  2  0  0  0  0  0  0
  -31.8100  -23.4020   20.1000 O   0  0  0  0  0  0  0  0  0  0  0  0
  -32.5860  -23.4750   18.9100 C   0  0  0  0  0  2  0  0  0  0  0  0
  -31.7860  -24.2330   17.8450 C   0  0  0  0  0  2  0  0  0  0  0  0
  -31.6700  -25.5940   18.2390 O   0  0  0  0  0  0  0  0  0  0  0  0
  -31.0720  -26.4150   17.2430 C   0  0  0  0  0  2  0  0  0  0  0  0
  -30.1870  -27.4600   17.9340 C   0  0  0  0  0  2  0  0  0  0  0  0
  -28.9890  -26.8090   18.3510 O   0  0  0  0  0  0  0  0  0  0  0  0
  -26.9990  -30.6050   24.0770 C   0  0  0  0  0  0  0  0  0  0  0  0
  -28.0560  -27.5760   19.0030 C   0  0  0  0  0  0  0  0  0  0  0  0
  -25.2310  -30.1180   22.4130 C   0  0  0  0  0  3  0  0  0  0  0  0
  -26.0370  -29.1410   20.2010 C   0  0  0  0  0  0  0  0  0  0  0  0
  -27.6810  -30.2790   21.7050 C   0  0  0  0  0  2  0  0  0  0  0  0
  -27.3680  -29.2780   20.6150 C   0  0  0  0  0  0  0  0  0  0  0  0
  -28.3820  -28.5020   20.0200 C   0  0  0  0  0  3  0  0  0  0  0  0
  -26.7090  -27.4230   18.6180 C   0  0  0  0  0  3  0  0  0  0  0  0
  -25.6980  -28.2080   19.2060 C   0  0  0  0  0  3  0  0  0  0  0  0
  -25.0190  -30.0310   20.8780 C   0  0  0  0  0  2  0  0  0  0  0  0
  -26.6690  -30.3200   22.7860 N   0  0  0  0  0  0  0  0  0  0  0  0
  -26.1250  -30.7470   24.9420 O   0  0  0  0  0  0  0  0  0  0  0  0
  -24.5980  -28.8690   23.0690 C   0  0  0  0  0  0  0  0  0  0  0  0
  -23.3130  -28.6220   22.7620 N   0  0  0  0  0  0  0  0  0  0  0  0
  -25.2620  -28.1370   23.8060 O   0  0  0  0  0  0  0  0  0  0  0  0
  -22.8380  -29.2780   22.1580 H   0  0  0  0  0  0  0  0  0  0  0  0
  -20.2520  -26.7910   22.2070 C   0  0  0  0  0  0  0  0  0  0  0  0
  -22.5230  -27.4850   23.2270 C   0  0  0  0  0  3  0  0  0  0  0  0
  -23.0700  -26.1550   22.6570 C   0  0  0  0  0  2  0  0  0  0  0  0
  -22.3850  -25.7310   21.3540 C   0  0  0  0  0  2  0  0  0  0  0  0
  -20.8790  -25.5620   21.5690 C   0  0  0  0  0  2  0  0  0  0  0  0
  -21.0270  -27.7020   22.9720 C   0  0  0  0  0  0  0  0  0  0  0  0
  -20.4020  -28.8470   23.5130 C   0  0  0  0  0  3  0  0  0  0  0  0
  -19.0320  -29.0850   23.3030 C   0  0  0  0  0  3  0  0  0  0  0  0
  -18.2650  -28.1720   22.5600 C   0  0  0  0  0  3  0  0  0  0  0  0
  -18.8740  -27.0260   22.0160 C   0  0  0  0  0  3  0  0  0  0  0  0
  -28.4840  -30.7930   24.5200 C   0  0  0  0  0  3  0  0  0  0  0  0
  -28.5390  -31.9770   25.3870 N   0  0  0  0  0  0  0  0  0  0  0  0
  -29.0300  -33.1670   25.0160 C   0  0  0  0  0  0  0  0  0  0  0  0
  -29.5560  -33.3610   23.9170 O   0  0  0  0  0  0  0  0  0  0  0  0
  -28.0750  -31.9060   26.2810 H   0  0  0  0  0  0  0  0  0  0  0  0
  -27.7640  -35.2530   25.6210 C   0  0  0  0  0  1  0  0  0  0  0  0
  -28.9200  -34.3260   26.0260 C   0  0  0  0  0  3  0  0  0  0  0  0
  -31.2510  -34.3700   26.7960 C   0  0  0  0  0  1  0  0  0  0  0  0
  -30.1660  -35.1120   26.1570 N   0  0  0  0  0  0  0  0  0  0  0  0
  -30.0020  -35.9590   26.6950 H   0  0  0  0  0  0  0  0  0  0  0  0
  -29.0750  -29.5300   25.2580 C   0  0  1  0  0  0  0  0  0  0  0  0
  -28.1740  -28.9970   26.3960 C   0  0  0  0  0  1  0  0  0  0  0  0
  -29.3070  -28.3750   24.2570 C   0  0  0  0  0  1  0  0  0  0  0  0
  -30.4550  -29.8760   25.8650 C   0  0  0  0  0  1  0  0  0  0  0  0
  1  2  1  0
  2  5  1  0
  3  1  2  0
  4  2  1  0
  6  5  1  0
  6  7  1  0
  8  7  1  0
  9  8  1  0
 10  9  1  0
 11 10  1  0
 12 11  1  0
 13 12  1  0
 14 13  1  0
 16 15  1  0
 16 14  1  0
 17 23  1  0
 17 25  1  0
 18 23  1  0
 19 18  1  0
 19 20  1  0
 21 20  1  0
 21 22  1  0
 21 30  1  0
 23 22  1  0
 24 17  2  0
 25 16  1  0
 26 25  1  0
 27 28  2  0
 28 47  1  0
 29 28  1  0
 29 32  1  0
 30 27  1  0
 30 31  1  0
 31 29  2  0
 32 33  1  0
 33 34  2  0
 35 38  1  0
 35 34  1  0
 36 35  2  0
 37 36  1  0
 37 32  2  0
 38 39  1  0
 39 44  2  0
 39 40  1  0
 40 41  2  0
 41 42  1  0
 42 46  1  0
 43 42  2  0
 44 43  1  0
 45 44  1  0
 47 48  1  0
 48 50  1  0
 48 51  1  0
 49 47  2  0
 52 53  1  0
 52 27  1  0
 54 52  1  0
 55  1  1  0
 56 55  1  0
 57 56  1  0
 58 59  1  0
 58 57  1  0
 60 61  1  0
 60 59  1  0
 61 62  1  0
 62 64  1  0
 63 74  2  0
 64 69  1  0
 65 73  1  0
 65 75  1  0
 66 68  1  0
 66 72  1  0
 67 73  1  0
 68 67  1  0
 69 68  2  0
 70 64  2  0
 70 71  1  0
 71 66  2  0
 72 65  1  0
 73 63  1  0
 75 77  2  0
 76 75  1  0
 78 76  1  0
 79 84  1  0
 80 76  1  0
 81 80  1  0
 82 83  1  0
 82 81  1  0
 83 79  1  0
 84 80  1  0
 84 85  2  0
 86 85  1  0
 87 86  2  0
 88 79  2  0
 88 87  1  0
 89 63  1  0
 89 99  1  0
 89 90  1  0
 90 93  1  0
 91 90  1  0
 91 95  1  0
 92 91  2  0
 95 94  1  0
 95 97  1  0
 97 98  1  0
 97 96  1  0
 99102  1  1
 99100  1  0
101 99  1  0
M  ISO  4  17 100  25 100  61 101  62 101
M  END
>  <TORSDO>  (68) 
F 34

>  <SCORE>  (68) 
15.458

>  <name>  (68) 
71

>  <ligand_id>  (68) 
71

>  <original_smiles>  (68) 
[H]c1c([H])c([H])c2c(c1[H])C([H])([H])C([H])([H])C([H])([H])C2([H])N([H])C(=O)C1([H])N(C(=O)C([H])(N([H])C(=O)C([H])(N([H])C([H])([H])[H])C([H])([H])[H])C(C([H])([H])[H])(C([H])([H])[H])C([H])([H])[H])C([H])([H])c2c([H])c(OC([H])([H])C([H])([H])OC([H])([H])C([H])([H])OC([H])([H])C(=O)N([H])C([H])([H])C([H])([H])C([H])([H])C([H])([H])C([H])([H])C([H])([H])C([H])([H])C([H])([H])OC([H])([H])C([H])(N([H])C(=O)N3C([H])([H])C([H])([H])C([H])([H])C([H])(n4nc(-c5c([H])c([H])c(Oc6c([H])c([H])c(F)c([H])c6F)c([H])c5[H])c(C(=O)N([H])[H])c4N([H])[H])C3([H])[H])C([H])([H])[H])c([H])c([H])c2C1([H])[H]

>  <smiles>  (68) 
[H]c1c([H])c([H])c2c(c1[H])C([H])([H])C([H])([H])C([H])([H])C2([H])N([H])C(=O)C1([H])N(C(=O)C([H])(N([H])C(=O)C([H])(N([H])C([H])([H])[H])C([H])([H])[H])C(C([H])([H])[H])(C([H])([H])[H])C([H])([H])[H])C([H])([H])c2c([H])c(OC([H])([H])C([H])([H])OC([H])([H])C([H])([H])OC([H])([H])C(=O)N([H])C([H])([H])C([H])([H])C([H])([H])C([H])([H])C([H])([H])C([H])([H])C([H])([H])C([H])([H])OC([H])([H])C([H])(N([H])C(=O)N3C([H])([H])C([H])([H])C([H])([H])C([H])(n4nc(-c5c([H])c([H])c(Oc6c([H])c([H])c(F)c([H])c6F)c([H])c5[H])c(C(=O)N([H])[H])c4N([H])[H])C3([H])[H])C([H])([H])[H])c([H])c([H])c2C1([H])[H]

$$$$
72:0:0
     RDKit          3D

111117  0  0  1  0  0  0  0  0999 V2000
  -20.3440  -28.0540   19.7310 C   0  0  0  0  0  0  0  0  0  0  0  0
  -17.9200  -25.3940   23.0500 C   0  0  0  0  0  2  0  0  0  0  0  0
  -17.7610  -25.2390   19.8470 C   0  0  0  0  0  3  0  0  0  0  0  0
  -18.7610  -27.0110   23.0070 C   0  0  0  0  0  1  0  0  0  0  0  0
  -18.5160  -26.8270   19.4020 C   0  0  0  0  0  3  0  0  0  0  0  0
  -17.5500  -24.5330   21.5010 C   0  0  0  0  0  3  0  0  0  0  0  0
  -19.2320  -27.8260   20.6270 N   0  0  0  0  0  2  0  0  0  0  0  0
  -20.5170  -29.2110   19.3450 O   0  0  0  0  0  0  0  0  0  0  0  0
  -18.2520  -23.1260   21.4510 C   0  0  0  0  0  0  0  0  0  0  0  0
  -19.2820  -22.8700   22.2850 N   0  0  0  0  0  0  0  0  0  0  0  0
  -17.9330  -22.3090   20.5890 O   0  0  0  0  0  0  0  0  0  0  0  0
  -19.4210  -23.5440   23.0310 H   0  0  0  0  0  0  0  0  0  0  0  0
  -20.5540  -22.2140   21.9360 C   0  0  0  0  0  2  0  0  0  0  0  0
  -21.6980  -23.0150   22.6230 C   0  0  0  0  0  0  0  0  0  0  0  0
  -22.7190  -23.5470   21.9080 N   0  0  0  0  0  0  0  0  0  0  0  0
  -21.6150  -23.1910   23.8410 O   0  0  0  0  0  0  0  0  0  0  0  0
  -22.7770  -23.3260   20.9190 H   0  0  0  0  0  0  0  0  0  0  0  0
  -23.6820  -24.5540   22.4370 C   0  0  0  0  0  2  0  0  0  0  0  0
  -25.1910  -24.2430   22.2040 C   0  0  0  0  0  2  0  0  0  0  0  0
  -25.9070  -24.7510   20.9160 C   0  0  0  0  0  2  0  0  0  0  0  0
  -26.4060  -26.2360   20.7970 C   0  0  0  0  0  2  0  0  0  0  0  0
  -25.3090  -27.2300   20.3530 C   0  0  0  0  0  2  0  0  0  0  0  0
  -25.6660  -28.6500   20.2950 O   0  0  0  0  0  0  0  0  0  0  0  0
  -28.0390  -33.0740   25.3040 C   0  0  0  0  0  0  0  0  0  0  0  0
  -25.3320  -29.3370   21.4470 C   0  0  0  0  0  0  0  0  0  0  0  0
  -26.1660  -31.6120   25.9050 C   0  0  0  0  0  3  0  0  0  0  0  0
  -24.9500  -30.4660   23.9950 C   0  0  0  0  0  0  0  0  0  0  0  0
  -26.4330  -32.4060   23.5010 C   0  0  0  0  0  2  0  0  0  0  0  0
  -25.7610  -31.1190   23.0660 C   0  0  0  0  0  0  0  0  0  0  0  0
  -25.9470  -30.5690   21.7770 C   0  0  0  0  0  3  0  0  0  0  0  0
  -24.4250  -28.7660   22.3610 C   0  0  0  0  0  3  0  0  0  0  0  0
  -24.2710  -29.2920   23.6480 C   0  0  0  0  0  3  0  0  0  0  0  0
  -24.8180  -31.1040   25.3480 C   0  0  0  0  0  2  0  0  0  0  0  0
  -26.9390  -32.3860   24.8970 N   0  0  0  0  0  0  0  0  0  0  0  0
  -28.3970  -33.0900   26.4910 O   0  0  0  0  0  0  0  0  0  0  0  0
  -26.9840  -30.4350   26.4550 C   0  0  0  0  0  0  0  0  0  0  0  0
  -26.8450  -30.2220   27.7530 N   0  0  0  0  0  0  0  0  0  0  0  0
  -27.7080  -29.7440   25.7360 O   0  0  0  0  0  0  0  0  0  0  0  0
  -26.2210  -30.8140   28.2840 H   0  0  0  0  0  0  0  0  0  0  0  0
  -27.1820  -28.7650   31.4380 C   0  0  0  0  0  0  0  0  0  0  0  0
  -27.3660  -29.0800   28.4200 C   0  0  0  0  0  3  0  0  0  0  0  0
  -26.5190  -27.5270   27.7510 C   0  0  0  0  0  2  0  0  0  0  0  0
  -25.7650  -26.2650   28.9890 C   0  0  0  0  0  1  0  0  0  0  0  0
  -26.3560  -27.1750   31.5130 C   0  0  0  0  0  1  0  0  0  0  0  0
  -27.6170  -29.5280   30.1230 C   0  0  0  0  0  0  0  0  0  0  0  0
  -28.4690  -30.6310   30.3070 C   0  0  0  0  0  3  0  0  0  0  0  0
  -28.8800  -31.0490   31.5870 C   0  0  0  0  0  3  0  0  0  0  0  0
  -28.4640  -30.3670   32.7440 C   0  0  0  0  0  3  0  0  0  0  0  0
  -27.6390  -29.2410   32.6670 C   0  0  0  0  0  3  0  0  0  0  0  0
  -28.8890  -33.8880   24.2860 C   0  0  0  0  0  3  0  0  0  0  0  0
  -29.2100  -35.1730   24.9200 N   0  0  0  0  0  0  0  0  0  0  0  0
  -28.5390  -36.3070   24.6940 C   0  0  0  0  0  0  0  0  0  0  0  0
  -27.6220  -36.3910   23.8740 O   0  0  0  0  0  0  0  0  0  0  0  0
  -29.9180  -35.1640   25.6390 H   0  0  0  0  0  0  0  0  0  0  0  0
  -27.9680  -37.7320   26.6850 C   0  0  0  0  0  1  0  0  0  0  0  0
  -28.9460  -37.5420   25.5140 C   0  0  0  0  0  3  0  0  0  0  0  0
  -30.1040  -38.7760   23.7350 C   0  0  0  0  0  1  0  0  0  0  0  0
  -29.0170  -38.7830   24.7100 N   0  0  0  0  0  0  0  0  0  0  0  0
  -29.1330  -39.5970   25.3110 H   0  0  0  0  0  0  0  0  0  0  0  0
  -30.1980  -33.1320   23.8410 C   0  0  1  0  0  0  0  0  0  0  0  0
  -31.0540  -32.6190   25.0220 C   0  0  0  0  0  1  0  0  0  0  0  0
  -29.8520  -31.9190   22.9490 C   0  0  0  0  0  1  0  0  0  0  0  0
  -31.0780  -34.0770   22.9880 C   0  0  0  0  0  1  0  0  0  0  0  0
  -21.2990  -26.8870   18.9990 C   0  0  0  0  0  2  0  0  0  0  0  0
  -22.2120  -25.9210   19.7160 O   0  0  0  0  0  0  0  0  0  0  0  0
  -22.4980  -24.5650   19.1100 C   0  0  0  0  0  2  0  0  0  0  0  0
  -23.9610  -23.8050   19.1090 C   0  0  0  0  0  2  0  0  0  0  0  0
  -24.1410  -22.3150   19.0880 O   0  0  0  0  0  0  0  0  0  0  0  0
  -25.4770  -21.7070   18.7320 C   0  0  0  0  0  2  0  0  0  0  0  0
  -25.8180  -20.1240   18.9560 C   0  0  0  0  0  2  0  0  0  0  0  0
  -27.2140  -19.6240   19.2390 O   0  0  0  0  0  0  0  0  0  0  0  0
  -27.5060  -18.1470   19.3010 C   0  0  0  0  0  3  0  0  0  0  0  0
  -28.9950  -17.5410   19.6890 C   0  0  0  0  0  3  0  0  0  0  0  0
  -30.1980  -15.0850   19.7080 C   0  0  0  0  0  0  0  0  0  0  0  0
  -30.1960  -12.7810   18.7680 C   0  0  0  0  0  2  0  0  0  0  0  0
  -29.1470  -12.7870   17.6330 C   0  0  0  0  0  2  0  0  0  0  0  0
  -27.7250  -12.5590   18.1870 C   0  0  0  0  0  2  0  0  0  0  0  0
  -27.4140  -13.4450   19.4170 C   0  0  0  0  0  3  0  0  0  0  0  0
  -28.5550  -13.3610   20.4480 C   0  0  0  0  0  2  0  0  0  0  0  0
  -29.7740  -13.7850   19.7620 N   0  0  0  0  0  0  0  0  0  0  0  0
  -31.3500  -15.3490   19.3410 O   0  0  0  0  0  0  0  0  0  0  0  0
  -29.1740  -16.0290   19.8670 N   0  0  0  0  0  0  0  0  0  0  0  0
  -28.3170  -15.5810   20.1510 H   0  0  0  0  0  0  0  0  0  0  0  0
  -25.1330  -14.0170   20.4250 C   0  0  0  0  0  0  0  0  0  0  0  0
  -24.1070  -13.2270   20.8550 C   0  0  0  0  0  0  0  0  0  0  0  0
  -24.5530  -11.8800   20.6930 C   0  0  0  0  0  0  0  0  0  0  0  0
  -26.1300  -13.1450   20.0190 N   0  0  0  0  0  0  0  0  0  0  0  0
  -25.8010  -11.8530   20.2490 N   0  0  0  0  0  0  0  0  0  0  0  0
  -23.8410  -10.6110   20.8700 C   0  0  0  0  0  0  0  0  0  0  0  0
  -24.3650   -9.5840   21.6860 C   0  0  0  0  0  3  0  0  0  0  0  0
  -23.6520   -8.3790   21.8560 C   0  0  0  0  0  3  0  0  0  0  0  0
  -22.4070   -8.1960   21.2110 C   0  0  0  0  0  0  0  0  0  0  0  0
  -21.9040   -9.2110   20.3800 C   0  0  0  0  0  3  0  0  0  0  0  0
  -22.6150  -10.4090   20.2060 C   0  0  0  0  0  3  0  0  0  0  0  0
  -21.6550   -7.0510   21.3040 O   0  0  0  0  0  0  0  0  0  0  0  0
  -21.7130   -6.2380   22.4060 C   0  0  0  0  0  0  0  0  0  0  0  0
  -21.4330   -6.7200   23.7030 C   0  0  0  0  0  3  0  0  0  0  0  0
  -21.4300   -5.8320   24.7980 C   0  0  0  0  0  3  0  0  0  0  0  0
  -21.6990   -4.4660   24.5990 C   0  0  0  0  0  0  0  0  0  0  0  0
  -21.9750   -3.9830   23.3080 C   0  0  0  0  0  3  0  0  0  0  0  0
  -21.9780   -4.8670   22.2130 C   0  0  0  0  0  0  0  0  0  0  0  0
  -22.2200   -4.3910   20.9680 F   0  0  0  0  0  0  0  0  0  0  0  0
  -21.6930   -3.6120   25.6500 F   0  0  0  0  0  0  0  0  0  0  0  0
  -22.7490  -13.6910   21.2940 C   0  0  0  0  0  0  0  0  0  0  0  0
  -22.1170  -12.9530   22.1990 N   0  0  0  0  0  0  0  0  0  0  0  0
  -22.2610  -14.7370   20.8690 O   0  0  0  0  0  0  0  0  0  0  0  0
  -22.5310  -12.1040   22.5590 H   0  0  0  0  0  0  0  0  0  0  0  0
  -21.2100  -13.2400   22.5350 H   0  0  0  0  0  0  0  0  0  0  0  0
  -25.2900  -15.3980   20.3250 N   0  0  0  0  0  0  0  0  0  0  0  0
  -24.5310  -16.0260   20.5630 H   0  0  0  0  0  0  0  0  0  0  0  0
  -26.0550  -15.8630   19.8620 H   0  0  0  0  0  0  0  0  0  0  0  0
  1  7  1  0
  4  2  1  0
  5  3  2  0
  5  7  1  0
  6  3  1  0
  6  2  1  0
  8  1  2  0
  9  6  1  0
  9 10  1  0
 10 12  1  0
 11  9  2  0
 13 10  1  0
 13 14  1  0
 14 16  2  0
 15 18  1  0
 15 14  1  0
 17 15  1  0
 19 18  1  0
 20 19  1  0
 21 20  1  0
 22 21  1  0
 23 22  1  0
 23 25  1  0
 24 35  2  0
 25 30  2  0
 25 31  1  0
 26 36  1  0
 27 33  1  0
 28 34  1  0
 29 28  1  0
 29 27  2  0
 30 29  1  0
 31 32  2  0
 32 27  1  0
 33 26  1  0
 34 24  1  0
 34 26  1  0
 36 37  1  0
 37 39  1  0
 37 41  1  0
 38 36  2  0
 40 44  1  0
 40 49  1  0
 41 42  1  0
 41 45  1  0
 42 43  1  0
 45 46  1  0
 45 40  2  0
 46 47  2  0
 47 48  1  0
 49 48  2  0
 50 51  1  0
 50 24  1  0
 51 54  1  0
 52 51  1  0
 52 56  1  0
 53 52  2  0
 56 55  1  0
 57 58  1  0
 58 59  1  0
 58 56  1  0
 60 50  1  0
 60 61  1  1
 62 60  1  0
 63 60  1  0
 64 65  1  0
 64  1  1  0
 66 65  1  0
 67 66  1  0
 68 67  1  0
 69 70  1  0
 69 68  1  0
 70 71  1  0
 71 72  1  0
 72 73  2  0
 73 82  1  0
 74 80  1  0
 74 82  1  0
 75 80  1  0
 76 77  1  0
 76 75  1  0
 78 77  1  0
 78 87  1  0
 78 79  1  0
 80 79  1  0
 81 74  2  0
 82 83  1  0
 84 85  2  0
 85104  1  0
 86 85  1  0
 86 89  1  0
 87 88  1  0
 87 84  1  0
 88 86  2  0
 89 90  1  0
 90 91  2  0
 92 95  1  0
 92 91  1  0
 93 92  2  0
 94 93  1  0
 94 89  2  0
 95 96  1  0
 96 97  1  0
 97 98  2  0
 99 98  1  0
 99103  1  0
100 99  2  0
101 96  2  0
101100  1  0
102101  1  0
104105  1  0
105108  1  0
105107  1  0
106104  2  0
109 84  1  0
109110  1  0
111109  1  0
M  ISO  4  22 101  23 101  74 100  82 100
M  END
>  <TORSDO>  (69) 
F 34

>  <SCORE>  (69) 
-2.435

>  <name>  (69) 
72

>  <ligand_id>  (69) 
72

>  <original_smiles>  (69) 
[H]c1c([H])c([H])c2c(c1[H])C([H])([H])C([H])([H])C([H])([H])C2([H])N([H])C(=O)C1([H])N(C(=O)C([H])(N([H])C(=O)C([H])(N([H])C([H])([H])[H])C([H])([H])[H])C(C([H])([H])[H])(C([H])([H])[H])C([H])([H])[H])C([H])([H])c2c([H])c(OC([H])([H])C([H])([H])C([H])([H])C([H])([H])C([H])([H])N([H])C(=O)C([H])([H])N([H])C(=O)C3([H])C([H])([H])C([H])([H])N(C(=O)C([H])([H])OC([H])([H])C([H])([H])OC([H])([H])C([H])([H])OC([H])([H])C([H])([H])N([H])C(=O)N4C([H])([H])C([H])([H])C([H])([H])C([H])(n5nc(-c6c([H])c([H])c(Oc7c([H])c([H])c(F)c([H])c7F)c([H])c6[H])c(C(=O)N([H])[H])c5N([H])[H])C4([H])[H])C([H])([H])C3([H])[H])c([H])c([H])c2C1([H])[H]

>  <smiles>  (69) 
[H]c1c([H])c([H])c2c(c1[H])C([H])([H])C([H])([H])C([H])([H])C2([H])N([H])C(=O)C1([H])N(C(=O)C([H])(N([H])C(=O)C([H])(N([H])C([H])([H])[H])C([H])([H])[H])C(C([H])([H])[H])(C([H])([H])[H])C([H])([H])[H])C([H])([H])c2c([H])c(OC([H])([H])C([H])([H])C([H])([H])C([H])([H])C([H])([H])N([H])C(=O)C([H])([H])N([H])C(=O)C3([H])C([H])([H])C([H])([H])N(C(=O)C([H])([H])OC([H])([H])C([H])([H])OC([H])([H])C([H])([H])OC([H])([H])C([H])([H])N([H])C(=O)N4C([H])([H])C([H])([H])C([H])([H])C([H])(n5nc(-c6c([H])c([H])c(Oc7c([H])c([H])c(F)c([H])c7F)c([H])c6[H])c(C(=O)N([H])[H])c5N([H])[H])C4([H])[H])C([H])([H])C3([H])[H])c([H])c([H])c2C1([H])[H]

$$$$
73:0:0
     RDKit          3D

107114  0  0  1  0  0  0  0  0999 V2000
  -28.7060  -23.0210   23.6090 C   0  0  0  0  0  0  0  0  0  0  0  0
  -28.3510  -24.1500   24.2430 N   0  0  0  0  0  0  0  0  0  0  0  0
  -27.9490  -22.4140   22.8500 O   0  0  0  0  0  0  0  0  0  0  0  0
  -29.0510  -24.5660   24.8430 H   0  0  0  0  0  0  0  0  0  0  0  0
  -27.1950  -24.9830   23.9070 C   0  0  0  0  0  2  0  0  0  0  0  0
  -25.8250  -24.3440   24.2290 C   0  0  0  0  0  2  0  0  0  0  0  0
  -24.6200  -25.0940   23.6300 C   0  0  0  0  0  2  0  0  0  0  0  0
  -24.2790  -24.7150   22.1710 C   0  0  0  0  0  2  0  0  0  0  0  0
  -25.0040  -25.5250   21.0680 C   0  0  0  0  0  2  0  0  0  0  0  0
  -25.9060  -24.6980   20.1440 C   0  0  0  0  0  0  0  0  0  0  0  0
  -27.1690  -25.1140   20.0210 N   0  0  0  0  0  0  0  0  0  0  0  0
  -25.4630  -23.7200   19.5360 O   0  0  0  0  0  0  0  0  0  0  0  0
  -27.4330  -25.9530   20.5190 H   0  0  0  0  0  0  0  0  0  0  0  0
  -28.2110  -24.4620   19.2350 C   0  0  0  0  0  2  0  0  0  0  0  0
  -29.3110  -25.4670   18.8410 C   0  0  0  0  0  2  0  0  0  0  0  0
  -28.8550  -26.4310   17.8870 O   0  0  0  0  0  0  0  0  0  0  0  0
  -26.1460  -29.8320   23.5170 C   0  0  0  0  0  0  0  0  0  0  0  0
  -27.9050  -27.2940   18.3710 C   0  0  0  0  0  0  0  0  0  0  0  0
  -24.7570  -29.8360   21.4680 C   0  0  0  0  0  3  0  0  0  0  0  0
  -25.9140  -29.0300   19.3450 C   0  0  0  0  0  0  0  0  0  0  0  0
  -27.3060  -29.6900   21.3150 C   0  0  0  0  0  2  0  0  0  0  0  0
  -27.1240  -28.8970   20.0390 C   0  0  0  0  0  0  0  0  0  0  0  0
  -28.1300  -28.0350   19.5490 C   0  0  0  0  0  3  0  0  0  0  0  0
  -26.6870  -27.4320   17.6800 C   0  0  0  0  0  3  0  0  0  0  0  0
  -25.6850  -28.2920   18.1690 C   0  0  0  0  0  3  0  0  0  0  0  0
  -24.8920  -29.9770   19.9280 C   0  0  0  0  0  2  0  0  0  0  0  0
  -26.0880  -29.7640   22.1570 N   0  0  0  0  0  0  0  0  0  0  0  0
  -25.1230  -30.0010   24.1930 O   0  0  0  0  0  0  0  0  0  0  0  0
  -23.8410  -28.6290   21.7740 C   0  0  0  0  0  0  0  0  0  0  0  0
  -22.5210  -28.8270   21.6190 N   0  0  0  0  0  0  0  0  0  0  0  0
  -24.3170  -27.5420   22.1120 O   0  0  0  0  0  0  0  0  0  0  0  0
  -22.2100  -29.7470   21.3420 H   0  0  0  0  0  0  0  0  0  0  0  0
  -18.9440  -28.3690   21.7970 C   0  0  0  0  0  0  0  0  0  0  0  0
  -21.4710  -27.8300   21.8200 C   0  0  0  0  0  3  0  0  0  0  0  0
  -21.2080  -27.0290   20.5240 C   0  0  0  0  0  2  0  0  0  0  0  0
  -20.0900  -27.6250   19.6650 C   0  0  0  0  0  2  0  0  0  0  0  0
  -18.7770  -27.6740   20.4550 C   0  0  0  0  0  2  0  0  0  0  0  0
  -20.2110  -28.4560   22.4290 C   0  0  0  0  0  0  0  0  0  0  0  0
  -20.3170  -29.1410   23.6580 C   0  0  0  0  0  3  0  0  0  0  0  0
  -19.1860  -29.7250   24.2570 C   0  0  0  0  0  3  0  0  0  0  0  0
  -17.9280  -29.6200   23.6370 C   0  0  0  0  0  3  0  0  0  0  0  0
  -17.8110  -28.9410   22.4110 C   0  0  0  0  0  3  0  0  0  0  0  0
  -27.5000  -29.7270   24.2880 C   0  0  0  0  0  3  0  0  0  0  0  0
  -27.6600  -28.3750   25.0870 C   0  0  1  0  0  0  0  0  0  0  0  0
  -26.4490  -28.0370   25.9890 C   0  0  0  0  0  1  0  0  0  0  0  0
  -27.8690  -27.1910   24.1140 C   0  0  0  0  0  1  0  0  0  0  0  0
  -28.9200  -28.4410   25.9850 C   0  0  0  0  0  1  0  0  0  0  0  0
  -27.5850  -30.8780   25.1950 N   0  0  0  0  0  0  0  0  0  0  0  0
  -28.3390  -31.9630   24.9750 C   0  0  0  0  0  0  0  0  0  0  0  0
  -29.1010  -32.0660   24.0100 O   0  0  0  0  0  0  0  0  0  0  0  0
  -26.9490  -30.8840   25.9790 H   0  0  0  0  0  0  0  0  0  0  0  0
  -27.3500  -34.2350   25.4000 C   0  0  0  0  0  1  0  0  0  0  0  0
  -28.2310  -33.1200   25.9860 C   0  0  0  0  0  3  0  0  0  0  0  0
  -30.3490  -32.7490   27.1730 C   0  0  0  0  0  1  0  0  0  0  0  0
  -29.5420  -33.6780   26.3860 N   0  0  0  0  0  0  0  0  0  0  0  0
  -29.4230  -34.5290   26.9280 H   0  0  0  0  0  0  0  0  0  0  0  0
  -30.1510  -22.5320   23.7470 C   0  0  0  0  0  2  0  0  0  0  0  0
  -30.7470  -22.7260   22.4710 O   0  0  0  0  0  0  0  0  0  0  0  0
  -31.9600  -22.0320   22.2310 C   0  0  0  0  0  2  0  0  0  0  0  0
  -32.1430  -22.0470   20.7060 C   0  0  0  0  0  2  0  0  0  0  0  0
  -31.4200  -19.9850   19.5170 C   0  0  0  0  0  0  0  0  0  0  0  0
  -31.1590  -21.1700   20.0750 N   0  0  0  0  0  0  0  0  0  0  0  0
  -32.5690  -19.5590   19.3800 O   0  0  0  0  0  0  0  0  0  0  0  0
  -30.1860  -21.4220   20.1830 H   0  0  0  0  0  0  0  0  0  0  0  0
  -30.2160  -19.1500   19.0590 C   0  0  0  0  0  2  0  0  0  0  0  0
  -30.2990  -18.9260   17.6530 O   0  0  0  0  0  0  0  0  0  0  0  0
  -30.6910  -17.6160   17.2610 C   0  0  0  0  0  2  0  0  0  0  0  0
  -32.0620  -17.6310   16.5580 C   0  0  0  0  0  2  0  0  0  0  0  0
  -33.2890  -17.4190   17.4800 C   0  0  0  0  0  2  0  0  0  0  0  0
  -34.9550  -17.6230   15.6370 C   0  0  0  0  0  0  0  0  0  0  0  0
  -35.5120  -15.9200   13.9450 C   0  0  0  0  0  2  0  0  0  0  0  0
  -34.2780  -15.0460   13.6530 C   0  0  0  0  0  2  0  0  0  0  0  0
  -34.2140  -13.8610   14.6390 C   0  0  0  0  0  2  0  0  0  0  0  0
  -34.3740  -14.3060   16.1150 C   0  0  0  0  0  3  0  0  0  0  0  0
  -35.5770  -15.2630   16.2850 C   0  0  0  0  0  2  0  0  0  0  0  0
  -35.4120  -16.3780   15.3400 N   0  0  0  0  0  0  0  0  0  0  0  0
  -34.8640  -18.5270   14.8080 O   0  0  0  0  0  0  0  0  0  0  0  0
  -34.5680  -17.8560   16.8980 N   0  0  0  0  0  0  0  0  0  0  0  0
  -34.7370  -18.8230   17.1330 H   0  0  0  0  0  0  0  0  0  0  0  0
  -33.6370  -12.8090   18.0740 C   0  0  0  0  0  0  0  0  0  0  0  0
  -34.1210  -11.6150   18.5410 C   0  0  0  0  0  0  0  0  0  0  0  0
  -35.2430  -11.2980   17.7190 C   0  0  0  0  0  0  0  0  0  0  0  0
  -34.4640  -13.1650   17.0190 N   0  0  0  0  0  0  0  0  0  0  0  0
  -35.4700  -12.2710   16.8480 N   0  0  0  0  0  0  0  0  0  0  0  0
  -36.0820  -10.0930   17.6670 C   0  0  0  0  0  0  0  0  0  0  0  0
  -37.4900  -10.1700   17.7370 C   0  0  0  0  0  3  0  0  0  0  0  0
  -38.2710   -8.9940   17.7080 C   0  0  0  0  0  3  0  0  0  0  0  0
  -37.6460   -7.7290   17.6090 C   0  0  0  0  0  0  0  0  0  0  0  0
  -36.2450   -7.6600   17.5120 C   0  0  0  0  0  3  0  0  0  0  0  0
  -35.4690   -8.8310   17.5360 C   0  0  0  0  0  3  0  0  0  0  0  0
  -38.3270   -6.5370   17.5470 O   0  0  0  0  0  0  0  0  0  0  0  0
  -39.5790   -6.3940   18.0880 C   0  0  0  0  0  0  0  0  0  0  0  0
  -39.8300   -6.6270   19.4580 C   0  0  0  0  0  3  0  0  0  0  0  0
  -41.1160   -6.3970   19.9870 C   0  0  0  0  0  3  0  0  0  0  0  0
  -42.1490   -5.9330   19.1510 C   0  0  0  0  0  0  0  0  0  0  0  0
  -41.9000   -5.6980   17.7870 C   0  0  0  0  0  3  0  0  0  0  0  0
  -40.6170   -5.9250   17.2590 C   0  0  0  0  0  0  0  0  0  0  0  0
  -40.3770   -5.6750   15.9490 F   0  0  0  0  0  0  0  0  0  0  0  0
  -43.3810   -5.7050   19.6600 F   0  0  0  0  0  0  0  0  0  0  0  0
  -33.5170  -10.7680   19.6230 C   0  0  0  0  0  0  0  0  0  0  0  0
  -34.3480  -10.0650   20.3860 N   0  0  0  0  0  0  0  0  0  0  0  0
  -32.3040  -10.7620   19.8270 O   0  0  0  0  0  0  0  0  0  0  0  0
  -35.3430  -10.0880   20.2300 H   0  0  0  0  0  0  0  0  0  0  0  0
  -33.9810   -9.4990   21.1400 H   0  0  0  0  0  0  0  0  0  0  0  0
  -32.5540  -13.5980   18.4440 N   0  0  0  0  0  0  0  0  0  0  0  0
  -31.8960  -13.3020   19.1570 H   0  0  0  0  0  0  0  0  0  0  0  0
  -32.2620  -14.4370   17.9610 H   0  0  0  0  0  0  0  0  0  0  0  0
  1 57  1  0
  1  2  1  0
  2  4  1  0
  3  1  2  0
  5  6  1  0
  5  2  1  0
  7  6  1  0
  8  7  1  0
  9  8  1  0
 10  9  1  0
 11 10  1  0
 11 13  1  0
 12 10  2  0
 14 11  1  0
 15 14  1  0
 16 18  1  0
 16 15  1  0
 17 28  2  0
 18 23  1  0
 19 29  1  0
 19 27  1  0
 20 26  1  0
 20 22  1  0
 21 27  1  0
 22 21  1  0
 23 22  2  0
 24 25  1  0
 24 18  2  0
 25 20  2  0
 26 19  1  0
 27 17  1  0
 29 31  2  0
 30 29  1  0
 32 30  1  0
 33 42  2  0
 33 38  1  0
 34 30  1  0
 34 38  1  0
 35 34  1  0
 36 37  1  0
 36 35  1  0
 37 33  1  0
 38 39  2  0
 39 40  1  0
 41 40  2  0
 42 41  1  0
 43 17  1  0
 43 44  1  0
 43 48  1  0
 44 47  1  1
 44 45  1  0
 46 44  1  0
 48 51  1  0
 49 48  1  0
 49 53  1  0
 50 49  2  0
 53 52  1  0
 53 55  1  0
 55 56  1  0
 55 54  1  0
 58 57  1  0
 59 58  1  0
 60 59  1  0
 61 62  1  0
 62 64  1  0
 62 60  1  0
 63 61  2  0
 65 61  1  0
 66 65  1  0
 67 66  1  0
 68 67  1  0
 68 69  1  0
 70 78  1  0
 71 76  1  0
 72 71  1  0
 72 73  1  0
 74 73  1  0
 74 75  1  0
 74 83  1  0
 76 70  1  0
 76 75  1  0
 77 70  2  0
 78 79  1  0
 78 69  1  0
 80105  1  0
 80 81  2  0
 81100  1  0
 82 81  1  0
 83 80  1  0
 84 83  1  0
 84 82  2  0
 85 82  1  0
 85 86  1  0
 87 86  2  0
 88 87  1  0
 89 90  1  0
 89 88  2  0
 90 85  2  0
 91 88  1  0
 91 92  1  0
 92 93  1  0
 93 94  2  0
 95 99  1  0
 95 94  1  0
 96 95  2  0
 97 96  1  0
 97 92  2  0
 98 97  1  0
100102  2  0
100101  1  0
101104  1  0
103101  1  0
105106  1  0
107105  1  0
M  ISO  4  15 101  16 101  70 100  78 100
M  END
>  <TORSDO>  (70) 
F 34

>  <SCORE>  (70) 
1.117

>  <name>  (70) 
73

>  <ligand_id>  (70) 
73

>  <original_smiles>  (70) 
[H]c1c([H])c([H])c2c(c1[H])C([H])([H])C([H])([H])C([H])([H])C2([H])N([H])C(=O)C1([H])N(C(=O)C([H])(N([H])C(=O)C([H])(N([H])C([H])([H])[H])C([H])([H])[H])C(C([H])([H])[H])(C([H])([H])[H])C([H])([H])[H])C([H])([H])c2c([H])c(OC([H])([H])C([H])([H])N([H])C(=O)C([H])([H])C([H])([H])C([H])([H])C([H])([H])C([H])([H])N([H])C(=O)C([H])([H])OC([H])([H])C([H])([H])N([H])C(=O)C([H])([H])OC([H])([H])C([H])([H])C([H])([H])N([H])C(=O)N3C([H])([H])C([H])([H])C([H])([H])C([H])(n4nc(-c5c([H])c([H])c(Oc6c([H])c([H])c(F)c([H])c6F)c([H])c5[H])c(C(=O)N([H])[H])c4N([H])[H])C3([H])[H])c([H])c([H])c2C1([H])[H]

>  <smiles>  (70) 
[H]c1c([H])c([H])c2c(c1[H])C([H])([H])C([H])([H])C([H])([H])C2([H])N([H])C(=O)C1([H])N(C(=O)C([H])(N([H])C(=O)C([H])(N([H])C([H])([H])[H])C([H])([H])[H])C(C([H])([H])[H])(C([H])([H])[H])C([H])([H])[H])C([H])([H])c2c([H])c(OC([H])([H])C([H])([H])N([H])C(=O)C([H])([H])C([H])([H])C([H])([H])C([H])([H])C([H])([H])N([H])C(=O)C([H])([H])OC([H])([H])C([H])([H])N([H])C(=O)C([H])([H])OC([H])([H])C([H])([H])C([H])([H])N([H])C(=O)N3C([H])([H])C([H])([H])C([H])([H])C([H])(n4nc(-c5c([H])c([H])c(Oc6c([H])c([H])c(F)c([H])c6F)c([H])c5[H])c(C(=O)N([H])[H])c4N([H])[H])C3([H])[H])c([H])c([H])c2C1([H])[H]

$$$$
74:0:0
     RDKit          3D

108115  0  0  1  0  0  0  0  0999 V2000
  -21.4180  -23.5040   18.5660 C   0  0  0  0  0  0  0  0  0  0  0  0
  -20.8230  -24.3340   17.7060 N   0  0  0  0  0  0  0  0  0  0  0  0
  -21.3230  -23.6240   19.7900 O   0  0  0  0  0  0  0  0  0  0  0  0
  -21.0000  -24.1790   16.7220 H   0  0  0  0  0  0  0  0  0  0  0  0
  -20.0200  -25.5030   18.0560 C   0  0  0  0  0  2  0  0  0  0  0  0
  -20.1470  -26.6180   16.9970 C   0  0  0  0  0  2  0  0  0  0  0  0
  -21.5810  -27.1710   16.8270 C   0  0  0  0  0  2  0  0  0  0  0  0
  -22.5200  -26.3340   15.9300 C   0  0  0  0  0  2  0  0  0  0  0  0
  -23.9510  -26.8990   15.7900 C   0  0  0  0  0  2  0  0  0  0  0  0
  -24.6530  -27.0860   17.1500 C   0  0  0  0  0  2  0  0  0  0  0  0
  -26.1750  -27.3240   17.0730 C   0  0  0  0  0  2  0  0  0  0  0  0
  -26.7370  -27.9390   18.3760 C   0  0  0  0  0  2  0  0  0  0  0  0
  -27.7920  -27.0940   19.1120 C   0  0  0  0  0  2  0  0  0  0  0  0
  -28.6230  -27.9470   20.0990 C   0  0  0  0  0  2  0  0  0  0  0  0
  -28.5870  -27.4540   21.4360 O   0  0  0  0  0  0  0  0  0  0  0  0
  -28.1400  -31.9820   26.9000 C   0  0  0  0  0  0  0  0  0  0  0  0
  -27.7680  -28.1160   22.3100 C   0  0  0  0  0  0  0  0  0  0  0  0
  -26.0700  -30.7400   26.3530 C   0  0  0  0  0  3  0  0  0  0  0  0
  -26.1030  -29.4620   24.1460 C   0  0  0  0  0  0  0  0  0  0  0  0
  -27.8150  -31.2440   24.5480 C   0  0  0  0  0  2  0  0  0  0  0  0
  -27.3750  -29.9750   23.8500 C   0  0  0  0  0  0  0  0  0  0  0  0
  -28.2120  -29.3030   22.9370 C   0  0  0  0  0  3  0  0  0  0  0  0
  -26.5050  -27.5890   22.6430 C   0  0  0  0  0  3  0  0  0  0  0  0
  -25.6680  -28.2610   23.5540 C   0  0  0  0  0  3  0  0  0  0  0  0
  -25.2600  -30.2510   25.1220 C   0  0  0  0  0  2  0  0  0  0  0  0
  -27.3960  -31.3280   25.9650 N   0  0  0  0  0  0  0  0  0  0  0  0
  -27.7280  -32.1380   28.0580 O   0  0  0  0  0  0  0  0  0  0  0  0
  -26.1850  -29.5780   27.3600 C   0  0  0  0  0  0  0  0  0  0  0  0
  -25.4110  -29.6560   28.4540 N   0  0  0  0  0  0  0  0  0  0  0  0
  -26.9430  -28.6270   27.1410 O   0  0  0  0  0  0  0  0  0  0  0  0
  -24.8260  -30.4730   28.5640 H   0  0  0  0  0  0  0  0  0  0  0  0
  -24.3520  -29.1240   31.8650 C   0  0  0  0  0  0  0  0  0  0  0  0
  -25.3300  -28.6610   29.5190 C   0  0  0  0  0  3  0  0  0  0  0  0
  -24.1250  -27.7140   29.3140 C   0  0  0  0  0  2  0  0  0  0  0  0
  -22.8640  -28.1730   30.0550 C   0  0  0  0  0  2  0  0  0  0  0  0
  -23.1260  -28.2820   31.5570 C   0  0  0  0  0  2  0  0  0  0  0  0
  -25.3810  -29.3120   30.9040 C   0  0  0  0  0  0  0  0  0  0  0  0
  -26.4820  -30.1310   31.2320 C   0  0  0  0  0  3  0  0  0  0  0  0
  -26.5690  -30.7540   32.4910 C   0  0  0  0  0  3  0  0  0  0  0  0
  -25.5560  -30.5530   33.4440 C   0  0  0  0  0  3  0  0  0  0  0  0
  -24.4530  -29.7370   33.1310 C   0  0  0  0  0  3  0  0  0  0  0  0
  -29.5380  -32.5860   26.5550 C   0  0  0  0  0  3  0  0  0  0  0  0
  -30.7440  -31.7080   27.0680 C   0  0  1  0  0  0  0  0  0  0  0  0
  -30.6590  -31.3700   28.5740 C   0  0  0  0  0  1  0  0  0  0  0  0
  -30.8280  -30.3770   26.2870 C   0  0  0  0  0  1  0  0  0  0  0  0
  -32.0790  -32.4520   26.8230 C   0  0  0  0  0  1  0  0  0  0  0  0
  -29.5920  -33.9350   27.1340 N   0  0  0  0  0  0  0  0  0  0  0  0
  -29.3660  -35.0670   26.4510 C   0  0  0  0  0  0  0  0  0  0  0  0
  -29.1610  -35.0870   25.2340 O   0  0  0  0  0  0  0  0  0  0  0  0
  -29.7000  -33.9970   28.1370 H   0  0  0  0  0  0  0  0  0  0  0  0
  -27.9270  -36.8100   27.5410 C   0  0  0  0  0  1  0  0  0  0  0  0
  -29.3730  -36.3850   27.2490 C   0  0  0  0  0  3  0  0  0  0  0  0
  -31.5310  -37.2590   26.4680 C   0  0  0  0  0  1  0  0  0  0  0  0
  -30.0910  -37.4820   26.5620 N   0  0  0  0  0  0  0  0  0  0  0  0
  -29.9400  -38.3630   27.0440 H   0  0  0  0  0  0  0  0  0  0  0  0
  -22.2460  -22.3620   17.9690 C   0  0  0  0  0  2  0  0  0  0  0  0
  -24.5700  -23.0380   18.4940 C   0  0  0  0  0  0  0  0  0  0  0  0
  -23.5170  -22.2350   18.6770 N   0  0  0  0  0  0  0  0  0  0  0  0
  -24.6470  -23.8280   17.5530 O   0  0  0  0  0  0  0  0  0  0  0  0
  -23.5250  -21.5860   19.4510 H   0  0  0  0  0  0  0  0  0  0  0  0
  -25.6860  -22.9560   19.5370 C   0  0  0  0  0  2  0  0  0  0  0  0
  -27.9120  -22.9340   18.4160 C   0  0  0  0  0  0  0  0  0  0  0  0
  -26.8800  -22.3130   18.9930 N   0  0  0  0  0  0  0  0  0  0  0  0
  -27.9460  -24.1540   18.2480 O   0  0  0  0  0  0  0  0  0  0  0  0
  -26.9260  -21.3040   19.0530 H   0  0  0  0  0  0  0  0  0  0  0  0
  -29.0840  -22.0450   17.9890 C   0  0  0  0  0  2  0  0  0  0  0  0
  -30.3740  -22.8250   17.6600 C   0  0  0  0  0  2  0  0  0  0  0  0
  -31.5920  -21.8910   17.5420 C   0  0  0  0  0  2  0  0  0  0  0  0
  -32.8250  -22.5630   16.9160 C   0  0  0  0  0  2  0  0  0  0  0  0
  -34.1460  -21.8400   17.2550 C   0  0  0  0  0  2  0  0  0  0  0  0
  -34.2640  -19.7380   15.9050 C   0  0  0  0  0  0  0  0  0  0  0  0
  -34.6840  -17.5320   14.8710 C   0  0  0  0  0  2  0  0  0  0  0  0
  -33.4060  -16.9070   14.2870 C   0  0  0  0  0  2  0  0  0  0  0  0
  -32.6630  -16.1030   15.3680 C   0  0  0  0  0  2  0  0  0  0  0  0
  -32.4480  -16.9210   16.6690 C   0  0  0  0  0  3  0  0  0  0  0  0
  -33.7680  -17.5840   17.1250 C   0  0  0  0  0  2  0  0  0  0  0  0
  -34.3120  -18.3850   16.0100 N   0  0  0  0  0  0  0  0  0  0  0  0
  -34.4690  -20.3450   14.8490 O   0  0  0  0  0  0  0  0  0  0  0  0
  -34.0810  -20.3890   17.0580 N   0  0  0  0  0  0  0  0  0  0  0  0
  -33.9700  -19.8120   17.8790 H   0  0  0  0  0  0  0  0  0  0  0  0
  -30.7290  -16.3110   18.4910 C   0  0  0  0  0  0  0  0  0  0  0  0
  -30.5890  -15.2030   19.2810 C   0  0  0  0  0  0  0  0  0  0  0  0
  -31.6720  -14.3360   18.9420 C   0  0  0  0  0  0  0  0  0  0  0  0
  -31.8660  -16.0940   17.7260 N   0  0  0  0  0  0  0  0  0  0  0  0
  -32.4610  -14.9150   18.0460 N   0  0  0  0  0  0  0  0  0  0  0  0
  -31.9770  -12.9680   19.3800 C   0  0  0  0  0  0  0  0  0  0  0  0
  -33.2350  -12.6280   19.9230 C   0  0  0  0  0  3  0  0  0  0  0  0
  -33.4980  -11.3100   20.3540 C   0  0  0  0  0  3  0  0  0  0  0  0
  -32.4970  -10.3150   20.2470 C   0  0  0  0  0  0  0  0  0  0  0  0
  -31.2530  -10.6530   19.6840 C   0  0  0  0  0  3  0  0  0  0  0  0
  -30.9950  -11.9650   19.2520 C   0  0  0  0  0  3  0  0  0  0  0  0
  -32.6710   -9.0030   20.6140 O   0  0  0  0  0  0  0  0  0  0  0  0
  -33.5690   -8.6410   21.5850 C   0  0  0  0  0  0  0  0  0  0  0  0
  -33.5060   -9.1720   22.8920 C   0  0  0  0  0  3  0  0  0  0  0  0
  -34.4050   -8.7200   23.8780 C   0  0  0  0  0  3  0  0  0  0  0  0
  -35.3580   -7.7320   23.5650 C   0  0  0  0  0  0  0  0  0  0  0  0
  -35.4160   -7.1960   22.2670 C   0  0  0  0  0  3  0  0  0  0  0  0
  -34.5210   -7.6490   21.2800 C   0  0  0  0  0  0  0  0  0  0  0  0
  -34.5690   -7.1150   20.0350 F   0  0  0  0  0  0  0  0  0  0  0  0
  -36.2160   -7.2900   24.5160 F   0  0  0  0  0  0  0  0  0  0  0  0
  -29.4600  -14.9150   20.2280 C   0  0  0  0  0  0  0  0  0  0  0  0
  -29.7320  -14.1850   21.3040 N   0  0  0  0  0  0  0  0  0  0  0  0
  -28.3360  -15.3800   20.0430 O   0  0  0  0  0  0  0  0  0  0  0  0
  -30.6590  -13.8190   21.4670 H   0  0  0  0  0  0  0  0  0  0  0  0
  -29.0040  -13.9890   21.9760 H   0  0  0  0  0  0  0  0  0  0  0  0
  -29.9820  -17.4760   18.3440 N   0  0  0  0  0  0  0  0  0  0  0  0
  -29.1200  -17.6370   18.8550 H   0  0  0  0  0  0  0  0  0  0  0  0
  -30.1970  -18.2130   17.6850 H   0  0  0  0  0  0  0  0  0  0  0  0
  1  3  2  0
  2  5  1  0
  2  1  1  0
  4  2  1  0
  6  5  1  0
  7  6  1  0
  8  7  1  0
  9  8  1  0
  9 10  1  0
 11 10  1  0
 11 12  1  0
 12 13  1  0
 13 14  1  0
 14 15  1  0
 15 17  1  0
 16 27  2  0
 17 23  2  0
 17 22  1  0
 18 28  1  0
 19 25  1  0
 20 26  1  0
 21 19  1  0
 21 20  1  0
 22 21  2  0
 23 24  1  0
 24 19  2  0
 25 18  1  0
 26 18  1  0
 26 16  1  0
 28 29  1  0
 29 31  1  0
 30 28  2  0
 32 41  1  0
 33 29  1  0
 33 37  1  0
 34 33  1  0
 34 35  1  0
 35 36  1  0
 36 32  1  0
 37 38  1  0
 37 32  2  0
 38 39  2  0
 39 40  1  0
 41 40  2  0
 42 16  1  0
 42 43  1  0
 42 47  1  0
 43 44  1  1
 45 43  1  0
 46 43  1  0
 47 50  1  0
 48 47  1  0
 48 52  1  0
 49 48  2  0
 52 51  1  0
 53 54  1  0
 54 55  1  0
 54 52  1  0
 56  1  1  0
 56 58  1  0
 57 58  1  0
 57 61  1  0
 58 60  1  0
 59 57  2  0
 62 63  1  0
 63 65  1  0
 63 61  1  0
 64 62  2  0
 66 62  1  0
 67 66  1  0
 68 67  1  0
 69 70  1  0
 69 68  1  0
 71 77  1  0
 71 79  1  0
 72 77  1  0
 73 72  1  0
 73 74  1  0
 75 74  1  0
 75 76  1  0
 75 84  1  0
 77 76  1  0
 78 71  2  0
 79 70  1  0
 79 80  1  0
 81 82  2  0
 82101  1  0
 83 82  1  0
 83 86  1  0
 84 85  1  0
 84 81  1  0
 85 83  2  0
 86 87  1  0
 87 88  2  0
 89 88  1  0
 89 92  1  0
 90 89  2  0
 91 86  2  0
 91 90  1  0
 92 93  1  0
 93 94  1  0
 94 95  2  0
 96 95  1  0
 96100  1  0
 97 96  2  0
 98 93  2  0
 98 97  1  0
 99 98  1  0
101102  1  0
102104  1  0
102105  1  0
103101  2  0
106 81  1  0
106107  1  0
108106  1  0
M  ISO  4  14 101  15 101  71 100  79 100
M  END
>  <TORSDO>  (71) 
F 35

>  <SCORE>  (71) 
-4.152

>  <name>  (71) 
74

>  <ligand_id>  (71) 
74

>  <original_smiles>  (71) 
[H]c1c([H])c([H])c2c(c1[H])C([H])([H])C([H])([H])C([H])([H])C2([H])N([H])C(=O)C1([H])N(C(=O)C([H])(N([H])C(=O)C([H])(N([H])C([H])([H])[H])C([H])([H])[H])C(C([H])([H])[H])(C([H])([H])[H])C([H])([H])[H])C([H])([H])c2c([H])c(OC([H])([H])C([H])([H])C([H])([H])C([H])([H])C([H])([H])C([H])([H])C([H])([H])C([H])([H])C([H])([H])C([H])([H])N([H])C(=O)C([H])([H])N([H])C(=O)C([H])([H])N([H])C(=O)C([H])([H])C([H])([H])C([H])([H])C([H])([H])C([H])([H])N([H])C(=O)N3C([H])([H])C([H])([H])C([H])([H])C([H])(n4nc(-c5c([H])c([H])c(Oc6c([H])c([H])c(F)c([H])c6F)c([H])c5[H])c(C(=O)N([H])[H])c4N([H])[H])C3([H])[H])c([H])c([H])c2C1([H])[H]

>  <smiles>  (71) 
[H]c1c([H])c([H])c2c(c1[H])C([H])([H])C([H])([H])C([H])([H])C2([H])N([H])C(=O)C1([H])N(C(=O)C([H])(N([H])C(=O)C([H])(N([H])C([H])([H])[H])C([H])([H])[H])C(C([H])([H])[H])(C([H])([H])[H])C([H])([H])[H])C([H])([H])c2c([H])c(OC([H])([H])C([H])([H])C([H])([H])C([H])([H])C([H])([H])C([H])([H])C([H])([H])C([H])([H])C([H])([H])C([H])([H])N([H])C(=O)C([H])([H])N([H])C(=O)C([H])([H])N([H])C(=O)C([H])([H])C([H])([H])C([H])([H])C([H])([H])C([H])([H])N([H])C(=O)N3C([H])([H])C([H])([H])C([H])([H])C([H])(n4nc(-c5c([H])c([H])c(Oc6c([H])c([H])c(F)c([H])c6F)c([H])c5[H])c(C(=O)N([H])[H])c4N([H])[H])C3([H])[H])c([H])c([H])c2C1([H])[H]

$$$$
75:0:0
     RDKit          3D

103110  0  0  1  0  0  0  0  0999 V2000
  -23.7080  -23.0260   18.9270 C   0  0  0  0  0  0  0  0  0  0  0  0
  -24.3100  -21.8630   18.6560 N   0  0  0  0  0  0  0  0  0  0  0  0
  -23.2820  -23.7830   18.0520 O   0  0  0  0  0  0  0  0  0  0  0  0
  -24.6540  -21.3320   19.4430 H   0  0  0  0  0  0  0  0  0  0  0  0
  -24.5920  -21.3070   17.3370 C   0  0  0  0  0  2  0  0  0  0  0  0
  -26.0170  -20.7280   17.3220 C   0  0  0  0  0  2  0  0  0  0  0  0
  -26.1960  -20.0290   18.5520 O   0  0  0  0  0  0  0  0  0  0  0  0
  -27.5350  -19.6900   18.9130 C   0  0  0  0  0  2  0  0  0  0  0  0
  -28.4170  -20.9420   19.0710 C   0  0  0  0  0  2  0  0  0  0  0  0
  -29.2020  -21.1340   17.8990 O   0  0  0  0  0  0  0  0  0  0  0  0
  -30.1330  -22.2020   18.0210 C   0  0  0  0  0  2  0  0  0  0  0  0
  -30.9070  -22.4070   16.7040 C   0  0  0  0  0  2  0  0  0  0  0  0
  -31.9720  -21.4620   16.5570 O   0  0  0  0  0  0  0  0  0  0  0  0
  -32.9720  -21.9120   15.6420 C   0  0  0  0  0  2  0  0  0  0  0  0
  -34.0750  -20.8580   15.4260 C   0  0  0  0  0  2  0  0  0  0  0  0
  -34.3570  -18.9330   13.8950 C   0  0  0  0  0  0  0  0  0  0  0  0
  -34.1600  -16.5330   13.4130 C   0  0  0  0  0  2  0  0  0  0  0  0
  -32.6610  -16.1710   13.3540 C   0  0  0  0  0  2  0  0  0  0  0  0
  -32.1160  -15.8600   14.7620 C   0  0  0  0  0  2  0  0  0  0  0  0
  -32.5050  -16.9400   15.8100 C   0  0  0  0  0  3  0  0  0  0  0  0
  -34.0140  -17.2710   15.7330 C   0  0  0  0  0  2  0  0  0  0  0  0
  -34.3080  -17.6570   14.3450 N   0  0  0  0  0  0  0  0  0  0  0  0
  -34.7300  -19.2500   12.7640 O   0  0  0  0  0  0  0  0  0  0  0  0
  -33.5780  -19.7660   14.5980 N   0  0  0  0  0  0  0  0  0  0  0  0
  -32.7610  -20.0500   14.0820 H   0  0  0  0  0  0  0  0  0  0  0  0
  -31.4490  -17.3080   18.1200 C   0  0  0  0  0  0  0  0  0  0  0  0
  -31.2340  -16.4610   19.1750 C   0  0  0  0  0  0  0  0  0  0  0  0
  -31.7890  -15.2050   18.7850 C   0  0  0  0  0  0  0  0  0  0  0  0
  -32.1020  -16.5560   17.1570 N   0  0  0  0  0  0  0  0  0  0  0  0
  -32.3560  -15.2960   17.5870 N   0  0  0  0  0  0  0  0  0  0  0  0
  -31.7630  -13.9020   19.4570 C   0  0  0  0  0  0  0  0  0  0  0  0
  -32.9520  -13.1840   19.7040 C   0  0  0  0  0  3  0  0  0  0  0  0
  -32.9100  -11.9380   20.3620 C   0  0  0  0  0  3  0  0  0  0  0  0
  -31.6690  -11.4000   20.7800 C   0  0  0  0  0  0  0  0  0  0  0  0
  -30.4840  -12.1110   20.5160 C   0  0  0  0  0  3  0  0  0  0  0  0
  -30.5300  -13.3500   19.8570 C   0  0  0  0  0  3  0  0  0  0  0  0
  -31.5280  -10.1830   21.4030 O   0  0  0  0  0  0  0  0  0  0  0  0
  -32.5440   -9.6380   22.1480 C   0  0  0  0  0  0  0  0  0  0  0  0
  -33.0930  -10.3020   23.2660 C   0  0  0  0  0  3  0  0  0  0  0  0
  -34.0890   -9.6720   24.0410 C   0  0  0  0  0  3  0  0  0  0  0  0
  -34.5280   -8.3760   23.7070 C   0  0  0  0  0  0  0  0  0  0  0  0
  -33.9750   -7.7070   22.6010 C   0  0  0  0  0  3  0  0  0  0  0  0
  -32.9860   -8.3360   21.8220 C   0  0  0  0  0  0  0  0  0  0  0  0
  -32.4420   -7.6820   20.7680 F   0  0  0  0  0  0  0  0  0  0  0  0
  -35.4800   -7.7690   24.4540 F   0  0  0  0  0  0  0  0  0  0  0  0
  -30.4780  -16.7730   20.4360 C   0  0  0  0  0  0  0  0  0  0  0  0
  -30.9030  -16.2240   21.5700 N   0  0  0  0  0  0  0  0  0  0  0  0
  -29.5220  -17.5440   20.4310 O   0  0  0  0  0  0  0  0  0  0  0  0
  -31.6910  -15.5950   21.5900 H   0  0  0  0  0  0  0  0  0  0  0  0
  -30.4180  -16.4350   22.4300 H   0  0  0  0  0  0  0  0  0  0  0  0
  -31.1430  -18.6360   17.8790 N   0  0  0  0  0  0  0  0  0  0  0  0
  -30.5950  -19.2250   18.4960 H   0  0  0  0  0  0  0  0  0  0  0  0
  -31.4670  -19.1520   17.0680 H   0  0  0  0  0  0  0  0  0  0  0  0
  -23.5610  -23.3880   20.4130 C   0  0  0  0  0  2  0  0  0  0  0  0
  -25.8780  -23.6780   21.1940 C   0  0  0  0  0  0  0  0  0  0  0  0
  -24.6830  -24.1980   20.8840 N   0  0  0  0  0  0  0  0  0  0  0  0
  -26.1120  -22.4700   21.0980 O   0  0  0  0  0  0  0  0  0  0  0  0
  -24.5500  -25.2000   20.9450 H   0  0  0  0  0  0  0  0  0  0  0  0
  -26.9920  -24.6190   21.6480 C   0  0  0  0  0  2  0  0  0  0  0  0
  -28.0420  -24.5300   20.6940 O   0  0  0  0  0  0  0  0  0  0  0  0
  -29.3170  -24.8900   21.2070 C   0  0  0  0  0  2  0  0  0  0  0  0
  -29.4060  -26.3780   21.5800 C   0  0  0  0  0  2  0  0  0  0  0  0
  -29.0030  -27.1470   20.4610 O   0  0  0  0  0  0  0  0  0  0  0  0
  -24.7720  -32.0130   23.5150 C   0  0  0  0  0  0  0  0  0  0  0  0
  -27.7750  -27.7480   20.5480 C   0  0  0  0  0  0  0  0  0  0  0  0
  -23.7150  -30.5840   21.7930 C   0  0  0  0  0  3  0  0  0  0  0  0
  -25.3060  -29.1030   20.4670 C   0  0  0  0  0  0  0  0  0  0  0  0
  -26.2280  -31.0450   21.7510 C   0  0  0  0  0  2  0  0  0  0  0  0
  -26.4020  -29.6820   21.1190 C   0  0  0  0  0  0  0  0  0  0  0  0
  -27.6380  -29.0060   21.1660 C   0  0  0  0  0  3  0  0  0  0  0  0
  -26.6620  -27.1620   19.9130 C   0  0  0  0  0  3  0  0  0  0  0  0
  -25.4220  -27.8290   19.8800 C   0  0  0  0  0  3  0  0  0  0  0  0
  -24.0350  -29.9190   20.4300 C   0  0  0  0  0  2  0  0  0  0  0  0
  -24.9170  -31.2310   22.4110 N   0  0  0  0  0  0  0  0  0  0  0  0
  -23.6530  -32.2430   23.9950 O   0  0  0  0  0  0  0  0  0  0  0  0
  -23.0470  -29.5320   22.7070 C   0  0  0  0  0  0  0  0  0  0  0  0
  -21.7330  -29.3270   22.5190 N   0  0  0  0  0  0  0  0  0  0  0  0
  -23.7080  -28.9010   23.5360 O   0  0  0  0  0  0  0  0  0  0  0  0
  -21.2570  -29.8910   21.8280 H   0  0  0  0  0  0  0  0  0  0  0  0
  -18.3530  -28.1180   22.9060 C   0  0  0  0  0  0  0  0  0  0  0  0
  -20.9050  -28.3600   23.2350 C   0  0  0  0  0  3  0  0  0  0  0  0
  -21.0180  -26.9530   22.6010 C   0  0  0  0  0  2  0  0  0  0  0  0
  -19.9340  -26.6730   21.5550 C   0  0  0  0  0  2  0  0  0  0  0  0
  -18.5410  -26.7960   22.1780 C   0  0  0  0  0  2  0  0  0  0  0  0
  -19.4640  -28.8600   23.3880 C   0  0  0  0  0  0  0  0  0  0  0  0
  -19.2360  -30.0980   24.0270 C   0  0  0  0  0  3  0  0  0  0  0  0
  -17.9300  -30.5970   24.1850 C   0  0  0  0  0  3  0  0  0  0  0  0
  -16.8330  -29.8520   23.7170 C   0  0  0  0  0  3  0  0  0  0  0  0
  -17.0450  -28.6140   23.0850 C   0  0  0  0  0  3  0  0  0  0  0  0
  -26.0000  -32.6790   24.2150 C   0  0  0  0  0  3  0  0  0  0  0  0
  -26.4430  -31.9360   25.5340 C   0  0  1  0  0  0  0  0  0  0  0  0
  -25.2710  -31.6180   26.4890 C   0  0  0  0  0  1  0  0  0  0  0  0
  -27.1590  -30.6050   25.2030 C   0  0  0  0  0  1  0  0  0  0  0  0
  -27.4670  -32.8030   26.3050 C   0  0  0  0  0  1  0  0  0  0  0  0
  -25.6430  -34.0760   24.4940 N   0  0  0  0  0  0  0  0  0  0  0  0
  -25.9830  -35.1150   23.7210 C   0  0  0  0  0  0  0  0  0  0  0  0
  -26.7010  -35.0030   22.7230 O   0  0  0  0  0  0  0  0  0  0  0  0
  -25.0090  -34.2350   25.2640 H   0  0  0  0  0  0  0  0  0  0  0  0
  -24.2080  -36.8360   23.2610 C   0  0  0  0  0  1  0  0  0  0  0  0
  -25.4380  -36.5000   24.1190 C   0  0  0  0  0  3  0  0  0  0  0  0
  -27.5170  -37.4840   24.9790 C   0  0  0  0  0  1  0  0  0  0  0  0
  -26.4390  -37.5820   23.9970 N   0  0  0  0  0  0  0  0  0  0  0  0
  -25.9980  -38.4930   24.0970 H   0  0  0  0  0  0  0  0  0  0  0  0
  1 54  1  0
  2  1  1  0
  2  4  1  0
  3  1  2  0
  5  2  1  0
  6  5  1  0
  6  7  1  0
  7  8  1  0
  8  9  1  0
 10 11  1  0
 10  9  1  0
 12 11  1  0
 13 12  1  0
 14 13  1  0
 15 14  1  0
 16 22  1  0
 16 24  1  0
 17 22  1  0
 18 17  1  0
 18 19  1  0
 20 19  1  0
 20 29  1  0
 21 20  1  0
 22 21  1  0
 23 16  2  0
 24 15  1  0
 25 24  1  0
 26 27  2  0
 27 46  1  0
 28 27  1  0
 28 31  1  0
 29 30  1  0
 29 26  1  0
 30 28  2  0
 31 32  2  0
 31 36  1  0
 32 33  1  0
 33 34  2  0
 34 37  1  0
 35 34  1  0
 36 35  2  0
 37 38  1  0
 38 39  1  0
 39 40  2  0
 41 40  1  0
 41 45  1  0
 42 41  2  0
 43 38  2  0
 43 42  1  0
 44 43  1  0
 46 47  1  0
 47 49  1  0
 47 50  1  0
 48 46  2  0
 51 26  1  0
 51 52  1  0
 53 51  1  0
 54 56  1  0
 55 59  1  0
 56 58  1  0
 56 55  1  0
 57 55  2  0
 60 61  1  0
 60 59  1  0
 61 62  1  0
 63 65  1  0
 63 62  1  0
 64 75  2  0
 65 70  1  0
 66 74  1  0
 66 76  1  0
 67 69  1  0
 68 74  1  0
 69 70  2  0
 69 68  1  0
 71 65  2  0
 72 71  1  0
 72 67  2  0
 73 67  1  0
 73 66  1  0
 74 64  1  0
 76 78  2  0
 77 76  1  0
 79 77  1  0
 80 89  2  0
 80 85  1  0
 81 77  1  0
 81 85  1  0
 82 81  1  0
 83 84  1  0
 83 82  1  0
 84 80  1  0
 85 86  2  0
 86 87  1  0
 88 87  2  0
 89 88  1  0
 90 64  1  0
 90 95  1  0
 90 91  1  0
 91 94  1  1
 91 92  1  0
 93 91  1  0
 95 98  1  0
 96100  1  0
 96 95  1  0
 97 96  2  0
100 99  1  0
102103  1  0
102100  1  0
102101  1  0
M  ISO  4  16 100  24 100  62 101  63 101
M  END
>  <TORSDO>  (72) 
F 33

>  <SCORE>  (72) 
-7.032

>  <name>  (72) 
75

>  <ligand_id>  (72) 
75

>  <original_smiles>  (72) 
[H]c1c([H])c([H])c2c(c1[H])C([H])([H])C([H])([H])C([H])([H])C2([H])N([H])C(=O)C1([H])N(C(=O)C([H])(N([H])C(=O)C([H])(N([H])C([H])([H])[H])C([H])([H])[H])C(C([H])([H])[H])(C([H])([H])[H])C([H])([H])[H])C([H])([H])c2c([H])c(OC([H])([H])C([H])([H])OC([H])([H])C(=O)N([H])C([H])([H])C(=O)N([H])C([H])([H])C([H])([H])OC([H])([H])C([H])([H])OC([H])([H])C([H])([H])OC([H])([H])C([H])([H])N([H])C(=O)N3C([H])([H])C([H])([H])C([H])([H])C([H])(n4nc(-c5c([H])c([H])c(Oc6c([H])c([H])c(F)c([H])c6F)c([H])c5[H])c(C(=O)N([H])[H])c4N([H])[H])C3([H])[H])c([H])c([H])c2C1([H])[H]

>  <smiles>  (72) 
[H]c1c([H])c([H])c2c(c1[H])C([H])([H])C([H])([H])C([H])([H])C2([H])N([H])C(=O)C1([H])N(C(=O)C([H])(N([H])C(=O)C([H])(N([H])C([H])([H])[H])C([H])([H])[H])C(C([H])([H])[H])(C([H])([H])[H])C([H])([H])[H])C([H])([H])c2c([H])c(OC([H])([H])C([H])([H])OC([H])([H])C(=O)N([H])C([H])([H])C(=O)N([H])C([H])([H])C([H])([H])OC([H])([H])C([H])([H])OC([H])([H])C([H])([H])OC([H])([H])C([H])([H])N([H])C(=O)N3C([H])([H])C([H])([H])C([H])([H])C([H])(n4nc(-c5c([H])c([H])c(Oc6c([H])c([H])c(F)c([H])c6F)c([H])c5[H])c(C(=O)N([H])[H])c4N([H])[H])C3([H])[H])c([H])c([H])c2C1([H])[H]

$$$$
77:0:0
     RDKit          3D

109116  0  0  1  0  0  0  0  0999 V2000
  -21.0900  -29.4240   21.3430 O   0  0  0  0  0  0  0  0  0  0  0  0
  -21.2730  -29.4980   19.8830 C   0  0  0  0  0  2  0  0  0  0  0  0
  -20.8030  -28.1900   19.0820 C   0  0  0  0  0  2  0  0  0  0  0  0
  -21.3400  -27.7990   17.6440 C   0  0  0  0  0  2  0  0  0  0  0  0
  -21.3290  -26.2710   17.1710 C   0  0  0  0  0  2  0  0  0  0  0  0
  -23.0850  -24.4080   16.8470 C   0  0  0  0  0  0  0  0  0  0  0  0
  -22.3400  -25.2530   17.6310 N   0  0  0  0  0  0  0  0  0  0  0  0
  -23.2720  -24.6690   15.6560 O   0  0  0  0  0  0  0  0  0  0  0  0
  -22.2660  -24.9870   18.6030 H   0  0  0  0  0  0  0  0  0  0  0  0
  -23.6570  -23.0460   17.4050 C   0  0  0  0  0  2  0  0  0  0  0  0
  -25.0600  -22.7570   17.0590 O   0  0  0  0  0  0  0  0  0  0  0  0
  -25.5210  -21.3670   16.9310 C   0  0  0  0  0  3  0  0  0  0  0  0
  -26.7600  -20.9210   17.8260 C   0  0  0  0  0  3  0  0  0  0  0  0
  -27.3720  -19.4610   17.5910 C   0  0  0  0  0  2  0  0  0  0  0  0
  -28.4850  -18.9980   18.4450 O   0  0  0  0  0  0  0  0  0  0  0  0
  -28.7820  -17.5540   18.4630 C   0  0  0  0  0  2  0  0  0  0  0  0
  -30.2080  -17.0480   18.9800 C   0  0  0  0  0  2  0  0  0  0  0  0
  -31.1660  -14.6700   19.6350 C   0  0  0  0  0  0  0  0  0  0  0  0
  -31.0490  -12.2200   19.2310 C   0  0  0  0  0  2  0  0  0  0  0  0
  -30.1270  -12.0610   17.9980 C   0  0  0  0  0  2  0  0  0  0  0  0
  -28.6400  -12.0510   18.4130 C   0  0  0  0  0  2  0  0  0  0  0  0
  -28.2840  -13.1870   19.4110 C   0  0  0  0  0  3  0  0  0  0  0  0
  -29.3210  -13.2650   20.5550 C   0  0  0  0  0  2  0  0  0  0  0  0
  -30.6350  -13.4490   19.9330 N   0  0  0  0  0  0  0  0  0  0  0  0
  -32.3320  -14.8010   19.2480 O   0  0  0  0  0  0  0  0  0  0  0  0
  -30.2250  -15.6680   19.5760 N   0  0  0  0  0  0  0  0  0  0  0  0
  -29.3280  -15.3640   19.9240 H   0  0  0  0  0  0  0  0  0  0  0  0
  -26.0080  -14.0530   20.2080 C   0  0  0  0  0  0  0  0  0  0  0  0
  -24.8730  -13.3980   20.6180 C   0  0  0  0  0  0  0  0  0  0  0  0
  -25.1830  -12.0080   20.5630 C   0  0  0  0  0  0  0  0  0  0  0  0
  -26.9330  -13.0580   19.9350 N   0  0  0  0  0  0  0  0  0  0  0  0
  -26.4460  -11.8240   20.2070 N   0  0  0  0  0  0  0  0  0  0  0  0
  -24.3280  -10.8370   20.7740 C   0  0  0  0  0  0  0  0  0  0  0  0
  -24.6620   -9.8390   21.7160 C   0  0  0  0  0  3  0  0  0  0  0  0
  -23.8130   -8.7280   21.9090 C   0  0  0  0  0  3  0  0  0  0  0  0
  -22.6190   -8.6090   21.1600 C   0  0  0  0  0  0  0  0  0  0  0  0
  -22.3060   -9.5910   20.2050 C   0  0  0  0  0  3  0  0  0  0  0  0
  -23.1540  -10.6940   20.0110 C   0  0  0  0  0  3  0  0  0  0  0  0
  -21.7400   -7.5580   21.2700 O   0  0  0  0  0  0  0  0  0  0  0  0
  -21.5910   -6.8670   22.4460 C   0  0  0  0  0  0  0  0  0  0  0  0
  -21.1940   -7.5050   23.6420 C   0  0  0  0  0  3  0  0  0  0  0  0
  -20.9840   -6.7430   24.8090 C   0  0  0  0  0  3  0  0  0  0  0  0
  -21.1580   -5.3460   24.7790 C   0  0  0  0  0  0  0  0  0  0  0  0
  -21.5430   -4.7100   23.5860 C   0  0  0  0  0  3  0  0  0  0  0  0
  -21.7590   -5.4690   22.4230 C   0  0  0  0  0  0  0  0  0  0  0  0
  -22.1130   -4.8470   21.2720 F   0  0  0  0  0  0  0  0  0  0  0  0
  -20.9460   -4.6150   25.8960 F   0  0  0  0  0  0  0  0  0  0  0  0
  -23.5550  -14.0310   20.9410 C   0  0  0  0  0  0  0  0  0  0  0  0
  -22.7970  -13.4220   21.8500 N   0  0  0  0  0  0  0  0  0  0  0  0
  -23.2100  -15.0920   20.4260 O   0  0  0  0  0  0  0  0  0  0  0  0
  -23.0970  -12.5620   22.2820 H   0  0  0  0  0  0  0  0  0  0  0  0
  -21.9090  -13.8210   22.1140 H   0  0  0  0  0  0  0  0  0  0  0  0
  -26.3150  -15.3940   20.0260 N   0  0  0  0  0  0  0  0  0  0  0  0
  -25.6160  -16.1200   20.1460 H   0  0  0  0  0  0  0  0  0  0  0  0
  -27.1700  -15.7330   19.6100 H   0  0  0  0  0  0  0  0  0  0  0  0
  -22.0290  -30.0300   22.3010 C   0  0  0  0  0  2  0  0  0  0  0  0
  -22.5610  -29.1310   23.5370 C   0  0  0  0  0  0  0  0  0  0  0  0
  -22.7860  -27.7760   23.4320 N   0  0  0  0  0  0  0  0  0  0  0  0
  -22.8100  -29.7060   24.5990 O   0  0  0  0  0  0  0  0  0  0  0  0
  -22.4710  -27.4300   22.5310 H   0  0  0  0  0  0  0  0  0  0  0  0
  -23.3200  -26.6710   24.3350 C   0  0  0  0  0  2  0  0  0  0  0  0
  -23.7790  -25.2080   23.7410 C   0  0  0  0  0  3  0  0  0  0  0  0
  -25.2770  -24.6460   23.5550 C   0  0  0  0  0  3  0  0  0  0  0  0
  -25.6970  -23.3320   22.7370 C   0  0  0  0  0  2  0  0  0  0  0  0
  -26.7020  -23.5020   21.5200 C   0  0  0  0  0  2  0  0  0  0  0  0
  -28.1020  -22.8250   21.4310 C   0  0  0  0  0  2  0  0  0  0  0  0
  -28.7140  -22.9210   19.9750 C   0  0  0  0  0  2  0  0  0  0  0  0
  -30.0630  -23.7190   19.7370 C   0  0  0  0  0  2  0  0  0  0  0  0
  -30.1730  -24.4680   18.4770 O   0  0  0  0  0  0  0  0  0  0  0  0
  -26.2330  -28.7530   22.1950 C   0  0  0  0  0  0  0  0  0  0  0  0
  -29.1100  -25.3100   18.3170 C   0  0  0  0  0  0  0  0  0  0  0  0
  -25.0940  -27.6560   20.2490 C   0  0  0  0  0  3  0  0  0  0  0  0
  -26.6720  -26.6630   18.5060 C   0  0  0  0  0  0  0  0  0  0  0  0
  -27.5860  -28.2400   20.2230 C   0  0  0  0  0  2  0  0  0  0  0  0
  -27.7640  -27.1010   19.2500 C   0  0  0  0  0  0  0  0  0  0  0  0
  -28.9920  -26.4440   19.1410 C   0  0  0  0  0  3  0  0  0  0  0  0
  -28.0340  -24.9170   17.4960 C   0  0  0  0  0  3  0  0  0  0  0  0
  -26.8070  -25.6010   17.5940 C   0  0  0  0  0  3  0  0  0  0  0  0
  -25.3750  -27.3640   18.7580 C   0  0  0  0  0  2  0  0  0  0  0  0
  -26.3130  -28.1850   20.9620 N   0  0  0  0  0  0  0  0  0  0  0  0
  -25.1580  -28.9340   22.7330 O   0  0  0  0  0  0  0  0  0  0  0  0
  -24.4860  -26.3460   20.8200 C   0  0  0  0  0  0  0  0  0  0  0  0
  -23.1720  -26.0980   20.7310 N   0  0  0  0  0  0  0  0  0  0  0  0
  -25.1880  -25.5350   21.3420 O   0  0  0  0  0  0  0  0  0  0  0  0
  -22.6250  -26.8280   20.2640 H   0  0  0  0  0  0  0  0  0  0  0  0
  -19.8360  -24.6220   20.5830 C   0  0  0  0  0  0  0  0  0  0  0  0
  -22.3390  -24.9690   21.1910 C   0  0  0  0  0  3  0  0  0  0  0  0
  -22.6420  -23.7120   20.3450 C   0  0  0  0  0  2  0  0  0  0  0  0
  -21.5970  -23.3250   19.2790 C   0  0  0  0  0  2  0  0  0  0  0  0
  -20.1660  -23.3810   19.7890 C   0  0  0  0  0  2  0  0  0  0  0  0
  -20.8250  -25.3060   21.3260 C   0  0  0  0  0  0  0  0  0  0  0  0
  -20.3330  -26.2340   22.2710 C   0  0  0  0  0  3  0  0  0  0  0  0
  -19.0050  -26.6810   22.3160 C   0  0  0  0  0  3  0  0  0  0  0  0
  -18.0600  -26.0580   21.4960 C   0  0  0  0  0  3  0  0  0  0  0  0
  -18.4780  -25.0120   20.6550 C   0  0  0  0  0  3  0  0  0  0  0  0
  -27.4640  -29.3010   22.9840 C   0  0  0  0  0  3  0  0  0  0  0  0
  -28.2210  -28.2230   23.8460 C   0  0  1  0  0  0  0  0  0  0  0  0
  -27.3730  -27.5800   24.9680 C   0  0  0  0  0  1  0  0  0  0  0  0
  -28.8810  -27.1760   22.9180 C   0  0  0  0  0  1  0  0  0  0  0  0
  -29.3930  -28.8800   24.6020 C   0  0  0  0  0  1  0  0  0  0  0  0
  -26.9750  -30.3530   23.8800 N   0  0  0  0  0  0  0  0  0  0  0  0
  -27.0640  -31.6600   23.6330 C   0  0  0  0  0  0  0  0  0  0  0  0
  -27.6540  -32.1130   22.6520 O   0  0  0  0  0  0  0  0  0  0  0  0
  -26.4720  -30.0320   24.6920 H   0  0  0  0  0  0  0  0  0  0  0  0
  -25.0870  -33.1480   24.0470 C   0  0  0  0  0  1  0  0  0  0  0  0
  -26.4030  -32.6190   24.6410 C   0  0  0  0  0  3  0  0  0  0  0  0
  -28.4320  -33.3270   25.8190 C   0  0  0  0  0  1  0  0  0  0  0  0
  -27.2820  -33.7430   25.0220 N   0  0  0  0  0  0  0  0  0  0  0  0
  -26.7630  -34.4500   25.5400 H   0  0  0  0  0  0  0  0  0  0  0  0
  1 56  1  0
  2  1  1  0
  3  2  1  0
  4  3  1  0
  5  7  1  0
  5  4  1  0
  6 10  1  0
  6  7  1  0
  7  9  1  0
  8  6  2  0
 11 10  1  0
 12 11  1  0
 12 13  2  0
 14 13  1  0
 14 15  1  0
 15 16  1  0
 16 17  1  0
 17 26  1  0
 18 24  1  0
 19 24  1  0
 20 21  1  0
 20 19  1  0
 22 21  1  0
 22 31  1  0
 22 23  1  0
 24 23  1  0
 25 18  2  0
 26 18  1  0
 26 27  1  0
 28 29  2  0
 29 48  1  0
 30 29  1  0
 30 33  1  0
 31 32  1  0
 31 28  1  0
 32 30  2  0
 33 34  1  0
 34 35  2  0
 36 39  1  0
 36 35  1  0
 37 36  2  0
 38 37  1  0
 38 33  2  0
 39 40  1  0
 40 41  1  0
 41 42  2  0
 43 42  1  0
 43 47  1  0
 44 43  2  0
 45 40  2  0
 45 44  1  0
 46 45  1  0
 48 49  1  0
 49 52  1  0
 49 51  1  0
 50 48  2  0
 53 54  1  0
 53 28  1  0
 55 53  1  0
 56 57  1  0
 57 59  2  0
 58 57  1  0
 58 61  1  0
 60 58  1  0
 62 61  1  0
 63 62  2  0
 64 63  1  0
 65 64  1  0
 66 65  1  0
 67 66  1  0
 68 67  1  0
 69 68  1  0
 70 81  2  0
 71 69  1  0
 71 76  1  0
 72 82  1  0
 72 80  1  0
 73 79  1  0
 73 75  1  0
 74 80  1  0
 75 74  1  0
 76 75  2  0
 77 78  1  0
 77 71  2  0
 78 73  2  0
 79 72  1  0
 80 70  1  0
 82 84  2  0
 83 82  1  0
 85 83  1  0
 86 95  2  0
 86 91  1  0
 87 83  1  0
 87 91  1  0
 88 87  1  0
 89 90  1  0
 89 88  1  0
 90 86  1  0
 91 92  2  0
 92 93  1  0
 94 93  2  0
 95 94  1  0
 96 70  1  0
 96 97  1  0
 96101  1  0
 97100  1  1
 97 98  1  0
 99 97  1  0
101104  1  0
102101  1  0
102106  1  0
103102  2  0
106105  1  0
106108  1  0
108109  1  0
108107  1  0
M  ISO  4  18 100  26 100  68 101  69 101
M  END
>  <TORSDO>  (73) 
F 39

>  <SCORE>  (73) 
-4.340

>  <name>  (73) 
77

>  <ligand_id>  (73) 
77

>  <original_smiles>  (73) 
[H]c1c([H])c([H])c2c(c1[H])C([H])([H])C([H])([H])C([H])([H])C2([H])N([H])C(=O)C1([H])N(C(=O)C([H])(N([H])C(=O)C([H])(N([H])C([H])([H])[H])C([H])([H])[H])C(C([H])([H])[H])(C([H])([H])[H])C([H])([H])[H])C([H])([H])c2c([H])c(OC([H])([H])C([H])([H])C([H])([H])C([H])([H])C([H])([H])C([H])([H])C([H])([H])C([H])([H])N([H])C(=O)C([H])([H])OC([H])([H])C([H])([H])C([H])([H])C([H])([H])N([H])C(=O)C([H])([H])OC([H])([H])C([H])([H])C([H])([H])OC([H])([H])C([H])([H])N([H])C(=O)N3C([H])([H])C([H])([H])C([H])([H])C([H])(n4nc(-c5c([H])c([H])c(Oc6c([H])c([H])c(F)c([H])c6F)c([H])c5[H])c(C(=O)N([H])[H])c4N([H])[H])C3([H])[H])c([H])c([H])c2C1([H])[H]

>  <smiles>  (73) 
[H]c1c([H])c([H])c2c(c1[H])C([H])([H])C([H])([H])C([H])([H])C2([H])N([H])C(=O)C1([H])N(C(=O)C([H])(N([H])C(=O)C([H])(N([H])C([H])([H])[H])C([H])([H])[H])C(C([H])([H])[H])(C([H])([H])[H])C([H])([H])[H])C([H])([H])c2c([H])c(OC([H])([H])C([H])([H])C([H])([H])C([H])([H])C([H])([H])C([H])([H])C([H])([H])C([H])([H])N([H])C(=O)C([H])([H])OC([H])([H])C([H])([H])C([H])([H])C([H])([H])N([H])C(=O)C([H])([H])OC([H])([H])C([H])([H])C([H])([H])OC([H])([H])C([H])([H])N([H])C(=O)N3C([H])([H])C([H])([H])C([H])([H])C([H])(n4nc(-c5c([H])c([H])c(Oc6c([H])c([H])c(F)c([H])c6F)c([H])c5[H])c(C(=O)N([H])[H])c4N([H])[H])C3([H])[H])c([H])c([H])c2C1([H])[H]

$$$$
78:0:0
     RDKit          3D

106114  0  0  1  0  0  0  0  0999 V2000
  -26.7530  -25.6470   28.3150 C   0  0  0  0  0  2  0  0  0  0  0  0
  -28.2920  -25.5960   28.3360 C   0  0  0  0  0  2  0  0  0  0  0  0
  -28.6470  -25.2080   25.8960 C   0  0  0  0  0  0  0  0  0  0  0  0
  -28.8790  -25.8790   27.0290 N   0  0  0  0  0  0  0  0  0  0  0  0
  -27.8350  -24.2800   25.8260 O   0  0  0  0  0  0  0  0  0  0  0  0
  -29.5600  -26.6250   26.9880 H   0  0  0  0  0  0  0  0  0  0  0  0
  -29.4510  -25.6450   24.6650 C   0  0  0  0  0  2  0  0  0  0  0  0
  -28.8150  -25.1800   23.4790 O   0  0  0  0  0  0  0  0  0  0  0  0
  -29.5600  -25.4840   22.3080 C   0  0  0  0  0  2  0  0  0  0  0  0
  -29.2790  -24.4300   21.2300 C   0  0  0  0  0  2  0  0  0  0  0  0
  -28.0410  -24.7560   20.3840 C   0  0  0  0  0  2  0  0  0  0  0  0
  -28.1110  -24.0570   19.1490 O   0  0  0  0  0  0  0  0  0  0  0  0
  -27.3600  -24.6850   18.1160 C   0  0  0  0  0  2  0  0  0  0  0  0
  -28.0380  -24.3990   16.7690 C   0  0  0  0  0  2  0  0  0  0  0  0
  -29.5190  -24.8170   16.7780 C   0  0  0  0  0  2  0  0  0  0  0  0
  -30.4750  -23.7830   16.1650 C   0  0  0  0  0  2  0  0  0  0  0  0
  -31.8880  -23.7410   14.1250 C   0  0  0  0  0  0  0  0  0  0  0  0
  -32.7490  -22.7590   12.0420 C   0  0  0  0  0  2  0  0  0  0  0  0
  -33.6630  -23.6930   11.2350 C   0  0  0  0  0  2  0  0  0  0  0  0
  -32.8280  -24.5730   10.2930 C   0  0  0  0  0  2  0  0  0  0  0  0
  -31.6660  -25.2890   11.0280 C   0  0  0  0  0  3  0  0  0  0  0  0
  -30.8540  -24.2990   11.8970 C   0  0  0  0  0  2  0  0  0  0  0  0
  -31.7750  -23.5660   12.7860 N   0  0  0  0  0  0  0  0  0  0  0  0
  -32.9030  -23.4550   14.7670 O   0  0  0  0  0  0  0  0  0  0  0  0
  -30.7280  -24.0110   14.7410 N   0  0  0  0  0  0  0  0  0  0  0  0
  -29.9310  -24.1730   14.1450 H   0  0  0  0  0  0  0  0  0  0  0  0
  -30.3970  -27.3330   10.1100 C   0  0  0  0  0  0  0  0  0  0  0  0
  -29.6710  -27.5210    8.9630 C   0  0  0  0  0  0  0  0  0  0  0  0
  -29.6860  -26.2680    8.2770 C   0  0  0  0  0  0  0  0  0  0  0  0
  -30.8100  -26.0100   10.0870 N   0  0  0  0  0  0  0  0  0  0  0  0
  -30.3300  -25.3580    8.9970 N   0  0  0  0  0  0  0  0  0  0  0  0
  -29.1730  -25.8980    6.9520 C   0  0  0  0  0  0  0  0  0  0  0  0
  -28.1760  -24.9090    6.7960 C   0  0  0  0  0  3  0  0  0  0  0  0
  -27.6860  -24.5840    5.5120 C   0  0  0  0  0  3  0  0  0  0  0  0
  -28.1880  -25.2510    4.3700 C   0  0  0  0  0  0  0  0  0  0  0  0
  -29.1960  -26.2190    4.5300 C   0  0  0  0  0  3  0  0  0  0  0  0
  -29.6860  -26.5370    5.8060 C   0  0  0  0  0  3  0  0  0  0  0  0
  -27.7890  -24.9830    3.0830 O   0  0  0  0  0  0  0  0  0  0  0  0
  -26.5030  -24.6070    2.7920 C   0  0  0  0  0  0  0  0  0  0  0  0
  -25.3980  -25.4280    3.1050 C   0  0  0  0  0  3  0  0  0  0  0  0
  -24.0990  -25.0340    2.7240 C   0  0  0  0  0  3  0  0  0  0  0  0
  -23.9040  -23.8290    2.0240 C   0  0  0  0  0  0  0  0  0  0  0  0
  -25.0030  -23.0140    1.7060 C   0  0  0  0  0  3  0  0  0  0  0  0
  -26.3000  -23.4040    2.0860 C   0  0  0  0  0  0  0  0  0  0  0  0
  -27.3590  -22.6250    1.7580 F   0  0  0  0  0  0  0  0  0  0  0  0
  -22.6570  -23.4550    1.6510 F   0  0  0  0  0  0  0  0  0  0  0  0
  -29.0760  -28.8130    8.4820 C   0  0  0  0  0  0  0  0  0  0  0  0
  -27.9210  -28.7500    7.8290 N   0  0  0  0  0  0  0  0  0  0  0  0
  -29.6100  -29.8940    8.7270 O   0  0  0  0  0  0  0  0  0  0  0  0
  -27.4720  -27.8650    7.6460 H   0  0  0  0  0  0  0  0  0  0  0  0
  -27.4790  -29.5990    7.5070 H   0  0  0  0  0  0  0  0  0  0  0  0
  -30.7560  -28.1790   11.1550 N   0  0  0  0  0  0  0  0  0  0  0  0
  -30.5090  -29.1610   11.1690 H   0  0  0  0  0  0  0  0  0  0  0  0
  -31.3330  -27.9040   11.9410 H   0  0  0  0  0  0  0  0  0  0  0  0
  -26.1720  -26.3990   27.1050 C   0  0  0  0  0  2  0  0  0  0  0  0
  -25.3670  -25.4830   26.1790 C   0  0  0  0  0  2  0  0  0  0  0  0
  -25.4930  -25.9490   24.8450 O   0  0  0  0  0  0  0  0  0  0  0  0
  -24.9420  -25.0390   23.8980 C   0  0  0  0  0  2  0  0  0  0  0  0
  -25.0610  -25.6070   22.4790 C   0  0  0  0  0  0  0  0  0  0  0  0
  -23.9450  -25.5660   21.7370 N   0  0  0  0  0  0  0  0  0  0  0  0
  -26.1510  -25.9840   22.0380 O   0  0  0  0  0  0  0  0  0  0  0  0
  -23.1170  -25.2040   22.2060 H   0  0  0  0  0  0  0  0  0  0  0  0
  -23.8510  -25.4910   20.2470 C   0  0  0  0  0  2  0  0  0  0  0  0
  -24.6730  -27.6000   17.9970 C   0  0  0  0  0  2  0  0  0  0  0  0
  -26.2630  -27.4970   17.6850 C   0  0  0  0  0  2  0  0  0  0  0  0
  -26.9320  -26.7120   18.7040 O   0  0  0  0  0  0  0  0  0  0  0  0
  -24.4300  -31.7490   23.3410 C   0  0  0  0  0  0  0  0  0  0  0  0
  -26.0400  -26.9030   19.6550 C   0  0  0  0  0  3  0  0  0  0  0  0
  -22.7320  -30.5780   21.9470 C   0  0  0  0  0  3  0  0  0  0  0  0
  -23.5470  -29.0400   20.0850 C   0  0  0  0  0  0  0  0  0  0  0  0
  -25.1920  -30.7740   21.2220 C   0  0  0  0  0  2  0  0  0  0  0  0
  -25.0470  -29.4250   20.6420 C   0  0  0  0  0  0  0  0  0  0  0  0
  -26.3360  -28.3750   20.4710 C   0  0  0  0  0  2  0  0  0  0  0  0
  -24.4680  -26.4570   19.1170 C   0  0  2  0  0  0  0  0  0  0  0  0
  -23.2290  -27.5780   19.3380 C   0  0  0  0  0  2  0  0  0  0  0  0
  -22.4990  -30.0250   20.5000 C   0  0  0  0  0  2  0  0  0  0  0  0
  -24.1430  -31.0390   22.2180 N   0  0  0  0  0  0  0  0  0  0  0  0
  -23.5380  -32.0670   24.1370 O   0  0  0  0  0  0  0  0  0  0  0  0
  -22.2210  -29.5600   22.9970 C   0  0  0  0  0  0  0  0  0  0  0  0
  -21.0150  -29.0150   22.7730 N   0  0  0  0  0  0  0  0  0  0  0  0
  -22.9000  -29.2680   23.9850 O   0  0  0  0  0  0  0  0  0  0  0  0
  -20.5090  -29.2970   21.9470 H   0  0  0  0  0  0  0  0  0  0  0  0
  -18.0440  -27.0060   23.0950 C   0  0  0  0  0  0  0  0  0  0  0  0
  -20.3540  -28.0270   23.6260 C   0  0  0  0  0  3  0  0  0  0  0  0
  -20.9260  -26.6130   23.3770 C   0  0  0  0  0  2  0  0  0  0  0  0
  -20.1450  -25.8280   22.3190 C   0  0  0  0  0  2  0  0  0  0  0  0
  -18.6790  -25.6740   22.7360 C   0  0  0  0  0  2  0  0  0  0  0  0
  -18.8300  -28.1140   23.5000 C   0  0  0  0  0  0  0  0  0  0  0  0
  -18.1950  -29.3400   23.7880 C   0  0  0  0  0  3  0  0  0  0  0  0
  -16.7970  -29.4670   23.6860 C   0  0  0  0  0  3  0  0  0  0  0  0
  -16.0190  -28.3600   23.3000 C   0  0  0  0  0  3  0  0  0  0  0  0
  -16.6420  -27.1330   23.0090 C   0  0  0  0  0  3  0  0  0  0  0  0
  -25.8860  -32.2240   23.6570 C   0  0  0  0  0  3  0  0  0  0  0  0
  -26.7080  -31.1960   24.5230 C   0  0  1  0  0  0  0  0  0  0  0  0
  -25.8680  -30.4890   25.6100 C   0  0  0  0  0  1  0  0  0  0  0  0
  -27.3310  -30.1130   23.6260 C   0  0  0  0  0  1  0  0  0  0  0  0
  -27.8950  -31.9070   25.2120 C   0  0  0  0  0  1  0  0  0  0  0  0
  -25.7860  -33.5180   24.3330 N   0  0  0  0  0  0  0  0  0  0  0  0
  -26.0590  -34.6920   23.7510 C   0  0  0  0  0  0  0  0  0  0  0  0
  -26.4940  -34.7900   22.5990 O   0  0  0  0  0  0  0  0  0  0  0  0
  -25.3860  -33.5170   25.2610 H   0  0  0  0  0  0  0  0  0  0  0  0
  -24.4920  -36.6170   24.1270 C   0  0  0  0  0  1  0  0  0  0  0  0
  -25.8080  -35.9630   24.5800 C   0  0  0  0  0  3  0  0  0  0  0  0
  -28.1300  -36.4880   25.1740 C   0  0  0  0  0  1  0  0  0  0  0  0
  -26.9140  -36.9410   24.5010 N   0  0  0  0  0  0  0  0  0  0  0  0
  -26.6380  -37.8300   24.9090 H   0  0  0  0  0  0  0  0  0  0  0  0
  1  2  1  0
  3  4  1  0
  4  2  1  0
  5  3  2  0
  6  4  1  0
  7  3  1  0
  8  7  1  0
  9  8  1  0
 10  9  1  0
 11 10  1  0
 12 11  1  0
 13 12  1  0
 14 15  1  0
 14 13  1  0
 16 15  1  0
 17 25  1  0
 17 24  2  0
 18 23  1  0
 19 18  1  0
 20 21  1  0
 20 19  1  0
 21 30  1  0
 21 22  1  0
 22 23  1  0
 23 17  1  0
 25 16  1  0
 26 25  1  0
 27 52  1  0
 28 27  2  0
 29 28  1  0
 29 31  2  0
 30 27  1  0
 31 30  1  0
 32 29  1  0
 33 32  1  0
 34 33  2  0
 35 36  2  0
 35 34  1  0
 36 37  1  0
 37 32  2  0
 38 35  1  0
 39 38  1  0
 39 40  1  0
 41 40  2  0
 42 41  1  0
 43 42  2  0
 43 44  1  0
 44 39  2  0
 45 44  1  0
 46 42  1  0
 47 49  2  0
 47 28  1  0
 48 47  1  0
 50 48  1  0
 51 48  1  0
 52 53  1  0
 52 54  1  0
 55  1  1  0
 56 55  1  0
 57 56  1  0
 58 57  1  0
 59 58  1  0
 60 62  1  0
 60 59  1  0
 61 59  2  0
 63 60  1  0
 64 74  1  0
 65 64  1  0
 65 66  1  0
 66 68  1  0
 67 78  2  0
 68 73  1  0
 69 77  1  0
 69 79  1  0
 70 76  1  0
 70 72  2  0
 71 77  1  0
 72 71  1  0
 73 72  1  0
 74 75  1  0
 74 68  1  0
 74 63  1  6
 75 70  1  0
 76 69  1  0
 77 67  1  0
 79 81  2  0
 80 79  1  0
 82 80  1  0
 83 88  1  0
 84 80  1  0
 85 84  1  0
 86 87  1  0
 86 85  1  0
 87 83  1  0
 88 84  1  0
 88 89  2  0
 90 89  1  0
 91 90  2  0
 92 83  2  0
 92 91  1  0
 93 67  1  0
 93 98  1  0
 93 94  1  0
 94 97  1  1
 94 95  1  0
 96 94  1  0
 98101  1  0
 99 98  1  0
 99103  1  0
100 99  2  0
103102  1  0
105103  1  0
105106  1  0
105104  1  0
M  ISO  4  17 100  25 100  65 101  66 101
M  END
>  <TORSDO>  (74) 
F 36

>  <SCORE>  (74) 
3.805

>  <name>  (74) 
78

>  <ligand_id>  (74) 
78

>  <original_smiles>  (74) 
[H]c1c([H])c([H])c2c(c1[H])C([H])([H])C([H])([H])C([H])([H])C2([H])N([H])C(=O)C1([H])N(C(=O)C([H])(N([H])C(=O)C([H])(N([H])C([H])([H])[H])C([H])([H])[H])C(C([H])([H])[H])(C([H])([H])[H])C([H])([H])[H])C([H])([H])c2c([H])c(OC([H])([H])C([H])([H])C([H])([H])N([H])C(=O)C([H])([H])OC([H])([H])C([H])([H])C([H])([H])C([H])([H])N([H])C(=O)C([H])([H])OC([H])([H])C([H])([H])C([H])([H])OC([H])([H])C([H])([H])C([H])([H])C([H])([H])N([H])C(=O)N3C([H])([H])C([H])([H])C([H])([H])C([H])(n4nc(-c5c([H])c([H])c(Oc6c([H])c([H])c(F)c([H])c6F)c([H])c5[H])c(C(=O)N([H])[H])c4N([H])[H])C3([H])[H])c([H])c([H])c2C1([H])[H]

>  <smiles>  (74) 
[H]c1c([H])c([H])c2c(c1[H])C([H])([H])C([H])([H])C([H])([H])C2([H])N([H])C(=O)C1([H])N(C(=O)C([H])(N([H])C(=O)C([H])(N([H])C([H])([H])[H])C([H])([H])[H])C(C([H])([H])[H])(C([H])([H])[H])C([H])([H])[H])C([H])([H])c2c([H])c(OC([H])([H])C([H])([H])C([H])([H])N([H])C(=O)C([H])([H])OC([H])([H])C([H])([H])C([H])([H])C([H])([H])N([H])C(=O)C([H])([H])OC([H])([H])C([H])([H])C([H])([H])OC([H])([H])C([H])([H])C([H])([H])C([H])([H])N([H])C(=O)N3C([H])([H])C([H])([H])C([H])([H])C([H])(n4nc(-c5c([H])c([H])c(Oc6c([H])c([H])c(F)c([H])c6F)c([H])c5[H])c(C(=O)N([H])[H])c4N([H])[H])C3([H])[H])c([H])c([H])c2C1([H])[H]

$$$$
79:0:0
     RDKit          3D

116123  0  0  1  0  0  0  0  0999 V2000
  -27.8500  -21.9950   15.2610 C   0  0  0  0  0  3  0  0  0  0  0  0
  -27.6540  -21.9560   13.7750 C   0  0  0  0  0  1  0  0  0  0  0  0
  -26.9030  -21.3840   16.0110 N   0  0  0  0  0  0  0  0  0  0  0  0
  -28.9640  -22.6230   15.7070 N   0  0  0  0  0  0  0  0  0  0  0  0
  -26.1070  -21.0240   15.4980 H   0  0  0  0  0  0  0  0  0  0  0  0
  -29.6260  -22.9070   14.9930 H   0  0  0  0  0  0  0  0  0  0  0  0
  -29.3560  -23.0580   17.0530 C   0  0  0  0  0  2  0  0  0  0  0  0
  -30.6740  -22.4410   17.5100 C   0  0  0  0  0  2  0  0  0  0  0  0
  -31.0650  -22.7340   18.9780 C   0  0  0  0  0  2  0  0  0  0  0  0
  -32.5670  -23.0470   19.1660 C   0  0  0  0  0  2  0  0  0  0  0  0
  -33.2100  -22.3780   20.3970 C   0  0  0  0  0  2  0  0  0  0  0  0
  -34.7260  -22.1520   20.2300 C   0  0  0  0  0  2  0  0  0  0  0  0
  -35.0080  -19.6880   20.0910 C   0  0  0  0  0  0  0  0  0  0  0  0
  -34.9810  -20.9000   19.5230 N   0  0  0  0  0  0  0  0  0  0  0  0
  -34.9000  -19.5210   21.3070 O   0  0  0  0  0  0  0  0  0  0  0  0
  -35.0120  -20.9250   18.5060 H   0  0  0  0  0  0  0  0  0  0  0  0
  -35.1100  -18.4750   19.1510 C   0  0  0  0  0  2  0  0  0  0  0  0
  -33.8350  -17.8770   18.8980 O   0  0  0  0  0  0  0  0  0  0  0  0
  -32.8180  -18.6380   18.2400 C   0  0  0  0  0  2  0  0  0  0  0  0
  -32.9820  -18.7280   16.7140 C   0  0  0  0  0  2  0  0  0  0  0  0
  -33.7510  -19.9560   16.2010 C   0  0  0  0  0  2  0  0  0  0  0  0
  -35.1490  -19.9150   16.4320 O   0  0  0  0  0  0  0  0  0  0  0  0
  -35.9180  -19.5400   15.3010 C   0  0  0  0  0  2  0  0  0  0  0  0
  -35.7030  -18.0560   14.9800 C   0  0  0  0  0  2  0  0  0  0  0  0
  -37.3130  -16.5440   16.0110 C   0  0  0  0  0  0  0  0  0  0  0  0
  -37.2380  -14.2520   15.2770 C   0  0  0  0  0  2  0  0  0  0  0  0
  -35.7900  -14.0040   14.8040 C   0  0  0  0  0  2  0  0  0  0  0  0
  -34.9360  -13.4980   15.9810 C   0  0  0  0  0  2  0  0  0  0  0  0
  -35.0500  -14.3900   17.2460 C   0  0  0  0  0  3  0  0  0  0  0  0
  -36.5240  -14.7420   17.5690 C   0  0  0  0  0  2  0  0  0  0  0  0
  -37.1710  -15.2470   16.3510 N   0  0  0  0  0  0  0  0  0  0  0  0
  -38.1700  -16.9740   15.2440 O   0  0  0  0  0  0  0  0  0  0  0  0
  -36.1490  -17.1920   16.0770 N   0  0  0  0  0  0  0  0  0  0  0  0
  -35.4370  -16.7780   16.6540 H   0  0  0  0  0  0  0  0  0  0  0  0
  -33.4680  -14.3600   19.2730 C   0  0  0  0  0  0  0  0  0  0  0  0
  -33.0460  -13.3430   20.0900 C   0  0  0  0  0  0  0  0  0  0  0  0
  -33.7310  -12.1730   19.6460 C   0  0  0  0  0  0  0  0  0  0  0  0
  -34.3650  -13.7860   18.3850 N   0  0  0  0  0  0  0  0  0  0  0  0
  -34.5640  -12.4710   18.6590 N   0  0  0  0  0  0  0  0  0  0  0  0
  -33.5990  -10.7710   20.0660 C   0  0  0  0  0  0  0  0  0  0  0  0
  -34.7240  -10.0000   20.4300 C   0  0  0  0  0  3  0  0  0  0  0  0
  -34.5700   -8.6610   20.8500 C   0  0  0  0  0  3  0  0  0  0  0  0
  -33.2800   -8.0830   20.9150 C   0  0  0  0  0  0  0  0  0  0  0  0
  -32.1640   -8.8480   20.5320 C   0  0  0  0  0  3  0  0  0  0  0  0
  -32.3210  -10.1770   20.1070 C   0  0  0  0  0  3  0  0  0  0  0  0
  -33.0340   -6.7830   21.2920 O   0  0  0  0  0  0  0  0  0  0  0  0
  -33.8860   -6.1000   22.1240 C   0  0  0  0  0  0  0  0  0  0  0  0
  -34.2320   -6.5920   23.4010 C   0  0  0  0  0  3  0  0  0  0  0  0
  -35.0590   -5.8280   24.2490 C   0  0  0  0  0  3  0  0  0  0  0  0
  -35.5260   -4.5680   23.8290 C   0  0  0  0  0  0  0  0  0  0  0  0
  -35.1760   -4.0740   22.5610 C   0  0  0  0  0  3  0  0  0  0  0  0
  -34.3550   -4.8370   21.7110 C   0  0  0  0  0  0  0  0  0  0  0  0
  -34.0050   -4.3470   20.4970 F   0  0  0  0  0  0  0  0  0  0  0  0
  -36.3120   -3.8290   24.6460 F   0  0  0  0  0  0  0  0  0  0  0  0
  -31.9990  -13.4370   21.1610 C   0  0  0  0  0  0  0  0  0  0  0  0
  -32.1160  -12.6190   22.2040 N   0  0  0  0  0  0  0  0  0  0  0  0
  -31.0960  -14.2670   21.1040 O   0  0  0  0  0  0  0  0  0  0  0  0
  -32.8740  -11.9540   22.2640 H   0  0  0  0  0  0  0  0  0  0  0  0
  -31.4440  -12.6640   22.9540 H   0  0  0  0  0  0  0  0  0  0  0  0
  -33.1490  -15.7120   19.2050 N   0  0  0  0  0  0  0  0  0  0  0  0
  -32.5240  -16.1360   19.8810 H   0  0  0  0  0  0  0  0  0  0  0  0
  -33.6410  -16.3990   18.6460 H   0  0  0  0  0  0  0  0  0  0  0  0
  -26.9120  -20.9760   17.4280 C   0  0  0  0  0  2  0  0  0  0  0  0
  -26.3340  -21.9780   18.4470 C   0  0  0  0  0  2  0  0  0  0  0  0
  -26.2680  -23.3260   17.9860 O   0  0  0  0  0  0  0  0  0  0  0  0
  -24.9470  -23.8030   17.7770 C   0  0  0  0  0  2  0  0  0  0  0  0
  -24.9660  -25.3200   17.9700 C   0  0  0  0  0  2  0  0  0  0  0  0
  -25.3190  -25.9550   16.7480 O   0  0  0  0  0  0  0  0  0  0  0  0
  -26.0140  -27.1870   16.9110 C   0  0  0  0  0  2  0  0  0  0  0  0
  -27.4900  -26.9240   17.2260 C   0  0  0  0  0  0  0  0  0  0  0  0
  -27.9630  -27.3870   18.3880 N   0  0  0  0  0  0  0  0  0  0  0  0
  -28.1910  -26.3050   16.4210 O   0  0  0  0  0  0  0  0  0  0  0  0
  -27.3070  -27.8340   19.0190 H   0  0  0  0  0  0  0  0  0  0  0  0
  -29.3540  -27.2980   18.8210 C   0  0  0  0  0  2  0  0  0  0  0  0
  -29.6050  -26.0470   19.6800 C   0  0  0  0  0  2  0  0  0  0  0  0
  -29.9850  -26.3780   21.0080 O   0  0  0  0  0  0  0  0  0  0  0  0
  -28.5760  -30.8720   26.2930 C   0  0  0  0  0  0  0  0  0  0  0  0
  -29.0130  -26.8990   21.8270 C   0  0  0  0  0  0  0  0  0  0  0  0
  -26.7040  -29.3910   25.6280 C   0  0  0  0  0  3  0  0  0  0  0  0
  -27.0540  -28.0670   23.4810 C   0  0  0  0  0  0  0  0  0  0  0  0
  -28.5130  -30.0450   23.9500 C   0  0  0  0  0  2  0  0  0  0  0  0
  -28.2790  -28.7140   23.2770 C   0  0  0  0  0  0  0  0  0  0  0  0
  -29.2610  -28.1280   22.4570 C   0  0  0  0  0  3  0  0  0  0  0  0
  -27.7860  -26.2370   22.0610 C   0  0  0  0  0  3  0  0  0  0  0  0
  -26.8080  -26.8200   22.8810 C   0  0  0  0  0  3  0  0  0  0  0  0
  -26.0510  -28.7580   24.3710 C   0  0  0  0  0  2  0  0  0  0  0  0
  -27.9790  -30.1180   25.3280 N   0  0  0  0  0  0  0  0  0  0  0  0
  -28.0650  -30.9970   27.4150 O   0  0  0  0  0  0  0  0  0  0  0  0
  -26.8710  -28.2800   26.6920 C   0  0  0  0  0  0  0  0  0  0  0  0
  -25.8590  -28.1230   27.5600 N   0  0  0  0  0  0  0  0  0  0  0  0
  -27.8710  -27.5610   26.7010 O   0  0  0  0  0  0  0  0  0  0  0  0
  -25.0770  -28.7580   27.4960 H   0  0  0  0  0  0  0  0  0  0  0  0
  -23.9640  -27.0680   30.4480 C   0  0  0  0  0  0  0  0  0  0  0  0
  -25.7790  -27.1090   28.6110 C   0  0  0  0  0  3  0  0  0  0  0  0
  -25.1370  -25.8020   28.0880 C   0  0  0  0  0  2  0  0  0  0  0  0
  -23.6220  -25.7440   28.3150 C   0  0  0  0  0  2  0  0  0  0  0  0
  -23.3040  -25.8590   29.8080 C   0  0  0  0  0  2  0  0  0  0  0  0
  -25.1190  -27.6670   29.8770 C   0  0  0  0  0  0  0  0  0  0  0  0
  -25.6730  -28.8130   30.4850 C   0  0  0  0  0  3  0  0  0  0  0  0
  -25.0930  -29.3620   31.6460 C   0  0  0  0  0  3  0  0  0  0  0  0
  -23.9570  -28.7590   32.2160 C   0  0  0  0  0  3  0  0  0  0  0  0
  -23.4010  -27.6120   31.6200 C   0  0  0  0  0  3  0  0  0  0  0  0
  -29.9220  -31.6180   26.0350 C   0  0  0  0  0  3  0  0  0  0  0  0
  -29.8150  -32.9430   26.6590 N   0  0  0  0  0  0  0  0  0  0  0  0
  -29.5270  -34.0730   26.0010 C   0  0  0  0  0  0  0  0  0  0  0  0
  -29.3840  -34.1180   24.7740 O   0  0  0  0  0  0  0  0  0  0  0  0
  -29.8560  -32.9710   27.6680 H   0  0  0  0  0  0  0  0  0  0  0  0
  -27.8710  -35.6460   27.0570 C   0  0  0  0  0  1  0  0  0  0  0  0
  -29.3650  -35.3570   26.8350 C   0  0  0  0  0  3  0  0  0  0  0  0
  -31.4710  -36.4560   26.2130 C   0  0  0  0  0  1  0  0  0  0  0  0
  -30.0130  -36.5400   26.2250 N   0  0  0  0  0  0  0  0  0  0  0  0
  -29.7490  -37.3870   26.7210 H   0  0  0  0  0  0  0  0  0  0  0  0
  -31.1880  -30.8480   26.5850 C   0  0  1  0  0  0  0  0  0  0  0  0
  -31.0520  -30.4080   28.0620 C   0  0  0  0  0  1  0  0  0  0  0  0
  -31.4700  -29.5850   25.7370 C   0  0  0  0  0  1  0  0  0  0  0  0
  -32.4420  -31.7480   26.4730 C   0  0  0  0  0  1  0  0  0  0  0  0
  1  2  1  0
  1  4  1  0
  1  3  1  0
  3 63  1  0
  4  7  1  0
  5  3  1  0
  6  4  1  0
  7  8  1  0
  8  9  1  0
  9 10  1  0
 10 11  1  0
 12 11  1  0
 13 15  2  0
 14 13  1  0
 14 12  1  0
 16 14  1  0
 17 13  1  0
 18 17  1  0
 19 18  1  0
 20 19  1  0
 21 22  1  0
 21 20  1  0
 23 22  1  0
 24 23  1  0
 24 33  1  0
 25 33  1  0
 25 31  1  0
 26 31  1  0
 27 26  1  0
 27 28  1  0
 29 28  1  0
 29 30  1  0
 29 38  1  0
 31 30  1  0
 32 25  2  0
 33 34  1  0
 35 36  2  0
 36 55  1  0
 37 40  1  0
 37 36  1  0
 38 39  1  0
 38 35  1  0
 39 37  2  0
 40 45  2  0
 40 41  1  0
 41 42  2  0
 42 43  1  0
 43 46  1  0
 44 43  2  0
 45 44  1  0
 46 47  1  0
 47 48  1  0
 48 49  2  0
 50 49  1  0
 50 54  1  0
 51 50  2  0
 52 47  2  0
 52 51  1  0
 53 52  1  0
 55 56  1  0
 56 58  1  0
 56 59  1  0
 57 55  2  0
 60 35  1  0
 60 61  1  0
 62 60  1  0
 63 64  1  0
 65 64  1  0
 66 67  1  0
 66 65  1  0
 68 69  1  0
 68 67  1  0
 69 70  1  0
 70 71  1  0
 71 74  1  0
 71 73  1  0
 72 70  2  0
 74 75  1  0
 75 76  1  0
 76 78  1  0
 77 88  2  0
 78 84  2  0
 78 83  1  0
 79 89  1  0
 80 86  1  0
 81 87  1  0
 82 80  1  0
 82 81  1  0
 83 82  2  0
 84 85  1  0
 85 80  2  0
 86 79  1  0
 87 79  1  0
 87 77  1  0
 89 91  2  0
 89 90  1  0
 92 90  1  0
 93102  1  0
 94 90  1  0
 94 98  1  0
 95 96  1  0
 95 94  1  0
 96 97  1  0
 97 93  1  0
 98 93  2  0
 98 99  1  0
 99100  2  0
100101  1  0
102101  2  0
103 77  1  0
103113  1  0
103104  1  0
104107  1  0
105104  1  0
105109  1  0
106105  2  0
109108  1  0
110111  1  0
111112  1  0
111109  1  0
113114  1  1
115113  1  0
116113  1  0
M  ISO  4  25 100  33 100  75 101  76 101
M  END
>  <TORSDO>  (75) 
F 41

>  <SCORE>  (75) 
6.572

>  <name>  (75) 
79

>  <ligand_id>  (75) 
79

>  <original_smiles>  (75) 
[H]c1c([H])c([H])c2c(c1[H])C([H])([H])C([H])([H])C([H])([H])C2([H])N([H])C(=O)C1([H])N(C(=O)C([H])(N([H])C(=O)C([H])(N([H])C([H])([H])[H])C([H])([H])[H])C(C([H])([H])[H])(C([H])([H])[H])C([H])([H])[H])C([H])([H])c2c([H])c(OC([H])([H])C([H])([H])N([H])C(=O)C([H])([H])OC([H])([H])C([H])([H])OC([H])([H])C([H])([H])N([H])C(=[N+]([H])C([H])([H])C([H])([H])C([H])([H])C([H])([H])C([H])([H])C([H])([H])N([H])C(=O)C([H])([H])OC([H])([H])C([H])([H])C([H])([H])OC([H])([H])C([H])([H])N([H])C(=O)N3C([H])([H])C([H])([H])C([H])([H])C([H])(n4nc(-c5c([H])c([H])c(Oc6c([H])c([H])c(F)c([H])c6F)c([H])c5[H])c(C(=O)N([H])[H])c4N([H])[H])C3([H])[H])C([H])([H])[H])c([H])c([H])c2C1([H])[H]

>  <smiles>  (75) 
[H]c1c([H])c([H])c2c(c1[H])C([H])([H])C([H])([H])C([H])([H])C2([H])N([H])C(=O)C1([H])N(C(=O)C([H])(N([H])C(=O)C([H])(N([H])C([H])([H])[H])C([H])([H])[H])C(C([H])([H])[H])(C([H])([H])[H])C([H])([H])[H])C([H])([H])c2c([H])c(OC([H])([H])C([H])([H])N([H])C(=O)C([H])([H])OC([H])([H])C([H])([H])OC([H])([H])C([H])([H])N([H])C(=[N+]([H])C([H])([H])C([H])([H])C([H])([H])C([H])([H])C([H])([H])C([H])([H])N([H])C(=O)C([H])([H])OC([H])([H])C([H])([H])C([H])([H])OC([H])([H])C([H])([H])N([H])C(=O)N3C([H])([H])C([H])([H])C([H])([H])C([H])(n4nc(-c5c([H])c([H])c(Oc6c([H])c([H])c(F)c([H])c6F)c([H])c5[H])c(C(=O)N([H])[H])c4N([H])[H])C3([H])[H])C([H])([H])[H])c([H])c([H])c2C1([H])[H]

$$$$
80:0:0
     RDKit          3D

 90 97  0  0  1  0  0  0  0  0999 V2000
  -27.8060  -22.7890   22.0570 C   0  0  0  0  0  2  0  0  0  0  0  0
  -28.1210  -23.6690   20.9800 O   0  0  0  0  0  0  0  0  0  0  0  0
  -28.3570  -25.0040   21.4180 C   0  0  0  0  0  2  0  0  0  0  0  0
  -29.0330  -25.8100   20.2920 C   0  0  0  0  0  2  0  0  0  0  0  0
  -28.9770  -27.2200   20.5330 O   0  0  0  0  0  0  0  0  0  0  0  0
  -24.8130  -32.1180   23.5430 C   0  0  0  0  0  0  0  0  0  0  0  0
  -27.7520  -27.8490   20.4980 C   0  0  0  0  0  0  0  0  0  0  0  0
  -23.7220  -30.6820   21.8480 C   0  0  0  0  0  3  0  0  0  0  0  0
  -25.2850  -29.2330   20.4560 C   0  0  0  0  0  0  0  0  0  0  0  0
  -26.2290  -31.1650   21.7290 C   0  0  0  0  0  2  0  0  0  0  0  0
  -26.3990  -29.8060   21.0820 C   0  0  0  0  0  0  0  0  0  0  0  0
  -27.6340  -29.1210   21.0980 C   0  0  0  0  0  3  0  0  0  0  0  0
  -26.6140  -27.2830   19.8740 C   0  0  0  0  0  3  0  0  0  0  0  0
  -25.3870  -27.9680   19.8540 C   0  0  0  0  0  3  0  0  0  0  0  0
  -24.0040  -30.0320   20.4680 C   0  0  0  0  0  2  0  0  0  0  0  0
  -24.9370  -31.3350   22.4330 N   0  0  0  0  0  0  0  0  0  0  0  0
  -23.7050  -32.3340   24.0530 O   0  0  0  0  0  0  0  0  0  0  0  0
  -23.0900  -29.6210   22.7760 C   0  0  0  0  0  0  0  0  0  0  0  0
  -21.7860  -29.3620   22.5830 N   0  0  0  0  0  0  0  0  0  0  0  0
  -23.7700  -29.0330   23.6190 O   0  0  0  0  0  0  0  0  0  0  0  0
  -21.2950  -29.8870   21.8700 H   0  0  0  0  0  0  0  0  0  0  0  0
  -18.4720  -27.9650   22.9140 C   0  0  0  0  0  0  0  0  0  0  0  0
  -20.9920  -28.3730   23.3120 C   0  0  0  0  0  3  0  0  0  0  0  0
  -21.2090  -26.9500   22.7440 C   0  0  0  0  0  2  0  0  0  0  0  0
  -20.1790  -26.5620   21.6760 C   0  0  0  0  0  2  0  0  0  0  0  0
  -18.7620  -26.6280   22.2540 C   0  0  0  0  0  2  0  0  0  0  0  0
  -19.5210  -28.7900   23.3990 C   0  0  0  0  0  0  0  0  0  0  0  0
  -19.2030  -30.0400   23.9710 C   0  0  0  0  0  3  0  0  0  0  0  0
  -17.8650  -30.4650   24.0730 C   0  0  0  0  0  3  0  0  0  0  0  0
  -16.8290  -29.6370   23.6090 C   0  0  0  0  0  3  0  0  0  0  0  0
  -17.1330  -28.3910   23.0320 C   0  0  0  0  0  3  0  0  0  0  0  0
  -26.0510  -32.7960   24.2080 C   0  0  0  0  0  3  0  0  0  0  0  0
  -26.4950  -32.0970   25.5500 C   0  0  1  0  0  0  0  0  0  0  0  0
  -25.3360  -31.8630   26.5460 C   0  0  0  0  0  1  0  0  0  0  0  0
  -27.1490  -30.7280   25.2540 C   0  0  0  0  0  1  0  0  0  0  0  0
  -27.5660  -32.9570   26.2590 C   0  0  0  0  0  1  0  0  0  0  0  0
  -25.7090  -34.2050   24.4420 N   0  0  0  0  0  0  0  0  0  0  0  0
  -26.0740  -35.2180   23.6420 C   0  0  0  0  0  0  0  0  0  0  0  0
  -26.8020  -35.0650   22.6570 O   0  0  0  0  0  0  0  0  0  0  0  0
  -25.0670  -34.3930   25.1980 H   0  0  0  0  0  0  0  0  0  0  0  0
  -24.3440  -36.9560   23.0900 C   0  0  0  0  0  1  0  0  0  0  0  0
  -25.5440  -36.6220   23.9910 C   0  0  0  0  0  3  0  0  0  0  0  0
  -27.6240  -37.5810   24.8740 C   0  0  0  0  0  1  0  0  0  0  0  0
  -26.5690  -37.6810   23.8690 N   0  0  0  0  0  0  0  0  0  0  0  0
  -26.1450  -38.6010   23.9460 H   0  0  0  0  0  0  0  0  0  0  0  0
  -27.4930  -21.3830   21.5210 C   0  0  0  0  0  2  0  0  0  0  0  0
  -28.6650  -20.7680   20.9950 O   0  0  0  0  0  0  0  0  0  0  0  0
  -28.3670  -19.5800   20.2660 C   0  0  0  0  0  2  0  0  0  0  0  0
  -29.6620  -18.8370   19.8940 C   0  0  0  0  0  2  0  0  0  0  0  0
  -30.0630  -17.9670   20.9490 O   0  0  0  0  0  0  0  0  0  0  0  0
  -31.4690  -17.8850   21.1710 C   0  0  0  0  0  2  0  0  0  0  0  0
  -32.1640  -16.8510   20.2700 C   0  0  0  0  0  2  0  0  0  0  0  0
  -31.9300  -14.4640   19.7030 C   0  0  0  0  0  0  0  0  0  0  0  0
  -31.3700  -12.1870   18.9420 C   0  0  0  0  0  2  0  0  0  0  0  0
  -30.3890  -12.2580   17.7560 C   0  0  0  0  0  2  0  0  0  0  0  0
  -28.9350  -12.3150   18.2570 C   0  0  0  0  0  2  0  0  0  0  0  0
  -28.7260  -13.3820   19.3650 C   0  0  0  0  0  3  0  0  0  0  0  0
  -29.8210  -13.2870   20.4530 C   0  0  0  0  0  2  0  0  0  0  0  0
  -31.1380  -13.3620   19.7950 N   0  0  0  0  0  0  0  0  0  0  0  0
  -32.9520  -14.5110   19.0150 O   0  0  0  0  0  0  0  0  0  0  0  0
  -31.5220  -15.5410   20.3790 N   0  0  0  0  0  0  0  0  0  0  0  0
  -30.6870  -15.4770   20.9440 H   0  0  0  0  0  0  0  0  0  0  0  0
  -26.5230  -14.3100   20.3180 C   0  0  0  0  0  0  0  0  0  0  0  0
  -25.3730  -13.6950   20.7340 C   0  0  0  0  0  0  0  0  0  0  0  0
  -25.5970  -12.2930   20.5790 C   0  0  0  0  0  0  0  0  0  0  0  0
  -27.3840  -13.2930   19.9390 N   0  0  0  0  0  0  0  0  0  0  0  0
  -26.8320  -12.0680   20.1490 N   0  0  0  0  0  0  0  0  0  0  0  0
  -24.6860  -11.1530   20.7540 C   0  0  0  0  0  0  0  0  0  0  0  0
  -25.0150  -10.0650   21.5910 C   0  0  0  0  0  3  0  0  0  0  0  0
  -24.1140   -8.9910   21.7570 C   0  0  0  0  0  3  0  0  0  0  0  0
  -22.8680   -9.0000   21.0880 C   0  0  0  0  0  0  0  0  0  0  0  0
  -22.5550  -10.0750   20.2360 C   0  0  0  0  0  3  0  0  0  0  0  0
  -23.4560  -11.1380   20.0660 C   0  0  0  0  0  3  0  0  0  0  0  0
  -21.9430   -7.9870   21.1680 O   0  0  0  0  0  0  0  0  0  0  0  0
  -21.8340   -7.1990   22.2860 C   0  0  0  0  0  0  0  0  0  0  0  0
  -21.5870   -7.7470   23.5640 C   0  0  0  0  0  3  0  0  0  0  0  0
  -21.4110   -6.8960   24.6730 C   0  0  0  0  0  3  0  0  0  0  0  0
  -21.4730   -5.4990   24.5060 C   0  0  0  0  0  0  0  0  0  0  0  0
  -21.7140   -4.9520   23.2340 C   0  0  0  0  0  3  0  0  0  0  0  0
  -21.8900   -5.8000   22.1260 C   0  0  0  0  0  0  0  0  0  0  0  0
  -22.1010   -5.2670   20.8980 F   0  0  0  0  0  0  0  0  0  0  0  0
  -21.2960   -4.6800   25.5700 F   0  0  0  0  0  0  0  0  0  0  0  0
  -24.1040  -14.3690   21.1660 C   0  0  0  0  0  0  0  0  0  0  0  0
  -23.3490  -13.7420   22.0620 N   0  0  0  0  0  0  0  0  0  0  0  0
  -23.7960  -15.4850   20.7480 O   0  0  0  0  0  0  0  0  0  0  0  0
  -23.6150  -12.8390   22.4260 H   0  0  0  0  0  0  0  0  0  0  0  0
  -22.4980  -14.1770   22.3890 H   0  0  0  0  0  0  0  0  0  0  0  0
  -26.9010  -15.6450   20.2170 N   0  0  0  0  0  0  0  0  0  0  0  0
  -26.2750  -16.4070   20.4510 H   0  0  0  0  0  0  0  0  0  0  0  0
  -27.7960  -15.9620   19.8690 H   0  0  0  0  0  0  0  0  0  0  0  0
  2  3  1  0
  2  1  1  0
  4  5  1  0
  4  3  1  0
  6 17  2  0
  7  5  1  0
  7 12  1  0
  8 16  1  0
  8 18  1  0
  9 15  1  0
  9 11  1  0
 10 16  1  0
 11 12  2  0
 11 10  1  0
 13  7  2  0
 14 13  1  0
 14  9  2  0
 15  8  1  0
 16  6  1  0
 18 20  2  0
 19 18  1  0
 21 19  1  0
 22 31  2  0
 22 27  1  0
 23 19  1  0
 23 27  1  0
 24 23  1  0
 25 26  1  0
 25 24  1  0
 26 22  1  0
 27 28  2  0
 28 29  1  0
 30 29  2  0
 31 30  1  0
 32  6  1  0
 32 37  1  0
 32 33  1  0
 33 36  1  1
 33 34  1  0
 35 33  1  0
 37 40  1  0
 38 42  1  0
 38 37  1  0
 39 38  2  0
 42 41  1  0
 44 45  1  0
 44 42  1  0
 44 43  1  0
 46  1  1  0
 47 46  1  0
 48 47  1  0
 49 48  1  0
 49 50  1  0
 50 51  1  0
 52 61  1  0
 52 51  1  0
 53 59  1  0
 53 61  1  0
 54 59  1  0
 55 56  1  0
 55 54  1  0
 57 56  1  0
 57 66  1  0
 57 58  1  0
 59 58  1  0
 60 53  2  0
 61 62  1  0
 63 64  2  0
 64 83  1  0
 65 64  1  0
 65 68  1  0
 66 67  1  0
 66 63  1  0
 67 65  2  0
 68 69  1  0
 69 70  2  0
 71 74  1  0
 71 70  1  0
 72 71  2  0
 73 72  1  0
 73 68  2  0
 74 75  1  0
 75 76  1  0
 76 77  2  0
 78 77  1  0
 78 82  1  0
 79 78  2  0
 80 75  2  0
 80 79  1  0
 81 80  1  0
 83 84  1  0
 84 87  1  0
 84 86  1  0
 85 83  2  0
 88 63  1  0
 88 89  1  0
 90 88  1  0
M  ISO  4   4 101   5 101  53 100  61 100
M  END
>  <TORSDO>  (76) 
F 26

>  <SCORE>  (76) 
-9.736

>  <name>  (76) 
80

>  <ligand_id>  (76) 
80

>  <original_smiles>  (76) 
[H]c1c([H])c([H])c2c(c1[H])C([H])([H])C([H])([H])C([H])([H])C2([H])N([H])C(=O)C1([H])N(C(=O)C([H])(N([H])C(=O)C([H])(N([H])C([H])([H])[H])C([H])([H])[H])C(C([H])([H])[H])(C([H])([H])[H])C([H])([H])[H])C([H])([H])c2c([H])c(OC([H])([H])C([H])([H])OC([H])([H])C([H])([H])OC([H])([H])C([H])([H])OC([H])([H])C([H])([H])N([H])C(=O)N3C([H])([H])C([H])([H])C([H])([H])C([H])(n4nc(-c5c([H])c([H])c(Oc6c([H])c([H])c(F)c([H])c6F)c([H])c5[H])c(C(=O)N([H])[H])c4N([H])[H])C3([H])[H])c([H])c([H])c2C1([H])[H]

>  <smiles>  (76) 
[H]c1c([H])c([H])c2c(c1[H])C([H])([H])C([H])([H])C([H])([H])C2([H])N([H])C(=O)C1([H])N(C(=O)C([H])(N([H])C(=O)C([H])(N([H])C([H])([H])[H])C([H])([H])[H])C(C([H])([H])[H])(C([H])([H])[H])C([H])([H])[H])C([H])([H])c2c([H])c(OC([H])([H])C([H])([H])OC([H])([H])C([H])([H])OC([H])([H])C([H])([H])OC([H])([H])C([H])([H])N([H])C(=O)N3C([H])([H])C([H])([H])C([H])([H])C([H])(n4nc(-c5c([H])c([H])c(Oc6c([H])c([H])c(F)c([H])c6F)c([H])c5[H])c(C(=O)N([H])[H])c4N([H])[H])C3([H])[H])c([H])c([H])c2C1([H])[H]

$$$$
81:0:0
     RDKit          3D

109116  0  0  1  0  0  0  0  0999 V2000
  -24.8980  -13.8090   18.9060 C   0  0  0  0  0  2  0  0  0  0  0  0
  -24.5830  -15.3040   18.6840 C   0  0  0  0  0  2  0  0  0  0  0  0
  -25.2460  -16.0880   19.6730 O   0  0  0  0  0  0  0  0  0  0  0  0
  -25.1580  -17.4990   19.4700 C   0  0  0  0  0  2  0  0  0  0  0  0
  -26.5210  -18.1440   19.7840 C   0  0  0  0  0  0  0  0  0  0  0  0
  -27.2190  -18.6460   18.7510 N   0  0  0  0  0  0  0  0  0  0  0  0
  -26.9540  -18.1420   20.9400 O   0  0  0  0  0  0  0  0  0  0  0  0
  -26.7820  -18.5730   17.8410 H   0  0  0  0  0  0  0  0  0  0  0  0
  -28.6430  -19.0020   18.7600 C   0  0  0  0  0  2  0  0  0  0  0  0
  -28.9770  -20.4430   19.2080 C   0  0  0  0  0  2  0  0  0  0  0  0
  -28.9780  -21.5280   18.1080 C   0  0  0  0  0  2  0  0  0  0  0  0
  -30.0500  -22.4690   18.3250 O   0  0  0  0  0  0  0  0  0  0  0  0
  -29.6020  -23.8180   18.4890 C   0  0  0  0  0  2  0  0  0  0  0  0
  -30.5670  -24.7480   19.2920 C   0  0  0  0  0  2  0  0  0  0  0  0
  -30.4930  -26.1740   19.0380 O   0  0  0  0  0  0  0  0  0  0  0  0
  -26.1500  -29.2720   23.8140 C   0  0  0  0  0  0  0  0  0  0  0  0
  -29.2810  -26.7800   19.2980 C   0  0  0  0  0  0  0  0  0  0  0  0
  -25.1380  -28.6260   21.6550 C   0  0  0  0  0  3  0  0  0  0  0  0
  -26.7680  -27.9730   19.8160 C   0  0  0  0  0  0  0  0  0  0  0  0
  -27.6280  -29.2100   21.8050 C   0  0  0  0  0  2  0  0  0  0  0  0
  -27.8620  -28.2640   20.6410 C   0  0  0  0  0  0  0  0  0  0  0  0
  -29.1270  -27.6790   20.3820 C   0  0  0  0  0  3  0  0  0  0  0  0
  -28.1720  -26.5380   18.4640 C   0  0  0  0  0  3  0  0  0  0  0  0
  -26.9190  -27.1100   18.7270 C   0  0  0  0  0  3  0  0  0  0  0  0
  -25.4490  -28.6340   20.1410 C   0  0  0  0  0  2  0  0  0  0  0  0
  -26.3200  -29.0300   22.4820 N   0  0  0  0  0  0  0  0  0  0  0  0
  -25.0300  -29.1980   24.3390 O   0  0  0  0  0  0  0  0  0  0  0  0
  -24.5710  -27.2390   22.0330 C   0  0  0  0  0  0  0  0  0  0  0  0
  -23.3300  -26.9640   21.6020 N   0  0  0  0  0  0  0  0  0  0  0  0
  -25.2480  -26.4290   22.6760 O   0  0  0  0  0  0  0  0  0  0  0  0
  -22.8420  -27.6790   21.0800 H   0  0  0  0  0  0  0  0  0  0  0  0
  -20.2760  -25.2000   20.8170 C   0  0  0  0  0  0  0  0  0  0  0  0
  -22.6060  -25.7110   21.8140 C   0  0  0  0  0  3  0  0  0  0  0  0
  -23.1350  -24.6000   20.8780 C   0  0  0  0  0  2  0  0  0  0  0  0
  -22.3510  -24.4900   19.5640 C   0  0  0  0  0  2  0  0  0  0  0  0
  -20.8740  -24.2050   19.8390 C   0  0  0  0  0  2  0  0  0  0  0  0
  -21.0890  -25.9180   21.7350 C   0  0  0  0  0  0  0  0  0  0  0  0
  -20.4810  -26.8590   22.5950 C   0  0  0  0  0  3  0  0  0  0  0  0
  -19.0910  -27.0760   22.5590 C   0  0  0  0  0  3  0  0  0  0  0  0
  -18.2910  -26.3520   21.6560 C   0  0  0  0  0  3  0  0  0  0  0  0
  -18.8840  -25.4160   20.7920 C   0  0  0  0  0  3  0  0  0  0  0  0
  -27.3480  -29.6680   24.7300 C   0  0  0  0  0  3  0  0  0  0  0  0
  -27.8430  -28.4880   25.6520 C   0  0  1  0  0  0  0  0  0  0  0  0
  -26.7100  -27.8220   26.4680 C   0  0  0  0  0  1  0  0  0  0  0  0
  -28.5310  -27.3880   24.8110 C   0  0  0  0  0  1  0  0  0  0  0  0
  -28.9090  -29.0150   26.6410 C   0  0  0  0  0  1  0  0  0  0  0  0
  -26.9140  -30.8160   25.5370 N   0  0  0  0  0  0  0  0  0  0  0  0
  -27.2600  -32.0870   25.3040 C   0  0  0  0  0  0  0  0  0  0  0  0
  -28.0440  -32.4150   24.4080 O   0  0  0  0  0  0  0  0  0  0  0  0
  -26.2230  -30.6280   26.2490 H   0  0  0  0  0  0  0  0  0  0  0  0
  -25.4770  -33.8570   25.4610 C   0  0  0  0  0  1  0  0  0  0  0  0
  -26.6340  -33.1700   26.2050 C   0  0  0  0  0  3  0  0  0  0  0  0
  -28.5910  -33.6580   27.6060 C   0  0  0  0  0  1  0  0  0  0  0  0
  -27.6080  -34.1860   26.6620 N   0  0  0  0  0  0  0  0  0  0  0  0
  -27.1350  -34.9730   27.0980 H   0  0  0  0  0  0  0  0  0  0  0  0
  -25.3850  -13.0920   17.6340 C   0  0  0  0  0  2  0  0  0  0  0  0
  -25.6410  -11.5730   17.7620 C   0  0  0  0  0  2  0  0  0  0  0  0
  -27.5880  -10.3200   18.7270 C   0  0  0  0  0  0  0  0  0  0  0  0
  -26.5450  -11.1640   18.8470 N   0  0  0  0  0  0  0  0  0  0  0  0
  -28.0770  -10.0340   17.6330 O   0  0  0  0  0  0  0  0  0  0  0  0
  -26.2600  -11.3910   19.7910 H   0  0  0  0  0  0  0  0  0  0  0  0
  -28.1250   -9.6380   20.0050 C   0  0  0  0  0  2  0  0  0  0  0  0
  -29.5740   -9.0740   19.9200 C   0  0  0  0  0  2  0  0  0  0  0  0
  -30.4990   -9.5680   21.0630 C   0  0  0  0  0  2  0  0  0  0  0  0
  -31.9480   -9.0390   20.9550 C   0  0  0  0  0  2  0  0  0  0  0  0
  -33.0530   -9.8300   21.7110 C   0  0  0  0  0  2  0  0  0  0  0  0
  -33.5550  -12.2720   21.2910 C   0  0  0  0  0  0  0  0  0  0  0  0
  -32.8220  -11.2760   21.8280 N   0  0  0  0  0  0  0  0  0  0  0  0
  -34.5010  -12.0730   20.5280 O   0  0  0  0  0  0  0  0  0  0  0  0
  -32.0460  -11.5460   22.4120 H   0  0  0  0  0  0  0  0  0  0  0  0
  -33.1740  -13.7250   21.6710 C   0  0  0  0  0  2  0  0  0  0  0  0
  -32.3730  -14.5010   19.3930 C   0  0  0  0  0  0  0  0  0  0  0  0
  -31.6560  -12.3270   18.6050 C   0  0  0  0  0  2  0  0  0  0  0  0
  -30.4610  -12.2370   17.6710 C   0  0  0  0  0  2  0  0  0  0  0  0
  -29.1540  -12.2040   18.4800 C   0  0  0  0  0  2  0  0  0  0  0  0
  -29.0510  -13.3240   19.5510 C   0  0  0  0  0  3  0  0  0  0  0  0
  -30.3400  -13.4180   20.3810 C   0  0  0  0  0  2  0  0  0  0  0  0
  -31.4900  -13.4910   19.4700 N   0  0  0  0  0  0  0  0  0  0  0  0
  -32.7780  -14.9960   18.3350 O   0  0  0  0  0  0  0  0  0  0  0  0
  -33.0730  -14.6630   20.5300 N   0  0  0  0  0  0  0  0  0  0  0  0
  -33.8070  -15.3520   20.4730 H   0  0  0  0  0  0  0  0  0  0  0  0
  -27.2730  -14.0210   21.2710 C   0  0  0  0  0  0  0  0  0  0  0  0
  -26.1590  -13.3920   21.7510 C   0  0  0  0  0  0  0  0  0  0  0  0
  -26.1400  -12.1000   21.1480 C   0  0  0  0  0  0  0  0  0  0  0  0
  -27.8800  -13.1270   20.4080 N   0  0  0  0  0  0  0  0  0  0  0  0
  -27.2130  -11.9450   20.3800 N   0  0  0  0  0  0  0  0  0  0  0  0
  -25.1390  -11.0280   21.2080 C   0  0  0  0  0  0  0  0  0  0  0  0
  -25.4020   -9.8120   21.8710 C   0  0  0  0  0  3  0  0  0  0  0  0
  -24.4170   -8.8030   21.9370 C   0  0  0  0  0  3  0  0  0  0  0  0
  -23.1510   -9.0030   21.3370 C   0  0  0  0  0  0  0  0  0  0  0  0
  -22.9010  -10.2090   20.6540 C   0  0  0  0  0  3  0  0  0  0  0  0
  -23.8830  -11.2110   20.5870 C   0  0  0  0  0  3  0  0  0  0  0  0
  -22.1430   -8.0710   21.3310 O   0  0  0  0  0  0  0  0  0  0  0  0
  -21.7230   -7.4580   22.4860 C   0  0  0  0  0  0  0  0  0  0  0  0
  -21.2400   -8.1990   23.5870 C   0  0  0  0  0  3  0  0  0  0  0  0
  -20.7490   -7.5260   24.7250 C   0  0  0  0  0  3  0  0  0  0  0  0
  -20.7320   -6.1200   24.7590 C   0  0  0  0  0  0  0  0  0  0  0  0
  -21.2070   -5.3800   23.6600 C   0  0  0  0  0  3  0  0  0  0  0  0
  -21.6990   -6.0500   22.5270 C   0  0  0  0  0  0  0  0  0  0  0  0
  -22.1350   -5.3330   21.4630 F   0  0  0  0  0  0  0  0  0  0  0  0
  -20.2550   -5.4730   25.8490 F   0  0  0  0  0  0  0  0  0  0  0  0
  -25.1180  -13.9820   22.6580 C   0  0  0  0  0  0  0  0  0  0  0  0
  -24.5210  -13.1600   23.5120 N   0  0  0  0  0  0  0  0  0  0  0  0
  -24.8620  -15.1850   22.6440 O   0  0  0  0  0  0  0  0  0  0  0  0
  -24.7430  -12.1740   23.5300 H   0  0  0  0  0  0  0  0  0  0  0  0
  -23.8280  -13.5130   24.1590 H   0  0  0  0  0  0  0  0  0  0  0  0
  -27.8100  -15.2880   21.4700 N   0  0  0  0  0  0  0  0  0  0  0  0
  -27.1880  -16.0200   21.7990 H   0  0  0  0  0  0  0  0  0  0  0  0
  -28.5530  -15.6450   20.8880 H   0  0  0  0  0  0  0  0  0  0  0  0
  2  1  1  0
  2  3  1  0
  4  3  1  0
  4  5  1  0
  5  7  2  0
  6  9  1  0
  6  5  1  0
  8  6  1  0
  9 10  1  0
 11 12  1  0
 11 10  1  0
 12 13  1  0
 13 14  1  0
 15 14  1  0
 15 17  1  0
 16 27  2  0
 17 22  1  0
 18 28  1  0
 18 26  1  0
 19 25  1  0
 19 21  1  0
 20 26  1  0
 21 20  1  0
 22 21  2  0
 23 24  1  0
 23 17  2  0
 24 19  2  0
 25 18  1  0
 26 16  1  0
 28 30  2  0
 29 28  1  0
 31 29  1  0
 32 37  1  0
 33 29  1  0
 34 33  1  0
 35 36  1  0
 35 34  1  0
 36 32  1  0
 37 33  1  0
 37 38  2  0
 39 38  1  0
 40 39  2  0
 41 32  2  0
 41 40  1  0
 42 16  1  0
 42 47  1  0
 42 43  1  0
 43 44  1  1
 43 46  1  0
 45 43  1  0
 47 50  1  0
 48 47  1  0
 48 52  1  0
 49 48  2  0
 52 51  1  0
 52 54  1  0
 54 55  1  0
 54 53  1  0
 56 57  1  0
 56  1  1  0
 57 59  1  0
 58 59  1  0
 58 62  1  0
 59 61  1  0
 60 58  2  0
 63 62  1  0
 63 64  1  0
 65 64  1  0
 65 66  1  0
 66 68  1  0
 67 71  1  0
 67 68  1  0
 68 70  1  0
 69 67  2  0
 72 78  1  0
 72 80  1  0
 73 78  1  0
 74 75  1  0
 74 73  1  0
 76 75  1  0
 76 77  1  0
 76 85  1  0
 78 77  1  0
 79 72  2  0
 80 71  1  0
 81 80  1  0
 82107  1  0
 82 83  2  0
 83102  1  0
 84 87  1  0
 84 83  1  0
 85 82  1  0
 86 85  1  0
 86 84  2  0
 87 88  1  0
 88 89  2  0
 90 89  1  0
 91 90  2  0
 92 91  1  0
 92 87  2  0
 93 90  1  0
 93 94  1  0
 94 99  2  0
 94 95  1  0
 95 96  2  0
 96 97  1  0
 97101  1  0
 98 97  2  0
 99 98  1  0
100 99  1  0
102103  1  0
103105  1  0
103106  1  0
104102  2  0
107108  1  0
109107  1  0
M  ISO  4  14 101  15 101  72 100  80 100
M  END
>  <TORSDO>  (77) 
F 36

>  <SCORE>  (77) 
8.319

>  <name>  (77) 
81

>  <ligand_id>  (77) 
81

>  <original_smiles>  (77) 
[H]c1c([H])c([H])c2c(c1[H])C([H])([H])C([H])([H])C([H])([H])C2([H])N([H])C(=O)C1([H])N(C(=O)C([H])(N([H])C(=O)C([H])(N([H])C([H])([H])[H])C([H])([H])[H])C(C([H])([H])[H])(C([H])([H])[H])C([H])([H])[H])C([H])([H])c2c([H])c(OC([H])([H])C([H])([H])OC([H])([H])C([H])([H])C([H])([H])N([H])C(=O)C([H])([H])OC([H])([H])C([H])([H])C([H])([H])C([H])([H])N([H])C(=O)C([H])([H])C([H])([H])C([H])([H])C([H])([H])C([H])([H])N([H])C(=O)C([H])([H])N([H])C(=O)N3C([H])([H])C([H])([H])C([H])([H])C([H])(n4nc(-c5c([H])c([H])c(Oc6c([H])c([H])c(F)c([H])c6F)c([H])c5[H])c(C(=O)N([H])[H])c4N([H])[H])C3([H])[H])c([H])c([H])c2C1([H])[H]

>  <smiles>  (77) 
[H]c1c([H])c([H])c2c(c1[H])C([H])([H])C([H])([H])C([H])([H])C2([H])N([H])C(=O)C1([H])N(C(=O)C([H])(N([H])C(=O)C([H])(N([H])C([H])([H])[H])C([H])([H])[H])C(C([H])([H])[H])(C([H])([H])[H])C([H])([H])[H])C([H])([H])c2c([H])c(OC([H])([H])C([H])([H])OC([H])([H])C([H])([H])C([H])([H])N([H])C(=O)C([H])([H])OC([H])([H])C([H])([H])C([H])([H])C([H])([H])N([H])C(=O)C([H])([H])C([H])([H])C([H])([H])C([H])([H])C([H])([H])N([H])C(=O)C([H])([H])N([H])C(=O)N3C([H])([H])C([H])([H])C([H])([H])C([H])(n4nc(-c5c([H])c([H])c(Oc6c([H])c([H])c(F)c([H])c6F)c([H])c5[H])c(C(=O)N([H])[H])c4N([H])[H])C3([H])[H])c([H])c([H])c2C1([H])[H]

$$$$
83:0:0
     RDKit          3D

113120  0  0  1  0  0  0  0  0999 V2000
  -27.2050  -17.7710   16.0080 C   0  0  0  0  0  2  0  0  0  0  0  0
  -27.9770  -18.8390   18.1280 C   0  0  0  0  0  0  0  0  0  0  0  0
  -27.0060  -18.4530   17.2910 N   0  0  0  0  0  0  0  0  0  0  0  0
  -29.1690  -18.7180   17.8470 O   0  0  0  0  0  0  0  0  0  0  0  0
  -26.0500  -18.5930   17.5940 H   0  0  0  0  0  0  0  0  0  0  0  0
  -27.5840  -19.4610   19.4710 C   0  0  0  0  0  2  0  0  0  0  0  0
  -28.6680  -19.2700   20.3760 O   0  0  0  0  0  0  0  0  0  0  0  0
  -29.1400  -20.4560   20.9910 C   0  0  0  0  0  2  0  0  0  0  0  0
  -30.4350  -20.1240   21.7500 C   0  0  0  0  0  2  0  0  0  0  0  0
  -31.3210  -19.0600   21.0780 C   0  0  0  0  0  2  0  0  0  0  0  0
  -31.7600  -19.5180   19.8030 O   0  0  0  0  0  0  0  0  0  0  0  0
  -32.8480  -18.7680   19.2630 C   0  0  0  0  0  2  0  0  0  0  0  0
  -32.3440  -17.6280   18.3660 C   0  0  0  0  0  2  0  0  0  0  0  0
  -31.9290  -16.5380   19.1770 O   0  0  0  0  0  0  0  0  0  0  0  0
  -31.7430  -15.3390   18.4370 C   0  0  0  0  0  2  0  0  0  0  0  0
  -31.0910  -14.2940   19.3460 C   0  0  0  0  0  2  0  0  0  0  0  0
  -31.8430  -14.0080   20.5220 O   0  0  0  0  0  0  0  0  0  0  0  0
  -33.0480  -13.3020   20.2470 C   0  0  0  0  0  2  0  0  0  0  0  0
  -33.6520  -12.7640   21.5490 C   0  0  0  0  0  2  0  0  0  0  0  0
  -33.0170  -10.4470   22.2440 C   0  0  0  0  0  0  0  0  0  0  0  0
  -32.0530   -8.2480   22.8180 C   0  0  0  0  0  2  0  0  0  0  0  0
  -31.3630   -7.6010   21.6010 C   0  0  0  0  0  2  0  0  0  0  0  0
  -29.9030   -8.0790   21.4820 C   0  0  0  0  0  2  0  0  0  0  0  0
  -29.7780   -9.6220   21.5670 C   0  0  0  0  0  3  0  0  0  0  0  0
  -30.5620  -10.1680   22.7800 C   0  0  0  0  0  2  0  0  0  0  0  0
  -31.9620   -9.7080   22.6790 N   0  0  0  0  0  0  0  0  0  0  0  0
  -34.1280   -9.9740   21.9930 O   0  0  0  0  0  0  0  0  0  0  0  0
  -32.7640  -11.7520   22.1150 N   0  0  0  0  0  0  0  0  0  0  0  0
  -31.8120  -12.0430   22.2780 H   0  0  0  0  0  0  0  0  0  0  0  0
  -27.8370  -11.3110   21.4280 C   0  0  0  0  0  0  0  0  0  0  0  0
  -26.4800  -11.1610   21.4910 C   0  0  0  0  0  0  0  0  0  0  0  0
  -26.2560   -9.7630   21.6860 C   0  0  0  0  0  0  0  0  0  0  0  0
  -28.3780  -10.0460   21.5980 N   0  0  0  0  0  0  0  0  0  0  0  0
  -27.4090   -9.1170   21.8000 N   0  0  0  0  0  0  0  0  0  0  0  0
  -25.0070   -8.9950   21.7070 C   0  0  0  0  0  0  0  0  0  0  0  0
  -24.7340   -8.0590   22.7280 C   0  0  0  0  0  3  0  0  0  0  0  0
  -23.5160   -7.3430   22.7340 C   0  0  0  0  0  3  0  0  0  0  0  0
  -22.5580   -7.5650   21.7160 C   0  0  0  0  0  0  0  0  0  0  0  0
  -22.8440   -8.4840   20.6910 C   0  0  0  0  0  3  0  0  0  0  0  0
  -24.0590   -9.1910   20.6820 C   0  0  0  0  0  3  0  0  0  0  0  0
  -21.3610   -6.8960   21.6280 O   0  0  0  0  0  0  0  0  0  0  0  0
  -20.7510   -6.3660   22.7380 C   0  0  0  0  0  0  0  0  0  0  0  0
  -20.4000   -7.1640   23.8480 C   0  0  0  0  0  3  0  0  0  0  0  0
  -19.7110   -6.5910   24.9360 C   0  0  0  0  0  3  0  0  0  0  0  0
  -19.3690   -5.2250   24.9130 C   0  0  0  0  0  0  0  0  0  0  0  0
  -19.7160   -4.4310   23.8060 C   0  0  0  0  0  3  0  0  0  0  0  0
  -20.4040   -5.0010   22.7210 C   0  0  0  0  0  0  0  0  0  0  0  0
  -20.7160   -4.2390   21.6460 F   0  0  0  0  0  0  0  0  0  0  0  0
  -18.7030   -4.6720   25.9530 F   0  0  0  0  0  0  0  0  0  0  0  0
  -25.4500  -12.2340   21.2820 C   0  0  0  0  0  0  0  0  0  0  0  0
  -24.2910  -12.1000   21.9170 N   0  0  0  0  0  0  0  0  0  0  0  0
  -25.6840  -13.2240   20.5920 O   0  0  0  0  0  0  0  0  0  0  0  0
  -24.1020  -11.3000   22.5010 H   0  0  0  0  0  0  0  0  0  0  0  0
  -23.5810  -12.8100   21.8140 H   0  0  0  0  0  0  0  0  0  0  0  0
  -28.6460  -12.4100   21.2130 N   0  0  0  0  0  0  0  0  0  0  0  0
  -28.2680  -13.3110   20.9430 H   0  0  0  0  0  0  0  0  0  0  0  0
  -29.6440  -12.3610   21.0550 H   0  0  0  0  0  0  0  0  0  0  0  0
  -28.3750  -18.3260   15.1610 C   0  0  0  0  0  2  0  0  0  0  0  0
  -28.4780  -19.8640   15.1210 C   0  0  0  0  0  2  0  0  0  0  0  0
  -29.9390  -20.3470   15.1140 C   0  0  0  0  0  2  0  0  0  0  0  0
  -30.0410  -21.8130   15.2740 N   0  0  0  0  0  4  0  0  0  0  0  0
  -29.3580  -22.1210   15.9500 H   0  0  0  0  0  0  0  0  0  0  0  0
  -29.8160  -22.2390   14.3890 H   0  0  0  0  0  0  0  0  0  0  0  0
  -31.3780  -22.2810   15.7040 C   0  0  0  0  0  2  0  0  0  0  0  0
  -31.5120  -23.8180   15.6450 C   0  0  0  0  0  2  0  0  0  0  0  0
  -32.8640  -24.3450   16.1640 C   0  0  0  0  0  2  0  0  0  0  0  0
  -32.6190  -25.7080   18.2410 C   0  0  0  0  0  0  0  0  0  0  0  0
  -32.8650  -24.5500   17.6130 N   0  0  0  0  0  0  0  0  0  0  0  0
  -32.3720  -26.7550   17.6380 O   0  0  0  0  0  0  0  0  0  0  0  0
  -33.1020  -23.7550   18.1930 H   0  0  0  0  0  0  0  0  0  0  0  0
  -32.6670  -25.6820   19.7730 C   0  0  0  0  0  2  0  0  0  0  0  0
  -31.5650  -26.5210   20.4440 C   0  0  0  0  0  2  0  0  0  0  0  0
  -30.4130  -25.7090   20.6570 O   0  0  0  0  0  0  0  0  0  0  0  0
  -27.6980  -30.8990   24.7580 C   0  0  0  0  0  0  0  0  0  0  0  0
  -29.3700  -26.2220   21.3940 C   0  0  0  0  0  0  0  0  0  0  0  0
  -26.4300  -28.7720   24.7030 C   0  0  0  0  0  3  0  0  0  0  0  0
  -27.1560  -27.1020   22.9170 C   0  0  0  0  0  0  0  0  0  0  0  0
  -27.8520  -29.4960   22.7090 C   0  0  0  0  0  2  0  0  0  0  0  0
  -28.0750  -28.0300   22.4150 C   0  0  0  0  0  0  0  0  0  0  0  0
  -29.1810  -27.6010   21.6550 C   0  0  0  0  0  3  0  0  0  0  0  0
  -28.4410  -25.2990   21.9140 C   0  0  0  0  0  3  0  0  0  0  0  0
  -27.3350  -25.7290   22.6730 C   0  0  0  0  0  3  0  0  0  0  0  0
  -25.9960  -27.6560   23.7130 C   0  0  0  0  0  2  0  0  0  0  0  0
  -27.3700  -29.7610   24.0820 N   0  0  0  0  0  0  0  0  0  0  0  0
  -27.1950  -31.1550   25.8600 O   0  0  0  0  0  0  0  0  0  0  0  0
  -26.9980  -28.1030   25.9740 C   0  0  0  0  0  0  0  0  0  0  0  0
  -26.2860  -28.2650   27.1010 N   0  0  0  0  0  0  0  0  0  0  0  0
  -28.0340  -27.4360   25.9290 O   0  0  0  0  0  0  0  0  0  0  0  0
  -25.4500  -28.8310   27.0560 H   0  0  0  0  0  0  0  0  0  0  0  0
  -25.7850  -28.6820   30.6520 C   0  0  0  0  0  0  0  0  0  0  0  0
  -26.6050  -27.6960   28.4090 C   0  0  0  0  0  3  0  0  0  0  0  0
  -25.6970  -26.4850   28.7250 C   0  0  0  0  0  2  0  0  0  0  0  0
  -24.4410  -26.8620   29.5160 C   0  0  0  0  0  2  0  0  0  0  0  0
  -24.8200  -27.5230   30.8450 C   0  0  0  0  0  2  0  0  0  0  0  0
  -26.6120  -28.7710   29.5020 C   0  0  0  0  0  0  0  0  0  0  0  0
  -27.4640  -29.8860   29.3540 C   0  0  0  0  0  3  0  0  0  0  0  0
  -27.5020  -30.8980   30.3320 C   0  0  0  0  0  3  0  0  0  0  0  0
  -26.6930  -30.7960   31.4780 C   0  0  0  0  0  3  0  0  0  0  0  0
  -25.8420  -29.6880   31.6390 C   0  0  0  0  0  3  0  0  0  0  0  0
  -28.6980  -31.9420   24.1670 C   0  0  0  0  0  3  0  0  0  0  0  0
  -28.2620  -33.2720   24.6130 N   0  0  0  0  0  0  0  0  0  0  0  0
  -27.5750  -34.1380   23.8550 C   0  0  0  0  0  0  0  0  0  0  0  0
  -27.3030  -33.9250   22.6700 O   0  0  0  0  0  0  0  0  0  0  0  0
  -28.4010  -33.4910   25.5880 H   0  0  0  0  0  0  0  0  0  0  0  0
  -25.6060  -35.3870   24.7960 C   0  0  0  0  0  1  0  0  0  0  0  0
  -27.1160  -35.4510   24.5190 C   0  0  0  0  0  3  0  0  0  0  0  0
  -28.8520  -36.9610   23.6610 C   0  0  0  0  0  1  0  0  0  0  0  0
  -27.4250  -36.6540   23.7170 N   0  0  0  0  0  0  0  0  0  0  0  0
  -26.9400  -37.4670   24.0860 H   0  0  0  0  0  0  0  0  0  0  0  0
  -30.1970  -31.6750   24.5850 C   0  0  1  0  0  0  0  0  0  0  0  0
  -30.3770  -31.3700   26.0900 C   0  0  0  0  0  1  0  0  0  0  0  0
  -30.7790  -30.4850   23.7880 C   0  0  0  0  0  1  0  0  0  0  0  0
  -31.0660  -32.9080   24.2390 C   0  0  0  0  0  1  0  0  0  0  0  0
  1  3  1  0
  2  6  1  0
  3  5  1  0
  3  2  1  0
  4  2  2  0
  6  7  1  0
  7  8  1  0
  8  9  1  0
 10  9  1  0
 11 10  1  0
 12 11  1  0
 13 14  1  0
 13 12  1  0
 15 14  1  0
 15 16  1  0
 16 17  1  0
 18 17  1  0
 18 19  1  0
 19 28  1  0
 20 26  1  0
 22 21  1  0
 23 22  1  0
 24 23  1  0
 24 33  1  0
 24 25  1  0
 26 25  1  0
 26 21  1  0
 27 20  2  0
 28 20  1  0
 28 29  1  0
 30 31  2  0
 30 33  1  0
 31 32  1  0
 32 35  1  0
 32 34  2  0
 33 34  1  0
 35 36  1  0
 36 37  2  0
 38 37  1  0
 39 38  2  0
 40 39  1  0
 40 35  2  0
 41 38  1  0
 41 42  1  0
 42 43  1  0
 43 44  2  0
 45 44  1  0
 45 49  1  0
 46 45  2  0
 47 42  2  0
 47 46  1  0
 48 47  1  0
 50 31  1  0
 50 51  1  0
 51 53  1  0
 52 50  2  0
 54 51  1  0
 55 30  1  0
 56 55  1  0
 57 55  1  0
 58  1  1  0
 59 58  1  0
 60 59  1  0
 60 61  1  0
 61 64  1  0
 61 62  1  0
 63 61  1  0
 65 64  1  0
 65 66  1  0
 66 68  1  0
 67 71  1  0
 68 70  1  0
 68 67  1  0
 69 67  2  0
 71 72  1  0
 72 73  1  0
 73 75  1  0
 74 85  2  0
 75 80  2  0
 75 81  1  0
 76 86  1  0
 77 83  1  0
 78 84  1  0
 79 78  1  0
 79 77  2  0
 80 79  1  0
 81 82  2  0
 82 77  1  0
 83 76  1  0
 84 76  1  0
 84 74  1  0
 86 87  1  0
 88 86  2  0
 89 87  1  0
 90 94  1  0
 90 99  1  0
 91 87  1  0
 91 92  1  0
 91 95  1  0
 92 93  1  0
 93 94  1  0
 95 90  2  0
 96 95  1  0
 96 97  2  0
 97 98  1  0
 98 99  2  0
100110  1  0
100101  1  0
100 74  1  0
101104  1  0
102106  1  0
102101  1  0
103102  2  0
106105  1  0
107108  1  0
108109  1  0
108106  1  0
110111  1  1
112110  1  0
113110  1  0
M  ISO  4  20 100  28 100  72 101  73 101
M  END
>  <TORSDO>  (78) 
F 41

>  <SCORE>  (78) 
-3.158

>  <name>  (78) 
83

>  <ligand_id>  (78) 
83

>  <original_smiles>  (78) 
[H]c1c([H])c([H])c2c(c1[H])C([H])([H])C([H])([H])C([H])([H])C2([H])N([H])C(=O)C1([H])N(C(=O)C([H])(N([H])C(=O)C([H])(N([H])C([H])([H])[H])C([H])([H])[H])C(C([H])([H])[H])(C([H])([H])[H])C([H])([H])[H])C([H])([H])c2c([H])c(OC([H])([H])C([H])([H])C(=O)N([H])C([H])([H])C([H])([H])C([H])([H])[N+]([H])([H])C([H])([H])C([H])([H])C([H])([H])C([H])([H])N([H])C(=O)C([H])([H])OC([H])([H])C([H])([H])C([H])([H])OC([H])([H])C([H])([H])OC([H])([H])C([H])([H])OC([H])([H])C([H])([H])N([H])C(=O)N3C([H])([H])C([H])([H])C([H])([H])C([H])(n4nc(-c5c([H])c([H])c(Oc6c([H])c([H])c(F)c([H])c6F)c([H])c5[H])c(C(=O)N([H])[H])c4N([H])[H])C3([H])[H])c([H])c([H])c2C1([H])[H]

>  <smiles>  (78) 
[H]c1c([H])c([H])c2c(c1[H])C([H])([H])C([H])([H])C([H])([H])C2([H])N([H])C(=O)C1([H])N(C(=O)C([H])(N([H])C(=O)C([H])(N([H])C([H])([H])[H])C([H])([H])[H])C(C([H])([H])[H])(C([H])([H])[H])C([H])([H])[H])C([H])([H])c2c([H])c(OC([H])([H])C([H])([H])C(=O)N([H])C([H])([H])C([H])([H])C([H])([H])[N+]([H])([H])C([H])([H])C([H])([H])C([H])([H])C([H])([H])N([H])C(=O)C([H])([H])OC([H])([H])C([H])([H])C([H])([H])OC([H])([H])C([H])([H])OC([H])([H])C([H])([H])OC([H])([H])C([H])([H])N([H])C(=O)N3C([H])([H])C([H])([H])C([H])([H])C([H])(n4nc(-c5c([H])c([H])c(Oc6c([H])c([H])c(F)c([H])c6F)c([H])c5[H])c(C(=O)N([H])[H])c4N([H])[H])C3([H])[H])c([H])c([H])c2C1([H])[H]

$$$$
84:0:0
     RDKit          3D

 94101  0  0  1  0  0  0  0  0999 V2000
  -32.9290  -22.9080   20.8360 C   0  0  0  0  0  2  0  0  0  0  0  0
  -32.3530  -21.7420   21.6490 C   0  0  0  0  0  0  0  0  0  0  0  0
  -31.1110  -21.3420   21.3440 N   0  0  0  0  0  0  0  0  0  0  0  0
  -33.0300  -21.2070   22.5310 O   0  0  0  0  0  0  0  0  0  0  0  0
  -30.6450  -21.8840   20.6270 H   0  0  0  0  0  0  0  0  0  0  0  0
  -30.3810  -20.2290   21.9480 C   0  0  0  0  0  2  0  0  0  0  0  0
  -30.9760  -18.8780   21.5210 C   0  0  0  0  0  2  0  0  0  0  0  0
  -30.2330  -17.6410   22.0640 C   0  0  0  0  0  2  0  0  0  0  0  0
  -30.9320  -16.3680   21.5310 C   0  0  0  0  0  2  0  0  0  0  0  0
  -30.6790  -14.2850   20.2120 C   0  0  0  0  0  0  0  0  0  0  0  0
  -30.2340  -12.2330   18.9310 C   0  0  0  0  0  2  0  0  0  0  0  0
  -29.2490  -12.5210   17.7830 C   0  0  0  0  0  2  0  0  0  0  0  0
  -27.7970  -12.3780   18.2790 C   0  0  0  0  0  2  0  0  0  0  0  0
  -27.5310  -13.1730   19.5870 C   0  0  0  0  0  3  0  0  0  0  0  0
  -28.6260  -12.8820   20.6380 C   0  0  0  0  0  2  0  0  0  0  0  0
  -29.9390  -13.1640   20.0300 N   0  0  0  0  0  0  0  0  0  0  0  0
  -31.6880  -14.5520   19.5510 O   0  0  0  0  0  0  0  0  0  0  0  0
  -30.2420  -15.1290   21.1620 N   0  0  0  0  0  0  0  0  0  0  0  0
  -29.4350  -14.8450   21.6970 H   0  0  0  0  0  0  0  0  0  0  0  0
  -25.1540  -13.7810   20.3770 C   0  0  0  0  0  0  0  0  0  0  0  0
  -24.1030  -13.0080   20.7910 C   0  0  0  0  0  0  0  0  0  0  0  0
  -24.5650  -11.6580   20.7480 C   0  0  0  0  0  0  0  0  0  0  0  0
  -26.1930  -12.9020   20.1130 N   0  0  0  0  0  0  0  0  0  0  0  0
  -25.8420  -11.6200   20.3910 N   0  0  0  0  0  0  0  0  0  0  0  0
  -23.8520  -10.3930   20.9700 C   0  0  0  0  0  0  0  0  0  0  0  0
  -24.3230   -9.4350   21.8950 C   0  0  0  0  0  3  0  0  0  0  0  0
  -23.6130   -8.2350   22.1050 C   0  0  0  0  0  3  0  0  0  0  0  0
  -22.4160   -7.9830   21.3920 C   0  0  0  0  0  0  0  0  0  0  0  0
  -21.9640   -8.9310   20.4560 C   0  0  0  0  0  3  0  0  0  0  0  0
  -22.6760  -10.1250   20.2430 C   0  0  0  0  0  3  0  0  0  0  0  0
  -21.6720   -6.8350   21.5120 O   0  0  0  0  0  0  0  0  0  0  0  0
  -21.6630   -6.1000   22.6710 C   0  0  0  0  0  0  0  0  0  0  0  0
  -21.2850   -6.6650   23.9080 C   0  0  0  0  0  3  0  0  0  0  0  0
  -21.2220   -5.8570   25.0620 C   0  0  0  0  0  3  0  0  0  0  0  0
  -21.5280   -4.4860   24.9780 C   0  0  0  0  0  0  0  0  0  0  0  0
  -21.8990   -3.9190   23.7460 C   0  0  0  0  0  3  0  0  0  0  0  0
  -21.9650   -4.7250   22.5950 C   0  0  0  0  0  0  0  0  0  0  0  0
  -22.3020   -4.1700   21.4050 F   0  0  0  0  0  0  0  0  0  0  0  0
  -21.4610   -3.7080   26.0840 F   0  0  0  0  0  0  0  0  0  0  0  0
  -22.7150  -13.4820   21.1160 C   0  0  0  0  0  0  0  0  0  0  0  0
  -22.0240  -12.7880   22.0130 N   0  0  0  0  0  0  0  0  0  0  0  0
  -22.2540  -14.5050   20.6100 O   0  0  0  0  0  0  0  0  0  0  0  0
  -22.4110  -11.9630   22.4490 H   0  0  0  0  0  0  0  0  0  0  0  0
  -21.0940  -13.0870   22.2670 H   0  0  0  0  0  0  0  0  0  0  0  0
  -25.3090  -15.1520   20.1860 N   0  0  0  0  0  0  0  0  0  0  0  0
  -24.5470  -15.8080   20.3160 H   0  0  0  0  0  0  0  0  0  0  0  0
  -26.1570  -15.5880   19.8430 H   0  0  0  0  0  0  0  0  0  0  0  0
  -31.8870  -23.6170   20.1630 O   0  0  0  0  0  0  0  0  0  0  0  0
  -31.9100  -23.4600   18.7490 C   0  0  0  0  0  2  0  0  0  0  0  0
  -30.8540  -24.3940   18.1460 C   0  0  0  0  0  2  0  0  0  0  0  0
  -29.5570  -23.8600   18.3880 O   0  0  0  0  0  0  0  0  0  0  0  0
  -28.5350  -24.8470   18.4920 C   0  0  0  0  0  2  0  0  0  0  0  0
  -28.4210  -25.3390   19.9510 C   0  0  0  0  0  2  0  0  0  0  0  0
  -28.4290  -26.7600   20.0780 O   0  0  0  0  0  0  0  0  0  0  0  0
  -24.6170  -31.8550   23.2440 C   0  0  0  0  0  0  0  0  0  0  0  0
  -27.2250  -27.4300   20.1070 C   0  0  0  0  0  0  0  0  0  0  0  0
  -23.3880  -30.4560   21.6120 C   0  0  0  0  0  3  0  0  0  0  0  0
  -24.8200  -28.9170   20.1710 C   0  0  0  0  0  0  0  0  0  0  0  0
  -25.9130  -30.8100   21.3900 C   0  0  0  0  0  2  0  0  0  0  0  0
  -25.9850  -29.4430   20.7440 C   0  0  0  0  0  0  0  0  0  0  0  0
  -27.1870  -28.7060   20.7070 C   0  0  0  0  0  3  0  0  0  0  0  0
  -26.0370  -26.9050   19.5440 C   0  0  0  0  0  3  0  0  0  0  0  0
  -24.8410  -27.6450   19.5730 C   0  0  0  0  0  3  0  0  0  0  0  0
  -23.5790  -29.7770   20.2310 C   0  0  0  0  0  2  0  0  0  0  0  0
  -24.6570  -31.0560   22.1400 N   0  0  0  0  0  0  0  0  0  0  0  0
  -23.5430  -32.1280   23.7960 O   0  0  0  0  0  0  0  0  0  0  0  0
  -22.7470  -29.4360   22.5780 C   0  0  0  0  0  0  0  0  0  0  0  0
  -21.4210  -29.2550   22.4570 N   0  0  0  0  0  0  0  0  0  0  0  0
  -23.4360  -28.8100   23.3870 O   0  0  0  0  0  0  0  0  0  0  0  0
  -20.9280  -29.8100   21.7730 H   0  0  0  0  0  0  0  0  0  0  0  0
  -18.0530  -28.0510   22.9600 C   0  0  0  0  0  0  0  0  0  0  0  0
  -20.6100  -28.3180   23.2320 C   0  0  0  0  0  3  0  0  0  0  0  0
  -20.7170  -26.8850   22.6620 C   0  0  0  0  0  2  0  0  0  0  0  0
  -19.6170  -26.5520   21.6490 C   0  0  0  0  0  2  0  0  0  0  0  0
  -18.2340  -26.6980   22.2930 C   0  0  0  0  0  2  0  0  0  0  0  0
  -19.1690  -28.8190   23.3860 C   0  0  0  0  0  0  0  0  0  0  0  0
  -18.9480  -30.0850   23.9680 C   0  0  0  0  0  3  0  0  0  0  0  0
  -17.6430  -30.5840   24.1310 C   0  0  0  0  0  3  0  0  0  0  0  0
  -16.5400  -29.8130   23.7230 C   0  0  0  0  0  3  0  0  0  0  0  0
  -16.7460  -28.5490   23.1430 C   0  0  0  0  0  3  0  0  0  0  0  0
  -25.9130  -32.4800   23.8500 C   0  0  0  0  0  3  0  0  0  0  0  0
  -26.4470  -31.7020   25.1140 C   0  0  1  0  0  0  0  0  0  0  0  0
  -25.3710  -31.4600   26.1980 C   0  0  0  0  0  1  0  0  0  0  0  0
  -27.0220  -30.3250   24.7060 C   0  0  0  0  0  1  0  0  0  0  0  0
  -27.6100  -32.4900   25.7610 C   0  0  0  0  0  1  0  0  0  0  0  0
  -25.6120  -33.8770   24.1870 N   0  0  0  0  0  0  0  0  0  0  0  0
  -25.9420  -34.9320   23.4290 C   0  0  0  0  0  0  0  0  0  0  0  0
  -26.6040  -34.8290   22.3910 O   0  0  0  0  0  0  0  0  0  0  0  0
  -25.0260  -34.0310   24.9940 H   0  0  0  0  0  0  0  0  0  0  0  0
  -24.2130  -36.7280   23.0910 C   0  0  0  0  0  1  0  0  0  0  0  0
  -25.4600  -36.3200   23.8920 C   0  0  0  0  0  3  0  0  0  0  0  0
  -27.6050  -37.1930   24.7080 C   0  0  0  0  0  1  0  0  0  0  0  0
  -26.4950  -37.3700   23.7750 N   0  0  0  0  0  0  0  0  0  0  0  0
  -26.0940  -38.2910   23.9320 H   0  0  0  0  0  0  0  0  0  0  0  0
  1  2  1  0
  2  4  2  0
  3  2  1  0
  3  6  1  0
  5  3  1  0
  7  6  1  0
  7  8  1  0
  9  8  1  0
 10 18  1  0
 11 16  1  0
 12 13  1  0
 12 11  1  0
 14 13  1  0
 14 23  1  0
 14 15  1  0
 16 10  1  0
 16 15  1  0
 17 10  2  0
 18  9  1  0
 18 19  1  0
 20 21  2  0
 21 40  1  0
 22 21  1  0
 22 25  1  0
 23 20  1  0
 23 24  1  0
 24 22  2  0
 25 26  1  0
 26 27  2  0
 28 31  1  0
 28 27  1  0
 29 28  2  0
 30 29  1  0
 30 25  2  0
 31 32  1  0
 32 33  1  0
 33 34  2  0
 35 34  1  0
 35 39  1  0
 36 35  2  0
 37 32  2  0
 37 36  1  0
 38 37  1  0
 40 41  1  0
 41 44  1  0
 41 43  1  0
 42 40  2  0
 45 46  1  0
 45 20  1  0
 47 45  1  0
 48  1  1  0
 49 48  1  0
 50 51  1  0
 50 49  1  0
 51 52  1  0
 52 53  1  0
 53 54  1  0
 54 56  1  0
 55 66  2  0
 56 61  1  0
 57 65  1  0
 57 67  1  0
 58 64  1  0
 58 60  1  0
 59 65  1  0
 60 59  1  0
 61 60  2  0
 62 63  1  0
 62 56  2  0
 63 58  2  0
 64 57  1  0
 65 55  1  0
 67 69  2  0
 68 67  1  0
 70 68  1  0
 71 80  2  0
 71 76  1  0
 72 68  1  0
 72 76  1  0
 73 72  1  0
 74 75  1  0
 74 73  1  0
 75 71  1  0
 76 77  2  0
 77 78  1  0
 79 78  2  0
 80 79  1  0
 81 55  1  0
 81 86  1  0
 81 82  1  0
 82 85  1  1
 82 83  1  0
 84 82  1  0
 86 89  1  0
 87 91  1  0
 87 86  1  0
 88 87  2  0
 91 90  1  0
 93 91  1  0
 93 94  1  0
 93 92  1  0
M  ISO  4  10 100  18 100  53 101  54 101
M  END
>  <TORSDO>  (79) 
F 27

>  <SCORE>  (79) 
-10.614

>  <name>  (79) 
84

>  <ligand_id>  (79) 
84

>  <original_smiles>  (79) 
[H]c1c([H])c([H])c2c(c1[H])C([H])([H])C([H])([H])C([H])([H])C2([H])N([H])C(=O)C1([H])N(C(=O)C([H])(N([H])C(=O)C([H])(N([H])C([H])([H])[H])C([H])([H])[H])C(C([H])([H])[H])(C([H])([H])[H])C([H])([H])[H])C([H])([H])c2c([H])c(OC([H])([H])C([H])([H])OC([H])([H])C([H])([H])OC([H])([H])C(=O)N([H])C([H])([H])C([H])([H])C([H])([H])C([H])([H])N([H])C(=O)N3C([H])([H])C([H])([H])C([H])([H])C([H])(n4nc(-c5c([H])c([H])c(Oc6c([H])c([H])c(F)c([H])c6F)c([H])c5[H])c(C(=O)N([H])[H])c4N([H])[H])C3([H])[H])c([H])c([H])c2C1([H])[H]

>  <smiles>  (79) 
[H]c1c([H])c([H])c2c(c1[H])C([H])([H])C([H])([H])C([H])([H])C2([H])N([H])C(=O)C1([H])N(C(=O)C([H])(N([H])C(=O)C([H])(N([H])C([H])([H])[H])C([H])([H])[H])C(C([H])([H])[H])(C([H])([H])[H])C([H])([H])[H])C([H])([H])c2c([H])c(OC([H])([H])C([H])([H])OC([H])([H])C([H])([H])OC([H])([H])C(=O)N([H])C([H])([H])C([H])([H])C([H])([H])C([H])([H])N([H])C(=O)N3C([H])([H])C([H])([H])C([H])([H])C([H])(n4nc(-c5c([H])c([H])c(Oc6c([H])c([H])c(F)c([H])c6F)c([H])c5[H])c(C(=O)N([H])[H])c4N([H])[H])C3([H])[H])c([H])c([H])c2C1([H])[H]

$$$$
85:0:0
     RDKit          3D

 91 98  0  0  1  0  0  0  0  0999 V2000
  -29.2910  -21.4940   22.5670 C   0  0  0  0  0  2  0  0  0  0  0  0
  -28.7860  -22.4740   21.6730 O   0  0  0  0  0  0  0  0  0  0  0  0
  -29.0650  -23.8040   22.0870 C   0  0  0  0  0  2  0  0  0  0  0  0
  -28.5990  -24.7610   20.9850 C   0  0  0  0  0  2  0  0  0  0  0  0
  -29.0460  -26.2100   21.2210 C   0  0  0  0  0  2  0  0  0  0  0  0
  -28.7330  -26.9830   20.0690 O   0  0  0  0  0  0  0  0  0  0  0  0
  -24.7740  -31.9310   23.3050 C   0  0  0  0  0  0  0  0  0  0  0  0
  -27.5430  -27.6540   20.1410 C   0  0  0  0  0  0  0  0  0  0  0  0
  -23.6020  -30.5210   21.6410 C   0  0  0  0  0  3  0  0  0  0  0  0
  -25.0980  -29.0500   20.1900 C   0  0  0  0  0  0  0  0  0  0  0  0
  -26.1110  -30.9670   21.4400 C   0  0  0  0  0  2  0  0  0  0  0  0
  -26.2360  -29.6090   20.7870 C   0  0  0  0  0  0  0  0  0  0  0  0
  -27.4620  -28.9140   20.7680 C   0  0  0  0  0  3  0  0  0  0  0  0
  -26.3970  -27.0970   19.5410 C   0  0  0  0  0  3  0  0  0  0  0  0
  -25.1700  -27.7880   19.5700 C   0  0  0  0  0  3  0  0  0  0  0  0
  -23.8270  -29.8670   20.2510 C   0  0  0  0  0  2  0  0  0  0  0  0
  -24.8470  -31.1530   22.1880 N   0  0  0  0  0  0  0  0  0  0  0  0
  -23.6880  -32.1630   23.8540 O   0  0  0  0  0  0  0  0  0  0  0  0
  -22.9860  -29.4660   22.5860 C   0  0  0  0  0  0  0  0  0  0  0  0
  -21.6740  -29.2260   22.4380 N   0  0  0  0  0  0  0  0  0  0  0  0
  -23.6860  -28.8650   23.4060 O   0  0  0  0  0  0  0  0  0  0  0  0
  -21.1690  -29.7660   21.7490 H   0  0  0  0  0  0  0  0  0  0  0  0
  -18.3530  -27.8680   22.8550 C   0  0  0  0  0  0  0  0  0  0  0  0
  -20.8870  -28.2490   23.1900 C   0  0  0  0  0  3  0  0  0  0  0  0
  -21.0740  -26.8260   22.6160 C   0  0  0  0  0  2  0  0  0  0  0  0
  -20.0140  -26.4520   21.5760 C   0  0  0  0  0  2  0  0  0  0  0  0
  -18.6110  -26.5290   22.1860 C   0  0  0  0  0  2  0  0  0  0  0  0
  -19.4220  -28.6840   23.3120 C   0  0  0  0  0  0  0  0  0  0  0  0
  -19.1300  -29.9350   23.8950 C   0  0  0  0  0  3  0  0  0  0  0  0
  -17.7990  -30.3740   24.0280 C   0  0  0  0  0  3  0  0  0  0  0  0
  -16.7430  -29.5570   23.5880 C   0  0  0  0  0  3  0  0  0  0  0  0
  -17.0210  -28.3070   23.0070 C   0  0  0  0  0  3  0  0  0  0  0  0
  -26.0450  -32.5860   23.9310 C   0  0  0  0  0  3  0  0  0  0  0  0
  -26.5750  -31.8210   25.2060 C   0  0  1  0  0  0  0  0  0  0  0  0
  -25.4770  -31.5310   26.2560 C   0  0  0  0  0  1  0  0  0  0  0  0
  -27.2160  -30.4720   24.8060 C   0  0  0  0  0  1  0  0  0  0  0  0
  -27.6850  -32.6530   25.8920 C   0  0  0  0  0  1  0  0  0  0  0  0
  -25.7100  -33.9770   24.2590 N   0  0  0  0  0  0  0  0  0  0  0  0
  -26.0150  -35.0330   23.4940 C   0  0  0  0  0  0  0  0  0  0  0  0
  -26.6830  -34.9400   22.4590 O   0  0  0  0  0  0  0  0  0  0  0  0
  -25.1150  -34.1220   25.0620 H   0  0  0  0  0  0  0  0  0  0  0  0
  -24.2400  -36.7790   23.1450 C   0  0  0  0  0  1  0  0  0  0  0  0
  -25.4990  -36.4120   23.9470 C   0  0  0  0  0  3  0  0  0  0  0  0
  -27.6190  -37.3510   24.7490 C   0  0  0  0  0  1  0  0  0  0  0  0
  -26.5040  -37.4890   23.8170 N   0  0  0  0  0  0  0  0  0  0  0  0
  -26.0780  -38.3990   23.9640 H   0  0  0  0  0  0  0  0  0  0  0  0
  -29.4240  -20.1680   21.8040 C   0  0  0  0  0  2  0  0  0  0  0  0
  -30.1770  -19.0930   22.6080 C   0  0  0  0  0  2  0  0  0  0  0  0
  -30.4330  -17.8740   21.8100 N   0  0  0  0  0  4  0  0  0  0  0  0
  -30.9840  -18.1320   21.0070 H   0  0  0  0  0  0  0  0  0  0  0  0
  -29.5630  -17.4900   21.4780 H   0  0  0  0  0  0  0  0  0  0  0  0
  -31.1750  -16.8270   22.5420 C   0  0  0  0  0  2  0  0  0  0  0  0
  -31.7800  -15.7780   21.5940 C   0  0  0  0  0  2  0  0  0  0  0  0
  -30.8940  -14.3180   19.7870 C   0  0  0  0  0  0  0  0  0  0  0  0
  -30.3490  -12.2510   18.5580 C   0  0  0  0  0  2  0  0  0  0  0  0
  -29.3080  -12.4510   17.4440 C   0  0  0  0  0  2  0  0  0  0  0  0
  -27.8820  -12.3330   18.0080 C   0  0  0  0  0  2  0  0  0  0  0  0
  -27.6680  -13.2190   19.2620 C   0  0  0  0  0  3  0  0  0  0  0  0
  -28.8020  -13.0080   20.2890 C   0  0  0  0  0  2  0  0  0  0  0  0
  -30.0970  -13.2330   19.6230 N   0  0  0  0  0  0  0  0  0  0  0  0
  -31.7800  -14.6430   18.9920 O   0  0  0  0  0  0  0  0  0  0  0  0
  -30.7690  -14.9150   20.9790 N   0  0  0  0  0  0  0  0  0  0  0  0
  -30.0560  -14.5310   21.5840 H   0  0  0  0  0  0  0  0  0  0  0  0
  -25.3650  -13.9020   20.1900 C   0  0  0  0  0  0  0  0  0  0  0  0
  -24.3070  -13.1610   20.6470 C   0  0  0  0  0  0  0  0  0  0  0  0
  -24.7150  -11.7960   20.5570 C   0  0  0  0  0  0  0  0  0  0  0  0
  -26.3520  -12.9880   19.8560 N   0  0  0  0  0  0  0  0  0  0  0  0
  -25.9680  -11.7150   20.1320 N   0  0  0  0  0  0  0  0  0  0  0  0
  -23.9640  -10.5560   20.7990 C   0  0  0  0  0  0  0  0  0  0  0  0
  -24.4060   -9.5940   21.7340 C   0  0  0  0  0  3  0  0  0  0  0  0
  -23.6590   -8.4190   21.9610 C   0  0  0  0  0  3  0  0  0  0  0  0
  -22.4540   -8.1970   21.2520 C   0  0  0  0  0  0  0  0  0  0  0  0
  -22.0300   -9.1460   20.3070 C   0  0  0  0  0  3  0  0  0  0  0  0
  -22.7780  -10.3140   20.0780 C   0  0  0  0  0  3  0  0  0  0  0  0
  -21.6760   -7.0730   21.3890 O   0  0  0  0  0  0  0  0  0  0  0  0
  -21.6030   -6.3870   22.5750 C   0  0  0  0  0  0  0  0  0  0  0  0
  -21.1820   -7.0080   23.7710 C   0  0  0  0  0  3  0  0  0  0  0  0
  -21.0560   -6.2490   24.9510 C   0  0  0  0  0  3  0  0  0  0  0  0
  -21.3390   -4.8710   24.9370 C   0  0  0  0  0  0  0  0  0  0  0  0
  -21.7540   -4.2490   23.7460 C   0  0  0  0  0  3  0  0  0  0  0  0
  -21.8820   -5.0060   22.5670 C   0  0  0  0  0  0  0  0  0  0  0  0
  -22.2610   -4.3970   21.4170 F   0  0  0  0  0  0  0  0  0  0  0  0
  -21.2110   -4.1390   26.0690 F   0  0  0  0  0  0  0  0  0  0  0  0
  -22.9570  -13.6820   21.0510 C   0  0  0  0  0  0  0  0  0  0  0  0
  -22.2980  -13.0120   21.9910 N   0  0  0  0  0  0  0  0  0  0  0  0
  -22.5000  -14.7170   20.5690 O   0  0  0  0  0  0  0  0  0  0  0  0
  -22.6830  -12.1730   22.4020 H   0  0  0  0  0  0  0  0  0  0  0  0
  -21.3970  -13.3420   22.3040 H   0  0  0  0  0  0  0  0  0  0  0  0
  -25.5610  -15.2690   20.0140 N   0  0  0  0  0  0  0  0  0  0  0  0
  -24.8300  -15.9480   20.1930 H   0  0  0  0  0  0  0  0  0  0  0  0
  -26.3910  -15.6770   19.6030 H   0  0  0  0  0  0  0  0  0  0  0  0
  2  3  1  0
  2  1  1  0
  4  5  1  0
  4  3  1  0
  6  8  1  0
  6  5  1  0
  7 18  2  0
  8 13  1  0
  9 17  1  0
  9 19  1  0
 10 16  1  0
 10 12  1  0
 11 17  1  0
 12 11  1  0
 13 12  2  0
 14 15  1  0
 14  8  2  0
 15 10  2  0
 16  9  1  0
 17  7  1  0
 19 21  2  0
 20 19  1  0
 22 20  1  0
 23 32  2  0
 23 28  1  0
 24 20  1  0
 24 28  1  0
 25 24  1  0
 26 27  1  0
 26 25  1  0
 27 23  1  0
 28 29  2  0
 29 30  1  0
 31 30  2  0
 32 31  1  0
 33  7  1  0
 33 38  1  0
 33 34  1  0
 34 37  1  1
 34 35  1  0
 36 34  1  0
 38 41  1  0
 39 43  1  0
 39 38  1  0
 40 39  2  0
 43 42  1  0
 45 43  1  0
 45 46  1  0
 45 44  1  0
 47  1  1  0
 47 48  1  0
 49 52  1  0
 49 48  1  0
 50 49  1  0
 51 49  1  0
 53 52  1  0
 54 62  1  0
 55 60  1  0
 56 57  1  0
 56 55  1  0
 58 57  1  0
 58 67  1  0
 58 59  1  0
 60 54  1  0
 60 59  1  0
 61 54  2  0
 62 63  1  0
 62 53  1  0
 64 65  2  0
 65 84  1  0
 66 65  1  0
 66 69  1  0
 67 68  1  0
 67 64  1  0
 68 66  2  0
 69 70  1  0
 70 71  2  0
 72 75  1  0
 72 71  1  0
 73 72  2  0
 74 73  1  0
 74 69  2  0
 75 76  1  0
 76 77  1  0
 77 78  2  0
 79 78  1  0
 79 83  1  0
 80 79  2  0
 81 76  2  0
 81 80  1  0
 82 81  1  0
 84 85  1  0
 85 88  1  0
 85 87  1  0
 86 84  2  0
 89 64  1  0
 89 90  1  0
 91 89  1  0
M  ISO  4   5 101   6 101  54 100  62 100
M  END
>  <TORSDO>  (80) 
F 25

>  <SCORE>  (80) 
-9.762

>  <name>  (80) 
85

>  <ligand_id>  (80) 
85

>  <original_smiles>  (80) 
[H]c1c([H])c([H])c2c(c1[H])C([H])([H])C([H])([H])C([H])([H])C2([H])N([H])C(=O)C1([H])N(C(=O)C([H])(N([H])C(=O)C([H])(N([H])C([H])([H])[H])C([H])([H])[H])C(C([H])([H])[H])(C([H])([H])[H])C([H])([H])[H])C([H])([H])c2c([H])c(OC([H])([H])C([H])([H])C([H])([H])OC([H])([H])C([H])([H])C([H])([H])[N+]([H])([H])C([H])([H])C([H])([H])N([H])C(=O)N3C([H])([H])C([H])([H])C([H])([H])C([H])(n4nc(-c5c([H])c([H])c(Oc6c([H])c([H])c(F)c([H])c6F)c([H])c5[H])c(C(=O)N([H])[H])c4N([H])[H])C3([H])[H])c([H])c([H])c2C1([H])[H]

>  <smiles>  (80) 
[H]c1c([H])c([H])c2c(c1[H])C([H])([H])C([H])([H])C([H])([H])C2([H])N([H])C(=O)C1([H])N(C(=O)C([H])(N([H])C(=O)C([H])(N([H])C([H])([H])[H])C([H])([H])[H])C(C([H])([H])[H])(C([H])([H])[H])C([H])([H])[H])C([H])([H])c2c([H])c(OC([H])([H])C([H])([H])C([H])([H])OC([H])([H])C([H])([H])C([H])([H])[N+]([H])([H])C([H])([H])C([H])([H])N([H])C(=O)N3C([H])([H])C([H])([H])C([H])([H])C([H])(n4nc(-c5c([H])c([H])c(Oc6c([H])c([H])c(F)c([H])c6F)c([H])c5[H])c(C(=O)N([H])[H])c4N([H])[H])C3([H])[H])c([H])c([H])c2C1([H])[H]

$$$$
86:0:0
     RDKit          3D

110117  0  0  1  0  0  0  0  0999 V2000
  -29.5330  -26.8690   24.1770 C   0  0  0  0  0  2  0  0  0  0  0  0
  -30.8910  -26.9190   23.7670 O   0  0  0  0  0  0  0  0  0  0  0  0
  -31.3350  -28.2380   23.4820 C   0  0  0  0  0  2  0  0  0  0  0  0
  -32.7890  -28.1780   22.9980 C   0  0  0  0  0  2  0  0  0  0  0  0
  -32.8020  -27.4850   21.7590 O   0  0  0  0  0  0  0  0  0  0  0  0
  -34.0290  -27.5910   21.0530 C   0  0  0  0  0  2  0  0  0  0  0  0
  -34.0080  -26.5460   19.9330 C   0  0  0  0  0  2  0  0  0  0  0  0
  -32.9000  -26.8220   19.0860 O   0  0  0  0  0  0  0  0  0  0  0  0
  -32.7250  -25.8440   18.0670 C   0  0  0  0  0  2  0  0  0  0  0  0
  -31.4020  -26.0990   17.3380 C   0  0  0  0  0  0  0  0  0  0  0  0
  -30.5880  -27.0160   17.8740 N   0  0  0  0  0  0  0  0  0  0  0  0
  -31.1130  -25.4630   16.3240 O   0  0  0  0  0  0  0  0  0  0  0  0
  -30.9350  -27.4810   18.7060 H   0  0  0  0  0  0  0  0  0  0  0  0
  -29.2610  -27.3680   17.3810 C   0  0  0  0  0  2  0  0  0  0  0  0
  -28.1820  -26.4180   17.9250 C   0  0  0  0  0  2  0  0  0  0  0  0
  -27.9230  -26.7180   19.3000 O   0  0  0  0  0  0  0  0  0  0  0  0
  -24.5710  -31.6940   23.1470 C   0  0  0  0  0  0  0  0  0  0  0  0
  -26.7760  -27.4410   19.5190 C   0  0  0  0  0  0  0  0  0  0  0  0
  -23.1780  -30.4730   21.5060 C   0  0  0  0  0  3  0  0  0  0  0  0
  -24.4470  -28.9930   19.8670 C   0  0  0  0  0  0  0  0  0  0  0  0
  -25.6920  -30.7520   21.1330 C   0  0  0  0  0  2  0  0  0  0  0  0
  -25.6670  -29.4310   20.3970 C   0  0  0  0  0  0  0  0  0  0  0  0
  -26.8340  -28.6530   20.2370 C   0  0  0  0  0  3  0  0  0  0  0  0
  -25.5330  -26.9930   19.0190 C   0  0  0  0  0  3  0  0  0  0  0  0
  -24.3700  -27.7650   19.1860 C   0  0  0  0  0  3  0  0  0  0  0  0
  -23.2490  -29.8920   20.0700 C   0  0  0  0  0  2  0  0  0  0  0  0
  -24.5030  -30.9820   21.9870 N   0  0  0  0  0  0  0  0  0  0  0  0
  -23.5490  -31.9650   23.7920 O   0  0  0  0  0  0  0  0  0  0  0  0
  -22.5590  -29.4060   22.4360 C   0  0  0  0  0  0  0  0  0  0  0  0
  -21.2290  -29.2420   22.3560 N   0  0  0  0  0  0  0  0  0  0  0  0
  -23.2710  -28.7290   23.1840 O   0  0  0  0  0  0  0  0  0  0  0  0
  -20.7150  -29.8420   21.7260 H   0  0  0  0  0  0  0  0  0  0  0  0
  -17.8800  -27.9870   22.8580 C   0  0  0  0  0  0  0  0  0  0  0  0
  -20.4360  -28.2720   23.1100 C   0  0  0  0  0  3  0  0  0  0  0  0
  -20.5520  -26.8600   22.4910 C   0  0  0  0  0  2  0  0  0  0  0  0
  -19.4430  -26.5500   21.4810 C   0  0  0  0  0  2  0  0  0  0  0  0
  -18.0670  -26.6590   22.1440 C   0  0  0  0  0  2  0  0  0  0  0  0
  -18.9930  -28.7510   23.2970 C   0  0  0  0  0  0  0  0  0  0  0  0
  -18.7650  -29.9950   23.9260 C   0  0  0  0  0  3  0  0  0  0  0  0
  -17.4570  -30.4750   24.1180 C   0  0  0  0  0  3  0  0  0  0  0  0
  -16.3580  -29.7080   23.6950 C   0  0  0  0  0  3  0  0  0  0  0  0
  -16.5700  -28.4660   23.0710 C   0  0  0  0  0  3  0  0  0  0  0  0
  -25.9300  -32.2230   23.7040 C   0  0  0  0  0  3  0  0  0  0  0  0
  -26.4830  -31.3680   24.9100 C   0  0  1  0  0  0  0  0  0  0  0  0
  -25.4490  -31.1450   26.0380 C   0  0  0  0  0  1  0  0  0  0  0  0
  -26.9570  -29.9780   24.4200 C   0  0  0  0  0  1  0  0  0  0  0  0
  -27.7170  -32.0670   25.5250 C   0  0  0  0  0  1  0  0  0  0  0  0
  -25.7280  -33.6200   24.1050 N   0  0  0  0  0  0  0  0  0  0  0  0
  -26.0950  -34.6820   23.3740 C   0  0  0  0  0  0  0  0  0  0  0  0
  -26.7110  -34.5820   22.3100 O   0  0  0  0  0  0  0  0  0  0  0  0
  -25.1840  -33.7780   24.9410 H   0  0  0  0  0  0  0  0  0  0  0  0
  -24.4690  -36.5890   23.1720 C   0  0  0  0  0  1  0  0  0  0  0  0
  -25.7170  -36.0760   23.9090 C   0  0  0  0  0  3  0  0  0  0  0  0
  -27.9420  -36.7850   24.6660 C   0  0  0  0  0  1  0  0  0  0  0  0
  -26.8070  -37.0680   23.7920 N   0  0  0  0  0  0  0  0  0  0  0  0
  -26.4680  -38.0030   24.0060 H   0  0  0  0  0  0  0  0  0  0  0  0
  -29.0800  -25.4040   24.2530 C   0  0  0  0  0  2  0  0  0  0  0  0
  -29.7590  -23.9050   22.3750 C   0  0  0  0  0  0  0  0  0  0  0  0
  -28.9450  -24.8180   22.9210 N   0  0  0  0  0  0  0  0  0  0  0  0
  -30.7370  -23.4410   22.9660 O   0  0  0  0  0  0  0  0  0  0  0  0
  -28.1760  -25.1500   22.3540 H   0  0  0  0  0  0  0  0  0  0  0  0
  -29.4030  -23.4510   20.9510 C   0  0  0  0  0  2  0  0  0  0  0  0
  -30.0630  -21.0540   20.7450 C   0  0  0  0  0  0  0  0  0  0  0  0
  -30.2310  -22.3500   20.4600 N   0  0  0  0  0  0  0  0  0  0  0  0
  -29.1490  -20.6490   21.4700 O   0  0  0  0  0  0  0  0  0  0  0  0
  -31.0220  -22.6000   19.8850 H   0  0  0  0  0  0  0  0  0  0  0  0
  -31.0650  -20.0830   20.1050 C   0  0  0  0  0  2  0  0  0  0  0  0
  -30.5180  -17.7200   20.6870 C   0  0  0  0  0  0  0  0  0  0  0  0
  -31.2230  -18.8410   20.8600 N   0  0  0  0  0  0  0  0  0  0  0  0
  -29.6220  -17.6140   19.8460 O   0  0  0  0  0  0  0  0  0  0  0  0
  -31.9120  -18.8500   21.5990 H   0  0  0  0  0  0  0  0  0  0  0  0
  -30.8840  -16.5480   21.6070 C   0  0  0  0  0  2  0  0  0  0  0  0
  -30.6990  -14.5090   20.1810 C   0  0  0  0  0  0  0  0  0  0  0  0
  -30.2970  -12.4180   18.9320 C   0  0  0  0  0  2  0  0  0  0  0  0
  -29.2920  -12.6270   17.7840 C   0  0  0  0  0  2  0  0  0  0  0  0
  -27.8440  -12.4790   18.2870 C   0  0  0  0  0  2  0  0  0  0  0  0
  -27.5700  -13.3200   19.5610 C   0  0  0  0  0  3  0  0  0  0  0  0
  -28.6690  -13.0760   20.6180 C   0  0  0  0  0  2  0  0  0  0  0  0
  -29.9780  -13.3730   20.0040 N   0  0  0  0  0  0  0  0  0  0  0  0
  -31.6870  -14.8050   19.5020 O   0  0  0  0  0  0  0  0  0  0  0  0
  -30.2870  -15.2790   21.1950 N   0  0  0  0  0  0  0  0  0  0  0  0
  -29.4680  -14.9710   21.6970 H   0  0  0  0  0  0  0  0  0  0  0  0
  -25.2070  -13.9350   20.3840 C   0  0  0  0  0  0  0  0  0  0  0  0
  -24.1540  -13.1660   20.8010 C   0  0  0  0  0  0  0  0  0  0  0  0
  -24.6090  -11.8120   20.7420 C   0  0  0  0  0  0  0  0  0  0  0  0
  -26.2370  -13.0510   20.1000 N   0  0  0  0  0  0  0  0  0  0  0  0
  -25.8810  -11.7690   20.3700 N   0  0  0  0  0  0  0  0  0  0  0  0
  -23.8880  -10.5510   20.9620 C   0  0  0  0  0  0  0  0  0  0  0  0
  -24.3620   -9.5810   21.8730 C   0  0  0  0  0  3  0  0  0  0  0  0
  -23.6420   -8.3840   22.0800 C   0  0  0  0  0  3  0  0  0  0  0  0
  -22.4360   -8.1500   21.3780 C   0  0  0  0  0  0  0  0  0  0  0  0
  -21.9820   -9.1090   20.4570 C   0  0  0  0  0  3  0  0  0  0  0  0
  -22.7010  -10.2970   20.2460 C   0  0  0  0  0  3  0  0  0  0  0  0
  -21.6850   -7.0060   21.4960 O   0  0  0  0  0  0  0  0  0  0  0  0
  -21.6790   -6.2640   22.6510 C   0  0  0  0  0  0  0  0  0  0  0  0
  -21.3200   -6.8270   23.8950 C   0  0  0  0  0  3  0  0  0  0  0  0
  -21.2600   -6.0130   25.0450 C   0  0  0  0  0  3  0  0  0  0  0  0
  -21.5480   -4.6380   24.9510 C   0  0  0  0  0  0  0  0  0  0  0  0
  -21.9000   -4.0760   23.7110 C   0  0  0  0  0  3  0  0  0  0  0  0
  -21.9620   -4.8860   22.5640 C   0  0  0  0  0  0  0  0  0  0  0  0
  -22.2800   -4.3360   21.3680 F   0  0  0  0  0  0  0  0  0  0  0  0
  -21.4830   -3.8550   26.0520 F   0  0  0  0  0  0  0  0  0  0  0  0
  -22.7740  -13.6460   21.1450 C   0  0  0  0  0  0  0  0  0  0  0  0
  -22.0950  -12.9580   22.0560 N   0  0  0  0  0  0  0  0  0  0  0  0
  -22.3070  -14.6670   20.6420 O   0  0  0  0  0  0  0  0  0  0  0  0
  -22.4850  -12.1310   22.4850 H   0  0  0  0  0  0  0  0  0  0  0  0
  -21.1720  -13.2610   22.3300 H   0  0  0  0  0  0  0  0  0  0  0  0
  -25.3690  -15.3060   20.2040 N   0  0  0  0  0  0  0  0  0  0  0  0
  -24.6170  -15.9680   20.3570 H   0  0  0  0  0  0  0  0  0  0  0  0
  -26.2160  -15.7420   19.8580 H   0  0  0  0  0  0  0  0  0  0  0  0
  1 57  1  0
  2  1  1  0
  3  2  1  0
  4  3  1  0
  5  4  1  0
  6  5  1  0
  7  6  1  0
  8  7  1  0
  9  8  1  0
 10 11  1  0
 10  9  1  0
 11 13  1  0
 12 10  2  0
 14 11  1  0
 14 15  1  0
 15 16  1  0
 16 18  1  0
 17 28  2  0
 18 23  1  0
 19 27  1  0
 19 29  1  0
 20 26  1  0
 20 22  1  0
 21 27  1  0
 22 21  1  0
 23 22  2  0
 24 25  1  0
 24 18  2  0
 25 20  2  0
 26 19  1  0
 27 17  1  0
 29 31  2  0
 30 29  1  0
 32 30  1  0
 33 42  2  0
 33 38  1  0
 34 30  1  0
 34 38  1  0
 35 34  1  0
 36 37  1  0
 36 35  1  0
 37 33  1  0
 38 39  2  0
 39 40  1  0
 41 40  2  0
 42 41  1  0
 43 17  1  0
 43 48  1  0
 43 44  1  0
 44 47  1  1
 44 45  1  0
 46 44  1  0
 48 51  1  0
 49 53  1  0
 49 48  1  0
 50 49  2  0
 53 52  1  0
 55 53  1  0
 55 56  1  0
 55 54  1  0
 58 59  1  0
 58 60  2  0
 59 57  1  0
 61 59  1  0
 62 58  1  0
 63 65  2  0
 64 63  1  0
 64 62  1  0
 66 64  1  0
 67 63  1  0
 67 69  1  0
 68 69  1  0
 68 72  1  0
 69 71  1  0
 70 68  2  0
 73 81  1  0
 74 79  1  0
 75 76  1  0
 75 74  1  0
 77 76  1  0
 77 86  1  0
 77 78  1  0
 79 73  1  0
 79 78  1  0
 80 73  2  0
 81 72  1  0
 81 82  1  0
 83 84  2  0
 84103  1  0
 85 84  1  0
 85 88  1  0
 86 87  1  0
 86 83  1  0
 87 85  2  0
 88 89  1  0
 89 90  2  0
 91 94  1  0
 91 90  1  0
 92 91  2  0
 93 92  1  0
 93 88  2  0
 94 95  1  0
 95 96  1  0
 96 97  2  0
 98 97  1  0
 98102  1  0
 99 98  2  0
100 95  2  0
100 99  1  0
101100  1  0
103104  1  0
104107  1  0
104106  1  0
105103  2  0
108109  1  0
108 83  1  0
110108  1  0
M  ISO  4  15 101  16 101  73 100  81 100
M  END
>  <TORSDO>  (81) 
F 34

>  <SCORE>  (81) 
-9.571

>  <name>  (81) 
86

>  <ligand_id>  (81) 
86

>  <original_smiles>  (81) 
[H]c1c([H])c([H])c2c(c1[H])C([H])([H])C([H])([H])C([H])([H])C2([H])N([H])C(=O)C1([H])N(C(=O)C([H])(N([H])C(=O)C([H])(N([H])C([H])([H])[H])C([H])([H])[H])C(C([H])([H])[H])(C([H])([H])[H])C([H])([H])[H])C([H])([H])c2c([H])c(OC([H])([H])C([H])([H])N([H])C(=O)C([H])([H])OC([H])([H])C([H])([H])OC([H])([H])C([H])([H])OC([H])([H])C([H])([H])N([H])C(=O)C([H])([H])N([H])C(=O)C([H])([H])N([H])C(=O)C([H])([H])N([H])C(=O)N3C([H])([H])C([H])([H])C([H])([H])C([H])(n4nc(-c5c([H])c([H])c(Oc6c([H])c([H])c(F)c([H])c6F)c([H])c5[H])c(C(=O)N([H])[H])c4N([H])[H])C3([H])[H])c([H])c([H])c2C1([H])[H]

>  <smiles>  (81) 
[H]c1c([H])c([H])c2c(c1[H])C([H])([H])C([H])([H])C([H])([H])C2([H])N([H])C(=O)C1([H])N(C(=O)C([H])(N([H])C(=O)C([H])(N([H])C([H])([H])[H])C([H])([H])[H])C(C([H])([H])[H])(C([H])([H])[H])C([H])([H])[H])C([H])([H])c2c([H])c(OC([H])([H])C([H])([H])N([H])C(=O)C([H])([H])OC([H])([H])C([H])([H])OC([H])([H])C([H])([H])OC([H])([H])C([H])([H])N([H])C(=O)C([H])([H])N([H])C(=O)C([H])([H])N([H])C(=O)C([H])([H])N([H])C(=O)N3C([H])([H])C([H])([H])C([H])([H])C([H])(n4nc(-c5c([H])c([H])c(Oc6c([H])c([H])c(F)c([H])c6F)c([H])c5[H])c(C(=O)N([H])[H])c4N([H])[H])C3([H])[H])c([H])c([H])c2C1([H])[H]

$$$$
88:0:0
     RDKit          3D

113117  0  0  1  0  0  0  0  0999 V2000
  -19.5230  -13.5280   23.6740 C   0  0  0  0  0  0  0  0  0  0  0  0
  -19.9060  -14.7650   24.0270 N   0  0  0  0  0  0  0  0  0  0  0  0
  -19.9640  -12.5160   24.2210 O   0  0  0  0  0  0  0  0  0  0  0  0
  -19.5180  -15.5420   23.5110 H   0  0  0  0  0  0  0  0  0  0  0  0
  -20.8210  -15.1160   25.1220 C   0  0  0  0  0  2  0  0  0  0  0  0
  -22.2180  -15.5670   24.6520 C   0  0  0  0  0  0  0  0  0  0  0  0
  -22.6220  -16.8030   24.9910 N   0  0  0  0  0  0  0  0  0  0  0  0
  -22.9560  -14.7810   24.0610 O   0  0  0  0  0  0  0  0  0  0  0  0
  -21.9730  -17.3710   25.5220 H   0  0  0  0  0  0  0  0  0  0  0  0
  -23.9760  -17.3470   24.8220 C   0  0  0  0  0  2  0  0  0  0  0  0
  -24.1780  -18.1950   23.5430 C   0  0  0  0  0  2  0  0  0  0  0  0
  -23.5750  -19.6160   23.5890 C   0  0  0  0  0  2  0  0  0  0  0  0
  -24.1170  -20.5330   22.4630 C   0  0  0  0  0  2  0  0  0  0  0  0
  -23.4960  -21.9450   22.4740 C   0  0  0  0  0  2  0  0  0  0  0  0
  -23.9800  -22.8910   21.3460 C   0  0  0  0  0  2  0  0  0  0  0  0
  -25.0460  -23.9530   21.7290 C   0  0  0  0  0  2  0  0  0  0  0  0
  -26.5120  -23.5400   21.4650 C   0  0  0  0  0  2  0  0  0  0  0  0
  -27.5190  -24.7220   21.5540 C   0  0  0  0  0  2  0  0  0  0  0  0
  -28.1270  -25.2080   20.2010 C   0  0  0  0  0  2  0  0  0  0  0  0
  -28.3250  -26.6390   20.1400 O   0  0  0  0  0  0  0  0  0  0  0  0
  -24.6130  -31.8730   23.2180 C   0  0  0  0  0  0  0  0  0  0  0  0
  -27.1880  -27.4230   20.0970 C   0  0  0  0  0  0  0  0  0  0  0  0
  -23.3930  -30.5100   21.5610 C   0  0  0  0  0  3  0  0  0  0  0  0
  -24.8310  -28.9980   20.0970 C   0  0  0  0  0  0  0  0  0  0  0  0
  -25.9330  -30.8270   21.3830 C   0  0  0  0  0  2  0  0  0  0  0  0
  -25.9980  -29.4770   20.7060 C   0  0  0  0  0  0  0  0  0  0  0  0
  -27.1790  -28.6990   20.7070 C   0  0  0  0  0  3  0  0  0  0  0  0
  -26.0040  -26.9730   19.4670 C   0  0  0  0  0  3  0  0  0  0  0  0
  -24.8310  -27.7460   19.4680 C   0  0  0  0  0  3  0  0  0  0  0  0
  -23.6080  -29.8820   20.1630 C   0  0  0  0  0  2  0  0  0  0  0  0
  -24.6650  -31.0800   22.1140 N   0  0  0  0  0  0  0  0  0  0  0  0
  -23.5330  -32.1540   23.7550 O   0  0  0  0  0  0  0  0  0  0  0  0
  -22.7350  -29.4670   22.4940 C   0  0  0  0  0  0  0  0  0  0  0  0
  -21.4060  -29.3000   22.3800 N   0  0  0  0  0  0  0  0  0  0  0  0
  -23.4150  -28.8150   23.2930 O   0  0  0  0  0  0  0  0  0  0  0  0
  -20.9050  -29.8810   21.7240 H   0  0  0  0  0  0  0  0  0  0  0  0
  -18.0340  -28.1380   22.8480 C   0  0  0  0  0  0  0  0  0  0  0  0
  -20.5900  -28.3630   23.1460 C   0  0  0  0  0  3  0  0  0  0  0  0
  -20.6760  -26.9340   22.5570 C   0  0  0  0  0  2  0  0  0  0  0  0
  -19.5840  -26.6510   21.5180 C   0  0  0  0  0  2  0  0  0  0  0  0
  -18.1970  -26.7990   22.1480 C   0  0  0  0  0  2  0  0  0  0  0  0
  -19.1590  -28.8800   23.3020 C   0  0  0  0  0  0  0  0  0  0  0  0
  -18.9530  -30.1390   23.9080 C   0  0  0  0  0  3  0  0  0  0  0  0
  -17.6550  -30.6520   24.0680 C   0  0  0  0  0  3  0  0  0  0  0  0
  -16.5470  -29.9040   23.6330 C   0  0  0  0  0  3  0  0  0  0  0  0
  -16.7350  -28.6480   23.0330 C   0  0  0  0  0  3  0  0  0  0  0  0
  -25.9070  -32.4840   23.8450 C   0  0  0  0  0  3  0  0  0  0  0  0
  -25.5930  -33.8660   24.2380 N   0  0  0  0  0  0  0  0  0  0  0  0
  -25.9080  -34.9500   23.5150 C   0  0  0  0  0  0  0  0  0  0  0  0
  -26.5650  -34.8920   22.4720 O   0  0  0  0  0  0  0  0  0  0  0  0
  -25.0020  -33.9830   25.0480 H   0  0  0  0  0  0  0  0  0  0  0  0
  -24.1480  -36.7350   23.2630 C   0  0  0  0  0  1  0  0  0  0  0  0
  -25.4120  -36.3150   24.0340 C   0  0  0  0  0  3  0  0  0  0  0  0
  -27.5590  -37.1830   24.8450 C   0  0  0  0  0  1  0  0  0  0  0  0
  -26.4290  -37.3830   23.9410 N   0  0  0  0  0  0  0  0  0  0  0  0
  -26.0200  -38.2920   24.1400 H   0  0  0  0  0  0  0  0  0  0  0  0
  -26.4500  -31.6600   25.0800 C   0  0  1  0  0  0  0  0  0  0  0  0
  -25.3740  -31.3780   26.1520 C   0  0  0  0  0  1  0  0  0  0  0  0
  -27.0370  -30.3000   24.6260 C   0  0  0  0  0  1  0  0  0  0  0  0
  -27.6080  -32.4360   25.7560 C   0  0  0  0  0  1  0  0  0  0  0  0
  -18.4760  -13.3840   22.5580 C   0  0  0  0  0  2  0  0  0  0  0  0
  -19.1850  -12.8030   20.2310 C   0  0  0  0  0  0  0  0  0  0  0  0
  -18.8920  -12.4560   21.4950 N   0  0  0  0  0  0  0  0  0  0  0  0
  -19.2090  -13.9820   19.8760 O   0  0  0  0  0  0  0  0  0  0  0  0
  -18.9070  -11.4730   21.7360 H   0  0  0  0  0  0  0  0  0  0  0  0
  -19.4480  -11.6910   19.1920 C   0  0  0  0  0  2  0  0  0  0  0  0
  -20.6420  -11.9670   18.4420 O   0  0  0  0  0  0  0  0  0  0  0  0
  -20.7540  -11.2790   17.1850 C   0  0  0  0  0  2  0  0  0  0  0  0
  -21.7170  -10.0610   17.1620 C   0  0  0  0  0  2  0  0  0  0  0  0
  -23.0740  -10.4630   17.3390 O   0  0  0  0  0  0  0  0  0  0  0  0
  -24.0320   -9.3990   17.4640 C   0  0  0  0  0  2  0  0  0  0  0  0
  -25.4390  -10.0390   17.4620 C   0  0  0  0  0  2  0  0  0  0  0  0
  -26.4670   -9.4710   18.3250 O   0  0  0  0  0  0  0  0  0  0  0  0
  -27.5800  -10.3840   18.3740 C   0  0  0  0  0  2  0  0  0  0  0  0
  -28.7700  -10.3160   19.3950 C   0  0  0  0  0  2  0  0  0  0  0  0
  -29.9880  -13.0080   20.2290 C   0  0  2  0  0  0  0  0  0  0  0  0
  -31.1270  -12.3240   19.3230 C   0  0  0  0  0  1  0  0  0  0  0  0
  -29.8530  -12.5630   17.9130 C   0  0  0  0  0  1  0  0  0  0  0  0
  -28.2290  -13.1840   18.3420 C   0  0  0  0  0  2  0  0  0  0  0  0
  -27.6840  -13.5410   20.0030 C   0  0  0  0  0  2  0  0  0  0  0  0
  -28.9310  -13.4010   21.3960 C   0  0  0  0  0  1  0  0  0  0  0  0
  -30.5390  -12.7520   20.9880 N   0  0  0  0  0  1  0  0  0  0  0  0
  -30.2880  -14.2950   19.7850 O   0  0  0  0  0  1  0  0  0  0  0  0
  -29.2450  -11.5250   20.2030 N   0  0  0  0  0  2  0  0  0  0  0  0
  -29.4140  -11.1670   21.1320 H   0  0  0  0  0  0  0  0  0  0  0  0
  -25.2230  -13.8790   20.5630 C   0  0  0  0  0  0  0  0  0  0  0  0
  -24.1830  -13.0610   20.8980 C   0  0  0  0  0  0  0  0  0  0  0  0
  -24.6870  -11.7260   20.8870 C   0  0  0  0  0  0  0  0  0  0  0  0
  -26.3240  -13.0710   20.3830 N   0  0  0  0  0  0  0  0  0  0  0  0
  -26.0040  -11.7670   20.6710 N   0  0  0  0  0  0  0  0  0  0  0  0
  -23.9640  -10.4420   21.0630 C   0  0  0  0  0  0  0  0  0  0  0  0
  -24.4150   -9.4230   21.9280 C   0  0  0  0  0  3  0  0  0  0  0  0
  -23.6710   -8.2270   22.0920 C   0  0  0  0  0  3  0  0  0  0  0  0
  -22.4580   -8.0360   21.3870 C   0  0  0  0  0  0  0  0  0  0  0  0
  -22.0080   -9.0510   20.5310 C   0  0  0  0  0  3  0  0  0  0  0  0
  -22.7570  -10.2310   20.3690 C   0  0  0  0  0  3  0  0  0  0  0  0
  -21.6910   -6.8950   21.4380 O   0  0  0  0  0  0  0  0  0  0  0  0
  -21.6980   -6.0730   22.5330 C   0  0  0  0  0  0  0  0  0  0  0  0
  -21.3910   -6.5610   23.8200 C   0  0  0  0  0  3  0  0  0  0  0  0
  -21.3630   -5.6770   24.9180 C   0  0  0  0  0  3  0  0  0  0  0  0
  -21.6050   -4.3030   24.7250 C   0  0  0  0  0  0  0  0  0  0  0  0
  -21.8840   -3.8120   23.4360 C   0  0  0  0  0  3  0  0  0  0  0  0
  -21.9320   -4.6970   22.3440 C   0  0  0  0  0  0  0  0  0  0  0  0
  -22.1830   -4.2190   21.1010 F   0  0  0  0  0  0  0  0  0  0  0  0
  -21.5590   -3.4490   25.7760 F   0  0  0  0  0  0  0  0  0  0  0  0
  -22.7770  -13.5010   21.1540 C   0  0  0  0  0  0  0  0  0  0  0  0
  -22.0720  -12.7450   21.9810 N   0  0  0  0  0  0  0  0  0  0  0  0
  -22.3340  -14.5400   20.6710 O   0  0  0  0  0  0  0  0  0  0  0  0
  -22.4730  -11.9180   22.3970 H   0  0  0  0  0  0  0  0  0  0  0  0
  -21.1380  -13.0120   22.2420 H   0  0  0  0  0  0  0  0  0  0  0  0
  -25.3190  -15.2590   20.4030 N   0  0  0  0  0  0  0  0  0  0  0  0
  -24.5110  -15.8610   20.5090 H   0  0  0  0  0  0  0  0  0  0  0  0
  -26.1520  -15.7630   20.1280 H   0  0  0  0  0  0  0  0  0  0  0  0
  1  2  1  0
  1  3  2  0
  2  5  1  0
  4  2  1  0
  6  7  1  0
  6  5  1  0
  7  9  1  0
  8  6  2  0
 10  7  1  0
 11 12  1  0
 11 10  1  0
 13 14  1  0
 13 12  1  0
 15 16  1  0
 15 14  1  0
 17 18  1  0
 17 16  1  0
 19 18  1  0
 20 19  1  0
 21 32  2  0
 22 20  1  0
 22 27  1  0
 23 31  1  0
 23 33  1  0
 24 30  1  0
 24 26  1  0
 25 31  1  0
 26 27  2  0
 26 25  1  0
 28 29  1  0
 28 22  2  0
 29 24  2  0
 30 23  1  0
 31 21  1  0
 33 35  2  0
 34 33  1  0
 36 34  1  0
 37 46  2  0
 37 42  1  0
 38 34  1  0
 38 42  1  0
 39 38  1  0
 40 41  1  0
 40 39  1  0
 41 37  1  0
 42 43  2  0
 43 44  1  0
 45 44  2  0
 46 45  1  0
 47 21  1  0
 47 48  1  0
 47 57  1  0
 48 51  1  0
 49 53  1  0
 49 48  1  0
 50 49  2  0
 53 52  1  0
 55 53  1  0
 55 56  1  0
 55 54  1  0
 57 60  1  1
 57 58  1  0
 59 57  1  0
 61  1  1  0
 62 63  1  0
 63 65  1  0
 63 61  1  0
 64 62  2  0
 66 62  1  0
 67 66  1  0
 68 67  1  0
 69 68  1  0
 69 70  1  0
 70 71  1  0
 72 71  1  0
 72 73  1  0
 73 74  1  0
 74 75  1  0
 75 84  1  0
 76 82  1  0
 76 81  1  1
 77 76  1  0
 78 79  1  0
 79 80  1  0
 80 89  1  0
 83 76  1  0
 84 85  1  0
 86 87  2  0
 87106  1  0
 88 87  1  0
 88 91  1  0
 89 86  1  0
 89 90  1  0
 90 88  2  0
 91 92  1  0
 92 93  2  0
 94 97  1  0
 94 93  1  0
 95 94  2  0
 96 95  1  0
 96 91  2  0
 97 98  1  0
 98 99  1  0
 99100  2  0
101100  1  0
101105  1  0
102101  2  0
103 98  2  0
103102  1  0
104103  1  0
106107  1  0
107110  1  0
107109  1  0
108106  2  0
111112  1  0
111 86  1  0
113111  1  0
M  ISO  4  19 101  20 101  76 100  84 100
M  END
>  <TORSDO>  (82) 
F 40

>  <SCORE>  (82) 
86.391

>  <name>  (82) 
88

>  <ligand_id>  (82) 
88

>  <original_smiles>  (82) 
[H]c1c([H])c([H])c2c(c1[H])C([H])([H])C([H])([H])C([H])([H])C2([H])N([H])C(=O)C1([H])N(C(=O)C([H])(N([H])C(=O)C([H])(N([H])C([H])([H])[H])C([H])([H])[H])C(C([H])([H])[H])(C([H])([H])[H])C([H])([H])[H])C([H])([H])c2c([H])c(OC([H])([H])C([H])([H])C([H])([H])C([H])([H])C([H])([H])C([H])([H])C([H])([H])C([H])([H])C([H])([H])C([H])([H])N([H])C(=O)C([H])([H])N([H])C(=O)C([H])([H])N([H])C(=O)C([H])([H])OC([H])([H])C([H])([H])OC([H])([H])C([H])([H])OC([H])([H])C([H])([H])N([H])C(=O)N3C([H])([H])C([H])([H])C([H])([H])C([H])(n4nc(-c5c([H])c([H])c(Oc6c([H])c([H])c(F)c([H])c6F)c([H])c5[H])c(C(=O)N([H])[H])c4N([H])[H])C3([H])[H])c([H])c([H])c2C1([H])[H]

>  <smiles>  (82) 
[H]c1c([H])c([H])c2c(c1[H])C([H])([H])C([H])([H])C([H])([H])C2([H])N([H])C(=O)C1([H])N(C(=O)C([H])(N([H])C(=O)C([H])(N([H])C([H])([H])[H])C([H])([H])[H])C(C([H])([H])[H])(C([H])([H])[H])C([H])([H])[H])C([H])([H])c2c([H])c(OC([H])([H])C([H])([H])C([H])([H])C([H])([H])C([H])([H])C([H])([H])C([H])([H])C([H])([H])C([H])([H])C([H])([H])N([H])C(=O)C([H])([H])N([H])C(=O)C([H])([H])N([H])C(=O)C([H])([H])OC([H])([H])C([H])([H])OC([H])([H])C([H])([H])OC([H])([H])C([H])([H])N([H])C(=O)N3C([H])([H])C([H])([H])C([H])([H])C([H])(n4nc(-c5c([H])c([H])c(Oc6c([H])c([H])c(F)c([H])c6F)c([H])c5[H])c(C(=O)N([H])[H])c4N([H])[H])C3([H])[H])c([H])c([H])c2C1([H])[H]

$$$$
89:0:0
     RDKit          3D

121127  0  0  1  0  0  0  0  0999 V2000
  -31.9850  -21.6900   22.3540 N   0  0  0  0  0  4  0  0  0  0  0  0
  -32.6760  -22.4240   22.3060 H   0  0  0  0  0  0  0  0  0  0  0  0
  -31.2830  -21.9210   21.6460 H   0  0  0  0  0  0  0  0  0  0  0  0
  -32.7640  -20.2300   20.4590 C   0  0  0  0  0  1  0  0  0  0  0  0
  -32.6550  -20.4150   21.9870 C   0  0  0  0  0  3  0  0  0  0  0  0
  -34.0400  -20.3490   22.6600 C   0  0  0  0  0  2  0  0  0  0  0  0
  -34.8970  -21.2300   21.9460 O   0  0  0  0  0  0  0  0  0  0  0  0
  -36.0930  -21.5460   22.6360 C   0  0  0  0  0  2  0  0  0  0  0  0
  -36.8920  -20.2510   22.8320 C   0  0  0  0  0  2  0  0  0  0  0  0
  -37.4290  -20.0850   24.2620 C   0  0  0  0  0 15  0  0  0  0  0  0
  -37.7140  -21.4330   24.9510 C   0  0  0  0  0  1  0  0  0  0  0  0
  -39.0060  -22.1140   24.4660 C   0  0  0  0  0  2  0  0  0  0  0  0
  -38.8230  -20.6010   22.4950 C   0  0  0  0  0  3  0  0  0  0  0  0
  -39.3900  -21.6220   23.1470 N   0  0  0  0  0  0  0  0  0  0  0  0
  -37.8170  -20.0200   22.9040 O   0  0  0  0  0  0  0  0  0  0  0  0
  -40.1950  -22.0550   22.7220 H   0  0  0  0  0  0  0  0  0  0  0  0
  -39.5050  -20.1440   21.2030 C   0  0  0  0  0  2  0  0  0  0  0  0
  -41.0450  -20.2240   21.2680 C   0  0  0  0  0  2  0  0  0  0  0  0
  -41.6850  -20.9990   20.1050 C   0  0  0  0  0  2  0  0  0  0  0  0
  -40.7810  -21.0190   19.0110 O   0  0  0  0  0  0  0  0  0  0  0  0
  -41.3750  -20.5530   17.8080 C   0  0  0  0  0  2  0  0  0  0  0  0
  -40.8700  -21.4000   16.6330 C   0  0  0  0  0  2  0  0  0  0  0  0
  -41.9280  -21.5640   15.7000 O   0  0  0  0  0  0  0  0  0  0  0  0
  -41.9600  -22.8610   15.1210 C   0  0  0  0  0  2  0  0  0  0  0  0
  -41.9950  -22.6950   13.5990 C   0  0  0  0  0  2  0  0  0  0  0  0
  -43.0020  -20.4190   13.5560 C   0  0  0  0  0  0  0  0  0  0  0  0
  -43.8710  -18.1470   13.1580 C   0  0  0  0  0  2  0  0  0  0  0  0
  -44.4810  -18.0530   11.7460 C   0  0  0  0  0  2  0  0  0  0  0  0
  -43.4000  -17.7190   10.6990 C   0  0  0  0  0  2  0  0  0  0  0  0
  -42.1480  -18.6290   10.8210 C   0  0  0  0  0  3  0  0  0  0  0  0
  -41.6670  -18.6950   12.2880 C   0  0  0  0  0  2  0  0  0  0  0  0
  -42.7970  -19.1500   13.1200 N   0  0  0  0  0  0  0  0  0  0  0  0
  -44.0190  -20.7840   14.1510 O   0  0  0  0  0  0  0  0  0  0  0  0
  -42.0280  -21.2790   13.2510 N   0  0  0  0  0  0  0  0  0  0  0  0
  -41.2150  -20.9060   12.7870 H   0  0  0  0  0  0  0  0  0  0  0  0
  -40.4740  -18.8760    8.8830 C   0  0  0  0  0  0  0  0  0  0  0  0
  -39.5900  -17.9940    8.3200 C   0  0  0  0  0  0  0  0  0  0  0  0
  -39.7220  -16.7800    9.0580 C   0  0  0  0  0  0  0  0  0  0  0  0
  -41.0830  -18.1920    9.9220 N   0  0  0  0  0  0  0  0  0  0  0  0
  -40.5840  -16.9370   10.0540 N   0  0  0  0  0  0  0  0  0  0  0  0
  -39.1190  -15.4580    8.8410 C   0  0  0  0  0  0  0  0  0  0  0  0
  -38.2420  -14.8820    9.7870 C   0  0  0  0  0  3  0  0  0  0  0  0
  -37.6610  -13.6190    9.5480 C   0  0  0  0  0  3  0  0  0  0  0  0
  -37.9520  -12.9190    8.3530 C   0  0  0  0  0  0  0  0  0  0  0  0
  -38.8440  -13.4850    7.4260 C   0  0  0  0  0  3  0  0  0  0  0  0
  -39.4250  -14.7420    7.6680 C   0  0  0  0  0  3  0  0  0  0  0  0
  -37.4540  -11.6740    8.0480 O   0  0  0  0  0  0  0  0  0  0  0  0
  -36.1630  -11.3220    8.3500 C   0  0  0  0  0  0  0  0  0  0  0  0
  -35.0570  -12.0320    7.8350 C   0  0  0  0  0  3  0  0  0  0  0  0
  -33.7460  -11.5940    8.1160 C   0  0  0  0  0  3  0  0  0  0  0  0
  -33.5410  -10.4430    8.9000 C   0  0  0  0  0  0  0  0  0  0  0  0
  -34.6430   -9.7310    9.4090 C   0  0  0  0  0  3  0  0  0  0  0  0
  -35.9490  -10.1680    9.1320 C   0  0  0  0  0  0  0  0  0  0  0  0
  -37.0070   -9.4670    9.6070 F   0  0  0  0  0  0  0  0  0  0  0  0
  -32.2840  -10.0170    9.1630 F   0  0  0  0  0  0  0  0  0  0  0  0
  -38.7430  -18.2310    7.1030 C   0  0  0  0  0  0  0  0  0  0  0  0
  -37.5810  -17.5910    7.0340 N   0  0  0  0  0  0  0  0  0  0  0  0
  -39.0870  -19.0230    6.2280 O   0  0  0  0  0  0  0  0  0  0  0  0
  -37.2900  -16.9560    7.7610 H   0  0  0  0  0  0  0  0  0  0  0  0
  -36.9740  -17.7390    6.2400 H   0  0  0  0  0  0  0  0  0  0  0  0
  -40.8200  -20.1910    8.5910 N   0  0  0  0  0  0  0  0  0  0  0  0
  -40.4480  -20.6770    7.7840 H   0  0  0  0  0  0  0  0  0  0  0  0
  -41.5610  -20.7040    9.0550 H   0  0  0  0  0  0  0  0  0  0  0  0
  -31.3730  -21.7370   23.7020 C   0  0  0  0  0  2  0  0  0  0  0  0
  -31.5710  -23.1080   24.3600 C   0  0  0  0  0  2  0  0  0  0  0  0
  -30.3860  -23.8750   24.2050 O   0  0  0  0  0  0  0  0  0  0  0  0
  -30.2930  -24.9110   25.1750 C   0  0  0  0  0  2  0  0  0  0  0  0
  -28.8370  -25.3750   25.2970 C   0  0  0  0  0  2  0  0  0  0  0  0
  -28.5080  -26.2310   24.2070 O   0  0  0  0  0  0  0  0  0  0  0  0
  -27.1070  -26.4380   24.0920 C   0  0  0  0  0  2  0  0  0  0  0  0
  -26.7820  -27.4140   22.9510 C   0  0  0  0  0  2  0  0  0  0  0  0
  -27.3600  -27.0600   21.6950 O   0  0  0  0  0  0  0  0  0  0  0  0
  -28.7760  -27.2310   21.6080 C   0  0  0  0  0  2  0  0  0  0  0  0
  -29.5060  -25.9590   22.0520 C   0  0  0  0  0  0  0  0  0  0  0  0
  -29.1610  -24.8250   21.4340 N   0  0  0  0  0  0  0  0  0  0  0  0
  -30.3670  -26.0080   22.9330 O   0  0  0  0  0  0  0  0  0  0  0  0
  -28.4520  -24.8960   20.7150 H   0  0  0  0  0  0  0  0  0  0  0  0
  -29.7540  -23.5220   21.7090 C   0  0  0  0  0  2  0  0  0  0  0  0
  -29.0030  -22.3800   21.0110 C   0  0  0  0  0  2  0  0  0  0  0  0
  -27.5090  -22.2750   21.3820 C   0  0  0  0  0  2  0  0  0  0  0  0
  -27.0010  -20.9540   21.1810 O   0  0  0  0  0  0  0  0  0  0  0  0
  -30.5280  -15.4310   18.4680 C   0  0  0  0  0  0  0  0  0  0  0  0
  -27.3790  -20.3020   20.0310 C   0  0  0  0  0  0  0  0  0  0  0  0
  -29.8160  -17.1510   16.8390 C   0  0  0  0  0  3  0  0  0  0  0  0
  -28.1760  -18.8980   17.7160 C   0  0  0  0  0  0  0  0  0  0  0  0
  -28.4910  -16.7690   18.9930 C   0  0  0  0  0  2  0  0  0  0  0  0
  -28.1110  -18.2350   18.9490 C   0  0  0  0  0  0  0  0  0  0  0  0
  -27.7090  -18.9330   20.1060 C   0  0  0  0  0  3  0  0  0  0  0  0
  -27.4410  -20.9600   18.7830 C   0  0  0  0  0  3  0  0  0  0  0  0
  -27.8440  -20.2620   17.6270 C   0  0  0  0  0  3  0  0  0  0  0  0
  -28.6120  -18.0780   16.5230 C   0  0  0  0  0  2  0  0  0  0  0  0
  -29.6550  -16.4270   18.1420 N   0  0  0  0  0  0  0  0  0  0  0  0
  -31.4280  -15.0870   17.6900 O   0  0  0  0  0  0  0  0  0  0  0  0
  -31.1140  -17.9850   16.7620 C   0  0  0  0  0  0  0  0  0  0  0  0
  -31.6370  -18.1660   15.5390 N   0  0  0  0  0  0  0  0  0  0  0  0
  -31.6110  -18.4760   17.7790 O   0  0  0  0  0  0  0  0  0  0  0  0
  -31.1650  -17.7350   14.7560 H   0  0  0  0  0  0  0  0  0  0  0  0
  -33.8850  -19.0830   12.8660 C   0  0  0  0  0  0  0  0  0  0  0  0
  -32.8330  -18.9450   15.2230 C   0  0  0  0  0  3  0  0  0  0  0  0
  -32.4880  -20.4410   15.0460 C   0  0  0  0  0  2  0  0  0  0  0  0
  -32.2010  -20.8260   13.5920 C   0  0  0  0  0  2  0  0  0  0  0  0
  -33.4090  -20.5170   12.7030 C   0  0  0  0  0  2  0  0  0  0  0  0
  -33.6010  -18.3400   14.0420 C   0  0  0  0  0  0  0  0  0  0  0  0
  -34.0380  -17.0000   14.1260 C   0  0  0  0  0  3  0  0  0  0  0  0
  -34.7450  -16.4050   13.0660 C   0  0  0  0  0  3  0  0  0  0  0  0
  -35.0350  -17.1510   11.9100 C   0  0  0  0  0  3  0  0  0  0  0  0
  -34.6090  -18.4860   11.8130 C   0  0  0  0  0  3  0  0  0  0  0  0
  -30.4210  -14.6610   19.8220 C   0  0  0  0  0  3  0  0  0  0  0  0
  -31.5870  -15.0100   20.8250 C   0  0  1  0  0  0  0  0  0  0  0  0
  -32.9990  -14.8970   20.2050 C   0  0  0  0  0  1  0  0  0  0  0  0
  -31.4220  -16.4480   21.3700 C   0  0  0  0  0  1  0  0  0  0  0  0
  -31.5220  -14.0680   22.0500 C   0  0  0  0  0  1  0  0  0  0  0  0
  -30.4160  -13.2250   19.5120 N   0  0  0  0  0  0  0  0  0  0  0  0
  -29.3170  -12.4600   19.4760 C   0  0  0  0  0  0  0  0  0  0  0  0
  -28.1960  -12.8820   19.7750 O   0  0  0  0  0  0  0  0  0  0  0  0
  -31.2880  -12.8310   19.1910 H   0  0  0  0  0  0  0  0  0  0  0  0
  -29.0620  -10.8370   17.5720 C   0  0  0  0  0  1  0  0  0  0  0  0
  -29.4870  -10.9930   19.0410 C   0  0  0  0  0  3  0  0  0  0  0  0
  -29.2510   -9.9220   21.2390 C   0  0  0  0  0  1  0  0  0  0  0  0
  -28.7270  -10.0400   19.8810 N   0  0  0  0  0  0  0  0  0  0  0  0
  -28.7200   -9.1130   19.4610 H   0  0  0  0  0  0  0  0  0  0  0  0
  1 64  1  0
  2  1  1  0
  3  1  1  0
  5  4  1  0
  5  1  1  0
  5  6  1  0
  7  8  1  0
  7  6  1  0
  8  9  1  0
  9 15  1  0
 12 11  1  0
 13 17  1  0
 13 15  1  0
 13 14  1  0
 14 12  1  0
 16 14  1  0
 17 18  1  0
 19 18  1  0
 20 19  1  0
 21 20  1  0
 22 21  1  0
 23 22  1  0
 24 23  1  0
 25 24  1  0
 26 33  2  0
 28 27  1  0
 29 30  1  0
 29 28  1  0
 30 39  1  0
 30 31  1  0
 31 32  1  0
 32 27  1  0
 32 26  1  0
 34 26  1  0
 34 25  1  0
 35 34  1  0
 36 39  1  0
 37 36  2  0
 37 38  1  0
 38 40  2  0
 39 40  1  0
 41 38  1  0
 41 42  1  0
 43 42  2  0
 44 43  1  0
 45 46  1  0
 45 44  2  0
 46 41  2  0
 47 48  1  0
 47 44  1  0
 48 53  1  0
 49 50  1  0
 49 48  2  0
 50 51  2  0
 51 55  1  0
 51 52  1  0
 53 52  2  0
 53 54  1  0
 56 37  1  0
 57 56  1  0
 57 59  1  0
 58 56  2  0
 60 57  1  0
 61 36  1  0
 61 63  1  0
 62 61  1  0
 64 65  1  0
 66 65  1  0
 66 67  1  0
 67 68  1  0
 69 68  1  0
 70 69  1  0
 71 70  1  0
 72 71  1  0
 73 72  1  0
 73 74  1  0
 74 76  2  0
 75 78  1  0
 75 74  1  0
 77 75  1  0
 79 80  1  0
 79 78  1  0
 81 80  1  0
 83 88  1  0
 83 81  1  0
 84 94  1  0
 84 92  1  0
 85 87  1  0
 87 86  1  0
 87 88  2  0
 89 83  2  0
 90 85  2  0
 90 89  1  0
 91 84  1  0
 91 85  1  0
 92 82  1  0
 92 86  1  0
 93 82  2  0
 94 96  2  0
 95 94  1  0
 97 95  1  0
 98103  1  0
 99 95  1  0
100 99  1  0
101100  1  0
102 98  1  0
102101  1  0
103104  2  0
103 99  1  0
105104  1  0
106105  2  0
107106  1  0
107 98  2  0
108 82  1  0
108109  1  0
109111  1  1
109112  1  0
110109  1  0
113108  1  0
114113  1  0
114115  2  0
116113  1  0
118117  1  0
118114  1  0
118120  1  0
120119  1  0
121120  1  0
M  ISO  4  26 100  34 100  80 101  81 101
M  END
>  <TORSDO>  (83) 
F 48

>  <SCORE>  (83) 
4.719

>  <name>  (83) 
89

>  <ligand_id>  (83) 
89

>  <original_smiles>  (83) 
[H]c1c([H])c([H])c2c(c1[H])C([H])([H])C([H])([H])C([H])([H])C2([H])N([H])C(=O)C1([H])N(C(=O)C([H])(N([H])C(=O)C([H])(N([H])C([H])([H])[H])C([H])([H])[H])C(C([H])([H])[H])(C([H])([H])[H])C([H])([H])[H])C([H])([H])c2c([H])c(OC([H])([H])C([H])([H])C([H])([H])N([H])C(=O)C([H])([H])OC([H])([H])C([H])([H])OC([H])([H])C([H])([H])OC([H])([H])C([H])([H])[N+]([H])([H])C([H])(C([H])([H])[H])C([H])([H])OC([H])([H])C([H])([H])C([H])([H])C([H])([H])C([H])([H])N([H])C(=O)C([H])([H])C([H])([H])C([H])([H])OC([H])([H])C([H])([H])OC([H])([H])C([H])([H])N([H])C(=O)N3C([H])([H])C([H])([H])C([H])([H])C([H])(n4nc(-c5c([H])c([H])c(Oc6c([H])c([H])c(F)c([H])c6F)c([H])c5[H])c(C(=O)N([H])[H])c4N([H])[H])C3([H])[H])c([H])c([H])c2C1([H])[H]

>  <smiles>  (83) 
[H]c1c([H])c([H])c2c(c1[H])C([H])([H])C([H])([H])C([H])([H])C2([H])N([H])C(=O)C1([H])N(C(=O)C([H])(N([H])C(=O)C([H])(N([H])C([H])([H])[H])C([H])([H])[H])C(C([H])([H])[H])(C([H])([H])[H])C([H])([H])[H])C([H])([H])c2c([H])c(OC([H])([H])C([H])([H])C([H])([H])N([H])C(=O)C([H])([H])OC([H])([H])C([H])([H])OC([H])([H])C([H])([H])OC([H])([H])C([H])([H])[N+]([H])([H])C([H])(C([H])([H])[H])C([H])([H])OC([H])([H])C([H])([H])C([H])([H])C([H])([H])C([H])([H])N([H])C(=O)C([H])([H])C([H])([H])C([H])([H])OC([H])([H])C([H])([H])OC([H])([H])C([H])([H])N([H])C(=O)N3C([H])([H])C([H])([H])C([H])([H])C([H])(n4nc(-c5c([H])c([H])c(Oc6c([H])c([H])c(F)c([H])c6F)c([H])c5[H])c(C(=O)N([H])[H])c4N([H])[H])C3([H])[H])c([H])c([H])c2C1([H])[H]

$$$$
90:0:0
     RDKit          3D

116123  0  0  1  0  0  0  0  0999 V2000
  -26.2580  -13.6040   23.6730 C   0  0  0  0  0  2  0  0  0  0  0  0
  -27.6930  -13.0820   23.3750 C   0  0  0  0  0  2  0  0  0  0  0  0
  -28.1740  -11.7470   24.0430 C   0  0  0  0  0  2  0  0  0  0  0  0
  -29.4870  -11.1900   23.3960 C   0  0  0  0  0  3  0  0  0  0  0  0
  -29.9740   -9.7370   23.7050 C   0  0  0  0  0  3  0  0  0  0  0  0
  -31.4530   -9.3610   23.3160 C   0  0  0  0  0  2  0  0  0  0  0  0
  -32.6570   -7.5080   22.0800 C   0  0  0  0  0  0  0  0  0  0  0  0
  -31.6920   -8.4720   22.1440 N   0  0  0  0  0  0  0  0  0  0  0  0
  -33.2860   -7.1720   23.0810 O   0  0  0  0  0  0  0  0  0  0  0  0
  -31.2060   -8.7240   21.2880 H   0  0  0  0  0  0  0  0  0  0  0  0
  -33.0280   -6.8150   20.7250 C   0  0  0  0  0  2  0  0  0  0  0  0
  -35.4980   -6.0090   20.6180 C   0  0  0  0  0  0  0  0  0  0  0  0
  -34.4630   -6.8140   20.3070 N   0  0  0  0  0  0  0  0  0  0  0  0
  -35.3160   -5.0130   21.3180 O   0  0  0  0  0  0  0  0  0  0  0  0
  -34.7150   -7.6260   19.7640 H   0  0  0  0  0  0  0  0  0  0  0  0
  -36.9620   -6.3200   20.1070 C   0  0  0  0  0  2  0  0  0  0  0  0
  -38.3620   -8.4520   20.5260 C   0  0  0  0  0  0  0  0  0  0  0  0
  -37.4300   -7.7190   19.8540 N   0  0  0  0  0  0  0  0  0  0  0  0
  -39.1320   -7.9340   21.3360 O   0  0  0  0  0  0  0  0  0  0  0  0
  -36.8930   -8.2370   19.1780 H   0  0  0  0  0  0  0  0  0  0  0  0
  -38.3680  -10.0040   20.3550 C   0  0  0  0  0  2  0  0  0  0  0  0
  -38.2150  -11.5760   22.5040 C   0  0  0  0  0  0  0  0  0  0  0  0
  -36.5160  -10.2340   23.4220 C   0  0  0  0  0  2  0  0  0  0  0  0
  -35.8440   -9.3690   22.3930 C   0  0  0  0  0  3  0  0  0  0  0  0
  -35.1530  -10.0500   21.1500 C   0  0  0  0  0  3  0  0  0  0  0  0
  -35.2410  -11.5710   20.9930 C   0  0  0  0  0  3  0  0  0  0  0  0
  -35.7410  -12.2170   22.2850 C   0  0  0  0  0  2  0  0  0  0  0  0
  -36.8990  -11.4260   22.7330 N   0  0  0  0  0  0  0  0  0  0  0  0
  -38.9880  -11.9870   23.3520 O   0  0  0  0  0  0  0  0  0  0  0  0
  -38.7890  -10.7750   21.5630 N   0  0  0  0  0  0  0  0  0  0  0  0
  -39.7860  -10.7220   21.7190 H   0  0  0  0  0  0  0  0  0  0  0  0
  -33.8660  -13.2140   19.5650 C   0  0  0  0  0  0  0  0  0  0  0  0
  -32.5480  -13.2420   19.1810 C   0  0  0  0  0  0  0  0  0  0  0  0
  -31.9430  -12.1030   19.7770 C   0  0  0  0  0  0  0  0  0  0  0  0
  -34.0090  -12.1080   20.3860 N   0  0  0  0  0  0  0  0  0  0  0  0
  -32.8330  -11.4330   20.4930 N   0  0  0  0  0  0  0  0  0  0  0  0
  -30.5830  -11.5610   19.6680 C   0  0  0  0  0  0  0  0  0  0  0  0
  -29.8100  -11.3200   20.8180 C   0  0  0  0  0  3  0  0  0  0  0  0
  -28.5130  -10.7870   20.7160 C   0  0  0  0  0  3  0  0  0  0  0  0
  -27.9550  -10.5350   19.4450 C   0  0  0  0  0  0  0  0  0  0  0  0
  -28.7330  -10.7560   18.2910 C   0  0  0  0  0  3  0  0  0  0  0  0
  -30.0420  -11.2610   18.4000 C   0  0  0  0  0  3  0  0  0  0  0  0
  -26.6980  -10.0220   19.2450 O   0  0  0  0  0  0  0  0  0  0  0  0
  -25.6380  -10.3890   20.0280 C   0  0  0  0  0  0  0  0  0  0  0  0
  -25.0090  -11.6440   19.8930 C   0  0  0  0  0  3  0  0  0  0  0  0
  -23.8690  -11.9460   20.6580 C   0  0  0  0  0  3  0  0  0  0  0  0
  -23.3480  -10.9840   21.5500 C   0  0  0  0  0  0  0  0  0  0  0  0
  -23.9700   -9.7300   21.6800 C   0  0  0  0  0  3  0  0  0  0  0  0
  -25.1120   -9.4320   20.9190 C   0  0  0  0  0  0  0  0  0  0  0  0
  -25.6880   -8.2100   21.0150 F   0  0  0  0  0  0  0  0  0  0  0  0
  -22.2560  -11.2640   22.2940 F   0  0  0  0  0  0  0  0  0  0  0  0
  -31.9180  -14.2070   18.2260 C   0  0  0  0  0  0  0  0  0  0  0  0
  -30.7050  -14.6550   18.5350 N   0  0  0  0  0  0  0  0  0  0  0  0
  -32.4970  -14.5900   17.2170 O   0  0  0  0  0  0  0  0  0  0  0  0
  -30.2270  -14.3570   19.3680 H   0  0  0  0  0  0  0  0  0  0  0  0
  -30.2510  -15.3040   17.9080 H   0  0  0  0  0  0  0  0  0  0  0  0
  -34.9720  -14.0020   19.2790 N   0  0  0  0  0  0  0  0  0  0  0  0
  -34.9920  -14.8090   18.6670 H   0  0  0  0  0  0  0  0  0  0  0  0
  -35.8730  -13.7540   19.6650 H   0  0  0  0  0  0  0  0  0  0  0  0
  -26.2010  -15.0700   24.2070 C   0  0  0  0  0  2  0  0  0  0  0  0
  -24.9980  -15.9340   23.7530 C   0  0  0  0  0  2  0  0  0  0  0  0
  -24.7260  -17.1110   24.7120 C   0  0  0  0  0  2  0  0  0  0  0  0
  -23.9520  -18.2630   24.0440 C   0  0  0  0  0  2  0  0  0  0  0  0
  -23.7410  -19.4810   24.9660 C   0  0  0  0  0  2  0  0  0  0  0  0
  -23.0430  -20.6550   24.2500 C   0  0  0  0  0  2  0  0  0  0  0  0
  -23.3340  -22.0300   24.8930 C   0  0  0  0  0  2  0  0  0  0  0  0
  -23.3480  -23.1940   23.8750 C   0  0  0  0  0  2  0  0  0  0  0  0
  -25.1330  -24.3780   22.5830 C   0  0  0  0  0  0  0  0  0  0  0  0
  -24.5820  -23.2560   23.0790 N   0  0  0  0  0  0  0  0  0  0  0  0
  -24.7140  -25.5050   22.8620 O   0  0  0  0  0  0  0  0  0  0  0  0
  -25.0020  -22.3790   22.8020 H   0  0  0  0  0  0  0  0  0  0  0  0
  -26.3120  -24.2130   21.6010 C   0  0  0  0  0  2  0  0  0  0  0  0
  -27.2470  -25.2870   21.7430 O   0  0  0  0  0  0  0  0  0  0  0  0
  -28.4560  -25.0470   21.0190 C   0  0  0  0  0  2  0  0  0  0  0  0
  -29.2440  -26.3440   20.7510 C   0  0  0  0  0  2  0  0  0  0  0  0
  -28.6650  -27.0760   19.6640 O   0  0  0  0  0  0  0  0  0  0  0  0
  -25.8640  -31.3360   24.6060 C   0  0  0  0  0  0  0  0  0  0  0  0
  -27.6510  -27.9230   20.0230 C   0  0  0  0  0  0  0  0  0  0  0  0
  -24.3850  -30.7520   22.7080 C   0  0  0  0  0  3  0  0  0  0  0  0
  -25.5210  -29.6280   20.7220 C   0  0  0  0  0  0  0  0  0  0  0  0
  -26.9190  -30.8330   22.4060 C   0  0  0  0  0  2  0  0  0  0  0  0
  -26.7640  -29.7590   21.3580 C   0  0  0  0  0  0  0  0  0  0  0  0
  -27.8340  -28.9070   21.0150 C   0  0  0  0  0  3  0  0  0  0  0  0
  -26.4100  -27.8170   19.3650 C   0  0  0  0  0  3  0  0  0  0  0  0
  -25.3390  -28.6580   19.7170 C   0  0  0  0  0  3  0  0  0  0  0  0
  -24.4270  -30.5670   21.1670 C   0  0  0  0  0  2  0  0  0  0  0  0
  -25.7480  -30.9660   23.3000 N   0  0  0  0  0  0  0  0  0  0  0  0
  -24.8610  -31.5430   25.3020 O   0  0  0  0  0  0  0  0  0  0  0  0
  -23.6260  -29.5610   23.3350 C   0  0  0  0  0  0  0  0  0  0  0  0
  -22.3050  -29.4930   23.0920 N   0  0  0  0  0  0  0  0  0  0  0  0
  -24.2250  -28.7130   24.0030 O   0  0  0  0  0  0  0  0  0  0  0  0
  -21.8980  -30.2030   22.5040 H   0  0  0  0  0  0  0  0  0  0  0  0
  -18.9840  -28.1520   22.6930 C   0  0  0  0  0  0  0  0  0  0  0  0
  -21.3990  -28.4470   23.5610 C   0  0  0  0  0  3  0  0  0  0  0  0
  -21.7060  -27.1040   22.8580 C   0  0  0  0  0  2  0  0  0  0  0  0
  -20.8840  -26.9110   21.5820 C   0  0  0  0  0  2  0  0  0  0  0  0
  -19.3860  -26.9190   21.9020 C   0  0  0  0  0  2  0  0  0  0  0  0
  -19.9330  -28.8840   23.4540 C   0  0  0  0  0  0  0  0  0  0  0  0
  -19.5150  -30.0500   24.1320 C   0  0  0  0  0  3  0  0  0  0  0  0
  -18.1780  -30.4900   24.0540 C   0  0  0  0  0  3  0  0  0  0  0  0
  -17.2370  -29.7450   23.3210 C   0  0  0  0  0  3  0  0  0  0  0  0
  -17.6400  -28.5780   22.6490 C   0  0  0  0  0  3  0  0  0  0  0  0
  -27.2580  -31.5380   25.2830 C   0  0  0  0  0  3  0  0  0  0  0  0
  -27.3370  -32.9360   25.7250 N   0  0  0  0  0  0  0  0  0  0  0  0
  -27.9560  -33.9110   25.0470 C   0  0  0  0  0  0  0  0  0  0  0  0
  -28.5860  -33.7070   24.0060 O   0  0  0  0  0  0  0  0  0  0  0  0
  -26.8080  -33.1850   26.5490 H   0  0  0  0  0  0  0  0  0  0  0  0
  -26.8370  -36.1460   24.8100 C   0  0  0  0  0  1  0  0  0  0  0  0
  -27.8660  -35.3390   25.6160 C   0  0  0  0  0  3  0  0  0  0  0  0
  -30.1160  -35.4990   26.5790 C   0  0  0  0  0  1  0  0  0  0  0  0
  -29.1590  -36.0540   25.6240 N   0  0  0  0  0  0  0  0  0  0  0  0
  -29.0270  -37.0370   25.8430 H   0  0  0  0  0  0  0  0  0  0  0  0
  -27.5110  -30.5560   26.4940 C   0  0  1  0  0  0  0  0  0  0  0  0
  -26.3900  -30.5810   27.5630 C   0  0  0  0  0  1  0  0  0  0  0  0
  -27.6620  -29.1040   25.9860 C   0  0  0  0  0  1  0  0  0  0  0  0
  -28.8460  -30.9130   27.1870 C   0  0  0  0  0  1  0  0  0  0  0  0
  1 60  1  0
  2  1  1  0
  2  3  1  0
  4  5  2  0
  4  3  1  0
  6  5  1  0
  7  8  1  0
  7  9  2  0
  8  6  1  0
 10  8  1  0
 11  7  1  0
 12 14  2  0
 13 12  1  0
 13 11  1  0
 15 13  1  0
 16 12  1  0
 17 19  2  0
 18 16  1  0
 18 17  1  0
 20 18  1  0
 21 17  1  0
 21 30  1  0
 22 28  1  0
 22 29  2  0
 24 23  1  0
 25 24  2  0
 26 35  1  0
 26 25  1  0
 26 27  1  0
 27 28  1  0
 28 23  1  0
 30 31  1  0
 30 22  1  0
 32 35  1  0
 33 32  2  0
 33 34  1  0
 34 36  2  0
 35 36  1  0
 37 34  1  0
 37 38  1  0
 39 38  2  0
 40 39  1  0
 41 42  1  0
 41 40  2  0
 42 37  2  0
 43 40  1  0
 43 44  1  0
 44 49  1  0
 45 44  2  0
 45 46  1  0
 46 47  2  0
 47 48  1  0
 47 51  1  0
 49 50  1  0
 49 48  2  0
 52 53  1  0
 52 33  1  0
 53 55  1  0
 54 52  2  0
 56 53  1  0
 57 32  1  0
 57 59  1  0
 58 57  1  0
 61 60  1  0
 61 62  1  0
 63 62  1  0
 63 64  1  0
 65 66  1  0
 65 64  1  0
 67 66  1  0
 68 70  2  0
 68 69  1  0
 69 67  1  0
 71 69  1  0
 72 73  1  0
 72 68  1  0
 74 73  1  0
 75 74  1  0
 76 78  1  0
 76 75  1  0
 77 88  2  0
 78 83  1  0
 79 87  1  0
 79 89  1  0
 80 86  1  0
 80 82  1  0
 81 87  1  0
 82 81  1  0
 83 82  2  0
 84 85  1  0
 84 78  2  0
 85 80  2  0
 86 79  1  0
 87 77  1  0
 89 91  2  0
 90 89  1  0
 92 90  1  0
 93 98  1  0
 94 90  1  0
 95 94  1  0
 96 97  1  0
 96 95  1  0
 97 93  1  0
 98 94  1  0
 98 99  2  0
100 99  1  0
101100  2  0
102 93  2  0
102101  1  0
103 77  1  0
103104  1  0
103113  1  0
104107  1  0
105109  1  0
105104  1  0
106105  2  0
109108  1  0
109111  1  0
111112  1  0
111110  1  0
113116  1  1
113114  1  0
115113  1  0
M  ISO  4  22 100  30 100  75 101  76 101
M  END
>  <TORSDO>  (84) 
F 40

>  <SCORE>  (84) 
25.970

>  <name>  (84) 
90

>  <ligand_id>  (84) 
90

>  <original_smiles>  (84) 
[H]c1c([H])c([H])c2c(c1[H])C([H])([H])C([H])([H])C([H])([H])C2([H])N([H])C(=O)C1([H])N(C(=O)C([H])(N([H])C(=O)C([H])(N([H])C([H])([H])[H])C([H])([H])[H])C(C([H])([H])[H])(C([H])([H])[H])C([H])([H])[H])C([H])([H])c2c([H])c(OC([H])([H])C([H])([H])OC([H])([H])C(=O)N([H])C([H])([H])C([H])([H])C([H])([H])C([H])([H])C([H])([H])C([H])([H])C([H])([H])C([H])([H])C([H])([H])C([H])([H])C([H])([H])C([H])([H])C([H])([H])C([H])([H])N([H])C(=O)C([H])([H])N([H])C(=O)C([H])([H])N([H])C(=O)C([H])([H])N([H])C(=O)N3C([H])([H])C([H])([H])C([H])([H])C([H])(n4nc(-c5c([H])c([H])c(Oc6c([H])c([H])c(F)c([H])c6F)c([H])c5[H])c(C(=O)N([H])[H])c4N([H])[H])C3([H])[H])c([H])c([H])c2C1([H])[H]

>  <smiles>  (84) 
[H]c1c([H])c([H])c2c(c1[H])C([H])([H])C([H])([H])C([H])([H])C2([H])N([H])C(=O)C1([H])N(C(=O)C([H])(N([H])C(=O)C([H])(N([H])C([H])([H])[H])C([H])([H])[H])C(C([H])([H])[H])(C([H])([H])[H])C([H])([H])[H])C([H])([H])c2c([H])c(OC([H])([H])C([H])([H])OC([H])([H])C(=O)N([H])C([H])([H])C([H])([H])C([H])([H])C([H])([H])C([H])([H])C([H])([H])C([H])([H])C([H])([H])C([H])([H])C([H])([H])C([H])([H])C([H])([H])C([H])([H])C([H])([H])N([H])C(=O)C([H])([H])N([H])C(=O)C([H])([H])N([H])C(=O)C([H])([H])N([H])C(=O)N3C([H])([H])C([H])([H])C([H])([H])C([H])(n4nc(-c5c([H])c([H])c(Oc6c([H])c([H])c(F)c([H])c6F)c([H])c5[H])c(C(=O)N([H])[H])c4N([H])[H])C3([H])[H])c([H])c([H])c2C1([H])[H]

$$$$
91:0:0
     RDKit          3D

114122  0  0  1  0  0  0  0  0999 V2000
  -27.0040  -25.8080   26.7250 C   0  0  0  0  0  0  0  0  0  0  0  0
  -25.8000  -25.8680   26.1540 N   0  0  0  0  0  0  0  0  0  0  0  0
  -27.8290  -24.9310   26.4460 O   0  0  0  0  0  0  0  0  0  0  0  0
  -25.1990  -26.6400   26.3990 H   0  0  0  0  0  0  0  0  0  0  0  0
  -25.3530  -24.9990   25.0700 C   0  0  0  0  0  2  0  0  0  0  0  0
  -25.5530  -25.6950   23.7180 C   0  0  0  0  0  0  0  0  0  0  0  0
  -26.7460  -25.5540   23.1260 N   0  0  0  0  0  0  0  0  0  0  0  0
  -24.6300  -26.3420   23.2150 O   0  0  0  0  0  0  0  0  0  0  0  0
  -27.4500  -25.0100   23.6090 H   0  0  0  0  0  0  0  0  0  0  0  0
  -27.0950  -26.1340   21.8320 C   0  0  0  0  0  2  0  0  0  0  0  0
  -28.5860  -26.5120   21.7420 C   0  0  0  0  0  2  0  0  0  0  0  0
  -29.0680  -27.5320   22.7920 C   0  0  0  0  0  2  0  0  0  0  0  0
  -28.6590  -28.9870   22.4960 C   0  0  0  0  0  2  0  0  0  0  0  0
  -28.9010  -29.9000   23.7090 C   0  0  0  0  0  2  0  0  0  0  0  0
  -28.7630  -31.4050   23.4240 C   0  0  0  0  0  2  0  0  0  0  0  0
  -30.0530  -31.9570   23.1920 O   0  0  0  0  0  0  0  0  0  0  0  0
  -30.8380  -32.2090   24.3610 C   0  0  0  0  0  2  0  0  0  0  0  0
  -30.5730  -33.6020   24.9560 C   0  0  0  0  0  2  0  0  0  0  0  0
  -30.2840  -33.6380   26.4710 C   0  0  0  0  0  2  0  0  0  0  0  0
  -29.6080  -32.4970   26.9900 O   0  0  0  0  0  0  0  0  0  0  0  0
  -23.6020  -28.9670   28.3360 C   0  0  0  0  0  0  0  0  0  0  0  0
  -28.2830  -32.3390   26.6630 C   0  0  0  0  0  0  0  0  0  0  0  0
  -23.5970  -30.3530   26.2860 C   0  0  0  0  0  3  0  0  0  0  0  0
  -25.5570  -31.9590   26.0310 C   0  0  0  0  0  0  0  0  0  0  0  0
  -25.0710  -30.9780   28.2770 C   0  0  0  0  0  2  0  0  0  0  0  0
  -26.0440  -31.5790   27.2870 C   0  0  0  0  0  0  0  0  0  0  0  0
  -27.4050  -31.7620   27.6060 C   0  0  0  0  0  3  0  0  0  0  0  0
  -27.7840  -32.6970   25.3920 C   0  0  0  0  0  3  0  0  0  0  0  0
  -26.4260  -32.5120   25.0730 C   0  0  0  0  0  3  0  0  0  0  0  0
  -24.0850  -31.7320   25.7690 C   0  0  0  0  0  2  0  0  0  0  0  0
  -24.0970  -30.0460   27.6660 N   0  0  0  0  0  0  0  0  0  0  0  0
  -22.7070  -28.2640   27.8460 O   0  0  0  0  0  0  0  0  0  0  0  0
  -23.9700  -29.2730   25.2440 C   0  0  0  0  0  0  0  0  0  0  0  0
  -23.2200  -29.2340   24.1310 N   0  0  0  0  0  0  0  0  0  0  0  0
  -24.9250  -28.5170   25.4340 O   0  0  0  0  0  0  0  0  0  0  0  0
  -22.4510  -29.8850   24.0560 H   0  0  0  0  0  0  0  0  0  0  0  0
  -21.6490  -27.9820   21.1300 C   0  0  0  0  0  0  0  0  0  0  0  0
  -23.4050  -28.3280   22.9980 C   0  0  0  0  0  3  0  0  0  0  0  0
  -24.2880  -28.9740   21.9070 C   0  0  0  0  0  2  0  0  0  0  0  0
  -23.4790  -29.7030   20.8300 C   0  0  0  0  0  2  0  0  0  0  0  0
  -22.5130  -28.7360   20.1360 C   0  0  0  0  0  2  0  0  0  0  0  0
  -22.0590  -27.8040   22.4800 C   0  0  0  0  0  0  0  0  0  0  0  0
  -21.1990  -27.1310   23.3730 C   0  0  0  0  0  3  0  0  0  0  0  0
  -19.9550  -26.6360   22.9400 C   0  0  0  0  0  3  0  0  0  0  0  0
  -19.5630  -26.7960   21.6000 C   0  0  0  0  0  3  0  0  0  0  0  0
  -20.4100  -27.4640   20.6960 C   0  0  0  0  0  3  0  0  0  0  0  0
  -24.1140  -28.5840   29.7590 C   0  0  0  0  0  3  0  0  0  0  0  0
  -22.9400  -28.4460   30.6320 N   0  0  0  0  0  0  0  0  0  0  0  0
  -22.7190  -29.1840   31.7280 C   0  0  0  0  0  0  0  0  0  0  0  0
  -23.5300  -30.0090   32.1570 O   0  0  0  0  0  0  0  0  0  0  0  0
  -22.2090  -27.8270   30.3120 H   0  0  0  0  0  0  0  0  0  0  0  0
  -20.4240  -30.1250   32.1380 C   0  0  0  0  0  1  0  0  0  0  0  0
  -21.3850  -28.9710   32.4670 C   0  0  0  0  0  3  0  0  0  0  0  0
  -22.2110  -27.6270   34.3490 C   0  0  0  0  0  1  0  0  0  0  0  0
  -21.5370  -28.8530   33.9340 N   0  0  0  0  0  0  0  0  0  0  0  0
  -20.6300  -28.8870   34.3920 H   0  0  0  0  0  0  0  0  0  0  0  0
  -24.9830  -27.2660   29.7720 C   0  0  1  0  0  0  0  0  0  0  0  0
  -24.1790  -25.9800   29.4650 C   0  0  0  0  0  1  0  0  0  0  0  0
  -26.1320  -27.3650   28.7410 C   0  0  0  0  0  2  0  0  0  0  0  0
  -25.6460  -27.0890   31.1580 C   0  0  0  0  0  1  0  0  0  0  0  0
  -27.3300  -26.8860   27.7590 C   0  0  0  0  0  3  0  0  0  0  0  0
  -28.6740  -28.9600   27.3700 C   0  0  0  0  0  0  0  0  0  0  0  0
  -28.4880  -27.6420   27.3130 N   0  0  0  0  0  0  0  0  0  0  0  0
  -27.8800  -29.7300   27.9100 O   0  0  0  0  0  0  0  0  0  0  0  0
  -29.2020  -27.1160   26.8160 H   0  0  0  0  0  0  0  0  0  0  0  0
  -29.9570  -29.4630   26.7000 C   0  0  0  0  0  2  0  0  0  0  0  0
  -30.5290  -28.3860   25.9500 O   0  0  0  0  0  0  0  0  0  0  0  0
  -31.6130  -28.7560   25.1150 C   0  0  0  0  0  2  0  0  0  0  0  0
  -32.1340  -27.4950   24.4170 C   0  0  0  0  0  2  0  0  0  0  0  0
  -33.5060  -27.7110   23.7710 C   0  0  0  0  0  2  0  0  0  0  0  0
  -33.7530  -26.6440   22.8640 O   0  0  0  0  0  0  0  0  0  0  0  0
  -34.5300  -27.0050   21.7250 C   0  0  0  0  0  2  0  0  0  0  0  0
  -36.0490  -26.7670   21.9010 C   0  0  0  0  0  2  0  0  0  0  0  0
  -36.6500  -26.1720   20.7530 O   0  0  0  0  0  0  0  0  0  0  0  0
  -36.9680  -27.0690   19.6880 C   0  0  0  0  0  2  0  0  0  0  0  0
  -37.7490  -26.2700   18.6300 C   0  0  0  0  0  2  0  0  0  0  0  0
  -39.4820  -27.4090   17.2240 C   0  0  0  0  0  0  0  0  0  0  0  0
  -41.0120  -28.1730   15.4420 C   0  0  0  0  0  2  0  0  0  0  0  0
  -41.1380  -29.7060   15.3870 C   0  0  0  0  0  2  0  0  0  0  0  0
  -40.0100  -30.3210   14.5370 C   0  0  0  0  0  2  0  0  0  0  0  0
  -38.6080  -29.7960   14.9470 C   0  0  0  0  0  3  0  0  0  0  0  0
  -38.6120  -28.2550   15.0160 C   0  0  0  0  0  2  0  0  0  0  0  0
  -39.6740  -27.8390   15.9520 N   0  0  0  0  0  0  0  0  0  0  0  0
  -40.3970  -27.2600   18.0390 O   0  0  0  0  0  0  0  0  0  0  0  0
  -38.2150  -27.0790   17.5070 N   0  0  0  0  0  0  0  0  0  0  0  0
  -37.5390  -27.2760   16.7840 H   0  0  0  0  0  0  0  0  0  0  0  0
  -36.1910  -30.3620   14.2570 C   0  0  0  0  0  0  0  0  0  0  0  0
  -35.6770  -30.9480   13.1330 C   0  0  0  0  0  0  0  0  0  0  0  0
  -36.7910  -31.2030   12.2760 C   0  0  0  0  0  0  0  0  0  0  0  0
  -37.5610  -30.2820   14.0510 N   0  0  0  0  0  0  0  0  0  0  0  0
  -37.9080  -30.7430   12.8240 N   0  0  0  0  0  0  0  0  0  0  0  0
  -36.8670  -31.9120   10.9920 C   0  0  0  0  0  0  0  0  0  0  0  0
  -37.1140  -31.2240    9.7840 C   0  0  0  0  0  3  0  0  0  0  0  0
  -37.1680  -31.9270    8.5600 C   0  0  0  0  0  3  0  0  0  0  0  0
  -36.9700  -33.3280    8.5370 C   0  0  0  0  0  0  0  0  0  0  0  0
  -36.7530  -34.0100    9.7460 C   0  0  0  0  0  3  0  0  0  0  0  0
  -36.7050  -33.3110   10.9640 C   0  0  0  0  0  3  0  0  0  0  0  0
  -37.0330  -34.0960    7.3990 O   0  0  0  0  0  0  0  0  0  0  0  0
  -36.4270  -33.7060    6.2320 C   0  0  0  0  0  0  0  0  0  0  0  0
  -35.0300  -33.5120    6.1450 C   0  0  0  0  0  3  0  0  0  0  0  0
  -34.4410  -33.1800    4.9100 C   0  0  0  0  0  3  0  0  0  0  0  0
  -35.2430  -33.0490    3.7600 C   0  0  0  0  0  0  0  0  0  0  0  0
  -36.6320  -33.2490    3.8440 C   0  0  0  0  0  3  0  0  0  0  0  0
  -37.2210  -33.5790    5.0760 C   0  0  0  0  0  0  0  0  0  0  0  0
  -38.5580  -33.7910    5.1470 F   0  0  0  0  0  0  0  0  0  0  0  0
  -34.6780  -32.7370    2.5710 F   0  0  0  0  0  0  0  0  0  0  0  0
  -34.2460  -31.3430   12.9030 C   0  0  0  0  0  0  0  0  0  0  0  0
  -33.7900  -31.2950   11.6560 N   0  0  0  0  0  0  0  0  0  0  0  0
  -33.5090  -31.6550   13.8380 O   0  0  0  0  0  0  0  0  0  0  0  0
  -34.3860  -31.0130   10.8910 H   0  0  0  0  0  0  0  0  0  0  0  0
  -32.8300  -31.5440   11.4620 H   0  0  0  0  0  0  0  0  0  0  0  0
  -35.6130  -29.9060   15.4380 N   0  0  0  0  0  0  0  0  0  0  0  0
  -34.6220  -30.0050   15.6270 H   0  0  0  0  0  0  0  0  0  0  0  0
  -36.1230  -29.4940   16.2110 H   0  0  0  0  0  0  0  0  0  0  0  0
  1 61  1  0
  2  4  1  0
  2  1  1  0
  3  1  2  0
  5  2  1  0
  6  5  1  0
  7  9  1  0
  7  6  1  0
  8  6  2  0
 10  7  1  0
 11 10  1  0
 11 12  1  0
 13 12  1  0
 13 14  1  0
 15 14  1  0
 16 15  1  0
 16 17  1  0
 17 18  1  0
 18 19  1  0
 19 20  1  0
 21 47  1  0
 22 20  1  0
 22 27  1  0
 23 33  1  0
 23 31  1  0
 24 26  1  0
 26 27  2  0
 26 25  1  0
 28 22  2  0
 29 28  1  0
 29 24  2  0
 30 24  1  0
 30 23  1  0
 31 25  1  0
 31 21  1  0
 32 21  2  0
 33 35  2  0
 34 33  1  0
 36 34  1  0
 37 42  1  0
 38 34  1  0
 39 38  1  0
 40 39  1  0
 41 40  1  0
 41 37  1  0
 42 38  1  0
 42 43  2  0
 44 43  1  0
 45 44  2  0
 46 37  2  0
 46 45  1  0
 47 57  1  0
 47 48  1  0
 48 49  1  0
 49 50  2  0
 49 53  1  0
 51 48  1  0
 53 52  1  0
 53 55  1  0
 55 54  1  0
 55 56  1  0
 57 60  1  1
 58 57  1  0
 59 57  1  0
 61 63  1  0
 61 59  1  0
 62 64  2  0
 63 62  1  0
 65 63  1  0
 66 62  1  0
 67 66  1  0
 68 67  1  0
 69 68  1  0
 70 69  1  0
 71 70  1  0
 72 73  1  0
 72 71  1  0
 74 73  1  0
 75 74  1  0
 76 75  1  0
 77 85  1  0
 77 84  2  0
 78 83  1  0
 79 78  1  0
 80 81  1  0
 80 79  1  0
 81 90  1  0
 81 82  1  0
 82 83  1  0
 83 77  1  0
 85 76  1  0
 86 85  1  0
 87112  1  0
 88 87  2  0
 89 91  2  0
 89 88  1  0
 90 87  1  0
 91 90  1  0
 92 89  1  0
 93 92  2  0
 94 93  1  0
 95 94  2  0
 95 96  1  0
 96 97  2  0
 97 92  1  0
 98 95  1  0
 99 98  1  0
100 99  1  0
101100  2  0
102103  2  0
102101  1  0
103104  1  0
104105  1  0
104 99  2  0
106102  1  0
107 88  1  0
107109  2  0
108107  1  0
110108  1  0
111108  1  0
112113  1  0
112114  1  0
M  ISO  4  19 101  20 101  77 100  85 100
M  END
>  <TORSDO>  (85) 
F 41

>  <SCORE>  (85) 
1.668

>  <name>  (85) 
91

>  <ligand_id>  (85) 
91

>  <original_smiles>  (85) 
[H]c1c([H])c([H])c2c(c1[H])C([H])([H])C([H])([H])C([H])([H])C2([H])N([H])C(=O)C1([H])N(C(=O)C([H])(N([H])C(=O)C([H])(N([H])C([H])([H])[H])C([H])([H])[H])C(C([H])([H])[H])(C([H])([H])[H])C([H])([H])[H])C([H])([H])c2c([H])c(OC([H])([H])C([H])([H])C([H])([H])OC([H])([H])C([H])([H])C([H])([H])C([H])([H])C([H])([H])C([H])([H])N([H])C(=O)C([H])([H])N([H])C(=O)C([H])([H])N([H])C(=O)C([H])([H])OC([H])([H])C([H])([H])C([H])([H])OC([H])([H])C([H])([H])OC([H])([H])C([H])([H])N([H])C(=O)N3C([H])([H])C([H])([H])C([H])([H])C([H])(n4nc(-c5c([H])c([H])c(Oc6c([H])c([H])c(F)c([H])c6F)c([H])c5[H])c(C(=O)N([H])[H])c4N([H])[H])C3([H])[H])c([H])c([H])c2C1([H])[H]

>  <smiles>  (85) 
[H]c1c([H])c([H])c2c(c1[H])C([H])([H])C([H])([H])C([H])([H])C2([H])N([H])C(=O)C1([H])N(C(=O)C([H])(N([H])C(=O)C([H])(N([H])C([H])([H])[H])C([H])([H])[H])C(C([H])([H])[H])(C([H])([H])[H])C([H])([H])[H])C([H])([H])c2c([H])c(OC([H])([H])C([H])([H])C([H])([H])OC([H])([H])C([H])([H])C([H])([H])C([H])([H])C([H])([H])C([H])([H])N([H])C(=O)C([H])([H])N([H])C(=O)C([H])([H])N([H])C(=O)C([H])([H])OC([H])([H])C([H])([H])C([H])([H])OC([H])([H])C([H])([H])OC([H])([H])C([H])([H])N([H])C(=O)N3C([H])([H])C([H])([H])C([H])([H])C([H])(n4nc(-c5c([H])c([H])c(Oc6c([H])c([H])c(F)c([H])c6F)c([H])c5[H])c(C(=O)N([H])[H])c4N([H])[H])C3([H])[H])c([H])c([H])c2C1([H])[H]

$$$$
92:0:0
     RDKit          3D

100107  0  0  1  0  0  0  0  0999 V2000
  -24.0930  -22.4560   24.6960 C   0  0  0  0  0  2  0  0  0  0  0  0
  -23.9310  -21.2910   23.8990 O   0  0  0  0  0  0  0  0  0  0  0  0
  -24.4340  -20.1200   24.5250 C   0  0  0  0  0  2  0  0  0  0  0  0
  -24.0920  -18.8910   23.6710 C   0  0  0  0  0  2  0  0  0  0  0  0
  -24.9820  -18.8180   22.5670 O   0  0  0  0  0  0  0  0  0  0  0  0
  -24.7620  -17.6800   21.7410 C   0  0  0  0  0  2  0  0  0  0  0  0
  -25.5690  -17.8540   20.4470 C   0  0  0  0  0  2  0  0  0  0  0  0
  -26.9500  -17.7380   20.7630 O   0  0  0  0  0  0  0  0  0  0  0  0
  -27.8140  -18.0020   19.6660 C   0  0  0  0  0  2  0  0  0  0  0  0
  -29.2430  -18.1200   20.2120 C   0  0  0  0  0  2  0  0  0  0  0  0
  -29.8120  -16.8320   20.4160 O   0  0  0  0  0  0  0  0  0  0  0  0
  -30.8710  -16.8440   21.3690 C   0  0  0  0  0  2  0  0  0  0  0  0
  -31.8490  -15.7000   21.0820 C   0  0  0  0  0  2  0  0  0  0  0  0
  -31.4570  -13.5840   19.8440 C   0  0  0  0  0  0  0  0  0  0  0  0
  -30.8140  -11.4990   18.6980 C   0  0  0  0  0  2  0  0  0  0  0  0
  -29.8260  -11.7820   17.5520 C   0  0  0  0  0  2  0  0  0  0  0  0
  -28.3780  -11.8030   18.0770 C   0  0  0  0  0  2  0  0  0  0  0  0
  -28.2120  -12.7140   19.3220 C   0  0  0  0  0  3  0  0  0  0  0  0
  -29.2950  -12.3970   20.3750 C   0  0  0  0  0  2  0  0  0  0  0  0
  -30.6180  -12.5230   19.7330 N   0  0  0  0  0  0  0  0  0  0  0  0
  -32.4620  -13.7360   19.1440 O   0  0  0  0  0  0  0  0  0  0  0  0
  -31.1340  -14.4600   20.7980 N   0  0  0  0  0  0  0  0  0  0  0  0
  -30.2840  -14.2870   21.3120 H   0  0  0  0  0  0  0  0  0  0  0  0
  -25.9540  -13.6060   20.1820 C   0  0  0  0  0  0  0  0  0  0  0  0
  -24.8250  -12.9670   20.6180 C   0  0  0  0  0  0  0  0  0  0  0  0
  -25.1150  -11.5680   20.5580 C   0  0  0  0  0  0  0  0  0  0  0  0
  -26.8680  -12.6070   19.8850 N   0  0  0  0  0  0  0  0  0  0  0  0
  -26.3680  -11.3750   20.1650 N   0  0  0  0  0  0  0  0  0  0  0  0
  -24.2570  -10.4020   20.7960 C   0  0  0  0  0  0  0  0  0  0  0  0
  -24.6120   -9.4010   21.7270 C   0  0  0  0  0  3  0  0  0  0  0  0
  -23.7630   -8.2960   21.9500 C   0  0  0  0  0  3  0  0  0  0  0  0
  -22.5420   -8.1860   21.2430 C   0  0  0  0  0  0  0  0  0  0  0  0
  -22.2040   -9.1740   20.3010 C   0  0  0  0  0  3  0  0  0  0  0  0
  -23.0530  -10.2710   20.0760 C   0  0  0  0  0  3  0  0  0  0  0  0
  -21.6670   -7.1360   21.3760 O   0  0  0  0  0  0  0  0  0  0  0  0
  -21.5520   -6.4390   22.5510 C   0  0  0  0  0  0  0  0  0  0  0  0
  -21.2090   -7.0750   23.7650 C   0  0  0  0  0  3  0  0  0  0  0  0
  -21.0340   -6.3100   24.9350 C   0  0  0  0  0  3  0  0  0  0  0  0
  -21.1910   -4.9120   24.8930 C   0  0  0  0  0  0  0  0  0  0  0  0
  -21.5270   -4.2760   23.6850 C   0  0  0  0  0  3  0  0  0  0  0  0
  -21.7040   -5.0370   22.5160 C   0  0  0  0  0  0  0  0  0  0  0  0
  -22.0070   -4.4180   21.3500 F   0  0  0  0  0  0  0  0  0  0  0  0
  -21.0150   -4.1740   26.0160 F   0  0  0  0  0  0  0  0  0  0  0  0
  -23.5170  -13.6090   20.9830 C   0  0  0  0  0  0  0  0  0  0  0  0
  -22.7660  -12.9980   21.8930 N   0  0  0  0  0  0  0  0  0  0  0  0
  -23.1750  -14.6870   20.4980 O   0  0  0  0  0  0  0  0  0  0  0  0
  -23.0540  -12.1240   22.3090 H   0  0  0  0  0  0  0  0  0  0  0  0
  -21.8910  -13.4120   22.1790 H   0  0  0  0  0  0  0  0  0  0  0  0
  -26.2760  -14.9460   20.0000 N   0  0  0  0  0  0  0  0  0  0  0  0
  -25.6250  -15.6910   20.2110 H   0  0  0  0  0  0  0  0  0  0  0  0
  -27.1900  -15.2870   19.7260 H   0  0  0  0  0  0  0  0  0  0  0  0
  -24.0270  -23.7040   23.8010 C   0  0  0  0  0  2  0  0  0  0  0  0
  -25.4640  -23.5800   21.7610 C   0  0  0  0  0  0  0  0  0  0  0  0
  -25.2590  -23.9090   23.0420 N   0  0  0  0  0  0  0  0  0  0  0  0
  -24.6260  -22.9870   21.0810 O   0  0  0  0  0  0  0  0  0  0  0  0
  -26.0070  -24.3890   23.5260 H   0  0  0  0  0  0  0  0  0  0  0  0
  -26.7960  -24.0090   21.1320 C   0  0  0  0  0  2  0  0  0  0  0  0
  -26.5930  -24.8270   19.8370 C   0  0  0  0  0  2  0  0  0  0  0  0
  -27.5860  -25.9920   19.6530 C   0  0  0  0  0  2  0  0  0  0  0  0
  -27.1480  -26.8690   18.6140 O   0  0  0  0  0  0  0  0  0  0  0  0
  -24.9050  -31.4370   23.5760 C   0  0  0  0  0  0  0  0  0  0  0  0
  -26.1740  -27.7460   19.0210 C   0  0  0  0  0  0  0  0  0  0  0  0
  -23.2230  -30.7550   21.8930 C   0  0  0  0  0  3  0  0  0  0  0  0
  -24.1320  -29.4910   19.8720 C   0  0  0  0  0  0  0  0  0  0  0  0
  -25.7110  -30.7890   21.3140 C   0  0  0  0  0  2  0  0  0  0  0  0
  -25.4390  -29.6560   20.3490 C   0  0  0  0  0  0  0  0  0  0  0  0
  -26.4650  -28.7850   19.9310 C   0  0  0  0  0  3  0  0  0  0  0  0
  -24.8620  -27.6030   18.5260 C   0  0  0  0  0  3  0  0  0  0  0  0
  -23.8350  -28.4620   18.9590 C   0  0  0  0  0  3  0  0  0  0  0  0
  -23.0940  -30.4700   20.3710 C   0  0  0  0  0  2  0  0  0  0  0  0
  -24.6420  -30.9880   22.3180 N   0  0  0  0  0  0  0  0  0  0  0  0
  -23.9870  -31.7010   24.3660 O   0  0  0  0  0  0  0  0  0  0  0  0
  -22.5330  -29.6100   22.6680 C   0  0  0  0  0  0  0  0  0  0  0  0
  -21.1950  -29.5510   22.5780 N   0  0  0  0  0  0  0  0  0  0  0  0
  -23.1970  -28.7870   23.3060 O   0  0  0  0  0  0  0  0  0  0  0  0
  -20.7230  -30.2670   22.0440 H   0  0  0  0  0  0  0  0  0  0  0  0
  -17.7880  -28.3740   22.7990 C   0  0  0  0  0  0  0  0  0  0  0  0
  -20.3370  -28.5400   23.1930 C   0  0  0  0  0  3  0  0  0  0  0  0
  -20.4380  -27.1920   22.4410 C   0  0  0  0  0  2  0  0  0  0  0  0
  -19.3700  -27.0270   21.3550 C   0  0  0  0  0  2  0  0  0  0  0  0
  -17.9670  -27.1180   21.9630 C   0  0  0  0  0  2  0  0  0  0  0  0
  -18.9020  -29.0500   23.3630 C   0  0  0  0  0  0  0  0  0  0  0  0
  -18.6830  -30.2340   24.1010 C   0  0  0  0  0  3  0  0  0  0  0  0
  -17.3810  -30.7390   24.2830 C   0  0  0  0  0  3  0  0  0  0  0  0
  -16.2820  -30.0580   23.7350 C   0  0  0  0  0  3  0  0  0  0  0  0
  -16.4850  -28.8770   22.9990 C   0  0  0  0  0  3  0  0  0  0  0  0
  -26.3670  -31.6660   24.0740 C   0  0  0  0  0  3  0  0  0  0  0  0
  -26.3940  -32.9490   24.7880 N   0  0  0  0  0  0  0  0  0  0  0  0
  -26.8590  -34.0970   24.2730 C   0  0  0  0  0  0  0  0  0  0  0  0
  -27.3830  -34.1650   23.1570 O   0  0  0  0  0  0  0  0  0  0  0  0
  -25.9310  -32.9780   25.6840 H   0  0  0  0  0  0  0  0  0  0  0  0
  -25.5270  -36.1970   24.6330 C   0  0  0  0  0  1  0  0  0  0  0  0
  -26.7200  -35.3670   25.1310 C   0  0  0  0  0  3  0  0  0  0  0  0
  -29.0600  -35.5820   25.8430 C   0  0  0  0  0  1  0  0  0  0  0  0
  -27.9390  -36.2050   25.1450 N   0  0  0  0  0  0  0  0  0  0  0  0
  -27.7540  -37.1050   25.5820 H   0  0  0  0  0  0  0  0  0  0  0  0
  -26.9000  -30.5010   24.9940 C   0  0  1  0  0  0  0  0  0  0  0  0
  -25.9510  -30.1490   26.1630 C   0  0  0  0  0  1  0  0  0  0  0  0
  -27.1270  -29.2140   24.1660 C   0  0  0  0  0  1  0  0  0  0  0  0
  -28.2720  -30.8900   25.5930 C   0  0  0  0  0  1  0  0  0  0  0  0
  2  3  1  0
  2  1  1  0
  4  3  1  0
  5  4  1  0
  6  5  1  0
  7  8  1  0
  7  6  1  0
  9 10  1  0
  9  8  1  0
 10 11  1  0
 11 12  1  0
 13 12  1  0
 14 22  1  0
 15 20  1  0
 16 17  1  0
 16 15  1  0
 18 17  1  0
 18 27  1  0
 18 19  1  0
 20 14  1  0
 20 19  1  0
 21 14  2  0
 22 13  1  0
 22 23  1  0
 24 25  2  0
 25 44  1  0
 26 25  1  0
 26 29  1  0
 27 28  1  0
 27 24  1  0
 28 26  2  0
 29 30  1  0
 30 31  2  0
 32 35  1  0
 32 31  1  0
 33 32  2  0
 34 33  1  0
 34 29  2  0
 35 36  1  0
 36 37  1  0
 37 38  2  0
 39 38  1  0
 39 43  1  0
 40 39  2  0
 41 36  2  0
 41 40  1  0
 42 41  1  0
 44 45  1  0
 45 48  1  0
 45 47  1  0
 46 44  2  0
 49 24  1  0
 49 50  1  0
 51 49  1  0
 52  1  1  0
 53 54  1  0
 54 56  1  0
 54 52  1  0
 55 53  2  0
 57 53  1  0
 58 57  1  0
 59 58  1  0
 60 62  1  0
 60 59  1  0
 61 72  2  0
 62 67  1  0
 63 71  1  0
 63 73  1  0
 64 66  1  0
 64 70  1  0
 65 71  1  0
 66 65  1  0
 67 66  2  0
 68 69  1  0
 68 62  2  0
 69 64  2  0
 70 63  1  0
 71 61  1  0
 73 75  2  0
 74 73  1  0
 76 74  1  0
 77 86  2  0
 77 82  1  0
 78 74  1  0
 78 82  1  0
 79 78  1  0
 80 81  1  0
 80 79  1  0
 81 77  1  0
 82 83  2  0
 83 84  1  0
 85 84  2  0
 86 85  1  0
 87 61  1  0
 87 88  1  0
 87 97  1  0
 88 91  1  0
 89 88  1  0
 89 93  1  0
 90 89  2  0
 93 92  1  0
 93 95  1  0
 95 96  1  0
 95 94  1  0
 97100  1  1
 97 98  1  0
 99 97  1  0
M  ISO  4  14 100  22 100  59 101  60 101
M  END
>  <TORSDO>  (86) 
F 33

>  <SCORE>  (86) 
18.770

>  <name>  (86) 
92

>  <ligand_id>  (86) 
92

>  <original_smiles>  (86) 
[H]c1c([H])c([H])c2c(c1[H])C([H])([H])C([H])([H])C([H])([H])C2([H])N([H])C(=O)C1([H])N(C(=O)C([H])(N([H])C(=O)C([H])(N([H])C([H])([H])[H])C([H])([H])[H])C(C([H])([H])[H])(C([H])([H])[H])C([H])([H])[H])C([H])([H])c2c([H])c(OC([H])([H])C([H])([H])C([H])([H])C(=O)N([H])C([H])([H])C([H])([H])OC([H])([H])C([H])([H])OC([H])([H])C([H])([H])OC([H])([H])C([H])([H])OC([H])([H])C([H])([H])N([H])C(=O)N3C([H])([H])C([H])([H])C([H])([H])C([H])(n4nc(-c5c([H])c([H])c(Oc6c([H])c([H])c(F)c([H])c6F)c([H])c5[H])c(C(=O)N([H])[H])c4N([H])[H])C3([H])[H])c([H])c([H])c2C1([H])[H]

>  <smiles>  (86) 
[H]c1c([H])c([H])c2c(c1[H])C([H])([H])C([H])([H])C([H])([H])C2([H])N([H])C(=O)C1([H])N(C(=O)C([H])(N([H])C(=O)C([H])(N([H])C([H])([H])[H])C([H])([H])[H])C(C([H])([H])[H])(C([H])([H])[H])C([H])([H])[H])C([H])([H])c2c([H])c(OC([H])([H])C([H])([H])C([H])([H])C(=O)N([H])C([H])([H])C([H])([H])OC([H])([H])C([H])([H])OC([H])([H])C([H])([H])OC([H])([H])C([H])([H])OC([H])([H])C([H])([H])N([H])C(=O)N3C([H])([H])C([H])([H])C([H])([H])C([H])(n4nc(-c5c([H])c([H])c(Oc6c([H])c([H])c(F)c([H])c6F)c([H])c5[H])c(C(=O)N([H])[H])c4N([H])[H])C3([H])[H])c([H])c([H])c2C1([H])[H]

$$$$
93:0:0
     RDKit          3D

112119  0  0  1  0  0  0  0  0999 V2000
  -32.0670  -22.0570   20.4340 C   0  0  0  0  0  0  0  0  0  0  0  0
  -32.0230  -20.8150   19.8500 N   0  0  0  0  0  0  0  0  0  0  0  0
  -32.2600  -23.1020   19.8030 O   0  0  0  0  0  0  0  0  0  0  0  0
  -31.9450  -20.1040   20.5600 H   0  0  0  0  0  0  0  0  0  0  0  0
  -31.7520  -22.1420   22.0380 C   0  0  0  0  0  0  0  0  0  0  0  0
  -31.0000  -23.2030   22.4780 N   0  0  0  0  0  0  0  0  0  0  0  0
  -32.1540  -21.2480   22.7810 O   0  0  0  0  0  0  0  0  0  0  0  0
  -30.8830  -23.8670   21.7260 H   0  0  0  0  0  0  0  0  0  0  0  0
  -30.4940  -23.7260   23.8060 C   0  0  0  0  0  2  0  0  0  0  0  0
  -28.9690  -23.5560   24.3200 C   0  0  0  0  0  2  0  0  0  0  0  0
  -27.8700  -24.1410   23.5410 O   0  0  0  0  0  0  0  0  0  0  0  0
  -26.5150  -23.5470   23.5140 C   0  0  0  0  0  2  0  0  0  0  0  0
  -25.6350  -23.7040   22.1570 C   0  0  0  0  0  2  0  0  0  0  0  0
  -25.5660  -22.7160   20.8680 C   0  0  0  0  0  2  0  0  0  0  0  0
  -26.5920  -22.7220   19.7870 O   0  0  0  0  0  0  0  0  0  0  0  0
  -27.3420  -21.5930   19.1220 C   0  0  0  0  0  2  0  0  0  0  0  0
  -28.9540  -21.1270   19.3380 C   0  0  0  0  0  2  0  0  0  0  0  0
  -29.6040  -19.7830   19.7660 O   0  0  0  0  0  0  0  0  0  0  0  0
  -30.1080  -18.8210   20.8680 C   0  0  0  0  0  2  0  0  0  0  0  0
  -30.7110  -17.3410   20.4540 C   0  0  0  0  0  2  0  0  0  0  0  0
  -30.6700  -14.7560   20.4520 C   0  0  0  0  0  0  0  0  0  0  0  0
  -30.4070  -12.4650   19.4930 C   0  0  0  0  0  2  0  0  0  0  0  0
  -29.4990  -12.5010   18.2470 C   0  0  0  0  0  2  0  0  0  0  0  0
  -28.0300  -12.3160   18.6630 C   0  0  0  0  0  2  0  0  0  0  0  0
  -27.6290  -13.2450   19.8400 C   0  0  0  0  0  3  0  0  0  0  0  0
  -28.6710  -13.2340   20.9820 C   0  0  0  0  0  2  0  0  0  0  0  0
  -29.9770  -13.5630   20.3970 N   0  0  0  0  0  0  0  0  0  0  0  0
  -31.8540  -14.7720   20.1180 O   0  0  0  0  0  0  0  0  0  0  0  0
  -30.0360  -15.9750   20.6700 N   0  0  0  0  0  0  0  0  0  0  0  0
  -29.0540  -15.9670   20.9050 H   0  0  0  0  0  0  0  0  0  0  0  0
  -25.2440  -13.8250   20.5690 C   0  0  0  0  0  0  0  0  0  0  0  0
  -24.1720  -13.0430   20.9220 C   0  0  0  0  0  0  0  0  0  0  0  0
  -24.6340  -11.6940   20.8740 C   0  0  0  0  0  0  0  0  0  0  0  0
  -26.2860  -12.9430   20.3270 N   0  0  0  0  0  0  0  0  0  0  0  0
  -25.9280  -11.6560   20.5750 N   0  0  0  0  0  0  0  0  0  0  0  0
  -23.9030  -10.4290   21.0410 C   0  0  0  0  0  0  0  0  0  0  0  0
  -24.3600   -9.4210   21.9170 C   0  0  0  0  0  3  0  0  0  0  0  0
  -23.6300   -8.2230   22.0740 C   0  0  0  0  0  3  0  0  0  0  0  0
  -22.4270   -8.0270   21.3540 C   0  0  0  0  0  0  0  0  0  0  0  0
  -21.9900   -9.0230   20.4630 C   0  0  0  0  0  3  0  0  0  0  0  0
  -22.7220  -10.2130   20.3040 C   0  0  0  0  0  3  0  0  0  0  0  0
  -21.6640   -6.8870   21.4230 O   0  0  0  0  0  0  0  0  0  0  0  0
  -21.6840   -6.0730   22.5270 C   0  0  0  0  0  0  0  0  0  0  0  0
  -21.4030   -6.5630   23.8210 C   0  0  0  0  0  3  0  0  0  0  0  0
  -21.3670   -5.6800   24.9190 C   0  0  0  0  0  3  0  0  0  0  0  0
  -21.6020   -4.3050   24.7240 C   0  0  0  0  0  0  0  0  0  0  0  0
  -21.8820   -3.8130   23.4360 C   0  0  0  0  0  3  0  0  0  0  0  0
  -21.9200   -4.6960   22.3410 C   0  0  0  0  0  0  0  0  0  0  0  0
  -22.1650   -4.2120   21.1000 F   0  0  0  0  0  0  0  0  0  0  0  0
  -21.5630   -3.4530   25.7760 F   0  0  0  0  0  0  0  0  0  0  0  0
  -22.7760  -13.5220   21.1900 C   0  0  0  0  0  0  0  0  0  0  0  0
  -22.0440  -12.8100   22.0470 N   0  0  0  0  0  0  0  0  0  0  0  0
  -22.3390  -14.5480   20.6800 O   0  0  0  0  0  0  0  0  0  0  0  0
  -22.4130  -11.9790   22.4820 H   0  0  0  0  0  0  0  0  0  0  0  0
  -21.1060  -13.1090   22.2750 H   0  0  0  0  0  0  0  0  0  0  0  0
  -25.4110  -15.1950   20.4180 N   0  0  0  0  0  0  0  0  0  0  0  0
  -24.6500  -15.8550   20.5310 H   0  0  0  0  0  0  0  0  0  0  0  0
  -26.2740  -15.6350   20.1250 H   0  0  0  0  0  0  0  0  0  0  0  0
  -32.1660  -20.2160   18.4580 C   0  0  0  0  0  2  0  0  0  0  0  0
  -30.9720  -19.6260   17.5080 C   0  0  0  0  0  2  0  0  0  0  0  0
  -30.0340  -18.5120   17.8610 O   0  0  0  0  0  0  0  0  0  0  0  0
  -28.5430  -18.6340   17.7850 C   0  0  0  0  0  2  0  0  0  0  0  0
  -27.4560  -18.4400   19.0140 C   0  0  0  0  0  2  0  0  0  0  0  0
  -27.5780  -18.7570   20.4800 O   0  0  0  0  0  0  0  0  0  0  0  0
  -27.3450  -19.9620   21.3640 C   0  0  0  0  0  2  0  0  0  0  0  0
  -28.3860  -21.2010   21.8840 C   0  0  0  0  0  2  0  0  0  0  0  0
  -28.2540  -22.7520   21.5900 N   0  0  0  0  0  4  0  0  0  0  0  0
  -27.2700  -22.8220   21.3600 H   0  0  0  0  0  0  0  0  0  0  0  0
  -28.3190  -23.1920   22.5120 H   0  0  0  0  0  0  0  0  0  0  0  0
  -28.8320  -23.9070   20.6660 C   0  0  0  0  0  2  0  0  0  0  0  0
  -28.4670  -25.4350   21.0910 C   0  0  0  0  0  2  0  0  0  0  0  0
  -28.3860  -26.5180   20.0980 O   0  0  0  0  0  0  0  0  0  0  0  0
  -24.6280  -31.8560   23.1940 C   0  0  0  0  0  0  0  0  0  0  0  0
  -27.2530  -27.3370   20.1210 C   0  0  0  0  0  0  0  0  0  0  0  0
  -23.4250  -30.4720   21.5380 C   0  0  0  0  0  3  0  0  0  0  0  0
  -24.8790  -28.9160   20.1190 C   0  0  0  0  0  0  0  0  0  0  0  0
  -25.9590  -30.7970   21.3540 C   0  0  0  0  0  2  0  0  0  0  0  0
  -26.0450  -29.4160   20.7160 C   0  0  0  0  0  0  0  0  0  0  0  0
  -27.2380  -28.6380   20.7040 C   0  0  0  0  0  3  0  0  0  0  0  0
  -26.0660  -26.8720   19.5150 C   0  0  0  0  0  3  0  0  0  0  0  0
  -24.8900  -27.6500   19.5080 C   0  0  0  0  0  3  0  0  0  0  0  0
  -23.6410  -29.7900   20.1590 C   0  0  0  0  0  2  0  0  0  0  0  0
  -24.6910  -31.0570   22.0890 N   0  0  0  0  0  0  0  0  0  0  0  0
  -23.5430  -32.1340   23.7270 O   0  0  0  0  0  0  0  0  0  0  0  0
  -22.7510  -29.4610   22.4970 C   0  0  0  0  0  0  0  0  0  0  0  0
  -21.4210  -29.3060   22.3700 N   0  0  0  0  0  0  0  0  0  0  0  0
  -23.4240  -28.8140   23.3030 O   0  0  0  0  0  0  0  0  0  0  0  0
  -20.9420  -29.8750   21.6870 H   0  0  0  0  0  0  0  0  0  0  0  0
  -18.0310  -28.1430   22.8480 C   0  0  0  0  0  0  0  0  0  0  0  0
  -20.5900  -28.3720   23.1310 C   0  0  0  0  0  3  0  0  0  0  0  0
  -20.6820  -26.9450   22.5410 C   0  0  0  0  0  2  0  0  0  0  0  0
  -19.5800  -26.6430   21.5210 C   0  0  0  0  0  2  0  0  0  0  0  0
  -18.1970  -26.7980   22.1600 C   0  0  0  0  0  2  0  0  0  0  0  0
  -19.1550  -28.8910   23.2880 C   0  0  0  0  0  0  0  0  0  0  0  0
  -18.9460  -30.1490   23.8930 C   0  0  0  0  0  3  0  0  0  0  0  0
  -17.6460  -30.6610   24.0600 C   0  0  0  0  0  3  0  0  0  0  0  0
  -16.5360  -29.9100   23.6330 C   0  0  0  0  0  3  0  0  0  0  0  0
  -16.7300  -28.6540   23.0330 C   0  0  0  0  0  3  0  0  0  0  0  0
  -25.9100  -32.4760   23.8300 C   0  0  0  0  0  3  0  0  0  0  0  0
  -25.5890  -33.8550   24.2250 N   0  0  0  0  0  0  0  0  0  0  0  0
  -25.9040  -34.9440   23.5080 C   0  0  0  0  0  0  0  0  0  0  0  0
  -26.5620  -34.8930   22.4650 O   0  0  0  0  0  0  0  0  0  0  0  0
  -25.0030  -33.9710   25.0390 H   0  0  0  0  0  0  0  0  0  0  0  0
  -24.1510  -36.7320   23.2630 C   0  0  0  0  0  1  0  0  0  0  0  0
  -25.4120  -36.3070   24.0310 C   0  0  0  0  0  3  0  0  0  0  0  0
  -27.5580  -37.1810   24.8460 C   0  0  0  0  0  1  0  0  0  0  0  0
  -26.4310  -37.3750   23.9380 N   0  0  0  0  0  0  0  0  0  0  0  0
  -26.0180  -38.2840   24.1330 H   0  0  0  0  0  0  0  0  0  0  0  0
  -26.4490  -31.6560   25.0670 C   0  0  1  0  0  0  0  0  0  0  0  0
  -25.3720  -31.3700   26.1410 C   0  0  0  0  0  1  0  0  0  0  0  0
  -27.0310  -30.2990   24.6060 C   0  0  0  0  0  1  0  0  0  0  0  0
  -27.6060  -32.4280   25.7460 C   0  0  0  0  0  1  0  0  0  0  0  0
  1  5  1  0
  2  1  1  0
  2  4  1  0
  3  1  2  0
  5  6  1  0
  5  7  2  0
  6  9  1  0
  8  6  1  0
  9 10  1  0
 11 10  1  0
 12 11  1  0
 13 12  1  0
 14 13  1  0
 15 14  1  0
 16 17  1  0
 16 15  1  0
 17 18  1  0
 18 19  1  0
 20 29  1  0
 20 19  1  0
 21 29  1  0
 22 27  1  0
 23 24  1  0
 23 22  1  0
 25 24  1  0
 25 34  1  0
 25 26  1  0
 27 21  1  0
 27 26  1  0
 28 21  2  0
 29 30  1  0
 31 32  2  0
 32 51  1  0
 33 32  1  0
 33 36  1  0
 34 31  1  0
 34 35  1  0
 35 33  2  0
 36 37  1  0
 37 38  2  0
 39 42  1  0
 39 38  1  0
 40 39  2  0
 41 40  1  0
 41 36  2  0
 42 43  1  0
 43 44  1  0
 44 45  2  0
 46 45  1  0
 46 50  1  0
 47 46  2  0
 48 43  2  0
 48 47  1  0
 49 48  1  0
 51 52  1  0
 52 55  1  0
 52 54  1  0
 53 51  2  0
 56 57  1  0
 56 31  1  0
 58 56  1  0
 59  2  1  0
 60 61  1  0
 60 59  1  0
 62 61  1  0
 62 63  1  0
 63 64  1  0
 64 65  1  0
 65 66  1  0
 67 66  1  0
 67 69  1  0
 68 67  1  0
 70 71  1  0
 70 67  1  0
 72 74  1  0
 72 71  1  0
 73 84  2  0
 74 79  1  0
 75 83  1  0
 75 85  1  0
 76 82  1  0
 76 78  1  0
 77 83  1  0
 78 77  1  0
 79 78  2  0
 80 74  2  0
 81 80  1  0
 81 76  2  0
 82 75  1  0
 83 73  1  0
 85 87  2  0
 86 85  1  0
 88 86  1  0
 89 98  2  0
 89 94  1  0
 90 86  1  0
 90 94  1  0
 91 90  1  0
 92 93  1  0
 92 91  1  0
 93 89  1  0
 94 95  2  0
 95 96  1  0
 97 96  2  0
 98 97  1  0
 99 73  1  0
 99100  1  0
 99109  1  0
100103  1  0
101105  1  0
101100  1  0
102101  2  0
105104  1  0
107105  1  0
107108  1  0
107106  1  0
109112  1  1
109110  1  0
111109  1  0
M  ISO  4  21 100  29 100  71 101  72 101
M  END
>  <TORSDO>  (87) 
F 40

>  <SCORE>  (87) 
-3.760

>  <name>  (87) 
93

>  <ligand_id>  (87) 
93

>  <original_smiles>  (87) 
[H]c1c([H])c([H])c2c(c1[H])C([H])([H])C([H])([H])C([H])([H])C2([H])N([H])C(=O)C1([H])N(C(=O)C([H])(N([H])C(=O)C([H])(N([H])C([H])([H])[H])C([H])([H])[H])C(C([H])([H])[H])(C([H])([H])[H])C([H])([H])[H])C([H])([H])c2c([H])c(OC([H])([H])C([H])([H])[N+]([H])([H])C([H])([H])C([H])([H])OC([H])([H])C([H])([H])OC([H])([H])C([H])([H])N([H])C(=O)C(=O)N([H])C([H])([H])C([H])([H])OC([H])([H])C([H])([H])C([H])([H])OC([H])([H])C([H])([H])OC([H])([H])C([H])([H])N([H])C(=O)N3C([H])([H])C([H])([H])C([H])([H])C([H])(n4nc(-c5c([H])c([H])c(Oc6c([H])c([H])c(F)c([H])c6F)c([H])c5[H])c(C(=O)N([H])[H])c4N([H])[H])C3([H])[H])c([H])c([H])c2C1([H])[H]

>  <smiles>  (87) 
[H]c1c([H])c([H])c2c(c1[H])C([H])([H])C([H])([H])C([H])([H])C2([H])N([H])C(=O)C1([H])N(C(=O)C([H])(N([H])C(=O)C([H])(N([H])C([H])([H])[H])C([H])([H])[H])C(C([H])([H])[H])(C([H])([H])[H])C([H])([H])[H])C([H])([H])c2c([H])c(OC([H])([H])C([H])([H])[N+]([H])([H])C([H])([H])C([H])([H])OC([H])([H])C([H])([H])OC([H])([H])C([H])([H])N([H])C(=O)C(=O)N([H])C([H])([H])C([H])([H])OC([H])([H])C([H])([H])C([H])([H])OC([H])([H])C([H])([H])OC([H])([H])C([H])([H])N([H])C(=O)N3C([H])([H])C([H])([H])C([H])([H])C([H])(n4nc(-c5c([H])c([H])c(Oc6c([H])c([H])c(F)c([H])c6F)c([H])c5[H])c(C(=O)N([H])[H])c4N([H])[H])C3([H])[H])c([H])c([H])c2C1([H])[H]

$$$$
94:0:0
     RDKit          3D

113117  0  0  1  0  0  0  0  0999 V2000
  -19.3810  -13.8120   24.2570 C   0  0  0  0  0  0  0  0  0  0  0  0
  -18.7450  -15.0210   24.2140 N   0  0  0  0  0  0  0  0  0  0  0  0
  -19.3930  -13.1420   25.2930 O   0  0  0  0  0  0  0  0  0  0  0  0
  -18.6650  -15.4580   23.3030 H   0  0  0  0  0  0  0  0  0  0  0  0
  -18.4740  -15.9200   25.3920 C   0  0  0  0  0  2  0  0  0  0  0  0
  -17.3010  -16.9550   25.4240 C   0  0  0  0  0  0  0  0  0  0  0  0
  -16.9140  -17.4260   26.6440 N   0  0  0  0  0  0  0  0  0  0  0  0
  -16.8960  -17.4300   24.3600 O   0  0  0  0  0  0  0  0  0  0  0  0
  -17.2270  -16.8850   27.4380 H   0  0  0  0  0  0  0  0  0  0  0  0
  -16.1980  -18.6730   27.0410 C   0  0  0  0  0  2  0  0  0  0  0  0
  -14.6910  -18.7110   26.7050 C   0  0  0  0  0  0  0  0  0  0  0  0
  -13.9500  -19.7410   27.1610 N   0  0  0  0  0  0  0  0  0  0  0  0
  -14.2040  -17.8400   25.9920 O   0  0  0  0  0  0  0  0  0  0  0  0
  -14.3960  -20.3800   27.8190 H   0  0  0  0  0  0  0  0  0  0  0  0
  -12.5660  -20.0770   26.7890 C   0  0  0  0  0  2  0  0  0  0  0  0
  -12.4780  -20.9100   25.4770 C   0  0  0  0  0  3  0  0  0  0  0  0
  -13.5130  -22.0600   25.3330 C   0  0  0  0  0  3  0  0  0  0  0  0
  -13.5030  -23.0290   23.9970 C   0  0  0  0  0  3  0  0  0  0  0  0
  -15.5540  -23.1650   21.7010 C   0  0  0  0  0 15  0  0  0  0  0  0
  -17.4400  -24.0690   21.8270 O   0  0  0  0  0  1  0  0  0  0  0  0
  -17.1500  -24.6160   16.5890 C   0  0  0  0  0  0  0  0  0  0  0  0
  -18.9810  -24.1440   21.6580 C   0  0  0  0  0  3  0  0  0  0  0  0
  -16.8590  -23.0720   18.4300 C   0  0  0  0  0  3  0  0  0  0  0  0
  -18.8740  -22.4370   19.9150 C   0  0  0  0  0  3  0  0  0  0  0  0
  -19.1610  -23.9660   17.9410 C   0  0  0  0  0  2  0  0  0  0  0  0
  -19.3930  -23.6300   19.4090 C   0  0  0  0  0  3  0  0  0  0  0  0
  -19.6210  -24.5810   20.4180 C   0  0  0  0  0  2  0  0  0  0  0  0
  -19.6510  -23.0300   22.1180 C   0  0  0  0  0  2  0  0  0  0  0  0
  -19.1820  -22.0460   21.2470 C   0  0  0  0  0  2  0  0  0  0  0  0
  -17.6240  -21.9600   19.2410 C   0  0  0  0  0  2  0  0  0  0  0  0
  -17.7390  -23.8710   17.5660 N   0  0  0  0  0  0  0  0  0  0  0  0
  -15.9290  -24.5530   16.3580 O   0  0  0  0  0  0  0  0  0  0  0  0
  -16.0720  -24.1280   19.2170 C   0  0  0  0  0  0  0  0  0  0  0  0
  -14.7960  -24.1000   19.0750 N   0  0  0  0  0  0  0  0  0  0  0  0
  -16.5690  -24.9920   19.9270 O   0  0  0  0  0  0  0  0  0  0  0  0
  -14.3720  -23.4230   18.4430 H   0  0  0  0  0  0  0  0  0  0  0  0
  -11.5170  -23.1270   19.6280 C   0  0  0  0  0  0  0  0  0  0  0  0
  -13.9320  -24.7360   20.0240 C   0  0  0  0  0  2  0  0  0  0  0  0
  -14.1350  -24.6460   22.1550 C   0  0  0  0  0 15  0  0  0  0  0  0
  -12.7220  -23.0360   22.7320 C   0  0  0  0  0  0  0  0  0  0  0  0
  -11.6820  -22.3740   21.2280 C   0  0  0  0  0  3  0  0  0  0  0  0
  -12.5710  -24.0810   19.1020 C   0  0  0  0  0  0  0  0  0  0  0  0
  -12.3080  -24.7350   17.8430 C   0  0  0  0  0  3  0  0  0  0  0  0
  -11.0880  -24.6490   17.1300 C   0  0  0  0  0  3  0  0  0  0  0  0
  -10.0120  -23.9600   17.7040 C   0  0  0  0  0  3  0  0  0  0  0  0
  -10.2280  -23.2420   18.9270 C   0  0  0  0  0  3  0  0  0  0  0  0
  -17.9850  -25.5590   15.7100 C   0  0  0  0  0  3  0  0  0  0  0  0
  -18.2580  -26.9710   16.3650 C   0  0  1  0  0  0  0  0  0  0  0  0
  -17.0370  -27.5660   17.1090 C   0  0  0  0  0  1  0  0  0  0  0  0
  -19.4260  -26.9000   17.3710 C   0  0  0  0  0  1  0  0  0  0  0  0
  -18.7020  -27.9580   15.2660 C   0  0  0  0  0  1  0  0  0  0  0  0
  -17.2320  -25.7120   14.4600 N   0  0  0  0  0  0  0  0  0  0  0  0
  -17.3710  -24.9160   13.3930 C   0  0  0  0  0  0  0  0  0  0  0  0
  -18.2370  -24.0420   13.3320 O   0  0  0  0  0  0  0  0  0  0  0  0
  -16.4550  -26.3610   14.4910 H   0  0  0  0  0  0  0  0  0  0  0  0
  -15.3170  -24.0440   12.2300 C   0  0  0  0  0  1  0  0  0  0  0  0
  -16.4010  -25.1330   12.2150 C   0  0  0  0  0  3  0  0  0  0  0  0
  -17.8950  -26.3310   10.6880 C   0  0  0  0  0  1  0  0  0  0  0  0
  -17.0860  -25.1370   10.9080 N   0  0  0  0  0  0  0  0  0  0  0  0
  -16.4120  -25.0640   10.1510 H   0  0  0  0  0  0  0  0  0  0  0  0
  -20.2150  -13.2400   23.0550 C   0  0  0  0  0  2  0  0  0  0  0  0
  -22.0520  -11.4330   22.9940 C   0  0  0  0  0  0  0  0  0  0  0  0
  -21.2080  -12.2750   23.6450 N   0  0  0  0  0  0  0  0  0  0  0  0
  -21.7860  -11.1470   21.8240 O   0  0  0  0  0  0  0  0  0  0  0  0
  -21.3180  -12.3550   24.6490 H   0  0  0  0  0  0  0  0  0  0  0  0
  -23.2770  -10.7200   23.7140 C   0  0  0  0  0  2  0  0  0  0  0  0
  -24.5000  -10.4980   22.9010 O   0  0  0  0  0  0  0  0  0  0  0  0
  -25.5070   -9.4880   23.3970 C   0  0  0  0  0  2  0  0  0  0  0  0
  -26.6560   -8.6240   22.5340 C   0  0  0  0  0  2  0  0  0  0  0  0
  -27.7240   -9.0720   21.5190 O   0  0  0  0  0  0  0  0  0  0  0  0
  -28.2670   -8.4260   20.2030 C   0  0  0  0  0  3  0  0  0  0  0  0
  -28.6510   -9.0850   18.6200 C   0  0  0  0  0  3  0  0  0  0  0  0
  -28.4060  -10.5840   17.9740 O   0  0  0  0  0  0  0  0  0  0  0  0
  -29.1690  -12.0010   17.5430 C   0  0  0  0  0  2  0  0  0  0  0  0
  -30.1880  -13.3170   18.2650 C   0  0  0  0  0  2  0  0  0  0  0  0
  -32.3500  -13.3050   20.3810 C   0  0  0  0  0  0  0  0  0  0  0  0
  -32.5450  -11.0960   20.5780 C   0  0  0  0  0  2  0  0  0  0  0  0
  -31.8510  -10.8380   19.3060 C   0  0  0  0  0  2  0  0  0  0  0  0
  -30.3740  -10.9880   19.7510 C   0  0  0  0  0  2  0  0  0  0  0  0
  -29.6760  -12.2820   20.6210 C   0  0  0  0  0  3  0  0  0  0  0  0
  -30.6300  -12.2180   21.7880 C   0  0  0  0  0  2  0  0  0  0  0  0
  -31.9580  -12.2830   21.1630 N   0  0  0  0  0  0  0  0  0  0  0  0
  -33.5340  -13.6240   20.5840 O   0  0  0  0  0  0  0  0  0  0  0  0
  -31.6130  -13.5500   19.1150 N   0  0  0  0  0  0  0  0  0  0  0  0
  -32.2480  -14.0080   18.4870 H   0  0  0  0  0  0  0  0  0  0  0  0
  -27.5060  -13.9440   20.6730 C   0  0  0  0  0  3  0  0  0  0  0  0
  -26.1670  -13.6030   20.7250 C   0  0  0  0  0  0  0  0  0  0  0  0
  -26.1070  -12.2020   20.5880 C   0  0  0  0  0  0  0  0  0  0  0  0
  -28.2210  -12.7170   20.6820 N   0  0  0  0  0  0  0  0  0  0  0  0
  -27.3280  -11.7620   20.7540 N   0  0  0  0  0  2  0  0  0  0  0  0
  -24.9790  -11.2370   20.3940 C   0  0  0  0  0  0  0  0  0  0  0  0
  -25.1420   -9.8860   20.6660 C   0  0  0  0  0  3  0  0  0  0  0  0
  -24.1410   -8.9330   20.6970 C   0  0  0  0  0  3  0  0  0  0  0  0
  -22.9180   -9.3020   20.1360 C   0  0  0  0  0  0  0  0  0  0  0  0
  -22.7570  -10.6080   19.6410 C   0  0  0  0  0  3  0  0  0  0  0  0
  -23.7870  -11.5770   19.7500 C   0  0  0  0  0  3  0  0  0  0  0  0
  -21.9140   -8.4000   19.9330 O   0  0  0  0  0  0  0  0  0  0  0  0
  -21.7170   -7.3480   20.7950 C   0  0  0  0  0  0  0  0  0  0  0  0
  -21.6030   -7.5640   22.1810 C   0  0  0  0  0  3  0  0  0  0  0  0
  -21.3350   -6.4910   23.0560 C   0  0  0  0  0  3  0  0  0  0  0  0
  -21.1230   -5.1990   22.5250 C   0  0  0  0  0  0  0  0  0  0  0  0
  -21.2230   -4.9810   21.1340 C   0  0  0  0  0  3  0  0  0  0  0  0
  -21.5450   -6.0470   20.2760 C   0  0  0  0  0  0  0  0  0  0  0  0
  -21.6790   -5.8320   18.9420 F   0  0  0  0  0  0  0  0  0  0  0  0
  -20.7900   -4.1810   23.3480 F   0  0  0  0  0  0  0  0  0  0  0  0
  -24.9380  -14.4660   20.7620 C   0  0  0  0  0  0  0  0  0  0  0  0
  -23.8690  -13.9380   21.3600 N   0  0  0  0  0  0  0  0  0  0  0  0
  -24.9120  -15.5820   20.2470 O   0  0  0  0  0  0  0  0  0  0  0  0
  -23.9610  -13.0170   21.7600 H   0  0  0  0  0  0  0  0  0  0  0  0
  -22.9470  -14.2560   21.1090 H   0  0  0  0  0  0  0  0  0  0  0  0
  -28.1260  -15.1970   20.6480 N   0  0  0  0  0  0  0  0  0  0  0  0
  -27.5920  -16.0620   20.5040 H   0  0  0  0  0  0  0  0  0  0  0  0
  -29.1210  -15.3330   20.4900 H   0  0  0  0  0  0  0  0  0  0  0  0
  1  3  2  0
  2  1  1  0
  2  5  1  0
  4  2  1  0
  5  6  1  0
  6  7  1  0
  7 10  1  0
  7  9  1  0
  8  6  2  0
 11 10  1  0
 11 12  1  0
 12 14  1  0
 13 11  2  0
 15 12  1  0
 16 15  1  0
 17 16  2  0
 18 17  1  0
 21 31  1  0
 22 20  1  0
 22 28  1  0
 23 33  1  0
 23 30  1  0
 24 30  1  0
 24 29  1  0
 26 25  1  0
 26 24  1  0
 26 27  1  0
 27 22  1  0
 29 28  1  0
 31 25  1  0
 31 23  1  0
 32 21  2  0
 33 35  2  0
 34 33  1  0
 34 38  1  0
 36 34  1  0
 37 41  1  0
 40 18  2  0
 41 40  2  0
 42 37  1  0
 42 38  1  0
 43 42  2  0
 44 45  2  0
 44 43  1  0
 45 46  1  0
 46 37  2  0
 47 48  1  0
 47 21  1  0
 48 49  1  1
 48 50  1  0
 51 48  1  0
 52 55  1  0
 52 47  1  0
 53 52  1  0
 54 53  2  0
 57 56  1  0
 57 53  1  0
 58 59  1  0
 59 57  1  0
 60 59  1  0
 61 63  1  0
 61  1  1  0
 62 63  1  0
 62 66  1  0
 63 65  1  0
 64 62  2  0
 67 68  1  0
 67 66  1  0
 69 68  1  0
 70 69  1  0
 71 70  1  0
 72 71  2  0
 73 72  1  0
 74 73  1  0
 74 75  1  0
 75 84  1  0
 76 83  2  0
 76 82  1  0
 77 82  1  0
 78 79  1  0
 78 77  1  0
 80 79  1  0
 80 89  1  0
 80 81  1  0
 82 81  1  0
 84 76  1  0
 85 84  1  0
 86111  1  0
 86 89  1  0
 86 87  1  0
 87106  1  0
 88 87  2  0
 88 90  1  0
 89 90  1  0
 91 88  1  0
 91 92  1  0
 92 93  2  0
 94 93  1  0
 95 96  1  0
 95 94  2  0
 96 91  2  0
 97 94  1  0
 97 98  1  0
 98 99  1  0
 99100  2  0
101100  1  0
101105  1  0
102101  2  0
103 98  2  0
103102  1  0
104103  1  0
106107  1  0
107109  1  0
108106  2  0
110107  1  0
112111  1  0
113111  1  0
M  ISO  4  19 101  20 101  76 100  84 100
M  END
>  <TORSDO>  (88) 
F 37

>  <SCORE>  (88) 
18.476

>  <name>  (88) 
94

>  <ligand_id>  (88) 
94

>  <original_smiles>  (88) 
[H]c1c([H])c([H])c2c(c1[H])C([H])([H])C([H])([H])C([H])([H])C2([H])N([H])C(=O)C1([H])N(C(=O)C([H])(N([H])C(=O)C([H])(N([H])C([H])([H])[H])C([H])([H])[H])C(C([H])([H])[H])(C([H])([H])[H])C([H])([H])[H])C([H])([H])c2c([H])c(OC([H])([H])C([H])([H])C([H])([H])C([H])([H])C([H])([H])N([H])C(=O)C([H])([H])N([H])C(=O)C([H])([H])N([H])C(=O)C([H])([H])N([H])C(=O)C([H])([H])OC([H])([H])C([H])([H])OC([H])([H])C([H])([H])OC([H])([H])C([H])([H])N([H])C(=O)N3C([H])([H])C([H])([H])C([H])([H])C([H])(n4nc(-c5c([H])c([H])c(Oc6c([H])c([H])c(F)c([H])c6F)c([H])c5[H])c(C(=O)N([H])[H])c4N([H])[H])C3([H])[H])c([H])c([H])c2C1([H])[H]

>  <smiles>  (88) 
[H]c1c([H])c([H])c2c(c1[H])C([H])([H])C([H])([H])C([H])([H])C2([H])N([H])C(=O)C1([H])N(C(=O)C([H])(N([H])C(=O)C([H])(N([H])C([H])([H])[H])C([H])([H])[H])C(C([H])([H])[H])(C([H])([H])[H])C([H])([H])[H])C([H])([H])c2c([H])c(OC([H])([H])C([H])([H])C([H])([H])C([H])([H])C([H])([H])N([H])C(=O)C([H])([H])N([H])C(=O)C([H])([H])N([H])C(=O)C([H])([H])N([H])C(=O)C([H])([H])OC([H])([H])C([H])([H])OC([H])([H])C([H])([H])OC([H])([H])C([H])([H])N([H])C(=O)N3C([H])([H])C([H])([H])C([H])([H])C([H])(n4nc(-c5c([H])c([H])c(Oc6c([H])c([H])c(F)c([H])c6F)c([H])c5[H])c(C(=O)N([H])[H])c4N([H])[H])C3([H])[H])c([H])c([H])c2C1([H])[H]

$$$$
95:0:0
     RDKit          3D

 93100  0  0  1  0  0  0  0  0999 V2000
  -27.3650  -22.7200   20.8430 C   0  0  0  0  0  0  0  0  0  0  0  0
  -27.4500  -21.5570   20.1880 N   0  0  0  0  0  0  0  0  0  0  0  0
  -27.5980  -22.8210   22.0510 O   0  0  0  0  0  0  0  0  0  0  0  0
  -27.1960  -21.5580   19.2080 H   0  0  0  0  0  0  0  0  0  0  0  0
  -28.0200  -20.3220   20.7230 C   0  0  0  0  0  2  0  0  0  0  0  0
  -29.5350  -20.4590   20.9700 C   0  0  0  0  0  2  0  0  0  0  0  0
  -30.2720  -21.1460   19.8060 C   0  0  0  0  0  2  0  0  0  0  0  0
  -31.6170  -21.7690   20.2080 C   0  0  0  0  0  2  0  0  0  0  0  0
  -32.6600  -21.5400   19.1080 C   0  0  0  0  0  2  0  0  0  0  0  0
  -34.1160  -21.7120   19.5570 C   0  0  0  0  0  2  0  0  0  0  0  0
  -35.9650  -20.1000   19.1610 C   0  0  0  0  0  0  0  0  0  0  0  0
  -36.5430  -17.7280   19.4170 C   0  0  0  0  0  2  0  0  0  0  0  0
  -35.9930  -16.9410   18.2130 C   0  0  0  0  0  2  0  0  0  0  0  0
  -34.5400  -16.4920   18.4680 C   0  0  0  0  0  2  0  0  0  0  0  0
  -33.6370  -17.6490   18.9750 C   0  0  0  0  0  3  0  0  0  0  0  0
  -34.3270  -18.4230   20.1210 C   0  0  0  0  0  2  0  0  0  0  0  0
  -35.6460  -18.8700   19.6430 N   0  0  0  0  0  0  0  0  0  0  0  0
  -37.0950  -20.4080   18.7860 O   0  0  0  0  0  0  0  0  0  0  0  0
  -34.9490  -20.8500   18.7300 N   0  0  0  0  0  0  0  0  0  0  0  0
  -35.2410  -21.3460   17.9010 H   0  0  0  0  0  0  0  0  0  0  0  0
  -31.1960  -17.8780   19.7640 C   0  0  0  0  0  0  0  0  0  0  0  0
  -30.2040  -16.9530   19.9480 C   0  0  0  0  0  0  0  0  0  0  0  0
  -30.7840  -15.6860   19.6360 C   0  0  0  0  0  0  0  0  0  0  0  0
  -32.3160  -17.1630   19.3690 N   0  0  0  0  0  0  0  0  0  0  0  0
  -32.0700  -15.8270   19.3430 N   0  0  0  0  0  0  0  0  0  0  0  0
  -30.1720  -14.3510   19.5420 C   0  0  0  0  0  0  0  0  0  0  0  0
  -30.3980  -13.3650   20.5280 C   0  0  0  0  0  3  0  0  0  0  0  0
  -29.7830  -12.0980   20.4250 C   0  0  0  0  0  3  0  0  0  0  0  0
  -28.9320  -11.8070   19.3300 C   0  0  0  0  0  0  0  0  0  0  0  0
  -28.7320  -12.7850   18.3410 C   0  0  0  0  0  3  0  0  0  0  0  0
  -29.3470  -14.0450   18.4420 C   0  0  0  0  0  3  0  0  0  0  0  0
  -28.3140  -10.5970   19.1330 O   0  0  0  0  0  0  0  0  0  0  0  0
  -27.6930   -9.9310   20.1600 C   0  0  0  0  0  0  0  0  0  0  0  0
  -26.5910  -10.4840   20.8500 C   0  0  0  0  0  3  0  0  0  0  0  0
  -25.9380   -9.7380   21.8490 C   0  0  0  0  0  3  0  0  0  0  0  0
  -26.3810   -8.4370   22.1580 C   0  0  0  0  0  0  0  0  0  0  0  0
  -27.4750   -7.8830   21.4720 C   0  0  0  0  0  3  0  0  0  0  0  0
  -28.1270   -8.6280   20.4730 C   0  0  0  0  0  0  0  0  0  0  0  0
  -29.1660   -8.0810   19.7980 F   0  0  0  0  0  0  0  0  0  0  0  0
  -25.7500   -7.7160   23.1150 F   0  0  0  0  0  0  0  0  0  0  0  0
  -28.7720  -17.2350   20.3000 C   0  0  0  0  0  0  0  0  0  0  0  0
  -28.1240  -16.3200   21.0140 N   0  0  0  0  0  0  0  0  0  0  0  0
  -28.2330  -18.2960   19.9880 O   0  0  0  0  0  0  0  0  0  0  0  0
  -28.5700  -15.4550   21.2830 H   0  0  0  0  0  0  0  0  0  0  0  0
  -27.1680  -16.4840   21.2920 H   0  0  0  0  0  0  0  0  0  0  0  0
  -31.2250  -19.2640   19.8800 N   0  0  0  0  0  0  0  0  0  0  0  0
  -30.4050  -19.7990   20.1400 H   0  0  0  0  0  0  0  0  0  0  0  0
  -32.0350  -19.8410   19.6980 H   0  0  0  0  0  0  0  0  0  0  0  0
  -27.0080  -23.9550   20.0070 C   0  0  0  0  0  2  0  0  0  0  0  0
  -27.5930  -25.1230   20.5740 O   0  0  0  0  0  0  0  0  0  0  0  0
  -28.0630  -26.0210   19.5800 C   0  0  0  0  0  2  0  0  0  0  0  0
  -28.7450  -27.2290   20.2460 C   0  0  0  0  0  2  0  0  0  0  0  0
  -28.4770  -28.4300   19.5310 O   0  0  0  0  0  0  0  0  0  0  0  0
  -24.8420  -32.1770   24.3630 C   0  0  0  0  0  0  0  0  0  0  0  0
  -27.2980  -29.0330   19.8780 C   0  0  0  0  0  0  0  0  0  0  0  0
  -23.5190  -31.2550   22.4860 C   0  0  0  0  0  3  0  0  0  0  0  0
  -24.8690  -30.2950   20.5470 C   0  0  0  0  0  0  0  0  0  0  0  0
  -25.9980  -31.8050   22.1900 C   0  0  0  0  0  2  0  0  0  0  0  0
  -26.0590  -30.6910   21.1700 C   0  0  0  0  0  0  0  0  0  0  0  0
  -27.2770  -30.0610   20.8420 C   0  0  0  0  0  3  0  0  0  0  0  0
  -26.0980  -28.6520   19.2440 C   0  0  0  0  0  3  0  0  0  0  0  0
  -24.8780  -29.2730   19.5830 C   0  0  0  0  0  3  0  0  0  0  0  0
  -23.6100  -31.0240   20.9530 C   0  0  0  0  0  2  0  0  0  0  0  0
  -24.8100  -31.7430   23.0720 N   0  0  0  0  0  0  0  0  0  0  0  0
  -23.8130  -32.2150   25.0500 O   0  0  0  0  0  0  0  0  0  0  0  0
  -22.9990  -29.9590   23.1460 C   0  0  0  0  0  0  0  0  0  0  0  0
  -21.7510  -29.5830   22.8200 N   0  0  0  0  0  0  0  0  0  0  0  0
  -23.7150  -29.3040   23.9070 O   0  0  0  0  0  0  0  0  0  0  0  0
  -21.2250  -30.1810   22.2000 H   0  0  0  0  0  0  0  0  0  0  0  0
  -18.7750  -27.5840   22.3950 C   0  0  0  0  0  0  0  0  0  0  0  0
  -21.0670  -28.3780   23.2860 C   0  0  0  0  0  3  0  0  0  0  0  0
  -21.6510  -27.1110   22.6230 C   0  0  0  0  0  2  0  0  0  0  0  0
  -20.9030  -26.6960   21.3520 C   0  0  0  0  0  2  0  0  0  0  0  0
  -19.4280  -26.4250   21.6610 C   0  0  0  0  0  2  0  0  0  0  0  0
  -19.5460  -28.5110   23.1450 C   0  0  0  0  0  0  0  0  0  0  0  0
  -18.8920  -29.5920   23.7760 C   0  0  0  0  0  3  0  0  0  0  0  0
  -17.4980  -29.7520   23.6720 C   0  0  0  0  0  3  0  0  0  0  0  0
  -16.7380  -28.8220   22.9410 C   0  0  0  0  0  3  0  0  0  0  0  0
  -17.3760  -27.7400   22.3080 C   0  0  0  0  0  3  0  0  0  0  0  0
  -26.1660  -32.6660   25.0300 C   0  0  0  0  0  3  0  0  0  0  0  0
  -26.5840  -31.8070   26.2840 C   0  0  1  0  0  0  0  0  0  0  0  0
  -25.4320  -31.5730   27.2870 C   0  0  0  0  0  1  0  0  0  0  0  0
  -27.1150  -30.4230   25.8450 C   0  0  0  0  0  1  0  0  0  0  0  0
  -27.7400  -32.5060   27.0360 C   0  0  0  0  0  1  0  0  0  0  0  0
  -25.9800  -34.0750   25.3980 N   0  0  0  0  0  0  0  0  0  0  0  0
  -26.4250  -35.1130   24.6790 C   0  0  0  0  0  0  0  0  0  0  0  0
  -27.1060  -34.9790   23.6590 O   0  0  0  0  0  0  0  0  0  0  0  0
  -25.3850  -34.2610   26.1930 H   0  0  0  0  0  0  0  0  0  0  0  0
  -24.8720  -37.0620   24.3480 C   0  0  0  0  0  1  0  0  0  0  0  0
  -26.0540  -36.5250   25.1700 C   0  0  0  0  0  3  0  0  0  0  0  0
  -28.2380  -37.1930   26.0750 C   0  0  0  0  0  1  0  0  0  0  0  0
  -27.1800  -37.4830   25.1090 N   0  0  0  0  0  0  0  0  0  0  0  0
  -26.8550  -38.4330   25.2700 H   0  0  0  0  0  0  0  0  0  0  0  0
  1  3  2  0
  2  5  1  0
  2  1  1  0
  4  2  1  0
  5  6  1  0
  7  8  1  0
  7  6  1  0
  9 10  1  0
  9  8  1  0
 11 17  1  0
 12 17  1  0
 13 14  1  0
 13 12  1  0
 15 14  1  0
 15 24  1  0
 15 16  1  0
 17 16  1  0
 18 11  2  0
 19 11  1  0
 19 10  1  0
 20 19  1  0
 21 46  1  0
 21 22  2  0
 22 41  1  0
 23 22  1  0
 24 21  1  0
 25 24  1  0
 25 23  2  0
 26 23  1  0
 26 27  1  0
 28 27  2  0
 29 28  1  0
 30 31  1  0
 30 29  2  0
 31 26  2  0
 32 29  1  0
 32 33  1  0
 33 38  2  0
 33 34  1  0
 34 35  2  0
 35 36  1  0
 36 40  1  0
 37 36  2  0
 38 37  1  0
 39 38  1  0
 41 42  1  0
 42 44  1  0
 42 45  1  0
 43 41  2  0
 46 47  1  0
 48 46  1  0
 49 50  1  0
 49  1  1  0
 51 52  1  0
 51 50  1  0
 53 55  1  0
 53 52  1  0
 54 65  2  0
 55 60  1  0
 56 64  1  0
 56 66  1  0
 57 63  1  0
 57 59  1  0
 58 64  1  0
 59 58  1  0
 60 59  2  0
 61 62  1  0
 61 55  2  0
 62 57  2  0
 63 56  1  0
 64 54  1  0
 66 68  2  0
 67 66  1  0
 69 67  1  0
 70 75  1  0
 71 67  1  0
 72 71  1  0
 73 74  1  0
 73 72  1  0
 74 70  1  0
 75 71  1  0
 75 76  2  0
 77 76  1  0
 78 77  2  0
 79 70  2  0
 79 78  1  0
 80 54  1  0
 80 85  1  0
 80 81  1  0
 81 84  1  1
 81 82  1  0
 83 81  1  0
 85 88  1  0
 86 90  1  0
 86 85  1  0
 87 86  2  0
 90 89  1  0
 92 90  1  0
 92 93  1  0
 92 91  1  0
M  ISO  4  11 100  19 100  52 101  53 101
M  END
>  <TORSDO>  (89) 
F 26

>  <SCORE>  (89) 
-3.904

>  <name>  (89) 
95

>  <ligand_id>  (89) 
95

>  <original_smiles>  (89) 
[H]c1c([H])c([H])c2c(c1[H])C([H])([H])C([H])([H])C([H])([H])C2([H])N([H])C(=O)C1([H])N(C(=O)C([H])(N([H])C(=O)C([H])(N([H])C([H])([H])[H])C([H])([H])[H])C(C([H])([H])[H])(C([H])([H])[H])C([H])([H])[H])C([H])([H])c2c([H])c(OC([H])([H])C([H])([H])OC([H])([H])C(=O)N([H])C([H])([H])C([H])([H])C([H])([H])C([H])([H])C([H])([H])C([H])([H])N([H])C(=O)N3C([H])([H])C([H])([H])C([H])([H])C([H])(n4nc(-c5c([H])c([H])c(Oc6c([H])c([H])c(F)c([H])c6F)c([H])c5[H])c(C(=O)N([H])[H])c4N([H])[H])C3([H])[H])c([H])c([H])c2C1([H])[H]

>  <smiles>  (89) 
[H]c1c([H])c([H])c2c(c1[H])C([H])([H])C([H])([H])C([H])([H])C2([H])N([H])C(=O)C1([H])N(C(=O)C([H])(N([H])C(=O)C([H])(N([H])C([H])([H])[H])C([H])([H])[H])C(C([H])([H])[H])(C([H])([H])[H])C([H])([H])[H])C([H])([H])c2c([H])c(OC([H])([H])C([H])([H])OC([H])([H])C(=O)N([H])C([H])([H])C([H])([H])C([H])([H])C([H])([H])C([H])([H])C([H])([H])N([H])C(=O)N3C([H])([H])C([H])([H])C([H])([H])C([H])(n4nc(-c5c([H])c([H])c(Oc6c([H])c([H])c(F)c([H])c6F)c([H])c5[H])c(C(=O)N([H])[H])c4N([H])[H])C3([H])[H])c([H])c([H])c2C1([H])[H]

$$$$
96:0:0
     RDKit          3D

106112  0  0  1  0  0  0  0  0999 V2000
  -23.6110  -22.0950   22.3280 C   0  0  0  0  0  0  0  0  0  0  0  0
  -22.2950  -22.0090   22.0960 N   0  0  0  0  0  0  0  0  0  0  0  0
  -24.1530  -21.5830   23.3110 O   0  0  0  0  0  0  0  0  0  0  0  0
  -21.9570  -22.4810   21.2680 H   0  0  0  0  0  0  0  0  0  0  0  0
  -21.3010  -21.3390   22.9380 C   0  0  0  0  0  2  0  0  0  0  0  0
  -19.8850  -21.8980   22.6750 C   0  0  0  0  0  2  0  0  0  0  0  0
  -19.0750  -21.1140   21.6140 C   0  0  0  0  0  2  0  0  0  0  0  0
  -18.3500  -21.9860   20.7440 O   0  0  0  0  0  0  0  0  0  0  0  0
  -19.1560  -22.4260   19.6500 C   0  0  0  0  0  2  0  0  0  0  0  0
  -18.5140  -23.6110   18.8890 C   0  0  0  0  0  0  0  0  0  0  0  0
  -19.1730  -24.4110   17.9680 N   0  0  1  0  0  4  0  0  0  0  0  0
  -17.3240  -23.8380   19.0930 O   0  0  0  0  0  0  0  0  0  0  0  0
  -18.4280  -24.9450   17.5350 H   0  0  0  0  0  0  0  0  0  0  0  0
  -21.1700  -25.2620   16.7070 C   0  0  0  0  0  2  0  0  0  0  0  0
  -23.2160  -24.9340   17.1210 C   0  0  0  0  0  1  0  0  0  0  0  0
  -24.6940  -25.0130   18.2610 O   0  0  0  0  0  0  0  0  0  0  0  0
  -24.1140  -28.8030   21.9720 C   0  0  0  0  0  0  0  0  0  0  0  0
  -26.1670  -25.1440   18.2390 C   0  0  0  0  0  3  0  0  0  0  0  0
  -23.6120  -28.4140   19.6250 C   0  0  0  0  0  3  0  0  0  0  0  0
  -25.4800  -27.5680   18.0680 C   0  0  0  0  0  3  0  0  0  0  0  0
  -25.9910  -28.1570   20.4480 C   0  0  0  0  0  2  0  0  0  0  0  0
  -26.1410  -27.2340   19.2590 C   0  0  0  0  0  3  0  0  0  0  0  0
  -26.7090  -25.9490   19.2950 C   0  0  0  0  0  2  0  0  0  0  0  0
  -26.4880  -25.6290   16.9970 C   0  0  0  0  0  2  0  0  0  0  0  0
  -25.8160  -26.8560   16.8780 C   0  0  0  0  0  2  0  0  0  0  0  0
  -24.2870  -28.4770   18.2100 C   0  0  0  0  0  2  0  0  0  0  0  0
  -24.5840  -28.5030   20.7310 N   0  0  0  0  0  0  0  0  0  0  0  0
  -22.9220  -29.0830   22.1670 O   0  0  0  0  0  0  0  0  0  0  0  0
  -22.7590  -27.1670   19.9200 C   0  0  0  0  0  0  0  0  0  0  0  0
  -21.4800  -27.3140   19.8430 N   0  0  0  0  0  0  0  0  0  0  0  0
  -23.2010  -26.0970   20.3230 O   0  0  0  0  0  0  0  0  0  0  0  0
  -21.1010  -28.2340   19.6680 H   0  0  0  0  0  0  0  0  0  0  0  0
  -18.2080  -27.4510   18.0660 C   0  0  0  0  0  0  0  0  0  0  0  0
  -20.5650  -26.2050   19.7370 C   0  0  0  0  0  2  0  0  0  0  0  0
  -20.9940  -24.5540   18.3340 C   0  0  0  0  0  2  0  0  0  0  0  0
  -19.7830  -24.8050   16.4470 C   0  0  0  0  0  2  0  0  0  0  0  0
  -18.4170  -26.3720   16.5280 C   0  0  0  0  0  1  0  0  0  0  0  0
  -19.1440  -27.4040   19.3890 C   0  0  0  0  0  0  0  0  0  0  0  0
  -18.6770  -28.0860   20.5370 C   0  0  0  0  0  3  0  0  0  0  0  0
  -17.4020  -28.6720   20.6240 C   0  0  0  0  0  3  0  0  0  0  0  0
  -16.4940  -28.5440   19.5660 C   0  0  0  0  0  3  0  0  0  0  0  0
  -16.8760  -27.9280   18.3460 C   0  0  0  0  0  3  0  0  0  0  0  0
  -25.0630  -28.8290   23.1910 C   0  0  0  0  0  3  0  0  0  0  0  0
  -24.8800  -27.5930   24.1480 C   0  0  1  0  0  0  0  0  0  0  0  0
  -23.4160  -27.3240   24.5640 C   0  0  0  0  0  1  0  0  0  0  0  0
  -25.4240  -26.3010   23.4990 C   0  0  0  0  0  1  0  0  0  0  0  0
  -25.7130  -27.8210   25.4330 C   0  0  0  0  0  1  0  0  0  0  0  0
  -24.7840  -30.0820   23.8990 N   0  0  0  0  0  0  0  0  0  0  0  0
  -25.5110  -31.1960   23.7650 C   0  0  0  0  0  0  0  0  0  0  0  0
  -26.5480  -31.2400   23.0970 O   0  0  0  0  0  0  0  0  0  0  0  0
  -23.9270  -30.1280   24.4290 H   0  0  0  0  0  0  0  0  0  0  0  0
  -24.3110  -33.3900   23.4920 C   0  0  0  0  0  1  0  0  0  0  0  0
  -25.0090  -32.4570   24.4950 C   0  0  0  0  0  3  0  0  0  0  0  0
  -26.6460  -32.4510   26.3250 C   0  0  0  0  0  1  0  0  0  0  0  0
  -26.0830  -33.1910   25.1970 N   0  0  0  0  0  0  0  0  0  0  0  0
  -25.7470  -34.0860   25.5430 H   0  0  0  0  0  0  0  0  0  0  0  0
  -24.4330  -22.8760   21.2940 C   0  0  0  0  0  2  0  0  0  0  0  0
  -26.7560  -22.2310   20.6560 C   0  0  0  0  0  0  0  0  0  0  0  0
  -25.8660  -22.7190   21.5240 N   0  0  0  0  0  0  0  0  0  0  0  0
  -26.4640  -21.9190   19.4990 O   0  0  0  0  0  0  0  0  0  0  0  0
  -26.1950  -22.9250   22.4590 H   0  0  0  0  0  0  0  0  0  0  0  0
  -28.1890  -22.0840   21.1750 C   0  0  0  0  0  2  0  0  0  0  0  0
  -28.8220  -20.9470   20.5890 O   0  0  0  0  0  0  0  0  0  0  0  0
  -30.1740  -20.8410   21.0130 C   0  0  0  0  0  2  0  0  0  0  0  0
  -30.9140  -19.7100   20.2920 C   0  0  0  0  0  2  0  0  0  0  0  0
  -30.5350  -18.2960   20.7620 C   0  0  0  0  0  2  0  0  0  0  0  0
  -31.6260  -17.2710   20.4130 C   0  0  0  0  0  2  0  0  0  0  0  0
  -31.4820  -15.9350   21.1640 C   0  0  0  0  0  2  0  0  0  0  0  0
  -30.5090  -14.4980   19.3550 C   0  0  0  0  0  0  0  0  0  0  0  0
  -30.0540  -12.3940   18.1580 C   0  0  0  0  0  2  0  0  0  0  0  0
  -28.8960  -12.4750   17.1530 C   0  0  0  0  0  2  0  0  0  0  0  0
  -27.5590  -12.1920   17.8570 C   0  0  0  0  0  2  0  0  0  0  0  0
  -27.3670  -13.0640   19.1240 C   0  0  0  0  0  3  0  0  0  0  0  0
  -28.6080  -12.9940   20.0380 C   0  0  0  0  0  2  0  0  0  0  0  0
  -29.8030  -13.3470   19.2490 N   0  0  0  0  0  0  0  0  0  0  0  0
  -31.2580  -14.9160   18.4680 O   0  0  0  0  0  0  0  0  0  0  0  0
  -30.4940  -15.0220   20.5890 N   0  0  0  0  0  0  0  0  0  0  0  0
  -29.8680  -14.5730   21.2410 H   0  0  0  0  0  0  0  0  0  0  0  0
  -25.1860  -13.5070   20.4200 C   0  0  0  0  0  0  0  0  0  0  0  0
  -24.2250  -12.6610   20.9080 C   0  0  0  0  0  0  0  0  0  0  0  0
  -24.6650  -11.3390   20.5920 C   0  0  0  0  0  0  0  0  0  0  0  0
  -26.1510  -12.6930   19.8460 N   0  0  0  0  0  0  0  0  0  0  0  0
  -25.8530  -11.3780   20.0020 N   0  0  0  0  0  0  0  0  0  0  0  0
  -23.9990  -10.0420   20.7660 C   0  0  0  0  0  0  0  0  0  0  0  0
  -24.6070   -8.9940   21.4920 C   0  0  0  0  0  3  0  0  0  0  0  0
  -23.9410   -7.7600   21.6600 C   0  0  0  0  0  3  0  0  0  0  0  0
  -22.6550   -7.5670   21.1020 C   0  0  0  0  0  0  0  0  0  0  0  0
  -22.0650   -8.6060   20.3610 C   0  0  0  0  0  3  0  0  0  0  0  0
  -22.7310   -9.8310   20.1910 C   0  0  0  0  0  3  0  0  0  0  0  0
  -21.9450   -6.3940   21.1890 O   0  0  0  0  0  0  0  0  0  0  0  0
  -22.0760   -5.5520   22.2640 C   0  0  0  0  0  0  0  0  0  0  0  0
  -21.8400   -5.9900   23.5860 C   0  0  0  0  0  3  0  0  0  0  0  0
  -21.9180   -5.0740   24.6550 C   0  0  0  0  0  3  0  0  0  0  0  0
  -22.2230   -3.7230   24.4050 C   0  0  0  0  0  0  0  0  0  0  0  0
  -22.4530   -3.2840   23.0890 C   0  0  0  0  0  3  0  0  0  0  0  0
  -22.3770   -4.1970   22.0220 C   0  0  0  0  0  0  0  0  0  0  0  0
  -22.5800   -3.7660   20.7530 F   0  0  0  0  0  0  0  0  0  0  0  0
  -22.2900   -2.8420   25.4290 F   0  0  0  0  0  0  0  0  0  0  0  0
  -22.9240  -13.0550   21.5450 C   0  0  0  0  0  0  0  0  0  0  0  0
  -22.4290  -12.2510   22.4800 N   0  0  0  0  0  0  0  0  0  0  0  0
  -22.3610  -14.1090   21.2500 O   0  0  0  0  0  0  0  0  0  0  0  0
  -22.9010  -11.3970   22.7390 H   0  0  0  0  0  0  0  0  0  0  0  0
  -21.5660  -12.4960   22.9440 H   0  0  0  0  0  0  0  0  0  0  0  0
  -25.3100  -14.8920   20.4010 N   0  0  0  0  0  0  0  0  0  0  0  0
  -24.5910  -15.5070   20.7670 H   0  0  0  0  0  0  0  0  0  0  0  0
  -26.0870  -15.3940   19.9900 H   0  0  0  0  0  0  0  0  0  0  0  0
  1  3  2  0
  2  1  1  0
  2  5  1  0
  4  2  1  0
  6  5  1  0
  7  6  1  0
  8  7  1  0
  9  8  1  0
 10 12  2  0
 10  9  1  0
 11 35  1  0
 11 10  1  0
 11 13  1  1
 14 35  1  0
 15 16  1  0
 17 28  2  0
 18 16  1  0
 18 23  1  0
 19 29  1  0
 19 27  1  0
 20 25  1  0
 20 26  1  0
 20 22  1  0
 21 27  1  0
 22 23  1  0
 22 21  1  0
 24 18  1  0
 25 24  1  0
 26 19  1  0
 27 17  1  0
 29 31  2  0
 30 29  1  0
 32 30  1  0
 33 42  2  0
 33 38  1  0
 34 30  1  0
 36 14  1  0
 36 11  1  0
 37 33  1  0
 38 34  1  0
 38 39  2  0
 39 40  1  0
 41 40  2  0
 42 41  1  0
 43 17  1  0
 43 48  1  0
 43 44  1  0
 44 45  1  1
 44 47  1  0
 46 44  1  0
 48 51  1  0
 49 48  1  0
 49 53  1  0
 50 49  2  0
 53 52  1  0
 53 55  1  0
 55 56  1  0
 55 54  1  0
 57 59  1  0
 57  1  1  0
 58 62  1  0
 58 59  1  0
 59 61  1  0
 60 58  2  0
 63 64  1  0
 63 62  1  0
 65 66  1  0
 65 64  1  0
 67 66  1  0
 67 68  1  0
 69 77  1  0
 70 75  1  0
 71 72  1  0
 71 70  1  0
 73 72  1  0
 73 82  1  0
 73 74  1  0
 75 69  1  0
 75 74  1  0
 76 69  2  0
 77 68  1  0
 77 78  1  0
 79 80  2  0
 80 99  1  0
 81 84  1  0
 81 80  1  0
 82 83  1  0
 82 79  1  0
 83 81  2  0
 84 85  1  0
 85 86  2  0
 87 90  1  0
 87 86  1  0
 88 87  2  0
 89 88  1  0
 89 84  2  0
 90 91  1  0
 91 92  1  0
 92 93  2  0
 94 93  1  0
 94 98  1  0
 95 94  2  0
 96 91  2  0
 96 95  1  0
 97 96  1  0
 99100  1  0
100102  1  0
100103  1  0
101 99  2  0
104 79  1  0
104105  1  0
106104  1  0
M  ISO  4  15 101  16 101  69 100  77 100
M  END
>  <TORSDO>  (90) 
F 33

>  <SCORE>  (90) 
14.278

>  <name>  (90) 
96

>  <ligand_id>  (90) 
96

>  <original_smiles>  (90) 
[H]c1c([H])c([H])c2c(c1[H])C([H])([H])C([H])([H])C([H])([H])C2([H])N([H])C(=O)C1([H])N(C(=O)C([H])(N([H])C(=O)C([H])(N([H])C([H])([H])[H])C([H])([H])[H])C(C([H])([H])[H])(C([H])([H])[H])C([H])([H])[H])C([H])([H])c2c([H])c(OC([H])([H])C([H])([H])N([H])C(=O)C([H])([H])OC([H])([H])C([H])([H])C([H])([H])N([H])C(=O)C([H])([H])N([H])C(=O)C([H])([H])OC([H])([H])C([H])([H])C([H])([H])C([H])([H])C([H])([H])N([H])C(=O)N3C([H])([H])C([H])([H])C([H])([H])C([H])(n4nc(-c5c([H])c([H])c(Oc6c([H])c([H])c(F)c([H])c6F)c([H])c5[H])c(C(=O)N([H])[H])c4N([H])[H])C3([H])[H])c([H])c([H])c2C1([H])[H]

>  <smiles>  (90) 
[H]c1c([H])c([H])c2c(c1[H])C([H])([H])C([H])([H])C([H])([H])C2([H])N([H])C(=O)C1([H])N(C(=O)C([H])(N([H])C(=O)C([H])(N([H])C([H])([H])[H])C([H])([H])[H])C(C([H])([H])[H])(C([H])([H])[H])C([H])([H])[H])C([H])([H])c2c([H])c(OC([H])([H])C([H])([H])N([H])C(=O)C([H])([H])OC([H])([H])C([H])([H])C([H])([H])N([H])C(=O)C([H])([H])N([H])C(=O)C([H])([H])OC([H])([H])C([H])([H])C([H])([H])C([H])([H])C([H])([H])N([H])C(=O)N3C([H])([H])C([H])([H])C([H])([H])C([H])(n4nc(-c5c([H])c([H])c(Oc6c([H])c([H])c(F)c([H])c6F)c([H])c5[H])c(C(=O)N([H])[H])c4N([H])[H])C3([H])[H])c([H])c([H])c2C1([H])[H]

$$$$
98:0:0
     RDKit          3D

108115  0  0  1  0  0  0  0  0999 V2000
  -27.9000  -21.4820   15.9710 C   0  0  0  0  0  2  0  0  0  0  0  0
  -29.0550  -22.1660   16.4300 O   0  0  0  0  0  0  0  0  0  0  0  0
  -29.5300  -23.1670   15.5460 C   0  0  0  0  0  2  0  0  0  0  0  0
  -30.5370  -24.0130   16.3300 C   0  0  0  0  0  2  0  0  0  0  0  0
  -31.6400  -23.1920   16.7010 O   0  0  0  0  0  0  0  0  0  0  0  0
  -32.0290  -23.3780   18.0550 C   0  0  0  0  0  2  0  0  0  0  0  0
  -33.2210  -22.4710   18.3900 C   0  0  0  0  0  2  0  0  0  0  0  0
  -32.1690  -20.2430   18.7760 C   0  0  0  0  0  0  0  0  0  0  0  0
  -32.9640  -21.0650   18.0820 N   0  0  0  0  0  0  0  0  0  0  0  0
  -31.4890  -20.6270   19.7300 O   0  0  0  0  0  0  0  0  0  0  0  0
  -33.4660  -20.6780   17.2940 H   0  0  0  0  0  0  0  0  0  0  0  0
  -32.1290  -18.7740   18.3450 C   0  0  0  0  0  2  0  0  0  0  0  0
  -31.1880  -17.2160   20.0600 C   0  0  0  0  0  0  0  0  0  0  0  0
  -32.1980  -17.8970   19.5130 N   0  0  0  0  0  0  0  0  0  0  0  0
  -30.0410  -17.2380   19.6140 O   0  0  0  0  0  0  0  0  0  0  0  0
  -33.1010  -17.8230   19.9600 H   0  0  0  0  0  0  0  0  0  0  0  0
  -31.5140  -16.3640   21.2920 C   0  0  0  0  0  2  0  0  0  0  0  0
  -31.5030  -14.0770   20.3380 C   0  0  0  0  0  0  0  0  0  0  0  0
  -31.0420  -11.9850   19.1220 C   0  0  0  0  0  2  0  0  0  0  0  0
  -30.1160  -12.2630   17.9220 C   0  0  0  0  0  2  0  0  0  0  0  0
  -28.6360  -12.2250   18.3500 C   0  0  0  0  0  2  0  0  0  0  0  0
  -28.3580  -13.0820   19.6130 C   0  0  0  0  0  3  0  0  0  0  0  0
  -29.3850  -12.7650   20.7220 C   0  0  0  0  0  2  0  0  0  0  0  0
  -30.7360  -12.9700   20.1690 N   0  0  0  0  0  0  0  0  0  0  0  0
  -32.5780  -14.2560   19.7590 O   0  0  0  0  0  0  0  0  0  0  0  0
  -30.9840  -15.0100   21.1430 N   0  0  0  0  0  0  0  0  0  0  0  0
  -30.0860  -14.8150   21.5580 H   0  0  0  0  0  0  0  0  0  0  0  0
  -25.9930  -13.8550   20.2830 C   0  0  0  0  0  0  0  0  0  0  0  0
  -24.8760  -13.1570   20.6630 C   0  0  0  0  0  0  0  0  0  0  0  0
  -25.2560  -11.7800   20.6680 C   0  0  0  0  0  0  0  0  0  0  0  0
  -26.9850  -12.9050   20.0840 N   0  0  0  0  0  0  0  0  0  0  0  0
  -26.5430  -11.6550   20.3700 N   0  0  0  0  0  0  0  0  0  0  0  0
  -24.4540  -10.5690   20.8830 C   0  0  0  0  0  0  0  0  0  0  0  0
  -24.7950   -9.6240   21.8780 C   0  0  0  0  0  3  0  0  0  0  0  0
  -23.9980   -8.4770   22.0780 C   0  0  0  0  0  3  0  0  0  0  0  0
  -22.8460   -8.2650   21.2840 C   0  0  0  0  0  0  0  0  0  0  0  0
  -22.5250   -9.1960   20.2800 C   0  0  0  0  0  3  0  0  0  0  0  0
  -23.3210  -10.3350   20.0790 C   0  0  0  0  0  3  0  0  0  0  0  0
  -22.0280   -7.1660   21.3900 O   0  0  0  0  0  0  0  0  0  0  0  0
  -21.8510   -6.5130   22.5840 C   0  0  0  0  0  0  0  0  0  0  0  0
  -21.3410   -7.1710   23.7240 C   0  0  0  0  0  3  0  0  0  0  0  0
  -21.1080   -6.4470   24.9100 C   0  0  0  0  0  3  0  0  0  0  0  0
  -21.3750   -5.0640   24.9550 C   0  0  0  0  0  0  0  0  0  0  0  0
  -21.8760   -4.4060   23.8190 C   0  0  0  0  0  3  0  0  0  0  0  0
  -22.1110   -5.1290   22.6350 C   0  0  0  0  0  0  0  0  0  0  0  0
  -22.5750   -4.4860   21.5370 F   0  0  0  0  0  0  0  0  0  0  0  0
  -21.1440   -4.3670   26.0910 F   0  0  0  0  0  0  0  0  0  0  0  0
  -23.5110  -13.7250   20.9170 C   0  0  0  0  0  0  0  0  0  0  0  0
  -22.7410  -13.0970   21.8010 N   0  0  0  0  0  0  0  0  0  0  0  0
  -23.1350  -14.7590   20.3680 O   0  0  0  0  0  0  0  0  0  0  0  0
  -23.0560  -12.2600   22.2680 H   0  0  0  0  0  0  0  0  0  0  0  0
  -21.8220  -13.4600   22.0130 H   0  0  0  0  0  0  0  0  0  0  0  0
  -26.2430  -15.2070   20.0710 N   0  0  0  0  0  0  0  0  0  0  0  0
  -25.5200  -15.9100   20.1650 H   0  0  0  0  0  0  0  0  0  0  0  0
  -27.1280  -15.5840   19.7550 H   0  0  0  0  0  0  0  0  0  0  0  0
  -27.6770  -20.3080   16.9290 C   0  0  0  0  0  2  0  0  0  0  0  0
  -27.5950  -20.8220   18.2570 O   0  0  0  0  0  0  0  0  0  0  0  0
  -28.0270  -19.8800   19.2260 C   0  0  0  0  0  2  0  0  0  0  0  0
  -27.9050  -20.5020   20.6230 C   0  0  0  0  0  2  0  0  0  0  0  0
  -28.7470  -21.7150   20.7450 N   0  0  0  0  0  4  0  0  0  0  0  0
  -29.6840  -21.5030   20.3980 H   0  0  0  0  0  0  0  0  0  0  0  0
  -28.3700  -22.4340   20.1430 H   0  0  0  0  0  0  0  0  0  0  0  0
  -28.8810  -22.2390   22.1220 C   0  0  0  0  0  2  0  0  0  0  0  0
  -29.9090  -23.3770   22.1910 C   0  0  0  0  0  2  0  0  0  0  0  0
  -29.3340  -24.5420   21.6140 O   0  0  0  0  0  0  0  0  0  0  0  0
  -30.2500  -25.6290   21.5330 C   0  0  0  0  0  2  0  0  0  0  0  0
  -29.4600  -26.9330   21.3770 C   0  0  0  0  0  2  0  0  0  0  0  0
  -28.7290  -26.9100   20.1530 O   0  0  0  0  0  0  0  0  0  0  0  0
  -24.7270  -31.8960   23.2970 C   0  0  0  0  0  0  0  0  0  0  0  0
  -27.5660  -27.6410   20.1620 C   0  0  0  0  0  0  0  0  0  0  0  0
  -23.5870  -30.4920   21.6050 C   0  0  0  0  0  3  0  0  0  0  0  0
  -25.1120  -29.0380   20.1650 C   0  0  0  0  0  0  0  0  0  0  0  0
  -26.0930  -30.9470   21.4480 C   0  0  0  0  0  2  0  0  0  0  0  0
  -26.2370  -29.5950   20.7850 C   0  0  0  0  0  0  0  0  0  0  0  0
  -27.4640  -28.9020   20.7910 C   0  0  0  0  0  3  0  0  0  0  0  0
  -26.4340  -27.0970   19.5230 C   0  0  0  0  0  3  0  0  0  0  0  0
  -25.2030  -27.7850   19.5290 C   0  0  0  0  0  3  0  0  0  0  0  0
  -23.8330  -29.8460   20.2150 C   0  0  0  0  0  2  0  0  0  0  0  0
  -24.8190  -31.1240   22.1770 N   0  0  0  0  0  0  0  0  0  0  0  0
  -23.6320  -32.1240   23.8270 O   0  0  0  0  0  0  0  0  0  0  0  0
  -22.9580  -29.4310   22.5340 C   0  0  0  0  0  0  0  0  0  0  0  0
  -21.6380  -29.2240   22.3950 N   0  0  0  0  0  0  0  0  0  0  0  0
  -23.6510  -28.7970   23.3340 O   0  0  0  0  0  0  0  0  0  0  0  0
  -21.1390  -29.7900   21.7220 H   0  0  0  0  0  0  0  0  0  0  0  0
  -18.2910  -27.9460   22.8320 C   0  0  0  0  0  0  0  0  0  0  0  0
  -20.8390  -28.2480   23.1330 C   0  0  0  0  0  3  0  0  0  0  0  0
  -20.9770  -26.8370   22.5160 C   0  0  0  0  0  2  0  0  0  0  0  0
  -19.8890  -26.5210   21.4840 C   0  0  0  0  0  2  0  0  0  0  0  0
  -18.4990  -26.6210   22.1210 C   0  0  0  0  0  2  0  0  0  0  0  0
  -19.3900  -28.7180   23.2920 C   0  0  0  0  0  0  0  0  0  0  0  0
  -19.1430  -29.9610   23.9120 C   0  0  0  0  0  3  0  0  0  0  0  0
  -17.8270  -30.4320   24.0800 C   0  0  0  0  0  3  0  0  0  0  0  0
  -16.7410  -29.6560   23.6380 C   0  0  0  0  0  3  0  0  0  0  0  0
  -16.9740  -28.4160   23.0180 C   0  0  0  0  0  3  0  0  0  0  0  0
  -25.9870  -32.5500   23.9490 C   0  0  0  0  0  3  0  0  0  0  0  0
  -26.5030  -31.7730   25.2220 C   0  0  1  0  0  0  0  0  0  0  0  0
  -25.3980  -31.4980   26.2690 C   0  0  0  0  0  1  0  0  0  0  0  0
  -27.1240  -30.4160   24.8190 C   0  0  0  0  0  1  0  0  0  0  0  0
  -27.6260  -32.5830   25.9130 C   0  0  0  0  0  1  0  0  0  0  0  0
  -25.6380  -33.9340   24.2890 N   0  0  0  0  0  0  0  0  0  0  0  0
  -25.9780  -35.0040   23.5560 C   0  0  0  0  0  0  0  0  0  0  0  0
  -26.6880  -34.9300   22.5500 O   0  0  0  0  0  0  0  0  0  0  0  0
  -25.0090  -34.0660   25.0660 H   0  0  0  0  0  0  0  0  0  0  0  0
  -24.2350  -36.7710   23.1530 C   0  0  0  0  0  1  0  0  0  0  0  0
  -25.4440  -36.3740   24.0140 C   0  0  0  0  0  3  0  0  0  0  0  0
  -27.5180  -37.2800   24.9630 C   0  0  0  0  0  1  0  0  0  0  0  0
  -26.4610  -37.4460   23.9700 N   0  0  0  0  0  0  0  0  0  0  0  0
  -26.0320  -38.3550   24.1160 H   0  0  0  0  0  0  0  0  0  0  0  0
  1  2  1  0
  1 56  1  0
  3  4  1  0
  3  2  1  0
  4  5  1  0
  5  6  1  0
  6  7  1  0
  8 10  2  0
  9  7  1  0
  9  8  1  0
 11  9  1  0
 12  8  1  0
 12 14  1  0
 13 17  1  0
 14 16  1  0
 14 13  1  0
 15 13  2  0
 18 26  1  0
 19 24  1  0
 20 21  1  0
 20 19  1  0
 22 21  1  0
 22 31  1  0
 22 23  1  0
 24 18  1  0
 24 23  1  0
 25 18  2  0
 26 17  1  0
 26 27  1  0
 28 29  2  0
 29 30  1  0
 29 48  1  0
 30 33  1  0
 31 28  1  0
 31 32  1  0
 32 30  2  0
 33 34  1  0
 34 35  2  0
 36 39  1  0
 36 35  1  0
 37 36  2  0
 38 37  1  0
 38 33  2  0
 39 40  1  0
 40 45  2  0
 40 41  1  0
 41 42  2  0
 42 43  1  0
 43 47  1  0
 44 43  2  0
 45 44  1  0
 46 45  1  0
 48 49  1  0
 49 52  1  0
 49 51  1  0
 50 48  2  0
 53 54  1  0
 53 28  1  0
 55 53  1  0
 56 57  1  0
 57 58  1  0
 58 59  1  0
 59 60  1  0
 60 63  1  0
 61 60  1  0
 62 60  1  0
 63 64  1  0
 65 64  1  0
 66 65  1  0
 67 66  1  0
 68 70  1  0
 68 67  1  0
 69 80  2  0
 70 75  1  0
 71 79  1  0
 71 81  1  0
 72 78  1  0
 72 74  1  0
 73 79  1  0
 74 75  2  0
 74 73  1  0
 76 77  1  0
 76 70  2  0
 77 72  2  0
 78 71  1  0
 79 69  1  0
 81 83  2  0
 82 81  1  0
 84 82  1  0
 85 94  2  0
 85 90  1  0
 86 82  1  0
 86 90  1  0
 87 86  1  0
 88 89  1  0
 88 87  1  0
 89 85  1  0
 90 91  2  0
 91 92  1  0
 93 92  2  0
 94 93  1  0
 95 69  1  0
 95100  1  0
 95 96  1  0
 96 99  1  1
 96 97  1  0
 98 96  1  0
100103  1  0
101105  1  0
101100  1  0
102101  2  0
105104  1  0
107105  1  0
107108  1  0
107106  1  0
M  ISO  4  18 100  26 100  67 101  68 101
M  END
>  <TORSDO>  (91) 
F 36

>  <SCORE>  (91) 
-8.062

>  <name>  (91) 
98

>  <ligand_id>  (91) 
98

>  <original_smiles>  (91) 
[H]c1c([H])c([H])c2c(c1[H])C([H])([H])C([H])([H])C([H])([H])C2([H])N([H])C(=O)C1([H])N(C(=O)C([H])(N([H])C(=O)C([H])(N([H])C([H])([H])[H])C([H])([H])[H])C(C([H])([H])[H])(C([H])([H])[H])C([H])([H])[H])C([H])([H])c2c([H])c(OC([H])([H])C([H])([H])OC([H])([H])C([H])([H])[N+]([H])([H])C([H])([H])C([H])([H])OC([H])([H])C([H])([H])OC([H])([H])C([H])([H])OC([H])([H])C([H])([H])N([H])C(=O)C([H])([H])N([H])C(=O)C([H])([H])N([H])C(=O)N3C([H])([H])C([H])([H])C([H])([H])C([H])(n4nc(-c5c([H])c([H])c(Oc6c([H])c([H])c(F)c([H])c6F)c([H])c5[H])c(C(=O)N([H])[H])c4N([H])[H])C3([H])[H])c([H])c([H])c2C1([H])[H]

>  <smiles>  (91) 
[H]c1c([H])c([H])c2c(c1[H])C([H])([H])C([H])([H])C([H])([H])C2([H])N([H])C(=O)C1([H])N(C(=O)C([H])(N([H])C(=O)C([H])(N([H])C([H])([H])[H])C([H])([H])[H])C(C([H])([H])[H])(C([H])([H])[H])C([H])([H])[H])C([H])([H])c2c([H])c(OC([H])([H])C([H])([H])OC([H])([H])C([H])([H])[N+]([H])([H])C([H])([H])C([H])([H])OC([H])([H])C([H])([H])OC([H])([H])C([H])([H])OC([H])([H])C([H])([H])N([H])C(=O)C([H])([H])N([H])C(=O)C([H])([H])N([H])C(=O)N3C([H])([H])C([H])([H])C([H])([H])C([H])(n4nc(-c5c([H])c([H])c(Oc6c([H])c([H])c(F)c([H])c6F)c([H])c5[H])c(C(=O)N([H])[H])c4N([H])[H])C3([H])[H])c([H])c([H])c2C1([H])[H]

$$$$
99:0:0
     RDKit          3D

101108  0  0  1  0  0  0  0  0999 V2000
  -28.2670  -24.6020   13.4530 C   0  0  0  0  0  0  0  0  0  0  0  0
  -29.0570  -25.5110   14.0350 N   0  0  0  0  0  0  0  0  0  0  0  0
  -27.0700  -24.7880   13.2230 O   0  0  0  0  0  0  0  0  0  0  0  0
  -30.0110  -25.1810   14.1320 H   0  0  0  0  0  0  0  0  0  0  0  0
  -28.6500  -26.5330   14.9920 C   0  0  0  0  0  2  0  0  0  0  0  0
  -29.5030  -26.3320   16.2610 C   0  0  0  0  0  2  0  0  0  0  0  0
  -29.3660  -27.4040   17.2730 N   0  0  0  0  0  4  0  0  0  0  0  0
  -29.4430  -28.3080   16.8310 H   0  0  0  0  0  0  0  0  0  0  0  0
  -28.4430  -27.3330   17.6680 H   0  0  0  0  0  0  0  0  0  0  0  0
  -30.3600  -27.3160   18.3730 C   0  0  0  0  0  2  0  0  0  0  0  0
  -29.8220  -27.8680   19.7080 C   0  0  0  0  0  2  0  0  0  0  0  0
  -28.6780  -27.1090   20.1150 O   0  0  0  0  0  0  0  0  0  0  0  0
  -24.5690  -31.9820   23.4020 C   0  0  0  0  0  0  0  0  0  0  0  0
  -27.4850  -27.7860   20.2240 C   0  0  0  0  0  0  0  0  0  0  0  0
  -23.4510  -30.5580   21.7150 C   0  0  0  0  0  3  0  0  0  0  0  0
  -24.9980  -29.1250   20.2810 C   0  0  0  0  0  0  0  0  0  0  0  0
  -25.9530  -31.0530   21.5510 C   0  0  0  0  0  2  0  0  0  0  0  0
  -26.1210  -29.7060   20.8830 C   0  0  0  0  0  0  0  0  0  0  0  0
  -27.3680  -29.0470   20.8540 C   0  0  0  0  0  3  0  0  0  0  0  0
  -26.3350  -27.1840   19.6750 C   0  0  0  0  0  3  0  0  0  0  0  0
  -25.0970  -27.8570   19.6780 C   0  0  0  0  0  3  0  0  0  0  0  0
  -23.7150  -29.9230   20.3240 C   0  0  0  0  0  2  0  0  0  0  0  0
  -24.6740  -31.2090   22.2840 N   0  0  0  0  0  0  0  0  0  0  0  0
  -23.4720  -32.1920   23.9390 O   0  0  0  0  0  0  0  0  0  0  0  0
  -22.8440  -29.4840   22.6430 C   0  0  0  0  0  0  0  0  0  0  0  0
  -21.5480  -29.1900   22.4480 N   0  0  0  0  0  0  0  0  0  0  0  0
  -23.5340  -28.9220   23.4970 O   0  0  0  0  0  0  0  0  0  0  0  0
  -21.0490  -29.7040   21.7370 H   0  0  0  0  0  0  0  0  0  0  0  0
  -18.2880  -27.6570   22.7170 C   0  0  0  0  0  0  0  0  0  0  0  0
  -20.7750  -28.1880   23.1810 C   0  0  0  0  0  3  0  0  0  0  0  0
  -21.0690  -26.7640   22.6550 C   0  0  0  0  0  2  0  0  0  0  0  0
  -20.0910  -26.3050   21.5680 C   0  0  0  0  0  2  0  0  0  0  0  0
  -18.6550  -26.3190   22.0990 C   0  0  0  0  0  2  0  0  0  0  0  0
  -19.2830  -28.5410   23.2120 C   0  0  0  0  0  0  0  0  0  0  0  0
  -18.8880  -29.7890   23.7420 C   0  0  0  0  0  3  0  0  0  0  0  0
  -17.5310  -30.1550   23.7860 C   0  0  0  0  0  3  0  0  0  0  0  0
  -16.5480  -29.2680   23.3090 C   0  0  0  0  0  3  0  0  0  0  0  0
  -16.9280  -28.0220   22.7780 C   0  0  0  0  0  3  0  0  0  0  0  0
  -25.8200  -32.6600   24.0450 C   0  0  0  0  0  3  0  0  0  0  0  0
  -26.2870  -31.9630   25.3810 C   0  0  1  0  0  0  0  0  0  0  0  0
  -25.1450  -31.7360   26.3980 C   0  0  0  0  0  1  0  0  0  0  0  0
  -26.9300  -30.5890   25.0810 C   0  0  0  0  0  1  0  0  0  0  0  0
  -27.3690  -32.8260   26.0730 C   0  0  0  0  0  1  0  0  0  0  0  0
  -25.4890  -34.0710   24.2810 N   0  0  0  0  0  0  0  0  0  0  0  0
  -25.8820  -35.0830   23.4970 C   0  0  0  0  0  0  0  0  0  0  0  0
  -26.6350  -34.9320   22.5310 O   0  0  0  0  0  0  0  0  0  0  0  0
  -24.8250  -34.2620   25.0170 H   0  0  0  0  0  0  0  0  0  0  0  0
  -24.2080  -36.8590   22.8890 C   0  0  0  0  0  1  0  0  0  0  0  0
  -25.3560  -36.4900   23.8410 C   0  0  0  0  0  3  0  0  0  0  0  0
  -27.3990  -37.4090   24.8510 C   0  0  0  0  0  1  0  0  0  0  0  0
  -26.4000  -37.5360   23.7910 N   0  0  0  0  0  0  0  0  0  0  0  0
  -25.9830  -38.4610   23.8620 H   0  0  0  0  0  0  0  0  0  0  0  0
  -28.9290  -23.2390   13.2310 C   0  0  0  0  0  2  0  0  0  0  0  0
  -29.7960  -23.0260   14.3450 O   0  0  0  0  0  0  0  0  0  0  0  0
  -30.2280  -21.7000   14.5820 C   0  0  0  0  0  2  0  0  0  0  0  0
  -29.9550  -21.4710   16.0760 C   0  0  0  0  0  2  0  0  0  0  0  0
  -29.8810  -20.0000   16.5090 C   0  0  0  0  0  2  0  0  0  0  0  0
  -29.1120  -19.8480   17.8340 C   0  0  0  0  0  2  0  0  0  0  0  0
  -29.0300  -18.4090   18.3510 C   0  0  0  0  0  2  0  0  0  0  0  0
  -30.2970  -18.0370   18.8750 O   0  0  0  0  0  0  0  0  0  0  0  0
  -30.2140  -16.9170   19.7450 C   0  0  0  0  0  2  0  0  0  0  0  0
  -31.6170  -16.6000   20.2820 C   0  0  0  0  0  2  0  0  0  0  0  0
  -31.6270  -15.6300   21.4810 C   0  0  0  0  0  2  0  0  0  0  0  0
  -31.1790  -13.5680   20.1620 C   0  0  0  0  0  0  0  0  0  0  0  0
  -30.5780  -11.4590   19.0430 C   0  0  0  0  0  2  0  0  0  0  0  0
  -29.5880  -11.6890   17.8880 C   0  0  0  0  0  2  0  0  0  0  0  0
  -28.1380  -11.6760   18.4040 C   0  0  0  0  0  2  0  0  0  0  0  0
  -27.9390  -12.6070   19.6280 C   0  0  0  0  0  3  0  0  0  0  0  0
  -29.0290  -12.3610   20.6950 C   0  0  0  0  0  2  0  0  0  0  0  0
  -30.3570  -12.4940   20.0610 N   0  0  0  0  0  0  0  0  0  0  0  0
  -32.1330  -13.7690   19.4040 O   0  0  0  0  0  0  0  0  0  0  0  0
  -30.9240  -14.3800   21.1930 N   0  0  0  0  0  0  0  0  0  0  0  0
  -30.1760  -14.1080   21.8150 H   0  0  0  0  0  0  0  0  0  0  0  0
  -25.6520  -13.4410   20.4740 C   0  0  0  0  0  0  0  0  0  0  0  0
  -24.5420  -12.7760   20.9170 C   0  0  0  0  0  0  0  0  0  0  0  0
  -24.8700  -11.3850   20.8680 C   0  0  0  0  0  0  0  0  0  0  0  0
  -26.5950  -12.4670   20.1880 N   0  0  0  0  0  0  0  0  0  0  0  0
  -26.1280  -11.2240   20.4780 N   0  0  0  0  0  0  0  0  0  0  0  0
  -24.0420  -10.1980   21.1140 C   0  0  0  0  0  0  0  0  0  0  0  0
  -24.4580   -9.1770   21.9980 C   0  0  0  0  0  3  0  0  0  0  0  0
  -23.6370   -8.0540   22.2320 C   0  0  0  0  0  3  0  0  0  0  0  0
  -22.3830   -7.9440   21.5840 C   0  0  0  0  0  0  0  0  0  0  0  0
  -21.9850   -8.9510   20.6880 C   0  0  0  0  0  3  0  0  0  0  0  0
  -22.8070  -10.0650   20.4520 C   0  0  0  0  0  3  0  0  0  0  0  0
  -21.5310   -6.8770   21.7310 O   0  0  0  0  0  0  0  0  0  0  0  0
  -21.5280   -6.1080   22.8680 C   0  0  0  0  0  0  0  0  0  0  0  0
  -21.2700   -6.6610   24.1420 C   0  0  0  0  0  3  0  0  0  0  0  0
  -21.2080   -5.8240   25.2730 C   0  0  0  0  0  3  0  0  0  0  0  0
  -21.3940   -4.4370   25.1350 C   0  0  0  0  0  0  0  0  0  0  0  0
  -21.6450   -3.8830   23.8660 C   0  0  0  0  0  3  0  0  0  0  0  0
  -21.7090   -4.7170   22.7370 C   0  0  0  0  0  0  0  0  0  0  0  0
  -21.9300   -4.1760   21.5150 F   0  0  0  0  0  0  0  0  0  0  0  0
  -21.3260   -3.6310   26.2200 F   0  0  0  0  0  0  0  0  0  0  0  0
  -23.2150  -13.3820   21.2770 C   0  0  0  0  0  0  0  0  0  0  0  0
  -22.4980  -12.7750   22.2140 N   0  0  0  0  0  0  0  0  0  0  0  0
  -22.8300  -14.4290   20.7590 O   0  0  0  0  0  0  0  0  0  0  0  0
  -22.8240  -11.9260   22.6550 H   0  0  0  0  0  0  0  0  0  0  0  0
  -21.6100  -13.1630   22.4980 H   0  0  0  0  0  0  0  0  0  0  0  0
  -25.9340  -14.7910   20.2740 N   0  0  0  0  0  0  0  0  0  0  0  0
  -25.2370  -15.5140   20.4150 H   0  0  0  0  0  0  0  0  0  0  0  0
  -26.8010  -15.1400   19.8900 H   0  0  0  0  0  0  0  0  0  0  0  0
  1  2  1  0
  2  4  1  0
  2  5  1  0
  3  1  2  0
  5  6  1  0
  6  7  1  0
  7  9  1  0
  7 10  1  0
  8  7  1  0
 10 11  1  0
 11 12  1  0
 12 14  1  0
 13 24  2  0
 14 19  1  0
 15 23  1  0
 15 25  1  0
 16 22  1  0
 16 18  1  0
 17 23  1  0
 18 17  1  0
 19 18  2  0
 20 21  1  0
 20 14  2  0
 21 16  2  0
 22 15  1  0
 23 13  1  0
 25 27  2  0
 26 25  1  0
 28 26  1  0
 29 38  2  0
 29 34  1  0
 30 26  1  0
 30 34  1  0
 31 30  1  0
 32 33  1  0
 32 31  1  0
 33 29  1  0
 34 35  2  0
 35 36  1  0
 37 36  2  0
 38 37  1  0
 39 13  1  0
 39 44  1  0
 39 40  1  0
 40 43  1  1
 40 41  1  0
 42 40  1  0
 44 47  1  0
 45 49  1  0
 45 44  1  0
 46 45  2  0
 49 48  1  0
 51 49  1  0
 51 52  1  0
 51 50  1  0
 53  1  1  0
 53 54  1  0
 54 55  1  0
 55 56  1  0
 56 57  1  0
 57 58  1  0
 58 59  1  0
 59 60  1  0
 60 61  1  0
 61 62  1  0
 62 63  1  0
 64 72  1  0
 65 70  1  0
 66 67  1  0
 66 65  1  0
 68 67  1  0
 68 77  1  0
 68 69  1  0
 70 64  1  0
 70 69  1  0
 71 64  2  0
 72 63  1  0
 72 73  1  0
 74 75  2  0
 75 94  1  0
 76 75  1  0
 76 79  1  0
 77 74  1  0
 77 78  1  0
 78 76  2  0
 79 80  1  0
 80 81  2  0
 82 85  1  0
 82 81  1  0
 83 82  2  0
 84 83  1  0
 84 79  2  0
 85 86  1  0
 86 87  1  0
 87 88  2  0
 89 88  1  0
 89 93  1  0
 90 89  2  0
 91 86  2  0
 91 90  1  0
 92 91  1  0
 94 95  1  0
 95 98  1  0
 95 97  1  0
 96 94  2  0
 99100  1  0
 99 74  1  0
101 99  1  0
M  ISO  4  11 101  12 101  64 100  72 100
M  END
>  <TORSDO>  (92) 
F 32

>  <SCORE>  (92) 
-9.236

>  <name>  (92) 
99

>  <ligand_id>  (92) 
99

>  <original_smiles>  (92) 
[H]c1c([H])c([H])c2c(c1[H])C([H])([H])C([H])([H])C([H])([H])C2([H])N([H])C(=O)C1([H])N(C(=O)C([H])(N([H])C(=O)C([H])(N([H])C([H])([H])[H])C([H])([H])[H])C(C([H])([H])[H])(C([H])([H])[H])C([H])([H])[H])C([H])([H])c2c([H])c(OC([H])([H])C([H])([H])[N+]([H])([H])C([H])([H])C([H])([H])N([H])C(=O)C([H])([H])OC([H])([H])C([H])([H])C([H])([H])C([H])([H])C([H])([H])OC([H])([H])C([H])([H])C([H])([H])N([H])C(=O)N3C([H])([H])C([H])([H])C([H])([H])C([H])(n4nc(-c5c([H])c([H])c(Oc6c([H])c([H])c(F)c([H])c6F)c([H])c5[H])c(C(=O)N([H])[H])c4N([H])[H])C3([H])[H])c([H])c([H])c2C1([H])[H]

>  <smiles>  (92) 
[H]c1c([H])c([H])c2c(c1[H])C([H])([H])C([H])([H])C([H])([H])C2([H])N([H])C(=O)C1([H])N(C(=O)C([H])(N([H])C(=O)C([H])(N([H])C([H])([H])[H])C([H])([H])[H])C(C([H])([H])[H])(C([H])([H])[H])C([H])([H])[H])C([H])([H])c2c([H])c(OC([H])([H])C([H])([H])[N+]([H])([H])C([H])([H])C([H])([H])N([H])C(=O)C([H])([H])OC([H])([H])C([H])([H])C([H])([H])C([H])([H])C([H])([H])OC([H])([H])C([H])([H])C([H])([H])N([H])C(=O)N3C([H])([H])C([H])([H])C([H])([H])C([H])(n4nc(-c5c([H])c([H])c(Oc6c([H])c([H])c(F)c([H])c6F)c([H])c5[H])c(C(=O)N([H])[H])c4N([H])[H])C3([H])[H])c([H])c([H])c2C1([H])[H]

$$$$
