0:0:0
     RDKit          3D

 94102  0  0  1  0  0  0  0  0999 V2000
  -28.6190  -24.9930   18.6380 C   0  0  0  0  0  2  0  0  0  0  0  0
  -29.5280  -24.8800   20.9580 C   0  0  0  0  0  2  0  0  0  0  0  0
  -28.6030  -23.4670   18.5670 C   0  0  0  0  0  2  0  0  0  0  0  0
  -29.5440  -23.3510   20.8580 C   0  0  0  0  0  2  0  0  0  0  0  0
  -28.4000  -25.4260   20.0860 C   0  0  0  0  0  3  0  0  0  0  0  0
  -29.6460  -22.8690   19.4480 N   0  0  1  0  0  4  0  0  0  0  0  0
  -30.5460  -23.1750   19.1080 H   0  0  0  0  0  0  0  0  0  0  0  0
  -28.4220  -26.8340   20.1530 O   0  0  0  0  0  0  0  0  0  0  0  0
  -24.5970  -31.8740   23.2260 C   0  0  0  0  0  0  0  0  0  0  0  0
  -27.2130  -27.4860   20.1270 C   0  0  0  0  0  0  0  0  0  0  0  0
  -23.3660  -30.4750   21.6000 C   0  0  0  0  0  3  0  0  0  0  0  0
  -24.8010  -28.9460   20.1580 C   0  0  0  0  0  0  0  0  0  0  0  0
  -25.8800  -30.8640   21.3480 C   0  0  0  0  0  2  0  0  0  0  0  0
  -25.9620  -29.4930   20.7180 C   0  0  0  0  0  0  0  0  0  0  0  0
  -27.1690  -28.7690   20.6970 C   0  0  0  0  0  3  0  0  0  0  0  0
  -26.0310  -26.9390   19.5680 C   0  0  0  0  0  3  0  0  0  0  0  0
  -24.8280  -27.6670   19.5800 C   0  0  0  0  0  3  0  0  0  0  0  0
  -23.5520  -29.7940   20.2170 C   0  0  0  0  0  2  0  0  0  0  0  0
  -24.6350  -31.0810   22.1190 N   0  0  0  0  0  0  0  0  0  0  0  0
  -23.5230  -32.1410   23.7840 O   0  0  0  0  0  0  0  0  0  0  0  0
  -22.7350  -29.4490   22.5660 C   0  0  0  0  0  0  0  0  0  0  0  0
  -21.4100  -29.2620   22.4520 N   0  0  0  0  0  0  0  0  0  0  0  0
  -23.4310  -28.8220   23.3680 O   0  0  0  0  0  0  0  0  0  0  0  0
  -20.9110  -29.8200   21.7730 H   0  0  0  0  0  0  0  0  0  0  0  0
  -18.0460  -28.0550   22.9680 C   0  0  0  0  0  0  0  0  0  0  0  0
  -20.6030  -28.3240   23.2290 C   0  0  0  0  0  3  0  0  0  0  0  0
  -20.7110  -26.8910   22.6610 C   0  0  0  0  0  2  0  0  0  0  0  0
  -19.6060  -26.5580   21.6530 C   0  0  0  0  0  2  0  0  0  0  0  0
  -18.2260  -26.7020   22.3010 C   0  0  0  0  0  2  0  0  0  0  0  0
  -19.1630  -28.8240   23.3890 C   0  0  0  0  0  0  0  0  0  0  0  0
  -18.9440  -30.0900   23.9730 C   0  0  0  0  0  3  0  0  0  0  0  0
  -17.6370  -30.5890   24.1420 C   0  0  0  0  0  3  0  0  0  0  0  0
  -16.5340  -29.8190   23.7340 C   0  0  0  0  0  3  0  0  0  0  0  0
  -16.7380  -28.5540   23.1550 C   0  0  0  0  0  3  0  0  0  0  0  0
  -25.8930  -32.5040   23.8250 C   0  0  0  0  0  3  0  0  0  0  0  0
  -25.5840  -33.8970   24.1720 N   0  0  0  0  0  0  0  0  0  0  0  0
  -25.9030  -34.9550   23.4150 C   0  0  0  0  0  0  0  0  0  0  0  0
  -26.5610  -34.8610   22.3740 O   0  0  0  0  0  0  0  0  0  0  0  0
  -25.0000  -34.0450   24.9830 H   0  0  0  0  0  0  0  0  0  0  0  0
  -24.1620  -36.7430   23.0940 C   0  0  0  0  0  1  0  0  0  0  0  0
  -25.4170  -36.3390   23.8850 C   0  0  0  0  0  3  0  0  0  0  0  0
  -27.5640  -37.2240   24.6850 C   0  0  0  0  0  1  0  0  0  0  0  0
  -26.4440  -37.3970   23.7630 N   0  0  0  0  0  0  0  0  0  0  0  0
  -26.0350  -38.3130   23.9290 H   0  0  0  0  0  0  0  0  0  0  0  0
  -26.4370  -31.7190   25.0810 C   0  0  1  0  0  0  0  0  0  0  0  0
  -25.3680  -31.4710   26.1690 C   0  0  0  0  0  1  0  0  0  0  0  0
  -27.0130  -30.3460   24.6580 C   0  0  0  0  0  1  0  0  0  0  0  0
  -27.5990  -32.5070   25.7300 C   0  0  0  0  0  1  0  0  0  0  0  0
  -29.6290  -21.3860   19.4260 C   0  0  0  0  0  2  0  0  0  0  0  0
  -29.8450  -20.7090   18.0510 C   0  0  0  0  0  2  0  0  0  0  0  0
  -29.4790  -19.2130   18.1080 C   0  0  0  0  0  2  0  0  0  0  0  0
  -29.7430  -17.2760   19.6180 C   0  0  0  0  0  0  0  0  0  0  0  0
  -30.0270  -18.5390   19.2870 N   0  0  0  0  0  0  0  0  0  0  0  0
  -29.0620  -16.5380   18.8990 O   0  0  0  0  0  0  0  0  0  0  0  0
  -30.5890  -19.0830   19.9320 H   0  0  0  0  0  0  0  0  0  0  0  0
  -30.2920  -16.7810   20.9650 C   0  0  0  0  0  2  0  0  0  0  0  0
  -30.6940  -14.3830   20.5440 C   0  0  0  0  0  0  0  0  0  0  0  0
  -30.3500  -12.2700   19.3300 C   0  0  0  0  0  2  0  0  0  0  0  0
  -29.4130  -12.5500   18.1380 C   0  0  0  0  0  2  0  0  0  0  0  0
  -27.9310  -12.4400   18.5530 C   0  0  0  0  0  2  0  0  0  0  0  0
  -27.6140  -13.2430   19.8410 C   0  0  0  0  0  3  0  0  0  0  0  0
  -28.6630  -12.9410   20.9390 C   0  0  0  0  0  2  0  0  0  0  0  0
  -30.0030  -13.2230   20.3930 N   0  0  0  0  0  0  0  0  0  0  0  0
  -31.7950  -14.5980   20.0310 O   0  0  0  0  0  0  0  0  0  0  0  0
  -30.0200  -15.3560   21.1630 N   0  0  0  0  0  0  0  0  0  0  0  0
  -29.1130  -15.1150   21.5300 H   0  0  0  0  0  0  0  0  0  0  0  0
  -25.2070  -13.8800   20.5100 C   0  0  0  0  0  0  0  0  0  0  0  0
  -24.1300  -13.1210   20.8750 C   0  0  0  0  0  0  0  0  0  0  0  0
  -24.5780  -11.7640   20.8600 C   0  0  0  0  0  0  0  0  0  0  0  0
  -26.2500  -12.9880   20.3040 N   0  0  0  0  0  0  0  0  0  0  0  0
  -25.8700  -11.7120   20.5680 N   0  0  0  0  0  0  0  0  0  0  0  0
  -23.8410  -10.5110   21.0480 C   0  0  0  0  0  0  0  0  0  0  0  0
  -24.2730   -9.5320   21.9670 C   0  0  0  0  0  3  0  0  0  0  0  0
  -23.5350   -8.3440   22.1440 C   0  0  0  0  0  3  0  0  0  0  0  0
  -22.3470   -8.1250   21.4060 C   0  0  0  0  0  0  0  0  0  0  0  0
  -21.9320   -9.0940   20.4770 C   0  0  0  0  0  3  0  0  0  0  0  0
  -22.6730  -10.2740   20.2930 C   0  0  0  0  0  3  0  0  0  0  0  0
  -21.5770   -6.9900   21.5020 O   0  0  0  0  0  0  0  0  0  0  0  0
  -21.5580   -6.2230   22.6390 C   0  0  0  0  0  0  0  0  0  0  0  0
  -21.2080   -6.7620   23.8970 C   0  0  0  0  0  3  0  0  0  0  0  0
  -21.1310   -5.9230   25.0270 C   0  0  0  0  0  3  0  0  0  0  0  0
  -21.3950   -4.5460   24.9010 C   0  0  0  0  0  0  0  0  0  0  0  0
  -21.7410   -4.0080   23.6500 C   0  0  0  0  0  3  0  0  0  0  0  0
  -21.8190   -4.8430   22.5230 C   0  0  0  0  0  0  0  0  0  0  0  0
  -22.1290   -4.3110   21.3150 F   0  0  0  0  0  0  0  0  0  0  0  0
  -21.3160   -3.7400   25.9860 F   0  0  0  0  0  0  0  0  0  0  0  0
  -22.7320  -13.6120   21.1250 C   0  0  0  0  0  0  0  0  0  0  0  0
  -21.9860  -12.9380   21.9930 N   0  0  0  0  0  0  0  0  0  0  0  0
  -22.3090  -14.6340   20.5880 O   0  0  0  0  0  0  0  0  0  0  0  0
  -22.3390  -12.1120   22.4540 H   0  0  0  0  0  0  0  0  0  0  0  0
  -21.0490  -13.2510   22.1980 H   0  0  0  0  0  0  0  0  0  0  0  0
  -25.3770  -15.2490   20.3260 N   0  0  0  0  0  0  0  0  0  0  0  0
  -24.6050  -15.9020   20.4240 H   0  0  0  0  0  0  0  0  0  0  0  0
  -26.2380  -15.6940   20.0350 H   0  0  0  0  0  0  0  0  0  0  0  0
  1  5  1  0
  3  1  1  0
  3  6  1  0
  4  2  1  0
  5  8  1  0
  5  2  1  0
  6  4  1  0
  6  7  1  6
  9 20  2  0
 10  8  1  0
 10 15  1  0
 11 19  1  0
 11 21  1  0
 12 18  1  0
 12 14  1  0
 13 19  1  0
 14 13  1  0
 15 14  2  0
 16 17  1  0
 16 10  2  0
 17 12  2  0
 18 11  1  0
 19  9  1  0
 21 23  2  0
 22 21  1  0
 24 22  1  0
 25 34  2  0
 25 30  1  0
 26 22  1  0
 26 30  1  0
 27 26  1  0
 28 29  1  0
 28 27  1  0
 29 25  1  0
 30 31  2  0
 31 32  1  0
 33 32  2  0
 34 33  1  0
 35  9  1  0
 35 36  1  0
 35 45  1  0
 36 39  1  0
 37 41  1  0
 37 36  1  0
 38 37  2  0
 41 40  1  0
 43 41  1  0
 43 44  1  0
 43 42  1  0
 45 48  1  1
 45 46  1  0
 47 45  1  0
 49  6  1  0
 50 51  1  0
 50 49  1  0
 51 53  1  0
 52 56  1  0
 53 52  1  0
 53 55  1  0
 54 52  2  0
 56 65  1  0
 57 65  1  0
 58 63  1  0
 59 60  1  0
 59 58  1  0
 61 60  1  0
 61 70  1  0
 61 62  1  0
 63 57  1  0
 63 62  1  0
 64 57  2  0
 65 66  1  0
 67 68  2  0
 68 87  1  0
 69 68  1  0
 69 72  1  0
 70 67  1  0
 70 71  1  0
 71 69  2  0
 72 73  1  0
 73 74  2  0
 75 78  1  0
 75 74  1  0
 76 75  2  0
 77 76  1  0
 77 72  2  0
 78 79  1  0
 79 80  1  0
 80 81  2  0
 82 81  1  0
 82 86  1  0
 83 82  2  0
 84 79  2  0
 84 83  1  0
 85 84  1  0
 87 88  1  0
 88 91  1  0
 88 90  1  0
 89 87  2  0
 92 93  1  0
 92 67  1  0
 94 92  1  0
M  ISO  4   5 101   8 101  57 100  65 100
M  END
>  <TORSDO>  (1) 
F 21

>  <SCORE>  (1) 
-13.364

>  <name>  (1) 
0

>  <ligand_id>  (1) 
0

>  <original_smiles>  (1) 
[H]c1c([H])c([H])c2c(c1[H])C([H])([H])C([H])([H])C([H])([H])C2([H])N([H])C(=O)C1([H])N(C(=O)C([H])(N([H])C(=O)C([H])(N([H])C([H])([H])[H])C([H])([H])[H])C(C([H])([H])[H])(C([H])([H])[H])C([H])([H])[H])C([H])([H])c2c([H])c(OC3([H])C([H])([H])C([H])([H])[N+]([H])(C([H])([H])C([H])([H])C([H])([H])N([H])C(=O)C([H])([H])N([H])C(=O)N4C([H])([H])C([H])([H])C([H])([H])C([H])(n5nc(-c6c([H])c([H])c(Oc7c([H])c([H])c(F)c([H])c7F)c([H])c6[H])c(C(=O)N([H])[H])c5N([H])[H])C4([H])[H])C([H])([H])C3([H])[H])c([H])c([H])c2C1([H])[H]

>  <smiles>  (1) 
[H]c1c([H])c([H])c2c(c1[H])C([H])([H])C([H])([H])C([H])([H])C2([H])N([H])C(=O)C1([H])N(C(=O)C([H])(N([H])C(=O)C([H])(N([H])C([H])([H])[H])C([H])([H])[H])C(C([H])([H])[H])(C([H])([H])[H])C([H])([H])[H])C([H])([H])c2c([H])c(OC3([H])C([H])([H])C([H])([H])[N+]([H])(C([H])([H])C([H])([H])C([H])([H])N([H])C(=O)C([H])([H])N([H])C(=O)N4C([H])([H])C([H])([H])C([H])([H])C([H])(n5nc(-c6c([H])c([H])c(Oc7c([H])c([H])c(F)c([H])c7F)c([H])c6[H])c(C(=O)N([H])[H])c5N([H])[H])C4([H])[H])C([H])([H])C3([H])[H])c([H])c([H])c2C1([H])[H]

$$$$
1:0:0
     RDKit          3D

 99108  0  0  1  0  0  0  0  0999 V2000
  -25.9960  -21.8800   20.0200 C   0  0  0  0  0  0  0  0  0  0  0  0
  -25.9410  -24.2940   20.5370 C   0  0  0  0  0  2  0  0  0  0  0  0
  -26.4980  -23.6650   18.2840 C   0  0  0  0  0  2  0  0  0  0  0  0
  -27.3390  -24.9030   20.7630 C   0  0  0  0  0  2  0  0  0  0  0  0
  -27.9190  -24.2560   18.4170 C   0  0  0  0  0  2  0  0  0  0  0  0
  -26.0730  -23.1700   19.6000 N   0  0  0  0  0  0  0  0  0  0  0  0
  -27.9830  -25.3030   19.4790 N   0  0  2  0  0  4  0  0  0  0  0  0
  -25.7360  -21.5990   21.1940 O   0  0  0  0  0  0  0  0  0  0  0  0
  -27.4300  -26.0690   19.1180 H   0  0  0  0  0  0  0  0  0  0  0  0
  -26.2170  -20.7020   19.0520 C   0  0  0  0  0  2  0  0  0  0  0  0
  -28.4630  -19.7250   19.4960 C   0  0  0  0  0  0  0  0  0  0  0  0
  -27.1280  -19.6900   19.5870 N   0  0  0  0  0  0  0  0  0  0  0  0
  -29.0770  -20.7020   19.0630 O   0  0  0  0  0  0  0  0  0  0  0  0
  -26.7030  -18.8670   19.9920 H   0  0  0  0  0  0  0  0  0  0  0  0
  -32.0300  -15.3760   20.2350 C   0  0  0  0  0  0  0  0  0  0  0  0
  -31.8160  -13.0360   19.5110 C   0  0  0  0  0  2  0  0  0  0  0  0
  -30.9450  -13.0050   18.2370 C   0  0  0  0  0  2  0  0  0  0  0  0
  -29.4480  -12.9260   18.5990 C   0  0  0  0  0  2  0  0  0  0  0  0
  -29.0280  -13.9720   19.6700 C   0  0  0  0  0  3  0  0  0  0  0  0
  -30.0200  -13.9800   20.8520 C   0  0  0  0  0  2  0  0  0  0  0  0
  -31.3740  -14.1880   20.3090 N   0  0  0  0  0  0  0  0  0  0  0  0
  -33.2000  -15.4780   19.8540 O   0  0  0  0  0  0  0  0  0  0  0  0
  -29.8170  -17.7910   18.6130 C   0  0  0  0  0  2  0  0  0  0  0  0
  -30.2870  -18.6510   20.9640 C   0  0  0  0  0  2  0  0  0  0  0  0
  -31.1950  -17.1600   18.8650 C   0  0  0  0  0  2  0  0  0  0  0  0
  -30.9890  -17.3150   21.3260 C   0  0  0  0  0  2  0  0  0  0  0  0
  -29.2080  -18.4400   19.8800 C   0  0  0  0  0  3  0  0  0  0  0  0
  -31.2170  -16.4500   20.1520 N   0  0  0  0  0  0  0  0  0  0  0  0
  -26.6370  -14.6830   20.3130 C   0  0  0  0  0  0  0  0  0  0  0  0
  -25.5310  -13.9620   20.6640 C   0  0  0  0  0  0  0  0  0  0  0  0
  -25.9350  -12.5930   20.6450 C   0  0  0  0  0  0  0  0  0  0  0  0
  -27.6530  -13.7620   20.1150 N   0  0  0  0  0  0  0  0  0  0  0  0
  -27.2290  -12.4970   20.3640 N   0  0  0  0  0  0  0  0  0  0  0  0
  -25.1470  -11.3670   20.8160 C   0  0  0  0  0  0  0  0  0  0  0  0
  -25.3770  -10.4910   21.8990 C   0  0  0  0  0  3  0  0  0  0  0  0
  -24.5960   -9.3270   22.0520 C   0  0  0  0  0  3  0  0  0  0  0  0
  -23.5720   -9.0300   21.1220 C   0  0  0  0  0  0  0  0  0  0  0  0
  -23.3630   -9.8930   20.0330 C   0  0  0  0  0  3  0  0  0  0  0  0
  -24.1470  -11.0490   19.8780 C   0  0  0  0  0  3  0  0  0  0  0  0
  -22.7840   -7.9050   21.1770 O   0  0  0  0  0  0  0  0  0  0  0  0
  -22.3430   -7.3930   22.3710 C   0  0  0  0  0  0  0  0  0  0  0  0
  -21.5500   -8.1520   23.2580 C   0  0  0  0  0  3  0  0  0  0  0  0
  -21.0570   -7.5660   24.4400 C   0  0  0  0  0  3  0  0  0  0  0  0
  -21.3520   -6.2220   24.7340 C   0  0  0  0  0  0  0  0  0  0  0  0
  -22.1400   -5.4630   23.8500 C   0  0  0  0  0  3  0  0  0  0  0  0
  -22.6310   -6.0460   22.6700 C   0  0  0  0  0  0  0  0  0  0  0  0
  -23.3690   -5.3040   21.8090 F   0  0  0  0  0  0  0  0  0  0  0  0
  -20.8770   -5.6540   25.8670 F   0  0  0  0  0  0  0  0  0  0  0  0
  -24.1510  -14.5030   20.9070 C   0  0  0  0  0  0  0  0  0  0  0  0
  -23.3920  -13.8740   21.7960 N   0  0  0  0  0  0  0  0  0  0  0  0
  -23.7580  -15.5220   20.3410 O   0  0  0  0  0  0  0  0  0  0  0  0
  -23.7180  -13.0460   22.2770 H   0  0  0  0  0  0  0  0  0  0  0  0
  -22.4660  -14.2240   22.0000 H   0  0  0  0  0  0  0  0  0  0  0  0
  -26.8440  -16.0420   20.1160 N   0  0  0  0  0  0  0  0  0  0  0  0
  -26.0330  -16.6460   20.0590 H   0  0  0  0  0  0  0  0  0  0  0  0
  -27.6560  -16.3950   19.6280 H   0  0  0  0  0  0  0  0  0  0  0  0
  -29.3420  -25.8780   19.6600 C   0  0  0  0  0  2  0  0  0  0  0  0
  -29.2750  -27.3840   19.9460 C   0  0  0  0  0  2  0  0  0  0  0  0
  -28.5640  -27.9730   18.8630 O   0  0  0  0  0  0  0  0  0  0  0  0
  -24.4410  -31.7880   23.2590 C   0  0  0  0  0  0  0  0  0  0  0  0
  -27.3300  -28.4850   19.1650 C   0  0  0  0  0  0  0  0  0  0  0  0
  -23.2760  -30.5980   21.4260 C   0  0  0  0  0  3  0  0  0  0  0  0
  -24.7820  -29.5820   19.6380 C   0  0  0  0  0  0  0  0  0  0  0  0
  -25.7150  -31.3240   21.1740 C   0  0  0  0  0  2  0  0  0  0  0  0
  -25.9080  -30.1300   20.2650 C   0  0  0  0  0  0  0  0  0  0  0  0
  -27.1860  -29.5800   20.0410 C   0  0  0  0  0  3  0  0  0  0  0  0
  -26.1950  -27.9440   18.5300 C   0  0  0  0  0  3  0  0  0  0  0  0
  -24.9170  -28.4810   18.7740 C   0  0  0  0  0  3  0  0  0  0  0  0
  -23.4530  -30.2400   19.9250 C   0  0  0  0  0  2  0  0  0  0  0  0
  -24.4970  -31.2410   22.0120 N   0  0  0  0  0  0  0  0  0  0  0  0
  -23.3830  -31.8010   23.9030 O   0  0  0  0  0  0  0  0  0  0  0  0
  -22.8350  -29.3270   22.1850 C   0  0  0  0  0  0  0  0  0  0  0  0
  -21.5580  -28.9470   22.0220 N   0  0  0  0  0  0  0  0  0  0  0  0
  -23.6380  -28.6920   22.8740 O   0  0  0  0  0  0  0  0  0  0  0  0
  -20.9560  -29.5330   21.4590 H   0  0  0  0  0  0  0  0  0  0  0  0
  -18.4700  -27.0790   22.2070 C   0  0  0  0  0  0  0  0  0  0  0  0
  -20.9310  -27.7580   22.5990 C   0  0  0  0  0  3  0  0  0  0  0  0
  -21.3090  -26.4910   21.7980 C   0  0  0  0  0  2  0  0  0  0  0  0
  -20.2830  -26.1230   20.7210 C   0  0  0  0  0  2  0  0  0  0  0  0
  -18.9020  -25.9020   21.3470 C   0  0  0  0  0  2  0  0  0  0  0  0
  -19.4230  -27.9570   22.7840 C   0  0  0  0  0  0  0  0  0  0  0  0
  -18.9680  -29.0540   23.5490 C   0  0  0  0  0  3  0  0  0  0  0  0
  -17.5920  -29.2740   23.7450 C   0  0  0  0  0  3  0  0  0  0  0  0
  -16.6520  -28.3930   23.1830 C   0  0  0  0  0  3  0  0  0  0  0  0
  -17.0910  -27.2950   22.4210 C   0  0  0  0  0  3  0  0  0  0  0  0
  -25.6930  -32.4430   23.9200 C   0  0  0  0  0  3  0  0  0  0  0  0
  -26.2530  -31.6190   25.1430 C   0  0  1  0  0  0  0  0  0  0  0  0
  -25.1760  -31.2620   26.1930 C   0  0  0  0  0  1  0  0  0  0  0  0
  -26.9030  -30.3000   24.6640 C   0  0  0  0  0  1  0  0  0  0  0  0
  -27.3630  -32.4270   25.8540 C   0  0  0  0  0  1  0  0  0  0  0  0
  -25.3120  -33.8000   24.3350 N   0  0  0  0  0  0  0  0  0  0  0  0
  -25.6310  -34.9170   23.6690 C   0  0  0  0  0  0  0  0  0  0  0  0
  -26.3480  -34.9150   22.6630 O   0  0  0  0  0  0  0  0  0  0  0  0
  -24.6770  -33.8720   25.1180 H   0  0  0  0  0  0  0  0  0  0  0  0
  -23.8440  -36.6580   23.3580 C   0  0  0  0  0  1  0  0  0  0  0  0
  -25.0640  -36.2470   24.1980 C   0  0  0  0  0  3  0  0  0  0  0  0
  -27.1160  -37.1540   25.1950 C   0  0  0  0  0  1  0  0  0  0  0  0
  -26.0540  -37.3460   24.2110 N   0  0  0  0  0  0  0  0  0  0  0  0
  -25.6010  -38.2360   24.4030 H   0  0  0  0  0  0  0  0  0  0  0  0
  1  8  2  0
  2  4  1  0
  3  5  1  0
  3  6  1  0
  5  7  1  0
  6  1  1  0
  6  2  1  0
  7 57  1  0
  7  4  1  0
  7  9  1  6
 10 12  1  0
 10  1  1  0
 11 12  1  0
 12 14  1  0
 13 11  2  0
 15 21  1  0
 16 21  1  0
 17 18  1  0
 17 16  1  0
 19 18  1  0
 19 32  1  0
 19 20  1  0
 21 20  1  0
 22 15  2  0
 23 25  1  0
 23 27  1  0
 24 26  1  0
 25 28  1  0
 27 11  1  0
 27 24  1  0
 28 15  1  0
 28 26  1  0
 29 30  2  0
 30 49  1  0
 31 30  1  0
 31 34  1  0
 32 29  1  0
 32 33  1  0
 33 31  2  0
 34 35  1  0
 35 36  2  0
 37 40  1  0
 37 36  1  0
 38 37  2  0
 39 38  1  0
 39 34  2  0
 40 41  1  0
 41 46  2  0
 41 42  1  0
 42 43  2  0
 43 44  1  0
 44 48  1  0
 45 44  2  0
 46 45  1  0
 47 46  1  0
 49 50  1  0
 50 53  1  0
 50 52  1  0
 51 49  2  0
 54 29  1  0
 55 54  1  0
 56 54  1  0
 57 58  1  0
 59 61  1  0
 59 58  1  0
 60 71  2  0
 61 66  1  0
 62 70  1  0
 62 72  1  0
 63 69  1  0
 63 65  1  0
 64 70  1  0
 65 64  1  0
 66 65  2  0
 67 68  1  0
 67 61  2  0
 68 63  2  0
 69 62  1  0
 70 60  1  0
 72 74  2  0
 73 72  1  0
 75 73  1  0
 76 85  2  0
 76 81  1  0
 77 73  1  0
 77 81  1  0
 78 77  1  0
 79 80  1  0
 79 78  1  0
 80 76  1  0
 81 82  2  0
 82 83  1  0
 84 83  2  0
 85 84  1  0
 86 60  1  0
 86 91  1  0
 86 87  1  0
 87 90  1  1
 87 88  1  0
 89 87  1  0
 91 94  1  0
 92 96  1  0
 92 91  1  0
 93 92  2  0
 96 95  1  0
 96 98  1  0
 98 99  1  0
 98 97  1  0
M  ISO  4  15 100  28 100  58 101  59 101
M  END
>  <TORSDO>  (2) 
F 20

>  <SCORE>  (2) 
-6.076

>  <name>  (2) 
1

>  <ligand_id>  (2) 
1

>  <original_smiles>  (2) 
[H]c1c([H])c([H])c2c(c1[H])C([H])([H])C([H])([H])C([H])([H])C2([H])N([H])C(=O)C1([H])N(C(=O)C([H])(N([H])C(=O)C([H])(N([H])C([H])([H])[H])C([H])([H])[H])C(C([H])([H])[H])(C([H])([H])[H])C([H])([H])[H])C([H])([H])c2c([H])c(OC([H])([H])C([H])([H])[N+]3([H])C([H])([H])C([H])([H])N(C(=O)C([H])([H])N([H])C(=O)C4([H])C([H])([H])C([H])([H])N(C(=O)N5C([H])([H])C([H])([H])C([H])([H])C([H])(n6nc(-c7c([H])c([H])c(Oc8c([H])c([H])c(F)c([H])c8F)c([H])c7[H])c(C(=O)N([H])[H])c6N([H])[H])C5([H])[H])C([H])([H])C4([H])[H])C([H])([H])C3([H])[H])c([H])c([H])c2C1([H])[H]

>  <smiles>  (2) 
[H]c1c([H])c([H])c2c(c1[H])C([H])([H])C([H])([H])C([H])([H])C2([H])N([H])C(=O)C1([H])N(C(=O)C([H])(N([H])C(=O)C([H])(N([H])C([H])([H])[H])C([H])([H])[H])C(C([H])([H])[H])(C([H])([H])[H])C([H])([H])[H])C([H])([H])c2c([H])c(OC([H])([H])C([H])([H])[N+]3([H])C([H])([H])C([H])([H])N(C(=O)C([H])([H])N([H])C(=O)C4([H])C([H])([H])C([H])([H])N(C(=O)N5C([H])([H])C([H])([H])C([H])([H])C([H])(n6nc(-c7c([H])c([H])c(Oc8c([H])c([H])c(F)c([H])c8F)c([H])c7[H])c(C(=O)N([H])[H])c6N([H])[H])C5([H])[H])C([H])([H])C4([H])[H])C([H])([H])C3([H])[H])c([H])c([H])c2C1([H])[H]

$$$$
2:0:0
     RDKit          3D

 87 94  0  0  1  0  0  0  0  0999 V2000
  -28.6290  -23.0710   20.0770 C   0  0  0  0  0  0  0  0  0  0  0  0
  -28.5400  -24.2530   19.7380 C   0  0  0  0  0  2  0  0  0  0  0  0
  -28.8470  -21.8970   20.3630 C   0  0  0  0  0  0  0  0  0  0  0  0
  -29.2110  -20.7560   20.6510 C   0  0  0  0  0  2  0  0  0  0  0  0
  -29.8850  -19.4960   21.0790 C   0  0  0  0  0  2  0  0  0  0  0  0
  -29.2890  -18.0920   20.7230 C   0  0  0  0  0  2  0  0  0  0  0  0
  -30.2640  -16.9390   21.1400 C   0  0  0  0  0  2  0  0  0  0  0  0
  -30.6120  -14.5120   20.4850 C   0  0  0  0  0  0  0  0  0  0  0  0
  -30.3860  -12.3210   19.3590 C   0  0  0  0  0  2  0  0  0  0  0  0
  -29.4640  -12.5110   18.1370 C   0  0  0  0  0  2  0  0  0  0  0  0
  -27.9810  -12.3810   18.5390 C   0  0  0  0  0  2  0  0  0  0  0  0
  -27.6240  -13.2210   19.7940 C   0  0  0  0  0  3  0  0  0  0  0  0
  -28.6530  -12.9930   20.9200 C   0  0  0  0  0  2  0  0  0  0  0  0
  -29.9780  -13.3130   20.3660 N   0  0  0  0  0  0  0  0  0  0  0  0
  -31.7790  -14.6840   20.1180 O   0  0  0  0  0  0  0  0  0  0  0  0
  -29.8270  -15.5500   20.8730 N   0  0  0  0  0  0  0  0  0  0  0  0
  -28.8600  -15.3240   21.0570 H   0  0  0  0  0  0  0  0  0  0  0  0
  -25.2220  -13.8550   20.4450 C   0  0  0  0  0  0  0  0  0  0  0  0
  -24.1450  -13.0940   20.8080 C   0  0  0  0  0  0  0  0  0  0  0  0
  -24.5990  -11.7400   20.8060 C   0  0  0  0  0  0  0  0  0  0  0  0
  -26.2640  -12.9620   20.2480 N   0  0  0  0  0  0  0  0  0  0  0  0
  -25.8930  -11.6880   20.5240 N   0  0  0  0  0  0  0  0  0  0  0  0
  -23.8650  -10.4850   21.0030 C   0  0  0  0  0  0  0  0  0  0  0  0
  -24.2820   -9.5250   21.9510 C   0  0  0  0  0  3  0  0  0  0  0  0
  -23.5480   -8.3330   22.1320 C   0  0  0  0  0  3  0  0  0  0  0  0
  -22.3840   -8.0940   21.3640 C   0  0  0  0  0  0  0  0  0  0  0  0
  -21.9880   -9.0410   20.4030 C   0  0  0  0  0  3  0  0  0  0  0  0
  -22.7220  -10.2250   20.2210 C   0  0  0  0  0  3  0  0  0  0  0  0
  -21.6220   -6.9550   21.4530 O   0  0  0  0  0  0  0  0  0  0  0  0
  -21.5590   -6.2200   22.6090 C   0  0  0  0  0  0  0  0  0  0  0  0
  -21.1300   -6.7870   23.8300 C   0  0  0  0  0  3  0  0  0  0  0  0
  -21.0120   -5.9800   24.9780 C   0  0  0  0  0  3  0  0  0  0  0  0
  -21.3140   -4.6070   24.9090 C   0  0  0  0  0  0  0  0  0  0  0  0
  -21.7410   -4.0400   23.6950 C   0  0  0  0  0  3  0  0  0  0  0  0
  -21.8610   -4.8440   22.5480 C   0  0  0  0  0  0  0  0  0  0  0  0
  -22.2490   -4.2900   21.3740 F   0  0  0  0  0  0  0  0  0  0  0  0
  -21.1970   -3.8280   26.0100 F   0  0  0  0  0  0  0  0  0  0  0  0
  -22.7470  -13.5840   21.0500 C   0  0  0  0  0  0  0  0  0  0  0  0
  -22.0030  -12.9020   21.9130 N   0  0  0  0  0  0  0  0  0  0  0  0
  -22.3250  -14.6050   20.5080 O   0  0  0  0  0  0  0  0  0  0  0  0
  -22.3610  -12.0750   22.3670 H   0  0  0  0  0  0  0  0  0  0  0  0
  -21.0650  -13.2130   22.1270 H   0  0  0  0  0  0  0  0  0  0  0  0
  -25.3980  -15.2210   20.2450 N   0  0  0  0  0  0  0  0  0  0  0  0
  -24.6200  -15.8690   20.3010 H   0  0  0  0  0  0  0  0  0  0  0  0
  -26.2430  -15.6450   19.8830 H   0  0  0  0  0  0  0  0  0  0  0  0
  -28.6230  -25.6300   19.1760 C   0  0  0  0  0  2  0  0  0  0  0  0
  -28.4030  -26.6890   20.1360 O   0  0  0  0  0  0  0  0  0  0  0  0
  -24.5910  -31.8800   23.2350 C   0  0  0  0  0  0  0  0  0  0  0  0
  -27.2220  -27.4160   20.1270 C   0  0  0  0  0  0  0  0  0  0  0  0
  -23.3780  -30.4780   21.6000 C   0  0  0  0  0  3  0  0  0  0  0  0
  -24.8220  -28.9370   20.1670 C   0  0  0  0  0  0  0  0  0  0  0  0
  -25.9060  -30.8260   21.3950 C   0  0  0  0  0  2  0  0  0  0  0  0
  -25.9850  -29.4520   20.7560 C   0  0  0  0  0  0  0  0  0  0  0  0
  -27.1810  -28.6920   20.7450 C   0  0  0  0  0  3  0  0  0  0  0  0
  -26.0340  -26.9220   19.5400 C   0  0  0  0  0  3  0  0  0  0  0  0
  -24.8420  -27.6690   19.5630 C   0  0  0  0  0  3  0  0  0  0  0  0
  -23.5770  -29.7940   20.2210 C   0  0  0  0  0  2  0  0  0  0  0  0
  -24.6430  -31.0790   22.1330 N   0  0  0  0  0  0  0  0  0  0  0  0
  -23.5110  -32.1530   23.7800 O   0  0  0  0  0  0  0  0  0  0  0  0
  -22.7300  -29.4610   22.5660 C   0  0  0  0  0  0  0  0  0  0  0  0
  -21.4050  -29.2780   22.4410 N   0  0  0  0  0  0  0  0  0  0  0  0
  -23.4160  -28.8370   23.3790 O   0  0  0  0  0  0  0  0  0  0  0  0
  -20.9120  -29.8250   21.7480 H   0  0  0  0  0  0  0  0  0  0  0  0
  -18.0300  -28.0820   22.9530 C   0  0  0  0  0  0  0  0  0  0  0  0
  -20.5910  -28.3390   23.2120 C   0  0  0  0  0  3  0  0  0  0  0  0
  -20.6940  -26.9110   22.6300 C   0  0  0  0  0  2  0  0  0  0  0  0
  -19.5850  -26.5870   21.6220 C   0  0  0  0  0  2  0  0  0  0  0  0
  -18.2060  -26.7330   22.2730 C   0  0  0  0  0  2  0  0  0  0  0  0
  -19.1530  -28.8430   23.3770 C   0  0  0  0  0  0  0  0  0  0  0  0
  -18.9390  -30.1080   23.9680 C   0  0  0  0  0  3  0  0  0  0  0  0
  -17.6360  -30.6100   24.1400 C   0  0  0  0  0  3  0  0  0  0  0  0
  -16.5280  -29.8470   23.7290 C   0  0  0  0  0  3  0  0  0  0  0  0
  -16.7270  -28.5840   23.1430 C   0  0  0  0  0  3  0  0  0  0  0  0
  -25.8810  -32.5080   23.8490 C   0  0  0  0  0  3  0  0  0  0  0  0
  -25.5750  -33.9060   24.1820 N   0  0  0  0  0  0  0  0  0  0  0  0
  -25.9080  -34.9600   23.4240 C   0  0  0  0  0  0  0  0  0  0  0  0
  -26.5760  -34.8590   22.3910 O   0  0  0  0  0  0  0  0  0  0  0  0
  -24.9890  -34.0550   24.9870 H   0  0  0  0  0  0  0  0  0  0  0  0
  -24.1780  -36.7510   23.0780 C   0  0  0  0  0  1  0  0  0  0  0  0
  -25.4230  -36.3470   23.8870 C   0  0  0  0  0  3  0  0  0  0  0  0
  -27.5520  -37.2320   24.7270 C   0  0  0  0  0  1  0  0  0  0  0  0
  -26.4560  -37.3990   23.7730 N   0  0  0  0  0  0  0  0  0  0  0  0
  -26.0530  -38.3210   23.9090 H   0  0  0  0  0  0  0  0  0  0  0  0
  -26.4030  -31.7360   25.1210 C   0  0  1  0  0  0  0  0  0  0  0  0
  -25.3120  -31.4970   26.1910 C   0  0  0  0  0  1  0  0  0  0  0  0
  -26.9890  -30.3600   24.7240 C   0  0  0  0  0  1  0  0  0  0  0  0
  -27.5530  -32.5330   25.7800 C   0  0  0  0  0  1  0  0  0  0  0  0
  1  3  3  0
  2  1  1  0
  3  4  1  0
  4  5  1  0
  6  5  1  0
  6  7  1  0
  8 16  1  0
  9 14  1  0
 10 11  1  0
 10  9  1  0
 12 11  1  0
 12 21  1  0
 12 13  1  0
 14  8  1  0
 14 13  1  0
 15  8  2  0
 16 17  1  0
 16  7  1  0
 18 19  2  0
 19 38  1  0
 20 19  1  0
 20 23  1  0
 21 18  1  0
 21 22  1  0
 22 20  2  0
 23 24  1  0
 24 25  2  0
 26 29  1  0
 26 25  1  0
 27 26  2  0
 28 27  1  0
 28 23  2  0
 29 30  1  0
 30 31  1  0
 31 32  2  0
 33 32  1  0
 33 37  1  0
 34 33  2  0
 35 30  2  0
 35 34  1  0
 36 35  1  0
 38 39  1  0
 39 42  1  0
 39 41  1  0
 40 38  2  0
 43 44  1  0
 43 18  1  0
 45 43  1  0
 46  2  1  0
 46 47  1  0
 48 59  2  0
 49 47  1  0
 49 54  1  0
 50 58  1  0
 50 60  1  0
 51 57  1  0
 51 53  1  0
 52 58  1  0
 53 52  1  0
 54 53  2  0
 55 56  1  0
 55 49  2  0
 56 51  2  0
 57 50  1  0
 58 48  1  0
 60 62  2  0
 61 60  1  0
 63 61  1  0
 64 73  2  0
 64 69  1  0
 65 61  1  0
 65 69  1  0
 66 65  1  0
 67 68  1  0
 67 66  1  0
 68 64  1  0
 69 70  2  0
 70 71  1  0
 72 71  2  0
 73 72  1  0
 74 48  1  0
 74 75  1  0
 74 84  1  0
 75 78  1  0
 76 80  1  0
 76 75  1  0
 77 76  2  0
 80 79  1  0
 82 80  1  0
 82 83  1  0
 82 81  1  0
 84 87  1  1
 84 85  1  0
 86 84  1  0
M  ISO  4   8 100  16 100  46 101  47 101
M  END
>  <TORSDO>  (3) 
F 21

>  <SCORE>  (3) 
-13.175

>  <name>  (3) 
2

>  <ligand_id>  (3) 
2

>  <original_smiles>  (3) 
[H]c1c([H])c([H])c2c(c1[H])C([H])([H])C([H])([H])C([H])([H])C2([H])N([H])C(=O)C1([H])N(C(=O)C([H])(N([H])C(=O)C([H])(N([H])C([H])([H])[H])C([H])([H])[H])C(C([H])([H])[H])(C([H])([H])[H])C([H])([H])[H])C([H])([H])c2c([H])c(OC([H])([H])C#CC#CC([H])([H])C([H])([H])C([H])([H])N([H])C(=O)N3C([H])([H])C([H])([H])C([H])([H])C([H])(n4nc(-c5c([H])c([H])c(Oc6c([H])c([H])c(F)c([H])c6F)c([H])c5[H])c(C(=O)N([H])[H])c4N([H])[H])C3([H])[H])c([H])c([H])c2C1([H])[H]

>  <smiles>  (3) 
[H]c1c([H])c([H])c2c(c1[H])C([H])([H])C([H])([H])C([H])([H])C2([H])N([H])C(=O)C1([H])N(C(=O)C([H])(N([H])C(=O)C([H])(N([H])C([H])([H])[H])C([H])([H])[H])C(C([H])([H])[H])(C([H])([H])[H])C([H])([H])[H])C([H])([H])c2c([H])c(OC([H])([H])C#CC#CC([H])([H])C([H])([H])C([H])([H])N([H])C(=O)N3C([H])([H])C([H])([H])C([H])([H])C([H])(n4nc(-c5c([H])c([H])c(Oc6c([H])c([H])c(F)c([H])c6F)c([H])c5[H])c(C(=O)N([H])[H])c4N([H])[H])C3([H])[H])c([H])c([H])c2C1([H])[H]

$$$$
3:0:0
     RDKit          3D

108116  0  0  1  0  0  0  0  0999 V2000
  -25.7950  -26.0500   26.9220 C   0  0  0  0  0  2  0  0  0  0  0  0
  -25.9700  -27.1650   26.0540 O   0  0  0  0  0  0  0  0  0  0  0  0
  -24.8680  -27.3900   25.1790 C   0  0  0  0  0  2  0  0  0  0  0  0
  -25.3920  -28.2030   23.9820 C   0  0  0  0  0  2  0  0  0  0  0  0
  -28.8170  -28.9310   22.4710 C   0  0  0  0  0  2  0  0  0  0  0  0
  -29.0640  -27.0830   24.0220 C   0  0  0  0  0  2  0  0  0  0  0  0
  -27.4420  -29.3180   23.0790 C   0  0  0  0  0  2  0  0  0  0  0  0
  -27.5480  -26.9400   23.7520 C   0  0  0  0  0  2  0  0  0  0  0  0
  -29.6360  -28.3510   23.5440 N   0  0  0  0  0  0  0  0  0  0  0  0
  -26.8760  -28.2470   23.9490 N   0  0  2  0  0  4  0  0  0  0  0  0
  -27.1500  -28.5060   24.8870 H   0  0  0  0  0  0  0  0  0  0  0  0
  -31.0400  -28.1030   23.2090 C   0  0  0  0  0  2  0  0  0  0  0  0
  -31.8860  -29.3750   23.0780 C   0  0  0  0  0  2  0  0  0  0  0  0
  -31.8720  -30.0200   24.3430 O   0  0  0  0  0  0  0  0  0  0  0  0
  -30.0280  -34.9590   29.0710 C   0  0  0  0  0  0  0  0  0  0  0  0
  -31.2980  -31.2550   24.5190 C   0  0  0  0  0  0  0  0  0  0  0  0
  -29.4030  -35.4530   26.7260 C   0  0  0  0  0  3  0  0  0  0  0  0
  -30.3720  -33.8810   24.9770 C   0  0  0  0  0  0  0  0  0  0  0  0
  -31.3900  -33.9330   27.2630 C   0  0  0  0  0  2  0  0  0  0  0  0
  -31.1100  -33.2180   25.9620 C   0  0  0  0  0  0  0  0  0  0  0  0
  -31.5780  -31.9100   25.7350 C   0  0  0  0  0  3  0  0  0  0  0  0
  -30.5240  -31.9250   23.5420 C   0  0  0  0  0  3  0  0  0  0  0  0
  -30.0650  -33.2340   23.7670 C   0  0  0  0  0  3  0  0  0  0  0  0
  -29.9540  -35.2970   25.2840 C   0  0  0  0  0  2  0  0  0  0  0  0
  -30.2620  -34.7630   27.7430 N   0  0  0  0  0  0  0  0  0  0  0  0
  -29.1390  -35.7300   29.4580 O   0  0  0  0  0  0  0  0  0  0  0  0
  -27.9330  -34.9750   26.7520 C   0  0  0  0  0  0  0  0  0  0  0  0
  -27.1180  -35.4780   25.8100 N   0  0  0  0  0  0  0  0  0  0  0  0
  -27.5530  -34.1500   27.5880 O   0  0  0  0  0  0  0  0  0  0  0  0
  -27.4990  -36.1620   25.1720 H   0  0  0  0  0  0  0  0  0  0  0  0
  -24.4560  -35.3450   23.3760 C   0  0  0  0  0  0  0  0  0  0  0  0
  -25.7070  -35.1420   25.6270 C   0  0  0  0  0  3  0  0  0  0  0  0
  -25.5100  -33.6160   25.4820 C   0  0  0  0  0  2  0  0  0  0  0  0
  -25.5260  -33.1430   24.0240 C   0  0  0  0  0  2  0  0  0  0  0  0
  -24.4160  -33.8330   23.2260 C   0  0  0  0  0  2  0  0  0  0  0  0
  -25.0750  -35.9600   24.4950 C   0  0  0  0  0  0  0  0  0  0  0  0
  -25.1180  -37.3700   24.5680 C   0  0  0  0  0  3  0  0  0  0  0  0
  -24.5510  -38.1600   23.5500 C   0  0  0  0  0  3  0  0  0  0  0  0
  -23.9280  -37.5460   22.4500 C   0  0  0  0  0  3  0  0  0  0  0  0
  -23.8780  -36.1430   22.3670 C   0  0  0  0  0  3  0  0  0  0  0  0
  -30.8850  -34.2480   30.1640 C   0  0  0  0  0  3  0  0  0  0  0  0
  -30.1050  -33.1080   30.9290 C   0  0  1  0  0  0  0  0  0  0  0  0
  -28.6860  -33.5200   31.3810 C   0  0  0  0  0  1  0  0  0  0  0  0
  -29.9660  -31.8420   30.0490 C   0  0  0  0  0  1  0  0  0  0  0  0
  -30.8960  -32.6850   32.1870 C   0  0  0  0  0  1  0  0  0  0  0  0
  -31.3510  -35.2830   31.0980 N   0  0  0  0  0  0  0  0  0  0  0  0
  -32.2750  -36.2080   30.8080 C   0  0  0  0  0  0  0  0  0  0  0  0
  -32.8790  -36.2390   29.7310 O   0  0  0  0  0  0  0  0  0  0  0  0
  -30.8510  -35.3580   31.9730 H   0  0  0  0  0  0  0  0  0  0  0  0
  -31.5720  -38.4270   31.7580 C   0  0  0  0  0  1  0  0  0  0  0  0
  -32.5760  -37.2710   31.8800 C   0  0  0  0  0  3  0  0  0  0  0  0
  -34.9750  -36.8050   32.1270 C   0  0  0  0  0  1  0  0  0  0  0  0
  -33.9560  -37.8020   31.8120 N   0  0  0  0  0  0  0  0  0  0  0  0
  -34.0680  -38.5870   32.4470 H   0  0  0  0  0  0  0  0  0  0  0  0
  -27.1170  -25.2760   26.9270 C   0  0  0  0  0  2  0  0  0  0  0  0
  -27.3450  -24.8200   25.6020 O   0  0  0  0  0  0  0  0  0  0  0  0
  -28.7130  -24.5580   25.3300 C   0  0  0  0  0  2  0  0  0  0  0  0
  -28.7960  -23.3590   24.3800 C   0  0  0  0  0  2  0  0  0  0  0  0
  -28.6600  -23.7820   23.0260 O   0  0  0  0  0  0  0  0  0  0  0  0
  -29.0240  -22.7550   22.1120 C   0  0  0  0  0  2  0  0  0  0  0  0
  -28.3630  -22.9630   20.7440 C   0  0  0  0  0  2  0  0  0  0  0  0
  -29.1110  -23.8720   19.9450 O   0  0  0  0  0  0  0  0  0  0  0  0
  -28.8250  -23.7140   18.5610 C   0  0  0  0  0  2  0  0  0  0  0  0
  -29.6110  -24.7340   17.7330 C   0  0  0  0  0  2  0  0  0  0  0  0
  -31.0030  -24.4960   17.8960 O   0  0  0  0  0  0  0  0  0  0  0  0
  -31.7730  -24.8860   16.7650 C   0  0  0  0  0  2  0  0  0  0  0  0
  -32.4800  -23.6670   16.1520 C   0  0  0  0  0  2  0  0  0  0  0  0
  -31.5440  -22.6230   15.8730 O   0  0  0  0  0  0  0  0  0  0  0  0
  -31.7430  -21.4720   16.6870 C   0  0  0  0  0  2  0  0  0  0  0  0
  -30.6800  -20.4010   16.3970 C   0  0  0  0  0  2  0  0  0  0  0  0
  -31.5620  -19.5410   14.2170 C   0  0  0  0  0  0  0  0  0  0  0  0
  -32.0860  -18.5580   12.0180 C   0  0  0  0  0  2  0  0  0  0  0  0
  -32.5240  -19.6650   11.0410 C   0  0  0  0  0  2  0  0  0  0  0  0
  -31.3040  -20.2900   10.3360 C   0  0  0  0  0  2  0  0  0  0  0  0
  -30.1860  -20.6940   11.3350 C   0  0  0  0  0  3  0  0  0  0  0  0
  -29.8930  -19.5470   12.3260 C   0  0  0  0  0  2  0  0  0  0  0  0
  -31.1580  -19.1590   12.9780 N   0  0  0  0  0  0  0  0  0  0  0  0
  -32.7120  -19.3850   14.6370 O   0  0  0  0  0  0  0  0  0  0  0  0
  -30.5890  -20.0360   14.9840 N   0  0  0  0  0  0  0  0  0  0  0  0
  -29.6770  -20.0980   14.5570 H   0  0  0  0  0  0  0  0  0  0  0  0
  -28.3100  -22.3500   10.7130 C   0  0  0  0  0  0  0  0  0  0  0  0
  -27.2710  -22.2670    9.8250 C   0  0  0  0  0  0  0  0  0  0  0  0
  -27.3690  -20.9730    9.2240 C   0  0  0  0  0  0  0  0  0  0  0  0
  -28.9750  -21.1350   10.6400 N   0  0  0  0  0  0  0  0  0  0  0  0
  -28.3690  -20.2870    9.7680 N   0  0  0  0  0  0  0  0  0  0  0  0
  -26.6020  -20.3710    8.1260 C   0  0  0  0  0  0  0  0  0  0  0  0
  -25.9500  -19.1270    8.2800 C   0  0  0  0  0  3  0  0  0  0  0  0
  -25.2020  -18.5710    7.2210 C   0  0  0  0  0  3  0  0  0  0  0  0
  -25.0960  -19.2600    5.9870 C   0  0  0  0  0  0  0  0  0  0  0  0
  -25.7620  -20.4890    5.8320 C   0  0  0  0  0  3  0  0  0  0  0  0
  -26.5110  -21.0370    6.8870 C   0  0  0  0  0  3  0  0  0  0  0  0
  -24.4180  -18.7830    4.8930 O   0  0  0  0  0  0  0  0  0  0  0  0
  -23.3510  -17.9290    5.0210 C   0  0  0  0  0  0  0  0  0  0  0  0
  -22.2060  -18.2790    5.7730 C   0  0  0  0  0  3  0  0  0  0  0  0
  -21.1040  -17.4020    5.8180 C   0  0  0  0  0  3  0  0  0  0  0  0
  -21.1390  -16.1850    5.1140 C   0  0  0  0  0  0  0  0  0  0  0  0
  -22.2770  -15.8370    4.3640 C   0  0  0  0  0  3  0  0  0  0  0  0
  -23.3770  -16.7120    4.3150 C   0  0  0  0  0  0  0  0  0  0  0  0
  -24.4620  -16.3840    3.5710 F   0  0  0  0  0  0  0  0  0  0  0  0
  -20.0770  -15.3490    5.1540 F   0  0  0  0  0  0  0  0  0  0  0  0
  -26.3000  -23.3560    9.4740 C   0  0  0  0  0  0  0  0  0  0  0  0
  -25.0570  -22.9970    9.1730 N   0  0  0  0  0  0  0  0  0  0  0  0
  -26.6300  -24.5410    9.5090 O   0  0  0  0  0  0  0  0  0  0  0  0
  -24.7840  -22.0270    9.1690 H   0  0  0  0  0  0  0  0  0  0  0  0
  -24.3710  -23.7000    8.9380 H   0  0  0  0  0  0  0  0  0  0  0  0
  -28.7560  -23.3540   11.5690 N   0  0  0  0  0  0  0  0  0  0  0  0
  -28.3190  -24.2680   11.6200 H   0  0  0  0  0  0  0  0  0  0  0  0
  -29.5640  -23.2640   12.1740 H   0  0  0  0  0  0  0  0  0  0  0  0
  1 55  1  0
  2  1  1  0
  3  2  1  0
  4  3  1  0
  5  7  1  0
  5  9  1  0
  7 10  1  0
  8 10  1  0
  8  6  1  0
  9  6  1  0
 10  4  1  0
 10 11  1  1
 12  9  1  0
 13 12  1  0
 13 14  1  0
 14 16  1  0
 15 26  2  0
 16 21  1  0
 17 27  1  0
 17 25  1  0
 18 24  1  0
 18 20  1  0
 19 25  1  0
 20 19  1  0
 21 20  2  0
 22 23  1  0
 22 16  2  0
 23 18  2  0
 24 17  1  0
 25 15  1  0
 27 29  2  0
 28 27  1  0
 30 28  1  0
 31 36  1  0
 32 28  1  0
 33 32  1  0
 34 33  1  0
 35 31  1  0
 35 34  1  0
 36 37  2  0
 36 32  1  0
 38 37  1  0
 39 38  2  0
 40 39  1  0
 40 31  2  0
 41 15  1  0
 41 42  1  0
 41 46  1  0
 42 43  1  1
 42 45  1  0
 44 42  1  0
 46 49  1  0
 47 46  1  0
 47 51  1  0
 48 47  2  0
 51 50  1  0
 53 51  1  0
 53 52  1  0
 53 54  1  0
 56 55  1  0
 57 56  1  0
 58 57  1  0
 59 58  1  0
 60 59  1  0
 61 60  1  0
 62 61  1  0
 63 62  1  0
 64 65  1  0
 64 63  1  0
 66 65  1  0
 67 66  1  0
 68 67  1  0
 68 69  1  0
 70 69  1  0
 71 78  2  0
 71 79  1  0
 72 77  1  0
 73 72  1  0
 74 73  1  0
 75 74  1  0
 75 76  1  0
 76 77  1  0
 77 71  1  0
 79 70  1  0
 80 79  1  0
 81106  1  0
 82 81  2  0
 83 85  2  0
 83 82  1  0
 84 81  1  0
 84 75  1  0
 85 84  1  0
 86 87  1  0
 86 83  1  0
 88 87  2  0
 89 88  1  0
 90 89  2  0
 90 91  1  0
 91 86  2  0
 92 93  1  0
 92 89  1  0
 93 94  1  0
 94 95  2  0
 96100  1  0
 96 95  1  0
 97 96  2  0
 98 97  1  0
 98 93  2  0
 99 98  1  0
101103  2  0
101 82  1  0
102101  1  0
104102  1  0
105102  1  0
106107  1  0
106108  1  0
M  ISO  4  13 101  14 101  71 100  79 100
M  END
>  <TORSDO>  (4) 
F 38

>  <SCORE>  (4) 
1.370

>  <name>  (4) 
3

>  <ligand_id>  (4) 
3

>  <original_smiles>  (4) 
[H]c1c([H])c([H])c2c(c1[H])C([H])([H])C([H])([H])C([H])([H])C2([H])N([H])C(=O)C1([H])N(C(=O)C([H])(N([H])C(=O)C([H])(N([H])C([H])([H])[H])C([H])([H])[H])C(C([H])([H])[H])(C([H])([H])[H])C([H])([H])[H])C([H])([H])c2c([H])c(OC([H])([H])C([H])([H])N3C([H])([H])C([H])([H])[N+]([H])(C([H])([H])C([H])([H])OC([H])([H])C([H])([H])OC([H])([H])C([H])([H])OC([H])([H])C([H])([H])OC([H])([H])C([H])([H])OC([H])([H])C([H])([H])OC([H])([H])C([H])([H])N([H])C(=O)N4C([H])([H])C([H])([H])C([H])([H])C([H])(n5nc(-c6c([H])c([H])c(Oc7c([H])c([H])c(F)c([H])c7F)c([H])c6[H])c(C(=O)N([H])[H])c5N([H])[H])C4([H])[H])C([H])([H])C3([H])[H])c([H])c([H])c2C1([H])[H]

>  <smiles>  (4) 
[H]c1c([H])c([H])c2c(c1[H])C([H])([H])C([H])([H])C([H])([H])C2([H])N([H])C(=O)C1([H])N(C(=O)C([H])(N([H])C(=O)C([H])(N([H])C([H])([H])[H])C([H])([H])[H])C(C([H])([H])[H])(C([H])([H])[H])C([H])([H])[H])C([H])([H])c2c([H])c(OC([H])([H])C([H])([H])N3C([H])([H])C([H])([H])[N+]([H])(C([H])([H])C([H])([H])OC([H])([H])C([H])([H])OC([H])([H])C([H])([H])OC([H])([H])C([H])([H])OC([H])([H])C([H])([H])OC([H])([H])C([H])([H])OC([H])([H])C([H])([H])N([H])C(=O)N4C([H])([H])C([H])([H])C([H])([H])C([H])(n5nc(-c6c([H])c([H])c(Oc7c([H])c([H])c(F)c([H])c7F)c([H])c6[H])c(C(=O)N([H])[H])c5N([H])[H])C4([H])[H])C([H])([H])C3([H])[H])c([H])c([H])c2C1([H])[H]

$$$$
4:0:0
     RDKit          3D

116118  0  0  1  0  0  0  0  0999 V2000
  -31.8680  -16.3030   21.2890 C   0  0  0  0  0  0  0  0  0  0  0  0
  -32.9240  -17.1230   21.1260 N   0  0  0  0  0  0  0  0  0  0  0  0
  -30.7170  -16.7310   21.2190 O   0  0  0  0  0  0  0  0  0  0  0  0
  -33.8430  -16.7210   21.2380 H   0  0  0  0  0  0  0  0  0  0  0  0
  -32.8740  -18.5900   21.0040 C   0  0  0  0  0  2  0  0  0  0  0  0
  -32.8660  -19.1170   19.5390 C   0  0  0  0  0  2  0  0  0  0  0  0
  -33.0070  -20.6560   19.4440 C   0  0  0  0  0  2  0  0  0  0  0  0
  -32.8740  -21.2660   18.0160 C   0  0  0  0  0  2  0  0  0  0  0  0
  -32.1020  -22.6120   17.9930 C   0  0  0  0  0  2  0  0  0  0  0  0
  -31.2170  -22.8670   16.7460 C   0  0  0  0  0  2  0  0  0  0  0  0
  -31.9280  -23.4530   15.5020 C   0  0  0  0  0  2  0  0  0  0  0  0
  -31.1030  -24.5090   14.7300 C   0  0  0  0  0  2  0  0  0  0  0  0
  -31.7060  -26.7640   15.5370 C   0  0  0  0  0  0  0  0  0  0  0  0
  -30.8820  -25.7100   15.5320 N   0  0  0  0  0  0  0  0  0  0  0  0
  -32.6540  -26.8410   14.7520 O   0  0  0  0  0  0  0  0  0  0  0  0
  -30.0780  -25.7100   16.1400 H   0  0  0  0  0  0  0  0  0  0  0  0
  -31.4700  -27.9170   16.5220 C   0  0  0  0  0  2  0  0  0  0  0  0
  -30.6180  -27.6550   17.8010 C   0  0  0  0  0  2  0  0  0  0  0  0
  -29.2150  -28.3360   17.8800 C   0  0  0  0  0  2  0  0  0  0  0  0
  -28.0430  -27.7340   17.0560 C   0  0  0  0  0  2  0  0  0  0  0  0
  -26.9380  -27.1910   17.8040 O   0  0  0  0  0  0  0  0  0  0  0  0
  -25.9060  -30.7480   23.9060 C   0  0  0  0  0  0  0  0  0  0  0  0
  -26.1260  -27.9980   18.5850 C   0  0  0  0  0  0  0  0  0  0  0  0
  -23.8810  -30.3580   22.5290 C   0  0  0  0  0  3  0  0  0  0  0  0
  -24.3150  -29.5210   20.1530 C   0  0  0  0  0  0  0  0  0  0  0  0
  -26.1790  -30.5800   21.4350 C   0  0  0  0  0  2  0  0  0  0  0  0
  -25.6960  -29.6380   20.3560 C   0  0  0  0  0  0  0  0  0  0  0  0
  -26.6030  -28.8800   19.5850 C   0  0  0  0  0  3  0  0  0  0  0  0
  -24.7300  -27.9030   18.3830 C   0  0  0  0  0  3  0  0  0  0  0  0
  -23.8240  -28.6470   19.1680 C   0  0  0  0  0  3  0  0  0  0  0  0
  -23.4200  -30.3560   21.0450 C   0  0  0  0  0  2  0  0  0  0  0  0
  -25.3630  -30.5440   22.6710 N   0  0  0  0  0  0  0  0  0  0  0  0
  -25.1920  -30.8260   24.9150 O   0  0  0  0  0  0  0  0  0  0  0  0
  -23.3590  -29.0710   23.2040 C   0  0  0  0  0  0  0  0  0  0  0  0
  -22.0740  -28.7540   22.9770 N   0  0  0  0  0  0  0  0  0  0  0  0
  -24.1060  -28.3660   23.8880 O   0  0  0  0  0  0  0  0  0  0  0  0
  -21.5250  -29.3790   22.4040 H   0  0  0  0  0  0  0  0  0  0  0  0
  -19.3210  -26.5100   22.3240 C   0  0  0  0  0  0  0  0  0  0  0  0
  -21.3810  -27.5670   23.4750 C   0  0  0  0  0  3  0  0  0  0  0  0
  -22.1370  -26.2770   23.0830 C   0  0  0  0  0  2  0  0  0  0  0  0
  -21.6440  -25.6680   21.7670 C   0  0  0  0  0  2  0  0  0  0  0  0
  -20.1530  -25.3270   21.8570 C   0  0  0  0  0  2  0  0  0  0  0  0
  -19.9020  -27.5710   23.0680 C   0  0  0  0  0  0  0  0  0  0  0  0
  -19.0950  -28.6680   23.4420 C   0  0  0  0  0  3  0  0  0  0  0  0
  -17.7330  -28.7130   23.0920 C   0  0  0  0  0  3  0  0  0  0  0  0
  -17.1570  -27.6500   22.3760 C   0  0  0  0  0  3  0  0  0  0  0  0
  -17.9490  -26.5520   21.9950 C   0  0  0  0  0  3  0  0  0  0  0  0
  -27.4460  -30.9180   24.1050 C   0  0  0  0  0  3  0  0  0  0  0  0
  -27.6630  -32.0980   24.9550 N   0  0  0  0  0  0  0  0  0  0  0  0
  -28.1970  -33.2510   24.5310 C   0  0  0  0  0  0  0  0  0  0  0  0
  -28.6310  -33.4080   23.3860 O   0  0  0  0  0  0  0  0  0  0  0  0
  -27.2920  -32.0560   25.8930 H   0  0  0  0  0  0  0  0  0  0  0  0
  -27.2270  -35.4850   25.1430 C   0  0  0  0  0  1  0  0  0  0  0  0
  -28.2600  -34.4170   25.5360 C   0  0  0  0  0  3  0  0  0  0  0  0
  -30.5840  -34.1620   26.2830 C   0  0  0  0  0  1  0  0  0  0  0  0
  -29.6010  -35.0320   25.6420 N   0  0  0  0  0  0  0  0  0  0  0  0
  -29.5590  -35.9010   26.1680 H   0  0  0  0  0  0  0  0  0  0  0  0
  -28.1370  -29.6440   24.7280 C   0  0  1  0  0  0  0  0  0  0  0  0
  -27.4560  -29.1380   26.0200 C   0  0  0  0  0  1  0  0  0  0  0  0
  -28.1450  -28.4780   23.7120 C   0  0  0  0  0  1  0  0  0  0  0  0
  -29.6180  -29.9510   25.0520 C   0  0  0  0  0  1  0  0  0  0  0  0
  -32.1060  -14.8260   21.6830 C   0  0  0  0  0  2  0  0  0  0  0  0
  -31.1260  -13.7780   21.0930 C   0  0  0  0  0  2  0  0  0  0  0  0
  -30.0140  -13.5610   21.9570 O   0  0  0  0  0  0  0  0  0  0  0  0
  -28.9750  -12.7060   21.4550 C   0  0  0  0  0  2  0  0  0  0  0  0
  -27.5530  -13.3280   21.7900 C   0  0  0  0  0  2  0  0  0  0  0  0
  -26.8790  -14.5950   21.2180 O   0  0  0  0  0  1  0  0  0  0  0  0
  -27.0530  -16.7060   20.2360 C   0  0  0  0  0  1  0  0  0  0  0  0
  -27.9410  -18.0690   20.3810 C   0  0  0  0  0  2  0  0  0  0  0  0
  -28.5740  -18.4220   19.1380 O   0  0  0  0  0  0  0  0  0  0  0  0
  -28.7590  -19.8000   18.8370 C   0  0  0  0  0  2  0  0  0  0  0  0
  -29.9090  -19.9810   17.8100 C   0  0  0  0  0  2  0  0  0  0  0  0
  -29.7430  -19.0110   16.7760 O   0  0  0  0  0  0  0  0  0  0  0  0
  -30.7960  -18.9610   15.8120 C   0  0  0  0  0  2  0  0  0  0  0  0
  -31.7090  -17.7310   16.0290 C   0  0  0  0  0  2  0  0  0  0  0  0
  -32.2400  -17.6510   17.3650 O   0  0  0  0  0  0  0  0  0  0  0  0
  -33.4280  -16.8540   17.5140 C   0  0  0  0  0  2  0  0  0  0  0  0
  -33.3040  -15.2910   17.5300 C   0  0  0  0  0  2  0  0  0  0  0  0
  -30.9390  -14.8130   18.2270 C   0  0  0  0  0  0  0  0  0  0  0  0
  -30.7060  -12.3400   17.5150 C   0  0  0  0  0  1  0  0  0  0  0  0
  -29.3350  -11.1390   16.6910 C   0  0  0  0  0 15  0  0  0  0  0  0
  -27.4040  -11.3740   17.2080 C   0  0  0  0  0 15  0  0  0  0  0  0
  -26.9510  -12.9340   18.3700 C   0  0  0  0  0  1  0  0  0  0  0  0
  -28.4410  -14.0890   19.0770 C   0  0  0  0  0  1  0  0  0  0  0  0
  -30.1800  -13.7700   18.5510 N   0  0  0  0  0  0  0  0  0  0  0  0
  -30.5270  -15.8100   17.7370 O   0  0  0  0  0  0  0  0  0  0  0  0
  -32.2490  -14.6080   18.2990 N   0  0  0  0  0  0  0  0  0  0  0  0
  -32.4980  -13.6760   18.5860 H   0  0  0  0  0  0  0  0  0  0  0  0
  -25.1180  -13.5110   19.8810 C   0  0  0  0  0  0  0  0  0  0  0  0
  -24.1980  -12.7340   20.5000 C   0  0  0  0  0  0  0  0  0  0  0  0
  -24.6460  -11.3830   20.3600 C   0  0  0  0  0  0  0  0  0  0  0  0
  -26.0000  -12.6160   19.3410 N   0  0  0  0  0  0  0  0  0  0  0  0
  -25.7780  -11.3350   19.6910 N   0  0  0  0  0  0  0  0  0  0  0  0
  -24.0110  -10.1270   20.7460 C   0  0  0  0  0  0  0  0  0  0  0  0
  -24.4490   -9.4000   21.8740 C   0  0  0  0  0  3  0  0  0  0  0  0
  -23.8090   -8.1980   22.2380 C   0  0  0  0  0  3  0  0  0  0  0  0
  -22.7220   -7.7140   21.4710 C   0  0  0  0  0  0  0  0  0  0  0  0
  -22.3210   -8.4260   20.3250 C   0  0  0  0  0  3  0  0  0  0  0  0
  -22.9610   -9.6190   19.9650 C   0  0  0  0  0  3  0  0  0  0  0  0
  -22.0450   -6.5490   21.7290 O   0  0  0  0  0  0  0  0  0  0  0  0
  -21.6790   -6.2140   23.0050 C   0  0  0  0  0  0  0  0  0  0  0  0
  -20.8080   -7.0160   23.7700 C   0  0  0  0  0  3  0  0  0  0  0  0
  -20.4030   -6.5870   25.0480 C   0  0  0  0  0  3  0  0  0  0  0  0
  -20.8600   -5.3550   25.5550 C   0  0  0  0  0  0  0  0  0  0  0  0
  -21.7260   -4.5530   24.7880 C   0  0  0  0  0  3  0  0  0  0  0  0
  -22.1370   -4.9840   23.5150 C   0  0  0  0  0  0  0  0  0  0  0  0
  -22.9510   -4.1960   22.7720 F   0  0  0  0  0  0  0  0  0  0  0  0
  -20.4730   -4.9420   26.7850 F   0  0  0  0  0  0  0  0  0  0  0  0
  -22.9150  -13.2170   21.0730 C   0  0  0  0  0  0  0  0  0  0  0  0
  -22.4550  -12.5830   22.1430 N   0  0  0  0  0  0  0  0  0  0  0  0
  -22.3380  -14.1990   20.5990 O   0  0  0  0  0  0  0  0  0  0  0  0
  -22.9440  -11.7950   22.5390 H   0  0  0  0  0  0  0  0  0  0  0  0
  -21.5880  -12.8860   22.5640 H   0  0  0  0  0  0  0  0  0  0  0  0
  -25.2320  -14.8800   19.6450 N   0  0  0  0  0  0  0  0  0  0  0  0
  -24.5930  -15.5450   20.0660 H   0  0  0  0  0  0  0  0  0  0  0  0
  -26.0160  -15.3130   19.1730 H   0  0  0  0  0  0  0  0  0  0  0  0
  1 62  1  0
  2  4  1  0
  2  1  1  0
  3  1  2  0
  5  2  1  0
  6  5  1  0
  7  6  1  0
  8  7  1  0
  9  8  1  0
 10  9  1  0
 11 10  1  0
 12 11  1  0
 12 14  1  0
 13 17  1  0
 14 13  1  0
 14 16  1  0
 15 13  2  0
 17 18  1  0
 18 19  1  0
 20 21  1  0
 20 19  1  0
 21 23  1  0
 22 33  2  0
 23 28  1  0
 24 32  1  0
 24 34  1  0
 25 27  1  0
 25 31  1  0
 26 32  1  0
 27 26  1  0
 28 27  2  0
 29 23  2  0
 29 30  1  0
 30 25  2  0
 31 24  1  0
 32 22  1  0
 34 36  2  0
 35 34  1  0
 37 35  1  0
 38 43  1  0
 39 35  1  0
 40 39  1  0
 41 42  1  0
 41 40  1  0
 42 38  1  0
 43 44  2  0
 43 39  1  0
 45 44  1  0
 46 45  2  0
 47 38  2  0
 47 46  1  0
 48 22  1  0
 48 58  1  0
 48 49  1  0
 49 52  1  0
 50 49  1  0
 50 54  1  0
 51 50  2  0
 54 53  1  0
 54 56  1  0
 56 57  1  0
 56 55  1  0
 58 61  1  1
 58 59  1  0
 60 58  1  0
 63 62  1  0
 63 64  1  0
 65 66  1  0
 65 64  1  0
 67 66  1  0
 68 69  1  0
 70 69  1  0
 71 70  1  0
 72 71  1  0
 73 72  1  0
 74 75  1  0
 74 73  1  0
 75 76  1  0
 76 77  1  0
 77 78  1  0
 78 87  1  0
 79 87  1  0
 79 85  1  0
 80 85  1  0
 83 92  1  0
 85 84  1  0
 86 79  2  0
 87 88  1  0
 89 90  2  0
 90109  1  0
 91 90  1  0
 91 94  1  0
 92 93  1  0
 92 89  1  0
 93 91  2  0
 94 95  1  0
 95 96  2  0
 97100  1  0
 97 96  1  0
 98 97  2  0
 99 98  1  0
 99 94  2  0
100101  1  0
101106  2  0
101102  1  0
102103  2  0
103104  1  0
104108  1  0
105104  2  0
106105  1  0
107106  1  0
109110  1  0
110112  1  0
110113  1  0
111109  2  0
114 89  1  0
114115  1  0
116114  1  0
M  ISO  4  20 101  21 101  79 100  87 100
M  END
>  <TORSDO>  (5) 
F 46

>  <SCORE>  (5) 
-0.498

>  <name>  (5) 
4

>  <ligand_id>  (5) 
4

>  <original_smiles>  (5) 
[H]c1c([H])c([H])c2c(c1[H])C([H])([H])C([H])([H])C([H])([H])C2([H])N([H])C(=O)C1([H])N(C(=O)C([H])(N([H])C(=O)C([H])(N([H])C([H])([H])[H])C([H])([H])[H])C(C([H])([H])[H])(C([H])([H])[H])C([H])([H])[H])C([H])([H])c2c([H])c(OC([H])([H])C([H])([H])C([H])([H])C([H])([H])C(=O)N([H])C([H])([H])C([H])([H])C([H])([H])C([H])([H])C([H])([H])C([H])([H])C([H])([H])C([H])([H])N([H])C(=O)C([H])([H])C([H])([H])OC([H])([H])C([H])([H])OC([H])([H])C([H])([H])OC([H])([H])C([H])([H])OC([H])([H])C([H])([H])OC([H])([H])C([H])([H])N([H])C(=O)N3C([H])([H])C([H])([H])C([H])([H])C([H])(n4nc(-c5c([H])c([H])c(Oc6c([H])c([H])c(F)c([H])c6F)c([H])c5[H])c(C(=O)N([H])[H])c4N([H])[H])C3([H])[H])c([H])c([H])c2C1([H])[H]

>  <smiles>  (5) 
[H]c1c([H])c([H])c2c(c1[H])C([H])([H])C([H])([H])C([H])([H])C2([H])N([H])C(=O)C1([H])N(C(=O)C([H])(N([H])C(=O)C([H])(N([H])C([H])([H])[H])C([H])([H])[H])C(C([H])([H])[H])(C([H])([H])[H])C([H])([H])[H])C([H])([H])c2c([H])c(OC([H])([H])C([H])([H])C([H])([H])C([H])([H])C(=O)N([H])C([H])([H])C([H])([H])C([H])([H])C([H])([H])C([H])([H])C([H])([H])C([H])([H])C([H])([H])N([H])C(=O)C([H])([H])C([H])([H])OC([H])([H])C([H])([H])OC([H])([H])C([H])([H])OC([H])([H])C([H])([H])OC([H])([H])C([H])([H])OC([H])([H])C([H])([H])N([H])C(=O)N3C([H])([H])C([H])([H])C([H])([H])C([H])(n4nc(-c5c([H])c([H])c(Oc6c([H])c([H])c(F)c([H])c6F)c([H])c5[H])c(C(=O)N([H])[H])c4N([H])[H])C3([H])[H])c([H])c([H])c2C1([H])[H]

$$$$
5:0:0
     RDKit          3D

105113  0  0  1  0  0  0  0  0999 V2000
  -29.2730  -17.8990   20.4020 C   0  0  0  0  0  0  0  0  0  0  0  0
  -29.6690  -16.6350   20.6020 N   0  0  0  0  0  0  0  0  0  0  0  0
  -29.8500  -18.8550   20.9080 O   0  0  0  0  0  0  0  0  0  0  0  0
  -29.1410  -15.9010   20.1460 H   0  0  0  0  0  0  0  0  0  0  0  0
  -30.8380  -16.1990   21.3700 C   0  0  0  0  0  2  0  0  0  0  0  0
  -31.1700  -14.6990   21.2220 C   0  0  0  0  0  2  0  0  0  0  0  0
  -32.3810  -14.4040   20.3210 C   0  0  0  0  0  2  0  0  0  0  0  0
  -33.1520  -13.1520   20.7730 C   0  0  0  0  0  2  0  0  0  0  0  0
  -34.1430  -12.6140   19.7260 C   0  0  0  0  0  2  0  0  0  0  0  0
  -35.6050  -13.0250   19.9700 C   0  0  0  0  0  2  0  0  0  0  0  0
  -35.7540  -14.4320   19.8220 O   0  0  0  0  0  0  0  0  0  0  0  0
  -37.0830  -14.8460   19.5150 C   0  0  0  0  0  2  0  0  0  0  0  0
  -37.9280  -14.9020   20.7970 C   0  0  0  0  0  2  0  0  0  0  0  0
  -39.3920  -15.3160   20.5450 C   0  0  0  0  0  2  0  0  0  0  0  0
  -40.3220  -14.2930   20.8810 O   0  0  0  0  0  0  0  0  0  0  0  0
  -38.3210  -11.1670   14.7950 C   0  0  0  0  0  0  0  0  0  0  0  0
  -40.1650  -13.1380   20.1610 C   0  0  0  0  0  0  0  0  0  0  0  0
  -38.7560   -9.6610   16.7100 C   0  0  0  0  0  3  0  0  0  0  0  0
  -39.8800  -10.7340   18.7310 C   0  0  0  0  0  0  0  0  0  0  0  0
  -39.9360  -11.9230   16.5300 C   0  0  0  0  0  2  0  0  0  0  0  0
  -39.9780  -11.9510   18.0410 C   0  0  0  0  0  0  0  0  0  0  0  0
  -40.1100  -13.1620   18.7530 C   0  0  0  0  0  3  0  0  0  0  0  0
  -40.0930  -11.9100   20.8440 C   0  0  0  0  0  3  0  0  0  0  0  0
  -39.9300  -10.7060   20.1370 C   0  0  0  0  0  3  0  0  0  0  0  0
  -39.7390   -9.4840   17.8990 C   0  0  0  0  0  2  0  0  0  0  0  0
  -38.9680  -10.9500   15.9760 N   0  0  0  0  0  0  0  0  0  0  0  0
  -37.5900  -10.3010   14.2940 O   0  0  0  0  0  0  0  0  0  0  0  0
  -37.3140   -9.4920   17.2390 C   0  0  0  0  0  0  0  0  0  0  0  0
  -36.8850   -8.2320   17.4110 N   0  0  0  0  0  0  0  0  0  0  0  0
  -36.6210  -10.4750   17.5080 O   0  0  0  0  0  0  0  0  0  0  0  0
  -37.5130   -7.4800   17.1650 H   0  0  0  0  0  0  0  0  0  0  0  0
  -34.7510   -5.3870   18.0300 C   0  0  0  0  0  0  0  0  0  0  0  0
  -35.5760   -7.8330   17.9240 C   0  0  0  0  0  3  0  0  0  0  0  0
  -35.5750   -7.7940   19.4710 C   0  0  0  0  0  2  0  0  0  0  0  0
  -35.9060   -6.4100   20.0380 C   0  0  0  0  0  2  0  0  0  0  0  0
  -34.8950   -5.3710   19.5430 C   0  0  0  0  0  2  0  0  0  0  0  0
  -35.0870   -6.5370   17.2700 C   0  0  0  0  0  0  0  0  0  0  0  0
  -34.9690   -6.4860   15.8630 C   0  0  0  0  0  3  0  0  0  0  0  0
  -34.5240   -5.3150   15.2200 C   0  0  0  0  0  3  0  0  0  0  0  0
  -34.1780   -4.1840   15.9800 C   0  0  0  0  0  3  0  0  0  0  0  0
  -34.2880   -4.2230   17.3810 C   0  0  0  0  0  3  0  0  0  0  0  0
  -38.4910  -12.5030   14.0060 C   0  0  0  0  0  3  0  0  0  0  0  0
  -38.7470  -12.1580   12.6020 N   0  0  0  0  0  0  0  0  0  0  0  0
  -39.9650  -12.0870   12.0470 C   0  0  0  0  0  0  0  0  0  0  0  0
  -40.9970  -12.3820   12.6560 O   0  0  0  0  0  0  0  0  0  0  0  0
  -37.9530  -11.8520   12.0590 H   0  0  0  0  0  0  0  0  0  0  0  0
  -40.5520  -10.1630   10.5400 C   0  0  0  0  0  1  0  0  0  0  0  0
  -40.0510  -11.6150   10.5830 C   0  0  0  0  0  3  0  0  0  0  0  0
  -40.3230  -13.7630    9.4240 C   0  0  0  0  0  1  0  0  0  0  0  0
  -40.9200  -12.4680    9.7410 N   0  0  0  0  0  0  0  0  0  0  0  0
  -41.1430  -12.0020    8.8670 H   0  0  0  0  0  0  0  0  0  0  0  0
  -37.2430  -13.4630   14.1260 C   0  0  1  0  0  0  0  0  0  0  0  0
  -35.9250  -12.8320   13.6180 C   0  0  0  0  0  1  0  0  0  0  0  0
  -37.0220  -13.8950   15.5940 C   0  0  0  0  0  1  0  0  0  0  0  0
  -37.4980  -14.7620   13.3240 C   0  0  0  0  0  1  0  0  0  0  0  0
  -28.0760  -18.1210   19.4720 C   0  0  0  0  0  2  0  0  0  0  0  0
  -27.6080  -20.0750   17.8550 C   0  0  0  0  0  0  0  0  0  0  0  0
  -29.5830  -21.1450   16.7890 C   0  0  0  0  0  2  0  0  0  0  0  0
  -30.1580  -19.7310   16.5970 C   0  0  0  0  0  2  0  0  0  0  0  0
  -28.4090  -18.7630   18.0830 C   0  0  0  0  0  3  0  0  0  0  0  0
  -28.2030  -21.1120   17.2560 N   0  0  0  0  0  0  0  0  0  0  0  0
  -29.8830  -18.8800   17.7900 N   0  0  1  0  0  4  0  0  0  0  0  0
  -26.4260  -20.1510   18.1900 O   0  0  0  0  0  0  0  0  0  0  0  0
  -27.6490  -21.9440   17.1060 H   0  0  0  0  0  0  0  0  0  0  0  0
  -30.2750  -19.3760   18.5760 H   0  0  0  0  0  0  0  0  0  0  0  0
  -30.5940  -17.5740   17.7060 C   0  0  0  0  0  2  0  0  0  0  0  0
  -32.1340  -17.6950   17.7750 C   0  0  0  0  0  2  0  0  0  0  0  0
  -33.7680  -18.8770   19.1060 C   0  0  0  0  0  0  0  0  0  0  0  0
  -34.9420  -20.9900   18.6130 C   0  0  0  0  0  2  0  0  0  0  0  0
  -35.1060  -21.8810   19.8610 C   0  0  0  0  0  2  0  0  0  0  0  0
  -33.8640  -22.7680   20.0610 C   0  0  0  0  0  2  0  0  0  0  0  0
  -32.5480  -21.9540   20.0210 C   0  0  0  0  0  3  0  0  0  0  0  0
  -32.5110  -21.0370   18.7820 C   0  0  0  0  0  2  0  0  0  0  0  0
  -33.7180  -20.1920   18.7620 N   0  0  0  0  0  0  0  0  0  0  0  0
  -34.8070  -18.2830   19.4040 O   0  0  0  0  0  0  0  0  0  0  0  0
  -32.6040  -18.2190   19.0600 N   0  0  0  0  0  0  0  0  0  0  0  0
  -32.6090  -17.4830   19.7520 H   0  0  0  0  0  0  0  0  0  0  0  0
  -30.6300  -23.2300   21.1740 C   0  0  0  0  0  0  0  0  0  0  0  0
  -29.6820  -24.0940   20.6890 C   0  0  0  0  0  0  0  0  0  0  0  0
  -29.9270  -24.1980   19.2880 C   0  0  0  0  0  0  0  0  0  0  0  0
  -31.3770  -22.8290   20.0760 N   0  0  0  0  0  0  0  0  0  0  0  0
  -30.9090  -23.3790   18.9260 N   0  0  0  0  0  0  0  0  0  0  0  0
  -29.3200  -25.0710   18.2770 C   0  0  0  0  0  0  0  0  0  0  0  0
  -28.4720  -24.5550   17.2710 C   0  0  0  0  0  3  0  0  0  0  0  0
  -27.8880  -25.4150   16.3170 C   0  0  0  0  0  3  0  0  0  0  0  0
  -28.1410  -26.8070   16.3660 C   0  0  0  0  0  0  0  0  0  0  0  0
  -29.0010  -27.3130   17.3560 C   0  0  0  0  0  3  0  0  0  0  0  0
  -29.5880  -26.4540   18.3010 C   0  0  0  0  0  3  0  0  0  0  0  0
  -27.6380  -27.7130   15.4650 O   0  0  0  0  0  0  0  0  0  0  0  0
  -26.3860  -27.5700   14.9250 C   0  0  0  0  0  0  0  0  0  0  0  0
  -25.2250  -27.5520   15.7310 C   0  0  0  0  0  3  0  0  0  0  0  0
  -23.9520  -27.4740   15.1300 C   0  0  0  0  0  3  0  0  0  0  0  0
  -23.8370  -27.4240   13.7270 C   0  0  0  0  0  0  0  0  0  0  0  0
  -24.9910  -27.4450   12.9240 C   0  0  0  0  0  3  0  0  0  0  0  0
  -26.2600  -27.5230   13.5230 C   0  0  0  0  0  0  0  0  0  0  0  0
  -27.3680  -27.5670   12.7430 F   0  0  0  0  0  0  0  0  0  0  0  0
  -22.6140  -27.3570   13.1500 F   0  0  0  0  0  0  0  0  0  0  0  0
  -28.6780  -24.8640   21.5000 C   0  0  0  0  0  0  0  0  0  0  0  0
  -27.4200  -24.8680   21.0690 N   0  0  0  0  0  0  0  0  0  0  0  0
  -28.9930  -25.4280   22.5480 O   0  0  0  0  0  0  0  0  0  0  0  0
  -27.1530  -24.3820   20.2260 H   0  0  0  0  0  0  0  0  0  0  0  0
  -26.7110  -25.3540   21.5960 H   0  0  0  0  0  0  0  0  0  0  0  0
  -30.9310  -22.7720   22.4470 N   0  0  0  0  0  0  0  0  0  0  0  0
  -30.3250  -22.9570   23.2400 H   0  0  0  0  0  0  0  0  0  0  0  0
  -31.6110  -22.0490   22.6440 H   0  0  0  0  0  0  0  0  0  0  0  0
  1  2  1  0
  1  3  2  0
  2  5  1  0
  4  2  1  0
  6  5  1  0
  7  8  1  0
  7  6  1  0
  9 10  1  0
  9  8  1  0
 11 10  1  0
 12 11  1  0
 12 13  1  0
 14 13  1  0
 14 15  1  0
 16 26  1  0
 17 23  1  0
 17 15  1  0
 18 28  1  0
 18 25  1  0
 19 24  1  0
 20 21  1  0
 21 19  2  0
 21 22  1  0
 22 17  2  0
 24 23  2  0
 25 19  1  0
 26 20  1  0
 26 18  1  0
 27 16  2  0
 28 29  1  0
 28 30  2  0
 31 29  1  0
 32 36  1  0
 33 29  1  0
 33 34  1  0
 34 35  1  0
 36 35  1  0
 37 33  1  0
 37 32  2  0
 38 37  1  0
 39 38  2  0
 39 40  1  0
 40 41  2  0
 41 32  1  0
 42 52  1  0
 42 16  1  0
 43 42  1  0
 44 43  1  0
 44 45  2  0
 46 43  1  0
 48 47  1  0
 48 44  1  0
 49 50  1  0
 50 48  1  0
 51 50  1  0
 52 54  1  1
 53 52  1  0
 55 52  1  0
 56  1  1  0
 57 60  1  0
 57 63  2  0
 58 61  1  0
 59 58  1  0
 59 62  1  0
 60 56  1  0
 61 57  1  0
 62 60  1  0
 62 65  1  1
 64 61  1  0
 66 67  1  0
 66 62  1  0
 67 76  1  0
 68 75  2  0
 69 74  1  0
 69 70  1  0
 70 71  1  0
 72 73  1  0
 72 71  1  0
 72 81  1  0
 74 73  1  0
 74 68  1  0
 76 68  1  0
 76 77  1  0
 78103  1  0
 79 78  2  0
 79 98  1  0
 80 79  1  0
 81 78  1  0
 82 80  2  0
 82 81  1  0
 83 88  1  0
 83 80  1  0
 84 83  2  0
 85 86  2  0
 85 84  1  0
 86 87  1  0
 87 88  2  0
 89 86  1  0
 90 89  1  0
 90 91  1  0
 92 91  2  0
 93 92  1  0
 94 95  1  0
 94 93  2  0
 95 90  2  0
 96 95  1  0
 97 93  1  0
 98100  2  0
 99 98  1  0
 99102  1  0
101 99  1  0
103105  1  0
103104  1  0
M  ISO  4  14 101  15 101  68 100  76 100
M  END
>  <TORSDO>  (6) 
F 30

>  <SCORE>  (6) 
-4.050

>  <name>  (6) 
5

>  <ligand_id>  (6) 
5

>  <original_smiles>  (6) 
[H]c1c([H])c([H])c2c(c1[H])C([H])([H])C([H])([H])C([H])([H])C2([H])N([H])C(=O)C1([H])N(C(=O)C([H])(N([H])C(=O)C([H])(N([H])C([H])([H])[H])C([H])([H])[H])C(C([H])([H])[H])(C([H])([H])[H])C([H])([H])[H])C([H])([H])c2c([H])c(OC([H])([H])C([H])([H])C([H])([H])OC([H])([H])C([H])([H])C([H])([H])C([H])([H])C([H])([H])C([H])([H])N([H])C(=O)C([H])([H])C3([H])C(=O)N([H])C([H])([H])C([H])([H])[N+]3([H])C([H])([H])C([H])([H])N([H])C(=O)N3C([H])([H])C([H])([H])C([H])([H])C([H])(n4nc(-c5c([H])c([H])c(Oc6c([H])c([H])c(F)c([H])c6F)c([H])c5[H])c(C(=O)N([H])[H])c4N([H])[H])C3([H])[H])c([H])c([H])c2C1([H])[H]

>  <smiles>  (6) 
[H]c1c([H])c([H])c2c(c1[H])C([H])([H])C([H])([H])C([H])([H])C2([H])N([H])C(=O)C1([H])N(C(=O)C([H])(N([H])C(=O)C([H])(N([H])C([H])([H])[H])C([H])([H])[H])C(C([H])([H])[H])(C([H])([H])[H])C([H])([H])[H])C([H])([H])c2c([H])c(OC([H])([H])C([H])([H])C([H])([H])OC([H])([H])C([H])([H])C([H])([H])C([H])([H])C([H])([H])C([H])([H])N([H])C(=O)C([H])([H])C3([H])C(=O)N([H])C([H])([H])C([H])([H])[N+]3([H])C([H])([H])C([H])([H])N([H])C(=O)N3C([H])([H])C([H])([H])C([H])([H])C([H])(n4nc(-c5c([H])c([H])c(Oc6c([H])c([H])c(F)c([H])c6F)c([H])c5[H])c(C(=O)N([H])[H])c4N([H])[H])C3([H])[H])c([H])c([H])c2C1([H])[H]

$$$$
6:0:0
     RDKit          3D

103110  0  0  1  0  0  0  0  0999 V2000
  -31.0770  -15.4840   14.0090 C   0  0  0  0  0  2  0  0  0  0  0  0
  -30.2010  -14.7180   15.0130 C   0  0  0  0  0  0  0  0  0  0  0  0
  -30.8220  -14.2960   16.1170 N   0  0  0  0  0  0  0  0  0  0  0  0
  -28.9940  -14.5620   14.8160 O   0  0  0  0  0  0  0  0  0  0  0  0
  -31.8120  -14.4970   16.1480 H   0  0  0  0  0  0  0  0  0  0  0  0
  -30.1740  -13.8620   17.3520 C   0  0  0  0  0  2  0  0  0  0  0  0
  -31.1800  -13.8050   18.5160 C   0  0  0  0  0  2  0  0  0  0  0  0
  -32.4930  -14.5550   18.2220 C   0  0  0  0  0  2  0  0  0  0  0  0
  -33.2010  -15.1750   19.4420 C   0  0  0  0  0  2  0  0  0  0  0  0
  -33.6490  -13.4480   21.1920 C   0  0  0  0  0  0  0  0  0  0  0  0
  -32.9390  -14.4660   20.6940 N   0  0  0  0  0  0  0  0  0  0  0  0
  -34.6400  -12.9840   20.6310 O   0  0  0  0  0  0  0  0  0  0  0  0
  -32.1600  -14.7980   21.2560 H   0  0  0  0  0  0  0  0  0  0  0  0
  -33.1750  -12.8800   22.5390 C   0  0  0  0  0  2  0  0  0  0  0  0
  -34.2600  -10.6430   22.2500 C   0  0  0  0  0  0  0  0  0  0  0  0
  -33.5500   -8.6360   21.0100 C   0  0  0  0  0  2  0  0  0  0  0  0
  -33.1030   -8.9740   19.5750 C   0  0  0  0  0  2  0  0  0  0  0  0
  -31.6380   -9.4400   19.5260 C   0  0  0  0  0  2  0  0  0  0  0  0
  -31.2970  -10.4900   20.6170 C   0  0  0  0  0  3  0  0  0  0  0  0
  -31.8180  -10.0180   21.9920 C   0  0  0  0  0  2  0  0  0  0  0  0
  -33.2690   -9.7980   21.8660 N   0  0  0  0  0  0  0  0  0  0  0  0
  -35.4550  -10.4190   22.0450 O   0  0  0  0  0  0  0  0  0  0  0  0
  -33.9080  -11.6930   23.0090 N   0  0  0  0  0  0  0  0  0  0  0  0
  -34.6840  -11.9740   23.5890 H   0  0  0  0  0  0  0  0  0  0  0  0
  -29.1960  -11.9160   20.1750 C   0  0  0  0  0  0  0  0  0  0  0  0
  -27.8650  -11.6640   20.3790 C   0  0  0  0  0  0  0  0  0  0  0  0
  -27.7940  -10.3600   20.9510 C   0  0  0  0  0  0  0  0  0  0  0  0
  -29.8680  -10.7920   20.6320 N   0  0  0  0  0  0  0  0  0  0  0  0
  -29.0130   -9.8750   21.1490 N   0  0  0  0  0  0  0  0  0  0  0  0
  -26.6340   -9.5190   21.2710 C   0  0  0  0  0  0  0  0  0  0  0  0
  -26.4300   -9.0190   22.5740 C   0  0  0  0  0  3  0  0  0  0  0  0
  -25.3010   -8.2220   22.8670 C   0  0  0  0  0  3  0  0  0  0  0  0
  -24.3610   -7.9280   21.8480 C   0  0  0  0  0  0  0  0  0  0  0  0
  -24.5830   -8.4070   20.5450 C   0  0  0  0  0  3  0  0  0  0  0  0
  -25.7110   -9.1930   20.2560 C   0  0  0  0  0  3  0  0  0  0  0  0
  -23.2500   -7.1410   22.0340 O   0  0  0  0  0  0  0  0  0  0  0  0
  -22.5550   -7.1450   23.2170 C   0  0  0  0  0  0  0  0  0  0  0  0
  -22.0020   -8.3270   23.7560 C   0  0  0  0  0  3  0  0  0  0  0  0
  -21.2370   -8.2700   24.9380 C   0  0  0  0  0  3  0  0  0  0  0  0
  -21.0180   -7.0360   25.5800 C   0  0  0  0  0  0  0  0  0  0  0  0
  -21.5640   -5.8570   25.0410 C   0  0  0  0  0  3  0  0  0  0  0  0
  -22.3280   -5.9130   23.8610 C   0  0  0  0  0  0  0  0  0  0  0  0
  -22.8340   -4.7710   23.3350 F   0  0  0  0  0  0  0  0  0  0  0  0
  -20.2770   -6.9780   26.7100 F   0  0  0  0  0  0  0  0  0  0  0  0
  -26.7160  -12.5390   19.9640 C   0  0  0  0  0  0  0  0  0  0  0  0
  -25.6130  -12.4920   20.7040 N   0  0  0  0  0  0  0  0  0  0  0  0
  -26.8120  -13.3040   19.0060 O   0  0  0  0  0  0  0  0  0  0  0  0
  -25.5570  -11.8810   21.5060 H   0  0  0  0  0  0  0  0  0  0  0  0
  -24.8250  -13.0790   20.4770 H   0  0  0  0  0  0  0  0  0  0  0  0
  -29.8750  -12.9900   19.6160 N   0  0  0  0  0  0  0  0  0  0  0  0
  -29.2680  -13.6580   19.1510 H   0  0  0  0  0  0  0  0  0  0  0  0
  -30.6510  -12.7240   19.0280 H   0  0  0  0  0  0  0  0  0  0  0  0
  -31.6590  -16.6500   14.6160 O   0  0  0  0  0  0  0  0  0  0  0  0
  -30.7650  -17.7470   14.8140 C   0  0  0  0  0  2  0  0  0  0  0  0
  -31.3330  -18.6550   15.9190 C   0  0  0  0  0  2  0  0  0  0  0  0
  -30.3570  -19.7560   16.3550 C   0  0  0  0  0  2  0  0  0  0  0  0
  -30.8530  -20.4220   17.5120 O   0  0  0  0  0  0  0  0  0  0  0  0
  -29.9490  -21.4230   17.9620 C   0  0  0  0  0  2  0  0  0  0  0  0
  -30.4830  -22.1830   19.1840 C   0  0  0  0  0  2  0  0  0  0  0  0
  -29.5430  -23.2180   19.4100 O   0  0  0  0  0  0  0  0  0  0  0  0
  -29.7140  -24.0050   20.5800 C   0  0  0  0  0  2  0  0  0  0  0  0
  -28.3780  -24.7450   20.6890 C   0  0  0  0  0  2  0  0  0  0  0  0
  -28.3730  -25.8950   21.5330 O   0  0  0  0  0  0  0  0  0  0  0  0
  -24.8900  -31.5980   24.0250 C   0  0  0  0  0  0  0  0  0  0  0  0
  -27.2830  -26.7370   21.3990 C   0  0  0  0  0  0  0  0  0  0  0  0
  -23.7190  -30.3000   22.2790 C   0  0  0  0  0  3  0  0  0  0  0  0
  -25.1140  -28.5350   21.0960 C   0  0  0  0  0  0  0  0  0  0  0  0
  -26.2750  -30.3180   22.3960 C   0  0  0  0  0  2  0  0  0  0  0  0
  -26.2530  -28.9240   21.8110 C   0  0  0  0  0  0  0  0  0  0  0  0
  -27.3390  -28.0320   21.9630 C   0  0  0  0  0  3  0  0  0  0  0  0
  -26.1060  -26.3600   20.7010 C   0  0  0  0  0  3  0  0  0  0  0  0
  -25.0320  -27.2480   20.5450 C   0  0  0  0  0  3  0  0  0  0  0  0
  -24.0040  -29.5490   20.9550 C   0  0  0  0  0  2  0  0  0  0  0  0
  -24.9740  -30.7520   22.9600 N   0  0  0  0  0  0  0  0  0  0  0  0
  -23.7960  -32.0280   24.4160 O   0  0  0  0  0  0  0  0  0  0  0  0
  -22.8240  -29.4070   23.1700 C   0  0  0  0  0  0  0  0  0  0  0  0
  -21.5060  -29.4430   22.9180 N   0  0  0  0  0  0  0  0  0  0  0  0
  -23.3180  -28.6840   24.0390 O   0  0  0  0  0  0  0  0  0  0  0  0
  -21.1800  -30.0660   22.1930 H   0  0  0  0  0  0  0  0  0  0  0  0
  -17.9440  -28.8810   23.1350 C   0  0  0  0  0  0  0  0  0  0  0  0
  -20.4760  -28.6630   23.6040 C   0  0  0  0  0  3  0  0  0  0  0  0
  -20.3620  -27.2430   23.0040 C   0  0  0  0  0  2  0  0  0  0  0  0
  -19.3020  -27.1360   21.9040 C   0  0  0  0  0  2  0  0  0  0  0  0
  -17.9240  -27.5260   22.4460 C   0  0  0  0  0  2  0  0  0  0  0  0
  -19.1450  -29.4220   23.6640 C   0  0  0  0  0  0  0  0  0  0  0  0
  -19.1160  -30.7010   24.2610 C   0  0  0  0  0  3  0  0  0  0  0  0
  -17.9150  -31.4320   24.3360 C   0  0  0  0  0  3  0  0  0  0  0  0
  -16.7250  -30.8850   23.8260 C   0  0  0  0  0  3  0  0  0  0  0  0
  -16.7420  -29.6100   23.2310 C   0  0  0  0  0  3  0  0  0  0  0  0
  -26.1600  -32.0800   24.7900 C   0  0  0  0  0  3  0  0  0  0  0  0
  -26.3810  -31.3330   26.1640 C   0  0  1  0  0  0  0  0  0  0  0  0
  -25.1360  -31.3350   27.0810 C   0  0  0  0  0  1  0  0  0  0  0  0
  -26.7890  -29.8610   25.9210 C   0  0  0  0  0  1  0  0  0  0  0  0
  -27.5460  -31.9930   26.9380 C   0  0  0  0  0  1  0  0  0  0  0  0
  -26.0260  -33.5260   25.0010 N   0  0  0  0  0  0  0  0  0  0  0  0
  -26.6050  -34.4620   24.2370 C   0  0  0  0  0  0  0  0  0  0  0  0
  -27.3780  -34.1910   23.3130 O   0  0  0  0  0  0  0  0  0  0  0  0
  -25.3640  -33.8210   25.7030 H   0  0  0  0  0  0  0  0  0  0  0  0
  -25.2050  -36.4420   23.5670 C   0  0  0  0  0  1  0  0  0  0  0  0
  -26.2750  -35.9340   24.5470 C   0  0  0  0  0  3  0  0  0  0  0  0
  -28.4040  -36.5860   25.5840 C   0  0  0  0  0  1  0  0  0  0  0  0
  -27.4550  -36.8250   24.4990 N   0  0  0  0  0  0  0  0  0  0  0  0
  -27.1720  -37.8000   24.5350 H   0  0  0  0  0  0  0  0  0  0  0  0
  1 53  1  0
  1  2  1  0
  2  3  1  0
  3  5  1  0
  3  6  1  0
  4  2  2  0
  6  7  1  0
  8  7  1  0
  8  9  1  0
  9 11  1  0
 10 14  1  0
 11 10  1  0
 11 13  1  0
 12 10  2  0
 14 23  1  0
 15 23  1  0
 16 21  1  0
 17 16  1  0
 18 17  1  0
 19 18  1  0
 19 28  1  0
 19 20  1  0
 21 20  1  0
 21 15  1  0
 22 15  2  0
 23 24  1  0
 25 26  2  0
 25 28  1  0
 26 27  1  0
 27 29  2  0
 27 30  1  0
 28 29  1  0
 30 31  1  0
 31 32  2  0
 33 36  1  0
 33 32  1  0
 34 33  2  0
 35 34  1  0
 35 30  2  0
 36 37  1  0
 37 38  2  0
 37 42  1  0
 38 39  1  0
 39 40  2  0
 40 44  1  0
 41 40  1  0
 42 41  2  0
 43 42  1  0
 45 26  1  0
 45 46  1  0
 46 48  1  0
 47 45  2  0
 49 46  1  0
 50 25  1  0
 51 50  1  0
 52 50  1  0
 53 54  1  0
 54 55  1  0
 55 56  1  0
 56 57  1  0
 57 58  1  0
 58 59  1  0
 59 60  1  0
 60 61  1  0
 61 62  1  0
 62 63  1  0
 64 75  2  0
 65 63  1  0
 65 70  1  0
 66 74  1  0
 66 76  1  0
 67 69  1  0
 68 74  1  0
 69 70  2  0
 69 68  1  0
 71 65  2  0
 72 71  1  0
 72 67  2  0
 73 67  1  0
 73 66  1  0
 74 64  1  0
 76 78  2  0
 77 76  1  0
 79 77  1  0
 80 89  2  0
 80 85  1  0
 81 77  1  0
 81 85  1  0
 82 81  1  0
 83 84  1  0
 83 82  1  0
 84 80  1  0
 85 86  2  0
 86 87  1  0
 88 87  2  0
 89 88  1  0
 90 64  1  0
 90 95  1  0
 90 91  1  0
 91 94  1  1
 91 92  1  0
 93 91  1  0
 95 98  1  0
 96100  1  0
 96 95  1  0
 97 96  2  0
100 99  1  0
102103  1  0
102100  1  0
102101  1  0
M  ISO  4  15 100  23 100  62 101  63 101
M  END
>  <TORSDO>  (7) 
F 33

>  <SCORE>  (7) 
10.987

>  <name>  (7) 
6

>  <ligand_id>  (7) 
6

>  <original_smiles>  (7) 
[H]c1c([H])c([H])c2c(c1[H])C([H])([H])C([H])([H])C([H])([H])C2([H])N([H])C(=O)C1([H])N(C(=O)C([H])(N([H])C(=O)C([H])(N([H])C([H])([H])[H])C([H])([H])[H])C(C([H])([H])[H])(C([H])([H])[H])C([H])([H])[H])C([H])([H])c2c([H])c(OC([H])([H])C([H])([H])OC([H])([H])C([H])([H])OC([H])([H])C([H])([H])C([H])([H])OC([H])([H])C(=O)N([H])C([H])([H])C([H])([H])C([H])([H])C([H])([H])N([H])C(=O)C([H])([H])N([H])C(=O)N3C([H])([H])C([H])([H])C([H])([H])C([H])(n4nc(-c5c([H])c([H])c(Oc6c([H])c([H])c(F)c([H])c6F)c([H])c5[H])c(C(=O)N([H])[H])c4N([H])[H])C3([H])[H])c([H])c([H])c2C1([H])[H]

>  <smiles>  (7) 
[H]c1c([H])c([H])c2c(c1[H])C([H])([H])C([H])([H])C([H])([H])C2([H])N([H])C(=O)C1([H])N(C(=O)C([H])(N([H])C(=O)C([H])(N([H])C([H])([H])[H])C([H])([H])[H])C(C([H])([H])[H])(C([H])([H])[H])C([H])([H])[H])C([H])([H])c2c([H])c(OC([H])([H])C([H])([H])OC([H])([H])C([H])([H])OC([H])([H])C([H])([H])C([H])([H])OC([H])([H])C(=O)N([H])C([H])([H])C([H])([H])C([H])([H])C([H])([H])N([H])C(=O)C([H])([H])N([H])C(=O)N3C([H])([H])C([H])([H])C([H])([H])C([H])(n4nc(-c5c([H])c([H])c(Oc6c([H])c([H])c(F)c([H])c6F)c([H])c5[H])c(C(=O)N([H])[H])c4N([H])[H])C3([H])[H])c([H])c([H])c2C1([H])[H]

$$$$
7:0:0
     RDKit          3D

106113  0  0  1  0  0  0  0  0999 V2000
  -21.8130  -16.8740   19.0180 C   0  0  0  0  0  2  0  0  0  0  0  0
  -21.3860  -15.3970   19.1740 C   0  0  0  0  0  2  0  0  0  0  0  0
  -22.8490  -13.3630   19.2030 C   0  0  0  0  0  0  0  0  0  0  0  0
  -22.4170  -14.5030   18.6560 N   0  0  0  0  0  0  0  0  0  0  0  0
  -22.2820  -12.8120   20.1470 O   0  0  0  0  0  0  0  0  0  0  0  0
  -22.9530  -14.8470   17.8750 H   0  0  0  0  0  0  0  0  0  0  0  0
  -24.1480  -12.7890   18.6150 C   0  0  0  0  0  2  0  0  0  0  0  0
  -26.2340  -13.9300   19.3220 C   0  0  0  0  0  3  0  0  0  0  0  0
  -25.1920  -13.8170   18.4850 N   0  0  0  0  0  0  0  0  0  0  0  0
  -26.4260  -13.1150   20.2250 O   0  0  0  0  0  0  0  0  0  0  0  0
  -25.0960  -14.4860   17.7340 H   0  0  0  0  0  0  0  0  0  0  0  0
  -27.1920  -15.1180   19.1310 C   0  0  0  0  0  1  0  0  0  0  0  0
  -28.4470  -14.8420   19.7740 O   0  0  0  0  0  1  0  0  0  0  0  0
  -29.4390  -15.8550   19.6120 C   0  0  0  0  0  2  0  0  0  0  0  0
  -30.8320  -15.2840   19.9690 C   0  0  0  0  0  2  0  0  0  0  0  0
  -31.0840  -14.9580   21.4670 C   0  0  0  0  0  2  0  0  0  0  0  0
  -32.4540  -12.9500   20.8320 C   0  0  0  0  0  0  0  0  0  0  0  0
  -31.6480  -11.0470   19.4860 C   0  0  0  0  0  2  0  0  0  0  0  0
  -30.6200  -11.5350   18.4490 C   0  0  0  0  0  2  0  0  0  0  0  0
  -29.2030  -11.5590   19.0520 C   0  0  0  0  0  2  0  0  0  0  0  0
  -29.1570  -12.2890   20.4160 C   0  0  0  0  0  3  0  0  0  0  0  0
  -30.2790  -11.7830   21.3540 C   0  0  0  0  0  2  0  0  0  0  0  0
  -31.5610  -11.9430   20.6500 N   0  0  0  0  0  0  0  0  0  0  0  0
  -33.5310  -13.0030   20.2360 O   0  0  0  0  0  0  0  0  0  0  0  0
  -32.1240  -13.9320   21.6920 N   0  0  0  0  0  0  0  0  0  0  0  0
  -32.9480  -14.3330   22.1170 H   0  0  0  0  0  0  0  0  0  0  0  0
  -27.0640  -13.1890   21.6230 C   0  0  1  0  0  0  0  0  0  0  0  0
  -25.9010  -12.5720   22.0050 C   0  0  0  0  0  3  0  0  0  0  0  0
  -26.0410  -11.2010   21.6350 C   0  0  0  0  0  0  0  0  0  0  0  0
  -27.8450  -12.1970   21.0480 N   0  0  0  0  0  0  0  0  0  0  0  0
  -27.2430  -10.9830   21.1180 N   0  0  0  0  0  0  0  0  0  0  0  0
  -25.0820  -10.0910   21.6980 C   0  0  0  0  0  0  0  0  0  0  0  0
  -25.3650   -8.9120   22.4210 C   0  0  0  0  0  3  0  0  0  0  0  0
  -24.4190   -7.8660   22.4800 C   0  0  0  0  0  3  0  0  0  0  0  0
  -23.1760   -7.9910   21.8180 C   0  0  0  0  0  0  0  0  0  0  0  0
  -22.9070   -9.1620   21.0860 C   0  0  0  0  0  3  0  0  0  0  0  0
  -23.8490  -10.2010   21.0250 C   0  0  0  0  0  3  0  0  0  0  0  0
  -22.2090   -7.0150   21.7990 O   0  0  0  0  0  0  0  0  0  0  0  0
  -22.0380   -6.1520   22.8530 C   0  0  0  0  0  0  0  0  0  0  0  0
  -21.7320   -6.6140   24.1520 C   0  0  0  0  0  3  0  0  0  0  0  0
  -21.4980   -5.6920   25.1900 C   0  0  0  0  0  3  0  0  0  0  0  0
  -21.5520   -4.3090   24.9310 C   0  0  0  0  0  0  0  0  0  0  0  0
  -21.8440   -3.8470   23.6350 C   0  0  0  0  0  3  0  0  0  0  0  0
  -22.0830   -4.7670   22.5980 C   0  0  0  0  0  0  0  0  0  0  0  0
  -22.3470   -4.3180   21.3500 F   0  0  0  0  0  0  0  0  0  0  0  0
  -21.3170   -3.4210   25.9260 F   0  0  0  0  0  0  0  0  0  0  0  0
  -24.6890  -13.2370   22.5830 C   0  0  0  0  0  0  0  0  0  0  0  0
  -23.8990  -12.5050   23.3630 N   0  0  0  0  0  0  0  0  0  0  0  0
  -24.4640  -14.4270   22.3870 O   0  0  0  0  0  0  0  0  0  0  0  0
  -24.0940  -11.5330   23.5470 H   0  0  0  0  0  0  0  0  0  0  0  0
  -23.0850  -12.9310   23.7840 H   0  0  0  0  0  0  0  0  0  0  0  0
  -27.5020  -14.5060   21.6980 N   0  0  0  0  0  0  0  0  0  0  0  0
  -26.8220  -15.2090   21.9620 H   0  0  0  0  0  0  0  0  0  0  0  0
  -28.1430  -14.8320   20.9760 H   0  0  0  0  0  0  0  0  0  0  0  0
  -23.3190  -17.0770   18.7620 C   0  0  0  0  0  2  0  0  0  0  0  0
  -23.8390  -18.4670   19.1470 C   0  0  0  0  0  2  0  0  0  0  0  0
  -25.0880  -18.8080   18.3270 C   0  0  0  0  0  2  0  0  0  0  0  0
  -25.9520  -19.9120   18.9310 C   0  0  0  0  0  2  0  0  0  0  0  0
  -26.9870  -20.4100   17.9140 C   0  0  0  0  0  2  0  0  0  0  0  0
  -28.1200  -21.1970   18.5850 C   0  0  0  0  0  2  0  0  0  0  0  0
  -28.7190  -22.1610   17.6400 N   0  0  0  0  0  4  0  0  0  0  0  0
  -27.9720  -22.5140   17.0640 H   0  0  0  0  0  0  0  0  0  0  0  0
  -29.3620  -21.6860   17.0210 H   0  0  0  0  0  0  0  0  0  0  0  0
  -29.3820  -23.3190   18.2840 C   0  0  0  0  0  2  0  0  0  0  0  0
  -29.5290  -24.4910   17.2950 C   0  0  0  0  0  2  0  0  0  0  0  0
  -29.4780  -25.7610   17.9470 O   0  0  0  0  0  0  0  0  0  0  0  0
  -24.9100  -27.9870   22.8800 C   0  0  0  0  0  0  0  0  0  0  0  0
  -28.2670  -26.3910   18.1530 C   0  0  0  0  0  0  0  0  0  0  0  0
  -24.0830  -28.1000   20.5500 C   0  0  0  0  0  3  0  0  0  0  0  0
  -25.8340  -27.7170   18.7360 C   0  0  0  0  0  0  0  0  0  0  0  0
  -26.5830  -28.2770   21.0560 C   0  0  0  0  0  2  0  0  0  0  0  0
  -26.8380  -27.6350   19.7080 C   0  0  0  0  0  0  0  0  0  0  0  0
  -28.0470  -26.9740   19.4200 C   0  0  0  0  0  3  0  0  0  0  0  0
  -27.2430  -26.4870   17.1780 C   0  0  0  0  0  3  0  0  0  0  0  0
  -26.0290  -27.1410   17.4690 C   0  0  0  0  0  3  0  0  0  0  0  0
  -24.5740  -28.4570   19.1200 C   0  0  0  0  0  2  0  0  0  0  0  0
  -25.1990  -28.0890   21.5520 N   0  0  0  0  0  0  0  0  0  0  0  0
  -23.7380  -27.9380   23.2770 O   0  0  0  0  0  0  0  0  0  0  0  0
  -23.3120  -26.7630   20.4850 C   0  0  0  0  0  0  0  0  0  0  0  0
  -22.0970  -26.8030   19.9160 N   0  0  0  0  0  0  0  0  0  0  0  0
  -23.8150  -25.7240   20.9170 O   0  0  0  0  0  0  0  0  0  0  0  0
  -21.7540  -27.6980   19.5960 H   0  0  0  0  0  0  0  0  0  0  0  0
  -18.9610  -25.7930   18.4370 C   0  0  0  0  0  0  0  0  0  0  0  0
  -21.2050  -25.6620   19.7110 C   0  0  0  0  0  3  0  0  0  0  0  0
  -21.6980  -24.7700   18.5480 C   0  0  0  0  0  2  0  0  0  0  0  0
  -21.0690  -25.1330   17.2000 C   0  0  0  0  0  2  0  0  0  0  0  0
  -19.5440  -25.0140   17.2700 C   0  0  0  0  0  2  0  0  0  0  0  0
  -19.7450  -26.1100   19.5780 C   0  0  0  0  0  0  0  0  0  0  0  0
  -19.1620  -26.8640   20.6190 C   0  0  0  0  0  3  0  0  0  0  0  0
  -17.8250  -27.2940   20.5380 C   0  0  0  0  0  3  0  0  0  0  0  0
  -17.0500  -26.9670   19.4120 C   0  0  0  0  0  3  0  0  0  0  0  0
  -17.6180  -26.2160   18.3670 C   0  0  0  0  0  3  0  0  0  0  0  0
  -26.0350  -27.9480   23.9610 C   0  0  0  0  0  3  0  0  0  0  0  0
  -26.4760  -26.4830   24.3430 C   0  0  1  0  0  0  0  0  0  0  0  0
  -25.2990  -25.5580   24.7270 C   0  0  0  0  0  1  0  0  0  0  0  0
  -27.2270  -25.8220   23.1640 C   0  0  0  0  0  1  0  0  0  0  0  0
  -27.4660  -26.5220   25.5320 C   0  0  0  0  0  1  0  0  0  0  0  0
  -25.5410  -28.6670   25.1410 N   0  0  0  0  0  0  0  0  0  0  0  0
  -25.8840  -29.9210   25.4630 C   0  0  0  0  0  0  0  0  0  0  0  0
  -26.7150  -30.5750   24.8250 O   0  0  0  0  0  0  0  0  0  0  0  0
  -24.8170  -28.2130   25.6780 H   0  0  0  0  0  0  0  0  0  0  0  0
  -24.0840  -31.5100   26.2150 C   0  0  0  0  0  1  0  0  0  0  0  0
  -25.1930  -30.5540   26.6850 C   0  0  0  0  0  3  0  0  0  0  0  0
  -27.0470  -30.3880   28.2880 C   0  0  0  0  0  1  0  0  0  0  0  0
  -26.1240  -31.2720   27.5830 N   0  0  0  0  0  0  0  0  0  0  0  0
  -25.6110  -31.8130   28.2730 H   0  0  0  0  0  0  0  0  0  0  0  0
  1  2  1  0
  3  5  2  0
  4  2  1  0
  4  3  1  0
  6  4  1  0
  7  3  1  0
  8 12  1  0
  8 10  1  0
  9  7  1  0
  9  8  1  0
 11  9  1  0
 14 13  1  0
 14 15  1  0
 15 16  1  0
 16 25  1  0
 17 25  1  0
 18 23  1  0
 19 20  1  0
 19 18  1  0
 21 20  1  0
 21 30  1  0
 21 22  1  0
 23 17  1  0
 23 22  1  0
 24 17  2  0
 25 26  1  0
 27 10  1  6
 27 52  1  0
 27 28  1  0
 28 47  1  0
 29 32  1  0
 29 28  1  0
 30 31  1  0
 30 27  1  0
 31 29  2  0
 32 33  1  0
 33 34  2  0
 35 34  1  0
 36 35  2  0
 37 36  1  0
 37 32  2  0
 38 35  1  0
 38 39  1  0
 39 40  1  0
 40 41  2  0
 42 41  1  0
 42 46  1  0
 43 42  2  0
 44 39  2  0
 44 43  1  0
 45 44  1  0
 47 48  1  0
 48 50  1  0
 48 51  1  0
 49 47  2  0
 52 53  1  0
 54 52  1  0
 55  1  1  0
 55 56  1  0
 57 58  1  0
 57 56  1  0
 59 60  1  0
 59 58  1  0
 61 64  1  0
 61 60  1  0
 62 61  1  0
 63 61  1  0
 65 66  1  0
 65 64  1  0
 66 68  1  0
 67 78  2  0
 68 73  1  0
 69 79  1  0
 69 77  1  0
 70 76  1  0
 70 72  1  0
 71 77  1  0
 72 71  1  0
 73 72  2  0
 74 75  1  0
 74 68  2  0
 75 70  2  0
 76 69  1  0
 77 67  1  0
 79 81  2  0
 80 79  1  0
 82 80  1  0
 83 88  1  0
 84 80  1  0
 85 84  1  0
 86 87  1  0
 86 85  1  0
 87 83  1  0
 88 84  1  0
 88 89  2  0
 90 89  1  0
 91 90  2  0
 92 83  2  0
 92 91  1  0
 93 67  1  0
 93 94  1  0
 93 98  1  0
 94 95  1  1
 94 97  1  0
 96 94  1  0
 98 99  1  0
 98101  1  0
 99103  1  0
100 99  2  0
103102  1  0
103105  1  0
105106  1  0
105104  1  0
M  ISO  4  17 100  25 100  65 101  66 101
M  END
>  <TORSDO>  (8) 
F 34

>  <SCORE>  (8) 
11.499

>  <name>  (8) 
7

>  <ligand_id>  (8) 
7

>  <original_smiles>  (8) 
[H]c1c([H])c([H])c2c(c1[H])C([H])([H])C([H])([H])C([H])([H])C2([H])N([H])C(=O)C1([H])N(C(=O)C([H])(N([H])C(=O)C([H])(N([H])C([H])([H])[H])C([H])([H])[H])C(C([H])([H])[H])(C([H])([H])[H])C([H])([H])[H])C([H])([H])c2c([H])c(OC([H])([H])C([H])([H])[N+]([H])([H])C([H])([H])C([H])([H])C([H])([H])C([H])([H])C([H])([H])C([H])([H])C([H])([H])C([H])([H])N([H])C(=O)C([H])([H])N([H])C(=O)C([H])([H])OC([H])([H])C([H])([H])C([H])([H])N([H])C(=O)N3C([H])([H])C([H])([H])C([H])([H])C([H])(n4nc(-c5c([H])c([H])c(Oc6c([H])c([H])c(F)c([H])c6F)c([H])c5[H])c(C(=O)N([H])[H])c4N([H])[H])C3([H])[H])c([H])c([H])c2C1([H])[H]

>  <smiles>  (8) 
[H]c1c([H])c([H])c2c(c1[H])C([H])([H])C([H])([H])C([H])([H])C2([H])N([H])C(=O)C1([H])N(C(=O)C([H])(N([H])C(=O)C([H])(N([H])C([H])([H])[H])C([H])([H])[H])C(C([H])([H])[H])(C([H])([H])[H])C([H])([H])[H])C([H])([H])c2c([H])c(OC([H])([H])C([H])([H])[N+]([H])([H])C([H])([H])C([H])([H])C([H])([H])C([H])([H])C([H])([H])C([H])([H])C([H])([H])C([H])([H])N([H])C(=O)C([H])([H])N([H])C(=O)C([H])([H])OC([H])([H])C([H])([H])C([H])([H])N([H])C(=O)N3C([H])([H])C([H])([H])C([H])([H])C([H])(n4nc(-c5c([H])c([H])c(Oc6c([H])c([H])c(F)c([H])c6F)c([H])c5[H])c(C(=O)N([H])[H])c4N([H])[H])C3([H])[H])c([H])c([H])c2C1([H])[H]

$$$$
8:0:0
     RDKit          3D

 95102  0  0  1  0  0  0  0  0999 V2000
  -22.5060  -26.5710   19.9560 C   0  0  0  0  0  3  0  0  0  0  0  0
  -21.4750  -27.8970   20.4140 O   0  0  0  0  0  0  0  0  0  0  0  0
  -21.2250  -29.4560   21.1810 C   0  0  0  0  0  1  0  0  0  0  0  0
  -21.6600  -30.1560   22.9730 C   0  0  0  0  0  1  0  0  0  0  0  0
  -22.8490  -29.6290   24.1910 O   0  0  0  0  0  0  0  0  0  0  0  0
  -24.3440  -28.7290   24.4760 C   0  0  0  0  0  2  0  0  0  0  0  0
  -26.0520  -28.3930   23.6860 C   0  0  0  0  0  2  0  0  0  0  0  0
  -27.0210  -27.3280   22.7940 O   0  0  0  0  0  0  0  0  0  0  0  0
  -24.7860  -31.8020   23.2520 C   0  0  0  0  0  0  0  0  0  0  0  0
  -27.5060  -27.5000   21.4990 C   0  0  0  0  0  3  0  0  0  0  0  0
  -23.9850  -29.8200   21.6080 C   0  0  0  0  0  3  0  0  0  0  0  0
  -25.6130  -28.8150   20.2240 C   0  0  0  0  0  0  0  0  0  0  0  0
  -26.2780  -30.8510   21.5640 C   0  0  0  0  0  2  0  0  0  0  0  0
  -26.5920  -29.5080   20.9490 C   0  0  0  0  0  0  0  0  0  0  0  0
  -27.7540  -28.8440   21.3160 C   0  0  0  0  0  2  0  0  0  0  0  0
  -26.8150  -26.7750   20.4990 C   0  0  0  0  0  3  0  0  0  0  0  0
  -25.8160  -27.4840   19.8210 C   0  0  0  0  0  3  0  0  0  0  0  0
  -24.3130  -29.4820   20.1610 C   0  0  0  0  0  2  0  0  0  0  0  0
  -24.9930  -30.8160   22.2710 N   0  0  0  0  0  0  0  0  0  0  0  0
  -23.6630  -32.2130   23.5750 O   0  0  0  0  0  0  0  0  0  0  0  0
  -23.5460  -28.2970   22.2970 C   0  0  0  0  0  0  0  0  0  0  0  0
  -22.4330  -27.7560   23.0480 N   0  0  0  0  0  0  0  0  0  0  0  0
  -24.3360  -27.4620   22.4830 O   0  0  0  0  0  0  0  0  0  0  0  0
  -22.8600  -26.9120   23.3960 H   0  0  0  0  0  0  0  0  0  0  0  0
  -18.3580  -27.5520   22.8050 C   0  0  0  0  0  0  0  0  0  0  0  0
  -20.9360  -27.6390   23.5300 C   0  0  0  0  0  3  0  0  0  0  0  0
  -20.8060  -26.1360   23.2990 C   0  0  0  0  0  2  0  0  0  0  0  0
  -19.8780  -25.6540   22.1730 C   0  0  0  0  0  2  0  0  0  0  0  0
  -18.4760  -26.0890   22.4600 C   0  0  0  0  0  2  0  0  0  0  0  0
  -19.4690  -28.3290   23.2880 C   0  0  0  0  0  0  0  0  0  0  0  0
  -19.0520  -29.5950   23.8120 C   0  0  0  0  0  3  0  0  0  0  0  0
  -17.7590  -30.1460   23.6460 C   0  0  0  0  0  3  0  0  0  0  0  0
  -16.7320  -29.3620   23.1130 C   0  0  0  0  0  3  0  0  0  0  0  0
  -17.0360  -28.0520   22.7340 C   0  0  0  0  0  3  0  0  0  0  0  0
  -25.9460  -32.5400   24.0440 C   0  0  0  0  0  3  0  0  0  0  0  0
  -26.3210  -32.0210   25.5070 C   0  0  1  0  0  0  0  0  0  0  0  0
  -25.0920  -31.7840   26.4270 C   0  0  0  0  0  1  0  0  0  0  0  0
  -27.2760  -30.8130   25.5240 C   0  0  0  0  0  1  0  0  0  0  0  0
  -27.2000  -33.0750   26.2250 C   0  0  0  0  0  1  0  0  0  0  0  0
  -25.5200  -33.9410   24.1930 N   0  0  0  0  0  0  0  0  0  0  0  0
  -25.8950  -34.9450   23.4000 C   0  0  0  0  0  0  0  0  0  0  0  0
  -26.6650  -34.7880   22.4520 O   0  0  0  0  0  0  0  0  0  0  0  0
  -24.8320  -34.1250   24.9070 H   0  0  0  0  0  0  0  0  0  0  0  0
  -24.1300  -36.6250   22.7850 C   0  0  0  0  0  1  0  0  0  0  0  0
  -25.3230  -36.3410   23.7100 C   0  0  0  0  0  3  0  0  0  0  0  0
  -27.3550  -37.3750   24.6190 C   0  0  0  0  0  1  0  0  0  0  0  0
  -26.3220  -37.4220   23.5880 N   0  0  0  0  0  0  0  0  0  0  0  0
  -25.8730  -38.3330   23.6280 H   0  0  0  0  0  0  0  0  0  0  0  0
  -23.4960  -25.0610   20.5300 C   0  0  0  0  0  3  0  0  0  0  0  0
  -24.6260  -23.9540   19.9040 O   0  0  0  0  0  0  0  0  0  0  0  0
  -25.5340  -22.6250   20.4640 C   0  0  0  0  0  3  0  0  0  0  0  0
  -26.7620  -21.4120   19.7420 C   0  0  0  0  0  3  0  0  0  0  0  0
  -30.4850  -15.5540   19.7970 C   0  0  0  0  0  0  0  0  0  0  0  0
  -30.6730  -13.0720   18.9440 C   0  0  0  0  0  2  0  0  0  0  0  0
  -29.7030  -12.7530   17.7790 C   0  0  0  0  0  2  0  0  0  0  0  0
  -28.2890  -12.4530   18.3160 C   0  0  0  0  0  2  0  0  0  0  0  0
  -27.8830  -13.4410   19.4370 C   0  0  0  0  0  3  0  0  0  0  0  0
  -28.9640  -13.6090   20.5060 C   0  0  0  0  0  2  0  0  0  0  0  0
  -30.0760  -14.1910   19.7770 N   0  0  0  0  0  0  0  0  0  0  0  0
  -31.7180  -15.5990   19.5700 O   0  0  0  0  0  0  0  0  0  0  0  0
  -29.9950  -18.2960   20.2510 C   0  0  0  0  0  2  0  0  0  0  0  0
  -28.0870  -17.1110   19.9230 C   0  0  0  0  0  2  0  0  0  0  0  0
  -29.1120  -19.7510   19.9840 C   0  0  0  0  0  2  0  0  0  0  0  0
  -27.2270  -18.5710   19.6470 C   0  0  0  0  0  2  0  0  0  0  0  0
  -29.6060  -16.8150   19.9320 N   0  0  0  0  0  0  0  0  0  0  0  0
  -27.5820  -19.9700   20.2330 N   0  0  2  0  0  4  0  0  0  0  0  0
  -27.4490  -19.9040   21.2320 H   0  0  0  0  0  0  0  0  0  0  0  0
  -25.6390  -14.0550   20.4550 C   0  0  0  0  0  0  0  0  0  0  0  0
  -24.5920  -13.3090   20.8830 C   0  0  0  0  0  0  0  0  0  0  0  0
  -24.9880  -11.9520   20.7050 C   0  0  0  0  0  0  0  0  0  0  0  0
  -26.6050  -13.1590   20.0410 N   0  0  0  0  0  0  0  0  0  0  0  0
  -26.2370  -11.8770   20.2640 N   0  0  0  0  0  0  0  0  0  0  0  0
  -24.2190  -10.7230   20.8580 C   0  0  0  0  0  0  0  0  0  0  0  0
  -24.6200   -9.7100   21.7530 C   0  0  0  0  0  3  0  0  0  0  0  0
  -23.8430   -8.5430   21.8960 C   0  0  0  0  0  3  0  0  0  0  0  0
  -22.6550   -8.3860   21.1410 C   0  0  0  0  0  0  0  0  0  0  0  0
  -22.2770   -9.3900   20.2330 C   0  0  0  0  0  3  0  0  0  0  0  0
  -23.0540  -10.5490   20.0870 C   0  0  0  0  0  3  0  0  0  0  0  0
  -21.8490   -7.2780   21.1990 O   0  0  0  0  0  0  0  0  0  0  0  0
  -21.6990   -6.5620   22.3590 C   0  0  0  0  0  0  0  0  0  0  0  0
  -21.2160   -7.1570   23.5450 C   0  0  0  0  0  3  0  0  0  0  0  0
  -21.0120   -6.3670   24.6940 C   0  0  0  0  0  3  0  0  0  0  0  0
  -21.2800   -4.9850   24.6560 C   0  0  0  0  0  0  0  0  0  0  0  0
  -21.7580   -4.3920   23.4740 C   0  0  0  0  0  3  0  0  0  0  0  0
  -21.9650   -5.1790   22.3280 C   0  0  0  0  0  0  0  0  0  0  0  0
  -22.4060   -4.6000   21.1850 F   0  0  0  0  0  0  0  0  0  0  0  0
  -21.0760   -4.2250   25.7560 F   0  0  0  0  0  0  0  0  0  0  0  0
  -23.2600  -13.8420   21.3160 C   0  0  0  0  0  0  0  0  0  0  0  0
  -22.5850  -13.1360   22.2130 N   0  0  0  0  0  0  0  0  0  0  0  0
  -22.8380  -14.9200   20.8970 O   0  0  0  0  0  0  0  0  0  0  0  0
  -22.9460  -12.2650   22.5700 H   0  0  0  0  0  0  0  0  0  0  0  0
  -21.6940  -13.4730   22.5490 H   0  0  0  0  0  0  0  0  0  0  0  0
  -25.7980  -15.4220   20.3480 N   0  0  0  0  0  0  0  0  0  0  0  0
  -25.0170  -16.0450   20.5270 H   0  0  0  0  0  0  0  0  0  0  0  0
  -26.5520  -15.8540   19.8370 H   0  0  0  0  0  0  0  0  0  0  0  0
  1  2  1  0
  1 49  2  0
  2  3  1  0
  4  5  1  0
  5  6  1  0
  7  6  1  0
  8  7  1  0
  9 20  2  0
 10  8  1  0
 11 19  1  0
 11 21  1  0
 12 14  2  0
 13 19  1  0
 14 15  1  0
 14 13  1  0
 15 10  1  0
 16 10  1  0
 17 12  1  0
 17 16  2  0
 18 12  1  0
 18 11  1  0
 19  9  1  0
 21 23  2  0
 21 22  1  0
 22 24  1  0
 25 30  1  0
 26 22  1  0
 27 26  1  0
 28 29  1  0
 28 27  1  0
 29 25  1  0
 30 26  1  0
 30 31  2  0
 32 31  1  0
 33 32  2  0
 34 25  2  0
 34 33  1  0
 35  9  1  0
 35 40  1  0
 35 36  1  0
 36 38  1  6
 36 39  1  0
 36 37  1  0
 40 43  1  0
 41 45  1  0
 41 40  1  0
 42 41  2  0
 45 44  1  0
 47 48  1  0
 47 45  1  0
 47 46  1  0
 50 51  1  0
 50 49  1  0
 52 66  1  0
 52 51  2  0
 53 65  1  0
 54 59  1  0
 55 56  1  0
 55 54  1  0
 57 56  1  0
 57 71  1  0
 57 58  1  0
 59 53  1  0
 59 58  1  0
 60 53  2  0
 62 65  1  0
 63 66  1  0
 63 61  1  0
 64 62  1  0
 64 66  1  0
 65 61  1  0
 66 67  1  1
 68 69  2  0
 69 88  1  0
 70 73  1  0
 70 69  1  0
 71 72  1  0
 71 68  1  0
 72 70  2  0
 73 74  1  0
 74 75  2  0
 76 79  1  0
 76 75  1  0
 77 76  2  0
 78 77  1  0
 78 73  2  0
 79 80  1  0
 80 81  1  0
 81 82  2  0
 83 82  1  0
 83 87  1  0
 84 83  2  0
 85 80  2  0
 85 84  1  0
 86 85  1  0
 88 89  1  0
 89 92  1  0
 89 91  1  0
 90 88  2  0
 93 68  1  0
 93 94  1  0
 95 93  1  0
M  ISO  4   7 101   8 101  53 100  65 100
M  END
>  <TORSDO>  (9) 
F 26

>  <SCORE>  (9) 
-13.458

>  <name>  (9) 
8

>  <ligand_id>  (9) 
8

>  <original_smiles>  (9) 
[H]c1c([H])c([H])c2c(c1[H])C([H])([H])C([H])([H])C([H])([H])C2([H])N([H])C(=O)C1([H])N(C(=O)C([H])(N([H])C(=O)C([H])(N([H])C([H])([H])[H])C([H])([H])[H])C(C([H])([H])[H])(C([H])([H])[H])C([H])([H])[H])C([H])([H])c2c([H])c(OC([H])([H])C([H])([H])OC([H])([H])C([H])([H])OC([H])([H])C([H])([H])OC([H])([H])C([H])([H])[N+]3([H])C([H])([H])C([H])([H])N(C(=O)N4C([H])([H])C([H])([H])C([H])([H])C([H])(n5nc(-c6c([H])c([H])c(Oc7c([H])c([H])c(F)c([H])c7F)c([H])c6[H])c(C(=O)N([H])[H])c5N([H])[H])C4([H])[H])C([H])([H])C3([H])[H])c([H])c([H])c2C1([H])[H]

>  <smiles>  (9) 
[H]c1c([H])c([H])c2c(c1[H])C([H])([H])C([H])([H])C([H])([H])C2([H])N([H])C(=O)C1([H])N(C(=O)C([H])(N([H])C(=O)C([H])(N([H])C([H])([H])[H])C([H])([H])[H])C(C([H])([H])[H])(C([H])([H])[H])C([H])([H])[H])C([H])([H])c2c([H])c(OC([H])([H])C([H])([H])OC([H])([H])C([H])([H])OC([H])([H])C([H])([H])OC([H])([H])C([H])([H])[N+]3([H])C([H])([H])C([H])([H])N(C(=O)N4C([H])([H])C([H])([H])C([H])([H])C([H])(n5nc(-c6c([H])c([H])c(Oc7c([H])c([H])c(F)c([H])c7F)c([H])c6[H])c(C(=O)N([H])[H])c5N([H])[H])C4([H])[H])C([H])([H])C3([H])[H])c([H])c([H])c2C1([H])[H]

$$$$
9:0:0
     RDKit          3D

 90 98  0  0  1  0  0  0  0  0999 V2000
  -30.1490  -21.8900   19.4440 C   0  0  0  0  0  2  0  0  0  0  0  0
  -27.9230  -21.9090   20.1520 C   0  0  0  0  0  2  0  0  0  0  0  0
  -30.3800  -20.4390   20.0190 C   0  0  0  0  0  2  0  0  0  0  0  0
  -28.0760  -20.4630   20.7440 C   0  0  0  0  0  2  0  0  0  0  0  0
  -29.1730  -22.6880   20.2220 N   0  0  0  0  0  0  0  0  0  0  0  0
  -29.1190  -19.6320   20.0590 N   0  0  2  0  0  4  0  0  0  0  0  0
  -28.8140  -19.5410   19.1020 H   0  0  0  0  0  0  0  0  0  0  0  0
  -29.0370  -24.0860   19.6860 C   0  0  0  0  0  3  0  0  0  0  0  0
  -28.2740  -25.1550   20.5720 C   0  0  0  0  0  3  0  0  0  0  0  0
  -28.4140  -26.5660   20.1770 O   0  0  0  0  0  0  0  0  0  0  0  0
  -24.6070  -31.8660   23.2070 C   0  0  0  0  0  0  0  0  0  0  0  0
  -27.2720  -27.3620   20.1620 C   0  0  0  0  0  0  0  0  0  0  0  0
  -23.4200  -30.4640   21.5540 C   0  0  0  0  0  3  0  0  0  0  0  0
  -24.8870  -28.9210   20.1370 C   0  0  0  0  0  0  0  0  0  0  0  0
  -25.9540  -30.8090   21.3790 C   0  0  0  0  0  2  0  0  0  0  0  0
  -26.0450  -29.4320   20.7370 C   0  0  0  0  0  0  0  0  0  0  0  0
  -27.2420  -28.6660   20.7350 C   0  0  0  0  0  3  0  0  0  0  0  0
  -26.0930  -26.8880   19.5410 C   0  0  0  0  0  3  0  0  0  0  0  0
  -24.9100  -27.6540   19.5310 C   0  0  0  0  0  3  0  0  0  0  0  0
  -23.6430  -29.7860   20.1760 C   0  0  0  0  0  2  0  0  0  0  0  0
  -24.6790  -31.0640   22.1050 N   0  0  0  0  0  0  0  0  0  0  0  0
  -23.5190  -32.1350   23.7380 O   0  0  0  0  0  0  0  0  0  0  0  0
  -22.7560  -29.4450   22.5120 C   0  0  0  0  0  0  0  0  0  0  0  0
  -21.4290  -29.2760   22.3890 N   0  0  0  0  0  0  0  0  0  0  0  0
  -23.4330  -28.8050   23.3180 O   0  0  0  0  0  0  0  0  0  0  0  0
  -20.9430  -29.8410   21.7070 H   0  0  0  0  0  0  0  0  0  0  0  0
  -18.0420  -28.1180   22.8990 C   0  0  0  0  0  0  0  0  0  0  0  0
  -20.6060  -28.3350   23.1500 C   0  0  0  0  0  3  0  0  0  0  0  0
  -20.6850  -26.9110   22.5510 C   0  0  0  0  0  2  0  0  0  0  0  0
  -19.5660  -26.6210   21.5430 C   0  0  0  0  0  2  0  0  0  0  0  0
  -18.1930  -26.7780   22.1990 C   0  0  0  0  0  2  0  0  0  0  0  0
  -19.1770  -28.8560   23.3300 C   0  0  0  0  0  0  0  0  0  0  0  0
  -18.9790  -30.1160   23.9380 C   0  0  0  0  0  3  0  0  0  0  0  0
  -17.6830  -30.6330   24.1200 C   0  0  0  0  0  3  0  0  0  0  0  0
  -16.5650  -29.8900   23.7050 C   0  0  0  0  0  3  0  0  0  0  0  0
  -16.7450  -28.6330   23.1000 C   0  0  0  0  0  3  0  0  0  0  0  0
  -25.8820  -32.4990   23.8430 C   0  0  0  0  0  3  0  0  0  0  0  0
  -26.3800  -31.7350   25.1320 C   0  0  1  0  0  0  0  0  0  0  0  0
  -25.2730  -31.5050   26.1880 C   0  0  0  0  0  1  0  0  0  0  0  0
  -26.9650  -30.3570   24.7520 C   0  0  0  0  0  1  0  0  0  0  0  0
  -27.5210  -32.5340   25.8060 C   0  0  0  0  0  1  0  0  0  0  0  0
  -25.5680  -33.8990   24.1630 N   0  0  0  0  0  0  0  0  0  0  0  0
  -25.9160  -34.9480   23.4060 C   0  0  0  0  0  0  0  0  0  0  0  0
  -26.6030  -34.8410   22.3880 O   0  0  0  0  0  0  0  0  0  0  0  0
  -24.9630  -34.0580   24.9550 H   0  0  0  0  0  0  0  0  0  0  0  0
  -24.1960  -36.7420   23.0200 C   0  0  0  0  0  1  0  0  0  0  0  0
  -25.4240  -36.3390   23.8530 C   0  0  0  0  0  3  0  0  0  0  0  0
  -27.5460  -37.2210   24.7180 C   0  0  0  0  0  1  0  0  0  0  0  0
  -26.4600  -37.3910   23.7550 N   0  0  0  0  0  0  0  0  0  0  0  0
  -26.0520  -38.3120   23.8930 H   0  0  0  0  0  0  0  0  0  0  0  0
  -29.1960  -18.2190   20.6360 C   0  0  0  0  0  3  0  0  0  0  0  0
  -30.0590  -17.1090   19.9030 C   0  0  0  0  0  3  0  0  0  0  0  0
  -30.6610  -14.6140   20.1080 C   0  0  0  0  0  0  0  0  0  0  0  0
  -30.3900  -12.3930   19.0530 C   0  0  0  0  0  2  0  0  0  0  0  0
  -29.4080  -12.5690   17.8720 C   0  0  0  0  0  2  0  0  0  0  0  0
  -27.9550  -12.3950   18.3540 C   0  0  0  0  0  2  0  0  0  0  0  0
  -27.6410  -13.2460   19.6160 C   0  0  0  0  0  3  0  0  0  0  0  0
  -28.7380  -13.0740   20.6930 C   0  0  0  0  0  2  0  0  0  0  0  0
  -30.0310  -13.4000   20.0720 N   0  0  0  0  0  0  0  0  0  0  0  0
  -31.8030  -14.7660   19.6710 O   0  0  0  0  0  0  0  0  0  0  0  0
  -29.8820  -15.6970   20.4020 N   0  0  0  0  0  0  0  0  0  0  0  0
  -28.9830  -15.4740   20.8040 H   0  0  0  0  0  0  0  0  0  0  0  0
  -25.2760  -13.8430   20.4220 C   0  0  0  0  0  0  0  0  0  0  0  0
  -24.2220  -13.0680   20.8300 C   0  0  0  0  0  0  0  0  0  0  0  0
  -24.6820  -11.7170   20.7740 C   0  0  0  0  0  0  0  0  0  0  0  0
  -26.3100  -12.9630   20.1450 N   0  0  0  0  0  0  0  0  0  0  0  0
  -25.9600  -11.6790   20.4170 N   0  0  0  0  0  0  0  0  0  0  0  0
  -23.9640  -10.4520   20.9810 C   0  0  0  0  0  0  0  0  0  0  0  0
  -24.4200   -9.4880   21.9080 C   0  0  0  0  0  3  0  0  0  0  0  0
  -23.7020   -8.2890   22.1050 C   0  0  0  0  0  3  0  0  0  0  0  0
  -22.5130   -8.0460   21.3750 C   0  0  0  0  0  0  0  0  0  0  0  0
  -22.0760   -8.9980   20.4370 C   0  0  0  0  0  3  0  0  0  0  0  0
  -22.7950  -10.1890   20.2380 C   0  0  0  0  0  3  0  0  0  0  0  0
  -21.7670   -6.8970   21.4800 O   0  0  0  0  0  0  0  0  0  0  0  0
  -21.7380   -6.1610   22.6370 C   0  0  0  0  0  0  0  0  0  0  0  0
  -21.3130   -6.7170   23.8630 C   0  0  0  0  0  3  0  0  0  0  0  0
  -21.2330   -5.9080   25.0150 C   0  0  0  0  0  3  0  0  0  0  0  0
  -21.5650   -4.5420   24.9380 C   0  0  0  0  0  0  0  0  0  0  0  0
  -21.9810   -3.9830   23.7170 C   0  0  0  0  0  3  0  0  0  0  0  0
  -22.0640   -4.7900   22.5680 C   0  0  0  0  0  0  0  0  0  0  0  0
  -22.4450   -4.2440   21.3890 F   0  0  0  0  0  0  0  0  0  0  0  0
  -21.4800   -3.7590   26.0410 F   0  0  0  0  0  0  0  0  0  0  0  0
  -22.8350  -13.5420   21.1540 C   0  0  0  0  0  0  0  0  0  0  0  0
  -22.1350  -12.8370   22.0350 N   0  0  0  0  0  0  0  0  0  0  0  0
  -22.3810  -14.5720   20.6590 O   0  0  0  0  0  0  0  0  0  0  0  0
  -22.5140  -12.0020   22.4570 H   0  0  0  0  0  0  0  0  0  0  0  0
  -21.2030  -13.1330   22.2880 H   0  0  0  0  0  0  0  0  0  0  0  0
  -25.4360  -15.2150   20.2370 N   0  0  0  0  0  0  0  0  0  0  0  0
  -24.6670  -15.8660   20.3440 H   0  0  0  0  0  0  0  0  0  0  0  0
  -26.2460  -15.6260   19.7910 H   0  0  0  0  0  0  0  0  0  0  0  0
  1  3  1  0
  1  5  1  0
  2  5  1  0
  2  4  1  0
  3  6  1  0
  6 51  1  0
  6  4  1  0
  6  7  1  6
  8  5  1  0
  8  9  2  0
 10  9  1  0
 11 22  2  0
 12 10  1  0
 12 17  1  0
 13 21  1  0
 13 23  1  0
 14 20  1  0
 14 16  1  0
 15 21  1  0
 16 15  1  0
 17 16  2  0
 18 12  2  0
 19 18  1  0
 19 14  2  0
 20 13  1  0
 21 11  1  0
 23 25  2  0
 24 23  1  0
 26 24  1  0
 27 36  2  0
 27 32  1  0
 28 24  1  0
 28 32  1  0
 29 28  1  0
 30 31  1  0
 30 29  1  0
 31 27  1  0
 32 33  2  0
 33 34  1  0
 35 34  2  0
 36 35  1  0
 37 11  1  0
 37 42  1  0
 37 38  1  0
 38 41  1  1
 38 39  1  0
 40 38  1  0
 42 45  1  0
 43 47  1  0
 43 42  1  0
 44 43  2  0
 47 46  1  0
 49 47  1  0
 49 50  1  0
 49 48  1  0
 52 61  1  0
 52 51  2  0
 53 61  1  0
 54 59  1  0
 55 56  1  0
 55 54  1  0
 57 56  1  0
 57 66  1  0
 57 58  1  0
 59 53  1  0
 59 58  1  0
 60 53  2  0
 61 62  1  0
 63 64  2  0
 64 83  1  0
 65 64  1  0
 65 68  1  0
 66 67  1  0
 66 63  1  0
 67 65  2  0
 68 69  1  0
 69 70  2  0
 71 74  1  0
 71 70  1  0
 72 71  2  0
 73 72  1  0
 73 68  2  0
 74 75  1  0
 75 76  1  0
 76 77  2  0
 78 77  1  0
 78 82  1  0
 79 78  2  0
 80 75  2  0
 80 79  1  0
 81 80  1  0
 83 84  1  0
 84 87  1  0
 84 86  1  0
 85 83  2  0
 88 89  1  0
 88 63  1  0
 90 88  1  0
M  ISO  4   9 101  10 101  53 100  61 100
M  END
>  <TORSDO>  (10) 
F 20

>  <SCORE>  (10) 
-13.596

>  <name>  (10) 
9

>  <ligand_id>  (10) 
9

>  <original_smiles>  (10) 
[H]c1c([H])c([H])c2c(c1[H])C([H])([H])C([H])([H])C([H])([H])C2([H])N([H])C(=O)C1([H])N(C(=O)C([H])(N([H])C(=O)C([H])(N([H])C([H])([H])[H])C([H])([H])[H])C(C([H])([H])[H])(C([H])([H])[H])C([H])([H])[H])C([H])([H])c2c([H])c(OC([H])([H])C([H])([H])N3C([H])([H])C([H])([H])[N+]([H])(C([H])([H])C([H])([H])N([H])C(=O)N4C([H])([H])C([H])([H])C([H])([H])C([H])(n5nc(-c6c([H])c([H])c(Oc7c([H])c([H])c(F)c([H])c7F)c([H])c6[H])c(C(=O)N([H])[H])c5N([H])[H])C4([H])[H])C([H])([H])C3([H])[H])c([H])c([H])c2C1([H])[H]

>  <smiles>  (10) 
[H]c1c([H])c([H])c2c(c1[H])C([H])([H])C([H])([H])C([H])([H])C2([H])N([H])C(=O)C1([H])N(C(=O)C([H])(N([H])C(=O)C([H])(N([H])C([H])([H])[H])C([H])([H])[H])C(C([H])([H])[H])(C([H])([H])[H])C([H])([H])[H])C([H])([H])c2c([H])c(OC([H])([H])C([H])([H])N3C([H])([H])C([H])([H])[N+]([H])(C([H])([H])C([H])([H])N([H])C(=O)N4C([H])([H])C([H])([H])C([H])([H])C([H])(n5nc(-c6c([H])c([H])c(Oc7c([H])c([H])c(F)c([H])c7F)c([H])c6[H])c(C(=O)N([H])[H])c5N([H])[H])C4([H])[H])C([H])([H])C3([H])[H])c([H])c([H])c2C1([H])[H]

$$$$
11:0:0
     RDKit          3D

116123  0  0  1  0  0  0  0  0999 V2000
  -18.7330  -27.1570   11.8980 C   0  0  0  0  0  2  0  0  0  0  0  0
  -19.1860  -24.9270   12.9130 C   0  0  0  0  0  0  0  0  0  0  0  0
  -19.4870  -25.9200   12.0700 N   0  0  0  0  0  0  0  0  0  0  0  0
  -18.2160  -24.9680   13.6730 O   0  0  0  0  0  0  0  0  0  0  0  0
  -20.2790  -25.7810   11.4580 H   0  0  0  0  0  0  0  0  0  0  0  0
  -20.1180  -23.7130   12.8750 C   0  0  0  0  0  2  0  0  0  0  0  0
  -20.2970  -23.0160   14.2350 C   0  0  0  0  0  2  0  0  0  0  0  0
  -21.4670  -22.0220   14.2290 C   0  0  0  0  0  2  0  0  0  0  0  0
  -21.9970  -21.7410   15.6430 C   0  0  0  0  0  2  0  0  0  0  0  0
  -23.2590  -20.8600   15.6360 C   0  0  0  0  0  2  0  0  0  0  0  0
  -23.8560  -20.7510   16.9810 N   0  0  0  0  0  4  0  0  0  0  0  0
  -23.2110  -20.2550   17.5770 H   0  0  0  0  0  0  0  0  0  0  0  0
  -23.9740  -21.6770   17.3640 H   0  0  0  0  0  0  0  0  0  0  0  0
  -25.1580  -20.0560   17.0080 C   0  0  0  0  0  2  0  0  0  0  0  0
  -25.6550  -19.8340   18.4460 C   0  0  0  0  0  2  0  0  0  0  0  0
  -27.1190  -19.3690   18.5070 C   0  0  0  0  0  2  0  0  0  0  0  0
  -27.5080  -18.8340   19.8910 C   0  0  0  0  0  2  0  0  0  0  0  0
  -28.9120  -18.6380   19.9180 O   0  0  0  0  0  0  0  0  0  0  0  0
  -29.3230  -17.7650   20.9580 C   0  0  0  0  0  2  0  0  0  0  0  0
  -30.8520  -17.6470   20.9130 C   0  0  0  0  0  2  0  0  0  0  0  0
  -31.4050  -16.3910   21.6170 C   0  0  0  0  0  2  0  0  0  0  0  0
  -31.1260  -14.3420   20.2150 C   0  0  0  0  0  0  0  0  0  0  0  0
  -30.6500  -12.2400   19.0160 C   0  0  0  0  0  2  0  0  0  0  0  0
  -29.6830  -12.4630   17.8390 C   0  0  0  0  0  2  0  0  0  0  0  0
  -28.2190  -12.3940   18.3140 C   0  0  0  0  0  2  0  0  0  0  0  0
  -27.9540  -13.2800   19.5600 C   0  0  0  0  0  3  0  0  0  0  0  0
  -29.0210  -13.0210   20.6460 C   0  0  0  0  0  2  0  0  0  0  0  0
  -30.3560  -13.2370   20.0530 N   0  0  0  0  0  0  0  0  0  0  0  0
  -32.1340  -14.5750   19.5400 O   0  0  0  0  0  0  0  0  0  0  0  0
  -30.7370  -15.1600   21.2000 N   0  0  0  0  0  0  0  0  0  0  0  0
  -29.9200  -14.8750   21.7210 H   0  0  0  0  0  0  0  0  0  0  0  0
  -25.5950  -14.0150   20.2850 C   0  0  0  0  0  0  0  0  0  0  0  0
  -24.5060  -13.3020   20.7110 C   0  0  0  0  0  0  0  0  0  0  0  0
  -24.9140  -11.9340   20.7310 C   0  0  0  0  0  0  0  0  0  0  0  0
  -26.6000  -13.0840   20.0730 N   0  0  0  0  0  0  0  0  0  0  0  0
  -26.1940  -11.8300   20.3980 N   0  0  0  0  0  0  0  0  0  0  0  0
  -24.1460  -10.7110   20.9950 C   0  0  0  0  0  0  0  0  0  0  0  0
  -24.5190   -9.8090   22.0160 C   0  0  0  0  0  3  0  0  0  0  0  0
  -23.7540   -8.6490   22.2630 C   0  0  0  0  0  3  0  0  0  0  0  0
  -22.6010   -8.3810   21.4860 C   0  0  0  0  0  0  0  0  0  0  0  0
  -22.2470   -9.2710   20.4570 C   0  0  0  0  0  3  0  0  0  0  0  0
  -23.0120  -10.4210   20.2100 C   0  0  0  0  0  3  0  0  0  0  0  0
  -21.8120   -7.2660   21.6370 O   0  0  0  0  0  0  0  0  0  0  0  0
  -21.6640   -6.6480   22.8530 C   0  0  0  0  0  0  0  0  0  0  0  0
  -21.0710   -7.3040   23.9540 C   0  0  0  0  0  3  0  0  0  0  0  0
  -20.8740   -6.6090   25.1650 C   0  0  0  0  0  3  0  0  0  0  0  0
  -21.2590   -5.2590   25.2730 C   0  0  0  0  0  0  0  0  0  0  0  0
  -21.8430   -4.6020   24.1750 C   0  0  0  0  0  3  0  0  0  0  0  0
  -22.0410   -5.2960   22.9670 C   0  0  0  0  0  0  0  0  0  0  0  0
  -22.5850   -4.6520   21.9060 F   0  0  0  0  0  0  0  0  0  0  0  0
  -21.0620   -4.5880   26.4320 F   0  0  0  0  0  0  0  0  0  0  0  0
  -23.1350  -13.8460   20.9940 C   0  0  0  0  0  0  0  0  0  0  0  0
  -22.4100  -13.2280   21.9200 N   0  0  0  0  0  0  0  0  0  0  0  0
  -22.7170  -14.8540   20.4270 O   0  0  0  0  0  0  0  0  0  0  0  0
  -22.7600  -12.4120   22.4000 H   0  0  0  0  0  0  0  0  0  0  0  0
  -21.4900  -13.5760   22.1530 H   0  0  0  0  0  0  0  0  0  0  0  0
  -25.8080  -15.3680   20.0410 N   0  0  0  0  0  0  0  0  0  0  0  0
  -25.0700  -16.0570   20.1350 H   0  0  0  0  0  0  0  0  0  0  0  0
  -26.6690  -15.7540   19.6750 H   0  0  0  0  0  0  0  0  0  0  0  0
  -18.6420  -28.0090   13.1800 C   0  0  0  0  0  2  0  0  0  0  0  0
  -19.8600  -28.9140   13.4700 C   0  0  0  0  0  2  0  0  0  0  0  0
  -20.9000  -28.3150   14.4250 C   0  0  0  0  0  0  0  0  0  0  0  0
  -22.1770  -28.6790   14.2400 N   0  0  0  0  0  0  0  0  0  0  0  0
  -20.5460  -27.5810   15.3490 O   0  0  0  0  0  0  0  0  0  0  0  0
  -22.3760  -29.2820   13.4520 H   0  0  0  0  0  0  0  0  0  0  0  0
  -23.2720  -28.4490   15.1870 C   0  0  0  0  0  2  0  0  0  0  0  0
  -23.8880  -27.0350   15.0870 C   0  0  0  0  0  2  0  0  0  0  0  0
  -24.6630  -26.6210   16.3470 C   0  0  0  0  0  0  0  0  0  0  0  0
  -25.8950  -26.1240   16.1700 N   0  0  0  0  0  0  0  0  0  0  0  0
  -24.1480  -26.7310   17.4610 O   0  0  0  0  0  0  0  0  0  0  0  0
  -26.2600  -26.1110   15.2270 H   0  0  0  0  0  0  0  0  0  0  0  0
  -26.7380  -25.5650   17.2250 C   0  0  0  0  0  2  0  0  0  0  0  0
  -27.3420  -24.2220   16.7750 C   0  0  0  0  0  2  0  0  0  0  0  0
  -28.2320  -23.5180   17.8260 C   0  0  0  0  0  2  0  0  0  0  0  0
  -27.4790  -22.6250   18.8420 C   0  0  0  0  0  2  0  0  0  0  0  0
  -27.2230  -23.2870   20.0810 O   0  0  0  0  0  0  0  0  0  0  0  0
  -24.7830  -29.1330   23.3050 C   0  0  0  0  0  0  0  0  0  0  0  0
  -26.2530  -24.2590   20.1010 C   0  0  0  0  0  0  0  0  0  0  0  0
  -23.3240  -28.1850   21.5440 C   0  0  0  0  0  3  0  0  0  0  0  0
  -24.3600  -26.3500   20.1130 C   0  0  0  0  0  0  0  0  0  0  0  0
  -25.8510  -27.8240   21.4740 C   0  0  0  0  0  2  0  0  0  0  0  0
  -25.5780  -26.5050   20.7860 C   0  0  0  0  0  0  0  0  0  0  0  0
  -26.5200  -25.4570   20.7960 C   0  0  0  0  0  3  0  0  0  0  0  0
  -25.0130  -24.1040   19.4440 C   0  0  0  0  0  3  0  0  0  0  0  0
  -24.0680  -25.1470   19.4470 C   0  0  0  0  0  3  0  0  0  0  0  0
  -23.4100  -27.5220   20.1410 C   0  0  0  0  0  2  0  0  0  0  0  0
  -24.6700  -28.3890   22.1670 N   0  0  0  0  0  0  0  0  0  0  0  0
  -23.7940  -29.6820   23.8090 O   0  0  0  0  0  0  0  0  0  0  0  0
  -22.3590  -27.3590   22.4250 C   0  0  0  0  0  0  0  0  0  0  0  0
  -21.0500  -27.4860   22.1520 N   0  0  0  0  0  0  0  0  0  0  0  0
  -22.7880  -26.6090   23.3070 O   0  0  0  0  0  0  0  0  0  0  0  0
  -20.7860  -28.1270   21.4170 H   0  0  0  0  0  0  0  0  0  0  0  0
  -17.4540  -27.3060   22.4620 C   0  0  0  0  0  0  0  0  0  0  0  0
  -19.9590  -26.7780   22.8190 C   0  0  0  0  0  3  0  0  0  0  0  0
  -19.6700  -25.4260   22.1280 C   0  0  0  0  0  2  0  0  0  0  0  0
  -18.5720  -25.5170   21.0640 C   0  0  0  0  0  2  0  0  0  0  0  0
  -17.2620  -26.0150   21.6830 C   0  0  0  0  0  2  0  0  0  0  0  0
  -18.7250  -27.6720   22.9800 C   0  0  0  0  0  0  0  0  0  0  0  0
  -18.8580  -28.8970   23.6670 C   0  0  0  0  0  3  0  0  0  0  0  0
  -17.7500  -29.7460   23.8470 C   0  0  0  0  0  3  0  0  0  0  0  0
  -16.4910  -29.3710   23.3470 C   0  0  0  0  0  3  0  0  0  0  0  0
  -16.3440  -28.1540   22.6570 C   0  0  0  0  0  3  0  0  0  0  0  0
  -26.1590  -29.3480   24.0130 C   0  0  0  0  0  3  0  0  0  0  0  0
  -26.2400  -30.7610   24.4010 N   0  0  0  0  0  0  0  0  0  0  0  0
  -26.9400  -31.6940   23.7410 C   0  0  0  0  0  0  0  0  0  0  0  0
  -27.6570  -31.4320   22.7720 O   0  0  0  0  0  0  0  0  0  0  0  0
  -25.6360  -31.0560   25.1540 H   0  0  0  0  0  0  0  0  0  0  0  0
  -25.9080  -33.9470   23.2990 C   0  0  0  0  0  1  0  0  0  0  0  0
  -26.8290  -33.1490   24.2380 C   0  0  0  0  0  3  0  0  0  0  0  0
  -28.9680  -33.3130   25.4270 C   0  0  0  0  0  1  0  0  0  0  0  0
  -28.1320  -33.8350   24.3500 N   0  0  0  0  0  0  0  0  0  0  0  0
  -28.0040  -34.8310   24.5030 H   0  0  0  0  0  0  0  0  0  0  0  0
  -26.3650  -28.4110   25.2660 C   0  0  1  0  0  0  0  0  0  0  0  0
  -25.1960  -28.4600   26.2770 C   0  0  0  0  0  1  0  0  0  0  0  0
  -26.5500  -26.9400   24.8250 C   0  0  0  0  0  1  0  0  0  0  0  0
  -27.6560  -28.8150   26.0140 C   0  0  0  0  0  1  0  0  0  0  0  0
  1  3  1  0
  1 60  1  0
  2  4  2  0
  3  2  1  0
  5  3  1  0
  6  2  1  0
  6  7  1  0
  8  7  1  0
  8  9  1  0
 10  9  1  0
 10 11  1  0
 11 14  1  0
 11 13  1  0
 11 12  1  0
 14 15  1  0
 15 16  1  0
 16 17  1  0
 17 18  1  0
 18 19  1  0
 20 19  1  0
 20 21  1  0
 22 30  1  0
 23 28  1  0
 24 25  1  0
 24 23  1  0
 26 25  1  0
 26 35  1  0
 26 27  1  0
 28 22  1  0
 28 27  1  0
 29 22  2  0
 30 21  1  0
 30 31  1  0
 32 33  2  0
 33 34  1  0
 33 52  1  0
 34 37  1  0
 35 32  1  0
 35 36  1  0
 36 34  2  0
 37 38  1  0
 38 39  2  0
 40 43  1  0
 40 39  1  0
 41 40  2  0
 42 41  1  0
 42 37  2  0
 43 44  1  0
 44 49  2  0
 44 45  1  0
 45 46  2  0
 46 47  1  0
 47 51  1  0
 48 47  2  0
 49 48  1  0
 50 49  1  0
 52 53  1  0
 53 56  1  0
 53 55  1  0
 54 52  2  0
 57 58  1  0
 57 32  1  0
 59 57  1  0
 60 61  1  0
 61 62  1  0
 62 64  2  0
 63 62  1  0
 63 66  1  0
 65 63  1  0
 67 66  1  0
 67 68  1  0
 68 70  2  0
 69 68  1  0
 69 72  1  0
 71 69  1  0
 73 72  1  0
 73 74  1  0
 74 75  1  0
 75 76  1  0
 76 78  1  0
 77 88  2  0
 78 83  1  0
 79 87  1  0
 79 89  1  0
 80 86  1  0
 80 82  1  0
 81 87  1  0
 82 83  2  0
 82 81  1  0
 84 85  1  0
 84 78  2  0
 85 80  2  0
 86 79  1  0
 87 77  1  0
 89 91  2  0
 90 89  1  0
 92 90  1  0
 93102  2  0
 93 98  1  0
 94 90  1  0
 94 98  1  0
 95 94  1  0
 96 97  1  0
 96 95  1  0
 97 93  1  0
 98 99  2  0
 99100  1  0
101100  2  0
102101  1  0
103 77  1  0
103104  1  0
103113  1  0
104107  1  0
105109  1  0
105104  1  0
106105  2  0
109108  1  0
109111  1  0
111112  1  0
111110  1  0
113116  1  1
113114  1  0
115113  1  0
M  ISO  4  22 100  30 100  75 101  76 101
M  END
>  <TORSDO>  (11) 
F 41

>  <SCORE>  (11) 
-3.223

>  <name>  (11) 
11

>  <ligand_id>  (11) 
11

>  <original_smiles>  (11) 
[H]c1c([H])c([H])c2c(c1[H])C([H])([H])C([H])([H])C([H])([H])C2([H])N([H])C(=O)C1([H])N(C(=O)C([H])(N([H])C(=O)C([H])(N([H])C([H])([H])[H])C([H])([H])[H])C(C([H])([H])[H])(C([H])([H])[H])C([H])([H])[H])C([H])([H])c2c([H])c(OC([H])([H])C([H])([H])C([H])([H])C([H])([H])N([H])C(=O)C([H])([H])C([H])([H])N([H])C(=O)C([H])([H])C([H])([H])C([H])([H])N([H])C(=O)C([H])([H])C([H])([H])C([H])([H])C([H])([H])C([H])([H])[N+]([H])([H])C([H])([H])C([H])([H])C([H])([H])C([H])([H])OC([H])([H])C([H])([H])C([H])([H])N([H])C(=O)N3C([H])([H])C([H])([H])C([H])([H])C([H])(n4nc(-c5c([H])c([H])c(Oc6c([H])c([H])c(F)c([H])c6F)c([H])c5[H])c(C(=O)N([H])[H])c4N([H])[H])C3([H])[H])c([H])c([H])c2C1([H])[H]

>  <smiles>  (11) 
[H]c1c([H])c([H])c2c(c1[H])C([H])([H])C([H])([H])C([H])([H])C2([H])N([H])C(=O)C1([H])N(C(=O)C([H])(N([H])C(=O)C([H])(N([H])C([H])([H])[H])C([H])([H])[H])C(C([H])([H])[H])(C([H])([H])[H])C([H])([H])[H])C([H])([H])c2c([H])c(OC([H])([H])C([H])([H])C([H])([H])C([H])([H])N([H])C(=O)C([H])([H])C([H])([H])N([H])C(=O)C([H])([H])C([H])([H])C([H])([H])N([H])C(=O)C([H])([H])C([H])([H])C([H])([H])C([H])([H])C([H])([H])[N+]([H])([H])C([H])([H])C([H])([H])C([H])([H])C([H])([H])OC([H])([H])C([H])([H])C([H])([H])N([H])C(=O)N3C([H])([H])C([H])([H])C([H])([H])C([H])(n4nc(-c5c([H])c([H])c(Oc6c([H])c([H])c(F)c([H])c6F)c([H])c5[H])c(C(=O)N([H])[H])c4N([H])[H])C3([H])[H])c([H])c([H])c2C1([H])[H]

$$$$
12:0:0
     RDKit          3D

100101  0  0  1  0  0  0  0  0999 V2000
  -29.9700  -17.0880   17.7900 C   0  0  0  0  0 15  0  0  0  0  0  0
  -28.4940  -17.0250   20.7880 C   0  0  0  0  0  1  0  0  0  0  0  0
  -29.5530  -14.7320   17.3970 C   0  0  0  0  0 15  0  0  0  0  0  0
  -27.9450  -14.8340   20.6220 C   0  0  0  0  0  1  0  0  0  0  0  0
  -29.2300  -18.0590   19.3770 N   0  0  0  0  0  2  0  0  0  0  0  0
  -28.4630  -13.6830   18.8330 N   0  0  0  0  0  2  0  0  0  0  0  0
  -27.6090  -14.0360   18.4260 H   0  0  0  0  0  0  0  0  0  0  0  0
  -28.0550  -12.0660   18.4160 C   0  0  0  0  0  2  0  0  0  0  0  0
  -27.9830  -10.3590   19.2740 C   0  0  0  0  0  2  0  0  0  0  0  0
  -27.7430   -9.9200   20.9480 O   0  0  0  0  0  0  0  0  0  0  0  0
  -26.7360  -10.1030   22.3760 C   0  0  0  0  0  2  0  0  0  0  0  0
  -24.8820  -10.3150   22.6750 C   0  0  0  0  0  2  0  0  0  0  0  0
  -23.5460  -10.7920   21.6790 O   0  0  0  0  0  0  0  0  0  0  0  0
  -23.0610  -11.8660   20.3800 C   0  0  0  0  0  3  0  0  0  0  0  0
  -23.9320  -13.0740   19.2530 C   0  0  0  0  0  3  0  0  0  0  0  0
  -25.4580  -13.6470   18.9730 O   0  0  0  0  0  0  0  0  0  0  0  0
  -26.3150  -14.9890   19.2500 C   0  0  0  0  0  2  0  0  0  0  0  0
  -27.9710  -15.6630   18.8660 C   0  0  0  0  0  3  0  0  0  0  0  0
  -31.0180  -14.7800   20.6670 C   0  0  0  0  0  2  0  0  0  0  0  0
  -31.9960  -12.3750   20.5170 C   0  0  0  0  0  2  0  0  0  0  0  0
  -31.1810  -11.4260   19.7090 C   0  0  0  0  0  2  0  0  0  0  0  0
  -30.0830  -10.9910   20.7200 C   0  0  0  0  0  2  0  0  0  0  0  0
  -29.1410  -11.9480   21.6700 C   0  0  0  0  0  3  0  0  0  0  0  0
  -30.3210  -12.7470   22.2510 C   0  0  0  0  0  2  0  0  0  0  0  0
  -31.0710  -13.3910   21.1300 N   0  0  0  0  0  0  0  0  0  0  0  0
  -32.2220  -15.0330   20.9680 O   0  0  0  0  0  1  0  0  0  0  0  0
  -29.5420  -15.7490   19.6160 N   0  0  0  0  0  2  0  0  0  0  0  0
  -29.8690  -16.7280   19.7080 H   0  0  0  0  0  0  0  0  0  0  0  0
  -26.5550  -13.2510   22.0460 C   0  0  0  0  0  0  0  0  0  0  0  0
  -25.3590  -12.8360   21.6180 C   0  0  0  0  0  0  0  0  0  0  0  0
  -25.5990  -11.5830   20.7990 C   0  0  0  0  0  0  0  0  0  0  0  0
  -27.5660  -12.3940   21.5580 N   0  0  0  0  0  0  0  0  0  0  0  0
  -26.7480  -12.0410   20.5930 N   0  0  0  0  0  0  0  0  0  0  0  0
  -25.0370   -9.9880   20.4230 C   0  0  0  0  0  0  0  0  0  0  0  0
  -25.3170   -8.6760   21.0730 C   0  0  0  0  0  3  0  0  0  0  0  0
  -24.4120   -7.7250   21.5790 C   0  0  0  0  0  3  0  0  0  0  0  0
  -23.1190   -7.7840   21.0910 C   0  0  0  0  0  0  0  0  0  0  0  0
  -22.8560   -8.7860   20.1400 C   0  0  0  0  0  3  0  0  0  0  0  0
  -23.8390   -9.7290   19.7230 C   0  0  0  0  0  3  0  0  0  0  0  0
  -22.1950   -6.7810   21.2390 O   0  0  0  0  0  0  0  0  0  0  0  0
  -22.1990   -5.9010   22.2960 C   0  0  0  0  0  0  0  0  0  0  0  0
  -21.9070   -6.3480   23.6020 C   0  0  0  0  0  3  0  0  0  0  0  0
  -21.7290   -5.4150   24.6430 C   0  0  0  0  0  3  0  0  0  0  0  0
  -21.8380   -4.0370   24.3830 C   0  0  0  0  0  0  0  0  0  0  0  0
  -22.1530   -3.5880   23.0890 C   0  0  0  0  0  3  0  0  0  0  0  0
  -22.3350   -4.5170   22.0470 C   0  0  0  0  0  0  0  0  0  0  0  0
  -22.6020   -4.0680   20.7970 F   0  0  0  0  0  0  0  0  0  0  0  0
  -21.6310   -3.1410   25.3790 F   0  0  0  0  0  0  0  0  0  0  0  0
  -24.1640  -13.7090   22.0810 C   0  0  0  0  0  0  0  0  0  0  0  0
  -23.2710  -13.2290   22.9350 N   0  0  0  0  0  0  0  0  0  0  0  0
  -23.9310  -14.7780   21.5280 O   0  0  0  0  0  0  0  0  0  0  0  0
  -23.2840  -12.2310   23.1080 H   0  0  0  0  0  0  0  0  0  0  0  0
  -22.4670  -13.7790   23.2020 H   0  0  0  0  0  0  0  0  0  0  0  0
  -26.6570  -14.3820   22.8520 N   0  0  0  0  0  0  0  0  0  0  0  0
  -25.8650  -14.9720   23.0800 H   0  0  0  0  0  0  0  0  0  0  0  0
  -27.4720  -14.6360   23.3940 H   0  0  0  0  0  0  0  0  0  0  0  0
  -28.5640  -19.7070   19.3750 C   0  0  0  0  0  1  0  0  0  0  0  0
  -28.7670  -21.5690   20.0030 C   0  0  0  0  0 15  0  0  0  0  0  0
  -27.9430  -23.3670   19.9090 C   0  0  0  0  0  1  0  0  0  0  0  0
  -28.1820  -25.1030   20.2690 O   0  0  0  0  0  0  0  0  0  0  0  0
  -24.6970  -31.6550   22.9910 C   0  0  0  0  0  0  0  0  0  0  0  0
  -27.2640  -26.3690   20.2380 C   0  0  0  0  0  0  0  0  0  0  0  0
  -23.5580  -30.1610   21.4230 C   0  0  0  0  0  3  0  0  0  0  0  0
  -25.0260  -28.4350   20.1360 C   0  0  0  0  0  0  0  0  0  0  0  0
  -26.1470  -30.2700   21.3680 C   0  0  0  0  0  2  0  0  0  0  0  0
  -26.2200  -28.8030   20.7660 C   0  0  0  0  0  0  0  0  0  0  0  0
  -27.3290  -27.7900   20.7910 C   0  0  0  0  0  3  0  0  0  0  0  0
  -26.0270  -26.2220   19.5800 C   0  0  0  0  0  3  0  0  0  0  0  0
  -24.9660  -27.1690   19.5370 C   0  0  0  0  0  3  0  0  0  0  0  0
  -23.8300  -29.3930   20.1020 C   0  0  0  0  0  2  0  0  0  0  0  0
  -24.8250  -30.7300   21.9780 N   0  0  0  0  0  0  0  0  0  0  0  0
  -23.5880  -31.9870   23.4460 O   0  0  0  0  0  0  0  0  0  0  0  0
  -22.8160  -29.2380   22.4260 C   0  0  0  0  0  0  0  0  0  0  0  0
  -21.4800  -29.1140   22.3070 N   0  0  0  0  0  0  0  0  0  0  0  0
  -23.4550  -28.6310   23.2890 O   0  0  0  0  0  0  0  0  0  0  0  0
  -21.0110  -29.6470   21.5890 H   0  0  0  0  0  0  0  0  0  0  0  0
  -18.0590  -28.0560   22.9090 C   0  0  0  0  0  0  0  0  0  0  0  0
  -20.6320  -28.2340   23.1210 C   0  0  0  0  0  3  0  0  0  0  0  0
  -20.6690  -26.7820   22.5880 C   0  0  0  0  0  2  0  0  0  0  0  0
  -19.5390  -26.4730   21.6010 C   0  0  0  0  0  2  0  0  0  0  0  0
  -18.1750  -26.6850   22.2630 C   0  0  0  0  0  2  0  0  0  0  0  0
  -19.2120  -28.7890   23.2970 C   0  0  0  0  0  0  0  0  0  0  0  0
  -19.0460  -30.0710   23.8660 C   0  0  0  0  0  3  0  0  0  0  0  0
  -17.7610  -30.6170   24.0480 C   0  0  0  0  0  3  0  0  0  0  0  0
  -16.6240  -29.8810   23.6720 C   0  0  0  0  0  3  0  0  0  0  0  0
  -16.7740  -28.6020   23.1090 C   0  0  0  0  0  3  0  0  0  0  0  0
  -25.9360  -32.3560   23.6220 C   0  0  0  0  0  3  0  0  0  0  0  0
  -25.5500  -33.7320   23.9950 N   0  0  0  0  0  0  0  0  0  0  0  0
  -25.8610  -34.8370   23.3040 C   0  0  0  0  0  0  0  0  0  0  0  0
  -26.5590  -34.8080   22.2890 O   0  0  0  0  0  0  0  0  0  0  0  0
  -24.9280  -33.8250   24.7840 H   0  0  0  0  0  0  0  0  0  0  0  0
  -24.0790  -36.5930   23.0000 C   0  0  0  0  0  1  0  0  0  0  0  0
  -25.3150  -36.1860   23.8190 C   0  0  0  0  0  3  0  0  0  0  0  0
  -27.3880  -37.1160   24.7550 C   0  0  0  0  0  1  0  0  0  0  0  0
  -26.3090  -37.2810   23.7830 N   0  0  0  0  0  0  0  0  0  0  0  0
  -25.8620  -38.1770   23.9560 H   0  0  0  0  0  0  0  0  0  0  0  0
  -26.4900  -31.5980   24.8940 C   0  0  1  0  0  0  0  0  0  0  0  0
  -25.4070  -31.2920   25.9550 C   0  0  0  0  0  1  0  0  0  0  0  0
  -27.1460  -30.2560   24.5040 C   0  0  0  0  0  1  0  0  0  0  0  0
  -27.5960  -32.4440   25.5690 C   0  0  0  0  0  1  0  0  0  0  0  0
  5  2  1  0
  7  6  1  0
  8  6  1  0
  8  9  1  0
  9 10  1  0
 10 11  1  0
 11 12  1  0
 13 12  1  0
 14 13  1  0
 15 14  2  0
 16 17  1  0
 16 15  1  0
 18 17  1  0
 18 27  1  0
 18  4  1  0
 19 26  1  0
 19 25  1  0
 20 25  1  0
 21 20  1  0
 21 22  1  0
 23 22  1  0
 23 24  1  0
 25 24  1  0
 27 28  1  0
 29 54  1  0
 30 29  2  0
 30 49  1  0
 31 30  1  0
 32 23  1  0
 32 29  1  0
 33 31  2  0
 33 32  1  0
 34 31  1  0
 34 35  1  0
 35 36  2  0
 37 40  1  0
 37 36  1  0
 38 37  2  0
 39 38  1  0
 39 34  2  0
 40 41  1  0
 41 42  1  0
 42 43  2  0
 44 43  1  0
 44 48  1  0
 45 44  2  0
 46 41  2  0
 46 45  1  0
 47 46  1  0
 49 50  1  0
 50 52  1  0
 50 53  1  0
 51 49  2  0
 54 55  1  0
 54 56  1  0
 57  5  1  0
 59 60  1  0
 61 72  2  0
 62 60  1  0
 62 67  1  0
 63 71  1  0
 63 73  1  0
 64 66  1  0
 65 71  1  0
 66 67  2  0
 66 65  1  0
 68 62  2  0
 69 68  1  0
 69 64  2  0
 70 64  1  0
 70 63  1  0
 71 61  1  0
 73 75  2  0
 74 73  1  0
 76 74  1  0
 77 86  2  0
 77 82  1  0
 78 74  1  0
 78 82  1  0
 79 78  1  0
 80 81  1  0
 80 79  1  0
 81 77  1  0
 82 83  2  0
 83 84  1  0
 85 84  2  0
 86 85  1  0
 87 61  1  0
 87 88  1  0
 87 97  1  0
 88 91  1  0
 89 93  1  0
 89 88  1  0
 90 89  2  0
 93 92  1  0
 95 93  1  0
 95 96  1  0
 95 94  1  0
 97100  1  1
 97 98  1  0
 99 97  1  0
M  ISO  4  19 100  27 100  59 101  60 101
M  END
>  <TORSDO>  (12) 
F 30

>  <SCORE>  (12) 
-2.140

>  <name>  (12) 
12

>  <ligand_id>  (12) 
12

>  <original_smiles>  (12) 
[H]c1c([H])c([H])c2c(c1[H])C([H])([H])C([H])([H])C([H])([H])C2([H])N([H])C(=O)C1([H])N(C(=O)C([H])(N([H])C(=O)C([H])(N([H])C([H])([H])[H])C([H])([H])[H])C(C([H])([H])[H])(C([H])([H])[H])C([H])([H])[H])C([H])([H])c2c([H])c(OC([H])([H])C([H])([H])C([H])([H])N3C([H])([H])C([H])([H])[N+]([H])(C([H])([H])C([H])([H])OC([H])([H])C([H])([H])OC([H])([H])C([H])([H])OC([H])([H])C([H])([H])N([H])C(=O)N4C([H])([H])C([H])([H])C([H])([H])C([H])(n5nc(-c6c([H])c([H])c(Oc7c([H])c([H])c(F)c([H])c7F)c([H])c6[H])c(C(=O)N([H])[H])c5N([H])[H])C4([H])[H])C([H])([H])C3([H])[H])c([H])c([H])c2C1([H])[H]

>  <smiles>  (12) 
[H]c1c([H])c([H])c2c(c1[H])C([H])([H])C([H])([H])C([H])([H])C2([H])N([H])C(=O)C1([H])N(C(=O)C([H])(N([H])C(=O)C([H])(N([H])C([H])([H])[H])C([H])([H])[H])C(C([H])([H])[H])(C([H])([H])[H])C([H])([H])[H])C([H])([H])c2c([H])c(OC([H])([H])C([H])([H])C([H])([H])N3C([H])([H])C([H])([H])[N+]([H])(C([H])([H])C([H])([H])OC([H])([H])C([H])([H])OC([H])([H])C([H])([H])OC([H])([H])C([H])([H])N([H])C(=O)N4C([H])([H])C([H])([H])C([H])([H])C([H])(n5nc(-c6c([H])c([H])c(Oc7c([H])c([H])c(F)c([H])c7F)c([H])c6[H])c(C(=O)N([H])[H])c5N([H])[H])C4([H])[H])C([H])([H])C3([H])[H])c([H])c([H])c2C1([H])[H]

$$$$
13:0:0
     RDKit          3D

 95102  0  0  1  0  0  0  0  0999 V2000
  -25.9230  -22.2260   19.6550 C   0  0  0  0  0  0  0  0  0  0  0  0
  -26.8600  -21.6700   18.8790 N   0  0  0  0  0  0  0  0  0  0  0  0
  -24.9290  -21.6080   20.0420 O   0  0  0  0  0  0  0  0  0  0  0  0
  -27.6520  -22.2420   18.6130 H   0  0  0  0  0  0  0  0  0  0  0  0
  -26.7700  -20.3380   18.2840 C   0  0  0  0  0  2  0  0  0  0  0  0
  -27.2980  -19.2250   19.2070 C   0  0  0  0  0  2  0  0  0  0  0  0
  -28.8090  -19.2970   19.4780 C   0  0  0  0  0  2  0  0  0  0  0  0
  -29.2830  -18.1430   20.3800 C   0  0  0  0  0  2  0  0  0  0  0  0
  -30.8130  -18.0840   20.5170 C   0  0  0  0  0  2  0  0  0  0  0  0
  -31.3040  -17.0370   21.5370 C   0  0  0  0  0  2  0  0  0  0  0  0
  -31.2360  -14.8280   20.3670 C   0  0  0  0  0  0  0  0  0  0  0  0
  -30.9210  -12.6020   19.3490 C   0  0  0  0  0  2  0  0  0  0  0  0
  -29.9850  -12.6650   18.1280 C   0  0  0  0  0  2  0  0  0  0  0  0
  -28.5120  -12.5510   18.5610 C   0  0  0  0  0  2  0  0  0  0  0  0
  -28.1550  -13.5260   19.7130 C   0  0  0  0  0  3  0  0  0  0  0  0
  -29.1930  -13.4270   20.8510 C   0  0  0  0  0  2  0  0  0  0  0  0
  -30.5360  -13.6680   20.2850 N   0  0  0  0  0  0  0  0  0  0  0  0
  -32.2460  -15.0660   19.6960 O   0  0  0  0  0  0  0  0  0  0  0  0
  -30.7710  -15.7030   21.2670 N   0  0  0  0  0  0  0  0  0  0  0  0
  -29.9670  -15.4120   21.8020 H   0  0  0  0  0  0  0  0  0  0  0  0
  -25.8030  -14.2140   20.5100 C   0  0  0  0  0  0  0  0  0  0  0  0
  -24.7020  -13.4770   20.8550 C   0  0  0  0  0  0  0  0  0  0  0  0
  -25.0910  -12.1090   20.7300 C   0  0  0  0  0  0  0  0  0  0  0  0
  -26.7960  -13.2970   20.2020 N   0  0  0  0  0  0  0  0  0  0  0  0
  -26.3690  -12.0210   20.3880 N   0  0  0  0  0  0  0  0  0  0  0  0
  -24.3030  -10.8750   20.8610 C   0  0  0  0  0  0  0  0  0  0  0  0
  -24.6400   -9.8790   21.8030 C   0  0  0  0  0  3  0  0  0  0  0  0
  -23.8570   -8.7100   21.9210 C   0  0  0  0  0  3  0  0  0  0  0  0
  -22.7220   -8.5310   21.0960 C   0  0  0  0  0  0  0  0  0  0  0  0
  -22.4030   -9.5150   20.1450 C   0  0  0  0  0  3  0  0  0  0  0  0
  -23.1870  -10.6750   20.0240 C   0  0  0  0  0  3  0  0  0  0  0  0
  -21.9180   -7.4170   21.1230 O   0  0  0  0  0  0  0  0  0  0  0  0
  -21.6980   -6.7150   22.2820 C   0  0  0  0  0  0  0  0  0  0  0  0
  -21.1170   -7.3170   23.4190 C   0  0  0  0  0  3  0  0  0  0  0  0
  -20.8460   -6.5420   24.5640 C   0  0  0  0  0  3  0  0  0  0  0  0
  -21.1460   -5.1670   24.5720 C   0  0  0  0  0  0  0  0  0  0  0  0
  -21.7190   -4.5650   23.4380 C   0  0  0  0  0  3  0  0  0  0  0  0
  -21.9920   -5.3370   22.2950 C   0  0  0  0  0  0  0  0  0  0  0  0
  -22.5260   -4.7480   21.1980 F   0  0  0  0  0  0  0  0  0  0  0  0
  -20.8780   -4.4200   25.6690 F   0  0  0  0  0  0  0  0  0  0  0  0
  -23.3390  -14.0080   21.1920 C   0  0  0  0  0  0  0  0  0  0  0  0
  -22.5970  -13.2990   22.0380 N   0  0  0  0  0  0  0  0  0  0  0  0
  -22.9420  -15.0820   20.7450 O   0  0  0  0  0  0  0  0  0  0  0  0
  -22.9320  -12.4290   22.4220 H   0  0  0  0  0  0  0  0  0  0  0  0
  -21.6820  -13.6350   22.3040 H   0  0  0  0  0  0  0  0  0  0  0  0
  -26.0390  -15.5820   20.4140 N   0  0  0  0  0  0  0  0  0  0  0  0
  -25.3150  -16.2710   20.5910 H   0  0  0  0  0  0  0  0  0  0  0  0
  -26.9150  -15.9900   20.1210 H   0  0  0  0  0  0  0  0  0  0  0  0
  -26.0920  -23.6990   20.0290 C   0  0  0  0  0  2  0  0  0  0  0  0
  -26.4530  -23.9020   21.5130 C   0  0  0  0  0  2  0  0  0  0  0  0
  -27.9430  -23.6620   21.8120 C   0  0  0  0  0  2  0  0  0  0  0  0
  -28.7500  -24.6400   21.1680 O   0  0  0  0  0  0  0  0  0  0  0  0
  -28.8520  -25.8720   21.8780 C   0  0  0  0  0  2  0  0  0  0  0  0
  -29.4720  -26.9280   20.9510 C   0  0  0  0  0  2  0  0  0  0  0  0
  -28.6390  -27.1170   19.8090 O   0  0  0  0  0  0  0  0  0  0  0  0
  -24.7260  -31.9600   23.3440 C   0  0  0  0  0  0  0  0  0  0  0  0
  -27.4730  -27.8310   19.9590 C   0  0  0  0  0  0  0  0  0  0  0  0
  -23.5450  -30.6530   21.6040 C   0  0  0  0  0  3  0  0  0  0  0  0
  -25.0320  -29.2450   20.0830 C   0  0  0  0  0  0  0  0  0  0  0  0
  -26.0580  -31.0820   21.4340 C   0  0  0  0  0  2  0  0  0  0  0  0
  -26.1720  -29.7570   20.7140 C   0  0  0  0  0  0  0  0  0  0  0  0
  -27.3940  -29.0560   20.6610 C   0  0  0  0  0  3  0  0  0  0  0  0
  -26.3200  -27.3290   19.3260 C   0  0  0  0  0  3  0  0  0  0  0  0
  -25.0950  -28.0210   19.3930 C   0  0  0  0  0  3  0  0  0  0  0  0
  -23.7700  -30.0730   20.1810 C   0  0  0  0  0  2  0  0  0  0  0  0
  -24.7940  -31.2420   22.1880 N   0  0  0  0  0  0  0  0  0  0  0  0
  -23.6400  -32.1740   23.9000 O   0  0  0  0  0  0  0  0  0  0  0  0
  -22.9150  -29.5550   22.4880 C   0  0  0  0  0  0  0  0  0  0  0  0
  -21.5960  -29.3540   22.3370 N   0  0  0  0  0  0  0  0  0  0  0  0
  -23.6070  -28.8900   23.2640 O   0  0  0  0  0  0  0  0  0  0  0  0
  -21.1000  -29.9460   21.6840 H   0  0  0  0  0  0  0  0  0  0  0  0
  -18.2440  -28.0660   22.7240 C   0  0  0  0  0  0  0  0  0  0  0  0
  -20.7940  -28.3490   23.0330 C   0  0  0  0  0  3  0  0  0  0  0  0
  -20.9280  -26.9650   22.3590 C   0  0  0  0  0  2  0  0  0  0  0  0
  -19.8380  -26.6940   21.3160 C   0  0  0  0  0  2  0  0  0  0  0  0
  -18.4500  -26.7690   21.9580 C   0  0  0  0  0  2  0  0  0  0  0  0
  -19.3460  -28.8150   23.2160 C   0  0  0  0  0  0  0  0  0  0  0  0
  -19.1010  -30.0310   23.8910 C   0  0  0  0  0  3  0  0  0  0  0  0
  -17.7860  -30.4980   24.0790 C   0  0  0  0  0  3  0  0  0  0  0  0
  -16.6990  -29.7430   23.6070 C   0  0  0  0  0  3  0  0  0  0  0  0
  -16.9280  -28.5280   22.9350 C   0  0  0  0  0  3  0  0  0  0  0  0
  -26.0020  -32.5660   24.0090 C   0  0  0  0  0  3  0  0  0  0  0  0
  -26.4970  -31.7480   25.2650 C   0  0  1  0  0  0  0  0  0  0  0  0
  -25.3860  -31.4740   26.3050 C   0  0  0  0  0  1  0  0  0  0  0  0
  -27.0850  -30.3850   24.8310 C   0  0  0  0  0  1  0  0  0  0  0  0
  -27.6370  -32.5160   25.9770 C   0  0  0  0  0  1  0  0  0  0  0  0
  -25.6940  -33.9530   24.3800 N   0  0  0  0  0  0  0  0  0  0  0  0
  -26.0440  -35.0260   23.6600 C   0  0  0  0  0  0  0  0  0  0  0  0
  -26.7370  -34.9530   22.6400 O   0  0  0  0  0  0  0  0  0  0  0  0
  -25.0890  -34.0870   25.1760 H   0  0  0  0  0  0  0  0  0  0  0  0
  -24.3290  -36.8320   23.3200 C   0  0  0  0  0  1  0  0  0  0  0  0
  -25.5490  -36.4010   24.1480 C   0  0  0  0  0  3  0  0  0  0  0  0
  -27.6610  -37.2560   25.0640 C   0  0  0  0  0  1  0  0  0  0  0  0
  -26.5860  -37.4540   24.0940 N   0  0  0  0  0  0  0  0  0  0  0  0
  -26.1780  -38.3700   24.2560 H   0  0  0  0  0  0  0  0  0  0  0  0
  1 49  1  0
  1  3  2  0
  2  1  1  0
  4  2  1  0
  5  2  1  0
  5  6  1  0
  6  7  1  0
  7  8  1  0
  8  9  1  0
  9 10  1  0
 11 19  1  0
 12 17  1  0
 13 14  1  0
 13 12  1  0
 15 14  1  0
 15 24  1  0
 15 16  1  0
 17 11  1  0
 17 16  1  0
 18 11  2  0
 19 10  1  0
 19 20  1  0
 21 22  2  0
 22 41  1  0
 23 22  1  0
 23 26  1  0
 24 25  1  0
 24 21  1  0
 25 23  2  0
 26 27  1  0
 27 28  2  0
 29 32  1  0
 29 28  1  0
 30 29  2  0
 31 30  1  0
 31 26  2  0
 32 33  1  0
 33 38  2  0
 33 34  1  0
 34 35  2  0
 35 36  1  0
 36 40  1  0
 37 36  2  0
 38 37  1  0
 39 38  1  0
 41 42  1  0
 42 45  1  0
 42 44  1  0
 43 41  2  0
 46 21  1  0
 46 47  1  0
 48 46  1  0
 49 50  1  0
 50 51  1  0
 52 51  1  0
 52 53  1  0
 54 53  1  0
 55 57  1  0
 55 54  1  0
 56 67  2  0
 57 62  1  0
 58 66  1  0
 58 68  1  0
 59 65  1  0
 59 61  1  0
 60 66  1  0
 61 60  1  0
 62 61  2  0
 63 64  1  0
 63 57  2  0
 64 59  2  0
 65 58  1  0
 66 56  1  0
 68 70  2  0
 69 68  1  0
 71 69  1  0
 72 81  2  0
 72 77  1  0
 73 69  1  0
 73 77  1  0
 74 73  1  0
 75 76  1  0
 75 74  1  0
 76 72  1  0
 77 78  2  0
 78 79  1  0
 80 79  2  0
 81 80  1  0
 82 56  1  0
 82 87  1  0
 82 83  1  0
 83 86  1  1
 83 84  1  0
 85 83  1  0
 87 90  1  0
 88 92  1  0
 88 87  1  0
 89 88  2  0
 92 91  1  0
 94 92  1  0
 94 95  1  0
 94 93  1  0
M  ISO  4  11 100  19 100  54 101  55 101
M  END
>  <TORSDO>  (13) 
F 28

>  <SCORE>  (13) 
-9.755

>  <name>  (13) 
13

>  <ligand_id>  (13) 
13

>  <original_smiles>  (13) 
[H]c1c([H])c([H])c2c(c1[H])C([H])([H])C([H])([H])C([H])([H])C2([H])N([H])C(=O)C1([H])N(C(=O)C([H])(N([H])C(=O)C([H])(N([H])C([H])([H])[H])C([H])([H])[H])C(C([H])([H])[H])(C([H])([H])[H])C([H])([H])[H])C([H])([H])c2c([H])c(OC([H])([H])C([H])([H])OC([H])([H])C([H])([H])C([H])([H])C(=O)N([H])C([H])([H])C([H])([H])C([H])([H])C([H])([H])C([H])([H])C([H])([H])N([H])C(=O)N3C([H])([H])C([H])([H])C([H])([H])C([H])(n4nc(-c5c([H])c([H])c(Oc6c([H])c([H])c(F)c([H])c6F)c([H])c5[H])c(C(=O)N([H])[H])c4N([H])[H])C3([H])[H])c([H])c([H])c2C1([H])[H]

>  <smiles>  (13) 
[H]c1c([H])c([H])c2c(c1[H])C([H])([H])C([H])([H])C([H])([H])C2([H])N([H])C(=O)C1([H])N(C(=O)C([H])(N([H])C(=O)C([H])(N([H])C([H])([H])[H])C([H])([H])[H])C(C([H])([H])[H])(C([H])([H])[H])C([H])([H])[H])C([H])([H])c2c([H])c(OC([H])([H])C([H])([H])OC([H])([H])C([H])([H])C([H])([H])C(=O)N([H])C([H])([H])C([H])([H])C([H])([H])C([H])([H])C([H])([H])C([H])([H])N([H])C(=O)N3C([H])([H])C([H])([H])C([H])([H])C([H])(n4nc(-c5c([H])c([H])c(Oc6c([H])c([H])c(F)c([H])c6F)c([H])c5[H])c(C(=O)N([H])[H])c4N([H])[H])C3([H])[H])c([H])c([H])c2C1([H])[H]

$$$$
14:0:0
     RDKit          3D

107114  0  0  1  0  0  0  0  0999 V2000
  -24.8210  -22.6270   28.8040 C   0  0  0  0  0  2  0  0  0  0  0  0
  -26.0540  -21.8780   29.1180 N   0  0  0  0  0  4  0  0  0  0  0  0
  -26.8020  -22.5500   29.1670 H   0  0  0  0  0  0  0  0  0  0  0  0
  -25.9440  -21.4740   30.0350 H   0  0  0  0  0  0  0  0  0  0  0  0
  -26.4330  -20.8130   28.1630 C   0  0  0  0  0  2  0  0  0  0  0  0
  -27.2090  -21.3770   26.9520 C   0  0  0  0  0  2  0  0  0  0  0  0
  -28.2910  -20.4290   26.4010 C   0  0  0  0  0  2  0  0  0  0  0  0
  -29.1170  -21.0950   25.2860 C   0  0  0  0  0  2  0  0  0  0  0  0
  -30.4000  -20.3290   24.9120 C   0  0  0  0  0  2  0  0  0  0  0  0
  -31.0020  -20.8720   23.6000 C   0  0  0  0  0  2  0  0  0  0  0  0
  -32.3530  -20.3510   23.2900 N   0  0  0  0  0  4  0  0  0  0  0  0
  -32.3870  -19.3650   23.4950 H   0  0  0  0  0  0  0  0  0  0  0  0
  -33.0300  -20.8150   23.8740 H   0  0  0  0  0  0  0  0  0  0  0  0
  -32.7120  -20.5620   21.8700 C   0  0  0  0  0  2  0  0  0  0  0  0
  -34.2230  -20.4500   21.5960 C   0  0  0  0  0  2  0  0  0  0  0  0
  -34.5450  -20.4830   20.0910 C   0  0  0  0  0  2  0  0  0  0  0  0
  -34.2680  -18.8870   18.1990 C   0  0  0  0  0  0  0  0  0  0  0  0
  -35.2210  -17.3110   16.5750 C   0  0  0  0  0  2  0  0  0  0  0  0
  -34.2080  -16.5140   15.7420 C   0  0  0  0  0  2  0  0  0  0  0  0
  -33.7730  -15.2450   16.4920 C   0  0  0  0  0  2  0  0  0  0  0  0
  -33.3050  -15.5470   17.9380 C   0  0  0  0  0  3  0  0  0  0  0  0
  -34.3360  -16.4240   18.6860 C   0  0  0  0  0  2  0  0  0  0  0  0
  -34.6310  -17.6250   17.8780 N   0  0  0  0  0  0  0  0  0  0  0  0
  -34.0660  -19.7840   17.3750 O   0  0  0  0  0  0  0  0  0  0  0  0
  -34.4400  -19.1520   19.4980 N   0  0  0  0  0  0  0  0  0  0  0  0
  -34.7200  -18.3630   20.0650 H   0  0  0  0  0  0  0  0  0  0  0  0
  -31.8150  -13.8720   19.2080 C   0  0  0  0  0  0  0  0  0  0  0  0
  -32.0670  -12.6230   19.7120 C   0  0  0  0  0  0  0  0  0  0  0  0
  -33.4420  -12.3550   19.4340 C   0  0  0  0  0  0  0  0  0  0  0  0
  -33.0120  -14.3120   18.6650 N   0  0  0  0  0  0  0  0  0  0  0  0
  -34.0070  -13.4060   18.8530 N   0  0  0  0  0  0  0  0  0  0  0  0
  -34.2390  -11.1390   19.6390 C   0  0  0  0  0  0  0  0  0  0  0  0
  -35.4860  -11.1750   20.3010 C   0  0  0  0  0  3  0  0  0  0  0  0
  -36.2250   -9.9900   20.5010 C   0  0  0  0  0  3  0  0  0  0  0  0
  -35.7200   -8.7510   20.0390 C   0  0  0  0  0  0  0  0  0  0  0  0
  -34.4890   -8.7230   19.3600 C   0  0  0  0  0  3  0  0  0  0  0  0
  -33.7560   -9.9050   19.1570 C   0  0  0  0  0  3  0  0  0  0  0  0
  -36.3800   -7.5530   20.1650 O   0  0  0  0  0  0  0  0  0  0  0  0
  -37.3170   -7.3480   21.1460 C   0  0  0  0  0  0  0  0  0  0  0  0
  -37.0060   -7.4910   22.5160 C   0  0  0  0  0  3  0  0  0  0  0  0
  -37.9800   -7.2010   23.4930 C   0  0  0  0  0  3  0  0  0  0  0  0
  -39.2590   -6.7620   23.1050 C   0  0  0  0  0  0  0  0  0  0  0  0
  -39.5690   -6.6150   21.7410 C   0  0  0  0  0  3  0  0  0  0  0  0
  -38.6000   -6.9050   20.7640 C   0  0  0  0  0  0  0  0  0  0  0  0
  -38.8970   -6.7400   19.4530 F   0  0  0  0  0  0  0  0  0  0  0  0
  -40.1930   -6.4780   24.0420 F   0  0  0  0  0  0  0  0  0  0  0  0
  -31.0670  -11.6910   20.3330 C   0  0  0  0  0  0  0  0  0  0  0  0
  -31.4970  -10.8830   21.2970 N   0  0  0  0  0  0  0  0  0  0  0  0
  -29.8840  -11.7050   19.9970 O   0  0  0  0  0  0  0  0  0  0  0  0
  -32.4640  -10.8830   21.5860 H   0  0  0  0  0  0  0  0  0  0  0  0
  -30.8490  -10.2560   21.7530 H   0  0  0  0  0  0  0  0  0  0  0  0
  -30.6690  -14.6590   19.1510 N   0  0  0  0  0  0  0  0  0  0  0  0
  -29.7710  -14.3370   19.4940 H   0  0  0  0  0  0  0  0  0  0  0  0
  -30.6210  -15.5670   18.7040 H   0  0  0  0  0  0  0  0  0  0  0  0
  -25.1320  -24.1260   28.6200 C   0  0  0  0  0  2  0  0  0  0  0  0
  -25.6610  -24.3100   27.2740 N   0  0  0  0  0  0  0  0  0  0  0  0
  -24.9320  -24.0630   26.6080 H   0  0  0  0  0  0  0  0  0  0  0  0
  -26.0580  -25.6880   27.0090 C   0  0  0  0  0  2  0  0  0  0  0  0
  -25.5250  -26.0340   25.6070 C   0  0  0  0  0  2  0  0  0  0  0  0
  -26.3430  -27.0770   24.8170 C   0  0  0  0  0  2  0  0  0  0  0  0
  -26.7390  -26.5540   23.4920 N   0  0  0  0  0  4  0  0  0  0  0  0
  -25.9020  -26.3190   22.9810 H   0  0  0  0  0  0  0  0  0  0  0  0
  -27.2710  -25.7060   23.6150 H   0  0  0  0  0  0  0  0  0  0  0  0
  -27.5140  -27.5080   22.6710 C   0  0  0  0  0  2  0  0  0  0  0  0
  -27.7520  -26.9840   21.2340 C   0  0  0  0  0  2  0  0  0  0  0  0
  -28.8570  -27.6920   20.4060 C   0  0  0  0  0  2  0  0  0  0  0  0
  -30.1480  -27.6440   21.0180 O   0  0  0  0  0  0  0  0  0  0  0  0
  -28.2280  -31.8580   26.3640 C   0  0  0  0  0  0  0  0  0  0  0  0
  -30.4980  -28.7320   21.7750 C   0  0  0  0  0  0  0  0  0  0  0  0
  -30.0780  -32.6970   24.9500 C   0  0  0  0  0  3  0  0  0  0  0  0
  -31.0850  -31.0050   23.3310 C   0  0  0  0  0  0  0  0  0  0  0  0
  -29.6690  -30.1870   25.2240 C   0  0  0  0  0  2  0  0  0  0  0  0
  -30.2450  -30.0070   23.8380 C   0  0  0  0  0  0  0  0  0  0  0  0
  -29.9490  -28.8680   23.0650 C   0  0  0  0  0  3  0  0  0  0  0  0
  -31.3630  -29.7350   21.2820 C   0  0  0  0  0  3  0  0  0  0  0  0
  -31.6450  -30.8760   22.0480 C   0  0  0  0  0  3  0  0  0  0  0  0
  -31.3550  -32.1900   24.2270 C   0  0  0  0  0  2  0  0  0  0  0  0
  -29.2670  -31.5770   25.5310 N   0  0  0  0  0  0  0  0  0  0  0  0
  -27.9650  -33.0250   26.6850 O   0  0  0  0  0  0  0  0  0  0  0  0
  -29.2790  -33.5890   23.9730 C   0  0  0  0  0  0  0  0  0  0  0  0
  -29.7590  -34.8270   23.7760 N   0  0  0  0  0  0  0  0  0  0  0  0
  -28.2760  -33.1610   23.3960 O   0  0  0  0  0  0  0  0  0  0  0  0
  -30.5690  -35.1080   24.3120 H   0  0  0  0  0  0  0  0  0  0  0  0
  -30.2260  -38.1850   22.5220 C   0  0  0  0  0  0  0  0  0  0  0  0
  -29.2080  -35.8340   22.8720 C   0  0  0  0  0  3  0  0  0  0  0  0
  -29.6130  -35.5440   21.4080 C   0  0  0  0  0  2  0  0  0  0  0  0
  -30.8770  -36.2940   20.9740 C   0  0  0  0  0  2  0  0  0  0  0  0
  -30.6930  -37.8060   21.1270 C   0  0  0  0  0  2  0  0  0  0  0  0
  -29.5410  -37.2530   23.3450 C   0  0  0  0  0  0  0  0  0  0  0  0
  -29.1580  -37.6440   24.6470 C   0  0  0  0  0  3  0  0  0  0  0  0
  -29.4400  -38.9380   25.1260 C   0  0  0  0  0  3  0  0  0  0  0  0
  -30.1030  -39.8610   24.2990 C   0  0  0  0  0  3  0  0  0  0  0  0
  -30.4920  -39.4840   23.0010 C   0  0  0  0  0  3  0  0  0  0  0  0
  -27.3340  -30.7260   26.9660 C   0  0  0  0  0  3  0  0  0  0  0  0
  -27.0700  -31.0700   28.3680 N   0  0  0  0  0  0  0  0  0  0  0  0
  -27.6070  -30.4390   29.4200 C   0  0  0  0  0  0  0  0  0  0  0  0
  -28.3260  -29.4420   29.3060 O   0  0  0  0  0  0  0  0  0  0  0  0
  -26.5320  -31.9060   28.5370 H   0  0  0  0  0  0  0  0  0  0  0  0
  -28.5080  -31.7800   31.3490 C   0  0  0  0  0  1  0  0  0  0  0  0
  -27.2920  -31.0030   30.8190 C   0  0  0  0  0  3  0  0  0  0  0  0
  -25.6040  -29.3650   31.5120 C   0  0  0  0  0  1  0  0  0  0  0  0
  -26.9010  -29.9680   31.7990 N   0  0  0  0  0  0  0  0  0  0  0  0
  -26.8650  -30.3600   32.7370 H   0  0  0  0  0  0  0  0  0  0  0  0
  -25.9800  -30.5180   26.1800 C   0  0  1  0  0  0  0  0  0  0  0  0
  -25.1830  -31.8230   25.9530 C   0  0  0  0  0  1  0  0  0  0  0  0
  -26.2440  -29.8830   24.7930 C   0  0  0  0  0  1  0  0  0  0  0  0
  -25.0660  -29.5350   26.9510 C   0  0  0  0  0  1  0  0  0  0  0  0
  1  2  1  0
  2  3  1  0
  2  4  1  0
  5  2  1  0
  6  5  1  0
  7  6  1  0
  8  7  1  0
  9  8  1  0
 10  9  1  0
 11 12  1  0
 11 10  1  0
 11 13  1  0
 14 11  1  0
 15 14  1  0
 16 15  1  0
 17 25  1  0
 18 23  1  0
 19 20  1  0
 19 18  1  0
 21 20  1  0
 21 30  1  0
 21 22  1  0
 23 17  1  0
 23 22  1  0
 24 17  2  0
 25 26  1  0
 25 16  1  0
 27 28  2  0
 28 47  1  0
 29 32  1  0
 29 28  1  0
 30 31  1  0
 30 27  1  0
 31 29  2  0
 32 33  1  0
 33 34  2  0
 35 38  1  0
 35 34  1  0
 36 35  2  0
 37 36  1  0
 37 32  2  0
 38 39  1  0
 39 40  1  0
 40 41  2  0
 42 41  1  0
 42 46  1  0
 43 42  2  0
 44 39  2  0
 44 43  1  0
 45 44  1  0
 47 48  1  0
 48 50  1  0
 48 51  1  0
 49 47  2  0
 52 27  1  0
 52 53  1  0
 54 52  1  0
 55  1  1  0
 56 55  1  0
 57 56  1  0
 58 56  1  0
 59 58  1  0
 60 59  1  0
 61 63  1  0
 61 60  1  0
 62 61  1  0
 64 61  1  0
 65 64  1  0
 66 67  1  0
 66 65  1  0
 67 69  1  0
 68 79  2  0
 69 74  1  0
 70 80  1  0
 70 78  1  0
 71 73  1  0
 71 77  1  0
 72 78  1  0
 73 72  1  0
 74 73  2  0
 75 69  2  0
 75 76  1  0
 76 71  2  0
 77 70  1  0
 78 68  1  0
 81 80  1  0
 81 83  1  0
 82 80  2  0
 84 93  2  0
 84 89  1  0
 85 89  1  0
 85 81  1  0
 86 85  1  0
 87 88  1  0
 87 86  1  0
 88 84  1  0
 89 90  2  0
 90 91  1  0
 92 91  2  0
 93 92  1  0
 94 68  1  0
 94 95  1  0
 95 98  1  0
 95 96  1  0
 96100  1  0
 97 96  2  0
100 99  1  0
100102  1  0
101102  1  0
102103  1  0
104107  1  1
104 94  1  0
105104  1  0
106104  1  0
M  ISO  4  17 100  25 100  66 101  67 101
M  END
>  <TORSDO>  (14) 
F 36

>  <SCORE>  (14) 
11.370

>  <name>  (14) 
14

>  <ligand_id>  (14) 
14

>  <original_smiles>  (14) 
[H]c1c([H])c([H])c2c(c1[H])C([H])([H])C([H])([H])C([H])([H])C2([H])N([H])C(=O)C1([H])N(C(=O)C([H])(N([H])C(=O)C([H])(N([H])C([H])([H])[H])C([H])([H])[H])C(C([H])([H])[H])(C([H])([H])[H])C([H])([H])[H])C([H])([H])c2c([H])c(OC([H])([H])C([H])([H])C([H])([H])[N+]([H])([H])C([H])([H])C([H])([H])C([H])([H])N([H])C([H])([H])C([H])([H])[N+]([H])([H])C([H])([H])C([H])([H])C([H])([H])C([H])([H])C([H])([H])C([H])([H])[N+]([H])([H])C([H])([H])C([H])([H])C([H])([H])N([H])C(=O)N3C([H])([H])C([H])([H])C([H])([H])C([H])(n4nc(-c5c([H])c([H])c(Oc6c([H])c([H])c(F)c([H])c6F)c([H])c5[H])c(C(=O)N([H])[H])c4N([H])[H])C3([H])[H])c([H])c([H])c2C1([H])[H]

>  <smiles>  (14) 
[H]c1c([H])c([H])c2c(c1[H])C([H])([H])C([H])([H])C([H])([H])C2([H])N([H])C(=O)C1([H])N(C(=O)C([H])(N([H])C(=O)C([H])(N([H])C([H])([H])[H])C([H])([H])[H])C(C([H])([H])[H])(C([H])([H])[H])C([H])([H])[H])C([H])([H])c2c([H])c(OC([H])([H])C([H])([H])C([H])([H])[N+]([H])([H])C([H])([H])C([H])([H])C([H])([H])N([H])C([H])([H])C([H])([H])[N+]([H])([H])C([H])([H])C([H])([H])C([H])([H])C([H])([H])C([H])([H])C([H])([H])[N+]([H])([H])C([H])([H])C([H])([H])C([H])([H])N([H])C(=O)N3C([H])([H])C([H])([H])C([H])([H])C([H])(n4nc(-c5c([H])c([H])c(Oc6c([H])c([H])c(F)c([H])c6F)c([H])c5[H])c(C(=O)N([H])[H])c4N([H])[H])C3([H])[H])c([H])c([H])c2C1([H])[H]

$$$$
15:0:0
     RDKit          3D

 98105  0  0  1  0  0  0  0  0999 V2000
  -26.9610  -15.8790   16.9610 C   0  0  0  0  0  3  0  0  0  0  0  0
  -27.2380  -14.7540   15.8710 C   0  0  0  0  0  3  0  0  0  0  0  0
  -26.3430  -13.4250   15.9070 C   0  0  0  0  0  2  0  0  0  0  0  0
  -27.0710  -12.0850   15.9230 N   0  0  0  0  0  4  0  0  0  0  0  0
  -27.9360  -12.2120   16.4220 H   0  0  0  0  0  0  0  0  0  0  0  0
  -27.3000  -11.8130   14.9770 H   0  0  0  0  0  0  0  0  0  0  0  0
  -26.3960  -10.9300   16.6260 C   0  0  0  0  0  2  0  0  0  0  0  0
  -27.2540   -9.6560   17.1080 C   0  0  0  0  0  2  0  0  0  0  0  0
  -28.8240   -9.5940   17.4050 C   0  0  0  0  0  2  0  0  0  0  0  0
  -29.4960   -9.1960   18.8270 C   0  0  0  0  0  2  0  0  0  0  0  0
  -29.9720  -10.1750   20.0160 C   0  0  0  0  0  3  0  0  0  0  0  0
  -31.4110  -10.9110   20.0950 C   0  0  0  0  0  3  0  0  0  0  0  0
  -31.2200  -13.4190   20.8080 C   0  0  0  0  0  0  0  0  0  0  0  0
  -30.1770  -13.4470   18.8710 C   0  0  0  0  0  2  0  0  0  0  0  0
  -29.2790  -12.5990   18.0990 C   0  0  0  0  0  2  0  0  0  0  0  0
  -27.9030  -12.5140   18.7350 C   0  0  0  0  0  2  0  0  0  0  0  0
  -27.6500  -13.2840   20.0160 C   0  0  0  0  0  3  0  0  0  0  0  0
  -28.7690  -13.1490   21.0420 C   0  0  0  0  0  2  0  0  0  0  0  0
  -30.0290  -13.3400   20.3080 N   0  0  0  0  0  0  0  0  0  0  0  0
  -31.9650  -14.3970   20.6220 O   0  0  0  0  0  0  0  0  0  0  0  0
  -31.6460  -12.1290   21.0070 N   0  0  0  0  0  0  0  0  0  0  0  0
  -32.5510  -12.1110   21.4580 H   0  0  0  0  0  0  0  0  0  0  0  0
  -25.2390  -13.8290   20.6210 C   0  0  0  0  0  0  0  0  0  0  0  0
  -24.1650  -13.0510   20.9240 C   0  0  0  0  0  0  0  0  0  0  0  0
  -24.6340  -11.6980   20.8960 C   0  0  0  0  0  0  0  0  0  0  0  0
  -26.3050  -12.9680   20.4710 N   0  0  0  0  0  0  0  0  0  0  0  0
  -25.9360  -11.6720   20.6550 N   0  0  0  0  0  0  0  0  0  0  0  0
  -23.9150  -10.4330   21.0500 C   0  0  0  0  0  0  0  0  0  0  0  0
  -24.3720   -9.4240   21.9250 C   0  0  0  0  0  3  0  0  0  0  0  0
  -23.6460   -8.2250   22.0770 C   0  0  0  0  0  3  0  0  0  0  0  0
  -22.4390   -8.0340   21.3590 C   0  0  0  0  0  0  0  0  0  0  0  0
  -22.0050   -9.0270   20.4640 C   0  0  0  0  0  3  0  0  0  0  0  0
  -22.7350  -10.2150   20.3150 C   0  0  0  0  0  3  0  0  0  0  0  0
  -21.6660   -6.9000   21.4340 O   0  0  0  0  0  0  0  0  0  0  0  0
  -21.6850   -6.0910   22.5390 C   0  0  0  0  0  0  0  0  0  0  0  0
  -21.3970   -6.5780   23.8350 C   0  0  0  0  0  3  0  0  0  0  0  0
  -21.3700   -5.6900   24.9290 C   0  0  0  0  0  3  0  0  0  0  0  0
  -21.6100   -4.3180   24.7310 C   0  0  0  0  0  0  0  0  0  0  0  0
  -21.8770   -3.8300   23.4430 C   0  0  0  0  0  3  0  0  0  0  0  0
  -21.9150   -4.7130   22.3510 C   0  0  0  0  0  0  0  0  0  0  0  0
  -22.1570   -4.2340   21.1090 F   0  0  0  0  0  0  0  0  0  0  0  0
  -21.5710   -3.4650   25.7820 F   0  0  0  0  0  0  0  0  0  0  0  0
  -22.7660  -13.5180   21.1810 C   0  0  0  0  0  0  0  0  0  0  0  0
  -22.0320  -12.8220   22.0350 N   0  0  0  0  0  0  0  0  0  0  0  0
  -22.3400  -14.5540   20.6710 O   0  0  0  0  0  0  0  0  0  0  0  0
  -22.3870  -11.9850   22.4730 H   0  0  0  0  0  0  0  0  0  0  0  0
  -21.0990  -13.1390   22.2540 H   0  0  0  0  0  0  0  0  0  0  0  0
  -25.4260  -15.1960   20.4500 N   0  0  0  0  0  0  0  0  0  0  0  0
  -24.6810  -15.8660   20.5740 H   0  0  0  0  0  0  0  0  0  0  0  0
  -26.3350  -15.6180   20.3050 H   0  0  0  0  0  0  0  0  0  0  0  0
  -27.5490  -17.3380   16.7060 C   0  0  0  0  0  3  0  0  0  0  0  0
  -27.4260  -18.4420   17.8530 C   0  0  0  0  0  3  0  0  0  0  0  0
  -27.7970  -19.9560   17.4920 C   0  0  0  0  0  2  0  0  0  0  0  0
  -28.1960  -20.9920   18.6450 C   0  0  0  0  0  3  0  0  0  0  0  0
  -28.0410  -22.5470   18.3210 C   0  0  0  0  0  3  0  0  0  0  0  0
  -28.6620  -23.6940   19.2640 C   0  0  0  0  0  2  0  0  0  0  0  0
  -27.8390  -25.0510   19.2730 C   0  0  0  0  0  2  0  0  0  0  0  0
  -28.1970  -26.3570   19.9240 O   0  0  0  0  0  0  0  0  0  0  0  0
  -24.6310  -31.8650   23.2150 C   0  0  0  0  0  0  0  0  0  0  0  0
  -27.1390  -27.2950   19.9970 C   0  0  0  0  0  0  0  0  0  0  0  0
  -23.4130  -30.5090   21.5710 C   0  0  0  0  0  3  0  0  0  0  0  0
  -24.8280  -28.9900   20.1080 C   0  0  0  0  0  0  0  0  0  0  0  0
  -25.9700  -30.7730   21.3990 C   0  0  0  0  0  2  0  0  0  0  0  0
  -26.0220  -29.4110   20.7120 C   0  0  0  0  0  0  0  0  0  0  0  0
  -27.1850  -28.5700   20.6650 C   0  0  0  0  0  3  0  0  0  0  0  0
  -25.9080  -26.9700   19.3740 C   0  0  0  0  0  3  0  0  0  0  0  0
  -24.7740  -27.7730   19.4380 C   0  0  0  0  0  3  0  0  0  0  0  0
  -23.6160  -29.8850   20.1760 C   0  0  0  0  0  2  0  0  0  0  0  0
  -24.6920  -31.0610   22.1170 N   0  0  0  0  0  0  0  0  0  0  0  0
  -23.5460  -32.1470   23.7480 O   0  0  0  0  0  0  0  0  0  0  0  0
  -22.7440  -29.4680   22.5020 C   0  0  0  0  0  0  0  0  0  0  0  0
  -21.4180  -29.3040   22.3720 N   0  0  0  0  0  0  0  0  0  0  0  0
  -23.4160  -28.8160   23.3040 O   0  0  0  0  0  0  0  0  0  0  0  0
  -20.9280  -29.8830   21.7040 H   0  0  0  0  0  0  0  0  0  0  0  0
  -18.0260  -28.1370   22.8510 C   0  0  0  0  0  0  0  0  0  0  0  0
  -20.5870  -28.3670   23.1280 C   0  0  0  0  0  3  0  0  0  0  0  0
  -20.6780  -26.9400   22.5400 C   0  0  0  0  0  2  0  0  0  0  0  0
  -19.5750  -26.6380   21.5200 C   0  0  0  0  0  2  0  0  0  0  0  0
  -18.1920  -26.7910   22.1620 C   0  0  0  0  0  2  0  0  0  0  0  0
  -19.1530  -28.8840   23.2880 C   0  0  0  0  0  0  0  0  0  0  0  0
  -18.9440  -30.1440   23.8910 C   0  0  0  0  0  3  0  0  0  0  0  0
  -17.6460  -30.6590   24.0550 C   0  0  0  0  0  3  0  0  0  0  0  0
  -16.5340  -29.9090   23.6330 C   0  0  0  0  0  3  0  0  0  0  0  0
  -16.7250  -28.6480   23.0380 C   0  0  0  0  0  3  0  0  0  0  0  0
  -25.9150  -32.4810   23.8420 C   0  0  0  0  0  3  0  0  0  0  0  0
  -26.4520  -31.6600   25.0790 C   0  0  1  0  0  0  0  0  0  0  0  0
  -25.3750  -31.3730   26.1510 C   0  0  0  0  0  1  0  0  0  0  0  0
  -27.0350  -30.3010   24.6270 C   0  0  0  0  0  1  0  0  0  0  0  0
  -27.6100  -32.4330   25.7550 C   0  0  0  0  0  1  0  0  0  0  0  0
  -25.5960  -33.8600   24.2330 N   0  0  0  0  0  0  0  0  0  0  0  0
  -25.9060  -34.9460   23.5130 C   0  0  0  0  0  0  0  0  0  0  0  0
  -26.5600  -34.8910   22.4680 O   0  0  0  0  0  0  0  0  0  0  0  0
  -25.0160  -33.9760   25.0510 H   0  0  0  0  0  0  0  0  0  0  0  0
  -24.1480  -36.7290   23.2640 C   0  0  0  0  0  1  0  0  0  0  0  0
  -25.4110  -36.3090   24.0340 C   0  0  0  0  0  3  0  0  0  0  0  0
  -27.5570  -37.1810   24.8460 C   0  0  0  0  0  1  0  0  0  0  0  0
  -26.4260  -37.3810   23.9420 N   0  0  0  0  0  0  0  0  0  0  0  0
  -26.0150  -38.2880   24.1480 H   0  0  0  0  0  0  0  0  0  0  0  0
  2  3  1  0
  2  1  2  0
  3  4  1  0
  4  5  1  0
  4  7  1  0
  6  4  1  0
  7  8  1  0
  8  9  1  0
  9 10  1  0
 10 11  1  0
 11 12  2  0
 12 21  1  0
 13 21  1  0
 14 19  1  0
 15 16  1  0
 15 14  1  0
 17 16  1  0
 17 26  1  0
 17 18  1  0
 19 13  1  0
 19 18  1  0
 20 13  2  0
 21 22  1  0
 23 24  2  0
 24 43  1  0
 25 24  1  0
 25 28  1  0
 26 23  1  0
 26 27  1  0
 27 25  2  0
 28 29  1  0
 29 30  2  0
 31 34  1  0
 31 30  1  0
 32 31  2  0
 33 32  1  0
 33 28  2  0
 34 35  1  0
 35 36  1  0
 36 37  2  0
 38 37  1  0
 38 42  1  0
 39 38  2  0
 40 35  2  0
 40 39  1  0
 41 40  1  0
 43 44  1  0
 44 47  1  0
 44 46  1  0
 45 43  2  0
 48 49  1  0
 48 23  1  0
 50 48  1  0
 51  1  1  0
 51 52  2  0
 53 52  1  0
 53 54  1  0
 55 54  2  0
 55 56  1  0
 56 57  1  0
 57 58  1  0
 58 60  1  0
 59 70  2  0
 60 65  1  0
 61 69  1  0
 61 71  1  0
 62 68  1  0
 62 64  1  0
 63 69  1  0
 64 63  1  0
 65 64  2  0
 66 67  1  0
 66 60  2  0
 67 62  2  0
 68 61  1  0
 69 59  1  0
 71 73  2  0
 72 71  1  0
 74 72  1  0
 75 84  2  0
 75 80  1  0
 76 72  1  0
 76 80  1  0
 77 76  1  0
 78 79  1  0
 78 77  1  0
 79 75  1  0
 80 81  2  0
 81 82  1  0
 83 82  2  0
 84 83  1  0
 85 59  1  0
 85 90  1  0
 85 86  1  0
 86 89  1  1
 86 87  1  0
 88 86  1  0
 90 93  1  0
 91 95  1  0
 91 90  1  0
 92 91  2  0
 95 94  1  0
 97 95  1  0
 97 98  1  0
 97 96  1  0
M  ISO  4  13 100  21 100  57 101  58 101
M  END
>  <TORSDO>  (15) 
F 32

>  <SCORE>  (15) 
17.647

>  <name>  (15) 
15

>  <ligand_id>  (15) 
15

>  <original_smiles>  (15) 
[H]c1c([H])c([H])c2c(c1[H])C([H])([H])C([H])([H])C([H])([H])C2([H])N([H])C(=O)C1([H])N(C(=O)C([H])(N([H])C(=O)C([H])(N([H])C([H])([H])[H])C([H])([H])[H])C(C([H])([H])[H])(C([H])([H])[H])C([H])([H])[H])C([H])([H])c2c([H])c(OC([H])([H])C([H])([H])C([H])([H])C([H])([H])C([H])([H])C([H])([H])C([H])([H])C([H])([H])C([H])([H])C([H])([H])[N+]([H])([H])C([H])([H])C([H])([H])C([H])([H])C([H])([H])C([H])([H])C([H])([H])N([H])C(=O)N3C([H])([H])C([H])([H])C([H])([H])C([H])(n4nc(-c5c([H])c([H])c(Oc6c([H])c([H])c(F)c([H])c6F)c([H])c5[H])c(C(=O)N([H])[H])c4N([H])[H])C3([H])[H])c([H])c([H])c2C1([H])[H]

>  <smiles>  (15) 
[H]c1c([H])c([H])c2c(c1[H])C([H])([H])C([H])([H])C([H])([H])C2([H])N([H])C(=O)C1([H])N(C(=O)C([H])(N([H])C(=O)C([H])(N([H])C([H])([H])[H])C([H])([H])[H])C(C([H])([H])[H])(C([H])([H])[H])C([H])([H])[H])C([H])([H])c2c([H])c(OC([H])([H])C([H])([H])C([H])([H])C([H])([H])C([H])([H])C([H])([H])C([H])([H])C([H])([H])C([H])([H])C([H])([H])[N+]([H])([H])C([H])([H])C([H])([H])C([H])([H])C([H])([H])C([H])([H])C([H])([H])N([H])C(=O)N3C([H])([H])C([H])([H])C([H])([H])C([H])(n4nc(-c5c([H])c([H])c(Oc6c([H])c([H])c(F)c([H])c6F)c([H])c5[H])c(C(=O)N([H])[H])c4N([H])[H])C3([H])[H])c([H])c([H])c2C1([H])[H]

$$$$
16:0:0
     RDKit          3D

 98105  0  0  1  0  0  0  0  0999 V2000
  -23.9250  -21.2710   22.2410 C   0  0  0  0  0  2  0  0  0  0  0  0
  -25.1400  -22.0050   22.2250 O   0  0  0  0  0  0  0  0  0  0  0  0
  -24.9760  -23.3980   22.4410 C   0  0  0  0  0  2  0  0  0  0  0  0
  -26.3790  -24.0070   22.3240 C   0  0  0  0  0  2  0  0  0  0  0  0
  -26.9650  -23.7880   20.9800 N   0  0  0  0  0  4  0  0  0  0  0  0
  -26.8210  -22.8180   20.7290 H   0  0  0  0  0  0  0  0  0  0  0  0
  -26.4600  -24.3490   20.3080 H   0  0  0  0  0  0  0  0  0  0  0  0
  -28.4170  -24.0830   20.9140 C   0  0  0  0  0  2  0  0  0  0  0  0
  -28.8980  -24.5260   19.5120 C   0  0  0  0  0  2  0  0  0  0  0  0
  -29.1230  -25.9340   19.4590 O   0  0  0  0  0  0  0  0  0  0  0  0
  -26.4670  -30.6470   24.0390 C   0  0  0  0  0  0  0  0  0  0  0  0
  -28.0720  -26.7780   19.7340 C   0  0  0  0  0  0  0  0  0  0  0  0
  -24.9280  -29.9270   22.2370 C   0  0  0  0  0  3  0  0  0  0  0  0
  -25.9870  -28.5750   20.3550 C   0  0  0  0  0  0  0  0  0  0  0  0
  -27.4610  -29.8960   21.8860 C   0  0  0  0  0  2  0  0  0  0  0  0
  -27.2510  -28.7420   20.9320 C   0  0  0  0  0  0  0  0  0  0  0  0
  -28.2960  -27.8490   20.6230 C   0  0  0  0  0  3  0  0  0  0  0  0
  -26.7920  -26.6210   19.1520 C   0  0  0  0  0  3  0  0  0  0  0  0
  -25.7480  -27.5110   19.4680 C   0  0  0  0  0  3  0  0  0  0  0  0
  -24.9320  -29.5920   20.7210 C   0  0  0  0  0  2  0  0  0  0  0  0
  -26.3090  -30.1560   22.7770 N   0  0  0  0  0  0  0  0  0  0  0  0
  -25.4900  -30.9570   24.7320 O   0  0  0  0  0  0  0  0  0  0  0  0
  -24.1530  -28.8210   22.9860 C   0  0  0  0  0  0  0  0  0  0  0  0
  -22.8510  -28.6980   22.6870 N   0  0  0  0  0  0  0  0  0  0  0  0
  -24.7260  -28.0810   23.7910 O   0  0  0  0  0  0  0  0  0  0  0  0
  -22.4560  -29.3500   22.0230 H   0  0  0  0  0  0  0  0  0  0  0  0
  -19.4940  -27.3900   22.4410 C   0  0  0  0  0  0  0  0  0  0  0  0
  -21.9310  -27.7050   23.2380 C   0  0  0  0  0  3  0  0  0  0  0  0
  -22.2030  -26.3060   22.6380 C   0  0  0  0  0  2  0  0  0  0  0  0
  -21.3410  -26.0020   21.4080 C   0  0  0  0  0  2  0  0  0  0  0  0
  -19.8540  -26.0780   21.7610 C   0  0  0  0  0  2  0  0  0  0  0  0
  -20.4730  -28.1610   23.1190 C   0  0  0  0  0  0  0  0  0  0  0  0
  -20.0980  -29.3920   23.6990 C   0  0  0  0  0  3  0  0  0  0  0  0
  -18.7710  -29.8530   23.6130 C   0  0  0  0  0  3  0  0  0  0  0  0
  -17.8000  -29.0780   22.9560 C   0  0  0  0  0  3  0  0  0  0  0  0
  -18.1610  -27.8480   22.3750 C   0  0  0  0  0  3  0  0  0  0  0  0
  -27.8840  -30.8680   24.6580 C   0  0  0  0  0  3  0  0  0  0  0  0
  -27.8870  -32.1950   25.2900 N   0  0  0  0  0  0  0  0  0  0  0  0
  -28.4520  -33.2880   24.7600 C   0  0  0  0  0  0  0  0  0  0  0  0
  -29.0980  -33.2650   23.7090 O   0  0  0  0  0  0  0  0  0  0  0  0
  -27.3340  -32.2970   26.1290 H   0  0  0  0  0  0  0  0  0  0  0  0
  -27.1660  -35.4470   24.8410 C   0  0  0  0  0  1  0  0  0  0  0  0
  -28.2720  -34.6180   25.5150 C   0  0  0  0  0  3  0  0  0  0  0  0
  -30.5390  -34.8000   26.4360 C   0  0  0  0  0  1  0  0  0  0  0  0
  -29.5110  -35.4190   25.6030 N   0  0  0  0  0  0  0  0  0  0  0  0
  -29.3170  -36.3430   25.9760 H   0  0  0  0  0  0  0  0  0  0  0  0
  -28.2950  -29.7510   25.6950 C   0  0  1  0  0  0  0  0  0  0  0  0
  -27.2290  -29.4980   26.7870 C   0  0  0  0  0  1  0  0  0  0  0  0
  -28.5660  -28.4070   24.9780 C   0  0  0  0  0  1  0  0  0  0  0  0
  -29.6140  -30.1490   26.4000 C   0  0  0  0  0  1  0  0  0  0  0  0
  -24.2840  -19.8270   21.8730 C   0  0  0  0  0  2  0  0  0  0  0  0
  -24.3220  -19.0480   23.0640 O   0  0  0  0  0  0  0  0  0  0  0  0
  -25.3610  -18.0790   23.0510 C   0  0  0  0  0  2  0  0  0  0  0  0
  -25.0590  -16.9460   24.0440 C   0  0  0  0  0  2  0  0  0  0  0  0
  -24.2340  -15.9560   23.4360 O   0  0  0  0  0  0  0  0  0  0  0  0
  -24.8940  -14.7400   23.0940 C   0  0  0  0  0  2  0  0  0  0  0  0
  -25.7440  -14.8550   21.8150 C   0  0  0  0  0  2  0  0  0  0  0  0
  -26.9790  -15.5050   22.1190 O   0  0  0  0  0  0  0  0  0  0  0  0
  -27.7900  -15.7650   20.9810 C   0  0  0  0  0  2  0  0  0  0  0  0
  -29.2750  -15.7650   21.3860 C   0  0  0  0  0  2  0  0  0  0  0  0
  -30.8060  -13.8940   20.7450 C   0  0  0  0  0  0  0  0  0  0  0  0
  -30.7750  -11.4430   20.9600 C   0  0  0  0  0  2  0  0  0  0  0  0
  -30.2460  -10.8130   19.6540 C   0  0  0  0  0  2  0  0  0  0  0  0
  -28.7060  -10.7400   19.6540 C   0  0  0  0  0  2  0  0  0  0  0  0
  -28.0440  -12.0810   20.0730 C   0  0  0  0  0  3  0  0  0  0  0  0
  -28.7040  -12.6020   21.3640 C   0  0  0  0  0  2  0  0  0  0  0  0
  -30.1460  -12.7620   21.1120 N   0  0  0  0  0  0  0  0  0  0  0  0
  -32.0020  -13.9090   20.4440 O   0  0  0  0  0  0  0  0  0  0  0  0
  -30.0660  -14.9690   20.4480 N   0  0  0  0  0  0  0  0  0  0  0  0
  -30.5460  -15.5580   19.7820 H   0  0  0  0  0  0  0  0  0  0  0  0
  -25.5910  -12.8630   19.9620 C   0  0  0  0  0  0  0  0  0  0  0  0
  -24.4120  -12.2160   20.2230 C   0  0  0  0  0  0  0  0  0  0  0  0
  -24.7700  -10.9000   20.6410 C   0  0  0  0  0  0  0  0  0  0  0  0
  -26.5970  -11.9460   20.2310 N   0  0  0  0  0  0  0  0  0  0  0  0
  -26.0900  -10.7740   20.6880 N   0  0  0  0  0  0  0  0  0  0  0  0
  -23.9330   -9.7330   20.9430 C   0  0  0  0  0  0  0  0  0  0  0  0
  -24.1710   -8.9270   22.0790 C   0  0  0  0  0  3  0  0  0  0  0  0
  -23.3420   -7.8180   22.3570 C   0  0  0  0  0  3  0  0  0  0  0  0
  -22.2610   -7.5080   21.4980 C   0  0  0  0  0  0  0  0  0  0  0  0
  -22.0430   -8.2980   20.3560 C   0  0  0  0  0  3  0  0  0  0  0  0
  -22.8720   -9.3980   20.0780 C   0  0  0  0  0  3  0  0  0  0  0  0
  -21.4170   -6.4370   21.6750 O   0  0  0  0  0  0  0  0  0  0  0  0
  -21.2500   -5.8490   22.9030 C   0  0  0  0  0  0  0  0  0  0  0  0
  -20.7500   -6.5640   24.0120 C   0  0  0  0  0  3  0  0  0  0  0  0
  -20.5280   -5.9010   25.2360 C   0  0  0  0  0  3  0  0  0  0  0  0
  -20.7980   -4.5240   25.3500 C   0  0  0  0  0  0  0  0  0  0  0  0
  -21.2910   -3.8080   24.2450 C   0  0  0  0  0  3  0  0  0  0  0  0
  -21.5150   -4.4700   23.0240 C   0  0  0  0  0  0  0  0  0  0  0  0
  -21.9710   -3.7710   21.9570 F   0  0  0  0  0  0  0  0  0  0  0  0
  -20.5770   -3.8840   26.5230 F   0  0  0  0  0  0  0  0  0  0  0  0
  -23.0280  -12.7560   19.9990 C   0  0  0  0  0  0  0  0  0  0  0  0
  -22.0620  -12.3200   20.8030 N   0  0  0  0  0  0  0  0  0  0  0  0
  -22.8050  -13.6060   19.1390 O   0  0  0  0  0  0  0  0  0  0  0  0
  -22.2450  -11.6370   21.5230 H   0  0  0  0  0  0  0  0  0  0  0  0
  -21.1240  -12.6770   20.6940 H   0  0  0  0  0  0  0  0  0  0  0  0
  -25.8840  -14.1420   19.5000 N   0  0  0  0  0  0  0  0  0  0  0  0
  -25.1470  -14.7690   19.1970 H   0  0  0  0  0  0  0  0  0  0  0  0
  -26.8090  -14.4620   19.2460 H   0  0  0  0  0  0  0  0  0  0  0  0
  2  1  1  0
  2  3  1  0
  4  3  1  0
  5  4  1  0
  6  5  1  0
  7  5  1  0
  8  5  1  0
  9  8  1  0
 10  9  1  0
 10 12  1  0
 11 22  2  0
 12 17  1  0
 13 21  1  0
 13 23  1  0
 14 20  1  0
 14 16  1  0
 15 21  1  0
 16 15  1  0
 17 16  2  0
 18 19  1  0
 18 12  2  0
 19 14  2  0
 20 13  1  0
 21 11  1  0
 23 25  2  0
 24 23  1  0
 26 24  1  0
 27 32  1  0
 28 24  1  0
 29 28  1  0
 30 31  1  0
 30 29  1  0
 31 27  1  0
 32 28  1  0
 32 33  2  0
 34 33  1  0
 35 34  2  0
 36 27  2  0
 36 35  1  0
 37 11  1  0
 37 38  1  0
 37 47  1  0
 38 41  1  0
 39 38  1  0
 39 43  1  0
 40 39  2  0
 43 42  1  0
 43 45  1  0
 45 46  1  0
 45 44  1  0
 47 50  1  1
 47 48  1  0
 49 47  1  0
 51  1  1  0
 51 52  1  0
 53 52  1  0
 53 54  1  0
 55 54  1  0
 56 55  1  0
 57 58  1  0
 57 56  1  0
 59 60  1  0
 59 58  1  0
 61 67  1  0
 62 67  1  0
 63 64  1  0
 63 62  1  0
 65 64  1  0
 65 74  1  0
 65 66  1  0
 67 66  1  0
 68 61  2  0
 69 61  1  0
 69 60  1  0
 70 69  1  0
 71 72  2  0
 71 74  1  0
 72 73  1  0
 73 75  2  0
 73 76  1  0
 74 75  1  0
 76 77  1  0
 77 78  2  0
 79 82  1  0
 79 78  1  0
 80 79  2  0
 81 80  1  0
 81 76  2  0
 82 83  1  0
 83 88  2  0
 83 84  1  0
 84 85  2  0
 85 86  1  0
 86 90  1  0
 87 86  2  0
 88 87  1  0
 89 88  1  0
 91 72  1  0
 91 92  1  0
 92 94  1  0
 93 91  2  0
 95 92  1  0
 96 71  1  0
 97 96  1  0
 98 96  1  0
M  ISO  4   9 101  10 101  61 100  69 100
M  END
>  <TORSDO>  (16) 
F 32

>  <SCORE>  (16) 
33.456

>  <name>  (16) 
16

>  <ligand_id>  (16) 
16

>  <original_smiles>  (16) 
[H]c1c([H])c([H])c2c(c1[H])C([H])([H])C([H])([H])C([H])([H])C2([H])N([H])C(=O)C1([H])N(C(=O)C([H])(N([H])C(=O)C([H])(N([H])C([H])([H])[H])C([H])([H])[H])C(C([H])([H])[H])(C([H])([H])[H])C([H])([H])[H])C([H])([H])c2c([H])c(OC([H])([H])C([H])([H])[N+]([H])([H])C([H])([H])C([H])([H])OC([H])([H])C([H])([H])OC([H])([H])C([H])([H])OC([H])([H])C([H])([H])OC([H])([H])C([H])([H])N([H])C(=O)N3C([H])([H])C([H])([H])C([H])([H])C([H])(n4nc(-c5c([H])c([H])c(Oc6c([H])c([H])c(F)c([H])c6F)c([H])c5[H])c(C(=O)N([H])[H])c4N([H])[H])C3([H])[H])c([H])c([H])c2C1([H])[H]

>  <smiles>  (16) 
[H]c1c([H])c([H])c2c(c1[H])C([H])([H])C([H])([H])C([H])([H])C2([H])N([H])C(=O)C1([H])N(C(=O)C([H])(N([H])C(=O)C([H])(N([H])C([H])([H])[H])C([H])([H])[H])C(C([H])([H])[H])(C([H])([H])[H])C([H])([H])[H])C([H])([H])c2c([H])c(OC([H])([H])C([H])([H])[N+]([H])([H])C([H])([H])C([H])([H])OC([H])([H])C([H])([H])OC([H])([H])C([H])([H])OC([H])([H])C([H])([H])OC([H])([H])C([H])([H])N([H])C(=O)N3C([H])([H])C([H])([H])C([H])([H])C([H])(n4nc(-c5c([H])c([H])c(Oc6c([H])c([H])c(F)c([H])c6F)c([H])c5[H])c(C(=O)N([H])[H])c4N([H])[H])C3([H])[H])c([H])c([H])c2C1([H])[H]

$$$$
17:0:0
     RDKit          3D

113121  0  0  1  0  0  0  0  0999 V2000
  -25.5490  -24.7880   20.8150 C   0  0  0  0  0  0  0  0  0  0  0  0
  -25.0520  -23.7350   21.4920 N   0  0  0  0  0  0  0  0  0  0  0  0
  -26.5080  -25.4330   21.2400 O   0  0  0  0  0  0  0  0  0  0  0  0
  -24.1980  -23.2950   21.1800 H   0  0  0  0  0  0  0  0  0  0  0  0
  -24.8730  -25.1580   17.1370 C   0  0  0  0  0  2  0  0  0  0  0  0
  -23.9500  -24.0360   17.5840 C   0  0  0  0  0  2  0  0  0  0  0  0
  -24.8920  -25.1560   19.4520 C   0  0  0  0  0  3  0  0  0  0  0  0
  -25.8010  -25.2310   18.2600 N   0  0  0  0  0  0  0  0  0  0  0  0
  -23.8200  -24.2020   19.0470 N   0  0  1  0  0  4  0  0  0  0  0  0
  -24.0600  -23.3220   19.4760 H   0  0  0  0  0  0  0  0  0  0  0  0
  -22.4440  -24.5510   19.4920 C   0  0  0  0  0  2  0  0  0  0  0  0
  -21.4170  -23.4330   19.1900 C   0  0  0  0  0  2  0  0  0  0  0  0
  -20.1080  -23.8210   19.5790 O   0  0  0  0  0  0  0  0  0  0  0  0
  -19.5070  -23.1200   19.3400 H   0  0  0  0  0  0  0  0  0  0  0  0
  -26.8510  -26.2750   18.2150 C   0  0  0  0  0  2  0  0  0  0  0  0
  -26.7510  -27.3360   17.0650 C   0  0  0  0  0  2  0  0  0  0  0  0
  -26.9230  -28.6790   17.5030 O   0  0  0  0  0  0  0  0  0  0  0  0
  -25.0150  -31.5660   23.6570 C   0  0  0  0  0  0  0  0  0  0  0  0
  -25.8810  -29.2650   18.1870 C   0  0  0  0  0  0  0  0  0  0  0  0
  -23.1550  -31.0110   22.1200 C   0  0  0  0  0  3  0  0  0  0  0  0
  -23.8260  -30.4170   19.7360 C   0  0  0  0  0  0  0  0  0  0  0  0
  -25.4710  -31.5880   21.2080 C   0  0  0  0  0  2  0  0  0  0  0  0
  -25.1660  -30.6790   20.0410 C   0  0  0  0  0  0  0  0  0  0  0  0
  -26.1970  -30.1060   19.2720 C   0  0  0  0  0  3  0  0  0  0  0  0
  -24.5200  -29.0480   17.8610 C   0  0  0  0  0  3  0  0  0  0  0  0
  -23.4930  -29.6020   18.6420 C   0  0  0  0  0  3  0  0  0  0  0  0
  -22.7850  -31.0640   20.6120 C   0  0  0  0  0  2  0  0  0  0  0  0
  -24.5880  -31.3720   22.3770 N   0  0  0  0  0  0  0  0  0  0  0  0
  -24.2300  -31.4860   24.6120 O   0  0  0  0  0  0  0  0  0  0  0  0
  -22.7640  -29.6230   22.6750 C   0  0  0  0  0  0  0  0  0  0  0  0
  -21.4680  -29.2860   22.5830 N   0  0  0  0  0  0  0  0  0  0  0  0
  -23.6170  -28.8670   23.1500 O   0  0  0  0  0  0  0  0  0  0  0  0
  -20.8290  -29.9640   22.1950 H   0  0  0  0  0  0  0  0  0  0  0  0
  -18.5570  -27.1780   22.2280 C   0  0  0  0  0  0  0  0  0  0  0  0
  -20.8740  -28.0170   23.0040 C   0  0  0  0  0  3  0  0  0  0  0  0
  -21.4600  -26.8380   22.1920 C   0  0  0  0  0  2  0  0  0  0  0  0
  -20.6270  -26.4840   20.9560 C   0  0  0  0  0  2  0  0  0  0  0  0
  -19.1980  -26.1120   21.3560 C   0  0  0  0  0  2  0  0  0  0  0  0
  -19.3440  -28.0840   22.9900 C   0  0  0  0  0  0  0  0  0  0  0  0
  -18.7000  -29.0780   23.7550 C   0  0  0  0  0  3  0  0  0  0  0  0
  -17.2950  -29.1730   23.7760 C   0  0  0  0  0  3  0  0  0  0  0  0
  -16.5190  -28.2640   23.0340 C   0  0  0  0  0  3  0  0  0  0  0  0
  -17.1500  -27.2690   22.2650 C   0  0  0  0  0  3  0  0  0  0  0  0
  -26.5030  -31.9110   23.9770 C   0  0  0  0  0  3  0  0  0  0  0  0
  -27.1790  -30.8810   24.9620 C   0  0  1  0  0  0  0  0  0  0  0  0
  -26.3360  -30.5830   26.2240 C   0  0  0  0  0  1  0  0  0  0  0  0
  -27.4540  -29.5390   24.2460 C   0  0  0  0  0  1  0  0  0  0  0  0
  -28.5570  -31.4190   25.4140 C   0  0  0  0  0  1  0  0  0  0  0  0
  -26.5290  -33.2660   24.5400 N   0  0  0  0  0  0  0  0  0  0  0  0
  -26.8930  -34.3630   23.8610 C   0  0  0  0  0  0  0  0  0  0  0  0
  -27.3100  -34.3220   22.6990 O   0  0  0  0  0  0  0  0  0  0  0  0
  -26.1440  -33.3800   25.4660 H   0  0  0  0  0  0  0  0  0  0  0  0
  -25.5180  -36.4550   24.0840 C   0  0  0  0  0  1  0  0  0  0  0  0
  -26.7710  -35.7190   24.5820 C   0  0  0  0  0  3  0  0  0  0  0  0
  -29.1450  -36.0710   25.1020 C   0  0  0  0  0  1  0  0  0  0  0  0
  -27.9620  -36.5820   24.4150 N   0  0  0  0  0  0  0  0  0  0  0  0
  -27.7780  -37.5230   24.7510 H   0  0  0  0  0  0  0  0  0  0  0  0
  -25.5060  -23.2640   22.7980 C   0  0  0  0  0  2  0  0  0  0  0  0
  -27.0350  -23.3170   22.9910 C   0  0  0  0  0  2  0  0  0  0  0  0
  -27.8910  -22.6110   21.9160 C   0  0  0  0  0  2  0  0  0  0  0  0
  -28.3000  -23.5220   20.7430 C   0  0  0  0  0  2  0  0  0  0  0  0
  -29.6390  -23.1490   20.0820 C   0  0  0  0  0  2  0  0  0  0  0  0
  -29.9620  -24.0550   18.8820 C   0  0  0  0  0  2  0  0  0  0  0  0
  -29.7180  -23.4100   17.5050 C   0  0  0  0  0  2  0  0  0  0  0  0
  -30.4450  -24.1760   16.3930 C   0  0  0  0  0  2  0  0  0  0  0  0
  -30.5270  -23.4600   15.0260 C   0  0  0  0  0  2  0  0  0  0  0  0
  -31.2640  -25.3540   13.6210 C   0  0  0  0  0  0  0  0  0  0  0  0
  -31.4900  -24.1610   14.1850 N   0  0  0  0  0  0  0  0  0  0  0  0
  -30.1270  -25.7760   13.4020 O   0  0  0  0  0  0  0  0  0  0  0  0
  -32.4470  -23.8450   14.2360 H   0  0  0  0  0  0  0  0  0  0  0  0
  -32.4800  -26.2580   13.3850 C   0  0  0  0  0  2  0  0  0  0  0  0
  -32.9810  -26.6840   14.6560 O   0  0  0  0  0  0  0  0  0  0  0  0
  -34.2300  -26.0980   14.9870 C   0  0  0  0  0  2  0  0  0  0  0  0
  -34.4070  -25.9330   16.5020 C   0  0  0  0  0  2  0  0  0  0  0  0
  -35.8780  -25.7350   16.9370 C   0  0  0  0  0  2  0  0  0  0  0  0
  -37.3130  -24.6740   15.1700 C   0  0  0  0  0  0  0  0  0  0  0  0
  -39.1620  -23.6090   13.9380 C   0  0  0  0  0  2  0  0  0  0  0  0
  -38.6860  -22.7170   12.7780 C   0  0  0  0  0  2  0  0  0  0  0  0
  -38.3650  -21.2960   13.2800 C   0  0  0  0  0  2  0  0  0  0  0  0
  -37.4470  -21.3030   14.5310 C   0  0  0  0  0  3  0  0  0  0  0  0
  -37.9750  -22.2790   15.6010 C   0  0  0  0  0  2  0  0  0  0  0  0
  -38.1290  -23.6090   14.9830 N   0  0  0  0  0  0  0  0  0  0  0  0
  -37.3280  -25.6680   14.4410 O   0  0  0  0  0  0  0  0  0  0  0  0
  -36.5710  -24.6180   16.2880 N   0  0  0  0  0  0  0  0  0  0  0  0
  -36.6570  -23.7650   16.8220 H   0  0  0  0  0  0  0  0  0  0  0  0
  -36.1250  -19.2550   15.3520 C   0  0  0  0  0  0  0  0  0  0  0  0
  -36.5230  -18.0180   15.7850 C   0  0  0  0  0  0  0  0  0  0  0  0
  -37.9480  -18.0300   15.7400 C   0  0  0  0  0  0  0  0  0  0  0  0
  -37.2870  -19.9570   15.0760 N   0  0  0  0  0  0  0  0  0  0  0  0
  -38.3910  -19.2190   15.3580 N   0  0  0  0  0  0  0  0  0  0  0  0
  -38.9160  -16.9550   15.9800 C   0  0  0  0  0  0  0  0  0  0  0  0
  -40.0480  -17.1580   16.7970 C   0  0  0  0  0  3  0  0  0  0  0  0
  -40.9560  -16.1030   17.0340 C   0  0  0  0  0  3  0  0  0  0  0  0
  -40.7340  -14.8310   16.4540 C   0  0  0  0  0  0  0  0  0  0  0  0
  -39.6150  -14.6450   15.6220 C   0  0  0  0  0  3  0  0  0  0  0  0
  -38.7140  -15.6960   15.3820 C   0  0  0  0  0  3  0  0  0  0  0  0
  -41.5780  -13.7570   16.6060 O   0  0  0  0  0  0  0  0  0  0  0  0
  -42.4380  -13.6610   17.6710 C   0  0  0  0  0  0  0  0  0  0  0  0
  -41.9710  -13.6070   19.0030 C   0  0  0  0  0  3  0  0  0  0  0  0
  -42.8840  -13.4400   20.0630 C   0  0  0  0  0  3  0  0  0  0  0  0
  -44.2610  -13.3180   19.7960 C   0  0  0  0  0  0  0  0  0  0  0  0
  -44.7270  -13.3670   18.4710 C   0  0  0  0  0  3  0  0  0  0  0  0
  -43.8180  -13.5350   17.4110 C   0  0  0  0  0  0  0  0  0  0  0  0
  -44.2710  -13.5580   16.1350 F   0  0  0  0  0  0  0  0  0  0  0  0
  -45.1380  -13.1510   20.8140 F   0  0  0  0  0  0  0  0  0  0  0  0
  -35.6280  -16.8600   16.1230 C   0  0  0  0  0  0  0  0  0  0  0  0
  -36.0590  -16.0090   17.0480 N   0  0  0  0  0  0  0  0  0  0  0  0
  -34.5230  -16.7320   15.5990 O   0  0  0  0  0  0  0  0  0  0  0  0
  -36.9650  -16.1210   17.4770 H   0  0  0  0  0  0  0  0  0  0  0  0
  -35.4830  -15.2250   17.3230 H   0  0  0  0  0  0  0  0  0  0  0  0
  -34.8800  -19.8240   15.1560 N   0  0  0  0  0  0  0  0  0  0  0  0
  -34.0260  -19.3110   15.3350 H   0  0  0  0  0  0  0  0  0  0  0  0
  -34.7250  -20.7740   14.8430 H   0  0  0  0  0  0  0  0  0  0  0  0
  1  3  2  0
  1  2  1  0
  2 58  1  0
  4  2  1  0
  5  6  1  0
  5  8  1  0
  6  9  1  0
  7  1  1  0
  8  7  1  0
  9  7  1  0
  9 10  1  1
  9 11  1  0
 12 11  1  0
 12 13  1  0
 14 13  1  0
 15  8  1  0
 16 17  1  0
 16 15  1  0
 17 19  1  0
 18 29  2  0
 19 24  1  0
 20 28  1  0
 20 30  1  0
 21 23  1  0
 21 27  1  0
 22 28  1  0
 23 22  1  0
 24 23  2  0
 25 19  2  0
 25 26  1  0
 26 21  2  0
 27 20  1  0
 28 18  1  0
 30 32  2  0
 31 30  1  0
 33 31  1  0
 34 43  2  0
 34 39  1  0
 35 31  1  0
 36 35  1  0
 37 38  1  0
 37 36  1  0
 38 34  1  0
 39 35  1  0
 39 40  2  0
 40 41  1  0
 42 41  2  0
 43 42  1  0
 44 18  1  0
 44 49  1  0
 44 45  1  0
 45 48  1  1
 45 46  1  0
 47 45  1  0
 49 52  1  0
 50 49  1  0
 50 54  1  0
 51 50  2  0
 54 53  1  0
 56 54  1  0
 56 57  1  0
 56 55  1  0
 58 59  1  0
 60 59  1  0
 61 60  1  0
 62 61  1  0
 63 62  1  0
 64 63  1  0
 65 64  1  0
 66 65  1  0
 67 68  1  0
 68 70  1  0
 68 66  1  0
 69 67  2  0
 71 67  1  0
 71 72  1  0
 72 73  1  0
 73 74  1  0
 74 75  1  0
 76 84  1  0
 77 82  1  0
 78 79  1  0
 78 77  1  0
 80 79  1  0
 80 89  1  0
 80 81  1  0
 82 76  1  0
 82 81  1  0
 83 76  2  0
 84 85  1  0
 84 75  1  0
 86 87  2  0
 87106  1  0
 88 87  1  0
 88 91  1  0
 89 86  1  0
 89 90  1  0
 90 88  2  0
 91 92  1  0
 92 93  2  0
 94 97  1  0
 94 93  1  0
 95 94  2  0
 96 95  1  0
 96 91  2  0
 97 98  1  0
 98 99  1  0
 99100  2  0
101100  1  0
101105  1  0
102101  2  0
103 98  2  0
103102  1  0
104103  1  0
106107  1  0
107110  1  0
107109  1  0
108106  2  0
111112  1  0
111 86  1  0
113111  1  0
M  ISO  4  16 101  17 101  76 100  84 100
M  END
>  <TORSDO>  (17) 
F 37

>  <SCORE>  (17) 
-0.290

>  <name>  (17) 
17

>  <ligand_id>  (17) 
17

>  <original_smiles>  (17) 
[H]OC([H])([H])C([H])([H])[N+]1([H])C([H])(C(=O)N([H])C([H])([H])C([H])([H])C([H])([H])C([H])([H])C([H])([H])C([H])([H])C([H])([H])C([H])([H])C([H])([H])N([H])C(=O)C([H])([H])OC([H])([H])C([H])([H])C([H])([H])N([H])C(=O)N2C([H])([H])C([H])([H])C([H])([H])C([H])(n3nc(-c4c([H])c([H])c(Oc5c([H])c([H])c(F)c([H])c5F)c([H])c4[H])c(C(=O)N([H])[H])c3N([H])[H])C2([H])[H])N(C([H])([H])C([H])([H])Oc2c([H])c([H])c3c(c2[H])C([H])([H])N(C(=O)C([H])(N([H])C(=O)C([H])(N([H])C([H])([H])[H])C([H])([H])[H])C(C([H])([H])[H])(C([H])([H])[H])C([H])([H])[H])C([H])(C(=O)N([H])C2([H])c4c([H])c([H])c([H])c([H])c4C([H])([H])C([H])([H])C2([H])[H])C3([H])[H])C([H])([H])C1([H])[H]

>  <smiles>  (17) 
[H]OC([H])([H])C([H])([H])[N+]1([H])C([H])(C(=O)N([H])C([H])([H])C([H])([H])C([H])([H])C([H])([H])C([H])([H])C([H])([H])C([H])([H])C([H])([H])C([H])([H])N([H])C(=O)C([H])([H])OC([H])([H])C([H])([H])C([H])([H])N([H])C(=O)N2C([H])([H])C([H])([H])C([H])([H])C([H])(n3nc(-c4c([H])c([H])c(Oc5c([H])c([H])c(F)c([H])c5F)c([H])c4[H])c(C(=O)N([H])[H])c3N([H])[H])C2([H])[H])N(C([H])([H])C([H])([H])Oc2c([H])c([H])c3c(c2[H])C([H])([H])N(C(=O)C([H])(N([H])C(=O)C([H])(N([H])C([H])([H])[H])C([H])([H])[H])C(C([H])([H])[H])(C([H])([H])[H])C([H])([H])[H])C([H])(C(=O)N([H])C2([H])c4c([H])c([H])c([H])c([H])c4C([H])([H])C([H])([H])C2([H])[H])C3([H])[H])C([H])([H])C1([H])[H]

$$$$
18:0:0
     RDKit          3D

 88 95  0  0  1  0  0  0  0  0999 V2000
  -29.0430  -22.4530   20.2050 C   0  0  0  0  0  2  0  0  0  0  0  0
  -28.6900  -23.9440   20.7490 C   0  0  0  0  0  3  0  0  0  0  0  0
  -28.4640  -25.1310   19.7090 C   0  0  0  0  0  3  0  0  0  0  0  0
  -28.3800  -26.5250   20.2140 O   0  0  0  0  0  0  0  0  0  0  0  0
  -24.6240  -31.8750   23.2400 C   0  0  0  0  0  0  0  0  0  0  0  0
  -27.2210  -27.3190   20.1600 C   0  0  0  0  0  0  0  0  0  0  0  0
  -23.4080  -30.4790   21.6050 C   0  0  0  0  0  3  0  0  0  0  0  0
  -24.8480  -28.9280   20.1710 C   0  0  0  0  0  0  0  0  0  0  0  0
  -25.9450  -30.7980   21.4060 C   0  0  0  0  0  2  0  0  0  0  0  0
  -26.0190  -29.4190   20.7590 C   0  0  0  0  0  0  0  0  0  0  0  0
  -27.2040  -28.6250   20.7440 C   0  0  0  0  0  3  0  0  0  0  0  0
  -26.0200  -26.8760   19.5610 C   0  0  0  0  0  3  0  0  0  0  0  0
  -24.8510  -27.6620   19.5650 C   0  0  0  0  0  3  0  0  0  0  0  0
  -23.6120  -29.8020   20.2250 C   0  0  0  0  0  2  0  0  0  0  0  0
  -24.6780  -31.0680   22.1390 N   0  0  0  0  0  0  0  0  0  0  0  0
  -23.5440  -32.1520   23.7820 O   0  0  0  0  0  0  0  0  0  0  0  0
  -22.7520  -29.4610   22.5700 C   0  0  0  0  0  0  0  0  0  0  0  0
  -21.4260  -29.2820   22.4480 N   0  0  0  0  0  0  0  0  0  0  0  0
  -23.4360  -28.8360   23.3850 O   0  0  0  0  0  0  0  0  0  0  0  0
  -20.9350  -29.8360   21.7610 H   0  0  0  0  0  0  0  0  0  0  0  0
  -18.0530  -28.0810   22.9610 C   0  0  0  0  0  0  0  0  0  0  0  0
  -20.6110  -28.3440   23.2220 C   0  0  0  0  0  3  0  0  0  0  0  0
  -20.7140  -26.9120   22.6480 C   0  0  0  0  0  2  0  0  0  0  0  0
  -19.6080  -26.5850   21.6390 C   0  0  0  0  0  2  0  0  0  0  0  0
  -18.2290  -26.7290   22.2900 C   0  0  0  0  0  2  0  0  0  0  0  0
  -19.1720  -28.8460   23.3850 C   0  0  0  0  0  0  0  0  0  0  0  0
  -18.9530  -30.1100   23.9750 C   0  0  0  0  0  3  0  0  0  0  0  0
  -17.6480  -30.6090   24.1440 C   0  0  0  0  0  3  0  0  0  0  0  0
  -16.5440  -29.8420   23.7340 C   0  0  0  0  0  3  0  0  0  0  0  0
  -16.7470  -28.5800   23.1480 C   0  0  0  0  0  3  0  0  0  0  0  0
  -25.9100  -32.5070   23.8550 C   0  0  0  0  0  3  0  0  0  0  0  0
  -26.4320  -31.7370   25.1300 C   0  0  1  0  0  0  0  0  0  0  0  0
  -25.3430  -31.5030   26.2030 C   0  0  0  0  0  1  0  0  0  0  0  0
  -27.0100  -30.3570   24.7360 C   0  0  0  0  0  1  0  0  0  0  0  0
  -27.5870  -32.5290   25.7840 C   0  0  0  0  0  1  0  0  0  0  0  0
  -25.6040  -33.9050   24.1860 N   0  0  0  0  0  0  0  0  0  0  0  0
  -25.9340  -34.9590   23.4270 C   0  0  0  0  0  0  0  0  0  0  0  0
  -26.5980  -34.8550   22.3920 O   0  0  0  0  0  0  0  0  0  0  0  0
  -25.0110  -34.0600   24.9890 H   0  0  0  0  0  0  0  0  0  0  0  0
  -24.2070  -36.7560   23.0810 C   0  0  0  0  0  1  0  0  0  0  0  0
  -25.4510  -36.3480   23.8880 C   0  0  0  0  0  3  0  0  0  0  0  0
  -27.5900  -37.2290   24.7110 C   0  0  0  0  0  1  0  0  0  0  0  0
  -26.4840  -37.4000   23.7720 N   0  0  0  0  0  0  0  0  0  0  0  0
  -26.0810  -38.3210   23.9200 H   0  0  0  0  0  0  0  0  0  0  0  0
  -28.5340  -20.9700   20.6210 C   0  0  0  0  0  2  0  0  0  0  0  0
  -29.4930  -19.7910   20.5000 N   0  0  0  0  0  4  0  0  0  0  0  0
  -28.9640  -19.6540   19.6530 H   0  0  0  0  0  0  0  0  0  0  0  0
  -29.2750  -19.7420   21.4830 H   0  0  0  0  0  0  0  0  0  0  0  0
  -29.1080  -18.3240   20.6590 C   0  0  0  0  0  3  0  0  0  0  0  0
  -30.2500  -17.2150   20.5120 C   0  0  0  0  0  3  0  0  0  0  0  0
  -30.6050  -14.6570   20.3620 C   0  0  0  0  0  0  0  0  0  0  0  0
  -30.3570  -12.4250   19.2970 C   0  0  0  0  0  2  0  0  0  0  0  0
  -29.4070  -12.5570   18.0870 C   0  0  0  0  0  2  0  0  0  0  0  0
  -27.9390  -12.3980   18.5320 C   0  0  0  0  0  2  0  0  0  0  0  0
  -27.5920  -13.2610   19.7740 C   0  0  0  0  0  3  0  0  0  0  0  0
  -28.6590  -13.1180   20.8810 C   0  0  0  0  0  2  0  0  0  0  0  0
  -29.9610  -13.4490   20.2850 N   0  0  0  0  0  0  0  0  0  0  0  0
  -31.7710  -14.7820   19.9820 O   0  0  0  0  0  0  0  0  0  0  0  0
  -29.8500  -15.7630   20.6580 N   0  0  0  0  0  0  0  0  0  0  0  0
  -28.8970  -15.5770   20.9360 H   0  0  0  0  0  0  0  0  0  0  0  0
  -25.2050  -13.8560   20.5120 C   0  0  0  0  0  0  0  0  0  0  0  0
  -24.1420  -13.0820   20.8900 C   0  0  0  0  0  0  0  0  0  0  0  0
  -24.6050  -11.7320   20.8570 C   0  0  0  0  0  0  0  0  0  0  0  0
  -26.2470  -12.9770   20.2700 N   0  0  0  0  0  0  0  0  0  0  0  0
  -25.8930  -11.6940   20.5390 N   0  0  0  0  0  0  0  0  0  0  0  0
  -23.8810  -10.4680   21.0510 C   0  0  0  0  0  0  0  0  0  0  0  0
  -24.3250   -9.4970   21.9770 C   0  0  0  0  0  3  0  0  0  0  0  0
  -23.6020   -8.3000   22.1600 C   0  0  0  0  0  3  0  0  0  0  0  0
  -22.4200   -8.0640   21.4180 C   0  0  0  0  0  0  0  0  0  0  0  0
  -21.9940   -9.0230   20.4820 C   0  0  0  0  0  3  0  0  0  0  0  0
  -22.7190  -10.2130   20.2970 C   0  0  0  0  0  3  0  0  0  0  0  0
  -21.6660   -6.9180   21.5120 O   0  0  0  0  0  0  0  0  0  0  0  0
  -21.6380   -6.1670   22.6590 C   0  0  0  0  0  0  0  0  0  0  0  0
  -21.2360   -6.7110   23.8990 C   0  0  0  0  0  3  0  0  0  0  0  0
  -21.1550   -5.8860   25.0370 C   0  0  0  0  0  3  0  0  0  0  0  0
  -21.4670   -4.5170   24.9390 C   0  0  0  0  0  0  0  0  0  0  0  0
  -21.8640   -3.9720   23.7050 C   0  0  0  0  0  3  0  0  0  0  0  0
  -21.9470   -4.7940   22.5680 C   0  0  0  0  0  0  0  0  0  0  0  0
  -22.3080   -4.2600   21.3770 F   0  0  0  0  0  0  0  0  0  0  0  0
  -21.3830   -3.7220   26.0320 F   0  0  0  0  0  0  0  0  0  0  0  0
  -22.7450  -13.5580   21.1710 C   0  0  0  0  0  0  0  0  0  0  0  0
  -22.0230  -12.8600   22.0410 N   0  0  0  0  0  0  0  0  0  0  0  0
  -22.3030  -14.5830   20.6540 O   0  0  0  0  0  0  0  0  0  0  0  0
  -22.3940  -12.0310   22.4800 H   0  0  0  0  0  0  0  0  0  0  0  0
  -21.0860  -13.1600   22.2700 H   0  0  0  0  0  0  0  0  0  0  0  0
  -25.3650  -15.2280   20.3310 N   0  0  0  0  0  0  0  0  0  0  0  0
  -24.5880  -15.8730   20.4270 H   0  0  0  0  0  0  0  0  0  0  0  0
  -26.1910  -15.6590   19.9380 H   0  0  0  0  0  0  0  0  0  0  0  0
  1 45  1  0
  1  2  1  0
  3  4  1  0
  3  2  2  0
  5 16  2  0
  6  4  1  0
  6 11  1  0
  7 15  1  0
  7 17  1  0
  8 14  1  0
  8 10  1  0
  9 15  1  0
 10  9  1  0
 11 10  2  0
 12 13  1  0
 12  6  2  0
 13  8  2  0
 14  7  1  0
 15  5  1  0
 17 19  2  0
 18 17  1  0
 20 18  1  0
 21 30  2  0
 21 26  1  0
 22 18  1  0
 22 26  1  0
 23 22  1  0
 24 25  1  0
 24 23  1  0
 25 21  1  0
 26 27  2  0
 27 28  1  0
 29 28  2  0
 30 29  1  0
 31  5  1  0
 31 36  1  0
 31 32  1  0
 32 35  1  1
 32 33  1  0
 34 32  1  0
 36 39  1  0
 37 41  1  0
 37 36  1  0
 38 37  2  0
 41 40  1  0
 43 41  1  0
 43 44  1  0
 43 42  1  0
 46 45  1  0
 46 49  1  0
 46 48  1  0
 47 46  1  0
 50 59  1  0
 50 49  2  0
 51 59  1  0
 52 57  1  0
 53 54  1  0
 53 52  1  0
 55 54  1  0
 55 64  1  0
 55 56  1  0
 57 51  1  0
 57 56  1  0
 58 51  2  0
 59 60  1  0
 61 62  2  0
 62 81  1  0
 63 62  1  0
 63 66  1  0
 64 61  1  0
 64 65  1  0
 65 63  2  0
 66 67  1  0
 67 68  2  0
 69 72  1  0
 69 68  1  0
 70 69  2  0
 71 70  1  0
 71 66  2  0
 72 73  1  0
 73 74  1  0
 74 75  2  0
 76 75  1  0
 76 80  1  0
 77 76  2  0
 78 73  2  0
 78 77  1  0
 79 78  1  0
 81 82  1  0
 82 85  1  0
 82 84  1  0
 83 81  2  0
 86 87  1  0
 86 61  1  0
 88 86  1  0
M  ISO  4   3 101   4 101  51 100  59 100
M  END
>  <TORSDO>  (18) 
F 22

>  <SCORE>  (18) 
-12.897

>  <name>  (18) 
18

>  <ligand_id>  (18) 
18

>  <original_smiles>  (18) 
[H]c1c([H])c([H])c2c(c1[H])C([H])([H])C([H])([H])C([H])([H])C2([H])N([H])C(=O)C1([H])N(C(=O)C([H])(N([H])C(=O)C([H])(N([H])C([H])([H])[H])C([H])([H])[H])C(C([H])([H])[H])(C([H])([H])[H])C([H])([H])[H])C([H])([H])c2c([H])c(OC([H])([H])C([H])([H])C([H])([H])C([H])([H])[N+]([H])([H])C([H])([H])C([H])([H])N([H])C(=O)N3C([H])([H])C([H])([H])C([H])([H])C([H])(n4nc(-c5c([H])c([H])c(Oc6c([H])c([H])c(F)c([H])c6F)c([H])c5[H])c(C(=O)N([H])[H])c4N([H])[H])C3([H])[H])c([H])c([H])c2C1([H])[H]

>  <smiles>  (18) 
[H]c1c([H])c([H])c2c(c1[H])C([H])([H])C([H])([H])C([H])([H])C2([H])N([H])C(=O)C1([H])N(C(=O)C([H])(N([H])C(=O)C([H])(N([H])C([H])([H])[H])C([H])([H])[H])C(C([H])([H])[H])(C([H])([H])[H])C([H])([H])[H])C([H])([H])c2c([H])c(OC([H])([H])C([H])([H])C([H])([H])C([H])([H])[N+]([H])([H])C([H])([H])C([H])([H])N([H])C(=O)N3C([H])([H])C([H])([H])C([H])([H])C([H])(n4nc(-c5c([H])c([H])c(Oc6c([H])c([H])c(F)c([H])c6F)c([H])c5[H])c(C(=O)N([H])[H])c4N([H])[H])C3([H])[H])c([H])c([H])c2C1([H])[H]

$$$$
19:0:0
     RDKit          3D

 94102  0  0  1  0  0  0  0  0999 V2000
  -30.1240  -17.6750   20.4580 C   0  0  0  0  0  0  0  0  0  0  0  0
  -30.5720  -19.6650   21.9300 C   0  0  0  0  0  2  0  0  0  0  0  0
  -29.7750  -19.9850   19.6380 C   0  0  0  0  0  2  0  0  0  0  0  0
  -31.6330  -20.7630   21.7120 C   0  0  0  0  0  2  0  0  0  0  0  0
  -30.8640  -21.0510   19.3970 C   0  0  0  0  0  2  0  0  0  0  0  0
  -30.1960  -19.0160   20.6620 N   0  0  0  0  0  0  0  0  0  0  0  0
  -31.2380  -21.7370   20.6620 N   0  0  2  0  0  4  0  0  0  0  0  0
  -29.7250  -17.2020   19.3880 O   0  0  0  0  0  0  0  0  0  0  0  0
  -30.4010  -22.1980   20.9910 H   0  0  0  0  0  0  0  0  0  0  0  0
  -30.5350  -16.7020   21.5840 C   0  0  0  0  0  2  0  0  0  0  0  0
  -30.7480  -14.4240   20.5590 C   0  0  0  0  0  0  0  0  0  0  0  0
  -30.4360  -12.3170   19.3130 C   0  0  0  0  0  2  0  0  0  0  0  0
  -29.5070  -12.5520   18.1060 C   0  0  0  0  0  2  0  0  0  0  0  0
  -28.0270  -12.4230   18.5170 C   0  0  0  0  0  2  0  0  0  0  0  0
  -27.6830  -13.2490   19.7860 C   0  0  0  0  0  3  0  0  0  0  0  0
  -28.7160  -12.9720   20.9010 C   0  0  0  0  0  2  0  0  0  0  0  0
  -30.0580  -13.2710   20.3640 N   0  0  0  0  0  0  0  0  0  0  0  0
  -31.8330  -14.6710   20.0230 O   0  0  0  0  0  0  0  0  0  0  0  0
  -30.1280  -15.3170   21.3400 N   0  0  0  0  0  0  0  0  0  0  0  0
  -29.2300  -15.0390   21.7030 H   0  0  0  0  0  0  0  0  0  0  0  0
  -25.2750  -13.8830   20.4430 C   0  0  0  0  0  0  0  0  0  0  0  0
  -24.1940  -13.1220   20.8030 C   0  0  0  0  0  0  0  0  0  0  0  0
  -24.6460  -11.7670   20.7950 C   0  0  0  0  0  0  0  0  0  0  0  0
  -26.3180  -12.9920   20.2410 N   0  0  0  0  0  0  0  0  0  0  0  0
  -25.9410  -11.7140   20.5070 N   0  0  0  0  0  0  0  0  0  0  0  0
  -23.9100  -10.5110   20.9890 C   0  0  0  0  0  0  0  0  0  0  0  0
  -24.3220   -9.5540   21.9420 C   0  0  0  0  0  3  0  0  0  0  0  0
  -23.5890   -8.3620   22.1230 C   0  0  0  0  0  3  0  0  0  0  0  0
  -22.4290   -8.1180   21.3490 C   0  0  0  0  0  0  0  0  0  0  0  0
  -22.0360   -9.0640   20.3850 C   0  0  0  0  0  3  0  0  0  0  0  0
  -22.7700  -10.2480   20.2030 C   0  0  0  0  0  3  0  0  0  0  0  0
  -21.6690   -6.9780   21.4360 O   0  0  0  0  0  0  0  0  0  0  0  0
  -21.5910   -6.2510   22.5970 C   0  0  0  0  0  0  0  0  0  0  0  0
  -21.1340   -6.8230   23.8040 C   0  0  0  0  0  3  0  0  0  0  0  0
  -21.0040   -6.0250   24.9580 C   0  0  0  0  0  3  0  0  0  0  0  0
  -21.3200   -4.6530   24.9050 C   0  0  0  0  0  0  0  0  0  0  0  0
  -21.7700   -4.0810   23.7020 C   0  0  0  0  0  3  0  0  0  0  0  0
  -21.9030   -4.8780   22.5520 C   0  0  0  0  0  0  0  0  0  0  0  0
  -22.3170   -4.3170   21.3900 F   0  0  0  0  0  0  0  0  0  0  0  0
  -21.1870   -3.8840   26.0110 F   0  0  0  0  0  0  0  0  0  0  0  0
  -22.7940  -13.6110   21.0470 C   0  0  0  0  0  0  0  0  0  0  0  0
  -22.0480  -12.9290   21.9080 N   0  0  0  0  0  0  0  0  0  0  0  0
  -22.3720  -14.6330   20.5100 O   0  0  0  0  0  0  0  0  0  0  0  0
  -22.4010  -12.1040   22.3690 H   0  0  0  0  0  0  0  0  0  0  0  0
  -21.1080  -13.2390   22.1110 H   0  0  0  0  0  0  0  0  0  0  0  0
  -25.4510  -15.2520   20.2570 N   0  0  0  0  0  0  0  0  0  0  0  0
  -24.6860  -15.9120   20.3480 H   0  0  0  0  0  0  0  0  0  0  0  0
  -26.3140  -15.6840   19.9500 H   0  0  0  0  0  0  0  0  0  0  0  0
  -32.2460  -22.8240   20.5100 C   0  0  0  0  0  2  0  0  0  0  0  0
  -31.8170  -23.9470   19.5490 C   0  0  0  0  0  2  0  0  0  0  0  0
  -30.5060  -24.4030   19.8790 O   0  0  0  0  0  0  0  0  0  0  0  0
  -30.0460  -25.3750   18.9430 C   0  0  0  0  0  2  0  0  0  0  0  0
  -28.5650  -25.7170   19.1620 C   0  0  0  0  0  2  0  0  0  0  0  0
  -28.4170  -26.7700   20.1140 O   0  0  0  0  0  0  0  0  0  0  0  0
  -24.5790  -31.8810   23.2420 C   0  0  0  0  0  0  0  0  0  0  0  0
  -27.2150  -27.4460   20.1410 C   0  0  0  0  0  0  0  0  0  0  0  0
  -23.3640  -30.4790   21.6050 C   0  0  0  0  0  3  0  0  0  0  0  0
  -24.8090  -28.9380   20.1820 C   0  0  0  0  0  0  0  0  0  0  0  0
  -25.8890  -30.8340   21.4000 C   0  0  0  0  0  2  0  0  0  0  0  0
  -25.9680  -29.4620   20.7660 C   0  0  0  0  0  0  0  0  0  0  0  0
  -27.1690  -28.7180   20.7530 C   0  0  0  0  0  3  0  0  0  0  0  0
  -26.0260  -26.9220   19.5750 C   0  0  0  0  0  3  0  0  0  0  0  0
  -24.8310  -27.6640   19.5920 C   0  0  0  0  0  3  0  0  0  0  0  0
  -23.5680  -29.7980   20.2260 C   0  0  0  0  0  2  0  0  0  0  0  0
  -24.6290  -31.0800   22.1410 N   0  0  0  0  0  0  0  0  0  0  0  0
  -23.4990  -32.1550   23.7850 O   0  0  0  0  0  0  0  0  0  0  0  0
  -22.7150  -29.4590   22.5670 C   0  0  0  0  0  0  0  0  0  0  0  0
  -21.3910  -29.2750   22.4390 N   0  0  0  0  0  0  0  0  0  0  0  0
  -23.4000  -28.8350   23.3830 O   0  0  0  0  0  0  0  0  0  0  0  0
  -20.9010  -29.8300   21.7520 H   0  0  0  0  0  0  0  0  0  0  0  0
  -18.0170  -28.0820   22.9320 C   0  0  0  0  0  0  0  0  0  0  0  0
  -20.5740  -28.3400   23.2120 C   0  0  0  0  0  3  0  0  0  0  0  0
  -20.6780  -26.9060   22.6430 C   0  0  0  0  0  2  0  0  0  0  0  0
  -19.5790  -26.5810   21.6250 C   0  0  0  0  0  2  0  0  0  0  0  0
  -18.1950  -26.7290   22.2640 C   0  0  0  0  0  2  0  0  0  0  0  0
  -19.1350  -28.8450   23.3640 C   0  0  0  0  0  0  0  0  0  0  0  0
  -18.9150  -30.1110   23.9470 C   0  0  0  0  0  3  0  0  0  0  0  0
  -17.6110  -30.6160   24.1040 C   0  0  0  0  0  3  0  0  0  0  0  0
  -16.5080  -29.8490   23.6910 C   0  0  0  0  0  3  0  0  0  0  0  0
  -16.7120  -28.5840   23.1120 C   0  0  0  0  0  3  0  0  0  0  0  0
  -25.8680  -32.5080   23.8560 C   0  0  0  0  0  3  0  0  0  0  0  0
  -25.5640  -33.9080   24.1840 N   0  0  0  0  0  0  0  0  0  0  0  0
  -25.8970  -34.9560   23.4200 C   0  0  0  0  0  0  0  0  0  0  0  0
  -26.5650  -34.8490   22.3870 O   0  0  0  0  0  0  0  0  0  0  0  0
  -24.9680  -34.0650   24.9820 H   0  0  0  0  0  0  0  0  0  0  0  0
  -24.1740  -36.7520   23.0590 C   0  0  0  0  0  1  0  0  0  0  0  0
  -25.4130  -36.3460   23.8740 C   0  0  0  0  0  3  0  0  0  0  0  0
  -27.5470  -37.2250   24.7090 C   0  0  0  0  0  1  0  0  0  0  0  0
  -26.4480  -37.3960   23.7620 N   0  0  0  0  0  0  0  0  0  0  0  0
  -26.0440  -38.3170   23.9090 H   0  0  0  0  0  0  0  0  0  0  0  0
  -26.3910  -31.7380   25.1300 C   0  0  1  0  0  0  0  0  0  0  0  0
  -25.3030  -31.5060   26.2040 C   0  0  0  0  0  1  0  0  0  0  0  0
  -26.9670  -30.3580   24.7350 C   0  0  0  0  0  1  0  0  0  0  0  0
  -27.5460  -32.5290   25.7860 C   0  0  0  0  0  1  0  0  0  0  0  0
  1  6  1  0
  1 10  1  0
  3  6  1  0
  4  2  1  0
  5  3  1  0
  5  7  1  0
  6  2  1  0
  7  9  1  1
  7  4  1  0
  8  1  2  0
 11 19  1  0
 12 17  1  0
 13 14  1  0
 13 12  1  0
 15 14  1  0
 15 24  1  0
 15 16  1  0
 17 11  1  0
 17 16  1  0
 18 11  2  0
 19 10  1  0
 19 20  1  0
 21 22  2  0
 22 41  1  0
 23 22  1  0
 23 26  1  0
 24 21  1  0
 24 25  1  0
 25 23  2  0
 26 27  1  0
 27 28  2  0
 29 32  1  0
 29 28  1  0
 30 29  2  0
 31 30  1  0
 31 26  2  0
 32 33  1  0
 33 34  1  0
 34 35  2  0
 36 35  1  0
 36 40  1  0
 37 36  2  0
 38 33  2  0
 38 37  1  0
 39 38  1  0
 41 42  1  0
 42 45  1  0
 42 44  1  0
 43 41  2  0
 46 47  1  0
 46 21  1  0
 48 46  1  0
 49  7  1  0
 50 51  1  0
 50 49  1  0
 52 53  1  0
 52 51  1  0
 53 54  1  0
 54 56  1  0
 55 66  2  0
 56 61  1  0
 57 65  1  0
 57 67  1  0
 58 64  1  0
 58 60  1  0
 59 65  1  0
 60 59  1  0
 61 60  2  0
 62 63  1  0
 62 56  2  0
 63 58  2  0
 64 57  1  0
 65 55  1  0
 67 69  2  0
 68 67  1  0
 70 68  1  0
 71 80  2  0
 71 76  1  0
 72 68  1  0
 72 76  1  0
 73 72  1  0
 74 75  1  0
 74 73  1  0
 75 71  1  0
 76 77  2  0
 77 78  1  0
 79 78  2  0
 80 79  1  0
 81 55  1  0
 81 82  1  0
 81 91  1  0
 82 85  1  0
 83 87  1  0
 83 82  1  0
 84 83  2  0
 87 86  1  0
 89 87  1  0
 89 90  1  0
 89 88  1  0
 91 94  1  1
 91 92  1  0
 93 91  1  0
M  ISO  4  11 100  19 100  53 101  54 101
M  END
>  <TORSDO>  (19) 
F 22

>  <SCORE>  (19) 
-13.110

>  <name>  (19) 
19

>  <ligand_id>  (19) 
19

>  <original_smiles>  (19) 
[H]c1c([H])c([H])c2c(c1[H])C([H])([H])C([H])([H])C([H])([H])C2([H])N([H])C(=O)C1([H])N(C(=O)C([H])(N([H])C(=O)C([H])(N([H])C([H])([H])[H])C([H])([H])[H])C(C([H])([H])[H])(C([H])([H])[H])C([H])([H])[H])C([H])([H])c2c([H])c(OC([H])([H])C([H])([H])OC([H])([H])C([H])([H])[N+]3([H])C([H])([H])C([H])([H])N(C(=O)C([H])([H])N([H])C(=O)N4C([H])([H])C([H])([H])C([H])([H])C([H])(n5nc(-c6c([H])c([H])c(Oc7c([H])c([H])c(F)c([H])c7F)c([H])c6[H])c(C(=O)N([H])[H])c5N([H])[H])C4([H])[H])C([H])([H])C3([H])[H])c([H])c([H])c2C1([H])[H]

>  <smiles>  (19) 
[H]c1c([H])c([H])c2c(c1[H])C([H])([H])C([H])([H])C([H])([H])C2([H])N([H])C(=O)C1([H])N(C(=O)C([H])(N([H])C(=O)C([H])(N([H])C([H])([H])[H])C([H])([H])[H])C(C([H])([H])[H])(C([H])([H])[H])C([H])([H])[H])C([H])([H])c2c([H])c(OC([H])([H])C([H])([H])OC([H])([H])C([H])([H])[N+]3([H])C([H])([H])C([H])([H])N(C(=O)C([H])([H])N([H])C(=O)N4C([H])([H])C([H])([H])C([H])([H])C([H])(n5nc(-c6c([H])c([H])c(Oc7c([H])c([H])c(F)c([H])c7F)c([H])c6[H])c(C(=O)N([H])[H])c5N([H])[H])C4([H])[H])C([H])([H])C3([H])[H])c([H])c([H])c2C1([H])[H]

$$$$
20:0:0
     RDKit          3D

111118  0  0  1  0  0  0  0  0999 V2000
  -25.3110  -13.1230   15.5630 C   0  0  0  0  0  0  0  0  0  0  0  0
  -24.0550  -13.1880   16.0470 N   0  0  0  0  0  0  0  0  0  0  0  0
  -25.9990  -12.1020   15.6460 O   0  0  0  0  0  0  0  0  0  0  0  0
  -23.5440  -14.0540   15.9410 H   0  0  0  0  0  0  0  0  0  0  0  0
  -23.4010  -12.1070   16.7970 C   0  0  0  0  0  2  0  0  0  0  0  0
  -21.8590  -12.1710   16.7890 C   0  0  0  0  0  2  0  0  0  0  0  0
  -21.3730  -12.6340   18.0610 O   0  0  0  0  0  0  0  0  0  0  0  0
  -19.9360  -12.6380   18.2310 C   0  0  0  0  0  2  0  0  0  0  0  0
  -19.3240  -11.5330   19.1820 C   0  0  0  0  0  2  0  0  0  0  0  0
  -19.5860  -11.6030   20.6170 O   0  0  0  0  0  0  0  0  0  0  0  0
  -19.1470  -10.3820   21.2810 C   0  0  0  0  0  2  0  0  0  0  0  0
  -19.0440  -10.2860   22.8450 C   0  0  0  0  0  2  0  0  0  0  0  0
  -20.2410   -9.9030   23.5980 O   0  0  0  0  0  0  0  0  0  0  0  0
  -21.2660  -10.8890   23.5860 C   0  0  0  0  0  2  0  0  0  0  0  0
  -22.6180  -10.7710   24.3810 C   0  0  0  0  0  2  0  0  0  0  0  0
  -23.6490  -11.6490   23.8180 O   0  0  0  0  0  0  0  0  0  0  0  0
  -24.5140  -12.4350   24.6910 C   0  0  0  0  0  2  0  0  0  0  0  0
  -26.0230  -12.5780   24.1950 C   0  0  0  0  0  2  0  0  0  0  0  0
  -26.5080  -13.8040   23.5550 O   0  0  0  0  0  0  0  0  0  0  0  0
  -27.9350  -14.1310   23.7240 C   0  0  0  0  0  2  0  0  0  0  0  0
  -28.6860  -15.0330   22.6230 C   0  0  0  0  0  2  0  0  0  0  0  0
  -30.5630  -14.2480   20.9350 C   0  0  0  0  0  0  0  0  0  0  0  0
  -30.4910  -12.3130   19.3520 C   0  0  0  0  0  2  0  0  0  0  0  0
  -29.5270  -12.5500   18.1620 C   0  0  0  0  0  2  0  0  0  0  0  0
  -28.0310  -12.4220   18.5420 C   0  0  0  0  0  2  0  0  0  0  0  0
  -27.6970  -13.1330   19.8680 C   0  0  0  0  0  3  0  0  0  0  0  0
  -28.6950  -12.5950   20.8820 C   0  0  0  0  0  2  0  0  0  0  0  0
  -30.0170  -13.0850   20.5150 N   0  0  0  0  0  0  0  0  0  0  0  0
  -31.5540  -14.7350   20.3710 O   0  0  0  0  0  0  0  0  0  0  0  0
  -30.0820  -14.6920   22.1540 N   0  0  0  0  0  0  0  0  0  0  0  0
  -30.7560  -15.3120   22.5740 H   0  0  0  0  0  0  0  0  0  0  0  0
  -25.3040  -13.7970   20.5390 C   0  0  0  0  0  0  0  0  0  0  0  0
  -24.2090  -13.0590   20.8720 C   0  0  0  0  0  0  0  0  0  0  0  0
  -24.6380  -11.6880   20.8590 C   0  0  0  0  0  0  0  0  0  0  0  0
  -26.3220  -12.8910   20.3130 N   0  0  0  0  0  0  0  0  0  0  0  0
  -25.9280  -11.6190   20.5690 N   0  0  0  0  0  0  0  0  0  0  0  0
  -23.8990  -10.4290   21.0020 C   0  0  0  0  0  0  0  0  0  0  0  0
  -24.3660   -9.4170   21.8670 C   0  0  0  0  0  3  0  0  0  0  0  0
  -23.6630   -8.2170   22.0230 C   0  0  0  0  0  3  0  0  0  0  0  0
  -22.4840   -7.9870   21.2830 C   0  0  0  0  0  0  0  0  0  0  0  0
  -22.1060   -8.9350   20.3180 C   0  0  0  0  0  3  0  0  0  0  0  0
  -22.7500  -10.1800   20.2300 C   0  0  0  0  0  3  0  0  0  0  0  0
  -21.6970   -6.8670   21.4090 O   0  0  0  0  0  0  0  0  0  0  0  0
  -21.7160   -6.0690   22.5260 C   0  0  0  0  0  0  0  0  0  0  0  0
  -21.4340   -6.5560   23.8230 C   0  0  0  0  0  3  0  0  0  0  0  0
  -21.3490   -5.6550   24.9040 C   0  0  0  0  0  3  0  0  0  0  0  0
  -21.6010   -4.2820   24.7030 C   0  0  0  0  0  0  0  0  0  0  0  0
  -21.8900   -3.7980   23.4180 C   0  0  0  0  0  3  0  0  0  0  0  0
  -21.9330   -4.6850   22.3320 C   0  0  0  0  0  0  0  0  0  0  0  0
  -22.1700   -4.2100   21.0870 F   0  0  0  0  0  0  0  0  0  0  0  0
  -21.5610   -3.4330   25.7540 F   0  0  0  0  0  0  0  0  0  0  0  0
  -22.8250  -13.5880   21.0780 C   0  0  0  0  0  0  0  0  0  0  0  0
  -22.0910  -13.0210   21.9890 N   0  0  0  0  0  0  0  0  0  0  0  0
  -22.4050  -14.5890   20.5030 O   0  0  0  0  0  0  0  0  0  0  0  0
  -22.5500  -12.3830   22.6390 H   0  0  0  0  0  0  0  0  0  0  0  0
  -21.1280  -13.2860   22.1150 H   0  0  0  0  0  0  0  0  0  0  0  0
  -25.5100  -15.1640   20.3710 N   0  0  0  0  0  0  0  0  0  0  0  0
  -24.8280  -15.8680   20.5990 H   0  0  0  0  0  0  0  0  0  0  0  0
  -26.3930  -15.5460   20.0760 H   0  0  0  0  0  0  0  0  0  0  0  0
  -25.8720  -14.3650   14.8510 C   0  0  0  0  0  2  0  0  0  0  0  0
  -27.2600  -14.8420   15.3600 C   0  0  0  0  0  2  0  0  0  0  0  0
  -27.1880  -15.8810   16.5030 C   0  0  0  0  0  2  0  0  0  0  0  0
  -28.3700  -16.8930   16.5180 C   0  0  0  0  0  2  0  0  0  0  0  0
  -28.2400  -18.0000   17.6020 C   0  0  0  0  0  2  0  0  0  0  0  0
  -29.0780  -19.3010   17.3940 C   0  0  0  0  0  2  0  0  0  0  0  0
  -28.7380  -20.4140   18.4280 C   0  0  0  0  0  2  0  0  0  0  0  0
  -29.2450  -21.8570   18.1170 C   0  0  0  0  0  2  0  0  0  0  0  0
  -28.7180  -22.8980   19.1540 C   0  0  0  0  0  2  0  0  0  0  0  0
  -28.9390  -24.4260   18.9080 C   0  0  0  0  0  2  0  0  0  0  0  0
  -28.3850  -25.2730   20.0990 C   0  0  0  0  0  2  0  0  0  0  0  0
  -28.4340  -26.7110   19.9730 O   0  0  0  0  0  0  0  0  0  0  0  0
  -24.6180  -31.8660   23.2100 C   0  0  0  0  0  0  0  0  0  0  0  0
  -27.2490  -27.4290   20.0440 C   0  0  0  0  0  0  0  0  0  0  0  0
  -23.4070  -30.4890   21.5530 C   0  0  0  0  0  3  0  0  0  0  0  0
  -24.8520  -28.9520   20.1170 C   0  0  0  0  0  0  0  0  0  0  0  0
  -25.9400  -30.8180   21.3710 C   0  0  0  0  0  2  0  0  0  0  0  0
  -26.0160  -29.4560   20.7070 C   0  0  0  0  0  0  0  0  0  0  0  0
  -27.2170  -28.7040   20.6640 C   0  0  0  0  0  3  0  0  0  0  0  0
  -26.0600  -26.9400   19.4590 C   0  0  0  0  0  3  0  0  0  0  0  0
  -24.8700  -27.6910   19.4940 C   0  0  0  0  0  3  0  0  0  0  0  0
  -23.6150  -29.8220   20.1690 C   0  0  0  0  0  2  0  0  0  0  0  0
  -24.6730  -31.0720   22.1020 N   0  0  0  0  0  0  0  0  0  0  0  0
  -23.5350  -32.1430   23.7500 O   0  0  0  0  0  0  0  0  0  0  0  0
  -22.7410  -29.4640   22.5010 C   0  0  0  0  0  0  0  0  0  0  0  0
  -21.4140  -29.3000   22.3750 N   0  0  0  0  0  0  0  0  0  0  0  0
  -23.4190  -28.8150   23.3050 O   0  0  0  0  0  0  0  0  0  0  0  0
  -20.9300  -29.8770   21.6980 H   0  0  0  0  0  0  0  0  0  0  0  0
  -18.0290  -28.1360   22.8480 C   0  0  0  0  0  0  0  0  0  0  0  0
  -20.5850  -28.3630   23.1330 C   0  0  0  0  0  3  0  0  0  0  0  0
  -20.6760  -26.9380   22.5410 C   0  0  0  0  0  2  0  0  0  0  0  0
  -19.5740  -26.6370   21.5200 C   0  0  0  0  0  2  0  0  0  0  0  0
  -18.1920  -26.7910   22.1610 C   0  0  0  0  0  2  0  0  0  0  0  0
  -19.1520  -28.8830   23.2900 C   0  0  0  0  0  0  0  0  0  0  0  0
  -18.9460  -30.1420   23.8920 C   0  0  0  0  0  3  0  0  0  0  0  0
  -17.6440  -30.6570   24.0570 C   0  0  0  0  0  3  0  0  0  0  0  0
  -16.5350  -29.9060   23.6310 C   0  0  0  0  0  3  0  0  0  0  0  0
  -16.7260  -28.6490   23.0350 C   0  0  0  0  0  3  0  0  0  0  0  0
  -25.9050  -32.4810   23.8410 C   0  0  0  0  0  3  0  0  0  0  0  0
  -26.4480  -31.6600   25.0750 C   0  0  1  0  0  0  0  0  0  0  0  0
  -25.3740  -31.3750   26.1510 C   0  0  0  0  0  1  0  0  0  0  0  0
  -27.0270  -30.3020   24.6140 C   0  0  0  0  0  1  0  0  0  0  0  0
  -27.6070  -32.4320   25.7490 C   0  0  0  0  0  1  0  0  0  0  0  0
  -25.5910  -33.8610   24.2330 N   0  0  0  0  0  0  0  0  0  0  0  0
  -25.9040  -34.9480   23.5120 C   0  0  0  0  0  0  0  0  0  0  0  0
  -26.5590  -34.8920   22.4680 O   0  0  0  0  0  0  0  0  0  0  0  0
  -25.0080  -33.9780   25.0490 H   0  0  0  0  0  0  0  0  0  0  0  0
  -24.1490  -36.7320   23.2630 C   0  0  0  0  0  1  0  0  0  0  0  0
  -25.4110  -36.3100   24.0330 C   0  0  0  0  0  3  0  0  0  0  0  0
  -27.5590  -37.1810   24.8460 C   0  0  0  0  0  1  0  0  0  0  0  0
  -26.4300  -37.3790   23.9420 N   0  0  0  0  0  0  0  0  0  0  0  0
  -26.0190  -38.2870   24.1410 H   0  0  0  0  0  0  0  0  0  0  0  0
  1  3  2  0
  1  2  1  0
  2  5  1  0
  4  2  1  0
  6  5  1  0
  6  7  1  0
  7  8  1  0
  8  9  1  0
  9 10  1  0
 10 11  1  0
 11 12  1  0
 12 13  1  0
 14 13  1  0
 14 15  1  0
 16 15  1  0
 16 17  1  0
 18 17  1  0
 19 20  1  0
 19 18  1  0
 21 20  1  0
 22 30  1  0
 23 28  1  0
 24 25  1  0
 24 23  1  0
 26 25  1  0
 26 35  1  0
 26 27  1  0
 28 27  1  0
 28 22  1  0
 29 22  2  0
 30 31  1  0
 30 21  1  0
 32 33  2  0
 33 52  1  0
 34 33  1  0
 34 37  1  0
 35 32  1  0
 35 36  1  0
 36 34  2  0
 37 38  1  0
 38 39  2  0
 40 43  1  0
 40 39  1  0
 41 40  2  0
 42 41  1  0
 42 37  2  0
 43 44  1  0
 44 45  1  0
 45 46  2  0
 47 46  1  0
 47 51  1  0
 48 47  2  0
 49 44  2  0
 49 48  1  0
 50 49  1  0
 52 53  1  0
 53 56  1  0
 53 55  1  0
 54 52  2  0
 57 32  1  0
 57 58  1  0
 59 57  1  0
 60 61  1  0
 60  1  1  0
 61 62  1  0
 62 63  1  0
 63 64  1  0
 65 64  1  0
 65 66  1  0
 67 66  1  0
 67 68  1  0
 69 68  1  0
 69 70  1  0
 71 73  1  0
 71 70  1  0
 72 83  2  0
 73 78  1  0
 74 82  1  0
 74 84  1  0
 75 81  1  0
 75 77  1  0
 76 82  1  0
 77 76  1  0
 78 77  2  0
 79 80  1  0
 79 73  2  0
 80 75  2  0
 81 74  1  0
 82 72  1  0
 84 86  2  0
 85 84  1  0
 87 85  1  0
 88 97  2  0
 88 93  1  0
 89 85  1  0
 89 93  1  0
 90 89  1  0
 91 92  1  0
 91 90  1  0
 92 88  1  0
 93 94  2  0
 94 95  1  0
 96 95  2  0
 97 96  1  0
 98 72  1  0
 98103  1  0
 98 99  1  0
 99102  1  1
 99100  1  0
101 99  1  0
103106  1  0
104108  1  0
104103  1  0
105104  2  0
108107  1  0
110108  1  0
110111  1  0
110109  1  0
M  ISO  4  22 100  30 100  70 101  71 101
M  END
>  <TORSDO>  (20) 
F 44

>  <SCORE>  (20) 
64.583

>  <name>  (20) 
20

>  <ligand_id>  (20) 
20

>  <original_smiles>  (20) 
[H]c1c([H])c([H])c2c(c1[H])C([H])([H])C([H])([H])C([H])([H])C2([H])N([H])C(=O)C1([H])N(C(=O)C([H])(N([H])C(=O)C([H])(N([H])C([H])([H])[H])C([H])([H])[H])C(C([H])([H])[H])(C([H])([H])[H])C([H])([H])[H])C([H])([H])c2c([H])c(OC([H])([H])C([H])([H])C([H])([H])C([H])([H])C([H])([H])C([H])([H])C([H])([H])C([H])([H])C([H])([H])C([H])([H])C([H])([H])C(=O)N([H])C([H])([H])C([H])([H])OC([H])([H])C([H])([H])OC([H])([H])C([H])([H])OC([H])([H])C([H])([H])OC([H])([H])C([H])([H])OC([H])([H])C([H])([H])N([H])C(=O)N3C([H])([H])C([H])([H])C([H])([H])C([H])(n4nc(-c5c([H])c([H])c(Oc6c([H])c([H])c(F)c([H])c6F)c([H])c5[H])c(C(=O)N([H])[H])c4N([H])[H])C3([H])[H])c([H])c([H])c2C1([H])[H]

>  <smiles>  (20) 
[H]c1c([H])c([H])c2c(c1[H])C([H])([H])C([H])([H])C([H])([H])C2([H])N([H])C(=O)C1([H])N(C(=O)C([H])(N([H])C(=O)C([H])(N([H])C([H])([H])[H])C([H])([H])[H])C(C([H])([H])[H])(C([H])([H])[H])C([H])([H])[H])C([H])([H])c2c([H])c(OC([H])([H])C([H])([H])C([H])([H])C([H])([H])C([H])([H])C([H])([H])C([H])([H])C([H])([H])C([H])([H])C([H])([H])C([H])([H])C(=O)N([H])C([H])([H])C([H])([H])OC([H])([H])C([H])([H])OC([H])([H])C([H])([H])OC([H])([H])C([H])([H])OC([H])([H])C([H])([H])OC([H])([H])C([H])([H])N([H])C(=O)N3C([H])([H])C([H])([H])C([H])([H])C([H])(n4nc(-c5c([H])c([H])c(Oc6c([H])c([H])c(F)c([H])c6F)c([H])c5[H])c(C(=O)N([H])[H])c4N([H])[H])C3([H])[H])c([H])c([H])c2C1([H])[H]

$$$$
22:0:0
     RDKit          3D

108115  0  0  1  0  0  0  0  0999 V2000
  -24.3500  -17.9500   23.2240 C   0  0  0  0  0  2  0  0  0  0  0  0
  -24.9750  -16.8290   24.0750 C   0  0  0  0  0  2  0  0  0  0  0  0
  -25.4520  -17.3440   25.4440 C   0  0  0  0  0  2  0  0  0  0  0  0
  -26.8460  -17.8190   25.3580 N   0  0  0  0  0  4  0  0  0  0  0  0
  -26.9640  -18.3100   24.4840 H   0  0  0  0  0  0  0  0  0  0  0  0
  -27.4710  -17.0280   25.3420 H   0  0  0  0  0  0  0  0  0  0  0  0
  -27.2720  -18.7820   26.3950 C   0  0  0  0  0  2  0  0  0  0  0  0
  -28.7990  -18.7480   26.4940 C   0  0  0  0  0  2  0  0  0  0  0  0
  -29.2740  -19.2090   25.2340 O   0  0  0  0  0  0  0  0  0  0  0  0
  -30.6800  -19.4060   25.1900 C   0  0  0  0  0  2  0  0  0  0  0  0
  -31.0300  -20.0360   23.8360 C   0  0  0  0  0  2  0  0  0  0  0  0
  -30.9370  -19.0230   22.8400 O   0  0  0  0  0  0  0  0  0  0  0  0
  -31.4170  -19.4420   21.5670 C   0  0  0  0  0  2  0  0  0  0  0  0
  -31.3600  -18.2450   20.6140 C   0  0  0  0  0  2  0  0  0  0  0  0
  -32.3520  -17.3000   20.9950 O   0  0  0  0  0  0  0  0  0  0  0  0
  -32.0100  -15.9840   20.6040 C   0  0  0  0  0  2  0  0  0  0  0  0
  -33.1790  -15.0260   20.8710 C   0  0  0  0  0  2  0  0  0  0  0  0
  -32.7990  -12.7950   19.8270 C   0  0  0  0  0  0  0  0  0  0  0  0
  -31.8010  -10.7930   18.7910 C   0  0  0  0  0  2  0  0  0  0  0  0
  -30.8290  -11.1800   17.6620 C   0  0  0  0  0  2  0  0  0  0  0  0
  -29.4210  -11.4750   18.2150 C   0  0  0  0  0  2  0  0  0  0  0  0
  -29.4530  -12.4610   19.4140 C   0  0  0  0  0  3  0  0  0  0  0  0
  -30.4950  -11.9980   20.4550 C   0  0  0  0  0  2  0  0  0  0  0  0
  -31.8110  -11.8680   19.7900 N   0  0  0  0  0  0  0  0  0  0  0  0
  -33.7490  -12.8340   19.0400 O   0  0  0  0  0  0  0  0  0  0  0  0
  -32.6650  -13.6670   20.8250 N   0  0  0  0  0  0  0  0  0  0  0  0
  -31.9340  -13.4470   21.4870 H   0  0  0  0  0  0  0  0  0  0  0  0
  -27.4820  -13.7700   20.4420 C   0  0  0  0  0  0  0  0  0  0  0  0
  -26.2430  -13.3720   20.8670 C   0  0  0  0  0  0  0  0  0  0  0  0
  -26.1950  -11.9560   20.6670 C   0  0  0  0  0  0  0  0  0  0  0  0
  -28.1290  -12.6180   20.0160 N   0  0  0  0  0  0  0  0  0  0  0  0
  -27.3570  -11.5180   20.2030 N   0  0  0  0  0  0  0  0  0  0  0  0
  -25.0900  -11.0040   20.8350 C   0  0  0  0  0  0  0  0  0  0  0  0
  -25.2680   -9.7790   21.5150 C   0  0  0  0  0  3  0  0  0  0  0  0
  -24.1890   -8.8850   21.6740 C   0  0  0  0  0  3  0  0  0  0  0  0
  -22.9130   -9.2130   21.1560 C   0  0  0  0  0  0  0  0  0  0  0  0
  -22.7470  -10.4220   20.4590 C   0  0  0  0  0  3  0  0  0  0  0  0
  -23.8250  -11.3090   20.2960 C   0  0  0  0  0  3  0  0  0  0  0  0
  -21.8110   -8.3970   21.2420 O   0  0  0  0  0  0  0  0  0  0  0  0
  -21.7180   -7.4140   22.1940 C   0  0  0  0  0  0  0  0  0  0  0  0
  -21.7790   -7.7050   23.5740 C   0  0  0  0  0  3  0  0  0  0  0  0
  -21.6070   -6.6740   24.5190 C   0  0  0  0  0  3  0  0  0  0  0  0
  -21.3660   -5.3550   24.0870 C   0  0  0  0  0  0  0  0  0  0  0  0
  -21.2990   -5.0650   22.7140 C   0  0  0  0  0  3  0  0  0  0  0  0
  -21.4710   -6.0930   21.7700 C   0  0  0  0  0  0  0  0  0  0  0  0
  -21.3860   -5.8110   20.4480 F   0  0  0  0  0  0  0  0  0  0  0  0
  -21.1920   -4.3660   24.9940 F   0  0  0  0  0  0  0  0  0  0  0  0
  -25.1290  -14.2590   21.3390 C   0  0  0  0  0  0  0  0  0  0  0  0
  -24.2790  -13.7570   22.2300 N   0  0  0  0  0  0  0  0  0  0  0  0
  -25.0330  -15.4230   20.9540 O   0  0  0  0  0  0  0  0  0  0  0  0
  -24.3680  -12.8080   22.5600 H   0  0  0  0  0  0  0  0  0  0  0  0
  -23.5260  -14.3320   22.5770 H   0  0  0  0  0  0  0  0  0  0  0  0
  -28.1080  -15.0110   20.3670 N   0  0  0  0  0  0  0  0  0  0  0  0
  -27.6260  -15.8700   20.6010 H   0  0  0  0  0  0  0  0  0  0  0  0
  -29.0170  -15.1630   19.9520 H   0  0  0  0  0  0  0  0  0  0  0  0
  -24.4660  -17.7060   21.7150 C   0  0  0  0  0  2  0  0  0  0  0  0
  -23.9320  -18.8990   20.9050 C   0  0  0  0  0  2  0  0  0  0  0  0
  -24.4150  -18.9070   19.4520 C   0  0  0  0  0  2  0  0  0  0  0  0
  -25.8050  -19.1900   19.4370 O   0  0  0  0  0  0  0  0  0  0  0  0
  -26.2910  -19.4680   18.1340 C   0  0  0  0  0  2  0  0  0  0  0  0
  -27.7970  -19.7380   18.2170 C   0  0  0  0  0  2  0  0  0  0  0  0
  -28.1310  -20.9630   19.0850 C   0  0  0  0  0  2  0  0  0  0  0  0
  -29.6400  -21.2320   19.1700 C   0  0  0  0  0  2  0  0  0  0  0  0
  -29.9880  -22.3810   20.1250 C   0  0  0  0  0  2  0  0  0  0  0  0
  -29.4430  -23.5900   19.6150 O   0  0  0  0  0  0  0  0  0  0  0  0
  -29.8820  -24.7300   20.3400 C   0  0  0  0  0  2  0  0  0  0  0  0
  -29.2750  -26.0100   19.7410 C   0  0  0  0  0  2  0  0  0  0  0  0
  -28.7940  -26.8440   20.7950 O   0  0  0  0  0  0  0  0  0  0  0  0
  -24.5860  -31.9510   23.3370 C   0  0  0  0  0  0  0  0  0  0  0  0
  -27.5740  -27.4680   20.6660 C   0  0  0  0  0  0  0  0  0  0  0  0
  -23.5300  -30.4160   21.7080 C   0  0  0  0  0  3  0  0  0  0  0  0
  -25.1190  -28.8530   20.4690 C   0  0  0  0  0  0  0  0  0  0  0  0
  -26.0460  -30.8580   21.6420 C   0  0  0  0  0  2  0  0  0  0  0  0
  -26.2160  -29.4570   21.0940 C   0  0  0  0  0  0  0  0  0  0  0  0
  -27.4390  -28.7660   21.2020 C   0  0  0  0  0  3  0  0  0  0  0  0
  -26.4500  -26.8560   20.0640 C   0  0  0  0  0  3  0  0  0  0  0  0
  -25.2280  -27.5470   19.9590 C   0  0  0  0  0  3  0  0  0  0  0  0
  -23.8460  -29.6640   20.3860 C   0  0  0  0  0  2  0  0  0  0  0  0
  -24.7340  -31.0940   22.2880 N   0  0  0  0  0  0  0  0  0  0  0  0
  -23.4650  -32.2150   23.7930 O   0  0  0  0  0  0  0  0  0  0  0  0
  -22.8540  -29.4280   22.6850 C   0  0  0  0  0  0  0  0  0  0  0  0
  -21.5460  -29.2010   22.4930 N   0  0  0  0  0  0  0  0  0  0  0  0
  -23.5070  -28.8660   23.5680 O   0  0  0  0  0  0  0  0  0  0  0  0
  -21.0820  -29.7060   21.7510 H   0  0  0  0  0  0  0  0  0  0  0  0
  -18.1790  -27.9450   22.8640 C   0  0  0  0  0  0  0  0  0  0  0  0
  -20.7090  -28.2820   23.2650 C   0  0  0  0  0  3  0  0  0  0  0  0
  -20.8790  -26.8280   22.7700 C   0  0  0  0  0  2  0  0  0  0  0  0
  -19.8440  -26.4260   21.7140 C   0  0  0  0  0  2  0  0  0  0  0  0
  -18.4250  -26.5690   22.2720 C   0  0  0  0  0  2  0  0  0  0  0  0
  -19.2540  -28.7570   23.3160 C   0  0  0  0  0  0  0  0  0  0  0  0
  -18.9730  -30.0440   23.8250 C   0  0  0  0  0  3  0  0  0  0  0  0
  -17.6500  -30.5190   23.8890 C   0  0  0  0  0  3  0  0  0  0  0  0
  -16.5890  -29.7070   23.4560 C   0  0  0  0  0  3  0  0  0  0  0  0
  -16.8540  -28.4210   22.9500 C   0  0  0  0  0  3  0  0  0  0  0  0
  -25.8110  -32.6590   23.9960 C   0  0  0  0  0  3  0  0  0  0  0  0
  -26.2640  -31.9860   25.3500 C   0  0  1  0  0  0  0  0  0  0  0  0
  -25.1130  -31.7910   26.3630 C   0  0  0  0  0  1  0  0  0  0  0  0
  -26.9010  -30.6020   25.0840 C   0  0  0  0  0  1  0  0  0  0  0  0
  -27.3550  -32.8510   26.0260 C   0  0  0  0  0  1  0  0  0  0  0  0
  -25.4460  -34.0650   24.2110 N   0  0  0  0  0  0  0  0  0  0  0  0
  -25.8320  -35.0790   23.4250 C   0  0  0  0  0  0  0  0  0  0  0  0
  -26.6030  -34.9320   22.4720 O   0  0  0  0  0  0  0  0  0  0  0  0
  -24.7720  -34.2520   24.9390 H   0  0  0  0  0  0  0  0  0  0  0  0
  -24.1230  -36.8090   22.7810 C   0  0  0  0  0  1  0  0  0  0  0  0
  -25.2730  -36.4790   23.7460 C   0  0  0  0  0  3  0  0  0  0  0  0
  -27.2920  -37.4510   24.7510 C   0  0  0  0  0  1  0  0  0  0  0  0
  -26.2950  -37.5470   23.6870 N   0  0  0  0  0  0  0  0  0  0  0  0
  -25.8600  -38.4640   23.7410 H   0  0  0  0  0  0  0  0  0  0  0  0
  1  2  1  0
  2  3  1  0
  4  3  1  0
  4  7  1  0
  5  4  1  0
  6  4  1  0
  7  8  1  0
  9  8  1  0
 10  9  1  0
 11 10  1  0
 12 11  1  0
 13 12  1  0
 14 15  1  0
 14 13  1  0
 16 17  1  0
 16 15  1  0
 18 26  1  0
 19 24  1  0
 20 21  1  0
 20 19  1  0
 22 21  1  0
 22 31  1  0
 22 23  1  0
 24 18  1  0
 24 23  1  0
 25 18  2  0
 26 17  1  0
 26 27  1  0
 28 29  2  0
 29 48  1  0
 30 33  1  0
 30 29  1  0
 31 32  1  0
 31 28  1  0
 32 30  2  0
 33 34  1  0
 34 35  2  0
 36 39  1  0
 36 35  1  0
 37 36  2  0
 38 37  1  0
 38 33  2  0
 39 40  1  0
 40 41  1  0
 41 42  2  0
 43 42  1  0
 43 47  1  0
 44 43  2  0
 45 40  2  0
 45 44  1  0
 46 45  1  0
 48 49  1  0
 49 51  1  0
 49 52  1  0
 50 48  2  0
 53 28  1  0
 53 54  1  0
 55 53  1  0
 56  1  1  0
 57 56  1  0
 58 57  1  0
 59 58  1  0
 60 61  1  0
 60 59  1  0
 61 62  1  0
 62 63  1  0
 63 64  1  0
 65 64  1  0
 65 66  1  0
 67 66  1  0
 67 68  1  0
 69 80  2  0
 70 68  1  0
 70 75  1  0
 71 79  1  0
 71 81  1  0
 72 74  1  0
 73 79  1  0
 74 75  2  0
 74 73  1  0
 76 70  2  0
 77 76  1  0
 77 72  2  0
 78 72  1  0
 78 71  1  0
 79 69  1  0
 81 83  2  0
 82 81  1  0
 84 82  1  0
 85 94  2  0
 85 90  1  0
 86 82  1  0
 86 90  1  0
 87 86  1  0
 88 89  1  0
 88 87  1  0
 89 85  1  0
 90 91  2  0
 91 92  1  0
 93 92  2  0
 94 93  1  0
 95 69  1  0
 95100  1  0
 95 96  1  0
 96 99  1  1
 96 97  1  0
 98 96  1  0
100103  1  0
101105  1  0
101100  1  0
102101  2  0
105104  1  0
107108  1  0
107105  1  0
107106  1  0
M  ISO  4  18 100  26 100  67 101  68 101
M  END
>  <TORSDO>  (21) 
F 42

>  <SCORE>  (21) 
21.928

>  <name>  (21) 
22

>  <ligand_id>  (21) 
22

>  <original_smiles>  (21) 
[H]c1c([H])c([H])c2c(c1[H])C([H])([H])C([H])([H])C([H])([H])C2([H])N([H])C(=O)C1([H])N(C(=O)C([H])(N([H])C(=O)C([H])(N([H])C([H])([H])[H])C([H])([H])[H])C(C([H])([H])[H])(C([H])([H])[H])C([H])([H])[H])C([H])([H])c2c([H])c(OC([H])([H])C([H])([H])OC([H])([H])C([H])([H])C([H])([H])C([H])([H])C([H])([H])OC([H])([H])C([H])([H])C([H])([H])C([H])([H])C([H])([H])C([H])([H])[N+]([H])([H])C([H])([H])C([H])([H])OC([H])([H])C([H])([H])OC([H])([H])C([H])([H])OC([H])([H])C([H])([H])N([H])C(=O)N3C([H])([H])C([H])([H])C([H])([H])C([H])(n4nc(-c5c([H])c([H])c(Oc6c([H])c([H])c(F)c([H])c6F)c([H])c5[H])c(C(=O)N([H])[H])c4N([H])[H])C3([H])[H])c([H])c([H])c2C1([H])[H]

>  <smiles>  (21) 
[H]c1c([H])c([H])c2c(c1[H])C([H])([H])C([H])([H])C([H])([H])C2([H])N([H])C(=O)C1([H])N(C(=O)C([H])(N([H])C(=O)C([H])(N([H])C([H])([H])[H])C([H])([H])[H])C(C([H])([H])[H])(C([H])([H])[H])C([H])([H])[H])C([H])([H])c2c([H])c(OC([H])([H])C([H])([H])OC([H])([H])C([H])([H])C([H])([H])C([H])([H])C([H])([H])OC([H])([H])C([H])([H])C([H])([H])C([H])([H])C([H])([H])C([H])([H])[N+]([H])([H])C([H])([H])C([H])([H])OC([H])([H])C([H])([H])OC([H])([H])C([H])([H])OC([H])([H])C([H])([H])N([H])C(=O)N3C([H])([H])C([H])([H])C([H])([H])C([H])(n4nc(-c5c([H])c([H])c(Oc6c([H])c([H])c(F)c([H])c6F)c([H])c5[H])c(C(=O)N([H])[H])c4N([H])[H])C3([H])[H])c([H])c([H])c2C1([H])[H]

$$$$
23:0:0
     RDKit          3D

112119  0  0  1  0  0  0  0  0999 V2000
  -22.6750  -25.5800   11.5270 C   0  0  0  0  0  2  0  0  0  0  0  0
  -23.4740  -25.1150   13.8420 C   0  0  0  0  0  0  0  0  0  0  0  0
  -23.0060  -25.9490   12.9050 N   0  0  0  0  0  0  0  0  0  0  0  0
  -23.7160  -23.9290   13.6070 O   0  0  0  0  0  0  0  0  0  0  0  0
  -22.8120  -26.9010   13.1890 H   0  0  0  0  0  0  0  0  0  0  0  0
  -23.6850  -25.7050   15.2450 C   0  0  0  0  0  2  0  0  0  0  0  0
  -24.9360  -24.1370   16.7190 C   0  0  0  0  0  0  0  0  0  0  0  0
  -23.7940  -24.6550   16.2560 N   0  0  0  0  0  0  0  0  0  0  0  0
  -26.0420  -24.5810   16.4020 O   0  0  0  0  0  0  0  0  0  0  0  0
  -22.9320  -24.2120   16.5400 H   0  0  0  0  0  0  0  0  0  0  0  0
  -24.8080  -22.9450   17.6760 C   0  0  0  0  0  2  0  0  0  0  0  0
  -26.0730  -22.3090   17.8330 O   0  0  0  0  0  0  0  0  0  0  0  0
  -26.0070  -21.1350   18.6270 C   0  0  0  0  0  2  0  0  0  0  0  0
  -27.4300  -20.5860   18.7890 C   0  0  0  0  0  2  0  0  0  0  0  0
  -27.4980  -19.3270   19.6630 C   0  0  0  0  0  2  0  0  0  0  0  0
  -28.8630  -18.9730   19.8240 O   0  0  0  0  0  0  0  0  0  0  0  0
  -29.0540  -17.8570   20.6820 C   0  0  0  0  0  2  0  0  0  0  0  0
  -30.5650  -17.6160   20.8260 C   0  0  0  0  0  2  0  0  0  0  0  0
  -30.9390  -16.4810   21.8010 C   0  0  0  0  0  2  0  0  0  0  0  0
  -30.8690  -14.3640   20.4760 C   0  0  0  0  0  0  0  0  0  0  0  0
  -30.4930  -12.2700   19.2300 C   0  0  0  0  0  2  0  0  0  0  0  0
  -29.5550  -12.5020   18.0300 C   0  0  0  0  0  2  0  0  0  0  0  0
  -28.0790  -12.3900   18.4560 C   0  0  0  0  0  2  0  0  0  0  0  0
  -27.7590  -13.2370   19.7160 C   0  0  0  0  0  3  0  0  0  0  0  0
  -28.7980  -12.9680   20.8270 C   0  0  0  0  0  2  0  0  0  0  0  0
  -30.1420  -13.2350   20.2810 N   0  0  0  0  0  0  0  0  0  0  0  0
  -31.9020  -14.6280   19.8550 O   0  0  0  0  0  0  0  0  0  0  0  0
  -30.3800  -15.1890   21.4110 N   0  0  0  0  0  0  0  0  0  0  0  0
  -29.5540  -14.8750   21.8980 H   0  0  0  0  0  0  0  0  0  0  0  0
  -25.3630  -13.9010   20.3940 C   0  0  0  0  0  0  0  0  0  0  0  0
  -24.2790  -13.1540   20.7680 C   0  0  0  0  0  0  0  0  0  0  0  0
  -24.7160  -11.7940   20.7620 C   0  0  0  0  0  0  0  0  0  0  0  0
  -26.3950  -12.9980   20.1860 N   0  0  0  0  0  0  0  0  0  0  0  0
  -26.0060  -11.7260   20.4620 N   0  0  0  0  0  0  0  0  0  0  0  0
  -23.9670  -10.5470   20.9690 C   0  0  0  0  0  0  0  0  0  0  0  0
  -24.3860   -9.5830   21.9120 C   0  0  0  0  0  3  0  0  0  0  0  0
  -23.6400   -8.4000   22.1050 C   0  0  0  0  0  3  0  0  0  0  0  0
  -22.4610   -8.1740   21.3550 C   0  0  0  0  0  0  0  0  0  0  0  0
  -22.0620   -9.1270   20.4020 C   0  0  0  0  0  3  0  0  0  0  0  0
  -22.8090  -10.3010   20.2070 C   0  0  0  0  0  3  0  0  0  0  0  0
  -21.6880   -7.0440   21.4560 O   0  0  0  0  0  0  0  0  0  0  0  0
  -21.6330   -6.3110   22.6150 C   0  0  0  0  0  0  0  0  0  0  0  0
  -21.2470   -6.8870   23.8440 C   0  0  0  0  0  3  0  0  0  0  0  0
  -21.1380   -6.0810   24.9950 C   0  0  0  0  0  3  0  0  0  0  0  0
  -21.4040   -4.7010   24.9190 C   0  0  0  0  0  0  0  0  0  0  0  0
  -21.7830   -4.1250   23.6940 C   0  0  0  0  0  3  0  0  0  0  0  0
  -21.8940   -4.9270   22.5440 C   0  0  0  0  0  0  0  0  0  0  0  0
  -22.2400   -4.3630   21.3620 F   0  0  0  0  0  0  0  0  0  0  0  0
  -21.2910   -3.9260   26.0220 F   0  0  0  0  0  0  0  0  0  0  0  0
  -22.8880  -13.6600   21.0260 C   0  0  0  0  0  0  0  0  0  0  0  0
  -22.1470  -12.9920   21.9030 N   0  0  0  0  0  0  0  0  0  0  0  0
  -22.4700  -14.6820   20.4860 O   0  0  0  0  0  0  0  0  0  0  0  0
  -22.4980  -12.1650   22.3620 H   0  0  0  0  0  0  0  0  0  0  0  0
  -21.2130  -13.3140   22.1190 H   0  0  0  0  0  0  0  0  0  0  0  0
  -25.5540  -15.2660   20.1930 N   0  0  0  0  0  0  0  0  0  0  0  0
  -24.7980  -15.9350   20.2810 H   0  0  0  0  0  0  0  0  0  0  0  0
  -26.4140  -15.6760   19.8550 H   0  0  0  0  0  0  0  0  0  0  0  0
  -23.8930  -25.6330   10.5830 C   0  0  0  0  0  2  0  0  0  0  0  0
  -24.5070  -27.0390   10.4570 C   0  0  0  0  0  2  0  0  0  0  0  0
  -25.7040  -27.0530    9.5900 N   0  0  0  0  0  4  0  0  0  0  0  0
  -26.2240  -26.1980    9.6920 H   0  0  0  0  0  0  0  0  0  0  0  0
  -25.3840  -27.0930    8.6340 H   0  0  0  0  0  0  0  0  0  0  0  0
  -26.6160  -28.1970    9.8060 C   0  0  0  0  0  2  0  0  0  0  0  0
  -27.7760  -27.8780   10.7750 C   0  0  0  0  0  2  0  0  0  0  0  0
  -27.4060  -27.7020   12.2610 C   0  0  0  0  0  2  0  0  0  0  0  0
  -28.6560  -27.4700   13.1260 C   0  0  0  0  0  2  0  0  0  0  0  0
  -28.3290  -27.0700   14.5740 C   0  0  0  0  0  2  0  0  0  0  0  0
  -29.5390  -26.4610   15.3060 C   0  0  0  0  0  2  0  0  0  0  0  0
  -29.1810  -25.8250   16.5260 O   0  0  0  0  0  0  0  0  0  0  0  0
  -28.8460  -26.7040   17.5940 C   0  0  0  0  0  2  0  0  0  0  0  0
  -28.6370  -25.8680   18.8750 C   0  0  0  0  0  2  0  0  0  0  0  0
  -28.3750  -26.6830   20.0230 O   0  0  0  0  0  0  0  0  0  0  0  0
  -24.5720  -31.8030   23.1990 C   0  0  0  0  0  0  0  0  0  0  0  0
  -27.1740  -27.3580   20.0770 C   0  0  0  0  0  0  0  0  0  0  0  0
  -23.3450  -30.4090   21.5670 C   0  0  0  0  0  3  0  0  0  0  0  0
  -24.7750  -28.8510   20.1450 C   0  0  0  0  0  0  0  0  0  0  0  0
  -25.8720  -30.7430   21.3570 C   0  0  0  0  0  2  0  0  0  0  0  0
  -25.9390  -29.3690   20.7270 C   0  0  0  0  0  0  0  0  0  0  0  0
  -27.1370  -28.6220   20.7050 C   0  0  0  0  0  3  0  0  0  0  0  0
  -25.9830  -26.8370   19.5190 C   0  0  0  0  0  3  0  0  0  0  0  0
  -24.7890  -27.5790   19.5490 C   0  0  0  0  0  3  0  0  0  0  0  0
  -23.5400  -29.7200   20.1900 C   0  0  0  0  0  2  0  0  0  0  0  0
  -24.6160  -31.0010   22.0990 N   0  0  0  0  0  0  0  0  0  0  0  0
  -23.4970  -32.0890   23.7420 O   0  0  0  0  0  0  0  0  0  0  0  0
  -22.6900  -29.3940   22.5320 C   0  0  0  0  0  0  0  0  0  0  0  0
  -21.3630  -29.2330   22.4190 N   0  0  0  0  0  0  0  0  0  0  0  0
  -23.3730  -28.7540   23.3360 O   0  0  0  0  0  0  0  0  0  0  0  0
  -20.8730  -29.8050   21.7450 H   0  0  0  0  0  0  0  0  0  0  0  0
  -17.9760  -28.1030   22.9520 C   0  0  0  0  0  0  0  0  0  0  0  0
  -20.5400  -28.3070   23.1950 C   0  0  0  0  0  3  0  0  0  0  0  0
  -20.6060  -26.8770   22.6090 C   0  0  0  0  0  2  0  0  0  0  0  0
  -19.4860  -26.5820   21.6070 C   0  0  0  0  0  2  0  0  0  0  0  0
  -18.1150  -26.7520   22.2690 C   0  0  0  0  0  2  0  0  0  0  0  0
  -19.1140  -28.8390   23.3740 C   0  0  0  0  0  0  0  0  0  0  0  0
  -18.9300  -30.1060   23.9700 C   0  0  0  0  0  3  0  0  0  0  0  0
  -17.6380  -30.6360   24.1490 C   0  0  0  0  0  3  0  0  0  0  0  0
  -16.5140  -29.8950   23.7460 C   0  0  0  0  0  3  0  0  0  0  0  0
  -16.6830  -28.6310   23.1540 C   0  0  0  0  0  3  0  0  0  0  0  0
  -25.8690  -32.4200   23.8100 C   0  0  0  0  0  3  0  0  0  0  0  0
  -25.5740  -33.8190   24.1490 N   0  0  0  0  0  0  0  0  0  0  0  0
  -25.9100  -34.8720   23.3890 C   0  0  0  0  0  0  0  0  0  0  0  0
  -26.5730  -34.7650   22.3540 O   0  0  0  0  0  0  0  0  0  0  0  0
  -24.9880  -33.9750   24.9550 H   0  0  0  0  0  0  0  0  0  0  0  0
  -24.1890  -36.6720   23.0470 C   0  0  0  0  0  1  0  0  0  0  0  0
  -25.4320  -36.2610   23.8520 C   0  0  0  0  0  3  0  0  0  0  0  0
  -27.5800  -37.1250   24.6700 C   0  0  0  0  0  1  0  0  0  0  0  0
  -26.4710  -37.3080   23.7380 N   0  0  0  0  0  0  0  0  0  0  0  0
  -26.0720  -38.2300   23.8940 H   0  0  0  0  0  0  0  0  0  0  0  0
  -26.3920  -31.6390   25.0770 C   0  0  1  0  0  0  0  0  0  0  0  0
  -25.3080  -31.4050   26.1550 C   0  0  0  0  0  1  0  0  0  0  0  0
  -26.9600  -30.2590   24.6680 C   0  0  0  0  0  1  0  0  0  0  0  0
  -27.5540  -32.4220   25.7330 C   0  0  0  0  0  1  0  0  0  0  0  0
  1  3  1  0
  2  6  1  0
  3  5  1  0
  3  2  1  0
  4  2  2  0
  6  8  1  0
  7 11  1  0
  8 10  1  0
  8  7  1  0
  9  7  2  0
 11 12  1  0
 12 13  1  0
 13 14  1  0
 14 15  1  0
 15 16  1  0
 16 17  1  0
 17 18  1  0
 18 19  1  0
 20 28  1  0
 21 26  1  0
 22 23  1  0
 22 21  1  0
 24 23  1  0
 24 33  1  0
 24 25  1  0
 26 20  1  0
 26 25  1  0
 27 20  2  0
 28 19  1  0
 28 29  1  0
 30 31  2  0
 31 50  1  0
 32 31  1  0
 32 35  1  0
 33 30  1  0
 33 34  1  0
 34 32  2  0
 35 36  1  0
 36 37  2  0
 38 41  1  0
 38 37  1  0
 39 38  2  0
 40 39  1  0
 40 35  2  0
 41 42  1  0
 42 43  1  0
 43 44  2  0
 45 44  1  0
 45 49  1  0
 46 45  2  0
 47 42  2  0
 47 46  1  0
 48 47  1  0
 50 51  1  0
 51 54  1  0
 51 53  1  0
 52 50  2  0
 55 56  1  0
 55 30  1  0
 57 55  1  0
 58  1  1  0
 59 58  1  0
 60 61  1  0
 60 63  1  0
 60 59  1  0
 62 60  1  0
 63 64  1  0
 64 65  1  0
 65 66  1  0
 66 67  1  0
 67 68  1  0
 68 69  1  0
 69 70  1  0
 70 71  1  0
 71 72  1  0
 72 74  1  0
 73 84  2  0
 74 79  1  0
 75 83  1  0
 75 85  1  0
 76 82  1  0
 76 78  1  0
 77 83  1  0
 78 77  1  0
 79 78  2  0
 80 81  1  0
 80 74  2  0
 81 76  2  0
 82 75  1  0
 83 73  1  0
 85 87  2  0
 86 85  1  0
 88 86  1  0
 89 98  2  0
 89 94  1  0
 90 86  1  0
 90 94  1  0
 91 90  1  0
 92 93  1  0
 92 91  1  0
 93 89  1  0
 94 95  2  0
 95 96  1  0
 97 96  2  0
 98 97  1  0
 99 73  1  0
 99100  1  0
 99109  1  0
100103  1  0
101105  1  0
101100  1  0
102101  2  0
105104  1  0
107105  1  0
107108  1  0
107106  1  0
109112  1  1
109110  1  0
111109  1  0
M  ISO  4  20 100  28 100  71 101  72 101
M  END
>  <TORSDO>  (22) 
F 40

>  <SCORE>  (22) 
-9.607

>  <name>  (22) 
23

>  <ligand_id>  (22) 
23

>  <original_smiles>  (22) 
[H]c1c([H])c([H])c2c(c1[H])C([H])([H])C([H])([H])C([H])([H])C2([H])N([H])C(=O)C1([H])N(C(=O)C([H])(N([H])C(=O)C([H])(N([H])C([H])([H])[H])C([H])([H])[H])C(C([H])([H])[H])(C([H])([H])[H])C([H])([H])[H])C([H])([H])c2c([H])c(OC([H])([H])C([H])([H])OC([H])([H])C([H])([H])C([H])([H])C([H])([H])C([H])([H])C([H])([H])[N+]([H])([H])C([H])([H])C([H])([H])C([H])([H])N([H])C(=O)C([H])([H])N([H])C(=O)C([H])([H])OC([H])([H])C([H])([H])C([H])([H])OC([H])([H])C([H])([H])C([H])([H])N([H])C(=O)N3C([H])([H])C([H])([H])C([H])([H])C([H])(n4nc(-c5c([H])c([H])c(Oc6c([H])c([H])c(F)c([H])c6F)c([H])c5[H])c(C(=O)N([H])[H])c4N([H])[H])C3([H])[H])c([H])c([H])c2C1([H])[H]

>  <smiles>  (22) 
[H]c1c([H])c([H])c2c(c1[H])C([H])([H])C([H])([H])C([H])([H])C2([H])N([H])C(=O)C1([H])N(C(=O)C([H])(N([H])C(=O)C([H])(N([H])C([H])([H])[H])C([H])([H])[H])C(C([H])([H])[H])(C([H])([H])[H])C([H])([H])[H])C([H])([H])c2c([H])c(OC([H])([H])C([H])([H])OC([H])([H])C([H])([H])C([H])([H])C([H])([H])C([H])([H])C([H])([H])[N+]([H])([H])C([H])([H])C([H])([H])C([H])([H])N([H])C(=O)C([H])([H])N([H])C(=O)C([H])([H])OC([H])([H])C([H])([H])C([H])([H])OC([H])([H])C([H])([H])C([H])([H])N([H])C(=O)N3C([H])([H])C([H])([H])C([H])([H])C([H])(n4nc(-c5c([H])c([H])c(Oc6c([H])c([H])c(F)c([H])c6F)c([H])c5[H])c(C(=O)N([H])[H])c4N([H])[H])C3([H])[H])c([H])c([H])c2C1([H])[H]

$$$$
24:0:0
     RDKit          3D

 97104  0  0  1  0  0  0  0  0999 V2000
  -21.5640  -20.7450   23.8450 C   0  0  0  0  0  2  0  0  0  0  0  0
  -21.6250  -22.2700   23.7760 N   0  0  0  0  0  4  0  0  0  0  0  0
  -20.7820  -22.6920   23.4010 H   0  0  0  0  0  0  0  0  0  0  0  0
  -21.3820  -22.4610   24.7400 H   0  0  0  0  0  0  0  0  0  0  0  0
  -23.0340  -22.9240   23.5380 C   0  0  0  0  0  3  0  0  0  0  0  0
  -23.5830  -23.8920   22.3190 C   0  0  0  0  0  3  0  0  0  0  0  0
  -25.0610  -24.6400   22.5820 C   0  0  0  0  0  2  0  0  0  0  0  0
  -25.5050  -26.0590   21.7890 C   0  0  0  0  0  2  0  0  0  0  0  0
  -26.6150  -27.1780   22.1560 O   0  0  0  0  0  0  0  0  0  0  0  0
  -27.9630  -30.9000   27.9370 C   0  0  0  0  0  0  0  0  0  0  0  0
  -26.2060  -28.3760   22.7510 C   0  0  0  0  0  0  0  0  0  0  0  0
  -25.8040  -29.8030   27.4910 C   0  0  0  0  0  3  0  0  0  0  0  0
  -25.1690  -29.4940   25.0440 C   0  0  0  0  0  0  0  0  0  0  0  0
  -27.1210  -30.9180   25.5850 C   0  0  0  0  0  2  0  0  0  0  0  0
  -26.4370  -29.9310   24.6510 C   0  0  0  0  0  0  0  0  0  0  0  0
  -27.0170  -29.3100   23.4930 C   0  0  0  0  0  3  0  0  0  0  0  0
  -24.8280  -28.3970   22.9340 C   0  0  0  0  0  3  0  0  0  0  0  0
  -24.3370  -28.8210   24.1510 C   0  0  0  0  0  3  0  0  0  0  0  0
  -24.6850  -29.8450   26.4180 C   0  0  0  0  0  2  0  0  0  0  0  0
  -27.0130  -30.5450   27.0290 N   0  0  0  0  0  0  0  0  0  0  0  0
  -27.8570  -30.5950   29.1360 O   0  0  0  0  0  0  0  0  0  0  0  0
  -26.1380  -28.3360   27.9000 C   0  0  0  0  0  0  0  0  0  0  0  0
  -25.8590  -27.9700   29.1600 N   0  0  0  0  0  0  0  0  0  0  0  0
  -26.6600  -27.5630   27.0940 O   0  0  0  0  0  0  0  0  0  0  0  0
  -25.4380  -28.6520   29.7700 H   0  0  0  0  0  0  0  0  0  0  0  0
  -26.4450  -26.2480   32.2800 C   0  0  0  0  0  0  0  0  0  0  0  0
  -26.1230  -26.6560   29.7480 C   0  0  0  0  0  3  0  0  0  0  0  0
  -24.8110  -25.8480   29.8860 C   0  0  0  0  0  2  0  0  0  0  0  0
  -24.1490  -26.0190   31.2570 C   0  0  0  0  0  2  0  0  0  0  0  0
  -25.0850  -25.5760   32.3790 C   0  0  0  0  0  2  0  0  0  0  0  0
  -26.9320  -26.7600   31.0520 C   0  0  0  0  0  0  0  0  0  0  0  0
  -28.1940  -27.3920   31.0330 C   0  0  0  0  0  3  0  0  0  0  0  0
  -28.9620  -27.5090   32.2110 C   0  0  0  0  0  3  0  0  0  0  0  0
  -28.4740  -26.9830   33.4250 C   0  0  0  0  0  3  0  0  0  0  0  0
  -27.2150  -26.3590   33.4520 C   0  0  0  0  0  3  0  0  0  0  0  0
  -29.2140  -31.7140   27.5080 C   0  0  0  0  0  3  0  0  0  0  0  0
  -29.6270  -32.5080   28.6560 N   0  0  0  0  0  0  0  0  0  0  0  0
  -29.2010  -33.7470   28.9460 C   0  0  0  0  0  0  0  0  0  0  0  0
  -28.4630  -34.3940   28.1950 O   0  0  0  0  0  0  0  0  0  0  0  0
  -30.2490  -32.0550   29.3030 H   0  0  0  0  0  0  0  0  0  0  0  0
  -28.5330  -34.3160   31.3110 C   0  0  0  0  0  1  0  0  0  0  0  0
  -29.6670  -34.3540   30.2770 C   0  0  0  0  0  3  0  0  0  0  0  0
  -31.4520  -35.8570   29.4980 C   0  0  0  0  0  1  0  0  0  0  0  0
  -30.1560  -35.7440   30.1540 N   0  0  0  0  0  0  0  0  0  0  0  0
  -30.2360  -36.1670   31.0760 H   0  0  0  0  0  0  0  0  0  0  0  0
  -30.3990  -30.8090   27.0030 C   0  0  1  0  0  0  0  0  0  0  0  0
  -30.8120  -29.7320   28.0210 C   0  0  0  0  0  1  0  0  0  0  0  0
  -30.0350  -30.0950   25.6800 C   0  0  0  0  0  1  0  0  0  0  0  0
  -31.6530  -31.6780   26.7160 C   0  0  0  0  0  1  0  0  0  0  0  0
  -20.5530  -20.2330   25.0330 C   0  0  0  0  0  2  0  0  0  0  0  0
  -19.3650  -19.4340   24.7160 O   0  0  0  0  0  0  0  0  0  0  0  0
  -18.7870  -18.4910   25.6850 C   0  0  0  0  0  2  0  0  0  0  0  0
  -17.3680  -18.0490   25.1030 C   0  0  0  0  0  2  0  0  0  0  0  0
  -16.4980  -19.2330   24.8800 O   0  0  0  0  0  0  0  0  0  0  0  0
  -15.1900  -19.3550   24.1430 C   0  0  0  0  0  2  0  0  0  0  0  0
  -15.1870  -20.4370   22.9250 C   0  0  0  0  0  2  0  0  0  0  0  0
  -14.0460  -21.3320   22.5110 O   0  0  0  0  0  0  0  0  0  0  0  0
  -14.2340  -22.4530   21.5040 C   0  0  0  0  0  2  0  0  0  0  0  0
  -13.1830  -22.5930   20.2190 C   0  0  0  0  0  2  0  0  0  0  0  0
  -11.0690  -24.0980   19.1330 C   0  0  0  0  0  0  0  0  0  0  0  0
   -8.5760  -23.6370   19.2250 C   0  0  0  0  0  2  0  0  0  0  0  0
   -7.9350  -24.1380   20.5570 C   0  0  0  0  0  2  0  0  0  0  0  0
   -8.2810  -23.2820   21.7940 C   0  0  0  0  0  2  0  0  0  0  0  0
   -9.7950  -22.9700   21.7720 C   0  0  0  0  0  3  0  0  0  0  0  0
  -10.0540  -22.3040   20.4380 C   0  0  0  0  0  2  0  0  0  0  0  0
  -10.0060  -23.3140   19.4370 N   0  0  0  0  0  0  0  0  0  0  0  0
  -10.8460  -25.0790   18.3710 O   0  0  0  0  0  0  0  0  0  0  0  0
  -12.2880  -23.8340   19.8400 N   0  0  0  0  0  0  0  0  0  0  0  0
  -12.9040  -24.6210   19.7400 H   0  0  0  0  0  0  0  0  0  0  0  0
  -11.2610  -22.3140   23.7390 C   0  0  0  0  0  0  0  0  0  0  0  0
  -11.2820  -21.2160   24.5490 C   0  0  0  0  0  0  0  0  0  0  0  0
  -10.2460  -20.3160   24.0010 C   0  0  0  0  0  0  0  0  0  0  0  0
  -10.2660  -22.0950   22.8050 N   0  0  0  0  0  0  0  0  0  0  0  0
   -9.7170  -20.8640   22.9260 N   0  0  0  0  0  0  0  0  0  0  0  0
   -9.6550  -19.0450   24.4450 C   0  0  0  0  0  0  0  0  0  0  0  0
   -9.2060  -18.0000   23.5660 C   0  0  0  0  0  3  0  0  0  0  0  0
   -8.6580  -16.7940   24.0910 C   0  0  0  0  0  3  0  0  0  0  0  0
   -8.4980  -16.6640   25.4840 C   0  0  0  0  0  0  0  0  0  0  0  0
   -8.8290  -17.7260   26.3270 C   0  0  0  0  0  3  0  0  0  0  0  0
   -9.3780  -18.9040   25.8230 C   0  0  0  0  0  3  0  0  0  0  0  0
   -7.9460  -15.5450   26.0560 O   0  0  0  0  0  0  0  0  0  0  0  0
   -8.2020  -14.2890   25.5540 C   0  0  0  0  0  0  0  0  0  0  0  0
   -9.5230  -13.8130   25.4230 C   0  0  0  0  0  3  0  0  0  0  0  0
   -9.7570  -12.4880   24.9960 C   0  0  0  0  0  3  0  0  0  0  0  0
   -8.6560  -11.6640   24.6690 C   0  0  0  0  0  0  0  0  0  0  0  0
   -7.3410  -12.1410   24.7920 C   0  0  0  0  0  3  0  0  0  0  0  0
   -7.1100  -13.4580   25.2270 C   0  0  0  0  0  0  0  0  0  0  0  0
   -5.8310  -13.9290   25.3630 F   0  0  0  0  0  0  0  0  0  0  0  0
   -8.8560  -10.3930   24.2590 F   0  0  0  0  0  0  0  0  0  0  0  0
  -12.1250  -21.1170   25.8320 C   0  0  0  0  0  0  0  0  0  0  0  0
  -12.7200  -20.0030   26.2740 N   0  0  0  0  0  0  0  0  0  0  0  0
  -12.1980  -22.1490   26.5230 O   0  0  0  0  0  0  0  0  0  0  0  0
  -13.5670  -19.5140   25.9090 H   0  0  0  0  0  0  0  0  0  0  0  0
  -13.0390  -20.1710   27.2630 H   0  0  0  0  0  0  0  0  0  0  0  0
  -11.9890  -23.4970   23.8240 N   0  0  0  0  0  0  0  0  0  0  0  0
  -12.0780  -23.5900   24.8200 H   0  0  0  0  0  0  0  0  0  0  0  0
  -12.0840  -24.3980   23.3080 H   0  0  0  0  0  0  0  0  0  0  0  0
  1 50  1  0
  2  1  1  0
  2  4  1  0
  3  2  1  0
  5  2  1  0
  6  7  1  0
  6  5  2  0
  8  9  1  0
  8  7  1  0
  9 11  1  0
 10 21  2  0
 11 17  2  0
 11 16  1  0
 12 22  1  0
 13 19  1  0
 14 20  1  0
 15 13  1  0
 15 14  1  0
 16 15  2  0
 17 18  1  0
 18 13  2  0
 19 12  1  0
 20 12  1  0
 20 10  1  0
 22 23  1  0
 23 25  1  0
 24 22  2  0
 26 30  1  0
 26 35  1  0
 27 23  1  0
 27 28  1  0
 27 31  1  0
 28 29  1  0
 29 30  1  0
 31 26  2  0
 32 31  1  0
 32 33  2  0
 33 34  1  0
 34 35  2  0
 36 10  1  0
 36 37  1  0
 37 38  1  0
 37 40  1  0
 38 42  1  0
 39 38  2  0
 42 41  1  0
 43 44  1  0
 44 42  1  0
 44 45  1  0
 46 36  1  0
 46 47  1  1
 48 46  1  0
 49 46  1  0
 51 50  1  0
 51 52  1  0
 53 52  1  0
 54 53  1  0
 55 54  1  0
 56 55  1  0
 57 56  1  0
 58 57  1  0
 59 58  1  0
 60 66  1  0
 60 68  1  0
 61 66  1  0
 61 62  1  0
 62 63  1  0
 64 65  1  0
 64 63  1  0
 64 73  1  0
 66 65  1  0
 67 60  2  0
 68 59  1  0
 69 68  1  0
 70 95  1  0
 70 71  2  0
 71 90  1  0
 72 75  1  0
 72 71  1  0
 73 74  1  0
 73 70  1  0
 74 72  2  0
 75 80  1  0
 76 77  1  0
 76 75  2  0
 77 78  2  0
 78 81  1  0
 78 79  1  0
 80 79  2  0
 82 81  1  0
 83 82  1  0
 84 83  2  0
 85 86  2  0
 85 84  1  0
 86 87  1  0
 87 88  1  0
 87 82  2  0
 89 85  1  0
 90 91  1  0
 90 92  2  0
 91 94  1  0
 93 91  1  0
 95 96  1  0
 97 95  1  0
M  ISO  4   8 101   9 101  60 100  68 100
M  END
>  <TORSDO>  (23) 
F 31

>  <SCORE>  (23) 
7.996

>  <name>  (23) 
24

>  <ligand_id>  (23) 
24

>  <original_smiles>  (23) 
[H]c1c([H])c([H])c2c(c1[H])C([H])([H])C([H])([H])C([H])([H])C2([H])N([H])C(=O)C1([H])N(C(=O)C([H])(N([H])C(=O)C([H])(N([H])C([H])([H])[H])C([H])([H])[H])C(C([H])([H])[H])(C([H])([H])[H])C([H])([H])[H])C([H])([H])c2c([H])c(OC([H])([H])C([H])([H])C([H])([H])C([H])([H])[N+]([H])([H])C([H])([H])C([H])([H])OC([H])([H])C([H])([H])OC([H])([H])C([H])([H])OC([H])([H])C([H])([H])N([H])C(=O)N3C([H])([H])C([H])([H])C([H])([H])C([H])(n4nc(-c5c([H])c([H])c(Oc6c([H])c([H])c(F)c([H])c6F)c([H])c5[H])c(C(=O)N([H])[H])c4N([H])[H])C3([H])[H])c([H])c([H])c2C1([H])[H]

>  <smiles>  (23) 
[H]c1c([H])c([H])c2c(c1[H])C([H])([H])C([H])([H])C([H])([H])C2([H])N([H])C(=O)C1([H])N(C(=O)C([H])(N([H])C(=O)C([H])(N([H])C([H])([H])[H])C([H])([H])[H])C(C([H])([H])[H])(C([H])([H])[H])C([H])([H])[H])C([H])([H])c2c([H])c(OC([H])([H])C([H])([H])C([H])([H])C([H])([H])[N+]([H])([H])C([H])([H])C([H])([H])OC([H])([H])C([H])([H])OC([H])([H])C([H])([H])OC([H])([H])C([H])([H])N([H])C(=O)N3C([H])([H])C([H])([H])C([H])([H])C([H])(n4nc(-c5c([H])c([H])c(Oc6c([H])c([H])c(F)c([H])c6F)c([H])c5[H])c(C(=O)N([H])[H])c4N([H])[H])C3([H])[H])c([H])c([H])c2C1([H])[H]

$$$$
26:0:0
     RDKit          3D

 87 94  0  0  1  0  0  0  0  0999 V2000
  -28.5720  -21.8660   20.2650 N   0  0  0  0  0  4  0  0  0  0  0  0
  -27.8610  -21.7250   20.9660 H   0  0  0  0  0  0  0  0  0  0  0  0
  -28.1090  -21.7550   19.3770 H   0  0  0  0  0  0  0  0  0  0  0  0
  -29.5730  -20.6410   20.3930 C   0  0  0  0  0  2  0  0  0  0  0  0
  -29.1030  -19.0140   20.3830 C   0  0  0  0  0  3  0  0  0  0  0  0
  -30.1590  -17.6960   20.4240 C   0  0  0  0  0  3  0  0  0  0  0  0
  -30.5210  -14.9810   20.3370 C   0  0  0  0  0  0  0  0  0  0  0  0
  -30.3860  -12.6420   19.3800 C   0  0  0  0  0  2  0  0  0  0  0  0
  -29.4480  -12.6130   18.1520 C   0  0  0  0  0  2  0  0  0  0  0  0
  -27.9850  -12.4040   18.5900 C   0  0  0  0  0  2  0  0  0  0  0  0
  -27.5850  -13.3160   19.7790 C   0  0  0  0  0  3  0  0  0  0  0  0
  -28.6480  -13.3180   20.9000 C   0  0  0  0  0  2  0  0  0  0  0  0
  -29.9150  -13.7290   20.2840 N   0  0  0  0  0  0  0  0  0  0  0  0
  -31.7210  -15.0450   20.0530 O   0  0  0  0  0  0  0  0  0  0  0  0
  -29.7580  -16.1690   20.4970 N   0  0  0  0  0  0  0  0  0  0  0  0
  -28.7790  -15.9980   20.6790 H   0  0  0  0  0  0  0  0  0  0  0  0
  -25.2050  -13.8790   20.5340 C   0  0  0  0  0  0  0  0  0  0  0  0
  -24.1470  -13.0960   20.9040 C   0  0  0  0  0  0  0  0  0  0  0  0
  -24.6180  -11.7480   20.8630 C   0  0  0  0  0  0  0  0  0  0  0  0
  -26.2510  -13.0080   20.2830 N   0  0  0  0  0  0  0  0  0  0  0  0
  -25.9090  -11.7210   20.5480 N   0  0  0  0  0  0  0  0  0  0  0  0
  -23.8980  -10.4800   21.0460 C   0  0  0  0  0  0  0  0  0  0  0  0
  -24.3320   -9.5120   21.9780 C   0  0  0  0  0  3  0  0  0  0  0  0
  -23.6100   -8.3110   22.1500 C   0  0  0  0  0  3  0  0  0  0  0  0
  -22.4400   -8.0700   21.3920 C   0  0  0  0  0  0  0  0  0  0  0  0
  -22.0260   -9.0280   20.4490 C   0  0  0  0  0  3  0  0  0  0  0  0
  -22.7490  -10.2200   20.2750 C   0  0  0  0  0  3  0  0  0  0  0  0
  -21.6900   -6.9220   21.4730 O   0  0  0  0  0  0  0  0  0  0  0  0
  -21.6350   -6.1790   22.6250 C   0  0  0  0  0  0  0  0  0  0  0  0
  -21.1810   -6.7270   23.8450 C   0  0  0  0  0  3  0  0  0  0  0  0
  -21.0750   -5.9090   24.9880 C   0  0  0  0  0  3  0  0  0  0  0  0
  -21.4140   -4.5450   24.9130 C   0  0  0  0  0  0  0  0  0  0  0  0
  -21.8610   -3.9970   23.6980 C   0  0  0  0  0  3  0  0  0  0  0  0
  -21.9680   -4.8120   22.5560 C   0  0  0  0  0  0  0  0  0  0  0  0
  -22.3800   -4.2730   21.3830 F   0  0  0  0  0  0  0  0  0  0  0  0
  -21.3050   -3.7570   26.0080 F   0  0  0  0  0  0  0  0  0  0  0  0
  -22.7480  -13.5650   21.1810 C   0  0  0  0  0  0  0  0  0  0  0  0
  -22.0280  -12.8640   22.0500 N   0  0  0  0  0  0  0  0  0  0  0  0
  -22.3030  -14.5870   20.6620 O   0  0  0  0  0  0  0  0  0  0  0  0
  -22.4030  -12.0370   22.4910 H   0  0  0  0  0  0  0  0  0  0  0  0
  -21.0900  -13.1590   22.2790 H   0  0  0  0  0  0  0  0  0  0  0  0
  -25.3590  -15.2510   20.3620 N   0  0  0  0  0  0  0  0  0  0  0  0
  -24.5840  -15.8960   20.4740 H   0  0  0  0  0  0  0  0  0  0  0  0
  -26.1910  -15.6960   19.9970 H   0  0  0  0  0  0  0  0  0  0  0  0
  -29.0140  -23.3920   20.3650 C   0  0  0  0  0  3  0  0  0  0  0  0
  -27.9550  -24.6840   20.1350 C   0  0  0  0  0  3  0  0  0  0  0  0
  -28.2380  -26.2140   20.2750 O   0  0  0  0  0  0  0  0  0  0  0  0
  -24.6190  -31.9100   23.2420 C   0  0  0  0  0  0  0  0  0  0  0  0
  -27.1820  -27.1950   20.2080 C   0  0  0  0  0  0  0  0  0  0  0  0
  -23.4170  -30.5250   21.5940 C   0  0  0  0  0  3  0  0  0  0  0  0
  -24.8610  -28.9490   20.1710 C   0  0  0  0  0  0  0  0  0  0  0  0
  -25.9720  -30.7790   21.4390 C   0  0  0  0  0  2  0  0  0  0  0  0
  -26.0400  -29.3890   20.7830 C   0  0  0  0  0  0  0  0  0  0  0  0
  -27.2030  -28.5310   20.7820 C   0  0  0  0  0  3  0  0  0  0  0  0
  -25.9730  -26.8550   19.5600 C   0  0  0  0  0  3  0  0  0  0  0  0
  -24.8400  -27.6950   19.5440 C   0  0  0  0  0  3  0  0  0  0  0  0
  -23.6370  -29.8500   20.2160 C   0  0  0  0  0  2  0  0  0  0  0  0
  -24.6900  -31.0940   22.1460 N   0  0  0  0  0  0  0  0  0  0  0  0
  -23.5320  -32.1990   23.7660 O   0  0  0  0  0  0  0  0  0  0  0  0
  -22.7300  -29.5190   22.5520 C   0  0  0  0  0  0  0  0  0  0  0  0
  -21.4010  -29.3580   22.4240 N   0  0  0  0  0  0  0  0  0  0  0  0
  -23.3970  -28.8850   23.3750 O   0  0  0  0  0  0  0  0  0  0  0  0
  -20.9200  -29.9220   21.7360 H   0  0  0  0  0  0  0  0  0  0  0  0
  -18.0070  -28.1930   22.9270 C   0  0  0  0  0  0  0  0  0  0  0  0
  -20.5710  -28.4260   23.1900 C   0  0  0  0  0  3  0  0  0  0  0  0
  -20.6550  -26.9960   22.6060 C   0  0  0  0  0  2  0  0  0  0  0  0
  -19.5470  -26.6910   21.5920 C   0  0  0  0  0  2  0  0  0  0  0  0
  -18.1680  -26.8470   22.2410 C   0  0  0  0  0  2  0  0  0  0  0  0
  -19.1350  -28.9410   23.3580 C   0  0  0  0  0  0  0  0  0  0  0  0
  -18.9300  -30.2010   23.9610 C   0  0  0  0  0  3  0  0  0  0  0  0
  -17.6310  -30.7130   24.1360 C   0  0  0  0  0  3  0  0  0  0  0  0
  -16.5180  -29.9620   23.7200 C   0  0  0  0  0  3  0  0  0  0  0  0
  -16.7070  -28.7040   23.1210 C   0  0  0  0  0  3  0  0  0  0  0  0
  -25.8980  -32.5370   23.8750 C   0  0  0  0  0  3  0  0  0  0  0  0
  -25.5910  -33.9360   24.2110 N   0  0  0  0  0  0  0  0  0  0  0  0
  -25.9050  -34.9930   23.4490 C   0  0  0  0  0  0  0  0  0  0  0  0
  -26.5500  -34.8930   22.4020 O   0  0  0  0  0  0  0  0  0  0  0  0
  -25.0140  -34.0880   25.0260 H   0  0  0  0  0  0  0  0  0  0  0  0
  -24.1530  -36.7780   23.1630 C   0  0  0  0  0  1  0  0  0  0  0  0
  -25.4280  -36.3810   23.9230 C   0  0  0  0  0  3  0  0  0  0  0  0
  -27.5880  -37.2830   24.6670 C   0  0  0  0  0  1  0  0  0  0  0  0
  -26.4490  -37.4390   23.7650 N   0  0  0  0  0  0  0  0  0  0  0  0
  -26.0430  -38.3580   23.9230 H   0  0  0  0  0  0  0  0  0  0  0  0
  -26.3990  -31.7620   25.1550 C   0  0  1  0  0  0  0  0  0  0  0  0
  -25.2960  -31.5320   26.2150 C   0  0  0  0  0  1  0  0  0  0  0  0
  -26.9760  -30.3790   24.7720 C   0  0  0  0  0  1  0  0  0  0  0  0
  -27.5510  -32.5490   25.8250 C   0  0  0  0  0  1  0  0  0  0  0  0
  1 45  1  0
  1  4  1  0
  1  2  1  0
  3  1  1  0
  5  4  1  0
  5  6  2  0
  6 15  1  0
  7 15  1  0
  8 13  1  0
  9 10  1  0
  9  8  1  0
 11 10  1  0
 11 20  1  0
 11 12  1  0
 13  7  1  0
 13 12  1  0
 14  7  2  0
 15 16  1  0
 17 18  2  0
 18 37  1  0
 19 18  1  0
 19 22  1  0
 20 17  1  0
 20 21  1  0
 21 19  2  0
 22 23  1  0
 23 24  2  0
 25 28  1  0
 25 24  1  0
 26 25  2  0
 27 26  1  0
 27 22  2  0
 28 29  1  0
 29 30  1  0
 30 31  2  0
 32 31  1  0
 32 36  1  0
 33 32  2  0
 34 29  2  0
 34 33  1  0
 35 34  1  0
 37 38  1  0
 38 41  1  0
 38 40  1  0
 39 37  2  0
 42 43  1  0
 42 17  1  0
 44 42  1  0
 46 47  1  0
 46 45  2  0
 48 59  2  0
 49 47  1  0
 49 54  1  0
 50 58  1  0
 50 60  1  0
 51 57  1  0
 51 53  1  0
 52 58  1  0
 53 52  1  0
 54 53  2  0
 55 49  2  0
 56 55  1  0
 56 51  2  0
 57 50  1  0
 58 48  1  0
 60 62  2  0
 61 60  1  0
 63 61  1  0
 64 73  2  0
 64 69  1  0
 65 61  1  0
 65 69  1  0
 66 65  1  0
 67 68  1  0
 67 66  1  0
 68 64  1  0
 69 70  2  0
 70 71  1  0
 72 71  2  0
 73 72  1  0
 74 48  1  0
 74 75  1  0
 74 84  1  0
 75 78  1  0
 76 80  1  0
 76 75  1  0
 77 76  2  0
 80 79  1  0
 82 80  1  0
 82 83  1  0
 82 81  1  0
 84 87  1  1
 84 85  1  0
 86 84  1  0
M  ISO  4   7 100  15 100  46 101  47 101
M  END
>  <TORSDO>  (24) 
F 21

>  <SCORE>  (24) 
-13.179

>  <name>  (24) 
26

>  <ligand_id>  (24) 
26

>  <original_smiles>  (24) 
[H]c1c([H])c([H])c2c(c1[H])C([H])([H])C([H])([H])C([H])([H])C2([H])N([H])C(=O)C1([H])N(C(=O)C([H])(N([H])C(=O)C([H])(N([H])C([H])([H])[H])C([H])([H])[H])C(C([H])([H])[H])(C([H])([H])[H])C([H])([H])[H])C([H])([H])c2c([H])c(OC([H])([H])C([H])([H])[N+]([H])([H])C([H])([H])C([H])([H])C([H])([H])N([H])C(=O)N3C([H])([H])C([H])([H])C([H])([H])C([H])(n4nc(-c5c([H])c([H])c(Oc6c([H])c([H])c(F)c([H])c6F)c([H])c5[H])c(C(=O)N([H])[H])c4N([H])[H])C3([H])[H])c([H])c([H])c2C1([H])[H]

>  <smiles>  (24) 
[H]c1c([H])c([H])c2c(c1[H])C([H])([H])C([H])([H])C([H])([H])C2([H])N([H])C(=O)C1([H])N(C(=O)C([H])(N([H])C(=O)C([H])(N([H])C([H])([H])[H])C([H])([H])[H])C(C([H])([H])[H])(C([H])([H])[H])C([H])([H])[H])C([H])([H])c2c([H])c(OC([H])([H])C([H])([H])[N+]([H])([H])C([H])([H])C([H])([H])C([H])([H])N([H])C(=O)N3C([H])([H])C([H])([H])C([H])([H])C([H])(n4nc(-c5c([H])c([H])c(Oc6c([H])c([H])c(F)c([H])c6F)c([H])c5[H])c(C(=O)N([H])[H])c4N([H])[H])C3([H])[H])c([H])c([H])c2C1([H])[H]

$$$$
27:0:0
     RDKit          3D

 86 93  0  0  1  0  0  0  0  0999 V2000
  -28.8370  -22.7640   20.5210 C   0  0  0  0  0  3  0  0  0  0  0  0
  -29.3040  -19.8370   20.4720 C   0  0  0  0  0  0  0  0  0  0  0  0
  -29.1010  -21.2080   19.9240 N   0  0  0  0  0  0  0  0  0  0  0  0
  -29.0370  -19.7210   21.6680 O   0  0  0  0  0  0  0  0  0  0  0  0
  -29.2830  -21.2270   18.9280 H   0  0  0  0  0  0  0  0  0  0  0  0
  -29.9160  -18.3420   19.7690 C   0  0  0  0  0  2  0  0  0  0  0  0
  -30.5450  -15.4350   19.9120 C   0  0  0  0  0  0  0  0  0  0  0  0
  -30.4730  -13.0020   18.9930 C   0  0  0  0  0  2  0  0  0  0  0  0
  -29.4800  -12.8250   17.8150 C   0  0  0  0  0  2  0  0  0  0  0  0
  -28.0620  -12.5370   18.3380 C   0  0  0  0  0  2  0  0  0  0  0  0
  -27.6820  -13.4660   19.5160 C   0  0  0  0  0  3  0  0  0  0  0  0
  -28.7990  -13.5920   20.5770 C   0  0  0  0  0  2  0  0  0  0  0  0
  -29.9860  -14.1210   19.8860 N   0  0  0  0  0  0  0  0  0  0  0  0
  -31.7310  -15.4470   19.5520 O   0  0  0  0  0  0  0  0  0  0  0  0
  -29.7910  -16.7020   20.1270 N   0  0  0  0  0  0  0  0  0  0  0  0
  -28.8680  -16.4950   20.4780 H   0  0  0  0  0  0  0  0  0  0  0  0
  -25.3690  -13.9960   20.4450 C   0  0  0  0  0  0  0  0  0  0  0  0
  -24.3330  -13.2060   20.8550 C   0  0  0  0  0  0  0  0  0  0  0  0
  -24.7930  -11.8580   20.7430 C   0  0  0  0  0  0  0  0  0  0  0  0
  -26.3910  -13.1300   20.1000 N   0  0  0  0  0  0  0  0  0  0  0  0
  -26.0610  -11.8360   20.3460 N   0  0  0  0  0  0  0  0  0  0  0  0
  -24.0760  -10.5890   20.9320 C   0  0  0  0  0  0  0  0  0  0  0  0
  -24.5270   -9.6140   21.8480 C   0  0  0  0  0  3  0  0  0  0  0  0
  -23.8060   -8.4140   22.0280 C   0  0  0  0  0  3  0  0  0  0  0  0
  -22.6190   -8.1800   21.2940 C   0  0  0  0  0  0  0  0  0  0  0  0
  -22.1860   -9.1460   20.3670 C   0  0  0  0  0  3  0  0  0  0  0  0
  -22.9080  -10.3370   20.1840 C   0  0  0  0  0  3  0  0  0  0  0  0
  -21.8680   -7.0330   21.3840 O   0  0  0  0  0  0  0  0  0  0  0  0
  -21.8000   -6.3070   22.5460 C   0  0  0  0  0  0  0  0  0  0  0  0
  -21.3120   -6.8670   23.7470 C   0  0  0  0  0  3  0  0  0  0  0  0
  -21.1940   -6.0650   24.9000 C   0  0  0  0  0  3  0  0  0  0  0  0
  -21.5530   -4.7060   24.8530 C   0  0  0  0  0  0  0  0  0  0  0  0
  -22.0340   -4.1450   23.6560 C   0  0  0  0  0  3  0  0  0  0  0  0
  -22.1530   -4.9440   22.5060 C   0  0  0  0  0  0  0  0  0  0  0  0
  -22.5970   -4.3930   21.3500 F   0  0  0  0  0  0  0  0  0  0  0  0
  -21.4340   -3.9340   25.9590 F   0  0  0  0  0  0  0  0  0  0  0  0
  -22.9580  -13.6740   21.2300 C   0  0  0  0  0  0  0  0  0  0  0  0
  -22.2850  -12.9510   22.1170 N   0  0  0  0  0  0  0  0  0  0  0  0
  -22.4910  -14.7170   20.7720 O   0  0  0  0  0  0  0  0  0  0  0  0
  -22.6760  -12.1070   22.5080 H   0  0  0  0  0  0  0  0  0  0  0  0
  -21.3640  -13.2450   22.4110 H   0  0  0  0  0  0  0  0  0  0  0  0
  -25.5210  -15.3730   20.3060 N   0  0  0  0  0  0  0  0  0  0  0  0
  -24.7590  -16.0170   20.4850 H   0  0  0  0  0  0  0  0  0  0  0  0
  -26.3290  -15.8220   19.8970 H   0  0  0  0  0  0  0  0  0  0  0  0
  -28.1150  -24.3050   19.8790 C   0  0  0  0  0  3  0  0  0  0  0  0
  -28.1940  -25.9180   20.2780 O   0  0  0  0  0  0  0  0  0  0  0  0
  -24.5950  -31.8880   23.1940 C   0  0  0  0  0  0  0  0  0  0  0  0
  -27.1750  -27.0110   20.1740 C   0  0  0  0  0  0  0  0  0  0  0  0
  -23.4050  -30.4810   21.5610 C   0  0  0  0  0  3  0  0  0  0  0  0
  -24.8610  -28.8830   20.1320 C   0  0  0  0  0  0  0  0  0  0  0  0
  -25.9690  -30.7060   21.4070 C   0  0  0  0  0  2  0  0  0  0  0  0
  -26.0460  -29.2950   20.7520 C   0  0  0  0  0  0  0  0  0  0  0  0
  -27.1940  -28.3790   20.7500 C   0  0  0  0  0  3  0  0  0  0  0  0
  -25.9610  -26.7580   19.4960 C   0  0  0  0  0  3  0  0  0  0  0  0
  -24.8440  -27.6370   19.4830 C   0  0  0  0  0  3  0  0  0  0  0  0
  -23.6350  -29.7950   20.1850 C   0  0  0  0  0  2  0  0  0  0  0  0
  -24.6780  -31.0530   22.1080 N   0  0  0  0  0  0  0  0  0  0  0  0
  -23.5050  -32.1710   23.7190 O   0  0  0  0  0  0  0  0  0  0  0  0
  -22.7210  -29.4820   22.5320 C   0  0  0  0  0  0  0  0  0  0  0  0
  -21.3910  -29.3080   22.4130 N   0  0  0  0  0  0  0  0  0  0  0  0
  -23.3930  -28.8650   23.3630 O   0  0  0  0  0  0  0  0  0  0  0  0
  -20.9010  -29.8570   21.7200 H   0  0  0  0  0  0  0  0  0  0  0  0
  -18.0190  -28.0780   22.9440 C   0  0  0  0  0  0  0  0  0  0  0  0
  -20.5790  -28.3650   23.1900 C   0  0  0  0  0  3  0  0  0  0  0  0
  -20.6870  -26.9330   22.6150 C   0  0  0  0  0  2  0  0  0  0  0  0
  -19.5810  -26.6030   21.6070 C   0  0  0  0  0  2  0  0  0  0  0  0
  -18.2020  -26.7330   22.2610 C   0  0  0  0  0  2  0  0  0  0  0  0
  -19.1340  -28.8510   23.3650 C   0  0  0  0  0  0  0  0  0  0  0  0
  -18.9060  -30.1080   23.9670 C   0  0  0  0  0  3  0  0  0  0  0  0
  -17.5960  -30.5930   24.1480 C   0  0  0  0  0  3  0  0  0  0  0  0
  -16.4970  -29.8180   23.7400 C   0  0  0  0  0  3  0  0  0  0  0  0
  -16.7080  -28.5620   23.1440 C   0  0  0  0  0  3  0  0  0  0  0  0
  -25.8630  -32.5410   23.8220 C   0  0  0  0  0  3  0  0  0  0  0  0
  -26.3680  -31.7940   25.1190 C   0  0  1  0  0  0  0  0  0  0  0  0
  -25.2640  -31.5700   26.1790 C   0  0  0  0  0  1  0  0  0  0  0  0
  -26.9610  -30.4120   24.7640 C   0  0  0  0  0  1  0  0  0  0  0  0
  -27.5080  -32.6040   25.7790 C   0  0  0  0  0  1  0  0  0  0  0  0
  -25.5400  -33.9440   24.1420 N   0  0  0  0  0  0  0  0  0  0  0  0
  -25.8640  -35.0000   23.3830 C   0  0  0  0  0  0  0  0  0  0  0  0
  -26.5290  -34.8960   22.3480 O   0  0  0  0  0  0  0  0  0  0  0  0
  -24.9480  -34.0970   24.9440 H   0  0  0  0  0  0  0  0  0  0  0  0
  -24.1290  -36.7940   23.0420 C   0  0  0  0  0  1  0  0  0  0  0  0
  -25.3790  -36.3910   23.8420 C   0  0  0  0  0  3  0  0  0  0  0  0
  -27.5130  -37.2930   24.6600 C   0  0  0  0  0  1  0  0  0  0  0  0
  -26.4080  -37.4470   23.7170 N   0  0  0  0  0  0  0  0  0  0  0  0
  -25.9980  -38.3670   23.8570 H   0  0  0  0  0  0  0  0  0  0  0  0
  2  4  2  0
  3  2  1  0
  3  1  1  0
  5  3  1  0
  6 15  1  0
  6  2  1  0
  7 15  1  0
  8 13  1  0
  9 10  1  0
  9  8  1  0
 11 10  1  0
 11 20  1  0
 11 12  1  0
 13  7  1  0
 13 12  1  0
 14  7  2  0
 15 16  1  0
 17 18  2  0
 18 37  1  0
 19 18  1  0
 19 22  1  0
 20 21  1  0
 20 17  1  0
 21 19  2  0
 22 23  1  0
 23 24  2  0
 25 28  1  0
 25 24  1  0
 26 25  2  0
 27 26  1  0
 27 22  2  0
 28 29  1  0
 29 30  1  0
 30 31  2  0
 32 31  1  0
 32 36  1  0
 33 32  2  0
 34 29  2  0
 34 33  1  0
 35 34  1  0
 37 38  1  0
 38 41  1  0
 38 40  1  0
 39 37  2  0
 42 17  1  0
 42 43  1  0
 44 42  1  0
 45 46  1  0
 45  1  2  0
 47 58  2  0
 48 46  1  0
 48 53  1  0
 49 57  1  0
 49 59  1  0
 50 56  1  0
 50 52  1  0
 51 57  1  0
 52 51  1  0
 53 52  2  0
 54 48  2  0
 55 54  1  0
 55 50  2  0
 56 49  1  0
 57 47  1  0
 59 61  2  0
 60 59  1  0
 62 60  1  0
 63 72  2  0
 63 68  1  0
 64 60  1  0
 64 68  1  0
 65 64  1  0
 66 67  1  0
 66 65  1  0
 67 63  1  0
 68 69  2  0
 69 70  1  0
 71 70  2  0
 72 71  1  0
 73 47  1  0
 73 78  1  0
 73 74  1  0
 74 77  1  1
 74 75  1  0
 76 74  1  0
 78 81  1  0
 79 83  1  0
 79 78  1  0
 80 79  2  0
 83 82  1  0
 85 83  1  0
 85 86  1  0
 85 84  1  0
M  ISO  4   7 100  15 100  45 101  46 101
M  END
>  <TORSDO>  (25) 
F 19

>  <SCORE>  (25) 
-15.612

>  <name>  (25) 
27

>  <ligand_id>  (25) 
27

>  <original_smiles>  (25) 
[H]c1c([H])c([H])c2c(c1[H])C([H])([H])C([H])([H])C([H])([H])C2([H])N([H])C(=O)C1([H])N(C(=O)C([H])(N([H])C(=O)C([H])(N([H])C([H])([H])[H])C([H])([H])[H])C(C([H])([H])[H])(C([H])([H])[H])C([H])([H])[H])C([H])([H])c2c([H])c(OC([H])([H])C([H])([H])N([H])C(=O)C([H])([H])N([H])C(=O)N3C([H])([H])C([H])([H])C([H])([H])C([H])(n4nc(-c5c([H])c([H])c(Oc6c([H])c([H])c(F)c([H])c6F)c([H])c5[H])c(C(=O)N([H])[H])c4N([H])[H])C3([H])[H])c([H])c([H])c2C1([H])[H]

>  <smiles>  (25) 
[H]c1c([H])c([H])c2c(c1[H])C([H])([H])C([H])([H])C([H])([H])C2([H])N([H])C(=O)C1([H])N(C(=O)C([H])(N([H])C(=O)C([H])(N([H])C([H])([H])[H])C([H])([H])[H])C(C([H])([H])[H])(C([H])([H])[H])C([H])([H])[H])C([H])([H])c2c([H])c(OC([H])([H])C([H])([H])N([H])C(=O)C([H])([H])N([H])C(=O)N3C([H])([H])C([H])([H])C([H])([H])C([H])(n4nc(-c5c([H])c([H])c(Oc6c([H])c([H])c(F)c([H])c6F)c([H])c5[H])c(C(=O)N([H])[H])c4N([H])[H])C3([H])[H])c([H])c([H])c2C1([H])[H]

$$$$
28:0:0
     RDKit          3D

105112  0  0  1  0  0  0  0  0999 V2000
  -24.4890  -26.4710   27.2840 C   0  0  0  0  0  2  0  0  0  0  0  0
  -24.4010  -25.0410   26.7040 C   0  0  0  0  0  2  0  0  0  0  0  0
  -25.1560  -24.7890   25.3850 C   0  0  0  0  0  2  0  0  0  0  0  0
  -24.6440  -25.5830   24.3150 O   0  0  0  0  0  0  0  0  0  0  0  0
  -24.5580  -24.8350   23.1060 C   0  0  0  0  0  2  0  0  0  0  0  0
  -24.6350  -25.7330   21.8580 C   0  0  0  0  0  2  0  0  0  0  0  0
  -26.0690  -26.0430   21.3860 C   0  0  0  0  0  2  0  0  0  0  0  0
  -26.1790  -26.0520   19.9070 N   0  0  0  0  0  4  0  0  0  0  0  0
  -25.4710  -26.6710   19.5380 H   0  0  0  0  0  0  0  0  0  0  0  0
  -25.9760  -25.1250   19.5640 H   0  0  0  0  0  0  0  0  0  0  0  0
  -27.5050  -26.4740   19.3890 C   0  0  0  0  0  2  0  0  0  0  0  0
  -27.5100  -26.6910   17.8500 C   0  0  0  0  0  2  0  0  0  0  0  0
  -27.1560  -28.0260   17.4650 O   0  0  0  0  0  0  0  0  0  0  0  0
  -24.2740  -31.4410   22.9520 C   0  0  0  0  0  0  0  0  0  0  0  0
  -25.9870  -28.5110   18.0060 C   0  0  0  0  0  0  0  0  0  0  0  0
  -22.6780  -30.2930   21.4440 C   0  0  0  0  0  3  0  0  0  0  0  0
  -23.6410  -29.4660   19.2350 C   0  0  0  0  0  0  0  0  0  0  0  0
  -24.9140  -31.1660   20.5590 C   0  0  0  0  0  2  0  0  0  0  0  0
  -24.8790  -30.0420   19.5460 C   0  0  0  0  0  0  0  0  0  0  0  0
  -26.0520  -29.5760   18.9240 C   0  0  0  0  0  3  0  0  0  0  0  0
  -24.7300  -27.9450   17.6900 C   0  0  0  0  0  3  0  0  0  0  0  0
  -23.5580  -28.4160   18.3070 C   0  0  0  0  0  3  0  0  0  0  0  0
  -22.4280  -30.0320   19.9370 C   0  0  0  0  0  2  0  0  0  0  0  0
  -23.9900  -30.9710   21.7020 N   0  0  0  0  0  0  0  0  0  0  0  0
  -23.4450  -31.3590   23.8720 O   0  0  0  0  0  0  0  0  0  0  0  0
  -22.5130  -28.9600   22.2110 C   0  0  0  0  0  0  0  0  0  0  0  0
  -21.3150  -28.3590   22.1120 N   0  0  0  0  0  0  0  0  0  0  0  0
  -23.4520  -28.4730   22.8430 O   0  0  0  0  0  0  0  0  0  0  0  0
  -20.5870  -28.8270   21.5910 H   0  0  0  0  0  0  0  0  0  0  0  0
  -18.8310  -25.7370   22.0790 C   0  0  0  0  0  0  0  0  0  0  0  0
  -20.9480  -27.0780   22.7170 C   0  0  0  0  0  3  0  0  0  0  0  0
  -21.7510  -25.9150   22.0890 C   0  0  0  0  0  2  0  0  0  0  0  0
  -21.0250  -25.2490   20.9150 C   0  0  0  0  0  2  0  0  0  0  0  0
  -19.6710  -24.6900   21.3660 C   0  0  0  0  0  2  0  0  0  0  0  0
  -19.4300  -26.8650   22.7000 C   0  0  0  0  0  0  0  0  0  0  0  0
  -18.6030  -27.8240   23.3220 C   0  0  0  0  0  3  0  0  0  0  0  0
  -17.2020  -27.6740   23.3270 C   0  0  0  0  0  3  0  0  0  0  0  0
  -16.6160  -26.5500   22.7220 C   0  0  0  0  0  3  0  0  0  0  0  0
  -17.4280  -25.5810   22.1060 C   0  0  0  0  0  3  0  0  0  0  0  0
  -25.6390  -32.1210   23.2780 C   0  0  0  0  0  3  0  0  0  0  0  0
  -25.3520  -33.4810   23.7530 N   0  0  0  0  0  0  0  0  0  0  0  0
  -25.5140  -34.5900   23.0210 C   0  0  0  0  0  0  0  0  0  0  0  0
  -25.9920  -34.5800   21.8850 O   0  0  0  0  0  0  0  0  0  0  0  0
  -24.9070  -33.5590   24.6560 H   0  0  0  0  0  0  0  0  0  0  0  0
  -23.7280  -36.3560   23.0480 C   0  0  0  0  0  1  0  0  0  0  0  0
  -25.0750  -35.9270   23.6500 C   0  0  0  0  0  3  0  0  0  0  0  0
  -27.2840  -36.7960   24.2600 C   0  0  0  0  0  1  0  0  0  0  0  0
  -26.0660  -37.0090   23.4810 N   0  0  0  0  0  0  0  0  0  0  0  0
  -25.6690  -37.9080   23.7470 H   0  0  0  0  0  0  0  0  0  0  0  0
  -26.4870  -31.3250   24.3440 C   0  0  1  0  0  0  0  0  0  0  0  0
  -25.7280  -31.0350   25.6570 C   0  0  0  0  0  1  0  0  0  0  0  0
  -26.9480  -29.9650   23.7750 C   0  0  0  0  0  1  0  0  0  0  0  0
  -27.7730  -32.1150   24.6920 C   0  0  0  0  0  1  0  0  0  0  0  0
  -25.9110  -26.9870   27.5890 C   0  0  0  0  0  2  0  0  0  0  0  0
  -26.5230  -27.8440   26.4610 C   0  0  0  0  0  2  0  0  0  0  0  0
  -28.0570  -27.8350   26.4750 C   0  0  0  0  0  2  0  0  0  0  0  0
  -28.6840  -28.8550   25.5130 C   0  0  0  0  0  2  0  0  0  0  0  0
  -30.2000  -29.0180   25.7290 C   0  0  0  0  0  2  0  0  0  0  0  0
  -31.0880  -27.9600   25.0340 C   0  0  0  0  0  2  0  0  0  0  0  0
  -31.5740  -28.3420   23.6180 C   0  0  0  0  0  2  0  0  0  0  0  0
  -32.6630  -27.4520   23.1640 N   0  0  0  0  0  4  0  0  0  0  0  0
  -33.2720  -27.2980   23.9500 H   0  0  0  0  0  0  0  0  0  0  0  0
  -32.2770  -26.5560   22.9020 H   0  0  0  0  0  0  0  0  0  0  0  0
  -33.5040  -27.9650   22.0540 C   0  0  0  0  0  2  0  0  0  0  0  0
  -34.8360  -27.1570   21.9260 C   0  0  0  0  0  2  0  0  0  0  0  0
  -35.6020  -26.5350   20.7160 C   0  0  0  0  0  2  0  0  0  0  0  0
  -37.1370  -26.6800   20.8200 C   0  0  0  0  0  2  0  0  0  0  0  0
  -39.0070  -26.2030   19.2130 C   0  0  0  0  0  0  0  0  0  0  0  0
  -40.6020  -25.5120   17.4570 C   0  0  0  0  0  2  0  0  0  0  0  0
  -40.3960  -26.3210   16.1630 C   0  0  0  0  0  2  0  0  0  0  0  0
  -39.3020  -25.6830   15.2850 C   0  0  0  0  0  2  0  0  0  0  0  0
  -38.0080  -25.3700   16.0810 C   0  0  0  0  0  3  0  0  0  0  0  0
  -38.3500  -24.6060   17.3760 C   0  0  0  0  0  2  0  0  0  0  0  0
  -39.3120  -25.4140   18.1500 N   0  0  0  0  0  0  0  0  0  0  0  0
  -39.7890  -27.0160   19.7160 O   0  0  0  0  0  0  0  0  0  0  0  0
  -37.7720  -26.0110   19.6910 N   0  0  0  0  0  0  0  0  0  0  0  0
  -37.2280  -25.3150   19.2040 H   0  0  0  0  0  0  0  0  0  0  0  0
  -35.7290  -24.9610   14.9490 C   0  0  0  0  0  0  0  0  0  0  0  0
  -35.2950  -23.9830   14.0950 C   0  0  0  0  0  0  0  0  0  0  0  0
  -36.4010  -23.0970   13.9170 C   0  0  0  0  0  0  0  0  0  0  0  0
  -37.0420  -24.6410   15.2600 N   0  0  0  0  0  0  0  0  0  0  0  0
  -37.4230  -23.4790   14.6700 N   0  0  0  0  0  0  0  0  0  0  0  0
  -36.5640  -21.9370   13.0300 C   0  0  0  0  0  0  0  0  0  0  0  0
  -36.9180  -20.6670   13.5360 C   0  0  0  0  0  3  0  0  0  0  0  0
  -37.0510  -19.5640   12.6660 C   0  0  0  0  0  3  0  0  0  0  0  0
  -36.8280  -19.7230   11.2760 C   0  0  0  0  0  0  0  0  0  0  0  0
  -36.5000  -20.9950   10.7780 C   0  0  0  0  0  3  0  0  0  0  0  0
  -36.3730  -22.0930   11.6440 C   0  0  0  0  0  3  0  0  0  0  0  0
  -36.9630  -18.7140   10.3530 O   0  0  0  0  0  0  0  0  0  0  0  0
  -36.7540  -17.4020   10.6900 C   0  0  0  0  0  0  0  0  0  0  0  0
  -35.5180  -16.9520   11.2070 C   0  0  0  0  0  3  0  0  0  0  0  0
  -35.3220  -15.5830   11.4720 C   0  0  0  0  0  3  0  0  0  0  0  0
  -36.3520  -14.6590   11.2120 C   0  0  0  0  0  0  0  0  0  0  0  0
  -37.5800  -15.1040   10.6910 C   0  0  0  0  0  3  0  0  0  0  0  0
  -37.7780  -16.4700   10.4270 C   0  0  0  0  0  0  0  0  0  0  0  0
  -38.9560  -16.8910    9.9060 F   0  0  0  0  0  0  0  0  0  0  0  0
  -36.1620  -13.3420   11.4580 F   0  0  0  0  0  0  0  0  0  0  0  0
  -33.9630  -23.9250   13.4050 C   0  0  0  0  0  0  0  0  0  0  0  0
  -33.4360  -22.7220   13.1940 N   0  0  0  0  0  0  0  0  0  0  0  0
  -33.3560  -24.9490   13.0940 O   0  0  0  0  0  0  0  0  0  0  0  0
  -33.9260  -21.8820   13.4630 H   0  0  0  0  0  0  0  0  0  0  0  0
  -32.5290  -22.6430   12.7570 H   0  0  0  0  0  0  0  0  0  0  0  0
  -35.1250  -26.1020   15.4740 N   0  0  0  0  0  0  0  0  0  0  0  0
  -34.1870  -26.3850   15.2170 H   0  0  0  0  0  0  0  0  0  0  0  0
  -35.5940  -26.7720   16.0720 H   0  0  0  0  0  0  0  0  0  0  0  0
  1 54  1  0
  2  1  1  0
  3  2  1  0
  4  3  1  0
  5  4  1  0
  6  5  1  0
  7  6  1  0
  8  7  1  0
  9  8  1  0
 10  8  1  0
 11  8  1  0
 12 11  1  0
 13 12  1  0
 13 15  1  0
 14 25  2  0
 15 20  1  0
 16 24  1  0
 16 26  1  0
 17 19  1  0
 17 23  1  0
 18 24  1  0
 19 18  1  0
 20 19  2  0
 21 15  2  0
 21 22  1  0
 22 17  2  0
 23 16  1  0
 24 14  1  0
 26 28  2  0
 27 26  1  0
 29 27  1  0
 30 39  2  0
 30 35  1  0
 31 27  1  0
 32 31  1  0
 33 34  1  0
 33 32  1  0
 34 30  1  0
 35 31  1  0
 35 36  2  0
 36 37  1  0
 38 37  2  0
 39 38  1  0
 40 14  1  0
 40 41  1  0
 40 50  1  0
 41 44  1  0
 42 46  1  0
 42 41  1  0
 43 42  2  0
 46 45  1  0
 48 46  1  0
 48 49  1  0
 48 47  1  0
 50 53  1  1
 50 51  1  0
 52 50  1  0
 55 56  1  0
 55 54  1  0
 57 58  1  0
 57 56  1  0
 59 58  1  0
 60 59  1  0
 61 60  1  0
 61 62  1  0
 63 61  1  0
 64 61  1  0
 65 64  1  0
 66 67  1  0
 66 65  1  0
 68 76  1  0
 68 75  2  0
 69 74  1  0
 70 69  1  0
 71 72  1  0
 71 70  1  0
 72 81  1  0
 72 73  1  0
 73 74  1  0
 74 68  1  0
 76 67  1  0
 77 76  1  0
 78 81  1  0
 78103  1  0
 79 78  2  0
 80 79  1  0
 80 82  2  0
 82 81  1  0
 83 84  1  0
 83 80  1  0
 85 84  2  0
 86 85  1  0
 87 86  2  0
 87 88  1  0
 88 83  2  0
 89 90  1  0
 89 86  1  0
 90 91  1  0
 91 92  2  0
 93 97  1  0
 93 92  1  0
 94 93  2  0
 95 90  2  0
 95 94  1  0
 96 95  1  0
 98 79  1  0
 99 98  1  0
 99101  1  0
100 98  2  0
102 99  1  0
103105  1  0
104103  1  0
M  ISO  4  12 101  13 101  68 100  76 100
M  END
>  <TORSDO>  (26) 
F 37

>  <SCORE>  (26) 
-1.090

>  <name>  (26) 
28

>  <ligand_id>  (26) 
28

>  <original_smiles>  (26) 
[H]c1c([H])c([H])c2c(c1[H])C([H])([H])C([H])([H])C([H])([H])C2([H])N([H])C(=O)C1([H])N(C(=O)C([H])(N([H])C(=O)C([H])(N([H])C([H])([H])[H])C([H])([H])[H])C(C([H])([H])[H])(C([H])([H])[H])C([H])([H])[H])C([H])([H])c2c([H])c(OC([H])([H])C([H])([H])[N+]([H])([H])C([H])([H])C([H])([H])C([H])([H])OC([H])([H])C([H])([H])C([H])([H])C([H])([H])C([H])([H])C([H])([H])C([H])([H])C([H])([H])C([H])([H])C([H])([H])[N+]([H])([H])C([H])([H])C([H])([H])C([H])([H])C([H])([H])N([H])C(=O)N3C([H])([H])C([H])([H])C([H])([H])C([H])(n4nc(-c5c([H])c([H])c(Oc6c([H])c([H])c(F)c([H])c6F)c([H])c5[H])c(C(=O)N([H])[H])c4N([H])[H])C3([H])[H])c([H])c([H])c2C1([H])[H]

>  <smiles>  (26) 
[H]c1c([H])c([H])c2c(c1[H])C([H])([H])C([H])([H])C([H])([H])C2([H])N([H])C(=O)C1([H])N(C(=O)C([H])(N([H])C(=O)C([H])(N([H])C([H])([H])[H])C([H])([H])[H])C(C([H])([H])[H])(C([H])([H])[H])C([H])([H])[H])C([H])([H])c2c([H])c(OC([H])([H])C([H])([H])[N+]([H])([H])C([H])([H])C([H])([H])C([H])([H])OC([H])([H])C([H])([H])C([H])([H])C([H])([H])C([H])([H])C([H])([H])C([H])([H])C([H])([H])C([H])([H])C([H])([H])[N+]([H])([H])C([H])([H])C([H])([H])C([H])([H])C([H])([H])N([H])C(=O)N3C([H])([H])C([H])([H])C([H])([H])C([H])(n4nc(-c5c([H])c([H])c(Oc6c([H])c([H])c(F)c([H])c6F)c([H])c5[H])c(C(=O)N([H])[H])c4N([H])[H])C3([H])[H])c([H])c([H])c2C1([H])[H]

$$$$
29:0:0
     RDKit          3D

103110  0  0  1  0  0  0  0  0999 V2000
  -27.8490  -19.3070   24.3070 N   0  0  0  0  0  4  0  0  0  0  0  0
  -27.9710  -19.3360   23.3000 H   0  0  0  0  0  0  0  0  0  0  0  0
  -27.3180  -20.1160   24.5890 H   0  0  0  0  0  0  0  0  0  0  0  0
  -29.1840  -19.3630   24.9420 C   0  0  0  0  0  2  0  0  0  0  0  0
  -30.1340  -20.3810   24.2820 C   0  0  0  0  0  2  0  0  0  0  0  0
  -29.8200  -21.8390   24.5670 C   0  0  0  0  0  3  0  0  0  0  0  0
  -29.5190  -22.7500   23.6240 C   0  0  0  0  0  3  0  0  0  0  0  0
  -29.2670  -24.2210   23.8990 C   0  0  0  0  0  2  0  0  0  0  0  0
  -29.7960  -26.3680   22.7570 C   0  0  0  0  0  0  0  0  0  0  0  0
  -29.7380  -25.0330   22.7840 N   0  0  0  0  0  0  0  0  0  0  0  0
  -29.5170  -27.0720   23.7300 O   0  0  0  0  0  0  0  0  0  0  0  0
  -30.0000  -24.5530   21.9310 H   0  0  0  0  0  0  0  0  0  0  0  0
  -30.2090  -26.9960   21.4180 C   0  0  0  0  0  2  0  0  0  0  0  0
  -29.2200  -26.7070   20.4260 O   0  0  0  0  0  0  0  0  0  0  0  0
  -24.9490  -31.7030   23.2540 C   0  0  0  0  0  0  0  0  0  0  0  0
  -28.0360  -27.4120   20.4220 C   0  0  0  0  0  0  0  0  0  0  0  0
  -23.9210  -30.2110   21.5650 C   0  0  0  0  0  3  0  0  0  0  0  0
  -25.5440  -28.7380   20.2600 C   0  0  0  0  0  0  0  0  0  0  0  0
  -26.4220  -30.7210   21.5110 C   0  0  0  0  0  2  0  0  0  0  0  0
  -26.6230  -29.3490   20.9110 C   0  0  0  0  0  0  0  0  0  0  0  0
  -27.8630  -28.6890   21.0050 C   0  0  0  0  0  3  0  0  0  0  0  0
  -26.9410  -26.8110   19.7670 C   0  0  0  0  0  3  0  0  0  0  0  0
  -25.6960  -27.4630   19.6910 C   0  0  0  0  0  3  0  0  0  0  0  0
  -24.2500  -29.5200   20.2130 C   0  0  0  0  0  2  0  0  0  0  0  0
  -25.1100  -30.8950   22.1700 N   0  0  0  0  0  0  0  0  0  0  0  0
  -23.8250  -31.9190   23.7270 O   0  0  0  0  0  0  0  0  0  0  0  0
  -23.2740  -29.1690   22.5050 C   0  0  0  0  0  0  0  0  0  0  0  0
  -21.9610  -28.9410   22.3320 N   0  0  0  0  0  0  0  0  0  0  0  0
  -23.9500  -28.5670   23.3430 O   0  0  0  0  0  0  0  0  0  0  0  0
  -21.4790  -29.4850   21.6290 H   0  0  0  0  0  0  0  0  0  0  0  0
  -18.6060  -27.6710   22.7270 C   0  0  0  0  0  0  0  0  0  0  0  0
  -21.1490  -27.9770   23.0710 C   0  0  0  0  0  3  0  0  0  0  0  0
  -21.2980  -26.5550   22.4800 C   0  0  0  0  0  2  0  0  0  0  0  0
  -20.2280  -26.2210   21.4360 C   0  0  0  0  0  2  0  0  0  0  0  0
  -18.8280  -26.3320   22.0460 C   0  0  0  0  0  2  0  0  0  0  0  0
  -19.6960  -28.4500   23.1950 C   0  0  0  0  0  0  0  0  0  0  0  0
  -19.4370  -29.7020   23.7920 C   0  0  0  0  0  3  0  0  0  0  0  0
  -18.1180  -30.1760   23.9260 C   0  0  0  0  0  3  0  0  0  0  0  0
  -17.0420  -29.3930   23.4780 C   0  0  0  0  0  3  0  0  0  0  0  0
  -17.2860  -28.1420   22.8830 C   0  0  0  0  0  3  0  0  0  0  0  0
  -26.1600  -32.4100   23.9390 C   0  0  0  0  0  3  0  0  0  0  0  0
  -26.6420  -31.6860   25.2540 C   0  0  1  0  0  0  0  0  0  0  0  0
  -25.5030  -31.4070   26.2620 C   0  0  0  0  0  1  0  0  0  0  0  0
  -27.3220  -30.3400   24.9140 C   0  0  0  0  0  1  0  0  0  0  0  0
  -27.7090  -32.5500   25.9680 C   0  0  0  0  0  1  0  0  0  0  0  0
  -25.7610  -33.7940   24.2220 N   0  0  0  0  0  0  0  0  0  0  0  0
  -26.0790  -34.8490   23.4600 C   0  0  0  0  0  0  0  0  0  0  0  0
  -26.8090  -34.7650   22.4690 O   0  0  0  0  0  0  0  0  0  0  0  0
  -25.1160  -33.9310   24.9860 H   0  0  0  0  0  0  0  0  0  0  0  0
  -24.2700  -36.5260   22.9840 C   0  0  0  0  0  1  0  0  0  0  0  0
  -25.4920  -36.2150   23.8610 C   0  0  0  0  0  3  0  0  0  0  0  0
  -27.5320  -37.2390   24.7640 C   0  0  0  0  0  1  0  0  0  0  0  0
  -26.4670  -37.3240   23.7680 N   0  0  0  0  0  0  0  0  0  0  0  0
  -26.0040  -38.2240   23.8740 H   0  0  0  0  0  0  0  0  0  0  0  0
  -27.0900  -18.0750   24.6380 C   0  0  0  0  0  2  0  0  0  0  0  0
  -25.8940  -17.8290   23.7040 C   0  0  0  0  0  2  0  0  0  0  0  0
  -26.3620  -17.3750   22.4420 O   0  0  0  0  0  0  0  0  0  0  0  0
  -26.2790  -18.3330   21.3920 C   0  0  0  0  0  2  0  0  0  0  0  0
  -27.0780  -17.7760   20.2130 C   0  0  0  0  0  2  0  0  0  0  0  0
  -28.4700  -17.7830   20.5310 O   0  0  0  0  0  0  0  0  0  0  0  0
  -29.2290  -17.3020   19.4230 C   0  0  0  0  0  2  0  0  0  0  0  0
  -30.7370  -17.3210   19.6980 C   0  0  0  0  0  2  0  0  0  0  0  0
  -31.0750  -16.3130   20.6430 O   0  0  0  0  0  0  0  0  0  0  0  0
  -32.4760  -16.0660   20.6800 C   0  0  0  0  0  2  0  0  0  0  0  0
  -32.7270  -14.7100   21.3560 C   0  0  0  0  0  2  0  0  0  0  0  0
  -31.8550  -13.0210   19.7440 C   0  0  0  0  0  0  0  0  0  0  0  0
  -30.8720  -11.1920   18.4120 C   0  0  0  0  0  2  0  0  0  0  0  0
  -29.8660  -11.7050   17.3650 C   0  0  0  0  0  2  0  0  0  0  0  0
  -28.4640  -11.8510   17.9820 C   0  0  0  0  0  2  0  0  0  0  0  0
  -28.4820  -12.6450   19.3140 C   0  0  0  0  0  3  0  0  0  0  0  0
  -29.5680  -12.0950   20.2630 C   0  0  0  0  0  2  0  0  0  0  0  0
  -30.8650  -12.1130   19.5590 N   0  0  0  0  0  0  0  0  0  0  0  0
  -32.8030  -13.1710   18.9680 O   0  0  0  0  0  0  0  0  0  0  0  0
  -31.7810  -13.7000   20.8920 N   0  0  0  0  0  0  0  0  0  0  0  0
  -30.9840  -13.5070   21.4820 H   0  0  0  0  0  0  0  0  0  0  0  0
  -26.3680  -13.7220   20.3180 C   0  0  0  0  0  0  0  0  0  0  0  0
  -25.2080  -13.1810   20.8060 C   0  0  0  0  0  0  0  0  0  0  0  0
  -25.3590  -11.7650   20.6960 C   0  0  0  0  0  0  0  0  0  0  0  0
  -27.1640  -12.6500   19.9490 N   0  0  0  0  0  0  0  0  0  0  0  0
  -26.5650  -11.4640   20.2290 N   0  0  0  0  0  0  0  0  0  0  0  0
  -24.4040  -10.6790   20.9550 C   0  0  0  0  0  0  0  0  0  0  0  0
  -24.7380   -9.5880   21.7870 C   0  0  0  0  0  3  0  0  0  0  0  0
  -23.7960   -8.5650   22.0360 C   0  0  0  0  0  3  0  0  0  0  0  0
  -22.5080   -8.6300   21.4550 C   0  0  0  0  0  0  0  0  0  0  0  0
  -22.1900   -9.7060   20.6080 C   0  0  0  0  0  3  0  0  0  0  0  0
  -23.1290  -10.7210   20.3580 C   0  0  0  0  0  3  0  0  0  0  0  0
  -21.5390   -7.6690   21.6180 O   0  0  0  0  0  0  0  0  0  0  0  0
  -21.5020   -6.8660   22.7300 C   0  0  0  0  0  0  0  0  0  0  0  0
  -21.3950   -7.4010   24.0320 C   0  0  0  0  0  3  0  0  0  0  0  0
  -21.2910   -6.5370   25.1400 C   0  0  0  0  0  3  0  0  0  0  0  0
  -21.2830   -5.1420   24.9490 C   0  0  0  0  0  0  0  0  0  0  0  0
  -21.3850   -4.6080   23.6540 C   0  0  0  0  0  3  0  0  0  0  0  0
  -21.4910   -5.4690   22.5460 C   0  0  0  0  0  0  0  0  0  0  0  0
  -21.5670   -4.9500   21.2970 F   0  0  0  0  0  0  0  0  0  0  0  0
  -21.1760   -4.3130   26.0140 F   0  0  0  0  0  0  0  0  0  0  0  0
  -23.9910  -13.9340   21.2590 C   0  0  0  0  0  0  0  0  0  0  0  0
  -23.2450  -13.3780   22.2080 N   0  0  0  0  0  0  0  0  0  0  0  0
  -23.7200  -15.0450   20.8050 O   0  0  0  0  0  0  0  0  0  0  0  0
  -23.4780  -12.4750   22.5940 H   0  0  0  0  0  0  0  0  0  0  0  0
  -22.4290  -13.8630   22.5530 H   0  0  0  0  0  0  0  0  0  0  0  0
  -26.8030  -15.0300   20.1440 N   0  0  0  0  0  0  0  0  0  0  0  0
  -26.2210  -15.8280   20.3710 H   0  0  0  0  0  0  0  0  0  0  0  0
  -27.7000  -15.2820   19.7510 H   0  0  0  0  0  0  0  0  0  0  0  0
  1  3  1  0
  1 55  1  0
  1  4  1  0
  2  1  1  0
  5  6  1  0
  5  4  1  0
  7  8  1  0
  7  6  2  0
  9 10  1  0
  9 11  2  0
 10  8  1  0
 12 10  1  0
 13  9  1  0
 14 13  1  0
 15 26  2  0
 16 14  1  0
 16 21  1  0
 17 25  1  0
 17 27  1  0
 18 20  1  0
 19 25  1  0
 20 21  2  0
 20 19  1  0
 22 16  2  0
 23 22  1  0
 23 18  2  0
 24 18  1  0
 24 17  1  0
 25 15  1  0
 27 29  2  0
 28 27  1  0
 30 28  1  0
 31 40  2  0
 31 36  1  0
 32 28  1  0
 32 36  1  0
 33 32  1  0
 34 35  1  0
 34 33  1  0
 35 31  1  0
 36 37  2  0
 37 38  1  0
 39 38  2  0
 40 39  1  0
 41 15  1  0
 41 46  1  0
 41 42  1  0
 42 45  1  1
 42 43  1  0
 44 42  1  0
 46 49  1  0
 47 51  1  0
 47 46  1  0
 48 47  2  0
 51 50  1  0
 53 51  1  0
 53 54  1  0
 53 52  1  0
 56 55  1  0
 57 56  1  0
 58 57  1  0
 59 60  1  0
 59 58  1  0
 61 62  1  0
 61 60  1  0
 62 63  1  0
 63 64  1  0
 64 65  1  0
 66 74  1  0
 67 72  1  0
 68 69  1  0
 68 67  1  0
 70 69  1  0
 70 79  1  0
 70 71  1  0
 72 66  1  0
 72 71  1  0
 73 66  2  0
 74 65  1  0
 74 75  1  0
 76 77  2  0
 77 96  1  0
 78 77  1  0
 78 81  1  0
 79 80  1  0
 79 76  1  0
 80 78  2  0
 81 82  1  0
 82 83  2  0
 84 87  1  0
 84 83  1  0
 85 84  2  0
 86 85  1  0
 86 81  2  0
 87 88  1  0
 88 89  1  0
 89 90  2  0
 91 90  1  0
 91 95  1  0
 92 91  2  0
 93 88  2  0
 93 92  1  0
 94 93  1  0
 96 97  1  0
 97100  1  0
 97 99  1  0
 98 96  2  0
101 76  1  0
101102  1  0
103101  1  0
M  ISO  4  13 101  14 101  66 100  74 100
M  END
>  <TORSDO>  (27) 
F 33

>  <SCORE>  (27) 
21.455

>  <name>  (27) 
29

>  <ligand_id>  (27) 
29

>  <original_smiles>  (27) 
[H]C(=C([H])C([H])([H])C([H])([H])[N+]([H])([H])C([H])([H])C([H])([H])OC([H])([H])C([H])([H])OC([H])([H])C([H])([H])OC([H])([H])C([H])([H])N([H])C(=O)N1C([H])([H])C([H])([H])C([H])([H])C([H])(n2nc(-c3c([H])c([H])c(Oc4c([H])c([H])c(F)c([H])c4F)c([H])c3[H])c(C(=O)N([H])[H])c2N([H])[H])C1([H])[H])C([H])([H])N([H])C(=O)C([H])([H])Oc1c([H])c([H])c2c(c1[H])C([H])([H])N(C(=O)C([H])(N([H])C(=O)C([H])(N([H])C([H])([H])[H])C([H])([H])[H])C(C([H])([H])[H])(C([H])([H])[H])C([H])([H])[H])C([H])(C(=O)N([H])C1([H])c3c([H])c([H])c([H])c([H])c3C([H])([H])C([H])([H])C1([H])[H])C2([H])[H]

>  <smiles>  (27) 
[H]C(=C([H])C([H])([H])C([H])([H])[N+]([H])([H])C([H])([H])C([H])([H])OC([H])([H])C([H])([H])OC([H])([H])C([H])([H])OC([H])([H])C([H])([H])N([H])C(=O)N1C([H])([H])C([H])([H])C([H])([H])C([H])(n2nc(-c3c([H])c([H])c(Oc4c([H])c([H])c(F)c([H])c4F)c([H])c3[H])c(C(=O)N([H])[H])c2N([H])[H])C1([H])[H])C([H])([H])N([H])C(=O)C([H])([H])Oc1c([H])c([H])c2c(c1[H])C([H])([H])N(C(=O)C([H])(N([H])C(=O)C([H])(N([H])C([H])([H])[H])C([H])([H])[H])C(C([H])([H])[H])(C([H])([H])[H])C([H])([H])[H])C([H])(C(=O)N([H])C1([H])c3c([H])c([H])c([H])c([H])c3C([H])([H])C([H])([H])C1([H])[H])C2([H])[H]

$$$$
30:0:0
     RDKit          3D

103110  0  0  1  0  0  0  0  0999 V2000
  -30.1340  -22.0290   14.8200 C   0  0  0  0  0  2  0  0  0  0  0  0
  -30.0870  -23.6490   16.7090 C   0  0  0  0  0  0  0  0  0  0  0  0
  -30.7390  -22.8140   15.8940 N   0  0  0  0  0  0  0  0  0  0  0  0
  -28.8750  -23.8600   16.6170 O   0  0  0  0  0  0  0  0  0  0  0  0
  -31.7250  -22.6630   16.0600 H   0  0  0  0  0  0  0  0  0  0  0  0
  -30.9010  -24.3380   17.8030 C   0  0  0  0  0  2  0  0  0  0  0  0
  -30.1400  -25.4760   18.3540 N   0  0  0  0  0  4  0  0  0  0  0  0
  -29.1800  -25.1630   18.3910 H   0  0  0  0  0  0  0  0  0  0  0  0
  -30.1610  -26.2390   17.6950 H   0  0  0  0  0  0  0  0  0  0  0  0
  -30.5490  -25.9260   19.7050 C   0  0  0  0  0  2  0  0  0  0  0  0
  -29.5470  -26.9480   20.2530 C   0  0  0  0  0  2  0  0  0  0  0  0
  -28.2700  -26.3240   20.1620 O   0  0  0  0  0  0  0  0  0  0  0  0
  -24.4980  -31.5950   23.1850 C   0  0  0  0  0  0  0  0  0  0  0  0
  -27.1530  -27.1230   20.1950 C   0  0  0  0  0  0  0  0  0  0  0  0
  -23.3090  -30.2130   21.5100 C   0  0  0  0  0  3  0  0  0  0  0  0
  -24.7740  -28.6400   20.1380 C   0  0  0  0  0  0  0  0  0  0  0  0
  -25.8410  -30.5320   21.3800 C   0  0  0  0  0  2  0  0  0  0  0  0
  -25.9200  -29.1570   20.7550 C   0  0  0  0  0  0  0  0  0  0  0  0
  -27.1130  -28.4080   20.7860 C   0  0  0  0  0  3  0  0  0  0  0  0
  -25.9850  -26.6050   19.5990 C   0  0  0  0  0  3  0  0  0  0  0  0
  -24.7960  -27.3590   19.5610 C   0  0  0  0  0  3  0  0  0  0  0  0
  -23.5440  -29.5190   20.1410 C   0  0  0  0  0  2  0  0  0  0  0  0
  -24.5660  -30.7930   22.0860 N   0  0  0  0  0  0  0  0  0  0  0  0
  -23.4080  -31.8930   23.6930 O   0  0  0  0  0  0  0  0  0  0  0  0
  -22.6090  -29.2110   22.4540 C   0  0  0  0  0  0  0  0  0  0  0  0
  -21.2860  -29.0610   22.2890 N   0  0  0  0  0  0  0  0  0  0  0  0
  -23.2550  -28.5690   23.2870 O   0  0  0  0  0  0  0  0  0  0  0  0
  -20.8300  -29.6290   21.5890 H   0  0  0  0  0  0  0  0  0  0  0  0
  -17.8700  -27.9590   22.6880 C   0  0  0  0  0  0  0  0  0  0  0  0
  -20.4240  -28.1460   23.0350 C   0  0  0  0  0  3  0  0  0  0  0  0
  -20.5050  -26.7130   22.4610 C   0  0  0  0  0  2  0  0  0  0  0  0
  -19.4250  -26.4180   21.4160 C   0  0  0  0  0  2  0  0  0  0  0  0
  -18.0290  -26.6030   22.0190 C   0  0  0  0  0  2  0  0  0  0  0  0
  -18.9960  -28.6900   23.1500 C   0  0  0  0  0  0  0  0  0  0  0  0
  -18.7960  -29.9610   23.7310 C   0  0  0  0  0  3  0  0  0  0  0  0
  -17.5020  -30.5000   23.8560 C   0  0  0  0  0  3  0  0  0  0  0  0
  -16.3890  -29.7650   23.4120 C   0  0  0  0  0  3  0  0  0  0  0  0
  -16.5740  -28.4960   22.8330 C   0  0  0  0  0  3  0  0  0  0  0  0
  -25.7810  -32.1970   23.8400 C   0  0  0  0  0  3  0  0  0  0  0  0
  -25.4980  -33.6010   24.1580 N   0  0  0  0  0  0  0  0  0  0  0  0
  -25.8790  -34.6420   23.4040 C   0  0  0  0  0  0  0  0  0  0  0  0
  -26.5760  -34.5180   22.3930 O   0  0  0  0  0  0  0  0  0  0  0  0
  -24.8850  -33.7750   24.9410 H   0  0  0  0  0  0  0  0  0  0  0  0
  -24.1980  -36.4670   22.9940 C   0  0  0  0  0  1  0  0  0  0  0  0
  -25.4090  -36.0430   23.8400 C   0  0  0  0  0  3  0  0  0  0  0  0
  -27.5390  -36.8870   24.7230 C   0  0  0  0  0  1  0  0  0  0  0  0
  -26.4660  -37.0730   23.7490 N   0  0  0  0  0  0  0  0  0  0  0  0
  -26.0750  -38.0010   23.8810 H   0  0  0  0  0  0  0  0  0  0  0  0
  -26.2470  -31.4140   25.1300 C   0  0  1  0  0  0  0  0  0  0  0  0
  -25.1190  -31.1930   26.1630 C   0  0  0  0  0  1  0  0  0  0  0  0
  -26.8170  -30.0280   24.7470 C   0  0  0  0  0  1  0  0  0  0  0  0
  -27.3910  -32.1860   25.8280 C   0  0  0  0  0  1  0  0  0  0  0  0
  -29.6380  -20.6690   15.3310 C   0  0  0  0  0  2  0  0  0  0  0  0
  -30.7300  -20.0170   15.9610 O   0  0  0  0  0  0  0  0  0  0  0  0
  -30.4080  -18.7330   16.4760 C   0  0  0  0  0  2  0  0  0  0  0  0
  -31.4980  -18.3560   17.4860 C   0  0  0  0  0  2  0  0  0  0  0  0
  -31.5330  -19.3510   18.5020 O   0  0  0  0  0  0  0  0  0  0  0  0
  -32.7780  -19.3830   19.1880 C   0  0  0  0  0  2  0  0  0  0  0  0
  -32.6910  -20.3180   20.4020 C   0  0  0  0  0  2  0  0  0  0  0  0
  -31.6790  -19.8270   21.2700 O   0  0  0  0  0  0  0  0  0  0  0  0
  -31.7580  -20.3490   22.5910 C   0  0  0  0  0  2  0  0  0  0  0  0
  -30.8910  -19.4990   23.5330 C   0  0  0  0  0  2  0  0  0  0  0  0
  -31.2720  -18.1320   23.4220 O   0  0  0  0  0  0  0  0  0  0  0  0
  -30.5270  -17.4040   22.4550 C   0  0  0  0  0  2  0  0  0  0  0  0
  -31.4770  -16.4690   21.6970 C   0  0  0  0  0  2  0  0  0  0  0  0
  -30.9780  -14.6960   20.0050 C   0  0  0  0  0  0  0  0  0  0  0  0
  -30.6180  -12.5180   18.8970 C   0  0  0  0  0  2  0  0  0  0  0  0
  -29.6150  -12.5630   17.7350 C   0  0  0  0  0  2  0  0  0  0  0  0
  -28.1720  -12.4140   18.2500 C   0  0  0  0  0  2  0  0  0  0  0  0
  -27.8550  -13.3740   19.4250 C   0  0  0  0  0  3  0  0  0  0  0  0
  -28.9510  -13.2920   20.5060 C   0  0  0  0  0  2  0  0  0  0  0  0
  -30.2610  -13.5540   19.8770 N   0  0  0  0  0  0  0  0  0  0  0  0
  -31.8720  -15.0460   19.2280 O   0  0  0  0  0  0  0  0  0  0  0  0
  -30.7410  -15.3350   21.1530 N   0  0  0  0  0  0  0  0  0  0  0  0
  -30.0300  -14.9280   21.7410 H   0  0  0  0  0  0  0  0  0  0  0  0
  -25.5190  -13.9990   20.3130 C   0  0  0  0  0  0  0  0  0  0  0  0
  -24.4650  -13.2330   20.7330 C   0  0  0  0  0  0  0  0  0  0  0  0
  -24.8970  -11.8760   20.6270 C   0  0  0  0  0  0  0  0  0  0  0  0
  -26.5300  -13.1090   19.9850 N   0  0  0  0  0  0  0  0  0  0  0  0
  -26.1610  -11.8250   20.2280 N   0  0  0  0  0  0  0  0  0  0  0  0
  -24.1640  -10.6200   20.8330 C   0  0  0  0  0  0  0  0  0  0  0  0
  -24.5870   -9.6620   21.7820 C   0  0  0  0  0  3  0  0  0  0  0  0
  -23.8550   -8.4700   21.9700 C   0  0  0  0  0  3  0  0  0  0  0  0
  -22.6850   -8.2270   21.2100 C   0  0  0  0  0  0  0  0  0  0  0  0
  -22.2820   -9.1740   20.2520 C   0  0  0  0  0  3  0  0  0  0  0  0
  -23.0140  -10.3580   20.0620 C   0  0  0  0  0  3  0  0  0  0  0  0
  -21.9250   -7.0870   21.3070 O   0  0  0  0  0  0  0  0  0  0  0  0
  -21.7810   -6.4180   22.4950 C   0  0  0  0  0  0  0  0  0  0  0  0
  -21.2570   -7.0470   23.6450 C   0  0  0  0  0  3  0  0  0  0  0  0
  -21.0600   -6.3040   24.8260 C   0  0  0  0  0  3  0  0  0  0  0  0
  -21.3760   -4.9330   24.8570 C   0  0  0  0  0  0  0  0  0  0  0  0
  -21.8930   -4.3040   23.7120 C   0  0  0  0  0  3  0  0  0  0  0  0
  -22.0910   -5.0430   22.5330 C   0  0  0  0  0  0  0  0  0  0  0  0
  -22.5700   -4.4280   21.4250 F   0  0  0  0  0  0  0  0  0  0  0  0
  -21.1800   -4.2170   25.9880 F   0  0  0  0  0  0  0  0  0  0  0  0
  -23.0980  -13.7230   21.1190 C   0  0  0  0  0  0  0  0  0  0  0  0
  -22.4270  -13.0230   22.0270 N   0  0  0  0  0  0  0  0  0  0  0  0
  -22.6370  -14.7630   20.6510 O   0  0  0  0  0  0  0  0  0  0  0  0
  -22.8130  -12.1820   22.4290 H   0  0  0  0  0  0  0  0  0  0  0  0
  -21.5150  -13.3340   22.3280 H   0  0  0  0  0  0  0  0  0  0  0  0
  -25.6990  -15.3720   20.1680 N   0  0  0  0  0  0  0  0  0  0  0  0
  -24.9560  -16.0390   20.3480 H   0  0  0  0  0  0  0  0  0  0  0  0
  -26.5430  -15.8030   19.8140 H   0  0  0  0  0  0  0  0  0  0  0  0
  1 53  1  0
  1  3  1  0
  2  6  1  0
  3  5  1  0
  3  2  1  0
  4  2  2  0
  6  7  1  0
  7  8  1  0
  7 10  1  0
  9  7  1  0
 10 11  1  0
 12 14  1  0
 12 11  1  0
 13 24  2  0
 14 19  1  0
 15 23  1  0
 15 25  1  0
 16 22  1  0
 16 18  1  0
 17 23  1  0
 18 19  2  0
 18 17  1  0
 20 14  2  0
 21 20  1  0
 21 16  2  0
 22 15  1  0
 23 13  1  0
 25 27  2  0
 26 25  1  0
 28 26  1  0
 29 38  2  0
 29 34  1  0
 30 26  1  0
 30 34  1  0
 31 30  1  0
 32 33  1  0
 32 31  1  0
 33 29  1  0
 34 35  2  0
 35 36  1  0
 37 36  2  0
 38 37  1  0
 39 13  1  0
 39 40  1  0
 39 49  1  0
 40 43  1  0
 41 45  1  0
 41 40  1  0
 42 41  2  0
 45 44  1  0
 47 45  1  0
 47 48  1  0
 47 46  1  0
 49 52  1  1
 49 50  1  0
 51 49  1  0
 53 54  1  0
 54 55  1  0
 55 56  1  0
 56 57  1  0
 57 58  1  0
 58 59  1  0
 59 60  1  0
 60 61  1  0
 61 62  1  0
 63 62  1  0
 64 63  1  0
 65 64  1  0
 66 74  1  0
 67 72  1  0
 68 69  1  0
 68 67  1  0
 70 69  1  0
 70 79  1  0
 70 71  1  0
 72 66  1  0
 72 71  1  0
 73 66  2  0
 74 65  1  0
 74 75  1  0
 76 77  2  0
 77 96  1  0
 78 77  1  0
 78 81  1  0
 79 80  1  0
 79 76  1  0
 80 78  2  0
 81 82  1  0
 82 83  2  0
 84 87  1  0
 84 83  1  0
 85 84  2  0
 86 85  1  0
 86 81  2  0
 87 88  1  0
 88 93  2  0
 88 89  1  0
 89 90  2  0
 90 91  1  0
 91 95  1  0
 92 91  2  0
 93 92  1  0
 94 93  1  0
 96 97  1  0
 97100  1  0
 97 99  1  0
 98 96  2  0
101 76  1  0
101102  1  0
103101  1  0
M  ISO  4  11 101  12 101  66 100  74 100
M  END
>  <TORSDO>  (28) 
F 34

>  <SCORE>  (28) 
-9.253

>  <name>  (28) 
30

>  <ligand_id>  (28) 
30

>  <original_smiles>  (28) 
[H]c1c([H])c([H])c2c(c1[H])C([H])([H])C([H])([H])C([H])([H])C2([H])N([H])C(=O)C1([H])N(C(=O)C([H])(N([H])C(=O)C([H])(N([H])C([H])([H])[H])C([H])([H])[H])C(C([H])([H])[H])(C([H])([H])[H])C([H])([H])[H])C([H])([H])c2c([H])c(OC([H])([H])C([H])([H])[N+]([H])([H])C([H])([H])C(=O)N([H])C([H])([H])C([H])([H])OC([H])([H])C([H])([H])OC([H])([H])C([H])([H])OC([H])([H])C([H])([H])OC([H])([H])C([H])([H])N([H])C(=O)N3C([H])([H])C([H])([H])C([H])([H])C([H])(n4nc(-c5c([H])c([H])c(Oc6c([H])c([H])c(F)c([H])c6F)c([H])c5[H])c(C(=O)N([H])[H])c4N([H])[H])C3([H])[H])c([H])c([H])c2C1([H])[H]

>  <smiles>  (28) 
[H]c1c([H])c([H])c2c(c1[H])C([H])([H])C([H])([H])C([H])([H])C2([H])N([H])C(=O)C1([H])N(C(=O)C([H])(N([H])C(=O)C([H])(N([H])C([H])([H])[H])C([H])([H])[H])C(C([H])([H])[H])(C([H])([H])[H])C([H])([H])[H])C([H])([H])c2c([H])c(OC([H])([H])C([H])([H])[N+]([H])([H])C([H])([H])C(=O)N([H])C([H])([H])C([H])([H])OC([H])([H])C([H])([H])OC([H])([H])C([H])([H])OC([H])([H])C([H])([H])OC([H])([H])C([H])([H])N([H])C(=O)N3C([H])([H])C([H])([H])C([H])([H])C([H])(n4nc(-c5c([H])c([H])c(Oc6c([H])c([H])c(F)c([H])c6F)c([H])c5[H])c(C(=O)N([H])[H])c4N([H])[H])C3([H])[H])c([H])c([H])c2C1([H])[H]

$$$$
31:0:0
     RDKit          3D

 99106  0  0  1  0  0  0  0  0999 V2000
  -28.0210  -22.6930   17.7540 C   0  0  0  0  0  2  0  0  0  0  0  0
  -27.0680  -21.6950   17.0710 C   0  0  0  0  0  2  0  0  0  0  0  0
  -25.9040  -21.2260   17.9670 C   0  0  0  0  0  2  0  0  0  0  0  0
  -26.8580  -19.2670   19.1620 C   0  0  0  0  0  0  0  0  0  0  0  0
  -26.3890  -20.5200   19.1500 N   0  0  0  0  0  0  0  0  0  0  0  0
  -26.8110  -18.5290   18.1770 O   0  0  0  0  0  0  0  0  0  0  0  0
  -26.4390  -21.0480   20.0110 H   0  0  0  0  0  0  0  0  0  0  0  0
  -27.4910  -18.7690   20.4620 C   0  0  0  0  0  2  0  0  0  0  0  0
  -29.0270  -18.6340   20.3490 C   0  0  0  0  0  2  0  0  0  0  0  0
  -29.5910  -17.3720   21.0220 C   0  0  0  0  0  2  0  0  0  0  0  0
  -31.1010  -17.2010   20.7640 C   0  0  0  0  0  2  0  0  0  0  0  0
  -31.7020  -15.9430   21.4180 C   0  0  0  0  0  2  0  0  0  0  0  0
  -31.3700  -13.8560   20.0760 C   0  0  0  0  0  0  0  0  0  0  0  0
  -30.8580  -11.6980   18.9890 C   0  0  0  0  0  2  0  0  0  0  0  0
  -29.8990  -11.8640   17.7960 C   0  0  0  0  0  2  0  0  0  0  0  0
  -28.4310  -11.8650   18.2630 C   0  0  0  0  0  2  0  0  0  0  0  0
  -28.1810  -12.8300   19.4530 C   0  0  0  0  0  3  0  0  0  0  0  0
  -29.2340  -12.6060   20.5580 C   0  0  0  0  0  2  0  0  0  0  0  0
  -30.5760  -12.7610   19.9640 N   0  0  0  0  0  0  0  0  0  0  0  0
  -32.3840  -14.0350   19.3950 O   0  0  0  0  0  0  0  0  0  0  0  0
  -31.0050  -14.7180   21.0330 N   0  0  0  0  0  0  0  0  0  0  0  0
  -30.1820  -14.4690   21.5640 H   0  0  0  0  0  0  0  0  0  0  0  0
  -25.8700  -13.6720   20.2260 C   0  0  0  0  0  0  0  0  0  0  0  0
  -24.7460  -13.0090   20.6380 C   0  0  0  0  0  0  0  0  0  0  0  0
  -25.0750  -11.6190   20.6070 C   0  0  0  0  0  0  0  0  0  0  0  0
  -26.8200  -12.6930   19.9720 N   0  0  0  0  0  0  0  0  0  0  0  0
  -26.3450  -11.4540   20.2610 N   0  0  0  0  0  0  0  0  0  0  0  0
  -24.2400  -10.4330   20.8350 C   0  0  0  0  0  0  0  0  0  0  0  0
  -24.6030   -9.4450   21.7760 C   0  0  0  0  0  3  0  0  0  0  0  0
  -23.7730   -8.3220   21.9900 C   0  0  0  0  0  3  0  0  0  0  0  0
  -22.5650   -8.1830   21.2660 C   0  0  0  0  0  0  0  0  0  0  0  0
  -22.2210   -9.1590   20.3140 C   0  0  0  0  0  3  0  0  0  0  0  0
  -23.0500  -10.2720   20.0980 C   0  0  0  0  0  3  0  0  0  0  0  0
  -21.7080   -7.1160   21.3930 O   0  0  0  0  0  0  0  0  0  0  0  0
  -21.6170   -6.4010   22.5610 C   0  0  0  0  0  0  0  0  0  0  0  0
  -21.2770   -7.0140   23.7870 C   0  0  0  0  0  3  0  0  0  0  0  0
  -21.1240   -6.2290   24.9480 C   0  0  0  0  0  3  0  0  0  0  0  0
  -21.3010   -4.8340   24.8840 C   0  0  0  0  0  0  0  0  0  0  0  0
  -21.6310   -4.2220   23.6630 C   0  0  0  0  0  3  0  0  0  0  0  0
  -21.7870   -5.0030   22.5040 C   0  0  0  0  0  0  0  0  0  0  0  0
  -22.0850   -4.4050   21.3260 F   0  0  0  0  0  0  0  0  0  0  0  0
  -21.1480   -4.0800   25.9970 F   0  0  0  0  0  0  0  0  0  0  0  0
  -23.4080  -13.6180   20.9460 C   0  0  0  0  0  0  0  0  0  0  0  0
  -22.6500  -13.0100   21.8520 N   0  0  0  0  0  0  0  0  0  0  0  0
  -23.0460  -14.6660   20.4140 O   0  0  0  0  0  0  0  0  0  0  0  0
  -22.9530  -12.1610   22.3090 H   0  0  0  0  0  0  0  0  0  0  0  0
  -21.7510  -13.4010   22.0970 H   0  0  0  0  0  0  0  0  0  0  0  0
  -26.1560  -15.0200   20.0210 N   0  0  0  0  0  0  0  0  0  0  0  0
  -25.4520  -15.7400   20.1310 H   0  0  0  0  0  0  0  0  0  0  0  0
  -27.0150  -15.3710   19.6120 H   0  0  0  0  0  0  0  0  0  0  0  0
  -29.4080  -22.7340   17.0800 C   0  0  0  0  0  2  0  0  0  0  0  0
  -30.2660  -23.9720   17.4190 C   0  0  0  0  0  2  0  0  0  0  0  0
  -30.5010  -24.2240   18.9120 C   0  0  0  0  0  0  0  0  0  0  0  0
  -30.6130  -25.5060   19.2760 N   0  0  0  0  0  0  0  0  0  0  0  0
  -30.5670  -23.2900   19.7130 O   0  0  0  0  0  0  0  0  0  0  0  0
  -30.5540  -26.1970   18.5410 H   0  0  0  0  0  0  0  0  0  0  0  0
  -30.5980  -26.0170   20.6440 C   0  0  0  0  0  2  0  0  0  0  0  0
  -29.5500  -27.1320   20.7760 C   0  0  0  0  0  2  0  0  0  0  0  0
  -28.3230  -26.6390   20.2490 O   0  0  0  0  0  0  0  0  0  0  0  0
  -24.5690  -31.9060   23.2930 C   0  0  0  0  0  0  0  0  0  0  0  0
  -27.2010  -27.4320   20.2900 C   0  0  0  0  0  0  0  0  0  0  0  0
  -23.3490  -30.4790   21.6780 C   0  0  0  0  0  3  0  0  0  0  0  0
  -24.7950  -28.9110   20.2800 C   0  0  0  0  0  0  0  0  0  0  0  0
  -25.8690  -30.8380   21.4590 C   0  0  0  0  0  2  0  0  0  0  0  0
  -25.9500  -29.4560   20.8520 C   0  0  0  0  0  0  0  0  0  0  0  0
  -27.1570  -28.7270   20.8580 C   0  0  0  0  0  3  0  0  0  0  0  0
  -26.0280  -26.8930   19.7250 C   0  0  0  0  0  3  0  0  0  0  0  0
  -24.8250  -27.6240   19.7140 C   0  0  0  0  0  3  0  0  0  0  0  0
  -23.5500  -29.7680   20.3110 C   0  0  0  0  0  2  0  0  0  0  0  0
  -24.6130  -31.0890   22.2030 N   0  0  0  0  0  0  0  0  0  0  0  0
  -23.4920  -32.1920   23.8330 O   0  0  0  0  0  0  0  0  0  0  0  0
  -22.6980  -29.4800   22.6600 C   0  0  0  0  0  0  0  0  0  0  0  0
  -21.3740  -29.2940   22.5310 N   0  0  0  0  0  0  0  0  0  0  0  0
  -23.3790  -28.8720   23.4890 O   0  0  0  0  0  0  0  0  0  0  0  0
  -20.8870  -29.8350   21.8300 H   0  0  0  0  0  0  0  0  0  0  0  0
  -18.0030  -28.0970   23.0180 C   0  0  0  0  0  0  0  0  0  0  0  0
  -20.5540  -28.3740   23.3180 C   0  0  0  0  0  3  0  0  0  0  0  0
  -20.6720  -26.9280   22.7830 C   0  0  0  0  0  2  0  0  0  0  0  0
  -19.5840  -26.5710   21.7630 C   0  0  0  0  0  2  0  0  0  0  0  0
  -18.1930  -26.7290   22.3850 C   0  0  0  0  0  2  0  0  0  0  0  0
  -19.1110  -28.8760   23.4410 C   0  0  0  0  0  0  0  0  0  0  0  0
  -18.8810  -30.1550   23.9910 C   0  0  0  0  0  3  0  0  0  0  0  0
  -17.5720  -30.6560   24.1240 C   0  0  0  0  0  3  0  0  0  0  0  0
  -16.4760  -29.8740   23.7180 C   0  0  0  0  0  3  0  0  0  0  0  0
  -16.6920  -28.5970   23.1710 C   0  0  0  0  0  3  0  0  0  0  0  0
  -25.8620  -32.5370   23.8960 C   0  0  0  0  0  3  0  0  0  0  0  0
  -25.5640  -33.9410   24.2090 N   0  0  0  0  0  0  0  0  0  0  0  0
  -25.9010  -34.9800   23.4330 C   0  0  0  0  0  0  0  0  0  0  0  0
  -26.5680  -34.8570   22.4020 O   0  0  0  0  0  0  0  0  0  0  0  0
  -24.9730  -34.1110   25.0090 H   0  0  0  0  0  0  0  0  0  0  0  0
  -24.1770  -36.7720   23.0560 C   0  0  0  0  0  1  0  0  0  0  0  0
  -25.4210  -36.3770   23.8700 C   0  0  0  0  0  3  0  0  0  0  0  0
  -27.5670  -37.2580   24.6720 C   0  0  0  0  0  1  0  0  0  0  0  0
  -26.4560  -37.4240   23.7380 N   0  0  0  0  0  0  0  0  0  0  0  0
  -26.0550  -38.3470   23.8830 H   0  0  0  0  0  0  0  0  0  0  0  0
  -26.3880  -31.7790   25.1760 C   0  0  1  0  0  0  0  0  0  0  0  0
  -25.3040  -31.5590   26.2570 C   0  0  0  0  0  1  0  0  0  0  0  0
  -26.9590  -30.3930   24.7910 C   0  0  0  0  0  1  0  0  0  0  0  0
  -27.5480  -32.5740   25.8180 C   0  0  0  0  0  1  0  0  0  0  0  0
  2  1  1  0
  2  3  1  0
  3  5  1  0
  4  8  1  0
  5  4  1  0
  5  7  1  0
  6  4  2  0
  9  8  1  0
  9 10  1  0
 11 10  1  0
 11 12  1  0
 13 21  1  0
 14 19  1  0
 15 16  1  0
 15 14  1  0
 17 16  1  0
 17 26  1  0
 17 18  1  0
 19 13  1  0
 19 18  1  0
 20 13  2  0
 21 12  1  0
 21 22  1  0
 23 24  2  0
 24 43  1  0
 25 24  1  0
 25 28  1  0
 26 23  1  0
 26 27  1  0
 27 25  2  0
 28 29  1  0
 29 30  2  0
 31 34  1  0
 31 30  1  0
 32 31  2  0
 33 32  1  0
 33 28  2  0
 34 35  1  0
 35 36  1  0
 36 37  2  0
 38 37  1  0
 38 42  1  0
 39 38  2  0
 40 35  2  0
 40 39  1  0
 41 40  1  0
 43 44  1  0
 44 47  1  0
 44 46  1  0
 45 43  2  0
 48 49  1  0
 48 23  1  0
 50 48  1  0
 51 52  1  0
 51  1  1  0
 52 53  1  0
 53 54  1  0
 53 55  2  0
 54 57  1  0
 56 54  1  0
 57 58  1  0
 59 61  1  0
 59 58  1  0
 60 71  2  0
 61 66  1  0
 62 70  1  0
 62 72  1  0
 63 69  1  0
 63 65  1  0
 64 70  1  0
 65 66  2  0
 65 64  1  0
 67 61  2  0
 68 67  1  0
 68 63  2  0
 69 62  1  0
 70 60  1  0
 72 74  2  0
 73 72  1  0
 75 73  1  0
 76 85  2  0
 76 81  1  0
 77 73  1  0
 77 81  1  0
 78 77  1  0
 79 80  1  0
 79 78  1  0
 80 76  1  0
 81 82  2  0
 82 83  1  0
 84 83  2  0
 85 84  1  0
 86 60  1  0
 86 87  1  0
 86 96  1  0
 87 90  1  0
 88 92  1  0
 88 87  1  0
 89 88  2  0
 92 91  1  0
 94 92  1  0
 94 95  1  0
 94 93  1  0
 96 99  1  1
 96 97  1  0
 98 96  1  0
M  ISO  4  13 100  21 100  58 101  59 101
M  END
>  <TORSDO>  (29) 
F 29

>  <SCORE>  (29) 
-9.771

>  <name>  (29) 
31

>  <ligand_id>  (29) 
31

>  <original_smiles>  (29) 
[H]c1c([H])c([H])c2c(c1[H])C([H])([H])C([H])([H])C([H])([H])C2([H])N([H])C(=O)C1([H])N(C(=O)C([H])(N([H])C(=O)C([H])(N([H])C([H])([H])[H])C([H])([H])[H])C(C([H])([H])[H])(C([H])([H])[H])C([H])([H])[H])C([H])([H])c2c([H])c(OC([H])([H])C([H])([H])N([H])C(=O)C([H])([H])C([H])([H])C([H])([H])C([H])([H])C([H])([H])N([H])C(=O)C([H])([H])C([H])([H])C([H])([H])C([H])([H])C([H])([H])N([H])C(=O)N3C([H])([H])C([H])([H])C([H])([H])C([H])(n4nc(-c5c([H])c([H])c(Oc6c([H])c([H])c(F)c([H])c6F)c([H])c5[H])c(C(=O)N([H])[H])c4N([H])[H])C3([H])[H])c([H])c([H])c2C1([H])[H]

>  <smiles>  (29) 
[H]c1c([H])c([H])c2c(c1[H])C([H])([H])C([H])([H])C([H])([H])C2([H])N([H])C(=O)C1([H])N(C(=O)C([H])(N([H])C(=O)C([H])(N([H])C([H])([H])[H])C([H])([H])[H])C(C([H])([H])[H])(C([H])([H])[H])C([H])([H])[H])C([H])([H])c2c([H])c(OC([H])([H])C([H])([H])N([H])C(=O)C([H])([H])C([H])([H])C([H])([H])C([H])([H])C([H])([H])N([H])C(=O)C([H])([H])C([H])([H])C([H])([H])C([H])([H])C([H])([H])N([H])C(=O)N3C([H])([H])C([H])([H])C([H])([H])C([H])(n4nc(-c5c([H])c([H])c(Oc6c([H])c([H])c(F)c([H])c6F)c([H])c5[H])c(C(=O)N([H])[H])c4N([H])[H])C3([H])[H])c([H])c([H])c2C1([H])[H]

$$$$
32:0:0
     RDKit          3D

107114  0  0  1  0  0  0  0  0999 V2000
  -28.0910  -15.9740   18.5100 C   0  0  0  0  0  0  0  0  0  0  0  0
  -27.8350  -17.0100   19.3320 N   0  0  0  0  0  0  0  0  0  0  0  0
  -29.0270  -15.9900   17.7060 O   0  0  0  0  0  0  0  0  0  0  0  0
  -27.0490  -16.9140   19.9670 H   0  0  0  0  0  0  0  0  0  0  0  0
  -28.4860  -18.3210   19.2310 C   0  0  0  0  0  2  0  0  0  0  0  0
  -28.5140  -19.1080   20.5660 C   0  0  0  0  0  2  0  0  0  0  0  0
  -29.5700  -20.2320   20.5580 C   0  0  0  0  0  2  0  0  0  0  0  0
  -30.0070  -20.7210   21.9550 C   0  0  0  0  0  2  0  0  0  0  0  0
  -30.1500  -23.1950   22.1670 C   0  0  0  0  0  0  0  0  0  0  0  0
  -29.4950  -22.0380   22.3320 N   0  0  0  0  0  0  0  0  0  0  0  0
  -31.0880  -23.3240   21.3820 O   0  0  0  0  0  0  0  0  0  0  0  0
  -28.7050  -22.0470   22.9650 H   0  0  0  0  0  0  0  0  0  0  0  0
  -29.7500  -24.3530   23.0880 C   0  0  0  0  0  2  0  0  0  0  0  0
  -29.6800  -25.7370   22.4100 C   0  0  0  0  0  2  0  0  0  0  0  0
  -28.6200  -25.8490   21.3070 C   0  0  0  0  0  2  0  0  0  0  0  0
  -28.6840  -27.1780   20.8010 O   0  0  0  0  0  0  0  0  0  0  0  0
  -24.7030  -32.1730   23.9030 C   0  0  0  0  0  0  0  0  0  0  0  0
  -27.5070  -27.8860   20.7800 C   0  0  0  0  0  0  0  0  0  0  0  0
  -23.6030  -30.8960   22.0900 C   0  0  0  0  0  3  0  0  0  0  0  0
  -25.1340  -29.4080   20.6970 C   0  0  0  0  0  0  0  0  0  0  0  0
  -26.1380  -31.2200   22.1000 C   0  0  0  0  0  2  0  0  0  0  0  0
  -26.2480  -29.8850   21.3970 C   0  0  0  0  0  0  0  0  0  0  0  0
  -27.4390  -29.1320   21.4360 C   0  0  0  0  0  3  0  0  0  0  0  0
  -26.3760  -27.4060   20.0850 C   0  0  0  0  0  3  0  0  0  0  0  0
  -25.1900  -28.1640   20.0410 C   0  0  0  0  0  3  0  0  0  0  0  0
  -23.9030  -30.2820   20.6960 C   0  0  0  0  0  2  0  0  0  0  0  0
  -24.8300  -31.4400   22.7590 N   0  0  0  0  0  0  0  0  0  0  0  0
  -23.5900  -32.4360   24.3780 O   0  0  0  0  0  0  0  0  0  0  0  0
  -22.8620  -29.8360   22.9380 C   0  0  0  0  0  0  0  0  0  0  0  0
  -21.5700  -29.6280   22.6370 N   0  0  0  0  0  0  0  0  0  0  0  0
  -23.4520  -29.2060   23.8190 O   0  0  0  0  0  0  0  0  0  0  0  0
  -21.1590  -30.1910   21.9040 H   0  0  0  0  0  0  0  0  0  0  0  0
  -18.2250  -28.2680   22.5810 C   0  0  0  0  0  0  0  0  0  0  0  0
  -20.6850  -28.6520   23.2720 C   0  0  0  0  0  3  0  0  0  0  0  0
  -20.9530  -27.2280   22.7350 C   0  0  0  0  0  2  0  0  0  0  0  0
  -20.0520  -26.8480   21.5560 C   0  0  0  0  0  2  0  0  0  0  0  0
  -18.5760  -26.9260   21.9600 C   0  0  0  0  0  2  0  0  0  0  0  0
  -19.2180  -29.0860   23.1820 C   0  0  0  0  0  0  0  0  0  0  0  0
  -18.8440  -30.3380   23.7130 C   0  0  0  0  0  3  0  0  0  0  0  0
  -17.5070  -30.7760   23.6520 C   0  0  0  0  0  3  0  0  0  0  0  0
  -16.5260  -29.9550   23.0700 C   0  0  0  0  0  3  0  0  0  0  0  0
  -16.8840  -28.7030   22.5400 C   0  0  0  0  0  3  0  0  0  0  0  0
  -25.9510  -32.7350   24.6570 C   0  0  0  0  0  3  0  0  0  0  0  0
  -26.2780  -31.9550   25.9890 C   0  0  1  0  0  0  0  0  0  0  0  0
  -25.0610  -31.7910   26.9280 C   0  0  0  0  0  1  0  0  0  0  0  0
  -26.8250  -30.5430   25.6700 C   0  0  0  0  0  1  0  0  0  0  0  0
  -27.3890  -32.6940   26.7720 C   0  0  0  0  0  1  0  0  0  0  0  0
  -25.6950  -34.1540   24.9350 N   0  0  0  0  0  0  0  0  0  0  0  0
  -26.1910  -35.1710   24.2170 C   0  0  0  0  0  0  0  0  0  0  0  0
  -26.9790  -35.0070   23.2800 O   0  0  0  0  0  0  0  0  0  0  0  0
  -25.0150  -34.3590   25.6530 H   0  0  0  0  0  0  0  0  0  0  0  0
  -24.6410  -37.0620   23.6300 C   0  0  0  0  0  1  0  0  0  0  0  0
  -25.7420  -36.5940   24.5960 C   0  0  0  0  0  3  0  0  0  0  0  0
  -27.8110  -37.3540   25.6790 C   0  0  0  0  0  1  0  0  0  0  0  0
  -26.8490  -37.5760   24.6030 N   0  0  0  0  0  0  0  0  0  0  0  0
  -26.4900  -38.5240   24.6890 H   0  0  0  0  0  0  0  0  0  0  0  0
  -27.1340  -14.7640   18.5670 C   0  0  0  0  0  2  0  0  0  0  0  0
  -27.8550  -13.5300   18.4960 O   0  0  0  0  0  0  0  0  0  0  0  0
  -27.0650  -12.3490   18.7040 C   0  0  0  0  0  2  0  0  0  0  0  0
  -27.7750  -11.0290   18.2530 C   0  0  0  0  0  2  0  0  0  0  0  0
  -28.1560  -10.1710   19.3410 O   0  0  0  0  0  0  0  0  0  0  0  0
  -28.2570   -8.7610   19.0760 C   0  0  0  0  0  2  0  0  0  0  0  0
  -29.5810   -8.0920   19.5730 C   0  0  0  0  0  2  0  0  0  0  0  0
  -29.7010   -7.9090   20.9990 O   0  0  0  0  0  0  0  0  0  0  0  0
  -31.0150   -7.5030   21.4490 C   0  0  0  0  0  2  0  0  0  0  0  0
  -31.3350   -7.8860   22.9420 C   0  0  0  0  0  2  0  0  0  0  0  0
  -32.6900   -8.3670   23.1460 O   0  0  0  0  0  0  0  0  0  0  0  0
  -32.9350   -9.4070   24.1360 C   0  0  0  0  0  2  0  0  0  0  0  0
  -34.3140  -10.1780   23.9710 C   0  0  0  0  0  2  0  0  0  0  0  0
  -34.1020  -12.0350   22.3400 C   0  0  0  0  0  0  0  0  0  0  0  0
  -33.2790  -10.3610   20.8580 C   0  0  0  0  0  2  0  0  0  0  0  0
  -32.4540  -10.5590   19.6090 C   0  0  0  0  0  2  0  0  0  0  0  0
  -31.0000  -10.7790   19.9990 C   0  0  0  0  0  2  0  0  0  0  0  0
  -30.7780  -11.9390   20.9810 C   0  0  0  0  0  3  0  0  0  0  0  0
  -31.6430  -11.7000   22.2200 C   0  0  0  0  0  2  0  0  0  0  0  0
  -33.0310  -11.4500   21.8030 N   0  0  0  0  0  0  0  0  0  0  0  0
  -35.0390  -12.5140   21.6980 O   0  0  0  0  0  0  0  0  0  0  0  0
  -34.2610  -11.6240   23.6110 N   0  0  0  0  0  0  0  0  0  0  0  0
  -34.9940  -12.1520   24.0690 H   0  0  0  0  0  0  0  0  0  0  0  0
  -28.5980  -13.2150   21.4580 C   0  0  0  0  0  0  0  0  0  0  0  0
  -27.3120  -12.7960   21.6460 C   0  0  0  0  0  0  0  0  0  0  0  0
  -27.3430  -11.3650   21.6040 C   0  0  0  0  0  0  0  0  0  0  0  0
  -29.3610  -12.0690   21.3180 N   0  0  0  0  0  0  0  0  0  0  0  0
  -28.6010  -10.9520   21.4880 N   0  0  0  0  0  0  0  0  0  0  0  0
  -26.2370  -10.3890   21.6320 C   0  0  0  0  0  0  0  0  0  0  0  0
  -26.2250   -9.2920   22.5280 C   0  0  0  0  0  3  0  0  0  0  0  0
  -25.1450   -8.3810   22.5330 C   0  0  0  0  0  3  0  0  0  0  0  0
  -24.0570   -8.5590   21.6450 C   0  0  0  0  0  0  0  0  0  0  0  0
  -24.0730   -9.6470   20.7510 C   0  0  0  0  0  3  0  0  0  0  0  0
  -25.1460  -10.5550   20.7530 C   0  0  0  0  0  3  0  0  0  0  0  0
  -22.9800   -7.7090   21.5740 O   0  0  0  0  0  0  0  0  0  0  0  0
  -22.4980   -7.0550   22.6820 C   0  0  0  0  0  0  0  0  0  0  0  0
  -22.0690   -7.7640   23.8240 C   0  0  0  0  0  3  0  0  0  0  0  0
  -21.5110   -7.0660   24.9110 C   0  0  0  0  0  3  0  0  0  0  0  0
  -21.3760   -5.6680   24.8580 C   0  0  0  0  0  0  0  0  0  0  0  0
  -21.7960   -4.9600   23.7180 C   0  0  0  0  0  3  0  0  0  0  0  0
  -22.3530   -5.6550   22.6270 C   0  0  0  0  0  0  0  0  0  0  0  0
  -22.7350   -4.9690   21.5240 F   0  0  0  0  0  0  0  0  0  0  0  0
  -20.8390   -4.9990   25.9070 F   0  0  0  0  0  0  0  0  0  0  0  0
  -26.0970  -13.6670   21.7850 C   0  0  0  0  0  0  0  0  0  0  0  0
  -25.1080  -13.2500   22.5690 N   0  0  0  0  0  0  0  0  0  0  0  0
  -26.0500  -14.7690   21.2340 O   0  0  0  0  0  0  0  0  0  0  0  0
  -25.1140  -12.3460   23.0220 H   0  0  0  0  0  0  0  0  0  0  0  0
  -24.3170  -13.8600   22.7390 H   0  0  0  0  0  0  0  0  0  0  0  0
  -29.1940  -14.4790   21.3950 N   0  0  0  0  0  0  0  0  0  0  0  0
  -28.6330  -15.3070   21.5590 H   0  0  0  0  0  0  0  0  0  0  0  0
  -30.1690  -14.6040   21.6280 H   0  0  0  0  0  0  0  0  0  0  0  0
  1 57  1  0
  1  2  1  0
  2  4  1  0
  3  1  2  0
  5  2  1  0
  5  6  1  0
  7  6  1  0
  7  8  1  0
  8 10  1  0
  9 10  1  0
  9 13  1  0
 10 12  1  0
 11  9  2  0
 14 13  1  0
 15 14  1  0
 16 15  1  0
 17 28  2  0
 18 16  1  0
 18 23  1  0
 19 27  1  0
 19 29  1  0
 20 22  1  0
 21 27  1  0
 22 23  2  0
 22 21  1  0
 24 18  2  0
 25 24  1  0
 25 20  2  0
 26 20  1  0
 26 19  1  0
 27 17  1  0
 29 31  2  0
 30 29  1  0
 32 30  1  0
 33 38  1  0
 34 30  1  0
 35 34  1  0
 36 37  1  0
 36 35  1  0
 37 33  1  0
 38 34  1  0
 38 39  2  0
 40 39  1  0
 41 40  2  0
 42 33  2  0
 42 41  1  0
 43 17  1  0
 43 48  1  0
 43 44  1  0
 44 47  1  1
 44 45  1  0
 46 44  1  0
 48 51  1  0
 49 53  1  0
 49 48  1  0
 50 49  2  0
 53 52  1  0
 53 55  1  0
 55 56  1  0
 55 54  1  0
 58 57  1  0
 58 59  1  0
 60 59  1  0
 60 61  1  0
 62 61  1  0
 62 63  1  0
 63 64  1  0
 64 65  1  0
 65 66  1  0
 66 67  1  0
 67 68  1  0
 69 68  1  0
 70 78  1  0
 71 76  1  0
 72 73  1  0
 72 71  1  0
 74 73  1  0
 74 83  1  0
 74 75  1  0
 76 75  1  0
 76 70  1  0
 77 70  2  0
 78 69  1  0
 78 79  1  0
 80 81  2  0
 81100  1  0
 82 85  1  0
 82 81  1  0
 83 80  1  0
 83 84  1  0
 84 82  2  0
 85 86  1  0
 86 87  2  0
 88 87  1  0
 89 90  1  0
 89 88  2  0
 90 85  2  0
 91 88  1  0
 91 92  1  0
 92 93  1  0
 93 94  2  0
 95 94  1  0
 95 99  1  0
 96 95  2  0
 97 92  2  0
 97 96  1  0
 98 97  1  0
100101  1  0
101104  1  0
101103  1  0
102100  2  0
105 80  1  0
105106  1  0
105107  1  0
M  ISO  4  15 101  16 101  70 100  78 100
M  END
>  <TORSDO>  (30) 
F 37

>  <SCORE>  (30) 
-3.570

>  <name>  (30) 
32

>  <ligand_id>  (30) 
32

>  <original_smiles>  (30) 
[H]c1c([H])c([H])c2c(c1[H])C([H])([H])C([H])([H])C([H])([H])C2([H])N([H])C(=O)C1([H])N(C(=O)C([H])(N([H])C(=O)C([H])(N([H])C([H])([H])[H])C([H])([H])[H])C(C([H])([H])[H])(C([H])([H])[H])C([H])([H])[H])C([H])([H])c2c([H])c(OC([H])([H])C([H])([H])C([H])([H])C(=O)N([H])C([H])([H])C([H])([H])C([H])([H])C([H])([H])N([H])C(=O)C([H])([H])OC([H])([H])C([H])([H])OC([H])([H])C([H])([H])OC([H])([H])C([H])([H])OC([H])([H])C([H])([H])N([H])C(=O)N3C([H])([H])C([H])([H])C([H])([H])C([H])(n4nc(-c5c([H])c([H])c(Oc6c([H])c([H])c(F)c([H])c6F)c([H])c5[H])c(C(=O)N([H])[H])c4N([H])[H])C3([H])[H])c([H])c([H])c2C1([H])[H]

>  <smiles>  (30) 
[H]c1c([H])c([H])c2c(c1[H])C([H])([H])C([H])([H])C([H])([H])C2([H])N([H])C(=O)C1([H])N(C(=O)C([H])(N([H])C(=O)C([H])(N([H])C([H])([H])[H])C([H])([H])[H])C(C([H])([H])[H])(C([H])([H])[H])C([H])([H])[H])C([H])([H])c2c([H])c(OC([H])([H])C([H])([H])C([H])([H])C(=O)N([H])C([H])([H])C([H])([H])C([H])([H])C([H])([H])N([H])C(=O)C([H])([H])OC([H])([H])C([H])([H])OC([H])([H])C([H])([H])OC([H])([H])C([H])([H])OC([H])([H])C([H])([H])N([H])C(=O)N3C([H])([H])C([H])([H])C([H])([H])C([H])(n4nc(-c5c([H])c([H])c(Oc6c([H])c([H])c(F)c([H])c6F)c([H])c5[H])c(C(=O)N([H])[H])c4N([H])[H])C3([H])[H])c([H])c([H])c2C1([H])[H]

$$$$
33:0:0
     RDKit          3D

 97105  0  0  1  0  0  0  0  0999 V2000
  -25.4590  -23.0070   21.9370 C   0  0  0  0  0  2  0  0  0  0  0  0
  -26.7230  -23.5550   22.5900 C   0  0  0  0  0  2  0  0  0  0  0  0
  -25.4790  -23.7090   20.5800 C   0  0  0  0  0  2  0  0  0  0  0  0
  -27.7360  -23.6570   21.4370 C   0  0  0  0  0  3  0  0  0  0  0  0
  -26.9080  -23.9440   20.2290 N   0  0  2  0  0  4  0  0  0  0  0  0
  -27.1960  -23.1860   19.6140 H   0  0  0  0  0  0  0  0  0  0  0  0
  -28.4860  -22.3190   21.2480 C   0  0  0  0  0  0  0  0  0  0  0  0
  -29.6880  -22.1700   21.8480 N   0  0  0  0  0  0  0  0  0  0  0  0
  -27.9320  -21.4430   20.5790 O   0  0  0  0  0  0  0  0  0  0  0  0
  -30.0720  -23.0130   22.2570 H   0  0  0  0  0  0  0  0  0  0  0  0
  -30.5220  -20.9740   22.0750 C   0  0  0  0  0  2  0  0  0  0  0  0
  -30.0940  -19.6780   21.3620 C   0  0  0  0  0  2  0  0  0  0  0  0
  -31.0960  -19.2610   20.2790 C   0  0  0  0  0  2  0  0  0  0  0  0
  -30.6400  -18.0090   19.5440 C   0  0  0  0  0  2  0  0  0  0  0  0
  -31.7550  -17.3530   18.7150 C   0  0  0  0  0  2  0  0  0  0  0  0
  -31.3060  -15.9820   18.2060 C   0  0  0  0  0  2  0  0  0  0  0  0
  -31.7820  -14.2680   19.9480 C   0  0  0  0  0  0  0  0  0  0  0  0
  -31.6340  -11.8690   20.3240 C   0  0  0  0  0  2  0  0  0  0  0  0
  -30.8450  -11.2920   19.1300 C   0  0  0  0  0  2  0  0  0  0  0  0
  -29.3290  -11.3180   19.4190 C   0  0  0  0  0  2  0  0  0  0  0  0
  -28.8300  -12.6990   19.9160 C   0  0  0  0  0  3  0  0  0  0  0  0
  -29.7530  -13.2480   21.0330 C   0  0  0  0  0  2  0  0  0  0  0  0
  -31.1410  -13.2320   20.5360 N   0  0  0  0  0  0  0  0  0  0  0  0
  -32.9920  -14.2960   19.7170 O   0  0  0  0  0  0  0  0  0  0  0  0
  -30.9540  -15.1110   19.3250 N   0  0  0  0  0  0  0  0  0  0  0  0
  -29.9730  -15.0100   19.5320 H   0  0  0  0  0  0  0  0  0  0  0  0
  -26.5380  -13.6820   20.5640 C   0  0  0  0  0  0  0  0  0  0  0  0
  -25.3380  -13.0850   20.8690 C   0  0  0  0  0  0  0  0  0  0  0  0
  -25.5720  -11.6790   20.8020 C   0  0  0  0  0  0  0  0  0  0  0  0
  -27.4300  -12.6440   20.3390 N   0  0  0  0  0  0  0  0  0  0  0  0
  -26.8490  -11.4330   20.5420 N   0  0  0  0  0  0  0  0  0  0  0  0
  -24.6370  -10.5480   20.9170 C   0  0  0  0  0  0  0  0  0  0  0  0
  -24.8730   -9.4860   21.8180 C   0  0  0  0  0  3  0  0  0  0  0  0
  -23.9560   -8.4180   21.9190 C   0  0  0  0  0  3  0  0  0  0  0  0
  -22.7880   -8.4080   21.1210 C   0  0  0  0  0  0  0  0  0  0  0  0
  -22.5700   -9.4560   20.2080 C   0  0  0  0  0  3  0  0  0  0  0  0
  -23.4870  -10.5150   20.1040 C   0  0  0  0  0  3  0  0  0  0  0  0
  -21.8530   -7.4030   21.1380 O   0  0  0  0  0  0  0  0  0  0  0  0
  -21.5800   -6.6910   22.2790 C   0  0  0  0  0  0  0  0  0  0  0  0
  -21.1720   -7.3240   23.4720 C   0  0  0  0  0  3  0  0  0  0  0  0
  -20.8360   -6.5510   24.6020 C   0  0  0  0  0  3  0  0  0  0  0  0
  -20.8980   -5.1460   24.5360 C   0  0  0  0  0  0  0  0  0  0  0  0
  -21.2950   -4.5120   23.3460 C   0  0  0  0  0  3  0  0  0  0  0  0
  -21.6330   -5.2830   22.2200 C   0  0  0  0  0  0  0  0  0  0  0  0
  -21.9990   -4.6670   21.0700 F   0  0  0  0  0  0  0  0  0  0  0  0
  -20.5660   -4.4020   25.6170 F   0  0  0  0  0  0  0  0  0  0  0  0
  -24.0270  -13.7800   21.1050 C   0  0  0  0  0  0  0  0  0  0  0  0
  -23.1670  -13.2030   21.9400 N   0  0  0  0  0  0  0  0  0  0  0  0
  -23.7740  -14.8650   20.5870 O   0  0  0  0  0  0  0  0  0  0  0  0
  -23.3770  -12.3220   22.3820 H   0  0  0  0  0  0  0  0  0  0  0  0
  -22.2820  -13.6510   22.1380 H   0  0  0  0  0  0  0  0  0  0  0  0
  -26.9320  -15.0090   20.4390 N   0  0  0  0  0  0  0  0  0  0  0  0
  -26.2750  -15.7780   20.5310 H   0  0  0  0  0  0  0  0  0  0  0  0
  -27.8460  -15.3050   20.1140 H   0  0  0  0  0  0  0  0  0  0  0  0
  -27.1550  -25.2740   19.5920 C   0  0  0  0  0  2  0  0  0  0  0  0
  -26.6460  -25.3760   18.1190 C   0  0  0  0  0  2  0  0  0  0  0  0
  -26.6240  -26.7310   17.6280 O   0  0  0  0  0  0  0  0  0  0  0  0
  -25.5670  -30.3490   23.6170 C   0  0  0  0  0  0  0  0  0  0  0  0
  -25.8040  -27.6300   18.2780 C   0  0  0  0  0  0  0  0  0  0  0  0
  -23.6430  -30.2840   22.0590 C   0  0  0  0  0  3  0  0  0  0  0  0
  -24.1550  -29.4330   19.7090 C   0  0  0  0  0  0  0  0  0  0  0  0
  -26.0410  -30.1460   21.1870 C   0  0  0  0  0  2  0  0  0  0  0  0
  -25.5100  -29.3160   20.0370 C   0  0  0  0  0  0  0  0  0  0  0  0
  -26.3380  -28.4230   19.3190 C   0  0  0  0  0  3  0  0  0  0  0  0
  -24.4390  -27.7770   17.9460 C   0  0  0  0  0  3  0  0  0  0  0  0
  -23.6200  -28.6800   18.6490 C   0  0  0  0  0  3  0  0  0  0  0  0
  -23.3300  -30.3900   20.5420 C   0  0  0  0  0  2  0  0  0  0  0  0
  -25.1150  -30.2330   22.3380 N   0  0  0  0  0  0  0  0  0  0  0  0
  -24.7820  -30.5340   24.5570 O   0  0  0  0  0  0  0  0  0  0  0  0
  -22.8690  -29.0810   22.6490 C   0  0  0  0  0  0  0  0  0  0  0  0
  -21.5330  -29.1060   22.5140 N   0  0  0  0  0  0  0  0  0  0  0  0
  -23.4690  -28.1530   23.1960 O   0  0  0  0  0  0  0  0  0  0  0  0
  -21.1220  -29.9130   22.0670 H   0  0  0  0  0  0  0  0  0  0  0  0
  -18.1200  -27.9580   22.2340 C   0  0  0  0  0  0  0  0  0  0  0  0
  -20.5990  -28.0730   22.9630 C   0  0  0  0  0  3  0  0  0  0  0  0
  -20.7860  -26.7640   22.1610 C   0  0  0  0  0  2  0  0  0  0  0  0
  -19.8700  -26.6700   20.9340 C   0  0  0  0  0  2  0  0  0  0  0  0
  -18.4030  -26.7490   21.3590 C   0  0  0  0  0  2  0  0  0  0  0  0
  -19.1560  -28.5900   22.9740 C   0  0  0  0  0  0  0  0  0  0  0  0
  -18.8460  -29.7330   23.7430 C   0  0  0  0  0  3  0  0  0  0  0  0
  -17.5340  -30.2400   23.7860 C   0  0  0  0  0  3  0  0  0  0  0  0
  -16.5080  -29.5980   23.0690 C   0  0  0  0  0  3  0  0  0  0  0  0
  -16.8010  -28.4600   22.2980 C   0  0  0  0  0  3  0  0  0  0  0  0
  -27.0880  -30.2680   23.9600 C   0  0  0  0  0  3  0  0  0  0  0  0
  -27.5410  -28.8400   24.4660 C   0  0  1  0  0  0  0  0  0  0  0  0
  -26.6590  -28.2750   25.6050 C   0  0  0  0  0  1  0  0  0  0  0  0
  -27.5120  -27.8200   23.3030 C   0  0  0  0  0  1  0  0  0  0  0  0
  -28.9980  -28.9000   24.9810 C   0  0  0  0  0  1  0  0  0  0  0  0
  -27.3640  -31.2900   24.9770 N   0  0  0  0  0  0  0  0  0  0  0  0
  -28.0290  -32.4290   24.7470 C   0  0  0  0  0  0  0  0  0  0  0  0
  -28.5400  -32.6980   23.6550 O   0  0  0  0  0  0  0  0  0  0  0  0
  -26.9310  -31.1610   25.8790 H   0  0  0  0  0  0  0  0  0  0  0  0
  -27.1570  -34.5920   25.6830 C   0  0  0  0  0  1  0  0  0  0  0  0
  -28.1430  -33.4350   25.9090 C   0  0  0  0  0  3  0  0  0  0  0  0
  -30.4640  -32.9710   26.5640 C   0  0  0  0  0  1  0  0  0  0  0  0
  -29.5090  -33.9710   26.0930 N   0  0  0  0  0  0  0  0  0  0  0  0
  -29.5110  -34.7460   26.7510 H   0  0  0  0  0  0  0  0  0  0  0  0
  1  2  1  0
  3  1  1  0
  4  7  1  0
  4  2  1  0
  5  3  1  0
  5  4  1  0
  5  6  1  6
  7  8  1  0
  8 11  1  0
  8 10  1  0
  9  7  2  0
 12 11  1  0
 13 12  1  0
 14 13  1  0
 15 14  1  0
 16 15  1  0
 16 25  1  0
 17 23  1  0
 18 23  1  0
 19 20  1  0
 19 18  1  0
 21 20  1  0
 21 30  1  0
 21 22  1  0
 23 22  1  0
 24 17  2  0
 25 26  1  0
 25 17  1  0
 27 28  2  0
 28 47  1  0
 29 28  1  0
 29 32  1  0
 30 31  1  0
 30 27  1  0
 31 29  2  0
 32 33  1  0
 33 34  2  0
 35 38  1  0
 35 34  1  0
 36 35  2  0
 37 36  1  0
 37 32  2  0
 38 39  1  0
 39 40  1  0
 40 41  2  0
 42 41  1  0
 42 46  1  0
 43 42  2  0
 44 39  2  0
 44 43  1  0
 45 44  1  0
 47 48  1  0
 48 51  1  0
 48 50  1  0
 49 47  2  0
 52 53  1  0
 52 27  1  0
 54 52  1  0
 55  5  1  0
 56 55  1  0
 57 56  1  0
 57 59  1  0
 58 69  2  0
 59 64  1  0
 60 68  1  0
 60 70  1  0
 61 63  1  0
 61 67  1  0
 62 68  1  0
 63 62  1  0
 64 63  2  0
 65 59  2  0
 65 66  1  0
 66 61  2  0
 67 60  1  0
 68 58  1  0
 70 72  2  0
 71 70  1  0
 73 71  1  0
 74 83  2  0
 74 79  1  0
 75 71  1  0
 75 79  1  0
 76 75  1  0
 77 78  1  0
 77 76  1  0
 78 74  1  0
 79 80  2  0
 80 81  1  0
 82 81  2  0
 83 82  1  0
 84 58  1  0
 84 85  1  0
 84 89  1  0
 85 88  1  1
 85 86  1  0
 87 85  1  0
 89 92  1  0
 90 89  1  0
 90 94  1  0
 91 90  2  0
 94 93  1  0
 94 96  1  0
 96 95  1  0
 96 97  1  0
M  ISO  4  17 100  25 100  56 101  57 101
M  END
>  <TORSDO>  (31) 
F 25

>  <SCORE>  (31) 
-8.826

>  <name>  (31) 
33

>  <ligand_id>  (31) 
33

>  <original_smiles>  (31) 
[H]c1c([H])c([H])c2c(c1[H])C([H])([H])C([H])([H])C([H])([H])C2([H])N([H])C(=O)C1([H])N(C(=O)C([H])(N([H])C(=O)C([H])(N([H])C([H])([H])[H])C([H])([H])[H])C(C([H])([H])[H])(C([H])([H])[H])C([H])([H])[H])C([H])([H])c2c([H])c(OC([H])([H])C([H])([H])[N+]3([H])C([H])([H])C([H])([H])C([H])([H])C3([H])C(=O)N([H])C([H])([H])C([H])([H])C([H])([H])C([H])([H])C([H])([H])C([H])([H])N([H])C(=O)N3C([H])([H])C([H])([H])C([H])([H])C([H])(n4nc(-c5c([H])c([H])c(Oc6c([H])c([H])c(F)c([H])c6F)c([H])c5[H])c(C(=O)N([H])[H])c4N([H])[H])C3([H])[H])c([H])c([H])c2C1([H])[H]

>  <smiles>  (31) 
[H]c1c([H])c([H])c2c(c1[H])C([H])([H])C([H])([H])C([H])([H])C2([H])N([H])C(=O)C1([H])N(C(=O)C([H])(N([H])C(=O)C([H])(N([H])C([H])([H])[H])C([H])([H])[H])C(C([H])([H])[H])(C([H])([H])[H])C([H])([H])[H])C([H])([H])c2c([H])c(OC([H])([H])C([H])([H])[N+]3([H])C([H])([H])C([H])([H])C([H])([H])C3([H])C(=O)N([H])C([H])([H])C([H])([H])C([H])([H])C([H])([H])C([H])([H])C([H])([H])N([H])C(=O)N3C([H])([H])C([H])([H])C([H])([H])C([H])(n4nc(-c5c([H])c([H])c(Oc6c([H])c([H])c(F)c([H])c6F)c([H])c5[H])c(C(=O)N([H])[H])c4N([H])[H])C3([H])[H])c([H])c([H])c2C1([H])[H]

$$$$
34:0:0
     RDKit          3D

 99106  0  0  1  0  0  0  0  0999 V2000
  -27.0780  -23.5090   22.1960 O   0  0  0  0  0  0  0  0  0  0  0  0
  -27.9490  -23.9810   23.2170 C   0  0  0  0  0  2  0  0  0  0  0  0
  -28.3120  -25.4680   23.0750 C   0  0  0  0  0  2  0  0  0  0  0  0
  -29.4390  -25.6000   22.2230 O   0  0  0  0  0  0  0  0  0  0  0  0
  -29.9080  -26.9400   22.1620 C   0  0  0  0  0  2  0  0  0  0  0  0
  -31.1440  -27.0010   21.2490 C   0  0  0  0  0  2  0  0  0  0  0  0
  -30.7740  -26.8300   19.8860 O   0  0  0  0  0  0  0  0  0  0  0  0
  -30.2660  -28.0120   19.2750 C   0  0  0  0  0  2  0  0  0  0  0  0
  -29.1510  -27.6140   18.3030 C   0  0  0  0  0  2  0  0  0  0  0  0
  -28.0960  -26.9380   18.9930 O   0  0  0  0  0  0  0  0  0  0  0  0
  -24.8210  -31.6970   23.1990 C   0  0  0  0  0  0  0  0  0  0  0  0
  -26.9860  -27.6870   19.2930 C   0  0  0  0  0  0  0  0  0  0  0  0
  -23.4070  -30.5820   21.5020 C   0  0  0  0  0  3  0  0  0  0  0  0
  -24.6550  -29.2040   19.7590 C   0  0  0  0  0  0  0  0  0  0  0  0
  -25.9130  -30.8910   21.1150 C   0  0  0  0  0  2  0  0  0  0  0  0
  -25.8800  -29.6200   20.2950 C   0  0  0  0  0  0  0  0  0  0  0  0
  -27.0490  -28.8700   20.0640 C   0  0  0  0  0  3  0  0  0  0  0  0
  -25.7410  -27.2530   18.7960 C   0  0  0  0  0  3  0  0  0  0  0  0
  -24.5760  -28.0130   19.0140 C   0  0  0  0  0  3  0  0  0  0  0  0
  -23.4610  -30.0880   20.0310 C   0  0  0  0  0  2  0  0  0  0  0  0
  -24.7370  -31.0590   21.9980 N   0  0  0  0  0  0  0  0  0  0  0  0
  -23.8060  -31.9300   23.8690 O   0  0  0  0  0  0  0  0  0  0  0  0
  -22.7940  -29.4600   22.3700 C   0  0  0  0  0  0  0  0  0  0  0  0
  -21.4630  -29.3080   22.2920 N   0  0  0  0  0  0  0  0  0  0  0  0
  -23.5100  -28.7370   23.0660 O   0  0  0  0  0  0  0  0  0  0  0  0
  -20.9470  -29.9490   21.7050 H   0  0  0  0  0  0  0  0  0  0  0  0
  -18.1110  -28.0340   22.7340 C   0  0  0  0  0  0  0  0  0  0  0  0
  -20.6700  -28.2940   22.9870 C   0  0  0  0  0  3  0  0  0  0  0  0
  -20.7780  -26.9230   22.2790 C   0  0  0  0  0  2  0  0  0  0  0  0
  -19.6610  -26.6810   21.2600 C   0  0  0  0  0  2  0  0  0  0  0  0
  -18.2900  -26.7510   21.9380 C   0  0  0  0  0  2  0  0  0  0  0  0
  -19.2300  -28.7660   23.2130 C   0  0  0  0  0  0  0  0  0  0  0  0
  -19.0100  -29.9690   23.9160 C   0  0  0  0  0  3  0  0  0  0  0  0
  -17.7040  -30.4400   24.1490 C   0  0  0  0  0  3  0  0  0  0  0  0
  -16.6000  -29.7030   23.6860 C   0  0  0  0  0  3  0  0  0  0  0  0
  -16.8050  -28.5010   22.9840 C   0  0  0  0  0  3  0  0  0  0  0  0
  -26.1860  -32.1840   23.7770 C   0  0  0  0  0  3  0  0  0  0  0  0
  -26.7910  -31.2030   24.8540 C   0  0  1  0  0  0  0  0  0  0  0  0
  -25.7930  -30.8100   25.9690 C   0  0  0  0  0  1  0  0  0  0  0  0
  -27.2870  -29.8970   24.1890 C   0  0  0  0  0  1  0  0  0  0  0  0
  -28.0240  -31.8510   25.5250 C   0  0  0  0  0  1  0  0  0  0  0  0
  -25.9700  -33.5210   24.3480 N   0  0  0  0  0  0  0  0  0  0  0  0
  -26.3170  -34.6670   23.7490 C   0  0  0  0  0  0  0  0  0  0  0  0
  -26.9250  -34.7050   22.6750 O   0  0  0  0  0  0  0  0  0  0  0  0
  -25.4180  -33.5700   25.1920 H   0  0  0  0  0  0  0  0  0  0  0  0
  -24.6870  -36.5860   23.7780 C   0  0  0  0  0  1  0  0  0  0  0  0
  -25.9290  -35.9820   24.4520 C   0  0  0  0  0  3  0  0  0  0  0  0
  -28.1420  -36.5970   25.3210 C   0  0  0  0  0  1  0  0  0  0  0  0
  -27.0180  -36.9830   24.4720 N   0  0  0  0  0  0  0  0  0  0  0  0
  -26.6720  -37.8830   24.7950 H   0  0  0  0  0  0  0  0  0  0  0  0
  -27.6040  -23.5880   20.8730 C   0  0  0  0  0  2  0  0  0  0  0  0
  -26.7740  -22.6770   19.9640 C   0  0  0  0  0  0  0  0  0  0  0  0
  -27.4460  -21.9750   19.0470 N   0  0  0  0  0  0  0  0  0  0  0  0
  -25.5580  -22.5580   20.1350 O   0  0  0  0  0  0  0  0  0  0  0  0
  -28.4340  -22.1690   18.9470 H   0  0  0  0  0  0  0  0  0  0  0  0
  -26.9290  -20.8090   18.3340 C   0  0  0  0  0  2  0  0  0  0  0  0
  -27.2030  -19.5200   19.1310 C   0  0  0  0  0  2  0  0  0  0  0  0
  -28.6990  -19.3030   19.4260 C   0  0  0  0  0  2  0  0  0  0  0  0
  -28.9770  -18.0820   20.3150 C   0  0  0  0  0  2  0  0  0  0  0  0
  -30.4790  -17.9390   20.6200 C   0  0  0  0  0  2  0  0  0  0  0  0
  -30.8180  -16.8610   21.6660 C   0  0  0  0  0  2  0  0  0  0  0  0
  -30.8210  -14.6850   20.4480 C   0  0  0  0  0  0  0  0  0  0  0  0
  -30.5420  -12.5130   19.3160 C   0  0  0  0  0  2  0  0  0  0  0  0
  -29.5860  -12.6400   18.1140 C   0  0  0  0  0  2  0  0  0  0  0  0
  -28.1210  -12.4740   18.5610 C   0  0  0  0  0  2  0  0  0  0  0  0
  -27.7660  -13.3650   19.7810 C   0  0  0  0  0  3  0  0  0  0  0  0
  -28.8240  -13.2090   20.8930 C   0  0  0  0  0  2  0  0  0  0  0  0
  -30.1500  -13.5120   20.3190 N   0  0  0  0  0  0  0  0  0  0  0  0
  -31.8480  -14.9570   19.8200 O   0  0  0  0  0  0  0  0  0  0  0  0
  -30.2890  -15.5450   21.3230 N   0  0  0  0  0  0  0  0  0  0  0  0
  -29.4560  -15.2410   21.8050 H   0  0  0  0  0  0  0  0  0  0  0  0
  -25.3780  -13.9510   20.5510 C   0  0  0  0  0  0  0  0  0  0  0  0
  -24.3170  -13.1650   20.9180 C   0  0  0  0  0  0  0  0  0  0  0  0
  -24.7790  -11.8160   20.8380 C   0  0  0  0  0  0  0  0  0  0  0  0
  -26.4200  -13.0780   20.2750 N   0  0  0  0  0  0  0  0  0  0  0  0
  -26.0620  -11.7880   20.5020 N   0  0  0  0  0  0  0  0  0  0  0  0
  -24.0580  -10.5470   21.0060 C   0  0  0  0  0  0  0  0  0  0  0  0
  -24.4720   -9.5830   21.9520 C   0  0  0  0  0  3  0  0  0  0  0  0
  -23.7530   -8.3790   22.1070 C   0  0  0  0  0  3  0  0  0  0  0  0
  -22.6060   -8.1300   21.3160 C   0  0  0  0  0  0  0  0  0  0  0  0
  -22.2120   -9.0830   20.3610 C   0  0  0  0  0  3  0  0  0  0  0  0
  -22.9330  -10.2790   20.2030 C   0  0  0  0  0  3  0  0  0  0  0  0
  -21.8610   -6.9780   21.3800 O   0  0  0  0  0  0  0  0  0  0  0  0
  -21.7360   -6.2640   22.5450 C   0  0  0  0  0  0  0  0  0  0  0  0
  -21.1970   -6.8410   23.7160 C   0  0  0  0  0  3  0  0  0  0  0  0
  -21.0220   -6.0520   24.8720 C   0  0  0  0  0  3  0  0  0  0  0  0
  -21.3740   -4.6890   24.8560 C   0  0  0  0  0  0  0  0  0  0  0  0
  -21.9050   -4.1130   23.6870 C   0  0  0  0  0  3  0  0  0  0  0  0
  -22.0820   -4.8980   22.5350 C   0  0  0  0  0  0  0  0  0  0  0  0
  -22.5740   -4.3330   21.4060 F   0  0  0  0  0  0  0  0  0  0  0  0
  -21.1990   -3.9300   25.9620 F   0  0  0  0  0  0  0  0  0  0  0  0
  -22.9260  -13.6320   21.2350 C   0  0  0  0  0  0  0  0  0  0  0  0
  -22.2170  -12.9080   22.0940 N   0  0  0  0  0  0  0  0  0  0  0  0
  -22.4750  -14.6730   20.7570 O   0  0  0  0  0  0  0  0  0  0  0  0
  -22.5940  -12.0650   22.5030 H   0  0  0  0  0  0  0  0  0  0  0  0
  -21.2840  -13.2010   22.3490 H   0  0  0  0  0  0  0  0  0  0  0  0
  -25.5390  -15.3250   20.4110 N   0  0  0  0  0  0  0  0  0  0  0  0
  -24.7780  -15.9790   20.5610 H   0  0  0  0  0  0  0  0  0  0  0  0
  -26.3910  -15.7740   20.1000 H   0  0  0  0  0  0  0  0  0  0  0  0
  1  2  1  0
  3  2  1  0
  4  3  1  0
  5  4  1  0
  6  5  1  0
  7  6  1  0
  8  7  1  0
  9 10  1  0
  9  8  1  0
 10 12  1  0
 11 22  2  0
 12 17  1  0
 13 21  1  0
 13 23  1  0
 14 20  1  0
 14 16  1  0
 15 21  1  0
 16 15  1  0
 17 16  2  0
 18 19  1  0
 18 12  2  0
 19 14  2  0
 20 13  1  0
 21 11  1  0
 23 25  2  0
 24 23  1  0
 26 24  1  0
 27 36  2  0
 27 32  1  0
 28 24  1  0
 28 32  1  0
 29 28  1  0
 30 31  1  0
 30 29  1  0
 31 27  1  0
 32 33  2  0
 33 34  1  0
 35 34  2  0
 36 35  1  0
 37 11  1  0
 37 42  1  0
 37 38  1  0
 38 41  1  1
 38 39  1  0
 40 38  1  0
 42 45  1  0
 43 42  1  0
 43 47  1  0
 44 43  2  0
 47 46  1  0
 47 49  1  0
 49 50  1  0
 49 48  1  0
 51  1  1  0
 52 54  2  0
 52 51  1  0
 53 52  1  0
 55 53  1  0
 56 53  1  0
 56 57  1  0
 57 58  1  0
 58 59  1  0
 59 60  1  0
 60 61  1  0
 62 70  1  0
 63 68  1  0
 64 65  1  0
 64 63  1  0
 66 65  1  0
 66 75  1  0
 66 67  1  0
 68 62  1  0
 68 67  1  0
 69 62  2  0
 70 61  1  0
 70 71  1  0
 72 73  2  0
 73 92  1  0
 74 73  1  0
 74 77  1  0
 75 76  1  0
 75 72  1  0
 76 74  2  0
 77 78  1  0
 78 79  2  0
 80 83  1  0
 80 79  1  0
 81 80  2  0
 82 81  1  0
 82 77  2  0
 83 84  1  0
 84 85  1  0
 85 86  2  0
 87 86  1  0
 87 91  1  0
 88 87  2  0
 89 84  2  0
 89 88  1  0
 90 89  1  0
 92 93  1  0
 93 96  1  0
 93 95  1  0
 94 92  2  0
 97 72  1  0
 97 98  1  0
 99 97  1  0
M  ISO  4   9 101  10 101  62 100  70 100
M  END
>  <TORSDO>  (32) 
F 32

>  <SCORE>  (32) 
-8.896

>  <name>  (32) 
34

>  <ligand_id>  (32) 
34

>  <original_smiles>  (32) 
[H]c1c([H])c([H])c2c(c1[H])C([H])([H])C([H])([H])C([H])([H])C2([H])N([H])C(=O)C1([H])N(C(=O)C([H])(N([H])C(=O)C([H])(N([H])C([H])([H])[H])C([H])([H])[H])C(C([H])([H])[H])(C([H])([H])[H])C([H])([H])[H])C([H])([H])c2c([H])c(OC([H])([H])C([H])([H])OC([H])([H])C([H])([H])OC([H])([H])C([H])([H])OC([H])([H])C(=O)N([H])C([H])([H])C([H])([H])C([H])([H])C([H])([H])C([H])([H])C([H])([H])N([H])C(=O)N3C([H])([H])C([H])([H])C([H])([H])C([H])(n4nc(-c5c([H])c([H])c(Oc6c([H])c([H])c(F)c([H])c6F)c([H])c5[H])c(C(=O)N([H])[H])c4N([H])[H])C3([H])[H])c([H])c([H])c2C1([H])[H]

>  <smiles>  (32) 
[H]c1c([H])c([H])c2c(c1[H])C([H])([H])C([H])([H])C([H])([H])C2([H])N([H])C(=O)C1([H])N(C(=O)C([H])(N([H])C(=O)C([H])(N([H])C([H])([H])[H])C([H])([H])[H])C(C([H])([H])[H])(C([H])([H])[H])C([H])([H])[H])C([H])([H])c2c([H])c(OC([H])([H])C([H])([H])OC([H])([H])C([H])([H])OC([H])([H])C([H])([H])OC([H])([H])C(=O)N([H])C([H])([H])C([H])([H])C([H])([H])C([H])([H])C([H])([H])C([H])([H])N([H])C(=O)N3C([H])([H])C([H])([H])C([H])([H])C([H])(n4nc(-c5c([H])c([H])c(Oc6c([H])c([H])c(F)c([H])c6F)c([H])c5[H])c(C(=O)N([H])[H])c4N([H])[H])C3([H])[H])c([H])c([H])c2C1([H])[H]

$$$$
35:0:0
     RDKit          3D

 95103  0  0  1  0  0  0  0  0999 V2000
  -27.9710  -20.5540   19.6090 C   0  0  0  0  0  3  0  0  0  0  0  0
  -31.0170  -14.8800   20.9840 C   0  0  0  0  0  0  0  0  0  0  0  0
  -30.9190  -12.5950   20.1160 C   0  0  0  0  0  2  0  0  0  0  0  0
  -30.1510  -12.6410   18.7790 C   0  0  0  0  0  2  0  0  0  0  0  0
  -28.6320  -12.5240   19.0160 C   0  0  0  0  0  2  0  0  0  0  0  0
  -28.1050  -13.4710   20.1290 C   0  0  0  0  0  3  0  0  0  0  0  0
  -29.0090  -13.4200   21.3840 C   0  0  0  0  0  2  0  0  0  0  0  0
  -30.3870  -13.6760   20.9510 N   0  0  0  0  0  0  0  0  0  0  0  0
  -32.2470  -14.9820   20.9160 O   0  0  0  0  0  0  0  0  0  0  0  0
  -28.7080  -19.4680   18.7820 C   0  0  0  0  0  0  0  0  0  0  0  0
  -29.5590  -17.1620   18.4760 C   0  0  0  0  0  2  0  0  0  0  0  0
  -28.5350  -17.7110   20.6220 C   0  0  0  0  0  2  0  0  0  0  0  0
  -30.7250  -16.5100   19.2290 C   0  0  0  0  0  2  0  0  0  0  0  0
  -29.6400  -16.8920   21.3510 C   0  0  0  0  0  2  0  0  0  0  0  0
  -28.9520  -18.2230   19.2990 N   0  0  0  0  0  0  0  0  0  0  0  0
  -30.2620  -15.8850   20.4780 N   0  0  0  0  0  0  0  0  0  0  0  0
  -29.0550  -19.7700   17.6330 O   0  0  0  0  0  0  0  0  0  0  0  0
  -25.6380  -14.0820   20.5460 C   0  0  0  0  0  0  0  0  0  0  0  0
  -24.5350  -13.3140   20.7930 C   0  0  0  0  0  0  0  0  0  0  0  0
  -24.9960  -11.9630   20.8150 C   0  0  0  0  0  0  0  0  0  0  0  0
  -26.7050  -13.2000   20.4490 N   0  0  0  0  0  0  0  0  0  0  0  0
  -26.3140  -11.9200   20.6700 N   0  0  0  0  0  0  0  0  0  0  0  0
  -24.2480  -10.7060   20.9060 C   0  0  0  0  0  0  0  0  0  0  0  0
  -24.5630   -9.7280   21.8750 C   0  0  0  0  0  3  0  0  0  0  0  0
  -23.8130   -8.5360   21.9560 C   0  0  0  0  0  3  0  0  0  0  0  0
  -22.7320   -8.3160   21.0680 C   0  0  0  0  0  0  0  0  0  0  0  0
  -22.4380   -9.2830   20.0910 C   0  0  0  0  0  3  0  0  0  0  0  0
  -23.1910  -10.4640   20.0060 C   0  0  0  0  0  3  0  0  0  0  0  0
  -21.9650   -7.1780   21.0580 O   0  0  0  0  0  0  0  0  0  0  0  0
  -21.7020   -6.4770   22.2080 C   0  0  0  0  0  0  0  0  0  0  0  0
  -21.0320   -7.0650   23.3030 C   0  0  0  0  0  3  0  0  0  0  0  0
  -20.7170   -6.2860   24.4350 C   0  0  0  0  0  3  0  0  0  0  0  0
  -21.0670   -4.9230   24.4720 C   0  0  0  0  0  0  0  0  0  0  0  0
  -21.7330   -4.3360   23.3820 C   0  0  0  0  0  3  0  0  0  0  0  0
  -22.0450   -5.1110   22.2520 C   0  0  0  0  0  0  0  0  0  0  0  0
  -22.6660   -4.5350   21.1920 F   0  0  0  0  0  0  0  0  0  0  0  0
  -20.7610   -4.1740   25.5580 F   0  0  0  0  0  0  0  0  0  0  0  0
  -23.1180  -13.8000   20.8980 C   0  0  0  0  0  0  0  0  0  0  0  0
  -22.2960  -13.1300   21.6990 N   0  0  0  0  0  0  0  0  0  0  0  0
  -22.7440  -14.8120   20.3070 O   0  0  0  0  0  0  0  0  0  0  0  0
  -22.6040  -12.3160   22.2100 H   0  0  0  0  0  0  0  0  0  0  0  0
  -21.3420  -13.4430   21.8080 H   0  0  0  0  0  0  0  0  0  0  0  0
  -25.8180  -15.4480   20.3710 N   0  0  0  0  0  0  0  0  0  0  0  0
  -25.0370  -16.0920   20.3410 H   0  0  0  0  0  0  0  0  0  0  0  0
  -26.6920  -15.8580   20.0710 H   0  0  0  0  0  0  0  0  0  0  0  0
  -28.8480  -22.7710   20.4450 C   0  0  0  0  0  0  0  0  0  0  0  0
  -28.6230  -21.8750   19.4690 N   0  0  0  0  0  0  0  0  0  0  0  0
  -28.4720  -22.5620   21.6000 O   0  0  0  0  0  0  0  0  0  0  0  0
  -28.9250  -22.0890   18.5270 H   0  0  0  0  0  0  0  0  0  0  0  0
  -29.6090  -24.0780   20.1090 C   0  0  0  0  0  2  0  0  0  0  0  0
  -29.0810  -25.2960   20.9220 C   0  0  0  0  0  2  0  0  0  0  0  0
  -29.2270  -26.5860   20.2870 O   0  0  0  0  0  0  0  0  0  0  0  0
  -24.9860  -31.5890   23.1410 C   0  0  0  0  0  0  0  0  0  0  0  0
  -28.0560  -27.3060   20.2040 C   0  0  0  0  0  0  0  0  0  0  0  0
  -23.9740  -30.1330   21.4220 C   0  0  0  0  0  3  0  0  0  0  0  0
  -25.5960  -28.6970   20.0770 C   0  0  0  0  0  0  0  0  0  0  0  0
  -26.4890  -30.6190   21.4020 C   0  0  0  0  0  2  0  0  0  0  0  0
  -26.6870  -29.2630   20.7530 C   0  0  0  0  0  0  0  0  0  0  0  0
  -27.9210  -28.5720   20.8190 C   0  0  0  0  0  3  0  0  0  0  0  0
  -26.9560  -26.7690   19.5010 C   0  0  0  0  0  3  0  0  0  0  0  0
  -25.7240  -27.4460   19.4510 C   0  0  0  0  0  3  0  0  0  0  0  0
  -24.3090  -29.4940   20.0510 C   0  0  0  0  0  2  0  0  0  0  0  0
  -25.1630  -30.7960   22.0470 N   0  0  0  0  0  0  0  0  0  0  0  0
  -23.8570  -31.7950   23.6080 O   0  0  0  0  0  0  0  0  0  0  0  0
  -23.3250  -29.0600   22.3270 C   0  0  0  0  0  0  0  0  0  0  0  0
  -22.0110  -28.8490   22.1550 N   0  0  0  0  0  0  0  0  0  0  0  0
  -24.0010  -28.4290   23.1450 O   0  0  0  0  0  0  0  0  0  0  0  0
  -21.5260  -29.4160   21.4720 H   0  0  0  0  0  0  0  0  0  0  0  0
  -18.6360  -27.6490   22.6220 C   0  0  0  0  0  0  0  0  0  0  0  0
  -21.1980  -27.8730   22.8770 C   0  0  0  0  0  3  0  0  0  0  0  0
  -21.2840  -26.4790   22.2130 C   0  0  0  0  0  2  0  0  0  0  0  0
  -20.1650  -26.2250   21.1970 C   0  0  0  0  0  2  0  0  0  0  0  0
  -18.7920  -26.3440   21.8620 C   0  0  0  0  0  2  0  0  0  0  0  0
  -19.7650  -28.3760   23.0850 C   0  0  0  0  0  0  0  0  0  0  0  0
  -19.5620  -29.6000   23.7570 C   0  0  0  0  0  3  0  0  0  0  0  0
  -18.2630  -30.0980   23.9690 C   0  0  0  0  0  3  0  0  0  0  0  0
  -17.1490  -29.3700   23.5170 C   0  0  0  0  0  3  0  0  0  0  0  0
  -17.3360  -28.1450   22.8540 C   0  0  0  0  0  3  0  0  0  0  0  0
  -26.1910  -32.2880   23.8450 C   0  0  0  0  0  3  0  0  0  0  0  0
  -25.7780  -33.6600   24.1630 N   0  0  0  0  0  0  0  0  0  0  0  0
  -26.0680  -34.7330   23.4170 C   0  0  0  0  0  0  0  0  0  0  0  0
  -26.7880  -34.6790   22.4150 O   0  0  0  0  0  0  0  0  0  0  0  0
  -25.1400  -33.7700   24.9380 H   0  0  0  0  0  0  0  0  0  0  0  0
  -24.2400  -36.4050   22.9870 C   0  0  0  0  0  1  0  0  0  0  0  0
  -25.4680  -36.0840   23.8520 C   0  0  0  0  0  3  0  0  0  0  0  0
  -27.4940  -37.1170   24.7780 C   0  0  0  0  0  1  0  0  0  0  0  0
  -26.4270  -37.2090   23.7830 N   0  0  0  0  0  0  0  0  0  0  0  0
  -25.9480  -38.0960   23.9170 H   0  0  0  0  0  0  0  0  0  0  0  0
  -26.6710  -31.5360   25.1470 C   0  0  1  0  0  0  0  0  0  0  0  0
  -25.5330  -31.2270   26.1470 C   0  0  0  0  0  1  0  0  0  0  0  0
  -27.3550  -30.1980   24.7810 C   0  0  0  0  0  1  0  0  0  0  0  0
  -27.7300  -32.3910   25.8820 C   0  0  0  0  0  1  0  0  0  0  0  0
  -26.4550  -20.6670   19.3010 C   0  0  0  0  0  2  0  0  0  0  0  0
  -24.8530  -21.3830   17.6970 C   0  0  0  0  0  1  0  0  0  0  0  0
  -26.2300  -21.3200   18.0540 O   0  0  0  0  0  0  0  0  0  0  0  0
  1 93  1  0
  3  8  1  0
  4  5  1  0
  4  3  1  0
  6  5  1  0
  6 21  1  0
  6  7  1  0
  8  2  1  0
  8  7  1  0
  9  2  2  0
 10 15  1  0
 10  1  1  0
 11 13  1  0
 11 15  1  0
 12 14  1  0
 13 16  1  0
 15 12  1  0
 16  2  1  0
 16 14  1  0
 17 10  2  0
 18 19  2  0
 19 20  1  0
 19 38  1  0
 20 23  1  0
 21 18  1  0
 21 22  1  0
 22 20  2  0
 23 24  1  0
 24 25  2  0
 26 25  1  0
 27 26  2  0
 28 27  1  0
 28 23  2  0
 29 26  1  0
 29 30  1  0
 30 35  2  0
 30 31  1  0
 31 32  2  0
 32 33  1  0
 33 37  1  0
 34 33  2  0
 35 34  1  0
 36 35  1  0
 38 39  1  0
 39 42  1  0
 39 41  1  0
 40 38  2  0
 43 18  1  0
 44 43  1  0
 45 43  1  0
 46 48  2  0
 47  1  1  0
 47 46  1  0
 49 47  1  0
 50 46  1  0
 50 51  1  0
 52 51  1  0
 53 64  2  0
 54 52  1  0
 54 59  1  0
 55 63  1  0
 55 65  1  0
 56 58  1  0
 57 63  1  0
 58 59  2  0
 58 57  1  0
 60 54  2  0
 61 60  1  0
 61 56  2  0
 62 56  1  0
 62 55  1  0
 63 53  1  0
 65 67  2  0
 66 65  1  0
 68 66  1  0
 69 78  2  0
 69 74  1  0
 70 66  1  0
 70 74  1  0
 71 70  1  0
 72 73  1  0
 72 71  1  0
 73 69  1  0
 74 75  2  0
 75 76  1  0
 77 76  2  0
 78 77  1  0
 79 53  1  0
 79 80  1  0
 79 89  1  0
 80 83  1  0
 81 85  1  0
 81 80  1  0
 82 81  2  0
 85 84  1  0
 87 85  1  0
 87 88  1  0
 87 86  1  0
 89 92  1  1
 89 90  1  0
 91 89  1  0
 94 95  1  0
 95 93  1  0
M  ISO  4   2 100  16 100  51 101  52 101
M  END
>  <TORSDO>  (33) 
F 21

>  <SCORE>  (33) 
-11.701

>  <name>  (33) 
35

>  <ligand_id>  (33) 
35

>  <original_smiles>  (33) 
[H]c1c([H])c([H])c2c(c1[H])C([H])([H])C([H])([H])C([H])([H])C2([H])N([H])C(=O)C1([H])N(C(=O)C([H])(N([H])C(=O)C([H])(N([H])C([H])([H])[H])C([H])([H])[H])C(C([H])([H])[H])(C([H])([H])[H])C([H])([H])[H])C([H])([H])c2c([H])c(OC([H])([H])C([H])([H])C(=O)N([H])C([H])(C(=O)N3C([H])([H])C([H])([H])N(C(=O)N4C([H])([H])C([H])([H])C([H])([H])C([H])(n5nc(-c6c([H])c([H])c(Oc7c([H])c([H])c(F)c([H])c7F)c([H])c6[H])c(C(=O)N([H])[H])c5N([H])[H])C4([H])[H])C([H])([H])C3([H])[H])C([H])([H])OC([H])([H])[H])c([H])c([H])c2C1([H])[H]

>  <smiles>  (33) 
[H]c1c([H])c([H])c2c(c1[H])C([H])([H])C([H])([H])C([H])([H])C2([H])N([H])C(=O)C1([H])N(C(=O)C([H])(N([H])C(=O)C([H])(N([H])C([H])([H])[H])C([H])([H])[H])C(C([H])([H])[H])(C([H])([H])[H])C([H])([H])[H])C([H])([H])c2c([H])c(OC([H])([H])C([H])([H])C(=O)N([H])C([H])(C(=O)N3C([H])([H])C([H])([H])N(C(=O)N4C([H])([H])C([H])([H])C([H])([H])C([H])(n5nc(-c6c([H])c([H])c(Oc7c([H])c([H])c(F)c([H])c7F)c([H])c6[H])c(C(=O)N([H])[H])c5N([H])[H])C4([H])[H])C([H])([H])C3([H])[H])C([H])([H])OC([H])([H])[H])c([H])c([H])c2C1([H])[H]

$$$$
36:0:0
     RDKit          3D

104111  0  0  1  0  0  0  0  0999 V2000
  -24.4410  -23.2280   26.8930 C   0  0  0  0  0  2  0  0  0  0  0  0
  -23.5750  -23.3800   25.6190 C   0  0  0  0  0  2  0  0  0  0  0  0
  -23.6290  -22.1720   24.6620 C   0  0  0  0  0  2  0  0  0  0  0  0
  -23.0280  -22.4020   23.2520 C   0  0  0  0  0  2  0  0  0  0  0  0
  -21.6640  -21.8430   23.0600 N   0  0  0  0  0  4  0  0  0  0  0  0
  -21.4640  -21.1800   23.7910 H   0  0  0  0  0  0  0  0  0  0  0  0
  -21.6880  -21.3270   22.1930 H   0  0  0  0  0  0  0  0  0  0  0  0
  -20.6060  -22.8800   22.9370 C   0  0  0  0  0  2  0  0  0  0  0  0
  -19.3180  -22.4320   22.2070 C   0  0  0  0  0  2  0  0  0  0  0  0
  -18.3380  -23.6170   22.0680 C   0  0  0  0  0  2  0  0  0  0  0  0
  -17.3820  -23.3960   21.0400 O   0  0  0  0  0  0  0  0  0  0  0  0
  -16.3980  -24.4250   20.9710 C   0  0  0  0  0  2  0  0  0  0  0  0
  -15.4120  -24.0450   19.8600 C   0  0  0  0  0  2  0  0  0  0  0  0
  -14.1890  -24.9690   19.7440 C   0  0  0  0  0  2  0  0  0  0  0  0
  -13.0330  -24.2530   19.0340 C   0  0  0  0  0  2  0  0  0  0  0  0
  -10.7900  -24.2490   20.0880 C   0  0  0  0  0  0  0  0  0  0  0  0
   -8.8850  -23.0200   19.2110 C   0  0  0  0  0  2  0  0  0  0  0  0
   -7.5190  -23.1730   19.8810 C   0  0  0  0  0  2  0  0  0  0  0  0
   -7.3960  -22.1990   21.0620 C   0  0  0  0  0  2  0  0  0  0  0  0
   -8.5890  -22.3070   22.0470 C   0  0  0  0  0  3  0  0  0  0  0  0
   -9.9410  -22.2360   21.3020 C   0  0  0  0  0  2  0  0  0  0  0  0
   -9.9360  -23.2190   20.2090 N   0  0  0  0  0  0  0  0  0  0  0  0
  -10.4920  -25.3640   19.6470 O   0  0  0  0  0  0  0  0  0  0  0  0
  -12.0350  -23.7660   19.9860 N   0  0  0  0  0  0  0  0  0  0  0  0
  -12.1430  -22.8070   20.2910 H   0  0  0  0  0  0  0  0  0  0  0  0
   -8.5090  -21.4440   24.4720 C   0  0  0  0  0  0  0  0  0  0  0  0
   -8.2970  -20.1930   24.9910 C   0  0  0  0  0  0  0  0  0  0  0  0
   -8.1460  -19.3200   23.8700 C   0  0  0  0  0  0  0  0  0  0  0  0
   -8.4880  -21.2920   23.0950 N   0  0  0  0  0  0  0  0  0  0  0  0
   -8.3210  -19.9900   22.7400 N   0  0  0  0  0  0  0  0  0  0  0  0
   -7.7900  -17.8960   23.8060 C   0  0  0  0  0  0  0  0  0  0  0  0
   -8.6550  -16.9450   23.2230 C   0  0  0  0  0  3  0  0  0  0  0  0
   -8.2970  -15.5790   23.1910 C   0  0  0  0  0  3  0  0  0  0  0  0
   -7.0670  -15.1550   23.7480 C   0  0  0  0  0  0  0  0  0  0  0  0
   -6.2000  -16.1120   24.3060 C   0  0  0  0  0  3  0  0  0  0  0  0
   -6.5540  -17.4700   24.3320 C   0  0  0  0  0  3  0  0  0  0  0  0
   -6.6260  -13.8530   23.7370 O   0  0  0  0  0  0  0  0  0  0  0  0
   -7.4980  -12.7970   23.7880 C   0  0  0  0  0  0  0  0  0  0  0  0
   -8.4020  -12.6240   24.8610 C   0  0  0  0  0  3  0  0  0  0  0  0
   -9.2320  -11.4890   24.9060 C   0  0  0  0  0  3  0  0  0  0  0  0
   -9.1570  -10.5180   23.8900 C   0  0  0  0  0  0  0  0  0  0  0  0
   -8.2550  -10.6850   22.8240 C   0  0  0  0  0  3  0  0  0  0  0  0
   -7.4270  -11.8180   22.7740 C   0  0  0  0  0  0  0  0  0  0  0  0
   -6.5430  -11.9620   21.7570 F   0  0  0  0  0  0  0  0  0  0  0  0
   -9.9500   -9.4230   23.9370 F   0  0  0  0  0  0  0  0  0  0  0  0
   -8.1450  -19.8410   26.4420 C   0  0  0  0  0  0  0  0  0  0  0  0
   -8.4740  -18.6080   26.8130 N   0  0  0  0  0  0  0  0  0  0  0  0
   -7.7790  -20.6750   27.2690 O   0  0  0  0  0  0  0  0  0  0  0  0
   -8.7950  -17.9290   26.1380 H   0  0  0  0  0  0  0  0  0  0  0  0
   -8.4010  -18.3390   27.7830 H   0  0  0  0  0  0  0  0  0  0  0  0
   -8.6950  -22.6940   25.0530 N   0  0  0  0  0  0  0  0  0  0  0  0
   -8.6660  -22.8360   26.0580 H   0  0  0  0  0  0  0  0  0  0  0  0
   -8.8080  -23.5560   24.5320 H   0  0  0  0  0  0  0  0  0  0  0  0
  -24.9770  -24.5870   27.4000 C   0  0  0  0  0  2  0  0  0  0  0  0
  -26.4720  -24.5900   27.7900 C   0  0  0  0  0  2  0  0  0  0  0  0
  -27.2430  -25.9230   27.5540 C   0  0  0  0  0  2  0  0  0  0  0  0
  -27.2800  -26.4540   26.1000 C   0  0  0  0  0  2  0  0  0  0  0  0
  -26.0500  -26.1500   25.3290 N   0  0  0  0  0  4  0  0  0  0  0  0
  -25.2880  -26.7200   25.6630 H   0  0  0  0  0  0  0  0  0  0  0  0
  -25.8020  -25.1880   25.5060 H   0  0  0  0  0  0  0  0  0  0  0  0
  -26.1860  -26.3080   23.8620 C   0  0  0  0  0  2  0  0  0  0  0  0
  -25.2450  -27.3900   23.2790 C   0  0  0  0  0  2  0  0  0  0  0  0
  -25.9940  -28.6270   22.7490 C   0  0  0  0  0  2  0  0  0  0  0  0
  -25.0920  -29.7300   22.6790 O   0  0  0  0  0  0  0  0  0  0  0  0
  -29.1580  -34.9480   25.2660 C   0  0  0  0  0  0  0  0  0  0  0  0
  -25.2940  -30.6440   23.6810 C   0  0  0  0  0  0  0  0  0  0  0  0
  -27.4810  -34.0000   26.8200 C   0  0  0  0  0  3  0  0  0  0  0  0
  -25.7390  -32.4700   25.7720 C   0  0  0  0  0  0  0  0  0  0  0  0
  -27.0710  -33.9860   24.2990 C   0  0  0  0  0  2  0  0  0  0  0  0
  -26.2710  -32.7210   24.5010 C   0  0  0  0  0  0  0  0  0  0  0  0
  -26.0540  -31.8090   23.4510 C   0  0  0  0  0  3  0  0  0  0  0  0
  -24.7590  -30.3980   24.9590 C   0  0  0  0  0  3  0  0  0  0  0  0
  -24.9890  -31.3050   26.0120 C   0  0  0  0  0  3  0  0  0  0  0  0
  -26.0120  -33.5010   26.8390 C   0  0  0  0  0  2  0  0  0  0  0  0
  -27.9630  -34.3160   25.4360 N   0  0  0  0  0  0  0  0  0  0  0  0
  -29.8330  -35.3100   26.2390 O   0  0  0  0  0  0  0  0  0  0  0  0
  -28.3630  -32.9670   27.5590 C   0  0  0  0  0  0  0  0  0  0  0  0
  -28.3470  -33.0190   28.9010 N   0  0  0  0  0  0  0  0  0  0  0  0
  -29.0090  -32.1260   26.9300 O   0  0  0  0  0  0  0  0  0  0  0  0
  -27.7990  -33.7440   29.3370 H   0  0  0  0  0  0  0  0  0  0  0  0
  -28.8200  -32.2000   32.3880 C   0  0  0  0  0  0  0  0  0  0  0  0
  -29.0570  -32.1240   29.8130 C   0  0  0  0  0  3  0  0  0  0  0  0
  -28.3670  -30.7410   29.8840 C   0  0  0  0  0  2  0  0  0  0  0  0
  -27.3610  -30.6330   31.0330 C   0  0  0  0  0  2  0  0  0  0  0  0
  -28.0550  -30.8870   32.3780 C   0  0  0  0  0  2  0  0  0  0  0  0
  -29.2800  -32.7880   31.1800 C   0  0  0  0  0  0  0  0  0  0  0  0
  -29.9570  -34.0260   31.2390 C   0  0  0  0  0  3  0  0  0  0  0  0
  -30.1810  -34.6670   32.4710 C   0  0  0  0  0  3  0  0  0  0  0  0
  -29.7470  -34.0640   33.6660 C   0  0  0  0  0  3  0  0  0  0  0  0
  -29.0670  -32.8340   33.6250 C   0  0  0  0  0  3  0  0  0  0  0  0
  -29.7230  -35.2650   23.8470 C   0  0  0  0  0  3  0  0  0  0  0  0
  -30.8000  -36.2530   24.0050 N   0  0  0  0  0  0  0  0  0  0  0  0
  -30.6510  -37.5740   23.8280 C   0  0  0  0  0  0  0  0  0  0  0  0
  -29.5930  -38.0780   23.4410 O   0  0  0  0  0  0  0  0  0  0  0  0
  -31.6760  -35.9140   24.3750 H   0  0  0  0  0  0  0  0  0  0  0  0
  -31.7290  -39.0520   25.5510 C   0  0  0  0  0  1  0  0  0  0  0  0
  -31.8650  -38.4750   24.1320 C   0  0  0  0  0  3  0  0  0  0  0  0
  -32.4470  -39.1080   21.8330 C   0  0  0  0  0  1  0  0  0  0  0  0
  -32.0380  -39.5760   23.1550 N   0  0  0  0  0  0  0  0  0  0  0  0
  -32.7360  -40.2410   23.4790 H   0  0  0  0  0  0  0  0  0  0  0  0
  -30.2390  -33.9850   23.0860 C   0  0  1  0  0  0  0  0  0  0  0  0
  -31.1540  -33.0810   23.9450 C   0  0  0  0  0  1  0  0  0  0  0  0
  -29.0460  -33.1260   22.6030 C   0  0  0  0  0  1  0  0  0  0  0  0
  -31.0170  -34.4080   21.8150 C   0  0  0  0  0  1  0  0  0  0  0  0
  1 54  1  0
  2  1  1  0
  3  2  1  0
  4  3  1  0
  5  4  1  0
  5  6  1  0
  7  5  1  0
  8  5  1  0
  9  8  1  0
 10  9  1  0
 11 10  1  0
 12 11  1  0
 13 12  1  0
 14 13  1  0
 15 14  1  0
 15 24  1  0
 16 22  1  0
 17 18  1  0
 17 22  1  0
 18 19  1  0
 20 19  1  0
 20 29  1  0
 21 20  1  0
 22 21  1  0
 23 16  2  0
 24 16  1  0
 24 25  1  0
 26 27  2  0
 26 51  1  0
 27 46  1  0
 28 27  1  0
 29 26  1  0
 30 29  1  0
 30 28  2  0
 31 28  1  0
 31 36  1  0
 32 31  2  0
 33 32  1  0
 33 34  2  0
 34 35  1  0
 35 36  2  0
 37 34  1  0
 37 38  1  0
 38 39  1  0
 39 40  2  0
 41 45  1  0
 41 40  1  0
 42 41  2  0
 43 42  1  0
 43 38  2  0
 44 43  1  0
 46 47  1  0
 46 48  2  0
 47 50  1  0
 49 47  1  0
 51 52  1  0
 53 51  1  0
 54 55  1  0
 56 55  1  0
 57 56  1  0
 58 60  1  0
 58 59  1  0
 58 57  1  0
 61 58  1  0
 62 61  1  0
 63 62  1  0
 64 63  1  0
 64 66  1  0
 65 75  1  0
 65 76  2  0
 66 72  1  0
 67 74  1  0
 67 77  1  0
 68 73  1  0
 68 74  1  0
 69 70  1  0
 69 75  1  0
 70 68  2  0
 71 66  2  0
 71 70  1  0
 72 73  2  0
 75 67  1  0
 77 78  1  0
 78 80  1  0
 79 77  2  0
 81 90  1  0
 82 78  1  0
 82 83  1  0
 82 86  1  0
 83 84  1  0
 84 85  1  0
 85 81  1  0
 86 87  1  0
 86 81  2  0
 87 88  2  0
 88 89  1  0
 90 89  2  0
 91 92  1  0
 91 65  1  0
 92 95  1  0
 93 92  1  0
 93 97  1  0
 94 93  2  0
 97 96  1  0
 98 99  1  0
 99100  1  0
 99 97  1  0
101 91  1  0
101102  1  1
103101  1  0
104101  1  0
M  ISO  4  16 100  24 100  63 101  64 101
M  END
>  <TORSDO>  (34) 
F 36

>  <SCORE>  (34) 
14.816

>  <name>  (34) 
36

>  <ligand_id>  (34) 
36

>  <original_smiles>  (34) 
[H]c1c([H])c([H])c2c(c1[H])C([H])([H])C([H])([H])C([H])([H])C2([H])N([H])C(=O)C1([H])N(C(=O)C([H])(N([H])C(=O)C([H])(N([H])C([H])([H])[H])C([H])([H])[H])C(C([H])([H])[H])(C([H])([H])[H])C([H])([H])[H])C([H])([H])c2c([H])c(OC([H])([H])C([H])([H])C([H])([H])[N+]([H])([H])C([H])([H])C([H])([H])C([H])([H])C([H])([H])C([H])([H])C([H])([H])C([H])([H])C([H])([H])[N+]([H])([H])C([H])([H])C([H])([H])C([H])([H])OC([H])([H])C([H])([H])C([H])([H])C([H])([H])N([H])C(=O)N3C([H])([H])C([H])([H])C([H])([H])C([H])(n4nc(-c5c([H])c([H])c(Oc6c([H])c([H])c(F)c([H])c6F)c([H])c5[H])c(C(=O)N([H])[H])c4N([H])[H])C3([H])[H])c([H])c([H])c2C1([H])[H]

>  <smiles>  (34) 
[H]c1c([H])c([H])c2c(c1[H])C([H])([H])C([H])([H])C([H])([H])C2([H])N([H])C(=O)C1([H])N(C(=O)C([H])(N([H])C(=O)C([H])(N([H])C([H])([H])[H])C([H])([H])[H])C(C([H])([H])[H])(C([H])([H])[H])C([H])([H])[H])C([H])([H])c2c([H])c(OC([H])([H])C([H])([H])C([H])([H])[N+]([H])([H])C([H])([H])C([H])([H])C([H])([H])C([H])([H])C([H])([H])C([H])([H])C([H])([H])C([H])([H])[N+]([H])([H])C([H])([H])C([H])([H])C([H])([H])OC([H])([H])C([H])([H])C([H])([H])C([H])([H])N([H])C(=O)N3C([H])([H])C([H])([H])C([H])([H])C([H])(n4nc(-c5c([H])c([H])c(Oc6c([H])c([H])c(F)c([H])c6F)c([H])c5[H])c(C(=O)N([H])[H])c4N([H])[H])C3([H])[H])c([H])c([H])c2C1([H])[H]

$$$$
37:0:0
     RDKit          3D

110117  0  0  1  0  0  0  0  0999 V2000
  -23.6620  -26.1110   16.1360 C   0  0  0  0  0  2  0  0  0  0  0  0
  -24.2530  -25.8790   14.7340 C   0  0  0  0  0  2  0  0  0  0  0  0
  -24.5470  -27.1930   13.9870 C   0  0  0  0  0  2  0  0  0  0  0  0
  -25.2610  -26.9890   12.6360 C   0  0  0  0  0  2  0  0  0  0  0  0
  -27.6750  -26.7790   13.2260 C   0  0  0  0  0  0  0  0  0  0  0  0
  -26.5270  -26.2670   12.7670 N   0  0  0  0  0  0  0  0  0  0  0  0
  -27.7770  -27.9470   13.6090 O   0  0  0  0  0  0  0  0  0  0  0  0
  -26.5450  -25.3010   12.4630 H   0  0  0  0  0  0  0  0  0  0  0  0
  -28.8940  -25.8420   13.2580 C   0  0  0  0  0  2  0  0  0  0  0  0
  -29.4630  -25.7840   14.5660 O   0  0  0  0  0  0  0  0  0  0  0  0
  -28.7510  -24.9610   15.4850 C   0  0  0  0  0  2  0  0  0  0  0  0
  -29.5140  -24.9420   16.8150 C   0  0  0  0  0  2  0  0  0  0  0  0
  -29.2670  -26.1570   17.5040 O   0  0  0  0  0  0  0  0  0  0  0  0
  -30.1190  -26.3280   18.6280 C   0  0  0  0  0  2  0  0  0  0  0  0
  -29.4810  -27.3400   19.5830 C   0  0  0  0  0  2  0  0  0  0  0  0
  -28.3260  -26.7070   20.1200 O   0  0  0  0  0  0  0  0  0  0  0  0
  -24.5190  -31.8790   23.2050 C   0  0  0  0  0  0  0  0  0  0  0  0
  -27.1840  -27.4640   20.1500 C   0  0  0  0  0  0  0  0  0  0  0  0
  -23.3120  -30.4630   21.5730 C   0  0  0  0  0  3  0  0  0  0  0  0
  -24.7700  -28.9180   20.1680 C   0  0  0  0  0  0  0  0  0  0  0  0
  -25.8300  -30.8420   21.3610 C   0  0  0  0  0  2  0  0  0  0  0  0
  -25.9250  -29.4680   20.7400 C   0  0  0  0  0  0  0  0  0  0  0  0
  -27.1380  -28.7470   20.7340 C   0  0  0  0  0  3  0  0  0  0  0  0
  -26.0120  -26.9130   19.5980 C   0  0  0  0  0  3  0  0  0  0  0  0
  -24.8050  -27.6340   19.5970 C   0  0  0  0  0  3  0  0  0  0  0  0
  -23.5240  -29.7730   20.1980 C   0  0  0  0  0  2  0  0  0  0  0  0
  -24.5720  -31.0730   22.1070 N   0  0  0  0  0  0  0  0  0  0  0  0
  -23.4390  -32.1510   23.7460 O   0  0  0  0  0  0  0  0  0  0  0  0
  -22.6640  -29.4470   22.5420 C   0  0  0  0  0  0  0  0  0  0  0  0
  -21.3370  -29.2760   22.4250 N   0  0  0  0  0  0  0  0  0  0  0  0
  -23.3500  -28.8180   23.3520 O   0  0  0  0  0  0  0  0  0  0  0  0
  -20.8480  -29.8350   21.7420 H   0  0  0  0  0  0  0  0  0  0  0  0
  -17.9550  -28.1180   22.9440 C   0  0  0  0  0  0  0  0  0  0  0  0
  -20.5160  -28.3470   23.2020 C   0  0  0  0  0  3  0  0  0  0  0  0
  -20.6040  -26.9160   22.6250 C   0  0  0  0  0  2  0  0  0  0  0  0
  -19.4900  -26.6030   21.6200 C   0  0  0  0  0  2  0  0  0  0  0  0
  -18.1130  -26.7640   22.2710 C   0  0  0  0  0  2  0  0  0  0  0  0
  -19.0840  -28.8680   23.3650 C   0  0  0  0  0  0  0  0  0  0  0  0
  -18.8820  -30.1350   23.9540 C   0  0  0  0  0  3  0  0  0  0  0  0
  -17.5840  -30.6500   24.1290 C   0  0  0  0  0  3  0  0  0  0  0  0
  -16.4690  -29.8960   23.7210 C   0  0  0  0  0  3  0  0  0  0  0  0
  -16.6560  -28.6320   23.1330 C   0  0  0  0  0  3  0  0  0  0  0  0
  -25.8060  -32.5120   23.8210 C   0  0  0  0  0  3  0  0  0  0  0  0
  -26.3400  -31.7310   25.0830 C   0  0  1  0  0  0  0  0  0  0  0  0
  -25.2610  -31.4700   26.1580 C   0  0  0  0  0  1  0  0  0  0  0  0
  -26.9300  -30.3650   24.6610 C   0  0  0  0  0  1  0  0  0  0  0  0
  -27.4900  -32.5270   25.7450 C   0  0  0  0  0  1  0  0  0  0  0  0
  -25.4900  -33.9030   24.1670 N   0  0  0  0  0  0  0  0  0  0  0  0
  -25.8100  -34.9640   23.4120 C   0  0  0  0  0  0  0  0  0  0  0  0
  -26.4730  -34.8730   22.3750 O   0  0  0  0  0  0  0  0  0  0  0  0
  -24.9050  -34.0460   24.9770 H   0  0  0  0  0  0  0  0  0  0  0  0
  -24.0620  -36.7400   23.0850 C   0  0  0  0  0  1  0  0  0  0  0  0
  -25.3160  -36.3450   23.8830 C   0  0  0  0  0  3  0  0  0  0  0  0
  -27.4550  -37.2370   24.6930 C   0  0  0  0  0  1  0  0  0  0  0  0
  -26.3380  -37.4080   23.7670 N   0  0  0  0  0  0  0  0  0  0  0  0
  -25.9270  -38.3230   23.9340 H   0  0  0  0  0  0  0  0  0  0  0  0
  -23.6000  -24.8480   17.0110 C   0  0  0  0  0  2  0  0  0  0  0  0
  -24.9810  -24.2000   17.2310 C   0  0  0  0  0  2  0  0  0  0  0  0
  -25.1530  -23.5870   18.6310 C   0  0  0  0  0  2  0  0  0  0  0  0
  -26.6210  -23.2310   18.9230 C   0  0  0  0  0  2  0  0  0  0  0  0
  -26.9000  -23.0130   20.4190 C   0  0  0  0  0  2  0  0  0  0  0  0
  -28.3990  -23.0250   20.7590 C   0  0  0  0  0  2  0  0  0  0  0  0
  -29.6180  -20.8580   20.7210 C   0  0  0  0  0  0  0  0  0  0  0  0
  -29.1080  -21.9290   20.1040 N   0  0  0  0  0  0  0  0  0  0  0  0
  -29.5090  -20.6810   21.9370 O   0  0  0  0  0  0  0  0  0  0  0  0
  -29.2280  -21.9860   19.1020 H   0  0  0  0  0  0  0  0  0  0  0  0
  -30.3800  -19.8570   19.8420 C   0  0  0  0  0  2  0  0  0  0  0  0
  -30.2460  -17.6230   20.9090 C   0  0  0  0  0  0  0  0  0  0  0  0
  -30.9100  -18.7450   20.6260 N   0  0  0  0  0  0  0  0  0  0  0  0
  -29.1360  -17.3660   20.4350 O   0  0  0  0  0  0  0  0  0  0  0  0
  -31.8030  -18.8940   21.0760 H   0  0  0  0  0  0  0  0  0  0  0  0
  -30.9190  -16.6510   21.8830 C   0  0  0  0  0  2  0  0  0  0  0  0
  -30.9200  -14.5000   20.6660 C   0  0  0  0  0  0  0  0  0  0  0  0
  -30.5670  -12.4150   19.4040 C   0  0  0  0  0  2  0  0  0  0  0  0
  -29.6610  -12.6530   18.1820 C   0  0  0  0  0  2  0  0  0  0  0  0
  -28.1750  -12.5360   18.5700 C   0  0  0  0  0  2  0  0  0  0  0  0
  -27.8220  -13.3840   19.8210 C   0  0  0  0  0  3  0  0  0  0  0  0
  -28.8310  -13.1210   20.9610 C   0  0  0  0  0  2  0  0  0  0  0  0
  -30.1930  -13.3770   20.4510 N   0  0  0  0  0  0  0  0  0  0  0  0
  -31.9420  -14.7880   20.0320 O   0  0  0  0  0  0  0  0  0  0  0  0
  -30.4650  -15.2870   21.6440 N   0  0  0  0  0  0  0  0  0  0  0  0
  -29.6270  -14.9900   22.1210 H   0  0  0  0  0  0  0  0  0  0  0  0
  -25.4080  -14.0450   20.4320 C   0  0  0  0  0  0  0  0  0  0  0  0
  -24.3150  -13.2950   20.7810 C   0  0  0  0  0  0  0  0  0  0  0  0
  -24.7550  -11.9370   20.7900 C   0  0  0  0  0  0  0  0  0  0  0  0
  -26.4470  -13.1430   20.2550 N   0  0  0  0  0  0  0  0  0  0  0  0
  -26.0540  -11.8710   20.5240 N   0  0  0  0  0  0  0  0  0  0  0  0
  -24.0050  -10.6880   20.9830 C   0  0  0  0  0  0  0  0  0  0  0  0
  -24.4090   -9.7210   21.9290 C   0  0  0  0  0  3  0  0  0  0  0  0
  -23.6610   -8.5380   22.1080 C   0  0  0  0  0  3  0  0  0  0  0  0
  -22.4940   -8.3130   21.3400 C   0  0  0  0  0  0  0  0  0  0  0  0
  -22.1080   -9.2690   20.3830 C   0  0  0  0  0  3  0  0  0  0  0  0
  -22.8570  -10.4440   20.2030 C   0  0  0  0  0  3  0  0  0  0  0  0
  -21.7200   -7.1820   21.4260 O   0  0  0  0  0  0  0  0  0  0  0  0
  -21.6550   -6.4410   22.5790 C   0  0  0  0  0  0  0  0  0  0  0  0
  -21.2650   -7.0110   23.8100 C   0  0  0  0  0  3  0  0  0  0  0  0
  -21.1430   -6.1990   24.9550 C   0  0  0  0  0  3  0  0  0  0  0  0
  -21.4030   -4.8180   24.8710 C   0  0  0  0  0  0  0  0  0  0  0  0
  -21.7850   -4.2470   23.6440 C   0  0  0  0  0  3  0  0  0  0  0  0
  -21.9080   -5.0560   22.5010 C   0  0  0  0  0  0  0  0  0  0  0  0
  -22.2570   -4.4980   21.3170 F   0  0  0  0  0  0  0  0  0  0  0  0
  -21.2790   -4.0350   25.9680 F   0  0  0  0  0  0  0  0  0  0  0  0
  -22.9180  -13.7980   21.0010 C   0  0  0  0  0  0  0  0  0  0  0  0
  -22.1570  -13.1350   21.8670 N   0  0  0  0  0  0  0  0  0  0  0  0
  -22.5070  -14.8140   20.4440 O   0  0  0  0  0  0  0  0  0  0  0  0
  -22.5000  -12.3120   22.3410 H   0  0  0  0  0  0  0  0  0  0  0  0
  -21.2180  -13.4550   22.0570 H   0  0  0  0  0  0  0  0  0  0  0  0
  -25.6010  -15.4090   20.2380 N   0  0  0  0  0  0  0  0  0  0  0  0
  -24.8490  -16.0830   20.3230 H   0  0  0  0  0  0  0  0  0  0  0  0
  -26.4870  -15.8320   19.9850 H   0  0  0  0  0  0  0  0  0  0  0  0
  1 57  1  0
  2  1  1  0
  3  2  1  0
  4  6  1  0
  4  3  1  0
  5  9  1  0
  5  7  2  0
  6  5  1  0
  8  6  1  0
  9 10  1  0
 10 11  1  0
 11 12  1  0
 12 13  1  0
 13 14  1  0
 14 15  1  0
 15 16  1  0
 16 18  1  0
 17 28  2  0
 18 23  1  0
 19 27  1  0
 19 29  1  0
 20 26  1  0
 20 22  1  0
 21 27  1  0
 22 21  1  0
 23 22  2  0
 24 18  2  0
 25 24  1  0
 25 20  2  0
 26 19  1  0
 27 17  1  0
 29 31  2  0
 30 29  1  0
 32 30  1  0
 33 42  2  0
 33 38  1  0
 34 30  1  0
 34 38  1  0
 35 34  1  0
 36 37  1  0
 36 35  1  0
 37 33  1  0
 38 39  2  0
 39 40  1  0
 41 40  2  0
 42 41  1  0
 43 17  1  0
 43 48  1  0
 43 44  1  0
 44 47  1  1
 44 45  1  0
 46 44  1  0
 48 51  1  0
 49 53  1  0
 49 48  1  0
 50 49  2  0
 53 52  1  0
 55 53  1  0
 55 56  1  0
 55 54  1  0
 57 58  1  0
 58 59  1  0
 59 60  1  0
 60 61  1  0
 61 62  1  0
 63 65  2  0
 64 63  1  0
 64 62  1  0
 66 64  1  0
 67 69  1  0
 67 63  1  0
 68 72  1  0
 69 68  1  0
 69 71  1  0
 70 68  2  0
 73 81  1  0
 74 79  1  0
 75 76  1  0
 75 74  1  0
 77 76  1  0
 77 86  1  0
 77 78  1  0
 79 73  1  0
 79 78  1  0
 80 73  2  0
 81 72  1  0
 81 82  1  0
 83 84  2  0
 84 85  1  0
 84103  1  0
 85 88  1  0
 86 83  1  0
 86 87  1  0
 87 85  2  0
 88 89  1  0
 89 90  2  0
 91 94  1  0
 91 90  1  0
 92 91  2  0
 93 92  1  0
 93 88  2  0
 94 95  1  0
 95 96  1  0
 96 97  2  0
 98 97  1  0
 98102  1  0
 99 98  2  0
100 95  2  0
100 99  1  0
101100  1  0
103104  1  0
104107  1  0
104106  1  0
105103  2  0
108109  1  0
108 83  1  0
110108  1  0
M  ISO  4  15 101  16 101  73 100  81 100
M  END
>  <TORSDO>  (35) 
F 37

>  <SCORE>  (35) 
-9.993

>  <name>  (35) 
37

>  <ligand_id>  (35) 
37

>  <original_smiles>  (35) 
[H]c1c([H])c([H])c2c(c1[H])C([H])([H])C([H])([H])C([H])([H])C2([H])N([H])C(=O)C1([H])N(C(=O)C([H])(N([H])C(=O)C([H])(N([H])C([H])([H])[H])C([H])([H])[H])C(C([H])([H])[H])(C([H])([H])[H])C([H])([H])[H])C([H])([H])c2c([H])c(OC([H])([H])C([H])([H])OC([H])([H])C([H])([H])OC([H])([H])C(=O)N([H])C([H])([H])C([H])([H])C([H])([H])C([H])([H])C([H])([H])C([H])([H])C([H])([H])C([H])([H])C([H])([H])C([H])([H])N([H])C(=O)C([H])([H])N([H])C(=O)C([H])([H])N([H])C(=O)N3C([H])([H])C([H])([H])C([H])([H])C([H])(n4nc(-c5c([H])c([H])c(Oc6c([H])c([H])c(F)c([H])c6F)c([H])c5[H])c(C(=O)N([H])[H])c4N([H])[H])C3([H])[H])c([H])c([H])c2C1([H])[H]

>  <smiles>  (35) 
[H]c1c([H])c([H])c2c(c1[H])C([H])([H])C([H])([H])C([H])([H])C2([H])N([H])C(=O)C1([H])N(C(=O)C([H])(N([H])C(=O)C([H])(N([H])C([H])([H])[H])C([H])([H])[H])C(C([H])([H])[H])(C([H])([H])[H])C([H])([H])[H])C([H])([H])c2c([H])c(OC([H])([H])C([H])([H])OC([H])([H])C([H])([H])OC([H])([H])C(=O)N([H])C([H])([H])C([H])([H])C([H])([H])C([H])([H])C([H])([H])C([H])([H])C([H])([H])C([H])([H])C([H])([H])C([H])([H])N([H])C(=O)C([H])([H])N([H])C(=O)C([H])([H])N([H])C(=O)N3C([H])([H])C([H])([H])C([H])([H])C([H])(n4nc(-c5c([H])c([H])c(Oc6c([H])c([H])c(F)c([H])c6F)c([H])c5[H])c(C(=O)N([H])[H])c4N([H])[H])C3([H])[H])c([H])c([H])c2C1([H])[H]

$$$$
38:0:0
     RDKit          3D

 91 98  0  0  1  0  0  0  0  0999 V2000
  -31.4660  -22.2740   20.4310 C   0  0  0  0  0  0  0  0  0  0  0  0
  -30.2450  -21.7710   20.1980 N   0  0  0  0  0  0  0  0  0  0  0  0
  -32.4780  -21.5660   20.4270 O   0  0  0  0  0  0  0  0  0  0  0  0
  -29.4890  -22.4460   20.2070 H   0  0  0  0  0  0  0  0  0  0  0  0
  -31.6100  -23.7870   20.6640 C   0  0  0  0  0  2  0  0  0  0  0  0
  -30.3460  -24.4480   20.8220 O   0  0  0  0  0  0  0  0  0  0  0  0
  -30.5350  -25.8670   20.8490 C   0  0  0  0  0  2  0  0  0  0  0  0
  -29.2690  -26.6740   21.1880 C   0  0  0  0  0  2  0  0  0  0  0  0
  -28.3820  -26.6860   20.0710 O   0  0  0  0  0  0  0  0  0  0  0  0
  -24.5830  -31.8670   23.2510 C   0  0  0  0  0  0  0  0  0  0  0  0
  -27.2410  -27.4530   20.1590 C   0  0  0  0  0  0  0  0  0  0  0  0
  -23.3740  -30.4660   21.6050 C   0  0  0  0  0  3  0  0  0  0  0  0
  -24.8290  -28.9320   20.1790 C   0  0  0  0  0  0  0  0  0  0  0  0
  -25.8920  -30.8380   21.3990 C   0  0  0  0  0  2  0  0  0  0  0  0
  -25.9810  -29.4620   20.7710 C   0  0  0  0  0  0  0  0  0  0  0  0
  -27.1880  -28.7300   20.7710 C   0  0  0  0  0  3  0  0  0  0  0  0
  -26.0750  -26.9380   19.5600 C   0  0  0  0  0  3  0  0  0  0  0  0
  -24.8660  -27.6630   19.5720 C   0  0  0  0  0  3  0  0  0  0  0  0
  -23.5860  -29.7910   20.2220 C   0  0  0  0  0  2  0  0  0  0  0  0
  -24.6340  -31.0700   22.1450 N   0  0  0  0  0  0  0  0  0  0  0  0
  -23.5030  -32.1350   23.7950 O   0  0  0  0  0  0  0  0  0  0  0  0
  -22.7270  -29.4420   22.5640 C   0  0  0  0  0  0  0  0  0  0  0  0
  -21.4030  -29.2590   22.4390 N   0  0  0  0  0  0  0  0  0  0  0  0
  -23.4140  -28.8150   23.3760 O   0  0  0  0  0  0  0  0  0  0  0  0
  -20.9130  -29.8150   21.7520 H   0  0  0  0  0  0  0  0  0  0  0  0
  -18.0300  -28.0690   22.9440 C   0  0  0  0  0  0  0  0  0  0  0  0
  -20.5890  -28.3210   23.2100 C   0  0  0  0  0  3  0  0  0  0  0  0
  -20.6870  -26.8910   22.6310 C   0  0  0  0  0  2  0  0  0  0  0  0
  -19.5820  -26.5730   21.6180 C   0  0  0  0  0  2  0  0  0  0  0  0
  -18.2020  -26.7200   22.2670 C   0  0  0  0  0  2  0  0  0  0  0  0
  -19.1500  -28.8270   23.3750 C   0  0  0  0  0  0  0  0  0  0  0  0
  -18.9370  -30.0890   23.9690 C   0  0  0  0  0  3  0  0  0  0  0  0
  -17.6330  -30.5930   24.1410 C   0  0  0  0  0  3  0  0  0  0  0  0
  -16.5260  -29.8310   23.7260 C   0  0  0  0  0  3  0  0  0  0  0  0
  -16.7260  -28.5710   23.1340 C   0  0  0  0  0  3  0  0  0  0  0  0
  -25.8710  -32.4950   23.8670 C   0  0  0  0  0  3  0  0  0  0  0  0
  -25.5650  -33.8930   24.1980 N   0  0  0  0  0  0  0  0  0  0  0  0
  -25.9010  -34.9440   23.4370 C   0  0  0  0  0  0  0  0  0  0  0  0
  -26.5710  -34.8380   22.4060 O   0  0  0  0  0  0  0  0  0  0  0  0
  -24.9660  -34.0500   24.9950 H   0  0  0  0  0  0  0  0  0  0  0  0
  -24.1780  -36.7390   23.0740 C   0  0  0  0  0  1  0  0  0  0  0  0
  -25.4160  -36.3340   23.8910 C   0  0  0  0  0  3  0  0  0  0  0  0
  -27.5510  -37.2090   24.7290 C   0  0  0  0  0  1  0  0  0  0  0  0
  -26.4530  -37.3840   23.7820 N   0  0  0  0  0  0  0  0  0  0  0  0
  -26.0500  -38.3050   23.9290 H   0  0  0  0  0  0  0  0  0  0  0  0
  -26.3960  -31.7200   25.1370 C   0  0  1  0  0  0  0  0  0  0  0  0
  -25.3100  -31.4770   26.2120 C   0  0  0  0  0  1  0  0  0  0  0  0
  -26.9740  -30.3440   24.7300 C   0  0  0  0  0  1  0  0  0  0  0  0
  -27.5500  -32.5100   25.7950 C   0  0  0  0  0  1  0  0  0  0  0  0
  -29.9460  -20.3950   19.7760 C   0  0  0  0  0  2  0  0  0  0  0  0
  -30.1550  -19.3390   20.8900 C   0  0  0  0  0  2  0  0  0  0  0  0
  -29.8330  -17.8870   20.4460 C   0  0  0  0  0  2  0  0  0  0  0  0
  -30.3400  -16.8250   21.4520 C   0  0  0  0  0  2  0  0  0  0  0  0
  -30.6320  -14.4900   20.5120 C   0  0  0  0  0  0  0  0  0  0  0  0
  -30.3600  -12.3430   19.3180 C   0  0  0  0  0  2  0  0  0  0  0  0
  -29.4140  -12.5610   18.1180 C   0  0  0  0  0  2  0  0  0  0  0  0
  -27.9360  -12.4310   18.5410 C   0  0  0  0  0  2  0  0  0  0  0  0
  -27.6000  -13.2370   19.8250 C   0  0  0  0  0  3  0  0  0  0  0  0
  -28.6570  -12.9800   20.9230 C   0  0  0  0  0  2  0  0  0  0  0  0
  -29.9790  -13.3070   20.3600 N   0  0  0  0  0  0  0  0  0  0  0  0
  -31.7450  -14.7140   20.0280 O   0  0  0  0  0  0  0  0  0  0  0  0
  -29.9230  -15.4510   21.1350 N   0  0  0  0  0  0  0  0  0  0  0  0
  -29.0100  -15.1720   21.4580 H   0  0  0  0  0  0  0  0  0  0  0  0
  -25.1980  -13.8280   20.5400 C   0  0  0  0  0  0  0  0  0  0  0  0
  -24.1360  -13.0480   20.9110 C   0  0  0  0  0  0  0  0  0  0  0  0
  -24.6050  -11.7000   20.8790 C   0  0  0  0  0  0  0  0  0  0  0  0
  -26.2500  -12.9540   20.3050 N   0  0  0  0  0  0  0  0  0  0  0  0
  -25.8960  -11.6690   20.5660 N   0  0  0  0  0  0  0  0  0  0  0  0
  -23.8890  -10.4330   21.0720 C   0  0  0  0  0  0  0  0  0  0  0  0
  -24.3410   -9.4610   21.9920 C   0  0  0  0  0  3  0  0  0  0  0  0
  -23.6250   -8.2580   22.1710 C   0  0  0  0  0  3  0  0  0  0  0  0
  -22.4430   -8.0200   21.4320 C   0  0  0  0  0  0  0  0  0  0  0  0
  -22.0110   -8.9800   20.5000 C   0  0  0  0  0  3  0  0  0  0  0  0
  -22.7280  -10.1720   20.3190 C   0  0  0  0  0  3  0  0  0  0  0  0
  -21.6960   -6.8700   21.5240 O   0  0  0  0  0  0  0  0  0  0  0  0
  -21.6820   -6.1080   22.6650 C   0  0  0  0  0  0  0  0  0  0  0  0
  -21.2910   -6.6420   23.9110 C   0  0  0  0  0  3  0  0  0  0  0  0
  -21.2200   -5.8050   25.0430 C   0  0  0  0  0  3  0  0  0  0  0  0
  -21.5360   -4.4380   24.9300 C   0  0  0  0  0  0  0  0  0  0  0  0
  -21.9220   -3.9050   23.6890 C   0  0  0  0  0  3  0  0  0  0  0  0
  -21.9930   -4.7370   22.5590 C   0  0  0  0  0  0  0  0  0  0  0  0
  -22.3440   -4.2120   21.3600 F   0  0  0  0  0  0  0  0  0  0  0  0
  -21.4620   -3.6360   26.0180 F   0  0  0  0  0  0  0  0  0  0  0  0
  -22.7350  -13.5160   21.1840 C   0  0  0  0  0  0  0  0  0  0  0  0
  -22.0080  -12.8190   22.0510 N   0  0  0  0  0  0  0  0  0  0  0  0
  -22.2900  -14.5380   20.6620 O   0  0  0  0  0  0  0  0  0  0  0  0
  -22.3760  -11.9950   22.5030 H   0  0  0  0  0  0  0  0  0  0  0  0
  -21.0690  -13.1170   22.2660 H   0  0  0  0  0  0  0  0  0  0  0  0
  -25.3510  -15.1990   20.3640 N   0  0  0  0  0  0  0  0  0  0  0  0
  -24.5800  -15.8470   20.4820 H   0  0  0  0  0  0  0  0  0  0  0  0
  -26.1960  -15.6460   20.0290 H   0  0  0  0  0  0  0  0  0  0  0  0
  1  5  1  0
  2  4  1  0
  2  1  1  0
  3  1  2  0
  5  6  1  0
  6  7  1  0
  7  8  1  0
  9 11  1  0
  9  8  1  0
 10 21  2  0
 11 16  1  0
 12 20  1  0
 12 22  1  0
 13 19  1  0
 13 15  1  0
 14 20  1  0
 15 16  2  0
 15 14  1  0
 17 18  1  0
 17 11  2  0
 18 13  2  0
 19 12  1  0
 20 10  1  0
 22 24  2  0
 23 22  1  0
 25 23  1  0
 26 35  2  0
 26 31  1  0
 27 23  1  0
 27 31  1  0
 28 27  1  0
 29 30  1  0
 29 28  1  0
 30 26  1  0
 31 32  2  0
 32 33  1  0
 34 33  2  0
 35 34  1  0
 36 10  1  0
 36 37  1  0
 36 46  1  0
 37 40  1  0
 38 42  1  0
 38 37  1  0
 39 38  2  0
 42 41  1  0
 44 42  1  0
 44 45  1  0
 44 43  1  0
 46 49  1  1
 46 47  1  0
 48 46  1  0
 50  2  1  0
 50 51  1  0
 52 51  1  0
 52 53  1  0
 54 62  1  0
 55 60  1  0
 56 57  1  0
 56 55  1  0
 58 57  1  0
 58 67  1  0
 58 59  1  0
 60 54  1  0
 60 59  1  0
 61 54  2  0
 62 53  1  0
 62 63  1  0
 64 65  2  0
 65 84  1  0
 66 65  1  0
 66 69  1  0
 67 64  1  0
 67 68  1  0
 68 66  2  0
 69 70  1  0
 70 71  2  0
 72 75  1  0
 72 71  1  0
 73 72  2  0
 74 73  1  0
 74 69  2  0
 75 76  1  0
 76 77  1  0
 77 78  2  0
 79 78  1  0
 79 83  1  0
 80 79  2  0
 81 76  2  0
 81 80  1  0
 82 81  1  0
 84 85  1  0
 85 88  1  0
 85 87  1  0
 86 84  2  0
 89 90  1  0
 89 64  1  0
 91 89  1  0
M  ISO  4   8 101   9 101  54 100  62 100
M  END
>  <TORSDO>  (36) 
F 24

>  <SCORE>  (36) 
-12.428

>  <name>  (36) 
38

>  <ligand_id>  (36) 
38

>  <original_smiles>  (36) 
[H]c1c([H])c([H])c2c(c1[H])C([H])([H])C([H])([H])C([H])([H])C2([H])N([H])C(=O)C1([H])N(C(=O)C([H])(N([H])C(=O)C([H])(N([H])C([H])([H])[H])C([H])([H])[H])C(C([H])([H])[H])(C([H])([H])[H])C([H])([H])[H])C([H])([H])c2c([H])c(OC([H])([H])C([H])([H])OC([H])([H])C(=O)N([H])C([H])([H])C([H])([H])C([H])([H])C([H])([H])N([H])C(=O)N3C([H])([H])C([H])([H])C([H])([H])C([H])(n4nc(-c5c([H])c([H])c(Oc6c([H])c([H])c(F)c([H])c6F)c([H])c5[H])c(C(=O)N([H])[H])c4N([H])[H])C3([H])[H])c([H])c([H])c2C1([H])[H]

>  <smiles>  (36) 
[H]c1c([H])c([H])c2c(c1[H])C([H])([H])C([H])([H])C([H])([H])C2([H])N([H])C(=O)C1([H])N(C(=O)C([H])(N([H])C(=O)C([H])(N([H])C([H])([H])[H])C([H])([H])[H])C(C([H])([H])[H])(C([H])([H])[H])C([H])([H])[H])C([H])([H])c2c([H])c(OC([H])([H])C([H])([H])OC([H])([H])C(=O)N([H])C([H])([H])C([H])([H])C([H])([H])C([H])([H])N([H])C(=O)N3C([H])([H])C([H])([H])C([H])([H])C([H])(n4nc(-c5c([H])c([H])c(Oc6c([H])c([H])c(F)c([H])c6F)c([H])c5[H])c(C(=O)N([H])[H])c4N([H])[H])C3([H])[H])c([H])c([H])c2C1([H])[H]

$$$$
39:0:0
     RDKit          3D

 99106  0  0  1  0  0  0  0  0999 V2000
  -27.0360  -16.9060   17.2890 C   0  0  0  0  0  3  0  0  0  0  0  0
  -27.3470  -15.8690   16.0790 C   0  0  0  0  0  3  0  0  0  0  0  0
  -27.2710  -14.4080   16.3220 O   0  0  0  0  0  0  0  0  0  0  0  0
  -27.5940  -13.4280   15.2530 C   0  0  0  0  0  2  0  0  0  0  0  0
  -27.3900  -11.8400   15.4950 C   0  0  0  0  0  2  0  0  0  0  0  0
  -28.4930  -10.6620   15.7550 C   0  0  0  0  0  2  0  0  0  0  0  0
  -30.0810   -9.9700   17.7300 C   0  0  0  0  0  0  0  0  0  0  0  0
  -29.6930  -10.7560   16.6690 N   0  0  0  0  0  0  0  0  0  0  0  0
  -29.3810   -9.0200   18.0790 O   0  0  0  0  0  0  0  0  0  0  0  0
  -30.2430  -11.5910   16.5350 H   0  0  0  0  0  0  0  0  0  0  0  0
  -31.4590  -10.2020   18.5050 C   0  0  0  0  0  2  0  0  0  0  0  0
  -31.5170  -10.7240   20.0490 C   0  0  0  0  0  2  0  0  0  0  0  0
  -31.3420  -13.3130   20.6400 C   0  0  0  0  0  0  0  0  0  0  0  0
  -30.2650  -13.1100   18.7750 C   0  0  0  0  0  2  0  0  0  0  0  0
  -29.0310  -13.1470   18.0350 C   0  0  0  0  0  2  0  0  0  0  0  0
  -27.8760  -12.4280   18.6770 C   0  0  0  0  0  2  0  0  0  0  0  0
  -27.6500  -13.1910   19.9720 C   0  0  0  0  0  3  0  0  0  0  0  0
  -28.8330  -12.9950   20.9530 C   0  0  0  0  0  2  0  0  0  0  0  0
  -30.1140  -13.1160   20.2200 N   0  0  0  0  0  0  0  0  0  0  0  0
  -31.9030  -14.4220   20.5810 O   0  0  0  0  0  0  0  0  0  0  0  0
  -32.0360  -12.1270   20.4160 N   0  0  0  0  0  0  0  0  0  0  0  0
  -33.0400  -12.2200   20.3350 H   0  0  0  0  0  0  0  0  0  0  0  0
  -25.2830  -13.8080   20.6530 C   0  0  0  0  0  0  0  0  0  0  0  0
  -24.1890  -13.0370   20.9460 C   0  0  0  0  0  0  0  0  0  0  0  0
  -24.6360  -11.6830   20.9000 C   0  0  0  0  0  0  0  0  0  0  0  0
  -26.3220  -12.9120   20.4660 N   0  0  0  0  0  0  0  0  0  0  0  0
  -25.9350  -11.6290   20.6540 N   0  0  0  0  0  0  0  0  0  0  0  0
  -23.8920  -10.4230   21.0470 C   0  0  0  0  0  0  0  0  0  0  0  0
  -24.3480   -9.4100   21.9160 C   0  0  0  0  0  3  0  0  0  0  0  0
  -23.6250   -8.2080   22.0590 C   0  0  0  0  0  3  0  0  0  0  0  0
  -22.4230   -8.0180   21.3400 C   0  0  0  0  0  0  0  0  0  0  0  0
  -21.9850   -9.0170   20.4520 C   0  0  0  0  0  3  0  0  0  0  0  0
  -22.7090  -10.2150   20.3060 C   0  0  0  0  0  3  0  0  0  0  0  0
  -21.6590   -6.8750   21.4210 O   0  0  0  0  0  0  0  0  0  0  0  0
  -21.6830   -6.0680   22.5290 C   0  0  0  0  0  0  0  0  0  0  0  0
  -21.4020   -6.5570   23.8240 C   0  0  0  0  0  3  0  0  0  0  0  0
  -21.3580   -5.6730   24.9200 C   0  0  0  0  0  3  0  0  0  0  0  0
  -21.5940   -4.3000   24.7290 C   0  0  0  0  0  0  0  0  0  0  0  0
  -21.8800   -3.8080   23.4410 C   0  0  0  0  0  3  0  0  0  0  0  0
  -21.9200   -4.6880   22.3460 C   0  0  0  0  0  0  0  0  0  0  0  0
  -22.1740   -4.2030   21.1060 F   0  0  0  0  0  0  0  0  0  0  0  0
  -21.5530   -3.4500   25.7800 F   0  0  0  0  0  0  0  0  0  0  0  0
  -22.7970  -13.5290   21.1800 C   0  0  0  0  0  0  0  0  0  0  0  0
  -22.0460  -12.8100   22.0070 N   0  0  0  0  0  0  0  0  0  0  0  0
  -22.3740  -14.5630   20.6760 O   0  0  0  0  0  0  0  0  0  0  0  0
  -22.4080  -11.9690   22.4200 H   0  0  0  0  0  0  0  0  0  0  0  0
  -21.0870  -13.0810   22.1750 H   0  0  0  0  0  0  0  0  0  0  0  0
  -25.4950  -15.1750   20.5350 N   0  0  0  0  0  0  0  0  0  0  0  0
  -24.8490  -15.8010   21.0020 H   0  0  0  0  0  0  0  0  0  0  0  0
  -26.4580  -15.4860   20.6210 H   0  0  0  0  0  0  0  0  0  0  0  0
  -27.0350  -18.5080   17.0320 C   0  0  0  0  0  2  0  0  0  0  0  0
  -27.1560  -19.4670   18.2320 N   0  0  0  0  0  4  0  0  0  0  0  0
  -26.5070  -19.1610   18.9400 H   0  0  0  0  0  0  0  0  0  0  0  0
  -28.0830  -19.3440   18.6020 H   0  0  0  0  0  0  0  0  0  0  0  0
  -26.9440  -20.9820   18.0520 C   0  0  0  0  0  3  0  0  0  0  0  0
  -27.3840  -22.0060   19.2390 C   0  0  0  0  0  3  0  0  0  0  0  0
  -27.3250  -23.6260   18.9960 C   0  0  0  0  0  3  0  0  0  0  0  0
  -27.8000  -24.7130   20.1320 C   0  0  0  0  0  3  0  0  0  0  0  0
  -28.1260  -26.2050   19.9830 O   0  0  0  0  0  0  0  0  0  0  0  0
  -24.6450  -31.8510   23.1900 C   0  0  0  0  0  0  0  0  0  0  0  0
  -27.1100  -27.1810   20.0490 C   0  0  0  0  0  0  0  0  0  0  0  0
  -23.4330  -30.4840   21.5490 C   0  0  0  0  0  3  0  0  0  0  0  0
  -24.8380  -28.9170   20.1060 C   0  0  0  0  0  0  0  0  0  0  0  0
  -25.9810  -30.7380   21.3530 C   0  0  0  0  0  2  0  0  0  0  0  0
  -26.0300  -29.3470   20.7080 C   0  0  0  0  0  0  0  0  0  0  0  0
  -27.1840  -28.4860   20.6690 C   0  0  0  0  0  3  0  0  0  0  0  0
  -25.8980  -26.8380   19.4310 C   0  0  0  0  0  3  0  0  0  0  0  0
  -24.7770  -27.6760   19.4630 C   0  0  0  0  0  3  0  0  0  0  0  0
  -23.6340  -29.8310   20.1620 C   0  0  0  0  0  2  0  0  0  0  0  0
  -24.7140  -31.0400   22.0920 N   0  0  0  0  0  0  0  0  0  0  0  0
  -23.5590  -32.1380   23.7190 O   0  0  0  0  0  0  0  0  0  0  0  0
  -22.7510  -29.4630   22.4960 C   0  0  0  0  0  0  0  0  0  0  0  0
  -21.4200  -29.3130   22.3720 N   0  0  0  0  0  0  0  0  0  0  0  0
  -23.4170  -28.8100   23.3000 O   0  0  0  0  0  0  0  0  0  0  0  0
  -20.9410  -29.9080   21.7110 H   0  0  0  0  0  0  0  0  0  0  0  0
  -18.0250  -28.1400   22.8460 C   0  0  0  0  0  0  0  0  0  0  0  0
  -20.5870  -28.3740   23.1270 C   0  0  0  0  0  3  0  0  0  0  0  0
  -20.6740  -26.9460   22.5430 C   0  0  0  0  0  2  0  0  0  0  0  0
  -19.5730  -26.6410   21.5200 C   0  0  0  0  0  2  0  0  0  0  0  0
  -18.1920  -26.7910   22.1630 C   0  0  0  0  0  2  0  0  0  0  0  0
  -19.1530  -28.8840   23.2870 C   0  0  0  0  0  0  0  0  0  0  0  0
  -18.9460  -30.1410   23.8930 C   0  0  0  0  0  3  0  0  0  0  0  0
  -17.6480  -30.6610   24.0550 C   0  0  0  0  0  3  0  0  0  0  0  0
  -16.5350  -29.9150   23.6260 C   0  0  0  0  0  3  0  0  0  0  0  0
  -16.7250  -28.6560   23.0270 C   0  0  0  0  0  3  0  0  0  0  0  0
  -25.9240  -32.4740   23.8260 C   0  0  0  0  0  3  0  0  0  0  0  0
  -25.6000  -33.8530   24.2250 N   0  0  0  0  0  0  0  0  0  0  0  0
  -25.9030  -34.9470   23.5120 C   0  0  0  0  0  0  0  0  0  0  0  0
  -26.5640  -34.8960   22.4710 O   0  0  0  0  0  0  0  0  0  0  0  0
  -25.0080  -33.9620   25.0360 H   0  0  0  0  0  0  0  0  0  0  0  0
  -24.1460  -36.7300   23.2630 C   0  0  0  0  0  1  0  0  0  0  0  0
  -25.4050  -36.3100   24.0360 C   0  0  0  0  0  3  0  0  0  0  0  0
  -27.5560  -37.1810   24.8460 C   0  0  0  0  0  1  0  0  0  0  0  0
  -26.4220  -37.3800   23.9470 N   0  0  0  0  0  0  0  0  0  0  0  0
  -26.0120  -38.2890   24.1470 H   0  0  0  0  0  0  0  0  0  0  0  0
  -26.4540  -31.6520   25.0640 C   0  0  1  0  0  0  0  0  0  0  0  0
  -25.3770  -31.3780   26.1400 C   0  0  0  0  0  1  0  0  0  0  0  0
  -27.0230  -30.2910   24.5990 C   0  0  0  0  0  1  0  0  0  0  0  0
  -27.6140  -32.4130   25.7440 C   0  0  0  0  0  1  0  0  0  0  0  0
  2  3  1  0
  2  1  2  0
  4  5  1  0
  4  3  1  0
  5  6  1  0
  6  8  1  0
  7  9  2  0
  7 11  1  0
  8  7  1  0
 10  8  1  0
 11 12  1  0
 12 21  1  0
 14 19  1  0
 15 16  1  0
 15 14  1  0
 17 16  1  0
 17 26  1  0
 17 18  1  0
 19 13  1  0
 19 18  1  0
 20 13  2  0
 21 13  1  0
 22 21  1  0
 23 24  2  0
 24 43  1  0
 25 24  1  0
 25 28  1  0
 26 23  1  0
 26 27  1  0
 27 25  2  0
 28 29  1  0
 29 30  2  0
 31 34  1  0
 31 30  1  0
 32 31  2  0
 33 32  1  0
 33 28  2  0
 34 35  1  0
 35 36  1  0
 36 37  2  0
 38 37  1  0
 38 42  1  0
 39 38  2  0
 40 35  2  0
 40 39  1  0
 41 40  1  0
 43 44  1  0
 44 47  1  0
 44 46  1  0
 45 43  2  0
 48 50  1  0
 48 23  1  0
 48 49  1  0
 51  1  1  0
 51 52  1  0
 52 54  1  0
 52 53  1  0
 55 52  1  0
 55 56  2  0
 57 56  1  0
 57 58  2  0
 59 61  1  0
 59 58  1  0
 60 71  2  0
 61 66  1  0
 62 70  1  0
 62 72  1  0
 63 69  1  0
 63 65  1  0
 64 70  1  0
 65 64  1  0
 66 65  2  0
 67 68  1  0
 67 61  2  0
 68 63  2  0
 69 62  1  0
 70 60  1  0
 72 74  2  0
 73 72  1  0
 75 73  1  0
 76 85  2  0
 76 81  1  0
 77 73  1  0
 77 81  1  0
 78 77  1  0
 79 80  1  0
 79 78  1  0
 80 76  1  0
 81 82  2  0
 82 83  1  0
 84 83  2  0
 85 84  1  0
 86 60  1  0
 86 87  1  0
 86 96  1  0
 87 90  1  0
 88 92  1  0
 88 87  1  0
 89 88  2  0
 92 91  1  0
 94 92  1  0
 94 95  1  0
 94 93  1  0
 96 99  1  1
 96 97  1  0
 98 96  1  0
M  ISO  4  13 100  21 100  58 101  59 101
M  END
>  <TORSDO>  (37) 
F 30

>  <SCORE>  (37) 
22.638

>  <name>  (37) 
39

>  <ligand_id>  (37) 
39

>  <original_smiles>  (37) 
[H]c1c([H])c([H])c2c(c1[H])C([H])([H])C([H])([H])C([H])([H])C2([H])N([H])C(=O)C1([H])N(C(=O)C([H])(N([H])C(=O)C([H])(N([H])C([H])([H])[H])C([H])([H])[H])C(C([H])([H])[H])(C([H])([H])[H])C([H])([H])[H])C([H])([H])c2c([H])c(OC([H])([H])C([H])([H])C([H])([H])C([H])([H])[N+]([H])([H])C([H])([H])C([H])([H])C([H])([H])OC([H])([H])C([H])([H])C([H])([H])N([H])C(=O)C([H])([H])C([H])([H])N([H])C(=O)N3C([H])([H])C([H])([H])C([H])([H])C([H])(n4nc(-c5c([H])c([H])c(Oc6c([H])c([H])c(F)c([H])c6F)c([H])c5[H])c(C(=O)N([H])[H])c4N([H])[H])C3([H])[H])c([H])c([H])c2C1([H])[H]

>  <smiles>  (37) 
[H]c1c([H])c([H])c2c(c1[H])C([H])([H])C([H])([H])C([H])([H])C2([H])N([H])C(=O)C1([H])N(C(=O)C([H])(N([H])C(=O)C([H])(N([H])C([H])([H])[H])C([H])([H])[H])C(C([H])([H])[H])(C([H])([H])[H])C([H])([H])[H])C([H])([H])c2c([H])c(OC([H])([H])C([H])([H])C([H])([H])C([H])([H])[N+]([H])([H])C([H])([H])C([H])([H])C([H])([H])OC([H])([H])C([H])([H])C([H])([H])N([H])C(=O)C([H])([H])C([H])([H])N([H])C(=O)N3C([H])([H])C([H])([H])C([H])([H])C([H])(n4nc(-c5c([H])c([H])c(Oc6c([H])c([H])c(F)c([H])c6F)c([H])c5[H])c(C(=O)N([H])[H])c4N([H])[H])C3([H])[H])c([H])c([H])c2C1([H])[H]

$$$$
40:0:0
     RDKit          3D

 94102  0  0  1  0  0  0  0  0999 V2000
  -30.3680  -22.2710   19.5360 C   0  0  0  0  0  0  0  0  0  0  0  0
  -29.7640  -23.4160   19.1900 N   0  0  0  0  0  0  0  0  0  0  0  0
  -30.9580  -22.1200   20.6070 O   0  0  0  0  0  0  0  0  0  0  0  0
  -29.3180  -23.4290   18.2830 H   0  0  0  0  0  0  0  0  0  0  0  0
  -30.0340  -18.9710   19.6590 C   0  0  0  0  0  0  0  0  0  0  0  0
  -32.5390  -20.7910   17.6080 C   0  0  0  0  0  2  0  0  0  0  0  0
  -31.2300  -21.4940   17.2860 C   0  0  0  0  0  2  0  0  0  0  0  0
  -32.1000  -19.5320   18.3530 C   0  0  0  0  0  2  0  0  0  0  0  0
  -30.3080  -21.1540   18.4730 C   0  0  0  0  0  3  0  0  0  0  0  0
  -30.7810  -19.8310   18.9230 N   0  0  0  0  0  0  0  0  0  0  0  0
  -28.9600  -19.3140   20.1610 O   0  0  0  0  0  0  0  0  0  0  0  0
  -30.4810  -17.4960   19.7880 C   0  0  0  0  0  2  0  0  0  0  0  0
  -30.3120  -16.8480   21.1880 C   0  0  0  0  0  2  0  0  0  0  0  0
  -30.6700  -14.4340   20.5470 C   0  0  0  0  0  0  0  0  0  0  0  0
  -30.3620  -12.3050   19.3480 C   0  0  0  0  0  2  0  0  0  0  0  0
  -29.4230  -12.5360   18.1470 C   0  0  0  0  0  2  0  0  0  0  0  0
  -27.9450  -12.4130   18.5700 C   0  0  0  0  0  2  0  0  0  0  0  0
  -27.6140  -13.2360   19.8440 C   0  0  0  0  0  3  0  0  0  0  0  0
  -28.6600  -12.9700   20.9500 C   0  0  0  0  0  2  0  0  0  0  0  0
  -29.9930  -13.2670   20.3960 N   0  0  0  0  0  0  0  0  0  0  0  0
  -31.7870  -14.6410   20.0620 O   0  0  0  0  0  0  0  0  0  0  0  0
  -29.9640  -15.4200   21.1240 N   0  0  0  0  0  0  0  0  0  0  0  0
  -29.0570  -15.1560   21.4810 H   0  0  0  0  0  0  0  0  0  0  0  0
  -25.2120  -13.8690   20.5240 C   0  0  0  0  0  0  0  0  0  0  0  0
  -24.1360  -13.1070   20.8920 C   0  0  0  0  0  0  0  0  0  0  0  0
  -24.5870  -11.7520   20.8750 C   0  0  0  0  0  0  0  0  0  0  0  0
  -26.2540  -12.9790   20.3110 N   0  0  0  0  0  0  0  0  0  0  0  0
  -25.8790  -11.7010   20.5770 N   0  0  0  0  0  0  0  0  0  0  0  0
  -23.8520  -10.4960   21.0680 C   0  0  0  0  0  0  0  0  0  0  0  0
  -24.2910   -9.5200   21.9900 C   0  0  0  0  0  3  0  0  0  0  0  0
  -23.5570   -8.3270   22.1730 C   0  0  0  0  0  3  0  0  0  0  0  0
  -22.3720   -8.1030   21.4330 C   0  0  0  0  0  0  0  0  0  0  0  0
  -21.9530   -9.0670   20.4990 C   0  0  0  0  0  3  0  0  0  0  0  0
  -22.6860  -10.2520   20.3150 C   0  0  0  0  0  3  0  0  0  0  0  0
  -21.6090   -6.9630   21.5240 O   0  0  0  0  0  0  0  0  0  0  0  0
  -21.5890   -6.2020   22.6640 C   0  0  0  0  0  0  0  0  0  0  0  0
  -21.2310   -6.7450   23.9180 C   0  0  0  0  0  3  0  0  0  0  0  0
  -21.1550   -5.9100   25.0510 C   0  0  0  0  0  3  0  0  0  0  0  0
  -21.4280   -4.5340   24.9330 C   0  0  0  0  0  0  0  0  0  0  0  0
  -21.7820   -3.9910   23.6850 C   0  0  0  0  0  3  0  0  0  0  0  0
  -21.8580   -4.8230   22.5540 C   0  0  0  0  0  0  0  0  0  0  0  0
  -22.1770   -4.2910   21.3490 F   0  0  0  0  0  0  0  0  0  0  0  0
  -21.3490   -3.7310   26.0190 F   0  0  0  0  0  0  0  0  0  0  0  0
  -22.7400  -13.5950   21.1510 C   0  0  0  0  0  0  0  0  0  0  0  0
  -22.0020  -12.9110   22.0200 N   0  0  0  0  0  0  0  0  0  0  0  0
  -22.3090  -14.6160   20.6180 O   0  0  0  0  0  0  0  0  0  0  0  0
  -22.3630  -12.0850   22.4740 H   0  0  0  0  0  0  0  0  0  0  0  0
  -21.0650  -13.2190   22.2340 H   0  0  0  0  0  0  0  0  0  0  0  0
  -25.3890  -15.2370   20.3370 N   0  0  0  0  0  0  0  0  0  0  0  0
  -24.6270  -15.9000   20.4380 H   0  0  0  0  0  0  0  0  0  0  0  0
  -26.2440  -15.6660   20.0080 H   0  0  0  0  0  0  0  0  0  0  0  0
  -29.7180  -24.6680   19.9430 C   0  0  0  0  0  2  0  0  0  0  0  0
  -28.3860  -25.3880   19.6680 C   0  0  0  0  0  2  0  0  0  0  0  0
  -28.4020  -26.7360   20.1390 O   0  0  0  0  0  0  0  0  0  0  0  0
  -24.6070  -31.8890   23.2280 C   0  0  0  0  0  0  0  0  0  0  0  0
  -27.2110  -27.4380   20.1280 C   0  0  0  0  0  0  0  0  0  0  0  0
  -23.3800  -30.4880   21.6020 C   0  0  0  0  0  3  0  0  0  0  0  0
  -24.8140  -28.9460   20.1660 C   0  0  0  0  0  0  0  0  0  0  0  0
  -25.9040  -30.8390   21.3780 C   0  0  0  0  0  2  0  0  0  0  0  0
  -25.9780  -29.4660   20.7430 C   0  0  0  0  0  0  0  0  0  0  0  0
  -27.1760  -28.7180   20.7250 C   0  0  0  0  0  3  0  0  0  0  0  0
  -26.0220  -26.9310   19.5460 C   0  0  0  0  0  3  0  0  0  0  0  0
  -24.8310  -27.6760   19.5680 C   0  0  0  0  0  3  0  0  0  0  0  0
  -23.5730  -29.8060   20.2220 C   0  0  0  0  0  2  0  0  0  0  0  0
  -24.6490  -31.0860   22.1270 N   0  0  0  0  0  0  0  0  0  0  0  0
  -23.5330  -32.1670   23.7770 O   0  0  0  0  0  0  0  0  0  0  0  0
  -22.7360  -29.4700   22.5700 C   0  0  0  0  0  0  0  0  0  0  0  0
  -21.4110  -29.2900   22.4530 N   0  0  0  0  0  0  0  0  0  0  0  0
  -23.4260  -28.8440   23.3800 O   0  0  0  0  0  0  0  0  0  0  0  0
  -20.9160  -29.8450   21.7690 H   0  0  0  0  0  0  0  0  0  0  0  0
  -18.0400  -28.1000   22.9690 C   0  0  0  0  0  0  0  0  0  0  0  0
  -20.5980  -28.3580   23.2330 C   0  0  0  0  0  3  0  0  0  0  0  0
  -20.6980  -26.9230   22.6640 C   0  0  0  0  0  2  0  0  0  0  0  0
  -19.5930  -26.5950   21.6560 C   0  0  0  0  0  2  0  0  0  0  0  0
  -18.2130  -26.7460   22.3040 C   0  0  0  0  0  2  0  0  0  0  0  0
  -19.1600  -28.8630   23.3910 C   0  0  0  0  0  0  0  0  0  0  0  0
  -18.9450  -30.1320   23.9730 C   0  0  0  0  0  3  0  0  0  0  0  0
  -17.6410  -30.6360   24.1380 C   0  0  0  0  0  3  0  0  0  0  0  0
  -16.5350  -29.8690   23.7340 C   0  0  0  0  0  3  0  0  0  0  0  0
  -16.7350  -28.6030   23.1550 C   0  0  0  0  0  3  0  0  0  0  0  0
  -25.9020  -32.5170   23.8320 C   0  0  0  0  0  3  0  0  0  0  0  0
  -25.6000  -33.9130   24.1750 N   0  0  0  0  0  0  0  0  0  0  0  0
  -25.9220  -34.9680   23.4150 C   0  0  0  0  0  0  0  0  0  0  0  0
  -26.5770  -34.8690   22.3740 O   0  0  0  0  0  0  0  0  0  0  0  0
  -25.0160  -34.0640   24.9850 H   0  0  0  0  0  0  0  0  0  0  0  0
  -24.1860  -36.7570   23.0940 C   0  0  0  0  0  1  0  0  0  0  0  0
  -25.4400  -36.3540   23.8850 C   0  0  0  0  0  3  0  0  0  0  0  0
  -27.5890  -37.2330   24.6810 C   0  0  0  0  0  1  0  0  0  0  0  0
  -26.4690  -37.4090   23.7600 N   0  0  0  0  0  0  0  0  0  0  0  0
  -26.0660  -38.3270   23.9230 H   0  0  0  0  0  0  0  0  0  0  0  0
  -26.4420  -31.7360   25.0930 C   0  0  1  0  0  0  0  0  0  0  0  0
  -25.3670  -31.4900   26.1770 C   0  0  0  0  0  1  0  0  0  0  0  0
  -27.0170  -30.3610   24.6780 C   0  0  0  0  0  1  0  0  0  0  0  0
  -27.6050  -32.5240   25.7400 C   0  0  0  0  0  1  0  0  0  0  0  0
  1  3  2  0
  2  1  1  0
  2 52  1  0
  4  2  1  0
  5 12  1  0
  5 11  2  0
  6  8  1  0
  7  6  1  0
  7  9  1  0
  8 10  1  0
  9 10  1  0
  9  1  1  0
 10  5  1  0
 12 13  1  0
 14 22  1  0
 15 20  1  0
 16 17  1  0
 16 15  1  0
 18 17  1  0
 18 27  1  0
 18 19  1  0
 20 14  1  0
 20 19  1  0
 21 14  2  0
 22 13  1  0
 22 23  1  0
 24 25  2  0
 25 44  1  0
 26 25  1  0
 26 29  1  0
 27 24  1  0
 27 28  1  0
 28 26  2  0
 29 30  1  0
 30 31  2  0
 32 35  1  0
 32 31  1  0
 33 32  2  0
 34 33  1  0
 34 29  2  0
 35 36  1  0
 36 37  1  0
 37 38  2  0
 39 38  1  0
 39 43  1  0
 40 39  2  0
 41 36  2  0
 41 40  1  0
 42 41  1  0
 44 45  1  0
 45 48  1  0
 45 47  1  0
 46 44  2  0
 49 50  1  0
 49 24  1  0
 51 49  1  0
 53 52  1  0
 53 54  1  0
 55 66  2  0
 56 54  1  0
 56 61  1  0
 57 65  1  0
 57 67  1  0
 58 64  1  0
 58 60  1  0
 59 65  1  0
 60 59  1  0
 61 60  2  0
 62 63  1  0
 62 56  2  0
 63 58  2  0
 64 57  1  0
 65 55  1  0
 67 69  2  0
 68 67  1  0
 70 68  1  0
 71 80  2  0
 71 76  1  0
 72 68  1  0
 72 76  1  0
 73 72  1  0
 74 75  1  0
 74 73  1  0
 75 71  1  0
 76 77  2  0
 77 78  1  0
 79 78  2  0
 80 79  1  0
 81 55  1  0
 81 82  1  0
 81 91  1  0
 82 85  1  0
 83 87  1  0
 83 82  1  0
 84 83  2  0
 87 86  1  0
 89 87  1  0
 89 90  1  0
 89 88  1  0
 91 94  1  1
 91 92  1  0
 93 91  1  0
M  ISO  4  14 100  22 100  53 101  54 101
M  END
>  <TORSDO>  (38) 
F 21

>  <SCORE>  (38) 
-13.506

>  <name>  (38) 
40

>  <ligand_id>  (38) 
40

>  <original_smiles>  (38) 
[H]c1c([H])c([H])c2c(c1[H])C([H])([H])C([H])([H])C([H])([H])C2([H])N([H])C(=O)C1([H])N(C(=O)C([H])(N([H])C(=O)C([H])(N([H])C([H])([H])[H])C([H])([H])[H])C(C([H])([H])[H])(C([H])([H])[H])C([H])([H])[H])C([H])([H])c2c([H])c(OC([H])([H])C([H])([H])N([H])C(=O)C3([H])N(C(=O)C([H])([H])C([H])([H])N([H])C(=O)N4C([H])([H])C([H])([H])C([H])([H])C([H])(n5nc(-c6c([H])c([H])c(Oc7c([H])c([H])c(F)c([H])c7F)c([H])c6[H])c(C(=O)N([H])[H])c5N([H])[H])C4([H])[H])C([H])([H])C([H])([H])C3([H])[H])c([H])c([H])c2C1([H])[H]

>  <smiles>  (38) 
[H]c1c([H])c([H])c2c(c1[H])C([H])([H])C([H])([H])C([H])([H])C2([H])N([H])C(=O)C1([H])N(C(=O)C([H])(N([H])C(=O)C([H])(N([H])C([H])([H])[H])C([H])([H])[H])C(C([H])([H])[H])(C([H])([H])[H])C([H])([H])[H])C([H])([H])c2c([H])c(OC([H])([H])C([H])([H])N([H])C(=O)C3([H])N(C(=O)C([H])([H])C([H])([H])N([H])C(=O)N4C([H])([H])C([H])([H])C([H])([H])C([H])(n5nc(-c6c([H])c([H])c(Oc7c([H])c([H])c(F)c([H])c7F)c([H])c6[H])c(C(=O)N([H])[H])c5N([H])[H])C4([H])[H])C([H])([H])C([H])([H])C3([H])[H])c([H])c([H])c2C1([H])[H]

$$$$
41:0:0
     RDKit          3D

102110  0  0  1  0  0  0  0  0999 V2000
  -36.9000  -22.1890   22.0500 C   0  0  0  0  0  2  0  0  0  0  0  0
  -37.4760  -22.9130   20.8260 C   0  0  0  0  0  2  0  0  0  0  0  0
  -36.3900  -23.2720   19.8000 C   0  0  0  0  0  2  0  0  0  0  0  0
  -36.9380  -23.3170   18.3690 C   0  0  0  0  0  2  0  0  0  0  0  0
  -35.8870  -23.8010   17.3610 C   0  0  0  0  0  2  0  0  0  0  0  0
  -36.2440  -23.4140   15.9170 C   0  0  0  0  0  2  0  0  0  0  0  0
  -35.4130  -24.1120   14.9120 N   0  0  0  0  0  4  0  0  0  0  0  0
  -34.4540  -24.1440   15.2220 H   0  0  0  0  0  0  0  0  0  0  0  0
  -35.4230  -23.5430   14.0810 H   0  0  0  0  0  0  0  0  0  0  0  0
  -35.8810  -25.4770   14.5700 C   0  0  0  0  0  2  0  0  0  0  0  0
  -35.6280  -25.8230   13.1030 C   0  0  0  0  0  2  0  0  0  0  0  0
  -34.3460  -26.4310   12.9730 O   0  0  0  0  0  0  0  0  0  0  0  0
  -35.7030  -30.5000    7.2690 C   0  0  0  0  0  0  0  0  0  0  0  0
  -34.0320  -26.7910   11.6850 C   0  0  0  0  0  0  0  0  0  0  0  0
  -33.6040  -29.1900    7.1990 C   0  0  0  0  0  3  0  0  0  0  0  0
  -33.3370  -27.4350    9.0290 C   0  0  0  0  0  0  0  0  0  0  0  0
  -35.6100  -28.3760    8.5600 C   0  0  0  0  0  2  0  0  0  0  0  0
  -34.6220  -27.7240    9.5040 C   0  0  0  0  0  0  0  0  0  0  0  0
  -34.9750  -27.4060   10.8310 C   0  0  0  0  0  3  0  0  0  0  0  0
  -32.7350  -26.5310   11.2070 C   0  0  0  0  0  3  0  0  0  0  0  0
  -32.3850  -26.8420    9.8780 C   0  0  0  0  0  3  0  0  0  0  0  0
  -33.0490  -27.7940    7.5890 C   0  0  0  0  0  2  0  0  0  0  0  0
  -35.0040  -29.4090    7.6890 N   0  0  0  0  0  0  0  0  0  0  0  0
  -35.2180  -31.2950    6.4540 O   0  0  0  0  0  0  0  0  0  0  0  0
  -32.6120  -30.2670    7.6900 C   0  0  0  0  0  0  0  0  0  0  0  0
  -31.6130  -30.5820    6.8530 N   0  0  0  0  0  0  0  0  0  0  0  0
  -32.7350  -30.7780    8.8080 O   0  0  0  0  0  0  0  0  0  0  0  0
  -31.5890  -30.1240    5.9520 H   0  0  0  0  0  0  0  0  0  0  0  0
  -28.8650  -32.3610    5.3260 C   0  0  0  0  0  0  0  0  0  0  0  0
  -30.5390  -31.5390    7.1170 C   0  0  0  0  0  3  0  0  0  0  0  0
  -29.3290  -30.8490    7.7840 C   0  0  0  0  0  2  0  0  0  0  0  0
  -28.2720  -30.3800    6.7810 C   0  0  0  0  0  2  0  0  0  0  0  0
  -27.7430  -31.5610    5.9640 C   0  0  0  0  0  2  0  0  0  0  0  0
  -30.1820  -32.3400    5.8580 C   0  0  0  0  0  0  0  0  0  0  0  0
  -31.1980  -33.0730    5.2060 C   0  0  0  0  0  3  0  0  0  0  0  0
  -30.9150  -33.8220    4.0490 C   0  0  0  0  0  3  0  0  0  0  0  0
  -29.6070  -33.8520    3.5350 C   0  0  0  0  0  3  0  0  0  0  0  0
  -28.5870  -33.1250    4.1740 C   0  0  0  0  0  3  0  0  0  0  0  0
  -37.1540  -30.7870    7.7740 C   0  0  0  0  0  3  0  0  0  0  0  0
  -37.9850  -31.0590    6.5940 N   0  0  0  0  0  0  0  0  0  0  0  0
  -38.7520  -30.1480    5.9800 C   0  0  0  0  0  0  0  0  0  0  0  0
  -38.8850  -28.9930    6.3950 O   0  0  0  0  0  0  0  0  0  0  0  0
  -37.8770  -31.9640    6.1630 H   0  0  0  0  0  0  0  0  0  0  0  0
  -38.7010  -30.0990    3.4680 C   0  0  0  0  0  1  0  0  0  0  0  0
  -39.4830  -30.5890    4.6980 C   0  0  0  0  0  3  0  0  0  0  0  0
  -41.7600  -30.7450    5.6020 C   0  0  0  0  0  1  0  0  0  0  0  0
  -40.8800  -30.1090    4.6250 N   0  0  0  0  0  0  0  0  0  0  0  0
  -41.2690  -30.2650    3.6990 H   0  0  0  0  0  0  0  0  0  0  0  0
  -37.2300  -31.9830    8.7990 C   0  0  1  0  0  0  0  0  0  0  0  0
  -36.6130  -33.2970    8.2650 C   0  0  0  0  0  1  0  0  0  0  0  0
  -36.5060  -31.6160   10.1150 C   0  0  0  0  0  1  0  0  0  0  0  0
  -38.7050  -32.2630    9.1680 C   0  0  0  0  0  1  0  0  0  0  0  0
  -37.8770  -21.1680   22.6480 C   0  0  0  0  0  2  0  0  0  0  0  0
  -37.1390  -19.9750   23.2780 C   0  0  0  0  0  2  0  0  0  0  0  0
  -38.0410  -18.7830   23.6560 C   0  0  0  0  0  2  0  0  0  0  0  0
  -39.0200  -18.3240   22.5550 C   0  0  0  0  0  2  0  0  0  0  0  0
  -38.3250  -17.9950   21.2220 C   0  0  0  0  0  2  0  0  0  0  0  0
  -39.3000  -17.5080   20.1400 C   0  0  0  0  0  2  0  0  0  0  0  0
  -38.6850  -17.5800   18.7300 C   0  0  0  0  0  2  0  0  0  0  0  0
  -39.6180  -17.0830   17.6990 N   0  0  0  0  0  4  0  0  0  0  0  0
  -40.5540  -17.3540   17.9580 H   0  0  0  0  0  0  0  0  0  0  0  0
  -39.5820  -16.0760   17.7120 H   0  0  0  0  0  0  0  0  0  0  0  0
  -42.1610  -18.3620   15.0520 C   0  0  0  0  0  0  0  0  0  0  0  0
  -44.1480  -17.2790   14.1000 C   0  0  0  0  0  2  0  0  0  0  0  0
  -45.1610  -18.2490   13.4780 C   0  0  0  0  0  2  0  0  0  0  0  0
  -44.8020  -18.5220   12.0100 C   0  0  0  0  0  2  0  0  0  0  0  0
  -43.3220  -18.9480   11.8340 C   0  0  0  0  0  3  0  0  0  0  0  0
  -42.3650  -17.9830   12.5740 C   0  0  0  0  0  2  0  0  0  0  0  0
  -42.8000  -17.8460   13.9760 N   0  0  0  0  0  0  0  0  0  0  0  0
  -42.7280  -18.6780   16.1020 O   0  0  0  0  0  0  0  0  0  0  0  0
  -39.9410  -18.9280   15.9840 C   0  0  0  0  0  2  0  0  0  0  0  0
  -40.2090  -16.9400   15.2460 C   0  0  0  0  0  2  0  0  0  0  0  0
  -39.3400  -17.5690   16.3260 C   0  0  0  0  0  3  0  0  0  0  0  0
  -40.8170  -18.2590   15.0050 N   0  0  0  0  0  0  0  0  0  0  0  0
  -42.6790  -20.2170    9.6850 C   0  0  0  0  0  0  0  0  0  0  0  0
  -42.5080  -19.8000    8.3920 C   0  0  0  0  0  0  0  0  0  0  0  0
  -42.7280  -18.3870    8.4010 C   0  0  0  0  0  0  0  0  0  0  0  0
  -42.9780  -19.0780   10.4180 N   0  0  0  0  0  0  0  0  0  0  0  0
  -42.9580  -17.9660    9.6380 N   0  0  0  0  0  0  0  0  0  0  0  0
  -42.7900  -17.4230    7.2960 C   0  0  0  0  0  0  0  0  0  0  0  0
  -41.8930  -16.3340    7.2160 C   0  0  0  0  0  3  0  0  0  0  0  0
  -41.9610  -15.4290    6.1330 C   0  0  0  0  0  3  0  0  0  0  0  0
  -42.9270  -15.6120    5.1160 C   0  0  0  0  0  0  0  0  0  0  0  0
  -43.8310  -16.6840    5.2120 C   0  0  0  0  0  3  0  0  0  0  0  0
  -43.7660  -17.5800    6.2930 C   0  0  0  0  0  3  0  0  0  0  0  0
  -43.0830  -14.7690    4.0420 O   0  0  0  0  0  0  0  0  0  0  0  0
  -42.0200  -14.0970    3.4930 C   0  0  0  0  0  0  0  0  0  0  0  0
  -40.9520  -14.7760    2.8660 C   0  0  0  0  0  3  0  0  0  0  0  0
  -39.9150  -14.0440    2.2550 C   0  0  0  0  0  3  0  0  0  0  0  0
  -39.9470  -12.6360    2.2610 C   0  0  0  0  0  0  0  0  0  0  0  0
  -41.0110  -11.9590    2.8810 C   0  0  0  0  0  3  0  0  0  0  0  0
  -42.0460  -12.6880    3.4920 C   0  0  0  0  0  0  0  0  0  0  0  0
  -43.0800  -12.0300    4.0690 F   0  0  0  0  0  0  0  0  0  0  0  0
  -38.9530  -11.9330    1.6680 F   0  0  0  0  0  0  0  0  0  0  0  0
  -42.2440  -20.6710    7.1980 C   0  0  0  0  0  0  0  0  0  0  0  0
  -41.4550  -20.1820    6.2450 N   0  0  0  0  0  0  0  0  0  0  0  0
  -42.7000  -21.8110    7.1230 O   0  0  0  0  0  0  0  0  0  0  0  0
  -41.0630  -19.2570    6.3180 H   0  0  0  0  0  0  0  0  0  0  0  0
  -41.2390  -20.7460    5.4350 H   0  0  0  0  0  0  0  0  0  0  0  0
  -42.6230  -21.4670   10.2950 N   0  0  0  0  0  0  0  0  0  0  0  0
  -42.4560  -22.3210    9.7740 H   0  0  0  0  0  0  0  0  0  0  0  0
  -42.7970  -21.6300   11.2800 H   0  0  0  0  0  0  0  0  0  0  0  0
  1 53  1  0
  2  1  1  0
  3  2  1  0
  4  3  1  0
  5  4  1  0
  6  5  1  0
  7  8  1  0
  7  6  1  0
  9  7  1  0
 10  7  1  0
 11 10  1  0
 12 11  1  0
 13 23  1  0
 14 12  1  0
 15 22  1  0
 15 23  1  0
 15 25  1  0
 16 18  2  0
 16 21  1  0
 17 18  1  0
 18 19  1  0
 19 14  2  0
 20 14  1  0
 21 20  2  0
 22 16  1  0
 23 17  1  0
 24 13  2  0
 25 27  2  0
 26 25  1  0
 28 26  1  0
 29 34  1  0
 29 33  1  0
 30 26  1  0
 30 31  1  0
 32 31  1  0
 33 32  1  0
 34 30  1  0
 35 34  2  0
 36 35  1  0
 37 36  2  0
 37 38  1  0
 38 29  2  0
 39 13  1  0
 39 49  1  0
 40 39  1  0
 41 42  2  0
 41 40  1  0
 43 40  1  0
 45 44  1  0
 45 41  1  0
 47 45  1  0
 47 46  1  0
 48 47  1  0
 49 52  1  1
 49 51  1  0
 50 49  1  0
 53 54  1  0
 54 55  1  0
 56 55  1  0
 57 56  1  0
 58 57  1  0
 59 58  1  0
 60 62  1  0
 60 61  1  0
 60 59  1  0
 63 70  2  0
 65 64  1  0
 66 65  1  0
 67 78  1  0
 67 66  1  0
 67 68  1  0
 68 69  1  0
 69 64  1  0
 69 63  1  0
 71 73  1  0
 72 73  1  0
 73 60  1  0
 74 63  1  0
 74 72  1  0
 74 71  1  0
 75100  1  0
 75 78  1  0
 76 77  1  0
 76 75  2  0
 77 79  2  0
 79 78  1  0
 80 77  1  0
 81 80  1  0
 82 81  2  0
 83 84  2  0
 83 82  1  0
 84 85  1  0
 85 80  2  0
 86 83  1  0
 87 86  1  0
 88 87  2  0
 89 90  2  0
 89 88  1  0
 90 91  1  0
 91 92  2  0
 92 87  1  0
 92 93  1  0
 94 90  1  0
 95 76  1  0
 96 98  1  0
 96 95  1  0
 97 95  2  0
 99 96  1  0
100102  1  0
101100  1  0
M  ISO  4  11 101  12 101  63 100  74 100
M  END
>  <TORSDO>  (39) 
F 32

>  <SCORE>  (39) 
-1.666

>  <name>  (39) 
41

>  <ligand_id>  (39) 
41

>  <original_smiles>  (39) 
[H]c1c([H])c([H])c2c(c1[H])C([H])([H])C([H])([H])C([H])([H])C2([H])N([H])C(=O)C1([H])N(C(=O)C([H])(N([H])C(=O)C([H])(N([H])C([H])([H])[H])C([H])([H])[H])C(C([H])([H])[H])(C([H])([H])[H])C([H])([H])[H])C([H])([H])c2c([H])c(OC([H])([H])C([H])([H])[N+]([H])([H])C([H])([H])C([H])([H])C([H])([H])C([H])([H])C([H])([H])C([H])([H])C([H])([H])C([H])([H])C([H])([H])C([H])([H])C([H])([H])C([H])([H])C([H])([H])[N+]([H])([H])C3([H])C([H])([H])N(C(=O)N4C([H])([H])C([H])([H])C([H])([H])C([H])(n5nc(-c6c([H])c([H])c(Oc7c([H])c([H])c(F)c([H])c7F)c([H])c6[H])c(C(=O)N([H])[H])c5N([H])[H])C4([H])[H])C3([H])[H])c([H])c([H])c2C1([H])[H]

>  <smiles>  (39) 
[H]c1c([H])c([H])c2c(c1[H])C([H])([H])C([H])([H])C([H])([H])C2([H])N([H])C(=O)C1([H])N(C(=O)C([H])(N([H])C(=O)C([H])(N([H])C([H])([H])[H])C([H])([H])[H])C(C([H])([H])[H])(C([H])([H])[H])C([H])([H])[H])C([H])([H])c2c([H])c(OC([H])([H])C([H])([H])[N+]([H])([H])C([H])([H])C([H])([H])C([H])([H])C([H])([H])C([H])([H])C([H])([H])C([H])([H])C([H])([H])C([H])([H])C([H])([H])C([H])([H])C([H])([H])C([H])([H])[N+]([H])([H])C3([H])C([H])([H])N(C(=O)N4C([H])([H])C([H])([H])C([H])([H])C([H])(n5nc(-c6c([H])c([H])c(Oc7c([H])c([H])c(F)c([H])c7F)c([H])c6[H])c(C(=O)N([H])[H])c5N([H])[H])C4([H])[H])C3([H])[H])c([H])c([H])c2C1([H])[H]

$$$$
42:0:0
     RDKit          3D

111118  0  0  1  0  0  0  0  0999 V2000
  -23.2180  -14.6750   23.9130 N   0  0  0  0  0  4  0  0  0  0  0  0
  -23.2320  -15.6780   23.8120 H   0  0  0  0  0  0  0  0  0  0  0  0
  -22.9210  -14.4990   24.8600 H   0  0  0  0  0  0  0  0  0  0  0  0
  -22.2280  -14.0810   22.9800 C   0  0  0  0  0  2  0  0  0  0  0  0
  -22.7440  -13.9340   21.5310 C   0  0  0  0  0  2  0  0  0  0  0  0
  -24.2760  -14.0600   21.3780 C   0  0  0  0  0  2  0  0  0  0  0  0
  -24.9020  -13.4420   20.1140 C   0  0  0  0  0  2  0  0  0  0  0  0
  -26.3230  -14.0140   19.9100 C   0  0  0  0  0  2  0  0  0  0  0  0
  -26.9120  -13.8800   18.4920 C   0  0  0  0  0  2  0  0  0  0  0  0
  -29.3740  -13.5660   18.6120 C   0  0  0  0  0  0  0  0  0  0  0  0
  -28.1330  -13.0760   18.4780 N   0  0  0  0  0  0  0  0  0  0  0  0
  -29.5890  -14.7590   18.8320 O   0  0  0  0  0  0  0  0  0  0  0  0
  -28.0240  -12.0740   18.3690 H   0  0  0  0  0  0  0  0  0  0  0  0
  -30.5410  -12.5920   18.4490 C   0  0  0  0  0  2  0  0  0  0  0  0
  -31.8840  -13.1870   18.9240 C   0  0  0  0  0  2  0  0  0  0  0  0
  -33.0370  -12.1720   18.8380 C   0  0  0  0  0  2  0  0  0  0  0  0
  -34.0800  -12.3670   19.9580 C   0  0  0  0  0  2  0  0  0  0  0  0
  -34.9400  -11.1200   20.2230 C   0  0  0  0  0  2  0  0  0  0  0  0
  -35.8790  -11.2540   21.4480 C   0  0  0  0  0  2  0  0  0  0  0  0
  -35.4460  -10.4570   23.7630 C   0  0  0  0  0  0  0  0  0  0  0  0
  -34.4180   -8.4350   24.6890 C   0  0  0  0  0  2  0  0  0  0  0  0
  -33.8730   -7.6700   23.4620 C   0  0  0  0  0  2  0  0  0  0  0  0
  -32.4460   -8.1360   23.1070 C   0  0  0  0  0  2  0  0  0  0  0  0
  -32.3190   -9.6840   23.0440 C   0  0  0  0  0  3  0  0  0  0  0  0
  -32.9940  -10.3550   24.2690 C   0  0  0  0  0  2  0  0  0  0  0  0
  -34.3800   -9.8630   24.3530 N   0  0  0  0  0  0  0  0  0  0  0  0
  -36.6150  -10.1160   23.9560 O   0  0  0  0  0  0  0  0  0  0  0  0
  -35.1130  -11.2010   22.6980 N   0  0  0  0  0  0  0  0  0  0  0  0
  -34.1320  -11.4400   22.6400 H   0  0  0  0  0  0  0  0  0  0  0  0
  -30.4070  -11.3540   22.6350 C   0  0  0  0  0  0  0  0  0  0  0  0
  -29.0520  -11.1840   22.5350 C   0  0  0  0  0  0  0  0  0  0  0  0
  -28.8130   -9.8000   22.7760 C   0  0  0  0  0  0  0  0  0  0  0  0
  -30.9280  -10.0980   22.9100 N   0  0  0  0  0  0  0  0  0  0  0  0
  -29.9460   -9.1720   23.0590 N   0  0  0  0  0  0  0  0  0  0  0  0
  -27.5700   -9.0220   22.7050 C   0  0  0  0  0  0  0  0  0  0  0  0
  -26.9360   -8.5340   23.8710 C   0  0  0  0  0  3  0  0  0  0  0  0
  -25.7240   -7.8170   23.7800 C   0  0  0  0  0  3  0  0  0  0  0  0
  -25.1450   -7.5690   22.5130 C   0  0  0  0  0  0  0  0  0  0  0  0
  -25.7980   -8.0250   21.3560 C   0  0  0  0  0  3  0  0  0  0  0  0
  -26.9950   -8.7520   21.4480 C   0  0  0  0  0  3  0  0  0  0  0  0
  -23.9940   -6.8450   22.3260 O   0  0  0  0  0  0  0  0  0  0  0  0
  -22.8840   -7.0470   23.1050 C   0  0  0  0  0  0  0  0  0  0  0  0
  -22.1300   -8.2370   23.0350 C   0  0  0  0  0  3  0  0  0  0  0  0
  -20.9580   -8.3750   23.8080 C   0  0  0  0  0  3  0  0  0  0  0  0
  -20.5380   -7.3170   24.6370 C   0  0  0  0  0  0  0  0  0  0  0  0
  -21.2810   -6.1260   24.6950 C   0  0  0  0  0  3  0  0  0  0  0  0
  -22.4500   -5.9900   23.9300 C   0  0  0  0  0  0  0  0  0  0  0  0
  -23.1520   -4.8330   23.9710 F   0  0  0  0  0  0  0  0  0  0  0  0
  -19.4090   -7.4430   25.3720 F   0  0  0  0  0  0  0  0  0  0  0  0
  -28.0480  -12.2270   22.1580 C   0  0  0  0  0  0  0  0  0  0  0  0
  -26.7650  -11.8930   22.2560 N   0  0  0  0  0  0  0  0  0  0  0  0
  -28.4010  -13.3550   21.8270 O   0  0  0  0  0  0  0  0  0  0  0  0
  -26.4890  -10.9700   22.5600 H   0  0  0  0  0  0  0  0  0  0  0  0
  -26.0480  -12.5390   21.9640 H   0  0  0  0  0  0  0  0  0  0  0  0
  -31.2340  -12.4610   22.5110 N   0  0  0  0  0  0  0  0  0  0  0  0
  -30.9020  -13.3600   22.1870 H   0  0  0  0  0  0  0  0  0  0  0  0
  -32.2420  -12.3910   22.5130 H   0  0  0  0  0  0  0  0  0  0  0  0
  -24.6020  -14.1510   23.7810 C   0  0  0  0  0  2  0  0  0  0  0  0
  -25.5880  -15.2550   23.3920 C   0  0  0  0  0  0  0  0  0  0  0  0
  -26.0360  -15.2560   22.1280 N   0  0  0  0  0  0  0  0  0  0  0  0
  -25.9350  -16.0960   24.2260 O   0  0  0  0  0  0  0  0  0  0  0  0
  -25.7110  -14.5100   21.5240 H   0  0  0  0  0  0  0  0  0  0  0  0
  -26.9360  -16.2480   21.5340 C   0  0  0  0  0  2  0  0  0  0  0  0
  -26.3700  -16.8040   20.2100 C   0  0  0  0  0  2  0  0  0  0  0  0
  -27.3730  -17.7020   19.4660 C   0  0  0  0  0  2  0  0  0  0  0  0
  -26.7030  -18.7840   18.8170 O   0  0  0  0  0  0  0  0  0  0  0  0
  -27.4630  -19.9870   18.8680 C   0  0  0  0  0  2  0  0  0  0  0  0
  -26.7160  -21.1610   18.2210 C   0  0  0  0  0  2  0  0  0  0  0  0
  -27.2050  -22.4960   18.8080 C   0  0  0  0  0  2  0  0  0  0  0  0
  -26.9590  -23.7180   17.9090 C   0  0  0  0  0  2  0  0  0  0  0  0
  -27.3050  -24.9230   18.5940 O   0  0  0  0  0  0  0  0  0  0  0  0
  -24.4350  -28.4540   24.0420 C   0  0  0  0  0  0  0  0  0  0  0  0
  -26.3170  -25.8030   18.9850 C   0  0  0  0  0  0  0  0  0  0  0  0
  -23.1940  -28.5940   21.9100 C   0  0  0  0  0  3  0  0  0  0  0  0
  -24.4090  -27.7010   19.8610 C   0  0  0  0  0  0  0  0  0  0  0  0
  -25.7250  -28.2170   21.9260 C   0  0  0  0  0  2  0  0  0  0  0  0
  -25.5540  -27.4580   20.6250 C   0  0  0  0  0  0  0  0  0  0  0  0
  -26.5120  -26.5220   20.1850 C   0  0  0  0  0  3  0  0  0  0  0  0
  -25.1370  -26.0450   18.2350 C   0  0  0  0  0  3  0  0  0  0  0  0
  -24.1910  -26.9930   18.6700 C   0  0  0  0  0  3  0  0  0  0  0  0
  -23.4400  -28.7320   20.3870 C   0  0  0  0  0  2  0  0  0  0  0  0
  -24.4620  -28.3970   22.6820 N   0  0  0  0  0  0  0  0  0  0  0  0
  -23.3880  -28.7130   24.6500 O   0  0  0  0  0  0  0  0  0  0  0  0
  -22.1500  -27.4790   22.1430 C   0  0  0  0  0  0  0  0  0  0  0  0
  -20.8640  -27.8040   21.9230 N   0  0  0  0  0  0  0  0  0  0  0  0
  -22.5020  -26.3450   22.4760 O   0  0  0  0  0  0  0  0  0  0  0  0
  -20.6550  -28.7490   21.6360 H   0  0  0  0  0  0  0  0  0  0  0  0
  -17.2730  -27.6150   21.5800 C   0  0  0  0  0  0  0  0  0  0  0  0
  -19.7160  -26.9070   22.0490 C   0  0  0  0  0  3  0  0  0  0  0  0
  -19.5880  -25.9990   20.8030 C   0  0  0  0  0  2  0  0  0  0  0  0
  -18.6620  -26.5800   19.7320 C   0  0  0  0  0  2  0  0  0  0  0  0
  -17.2550  -26.7960   20.2970 C   0  0  0  0  0  2  0  0  0  0  0  0
  -18.4360  -27.6780   22.3920 C   0  0  0  0  0  0  0  0  0  0  0  0
  -18.4130  -28.4820   23.5530 C   0  0  0  0  0  3  0  0  0  0  0  0
  -17.2610  -29.2080   23.9060 C   0  0  0  0  0  3  0  0  0  0  0  0
  -16.1080  -29.1250   23.1070 C   0  0  0  0  0  3  0  0  0  0  0  0
  -16.1140  -28.3260   21.9490 C   0  0  0  0  0  3  0  0  0  0  0  0
  -25.7210  -28.2290   24.8980 C   0  0  0  0  0  3  0  0  0  0  0  0
  -25.8630  -26.7480   25.4160 C   0  0  1  0  0  0  0  0  0  0  0  0
  -24.5980  -26.2180   26.1320 C   0  0  0  0  0  1  0  0  0  0  0  0
  -26.1780  -25.7890   24.2470 C   0  0  0  0  0  1  0  0  0  0  0  0
  -27.0570  -26.6510   26.3950 C   0  0  0  0  0  1  0  0  0  0  0  0
  -25.6820  -29.1770   26.0170 N   0  0  0  0  0  0  0  0  0  0  0  0
  -26.4760  -30.2500   26.1300 C   0  0  0  0  0  0  0  0  0  0  0  0
  -27.3760  -30.5070   25.3260 O   0  0  0  0  0  0  0  0  0  0  0  0
  -24.9270  -29.0690   26.6790 H   0  0  0  0  0  0  0  0  0  0  0  0
  -25.6070  -32.5010   26.8280 C   0  0  0  0  0  1  0  0  0  0  0  0
  -26.2310  -31.1880   27.3270 C   0  0  0  0  0  3  0  0  0  0  0  0
  -27.9490  -30.3190   28.8470 C   0  0  0  0  0  1  0  0  0  0  0  0
  -27.4540  -31.4770   28.1080 N   0  0  0  0  0  0  0  0  0  0  0  0
  -27.2860  -32.2280   28.7740 H   0  0  0  0  0  0  0  0  0  0  0  0
  1  3  1  0
  2  1  1  0
  4  1  1  0
  5  4  1  0
  6  5  1  0
  7  6  1  0
  8  7  1  0
  9  8  1  0
 10 12  2  0
 11  9  1  0
 11 10  1  0
 13 11  1  0
 14 10  1  0
 14 15  1  0
 16 15  1  0
 16 17  1  0
 17 18  1  0
 18 19  1  0
 19 28  1  0
 20 27  2  0
 20 26  1  0
 22 21  1  0
 23 22  1  0
 24 33  1  0
 24 23  1  0
 24 25  1  0
 25 26  1  0
 26 21  1  0
 28 20  1  0
 29 28  1  0
 30 33  1  0
 31 30  2  0
 31 32  1  0
 32 34  2  0
 33 34  1  0
 35 32  1  0
 35 36  1  0
 37 36  2  0
 38 37  1  0
 39 40  1  0
 39 38  2  0
 40 35  2  0
 41 38  1  0
 41 42  1  0
 42 47  1  0
 43 42  2  0
 43 44  1  0
 44 45  2  0
 45 46  1  0
 45 49  1  0
 47 48  1  0
 47 46  2  0
 50 51  1  0
 50 31  1  0
 51 53  1  0
 52 50  2  0
 54 51  1  0
 55 57  1  0
 55 30  1  0
 56 55  1  0
 58  1  1  0
 59 58  1  0
 59 61  2  0
 60 59  1  0
 62 60  1  0
 63 60  1  0
 64 63  1  0
 65 64  1  0
 66 67  1  0
 66 65  1  0
 68 69  1  0
 68 67  1  0
 70 71  1  0
 70 69  1  0
 71 73  1  0
 72 83  2  0
 73 78  1  0
 74 84  1  0
 74 82  1  0
 75 81  1  0
 75 77  1  0
 76 82  1  0
 77 76  1  0
 78 77  2  0
 79 80  1  0
 79 73  2  0
 80 75  2  0
 81 74  1  0
 82 72  1  0
 84 86  2  0
 85 84  1  0
 87 85  1  0
 88 97  2  0
 88 93  1  0
 89 85  1  0
 89 93  1  0
 90 89  1  0
 91 92  1  0
 91 90  1  0
 92 88  1  0
 93 94  2  0
 94 95  1  0
 96 95  2  0
 97 96  1  0
 98 72  1  0
 98 99  1  0
 98103  1  0
 99100  1  1
 99102  1  0
101 99  1  0
103104  1  0
103106  1  0
104108  1  0
105104  2  0
108107  1  0
108110  1  0
110111  1  0
110109  1  0
M  ISO  4  20 100  28 100  70 101  71 101
M  END
>  <TORSDO>  (40) 
F 39

>  <SCORE>  (40) 
11.696

>  <name>  (40) 
42

>  <ligand_id>  (40) 
42

>  <original_smiles>  (40) 
[H]c1c([H])c([H])c2c(c1[H])C([H])([H])C([H])([H])C([H])([H])C2([H])N([H])C(=O)C1([H])N(C(=O)C([H])(N([H])C(=O)C([H])(N([H])C([H])([H])[H])C([H])([H])[H])C(C([H])([H])[H])(C([H])([H])[H])C([H])([H])[H])C([H])([H])c2c([H])c(OC([H])([H])C([H])([H])C([H])([H])C([H])([H])OC([H])([H])C([H])([H])C([H])([H])N([H])C(=O)C([H])([H])[N+]([H])([H])C([H])([H])C([H])([H])C([H])([H])C([H])([H])C([H])([H])C([H])([H])N([H])C(=O)C([H])([H])C([H])([H])C([H])([H])C([H])([H])C([H])([H])C([H])([H])N([H])C(=O)N3C([H])([H])C([H])([H])C([H])([H])C([H])(n4nc(-c5c([H])c([H])c(Oc6c([H])c([H])c(F)c([H])c6F)c([H])c5[H])c(C(=O)N([H])[H])c4N([H])[H])C3([H])[H])c([H])c([H])c2C1([H])[H]

>  <smiles>  (40) 
[H]c1c([H])c([H])c2c(c1[H])C([H])([H])C([H])([H])C([H])([H])C2([H])N([H])C(=O)C1([H])N(C(=O)C([H])(N([H])C(=O)C([H])(N([H])C([H])([H])[H])C([H])([H])[H])C(C([H])([H])[H])(C([H])([H])[H])C([H])([H])[H])C([H])([H])c2c([H])c(OC([H])([H])C([H])([H])C([H])([H])C([H])([H])OC([H])([H])C([H])([H])C([H])([H])N([H])C(=O)C([H])([H])[N+]([H])([H])C([H])([H])C([H])([H])C([H])([H])C([H])([H])C([H])([H])C([H])([H])N([H])C(=O)C([H])([H])C([H])([H])C([H])([H])C([H])([H])C([H])([H])C([H])([H])N([H])C(=O)N3C([H])([H])C([H])([H])C([H])([H])C([H])(n4nc(-c5c([H])c([H])c(Oc6c([H])c([H])c(F)c([H])c6F)c([H])c5[H])c(C(=O)N([H])[H])c4N([H])[H])C3([H])[H])c([H])c([H])c2C1([H])[H]

$$$$
43:0:0
     RDKit          3D

 97104  0  0  1  0  0  0  0  0999 V2000
  -28.4530  -20.7360   17.6680 N   0  0  0  0  0  4  0  0  0  0  0  0
  -29.1410  -20.2630   17.1020 H   0  0  0  0  0  0  0  0  0  0  0  0
  -28.1630  -21.5520   17.1430 H   0  0  0  0  0  0  0  0  0  0  0  0
  -29.1030  -21.3000   18.8690 C   0  0  0  0  0  2  0  0  0  0  0  0
  -29.3290  -22.7950   18.6670 C   0  0  0  0  0  0  0  0  0  0  0  0
  -29.6610  -23.5200   19.7400 N   0  0  0  0  0  0  0  0  0  0  0  0
  -29.1620  -23.2910   17.5510 O   0  0  0  0  0  0  0  0  0  0  0  0
  -29.7470  -23.0410   20.6280 H   0  0  0  0  0  0  0  0  0  0  0  0
  -29.7960  -24.9750   19.7830 C   0  0  0  0  0  2  0  0  0  0  0  0
  -28.4200  -25.6460   19.6840 C   0  0  0  0  0  2  0  0  0  0  0  0
  -28.4420  -26.9950   20.1530 O   0  0  0  0  0  0  0  0  0  0  0  0
  -24.5920  -32.0660   23.3440 C   0  0  0  0  0  0  0  0  0  0  0  0
  -27.2380  -27.6750   20.1800 C   0  0  0  0  0  0  0  0  0  0  0  0
  -23.3800  -30.6710   21.7020 C   0  0  0  0  0  3  0  0  0  0  0  0
  -24.8290  -29.1590   20.2520 C   0  0  0  0  0  0  0  0  0  0  0  0
  -25.9020  -31.0490   21.4820 C   0  0  0  0  0  2  0  0  0  0  0  0
  -25.9890  -29.6860   20.8280 C   0  0  0  0  0  0  0  0  0  0  0  0
  -27.1950  -28.9500   20.7900 C   0  0  0  0  0  3  0  0  0  0  0  0
  -26.0470  -27.1570   19.6130 C   0  0  0  0  0  3  0  0  0  0  0  0
  -24.8520  -27.8940   19.6470 C   0  0  0  0  0  3  0  0  0  0  0  0
  -23.5800  -30.0070   20.3160 C   0  0  0  0  0  2  0  0  0  0  0  0
  -24.6440  -31.2740   22.2350 N   0  0  0  0  0  0  0  0  0  0  0  0
  -23.5150  -32.3260   23.8960 O   0  0  0  0  0  0  0  0  0  0  0  0
  -22.7430  -29.6350   22.6580 C   0  0  0  0  0  0  0  0  0  0  0  0
  -21.4220  -29.4270   22.5230 N   0  0  0  0  0  0  0  0  0  0  0  0
  -23.4330  -29.0230   23.4770 O   0  0  0  0  0  0  0  0  0  0  0  0
  -20.9250  -29.9750   21.8370 H   0  0  0  0  0  0  0  0  0  0  0  0
  -18.0760  -28.1460   22.9790 C   0  0  0  0  0  0  0  0  0  0  0  0
  -20.6210  -28.4720   23.2880 C   0  0  0  0  0  3  0  0  0  0  0  0
  -20.7710  -27.0390   22.7260 C   0  0  0  0  0  2  0  0  0  0  0  0
  -19.6940  -26.6780   21.6980 C   0  0  0  0  0  2  0  0  0  0  0  0
  -18.2980  -26.7950   22.3190 C   0  0  0  0  0  2  0  0  0  0  0  0
  -19.1670  -28.9400   23.4190 C   0  0  0  0  0  0  0  0  0  0  0  0
  -18.9070  -30.2050   23.9920 C   0  0  0  0  0  3  0  0  0  0  0  0
  -17.5880  -30.6740   24.1310 C   0  0  0  0  0  3  0  0  0  0  0  0
  -16.5100  -29.8760   23.7090 C   0  0  0  0  0  3  0  0  0  0  0  0
  -16.7550  -28.6140   23.1380 C   0  0  0  0  0  3  0  0  0  0  0  0
  -25.8800  -32.7000   23.9560 C   0  0  0  0  0  3  0  0  0  0  0  0
  -25.5740  -34.1010   24.2760 N   0  0  0  0  0  0  0  0  0  0  0  0
  -25.9020  -35.1460   23.5060 C   0  0  0  0  0  0  0  0  0  0  0  0
  -26.5660  -35.0340   22.4720 O   0  0  0  0  0  0  0  0  0  0  0  0
  -24.9890  -34.2640   25.0840 H   0  0  0  0  0  0  0  0  0  0  0  0
  -24.1700  -36.9320   23.1430 C   0  0  0  0  0  1  0  0  0  0  0  0
  -25.4150  -36.5380   23.9540 C   0  0  0  0  0  3  0  0  0  0  0  0
  -27.5540  -37.4300   24.7640 C   0  0  0  0  0  1  0  0  0  0  0  0
  -26.4450  -37.5910   23.8270 N   0  0  0  0  0  0  0  0  0  0  0  0
  -26.0390  -38.5100   23.9740 H   0  0  0  0  0  0  0  0  0  0  0  0
  -26.4040  -31.9360   25.2330 C   0  0  1  0  0  0  0  0  0  0  0  0
  -25.3160  -31.7000   26.3060 C   0  0  0  0  0  1  0  0  0  0  0  0
  -26.9900  -30.5600   24.8400 C   0  0  0  0  0  1  0  0  0  0  0  0
  -27.5550  -32.7360   25.8870 C   0  0  0  0  0  1  0  0  0  0  0  0
  -27.2920  -19.8510   17.9250 C   0  0  0  0  0  2  0  0  0  0  0  0
  -27.0910  -18.8260   16.7950 C   0  0  0  0  0  2  0  0  0  0  0  0
  -28.2570  -18.0220   16.6010 O   0  0  0  0  0  0  0  0  0  0  0  0
  -28.4610  -16.9780   17.5570 C   0  0  0  0  0  2  0  0  0  0  0  0
  -29.3250  -17.4410   18.7490 C   0  0  0  0  0  2  0  0  0  0  0  0
  -28.5580  -17.3250   19.9460 O   0  0  0  0  0  0  0  0  0  0  0  0
  -29.1200  -17.9560   21.0940 C   0  0  0  0  0  2  0  0  0  0  0  0
  -30.4500  -17.3220   21.5370 C   0  0  0  0  0  2  0  0  0  0  0  0
  -31.0700  -14.9860   20.9450 C   0  0  0  0  0  0  0  0  0  0  0  0
  -30.8940  -12.9030   19.6400 C   0  0  0  0  0  2  0  0  0  0  0  0
  -30.0260  -13.1910   18.3980 C   0  0  0  0  0  2  0  0  0  0  0  0
  -28.5260  -13.0410   18.7200 C   0  0  0  0  0  2  0  0  0  0  0  0
  -28.1100  -13.8040   20.0070 C   0  0  0  0  0  3  0  0  0  0  0  0
  -29.0830  -13.4630   21.1570 C   0  0  0  0  0  2  0  0  0  0  0  0
  -30.4480  -13.8030   20.7100 N   0  0  0  0  0  0  0  0  0  0  0  0
  -32.1830  -15.2800   20.5050 O   0  0  0  0  0  0  0  0  0  0  0  0
  -30.2990  -15.8740   21.5790 N   0  0  0  0  0  0  0  0  0  0  0  0
  -29.4030  -15.5290   21.8940 H   0  0  0  0  0  0  0  0  0  0  0  0
  -25.6670  -14.4120   20.5470 C   0  0  0  0  0  0  0  0  0  0  0  0
  -24.5730  -13.6320   20.8210 C   0  0  0  0  0  0  0  0  0  0  0  0
  -25.0300  -12.2790   20.7780 C   0  0  0  0  0  0  0  0  0  0  0  0
  -26.7230  -13.5280   20.3710 N   0  0  0  0  0  0  0  0  0  0  0  0
  -26.3370  -12.2410   20.5580 N   0  0  0  0  0  0  0  0  0  0  0  0
  -24.2910  -11.0140   20.8840 C   0  0  0  0  0  0  0  0  0  0  0  0
  -24.6610  -10.0190   21.8160 C   0  0  0  0  0  3  0  0  0  0  0  0
  -23.9290   -8.8150   21.9050 C   0  0  0  0  0  3  0  0  0  0  0  0
  -22.8130   -8.5990   21.0610 C   0  0  0  0  0  0  0  0  0  0  0  0
  -22.4610   -9.5840   20.1220 C   0  0  0  0  0  3  0  0  0  0  0  0
  -23.1930  -10.7800   20.0290 C   0  0  0  0  0  3  0  0  0  0  0  0
  -22.0560   -7.4530   21.0620 O   0  0  0  0  0  0  0  0  0  0  0  0
  -21.9020   -6.6900   22.1930 C   0  0  0  0  0  0  0  0  0  0  0  0
  -21.3780   -7.2270   23.3900 C   0  0  0  0  0  3  0  0  0  0  0  0
  -21.1750   -6.3920   24.5070 C   0  0  0  0  0  3  0  0  0  0  0  0
  -21.4870   -5.0200   24.4260 C   0  0  0  0  0  0  0  0  0  0  0  0
  -22.0040   -4.4850   23.2340 C   0  0  0  0  0  3  0  0  0  0  0  0
  -22.2080   -5.3160   22.1200 C   0  0  0  0  0  0  0  0  0  0  0  0
  -22.6890   -4.7910   20.9680 F   0  0  0  0  0  0  0  0  0  0  0  0
  -21.2810   -4.2140   25.4940 F   0  0  0  0  0  0  0  0  0  0  0  0
  -23.1620  -14.1030   21.0200 C   0  0  0  0  0  0  0  0  0  0  0  0
  -22.3880  -13.3790   21.8200 N   0  0  0  0  0  0  0  0  0  0  0  0
  -22.7560  -15.1460   20.5070 O   0  0  0  0  0  0  0  0  0  0  0  0
  -22.7230  -12.5240   22.2380 H   0  0  0  0  0  0  0  0  0  0  0  0
  -21.4410  -13.6720   22.0050 H   0  0  0  0  0  0  0  0  0  0  0  0
  -25.8590  -15.7860   20.4250 N   0  0  0  0  0  0  0  0  0  0  0  0
  -25.1070  -16.4560   20.5230 H   0  0  0  0  0  0  0  0  0  0  0  0
  -26.7500  -16.2180   20.1960 H   0  0  0  0  0  0  0  0  0  0  0  0
  1 52  1  0
  1  4  1  0
  2  1  1  0
  3  1  1  0
  5  4  1  0
  5  6  1  0
  6  9  1  0
  6  8  1  0
  7  5  2  0
 10  9  1  0
 10 11  1  0
 11 13  1  0
 12 23  2  0
 13 18  1  0
 14 22  1  0
 14 24  1  0
 15 21  1  0
 15 17  1  0
 16 22  1  0
 17 16  1  0
 18 17  2  0
 19 20  1  0
 19 13  2  0
 20 15  2  0
 21 14  1  0
 22 12  1  0
 24 26  2  0
 25 24  1  0
 27 25  1  0
 28 37  2  0
 28 33  1  0
 29 25  1  0
 29 33  1  0
 30 29  1  0
 31 32  1  0
 31 30  1  0
 32 28  1  0
 33 34  2  0
 34 35  1  0
 36 35  2  0
 37 36  1  0
 38 12  1  0
 38 39  1  0
 38 48  1  0
 39 42  1  0
 40 44  1  0
 40 39  1  0
 41 40  2  0
 44 43  1  0
 46 44  1  0
 46 47  1  0
 46 45  1  0
 48 51  1  1
 48 49  1  0
 50 48  1  0
 53 52  1  0
 54 53  1  0
 54 55  1  0
 55 56  1  0
 56 57  1  0
 57 58  1  0
 58 59  1  0
 59 68  1  0
 60 68  1  0
 61 66  1  0
 62 63  1  0
 62 61  1  0
 64 63  1  0
 64 73  1  0
 64 65  1  0
 66 60  1  0
 66 65  1  0
 67 60  2  0
 68 69  1  0
 70 71  2  0
 71 90  1  0
 72 71  1  0
 72 75  1  0
 73 70  1  0
 73 74  1  0
 74 72  2  0
 75 76  1  0
 76 77  2  0
 78 81  1  0
 78 77  1  0
 79 78  2  0
 80 79  1  0
 80 75  2  0
 81 82  1  0
 82 83  1  0
 83 84  2  0
 85 84  1  0
 85 89  1  0
 86 85  2  0
 87 82  2  0
 87 86  1  0
 88 87  1  0
 90 91  1  0
 91 94  1  0
 91 93  1  0
 92 90  2  0
 95 96  1  0
 95 70  1  0
 97 95  1  0
M  ISO  4  10 101  11 101  60 100  68 100
M  END
>  <TORSDO>  (41) 
F 28

>  <SCORE>  (41) 
-9.091

>  <name>  (41) 
43

>  <ligand_id>  (41) 
43

>  <original_smiles>  (41) 
[H]c1c([H])c([H])c2c(c1[H])C([H])([H])C([H])([H])C([H])([H])C2([H])N([H])C(=O)C1([H])N(C(=O)C([H])(N([H])C(=O)C([H])(N([H])C([H])([H])[H])C([H])([H])[H])C(C([H])([H])[H])(C([H])([H])[H])C([H])([H])[H])C([H])([H])c2c([H])c(OC([H])([H])C([H])([H])N([H])C(=O)C([H])([H])[N+]([H])([H])C([H])([H])C([H])([H])OC([H])([H])C([H])([H])OC([H])([H])C([H])([H])N([H])C(=O)N3C([H])([H])C([H])([H])C([H])([H])C([H])(n4nc(-c5c([H])c([H])c(Oc6c([H])c([H])c(F)c([H])c6F)c([H])c5[H])c(C(=O)N([H])[H])c4N([H])[H])C3([H])[H])c([H])c([H])c2C1([H])[H]

>  <smiles>  (41) 
[H]c1c([H])c([H])c2c(c1[H])C([H])([H])C([H])([H])C([H])([H])C2([H])N([H])C(=O)C1([H])N(C(=O)C([H])(N([H])C(=O)C([H])(N([H])C([H])([H])[H])C([H])([H])[H])C(C([H])([H])[H])(C([H])([H])[H])C([H])([H])[H])C([H])([H])c2c([H])c(OC([H])([H])C([H])([H])N([H])C(=O)C([H])([H])[N+]([H])([H])C([H])([H])C([H])([H])OC([H])([H])C([H])([H])OC([H])([H])C([H])([H])N([H])C(=O)N3C([H])([H])C([H])([H])C([H])([H])C([H])(n4nc(-c5c([H])c([H])c(Oc6c([H])c([H])c(F)c([H])c6F)c([H])c5[H])c(C(=O)N([H])[H])c4N([H])[H])C3([H])[H])c([H])c([H])c2C1([H])[H]

$$$$
44:0:0
     RDKit          3D

 96103  0  0  1  0  0  0  0  0999 V2000
  -24.8000  -23.2390   24.6660 C   0  0  0  0  0  2  0  0  0  0  0  0
  -26.0440  -22.7040   24.2420 O   0  0  0  0  0  0  0  0  0  0  0  0
  -26.3810  -21.4580   24.8410 C   0  0  0  0  0  2  0  0  0  0  0  0
  -27.5620  -20.8620   24.0670 C   0  0  0  0  0  0  0  0  0  0  0  0
  -27.3010  -19.8280   23.2530 N   0  0  0  0  0  0  0  0  0  0  0  0
  -28.6810  -21.3720   24.1590 O   0  0  0  0  0  0  0  0  0  0  0  0
  -26.3530  -19.4730   23.2510 H   0  0  0  0  0  0  0  0  0  0  0  0
  -28.2160  -19.3030   22.2410 C   0  0  0  0  0  2  0  0  0  0  0  0
  -28.9730  -18.0400   22.6970 C   0  0  0  0  0  2  0  0  0  0  0  0
  -30.1350  -17.7200   21.7380 C   0  0  0  0  0  2  0  0  0  0  0  0
  -30.9280  -16.4470   22.0850 C   0  0  0  0  0  2  0  0  0  0  0  0
  -30.7620  -14.3900   20.6740 C   0  0  0  0  0  0  0  0  0  0  0  0
  -30.4180  -12.3050   19.4050 C   0  0  0  0  0  2  0  0  0  0  0  0
  -29.4880  -12.5180   18.1950 C   0  0  0  0  0  2  0  0  0  0  0  0
  -28.0130  -12.3670   18.6130 C   0  0  0  0  0  2  0  0  0  0  0  0
  -27.6630  -13.2040   19.8730 C   0  0  0  0  0  3  0  0  0  0  0  0
  -28.6990  -12.9690   20.9950 C   0  0  0  0  0  2  0  0  0  0  0  0
  -30.0400  -13.2610   20.4570 N   0  0  0  0  0  0  0  0  0  0  0  0
  -31.8100  -14.6440   20.0700 O   0  0  0  0  0  0  0  0  0  0  0  0
  -30.2740  -15.2240   21.6070 N   0  0  0  0  0  0  0  0  0  0  0  0
  -29.4050  -14.9590   22.0470 H   0  0  0  0  0  0  0  0  0  0  0  0
  -25.2600  -13.8160   20.5680 C   0  0  0  0  0  0  0  0  0  0  0  0
  -24.1850  -13.0440   20.9190 C   0  0  0  0  0  0  0  0  0  0  0  0
  -24.6390  -11.6910   20.8720 C   0  0  0  0  0  0  0  0  0  0  0  0
  -26.3010  -12.9320   20.3330 N   0  0  0  0  0  0  0  0  0  0  0  0
  -25.9310  -11.6490   20.5730 N   0  0  0  0  0  0  0  0  0  0  0  0
  -23.9050  -10.4300   21.0380 C   0  0  0  0  0  0  0  0  0  0  0  0
  -24.3600   -9.4210   21.9160 C   0  0  0  0  0  3  0  0  0  0  0  0
  -23.6290   -8.2240   22.0730 C   0  0  0  0  0  3  0  0  0  0  0  0
  -22.4270   -8.0270   21.3530 C   0  0  0  0  0  0  0  0  0  0  0  0
  -21.9910   -9.0240   20.4620 C   0  0  0  0  0  3  0  0  0  0  0  0
  -22.7220  -10.2120   20.3030 C   0  0  0  0  0  3  0  0  0  0  0  0
  -21.6630   -6.8870   21.4230 O   0  0  0  0  0  0  0  0  0  0  0  0
  -21.6850   -6.0740   22.5290 C   0  0  0  0  0  0  0  0  0  0  0  0
  -21.4010   -6.5640   23.8210 C   0  0  0  0  0  3  0  0  0  0  0  0
  -21.3670   -5.6780   24.9180 C   0  0  0  0  0  3  0  0  0  0  0  0
  -21.6050   -4.3050   24.7220 C   0  0  0  0  0  0  0  0  0  0  0  0
  -21.8820   -3.8150   23.4340 C   0  0  0  0  0  3  0  0  0  0  0  0
  -21.9190   -4.6970   22.3400 C   0  0  0  0  0  0  0  0  0  0  0  0
  -22.1660   -4.2160   21.0980 F   0  0  0  0  0  0  0  0  0  0  0  0
  -21.5630   -3.4530   25.7730 F   0  0  0  0  0  0  0  0  0  0  0  0
  -22.7870  -13.5230   21.1870 C   0  0  0  0  0  0  0  0  0  0  0  0
  -22.0490  -12.8220   22.0410 N   0  0  0  0  0  0  0  0  0  0  0  0
  -22.3570  -14.5540   20.6710 O   0  0  0  0  0  0  0  0  0  0  0  0
  -22.4090  -11.9900   22.4830 H   0  0  0  0  0  0  0  0  0  0  0  0
  -21.1090  -13.1230   22.2560 H   0  0  0  0  0  0  0  0  0  0  0  0
  -25.4360  -15.1880   20.4140 N   0  0  0  0  0  0  0  0  0  0  0  0
  -24.6750  -15.8480   20.5310 H   0  0  0  0  0  0  0  0  0  0  0  0
  -26.3000  -15.6260   20.1160 H   0  0  0  0  0  0  0  0  0  0  0  0
  -24.5380  -24.5850   23.9680 C   0  0  0  0  0  2  0  0  0  0  0  0
  -24.3260  -24.4980   22.4420 C   0  0  0  0  0  2  0  0  0  0  0  0
  -25.5940  -24.1650   21.6420 C   0  0  0  0  0  2  0  0  0  0  0  0
  -26.5700  -25.1550   21.9180 O   0  0  0  0  0  0  0  0  0  0  0  0
  -27.8590  -24.8170   21.4320 C   0  0  0  0  0  2  0  0  0  0  0  0
  -28.6960  -26.0970   21.2840 C   0  0  0  0  0  2  0  0  0  0  0  0
  -28.3940  -26.7500   20.0520 O   0  0  0  0  0  0  0  0  0  0  0  0
  -24.6080  -31.8700   23.2130 C   0  0  0  0  0  0  0  0  0  0  0  0
  -27.2380  -27.4840   20.0810 C   0  0  0  0  0  0  0  0  0  0  0  0
  -23.3950  -30.4920   21.5530 C   0  0  0  0  0  3  0  0  0  0  0  0
  -24.8440  -28.9670   20.1110 C   0  0  0  0  0  0  0  0  0  0  0  0
  -25.9190  -30.8480   21.3630 C   0  0  0  0  0  2  0  0  0  0  0  0
  -25.9970  -29.4860   20.7140 C   0  0  0  0  0  0  0  0  0  0  0  0
  -27.1980  -28.7460   20.7080 C   0  0  0  0  0  3  0  0  0  0  0  0
  -26.0790  -26.9760   19.4600 C   0  0  0  0  0  3  0  0  0  0  0  0
  -24.8760  -27.7070   19.4860 C   0  0  0  0  0  3  0  0  0  0  0  0
  -23.6020  -29.8260   20.1660 C   0  0  0  0  0  2  0  0  0  0  0  0
  -24.6590  -31.0840   22.1030 N   0  0  0  0  0  0  0  0  0  0  0  0
  -23.5280  -32.1440   23.7550 O   0  0  0  0  0  0  0  0  0  0  0  0
  -22.7380  -29.4650   22.5020 C   0  0  0  0  0  0  0  0  0  0  0  0
  -21.4110  -29.3000   22.3750 N   0  0  0  0  0  0  0  0  0  0  0  0
  -23.4160  -28.8200   23.3050 O   0  0  0  0  0  0  0  0  0  0  0  0
  -20.9240  -29.8760   21.7020 H   0  0  0  0  0  0  0  0  0  0  0  0
  -18.0270  -28.1340   22.8530 C   0  0  0  0  0  0  0  0  0  0  0  0
  -20.5850  -28.3630   23.1340 C   0  0  0  0  0  3  0  0  0  0  0  0
  -20.6770  -26.9360   22.5450 C   0  0  0  0  0  2  0  0  0  0  0  0
  -19.5740  -26.6320   21.5260 C   0  0  0  0  0  2  0  0  0  0  0  0
  -18.1920  -26.7870   22.1680 C   0  0  0  0  0  2  0  0  0  0  0  0
  -19.1520  -28.8810   23.2930 C   0  0  0  0  0  0  0  0  0  0  0  0
  -18.9450  -30.1440   23.8900 C   0  0  0  0  0  3  0  0  0  0  0  0
  -17.6450  -30.6570   24.0550 C   0  0  0  0  0  3  0  0  0  0  0  0
  -16.5340  -29.9070   23.6320 C   0  0  0  0  0  3  0  0  0  0  0  0
  -16.7260  -28.6480   23.0350 C   0  0  0  0  0  3  0  0  0  0  0  0
  -25.8990  -32.4840   23.8410 C   0  0  0  0  0  3  0  0  0  0  0  0
  -25.5880  -33.8640   24.2340 N   0  0  0  0  0  0  0  0  0  0  0  0
  -25.9030  -34.9490   23.5130 C   0  0  0  0  0  0  0  0  0  0  0  0
  -26.5590  -34.8930   22.4690 O   0  0  0  0  0  0  0  0  0  0  0  0
  -25.0030  -33.9830   25.0480 H   0  0  0  0  0  0  0  0  0  0  0  0
  -24.1480  -36.7330   23.2630 C   0  0  0  0  0  1  0  0  0  0  0  0
  -25.4110  -36.3130   24.0330 C   0  0  0  0  0  3  0  0  0  0  0  0
  -27.5580  -37.1820   24.8470 C   0  0  0  0  0  1  0  0  0  0  0  0
  -26.4300  -37.3800   23.9410 N   0  0  0  0  0  0  0  0  0  0  0  0
  -26.0190  -38.2890   24.1400 H   0  0  0  0  0  0  0  0  0  0  0  0
  -26.4430  -31.6600   25.0720 C   0  0  1  0  0  0  0  0  0  0  0  0
  -25.3720  -31.3710   26.1480 C   0  0  0  0  0  1  0  0  0  0  0  0
  -27.0240  -30.3050   24.6050 C   0  0  0  0  0  1  0  0  0  0  0  0
  -27.6020  -32.4310   25.7470 C   0  0  0  0  0  1  0  0  0  0  0  0
  2  1  1  0
  2  3  1  0
  4  6  2  0
  4  3  1  0
  5  4  1  0
  7  5  1  0
  8  9  1  0
  8  5  1  0
 10 11  1  0
 10  9  1  0
 12 20  1  0
 13 18  1  0
 14 15  1  0
 14 13  1  0
 16 15  1  0
 16 25  1  0
 16 17  1  0
 18 12  1  0
 18 17  1  0
 19 12  2  0
 20 21  1  0
 20 11  1  0
 22 23  2  0
 23 42  1  0
 24 23  1  0
 24 27  1  0
 25 22  1  0
 25 26  1  0
 26 24  2  0
 27 28  1  0
 28 29  2  0
 30 33  1  0
 30 29  1  0
 31 30  2  0
 32 31  1  0
 32 27  2  0
 33 34  1  0
 34 35  1  0
 35 36  2  0
 37 36  1  0
 37 41  1  0
 38 37  2  0
 39 34  2  0
 39 38  1  0
 40 39  1  0
 42 43  1  0
 43 46  1  0
 43 45  1  0
 44 42  2  0
 47 48  1  0
 47 22  1  0
 49 47  1  0
 50  1  1  0
 51 50  1  0
 52 53  1  0
 52 51  1  0
 54 53  1  0
 55 54  1  0
 56 58  1  0
 56 55  1  0
 57 68  2  0
 58 63  1  0
 59 67  1  0
 59 69  1  0
 60 66  1  0
 60 62  1  0
 61 67  1  0
 62 61  1  0
 63 62  2  0
 64 65  1  0
 64 58  2  0
 65 60  2  0
 66 59  1  0
 67 57  1  0
 69 71  2  0
 70 69  1  0
 72 70  1  0
 73 82  2  0
 73 78  1  0
 74 70  1  0
 74 78  1  0
 75 74  1  0
 76 77  1  0
 76 75  1  0
 77 73  1  0
 78 79  2  0
 79 80  1  0
 81 80  2  0
 82 81  1  0
 83 57  1  0
 83 84  1  0
 83 93  1  0
 84 87  1  0
 85 89  1  0
 85 84  1  0
 86 85  2  0
 89 88  1  0
 91 89  1  0
 91 92  1  0
 91 90  1  0
 93 96  1  1
 93 94  1  0
 95 93  1  0
M  ISO  4  12 100  20 100  55 101  56 101
M  END
>  <TORSDO>  (42) 
F 29

>  <SCORE>  (42) 
25.031

>  <name>  (42) 
44

>  <ligand_id>  (42) 
44

>  <original_smiles>  (42) 
[H]c1c([H])c([H])c2c(c1[H])C([H])([H])C([H])([H])C([H])([H])C2([H])N([H])C(=O)C1([H])N(C(=O)C([H])(N([H])C(=O)C([H])(N([H])C([H])([H])[H])C([H])([H])[H])C(C([H])([H])[H])(C([H])([H])[H])C([H])([H])[H])C([H])([H])c2c([H])c(OC([H])([H])C([H])([H])OC([H])([H])C([H])([H])C([H])([H])C([H])([H])OC([H])([H])C(=O)N([H])C([H])([H])C([H])([H])C([H])([H])C([H])([H])N([H])C(=O)N3C([H])([H])C([H])([H])C([H])([H])C([H])(n4nc(-c5c([H])c([H])c(Oc6c([H])c([H])c(F)c([H])c6F)c([H])c5[H])c(C(=O)N([H])[H])c4N([H])[H])C3([H])[H])c([H])c([H])c2C1([H])[H]

>  <smiles>  (42) 
[H]c1c([H])c([H])c2c(c1[H])C([H])([H])C([H])([H])C([H])([H])C2([H])N([H])C(=O)C1([H])N(C(=O)C([H])(N([H])C(=O)C([H])(N([H])C([H])([H])[H])C([H])([H])[H])C(C([H])([H])[H])(C([H])([H])[H])C([H])([H])[H])C([H])([H])c2c([H])c(OC([H])([H])C([H])([H])OC([H])([H])C([H])([H])C([H])([H])C([H])([H])OC([H])([H])C(=O)N([H])C([H])([H])C([H])([H])C([H])([H])C([H])([H])N([H])C(=O)N3C([H])([H])C([H])([H])C([H])([H])C([H])(n4nc(-c5c([H])c([H])c(Oc6c([H])c([H])c(F)c([H])c6F)c([H])c5[H])c(C(=O)N([H])[H])c4N([H])[H])C3([H])[H])c([H])c([H])c2C1([H])[H]

$$$$
45:0:0
     RDKit          3D

113114  0  0  1  0  0  0  0  0999 V2000
  -19.5260  -15.5730   19.2430 C   0  0  0  0  0  2  0  0  0  0  0  0
  -19.7690  -14.1290   18.7940 C   0  0  0  0  0  2  0  0  0  0  0  0
  -21.0890  -13.9690   18.0140 C   0  0  0  0  0  2  0  0  0  0  0  0
  -21.5790  -12.5180   17.8620 C   0  0  0  0  0  2  0  0  0  0  0  0
  -25.4660   -7.8560   20.4120 C   0  0  0  0  0  0  0  0  0  0  0  0
  -24.8650   -9.6760   18.7730 C   0  0  0  0  0  3  0  0  0  0  0  0
  -21.8900   -9.9740   21.4530 C   0  0  0  0  0  1  0  0  0  0  0  0
  -23.9310  -11.3140   18.2720 C   0  0  0  0  0  3  0  0  0  0  0  0
  -21.4380  -11.4950   20.3280 C   0  0  0  0  0  2  0  0  0  0  0  0
  -24.3610   -8.6640   20.1680 N   0  0  0  0  0  2  0  0  0  0  0  0
  -22.4630  -12.0540   18.9830 N   0  0  2  0  0  4  0  0  0  0  0  0
  -25.8080   -7.0510   19.5380 O   0  0  0  0  0  0  0  0  0  0  0  0
  -22.8260  -12.9280   19.3400 H   0  0  0  0  0  0  0  0  0  0  0  0
  -26.4330   -7.9860   21.6410 C   0  0  0  0  0  2  0  0  0  0  0  0
  -27.4590   -8.9970   21.4840 O   0  0  0  0  0  0  0  0  0  0  0  0
  -28.4890   -8.8970   22.4970 C   0  0  0  0  0  2  0  0  0  0  0  0
  -29.6660   -9.9140   22.4190 C   0  0  0  0  0  2  0  0  0  0  0  0
  -29.3910  -11.0880   23.2000 O   0  0  0  0  0  0  0  0  0  0  0  0
  -30.4920  -11.8590   23.7190 C   0  0  0  0  0  2  0  0  0  0  0  0
  -31.4080  -12.6730   22.7580 C   0  0  0  0  0  2  0  0  0  0  0  0
  -30.9300  -13.9380   22.2470 O   0  0  0  0  0  0  0  0  0  0  0  0
  -30.9170  -14.1030   20.8960 C   0  0  0  0  0  0  0  0  0  0  0  0
  -30.4140  -12.3310   19.2600 C   0  0  0  0  0  2  0  0  0  0  0  0
  -29.4500  -12.5790   18.1010 C   0  0  0  0  0  2  0  0  0  0  0  0
  -27.9970  -12.3970   18.5770 C   0  0  0  0  0  2  0  0  0  0  0  0
  -27.6820  -13.2570   19.8290 C   0  0  0  0  0  3  0  0  0  0  0  0
  -28.6970  -12.9790   20.9300 C   0  0  0  0  0  2  0  0  0  0  0  0
  -30.0290  -13.1910   20.3690 N   0  0  0  0  0  0  0  0  0  0  0  0
  -31.7790  -14.7270   20.2660 O   0  0  0  0  0  0  0  0  0  0  0  0
  -25.3430  -13.9580   20.6100 C   0  0  0  0  0  3  0  0  0  0  0  0
  -24.2740  -13.2390   21.0340 C   0  0  0  0  0  0  0  0  0  0  0  0
  -24.6430  -11.9030   20.8200 C   0  0  0  0  0  0  0  0  0  0  0  0
  -26.3390  -13.0400   20.3280 N   0  0  0  0  0  0  0  0  0  0  0  0
  -25.9300  -11.7820   20.5670 N   0  0  0  0  0  2  0  0  0  0  0  0
  -23.8200  -10.7200   20.7480 C   0  0  0  0  0  2  0  0  0  0  0  0
  -24.1330   -9.8660   22.1640 C   0  0  0  0  0  3  0  0  0  0  0  0
  -23.4370   -8.3920   22.3830 C   0  0  0  0  0  3  0  0  0  0  0  0
  -22.4590   -7.6710   21.2940 C   0  0  0  0  0  0  0  0  0  0  0  0
  -22.0400   -8.2330   19.8690 C   0  0  0  0  0  3  0  0  0  0  0  0
  -22.5650   -9.6590   19.3890 C   0  0  0  0  0  1  0  0  0  0  0  0
  -21.5860   -6.6890   21.5200 O   0  0  0  0  0  0  0  0  0  0  0  0
  -21.6670   -5.9580   22.6220 C   0  0  0  0  0  0  0  0  0  0  0  0
  -21.3660   -6.4880   23.8870 C   0  0  0  0  0  3  0  0  0  0  0  0
  -21.3620   -5.6200   24.9870 C   0  0  0  0  0  3  0  0  0  0  0  0
  -21.6220   -4.2470   24.7880 C   0  0  0  0  0  0  0  0  0  0  0  0
  -21.9050   -3.7370   23.5080 C   0  0  0  0  0  3  0  0  0  0  0  0
  -21.9330   -4.6040   22.4150 C   0  0  0  0  0  0  0  0  0  0  0  0
  -22.1740   -4.1520   21.1590 F   0  0  0  0  0  0  0  0  0  0  0  0
  -21.5830   -3.4020   25.8380 F   0  0  0  0  0  0  0  0  0  0  0  0
  -22.9380  -13.7550   21.4370 C   0  0  0  0  0  0  0  0  0  0  0  0
  -22.3390  -13.1340   22.4450 N   0  0  0  0  0  0  0  0  0  0  0  0
  -22.3990  -14.6460   20.7970 O   0  0  0  0  0  0  0  0  0  0  0  0
  -22.8360  -12.4530   23.0020 H   0  0  0  0  0  0  0  0  0  0  0  0
  -21.4570  -13.4840   22.7890 H   0  0  0  0  0  0  0  0  0  0  0  0
  -25.5240  -15.3130   20.4220 N   0  0  0  0  0  0  0  0  0  0  0  0
  -24.7920  -15.9860   20.6130 H   0  0  0  0  0  0  0  0  0  0  0  0
  -26.3560  -15.7300   20.0210 H   0  0  0  0  0  0  0  0  0  0  0  0
  -18.7990  -15.6920   20.5930 C   0  0  0  0  0  2  0  0  0  0  0  0
  -18.6920  -17.1690   20.9670 C   0  0  0  0  0  2  0  0  0  0  0  0
  -18.1220  -17.4810   22.3550 C   0  0  0  0  0  2  0  0  0  0  0  0
  -17.9340  -18.9980   22.4340 C   0  0  0  0  0  2  0  0  0  0  0  0
  -17.5190  -19.5980   23.7820 C   0  0  0  0  0  2  0  0  0  0  0  0
  -17.1780  -21.0750   23.5370 C   0  0  0  0  0  2  0  0  0  0  0  0
  -17.0530  -21.9740   24.7730 C   0  0  0  0  0  2  0  0  0  0  0  0
  -16.8060  -23.4250   24.3190 C   0  0  0  0  0  2  0  0  0  0  0  0
  -17.4070  -24.5050   25.2320 C   0  0  0  0  0  2  0  0  0  0  0  0
  -17.5080  -25.8540   24.5030 C   0  0  0  0  0  2  0  0  0  0  0  0
  -19.7670  -26.6030   23.5620 C   0  0  0  0  0  2  0  0  0  0  0  0
  -18.5960  -25.8720   23.5080 N   0  0  0  0  0  0  0  0  0  0  0  0
  -19.9790  -26.7390   24.7970 O   0  0  0  0  0  1  0  0  0  0  0  0
  -18.3340  -25.5700   22.5810 H   0  0  0  0  0  0  0  0  0  0  0  0
  -21.5450  -27.5310   21.4500 C   0  0  0  0  0 15  0  0  0  0  0  0
  -23.6080  -27.0460   21.2500 O   0  0  0  0  0  1  0  0  0  0  0  0
  -24.6890  -31.9690   23.2080 C   0  0  0  0  0  0  0  0  0  0  0  0
  -25.1250  -27.2760   20.8540 C   0  0  0  0  0  3  0  0  0  0  0  0
  -23.5050  -30.6510   21.5470 C   0  0  0  0  0  3  0  0  0  0  0  0
  -24.8500  -29.3950   19.7000 C   0  0  0  0  0  3  0  0  0  0  0  0
  -25.9980  -30.8480   21.3870 C   0  0  0  0  0  2  0  0  0  0  0  0
  -25.8500  -29.5200   20.6670 C   0  0  0  0  0  3  0  0  0  0  0  0
  -26.0950  -28.2870   21.2820 C   0  0  0  0  0  2  0  0  0  0  0  0
  -25.3770  -27.0410   19.5070 C   0  0  0  0  0  2  0  0  0  0  0  0
  -24.7720  -28.1750   18.9620 C   0  0  0  0  0  2  0  0  0  0  0  0
  -23.6030  -30.1630   20.0440 C   0  0  0  0  0  2  0  0  0  0  0  0
  -24.7490  -31.2390   22.0610 N   0  0  0  0  0  0  0  0  0  0  0  0
  -23.6070  -32.2380   23.7570 O   0  0  0  0  0  0  0  0  0  0  0  0
  -23.1260  -29.6060   22.6080 C   0  0  0  0  0  0  0  0  0  0  0  0
  -21.8950  -29.5890   22.9570 N   0  0  0  0  0  0  0  0  0  0  0  0
  -23.9020  -28.8860   23.2280 O   0  0  0  0  0  0  0  0  0  0  0  0
  -21.2440  -30.2640   22.5820 H   0  0  0  0  0  0  0  0  0  0  0  0
  -18.7250  -28.3100   22.0720 C   0  0  0  0  0  0  0  0  0  0  0  0
  -21.3610  -28.4270   23.5980 C   0  0  0  0  0  2  0  0  0  0  0  0
  -22.0430  -26.3100   23.2220 C   0  0  0  0  0 15  0  0  0  0  0  0
  -20.6470  -25.4580   21.6900 C   0  0  0  0  0 15  0  0  0  0  0  0
  -19.1480  -26.7690   21.1650 C   0  0  0  0  0  1  0  0  0  0  0  0
  -19.7260  -29.0400   23.0280 C   0  0  0  0  0  0  0  0  0  0  0  0
  -19.1870  -30.1060   23.8240 C   0  0  0  0  0  3  0  0  0  0  0  0
  -17.8170  -30.4480   23.9130 C   0  0  0  0  0  3  0  0  0  0  0  0
  -16.8720  -29.6560   23.2530 C   0  0  0  0  0  3  0  0  0  0  0  0
  -17.3190  -28.6140   22.3830 C   0  0  0  0  0  3  0  0  0  0  0  0
  -25.9780  -32.5190   23.8550 C   0  0  0  0  0  3  0  0  0  0  0  0
  -25.6630  -33.8910   24.2590 N   0  0  0  0  0  0  0  0  0  0  0  0
  -25.9250  -34.9660   23.5100 C   0  0  0  0  0  0  0  0  0  0  0  0
  -26.5530  -34.9080   22.4500 O   0  0  0  0  0  0  0  0  0  0  0  0
  -25.0990  -34.0050   25.0890 H   0  0  0  0  0  0  0  0  0  0  0  0
  -24.1550  -36.7360   23.2570 C   0  0  0  0  0  1  0  0  0  0  0  0
  -25.4190  -36.3240   24.0280 C   0  0  0  0  0  3  0  0  0  0  0  0
  -27.5640  -37.1910   24.8450 C   0  0  0  0  0  1  0  0  0  0  0  0
  -26.4330  -37.3960   23.9430 N   0  0  0  0  0  0  0  0  0  0  0  0
  -26.0190  -38.2990   24.1580 H   0  0  0  0  0  0  0  0  0  0  0  0
  -26.4710  -31.6690   25.0870 C   0  0  1  0  0  0  0  0  0  0  0  0
  -25.3710  -31.3850   26.1350 C   0  0  0  0  0  1  0  0  0  0  0  0
  -27.0450  -30.3070   24.6390 C   0  0  0  0  0  1  0  0  0  0  0  0
  -27.6290  -32.4190   25.7870 C   0  0  0  0  0  1  0  0  0  0  0  0
  1 58  1  0
  2  1  1  0
  3  2  1  0
  4  3  1  0
  4 11  1  0
  5 14  1  0
  6 10  1  0
  8  6  2  0
  8 11  1  0
  9  7  1  0
 10  5  1  0
 11 13  1  1
 11  9  1  0
 12  5  2  0
 15 14  1  0
 15 16  1  0
 17 16  1  0
 17 18  1  0
 18 19  1  0
 20 19  1  0
 21 20  1  0
 22 21  1  0
 23 28  1  0
 24 25  1  0
 24 23  1  0
 26 25  1  0
 26 33  1  0
 26 27  1  0
 28 22  1  0
 28 27  1  0
 29 22  2  0
 30 55  1  0
 30 31  1  0
 31 50  1  0
 32 31  2  0
 33 34  1  0
 33 30  1  0
 34 32  1  0
 35 32  1  0
 35 36  1  0
 36 37  2  0
 38 41  1  0
 38 37  1  0
 39 38  2  0
 40 39  1  0
 41 42  1  0
 42 43  1  0
 43 44  2  0
 45 44  1  0
 45 49  1  0
 46 45  2  0
 47 42  2  0
 47 46  1  0
 48 47  1  0
 50 51  1  0
 51 54  1  0
 51 53  1  0
 52 50  2  0
 55 56  1  0
 57 55  1  0
 58 59  1  0
 59 60  1  0
 60 61  1  0
 61 62  1  0
 63 62  1  0
 63 64  1  0
 65 64  1  0
 65 66  1  0
 67 66  1  0
 68 70  1  0
 69 68  1  0
 69 67  1  0
 71 69  1  0
 74 85  2  0
 75 73  1  0
 75 80  1  0
 76 84  1  0
 76 86  1  0
 77 82  1  0
 77 83  1  0
 77 79  1  0
 78 84  1  0
 79 80  1  0
 79 78  1  0
 81 75  1  0
 82 81  1  0
 83 76  1  0
 84 74  1  0
 86 87  1  0
 86 88  2  0
 87 91  1  0
 89 87  1  0
 90 99  2  0
 90 95  1  0
 94 90  1  0
 95 91  1  0
 95 96  2  0
 96 97  1  0
 98 97  2  0
 99 98  1  0
100 74  1  0
100101  1  0
100110  1  0
101104  1  0
102106  1  0
102101  1  0
103102  2  0
106105  1  0
108106  1  0
108109  1  0
108107  1  0
110113  1  1
110111  1  0
112110  1  0
M  ISO  4  21 100  22 100  72 101  73 101
M  END
>  <TORSDO>  (43) 
F 40

>  <SCORE>  (43) 
42.725

>  <name>  (43) 
45

>  <ligand_id>  (43) 
45

>  <original_smiles>  (43) 
[H]c1c([H])c([H])c2c(c1[H])C([H])([H])C([H])([H])C([H])([H])C2([H])N([H])C(=O)C1([H])N(C(=O)C([H])(N([H])C(=O)C([H])(N([H])C([H])([H])[H])C([H])([H])[H])C(C([H])([H])[H])(C([H])([H])[H])C([H])([H])[H])C([H])([H])c2c([H])c(OC([H])([H])C(=O)N([H])C([H])([H])C([H])([H])C([H])([H])C([H])([H])C([H])([H])C([H])([H])C([H])([H])C([H])([H])C([H])([H])C([H])([H])C([H])([H])C([H])([H])C([H])([H])C([H])([H])[N+]3([H])C([H])([H])C([H])([H])N(C(=O)C([H])([H])OC([H])([H])C([H])([H])OC([H])([H])C([H])([H])OC(=O)N4C([H])([H])C([H])([H])C([H])([H])C([H])(n5nc(-c6c([H])c([H])c(Oc7c([H])c([H])c(F)c([H])c7F)c([H])c6[H])c(C(=O)N([H])[H])c5N([H])[H])C4([H])[H])C([H])([H])C3([H])[H])c([H])c([H])c2C1([H])[H]

>  <smiles>  (43) 
[H]c1c([H])c([H])c2c(c1[H])C([H])([H])C([H])([H])C([H])([H])C2([H])N([H])C(=O)C1([H])N(C(=O)C([H])(N([H])C(=O)C([H])(N([H])C([H])([H])[H])C([H])([H])[H])C(C([H])([H])[H])(C([H])([H])[H])C([H])([H])[H])C([H])([H])c2c([H])c(OC([H])([H])C(=O)N([H])C([H])([H])C([H])([H])C([H])([H])C([H])([H])C([H])([H])C([H])([H])C([H])([H])C([H])([H])C([H])([H])C([H])([H])C([H])([H])C([H])([H])C([H])([H])C([H])([H])[N+]3([H])C([H])([H])C([H])([H])N(C(=O)C([H])([H])OC([H])([H])C([H])([H])OC([H])([H])C([H])([H])OC(=O)N4C([H])([H])C([H])([H])C([H])([H])C([H])(n5nc(-c6c([H])c([H])c(Oc7c([H])c([H])c(F)c([H])c7F)c([H])c6[H])c(C(=O)N([H])[H])c5N([H])[H])C4([H])[H])C([H])([H])C3([H])[H])c([H])c([H])c2C1([H])[H]

$$$$
46:0:0
     RDKit          3D

110118  0  0  1  0  0  0  0  0999 V2000
  -37.6230  -29.8110   22.7440 C   0  0  0  0  0  2  0  0  0  0  0  0
  -33.9020  -29.4740   21.6970 C   0  0  0  0  0  0  0  0  0  0  0  0
  -35.2270  -29.1760   22.4260 C   0  0  0  0  0  2  0  0  0  0  0  0
  -35.1100  -30.9300   20.0990 C   0  0  0  0  0  2  0  0  0  0  0  0
  -36.2560  -31.0190   21.1160 C   0  0  0  0  0  2  0  0  0  0  0  0
  -33.8870  -30.3370   20.6530 N   0  0  0  0  0  0  0  0  0  0  0  0
  -36.4680  -29.7250   21.8050 N   0  0  1  0  0  4  0  0  0  0  0  0
  -32.8760  -28.9320   22.1170 O   0  0  0  0  0  0  0  0  0  0  0  0
  -36.7360  -29.0650   21.0860 H   0  0  0  0  0  0  0  0  0  0  0  0
  -32.6350  -30.8220   20.0480 C   0  0  0  0  0  2  0  0  0  0  0  0
  -32.2950  -30.1300   18.7130 C   0  0  0  0  0  2  0  0  0  0  0  0
  -31.7530  -28.7660   18.8380 C   0  0  0  0  0  0  0  0  0  0  0  0
  -31.2310  -27.6690   18.9500 C   0  0  0  0  0  0  0  0  0  0  0  0
  -30.5160  -26.3910   19.1330 C   0  0  0  0  0  2  0  0  0  0  0  0
  -29.5370  -26.1840   18.1090 O   0  0  0  0  0  0  0  0  0  0  0  0
  -24.7450  -29.6040   22.1540 C   0  0  0  0  0  0  0  0  0  0  0  0
  -28.2680  -26.7060   18.2690 C   0  0  0  0  0  0  0  0  0  0  0  0
  -23.8670  -28.5390   20.0960 C   0  0  0  0  0  3  0  0  0  0  0  0
  -25.6280  -27.7090   18.4470 C   0  0  0  0  0  0  0  0  0  0  0  0
  -26.2820  -29.3530   20.2160 C   0  0  0  0  0  2  0  0  0  0  0  0
  -26.6350  -28.2360   19.2600 C   0  0  0  0  0  0  0  0  0  0  0  0
  -27.9480  -27.7360   19.1850 C   0  0  0  0  0  3  0  0  0  0  0  0
  -27.2430  -26.1880   17.4490 C   0  0  0  0  0  3  0  0  0  0  0  0
  -25.9240  -26.6750   17.5390 C   0  0  0  0  0  3  0  0  0  0  0  0
  -24.2490  -28.3050   18.6060 C   0  0  0  0  0  2  0  0  0  0  0  0
  -24.9790  -29.1640   20.8850 N   0  0  0  0  0  0  0  0  0  0  0  0
  -23.6150  -29.5370   22.6550 O   0  0  0  0  0  0  0  0  0  0  0  0
  -23.3690  -27.2030   20.6920 C   0  0  0  0  0  0  0  0  0  0  0  0
  -22.1000  -26.8660   20.4180 N   0  0  0  0  0  0  0  0  0  0  0  0
  -24.1240  -26.4860   21.3550 O   0  0  0  0  0  0  0  0  0  0  0  0
  -21.5450  -27.5130   19.8750 H   0  0  0  0  0  0  0  0  0  0  0  0
  -18.9610  -25.0820   20.2930 C   0  0  0  0  0  0  0  0  0  0  0  0
  -21.4250  -25.6390   20.8380 C   0  0  0  0  0  3  0  0  0  0  0  0
  -21.7910  -24.4590   19.9100 C   0  0  0  0  0  2  0  0  0  0  0  0
  -20.8010  -24.2670   18.7580 C   0  0  0  0  0  2  0  0  0  0  0  0
  -19.3900  -24.0160   19.3000 C   0  0  0  0  0  2  0  0  0  0  0  0
  -19.9170  -25.8550   21.0040 C   0  0  0  0  0  0  0  0  0  0  0  0
  -19.4660  -26.8560   21.8910 C   0  0  0  0  0  3  0  0  0  0  0  0
  -18.0900  -27.0900   22.0740 C   0  0  0  0  0  3  0  0  0  0  0  0
  -17.1480  -26.3110   21.3790 C   0  0  0  0  0  3  0  0  0  0  0  0
  -17.5840  -25.3080   20.4970 C   0  0  0  0  0  3  0  0  0  0  0  0
  -25.8780  -30.2340   23.0260 C   0  0  0  0  0  3  0  0  0  0  0  0
  -26.5160  -29.2160   24.0480 C   0  0  1  0  0  0  0  0  0  0  0  0
  -25.4760  -28.4760   24.9210 C   0  0  0  0  0  1  0  0  0  0  0  0
  -27.3490  -28.1460   23.3020 C   0  0  0  0  0  1  0  0  0  0  0  0
  -27.4940  -29.9590   24.9890 C   0  0  0  0  0  1  0  0  0  0  0  0
  -25.3060  -31.3900   23.7270 N   0  0  0  0  0  0  0  0  0  0  0  0
  -25.4510  -32.6650   23.3380 C   0  0  0  0  0  0  0  0  0  0  0  0
  -26.1530  -32.9960   22.3770 O   0  0  0  0  0  0  0  0  0  0  0  0
  -24.6700  -31.1880   24.4850 H   0  0  0  0  0  0  0  0  0  0  0  0
  -23.4190  -34.1460   23.3980 C   0  0  0  0  0  1  0  0  0  0  0  0
  -24.7020  -33.7440   24.1410 C   0  0  0  0  0  3  0  0  0  0  0  0
  -26.6210  -34.6980   25.3370 C   0  0  0  0  0  1  0  0  0  0  0  0
  -25.5190  -34.9480   24.4130 N   0  0  0  0  0  0  0  0  0  0  0  0
  -24.9450  -35.6920   24.8010 H   0  0  0  0  0  0  0  0  0  0  0  0
  -37.9800  -28.4810   23.4210 C   0  0  0  0  0  2  0  0  0  0  0  0
  -38.3760  -27.5540   22.4220 O   0  0  0  0  0  0  0  0  0  0  0  0
  -38.6050  -26.2570   22.9620 C   0  0  0  0  0  2  0  0  0  0  0  0
  -38.7670  -25.2770   21.8000 C   0  0  0  0  0  2  0  0  0  0  0  0
  -37.5950  -25.3890   21.0080 O   0  0  0  0  0  0  0  0  0  0  0  0
  -37.6210  -24.5770   19.8490 C   0  0  0  0  0  2  0  0  0  0  0  0
  -36.4310  -24.9830   18.9770 C   0  0  0  0  0  2  0  0  0  0  0  0
  -36.3910  -24.1620   17.8230 O   0  0  0  0  0  0  0  0  0  0  0  0
  -35.3550  -24.5510   16.9320 C   0  0  0  0  0  2  0  0  0  0  0  0
  -35.4370  -23.6210   15.7230 C   0  0  0  0  0  2  0  0  0  0  0  0
  -35.2300  -22.2140   16.1300 N   0  0  0  0  0  4  0  0  0  0  0  0
  -35.9020  -22.0010   16.8520 H   0  0  0  0  0  0  0  0  0  0  0  0
  -34.3100  -22.1160   16.5300 H   0  0  0  0  0  0  0  0  0  0  0  0
  -35.3790  -21.2550   15.0210 C   0  0  0  0  0  2  0  0  0  0  0  0
  -35.1510  -19.8020   15.4690 C   0  0  0  0  0  2  0  0  0  0  0  0
  -35.2230  -18.8420   14.2740 C   0  0  0  0  0  2  0  0  0  0  0  0
  -35.1170  -17.3600   14.6660 C   0  0  0  0  0  2  0  0  0  0  0  0
  -36.2530  -16.2140   12.7690 C   0  0  0  0  0  0  0  0  0  0  0  0
  -37.1730  -14.8130   10.9640 C   0  0  0  0  0  2  0  0  0  0  0  0
  -37.2410  -15.5600    9.6200 C   0  0  0  0  0  2  0  0  0  0  0  0
  -35.9080  -15.4340    8.8620 C   0  0  0  0  0  2  0  0  0  0  0  0
  -34.6890  -15.8020    9.7470 C   0  0  0  0  0  3  0  0  0  0  0  0
  -34.7510  -15.0630   11.1030 C   0  0  0  0  0  2  0  0  0  0  0  0
  -36.0500  -15.3520   11.7430 N   0  0  0  0  0  0  0  0  0  0  0  0
  -37.3650  -16.6500   13.0850 O   0  0  0  0  0  0  0  0  0  0  0  0
  -35.1610  -16.5030   13.4870 N   0  0  0  0  0  0  0  0  0  0  0  0
  -34.2990  -16.0630   13.1960 H   0  0  0  0  0  0  0  0  0  0  0  0
  -32.3820  -16.4060    8.7710 C   0  0  0  0  0  0  0  0  0  0  0  0
  -31.4800  -15.6790    8.0410 C   0  0  0  0  0  0  0  0  0  0  0  0
  -32.0450  -14.3740    7.9020 C   0  0  0  0  0  0  0  0  0  0  0  0
  -33.4290  -15.5410    9.0510 N   0  0  0  0  0  0  0  0  0  0  0  0
  -33.1930  -14.2970    8.5640 N   0  0  0  0  0  0  0  0  0  0  0  0
  -31.5870  -13.2110    7.1320 C   0  0  0  0  0  0  0  0  0  0  0  0
  -31.4770  -11.9320    7.7210 C   0  0  0  0  0  3  0  0  0  0  0  0
  -31.0190  -10.8320    6.9630 C   0  0  0  0  0  3  0  0  0  0  0  0
  -30.6610  -11.0060    5.6050 C   0  0  0  0  0  0  0  0  0  0  0  0
  -30.7940  -12.2770    5.0180 C   0  0  0  0  0  3  0  0  0  0  0  0
  -31.2550  -13.3690    5.7710 C   0  0  0  0  0  3  0  0  0  0  0  0
  -30.2310   -9.9910    4.7860 O   0  0  0  0  0  0  0  0  0  0  0  0
  -29.6160   -8.8720    5.2880 C   0  0  0  0  0  0  0  0  0  0  0  0
  -28.4620   -8.9540    6.0960 C   0  0  0  0  0  3  0  0  0  0  0  0
  -27.8220   -7.7760    6.5330 C   0  0  0  0  0  3  0  0  0  0  0  0
  -28.3280   -6.5190    6.1570 C   0  0  0  0  0  0  0  0  0  0  0  0
  -29.4760   -6.4340    5.3480 C   0  0  0  0  0  3  0  0  0  0  0  0
  -30.1160   -7.6070    4.9120 C   0  0  0  0  0  0  0  0  0  0  0  0
  -31.2080   -7.5210    4.1160 F   0  0  0  0  0  0  0  0  0  0  0  0
  -27.7110   -5.3870    6.5700 F   0  0  0  0  0  0  0  0  0  0  0  0
  -30.2090  -16.1880    7.4240 C   0  0  0  0  0  0  0  0  0  0  0  0
  -29.2070  -15.3280    7.2870 N   0  0  0  0  0  0  0  0  0  0  0  0
  -30.0830  -17.3700    7.1020 O   0  0  0  0  0  0  0  0  0  0  0  0
  -29.3020  -14.3640    7.5710 H   0  0  0  0  0  0  0  0  0  0  0  0
  -28.3290  -15.6370    6.8960 H   0  0  0  0  0  0  0  0  0  0  0  0
  -32.4070  -17.7280    9.2040 N   0  0  0  0  0  0  0  0  0  0  0  0
  -31.6780  -18.3920    8.9680 H   0  0  0  0  0  0  0  0  0  0  0  0
  -33.1690  -18.1450    9.7250 H   0  0  0  0  0  0  0  0  0  0  0  0
  1 56  1  0
  2  8  2  0
  2  3  1  0
  4  6  1  0
  4  5  1  0
  5  7  1  0
  6  2  1  0
  7  3  1  0
  7  1  1  0
  7  9  1  6
 10  6  1  0
 11 12  1  0
 11 10  1  0
 12 13  3  0
 13 14  1  0
 15 17  1  0
 15 14  1  0
 16 27  2  0
 17 22  1  0
 18 28  1  0
 18 26  1  0
 19 25  1  0
 19 21  1  0
 20 26  1  0
 21 20  1  0
 22 21  2  0
 23 24  1  0
 23 17  2  0
 24 19  2  0
 25 18  1  0
 26 16  1  0
 28 30  2  0
 29 28  1  0
 31 29  1  0
 32 41  2  0
 32 37  1  0
 33 29  1  0
 33 37  1  0
 34 33  1  0
 35 36  1  0
 35 34  1  0
 36 32  1  0
 37 38  2  0
 38 39  1  0
 40 39  2  0
 41 40  1  0
 42 16  1  0
 42 47  1  0
 42 43  1  0
 43 44  1  1
 43 46  1  0
 45 43  1  0
 47 50  1  0
 48 47  1  0
 48 52  1  0
 49 48  2  0
 52 51  1  0
 52 54  1  0
 54 55  1  0
 54 53  1  0
 57 58  1  0
 57 56  1  0
 59 58  1  0
 60 59  1  0
 61 60  1  0
 62 61  1  0
 63 62  1  0
 64 63  1  0
 65 66  1  0
 65 64  1  0
 66 68  1  0
 66 67  1  0
 69 70  1  0
 69 66  1  0
 71 72  1  0
 71 70  1  0
 73 80  2  0
 73 81  1  0
 74 79  1  0
 75 74  1  0
 76 75  1  0
 77 76  1  0
 77 78  1  0
 78 79  1  0
 79 73  1  0
 81 72  1  0
 82 81  1  0
 83 86  1  0
 83108  1  0
 84 83  2  0
 85 84  1  0
 85 87  2  0
 86 77  1  0
 87 86  1  0
 88 89  1  0
 88 85  1  0
 90 89  2  0
 91 90  1  0
 92 91  2  0
 92 93  1  0
 93 88  2  0
 94 95  1  0
 94 91  1  0
 95 96  1  0
 96 97  2  0
 98 97  1  0
 98102  1  0
 99 98  2  0
100 95  2  0
100 99  1  0
101100  1  0
103 84  1  0
104103  1  0
104106  1  0
105103  2  0
107104  1  0
108110  1  0
109108  1  0
M  ISO  4  14 101  15 101  73 100  81 100
M  END
>  <TORSDO>  (44) 
F 36

>  <SCORE>  (44) 
-0.337

>  <name>  (44) 
46

>  <ligand_id>  (44) 
46

>  <original_smiles>  (44) 
[H]c1c([H])c([H])c2c(c1[H])C([H])([H])C([H])([H])C([H])([H])C2([H])N([H])C(=O)C1([H])N(C(=O)C([H])(N([H])C(=O)C([H])(N([H])C([H])([H])[H])C([H])([H])[H])C(C([H])([H])[H])(C([H])([H])[H])C([H])([H])[H])C([H])([H])c2c([H])c(OC([H])([H])C#CC([H])([H])C([H])([H])N3C(=O)C([H])([H])[N+]([H])(C([H])([H])C([H])([H])OC([H])([H])C([H])([H])OC([H])([H])C([H])([H])OC([H])([H])C([H])([H])[N+]([H])([H])C([H])([H])C([H])([H])C([H])([H])C([H])([H])N([H])C(=O)N4C([H])([H])C([H])([H])C([H])([H])C([H])(n5nc(-c6c([H])c([H])c(Oc7c([H])c([H])c(F)c([H])c7F)c([H])c6[H])c(C(=O)N([H])[H])c5N([H])[H])C4([H])[H])C([H])([H])C3([H])[H])c([H])c([H])c2C1([H])[H]

>  <smiles>  (44) 
[H]c1c([H])c([H])c2c(c1[H])C([H])([H])C([H])([H])C([H])([H])C2([H])N([H])C(=O)C1([H])N(C(=O)C([H])(N([H])C(=O)C([H])(N([H])C([H])([H])[H])C([H])([H])[H])C(C([H])([H])[H])(C([H])([H])[H])C([H])([H])[H])C([H])([H])c2c([H])c(OC([H])([H])C#CC([H])([H])C([H])([H])N3C(=O)C([H])([H])[N+]([H])(C([H])([H])C([H])([H])OC([H])([H])C([H])([H])OC([H])([H])C([H])([H])OC([H])([H])C([H])([H])[N+]([H])([H])C([H])([H])C([H])([H])C([H])([H])C([H])([H])N([H])C(=O)N4C([H])([H])C([H])([H])C([H])([H])C([H])(n5nc(-c6c([H])c([H])c(Oc7c([H])c([H])c(F)c([H])c7F)c([H])c6[H])c(C(=O)N([H])[H])c5N([H])[H])C4([H])[H])C([H])([H])C3([H])[H])c([H])c([H])c2C1([H])[H]

$$$$
47:0:0
     RDKit          3D

 87 94  0  0  1  0  0  0  0  0999 V2000
  -28.6620  -22.8420   20.2020 C   0  0  0  0  0  2  0  0  0  0  0  0
  -28.8120  -24.2880   20.7550 C   0  0  0  0  0  2  0  0  0  0  0  0
  -28.5650  -25.3790   19.6760 C   0  0  0  0  0  2  0  0  0  0  0  0
  -28.4370  -26.7180   20.2070 O   0  0  0  0  0  0  0  0  0  0  0  0
  -24.5900  -31.8860   23.2440 C   0  0  0  0  0  0  0  0  0  0  0  0
  -27.2360  -27.4170   20.1770 C   0  0  0  0  0  0  0  0  0  0  0  0
  -23.3840  -30.4850   21.6040 C   0  0  0  0  0  3  0  0  0  0  0  0
  -24.8370  -28.9470   20.1830 C   0  0  0  0  0  0  0  0  0  0  0  0
  -25.9100  -30.8370   21.4070 C   0  0  0  0  0  2  0  0  0  0  0  0
  -25.9970  -29.4630   20.7690 C   0  0  0  0  0  0  0  0  0  0  0  0
  -27.1940  -28.7060   20.7630 C   0  0  0  0  0  3  0  0  0  0  0  0
  -26.0450  -26.9210   19.5910 C   0  0  0  0  0  3  0  0  0  0  0  0
  -24.8560  -27.6740   19.5940 C   0  0  0  0  0  3  0  0  0  0  0  0
  -23.5950  -29.8060   20.2250 C   0  0  0  0  0  2  0  0  0  0  0  0
  -24.6470  -31.0830   22.1440 N   0  0  0  0  0  0  0  0  0  0  0  0
  -23.5080  -32.1580   23.7820 O   0  0  0  0  0  0  0  0  0  0  0  0
  -22.7340  -29.4620   22.5640 C   0  0  0  0  0  0  0  0  0  0  0  0
  -21.4080  -29.2880   22.4460 N   0  0  0  0  0  0  0  0  0  0  0  0
  -23.4190  -28.8310   23.3720 O   0  0  0  0  0  0  0  0  0  0  0  0
  -20.9140  -29.8670   21.7780 H   0  0  0  0  0  0  0  0  0  0  0  0
  -18.0330  -28.1030   22.9510 C   0  0  0  0  0  0  0  0  0  0  0  0
  -20.5930  -28.3480   23.2130 C   0  0  0  0  0  3  0  0  0  0  0  0
  -20.6870  -26.9190   22.6280 C   0  0  0  0  0  2  0  0  0  0  0  0
  -19.5780  -26.6030   21.6210 C   0  0  0  0  0  2  0  0  0  0  0  0
  -18.2020  -26.7530   22.2730 C   0  0  0  0  0  2  0  0  0  0  0  0
  -19.1570  -28.8570   23.3770 C   0  0  0  0  0  0  0  0  0  0  0  0
  -18.9490  -30.1210   23.9680 C   0  0  0  0  0  3  0  0  0  0  0  0
  -17.6490  -30.6330   24.1370 C   0  0  0  0  0  3  0  0  0  0  0  0
  -16.5370  -29.8740   23.7300 C   0  0  0  0  0  3  0  0  0  0  0  0
  -16.7310  -28.6110   23.1420 C   0  0  0  0  0  3  0  0  0  0  0  0
  -25.8770  -32.5190   23.8600 C   0  0  0  0  0  3  0  0  0  0  0  0
  -26.4000  -31.7450   25.1310 C   0  0  1  0  0  0  0  0  0  0  0  0
  -25.3120  -31.5000   26.2010 C   0  0  0  0  0  1  0  0  0  0  0  0
  -26.9860  -30.3700   24.7330 C   0  0  0  0  0  1  0  0  0  0  0  0
  -27.5500  -32.5390   25.7950 C   0  0  0  0  0  1  0  0  0  0  0  0
  -25.5680  -33.9150   24.1930 N   0  0  0  0  0  0  0  0  0  0  0  0
  -25.8950  -34.9690   23.4330 C   0  0  0  0  0  0  0  0  0  0  0  0
  -26.5610  -34.8680   22.4000 O   0  0  0  0  0  0  0  0  0  0  0  0
  -24.9750  -34.0660   24.9960 H   0  0  0  0  0  0  0  0  0  0  0  0
  -24.1610  -36.7560   23.0810 C   0  0  0  0  0  1  0  0  0  0  0  0
  -25.4040  -36.3550   23.8900 C   0  0  0  0  0  3  0  0  0  0  0  0
  -27.5370  -37.2450   24.7210 C   0  0  0  0  0  1  0  0  0  0  0  0
  -26.4340  -37.4110   23.7760 N   0  0  0  0  0  0  0  0  0  0  0  0
  -26.0250  -38.3290   23.9280 H   0  0  0  0  0  0  0  0  0  0  0  0
  -29.3120  -21.8270   20.9910 O   0  0  0  0  0  0  0  0  0  0  0  0
  -28.9540  -20.4930   20.5870 C   0  0  0  0  0  2  0  0  0  0  0  0
  -29.9110  -19.3940   21.1300 C   0  0  0  0  0  2  0  0  0  0  0  0
  -29.4580  -17.9350   20.8160 C   0  0  0  0  0  2  0  0  0  0  0  0
  -30.4860  -16.8410   21.2230 C   0  0  0  0  0  2  0  0  0  0  0  0
  -30.6930  -14.4620   20.3760 C   0  0  0  0  0  0  0  0  0  0  0  0
  -30.3900  -12.3000   19.2190 C   0  0  0  0  0  2  0  0  0  0  0  0
  -29.4430  -12.4880   18.0150 C   0  0  0  0  0  2  0  0  0  0  0  0
  -27.9690  -12.3600   18.4520 C   0  0  0  0  0  2  0  0  0  0  0  0
  -27.6400  -13.2200   19.7010 C   0  0  0  0  0  3  0  0  0  0  0  0
  -28.6900  -12.9920   20.8090 C   0  0  0  0  0  2  0  0  0  0  0  0
  -30.0150  -13.2900   20.2400 N   0  0  0  0  0  0  0  0  0  0  0  0
  -31.8120  -14.6470   19.8870 O   0  0  0  0  0  0  0  0  0  0  0  0
  -30.0170  -15.4620   20.9810 N   0  0  0  0  0  0  0  0  0  0  0  0
  -29.0990  -15.2240   21.3240 H   0  0  0  0  0  0  0  0  0  0  0  0
  -25.2500  -13.8660   20.4050 C   0  0  0  0  0  0  0  0  0  0  0  0
  -24.1730  -13.1110   20.7810 C   0  0  0  0  0  0  0  0  0  0  0  0
  -24.6180  -11.7530   20.7650 C   0  0  0  0  0  0  0  0  0  0  0  0
  -26.2830  -12.9690   20.1810 N   0  0  0  0  0  0  0  0  0  0  0  0
  -25.9070  -11.6930   20.4570 N   0  0  0  0  0  0  0  0  0  0  0  0
  -23.8770  -10.5010   20.9690 C   0  0  0  0  0  0  0  0  0  0  0  0
  -24.2980   -9.5410   21.9140 C   0  0  0  0  0  3  0  0  0  0  0  0
  -23.5600   -8.3520   22.1040 C   0  0  0  0  0  3  0  0  0  0  0  0
  -22.3850   -8.1190   21.3500 C   0  0  0  0  0  0  0  0  0  0  0  0
  -21.9820   -9.0690   20.3950 C   0  0  0  0  0  3  0  0  0  0  0  0
  -22.7220  -10.2490   20.2030 C   0  0  0  0  0  3  0  0  0  0  0  0
  -21.6180   -6.9830   21.4500 O   0  0  0  0  0  0  0  0  0  0  0  0
  -21.5590   -6.2550   22.6110 C   0  0  0  0  0  0  0  0  0  0  0  0
  -21.1350   -6.8280   23.8300 C   0  0  0  0  0  3  0  0  0  0  0  0
  -21.0220   -6.0260   24.9830 C   0  0  0  0  0  3  0  0  0  0  0  0
  -21.3220   -4.6520   24.9180 C   0  0  0  0  0  0  0  0  0  0  0  0
  -21.7380   -4.0790   23.7040 C   0  0  0  0  0  3  0  0  0  0  0  0
  -21.8530   -4.8780   22.5530 C   0  0  0  0  0  0  0  0  0  0  0  0
  -22.2350   -4.3150   21.3810 F   0  0  0  0  0  0  0  0  0  0  0  0
  -21.2060   -3.8790   26.0240 F   0  0  0  0  0  0  0  0  0  0  0  0
  -22.7820  -13.6070   21.0520 C   0  0  0  0  0  0  0  0  0  0  0  0
  -22.0450  -12.9280   21.9240 N   0  0  0  0  0  0  0  0  0  0  0  0
  -22.3530  -14.6310   20.5210 O   0  0  0  0  0  0  0  0  0  0  0  0
  -22.4030  -12.1000   22.3750 H   0  0  0  0  0  0  0  0  0  0  0  0
  -21.1120  -13.2430   22.1480 H   0  0  0  0  0  0  0  0  0  0  0  0
  -25.4300  -15.2340   20.2110 N   0  0  0  0  0  0  0  0  0  0  0  0
  -24.6710  -15.8980   20.3160 H   0  0  0  0  0  0  0  0  0  0  0  0
  -26.2830  -15.6570   19.8640 H   0  0  0  0  0  0  0  0  0  0  0  0
  1  2  1  0
  1 45  1  0
  3  4  1  0
  3  2  1  0
  5 16  2  0
  6  4  1  0
  6 11  1  0
  7 15  1  0
  7 17  1  0
  8 14  1  0
  8 10  1  0
  9 15  1  0
 10  9  1  0
 11 10  2  0
 12 13  1  0
 12  6  2  0
 13  8  2  0
 14  7  1  0
 15  5  1  0
 17 19  2  0
 18 17  1  0
 20 18  1  0
 21 30  2  0
 21 26  1  0
 22 18  1  0
 22 26  1  0
 23 22  1  0
 24 25  1  0
 24 23  1  0
 25 21  1  0
 26 27  2  0
 27 28  1  0
 29 28  2  0
 30 29  1  0
 31  5  1  0
 31 36  1  0
 31 32  1  0
 32 35  1  1
 32 33  1  0
 34 32  1  0
 36 39  1  0
 37 41  1  0
 37 36  1  0
 38 37  2  0
 41 40  1  0
 43 41  1  0
 43 44  1  0
 43 42  1  0
 46 45  1  0
 46 47  1  0
 48 47  1  0
 48 49  1  0
 50 58  1  0
 51 56  1  0
 52 53  1  0
 52 51  1  0
 54 53  1  0
 54 63  1  0
 54 55  1  0
 56 50  1  0
 56 55  1  0
 57 50  2  0
 58 49  1  0
 58 59  1  0
 60 61  2  0
 61 80  1  0
 62 61  1  0
 62 65  1  0
 63 60  1  0
 63 64  1  0
 64 62  2  0
 65 66  1  0
 66 67  2  0
 68 71  1  0
 68 67  1  0
 69 68  2  0
 70 69  1  0
 70 65  2  0
 71 72  1  0
 72 73  1  0
 73 74  2  0
 75 74  1  0
 75 79  1  0
 76 75  2  0
 77 72  2  0
 77 76  1  0
 78 77  1  0
 80 81  1  0
 81 84  1  0
 81 83  1  0
 82 80  2  0
 85 86  1  0
 85 60  1  0
 87 85  1  0
M  ISO  4   3 101   4 101  50 100  58 100
M  END
>  <TORSDO>  (45) 
F 23

>  <SCORE>  (45) 
-12.566

>  <name>  (45) 
47

>  <ligand_id>  (45) 
47

>  <original_smiles>  (45) 
[H]c1c([H])c([H])c2c(c1[H])C([H])([H])C([H])([H])C([H])([H])C2([H])N([H])C(=O)C1([H])N(C(=O)C([H])(N([H])C(=O)C([H])(N([H])C([H])([H])[H])C([H])([H])[H])C(C([H])([H])[H])(C([H])([H])[H])C([H])([H])[H])C([H])([H])c2c([H])c(OC([H])([H])C([H])([H])C([H])([H])OC([H])([H])C([H])([H])C([H])([H])C([H])([H])N([H])C(=O)N3C([H])([H])C([H])([H])C([H])([H])C([H])(n4nc(-c5c([H])c([H])c(Oc6c([H])c([H])c(F)c([H])c6F)c([H])c5[H])c(C(=O)N([H])[H])c4N([H])[H])C3([H])[H])c([H])c([H])c2C1([H])[H]

>  <smiles>  (45) 
[H]c1c([H])c([H])c2c(c1[H])C([H])([H])C([H])([H])C([H])([H])C2([H])N([H])C(=O)C1([H])N(C(=O)C([H])(N([H])C(=O)C([H])(N([H])C([H])([H])[H])C([H])([H])[H])C(C([H])([H])[H])(C([H])([H])[H])C([H])([H])[H])C([H])([H])c2c([H])c(OC([H])([H])C([H])([H])C([H])([H])OC([H])([H])C([H])([H])C([H])([H])C([H])([H])N([H])C(=O)N3C([H])([H])C([H])([H])C([H])([H])C([H])(n4nc(-c5c([H])c([H])c(Oc6c([H])c([H])c(F)c([H])c6F)c([H])c5[H])c(C(=O)N([H])[H])c4N([H])[H])C3([H])[H])c([H])c([H])c2C1([H])[H]

$$$$
48:0:0
     RDKit          3D

117125  0  0  1  0  0  0  0  0999 V2000
  -23.7680  -18.8490   19.4570 C   0  0  0  0  0  2  0  0  0  0  0  0
  -24.9930  -19.0520   21.6280 C   0  0  0  0  0  0  0  0  0  0  0  0
  -23.9970  -19.3710   20.8000 N   0  0  0  0  0  0  0  0  0  0  0  0
  -25.9090  -18.2910   21.3200 O   0  0  0  0  0  0  0  0  0  0  0  0
  -23.2640  -19.9750   21.1560 H   0  0  0  0  0  0  0  0  0  0  0  0
  -24.9580  -19.7070   23.0090 C   0  0  0  0  0  2  0  0  0  0  0  0
  -24.9760  -18.7140   24.1880 C   0  0  0  0  0  2  0  0  0  0  0  0
  -23.7420  -17.7930   24.2710 C   0  0  0  0  0  2  0  0  0  0  0  0
  -23.5160  -17.2450   25.6910 C   0  0  0  0  0  2  0  0  0  0  0  0
  -22.3570  -16.2360   25.7880 C   0  0  0  0  0  2  0  0  0  0  0  0
  -23.2320  -13.9260   26.0790 C   0  0  0  0  0  0  0  0  0  0  0  0
  -22.7630  -14.9180   25.3100 N   0  0  0  0  0  0  0  0  0  0  0  0
  -23.2650  -13.9890   27.3110 O   0  0  0  0  0  0  0  0  0  0  0  0
  -22.7470  -14.7670   24.3100 H   0  0  0  0  0  0  0  0  0  0  0  0
  -23.8190  -12.7020   25.3560 C   0  0  0  0  0  2  0  0  0  0  0  0
  -25.2450  -12.6600   25.4820 O   0  0  0  0  0  0  0  0  0  0  0  0
  -25.9300  -13.7370   24.8450 C   0  0  0  0  0  2  0  0  0  0  0  0
  -27.4440  -13.5070   24.8740 C   0  0  0  0  0  2  0  0  0  0  0  0
  -28.0490  -14.5650   24.1470 O   0  0  0  0  0  0  0  0  0  0  0  0
  -29.4500  -14.4200   23.9880 C   0  0  0  0  0  2  0  0  0  0  0  0
  -29.8700  -15.3260   22.8160 C   0  0  0  0  0  2  0  0  0  0  0  0
  -30.8320  -14.3010   20.7440 C   0  0  0  0  0  0  0  0  0  0  0  0
  -30.4080  -12.2840   19.3990 C   0  0  0  0  0  2  0  0  0  0  0  0
  -29.4830  -12.5430   18.1970 C   0  0  0  0  0  2  0  0  0  0  0  0
  -28.0080  -12.3850   18.6050 C   0  0  0  0  0  2  0  0  0  0  0  0
  -27.6640  -13.2040   19.8720 C   0  0  0  0  0  3  0  0  0  0  0  0
  -28.6960  -12.9350   20.9830 C   0  0  0  0  0  2  0  0  0  0  0  0
  -30.0580  -13.2100   20.4890 N   0  0  0  0  0  0  0  0  0  0  0  0
  -31.7370  -14.6700   19.9950 O   0  0  0  0  0  0  0  0  0  0  0  0
  -30.9180  -14.6990   22.0180 N   0  0  0  0  0  0  0  0  0  0  0  0
  -31.8210  -15.1100   22.2030 H   0  0  0  0  0  0  0  0  0  0  0  0
  -25.2590  -13.8170   20.5710 C   0  0  0  0  0  0  0  0  0  0  0  0
  -24.1830  -13.0470   20.9180 C   0  0  0  0  0  0  0  0  0  0  0  0
  -24.6360  -11.6920   20.8710 C   0  0  0  0  0  0  0  0  0  0  0  0
  -26.3020  -12.9330   20.3330 N   0  0  0  0  0  0  0  0  0  0  0  0
  -25.9280  -11.6500   20.5730 N   0  0  0  0  0  0  0  0  0  0  0  0
  -23.9020  -10.4310   21.0390 C   0  0  0  0  0  0  0  0  0  0  0  0
  -24.3550   -9.4250   21.9220 C   0  0  0  0  0  3  0  0  0  0  0  0
  -23.6260   -8.2270   22.0780 C   0  0  0  0  0  3  0  0  0  0  0  0
  -22.4260   -8.0270   21.3540 C   0  0  0  0  0  0  0  0  0  0  0  0
  -21.9920   -9.0220   20.4620 C   0  0  0  0  0  3  0  0  0  0  0  0
  -22.7230  -10.2110   20.3010 C   0  0  0  0  0  3  0  0  0  0  0  0
  -21.6620   -6.8860   21.4220 O   0  0  0  0  0  0  0  0  0  0  0  0
  -21.6820   -6.0730   22.5270 C   0  0  0  0  0  0  0  0  0  0  0  0
  -21.3980   -6.5650   23.8200 C   0  0  0  0  0  3  0  0  0  0  0  0
  -21.3680   -5.6820   24.9180 C   0  0  0  0  0  3  0  0  0  0  0  0
  -21.6050   -4.3080   24.7240 C   0  0  0  0  0  0  0  0  0  0  0  0
  -21.8800   -3.8150   23.4370 C   0  0  0  0  0  3  0  0  0  0  0  0
  -21.9180   -4.6960   22.3410 C   0  0  0  0  0  0  0  0  0  0  0  0
  -22.1670   -4.2130   21.1000 F   0  0  0  0  0  0  0  0  0  0  0  0
  -21.5660   -3.4580   25.7780 F   0  0  0  0  0  0  0  0  0  0  0  0
  -22.7860  -13.5280   21.1860 C   0  0  0  0  0  0  0  0  0  0  0  0
  -22.0370  -12.8150   22.0210 N   0  0  0  0  0  0  0  0  0  0  0  0
  -22.3640  -14.5730   20.6920 O   0  0  0  0  0  0  0  0  0  0  0  0
  -22.3590  -11.9350   22.3970 H   0  0  0  0  0  0  0  0  0  0  0  0
  -21.0900  -13.1080   22.2130 H   0  0  0  0  0  0  0  0  0  0  0  0
  -25.4390  -15.1880   20.4180 N   0  0  0  0  0  0  0  0  0  0  0  0
  -24.7090  -15.8660   20.5990 H   0  0  0  0  0  0  0  0  0  0  0  0
  -26.3270  -15.6240   20.2090 H   0  0  0  0  0  0  0  0  0  0  0  0
  -22.3610  -18.2390   19.3560 C   0  0  0  0  0  2  0  0  0  0  0  0
  -21.4150  -19.1030   19.9850 O   0  0  0  0  0  0  0  0  0  0  0  0
  -20.9770  -18.6330   21.2580 C   0  0  0  0  0  2  0  0  0  0  0  0
  -20.4230  -19.8050   22.0760 C   0  0  0  0  0  2  0  0  0  0  0  0
  -21.4810  -20.6980   22.4150 O   0  0  0  0  0  0  0  0  0  0  0  0
  -21.0300  -21.7720   23.2340 C   0  0  0  0  0  2  0  0  0  0  0  0
  -22.1710  -22.7680   23.4860 C   0  0  0  0  0  2  0  0  0  0  0  0
  -22.4860  -23.4240   22.2640 O   0  0  0  0  0  0  0  0  0  0  0  0
  -23.5680  -24.3470   22.3470 C   0  0  0  0  0  2  0  0  0  0  0  0
  -24.9260  -23.6130   22.3840 C   0  0  0  0  0  2  0  0  0  0  0  0
  -27.8710  -26.0840   22.4310 C   0  0  0  0  0  2  0  0  0  0  0  0
  -28.1820  -24.4240   20.5840 C   0  0  0  0  0  2  0  0  0  0  0  0
  -26.3740  -25.6660   22.5500 C   0  0  0  0  0  2  0  0  0  0  0  0
  -27.2490  -23.6100   21.5000 C   0  0  0  0  0  2  0  0  0  0  0  0
  -28.5350  -25.7270   21.1580 N   0  0  0  0  0  0  0  0  0  0  0  0
  -26.0410  -24.4140   21.8070 N   0  0  1  0  0  4  0  0  0  0  0  0
  -25.7230  -24.7210   20.9000 H   0  0  0  0  0  0  0  0  0  0  0  0
  -28.4030  -26.7470   20.1010 O   0  0  0  0  0  0  0  0  0  0  0  0
  -24.6090  -31.8720   23.2120 C   0  0  0  0  0  0  0  0  0  0  0  0
  -27.2360  -27.4720   20.1040 C   0  0  0  0  0  0  0  0  0  0  0  0
  -23.3950  -30.4920   21.5510 C   0  0  0  0  0  3  0  0  0  0  0  0
  -24.8440  -28.9610   20.1150 C   0  0  0  0  0  0  0  0  0  0  0  0
  -25.9160  -30.8490   21.3580 C   0  0  0  0  0  2  0  0  0  0  0  0
  -25.9970  -29.4810   20.7160 C   0  0  0  0  0  0  0  0  0  0  0  0
  -27.1960  -28.7420   20.7130 C   0  0  0  0  0  3  0  0  0  0  0  0
  -26.0820  -26.9680   19.4680 C   0  0  0  0  0  3  0  0  0  0  0  0
  -24.8800  -27.7030   19.4860 C   0  0  0  0  0  3  0  0  0  0  0  0
  -23.6040  -29.8230   20.1640 C   0  0  0  0  0  2  0  0  0  0  0  0
  -24.6570  -31.0850   22.1000 N   0  0  0  0  0  0  0  0  0  0  0  0
  -23.5300  -32.1440   23.7560 O   0  0  0  0  0  0  0  0  0  0  0  0
  -22.7390  -29.4630   22.4990 C   0  0  0  0  0  0  0  0  0  0  0  0
  -21.4120  -29.3000   22.3730 N   0  0  0  0  0  0  0  0  0  0  0  0
  -23.4200  -28.8090   23.2930 O   0  0  0  0  0  0  0  0  0  0  0  0
  -20.9280  -29.8760   21.6990 H   0  0  0  0  0  0  0  0  0  0  0  0
  -18.0250  -28.1370   22.8480 C   0  0  0  0  0  0  0  0  0  0  0  0
  -20.5840  -28.3640   23.1320 C   0  0  0  0  0  3  0  0  0  0  0  0
  -20.6740  -26.9360   22.5440 C   0  0  0  0  0  2  0  0  0  0  0  0
  -19.5720  -26.6330   21.5230 C   0  0  0  0  0  2  0  0  0  0  0  0
  -18.1890  -26.7900   22.1630 C   0  0  0  0  0  2  0  0  0  0  0  0
  -19.1510  -28.8820   23.2890 C   0  0  0  0  0  0  0  0  0  0  0  0
  -18.9430  -30.1430   23.8900 C   0  0  0  0  0  3  0  0  0  0  0  0
  -17.6430  -30.6570   24.0560 C   0  0  0  0  0  3  0  0  0  0  0  0
  -16.5320  -29.9080   23.6300 C   0  0  0  0  0  3  0  0  0  0  0  0
  -16.7240  -28.6500   23.0320 C   0  0  0  0  0  3  0  0  0  0  0  0
  -25.9010  -32.4840   23.8400 C   0  0  0  0  0  3  0  0  0  0  0  0
  -25.5890  -33.8640   24.2350 N   0  0  0  0  0  0  0  0  0  0  0  0
  -25.9020  -34.9490   23.5140 C   0  0  0  0  0  0  0  0  0  0  0  0
  -26.5580  -34.8930   22.4700 O   0  0  0  0  0  0  0  0  0  0  0  0
  -25.0070  -33.9800   25.0520 H   0  0  0  0  0  0  0  0  0  0  0  0
  -24.1490  -36.7320   23.2630 C   0  0  0  0  0  1  0  0  0  0  0  0
  -25.4100  -36.3120   24.0340 C   0  0  0  0  0  3  0  0  0  0  0  0
  -27.5580  -37.1810   24.8460 C   0  0  0  0  0  1  0  0  0  0  0  0
  -26.4300  -37.3800   23.9410 N   0  0  0  0  0  0  0  0  0  0  0  0
  -26.0190  -38.2880   24.1410 H   0  0  0  0  0  0  0  0  0  0  0  0
  -26.4450  -31.6590   25.0700 C   0  0  1  0  0  0  0  0  0  0  0  0
  -25.3730  -31.3690   26.1470 C   0  0  0  0  0  1  0  0  0  0  0  0
  -27.0250  -30.3040   24.6020 C   0  0  0  0  0  1  0  0  0  0  0  0
  -27.6040  -32.4290   25.7460 C   0  0  0  0  0  1  0  0  0  0  0  0
  1  3  1  0
  2  6  1  0
  3  5  1  0
  3  2  1  0
  4  2  2  0
  6  7  1  0
  7  8  1  0
  8  9  1  0
  9 10  1  0
 11 13  2  0
 12 10  1  0
 12 11  1  0
 14 12  1  0
 15 16  1  0
 15 11  1  0
 17 18  1  0
 17 16  1  0
 19 18  1  0
 20 19  1  0
 21 20  1  0
 22 30  1  0
 23 28  1  0
 24 25  1  0
 24 23  1  0
 26 25  1  0
 26 35  1  0
 26 27  1  0
 28 22  1  0
 28 27  1  0
 29 22  2  0
 30 31  1  0
 30 21  1  0
 32 33  2  0
 33 52  1  0
 34 33  1  0
 34 37  1  0
 35 32  1  0
 35 36  1  0
 36 34  2  0
 37 38  1  0
 38 39  2  0
 40 43  1  0
 40 39  1  0
 41 40  2  0
 42 41  1  0
 42 37  2  0
 43 44  1  0
 44 45  1  0
 45 46  2  0
 47 46  1  0
 47 51  1  0
 48 47  2  0
 49 44  2  0
 49 48  1  0
 50 49  1  0
 52 53  1  0
 53 56  1  0
 53 55  1  0
 54 52  2  0
 57 32  1  0
 57 58  1  0
 59 57  1  0
 60  1  1  0
 60 61  1  0
 61 62  1  0
 62 63  1  0
 63 64  1  0
 64 65  1  0
 65 66  1  0
 67 68  1  0
 67 66  1  0
 68 69  1  0
 70 72  1  0
 71 74  1  0
 71 73  1  0
 73 75  1  0
 74 70  1  0
 75 69  1  0
 75 72  1  0
 75 76  1  6
 77 79  1  0
 77 74  1  0
 78 89  2  0
 79 84  1  0
 80 88  1  0
 80 90  1  0
 81 87  1  0
 81 83  1  0
 82 88  1  0
 83 82  1  0
 84 83  2  0
 85 86  1  0
 85 79  2  0
 86 81  2  0
 87 80  1  0
 88 78  1  0
 90 92  2  0
 91 90  1  0
 93 91  1  0
 94103  2  0
 94 99  1  0
 95 91  1  0
 95 99  1  0
 96 95  1  0
 97 98  1  0
 97 96  1  0
 98 94  1  0
 99100  2  0
100101  1  0
102101  2  0
103102  1  0
104 78  1  0
104105  1  0
104114  1  0
105108  1  0
106110  1  0
106105  1  0
107106  2  0
110109  1  0
112110  1  0
112113  1  0
112111  1  0
114117  1  1
114115  1  0
116114  1  0
M  ISO  4  22 100  30 100  74 101  77 101
M  END
>  <TORSDO>  (46) 
F 41

>  <SCORE>  (46) 
87.625

>  <name>  (46) 
48

>  <ligand_id>  (46) 
48

>  <original_smiles>  (46) 
[H]c1c([H])c([H])c2c(c1[H])C([H])([H])C([H])([H])C([H])([H])C2([H])N([H])C(=O)C1([H])N(C(=O)C([H])(N([H])C(=O)C([H])(N([H])C([H])([H])[H])C([H])([H])[H])C(C([H])([H])[H])(C([H])([H])[H])C([H])([H])[H])C([H])([H])c2c([H])c(ON3C([H])([H])C([H])([H])[N+]([H])(C([H])([H])C([H])([H])OC([H])([H])C([H])([H])OC([H])([H])C([H])([H])OC([H])([H])C([H])([H])N([H])C(=O)C([H])([H])C([H])([H])C([H])([H])C([H])([H])C([H])([H])N([H])C(=O)C([H])([H])OC([H])([H])C([H])([H])OC([H])([H])C([H])([H])N([H])C(=O)N4C([H])([H])C([H])([H])C([H])([H])C([H])(n5nc(-c6c([H])c([H])c(Oc7c([H])c([H])c(F)c([H])c7F)c([H])c6[H])c(C(=O)N([H])[H])c5N([H])[H])C4([H])[H])C([H])([H])C3([H])[H])c([H])c([H])c2C1([H])[H]

>  <smiles>  (46) 
[H]c1c([H])c([H])c2c(c1[H])C([H])([H])C([H])([H])C([H])([H])C2([H])N([H])C(=O)C1([H])N(C(=O)C([H])(N([H])C(=O)C([H])(N([H])C([H])([H])[H])C([H])([H])[H])C(C([H])([H])[H])(C([H])([H])[H])C([H])([H])[H])C([H])([H])c2c([H])c(ON3C([H])([H])C([H])([H])[N+]([H])(C([H])([H])C([H])([H])OC([H])([H])C([H])([H])OC([H])([H])C([H])([H])OC([H])([H])C([H])([H])N([H])C(=O)C([H])([H])C([H])([H])C([H])([H])C([H])([H])C([H])([H])N([H])C(=O)C([H])([H])OC([H])([H])C([H])([H])OC([H])([H])C([H])([H])N([H])C(=O)N4C([H])([H])C([H])([H])C([H])([H])C([H])(n5nc(-c6c([H])c([H])c(Oc7c([H])c([H])c(F)c([H])c7F)c([H])c6[H])c(C(=O)N([H])[H])c5N([H])[H])C4([H])[H])C([H])([H])C3([H])[H])c([H])c([H])c2C1([H])[H]

$$$$
49:0:0
     RDKit          3D

 93100  0  0  1  0  0  0  0  0999 V2000
  -26.0740  -20.4950   19.9280 C   0  0  0  0  0  2  0  0  0  0  0  0
  -26.5240  -20.1500   18.4920 C   0  0  0  0  0  2  0  0  0  0  0  0
  -26.9390  -18.7370   18.3130 N   0  0  0  0  0  4  0  0  0  0  0  0
  -26.3890  -18.1200   18.8860 H   0  0  0  0  0  0  0  0  0  0  0  0
  -26.6910  -18.5060   17.3620 H   0  0  0  0  0  0  0  0  0  0  0  0
  -28.3960  -18.4490   18.4040 C   0  0  0  0  0  2  0  0  0  0  0  0
  -28.9500  -18.3430   19.8450 C   0  0  0  0  0  2  0  0  0  0  0  0
  -30.4540  -18.0140   19.8780 C   0  0  0  0  0  2  0  0  0  0  0  0
  -30.9270  -17.4850   21.2450 C   0  0  0  0  0  2  0  0  0  0  0  0
  -31.3280  -15.0590   20.8490 C   0  0  0  0  0  0  0  0  0  0  0  0
  -31.0180  -12.9650   19.5880 C   0  0  0  0  0  2  0  0  0  0  0  0
  -30.1590  -13.2960   18.3520 C   0  0  0  0  0  2  0  0  0  0  0  0
  -28.6580  -13.2040   18.6920 C   0  0  0  0  0  2  0  0  0  0  0  0
  -28.2840  -13.9660   19.9910 C   0  0  0  0  0  3  0  0  0  0  0  0
  -29.2730  -13.6360   21.1360 C   0  0  0  0  0  2  0  0  0  0  0  0
  -30.6380  -13.9050   20.6530 N   0  0  0  0  0  0  0  0  0  0  0  0
  -32.4650  -15.2530   20.4080 O   0  0  0  0  0  0  0  0  0  0  0  0
  -30.6200  -16.0600   21.3930 N   0  0  0  0  0  0  0  0  0  0  0  0
  -29.7270  -15.8210   21.7980 H   0  0  0  0  0  0  0  0  0  0  0  0
  -25.8480  -14.5940   20.5560 C   0  0  0  0  0  0  0  0  0  0  0  0
  -24.7460  -13.8310   20.8250 C   0  0  0  0  0  0  0  0  0  0  0  0
  -25.1860  -12.4730   20.7870 C   0  0  0  0  0  0  0  0  0  0  0  0
  -26.8940  -13.7030   20.3710 N   0  0  0  0  0  0  0  0  0  0  0  0
  -26.4930  -12.4200   20.5660 N   0  0  0  0  0  0  0  0  0  0  0  0
  -24.4280  -11.2200   20.8980 C   0  0  0  0  0  0  0  0  0  0  0  0
  -24.7650  -10.2280   21.8480 C   0  0  0  0  0  3  0  0  0  0  0  0
  -24.0080   -9.0390   21.9430 C   0  0  0  0  0  3  0  0  0  0  0  0
  -22.9000   -8.8330   21.0890 C   0  0  0  0  0  0  0  0  0  0  0  0
  -22.5810   -9.8130   20.1300 C   0  0  0  0  0  3  0  0  0  0  0  0
  -23.3380  -10.9930   20.0320 C   0  0  0  0  0  3  0  0  0  0  0  0
  -22.1200   -7.7010   21.0990 O   0  0  0  0  0  0  0  0  0  0  0  0
  -21.9360   -6.9640   22.2410 C   0  0  0  0  0  0  0  0  0  0  0  0
  -21.3570   -7.5220   23.4010 C   0  0  0  0  0  3  0  0  0  0  0  0
  -21.1200   -6.7140   24.5310 C   0  0  0  0  0  3  0  0  0  0  0  0
  -21.4510   -5.3450   24.4990 C   0  0  0  0  0  0  0  0  0  0  0  0
  -22.0220   -4.7860   23.3430 C   0  0  0  0  0  3  0  0  0  0  0  0
  -22.2600   -5.5910   22.2160 C   0  0  0  0  0  0  0  0  0  0  0  0
  -22.7930   -5.0430   21.0980 F   0  0  0  0  0  0  0  0  0  0  0  0
  -21.2190   -4.5660   25.5810 F   0  0  0  0  0  0  0  0  0  0  0  0
  -23.3420  -14.3260   21.0280 C   0  0  0  0  0  0  0  0  0  0  0  0
  -22.5530  -13.6310   21.8390 N   0  0  0  0  0  0  0  0  0  0  0  0
  -22.9510  -15.3670   20.5010 O   0  0  0  0  0  0  0  0  0  0  0  0
  -21.6110  -13.9500   22.0110 H   0  0  0  0  0  0  0  0  0  0  0  0
  -22.8750  -12.7880   22.2900 H   0  0  0  0  0  0  0  0  0  0  0  0
  -26.0550  -15.9670   20.4480 N   0  0  0  0  0  0  0  0  0  0  0  0
  -25.3420  -16.5890   20.8090 H   0  0  0  0  0  0  0  0  0  0  0  0
  -26.9920  -16.3220   20.5730 H   0  0  0  0  0  0  0  0  0  0  0  0
  -25.9760  -22.0090   20.1840 C   0  0  0  0  0  2  0  0  0  0  0  0
  -27.2320  -22.6360   19.9410 O   0  0  0  0  0  0  0  0  0  0  0  0
  -27.2580  -23.9870   20.3820 C   0  0  0  0  0  2  0  0  0  0  0  0
  -28.5740  -24.6450   19.9320 C   0  0  0  0  0  2  0  0  0  0  0  0
  -28.9090  -25.9530   20.6780 C   0  0  0  0  0  2  0  0  0  0  0  0
  -28.7960  -27.1180   19.8620 O   0  0  0  0  0  0  0  0  0  0  0  0
  -24.6700  -31.8270   23.2450 C   0  0  0  0  0  0  0  0  0  0  0  0
  -27.5810  -27.7510   19.9320 C   0  0  0  0  0  0  0  0  0  0  0  0
  -23.5540  -30.4510   21.5170 C   0  0  0  0  0  3  0  0  0  0  0  0
  -25.1000  -29.0830   20.0210 C   0  0  0  0  0  0  0  0  0  0  0  0
  -26.0510  -30.9740   21.3560 C   0  0  0  0  0  2  0  0  0  0  0  0
  -26.2200  -29.6480   20.6440 C   0  0  0  0  0  0  0  0  0  0  0  0
  -27.4660  -28.9880   20.5990 C   0  0  0  0  0  3  0  0  0  0  0  0
  -26.4500  -27.1910   19.3070 C   0  0  0  0  0  3  0  0  0  0  0  0
  -25.2070  -27.8520   19.3500 C   0  0  0  0  0  3  0  0  0  0  0  0
  -23.8080  -29.8630   20.1030 C   0  0  0  0  0  2  0  0  0  0  0  0
  -24.7750  -31.0960   22.0990 N   0  0  0  0  0  0  0  0  0  0  0  0
  -23.5740  -32.0050   23.7920 O   0  0  0  0  0  0  0  0  0  0  0  0
  -22.9620  -29.3400   22.4140 C   0  0  0  0  0  0  0  0  0  0  0  0
  -21.6580  -29.0710   22.2470 N   0  0  0  0  0  0  0  0  0  0  0  0
  -23.6750  -28.7270   23.2130 O   0  0  0  0  0  0  0  0  0  0  0  0
  -21.1440  -29.6270   21.5770 H   0  0  0  0  0  0  0  0  0  0  0  0
  -18.3640  -27.6360   22.6210 C   0  0  0  0  0  0  0  0  0  0  0  0
  -20.8940  -28.0430   22.9520 C   0  0  0  0  0  3  0  0  0  0  0  0
  -21.1000  -26.6560   22.3000 C   0  0  0  0  0  2  0  0  0  0  0  0
  -20.0350  -26.3190   21.2510 C   0  0  0  0  0  2  0  0  0  0  0  0
  -18.6380  -26.3390   21.8790 C   0  0  0  0  0  2  0  0  0  0  0  0
  -19.4240  -28.4440   23.1110 C   0  0  0  0  0  0  0  0  0  0  0  0
  -19.1160  -29.6580   23.7630 C   0  0  0  0  0  3  0  0  0  0  0  0
  -17.7800  -30.0660   23.9310 C   0  0  0  0  0  3  0  0  0  0  0  0
  -16.7330  -29.2550   23.4580 C   0  0  0  0  0  3  0  0  0  0  0  0
  -17.0260  -28.0420   22.8100 C   0  0  0  0  0  3  0  0  0  0  0  0
  -25.9170  -32.4940   23.9070 C   0  0  0  0  0  3  0  0  0  0  0  0
  -26.4020  -31.7490   25.2120 C   0  0  1  0  0  0  0  0  0  0  0  0
  -25.2740  -31.4950   26.2380 C   0  0  0  0  0  1  0  0  0  0  0  0
  -27.0380  -30.3850   24.8550 C   0  0  0  0  0  1  0  0  0  0  0  0
  -27.5000  -32.5830   25.9140 C   0  0  0  0  0  1  0  0  0  0  0  0
  -25.5680  -33.8890   24.2040 N   0  0  0  0  0  0  0  0  0  0  0  0
  -25.9130  -34.9370   23.4430 C   0  0  0  0  0  0  0  0  0  0  0  0
  -26.6310  -34.8330   22.4450 O   0  0  0  0  0  0  0  0  0  0  0  0
  -24.9390  -34.0420   24.9780 H   0  0  0  0  0  0  0  0  0  0  0  0
  -24.1710  -36.6890   22.9740 C   0  0  0  0  0  1  0  0  0  0  0  0
  -25.3750  -36.3210   23.8560 C   0  0  0  0  0  3  0  0  0  0  0  0
  -27.4400  -37.2620   24.7910 C   0  0  0  0  0  1  0  0  0  0  0  0
  -26.3910  -37.3930   23.7840 N   0  0  0  0  0  0  0  0  0  0  0  0
  -25.9590  -38.3060   23.8940 H   0  0  0  0  0  0  0  0  0  0  0  0
  1 48  1  0
  2  1  1  0
  3  6  1  0
  3  2  1  0
  3  4  1  0
  5  3  1  0
  6  7  1  0
  7  8  1  0
  8  9  1  0
  9 18  1  0
 10 18  1  0
 11 16  1  0
 12 13  1  0
 12 11  1  0
 14 13  1  0
 14 23  1  0
 14 15  1  0
 16 10  1  0
 16 15  1  0
 17 10  2  0
 18 19  1  0
 20 21  2  0
 21 40  1  0
 22 21  1  0
 22 25  1  0
 23 20  1  0
 23 24  1  0
 24 22  2  0
 25 26  1  0
 26 27  2  0
 28 31  1  0
 28 27  1  0
 29 28  2  0
 30 29  1  0
 30 25  2  0
 31 32  1  0
 32 33  1  0
 33 34  2  0
 35 34  1  0
 35 39  1  0
 36 35  2  0
 37 32  2  0
 37 36  1  0
 38 37  1  0
 40 41  1  0
 41 43  1  0
 41 44  1  0
 42 40  2  0
 45 20  1  0
 45 47  1  0
 45 46  1  0
 49 48  1  0
 49 50  1  0
 51 50  1  0
 51 52  1  0
 53 55  1  0
 53 52  1  0
 54 65  2  0
 55 60  1  0
 56 64  1  0
 56 66  1  0
 57 63  1  0
 57 59  1  0
 58 64  1  0
 59 58  1  0
 60 59  2  0
 61 62  1  0
 61 55  2  0
 62 57  2  0
 63 56  1  0
 64 54  1  0
 66 68  2  0
 67 66  1  0
 69 67  1  0
 70 79  2  0
 70 75  1  0
 71 67  1  0
 71 75  1  0
 72 71  1  0
 73 74  1  0
 73 72  1  0
 74 70  1  0
 75 76  2  0
 76 77  1  0
 78 77  2  0
 79 78  1  0
 80 54  1  0
 80 85  1  0
 80 81  1  0
 81 84  1  1
 81 82  1  0
 83 81  1  0
 85 88  1  0
 86 90  1  0
 86 85  1  0
 87 86  2  0
 90 89  1  0
 92 90  1  0
 92 93  1  0
 92 91  1  0
M  ISO  4  10 100  18 100  52 101  53 101
M  END
>  <TORSDO>  (47) 
F 27

>  <SCORE>  (47) 
-8.306

>  <name>  (47) 
49

>  <ligand_id>  (47) 
49

>  <original_smiles>  (47) 
[H]c1c([H])c([H])c2c(c1[H])C([H])([H])C([H])([H])C([H])([H])C2([H])N([H])C(=O)C1([H])N(C(=O)C([H])(N([H])C(=O)C([H])(N([H])C([H])([H])[H])C([H])([H])[H])C(C([H])([H])[H])(C([H])([H])[H])C([H])([H])[H])C([H])([H])c2c([H])c(OC([H])([H])C([H])([H])C([H])([H])OC([H])([H])C([H])([H])C([H])([H])[N+]([H])([H])C([H])([H])C([H])([H])C([H])([H])C([H])([H])N([H])C(=O)N3C([H])([H])C([H])([H])C([H])([H])C([H])(n4nc(-c5c([H])c([H])c(Oc6c([H])c([H])c(F)c([H])c6F)c([H])c5[H])c(C(=O)N([H])[H])c4N([H])[H])C3([H])[H])c([H])c([H])c2C1([H])[H]

>  <smiles>  (47) 
[H]c1c([H])c([H])c2c(c1[H])C([H])([H])C([H])([H])C([H])([H])C2([H])N([H])C(=O)C1([H])N(C(=O)C([H])(N([H])C(=O)C([H])(N([H])C([H])([H])[H])C([H])([H])[H])C(C([H])([H])[H])(C([H])([H])[H])C([H])([H])[H])C([H])([H])c2c([H])c(OC([H])([H])C([H])([H])C([H])([H])OC([H])([H])C([H])([H])C([H])([H])[N+]([H])([H])C([H])([H])C([H])([H])C([H])([H])C([H])([H])N([H])C(=O)N3C([H])([H])C([H])([H])C([H])([H])C([H])(n4nc(-c5c([H])c([H])c(Oc6c([H])c([H])c(F)c([H])c6F)c([H])c5[H])c(C(=O)N([H])[H])c4N([H])[H])C3([H])[H])c([H])c([H])c2C1([H])[H]

$$$$
50:0:0
     RDKit          3D

105113  0  0  1  0  0  0  0  0999 V2000
  -29.8170  -20.0200   22.5260 C   0  0  0  0  0  2  0  0  0  0  0  0
  -32.3530  -20.2810   22.2400 C   0  0  0  0  0  2  0  0  0  0  0  0
  -29.9420  -20.8710   23.8040 C   0  0  0  0  0  2  0  0  0  0  0  0
  -32.3390  -21.1750   23.5040 C   0  0  0  0  0  2  0  0  0  0  0  0
  -31.1540  -19.3060   22.1990 C   0  0  0  0  0  3  0  0  0  0  0  0
  -31.0370  -21.8710   23.6800 N   0  0  1  0  0  4  0  0  0  0  0  0
  -31.0810  -22.3400   24.5750 H   0  0  0  0  0  0  0  0  0  0  0  0
  -31.0940  -19.0620   19.6790 C   0  0  0  0  0  0  0  0  0  0  0  0
  -31.1320  -18.5290   20.9340 N   0  0  0  0  0  0  0  0  0  0  0  0
  -31.3370  -20.2500   19.4490 O   0  0  0  0  0  0  0  0  0  0  0  0
  -31.3110  -17.0810   21.1300 C   0  0  0  0  0  2  0  0  0  0  0  0
  -32.6090  -16.5750   20.4530 C   0  0  0  0  0  2  0  0  0  0  0  0
  -32.8480  -15.0750   20.6330 C   0  0  0  0  0  2  0  0  0  0  0  0
  -31.4120  -13.8940   18.9650 C   0  0  0  0  0  0  0  0  0  0  0  0
  -30.6730  -11.7450   18.0420 C   0  0  0  0  0  2  0  0  0  0  0  0
  -29.5090  -11.7900   17.0450 C   0  0  0  0  0  2  0  0  0  0  0  0
  -28.1640  -11.7650   17.7880 C   0  0  0  0  0  2  0  0  0  0  0  0
  -28.0840  -12.8460   18.8950 C   0  0  0  0  0  3  0  0  0  0  0  0
  -29.3270  -12.8000   19.8100 C   0  0  0  0  0  2  0  0  0  0  0  0
  -30.5420  -12.8630   18.9780 N   0  0  0  0  0  0  0  0  0  0  0  0
  -32.0930  -14.2290   17.9900 O   0  0  0  0  0  0  0  0  0  0  0  0
  -31.6970  -14.2930   20.2060 N   0  0  0  0  0  0  0  0  0  0  0  0
  -31.1420  -13.8630   20.9330 H   0  0  0  0  0  0  0  0  0  0  0  0
  -26.0280  -13.7160   20.1840 C   0  0  0  0  0  0  0  0  0  0  0  0
  -24.9590  -13.0690   20.7410 C   0  0  0  0  0  0  0  0  0  0  0  0
  -25.1810  -11.6760   20.5200 C   0  0  0  0  0  0  0  0  0  0  0  0
  -26.8450  -12.7240   19.6630 N   0  0  0  0  0  0  0  0  0  0  0  0
  -26.3480  -11.4850   19.9180 N   0  0  0  0  0  0  0  0  0  0  0  0
  -24.3230  -10.5150   20.7930 C   0  0  0  0  0  0  0  0  0  0  0  0
  -24.7140   -9.5060   21.7020 C   0  0  0  0  0  3  0  0  0  0  0  0
  -23.8650   -8.4080   21.9610 C   0  0  0  0  0  3  0  0  0  0  0  0
  -22.6090   -8.3150   21.3150 C   0  0  0  0  0  0  0  0  0  0  0  0
  -22.2360   -9.3100   20.3930 C   0  0  0  0  0  3  0  0  0  0  0  0
  -23.0850  -10.3980   20.1320 C   0  0  0  0  0  3  0  0  0  0  0  0
  -21.7300   -7.2720   21.4850 O   0  0  0  0  0  0  0  0  0  0  0  0
  -21.6040   -6.6270   22.6890 C   0  0  0  0  0  0  0  0  0  0  0  0
  -21.2060   -7.3070   23.8620 C   0  0  0  0  0  3  0  0  0  0  0  0
  -21.0220   -6.5900   25.0620 C   0  0  0  0  0  3  0  0  0  0  0  0
  -21.2280   -5.1980   25.0900 C   0  0  0  0  0  0  0  0  0  0  0  0
  -21.6190   -4.5190   23.9230 C   0  0  0  0  0  3  0  0  0  0  0  0
  -21.8050   -5.2320   22.7250 C   0  0  0  0  0  0  0  0  0  0  0  0
  -22.1620   -4.5710   21.5980 F   0  0  0  0  0  0  0  0  0  0  0  0
  -21.0440   -4.5090   26.2400 F   0  0  0  0  0  0  0  0  0  0  0  0
  -23.7490  -13.7080   21.3610 C   0  0  0  0  0  0  0  0  0  0  0  0
  -23.1410  -13.0490   22.3400 N   0  0  0  0  0  0  0  0  0  0  0  0
  -23.3640  -14.8220   21.0090 O   0  0  0  0  0  0  0  0  0  0  0  0
  -23.4690  -12.1440   22.6440 H   0  0  0  0  0  0  0  0  0  0  0  0
  -22.3360  -13.4570   22.7950 H   0  0  0  0  0  0  0  0  0  0  0  0
  -26.3660  -15.0600   20.0580 N   0  0  0  0  0  0  0  0  0  0  0  0
  -25.7570  -15.8030   20.3820 H   0  0  0  0  0  0  0  0  0  0  0  0
  -27.1870  -15.4020   19.5770 H   0  0  0  0  0  0  0  0  0  0  0  0
  -30.6700  -18.1600   18.5030 C   0  0  0  0  0  2  0  0  0  0  0  0
  -31.1230  -18.6500   17.1140 C   0  0  0  0  0  2  0  0  0  0  0  0
  -31.2130  -17.4950   16.1100 C   0  0  0  0  0  2  0  0  0  0  0  0
  -31.9120  -17.9210   14.9510 O   0  0  0  0  0  0  0  0  0  0  0  0
  -33.0170  -17.3680   12.8870 C   0  0  0  0  0  1  0  0  0  0  0  0
  -32.2810  -16.8310   14.1160 C   0  0  0  0  0  2  0  0  0  0  0  0
  -30.8460  -22.9520   22.6670 C   0  0  0  0  0  2  0  0  0  0  0  0
  -29.5740  -22.8720   21.7940 C   0  0  0  0  0  2  0  0  0  0  0  0
  -29.4650  -24.0930   20.8600 C   0  0  0  0  0  2  0  0  0  0  0  0
  -29.0250  -23.7380   19.4280 C   0  0  0  0  0  2  0  0  0  0  0  0
  -29.3060  -24.8730   18.4270 C   0  0  0  0  0  2  0  0  0  0  0  0
  -28.5410  -24.7080   17.1050 C   0  0  0  0  0  2  0  0  0  0  0  0
  -28.9110  -25.7770   16.0620 C   0  0  0  0  0  2  0  0  0  0  0  0
  -27.7620  -26.1520   15.3050 O   0  0  0  0  0  0  0  0  0  0  0  0
  -24.6810  -28.0180   21.4730 C   0  0  0  0  0  0  0  0  0  0  0  0
  -26.6560  -26.6040   15.9910 C   0  0  0  0  0  0  0  0  0  0  0  0
  -23.1650  -27.7630   19.5300 C   0  0  0  0  0  3  0  0  0  0  0  0
  -24.3080  -27.5290   17.2610 C   0  0  0  0  0  0  0  0  0  0  0  0
  -25.6100  -28.4240   19.2030 C   0  0  0  0  0  2  0  0  0  0  0  0
  -25.5560  -27.7140   17.8690 C   0  0  0  0  0  0  0  0  0  0  0  0
  -26.7320  -27.2560   17.2420 C   0  0  0  0  0  3  0  0  0  0  0  0
  -25.3950  -26.4260   15.3870 C   0  0  0  0  0  3  0  0  0  0  0  0
  -24.2180  -26.8750   16.0180 C   0  0  0  0  0  3  0  0  0  0  0  0
  -23.1050  -28.0610   18.0060 C   0  0  0  0  0  2  0  0  0  0  0  0
  -24.5120  -28.0490   20.1200 N   0  0  0  0  0  0  0  0  0  0  0  0
  -23.7260  -27.8030   22.2320 O   0  0  0  0  0  0  0  0  0  0  0  0
  -22.6900  -26.3120   19.7650 C   0  0  0  0  0  0  0  0  0  0  0  0
  -21.4050  -26.0500   19.4750 N   0  0  0  0  0  0  0  0  0  0  0  0
  -23.4730  -25.4470   20.1660 O   0  0  0  0  0  0  0  0  0  0  0  0
  -20.8240  -26.8160   19.1630 H   0  0  0  0  0  0  0  0  0  0  0  0
  -18.3390  -24.2800   18.7760 C   0  0  0  0  0  0  0  0  0  0  0  0
  -20.7500  -24.7480   19.5840 C   0  0  0  0  0  3  0  0  0  0  0  0
  -21.2050  -23.7990   18.4490 C   0  0  0  0  0  2  0  0  0  0  0  0
  -20.2900  -23.8430   17.2220 C   0  0  0  0  0  2  0  0  0  0  0  0
  -18.8580  -23.4600   17.6060 C   0  0  0  0  0  2  0  0  0  0  0  0
  -19.2280  -24.8970   19.6950 C   0  0  0  0  0  0  0  0  0  0  0  0
  -18.6950  -25.6810   20.7400 C   0  0  0  0  0  3  0  0  0  0  0  0
  -17.3040  -25.8490   20.8790 C   0  0  0  0  0  3  0  0  0  0  0  0
  -16.4280  -25.2210   19.9760 C   0  0  0  0  0  3  0  0  0  0  0  0
  -16.9450  -24.4370   18.9300 C   0  0  0  0  0  3  0  0  0  0  0  0
  -26.0730  -28.2720   22.1320 C   0  0  0  0  0  3  0  0  0  0  0  0
  -25.8760  -29.2390   23.2200 N   0  0  0  0  0  0  0  0  0  0  0  0
  -26.3260  -30.5000   23.2020 C   0  0  0  0  0  0  0  0  0  0  0  0
  -27.0180  -30.9550   22.2860 O   0  0  0  0  0  0  0  0  0  0  0  0
  -25.2690  -28.9540   23.9740 H   0  0  0  0  0  0  0  0  0  0  0  0
  -24.8330  -32.3760   23.9600 C   0  0  0  0  0  1  0  0  0  0  0  0
  -25.9450  -31.4040   24.3880 C   0  0  0  0  0  3  0  0  0  0  0  0
  -28.0680  -31.3250   25.6190 C   0  0  0  0  0  1  0  0  0  0  0  0
  -27.0860  -32.1660   24.9390 N   0  0  0  0  0  0  0  0  0  0  0  0
  -26.7640  -32.8700   25.5960 H   0  0  0  0  0  0  0  0  0  0  0  0
  -26.7600  -26.9560   22.6690 C   0  0  1  0  0  0  0  0  0  0  0  0
  -25.8620  -26.1340   23.6220 C   0  0  0  0  0  1  0  0  0  0  0  0
  -27.1750  -26.0400   21.4930 C   0  0  0  0  0  1  0  0  0  0  0  0
  -28.0600  -27.3140   23.4270 C   0  0  0  0  0  1  0  0  0  0  0  0
  1  3  1  0
  2  4  1  0
  4  6  1  0
  5  9  1  0
  5  2  1  0
  5  1  1  0
  6  3  1  0
  6  7  1  1
  8  9  1  0
  9 11  1  0
 10  8  2  0
 12 13  1  0
 12 11  1  0
 14 20  1  0
 14 22  1  0
 15 20  1  0
 16 17  1  0
 16 15  1  0
 18 17  1  0
 18 27  1  0
 18 19  1  0
 20 19  1  0
 21 14  2  0
 22 13  1  0
 22 23  1  0
 24 25  2  0
 25 44  1  0
 26 25  1  0
 26 29  1  0
 27 28  1  0
 27 24  1  0
 28 26  2  0
 29 30  1  0
 30 31  2  0
 32 35  1  0
 32 31  1  0
 33 32  2  0
 34 33  1  0
 34 29  2  0
 35 36  1  0
 36 41  2  0
 36 37  1  0
 37 38  2  0
 38 39  1  0
 39 43  1  0
 40 39  2  0
 41 40  1  0
 42 41  1  0
 44 45  1  0
 45 47  1  0
 45 48  1  0
 46 44  2  0
 49 24  1  0
 49 50  1  0
 51 49  1  0
 52  8  1  0
 53 52  1  0
 54 53  1  0
 55 54  1  0
 56 57  1  0
 57 55  1  0
 58  6  1  0
 59 58  1  0
 60 59  1  0
 61 60  1  0
 62 61  1  0
 63 62  1  0
 64 63  1  0
 65 67  1  0
 65 64  1  0
 66 77  2  0
 67 72  1  0
 68 78  1  0
 68 76  1  0
 69 71  1  0
 69 75  1  0
 70 76  1  0
 71 70  1  0
 72 71  2  0
 73 67  2  0
 73 74  1  0
 74 69  2  0
 75 68  1  0
 76 66  1  0
 78 80  2  0
 79 78  1  0
 81 79  1  0
 82 91  2  0
 82 87  1  0
 83 79  1  0
 83 87  1  0
 84 83  1  0
 85 86  1  0
 85 84  1  0
 86 82  1  0
 87 88  2  0
 88 89  1  0
 90 89  2  0
 91 90  1  0
 92 66  1  0
 92102  1  0
 92 93  1  0
 93 96  1  0
 94 93  1  0
 94 98  1  0
 95 94  2  0
 98 97  1  0
 98100  1  0
100101  1  0
100 99  1  0
102105  1  1
102103  1  0
104102  1  0
M  ISO  4  14 100  22 100  64 101  65 101
M  END
>  <TORSDO>  (48) 
F 32

>  <SCORE>  (48) 
-5.439

>  <name>  (48) 
50

>  <ligand_id>  (48) 
50

>  <original_smiles>  (48) 
[H]c1c([H])c([H])c2c(c1[H])C([H])([H])C([H])([H])C([H])([H])C2([H])N([H])C(=O)C1([H])N(C(=O)C([H])(N([H])C(=O)C([H])(N([H])C([H])([H])[H])C([H])([H])[H])C(C([H])([H])[H])(C([H])([H])[H])C([H])([H])[H])C([H])([H])c2c([H])c(OC([H])([H])C([H])([H])C([H])([H])C([H])([H])C([H])([H])C([H])([H])C([H])([H])[N+]3([H])C([H])([H])C([H])([H])C([H])(N(C(=O)C([H])([H])C([H])([H])C([H])([H])OC([H])([H])C([H])([H])[H])C([H])([H])C([H])([H])C([H])([H])N([H])C(=O)N4C([H])([H])C([H])([H])C([H])([H])C([H])(n5nc(-c6c([H])c([H])c(Oc7c([H])c([H])c(F)c([H])c7F)c([H])c6[H])c(C(=O)N([H])[H])c5N([H])[H])C4([H])[H])C([H])([H])C3([H])[H])c([H])c([H])c2C1([H])[H]

>  <smiles>  (48) 
[H]c1c([H])c([H])c2c(c1[H])C([H])([H])C([H])([H])C([H])([H])C2([H])N([H])C(=O)C1([H])N(C(=O)C([H])(N([H])C(=O)C([H])(N([H])C([H])([H])[H])C([H])([H])[H])C(C([H])([H])[H])(C([H])([H])[H])C([H])([H])[H])C([H])([H])c2c([H])c(OC([H])([H])C([H])([H])C([H])([H])C([H])([H])C([H])([H])C([H])([H])C([H])([H])[N+]3([H])C([H])([H])C([H])([H])C([H])(N(C(=O)C([H])([H])C([H])([H])C([H])([H])OC([H])([H])C([H])([H])[H])C([H])([H])C([H])([H])C([H])([H])N([H])C(=O)N4C([H])([H])C([H])([H])C([H])([H])C([H])(n5nc(-c6c([H])c([H])c(Oc7c([H])c([H])c(F)c([H])c7F)c([H])c6[H])c(C(=O)N([H])[H])c5N([H])[H])C4([H])[H])C([H])([H])C3([H])[H])c([H])c([H])c2C1([H])[H]

$$$$
51:0:0
     RDKit          3D

 99107  0  0  1  0  0  0  0  0999 V2000
  -27.7690  -23.6500   20.4820 C   0  0  0  0  0  0  0  0  0  0  0  0
  -27.3180  -19.9780   20.8390 C   0  0  0  0  0  2  0  0  0  0  0  0
  -25.9020  -20.5320   20.9160 C   0  0  0  0  0  2  0  0  0  0  0  0
  -28.2080  -21.2200   20.9680 C   0  0  0  0  0  2  0  0  0  0  0  0
  -25.9980  -21.9270   20.2790 C   0  0  0  0  0  3  0  0  0  0  0  0
  -27.3760  -22.3580   20.5590 N   0  0  0  0  0  0  0  0  0  0  0  0
  -26.9910  -24.5480   20.1500 O   0  0  0  0  0  0  0  0  0  0  0  0
  -25.6780  -21.8620   18.7700 C   0  0  0  0  0  0  0  0  0  0  0  0
  -25.4390  -23.0120   18.1180 N   0  0  0  0  0  0  0  0  0  0  0  0
  -25.6590  -20.7670   18.2080 O   0  0  0  0  0  0  0  0  0  0  0  0
  -25.4720  -23.8620   18.6620 H   0  0  0  0  0  0  0  0  0  0  0  0
  -25.2160  -23.1530   16.6810 C   0  0  0  0  0  2  0  0  0  0  0  0
  -26.3060  -24.0310   16.0320 C   0  0  0  0  0  2  0  0  0  0  0  0
  -25.9950  -25.5400   15.9590 C   0  0  0  0  0  2  0  0  0  0  0  0
  -27.0570  -26.3510   15.1950 C   0  0  0  0  0  2  0  0  0  0  0  0
  -27.5330  -27.6090   15.9540 C   0  0  0  0  0  2  0  0  0  0  0  0
  -29.4540  -29.1900   15.7220 C   0  0  0  0  0  0  0  0  0  0  0  0
  -31.7350  -29.5180   16.5910 C   0  0  0  0  0  2  0  0  0  0  0  0
  -32.7470  -28.7760   15.7010 C   0  0  0  0  0  2  0  0  0  0  0  0
  -32.8950  -27.3030   16.1340 C   0  0  0  0  0  2  0  0  0  0  0  0
  -31.5300  -26.5930   16.3280 C   0  0  0  0  0  3  0  0  0  0  0  0
  -30.5930  -27.4630   17.1930 C   0  0  0  0  0  2  0  0  0  0  0  0
  -30.4630  -28.7790   16.5390 N   0  0  0  0  0  0  0  0  0  0  0  0
  -29.4360  -30.2980   15.1810 O   0  0  0  0  0  0  0  0  0  0  0  0
  -28.6460  -28.2370   15.2450 N   0  0  0  0  0  0  0  0  0  0  0  0
  -28.3620  -28.4860   14.3090 H   0  0  0  0  0  0  0  0  0  0  0  0
  -30.7860  -24.4700   17.5820 C   0  0  0  0  0  0  0  0  0  0  0  0
  -31.4260  -23.2860   17.8360 C   0  0  0  0  0  0  0  0  0  0  0  0
  -32.7320  -23.4140   17.2680 C   0  0  0  0  0  0  0  0  0  0  0  0
  -31.7000  -25.2570   16.8950 N   0  0  0  0  0  0  0  0  0  0  0  0
  -32.8950  -24.6280   16.7580 N   0  0  0  0  0  0  0  0  0  0  0  0
  -33.8170  -22.4340   17.1280 C   0  0  0  0  0  0  0  0  0  0  0  0
  -34.8770  -22.3730   18.0590 C   0  0  0  0  0  3  0  0  0  0  0  0
  -35.8970  -21.4090   17.9140 C   0  0  0  0  0  3  0  0  0  0  0  0
  -35.8650  -20.4950   16.8340 C   0  0  0  0  0  0  0  0  0  0  0  0
  -34.8160  -20.5740   15.9000 C   0  0  0  0  0  3  0  0  0  0  0  0
  -33.8030  -21.5370   16.0420 C   0  0  0  0  0  3  0  0  0  0  0  0
  -36.8300  -19.5450   16.5990 O   0  0  0  0  0  0  0  0  0  0  0  0
  -37.2630  -18.6990   17.5880 C   0  0  0  0  0  0  0  0  0  0  0  0
  -36.3950  -17.7740   18.2080 C   0  0  0  0  0  3  0  0  0  0  0  0
  -36.8960  -16.8720   19.1680 C   0  0  0  0  0  3  0  0  0  0  0  0
  -38.2640  -16.8880   19.5050 C   0  0  0  0  0  0  0  0  0  0  0  0
  -39.1300  -17.8060   18.8870 C   0  0  0  0  0  3  0  0  0  0  0  0
  -38.6310  -18.7070   17.9300 C   0  0  0  0  0  0  0  0  0  0  0  0
  -39.4750  -19.5770   17.3240 F   0  0  0  0  0  0  0  0  0  0  0  0
  -38.7440  -16.0160   20.4220 F   0  0  0  0  0  0  0  0  0  0  0  0
  -30.8320  -22.0720   18.4870 C   0  0  0  0  0  0  0  0  0  0  0  0
  -31.6400  -21.3130   19.2230 N   0  0  0  0  0  0  0  0  0  0  0  0
  -29.6330  -21.8110   18.3790 O   0  0  0  0  0  0  0  0  0  0  0  0
  -32.6170  -21.5460   19.3330 H   0  0  0  0  0  0  0  0  0  0  0  0
  -31.2810  -20.4890   19.6800 H   0  0  0  0  0  0  0  0  0  0  0  0
  -29.5050  -24.9350   17.8580 N   0  0  0  0  0  0  0  0  0  0  0  0
  -28.7990  -24.3540   18.2950 H   0  0  0  0  0  0  0  0  0  0  0  0
  -29.1520  -25.8370   17.5590 H   0  0  0  0  0  0  0  0  0  0  0  0
  -29.2160  -24.0300   20.8280 C   0  0  0  0  0  2  0  0  0  0  0  0
  -29.1970  -25.0840   21.7830 O   0  0  0  0  0  0  0  0  0  0  0  0
  -30.4990  -25.5570   22.1050 C   0  0  0  0  0  2  0  0  0  0  0  0
  -30.4300  -27.0720   22.3280 C   0  0  0  0  0  2  0  0  0  0  0  0
  -29.8920  -27.6710   21.1450 O   0  0  0  0  0  0  0  0  0  0  0  0
  -26.0070  -31.8560   25.3910 C   0  0  0  0  0  0  0  0  0  0  0  0
  -28.7810  -28.4630   21.3090 C   0  0  0  0  0  0  0  0  0  0  0  0
  -24.9230  -31.1650   23.2710 C   0  0  0  0  0  3  0  0  0  0  0  0
  -26.4560  -30.0450   21.5620 C   0  0  0  0  0  0  0  0  0  0  0  0
  -27.4610  -31.3740   23.4310 C   0  0  0  0  0  2  0  0  0  0  0  0
  -27.5550  -30.2720   22.4010 C   0  0  0  0  0  0  0  0  0  0  0  0
  -28.7180  -29.4900   22.2770 C   0  0  0  0  0  3  0  0  0  0  0  0
  -27.6800  -28.2570   20.4550 C   0  0  0  0  0  3  0  0  0  0  0  0
  -26.5110  -29.0350   20.5850 C   0  0  0  0  0  3  0  0  0  0  0  0
  -25.2570  -30.9440   21.7690 C   0  0  0  0  0  2  0  0  0  0  0  0
  -26.1420  -31.4570   24.0950 N   0  0  0  0  0  0  0  0  0  0  0  0
  -24.8880  -32.0290   25.8930 O   0  0  0  0  0  0  0  0  0  0  0  0
  -24.1210  -29.9480   23.7830 C   0  0  0  0  0  0  0  0  0  0  0  0
  -22.8620  -29.8320   23.3280 N   0  0  0  0  0  0  0  0  0  0  0  0
  -24.6340  -29.1230   24.5450 O   0  0  0  0  0  0  0  0  0  0  0  0
  -22.5100  -30.5550   22.7150 H   0  0  0  0  0  0  0  0  0  0  0  0
  -19.5310  -28.5830   22.7060 C   0  0  0  0  0  0  0  0  0  0  0  0
  -21.9340  -28.7470   23.6430 C   0  0  0  0  0  3  0  0  0  0  0  0
  -22.2400  -27.4890   22.7990 C   0  0  0  0  0  2  0  0  0  0  0  0
  -21.4300  -27.4210   21.5000 C   0  0  0  0  0  2  0  0  0  0  0  0
  -19.9290  -27.4260   21.8030 C   0  0  0  0  0  2  0  0  0  0  0  0
  -20.4760  -29.2130   23.5580 C   0  0  0  0  0  0  0  0  0  0  0  0
  -20.0630  -30.3060   24.3490 C   0  0  0  0  0  3  0  0  0  0  0  0
  -18.7350  -30.7690   24.3010 C   0  0  0  0  0  3  0  0  0  0  0  0
  -17.8000  -30.1340   23.4640 C   0  0  0  0  0  3  0  0  0  0  0  0
  -18.1970  -29.0420   22.6720 C   0  0  0  0  0  3  0  0  0  0  0  0
  -27.2490  -32.1400   26.2940 C   0  0  0  0  0  3  0  0  0  0  0  0
  -27.4460  -31.0700   27.4360 C   0  0  1  0  0  0  0  0  0  0  0  0
  -26.1580  -30.7730   28.2420 C   0  0  0  0  0  1  0  0  0  0  0  0
  -27.9540  -29.7330   26.8480 C   0  0  0  0  0  1  0  0  0  0  0  0
  -28.5310  -31.5540   28.4270 C   0  0  0  0  0  1  0  0  0  0  0  0
  -27.0860  -33.4850   26.8620 N   0  0  0  0  0  0  0  0  0  0  0  0
  -27.7050  -34.5820   26.4050 C   0  0  0  0  0  0  0  0  0  0  0  0
  -28.5400  -34.5500   25.4980 O   0  0  0  0  0  0  0  0  0  0  0  0
  -26.3750  -33.5920   27.5710 H   0  0  0  0  0  0  0  0  0  0  0  0
  -26.3400  -36.6780   26.1610 C   0  0  0  0  0  1  0  0  0  0  0  0
  -27.3380  -35.9280   27.0580 C   0  0  0  0  0  3  0  0  0  0  0  0
  -29.3970  -36.2490   28.3570 C   0  0  0  0  0  1  0  0  0  0  0  0
  -28.5100  -36.7880   27.3290 N   0  0  0  0  0  0  0  0  0  0  0  0
  -28.2160  -37.7170   27.6190 H   0  0  0  0  0  0  0  0  0  0  0  0
  1  6  1  0
  1 55  1  0
  2  3  1  0
  2  4  1  0
  5  8  1  0
  5  6  1  0
  5  3  1  0
  6  4  1  0
  7  1  2  0
  9 11  1  0
  9  8  1  0
 10  8  2  0
 12  9  1  0
 13 12  1  0
 14 13  1  0
 15 16  1  0
 15 14  1  0
 17 23  1  0
 19 20  1  0
 19 18  1  0
 21 20  1  0
 21 30  1  0
 21 22  1  0
 23 18  1  0
 23 22  1  0
 24 17  2  0
 25 17  1  0
 25 16  1  0
 26 25  1  0
 27 28  2  0
 27 52  1  0
 28 47  1  0
 29 28  1  0
 30 27  1  0
 31 30  1  0
 31 29  2  0
 32 29  1  0
 32 33  1  0
 34 33  2  0
 35 34  1  0
 36 37  1  0
 36 35  2  0
 37 32  2  0
 38 35  1  0
 38 39  1  0
 39 44  2  0
 39 40  1  0
 40 41  2  0
 41 42  1  0
 42 46  1  0
 43 42  2  0
 44 43  1  0
 45 44  1  0
 47 48  1  0
 48 50  1  0
 48 51  1  0
 49 47  2  0
 52 53  1  0
 54 52  1  0
 55 56  1  0
 56 57  1  0
 57 58  1  0
 59 61  1  0
 59 58  1  0
 60 71  2  0
 61 66  1  0
 62 72  1  0
 62 70  1  0
 63 69  1  0
 63 65  1  0
 64 70  1  0
 65 64  1  0
 66 65  2  0
 67 68  1  0
 67 61  2  0
 68 63  2  0
 69 62  1  0
 70 60  1  0
 72 74  2  0
 73 72  1  0
 75 73  1  0
 76 81  1  0
 77 73  1  0
 78 77  1  0
 79 80  1  0
 79 78  1  0
 80 76  1  0
 81 77  1  0
 81 82  2  0
 83 82  1  0
 84 83  2  0
 85 76  2  0
 85 84  1  0
 86 60  1  0
 86 91  1  0
 86 87  1  0
 87 88  1  1
 87 90  1  0
 89 87  1  0
 91 94  1  0
 92 91  1  0
 92 96  1  0
 93 92  2  0
 96 95  1  0
 96 98  1  0
 98 99  1  0
 98 97  1  0
M  ISO  4  17 100  25 100  58 101  59 101
M  END
>  <TORSDO>  (49) 
F 26

>  <SCORE>  (49) 
3.843

>  <name>  (49) 
51

>  <ligand_id>  (49) 
51

>  <original_smiles>  (49) 
[H]c1c([H])c([H])c2c(c1[H])C([H])([H])C([H])([H])C([H])([H])C2([H])N([H])C(=O)C1([H])N(C(=O)C([H])(N([H])C(=O)C([H])(N([H])C([H])([H])[H])C([H])([H])[H])C(C([H])([H])[H])(C([H])([H])[H])C([H])([H])[H])C([H])([H])c2c([H])c(OC([H])([H])C([H])([H])OC([H])([H])C(=O)N3C([H])([H])C([H])([H])C([H])([H])C3([H])C(=O)N([H])C([H])([H])C([H])([H])C([H])([H])C([H])([H])C([H])([H])N([H])C(=O)N3C([H])([H])C([H])([H])C([H])([H])C([H])(n4nc(-c5c([H])c([H])c(Oc6c([H])c([H])c(F)c([H])c6F)c([H])c5[H])c(C(=O)N([H])[H])c4N([H])[H])C3([H])[H])c([H])c([H])c2C1([H])[H]

>  <smiles>  (49) 
[H]c1c([H])c([H])c2c(c1[H])C([H])([H])C([H])([H])C([H])([H])C2([H])N([H])C(=O)C1([H])N(C(=O)C([H])(N([H])C(=O)C([H])(N([H])C([H])([H])[H])C([H])([H])[H])C(C([H])([H])[H])(C([H])([H])[H])C([H])([H])[H])C([H])([H])c2c([H])c(OC([H])([H])C([H])([H])OC([H])([H])C(=O)N3C([H])([H])C([H])([H])C([H])([H])C3([H])C(=O)N([H])C([H])([H])C([H])([H])C([H])([H])C([H])([H])C([H])([H])N([H])C(=O)N3C([H])([H])C([H])([H])C([H])([H])C([H])(n4nc(-c5c([H])c([H])c(Oc6c([H])c([H])c(F)c([H])c6F)c([H])c5[H])c(C(=O)N([H])[H])c4N([H])[H])C3([H])[H])c([H])c([H])c2C1([H])[H]

$$$$
52:0:0
     RDKit          3D

102109  0  0  1  0  0  0  0  0999 V2000
  -25.1740  -19.5990   19.0580 C   0  0  0  0  0  0  0  0  0  0  0  0
  -24.9500  -20.7930   18.4950 N   0  0  0  0  0  0  0  0  0  0  0  0
  -24.2990  -18.9700   19.6540 O   0  0  0  0  0  0  0  0  0  0  0  0
  -25.7280  -21.2590   18.0480 H   0  0  0  0  0  0  0  0  0  0  0  0
  -23.7250  -21.5690   18.6620 C   0  0  0  0  0  2  0  0  0  0  0  0
  -23.6180  -22.0740   20.1090 C   0  0  0  0  0  2  0  0  0  0  0  0
  -24.7300  -22.9080   20.4030 O   0  0  0  0  0  0  0  0  0  0  0  0
  -24.8680  -23.1410   21.8000 C   0  0  0  0  0  2  0  0  0  0  0  0
  -25.8820  -24.2600   22.0500 C   0  0  0  0  0  2  0  0  0  0  0  0
  -27.1230  -24.0030   21.3920 O   0  0  0  0  0  0  0  0  0  0  0  0
  -27.3210  -24.8760   20.2870 C   0  0  0  0  0  2  0  0  0  0  0  0
  -28.7820  -24.8420   19.8200 C   0  0  0  0  0  2  0  0  0  0  0  0
  -29.1260  -25.7720   18.6290 C   0  0  0  0  0  2  0  0  0  0  0  0
  -28.9900  -27.1740   18.9060 O   0  0  0  0  0  0  0  0  0  0  0  0
  -24.5610  -30.9730   22.9480 C   0  0  0  0  0  0  0  0  0  0  0  0
  -27.7290  -27.7260   19.0010 C   0  0  0  0  0  0  0  0  0  0  0  0
  -23.5350  -29.8290   21.0140 C   0  0  0  0  0  3  0  0  0  0  0  0
  -25.1600  -28.8690   19.3080 C   0  0  0  0  0  0  0  0  0  0  0  0
  -25.9910  -30.5560   20.9540 C   0  0  0  0  0  2  0  0  0  0  0  0
  -26.2460  -29.3900   20.0200 C   0  0  0  0  0  0  0  0  0  0  0  0
  -27.5330  -28.8220   19.8720 C   0  0  0  0  0  3  0  0  0  0  0  0
  -26.6230  -27.2370   18.2650 C   0  0  0  0  0  3  0  0  0  0  0  0
  -25.3430  -27.7920   18.4290 C   0  0  0  0  0  3  0  0  0  0  0  0
  -23.8130  -29.5180   19.5240 C   0  0  0  0  0  2  0  0  0  0  0  0
  -24.7130  -30.4530   21.6980 N   0  0  0  0  0  0  0  0  0  0  0  0
  -23.4600  -30.9690   23.5160 O   0  0  0  0  0  0  0  0  0  0  0  0
  -23.0380  -28.5360   21.7010 C   0  0  0  0  0  0  0  0  0  0  0  0
  -21.7580  -28.1940   21.4790 N   0  0  0  0  0  0  0  0  0  0  0  0
  -23.8000  -27.8550   22.3930 O   0  0  0  0  0  0  0  0  0  0  0  0
  -21.1950  -28.7920   20.8900 H   0  0  0  0  0  0  0  0  0  0  0  0
  -18.6260  -26.3940   21.5020 C   0  0  0  0  0  0  0  0  0  0  0  0
  -21.0870  -27.0030   22.0010 C   0  0  0  0  0  3  0  0  0  0  0  0
  -21.4630  -25.7480   21.1770 C   0  0  0  0  0  2  0  0  0  0  0  0
  -20.4710  -25.4480   20.0500 C   0  0  0  0  0  2  0  0  0  0  0  0
  -19.0610  -25.2420   20.6120 C   0  0  0  0  0  2  0  0  0  0  0  0
  -19.5770  -27.2280   22.1470 C   0  0  0  0  0  0  0  0  0  0  0  0
  -19.1180  -28.3010   22.9450 C   0  0  0  0  0  3  0  0  0  0  0  0
  -17.7400  -28.5440   23.1000 C   0  0  0  0  0  3  0  0  0  0  0  0
  -16.8020  -27.7090   22.4690 C   0  0  0  0  0  3  0  0  0  0  0  0
  -17.2460  -26.6370   21.6730 C   0  0  0  0  0  3  0  0  0  0  0  0
  -25.7590  -31.6150   23.7140 C   0  0  0  0  0  3  0  0  0  0  0  0
  -25.3430  -32.9590   24.1380 N   0  0  0  0  0  0  0  0  0  0  0  0
  -25.7100  -34.0930   23.5290 C   0  0  0  0  0  0  0  0  0  0  0  0
  -26.4990  -34.1180   22.5820 O   0  0  0  0  0  0  0  0  0  0  0  0
  -24.6560  -33.0100   24.8770 H   0  0  0  0  0  0  0  0  0  0  0  0
  -23.9700  -35.8570   23.1130 C   0  0  0  0  0  1  0  0  0  0  0  0
  -25.0980  -35.4050   24.0530 C   0  0  0  0  0  3  0  0  0  0  0  0
  -27.0570  -36.2460   25.2690 C   0  0  0  0  0  1  0  0  0  0  0  0
  -26.0860  -36.4940   24.2080 N   0  0  0  0  0  0  0  0  0  0  0  0
  -25.6200  -37.3770   24.4040 H   0  0  0  0  0  0  0  0  0  0  0  0
  -26.2350  -30.7590   24.9510 C   0  0  1  0  0  0  0  0  0  0  0  0
  -25.0880  -30.3710   25.9130 C   0  0  0  0  0  1  0  0  0  0  0  0
  -26.9170  -29.4530   24.4820 C   0  0  0  0  0  1  0  0  0  0  0  0
  -27.2960  -31.5470   25.7550 C   0  0  0  0  0  1  0  0  0  0  0  0
  -26.6100  -19.0630   19.0120 C   0  0  0  0  0  2  0  0  0  0  0  0
  -27.4060  -19.7030   20.0020 O   0  0  0  0  0  0  0  0  0  0  0  0
  -27.9440  -20.9650   19.6210 C   0  0  0  0  0  2  0  0  0  0  0  0
  -28.9130  -21.4060   20.7150 C   0  0  0  0  0  2  0  0  0  0  0  0
  -30.0520  -20.5850   20.5650 O   0  0  0  0  0  0  0  0  0  0  0  0
  -30.9130  -20.5870   21.6890 C   0  0  0  0  0  2  0  0  0  0  0  0
  -32.0130  -19.5850   21.3490 C   0  0  0  0  0  2  0  0  0  0  0  0
  -31.3370  -18.3720   21.0250 O   0  0  0  0  0  0  0  0  0  0  0  0
  -31.8820  -17.7020   19.9000 C   0  0  0  0  0  2  0  0  0  0  0  0
  -30.8410  -16.7370   19.3190 C   0  0  0  0  0  2  0  0  0  0  0  0
  -31.4300  -14.5150   20.2280 C   0  0  0  0  0  0  0  0  0  0  0  0
  -31.2860  -12.0950   19.8770 C   0  0  0  0  0  2  0  0  0  0  0  0
  -30.4150  -11.8620   18.6260 C   0  0  0  0  0  2  0  0  0  0  0  0
  -28.9240  -11.7880   19.0110 C   0  0  0  0  0  2  0  0  0  0  0  0
  -28.4760  -12.9680   19.9200 C   0  0  0  0  0  3  0  0  0  0  0  0
  -29.4730  -13.1830   21.0840 C   0  0  0  0  0  2  0  0  0  0  0  0
  -30.8200  -13.3370   20.5090 N   0  0  0  0  0  0  0  0  0  0  0  0
  -32.5840  -14.6070   19.8070 O   0  0  0  0  0  0  0  0  0  0  0  0
  -30.6040  -15.5660   20.1640 N   0  0  0  0  0  0  0  0  0  0  0  0
  -29.6690  -15.4340   20.5160 H   0  0  0  0  0  0  0  0  0  0  0  0
  -26.1320  -13.7300   20.6690 C   0  0  0  0  0  0  0  0  0  0  0  0
  -25.0140  -13.0290   21.0240 C   0  0  0  0  0  0  0  0  0  0  0  0
  -25.3710  -11.6480   20.9430 C   0  0  0  0  0  0  0  0  0  0  0  0
  -27.1080  -12.7820   20.4030 N   0  0  0  0  0  0  0  0  0  0  0  0
  -26.6520  -11.5220   20.6220 N   0  0  0  0  0  0  0  0  0  0  0  0
  -24.5560  -10.4380   21.0950 C   0  0  0  0  0  0  0  0  0  0  0  0
  -24.9230   -9.4080   21.9900 C   0  0  0  0  0  3  0  0  0  0  0  0
  -24.1120   -8.2610   22.1340 C   0  0  0  0  0  3  0  0  0  0  0  0
  -22.9180   -8.1370   21.3860 C   0  0  0  0  0  0  0  0  0  0  0  0
  -22.5700   -9.1540   20.4790 C   0  0  0  0  0  3  0  0  0  0  0  0
  -23.3800  -10.2910   20.3320 C   0  0  0  0  0  3  0  0  0  0  0  0
  -22.0840   -7.0470   21.4390 O   0  0  0  0  0  0  0  0  0  0  0  0
  -21.9840   -6.2730   22.5670 C   0  0  0  0  0  0  0  0  0  0  0  0
  -21.6050   -6.8190   23.8140 C   0  0  0  0  0  3  0  0  0  0  0  0
  -21.4490   -5.9760   24.9330 C   0  0  0  0  0  3  0  0  0  0  0  0
  -21.6550   -4.5890   24.8050 C   0  0  0  0  0  0  0  0  0  0  0  0
  -22.0230   -4.0440   23.5630 C   0  0  0  0  0  3  0  0  0  0  0  0
  -22.1830   -4.8830   22.4470 C   0  0  0  0  0  0  0  0  0  0  0  0
  -22.5180   -4.3500   21.2480 F   0  0  0  0  0  0  0  0  0  0  0  0
  -21.4960   -3.7780   25.8780 F   0  0  0  0  0  0  0  0  0  0  0  0
  -23.6560  -13.5960   21.3260 C   0  0  0  0  0  0  0  0  0  0  0  0
  -22.8940  -12.9380   22.1880 N   0  0  0  0  0  0  0  0  0  0  0  0
  -23.2860  -14.6630   20.8320 O   0  0  0  0  0  0  0  0  0  0  0  0
  -23.2050  -12.0740   22.6100 H   0  0  0  0  0  0  0  0  0  0  0  0
  -21.9850  -13.3010   22.4310 H   0  0  0  0  0  0  0  0  0  0  0  0
  -26.4020  -15.0900   20.5350 N   0  0  0  0  0  0  0  0  0  0  0  0
  -25.6910  -15.8030   20.6620 H   0  0  0  0  0  0  0  0  0  0  0  0
  -27.2870  -15.4710   20.2360 H   0  0  0  0  0  0  0  0  0  0  0  0
  1  3  2  0
  2  5  1  0
  2  1  1  0
  4  2  1  0
  5  6  1  0
  6  7  1  0
  7  8  1  0
  8  9  1  0
 10  9  1  0
 11 10  1  0
 12 11  1  0
 13 14  1  0
 13 12  1  0
 14 16  1  0
 15 26  2  0
 16 21  1  0
 17 25  1  0
 17 27  1  0
 18 24  1  0
 18 20  1  0
 19 25  1  0
 20 19  1  0
 21 20  2  0
 22 23  1  0
 22 16  2  0
 23 18  2  0
 24 17  1  0
 25 15  1  0
 27 29  2  0
 28 27  1  0
 30 28  1  0
 31 40  2  0
 31 36  1  0
 32 28  1  0
 32 36  1  0
 33 32  1  0
 34 35  1  0
 34 33  1  0
 35 31  1  0
 36 37  2  0
 37 38  1  0
 39 38  2  0
 40 39  1  0
 41 15  1  0
 41 42  1  0
 41 51  1  0
 42 45  1  0
 43 47  1  0
 43 42  1  0
 44 43  2  0
 47 46  1  0
 47 49  1  0
 49 50  1  0
 49 48  1  0
 51 54  1  1
 51 52  1  0
 53 51  1  0
 55  1  1  0
 55 56  1  0
 57 56  1  0
 57 58  1  0
 59 58  1  0
 59 60  1  0
 61 60  1  0
 62 61  1  0
 63 62  1  0
 64 63  1  0
 64 73  1  0
 65 71  1  0
 66 71  1  0
 67 68  1  0
 67 66  1  0
 69 68  1  0
 69 78  1  0
 69 70  1  0
 71 70  1  0
 72 65  2  0
 73 65  1  0
 73 74  1  0
 75 76  2  0
 76 95  1  0
 77 76  1  0
 77 80  1  0
 78 79  1  0
 78 75  1  0
 79 77  2  0
 80 81  1  0
 81 82  2  0
 83 86  1  0
 83 82  1  0
 84 83  2  0
 85 84  1  0
 85 80  2  0
 86 87  1  0
 87 88  1  0
 88 89  2  0
 90 89  1  0
 90 94  1  0
 91 90  2  0
 92 87  2  0
 92 91  1  0
 93 92  1  0
 95 96  1  0
 96 99  1  0
 96 98  1  0
 97 95  2  0
100101  1  0
100 75  1  0
102100  1  0
M  ISO  4  13 101  14 101  65 100  73 100
M  END
>  <TORSDO>  (50) 
F 35

>  <SCORE>  (50) 
-4.768

>  <name>  (50) 
52

>  <ligand_id>  (50) 
52

>  <original_smiles>  (50) 
[H]c1c([H])c([H])c2c(c1[H])C([H])([H])C([H])([H])C([H])([H])C2([H])N([H])C(=O)C1([H])N(C(=O)C([H])(N([H])C(=O)C([H])(N([H])C([H])([H])[H])C([H])([H])[H])C(C([H])([H])[H])(C([H])([H])[H])C([H])([H])[H])C([H])([H])c2c([H])c(OC([H])([H])C([H])([H])C([H])([H])OC([H])([H])C([H])([H])OC([H])([H])C([H])([H])N([H])C(=O)C([H])([H])OC([H])([H])C([H])([H])OC([H])([H])C([H])([H])OC([H])([H])C([H])([H])N([H])C(=O)N3C([H])([H])C([H])([H])C([H])([H])C([H])(n4nc(-c5c([H])c([H])c(Oc6c([H])c([H])c(F)c([H])c6F)c([H])c5[H])c(C(=O)N([H])[H])c4N([H])[H])C3([H])[H])c([H])c([H])c2C1([H])[H]

>  <smiles>  (50) 
[H]c1c([H])c([H])c2c(c1[H])C([H])([H])C([H])([H])C([H])([H])C2([H])N([H])C(=O)C1([H])N(C(=O)C([H])(N([H])C(=O)C([H])(N([H])C([H])([H])[H])C([H])([H])[H])C(C([H])([H])[H])(C([H])([H])[H])C([H])([H])[H])C([H])([H])c2c([H])c(OC([H])([H])C([H])([H])C([H])([H])OC([H])([H])C([H])([H])OC([H])([H])C([H])([H])N([H])C(=O)C([H])([H])OC([H])([H])C([H])([H])OC([H])([H])C([H])([H])OC([H])([H])C([H])([H])N([H])C(=O)N3C([H])([H])C([H])([H])C([H])([H])C([H])(n4nc(-c5c([H])c([H])c(Oc6c([H])c([H])c(F)c([H])c6F)c([H])c5[H])c(C(=O)N([H])[H])c4N([H])[H])C3([H])[H])c([H])c([H])c2C1([H])[H]

$$$$
53:0:0
     RDKit          3D

 99106  0  0  1  0  0  0  0  0999 V2000
  -26.1100  -21.7940   19.2190 N   0  0  0  0  0  4  0  0  0  0  0  0
  -26.8000  -21.0720   19.0760 H   0  0  0  0  0  0  0  0  0  0  0  0
  -25.7740  -22.0780   18.3100 H   0  0  0  0  0  0  0  0  0  0  0  0
  -24.9850  -21.2010   19.9720 C   0  0  0  0  0  2  0  0  0  0  0  0
  -24.6520  -19.8200   19.4100 C   0  0  0  0  0  2  0  0  0  0  0  0
  -25.1960  -19.7170   18.0970 O   0  0  0  0  0  0  0  0  0  0  0  0
  -26.2850  -18.7990   18.0280 C   0  0  0  0  0  2  0  0  0  0  0  0
  -27.5940  -19.5020   18.4310 C   0  0  0  0  0  2  0  0  0  0  0  0
  -27.8610  -19.2290   19.8000 O   0  0  0  0  0  0  0  0  0  0  0  0
  -29.1980  -19.5120   20.1950 C   0  0  0  0  0  2  0  0  0  0  0  0
  -29.4320  -18.8410   21.5530 C   0  0  0  0  0  2  0  0  0  0  0  0
  -29.6980  -17.4610   21.3480 O   0  0  0  0  0  0  0  0  0  0  0  0
  -30.2740  -16.8200   22.4810 C   0  0  0  0  0  2  0  0  0  0  0  0
  -31.5030  -15.9970   22.0560 C   0  0  0  0  0  2  0  0  0  0  0  0
  -31.5440  -14.1480   20.3670 C   0  0  0  0  0  0  0  0  0  0  0  0
  -30.8430  -12.7740   18.4450 C   0  0  0  0  0  2  0  0  0  0  0  0
  -29.8150  -13.5690   17.6170 C   0  0  0  0  0  2  0  0  0  0  0  0
  -28.3940  -13.3410   18.1650 C   0  0  0  0  0  2  0  0  0  0  0  0
  -28.3130  -13.5710   19.6990 C   0  0  0  0  0  3  0  0  0  0  0  0
  -29.4310  -12.7840   20.4210 C   0  0  0  0  0  2  0  0  0  0  0  0
  -30.7230  -13.2030   19.8450 N   0  0  0  0  0  0  0  0  0  0  0  0
  -32.5800  -14.5340   19.8180 O   0  0  0  0  0  0  0  0  0  0  0  0
  -31.0820  -14.7170   21.4870 N   0  0  0  0  0  0  0  0  0  0  0  0
  -30.2150  -14.3350   21.8370 H   0  0  0  0  0  0  0  0  0  0  0  0
  -25.9350  -14.0540   20.5540 C   0  0  0  0  0  0  0  0  0  0  0  0
  -24.9140  -13.2200   20.9300 C   0  0  0  0  0  0  0  0  0  0  0  0
  -25.4200  -11.8920   20.7970 C   0  0  0  0  0  0  0  0  0  0  0  0
  -26.9960  -13.2250   20.2230 N   0  0  0  0  0  0  0  0  0  0  0  0
  -26.6910  -11.9180   20.4260 N   0  0  0  0  0  0  0  0  0  0  0  0
  -24.7500  -10.5920   20.9510 C   0  0  0  0  0  0  0  0  0  0  0  0
  -25.1080   -9.6920   21.9790 C   0  0  0  0  0  3  0  0  0  0  0  0
  -24.4390   -8.4580   22.1160 C   0  0  0  0  0  3  0  0  0  0  0  0
  -23.3950   -8.1150   21.2240 C   0  0  0  0  0  0  0  0  0  0  0  0
  -23.0590   -9.0030   20.1860 C   0  0  0  0  0  3  0  0  0  0  0  0
  -23.7310  -10.2280   20.0490 C   0  0  0  0  0  3  0  0  0  0  0  0
  -22.7060   -6.9280   21.2620 O   0  0  0  0  0  0  0  0  0  0  0  0
  -22.1230   -6.4700   22.4160 C   0  0  0  0  0  0  0  0  0  0  0  0
  -21.1900   -7.2450   23.1370 C   0  0  0  0  0  3  0  0  0  0  0  0
  -20.5700   -6.7110   24.2840 C   0  0  0  0  0  3  0  0  0  0  0  0
  -20.8680   -5.4000   24.7030 C   0  0  0  0  0  0  0  0  0  0  0  0
  -21.7900   -4.6240   23.9800 C   0  0  0  0  0  3  0  0  0  0  0  0
  -22.4160   -5.1580   22.8390 C   0  0  0  0  0  0  0  0  0  0  0  0
  -23.2920   -4.3980   22.1370 F   0  0  0  0  0  0  0  0  0  0  0  0
  -20.2620   -4.8840   25.7980 F   0  0  0  0  0  0  0  0  0  0  0  0
  -23.5200  -13.6300   21.3010 C   0  0  0  0  0  0  0  0  0  0  0  0
  -22.8870  -12.8750   22.1930 N   0  0  0  0  0  0  0  0  0  0  0  0
  -23.0020  -14.6430   20.8320 O   0  0  0  0  0  0  0  0  0  0  0  0
  -23.3350  -12.0550   22.5790 H   0  0  0  0  0  0  0  0  0  0  0  0
  -21.9500  -13.1070   22.4860 H   0  0  0  0  0  0  0  0  0  0  0  0
  -26.0390  -15.4360   20.4500 N   0  0  0  0  0  0  0  0  0  0  0  0
  -25.2490  -16.0330   20.6490 H   0  0  0  0  0  0  0  0  0  0  0  0
  -26.8550  -15.9330   20.1090 H   0  0  0  0  0  0  0  0  0  0  0  0
  -26.7450  -22.9370   19.9020 C   0  0  0  0  0  2  0  0  0  0  0  0
  -28.1420  -23.2390   19.3420 C   0  0  0  0  0  2  0  0  0  0  0  0
  -29.0170  -23.9790   20.3620 C   0  0  0  0  0  2  0  0  0  0  0  0
  -30.4530  -24.1880   19.8590 C   0  0  0  0  0  2  0  0  0  0  0  0
  -31.4180  -24.7010   20.9430 C   0  0  0  0  0  2  0  0  0  0  0  0
  -30.9480  -25.9940   21.6240 C   0  0  0  0  0  2  0  0  0  0  0  0
  -30.7690  -26.9800   20.6190 O   0  0  0  0  0  0  0  0  0  0  0  0
  -26.4100  -31.3240   24.1680 C   0  0  0  0  0  0  0  0  0  0  0  0
  -29.5590  -27.6110   20.6780 C   0  0  0  0  0  0  0  0  0  0  0  0
  -25.4270  -30.1570   22.2200 C   0  0  0  0  0  3  0  0  0  0  0  0
  -27.0810  -28.9380   20.7120 C   0  0  0  0  0  0  0  0  0  0  0  0
  -27.9250  -30.6800   22.2970 C   0  0  0  0  0  2  0  0  0  0  0  0
  -28.1470  -29.4290   21.4750 C   0  0  0  0  0  0  0  0  0  0  0  0
  -29.3910  -28.7700   21.4620 C   0  0  0  0  0  3  0  0  0  0  0  0
  -28.4850  -27.1170   19.9160 C   0  0  0  0  0  3  0  0  0  0  0  0
  -27.2410  -27.7780   19.9320 C   0  0  0  0  0  3  0  0  0  0  0  0
  -25.7820  -29.7090   20.7750 C   0  0  0  0  0  2  0  0  0  0  0  0
  -26.6010  -30.7250   22.9590 N   0  0  0  0  0  0  0  0  0  0  0  0
  -25.2750  -31.4500   24.6470 O   0  0  0  0  0  0  0  0  0  0  0  0
  -24.7620  -28.9650   22.9440 C   0  0  0  0  0  0  0  0  0  0  0  0
  -23.5300  -28.6280   22.5310 N   0  0  0  0  0  0  0  0  0  0  0  0
  -25.3620  -28.3480   23.8280 O   0  0  0  0  0  0  0  0  0  0  0  0
  -23.1040  -29.1890   21.8050 H   0  0  0  0  0  0  0  0  0  0  0  0
  -20.3990  -26.8810   22.1110 C   0  0  0  0  0  0  0  0  0  0  0  0
  -22.7260  -27.5150   23.0360 C   0  0  0  0  0  3  0  0  0  0  0  0
  -23.2110  -26.1660   22.4560 C   0  0  0  0  0  2  0  0  0  0  0  0
  -22.4620  -25.7520   21.1840 C   0  0  0  0  0  2  0  0  0  0  0  0
  -20.9600  -25.6300   21.4590 C   0  0  0  0  0  2  0  0  0  0  0  0
  -21.2280  -27.7740   22.8380 C   0  0  0  0  0  0  0  0  0  0  0  0
  -20.6580  -28.9380   23.3940 C   0  0  0  0  0  3  0  0  0  0  0  0
  -19.2860  -29.2160   23.2360 C   0  0  0  0  0  3  0  0  0  0  0  0
  -18.4670  -28.3190   22.5300 C   0  0  0  0  0  3  0  0  0  0  0  0
  -19.0220  -27.1540   21.9730 C   0  0  0  0  0  3  0  0  0  0  0  0
  -27.6030  -31.8950   24.9970 C   0  0  0  0  0  3  0  0  0  0  0  0
  -27.3150  -33.3080   25.2730 N   0  0  0  0  0  0  0  0  0  0  0  0
  -27.8100  -34.3350   24.5690 C   0  0  0  0  0  0  0  0  0  0  0  0
  -28.6240  -34.1910   23.6520 O   0  0  0  0  0  0  0  0  0  0  0  0
  -26.6090  -33.4980   25.9680 H   0  0  0  0  0  0  0  0  0  0  0  0
  -26.2140  -36.1840   23.9610 C   0  0  0  0  0  1  0  0  0  0  0  0
  -27.3180  -35.7480   24.9380 C   0  0  0  0  0  3  0  0  0  0  0  0
  -29.3460  -36.5720   26.0480 C   0  0  0  0  0  1  0  0  0  0  0  0
  -28.3960  -36.7590   24.9550 N   0  0  0  0  0  0  0  0  0  0  0  0
  -28.0100  -37.6970   25.0260 H   0  0  0  0  0  0  0  0  0  0  0  0
  -27.8670  -31.1060   26.3390 C   0  0  1  0  0  0  0  0  0  0  0  0
  -26.5920  -30.8810   27.1850 C   0  0  0  0  0  1  0  0  0  0  0  0
  -28.4880  -29.7230   26.0400 C   0  0  0  0  0  1  0  0  0  0  0  0
  -28.8870  -31.8760   27.2100 C   0  0  0  0  0  1  0  0  0  0  0  0
  1 53  1  0
  1  4  1  0
  2  1  1  0
  3  1  1  0
  5  4  1  0
  6  5  1  0
  7  6  1  0
  7  8  1  0
  8  9  1  0
  9 10  1  0
 10 11  1  0
 12 11  1  0
 12 13  1  0
 14 13  1  0
 15 23  1  0
 16 21  1  0
 17 18  1  0
 17 16  1  0
 19 18  1  0
 19 28  1  0
 19 20  1  0
 21 15  1  0
 21 20  1  0
 22 15  2  0
 23 24  1  0
 23 14  1  0
 25 26  2  0
 26 45  1  0
 27 26  1  0
 27 30  1  0
 28 29  1  0
 28 25  1  0
 29 27  2  0
 30 31  1  0
 31 32  2  0
 33 36  1  0
 33 32  1  0
 34 33  2  0
 35 34  1  0
 35 30  2  0
 36 37  1  0
 37 42  2  0
 37 38  1  0
 38 39  2  0
 39 40  1  0
 40 44  1  0
 41 40  2  0
 42 41  1  0
 43 42  1  0
 45 46  1  0
 46 49  1  0
 46 48  1  0
 47 45  2  0
 50 25  1  0
 50 51  1  0
 52 50  1  0
 54 53  1  0
 54 55  1  0
 56 55  1  0
 56 57  1  0
 57 58  1  0
 59 61  1  0
 59 58  1  0
 60 71  2  0
 61 66  1  0
 62 72  1  0
 62 70  1  0
 63 69  1  0
 63 65  1  0
 64 70  1  0
 65 64  1  0
 66 65  2  0
 67 68  1  0
 67 61  2  0
 68 63  2  0
 69 62  1  0
 70 60  1  0
 72 74  2  0
 73 72  1  0
 75 73  1  0
 76 81  1  0
 77 73  1  0
 78 77  1  0
 79 80  1  0
 79 78  1  0
 80 76  1  0
 81 77  1  0
 81 82  2  0
 83 82  1  0
 84 83  2  0
 85 76  2  0
 85 84  1  0
 86 60  1  0
 86 87  1  0
 86 96  1  0
 87 90  1  0
 88 92  1  0
 88 87  1  0
 89 88  2  0
 92 91  1  0
 92 94  1  0
 94 95  1  0
 94 93  1  0
 96 97  1  1
 96 99  1  0
 98 96  1  0
M  ISO  4  15 100  23 100  58 101  59 101
M  END
>  <TORSDO>  (51) 
F 33

>  <SCORE>  (51) 
-2.346

>  <name>  (51) 
53

>  <ligand_id>  (51) 
53

>  <original_smiles>  (51) 
[H]c1c([H])c([H])c2c(c1[H])C([H])([H])C([H])([H])C([H])([H])C2([H])N([H])C(=O)C1([H])N(C(=O)C([H])(N([H])C(=O)C([H])(N([H])C([H])([H])[H])C([H])([H])[H])C(C([H])([H])[H])(C([H])([H])[H])C([H])([H])[H])C([H])([H])c2c([H])c(OC([H])([H])C([H])([H])C([H])([H])C([H])([H])C([H])([H])C([H])([H])[N+]([H])([H])C([H])([H])C([H])([H])OC([H])([H])C([H])([H])OC([H])([H])C([H])([H])OC([H])([H])C([H])([H])N([H])C(=O)N3C([H])([H])C([H])([H])C([H])([H])C([H])(n4nc(-c5c([H])c([H])c(Oc6c([H])c([H])c(F)c([H])c6F)c([H])c5[H])c(C(=O)N([H])[H])c4N([H])[H])C3([H])[H])c([H])c([H])c2C1([H])[H]

>  <smiles>  (51) 
[H]c1c([H])c([H])c2c(c1[H])C([H])([H])C([H])([H])C([H])([H])C2([H])N([H])C(=O)C1([H])N(C(=O)C([H])(N([H])C(=O)C([H])(N([H])C([H])([H])[H])C([H])([H])[H])C(C([H])([H])[H])(C([H])([H])[H])C([H])([H])[H])C([H])([H])c2c([H])c(OC([H])([H])C([H])([H])C([H])([H])C([H])([H])C([H])([H])C([H])([H])[N+]([H])([H])C([H])([H])C([H])([H])OC([H])([H])C([H])([H])OC([H])([H])C([H])([H])OC([H])([H])C([H])([H])N([H])C(=O)N3C([H])([H])C([H])([H])C([H])([H])C([H])(n4nc(-c5c([H])c([H])c(Oc6c([H])c([H])c(F)c([H])c6F)c([H])c5[H])c(C(=O)N([H])[H])c4N([H])[H])C3([H])[H])c([H])c([H])c2C1([H])[H]

$$$$
54:0:0
     RDKit          3D

105112  0  0  1  0  0  0  0  0999 V2000
  -20.7820  -30.9920   21.8240 C   0  0  0  0  0  0  0  0  0  0  0  0
  -21.4330  -30.8810   23.1570 N   0  0  0  0  0  0  0  0  0  0  0  0
  -20.3320  -32.1250   21.6710 O   0  0  0  0  0  0  0  0  0  0  0  0
  -21.3820  -31.8230   23.5290 H   0  0  0  0  0  0  0  0  0  0  0  0
  -20.0820  -30.8230   19.2420 C   0  0  0  0  0  1  0  0  0  0  0  0
  -20.6130  -29.9310   20.4020 C   0  0  0  0  0  3  0  0  0  0  0  0
  -21.5600  -28.6610   19.5730 C   0  0  0  0  0  0  0  0  0  0  0  0
  -21.3220  -28.5980   18.2440 N   0  0  0  0  0  4  0  0  0  0  0  0
  -22.4730  -27.5660   19.8950 N   0  0  0  0  0  0  0  0  0  0  0  0
  -20.6730  -29.2370   17.8030 H   0  0  0  0  0  0  0  0  0  0  0  0
  -21.7050  -27.8790   17.6490 H   0  0  0  0  0  0  0  0  0  0  0  0
  -22.4930  -27.4770   20.9080 H   0  0  0  0  0  0  0  0  0  0  0  0
  -23.5030  -26.4590   19.3750 C   0  0  0  0  0  2  0  0  0  0  0  0
  -25.0500  -26.1430   20.0870 C   0  0  0  0  0  2  0  0  0  0  0  0
  -26.5480  -26.2060   19.5810 O   0  0  0  0  0  0  0  0  0  0  0  0
  -24.9800  -31.6210   22.8780 C   0  0  0  0  0  0  0  0  0  0  0  0
  -26.8380  -27.4050   19.0680 C   0  0  0  0  0  3  0  0  0  0  0  0
  -23.6910  -30.3910   21.1730 C   0  0  0  0  0  3  0  0  0  0  0  0
  -24.9430  -29.3330   19.2720 C   0  0  0  0  0  3  0  0  0  0  0  0
  -26.1920  -30.6390   20.9700 C   0  0  0  0  0  2  0  0  0  0  0  0
  -26.0960  -29.4580   20.0410 C   0  0  0  0  0  0  0  0  0  0  0  0
  -27.0850  -28.4700   19.9580 C   0  0  0  0  0  3  0  0  0  0  0  0
  -25.9330  -27.5210   18.0260 C   0  0  0  0  0  3  0  0  0  0  0  0
  -24.9000  -28.4470   18.1910 C   0  0  0  0  0  3  0  0  0  0  0  0
  -23.8300  -30.2460   19.6360 C   0  0  0  0  0  2  0  0  0  0  0  0
  -24.9660  -30.8730   21.7440 N   0  0  0  0  0  0  0  0  0  0  0  0
  -23.9460  -31.9890   23.4340 O   0  0  0  0  0  0  0  0  0  0  0  0
  -23.1700  -29.0750   21.9330 C   0  0  0  0  0  0  0  0  0  0  0  0
  -21.8210  -28.7440   22.1030 N   0  0  0  0  0  0  0  0  0  0  0  0
  -24.0060  -28.3010   22.2870 O   0  0  0  0  0  0  0  0  0  0  0  0
  -21.4640  -29.6880   22.1360 H   0  0  0  0  0  0  0  0  0  0  0  0
  -18.0350  -28.1570   22.3020 C   0  0  0  0  0  0  0  0  0  0  0  0
  -20.6370  -28.0190   22.7150 C   0  0  0  0  0  3  0  0  0  0  0  0
  -20.5290  -26.6700   22.0150 C   0  0  0  0  0  2  0  0  0  0  0  0
  -19.5000  -26.6440   20.8850 C   0  0  0  0  0  2  0  0  0  0  0  0
  -18.1120  -26.8950   21.4640 C   0  0  0  0  0  2  0  0  0  0  0  0
  -19.2030  -28.7520   22.8600 C   0  0  0  0  0  0  0  0  0  0  0  0
  -18.9060  -29.9400   23.6200 C   0  0  0  0  0  3  0  0  0  0  0  0
  -17.6470  -30.5250   23.7650 C   0  0  0  0  0  3  0  0  0  0  0  0
  -16.5420  -29.8830   23.2320 C   0  0  0  0  0  3  0  0  0  0  0  0
  -16.7430  -28.6990   22.5120 C   0  0  0  0  0  3  0  0  0  0  0  0
  -26.3090  -32.0820   23.5190 C   0  0  0  0  0  3  0  0  0  0  0  0
  -26.0980  -33.4450   24.0190 N   0  0  0  0  0  0  0  0  0  0  0  0
  -26.4060  -34.5550   23.3370 C   0  0  0  0  0  0  0  0  0  0  0  0
  -26.9920  -34.5280   22.2510 O   0  0  0  0  0  0  0  0  0  0  0  0
  -25.6020  -33.5340   24.8930 H   0  0  0  0  0  0  0  0  0  0  0  0
  -24.7770  -36.4660   23.2710 C   0  0  0  0  0  1  0  0  0  0  0  0
  -26.0230  -35.9020   23.9720 C   0  0  0  0  0  3  0  0  0  0  0  0
  -28.2500  -36.5490   24.7750 C   0  0  0  0  0  1  0  0  0  0  0  0
  -27.1130  -36.8990   23.9260 N   0  0  0  0  0  0  0  0  0  0  0  0
  -26.7770  -37.8150   24.2090 H   0  0  0  0  0  0  0  0  0  0  0  0
  -26.7800  -31.1280   24.6810 C   0  0  1  0  0  0  0  0  0  0  0  0
  -25.7500  -30.9430   25.8260 C   0  0  0  0  0  1  0  0  0  0  0  0
  -27.1850  -29.7360   24.1300 C   0  0  0  0  0  1  0  0  0  0  0  0
  -28.0570  -31.7130   25.3270 C   0  0  0  0  0  1  0  0  0  0  0  0
  -22.1200  -29.9570   24.3990 C   0  0  0  0  0  2  0  0  0  0  0  0
  -23.6120  -29.1270   24.7440 C   0  0  0  0  0  2  0  0  0  0  0  0
  -24.3760  -27.7300   24.1040 C   0  0  0  0  0  2  0  0  0  0  0  0
  -25.8820  -27.5280   23.9280 O   0  0  0  0  0  0  0  0  0  0  0  0
  -26.4550  -26.6890   22.7880 C   0  0  0  0  0  3  0  0  0  0  0  0
  -28.0750  -26.5170   22.4550 C   0  0  0  0  0  3  0  0  0  0  0  0
  -28.6950  -25.9040   21.0370 C   0  0  0  0  0  3  0  0  0  0  0  0
  -30.3110  -25.7790   20.6840 C   0  0  0  0  0  3  0  0  0  0  0  0
  -30.8390  -25.2170   19.3700 O   0  0  0  0  0  0  0  0  0  0  0  0
  -32.3230  -25.0990   19.0330 C   0  0  0  0  0  3  0  0  0  0  0  0
  -32.8930  -24.5540   17.5680 C   0  0  0  0  0  3  0  0  0  0  0  0
  -34.5050  -24.4540   17.1530 C   0  0  0  0  0  2  0  0  0  0  0  0
  -36.2260  -23.7700   15.1070 C   0  0  0  0  0  0  0  0  0  0  0  0
  -37.1770  -23.3050   12.7940 C   0  0  0  0  0  2  0  0  0  0  0  0
  -36.4450  -24.1390   11.7140 C   0  0  0  0  0  2  0  0  0  0  0  0
  -35.1150  -23.4790   11.2950 C   0  0  0  0  0  2  0  0  0  0  0  0
  -34.2920  -23.0030   12.5210 C   0  0  0  0  0  3  0  0  0  0  0  0
  -35.1630  -22.1760   13.4810 C   0  0  0  0  0  2  0  0  0  0  0  0
  -36.2380  -23.0590   13.9240 N   0  0  0  0  0  0  0  0  0  0  0  0
  -37.2430  -24.4080   15.4210 O   0  0  0  0  0  0  0  0  0  0  0  0
  -35.0020  -23.8110   15.8210 N   0  0  0  0  0  0  0  0  0  0  0  0
  -34.2940  -23.2570   15.3650 H   0  0  0  0  0  0  0  0  0  0  0  0
  -31.7930  -22.4570   12.5670 C   0  0  0  0  0  0  0  0  0  0  0  0
  -31.0440  -21.5450   11.8730 C   0  0  0  0  0  0  0  0  0  0  0  0
  -31.9590  -20.8320   11.0410 C   0  0  0  0  0  0  0  0  0  0  0  0
  -33.0960  -22.2700   12.1390 N   0  0  0  0  0  0  0  0  0  0  0  0
  -33.2000  -21.2440   11.2590 N   0  0  0  0  0  0  0  0  0  0  0  0
  -31.7180  -19.8220   10.0040 C   0  0  0  0  0  0  0  0  0  0  0  0
  -32.4240  -18.5990    9.9850 C   0  0  0  0  0  3  0  0  0  0  0  0
  -32.1590  -17.6380    8.9880 C   0  0  0  0  0  3  0  0  0  0  0  0
  -31.1790  -17.8940    7.9990 C   0  0  0  0  0  0  0  0  0  0  0  0
  -30.4970  -19.1220    8.0100 C   0  0  0  0  0  3  0  0  0  0  0  0
  -30.7660  -20.0800    8.9990 C   0  0  0  0  0  3  0  0  0  0  0  0
  -30.8710  -17.0290    6.9760 O   0  0  0  0  0  0  0  0  0  0  0  0
  -31.0880  -15.6780    7.0860 C   0  0  0  0  0  0  0  0  0  0  0  0
  -30.5350  -14.9180    8.1400 C   0  0  0  0  0  3  0  0  0  0  0  0
  -30.7250  -13.5220    8.1760 C   0  0  0  0  0  3  0  0  0  0  0  0
  -31.4570  -12.8850    7.1560 C   0  0  0  0  0  0  0  0  0  0  0  0
  -32.0040  -13.6400    6.1040 C   0  0  0  0  0  3  0  0  0  0  0  0
  -31.8170  -15.0320    6.0680 C   0  0  0  0  0  0  0  0  0  0  0  0
  -32.3280  -15.7520    5.0400 F   0  0  0  0  0  0  0  0  0  0  0  0
  -31.6330  -11.5420    7.1860 F   0  0  0  0  0  0  0  0  0  0  0  0
  -29.5500  -21.4110   11.9090 C   0  0  0  0  0  0  0  0  0  0  0  0
  -29.0410  -20.2010   11.6970 N   0  0  0  0  0  0  0  0  0  0  0  0
  -28.8290  -22.3690   12.1770 O   0  0  0  0  0  0  0  0  0  0  0  0
  -29.6370  -19.4120   11.4990 H   0  0  0  0  0  0  0  0  0  0  0  0
  -28.0400  -20.0640   11.7320 H   0  0  0  0  0  0  0  0  0  0  0  0
  -31.4740  -23.4330   13.5060 N   0  0  0  0  0  0  0  0  0  0  0  0
  -30.5130  -23.6240   13.7720 H   0  0  0  0  0  0  0  0  0  0  0  0
  -32.1300  -24.1000   13.8960 H   0  0  0  0  0  0  0  0  0  0  0  0
  1  2  1  0
  2  4  1  0
  2 56  1  0
  3  1  2  0
  6  5  1  0
  6  1  1  0
  7  9  1  0
  7  6  1  0
  8  7  2  0
  9 12  1  0
 10  8  1  0
 11  8  1  0
 13  9  1  0
 13 14  1  0
 15 14  1  0
 16 27  2  0
 17 15  1  0
 17 22  1  0
 18 26  1  0
 18 28  1  0
 19 24  1  0
 19 25  1  0
 19 21  1  0
 20 26  1  0
 21 20  1  0
 22 21  2  0
 23 24  2  0
 23 17  1  0
 25 18  1  0
 26 16  1  0
 28 29  1  0
 28 30  2  0
 29 31  1  0
 32 41  2  0
 32 37  1  0
 33 29  1  0
 33 37  1  0
 34 33  1  0
 35 36  1  0
 35 34  1  0
 36 32  1  0
 37 38  2  0
 38 39  1  0
 40 39  2  0
 41 40  1  0
 42 16  1  0
 42 43  1  0
 42 52  1  0
 43 46  1  0
 44 48  1  0
 44 43  1  0
 45 44  2  0
 48 47  1  0
 50 48  1  0
 50 51  1  0
 50 49  1  0
 52 55  1  1
 52 53  1  0
 54 52  1  0
 56 57  1  0
 58 57  1  0
 59 58  1  0
 60 59  1  0
 61 60  2  0
 62 61  1  0
 63 62  2  0
 64 63  1  0
 65 64  1  0
 66 65  2  0
 67 66  1  0
 68 75  2  0
 68 76  1  0
 69 74  1  0
 70 69  1  0
 71 70  1  0
 72 71  1  0
 72 73  1  0
 73 74  1  0
 74 68  1  0
 76 67  1  0
 77 76  1  0
 78103  1  0
 79 98  1  0
 79 78  2  0
 80 82  2  0
 80 79  1  0
 81 72  1  0
 81 78  1  0
 82 81  1  0
 83 80  1  0
 84 83  1  0
 85 84  2  0
 86 87  2  0
 86 85  1  0
 87 88  1  0
 88 83  2  0
 89 90  1  0
 89 86  1  0
 90 91  1  0
 91 92  2  0
 93 97  1  0
 93 92  1  0
 94 93  2  0
 95 94  1  0
 95 90  2  0
 96 95  1  0
 98100  2  0
 99102  1  0
 99 98  1  0
101 99  1  0
103104  1  0
103105  1  0
M  ISO  4  14 101  15 101  68 100  76 100
M  END
>  <TORSDO>  (52) 
F 32

>  <SCORE>  (52) 
17.030

>  <name>  (52) 
54

>  <ligand_id>  (52) 
54

>  <original_smiles>  (52) 
[H]c1c([H])c([H])c2c(c1[H])C([H])([H])C([H])([H])C([H])([H])C2([H])N([H])C(=O)C1([H])N(C(=O)C([H])(N([H])C(=O)C([H])(N([H])C([H])([H])[H])C([H])([H])[H])C(C([H])([H])[H])(C([H])([H])[H])C([H])([H])[H])C([H])([H])c2c([H])c(OC([H])([H])C([H])([H])[N+]([H])=C(N([H])[H])C([H])(C(=O)N([H])C([H])([H])C([H])([H])C([H])([H])OC([H])([H])C([H])([H])C([H])([H])C([H])([H])OC([H])([H])C([H])([H])C([H])([H])N([H])C(=O)N3C([H])([H])C([H])([H])C([H])([H])C([H])(n4nc(-c5c([H])c([H])c(Oc6c([H])c([H])c(F)c([H])c6F)c([H])c5[H])c(C(=O)N([H])[H])c4N([H])[H])C3([H])[H])C([H])([H])[H])c([H])c([H])c2C1([H])[H]

>  <smiles>  (52) 
[H]c1c([H])c([H])c2c(c1[H])C([H])([H])C([H])([H])C([H])([H])C2([H])N([H])C(=O)C1([H])N(C(=O)C([H])(N([H])C(=O)C([H])(N([H])C([H])([H])[H])C([H])([H])[H])C(C([H])([H])[H])(C([H])([H])[H])C([H])([H])[H])C([H])([H])c2c([H])c(OC([H])([H])C([H])([H])[N+]([H])=C(N([H])[H])C([H])(C(=O)N([H])C([H])([H])C([H])([H])C([H])([H])OC([H])([H])C([H])([H])C([H])([H])C([H])([H])OC([H])([H])C([H])([H])C([H])([H])N([H])C(=O)N3C([H])([H])C([H])([H])C([H])([H])C([H])(n4nc(-c5c([H])c([H])c(Oc6c([H])c([H])c(F)c([H])c6F)c([H])c5[H])c(C(=O)N([H])[H])c4N([H])[H])C3([H])[H])C([H])([H])[H])c([H])c([H])c2C1([H])[H]

$$$$
55:0:0
     RDKit          3D

100107  0  0  1  0  0  0  0  0999 V2000
  -24.3710  -18.9570   22.7750 C   0  0  0  0  0  2  0  0  0  0  0  0
  -24.0310  -18.5620   21.3260 C   0  0  0  0  0  2  0  0  0  0  0  0
  -26.3050  -18.5610   20.2630 C   0  0  0  0  0  0  0  0  0  0  0  0
  -25.1590  -17.9590   20.6130 N   0  0  0  0  0  0  0  0  0  0  0  0
  -26.6330  -19.6750   20.6820 O   0  0  0  0  0  0  0  0  0  0  0  0
  -25.0020  -17.0330   20.2340 H   0  0  0  0  0  0  0  0  0  0  0  0
  -27.1910  -17.8310   19.2440 C   0  0  0  0  0  2  0  0  0  0  0  0
  -28.4070  -17.3830   19.8470 O   0  0  0  0  0  0  0  0  0  0  0  0
  -29.5520  -17.5680   19.0080 C   0  0  0  0  0  2  0  0  0  0  0  0
  -30.1590  -16.2150   18.5610 C   0  0  0  0  0  2  0  0  0  0  0  0
  -31.4370  -16.3570   17.9180 O   0  0  0  0  0  0  0  0  0  0  0  0
  -35.7890  -21.8970   17.1480 C   0  0  0  0  0  0  0  0  0  0  0  0
  -31.6640  -17.5320   17.2370 C   0  0  0  0  0  0  0  0  0  0  0  0
  -33.5740  -22.1190   16.0770 C   0  0  0  0  0  3  0  0  0  0  0  0
  -32.1890  -19.9830   15.9330 C   0  0  0  0  0  0  0  0  0  0  0  0
  -34.6430  -19.8180   16.3920 C   0  0  0  0  0  2  0  0  0  0  0  0
  -33.2430  -19.2480   16.4910 C   0  0  0  0  0  0  0  0  0  0  0  0
  -32.9870  -18.0190   17.1330 C   0  0  0  0  0  3  0  0  0  0  0  0
  -30.6120  -18.2770   16.6560 C   0  0  0  0  0  3  0  0  0  0  0  0
  -30.8720  -19.5000   16.0090 C   0  0  0  0  0  3  0  0  0  0  0  0
  -32.5480  -21.2900   15.2610 C   0  0  0  0  0  2  0  0  0  0  0  0
  -34.7080  -21.2850   16.5890 N   0  0  0  0  0  0  0  0  0  0  0  0
  -35.8700  -23.1310   17.2070 O   0  0  0  0  0  0  0  0  0  0  0  0
  -32.8210  -22.8790   17.1920 C   0  0  0  0  0  0  0  0  0  0  0  0
  -32.2380  -24.0360   16.8380 N   0  0  0  0  0  0  0  0  0  0  0  0
  -32.7480  -22.4180   18.3340 O   0  0  0  0  0  0  0  0  0  0  0  0
  -32.3430  -24.3470   15.8830 H   0  0  0  0  0  0  0  0  0  0  0  0
  -30.4340  -27.1610   16.9750 C   0  0  0  0  0  0  0  0  0  0  0  0
  -31.4490  -24.9010   17.7120 C   0  0  0  0  0  3  0  0  0  0  0  0
  -29.9920  -24.3970   17.8230 C   0  0  0  0  0  2  0  0  0  0  0  0
  -29.0480  -25.0490   16.8090 C   0  0  0  0  0  2  0  0  0  0  0  0
  -29.0330  -26.5700   16.9870 C   0  0  0  0  0  2  0  0  0  0  0  0
  -31.5670  -26.3740   17.3020 C   0  0  0  0  0  0  0  0  0  0  0  0
  -32.8510  -26.9630   17.2410 C   0  0  0  0  0  3  0  0  0  0  0  0
  -33.0060  -28.3110   16.8710 C   0  0  0  0  0  3  0  0  0  0  0  0
  -31.8770  -29.0910   16.5640 C   0  0  0  0  0  3  0  0  0  0  0  0
  -30.5940  -28.5150   16.6180 C   0  0  0  0  0  3  0  0  0  0  0  0
  -36.9870  -21.0780   17.7230 C   0  0  0  0  0  3  0  0  0  0  0  0
  -38.2240  -21.7030   17.2370 N   0  0  0  0  0  0  0  0  0  0  0  0
  -38.9250  -21.2740   16.1770 C   0  0  0  0  0  0  0  0  0  0  0  0
  -38.6290  -20.2560   15.5470 O   0  0  0  0  0  0  0  0  0  0  0  0
  -38.4910  -22.5760   17.6660 H   0  0  0  0  0  0  0  0  0  0  0  0
  -39.7680  -23.0090   14.5640 C   0  0  0  0  0  1  0  0  0  0  0  0
  -40.1490  -22.1090   15.7500 C   0  0  0  0  0  3  0  0  0  0  0  0
  -41.9070  -20.5860   16.5390 C   0  0  0  0  0  1  0  0  0  0  0  0
  -41.3260  -21.2850   15.3960 N   0  0  0  0  0  0  0  0  0  0  0  0
  -42.0520  -21.8570   14.9730 H   0  0  0  0  0  0  0  0  0  0  0  0
  -36.9850  -20.9940   19.3000 C   0  0  1  0  0  0  0  0  0  0  0  0
  -36.8860  -22.3710   19.9960 C   0  0  0  0  0  1  0  0  0  0  0  0
  -35.8030  -20.1300   19.7960 C   0  0  0  0  0  1  0  0  0  0  0  0
  -38.2750  -20.2940   19.7890 C   0  0  0  0  0  1  0  0  0  0  0  0
  -23.1310  -19.3250   23.6100 C   0  0  0  0  0  2  0  0  0  0  0  0
  -22.6910  -20.7710   23.3470 C   0  0  0  0  0  2  0  0  0  0  0  0
  -21.4090  -21.1750   24.1070 C   0  0  0  0  0  2  0  0  0  0  0  0
  -20.2500  -21.4950   23.1590 C   0  0  0  0  0  0  0  0  0  0  0  0
  -20.4700  -22.4680   22.2700 N   0  0  0  0  0  0  0  0  0  0  0  0
  -19.1940  -20.8660   23.2250 O   0  0  0  0  0  0  0  0  0  0  0  0
  -21.3590  -22.9460   22.3330 H   0  0  0  0  0  0  0  0  0  0  0  0
  -19.5750  -22.8680   21.1980 C   0  0  0  0  0  2  0  0  0  0  0  0
  -19.9770  -22.2370   19.8430 C   0  0  0  0  0  2  0  0  0  0  0  0
  -19.5100  -23.0480   18.6190 C   0  0  0  0  0  2  0  0  0  0  0  0
  -20.3110  -24.3450   18.3630 C   0  0  0  0  0  2  0  0  0  0  0  0
  -19.0300  -26.1020   17.0880 C   0  0  0  0  0  0  0  0  0  0  0  0
  -16.6440  -26.6600   16.8310 C   0  0  0  0  0  2  0  0  0  0  0  0
  -16.1750  -27.8060   17.7460 C   0  0  0  0  0  2  0  0  0  0  0  0
  -15.7550  -27.2780   19.1290 C   0  0  0  0  0  2  0  0  0  0  0  0
  -16.8110  -26.3290   19.7360 C   0  0  0  0  0  3  0  0  0  0  0  0
  -17.2570  -25.2730   18.7090 C   0  0  0  0  0  2  0  0  0  0  0  0
  -17.7400  -25.9350   17.4880 N   0  0  0  0  0  0  0  0  0  0  0  0
  -19.3820  -26.9950   16.3160 O   0  0  0  0  0  0  0  0  0  0  0  0
  -19.8100  -25.0120   17.1640 N   0  0  0  0  0  0  0  0  0  0  0  0
  -20.4630  -24.9670   16.3950 H   0  0  0  0  0  0  0  0  0  0  0  0
  -16.8050  -25.8320   22.2620 C   0  0  0  0  0  0  0  0  0  0  0  0
  -15.9650  -25.0910   23.0490 C   0  0  0  0  0  0  0  0  0  0  0  0
  -14.9890  -24.5350   22.1650 C   0  0  0  0  0  0  0  0  0  0  0  0
  -16.3310  -25.7030   20.9670 N   0  0  0  0  0  0  0  0  0  0  0  0
  -15.2590  -24.8710   20.9100 N   0  0  0  0  0  0  0  0  0  0  0  0
  -13.7780  -23.7550   22.4510 C   0  0  0  0  0  0  0  0  0  0  0  0
  -13.5290  -22.5200   21.8130 C   0  0  0  0  0  3  0  0  0  0  0  0
  -12.3650  -21.7810   22.1120 C   0  0  0  0  0  3  0  0  0  0  0  0
  -11.4380  -22.2740   23.0620 C   0  0  0  0  0  0  0  0  0  0  0  0
  -11.6810  -23.5140   23.6760 C   0  0  0  0  0  3  0  0  0  0  0  0
  -12.8390  -24.2490   23.3760 C   0  0  0  0  0  3  0  0  0  0  0  0
  -10.2720  -21.6360   23.4050 O   0  0  0  0  0  0  0  0  0  0  0  0
  -10.1250  -20.2790   23.2650 C   0  0  0  0  0  0  0  0  0  0  0  0
  -11.1260  -19.3710   23.6780 C   0  0  0  0  0  3  0  0  0  0  0  0
  -10.9040  -17.9840   23.5790 C   0  0  0  0  0  3  0  0  0  0  0  0
   -9.6830  -17.4990   23.0750 C   0  0  0  0  0  0  0  0  0  0  0  0
   -8.6820  -18.3990   22.6720 C   0  0  0  0  0  3  0  0  0  0  0  0
   -8.9020  -19.7840   22.7660 C   0  0  0  0  0  0  0  0  0  0  0  0
   -7.9250  -20.6470   22.3940 F   0  0  0  0  0  0  0  0  0  0  0  0
   -9.4680  -16.1640   22.9880 F   0  0  0  0  0  0  0  0  0  0  0  0
  -16.0000  -24.9810   24.5440 C   0  0  0  0  0  0  0  0  0  0  0  0
  -15.7750  -23.7810   25.0740 N   0  0  0  0  0  0  0  0  0  0  0  0
  -16.2770  -25.9480   25.2510 O   0  0  0  0  0  0  0  0  0  0  0  0
  -15.5850  -22.9840   24.4890 H   0  0  0  0  0  0  0  0  0  0  0  0
  -15.8200  -23.6560   26.0740 H   0  0  0  0  0  0  0  0  0  0  0  0
  -17.9200  -26.6160   22.5440 N   0  0  0  0  0  0  0  0  0  0  0  0
  -18.1890  -26.8400   23.4940 H   0  0  0  0  0  0  0  0  0  0  0  0
  -18.3900  -27.1910   21.8580 H   0  0  0  0  0  0  0  0  0  0  0  0
  1 52  1  0
  2  1  1  0
  3  4  1  0
  3  5  2  0
  4  2  1  0
  6  4  1  0
  7  8  1  0
  7  3  1  0
  9  8  1  0
 10  9  1  0
 11 10  1  0
 12 23  2  0
 13 11  1  0
 14 22  1  0
 14 24  1  0
 15 20  2  0
 15 17  1  0
 16 17  1  0
 16 22  1  0
 17 18  2  0
 18 13  1  0
 19 13  2  0
 20 19  1  0
 21 15  1  0
 21 14  1  0
 22 12  1  0
 24 26  2  0
 25 24  1  0
 27 25  1  0
 28 32  1  0
 28 33  1  0
 29 25  1  0
 29 30  1  0
 31 32  1  0
 31 30  1  0
 33 29  1  0
 34 33  2  0
 35 34  1  0
 36 37  1  0
 36 35  2  0
 37 28  2  0
 38 12  1  0
 38 48  1  0
 39 42  1  0
 39 38  1  0
 40 39  1  0
 41 40  2  0
 44 43  1  0
 44 40  1  0
 46 44  1  0
 46 45  1  0
 47 46  1  0
 48 51  1  1
 48 50  1  0
 48 49  1  0
 53 52  1  0
 53 54  1  0
 55 57  2  0
 55 54  1  0
 56 58  1  0
 56 55  1  0
 59 56  1  0
 60 59  1  0
 61 60  1  0
 62 61  1  0
 63 71  1  0
 63 69  1  0
 64 69  1  0
 64 65  1  0
 65 66  1  0
 66 67  1  0
 67 68  1  0
 67 76  1  0
 69 68  1  0
 70 63  2  0
 71 62  1  0
 72 71  1  0
 73 98  1  0
 73 74  2  0
 74 93  1  0
 75 78  1  0
 75 74  1  0
 76 73  1  0
 77 76  1  0
 77 75  2  0
 78 83  1  0
 79 80  1  0
 79 78  2  0
 80 81  2  0
 81 84  1  0
 81 82  1  0
 83 82  2  0
 85 84  1  0
 85 86  1  0
 87 86  2  0
 88 87  1  0
 89 90  1  0
 89 88  2  0
 90 85  2  0
 91 90  1  0
 92 88  1  0
 93 94  1  0
 93 95  2  0
 94 97  1  0
 96 94  1  0
 98 99  1  0
100 98  1  0
M  ISO  4  10 101  11 101  63 100  71 100
M  END
>  <TORSDO>  (53) 
F 30

>  <SCORE>  (53) 
35.275

>  <name>  (53) 
55

>  <ligand_id>  (53) 
55

>  <original_smiles>  (53) 
[H]c1c([H])c([H])c2c(c1[H])C([H])([H])C([H])([H])C([H])([H])C2([H])N([H])C(=O)C1([H])N(C(=O)C([H])(N([H])C(=O)C([H])(N([H])C([H])([H])[H])C([H])([H])[H])C(C([H])([H])[H])(C([H])([H])[H])C([H])([H])[H])C([H])([H])c2c([H])c(OC([H])([H])C([H])([H])OC([H])([H])C(=O)N([H])C([H])([H])C([H])([H])C([H])([H])C([H])([H])C([H])([H])C(=O)N([H])C([H])([H])C([H])([H])C([H])([H])C([H])([H])N([H])C(=O)N3C([H])([H])C([H])([H])C([H])([H])C([H])(n4nc(-c5c([H])c([H])c(Oc6c([H])c([H])c(F)c([H])c6F)c([H])c5[H])c(C(=O)N([H])[H])c4N([H])[H])C3([H])[H])c([H])c([H])c2C1([H])[H]

>  <smiles>  (53) 
[H]c1c([H])c([H])c2c(c1[H])C([H])([H])C([H])([H])C([H])([H])C2([H])N([H])C(=O)C1([H])N(C(=O)C([H])(N([H])C(=O)C([H])(N([H])C([H])([H])[H])C([H])([H])[H])C(C([H])([H])[H])(C([H])([H])[H])C([H])([H])[H])C([H])([H])c2c([H])c(OC([H])([H])C([H])([H])OC([H])([H])C(=O)N([H])C([H])([H])C([H])([H])C([H])([H])C([H])([H])C([H])([H])C(=O)N([H])C([H])([H])C([H])([H])C([H])([H])C([H])([H])N([H])C(=O)N3C([H])([H])C([H])([H])C([H])([H])C([H])(n4nc(-c5c([H])c([H])c(Oc6c([H])c([H])c(F)c([H])c6F)c([H])c5[H])c(C(=O)N([H])[H])c4N([H])[H])C3([H])[H])c([H])c([H])c2C1([H])[H]

$$$$
56:0:0
     RDKit          3D

100107  0  0  1  0  0  0  0  0999 V2000
  -24.0930  -22.4560   24.6960 C   0  0  0  0  0  2  0  0  0  0  0  0
  -23.9310  -21.2910   23.8990 O   0  0  0  0  0  0  0  0  0  0  0  0
  -24.4340  -20.1200   24.5250 C   0  0  0  0  0  2  0  0  0  0  0  0
  -24.0920  -18.8910   23.6710 C   0  0  0  0  0  2  0  0  0  0  0  0
  -24.9820  -18.8180   22.5670 O   0  0  0  0  0  0  0  0  0  0  0  0
  -24.7620  -17.6800   21.7410 C   0  0  0  0  0  2  0  0  0  0  0  0
  -25.5690  -17.8540   20.4470 C   0  0  0  0  0  2  0  0  0  0  0  0
  -26.9500  -17.7380   20.7630 O   0  0  0  0  0  0  0  0  0  0  0  0
  -27.8140  -18.0020   19.6660 C   0  0  0  0  0  2  0  0  0  0  0  0
  -29.2430  -18.1200   20.2120 C   0  0  0  0  0  2  0  0  0  0  0  0
  -29.8120  -16.8320   20.4160 O   0  0  0  0  0  0  0  0  0  0  0  0
  -30.8710  -16.8440   21.3690 C   0  0  0  0  0  2  0  0  0  0  0  0
  -31.8490  -15.7000   21.0820 C   0  0  0  0  0  2  0  0  0  0  0  0
  -31.4570  -13.5840   19.8440 C   0  0  0  0  0  0  0  0  0  0  0  0
  -30.8140  -11.4990   18.6980 C   0  0  0  0  0  2  0  0  0  0  0  0
  -29.8260  -11.7820   17.5520 C   0  0  0  0  0  2  0  0  0  0  0  0
  -28.3780  -11.8030   18.0770 C   0  0  0  0  0  2  0  0  0  0  0  0
  -28.2120  -12.7140   19.3220 C   0  0  0  0  0  3  0  0  0  0  0  0
  -29.2950  -12.3970   20.3750 C   0  0  0  0  0  2  0  0  0  0  0  0
  -30.6180  -12.5230   19.7330 N   0  0  0  0  0  0  0  0  0  0  0  0
  -32.4620  -13.7360   19.1440 O   0  0  0  0  0  0  0  0  0  0  0  0
  -31.1340  -14.4600   20.7980 N   0  0  0  0  0  0  0  0  0  0  0  0
  -30.2840  -14.2870   21.3120 H   0  0  0  0  0  0  0  0  0  0  0  0
  -25.9540  -13.6060   20.1820 C   0  0  0  0  0  0  0  0  0  0  0  0
  -24.8250  -12.9670   20.6180 C   0  0  0  0  0  0  0  0  0  0  0  0
  -25.1150  -11.5680   20.5580 C   0  0  0  0  0  0  0  0  0  0  0  0
  -26.8680  -12.6070   19.8850 N   0  0  0  0  0  0  0  0  0  0  0  0
  -26.3680  -11.3750   20.1650 N   0  0  0  0  0  0  0  0  0  0  0  0
  -24.2570  -10.4020   20.7960 C   0  0  0  0  0  0  0  0  0  0  0  0
  -24.6120   -9.4010   21.7270 C   0  0  0  0  0  3  0  0  0  0  0  0
  -23.7630   -8.2960   21.9500 C   0  0  0  0  0  3  0  0  0  0  0  0
  -22.5420   -8.1860   21.2430 C   0  0  0  0  0  0  0  0  0  0  0  0
  -22.2040   -9.1740   20.3010 C   0  0  0  0  0  3  0  0  0  0  0  0
  -23.0530  -10.2710   20.0760 C   0  0  0  0  0  3  0  0  0  0  0  0
  -21.6670   -7.1360   21.3760 O   0  0  0  0  0  0  0  0  0  0  0  0
  -21.5520   -6.4390   22.5510 C   0  0  0  0  0  0  0  0  0  0  0  0
  -21.2090   -7.0750   23.7650 C   0  0  0  0  0  3  0  0  0  0  0  0
  -21.0340   -6.3100   24.9350 C   0  0  0  0  0  3  0  0  0  0  0  0
  -21.1910   -4.9120   24.8930 C   0  0  0  0  0  0  0  0  0  0  0  0
  -21.5270   -4.2760   23.6850 C   0  0  0  0  0  3  0  0  0  0  0  0
  -21.7040   -5.0370   22.5160 C   0  0  0  0  0  0  0  0  0  0  0  0
  -22.0070   -4.4180   21.3500 F   0  0  0  0  0  0  0  0  0  0  0  0
  -21.0150   -4.1740   26.0160 F   0  0  0  0  0  0  0  0  0  0  0  0
  -23.5170  -13.6090   20.9830 C   0  0  0  0  0  0  0  0  0  0  0  0
  -22.7660  -12.9980   21.8930 N   0  0  0  0  0  0  0  0  0  0  0  0
  -23.1750  -14.6870   20.4980 O   0  0  0  0  0  0  0  0  0  0  0  0
  -23.0540  -12.1240   22.3090 H   0  0  0  0  0  0  0  0  0  0  0  0
  -21.8910  -13.4120   22.1790 H   0  0  0  0  0  0  0  0  0  0  0  0
  -26.2760  -14.9460   20.0000 N   0  0  0  0  0  0  0  0  0  0  0  0
  -25.6250  -15.6910   20.2110 H   0  0  0  0  0  0  0  0  0  0  0  0
  -27.1900  -15.2870   19.7260 H   0  0  0  0  0  0  0  0  0  0  0  0
  -24.0270  -23.7040   23.8010 C   0  0  0  0  0  2  0  0  0  0  0  0
  -25.4640  -23.5800   21.7610 C   0  0  0  0  0  0  0  0  0  0  0  0
  -25.2590  -23.9090   23.0420 N   0  0  0  0  0  0  0  0  0  0  0  0
  -24.6260  -22.9870   21.0810 O   0  0  0  0  0  0  0  0  0  0  0  0
  -26.0070  -24.3890   23.5260 H   0  0  0  0  0  0  0  0  0  0  0  0
  -26.7960  -24.0090   21.1320 C   0  0  0  0  0  2  0  0  0  0  0  0
  -26.5930  -24.8270   19.8370 C   0  0  0  0  0  2  0  0  0  0  0  0
  -27.5860  -25.9920   19.6530 C   0  0  0  0  0  2  0  0  0  0  0  0
  -27.1480  -26.8690   18.6140 O   0  0  0  0  0  0  0  0  0  0  0  0
  -24.9050  -31.4370   23.5760 C   0  0  0  0  0  0  0  0  0  0  0  0
  -26.1740  -27.7460   19.0210 C   0  0  0  0  0  0  0  0  0  0  0  0
  -23.2230  -30.7550   21.8930 C   0  0  0  0  0  3  0  0  0  0  0  0
  -24.1320  -29.4910   19.8720 C   0  0  0  0  0  0  0  0  0  0  0  0
  -25.7110  -30.7890   21.3140 C   0  0  0  0  0  2  0  0  0  0  0  0
  -25.4390  -29.6560   20.3490 C   0  0  0  0  0  0  0  0  0  0  0  0
  -26.4650  -28.7850   19.9310 C   0  0  0  0  0  3  0  0  0  0  0  0
  -24.8620  -27.6030   18.5260 C   0  0  0  0  0  3  0  0  0  0  0  0
  -23.8350  -28.4620   18.9590 C   0  0  0  0  0  3  0  0  0  0  0  0
  -23.0940  -30.4700   20.3710 C   0  0  0  0  0  2  0  0  0  0  0  0
  -24.6420  -30.9880   22.3180 N   0  0  0  0  0  0  0  0  0  0  0  0
  -23.9870  -31.7010   24.3660 O   0  0  0  0  0  0  0  0  0  0  0  0
  -22.5330  -29.6100   22.6680 C   0  0  0  0  0  0  0  0  0  0  0  0
  -21.1950  -29.5510   22.5780 N   0  0  0  0  0  0  0  0  0  0  0  0
  -23.1970  -28.7870   23.3060 O   0  0  0  0  0  0  0  0  0  0  0  0
  -20.7230  -30.2670   22.0440 H   0  0  0  0  0  0  0  0  0  0  0  0
  -17.7880  -28.3740   22.7990 C   0  0  0  0  0  0  0  0  0  0  0  0
  -20.3370  -28.5400   23.1930 C   0  0  0  0  0  3  0  0  0  0  0  0
  -20.4380  -27.1920   22.4410 C   0  0  0  0  0  2  0  0  0  0  0  0
  -19.3700  -27.0270   21.3550 C   0  0  0  0  0  2  0  0  0  0  0  0
  -17.9670  -27.1180   21.9630 C   0  0  0  0  0  2  0  0  0  0  0  0
  -18.9020  -29.0500   23.3630 C   0  0  0  0  0  0  0  0  0  0  0  0
  -18.6830  -30.2340   24.1010 C   0  0  0  0  0  3  0  0  0  0  0  0
  -17.3810  -30.7390   24.2830 C   0  0  0  0  0  3  0  0  0  0  0  0
  -16.2820  -30.0580   23.7350 C   0  0  0  0  0  3  0  0  0  0  0  0
  -16.4850  -28.8770   22.9990 C   0  0  0  0  0  3  0  0  0  0  0  0
  -26.3670  -31.6660   24.0740 C   0  0  0  0  0  3  0  0  0  0  0  0
  -26.3940  -32.9490   24.7880 N   0  0  0  0  0  0  0  0  0  0  0  0
  -26.8590  -34.0970   24.2730 C   0  0  0  0  0  0  0  0  0  0  0  0
  -27.3830  -34.1650   23.1570 O   0  0  0  0  0  0  0  0  0  0  0  0
  -25.9310  -32.9780   25.6840 H   0  0  0  0  0  0  0  0  0  0  0  0
  -25.5270  -36.1970   24.6330 C   0  0  0  0  0  1  0  0  0  0  0  0
  -26.7200  -35.3670   25.1310 C   0  0  0  0  0  3  0  0  0  0  0  0
  -29.0600  -35.5820   25.8430 C   0  0  0  0  0  1  0  0  0  0  0  0
  -27.9390  -36.2050   25.1450 N   0  0  0  0  0  0  0  0  0  0  0  0
  -27.7540  -37.1050   25.5820 H   0  0  0  0  0  0  0  0  0  0  0  0
  -26.9000  -30.5010   24.9940 C   0  0  1  0  0  0  0  0  0  0  0  0
  -25.9510  -30.1490   26.1630 C   0  0  0  0  0  1  0  0  0  0  0  0
  -27.1270  -29.2140   24.1660 C   0  0  0  0  0  1  0  0  0  0  0  0
  -28.2720  -30.8900   25.5930 C   0  0  0  0  0  1  0  0  0  0  0  0
  2  3  1  0
  2  1  1  0
  4  3  1  0
  5  4  1  0
  6  5  1  0
  7  8  1  0
  7  6  1  0
  9 10  1  0
  9  8  1  0
 10 11  1  0
 11 12  1  0
 13 12  1  0
 14 22  1  0
 15 20  1  0
 16 17  1  0
 16 15  1  0
 18 17  1  0
 18 27  1  0
 18 19  1  0
 20 14  1  0
 20 19  1  0
 21 14  2  0
 22 13  1  0
 22 23  1  0
 24 25  2  0
 25 44  1  0
 26 25  1  0
 26 29  1  0
 27 28  1  0
 27 24  1  0
 28 26  2  0
 29 30  1  0
 30 31  2  0
 32 35  1  0
 32 31  1  0
 33 32  2  0
 34 33  1  0
 34 29  2  0
 35 36  1  0
 36 37  1  0
 37 38  2  0
 39 38  1  0
 39 43  1  0
 40 39  2  0
 41 36  2  0
 41 40  1  0
 42 41  1  0
 44 45  1  0
 45 48  1  0
 45 47  1  0
 46 44  2  0
 49 24  1  0
 49 50  1  0
 51 49  1  0
 52  1  1  0
 53 54  1  0
 54 56  1  0
 54 52  1  0
 55 53  2  0
 57 53  1  0
 58 57  1  0
 59 58  1  0
 60 62  1  0
 60 59  1  0
 61 72  2  0
 62 67  1  0
 63 71  1  0
 63 73  1  0
 64 66  1  0
 64 70  1  0
 65 71  1  0
 66 65  1  0
 67 66  2  0
 68 69  1  0
 68 62  2  0
 69 64  2  0
 70 63  1  0
 71 61  1  0
 73 75  2  0
 74 73  1  0
 76 74  1  0
 77 86  2  0
 77 82  1  0
 78 74  1  0
 78 82  1  0
 79 78  1  0
 80 81  1  0
 80 79  1  0
 81 77  1  0
 82 83  2  0
 83 84  1  0
 85 84  2  0
 86 85  1  0
 87 61  1  0
 87 88  1  0
 87 97  1  0
 88 91  1  0
 89 88  1  0
 89 93  1  0
 90 89  2  0
 93 92  1  0
 93 95  1  0
 95 96  1  0
 95 94  1  0
 97100  1  1
 97 98  1  0
 99 97  1  0
M  ISO  4  14 100  22 100  59 101  60 101
M  END
>  <TORSDO>  (54) 
F 33

>  <SCORE>  (54) 
18.770

>  <name>  (54) 
56

>  <ligand_id>  (54) 
56

>  <original_smiles>  (54) 
[H]c1c([H])c([H])c2c(c1[H])C([H])([H])C([H])([H])C([H])([H])C2([H])N([H])C(=O)C1([H])N(C(=O)C([H])(N([H])C(=O)C([H])(N([H])C([H])([H])[H])C([H])([H])[H])C(C([H])([H])[H])(C([H])([H])[H])C([H])([H])[H])C([H])([H])c2c([H])c(OC([H])([H])C([H])([H])C([H])([H])C(=O)N([H])C([H])([H])C([H])([H])OC([H])([H])C([H])([H])OC([H])([H])C([H])([H])OC([H])([H])C([H])([H])OC([H])([H])C([H])([H])N([H])C(=O)N3C([H])([H])C([H])([H])C([H])([H])C([H])(n4nc(-c5c([H])c([H])c(Oc6c([H])c([H])c(F)c([H])c6F)c([H])c5[H])c(C(=O)N([H])[H])c4N([H])[H])C3([H])[H])c([H])c([H])c2C1([H])[H]

>  <smiles>  (54) 
[H]c1c([H])c([H])c2c(c1[H])C([H])([H])C([H])([H])C([H])([H])C2([H])N([H])C(=O)C1([H])N(C(=O)C([H])(N([H])C(=O)C([H])(N([H])C([H])([H])[H])C([H])([H])[H])C(C([H])([H])[H])(C([H])([H])[H])C([H])([H])[H])C([H])([H])c2c([H])c(OC([H])([H])C([H])([H])C([H])([H])C(=O)N([H])C([H])([H])C([H])([H])OC([H])([H])C([H])([H])OC([H])([H])C([H])([H])OC([H])([H])C([H])([H])OC([H])([H])C([H])([H])N([H])C(=O)N3C([H])([H])C([H])([H])C([H])([H])C([H])(n4nc(-c5c([H])c([H])c(Oc6c([H])c([H])c(F)c([H])c6F)c([H])c5[H])c(C(=O)N([H])[H])c4N([H])[H])C3([H])[H])c([H])c([H])c2C1([H])[H]

$$$$
57:0:0
     RDKit          3D

109117  0  0  1  0  0  0  0  0999 V2000
  -22.1120  -23.2180   16.9210 C   0  0  0  0  0  2  0  0  0  0  0  0
  -22.7410  -21.8560   16.6310 C   0  0  0  0  0  2  0  0  0  0  0  0
  -22.2410  -23.3250   18.4360 C   0  0  0  0  0  2  0  0  0  0  0  0
  -23.8380  -21.6880   17.7030 C   0  0  0  0  0  3  0  0  0  0  0  0
  -23.5220  -22.6700   18.7710 N   0  0  2  0  0  4  0  0  0  0  0  0
  -24.2500  -23.3690   18.6570 H   0  0  0  0  0  0  0  0  0  0  0  0
  -25.2280  -22.0190   17.1470 C   0  0  0  0  0  0  0  0  0  0  0  0
  -26.0210  -21.0000   16.7990 N   0  0  0  0  0  0  0  0  0  0  0  0
  -25.5840  -23.1980   17.0790 O   0  0  0  0  0  0  0  0  0  0  0  0
  -25.6470  -20.0600   16.8590 H   0  0  0  0  0  0  0  0  0  0  0  0
  -27.4040  -21.1260   16.3440 C   0  0  0  0  0  2  0  0  0  0  0  0
  -28.3950  -20.6900   17.4350 C   0  0  0  0  0  2  0  0  0  0  0  0
  -28.2120  -19.2140   17.8110 C   0  0  0  0  0  2  0  0  0  0  0  0
  -29.0680  -18.7780   18.9990 C   0  0  0  0  0  2  0  0  0  0  0  0
  -28.5460  -17.4740   19.6210 C   0  0  0  0  0  2  0  0  0  0  0  0
  -28.8770  -17.3780   21.1120 C   0  0  0  0  0  2  0  0  0  0  0  0
  -30.2150  -16.9370   21.2340 O   0  0  0  0  0  0  0  0  0  0  0  0
  -30.8820  -17.4270   22.3860 C   0  0  0  0  0  2  0  0  0  0  0  0
  -31.4930  -16.2350   23.1380 C   0  0  0  0  0  2  0  0  0  0  0  0
  -32.4120  -15.5030   22.3300 O   0  0  0  0  0  0  0  0  0  0  0  0
  -31.8670  -14.3020   21.8040 C   0  0  0  0  0  2  0  0  0  0  0  0
  -32.9030  -13.6120   20.9140 C   0  0  0  0  0  2  0  0  0  0  0  0
  -32.4920  -11.4510   19.9000 C   0  0  0  0  0  0  0  0  0  0  0  0
  -31.7370   -9.1930   20.5110 C   0  0  0  0  0  2  0  0  0  0  0  0
  -30.7420   -8.6420   19.4720 C   0  0  0  0  0  2  0  0  0  0  0  0
  -29.3020   -9.0630   19.8110 C   0  0  0  0  0  2  0  0  0  0  0  0
  -29.1840  -10.5810   20.0870 C   0  0  0  0  0  3  0  0  0  0  0  0
  -30.2790  -11.0610   21.0650 C   0  0  0  0  0  2  0  0  0  0  0  0
  -31.6010  -10.6550   20.5480 N   0  0  0  0  0  0  0  0  0  0  0  0
  -33.4700  -11.0330   19.2780 O   0  0  0  0  0  0  0  0  0  0  0  0
  -32.2510  -12.7570   19.9260 N   0  0  0  0  0  0  0  0  0  0  0  0
  -32.4160  -13.1460   19.0100 H   0  0  0  0  0  0  0  0  0  0  0  0
  -27.2980  -12.1780   20.8080 C   0  0  0  0  0  0  0  0  0  0  0  0
  -25.9970  -11.9540   21.1590 C   0  0  0  0  0  0  0  0  0  0  0  0
  -25.8050  -10.5390   21.0970 C   0  0  0  0  0  0  0  0  0  0  0  0
  -27.8450  -10.9280   20.5630 N   0  0  0  0  0  0  0  0  0  0  0  0
  -26.9450   -9.9370   20.7930 N   0  0  0  0  0  0  0  0  0  0  0  0
  -24.5920   -9.7260   21.2560 C   0  0  0  0  0  0  0  0  0  0  0  0
  -24.5650   -8.5950   22.1030 C   0  0  0  0  0  3  0  0  0  0  0  0
  -23.3810   -7.8430   22.2520 C   0  0  0  0  0  3  0  0  0  0  0  0
  -22.2080   -8.2180   21.5560 C   0  0  0  0  0  0  0  0  0  0  0  0
  -22.2450   -9.3320   20.6970 C   0  0  0  0  0  3  0  0  0  0  0  0
  -23.4270  -10.0780   20.5470 C   0  0  0  0  0  3  0  0  0  0  0  0
  -21.0190   -7.5310   21.6220 O   0  0  0  0  0  0  0  0  0  0  0  0
  -20.7170   -6.7180   22.6860 C   0  0  0  0  0  0  0  0  0  0  0  0
  -20.6770   -7.2080   24.0090 C   0  0  0  0  0  3  0  0  0  0  0  0
  -20.2880   -6.3570   25.0630 C   0  0  0  0  0  3  0  0  0  0  0  0
  -19.9350   -5.0200   24.7970 C   0  0  0  0  0  0  0  0  0  0  0  0
  -19.9750   -4.5320   23.4790 C   0  0  0  0  0  3  0  0  0  0  0  0
  -20.3610   -5.3790   22.4270 C   0  0  0  0  0  0  0  0  0  0  0  0
  -20.3730   -4.9110   21.1550 F   0  0  0  0  0  0  0  0  0  0  0  0
  -19.5570   -4.2020   25.8070 F   0  0  0  0  0  0  0  0  0  0  0  0
  -24.9510  -12.9930   21.4470 C   0  0  0  0  0  0  0  0  0  0  0  0
  -23.9930  -12.6790   22.3070 N   0  0  0  0  0  0  0  0  0  0  0  0
  -25.0090  -14.1120   20.9370 O   0  0  0  0  0  0  0  0  0  0  0  0
  -23.9490  -11.7660   22.7380 H   0  0  0  0  0  0  0  0  0  0  0  0
  -23.2840  -13.3610   22.5370 H   0  0  0  0  0  0  0  0  0  0  0  0
  -28.0600  -13.3300   20.6530 N   0  0  0  0  0  0  0  0  0  0  0  0
  -27.6850  -14.2610   20.7840 H   0  0  0  0  0  0  0  0  0  0  0  0
  -29.0250  -13.3250   20.3470 H   0  0  0  0  0  0  0  0  0  0  0  0
  -23.6070  -22.1660   20.1660 C   0  0  0  0  0  2  0  0  0  0  0  0
  -25.0630  -21.9340   20.5890 C   0  0  0  0  0  2  0  0  0  0  0  0
  -25.7520  -23.1790   20.4980 O   0  0  0  0  0  0  0  0  0  0  0  0
  -27.0590  -23.1200   21.0600 C   0  0  0  0  0  2  0  0  0  0  0  0
  -27.8470  -24.4080   20.7470 C   0  0  0  0  0  2  0  0  0  0  0  0
  -28.2110  -24.4020   19.3680 O   0  0  0  0  0  0  0  0  0  0  0  0
  -29.5940  -24.6070   19.0620 C   0  0  0  0  0  2  0  0  0  0  0  0
  -30.1480  -26.0250   19.3210 C   0  0  0  0  0  2  0  0  0  0  0  0
  -29.8070  -26.9230   18.2650 O   0  0  0  0  0  0  0  0  0  0  0  0
  -25.7460  -29.8100   23.2900 C   0  0  0  0  0  0  0  0  0  0  0  0
  -28.6560  -27.6010   18.5410 C   0  0  0  0  0  0  0  0  0  0  0  0
  -24.6580  -29.4320   21.1000 C   0  0  0  0  0  3  0  0  0  0  0  0
  -26.2220  -28.8580   19.1640 C   0  0  0  0  0  0  0  0  0  0  0  0
  -27.1720  -29.8610   21.2540 C   0  0  0  0  0  2  0  0  0  0  0  0
  -27.3250  -29.0100   20.0140 C   0  0  0  0  0  0  0  0  0  0  0  0
  -28.5440  -28.3780   19.7110 C   0  0  0  0  0  3  0  0  0  0  0  0
  -27.5570  -27.4810   17.6680 C   0  0  0  0  0  3  0  0  0  0  0  0
  -26.3310  -28.0940   17.9870 C   0  0  0  0  0  3  0  0  0  0  0  0
  -24.9460  -29.5520   19.5750 C   0  0  0  0  0  2  0  0  0  0  0  0
  -25.8750  -29.6820   21.9400 N   0  0  0  0  0  0  0  0  0  0  0  0
  -24.6330  -29.7630   23.8330 O   0  0  0  0  0  0  0  0  0  0  0  0
  -24.0080  -28.0570   21.3650 C   0  0  0  0  0  0  0  0  0  0  0  0
  -22.7190  -27.9330   21.0150 N   0  0  0  0  0  0  0  0  0  0  0  0
  -24.6620  -27.1270   21.8420 O   0  0  0  0  0  0  0  0  0  0  0  0
  -22.2460  -28.7480   20.6520 H   0  0  0  0  0  0  0  0  0  0  0  0
  -19.4640  -26.5510   20.2920 C   0  0  0  0  0  0  0  0  0  0  0  0
  -21.9070  -26.7230   21.1190 C   0  0  0  0  0  3  0  0  0  0  0  0
  -22.2620  -25.7250   19.9900 C   0  0  0  0  0  2  0  0  0  0  0  0
  -21.3560  -25.8510   18.7620 C   0  0  0  0  0  2  0  0  0  0  0  0
  -19.8880  -25.6450   19.1460 C   0  0  0  0  0  2  0  0  0  0  0  0
  -20.4150  -27.0680   21.2100 C   0  0  0  0  0  0  0  0  0  0  0  0
  -19.9740  -27.9400   22.2310 C   0  0  0  0  0  3  0  0  0  0  0  0
  -18.6140  -28.2870   22.3460 C   0  0  0  0  0  3  0  0  0  0  0  0
  -17.6760  -27.7520   21.4470 C   0  0  0  0  0  3  0  0  0  0  0  0
  -18.1010  -26.8870   20.4210 C   0  0  0  0  0  3  0  0  0  0  0  0
  -26.9830  -30.0400   24.2130 C   0  0  0  0  0  3  0  0  0  0  0  0
  -27.4140  -28.7460   25.0060 C   0  0  1  0  0  0  0  0  0  0  0  0
  -26.2510  -28.0700   25.7670 C   0  0  0  0  0  1  0  0  0  0  0  0
  -28.0220  -27.7000   24.0450 C   0  0  0  0  0  1  0  0  0  0  0  0
  -28.5200  -29.1000   26.0270 C   0  0  0  0  0  1  0  0  0  0  0  0
  -26.6480  -31.1290   25.1380 N   0  0  0  0  0  0  0  0  0  0  0  0
  -27.0960  -32.3860   25.0260 C   0  0  0  0  0  0  0  0  0  0  0  0
  -27.9020  -32.7340   24.1570 O   0  0  0  0  0  0  0  0  0  0  0  0
  -25.9520  -30.9290   25.8420 H   0  0  0  0  0  0  0  0  0  0  0  0
  -25.4890  -34.2890   25.3540 C   0  0  0  0  0  1  0  0  0  0  0  0
  -26.5640  -33.4230   26.0320 C   0  0  0  0  0  3  0  0  0  0  0  0
  -28.5480  -33.5660   27.4690 C   0  0  0  0  0  1  0  0  0  0  0  0
  -27.6210  -34.2870   26.6020 N   0  0  0  0  0  0  0  0  0  0  0  0
  -27.2140  -35.0500   27.1360 H   0  0  0  0  0  0  0  0  0  0  0  0
  1  3  1  0
  2  1  1  0
  2  4  1  0
  3  5  1  0
  4  7  1  0
  4  5  1  0
  5 61  1  0
  5  6  1  1
  8 10  1  0
  8  7  1  0
  9  7  2  0
 11  8  1  0
 11 12  1  0
 12 13  1  0
 13 14  1  0
 14 15  1  0
 15 16  1  0
 16 17  1  0
 17 18  1  0
 18 19  1  0
 20 19  1  0
 21 20  1  0
 22 21  1  0
 23 31  1  0
 23 29  1  0
 24 29  1  0
 25 26  1  0
 25 24  1  0
 27 26  1  0
 27 36  1  0
 27 28  1  0
 29 28  1  0
 30 23  2  0
 31 22  1  0
 32 31  1  0
 33 34  2  0
 34 53  1  0
 35 34  1  0
 35 38  1  0
 36 37  1  0
 36 33  1  0
 37 35  2  0
 38 39  1  0
 39 40  2  0
 41 44  1  0
 41 40  1  0
 42 41  2  0
 43 42  1  0
 43 38  2  0
 44 45  1  0
 45 46  1  0
 46 47  2  0
 48 47  1  0
 48 52  1  0
 49 48  2  0
 50 45  2  0
 50 49  1  0
 51 50  1  0
 53 54  1  0
 54 57  1  0
 54 56  1  0
 55 53  2  0
 58 59  1  0
 58 33  1  0
 60 58  1  0
 61 62  1  0
 63 62  1  0
 63 64  1  0
 65 64  1  0
 66 65  1  0
 67 68  1  0
 67 66  1  0
 69 71  1  0
 69 68  1  0
 70 81  2  0
 71 76  1  0
 72 82  1  0
 72 80  1  0
 73 79  1  0
 73 75  1  0
 74 80  1  0
 75 74  1  0
 76 75  2  0
 77 78  1  0
 77 71  2  0
 78 73  2  0
 79 72  1  0
 80 70  1  0
 82 84  2  0
 83 82  1  0
 85 83  1  0
 86 95  2  0
 86 91  1  0
 87 83  1  0
 87 91  1  0
 88 87  1  0
 89 90  1  0
 89 88  1  0
 90 86  1  0
 91 92  2  0
 92 93  1  0
 94 93  2  0
 95 94  1  0
 96 70  1  0
 96 97  1  0
 96101  1  0
 97 98  1  1
 97100  1  0
 99 97  1  0
101104  1  0
102101  1  0
102106  1  0
103102  2  0
106105  1  0
106108  1  0
108109  1  0
108107  1  0
M  ISO  4  23 100  31 100  68 101  69 101
M  END
>  <TORSDO>  (55) 
F 37

>  <SCORE>  (55) 
2.772

>  <name>  (55) 
57

>  <ligand_id>  (55) 
57

>  <original_smiles>  (55) 
[H]c1c([H])c([H])c2c(c1[H])C([H])([H])C([H])([H])C([H])([H])C2([H])N([H])C(=O)C1([H])N(C(=O)C([H])(N([H])C(=O)C([H])(N([H])C([H])([H])[H])C([H])([H])[H])C(C([H])([H])[H])(C([H])([H])[H])C([H])([H])[H])C([H])([H])c2c([H])c(OC([H])([H])C([H])([H])OC([H])([H])C([H])([H])OC([H])([H])C([H])([H])[N+]3([H])C([H])([H])C([H])([H])C([H])([H])C3([H])C(=O)N([H])C([H])([H])C([H])([H])C([H])([H])C([H])([H])C([H])([H])C([H])([H])OC([H])([H])C([H])([H])OC([H])([H])C([H])([H])N([H])C(=O)N3C([H])([H])C([H])([H])C([H])([H])C([H])(n4nc(-c5c([H])c([H])c(Oc6c([H])c([H])c(F)c([H])c6F)c([H])c5[H])c(C(=O)N([H])[H])c4N([H])[H])C3([H])[H])c([H])c([H])c2C1([H])[H]

>  <smiles>  (55) 
[H]c1c([H])c([H])c2c(c1[H])C([H])([H])C([H])([H])C([H])([H])C2([H])N([H])C(=O)C1([H])N(C(=O)C([H])(N([H])C(=O)C([H])(N([H])C([H])([H])[H])C([H])([H])[H])C(C([H])([H])[H])(C([H])([H])[H])C([H])([H])[H])C([H])([H])c2c([H])c(OC([H])([H])C([H])([H])OC([H])([H])C([H])([H])OC([H])([H])C([H])([H])[N+]3([H])C([H])([H])C([H])([H])C([H])([H])C3([H])C(=O)N([H])C([H])([H])C([H])([H])C([H])([H])C([H])([H])C([H])([H])C([H])([H])OC([H])([H])C([H])([H])OC([H])([H])C([H])([H])N([H])C(=O)N3C([H])([H])C([H])([H])C([H])([H])C([H])(n4nc(-c5c([H])c([H])c(Oc6c([H])c([H])c(F)c([H])c6F)c([H])c5[H])c(C(=O)N([H])[H])c4N([H])[H])C3([H])[H])c([H])c([H])c2C1([H])[H]

$$$$
58:0:0
     RDKit          3D

109117  0  0  1  0  0  0  0  0999 V2000
  -26.5250  -22.7410   17.8090 C   0  0  0  0  0  3  0  0  0  0  0  0
  -26.2710  -23.3590   16.6370 N   0  0  0  0  0  0  0  0  0  0  0  0
  -27.7860  -22.3310   18.0890 N   0  0  0  0  0  0  0  0  0  0  0  0
  -27.0320  -23.6390   16.0280 H   0  0  0  0  0  0  0  0  0  0  0  0
  -28.0280  -22.0390   19.0250 H   0  0  0  0  0  0  0  0  0  0  0  0
  -25.3440  -23.5200   19.9500 C   0  0  0  0  0  2  0  0  0  0  0  0
  -24.9090  -22.3120   20.7850 C   0  0  0  0  0  2  0  0  0  0  0  0
  -25.3940  -22.5180   18.7980 C   0  0  0  0  0  3  0  0  0  0  0  0
  -25.6310  -21.4830   19.8170 N   0  0  2  0  0  4  0  0  0  0  0  0
  -26.6000  -21.4180   20.0950 H   0  0  0  0  0  0  0  0  0  0  0  0
  -25.0980  -20.1280   19.5560 C   0  0  0  0  0  2  0  0  0  0  0  0
  -26.0470  -19.3770   18.6160 C   0  0  0  0  0  2  0  0  0  0  0  0
  -27.2120  -19.0580   19.3710 O   0  0  0  0  0  0  0  0  0  0  0  0
  -28.4060  -19.0910   18.6010 C   0  0  0  0  0  2  0  0  0  0  0  0
  -29.3760  -18.0020   19.0840 C   0  0  0  0  0  2  0  0  0  0  0  0
  -29.3610  -17.9210   20.5100 O   0  0  0  0  0  0  0  0  0  0  0  0
  -30.6120  -17.5520   21.0860 C   0  0  0  0  0  2  0  0  0  0  0  0
  -30.4100  -16.5620   22.2550 C   0  0  0  0  0  2  0  0  0  0  0  0
  -29.9620  -15.2960   21.7820 O   0  0  0  0  0  0  0  0  0  0  0  0
  -30.7420  -14.5700   20.9570 C   0  0  0  0  0  0  0  0  0  0  0  0
  -30.3770  -12.8880   19.1760 C   0  0  0  0  0  2  0  0  0  0  0  0
  -29.4350  -13.5290   18.1360 C   0  0  0  0  0  2  0  0  0  0  0  0
  -27.9580  -13.3170   18.5220 C   0  0  0  0  0  2  0  0  0  0  0  0
  -27.6600  -13.6960   19.9990 C   0  0  0  0  0  3  0  0  0  0  0  0
  -28.7020  -13.0710   20.9480 C   0  0  0  0  0  2  0  0  0  0  0  0
  -30.0400  -13.4600   20.4800 N   0  0  0  0  0  0  0  0  0  0  0  0
  -31.8430  -14.9510   20.5540 O   0  0  0  0  0  0  0  0  0  0  0  0
  -25.1790  -14.1410   20.5200 C   0  0  0  0  0  0  0  0  0  0  0  0
  -24.1460  -13.2980   20.8260 C   0  0  0  0  0  0  0  0  0  0  0  0
  -24.7030  -11.9820   20.8500 C   0  0  0  0  0  0  0  0  0  0  0  0
  -26.2980  -13.3340   20.3790 N   0  0  0  0  0  0  0  0  0  0  0  0
  -26.0100  -12.0320   20.6290 N   0  0  0  0  0  0  0  0  0  0  0  0
  -24.0590  -10.6730   21.0170 C   0  0  0  0  0  0  0  0  0  0  0  0
  -24.4920   -9.7580   22.0010 C   0  0  0  0  0  3  0  0  0  0  0  0
  -23.8490   -8.5100   22.1510 C   0  0  0  0  0  3  0  0  0  0  0  0
  -22.7590   -8.1700   21.3170 C   0  0  0  0  0  0  0  0  0  0  0  0
  -22.3450   -9.0760   20.3250 C   0  0  0  0  0  3  0  0  0  0  0  0
  -22.9880  -10.3140   20.1730 C   0  0  0  0  0  3  0  0  0  0  0  0
  -22.0900   -6.9710   21.3730 O   0  0  0  0  0  0  0  0  0  0  0  0
  -21.9000   -6.3080   22.5580 C   0  0  0  0  0  0  0  0  0  0  0  0
  -21.2620   -6.9200   23.6600 C   0  0  0  0  0  3  0  0  0  0  0  0
  -21.0250   -6.1800   24.8360 C   0  0  0  0  0  3  0  0  0  0  0  0
  -21.4160   -4.8280   24.9090 C   0  0  0  0  0  0  0  0  0  0  0  0
  -22.0450   -4.2160   23.8100 C   0  0  0  0  0  3  0  0  0  0  0  0
  -22.2840   -4.9550   22.6380 C   0  0  0  0  0  0  0  0  0  0  0  0
  -22.8710   -4.3540   21.5750 F   0  0  0  0  0  0  0  0  0  0  0  0
  -21.1820   -4.1150   26.0340 F   0  0  0  0  0  0  0  0  0  0  0  0
  -22.7030  -13.6760   20.9990 C   0  0  0  0  0  0  0  0  0  0  0  0
  -21.9850  -12.9740   21.8700 N   0  0  0  0  0  0  0  0  0  0  0  0
  -22.2150  -14.6290   20.3930 O   0  0  0  0  0  0  0  0  0  0  0  0
  -22.3900  -12.2010   22.3770 H   0  0  0  0  0  0  0  0  0  0  0  0
  -21.0170  -13.2110   22.0300 H   0  0  0  0  0  0  0  0  0  0  0  0
  -25.2600  -15.5180   20.3320 N   0  0  0  0  0  0  0  0  0  0  0  0
  -24.4420  -16.1110   20.3770 H   0  0  0  0  0  0  0  0  0  0  0  0
  -26.1030  -16.0190   20.0720 H   0  0  0  0  0  0  0  0  0  0  0  0
  -28.9400  -22.3770   17.1690 C   0  0  0  0  0  2  0  0  0  0  0  0
  -29.9010  -23.5310   17.4900 C   0  0  0  0  0  2  0  0  0  0  0  0
  -30.8440  -23.2330   18.6730 C   0  0  0  0  0  2  0  0  0  0  0  0
  -31.8250  -24.3820   18.9730 C   0  0  0  0  0  2  0  0  0  0  0  0
  -30.8320  -26.1750   20.4070 C   0  0  0  0  0  0  0  0  0  0  0  0
  -31.1080  -25.6280   19.2190 N   0  0  0  0  0  0  0  0  0  0  0  0
  -31.2700  -25.7320   21.4700 O   0  0  0  0  0  0  0  0  0  0  0  0
  -30.6840  -26.0840   18.4210 H   0  0  0  0  0  0  0  0  0  0  0  0
  -29.8990  -27.3900   20.3840 C   0  0  0  0  0  2  0  0  0  0  0  0
  -28.8800  -27.1540   19.4130 O   0  0  0  0  0  0  0  0  0  0  0  0
  -24.6420  -31.4490   23.2350 C   0  0  0  0  0  0  0  0  0  0  0  0
  -27.6760  -27.7980   19.5720 C   0  0  0  0  0  0  0  0  0  0  0  0
  -23.5540  -30.1880   21.4040 C   0  0  0  0  0  3  0  0  0  0  0  0
  -25.1360  -29.0140   19.7820 C   0  0  0  0  0  0  0  0  0  0  0  0
  -26.0240  -30.8210   21.2660 C   0  0  0  0  0  2  0  0  0  0  0  0
  -26.2360  -29.5670   20.4480 C   0  0  0  0  0  0  0  0  0  0  0  0
  -27.5050  -28.9650   20.3500 C   0  0  0  0  0  3  0  0  0  0  0  0
  -26.5630  -27.2560   18.8980 C   0  0  0  0  0  3  0  0  0  0  0  0
  -25.2920  -27.8540   19.0030 C   0  0  0  0  0  3  0  0  0  0  0  0
  -23.8130  -29.7270   19.9420 C   0  0  0  0  0  2  0  0  0  0  0  0
  -24.7570  -30.8270   22.0290 N   0  0  0  0  0  0  0  0  0  0  0  0
  -23.5480  -31.5360   23.8090 O   0  0  0  0  0  0  0  0  0  0  0  0
  -23.0140  -28.9840   22.2090 C   0  0  0  0  0  0  0  0  0  0  0  0
  -21.7310  -28.6530   21.9940 N   0  0  0  0  0  0  0  0  0  0  0  0
  -23.7460  -28.3560   22.9770 O   0  0  0  0  0  0  0  0  0  0  0  0
  -21.1940  -29.2220   21.3540 H   0  0  0  0  0  0  0  0  0  0  0  0
  -18.5470  -26.9530   22.1270 C   0  0  0  0  0  0  0  0  0  0  0  0
  -21.0180  -27.5330   22.6100 C   0  0  0  0  0  3  0  0  0  0  0  0
  -21.3630  -26.2000   21.9060 C   0  0  0  0  0  2  0  0  0  0  0  0
  -20.3820  -25.8370   20.7880 C   0  0  0  0  0  2  0  0  0  0  0  0
  -18.9580  -25.7210   21.3400 C   0  0  0  0  0  2  0  0  0  0  0  0
  -19.5140  -27.8120   22.7100 C   0  0  0  0  0  0  0  0  0  0  0  0
  -19.0800  -28.9650   23.4000 C   0  0  0  0  0  3  0  0  0  0  0  0
  -17.7090  -29.2610   23.5150 C   0  0  0  0  0  3  0  0  0  0  0  0
  -16.7540  -28.3980   22.9480 C   0  0  0  0  0  3  0  0  0  0  0  0
  -17.1730  -27.2460   22.2600 C   0  0  0  0  0  3  0  0  0  0  0  0
  -25.8740  -32.1010   23.9420 C   0  0  0  0  0  3  0  0  0  0  0  0
  -25.4980  -33.4720   24.3110 N   0  0  0  0  0  0  0  0  0  0  0  0
  -25.8620  -34.5680   23.6320 C   0  0  0  0  0  0  0  0  0  0  0  0
  -26.6200  -34.5330   22.6590 O   0  0  0  0  0  0  0  0  0  0  0  0
  -24.8310  -33.5710   25.0620 H   0  0  0  0  0  0  0  0  0  0  0  0
  -24.1310  -36.3380   23.1950 C   0  0  0  0  0  1  0  0  0  0  0  0
  -25.2940  -35.9180   24.1080 C   0  0  0  0  0  3  0  0  0  0  0  0
  -27.3120  -36.7990   25.1950 C   0  0  0  0  0  1  0  0  0  0  0  0
  -26.3030  -36.9970   24.1560 N   0  0  0  0  0  0  0  0  0  0  0  0
  -25.8600  -37.8970   24.3150 H   0  0  0  0  0  0  0  0  0  0  0  0
  -26.3660  -31.2940   25.2050 C   0  0  1  0  0  0  0  0  0  0  0  0
  -25.2350  -30.9550   26.2040 C   0  0  0  0  0  1  0  0  0  0  0  0
  -27.0340  -29.9670   24.7760 C   0  0  0  0  0  1  0  0  0  0  0  0
  -27.4410  -32.1090   25.9610 C   0  0  0  0  0  1  0  0  0  0  0  0
  -25.0090  -23.9200   16.1420 C   0  0  0  0  0  2  0  0  0  0  0  0
  -25.2270  -24.5000   14.7380 C   0  0  0  0  0  2  0  0  0  0  0  0
  -26.4910  -25.1500   14.6720 O   0  0  0  0  0  0  0  0  0  0  0  0
  -26.5440  -25.5900   13.8280 H   0  0  0  0  0  0  0  0  0  0  0  0
  1  2  1  0
  1  3  1  0
  3  5  1  0
  4  2  1  0
  6  7  1  0
  8  1  1  0
  8  9  1  0
  8  6  1  0
  9 10  1  1
  9  7  1  0
 11  9  1  0
 12 13  1  0
 12 11  1  0
 14 15  1  0
 14 13  1  0
 15 16  1  0
 16 17  1  0
 17 18  1  0
 19 18  1  0
 20 19  1  0
 21 26  1  0
 22 23  1  0
 22 21  1  0
 24 23  1  0
 24 31  1  0
 24 25  1  0
 26 25  1  0
 26 20  1  0
 27 20  2  0
 28 29  2  0
 29 30  1  0
 29 48  1  0
 30 33  1  0
 31 28  1  0
 31 32  1  0
 32 30  2  0
 33 34  1  0
 34 35  2  0
 36 39  1  0
 36 35  1  0
 37 36  2  0
 38 37  1  0
 38 33  2  0
 39 40  1  0
 40 45  2  0
 40 41  1  0
 41 42  2  0
 42 43  1  0
 43 47  1  0
 44 43  2  0
 45 44  1  0
 46 45  1  0
 48 49  1  0
 49 52  1  0
 49 51  1  0
 50 48  2  0
 53 54  1  0
 53 28  1  0
 55 53  1  0
 56 57  1  0
 56  3  1  0
 57 58  1  0
 58 59  1  0
 59 61  1  0
 60 62  2  0
 61 60  1  0
 63 61  1  0
 64 60  1  0
 65 67  1  0
 65 64  1  0
 66 77  2  0
 67 72  1  0
 68 76  1  0
 68 78  1  0
 69 75  1  0
 69 71  1  0
 70 76  1  0
 71 70  1  0
 72 71  2  0
 73 74  1  0
 73 67  2  0
 74 69  2  0
 75 68  1  0
 76 66  1  0
 78 80  2  0
 79 78  1  0
 81 79  1  0
 82 91  2  0
 82 87  1  0
 83 79  1  0
 83 87  1  0
 84 83  1  0
 85 86  1  0
 85 84  1  0
 86 82  1  0
 87 88  2  0
 88 89  1  0
 90 89  2  0
 91 90  1  0
 92 66  1  0
 92 93  1  0
 92102  1  0
 93 96  1  0
 94 98  1  0
 94 93  1  0
 95 94  2  0
 98 97  1  0
 98100  1  0
100101  1  0
100 99  1  0
102105  1  1
102103  1  0
104102  1  0
106  2  1  0
107106  1  0
108107  1  0
109108  1  0
M  ISO  4  19 100  20 100  64 101  65 101
M  END
>  <TORSDO>  (56) 
F 35

>  <SCORE>  (56) 
-5.145

>  <name>  (56) 
58

>  <ligand_id>  (56) 
58

>  <original_smiles>  (56) 
[H]OC([H])([H])C([H])([H])N([H])C(=[N+]([H])C([H])([H])C([H])([H])C([H])([H])C([H])([H])N([H])C(=O)C([H])([H])Oc1c([H])c([H])c2c(c1[H])C([H])([H])N(C(=O)C([H])(N([H])C(=O)C([H])(N([H])C([H])([H])[H])C([H])([H])[H])C(C([H])([H])[H])(C([H])([H])[H])C([H])([H])[H])C([H])(C(=O)N([H])C1([H])c3c([H])c([H])c([H])c([H])c3C([H])([H])C([H])([H])C1([H])[H])C2([H])[H])C1([H])C([H])([H])C([H])([H])[N+]1([H])C([H])([H])C([H])([H])OC([H])([H])C([H])([H])OC([H])([H])C([H])([H])OC(=O)N1C([H])([H])C([H])([H])C([H])([H])C([H])(n2nc(-c3c([H])c([H])c(Oc4c([H])c([H])c(F)c([H])c4F)c([H])c3[H])c(C(=O)N([H])[H])c2N([H])[H])C1([H])[H]

>  <smiles>  (56) 
[H]OC([H])([H])C([H])([H])N([H])C(=[N+]([H])C([H])([H])C([H])([H])C([H])([H])C([H])([H])N([H])C(=O)C([H])([H])Oc1c([H])c([H])c2c(c1[H])C([H])([H])N(C(=O)C([H])(N([H])C(=O)C([H])(N([H])C([H])([H])[H])C([H])([H])[H])C(C([H])([H])[H])(C([H])([H])[H])C([H])([H])[H])C([H])(C(=O)N([H])C1([H])c3c([H])c([H])c([H])c([H])c3C([H])([H])C([H])([H])C1([H])[H])C2([H])[H])C1([H])C([H])([H])C([H])([H])[N+]1([H])C([H])([H])C([H])([H])OC([H])([H])C([H])([H])OC([H])([H])C([H])([H])OC(=O)N1C([H])([H])C([H])([H])C([H])([H])C([H])(n2nc(-c3c([H])c([H])c(Oc4c([H])c([H])c(F)c([H])c4F)c([H])c3[H])c(C(=O)N([H])[H])c2N([H])[H])C1([H])[H]

$$$$
59:0:0
     RDKit          3D

115122  0  0  1  0  0  0  0  0999 V2000
  -27.2300  -25.4200   14.9940 C   0  0  0  0  0  0  0  0  0  0  0  0
  -27.5460  -24.6980   16.0770 N   0  0  0  0  0  0  0  0  0  0  0  0
  -27.9360  -26.3380   14.5710 O   0  0  0  0  0  0  0  0  0  0  0  0
  -26.9200  -23.9470   16.3350 H   0  0  0  0  0  0  0  0  0  0  0  0
  -28.6840  -24.9470   16.9560 C   0  0  0  0  0  2  0  0  0  0  0  0
  -29.7710  -23.8690   16.8160 C   0  0  0  0  0  2  0  0  0  0  0  0
  -29.3880  -22.5100   17.4300 C   0  0  0  0  0  2  0  0  0  0  0  0
  -30.5550  -21.5070   17.3720 C   0  0  0  0  0  2  0  0  0  0  0  0
  -30.3480  -20.2270   18.2080 C   0  0  0  0  0  2  0  0  0  0  0  0
  -30.9190  -20.2560   19.6470 C   0  0  0  0  0  2  0  0  0  0  0  0
  -30.1710  -21.1600   20.6470 C   0  0  0  0  0  2  0  0  0  0  0  0
  -30.7280  -22.5940   20.7410 C   0  0  0  0  0  2  0  0  0  0  0  0
  -29.7300  -23.5170   21.3260 N   0  0  0  0  0  4  0  0  0  0  0  0
  -29.8310  -23.5390   22.3310 H   0  0  0  0  0  0  0  0  0  0  0  0
  -28.8240  -23.1230   21.1340 H   0  0  0  0  0  0  0  0  0  0  0  0
  -29.7610  -24.8960   20.7750 C   0  0  0  0  0  2  0  0  0  0  0  0
  -28.3940  -25.5910   20.8900 C   0  0  0  0  0  2  0  0  0  0  0  0
  -28.4180  -26.7710   20.0930 O   0  0  0  0  0  0  0  0  0  0  0  0
  -24.6100  -31.8720   23.2110 C   0  0  0  0  0  0  0  0  0  0  0  0
  -27.2410  -27.4750   20.1030 C   0  0  0  0  0  0  0  0  0  0  0  0
  -23.3980  -30.4910   21.5520 C   0  0  0  0  0  3  0  0  0  0  0  0
  -24.8470  -28.9580   20.1200 C   0  0  0  0  0  0  0  0  0  0  0  0
  -25.9210  -30.8510   21.3560 C   0  0  0  0  0  2  0  0  0  0  0  0
  -26.0030  -29.4870   20.7090 C   0  0  0  0  0  0  0  0  0  0  0  0
  -27.2070  -28.7520   20.6940 C   0  0  0  0  0  3  0  0  0  0  0  0
  -26.0730  -26.9470   19.5130 C   0  0  0  0  0  3  0  0  0  0  0  0
  -24.8740  -27.6870   19.5200 C   0  0  0  0  0  3  0  0  0  0  0  0
  -23.6050  -29.8170   20.1690 C   0  0  0  0  0  2  0  0  0  0  0  0
  -24.6610  -31.0850   22.1000 N   0  0  0  0  0  0  0  0  0  0  0  0
  -23.5310  -32.1470   23.7530 O   0  0  0  0  0  0  0  0  0  0  0  0
  -22.7390  -29.4670   22.5020 C   0  0  0  0  0  0  0  0  0  0  0  0
  -21.4130  -29.3030   22.3750 N   0  0  0  0  0  0  0  0  0  0  0  0
  -23.4170  -28.8230   23.3070 O   0  0  0  0  0  0  0  0  0  0  0  0
  -20.9300  -29.8700   21.6920 H   0  0  0  0  0  0  0  0  0  0  0  0
  -18.0270  -28.1360   22.8500 C   0  0  0  0  0  0  0  0  0  0  0  0
  -20.5850  -28.3650   23.1330 C   0  0  0  0  0  3  0  0  0  0  0  0
  -20.6770  -26.9390   22.5410 C   0  0  0  0  0  2  0  0  0  0  0  0
  -19.5730  -26.6360   21.5210 C   0  0  0  0  0  2  0  0  0  0  0  0
  -18.1910  -26.7910   22.1630 C   0  0  0  0  0  2  0  0  0  0  0  0
  -19.1510  -28.8820   23.2920 C   0  0  0  0  0  0  0  0  0  0  0  0
  -18.9450  -30.1430   23.8930 C   0  0  0  0  0  3  0  0  0  0  0  0
  -17.6450  -30.6580   24.0560 C   0  0  0  0  0  3  0  0  0  0  0  0
  -16.5340  -29.9080   23.6320 C   0  0  0  0  0  3  0  0  0  0  0  0
  -16.7260  -28.6480   23.0360 C   0  0  0  0  0  3  0  0  0  0  0  0
  -25.9010  -32.4840   23.8420 C   0  0  0  0  0  3  0  0  0  0  0  0
  -25.5890  -33.8640   24.2360 N   0  0  0  0  0  0  0  0  0  0  0  0
  -25.9020  -34.9490   23.5150 C   0  0  0  0  0  0  0  0  0  0  0  0
  -26.5570  -34.8930   22.4700 O   0  0  0  0  0  0  0  0  0  0  0  0
  -25.0050  -33.9810   25.0510 H   0  0  0  0  0  0  0  0  0  0  0  0
  -24.1480  -36.7330   23.2640 C   0  0  0  0  0  1  0  0  0  0  0  0
  -25.4100  -36.3130   24.0340 C   0  0  0  0  0  3  0  0  0  0  0  0
  -27.5580  -37.1810   24.8460 C   0  0  0  0  0  1  0  0  0  0  0  0
  -26.4300  -37.3790   23.9400 N   0  0  0  0  0  0  0  0  0  0  0  0
  -26.0200  -38.2870   24.1420 H   0  0  0  0  0  0  0  0  0  0  0  0
  -26.4460  -31.6600   25.0720 C   0  0  1  0  0  0  0  0  0  0  0  0
  -25.3730  -31.3690   26.1470 C   0  0  0  0  0  1  0  0  0  0  0  0
  -27.0270  -30.3050   24.6040 C   0  0  0  0  0  1  0  0  0  0  0  0
  -27.6070  -32.4290   25.7470 C   0  0  0  0  0  1  0  0  0  0  0  0
  -25.9100  -25.0860   14.2990 C   0  0  0  0  0  2  0  0  0  0  0  0
  -25.0090  -26.3220   14.0710 C   0  0  0  0  0  2  0  0  0  0  0  0
  -24.6250  -27.1060   15.3450 C   0  0  0  0  0  2  0  0  0  0  0  0
  -22.7850  -25.8610   16.4690 C   0  0  0  0  0  0  0  0  0  0  0  0
  -24.0650  -26.2340   16.3720 N   0  0  0  0  0  0  0  0  0  0  0  0
  -21.9080  -26.2730   15.7080 O   0  0  0  0  0  0  0  0  0  0  0  0
  -24.7120  -25.8700   17.0580 H   0  0  0  0  0  0  0  0  0  0  0  0
  -22.4420  -24.8630   17.5740 C   0  0  0  0  0  2  0  0  0  0  0  0
  -21.8470  -23.5680   16.9950 C   0  0  0  0  0  2  0  0  0  0  0  0
  -21.4200  -22.5690   18.0740 C   0  0  0  0  0  2  0  0  0  0  0  0
  -22.5620  -22.1460   18.8060 O   0  0  0  0  0  0  0  0  0  0  0  0
  -22.2410  -21.1590   19.7790 C   0  0  0  0  0  2  0  0  0  0  0  0
  -23.4750  -20.8250   20.6280 C   0  0  0  0  0  2  0  0  0  0  0  0
  -24.3890  -20.0260   19.8840 O   0  0  0  0  0  0  0  0  0  0  0  0
  -25.4720  -19.5710   20.6870 C   0  0  0  0  0  2  0  0  0  0  0  0
  -26.4210  -18.6910   19.8630 C   0  0  0  0  0  2  0  0  0  0  0  0
  -27.2170  -17.9130   20.7490 O   0  0  0  0  0  0  0  0  0  0  0  0
  -28.2190  -17.1700   20.0770 C   0  0  0  0  0  2  0  0  0  0  0  0
  -28.9310  -16.2330   21.0670 C   0  0  0  0  0  2  0  0  0  0  0  0
  -30.7230  -14.4580   20.5240 C   0  0  0  0  0  0  0  0  0  0  0  0
  -30.4130  -12.3020   19.4040 C   0  0  0  0  0  2  0  0  0  0  0  0
  -29.4780  -12.4920   18.1940 C   0  0  0  0  0  2  0  0  0  0  0  0
  -28.0000  -12.3550   18.6170 C   0  0  0  0  0  2  0  0  0  0  0  0
  -27.6530  -13.1970   19.8760 C   0  0  0  0  0  3  0  0  0  0  0  0
  -28.7090  -12.9810   20.9860 C   0  0  0  0  0  2  0  0  0  0  0  0
  -30.0160  -13.3050   20.4020 N   0  0  0  0  0  0  0  0  0  0  0  0
  -31.9110  -14.5430   20.2210 O   0  0  0  0  0  0  0  0  0  0  0  0
  -30.0570  -15.6100   20.3800 N   0  0  0  0  0  0  0  0  0  0  0  0
  -30.6910  -16.3070   20.0190 H   0  0  0  0  0  0  0  0  0  0  0  0
  -25.2550  -13.8110   20.5730 C   0  0  0  0  0  0  0  0  0  0  0  0
  -24.1800  -13.0400   20.9190 C   0  0  0  0  0  0  0  0  0  0  0  0
  -24.6370  -11.6870   20.8750 C   0  0  0  0  0  0  0  0  0  0  0  0
  -26.2980  -12.9280   20.3440 N   0  0  0  0  0  0  0  0  0  0  0  0
  -25.9300  -11.6440   20.5820 N   0  0  0  0  0  0  0  0  0  0  0  0
  -23.9050  -10.4270   21.0410 C   0  0  0  0  0  0  0  0  0  0  0  0
  -24.3600   -9.4190   21.9200 C   0  0  0  0  0  3  0  0  0  0  0  0
  -23.6270   -8.2230   22.0760 C   0  0  0  0  0  3  0  0  0  0  0  0
  -22.4260   -8.0270   21.3550 C   0  0  0  0  0  0  0  0  0  0  0  0
  -21.9890   -9.0250   20.4660 C   0  0  0  0  0  3  0  0  0  0  0  0
  -22.7210  -10.2120   20.3070 C   0  0  0  0  0  3  0  0  0  0  0  0
  -21.6620   -6.8870   21.4240 O   0  0  0  0  0  0  0  0  0  0  0  0
  -21.6840   -6.0730   22.5270 C   0  0  0  0  0  0  0  0  0  0  0  0
  -21.4010   -6.5630   23.8210 C   0  0  0  0  0  3  0  0  0  0  0  0
  -21.3660   -5.6790   24.9180 C   0  0  0  0  0  3  0  0  0  0  0  0
  -21.6050   -4.3050   24.7230 C   0  0  0  0  0  0  0  0  0  0  0  0
  -21.8820   -3.8140   23.4350 C   0  0  0  0  0  3  0  0  0  0  0  0
  -21.9190   -4.6960   22.3400 C   0  0  0  0  0  0  0  0  0  0  0  0
  -22.1650   -4.2140   21.0980 F   0  0  0  0  0  0  0  0  0  0  0  0
  -21.5640   -3.4540   25.7750 F   0  0  0  0  0  0  0  0  0  0  0  0
  -22.7840  -13.5210   21.1840 C   0  0  0  0  0  0  0  0  0  0  0  0
  -22.0470  -12.8220   22.0390 N   0  0  0  0  0  0  0  0  0  0  0  0
  -22.3550  -14.5530   20.6700 O   0  0  0  0  0  0  0  0  0  0  0  0
  -22.4050  -11.9860   22.4760 H   0  0  0  0  0  0  0  0  0  0  0  0
  -21.1120  -13.1320   22.2640 H   0  0  0  0  0  0  0  0  0  0  0  0
  -25.4210  -15.1840   20.4190 N   0  0  0  0  0  0  0  0  0  0  0  0
  -24.6530  -15.8290   20.5690 H   0  0  0  0  0  0  0  0  0  0  0  0
  -26.2900  -15.6450   20.1950 H   0  0  0  0  0  0  0  0  0  0  0  0
  1  2  1  0
  2  4  1  0
  2  5  1  0
  3  1  2  0
  6  5  1  0
  6  7  1  0
  8  7  1  0
  8  9  1  0
  9 10  1  0
 10 11  1  0
 11 12  1  0
 12 13  1  0
 13 14  1  0
 15 13  1  0
 16 17  1  0
 16 13  1  0
 18 20  1  0
 18 17  1  0
 19 30  2  0
 20 25  1  0
 21 29  1  0
 21 31  1  0
 22 28  1  0
 22 24  1  0
 23 29  1  0
 24 23  1  0
 25 24  2  0
 26 27  1  0
 26 20  2  0
 27 22  2  0
 28 21  1  0
 29 19  1  0
 31 33  2  0
 32 31  1  0
 34 32  1  0
 35 44  2  0
 35 40  1  0
 36 32  1  0
 36 40  1  0
 37 36  1  0
 38 39  1  0
 38 37  1  0
 39 35  1  0
 40 41  2  0
 41 42  1  0
 43 42  2  0
 44 43  1  0
 45 19  1  0
 45 46  1  0
 45 55  1  0
 46 49  1  0
 47 51  1  0
 47 46  1  0
 48 47  2  0
 51 50  1  0
 53 51  1  0
 53 54  1  0
 53 52  1  0
 55 58  1  1
 55 56  1  0
 57 55  1  0
 59  1  1  0
 60 59  1  0
 60 61  1  0
 61 63  1  0
 62 66  1  0
 63 62  1  0
 63 65  1  0
 64 62  2  0
 67 66  1  0
 67 68  1  0
 68 69  1  0
 69 70  1  0
 70 71  1  0
 72 71  1  0
 72 73  1  0
 74 73  1  0
 74 75  1  0
 76 75  1  0
 76 77  1  0
 79 84  1  0
 80 81  1  0
 80 79  1  0
 82 81  1  0
 82 91  1  0
 82 83  1  0
 84 78  1  0
 84 83  1  0
 85 78  2  0
 86 78  1  0
 86 77  1  0
 87 86  1  0
 88 89  2  0
 89108  1  0
 90 89  1  0
 90 93  1  0
 91 88  1  0
 91 92  1  0
 92 90  2  0
 93 94  1  0
 94 95  2  0
 96 99  1  0
 96 95  1  0
 97 96  2  0
 98 97  1  0
 98 93  2  0
 99100  1  0
100101  1  0
101102  2  0
103102  1  0
103107  1  0
104103  2  0
105100  2  0
105104  1  0
106105  1  0
108109  1  0
109112  1  0
109111  1  0
110108  2  0
113114  1  0
113 88  1  0
115113  1  0
M  ISO  4  17 101  18 101  78 100  86 100
M  END
>  <TORSDO>  (57) 
F 43

>  <SCORE>  (57) 
1.417

>  <name>  (57) 
59

>  <ligand_id>  (57) 
59

>  <original_smiles>  (57) 
[H]c1c([H])c([H])c2c(c1[H])C([H])([H])C([H])([H])C([H])([H])C2([H])N([H])C(=O)C1([H])N(C(=O)C([H])(N([H])C(=O)C([H])(N([H])C([H])([H])[H])C([H])([H])[H])C(C([H])([H])[H])(C([H])([H])[H])C([H])([H])[H])C([H])([H])c2c([H])c(OC([H])([H])C([H])([H])[N+]([H])([H])C([H])([H])C([H])([H])C([H])([H])C([H])([H])C([H])([H])C([H])([H])C([H])([H])C([H])([H])N([H])C(=O)C([H])([H])C([H])([H])C([H])([H])N([H])C(=O)C([H])([H])C([H])([H])C([H])([H])OC([H])([H])C([H])([H])OC([H])([H])C([H])([H])OC([H])([H])C([H])([H])N([H])C(=O)N3C([H])([H])C([H])([H])C([H])([H])C([H])(n4nc(-c5c([H])c([H])c(Oc6c([H])c([H])c(F)c([H])c6F)c([H])c5[H])c(C(=O)N([H])[H])c4N([H])[H])C3([H])[H])c([H])c([H])c2C1([H])[H]

>  <smiles>  (57) 
[H]c1c([H])c([H])c2c(c1[H])C([H])([H])C([H])([H])C([H])([H])C2([H])N([H])C(=O)C1([H])N(C(=O)C([H])(N([H])C(=O)C([H])(N([H])C([H])([H])[H])C([H])([H])[H])C(C([H])([H])[H])(C([H])([H])[H])C([H])([H])[H])C([H])([H])c2c([H])c(OC([H])([H])C([H])([H])[N+]([H])([H])C([H])([H])C([H])([H])C([H])([H])C([H])([H])C([H])([H])C([H])([H])C([H])([H])C([H])([H])N([H])C(=O)C([H])([H])C([H])([H])C([H])([H])N([H])C(=O)C([H])([H])C([H])([H])C([H])([H])OC([H])([H])C([H])([H])OC([H])([H])C([H])([H])OC([H])([H])C([H])([H])N([H])C(=O)N3C([H])([H])C([H])([H])C([H])([H])C([H])(n4nc(-c5c([H])c([H])c(Oc6c([H])c([H])c(F)c([H])c6F)c([H])c5[H])c(C(=O)N([H])[H])c4N([H])[H])C3([H])[H])c([H])c([H])c2C1([H])[H]

$$$$
60:0:0
     RDKit          3D

105112  0  0  1  0  0  0  0  0999 V2000
  -25.8520  -17.3270   20.7040 C   0  0  0  0  0  2  0  0  0  0  0  0
  -27.0530  -17.7000   21.3800 O   0  0  0  0  0  0  0  0  0  0  0  0
  -28.0670  -16.7020   21.3330 C   0  0  0  0  0  2  0  0  0  0  0  0
  -28.9450  -16.7730   22.5910 C   0  0  0  0  0  2  0  0  0  0  0  0
  -29.9900  -17.7240   22.4140 O   0  0  0  0  0  0  0  0  0  0  0  0
  -30.6710  -17.9980   23.6320 C   0  0  0  0  0  2  0  0  0  0  0  0
  -31.6870  -19.1240   23.4190 C   0  0  0  0  0  2  0  0  0  0  0  0
  -31.5400  -21.3720   22.3870 C   0  0  0  0  0  0  0  0  0  0  0  0
  -31.2040  -20.0790   22.4300 N   0  0  0  0  0  0  0  0  0  0  0  0
  -32.2900  -21.8860   23.2210 O   0  0  0  0  0  0  0  0  0  0  0  0
  -30.5960  -19.7110   21.7090 H   0  0  0  0  0  0  0  0  0  0  0  0
  -30.9590  -22.2210   21.2460 C   0  0  0  0  0  2  0  0  0  0  0  0
  -31.1270  -23.6100   21.5450 O   0  0  0  0  0  0  0  0  0  0  0  0
  -27.3550  -29.2460   23.6700 C   0  0  0  0  0  0  0  0  0  0  0  0
  -30.0820  -24.4620   21.2680 C   0  0  0  0  0  0  0  0  0  0  0  0
  -26.4720  -28.0510   21.6920 C   0  0  0  0  0  3  0  0  0  0  0  0
  -28.0240  -26.3020   20.6750 C   0  0  0  0  0  0  0  0  0  0  0  0
  -28.9720  -28.0120   22.2350 C   0  0  0  0  0  2  0  0  0  0  0  0
  -29.0300  -26.6480   21.5850 C   0  0  0  0  0  0  0  0  0  0  0  0
  -30.0640  -25.7340   21.8790 C   0  0  0  0  0  3  0  0  0  0  0  0
  -29.0610  -24.1260   20.3490 C   0  0  0  0  0  3  0  0  0  0  0  0
  -28.0330  -25.0410   20.0540 C   0  0  0  0  0  3  0  0  0  0  0  0
  -26.9640  -27.3450   20.4000 C   0  0  0  0  0  2  0  0  0  0  0  0
  -27.6020  -28.4490   22.5930 N   0  0  0  0  0  0  0  0  0  0  0  0
  -26.2180  -29.6850   23.8940 O   0  0  0  0  0  0  0  0  0  0  0  0
  -25.4290  -27.1430   22.3810 C   0  0  0  0  0  0  0  0  0  0  0  0
  -24.1530  -27.3000   21.9930 N   0  0  0  0  0  0  0  0  0  0  0  0
  -25.7760  -26.3050   23.2170 O   0  0  0  0  0  0  0  0  0  0  0  0
  -23.9500  -28.0130   21.3070 H   0  0  0  0  0  0  0  0  0  0  0  0
  -20.5460  -27.1720   22.0350 C   0  0  0  0  0  0  0  0  0  0  0  0
  -23.0090  -26.5300   22.4790 C   0  0  0  0  0  3  0  0  0  0  0  0
  -22.7460  -25.3000   21.5820 C   0  0  0  0  0  2  0  0  0  0  0  0
  -21.7260  -25.5720   20.4700 C   0  0  0  0  0  2  0  0  0  0  0  0
  -20.3860  -26.0130   21.0660 C   0  0  0  0  0  2  0  0  0  0  0  0
  -21.7820  -27.4240   22.6860 C   0  0  0  0  0  0  0  0  0  0  0  0
  -21.8870  -28.5370   23.5500 C   0  0  0  0  0  3  0  0  0  0  0  0
  -20.7840  -29.3840   23.7710 C   0  0  0  0  0  3  0  0  0  0  0  0
  -19.5590  -29.1200   23.1360 C   0  0  0  0  0  3  0  0  0  0  0  0
  -19.4400  -28.0140   22.2740 C   0  0  0  0  0  3  0  0  0  0  0  0
  -28.4920  -29.6670   24.6540 C   0  0  0  0  0  3  0  0  0  0  0  0
  -28.6500  -31.1230   24.5500 N   0  0  0  0  0  0  0  0  0  0  0  0
  -29.5680  -31.7340   23.7900 C   0  0  0  0  0  0  0  0  0  0  0  0
  -30.4260  -31.1200   23.1520 O   0  0  0  0  0  0  0  0  0  0  0  0
  -27.9500  -31.6880   25.0070 H   0  0  0  0  0  0  0  0  0  0  0  0
  -28.8330  -33.7150   22.4310 C   0  0  0  0  0  1  0  0  0  0  0  0
  -29.5250  -33.2730   23.7300 C   0  0  0  0  0  3  0  0  0  0  0  0
  -31.4740  -33.7540   25.1400 C   0  0  0  0  0  1  0  0  0  0  0  0
  -30.8590  -33.9060   23.8240 N   0  0  0  0  0  0  0  0  0  0  0  0
  -30.8000  -34.8990   23.6130 H   0  0  0  0  0  0  0  0  0  0  0  0
  -28.2120  -29.2450   26.1480 C   0  0  1  0  0  0  0  0  0  0  0  0
  -26.8490  -29.7370   26.6880 C   0  0  0  0  0  1  0  0  0  0  0  0
  -28.2550  -27.7060   26.2980 C   0  0  0  0  0  1  0  0  0  0  0  0
  -29.3180  -29.8110   27.0690 C   0  0  0  0  0  1  0  0  0  0  0  0
  -26.1330  -16.9630   19.2380 C   0  0  0  0  0  2  0  0  0  0  0  0
  -26.7490  -15.6870   19.1890 O   0  0  0  0  0  0  0  0  0  0  0  0
  -27.8020  -15.5900   18.2430 C   0  0  0  0  0  2  0  0  0  0  0  0
  -28.6930  -14.4220   18.6780 C   0  0  0  0  0  2  0  0  0  0  0  0
  -28.7050  -14.4060   20.1060 O   0  0  0  0  0  0  0  0  0  0  0  0
  -29.7000  -13.5790   20.7070 C   0  0  0  0  0  2  0  0  0  0  0  0
  -29.9270  -12.2950   19.8950 C   0  0  0  0  0  0  0  0  0  0  0  0
  -31.1710  -12.0850   19.4560 N   0  0  0  0  0  0  0  0  0  0  0  0
  -28.9890  -11.5390   19.6340 O   0  0  0  0  0  0  0  0  0  0  0  0
  -31.8790  -12.7500   19.7400 H   0  0  0  0  0  0  0  0  0  0  0  0
  -31.5780  -11.0460   18.5180 C   0  0  0  0  0  2  0  0  0  0  0  0
  -31.9460  -11.6480   17.1510 C   0  0  0  0  0  2  0  0  0  0  0  0
  -33.3360  -12.3070   17.1450 C   0  0  0  0  0  2  0  0  0  0  0  0
  -33.7750  -12.8260   15.7690 C   0  0  0  0  0  2  0  0  0  0  0  0
  -34.8380  -15.0540   15.5280 C   0  0  0  0  0  0  0  0  0  0  0  0
  -35.6450  -16.8240   14.0270 C   0  0  0  0  0  2  0  0  0  0  0  0
  -36.1590  -18.0890   14.7290 C   0  0  0  0  0  2  0  0  0  0  0  0
  -34.9980  -19.0590   14.9980 C   0  0  0  0  0  2  0  0  0  0  0  0
  -33.8090  -18.3700   15.7130 C   0  0  0  0  0  3  0  0  0  0  0  0
  -33.4090  -17.0550   15.0050 C   0  0  0  0  0  2  0  0  0  0  0  0
  -34.6030  -16.2030   14.8540 N   0  0  0  0  0  0  0  0  0  0  0  0
  -35.9690  -14.6120   15.7540 O   0  0  0  0  0  0  0  0  0  0  0  0
  -33.7490  -14.2850   15.6600 N   0  0  0  0  0  0  0  0  0  0  0  0
  -32.8740  -14.7100   15.3900 H   0  0  0  0  0  0  0  0  0  0  0  0
  -31.9080  -19.5840   16.9590 C   0  0  0  0  0  0  0  0  0  0  0  0
  -31.0210  -20.5470   16.5580 C   0  0  0  0  0  0  0  0  0  0  0  0
  -31.3020  -20.7940   15.1800 C   0  0  0  0  0  0  0  0  0  0  0  0
  -32.6730  -19.2820   15.8420 N   0  0  0  0  0  0  0  0  0  0  0  0
  -32.2610  -19.9820   14.7530 N   0  0  0  0  0  0  0  0  0  0  0  0
  -30.7520  -21.7940   14.2550 C   0  0  0  0  0  0  0  0  0  0  0  0
  -30.1350  -21.4180   13.0410 C   0  0  0  0  0  3  0  0  0  0  0  0
  -29.5980  -22.3970   12.1780 C   0  0  0  0  0  3  0  0  0  0  0  0
  -29.6690  -23.7670   12.5260 C   0  0  0  0  0  0  0  0  0  0  0  0
  -30.3040  -24.1370   13.7240 C   0  0  0  0  0  3  0  0  0  0  0  0
  -30.8420  -23.1620   14.5800 C   0  0  0  0  0  3  0  0  0  0  0  0
  -29.1970  -24.7880   11.7370 O   0  0  0  0  0  0  0  0  0  0  0  0
  -28.1380  -24.6090   10.8840 C   0  0  0  0  0  0  0  0  0  0  0  0
  -26.8700  -24.1940   11.3480 C   0  0  0  0  0  3  0  0  0  0  0  0
  -25.7910  -24.0900   10.4480 C   0  0  0  0  0  3  0  0  0  0  0  0
  -25.9730  -24.4080    9.0880 C   0  0  0  0  0  0  0  0  0  0  0  0
  -27.2330  -24.8270    8.6260 C   0  0  0  0  0  3  0  0  0  0  0  0
  -28.3110  -24.9300    9.5230 C   0  0  0  0  0  0  0  0  0  0  0  0
  -29.5180  -25.3550    9.0770 F   0  0  0  0  0  0  0  0  0  0  0  0
  -24.9350  -24.3160    8.2250 F   0  0  0  0  0  0  0  0  0  0  0  0
  -30.0300  -21.2670   17.4260 C   0  0  0  0  0  0  0  0  0  0  0  0
  -28.8810  -21.6330   16.8690 N   0  0  0  0  0  0  0  0  0  0  0  0
  -30.2510  -21.4660   18.6190 O   0  0  0  0  0  0  0  0  0  0  0  0
  -28.6920  -21.4530   15.8930 H   0  0  0  0  0  0  0  0  0  0  0  0
  -28.1790  -22.1020   17.4250 H   0  0  0  0  0  0  0  0  0  0  0  0
  -32.1420  -18.9560   18.1780 N   0  0  0  0  0  0  0  0  0  0  0  0
  -31.6200  -19.1870   19.0150 H   0  0  0  0  0  0  0  0  0  0  0  0
  -32.8500  -18.2500   18.3330 H   0  0  0  0  0  0  0  0  0  0  0  0
  1  2  1  0
  3  2  1  0
  3  4  1  0
  5  4  1  0
  5  6  1  0
  7  6  1  0
  8  9  1  0
  8 10  2  0
  9  7  1  0
 11  9  1  0
 12 13  1  0
 12  8  1  0
 14 25  2  0
 15 13  1  0
 15 20  1  0
 16 26  1  0
 16 24  1  0
 17 19  1  0
 18 24  1  0
 19 20  2  0
 19 18  1  0
 21 15  2  0
 22 21  1  0
 22 17  2  0
 23 17  1  0
 23 16  1  0
 24 14  1  0
 26 28  2  0
 27 26  1  0
 29 27  1  0
 30 39  2  0
 30 35  1  0
 31 27  1  0
 31 35  1  0
 32 31  1  0
 33 34  1  0
 33 32  1  0
 34 30  1  0
 35 36  2  0
 36 37  1  0
 38 37  2  0
 39 38  1  0
 40 14  1  0
 40 50  1  0
 41 40  1  0
 41 44  1  0
 42 41  1  0
 43 42  2  0
 46 45  1  0
 46 42  1  0
 46 48  1  0
 48 47  1  0
 49 48  1  0
 50 52  1  6
 50 51  1  0
 50 53  1  0
 54  1  1  0
 55 54  1  0
 56 57  1  0
 56 55  1  0
 57 58  1  0
 58 59  1  0
 60 59  1  0
 61 63  1  0
 61 60  1  0
 62 60  2  0
 64 61  1  0
 65 64  1  0
 66 65  1  0
 67 66  1  0
 68 76  1  0
 68 75  2  0
 69 70  1  0
 69 74  1  0
 70 71  1  0
 72 71  1  0
 72 81  1  0
 73 72  1  0
 74 73  1  0
 74 68  1  0
 76 67  1  0
 77 76  1  0
 78103  1  0
 79 78  2  0
 79 98  1  0
 80 79  1  0
 81 78  1  0
 82 80  2  0
 82 81  1  0
 83 88  1  0
 83 80  1  0
 84 83  2  0
 85 86  2  0
 85 84  1  0
 86 87  1  0
 87 88  2  0
 89 86  1  0
 90 91  1  0
 90 89  1  0
 92 91  2  0
 93 92  1  0
 94 93  2  0
 94 95  1  0
 95 90  2  0
 96 95  1  0
 97 93  1  0
 98100  2  0
 99102  1  0
 99 98  1  0
101 99  1  0
103105  1  0
103104  1  0
M  ISO  4  12 101  13 101  68 100  76 100
M  END
>  <TORSDO>  (58) 
F 35

>  <SCORE>  (58) 
4.687

>  <name>  (58) 
60

>  <ligand_id>  (58) 
60

>  <original_smiles>  (58) 
[H]c1c([H])c([H])c2c(c1[H])C([H])([H])C([H])([H])C([H])([H])C2([H])N([H])C(=O)C1([H])N(C(=O)C([H])(N([H])C(=O)C([H])(N([H])C([H])([H])[H])C([H])([H])[H])C(C([H])([H])[H])(C([H])([H])[H])C([H])([H])[H])C([H])([H])c2c([H])c(OC([H])([H])C(=O)N([H])C([H])([H])C([H])([H])OC([H])([H])C([H])([H])OC([H])([H])C([H])([H])OC([H])([H])C([H])([H])OC([H])([H])C(=O)N([H])C([H])([H])C([H])([H])C([H])([H])C([H])([H])N([H])C(=O)N3C([H])([H])C([H])([H])C([H])([H])C([H])(n4nc(-c5c([H])c([H])c(Oc6c([H])c([H])c(F)c([H])c6F)c([H])c5[H])c(C(=O)N([H])[H])c4N([H])[H])C3([H])[H])c([H])c([H])c2C1([H])[H]

>  <smiles>  (58) 
[H]c1c([H])c([H])c2c(c1[H])C([H])([H])C([H])([H])C([H])([H])C2([H])N([H])C(=O)C1([H])N(C(=O)C([H])(N([H])C(=O)C([H])(N([H])C([H])([H])[H])C([H])([H])[H])C(C([H])([H])[H])(C([H])([H])[H])C([H])([H])[H])C([H])([H])c2c([H])c(OC([H])([H])C(=O)N([H])C([H])([H])C([H])([H])OC([H])([H])C([H])([H])OC([H])([H])C([H])([H])OC([H])([H])C([H])([H])OC([H])([H])C(=O)N([H])C([H])([H])C([H])([H])C([H])([H])C([H])([H])N([H])C(=O)N3C([H])([H])C([H])([H])C([H])([H])C([H])(n4nc(-c5c([H])c([H])c(Oc6c([H])c([H])c(F)c([H])c6F)c([H])c5[H])c(C(=O)N([H])[H])c4N([H])[H])C3([H])[H])c([H])c([H])c2C1([H])[H]

$$$$
61:0:0
     RDKit          3D

 96103  0  0  1  0  0  0  0  0999 V2000
  -26.9660  -21.6580   17.0770 C   0  0  0  0  0  2  0  0  0  0  0  0
  -27.9460  -22.8100   16.8180 C   0  0  0  0  0  2  0  0  0  0  0  0
  -28.6620  -23.1750   18.0600 N   0  0  0  0  0  4  0  0  0  0  0  0
  -29.3230  -22.4440   18.2750 H   0  0  0  0  0  0  0  0  0  0  0  0
  -27.9870  -23.2010   18.8060 H   0  0  0  0  0  0  0  0  0  0  0  0
  -29.3770  -24.4670   18.0030 C   0  0  0  0  0  2  0  0  0  0  0  0
  -29.8230  -24.9430   19.4000 C   0  0  0  0  0  2  0  0  0  0  0  0
  -28.7240  -25.6980   20.1650 C   0  0  0  0  0  2  0  0  0  0  0  0
  -28.6280  -27.0040   19.6120 O   0  0  0  0  0  0  0  0  0  0  0  0
  -24.7100  -31.7970   23.1020 C   0  0  0  0  0  0  0  0  0  0  0  0
  -27.4140  -27.6280   19.7330 C   0  0  0  0  0  0  0  0  0  0  0  0
  -23.5000  -30.4160   21.4430 C   0  0  0  0  0  3  0  0  0  0  0  0
  -24.9560  -29.0000   19.9060 C   0  0  0  0  0  0  0  0  0  0  0  0
  -25.9980  -30.8920   21.1700 C   0  0  0  0  0  2  0  0  0  0  0  0
  -26.1110  -29.5550   20.4710 C   0  0  0  0  0  0  0  0  0  0  0  0
  -27.3440  -28.8780   20.3790 C   0  0  0  0  0  3  0  0  0  0  0  0
  -26.2450  -27.0720   19.1710 C   0  0  0  0  0  3  0  0  0  0  0  0
  -25.0150  -27.7520   19.2580 C   0  0  0  0  0  3  0  0  0  0  0  0
  -23.6820  -29.8020   20.0300 C   0  0  0  0  0  2  0  0  0  0  0  0
  -24.7560  -31.0480   21.9630 N   0  0  0  0  0  0  0  0  0  0  0  0
  -23.6410  -32.0020   23.6910 O   0  0  0  0  0  0  0  0  0  0  0  0
  -22.9270  -29.3270   22.3790 C   0  0  0  0  0  0  0  0  0  0  0  0
  -21.6070  -29.1010   22.2910 N   0  0  0  0  0  0  0  0  0  0  0  0
  -23.6650  -28.6910   23.1360 O   0  0  0  0  0  0  0  0  0  0  0  0
  -21.0720  -29.6690   21.6470 H   0  0  0  0  0  0  0  0  0  0  0  0
  -18.3010  -27.7570   22.8420 C   0  0  0  0  0  0  0  0  0  0  0  0
  -20.8540  -28.1010   23.0460 C   0  0  0  0  0  3  0  0  0  0  0  0
  -20.9930  -26.7010   22.4030 C   0  0  0  0  0  2  0  0  0  0  0  0
  -19.8700  -26.3800   21.4120 C   0  0  0  0  0  2  0  0  0  0  0  0
  -18.5050  -26.4450   22.1030 C   0  0  0  0  0  2  0  0  0  0  0  0
  -19.4030  -28.5420   23.2690 C   0  0  0  0  0  0  0  0  0  0  0  0
  -19.1580  -29.7730   23.9180 C   0  0  0  0  0  3  0  0  0  0  0  0
  -17.8430  -30.2170   24.1450 C   0  0  0  0  0  3  0  0  0  0  0  0
  -16.7540  -29.4270   23.7350 C   0  0  0  0  0  3  0  0  0  0  0  0
  -16.9850  -28.2000   23.0890 C   0  0  0  0  0  3  0  0  0  0  0  0
  -25.9940  -32.4480   23.7030 C   0  0  0  0  0  3  0  0  0  0  0  0
  -25.6430  -33.8120   24.1220 N   0  0  0  0  0  0  0  0  0  0  0  0
  -25.9090  -34.9160   23.4130 C   0  0  0  0  0  0  0  0  0  0  0  0
  -26.5470  -34.8960   22.3570 O   0  0  0  0  0  0  0  0  0  0  0  0
  -25.0710  -33.9010   24.9500 H   0  0  0  0  0  0  0  0  0  0  0  0
  -24.0950  -36.6450   23.2150 C   0  0  0  0  0  1  0  0  0  0  0  0
  -25.3800  -36.2550   23.9630 C   0  0  0  0  0  3  0  0  0  0  0  0
  -27.5070  -37.1780   24.7660 C   0  0  0  0  0  1  0  0  0  0  0  0
  -26.3640  -37.3550   23.8740 N   0  0  0  0  0  0  0  0  0  0  0  0
  -25.9300  -38.2480   24.0890 H   0  0  0  0  0  0  0  0  0  0  0  0
  -26.6010  -31.6310   24.9110 C   0  0  1  0  0  0  0  0  0  0  0  0
  -25.5680  -31.2910   26.0100 C   0  0  0  0  0  1  0  0  0  0  0  0
  -27.2180  -30.3060   24.4110 C   0  0  0  0  0  1  0  0  0  0  0  0
  -27.7500  -32.4380   25.5610 C   0  0  0  0  0  1  0  0  0  0  0  0
  -25.7730  -22.0590   17.9750 C   0  0  0  0  0  2  0  0  0  0  0  0
  -25.3300  -20.9310   18.9230 C   0  0  0  0  0  2  0  0  0  0  0  0
  -26.3240  -20.6830   20.0730 C   0  0  0  0  0  2  0  0  0  0  0  0
  -27.6540  -20.5940   19.5540 O   0  0  0  0  0  0  0  0  0  0  0  0
  -28.6630  -20.4270   20.5440 C   0  0  0  0  0  2  0  0  0  0  0  0
  -28.8120  -18.9510   20.9550 C   0  0  0  0  0  2  0  0  0  0  0  0
  -29.8160  -18.2930   20.1790 O   0  0  0  0  0  0  0  0  0  0  0  0
  -29.7850  -16.8800   20.3550 C   0  0  0  0  0  2  0  0  0  0  0  0
  -31.1890  -16.2480   20.2930 C   0  0  0  0  0  2  0  0  0  0  0  0
  -31.5950  -13.8060   19.8850 C   0  0  0  0  0  0  0  0  0  0  0  0
  -31.0960  -11.5710   18.9670 C   0  0  0  0  0  2  0  0  0  0  0  0
  -30.1480  -11.7220   17.7570 C   0  0  0  0  0  2  0  0  0  0  0  0
  -28.6730  -11.7920   18.2010 C   0  0  0  0  0  2  0  0  0  0  0  0
  -28.4450  -12.8040   19.3550 C   0  0  0  0  0  3  0  0  0  0  0  0
  -29.4820  -12.5750   20.4800 C   0  0  0  0  0  2  0  0  0  0  0  0
  -30.8330  -12.6840   19.8920 N   0  0  0  0  0  0  0  0  0  0  0  0
  -32.6430  -13.9280   19.2430 O   0  0  0  0  0  0  0  0  0  0  0  0
  -31.0490  -14.8200   20.5640 N   0  0  0  0  0  0  0  0  0  0  0  0
  -30.2500  -14.5640   21.1220 H   0  0  0  0  0  0  0  0  0  0  0  0
  -26.1590  -13.7640   20.0660 C   0  0  0  0  0  0  0  0  0  0  0  0
  -25.0080  -13.1600   20.4920 C   0  0  0  0  0  0  0  0  0  0  0  0
  -25.2810  -11.7570   20.5040 C   0  0  0  0  0  0  0  0  0  0  0  0
  -27.0740  -12.7410   19.8600 N   0  0  0  0  0  0  0  0  0  0  0  0
  -26.5450  -11.5300   20.1750 N   0  0  0  0  0  0  0  0  0  0  0  0
  -24.3940  -10.6150   20.7590 C   0  0  0  0  0  0  0  0  0  0  0  0
  -24.7110   -9.6420   21.7330 C   0  0  0  0  0  3  0  0  0  0  0  0
  -23.8350   -8.5620   21.9750 C   0  0  0  0  0  3  0  0  0  0  0  0
  -22.6300   -8.4470   21.2430 C   0  0  0  0  0  0  0  0  0  0  0  0
  -22.3320   -9.4040   20.2590 C   0  0  0  0  0  3  0  0  0  0  0  0
  -23.2050  -10.4770   20.0170 C   0  0  0  0  0  3  0  0  0  0  0  0
  -21.7320   -7.4180   21.3910 O   0  0  0  0  0  0  0  0  0  0  0  0
  -21.5990   -6.7470   22.5790 C   0  0  0  0  0  0  0  0  0  0  0  0
  -21.2700   -7.4130   23.7800 C   0  0  0  0  0  3  0  0  0  0  0  0
  -21.0720   -6.6760   24.9640 C   0  0  0  0  0  3  0  0  0  0  0  0
  -21.1930   -5.2730   24.9490 C   0  0  0  0  0  0  0  0  0  0  0  0
  -21.5120   -4.6080   23.7530 C   0  0  0  0  0  3  0  0  0  0  0  0
  -21.7120   -5.3430   22.5720 C   0  0  0  0  0  0  0  0  0  0  0  0
  -22.0000   -4.6950   21.4180 F   0  0  0  0  0  0  0  0  0  0  0  0
  -20.9940   -4.5620   26.0840 F   0  0  0  0  0  0  0  0  0  0  0  0
  -23.6950  -13.8320   20.7730 C   0  0  0  0  0  0  0  0  0  0  0  0
  -22.9100  -13.2840   21.6960 N   0  0  0  0  0  0  0  0  0  0  0  0
  -23.3770  -14.8770   20.2080 O   0  0  0  0  0  0  0  0  0  0  0  0
  -23.1810  -12.4400   22.1780 H   0  0  0  0  0  0  0  0  0  0  0  0
  -22.0280  -13.7210   21.9250 H   0  0  0  0  0  0  0  0  0  0  0  0
  -26.4970  -15.0920   19.8230 N   0  0  0  0  0  0  0  0  0  0  0  0
  -25.7960  -15.8250   19.8780 H   0  0  0  0  0  0  0  0  0  0  0  0
  -27.3480  -15.3830   19.3610 H   0  0  0  0  0  0  0  0  0  0  0  0
  1 50  1  0
  2  1  1  0
  2  3  1  0
  3  4  1  0
  3  5  1  0
  6  3  1  0
  6  7  1  0
  7  8  1  0
  9 11  1  0
  9  8  1  0
 10 21  2  0
 11 16  1  0
 12 20  1  0
 12 22  1  0
 13 19  1  0
 13 15  1  0
 14 20  1  0
 15 14  1  0
 16 15  2  0
 17 18  1  0
 17 11  2  0
 18 13  2  0
 19 12  1  0
 20 10  1  0
 22 24  2  0
 23 22  1  0
 25 23  1  0
 26 35  2  0
 26 31  1  0
 27 23  1  0
 27 31  1  0
 28 27  1  0
 29 30  1  0
 29 28  1  0
 30 26  1  0
 31 32  2  0
 32 33  1  0
 34 33  2  0
 35 34  1  0
 36 10  1  0
 36 37  1  0
 36 46  1  0
 37 40  1  0
 38 42  1  0
 38 37  1  0
 39 38  2  0
 42 41  1  0
 44 42  1  0
 44 45  1  0
 44 43  1  0
 46 49  1  1
 46 47  1  0
 48 46  1  0
 50 51  1  0
 51 52  1  0
 53 52  1  0
 53 54  1  0
 54 55  1  0
 56 57  1  0
 56 55  1  0
 58 57  1  0
 58 67  1  0
 59 65  1  0
 59 67  1  0
 60 65  1  0
 61 62  1  0
 61 60  1  0
 63 62  1  0
 63 72  1  0
 63 64  1  0
 65 64  1  0
 66 59  2  0
 67 68  1  0
 69 70  2  0
 70 71  1  0
 70 89  1  0
 71 74  1  0
 72 69  1  0
 72 73  1  0
 73 71  2  0
 74 75  1  0
 75 76  2  0
 77 80  1  0
 77 76  1  0
 78 77  2  0
 79 78  1  0
 79 74  2  0
 80 81  1  0
 81 82  1  0
 82 83  2  0
 84 83  1  0
 84 88  1  0
 85 84  2  0
 86 81  2  0
 86 85  1  0
 87 86  1  0
 89 90  1  0
 90 93  1  0
 90 92  1  0
 91 89  2  0
 94 95  1  0
 94 69  1  0
 96 94  1  0
M  ISO  4   8 101   9 101  59 100  67 100
M  END
>  <TORSDO>  (59) 
F 30

>  <SCORE>  (59) 
-7.359

>  <name>  (59) 
61

>  <ligand_id>  (59) 
61

>  <original_smiles>  (59) 
[H]c1c([H])c([H])c2c(c1[H])C([H])([H])C([H])([H])C([H])([H])C2([H])N([H])C(=O)C1([H])N(C(=O)C([H])(N([H])C(=O)C([H])(N([H])C([H])([H])[H])C([H])([H])[H])C(C([H])([H])[H])(C([H])([H])[H])C([H])([H])[H])C([H])([H])c2c([H])c(OC([H])([H])C([H])([H])C([H])([H])[N+]([H])([H])C([H])([H])C([H])([H])C([H])([H])C([H])([H])C([H])([H])OC([H])([H])C([H])([H])OC([H])([H])C([H])([H])N([H])C(=O)N3C([H])([H])C([H])([H])C([H])([H])C([H])(n4nc(-c5c([H])c([H])c(Oc6c([H])c([H])c(F)c([H])c6F)c([H])c5[H])c(C(=O)N([H])[H])c4N([H])[H])C3([H])[H])c([H])c([H])c2C1([H])[H]

>  <smiles>  (59) 
[H]c1c([H])c([H])c2c(c1[H])C([H])([H])C([H])([H])C([H])([H])C2([H])N([H])C(=O)C1([H])N(C(=O)C([H])(N([H])C(=O)C([H])(N([H])C([H])([H])[H])C([H])([H])[H])C(C([H])([H])[H])(C([H])([H])[H])C([H])([H])[H])C([H])([H])c2c([H])c(OC([H])([H])C([H])([H])C([H])([H])[N+]([H])([H])C([H])([H])C([H])([H])C([H])([H])C([H])([H])C([H])([H])OC([H])([H])C([H])([H])OC([H])([H])C([H])([H])N([H])C(=O)N3C([H])([H])C([H])([H])C([H])([H])C([H])(n4nc(-c5c([H])c([H])c(Oc6c([H])c([H])c(F)c([H])c6F)c([H])c5[H])c(C(=O)N([H])[H])c4N([H])[H])C3([H])[H])c([H])c([H])c2C1([H])[H]

$$$$
62:0:0
     RDKit          3D

 99107  0  0  1  0  0  0  0  0999 V2000
  -25.2610  -26.1320   21.4670 C   0  0  0  0  0  2  0  0  0  0  0  0
  -24.7400  -24.1830   23.0220 C   0  0  0  0  0  2  0  0  0  0  0  0
  -25.0750  -25.0280   20.4110 C   0  0  0  0  0  2  0  0  0  0  0  0
  -23.4940  -24.1150   22.1120 C   0  0  0  0  0  2  0  0  0  0  0  0
  -25.5060  -25.5230   22.8710 C   0  0  0  0  0  3  0  0  0  0  0  0
  -23.8660  -24.1820   20.6690 N   0  0  2  0  0  4  0  0  0  0  0  0
  -23.1010  -24.6710   20.2220 H   0  0  0  0  0  0  0  0  0  0  0  0
  -26.9520  -25.3510   23.2050 N   0  0  0  0  0  4  0  0  0  0  0  0
  -27.3260  -24.4840   22.8470 H   0  0  0  0  0  0  0  0  0  0  0  0
  -26.9880  -25.2680   24.2100 H   0  0  0  0  0  0  0  0  0  0  0  0
  -27.8490  -26.4920   22.8770 C   0  0  0  0  0  2  0  0  0  0  0  0
  -28.6130  -26.3480   21.5320 C   0  0  0  0  0  2  0  0  0  0  0  0
  -28.8120  -27.6200   20.8980 O   0  0  0  0  0  0  0  0  0  0  0  0
  -25.2750  -32.3350   24.8150 C   0  0  0  0  0  0  0  0  0  0  0  0
  -27.7180  -28.4470   20.9620 C   0  0  0  0  0  0  0  0  0  0  0  0
  -24.0450  -31.4180   22.8740 C   0  0  0  0  0  3  0  0  0  0  0  0
  -25.4430  -30.0940   21.2030 C   0  0  0  0  0  0  0  0  0  0  0  0
  -26.5930  -31.6080   22.8290 C   0  0  0  0  0  2  0  0  0  0  0  0
  -26.6070  -30.3990   21.9200 C   0  0  0  0  0  0  0  0  0  0  0  0
  -27.7520  -29.5860   21.7930 C   0  0  0  0  0  3  0  0  0  0  0  0
  -26.5450  -28.1530   20.2350 C   0  0  0  0  0  3  0  0  0  0  0  0
  -25.4070  -28.9740   20.3550 C   0  0  0  0  0  3  0  0  0  0  0  0
  -24.2650  -31.0240   21.3890 C   0  0  0  0  0  2  0  0  0  0  0  0
  -25.3210  -31.7850   23.5690 N   0  0  0  0  0  0  0  0  0  0  0  0
  -24.1930  -32.5760   25.3690 O   0  0  0  0  0  0  0  0  0  0  0  0
  -23.2730  -30.2770   23.5740 C   0  0  0  0  0  0  0  0  0  0  0  0
  -21.9960  -30.1030   23.1950 N   0  0  0  0  0  0  0  0  0  0  0  0
  -23.8270  -29.5580   24.4100 O   0  0  0  0  0  0  0  0  0  0  0  0
  -21.6130  -30.7400   22.5120 H   0  0  0  0  0  0  0  0  0  0  0  0
  -18.6820  -28.7170   22.8110 C   0  0  0  0  0  0  0  0  0  0  0  0
  -21.0890  -29.0660   23.6840 C   0  0  0  0  0  3  0  0  0  0  0  0
  -21.4130  -27.6950   23.0470 C   0  0  0  0  0  2  0  0  0  0  0  0
  -20.5910  -27.4070   21.7860 C   0  0  0  0  0  2  0  0  0  0  0  0
  -19.0920  -27.4360   22.1040 C   0  0  0  0  0  2  0  0  0  0  0  0
  -19.6240  -29.4890   23.5400 C   0  0  0  0  0  0  0  0  0  0  0  0
  -19.2000  -30.6900   24.1510 C   0  0  0  0  0  3  0  0  0  0  0  0
  -17.8630  -31.1170   24.0440 C   0  0  0  0  0  3  0  0  0  0  0  0
  -16.9320  -30.3430   23.3330 C   0  0  0  0  0  3  0  0  0  0  0  0
  -17.3400  -29.1430   22.7220 C   0  0  0  0  0  3  0  0  0  0  0  0
  -26.5760  -32.7050   25.5960 C   0  0  0  0  0  3  0  0  0  0  0  0
  -26.4940  -34.1310   25.9380 N   0  0  0  0  0  0  0  0  0  0  0  0
  -27.1560  -35.1050   25.3020 C   0  0  0  0  0  0  0  0  0  0  0  0
  -27.9680  -34.8830   24.4000 O   0  0  0  0  0  0  0  0  0  0  0  0
  -25.8060  -34.3920   26.6300 H   0  0  0  0  0  0  0  0  0  0  0  0
  -25.9430  -37.2290   24.7150 C   0  0  0  0  0  1  0  0  0  0  0  0
  -26.8740  -36.5560   25.7340 C   0  0  0  0  0  3  0  0  0  0  0  0
  -28.9350  -36.9360   27.0160 C   0  0  0  0  0  1  0  0  0  0  0  0
  -28.0980  -37.3700   25.9000 N   0  0  0  0  0  0  0  0  0  0  0  0
  -27.8640  -38.3490   26.0410 H   0  0  0  0  0  0  0  0  0  0  0  0
  -26.7960  -31.8290   26.8900 C   0  0  1  0  0  0  0  0  0  0  0  0
  -25.5420  -31.7210   27.7890 C   0  0  0  0  0  1  0  0  0  0  0  0
  -27.2290  -30.3940   26.5070 C   0  0  0  0  0  1  0  0  0  0  0  0
  -27.9400  -32.4310   27.7410 C   0  0  0  0  0  1  0  0  0  0  0  0
  -23.8670  -22.8250   20.0380 C   0  0  0  0  0  2  0  0  0  0  0  0
  -24.6290  -22.7000   18.7060 C   0  0  0  0  0  2  0  0  0  0  0  0
  -25.8470  -23.4080   18.8940 O   0  0  0  0  0  0  0  0  0  0  0  0
  -26.7690  -23.3100   17.8240 C   0  0  0  0  0  2  0  0  0  0  0  0
  -27.9620  -24.2160   18.1670 C   0  0  0  0  0  2  0  0  0  0  0  0
  -29.1420  -23.4360   18.1330 O   0  0  0  0  0  0  0  0  0  0  0  0
  -30.1870  -23.9310   18.9530 C   0  0  0  0  0  2  0  0  0  0  0  0
  -31.0260  -22.7030   19.2970 C   0  0  0  0  0  2  0  0  0  0  0  0
  -33.1230  -22.2190   20.4320 C   0  0  0  0  0  0  0  0  0  0  0  0
  -34.1510  -19.9810   20.5440 C   0  0  0  0  0  2  0  0  0  0  0  0
  -33.9580  -19.2240   19.2150 C   0  0  0  0  0  2  0  0  0  0  0  0
  -32.6090  -18.4760   19.1990 C   0  0  0  0  0  2  0  0  0  0  0  0
  -31.4260  -19.3860   19.6180 C   0  0  0  0  0  3  0  0  0  0  0  0
  -31.7640  -20.1380   20.9290 C   0  0  0  0  0  2  0  0  0  0  0  0
  -33.0120  -20.8920   20.7130 N   0  0  0  0  0  0  0  0  0  0  0  0
  -34.1980  -22.7880   20.2480 O   0  0  0  0  0  0  0  0  0  0  0  0
  -31.9900  -22.9250   20.3730 N   0  0  0  0  0  0  0  0  0  0  0  0
  -32.1450  -23.9070   20.5500 H   0  0  0  0  0  0  0  0  0  0  0  0
  -28.8690  -19.1070   19.7810 C   0  0  0  0  0  0  0  0  0  0  0  0
  -28.0760  -17.9920   19.8040 C   0  0  0  0  0  0  0  0  0  0  0  0
  -28.9660  -16.8750   19.7570 C   0  0  0  0  0  0  0  0  0  0  0  0
  -30.1750  -18.6410   19.7280 N   0  0  0  0  0  0  0  0  0  0  0  0
  -30.2260  -17.2870   19.7690 N   0  0  0  0  0  0  0  0  0  0  0  0
  -28.6930  -15.4390   19.6430 C   0  0  0  0  0  0  0  0  0  0  0  0
  -29.0830  -14.5330   20.6540 C   0  0  0  0  0  3  0  0  0  0  0  0
  -28.7970  -13.1570   20.5270 C   0  0  0  0  0  3  0  0  0  0  0  0
  -28.1120  -12.6760   19.3860 C   0  0  0  0  0  0  0  0  0  0  0  0
  -27.7490  -13.5800   18.3720 C   0  0  0  0  0  3  0  0  0  0  0  0
  -28.0390  -14.9480   18.4960 C   0  0  0  0  0  3  0  0  0  0  0  0
  -27.8130  -11.3540   19.1680 O   0  0  0  0  0  0  0  0  0  0  0  0
  -27.4300  -10.5230   20.1910 C   0  0  0  0  0  0  0  0  0  0  0  0
  -26.2790  -10.7820   20.9670 C   0  0  0  0  0  3  0  0  0  0  0  0
  -25.8800   -9.8670   21.9610 C   0  0  0  0  0  3  0  0  0  0  0  0
  -26.6230   -8.6900   22.1750 C   0  0  0  0  0  0  0  0  0  0  0  0
  -27.7660   -8.4280   21.3980 C   0  0  0  0  0  3  0  0  0  0  0  0
  -28.1660   -9.3410   20.4070 C   0  0  0  0  0  0  0  0  0  0  0  0
  -29.2560   -9.0730   19.6490 F   0  0  0  0  0  0  0  0  0  0  0  0
  -26.2360   -7.8070   23.1240 F   0  0  0  0  0  0  0  0  0  0  0  0
  -26.5750  -17.9570   19.7740 C   0  0  0  0  0  0  0  0  0  0  0  0
  -25.9740  -16.9210   20.3490 N   0  0  0  0  0  0  0  0  0  0  0  0
  -25.9240  -18.8780   19.2830 O   0  0  0  0  0  0  0  0  0  0  0  0
  -26.5090  -16.1730   20.7650 H   0  0  0  0  0  0  0  0  0  0  0  0
  -24.9650  -16.8720   20.3670 H   0  0  0  0  0  0  0  0  0  0  0  0
  -28.5850  -20.4700   19.7770 N   0  0  0  0  0  0  0  0  0  0  0  0
  -27.6330  -20.8140   19.7370 H   0  0  0  0  0  0  0  0  0  0  0  0
  -29.2720  -21.2090   19.7150 H   0  0  0  0  0  0  0  0  0  0  0  0
  1  5  1  0
  3  6  1  0
  3  1  1  0
  4  2  1  0
  5  2  1  0
  5  8  1  0
  6  4  1  0
  6  7  1  6
  8 10  1  0
  9  8  1  0
 11  8  1  0
 12 11  1  0
 13 15  1  0
 13 12  1  0
 14 25  2  0
 15 20  1  0
 16 24  1  0
 16 26  1  0
 17 23  1  0
 17 19  1  0
 18 24  1  0
 19 18  1  0
 20 19  2  0
 21 22  1  0
 21 15  2  0
 22 17  2  0
 23 16  1  0
 24 14  1  0
 26 28  2  0
 27 26  1  0
 29 27  1  0
 30 35  1  0
 31 27  1  0
 32 31  1  0
 33 34  1  0
 33 32  1  0
 34 30  1  0
 35 31  1  0
 35 36  2  0
 37 36  1  0
 38 37  2  0
 39 30  2  0
 39 38  1  0
 40 14  1  0
 40 41  1  0
 40 50  1  0
 41 44  1  0
 42 46  1  0
 42 41  1  0
 43 42  2  0
 46 45  1  0
 46 48  1  0
 48 49  1  0
 48 47  1  0
 50 53  1  1
 50 51  1  0
 52 50  1  0
 54  6  1  0
 55 56  1  0
 55 54  1  0
 57 58  1  0
 57 56  1  0
 59 58  1  0
 59 60  1  0
 60 61  1  0
 61 70  1  0
 62 68  1  0
 63 68  1  0
 64 63  1  0
 65 64  1  0
 66 65  1  0
 66 75  1  0
 66 67  1  0
 68 67  1  0
 69 62  2  0
 70 62  1  0
 70 71  1  0
 72 73  2  0
 74 76  2  0
 74 73  1  0
 75 76  1  0
 75 72  1  0
 77 74  1  0
 77 78  1  0
 79 78  2  0
 80 79  1  0
 81 82  1  0
 81 80  2  0
 82 77  2  0
 83 80  1  0
 83 84  1  0
 84 89  2  0
 84 85  1  0
 85 86  2  0
 86 87  1  0
 87 91  1  0
 88 87  2  0
 89 88  1  0
 90 89  1  0
 92 73  1  0
 92 93  1  0
 93 96  1  0
 93 95  1  0
 94 92  2  0
 97 72  1  0
 98 97  1  0
 99 97  1  0
M  ISO  4  12 101  13 101  62 100  70 100
M  END
>  <TORSDO>  (60) 
F 27

>  <SCORE>  (60) 
-3.659

>  <name>  (60) 
62

>  <ligand_id>  (60) 
62

>  <original_smiles>  (60) 
[H]c1c([H])c([H])c2c(c1[H])C([H])([H])C([H])([H])C([H])([H])C2([H])N([H])C(=O)C1([H])N(C(=O)C([H])(N([H])C(=O)C([H])(N([H])C([H])([H])[H])C([H])([H])[H])C(C([H])([H])[H])(C([H])([H])[H])C([H])([H])[H])C([H])([H])c2c([H])c(OC([H])([H])C([H])([H])[N+]([H])([H])C3([H])C([H])([H])C([H])([H])[N+]([H])(C([H])([H])C([H])([H])OC([H])([H])C([H])([H])OC([H])([H])C([H])([H])N([H])C(=O)N4C([H])([H])C([H])([H])C([H])([H])C([H])(n5nc(-c6c([H])c([H])c(Oc7c([H])c([H])c(F)c([H])c7F)c([H])c6[H])c(C(=O)N([H])[H])c5N([H])[H])C4([H])[H])C([H])([H])C3([H])[H])c([H])c([H])c2C1([H])[H]

>  <smiles>  (60) 
[H]c1c([H])c([H])c2c(c1[H])C([H])([H])C([H])([H])C([H])([H])C2([H])N([H])C(=O)C1([H])N(C(=O)C([H])(N([H])C(=O)C([H])(N([H])C([H])([H])[H])C([H])([H])[H])C(C([H])([H])[H])(C([H])([H])[H])C([H])([H])[H])C([H])([H])c2c([H])c(OC([H])([H])C([H])([H])[N+]([H])([H])C3([H])C([H])([H])C([H])([H])[N+]([H])(C([H])([H])C([H])([H])OC([H])([H])C([H])([H])OC([H])([H])C([H])([H])N([H])C(=O)N4C([H])([H])C([H])([H])C([H])([H])C([H])(n5nc(-c6c([H])c([H])c(Oc7c([H])c([H])c(F)c([H])c7F)c([H])c6[H])c(C(=O)N([H])[H])c5N([H])[H])C4([H])[H])C([H])([H])C3([H])[H])c([H])c([H])c2C1([H])[H]

$$$$
63:0:0
     RDKit          3D

101108  0  0  1  0  0  0  0  0999 V2000
  -24.5790  -22.2420   21.2860 C   0  0  0  0  0  2  0  0  0  0  0  0
  -25.8590  -22.8630   21.3620 O   0  0  0  0  0  0  0  0  0  0  0  0
  -26.5410  -22.9330   20.1140 C   0  0  0  0  0  2  0  0  0  0  0  0
  -27.9360  -22.3050   20.2310 C   0  0  0  0  0  2  0  0  0  0  0  0
  -28.8740  -23.2840   20.6680 O   0  0  0  0  0  0  0  0  0  0  0  0
  -30.2320  -22.8530   20.6380 C   0  0  0  0  0  2  0  0  0  0  0  0
  -30.5660  -22.0430   19.3730 C   0  0  0  0  0  2  0  0  0  0  0  0
  -30.3810  -20.6730   19.6900 O   0  0  0  0  0  0  0  0  0  0  0  0
  -29.7450  -19.9280   18.6680 C   0  0  0  0  0  2  0  0  0  0  0  0
  -30.0570  -18.4550   18.9290 C   0  0  0  0  0  2  0  0  0  0  0  0
  -29.5850  -18.0840   20.2250 O   0  0  0  0  0  0  0  0  0  0  0  0
  -30.6410  -17.7380   21.1200 C   0  0  0  0  0  2  0  0  0  0  0  0
  -30.1010  -16.8900   22.2900 C   0  0  0  0  0  2  0  0  0  0  0  0
  -30.6260  -14.8670   20.9380 C   0  0  0  0  0  0  0  0  0  0  0  0
  -30.3340  -13.1890   19.1620 C   0  0  0  0  0  2  0  0  0  0  0  0
  -29.2800  -13.6960   18.1550 C   0  0  0  0  0  2  0  0  0  0  0  0
  -27.8500  -13.3610   18.6270 C   0  0  0  0  0  2  0  0  0  0  0  0
  -27.6020  -13.7360   20.1130 C   0  0  0  0  0  3  0  0  0  0  0  0
  -28.7450  -13.2020   21.0000 C   0  0  0  0  0  2  0  0  0  0  0  0
  -30.0120  -13.7510   20.4800 N   0  0  0  0  0  0  0  0  0  0  0  0
  -31.6520  -15.3460   20.4410 O   0  0  0  0  0  0  0  0  0  0  0  0
  -29.9460  -15.4930   21.9020 N   0  0  0  0  0  0  0  0  0  0  0  0
  -29.1240  -15.0120   22.2390 H   0  0  0  0  0  0  0  0  0  0  0  0
  -25.1700  -14.0020   20.9180 C   0  0  0  0  0  0  0  0  0  0  0  0
  -24.2020  -13.0800   21.2130 C   0  0  0  0  0  0  0  0  0  0  0  0
  -24.8080  -11.7970   21.0310 C   0  0  0  0  0  0  0  0  0  0  0  0
  -26.2980  -13.2710   20.5750 N   0  0  0  0  0  0  0  0  0  0  0  0
  -26.0830  -11.9370   20.6980 N   0  0  0  0  0  0  0  0  0  0  0  0
  -24.2350  -10.4490   21.0950 C   0  0  0  0  0  0  0  0  0  0  0  0
  -24.7260   -9.4850   22.0050 C   0  0  0  0  0  3  0  0  0  0  0  0
  -24.1470   -8.2000   22.0630 C   0  0  0  0  0  3  0  0  0  0  0  0
  -23.0670   -7.8690   21.2090 C   0  0  0  0  0  0  0  0  0  0  0  0
  -22.6010   -8.8250   20.2900 C   0  0  0  0  0  3  0  0  0  0  0  0
  -23.1820  -10.1010   20.2290 C   0  0  0  0  0  3  0  0  0  0  0  0
  -22.4600   -6.6360   21.1760 O   0  0  0  0  0  0  0  0  0  0  0  0
  -21.9940   -6.0360   22.3170 C   0  0  0  0  0  0  0  0  0  0  0  0
  -21.1190   -6.6980   23.2060 C   0  0  0  0  0  3  0  0  0  0  0  0
  -20.6090   -6.0170   24.3290 C   0  0  0  0  0  3  0  0  0  0  0  0
  -20.9660   -4.6750   24.5610 C   0  0  0  0  0  0  0  0  0  0  0  0
  -21.8310   -4.0130   23.6740 C   0  0  0  0  0  3  0  0  0  0  0  0
  -22.3420   -4.6910   22.5540 C   0  0  0  0  0  0  0  0  0  0  0  0
  -23.1610   -4.0440   21.6910 F   0  0  0  0  0  0  0  0  0  0  0  0
  -20.4710   -4.0160   25.6350 F   0  0  0  0  0  0  0  0  0  0  0  0
  -22.7700  -13.3650   21.5590 C   0  0  0  0  0  0  0  0  0  0  0  0
  -22.1670  -12.5210   22.3880 N   0  0  0  0  0  0  0  0  0  0  0  0
  -22.1900  -14.3630   21.1300 O   0  0  0  0  0  0  0  0  0  0  0  0
  -22.6510  -11.7170   22.7570 H   0  0  0  0  0  0  0  0  0  0  0  0
  -21.2080  -12.6850   22.6600 H   0  0  0  0  0  0  0  0  0  0  0  0
  -25.1870  -15.3960   20.8980 N   0  0  0  0  0  0  0  0  0  0  0  0
  -24.3650  -15.9510   21.1010 H   0  0  0  0  0  0  0  0  0  0  0  0
  -25.9980  -15.9540   20.6600 H   0  0  0  0  0  0  0  0  0  0  0  0
  -23.5150  -23.2110   21.8170 C   0  0  0  0  0  2  0  0  0  0  0  0
  -23.4020  -24.3140   20.9280 O   0  0  0  0  0  0  0  0  0  0  0  0
  -23.2620  -25.5510   21.6170 C   0  0  0  0  0  2  0  0  0  0  0  0
  -23.2400  -26.7010   20.6040 C   0  0  0  0  0  2  0  0  0  0  0  0
  -25.4990  -26.5750   19.5680 C   0  0  0  0  0  0  0  0  0  0  0  0
  -24.1670  -26.5000   19.4960 N   0  0  0  0  0  0  0  0  0  0  0  0
  -26.1130  -26.4980   20.6350 O   0  0  0  0  0  0  0  0  0  0  0  0
  -23.7580  -26.5110   18.5730 H   0  0  0  0  0  0  0  0  0  0  0  0
  -26.2370  -26.8790   18.2490 C   0  0  0  0  0  2  0  0  0  0  0  0
  -25.9560  -28.2210   17.8170 O   0  0  0  0  0  0  0  0  0  0  0  0
  -25.3330  -30.7220   24.4140 C   0  0  0  0  0  0  0  0  0  0  0  0
  -25.2110  -29.0110   18.6630 C   0  0  0  0  0  0  0  0  0  0  0  0
  -23.3620  -31.0520   22.9550 C   0  0  0  0  0  3  0  0  0  0  0  0
  -23.7240  -30.5750   20.4770 C   0  0  0  0  0  0  0  0  0  0  0  0
  -25.7110  -30.9110   21.9610 C   0  0  0  0  0  2  0  0  0  0  0  0
  -25.0800  -30.3280   20.7150 C   0  0  0  0  0  0  0  0  0  0  0  0
  -25.8320  -29.5560   19.8070 C   0  0  0  0  0  3  0  0  0  0  0  0
  -23.8470  -29.2810   18.4220 C   0  0  0  0  0  3  0  0  0  0  0  0
  -23.0990  -30.0550   19.3280 C   0  0  0  0  0  3  0  0  0  0  0  0
  -22.9960  -31.4230   21.4920 C   0  0  0  0  0  2  0  0  0  0  0  0
  -24.8360  -30.8630   23.1540 N   0  0  0  0  0  0  0  0  0  0  0  0
  -24.5960  -30.7970   25.4080 O   0  0  0  0  0  0  0  0  0  0  0  0
  -22.5250  -29.8220   23.3750 C   0  0  0  0  0  0  0  0  0  0  0  0
  -21.2050  -29.8900   23.1400 N   0  0  0  0  0  0  0  0  0  0  0  0
  -23.0630  -28.8270   23.8700 O   0  0  0  0  0  0  0  0  0  0  0  0
  -20.8400  -30.7440   22.7400 H   0  0  0  0  0  0  0  0  0  0  0  0
  -17.7920  -28.8660   22.5520 C   0  0  0  0  0  0  0  0  0  0  0  0
  -20.2290  -28.8380   23.4130 C   0  0  0  0  0  3  0  0  0  0  0  0
  -20.4380  -27.6250   22.4740 C   0  0  0  0  0  2  0  0  0  0  0  0
  -19.5840  -27.6920   21.2050 C   0  0  0  0  0  2  0  0  0  0  0  0
  -18.0960  -27.7530   21.5620 C   0  0  0  0  0  2  0  0  0  0  0  0
  -18.7980  -29.3860   23.4090 C   0  0  0  0  0  0  0  0  0  0  0  0
  -18.4700  -30.4420   24.2860 C   0  0  0  0  0  3  0  0  0  0  0  0
  -17.1690  -30.9750   24.3170 C   0  0  0  0  0  3  0  0  0  0  0  0
  -16.1740  -30.4490   23.4760 C   0  0  0  0  0  3  0  0  0  0  0  0
  -16.4850  -29.3920   22.5990 C   0  0  0  0  0  3  0  0  0  0  0  0
  -26.8570  -30.4900   24.6690 C   0  0  0  0  0  3  0  0  0  0  0  0
  -27.3230  -31.5520   25.5720 N   0  0  0  0  0  0  0  0  0  0  0  0
  -28.0590  -32.6050   25.1910 C   0  0  0  0  0  0  0  0  0  0  0  0
  -28.4830  -32.7460   24.0400 O   0  0  0  0  0  0  0  0  0  0  0  0
  -26.9630  -31.5360   26.5150 H   0  0  0  0  0  0  0  0  0  0  0  0
  -27.4460  -34.8880   26.0560 C   0  0  0  0  0  1  0  0  0  0  0  0
  -28.3720  -33.6750   26.2530 C   0  0  0  0  0  3  0  0  0  0  0  0
  -30.7140  -33.0920   26.7000 C   0  0  0  0  0  1  0  0  0  0  0  0
  -29.7820  -34.1200   26.2440 N   0  0  0  0  0  0  0  0  0  0  0  0
  -29.9040  -34.9430   26.8280 H   0  0  0  0  0  0  0  0  0  0  0  0
  -27.1790  -29.0680   25.2720 C   0  0  1  0  0  0  0  0  0  0  0  0
  -26.2900  -28.6900   26.4780 C   0  0  0  0  0  1  0  0  0  0  0  0
  -27.0160  -27.9670   24.1980 C   0  0  0  0  0  1  0  0  0  0  0  0
  -28.6550  -29.0160   25.7370 C   0  0  0  0  0  1  0  0  0  0  0  0
  1  2  1  0
  1 52  1  0
  3  4  1  0
  3  2  1  0
  4  5  1  0
  6  5  1  0
  7  8  1  0
  7  6  1  0
  9 10  1  0
  9  8  1  0
 10 11  1  0
 11 12  1  0
 12 13  1  0
 14 22  1  0
 15 20  1  0
 16 17  1  0
 16 15  1  0
 18 17  1  0
 18 27  1  0
 18 19  1  0
 20 14  1  0
 20 19  1  0
 21 14  2  0
 22 23  1  0
 22 13  1  0
 24 25  2  0
 25 44  1  0
 26 29  1  0
 26 25  1  0
 27 28  1  0
 27 24  1  0
 28 26  2  0
 29 30  1  0
 30 31  2  0
 32 31  1  0
 33 32  2  0
 34 33  1  0
 34 29  2  0
 35 32  1  0
 35 36  1  0
 36 41  2  0
 36 37  1  0
 37 38  2  0
 38 39  1  0
 39 43  1  0
 40 39  2  0
 41 40  1  0
 42 41  1  0
 44 45  1  0
 45 48  1  0
 45 47  1  0
 46 44  2  0
 49 24  1  0
 49 50  1  0
 51 49  1  0
 53 54  1  0
 53 52  1  0
 55 54  1  0
 56 58  2  0
 57 56  1  0
 57 55  1  0
 59 57  1  0
 60 56  1  0
 61 60  1  0
 61 63  1  0
 62 73  2  0
 63 68  1  0
 64 72  1  0
 64 74  1  0
 65 67  1  0
 65 71  1  0
 66 72  1  0
 67 66  1  0
 68 67  2  0
 69 63  2  0
 69 70  1  0
 70 65  2  0
 71 64  1  0
 72 62  1  0
 74 76  2  0
 75 74  1  0
 77 75  1  0
 78 87  2  0
 78 83  1  0
 79 75  1  0
 80 79  1  0
 81 82  1  0
 81 80  1  0
 82 78  1  0
 83 79  1  0
 83 84  2  0
 84 85  1  0
 86 85  2  0
 87 86  1  0
 88 62  1  0
 88 98  1  0
 88 89  1  0
 89 92  1  0
 90 89  1  0
 90 94  1  0
 91 90  2  0
 94 93  1  0
 96 94  1  0
 96 95  1  0
 96 97  1  0
 98101  1  1
 98 99  1  0
100 98  1  0
M  ISO  4  14 100  22 100  60 101  61 101
M  END
>  <TORSDO>  (61) 
F 34

>  <SCORE>  (61) 
-4.552

>  <name>  (61) 
63

>  <ligand_id>  (61) 
63

>  <original_smiles>  (61) 
[H]c1c([H])c([H])c2c(c1[H])C([H])([H])C([H])([H])C([H])([H])C2([H])N([H])C(=O)C1([H])N(C(=O)C([H])(N([H])C(=O)C([H])(N([H])C([H])([H])[H])C([H])([H])[H])C(C([H])([H])[H])(C([H])([H])[H])C([H])([H])[H])C([H])([H])c2c([H])c(OC([H])([H])C(=O)N([H])C([H])([H])C([H])([H])OC([H])([H])C([H])([H])OC([H])([H])C([H])([H])OC([H])([H])C([H])([H])OC([H])([H])C([H])([H])OC([H])([H])C([H])([H])N([H])C(=O)N3C([H])([H])C([H])([H])C([H])([H])C([H])(n4nc(-c5c([H])c([H])c(Oc6c([H])c([H])c(F)c([H])c6F)c([H])c5[H])c(C(=O)N([H])[H])c4N([H])[H])C3([H])[H])c([H])c([H])c2C1([H])[H]

>  <smiles>  (61) 
[H]c1c([H])c([H])c2c(c1[H])C([H])([H])C([H])([H])C([H])([H])C2([H])N([H])C(=O)C1([H])N(C(=O)C([H])(N([H])C(=O)C([H])(N([H])C([H])([H])[H])C([H])([H])[H])C(C([H])([H])[H])(C([H])([H])[H])C([H])([H])[H])C([H])([H])c2c([H])c(OC([H])([H])C(=O)N([H])C([H])([H])C([H])([H])OC([H])([H])C([H])([H])OC([H])([H])C([H])([H])OC([H])([H])C([H])([H])OC([H])([H])C([H])([H])OC([H])([H])C([H])([H])N([H])C(=O)N3C([H])([H])C([H])([H])C([H])([H])C([H])(n4nc(-c5c([H])c([H])c(Oc6c([H])c([H])c(F)c([H])c6F)c([H])c5[H])c(C(=O)N([H])[H])c4N([H])[H])C3([H])[H])c([H])c([H])c2C1([H])[H]

$$$$
64:0:0
     RDKit          3D

103110  0  0  1  0  0  0  0  0999 V2000
  -22.9890  -23.9300   15.7550 C   0  0  0  0  0  0  0  0  0  0  0  0
  -22.9830  -24.6810   14.6470 N   0  0  0  0  0  0  0  0  0  0  0  0
  -22.3650  -24.2370   16.7740 O   0  0  0  0  0  0  0  0  0  0  0  0
  -23.5220  -24.3460   13.8600 H   0  0  0  0  0  0  0  0  0  0  0  0
  -22.4200  -26.0240   14.5160 C   0  0  0  0  0  2  0  0  0  0  0  0
  -23.2430  -27.0470   15.3150 C   0  0  0  0  0  2  0  0  0  0  0  0
  -24.6280  -26.8220   15.0480 O   0  0  0  0  0  0  0  0  0  0  0  0
  -25.4530  -27.0360   16.1850 C   0  0  0  0  0  2  0  0  0  0  0  0
  -26.8780  -26.5040   15.9490 C   0  0  0  0  0  2  0  0  0  0  0  0
  -27.2800  -25.7850   17.1100 O   0  0  0  0  0  0  0  0  0  0  0  0
  -28.4920  -26.2250   17.7110 C   0  0  0  0  0  2  0  0  0  0  0  0
  -28.5690  -25.6770   19.1560 C   0  0  0  0  0  2  0  0  0  0  0  0
  -28.3490  -26.6730   20.1570 O   0  0  0  0  0  0  0  0  0  0  0  0
  -24.5640  -31.8430   23.2290 C   0  0  0  0  0  0  0  0  0  0  0  0
  -27.1430  -27.3370   20.2030 C   0  0  0  0  0  0  0  0  0  0  0  0
  -23.3290  -30.4280   21.6180 C   0  0  0  0  0  3  0  0  0  0  0  0
  -24.7510  -28.8420   20.2260 C   0  0  0  0  0  0  0  0  0  0  0  0
  -25.8540  -30.7560   21.3970 C   0  0  0  0  0  2  0  0  0  0  0  0
  -25.9180  -29.3690   20.7910 C   0  0  0  0  0  0  0  0  0  0  0  0
  -27.1120  -28.6220   20.7840 C   0  0  0  0  0  3  0  0  0  0  0  0
  -25.9430  -26.7940   19.6890 C   0  0  0  0  0  3  0  0  0  0  0  0
  -24.7530  -27.5460   19.6850 C   0  0  0  0  0  3  0  0  0  0  0  0
  -23.5200  -29.7160   20.2530 C   0  0  0  0  0  2  0  0  0  0  0  0
  -24.6010  -31.0220   22.1410 N   0  0  0  0  0  0  0  0  0  0  0  0
  -23.4890  -32.1410   23.7680 O   0  0  0  0  0  0  0  0  0  0  0  0
  -22.6700  -29.4330   22.6020 C   0  0  0  0  0  0  0  0  0  0  0  0
  -21.3450  -29.2570   22.4760 N   0  0  0  0  0  0  0  0  0  0  0  0
  -23.3480  -28.8200   23.4310 O   0  0  0  0  0  0  0  0  0  0  0  0
  -20.8590  -29.8020   21.7780 H   0  0  0  0  0  0  0  0  0  0  0  0
  -17.9650  -28.0880   22.9760 C   0  0  0  0  0  0  0  0  0  0  0  0
  -20.5200  -28.3420   23.2640 C   0  0  0  0  0  3  0  0  0  0  0  0
  -20.6220  -26.8960   22.7250 C   0  0  0  0  0  2  0  0  0  0  0  0
  -19.5280  -26.5510   21.7100 C   0  0  0  0  0  2  0  0  0  0  0  0
  -18.1420  -26.7190   22.3390 C   0  0  0  0  0  2  0  0  0  0  0  0
  -19.0830  -28.8570   23.3950 C   0  0  0  0  0  0  0  0  0  0  0  0
  -18.8660  -30.1380   23.9480 C   0  0  0  0  0  3  0  0  0  0  0  0
  -17.5620  -30.6500   24.0880 C   0  0  0  0  0  3  0  0  0  0  0  0
  -16.4580  -29.8780   23.6860 C   0  0  0  0  0  3  0  0  0  0  0  0
  -16.6610  -28.6000   23.1350 C   0  0  0  0  0  3  0  0  0  0  0  0
  -25.8620  -32.4650   23.8320 C   0  0  0  0  0  3  0  0  0  0  0  0
  -25.5660  -33.8630   24.1720 N   0  0  0  0  0  0  0  0  0  0  0  0
  -25.8950  -34.9150   23.4110 C   0  0  0  0  0  0  0  0  0  0  0  0
  -26.5520  -34.8110   22.3710 O   0  0  0  0  0  0  0  0  0  0  0  0
  -24.9820  -34.0210   24.9810 H   0  0  0  0  0  0  0  0  0  0  0  0
  -24.1710  -36.7140   23.0820 C   0  0  0  0  0  1  0  0  0  0  0  0
  -25.4190  -36.3040   23.8780 C   0  0  0  0  0  3  0  0  0  0  0  0
  -27.5710  -37.1700   24.6810 C   0  0  0  0  0  1  0  0  0  0  0  0
  -26.4560  -37.3520   23.7560 N   0  0  0  0  0  0  0  0  0  0  0  0
  -26.0590  -38.2750   23.9090 H   0  0  0  0  0  0  0  0  0  0  0  0
  -26.4020  -31.6820   25.0930 C   0  0  1  0  0  0  0  0  0  0  0  0
  -25.3270  -31.4380   26.1770 C   0  0  0  0  0  1  0  0  0  0  0  0
  -26.9750  -30.3080   24.6780 C   0  0  0  0  0  1  0  0  0  0  0  0
  -27.5670  -32.4690   25.7400 C   0  0  0  0  0  1  0  0  0  0  0  0
  -23.8620  -22.6700   15.7050 C   0  0  0  0  0  2  0  0  0  0  0  0
  -24.2720  -22.2870   17.0180 O   0  0  0  0  0  0  0  0  0  0  0  0
  -25.4000  -21.4240   16.9760 C   0  0  0  0  0  2  0  0  0  0  0  0
  -25.7340  -20.8750   18.3720 C   0  0  0  0  0  2  0  0  0  0  0  0
  -27.1230  -20.2090   18.3840 C   0  0  0  0  0  2  0  0  0  0  0  0
  -27.4240  -19.4780   19.6350 N   0  0  0  0  0  4  0  0  0  0  0  0
  -27.2030  -20.0580   20.4280 H   0  0  0  0  0  0  0  0  0  0  0  0
  -26.8370  -18.6600   19.6760 H   0  0  0  0  0  0  0  0  0  0  0  0
  -28.8420  -19.0650   19.7300 C   0  0  0  0  0  2  0  0  0  0  0  0
  -29.0950  -17.9770   20.7910 C   0  0  0  0  0  2  0  0  0  0  0  0
  -30.5970  -17.6490   20.9050 C   0  0  0  0  0  2  0  0  0  0  0  0
  -30.9400  -16.4890   21.8580 C   0  0  0  0  0  2  0  0  0  0  0  0
  -30.8790  -14.3920   20.5000 C   0  0  0  0  0  0  0  0  0  0  0  0
  -30.5180  -12.3030   19.2380 C   0  0  0  0  0  2  0  0  0  0  0  0
  -29.5790  -12.5350   18.0390 C   0  0  0  0  0  2  0  0  0  0  0  0
  -28.1030  -12.4130   18.4660 C   0  0  0  0  0  2  0  0  0  0  0  0
  -27.7800  -13.2510   19.7300 C   0  0  0  0  0  3  0  0  0  0  0  0
  -28.8180  -12.9800   20.8400 C   0  0  0  0  0  2  0  0  0  0  0  0
  -30.1610  -13.2600   20.2940 N   0  0  0  0  0  0  0  0  0  0  0  0
  -31.9210  -14.6600   19.8940 O   0  0  0  0  0  0  0  0  0  0  0  0
  -30.3700  -15.2170   21.4250 N   0  0  0  0  0  0  0  0  0  0  0  0
  -29.5280  -14.9050   21.8880 H   0  0  0  0  0  0  0  0  0  0  0  0
  -25.3810  -13.9030   20.4070 C   0  0  0  0  0  0  0  0  0  0  0  0
  -24.3000  -13.1500   20.7800 C   0  0  0  0  0  0  0  0  0  0  0  0
  -24.7440  -11.7920   20.7700 C   0  0  0  0  0  0  0  0  0  0  0  0
  -26.4170  -13.0050   20.1980 N   0  0  0  0  0  0  0  0  0  0  0  0
  -26.0350  -11.7320   20.4700 N   0  0  0  0  0  0  0  0  0  0  0  0
  -24.0020  -10.5420   20.9730 C   0  0  0  0  0  0  0  0  0  0  0  0
  -24.4270   -9.5740   21.9100 C   0  0  0  0  0  3  0  0  0  0  0  0
  -23.6870   -8.3870   22.0990 C   0  0  0  0  0  3  0  0  0  0  0  0
  -22.5070   -8.1600   21.3500 C   0  0  0  0  0  0  0  0  0  0  0  0
  -22.1020   -9.1170   20.4040 C   0  0  0  0  0  3  0  0  0  0  0  0
  -22.8420  -10.2950   20.2130 C   0  0  0  0  0  3  0  0  0  0  0  0
  -21.7380   -7.0260   21.4490 O   0  0  0  0  0  0  0  0  0  0  0  0
  -21.6940   -6.2840   22.6030 C   0  0  0  0  0  0  0  0  0  0  0  0
  -21.3100   -6.8500   23.8390 C   0  0  0  0  0  3  0  0  0  0  0  0
  -21.2110   -6.0360   24.9850 C   0  0  0  0  0  3  0  0  0  0  0  0
  -21.4840   -4.6590   24.8970 C   0  0  0  0  0  0  0  0  0  0  0  0
  -21.8610   -4.0920   23.6670 C   0  0  0  0  0  3  0  0  0  0  0  0
  -21.9630   -4.9030   22.5220 C   0  0  0  0  0  0  0  0  0  0  0  0
  -22.3050   -4.3480   21.3340 F   0  0  0  0  0  0  0  0  0  0  0  0
  -21.3820   -3.8750   25.9960 F   0  0  0  0  0  0  0  0  0  0  0  0
  -22.9070  -13.6480   21.0380 C   0  0  0  0  0  0  0  0  0  0  0  0
  -22.1660  -12.9730   21.9090 N   0  0  0  0  0  0  0  0  0  0  0  0
  -22.4840  -14.6710   20.5010 O   0  0  0  0  0  0  0  0  0  0  0  0
  -22.5210  -12.1450   22.3650 H   0  0  0  0  0  0  0  0  0  0  0  0
  -21.2310  -13.2900   22.1250 H   0  0  0  0  0  0  0  0  0  0  0  0
  -25.5660  -15.2670   20.2080 N   0  0  0  0  0  0  0  0  0  0  0  0
  -24.8050  -15.9340   20.2930 H   0  0  0  0  0  0  0  0  0  0  0  0
  -26.4250  -15.6740   19.8650 H   0  0  0  0  0  0  0  0  0  0  0  0
  1  3  2  0
  2  1  1  0
  4  2  1  0
  5  2  1  0
  5  6  1  0
  7  6  1  0
  7  8  1  0
  9  8  1  0
  9 10  1  0
 10 11  1  0
 11 12  1  0
 12 13  1  0
 13 15  1  0
 14 25  2  0
 15 20  1  0
 16 24  1  0
 16 26  1  0
 17 23  1  0
 17 19  1  0
 18 24  1  0
 19 18  1  0
 20 19  2  0
 21 15  2  0
 22 21  1  0
 22 17  2  0
 23 16  1  0
 24 14  1  0
 26 28  2  0
 27 26  1  0
 29 27  1  0
 30 39  2  0
 30 35  1  0
 31 27  1  0
 31 35  1  0
 32 31  1  0
 33 34  1  0
 33 32  1  0
 34 30  1  0
 35 36  2  0
 36 37  1  0
 38 37  2  0
 39 38  1  0
 40 14  1  0
 40 41  1  0
 40 50  1  0
 41 44  1  0
 42 46  1  0
 42 41  1  0
 43 42  2  0
 46 45  1  0
 48 46  1  0
 48 49  1  0
 48 47  1  0
 50 53  1  1
 50 51  1  0
 52 50  1  0
 54  1  1  0
 54 55  1  0
 56 55  1  0
 56 57  1  0
 57 58  1  0
 58 59  1  0
 59 61  1  0
 59 62  1  0
 59 60  1  0
 62 63  1  0
 63 64  1  0
 64 65  1  0
 66 74  1  0
 67 72  1  0
 68 69  1  0
 68 67  1  0
 70 69  1  0
 70 79  1  0
 70 71  1  0
 72 66  1  0
 72 71  1  0
 73 66  2  0
 74 65  1  0
 74 75  1  0
 76 77  2  0
 77 96  1  0
 78 77  1  0
 78 81  1  0
 79 76  1  0
 79 80  1  0
 80 78  2  0
 81 82  1  0
 82 83  2  0
 84 87  1  0
 84 83  1  0
 85 84  2  0
 86 85  1  0
 86 81  2  0
 87 88  1  0
 88 89  1  0
 89 90  2  0
 91 90  1  0
 91 95  1  0
 92 91  2  0
 93 88  2  0
 93 92  1  0
 94 93  1  0
 96 97  1  0
 97100  1  0
 97 99  1  0
 98 96  2  0
101102  1  0
101 76  1  0
103101  1  0
M  ISO  4  12 101  13 101  66 100  74 100
M  END
>  <TORSDO>  (62) 
F 34

>  <SCORE>  (62) 
-10.233

>  <name>  (62) 
64

>  <ligand_id>  (62) 
64

>  <original_smiles>  (62) 
[H]c1c([H])c([H])c2c(c1[H])C([H])([H])C([H])([H])C([H])([H])C2([H])N([H])C(=O)C1([H])N(C(=O)C([H])(N([H])C(=O)C([H])(N([H])C([H])([H])[H])C([H])([H])[H])C(C([H])([H])[H])(C([H])([H])[H])C([H])([H])[H])C([H])([H])c2c([H])c(OC([H])([H])C([H])([H])OC([H])([H])C([H])([H])OC([H])([H])C([H])([H])N([H])C(=O)C([H])([H])OC([H])([H])C([H])([H])C([H])([H])[N+]([H])([H])C([H])([H])C([H])([H])C([H])([H])C([H])([H])N([H])C(=O)N3C([H])([H])C([H])([H])C([H])([H])C([H])(n4nc(-c5c([H])c([H])c(Oc6c([H])c([H])c(F)c([H])c6F)c([H])c5[H])c(C(=O)N([H])[H])c4N([H])[H])C3([H])[H])c([H])c([H])c2C1([H])[H]

>  <smiles>  (62) 
[H]c1c([H])c([H])c2c(c1[H])C([H])([H])C([H])([H])C([H])([H])C2([H])N([H])C(=O)C1([H])N(C(=O)C([H])(N([H])C(=O)C([H])(N([H])C([H])([H])[H])C([H])([H])[H])C(C([H])([H])[H])(C([H])([H])[H])C([H])([H])[H])C([H])([H])c2c([H])c(OC([H])([H])C([H])([H])OC([H])([H])C([H])([H])OC([H])([H])C([H])([H])N([H])C(=O)C([H])([H])OC([H])([H])C([H])([H])C([H])([H])[N+]([H])([H])C([H])([H])C([H])([H])C([H])([H])C([H])([H])N([H])C(=O)N3C([H])([H])C([H])([H])C([H])([H])C([H])(n4nc(-c5c([H])c([H])c(Oc6c([H])c([H])c(F)c([H])c6F)c([H])c5[H])c(C(=O)N([H])[H])c4N([H])[H])C3([H])[H])c([H])c([H])c2C1([H])[H]

$$$$
65:0:0
     RDKit          3D

 98105  0  0  1  0  0  0  0  0999 V2000
  -27.0990  -24.0500   17.0400 C   0  0  0  0  0  2  0  0  0  0  0  0
  -26.7230  -22.8710   17.9490 C   0  0  0  0  0  0  0  0  0  0  0  0
  -27.1800  -22.7620   19.2070 N   0  0  0  0  0  0  0  0  0  0  0  0
  -25.9980  -21.9950   17.4790 O   0  0  0  0  0  0  0  0  0  0  0  0
  -26.8810  -21.9370   19.7090 H   0  0  0  0  0  0  0  0  0  0  0  0
  -28.0960  -23.6440   19.9280 C   0  0  0  0  0  2  0  0  0  0  0  0
  -27.5040  -24.1140   21.2670 C   0  0  0  0  0  2  0  0  0  0  0  0
  -28.2510  -25.3480   21.8100 C   0  0  0  0  0  2  0  0  0  0  0  0
  -28.3190  -26.3970   20.8370 O   0  0  0  0  0  0  0  0  0  0  0  0
  -24.5220  -31.7560   23.4990 C   0  0  0  0  0  0  0  0  0  0  0  0
  -27.1810  -27.1530   20.7430 C   0  0  0  0  0  0  0  0  0  0  0  0
  -23.3610  -30.3420   21.8290 C   0  0  0  0  0  3  0  0  0  0  0  0
  -24.8420  -28.7110   20.5480 C   0  0  0  0  0  0  0  0  0  0  0  0
  -25.9000  -30.6180   21.7730 C   0  0  0  0  0  2  0  0  0  0  0  0
  -25.9760  -29.2240   21.1930 C   0  0  0  0  0  0  0  0  0  0  0  0
  -27.1490  -28.4480   21.2960 C   0  0  0  0  0  3  0  0  0  0  0  0
  -26.0440  -26.6550   20.0740 C   0  0  0  0  0  3  0  0  0  0  0  0
  -24.8680  -27.4210   19.9910 C   0  0  0  0  0  3  0  0  0  0  0  0
  -23.6270  -29.6090   20.4870 C   0  0  0  0  0  2  0  0  0  0  0  0
  -24.6090  -30.9230   22.4250 N   0  0  0  0  0  0  0  0  0  0  0  0
  -23.4220  -32.0840   23.9650 O   0  0  0  0  0  0  0  0  0  0  0  0
  -22.6220  -29.3750   22.7810 C   0  0  0  0  0  0  0  0  0  0  0  0
  -21.3100  -29.2050   22.5570 N   0  0  0  0  0  0  0  0  0  0  0  0
  -23.2290  -28.7810   23.6770 O   0  0  0  0  0  0  0  0  0  0  0  0
  -20.8840  -29.7390   21.8110 H   0  0  0  0  0  0  0  0  0  0  0  0
  -17.8860  -28.0890   22.8260 C   0  0  0  0  0  0  0  0  0  0  0  0
  -20.4170  -28.3140   23.2990 C   0  0  0  0  0  3  0  0  0  0  0  0
  -20.5380  -26.8560   22.7950 C   0  0  0  0  0  2  0  0  0  0  0  0
  -19.5170  -26.5120   21.7050 C   0  0  0  0  0  2  0  0  0  0  0  0
  -18.0890  -26.7090   22.2240 C   0  0  0  0  0  2  0  0  0  0  0  0
  -18.9810  -28.8500   23.3170 C   0  0  0  0  0  0  0  0  0  0  0  0
  -18.7420  -30.1440   23.8290 C   0  0  0  0  0  3  0  0  0  0  0  0
  -17.4390  -30.6740   23.8590 C   0  0  0  0  0  3  0  0  0  0  0  0
  -16.3570  -29.9110   23.3870 C   0  0  0  0  0  3  0  0  0  0  0  0
  -16.5810  -28.6200   22.8770 C   0  0  0  0  0  3  0  0  0  0  0  0
  -25.7940  -32.3610   24.1740 C   0  0  0  0  0  3  0  0  0  0  0  0
  -25.5510  -33.7980   24.3600 N   0  0  0  0  0  0  0  0  0  0  0  0
  -26.0060  -34.7560   23.5410 C   0  0  0  0  0  0  0  0  0  0  0  0
  -26.7420  -34.5230   22.5770 O   0  0  0  0  0  0  0  0  0  0  0  0
  -24.9110  -34.0560   25.0960 H   0  0  0  0  0  0  0  0  0  0  0  0
  -24.4160  -36.5960   22.9050 C   0  0  0  0  0  1  0  0  0  0  0  0
  -25.5750  -36.2050   23.8360 C   0  0  0  0  0  3  0  0  0  0  0  0
  -27.7000  -37.0460   24.7350 C   0  0  0  0  0  1  0  0  0  0  0  0
  -26.6760  -37.1850   23.7040 N   0  0  0  0  0  0  0  0  0  0  0  0
  -26.3190  -38.1350   23.7440 H   0  0  0  0  0  0  0  0  0  0  0  0
  -26.1580  -31.6710   25.5440 C   0  0  1  0  0  0  0  0  0  0  0  0
  -24.9680  -31.5730   26.5270 C   0  0  0  0  0  1  0  0  0  0  0  0
  -26.6930  -30.2370   25.3070 C   0  0  0  0  0  1  0  0  0  0  0  0
  -27.2890  -32.4600   26.2450 C   0  0  0  0  0  1  0  0  0  0  0  0
  -27.6870  -23.5220   15.7930 N   0  0  0  0  0  4  0  0  0  0  0  0
  -27.2470  -23.9860   15.0140 H   0  0  0  0  0  0  0  0  0  0  0  0
  -27.4030  -22.5520   15.7550 H   0  0  0  0  0  0  0  0  0  0  0  0
  -29.1600  -23.6650   15.6390 C   0  0  0  0  0  2  0  0  0  0  0  0
  -30.0070  -23.0970   16.8080 C   0  0  0  0  0  2  0  0  0  0  0  0
  -29.9690  -21.5660   16.9340 C   0  0  0  0  0  2  0  0  0  0  0  0
  -30.4620  -21.1730   18.2100 O   0  0  0  0  0  0  0  0  0  0  0  0
  -30.2950  -19.7790   18.4240 C   0  0  0  0  0  2  0  0  0  0  0  0
  -30.7840  -19.3590   19.8190 C   0  0  0  0  0  2  0  0  0  0  0  0
  -30.4920  -17.8690   20.0530 C   0  0  0  0  0  2  0  0  0  0  0  0
  -31.0470  -17.2880   21.3680 C   0  0  0  0  0  2  0  0  0  0  0  0
  -31.3630  -14.9040   20.7960 C   0  0  0  0  0  0  0  0  0  0  0  0
  -31.0190  -12.8820   19.4450 C   0  0  0  0  0  2  0  0  0  0  0  0
  -30.1560  -13.2420   18.2200 C   0  0  0  0  0  2  0  0  0  0  0  0
  -28.6540  -13.1420   18.5620 C   0  0  0  0  0  2  0  0  0  0  0  0
  -28.2870  -13.8930   19.8690 C   0  0  0  0  0  3  0  0  0  0  0  0
  -29.2670  -13.5200   21.0070 C   0  0  0  0  0  2  0  0  0  0  0  0
  -30.6410  -13.7850   20.5410 N   0  0  0  0  0  0  0  0  0  0  0  0
  -32.4900  -15.1070   20.3330 O   0  0  0  0  0  0  0  0  0  0  0  0
  -30.7030  -15.8700   21.4450 N   0  0  0  0  0  0  0  0  0  0  0  0
  -29.7920  -15.6310   21.8100 H   0  0  0  0  0  0  0  0  0  0  0  0
  -25.8650  -14.5550   20.4460 C   0  0  0  0  0  0  0  0  0  0  0  0
  -24.7540  -13.8030   20.7310 C   0  0  0  0  0  0  0  0  0  0  0  0
  -25.1810  -12.4400   20.6910 C   0  0  0  0  0  0  0  0  0  0  0  0
  -26.8970  -13.6480   20.2550 N   0  0  0  0  0  0  0  0  0  0  0  0
  -26.4850  -12.3710   20.4570 N   0  0  0  0  0  0  0  0  0  0  0  0
  -24.4120  -11.1930   20.8070 C   0  0  0  0  0  0  0  0  0  0  0  0
  -24.7570  -10.1980   21.7470 C   0  0  0  0  0  3  0  0  0  0  0  0
  -23.9900   -9.0170   21.8510 C   0  0  0  0  0  3  0  0  0  0  0  0
  -22.8670   -8.8230   21.0130 C   0  0  0  0  0  0  0  0  0  0  0  0
  -22.5430   -9.8070   20.0630 C   0  0  0  0  0  3  0  0  0  0  0  0
  -23.3090  -10.9810   19.9570 C   0  0  0  0  0  3  0  0  0  0  0  0
  -22.0820   -7.6960   21.0230 O   0  0  0  0  0  0  0  0  0  0  0  0
  -21.9110   -6.9480   22.1610 C   0  0  0  0  0  0  0  0  0  0  0  0
  -21.3800   -7.5040   23.3450 C   0  0  0  0  0  3  0  0  0  0  0  0
  -21.1550   -6.6840   24.4690 C   0  0  0  0  0  3  0  0  0  0  0  0
  -21.4530   -5.3090   24.4090 C   0  0  0  0  0  0  0  0  0  0  0  0
  -21.9760   -4.7530   23.2290 C   0  0  0  0  0  3  0  0  0  0  0  0
  -22.2010   -5.5700   22.1070 C   0  0  0  0  0  0  0  0  0  0  0  0
  -22.6860   -5.0250   20.9660 F   0  0  0  0  0  0  0  0  0  0  0  0
  -21.2290   -4.5190   25.4850 F   0  0  0  0  0  0  0  0  0  0  0  0
  -23.3570  -14.3120   20.9350 C   0  0  0  0  0  0  0  0  0  0  0  0
  -22.5620  -13.6190   21.7430 N   0  0  0  0  0  0  0  0  0  0  0  0
  -22.9740  -15.3600   20.4140 O   0  0  0  0  0  0  0  0  0  0  0  0
  -22.8810  -12.7740   22.1920 H   0  0  0  0  0  0  0  0  0  0  0  0
  -21.6200  -13.9410   21.9170 H   0  0  0  0  0  0  0  0  0  0  0  0
  -26.0750  -15.9230   20.3170 N   0  0  0  0  0  0  0  0  0  0  0  0
  -25.3180  -16.5950   20.3950 H   0  0  0  0  0  0  0  0  0  0  0  0
  -26.9600  -16.3480   20.0640 H   0  0  0  0  0  0  0  0  0  0  0  0
  1  2  1  0
  2  3  1  0
  3  5  1  0
  3  6  1  0
  4  2  2  0
  6  7  1  0
  7  8  1  0
  9  8  1  0
 10 21  2  0
 11  9  1  0
 11 16  1  0
 12 20  1  0
 12 22  1  0
 13 15  1  0
 14 20  1  0
 15 16  2  0
 15 14  1  0
 17 11  2  0
 18 17  1  0
 18 13  2  0
 19 13  1  0
 19 12  1  0
 20 10  1  0
 22 24  2  0
 23 22  1  0
 25 23  1  0
 26 35  2  0
 26 31  1  0
 27 23  1  0
 27 31  1  0
 28 27  1  0
 29 30  1  0
 29 28  1  0
 30 26  1  0
 31 32  2  0
 32 33  1  0
 34 33  2  0
 35 34  1  0
 36 10  1  0
 36 37  1  0
 36 46  1  0
 37 40  1  0
 38 42  1  0
 38 37  1  0
 39 38  2  0
 42 41  1  0
 44 45  1  0
 44 42  1  0
 44 43  1  0
 46 49  1  1
 46 47  1  0
 48 46  1  0
 50  1  1  0
 51 50  1  0
 52 50  1  0
 53 50  1  0
 53 54  1  0
 54 55  1  0
 55 56  1  0
 56 57  1  0
 57 58  1  0
 58 59  1  0
 59 60  1  0
 60 69  1  0
 61 69  1  0
 62 67  1  0
 63 64  1  0
 63 62  1  0
 65 64  1  0
 65 74  1  0
 65 66  1  0
 67 61  1  0
 67 66  1  0
 68 61  2  0
 69 70  1  0
 71 72  2  0
 72 91  1  0
 73 72  1  0
 73 76  1  0
 74 71  1  0
 74 75  1  0
 75 73  2  0
 76 77  1  0
 77 78  2  0
 79 82  1  0
 79 78  1  0
 80 79  2  0
 81 80  1  0
 81 76  2  0
 82 83  1  0
 83 84  1  0
 84 85  2  0
 86 85  1  0
 86 90  1  0
 87 86  2  0
 88 83  2  0
 88 87  1  0
 89 88  1  0
 91 92  1  0
 92 95  1  0
 92 94  1  0
 93 91  2  0
 96 97  1  0
 96 71  1  0
 98 96  1  0
M  ISO  4   8 101   9 101  61 100  69 100
M  END
>  <TORSDO>  (63) 
F 29

>  <SCORE>  (63) 
-8.545

>  <name>  (63) 
65

>  <ligand_id>  (63) 
65

>  <original_smiles>  (63) 
[H]c1c([H])c([H])c2c(c1[H])C([H])([H])C([H])([H])C([H])([H])C2([H])N([H])C(=O)C1([H])N(C(=O)C([H])(N([H])C(=O)C([H])(N([H])C([H])([H])[H])C([H])([H])[H])C(C([H])([H])[H])(C([H])([H])[H])C([H])([H])[H])C([H])([H])c2c([H])c(OC([H])([H])C([H])([H])C([H])([H])N([H])C(=O)C([H])([H])[N+]([H])([H])C([H])([H])C([H])([H])C([H])([H])OC([H])([H])C([H])([H])C([H])([H])C([H])([H])N([H])C(=O)N3C([H])([H])C([H])([H])C([H])([H])C([H])(n4nc(-c5c([H])c([H])c(Oc6c([H])c([H])c(F)c([H])c6F)c([H])c5[H])c(C(=O)N([H])[H])c4N([H])[H])C3([H])[H])c([H])c([H])c2C1([H])[H]

>  <smiles>  (63) 
[H]c1c([H])c([H])c2c(c1[H])C([H])([H])C([H])([H])C([H])([H])C2([H])N([H])C(=O)C1([H])N(C(=O)C([H])(N([H])C(=O)C([H])(N([H])C([H])([H])[H])C([H])([H])[H])C(C([H])([H])[H])(C([H])([H])[H])C([H])([H])[H])C([H])([H])c2c([H])c(OC([H])([H])C([H])([H])C([H])([H])N([H])C(=O)C([H])([H])[N+]([H])([H])C([H])([H])C([H])([H])C([H])([H])OC([H])([H])C([H])([H])C([H])([H])C([H])([H])N([H])C(=O)N3C([H])([H])C([H])([H])C([H])([H])C([H])(n4nc(-c5c([H])c([H])c(Oc6c([H])c([H])c(F)c([H])c6F)c([H])c5[H])c(C(=O)N([H])[H])c4N([H])[H])C3([H])[H])c([H])c([H])c2C1([H])[H]

$$$$
66:0:0
     RDKit          3D

101109  0  0  1  0  0  0  0  0999 V2000
  -28.7230  -22.0030   19.5720 C   0  0  0  0  0  0  0  0  0  0  0  0
  -29.0030  -22.7740   20.8910 C   0  0  0  0  0  2  0  0  0  0  0  0
  -28.2790  -20.0720   20.9630 C   0  0  0  0  0  2  0  0  0  0  0  0
  -30.2720  -22.3870   21.7160 C   0  0  0  0  0  2  0  0  0  0  0  0
  -29.7440  -19.9950   21.6310 C   0  0  0  0  0  2  0  0  0  0  0  0
  -28.0850  -20.8110   19.6580 N   0  0  0  0  0  0  0  0  0  0  0  0
  -30.1980  -21.1290   22.5320 N   0  0  1  0  0  4  0  0  0  0  0  0
  -28.9870  -22.5380   18.4910 O   0  0  0  0  0  0  0  0  0  0  0  0
  -29.4720  -21.2650   23.2210 H   0  0  0  0  0  0  0  0  0  0  0  0
  -31.5150  -20.9020   23.3240 C   0  0  0  0  0  2  0  0  0  0  0  0
  -31.6670  -21.3330   24.8660 C   0  0  0  0  0  2  0  0  0  0  0  0
  -32.4810  -22.5480   25.1590 O   0  0  0  0  0  0  0  0  0  0  0  0
  -32.1120  -23.4260   26.2970 C   0  0  0  0  0  2  0  0  0  0  0  0
  -32.7640  -24.9030   26.4900 C   0  0  0  0  0  2  0  0  0  0  0  0
  -32.2760  -25.9670   25.6090 O   0  0  0  0  0  0  0  0  0  0  0  0
  -32.6700  -27.3800   25.5850 C   0  0  0  0  0  3  0  0  0  0  0  0
  -32.4710  -28.3670   24.2850 C   0  0  0  0  0  3  0  0  0  0  0  0
  -31.7510  -28.0160   23.0310 O   0  0  0  0  0  0  0  0  0  0  0  0
  -32.0060  -28.6710   21.7350 C   0  0  0  0  0  2  0  0  0  0  0  0
  -30.9250  -28.7040   20.4890 C   0  0  0  0  0  2  0  0  0  0  0  0
  -29.1680  -26.8170   19.7770 C   0  0  0  0  0  0  0  0  0  0  0  0
  -29.3100  -26.3430   21.9630 C   0  0  0  0  0  2  0  0  0  0  0  0
  -28.7500  -26.5720   23.3310 C   0  0  0  0  0  2  0  0  0  0  0  0
  -27.4670  -27.3800   23.2910 C   0  0  0  0  0  2  0  0  0  0  0  0
  -27.2000  -28.5220   22.2450 C   0  0  0  0  0  3  0  0  0  0  0  0
  -28.0220  -28.4680   21.0040 C   0  0  0  0  0  2  0  0  0  0  0  0
  -28.6910  -27.1690   20.9110 N   0  0  0  0  0  0  0  0  0  0  0  0
  -28.8260  -25.7540   19.2190 O   0  0  0  0  0  0  0  0  0  0  0  0
  -30.3510  -27.5120   19.6790 N   0  0  0  0  0  0  0  0  0  0  0  0
  -30.9190  -27.2260   18.8970 H   0  0  0  0  0  0  0  0  0  0  0  0
  -25.6720  -30.5370   22.5580 C   0  0  0  0  0  3  0  0  0  0  0  0
  -25.8010  -31.7420   23.1770 C   0  0  0  0  0  0  0  0  0  0  0  0
  -27.1720  -31.8570   23.5550 C   0  0  0  0  0  0  0  0  0  0  0  0
  -26.8960  -29.9170   22.6320 N   0  0  0  0  0  0  0  0  0  0  0  0
  -27.8330  -30.8200   23.0640 N   0  0  0  0  0  2  0  0  0  0  0  0
  -27.8660  -32.8860   24.3500 C   0  0  0  0  0  0  0  0  0  0  0  0
  -29.0430  -33.5170   23.8920 C   0  0  0  0  0  3  0  0  0  0  0  0
  -29.6580  -34.5350   24.6520 C   0  0  0  0  0  3  0  0  0  0  0  0
  -29.0980  -34.9450   25.8870 C   0  0  0  0  0  0  0  0  0  0  0  0
  -27.9420  -34.2960   26.3550 C   0  0  0  0  0  3  0  0  0  0  0  0
  -27.3400  -33.2720   25.6010 C   0  0  0  0  0  3  0  0  0  0  0  0
  -29.6380  -35.9180   26.6980 O   0  0  0  0  0  0  0  0  0  0  0  0
  -30.4250  -36.9240   26.1910 C   0  0  0  0  0  0  0  0  0  0  0  0
  -29.9720  -37.7810   25.1640 C   0  0  0  0  0  3  0  0  0  0  0  0
  -30.7890  -38.8390   24.7160 C   0  0  0  0  0  3  0  0  0  0  0  0
  -32.0520  -39.0530   25.3010 C   0  0  0  0  0  0  0  0  0  0  0  0
  -32.4960  -38.2140   26.3380 C   0  0  0  0  0  3  0  0  0  0  0  0
  -31.6860  -37.1520   26.7800 C   0  0  0  0  0  0  0  0  0  0  0  0
  -32.1160  -36.3550   27.7860 F   0  0  0  0  0  0  0  0  0  0  0  0
  -32.8420  -40.0630   24.8690 F   0  0  0  0  0  0  0  0  0  0  0  0
  -24.7040  -32.7200   23.4530 C   0  0  0  0  0  0  0  0  0  0  0  0
  -25.0200  -34.0060   23.4140 N   0  0  0  0  0  0  0  0  0  0  0  0
  -23.5460  -32.3400   23.6300 O   0  0  0  0  0  0  0  0  0  0  0  0
  -25.9770  -34.2870   23.2580 H   0  0  0  0  0  0  0  0  0  0  0  0
  -24.3060  -34.7160   23.5240 H   0  0  0  0  0  0  0  0  0  0  0  0
  -24.6050  -29.8950   21.9380 N   0  0  0  0  0  0  0  0  0  0  0  0
  -24.8270  -29.1790   21.2620 H   0  0  0  0  0  0  0  0  0  0  0  0
  -23.7760  -30.4260   21.7100 H   0  0  0  0  0  0  0  0  0  0  0  0
  -27.3400  -20.1600   18.4790 C   0  0  0  0  0  2  0  0  0  0  0  0
  -26.6060  -21.0730   17.3500 C   0  0  0  0  0  2  0  0  0  0  0  0
  -25.3940  -20.6640   16.5490 O   0  0  0  0  0  0  0  0  0  0  0  0
  -20.7230  -25.7650   14.1850 C   0  0  0  0  0  0  0  0  0  0  0  0
  -24.2200  -21.4170   16.6760 C   0  0  0  0  0  0  0  0  0  0  0  0
  -20.6610  -25.1370   16.5620 C   0  0  0  0  0  3  0  0  0  0  0  0
  -21.9160  -23.0140   17.1990 C   0  0  0  0  0  0  0  0  0  0  0  0
  -21.4320  -23.4360   14.7940 C   0  0  0  0  0  2  0  0  0  0  0  0
  -22.2940  -22.7780   15.8710 C   0  0  0  0  0  0  0  0  0  0  0  0
  -23.4400  -21.9650   15.5990 C   0  0  0  0  0  3  0  0  0  0  0  0
  -23.7660  -21.6590   17.9810 C   0  0  0  0  0  3  0  0  0  0  0  0
  -22.6450  -22.4490   18.2490 C   0  0  0  0  0  3  0  0  0  0  0  0
  -20.7040  -23.8790   17.4610 C   0  0  0  0  0  2  0  0  0  0  0  0
  -20.9560  -24.8110   15.1320 N   0  0  0  0  0  0  0  0  0  0  0  0
  -20.2560  -26.8730   14.4860 O   0  0  0  0  0  0  0  0  0  0  0  0
  -21.6040  -26.2130   17.1540 C   0  0  0  0  0  0  0  0  0  0  0  0
  -21.5220  -26.4250   18.4800 N   0  0  0  0  0  0  0  0  0  0  0  0
  -22.3970  -26.8200   16.4320 O   0  0  0  0  0  0  0  0  0  0  0  0
  -20.8450  -25.8910   19.0050 H   0  0  0  0  0  0  0  0  0  0  0  0
  -22.6190  -27.2870   21.8180 C   0  0  0  0  0  0  0  0  0  0  0  0
  -22.3340  -27.3700   19.2480 C   0  0  0  0  0  3  0  0  0  0  0  0
  -23.8350  -27.0040   19.1740 C   0  0  0  0  0  2  0  0  0  0  0  0
  -24.2980  -26.1130   20.3310 C   0  0  0  0  0  2  0  0  0  0  0  0
  -24.0540  -26.8070   21.6730 C   0  0  0  0  0  2  0  0  0  0  0  0
  -21.8080  -27.5370   20.6780 C   0  0  0  0  0  0  0  0  0  0  0  0
  -20.4710  -27.9490   20.8680 C   0  0  0  0  0  3  0  0  0  0  0  0
  -19.9450  -28.1140   22.1640 C   0  0  0  0  0  3  0  0  0  0  0  0
  -20.7570  -27.8790   23.2870 C   0  0  0  0  0  3  0  0  0  0  0  0
  -22.0920  -27.4720   23.1130 C   0  0  0  0  0  3  0  0  0  0  0  0
  -21.0100  -25.5000   12.6780 C   0  0  0  0  0  3  0  0  0  0  0  0
  -19.8750  -26.0320   11.9110 N   0  0  0  0  0  0  0  0  0  0  0  0
  -18.8590  -25.2960   11.4430 C   0  0  0  0  0  0  0  0  0  0  0  0
  -18.8170  -24.0670   11.5540 O   0  0  0  0  0  0  0  0  0  0  0  0
  -19.8130  -27.0370   11.8340 H   0  0  0  0  0  0  0  0  0  0  0  0
  -16.5270  -26.2010   11.7120 C   0  0  0  0  0  1  0  0  0  0  0  0
  -17.7060  -26.0390   10.7400 C   0  0  0  0  0  3  0  0  0  0  0  0
  -18.2340  -25.4020    8.4280 C   0  0  0  0  0  1  0  0  0  0  0  0
  -17.2460  -25.3730    9.5020 N   0  0  0  0  0  0  0  0  0  0  0  0
  -16.3920  -25.8040    9.1580 H   0  0  0  0  0  0  0  0  0  0  0  0
  -22.3660  -26.1390   12.1820 C   0  0  1  0  0  0  0  0  0  0  0  0
  -22.5090  -27.6390   12.5310 C   0  0  0  0  0  1  0  0  0  0  0  0
  -23.5810  -25.3990   12.7910 C   0  0  0  0  0  1  0  0  0  0  0  0
  -22.4820  -25.9930   10.6470 C   0  0  0  0  0  1  0  0  0  0  0  0
  1  6  1  0
  1  2  1  0
  2  4  1  0
  3  5  1  0
  4  7  1  0
  5  7  1  0
  6  3  1  0
  7  9  1  1
  7 10  1  0
  8  1  2  0
 10 11  1  0
 11 12  1  0
 12 13  1  0
 13 14  1  0
 15 14  1  0
 16 15  1  0
 17 16  2  0
 18 17  1  0
 19 18  1  0
 20 19  1  0
 21 27  1  0
 22 23  1  0
 24 23  1  0
 25 26  1  0
 25 34  1  0
 25 24  1  0
 27 26  1  0
 27 22  1  0
 28 21  2  0
 29 21  1  0
 29 20  1  0
 30 29  1  0
 31 56  1  0
 31 34  1  0
 31 32  1  0
 32 51  1  0
 32 33  2  0
 33 36  1  0
 34 35  1  0
 35 33  1  0
 36 41  1  0
 37 36  2  0
 37 38  1  0
 38 39  2  0
 39 40  1  0
 39 42  1  0
 41 40  2  0
 43 42  1  0
 43 48  1  0
 44 43  2  0
 45 44  1  0
 45 46  2  0
 46 47  1  0
 47 48  2  0
 48 49  1  0
 50 46  1  0
 51 53  2  0
 52 51  1  0
 52 55  1  0
 54 52  1  0
 57 56  1  0
 58 56  1  0
 59  6  1  0
 60 59  1  0
 61 63  1  0
 61 60  1  0
 62 73  2  0
 62 72  1  0
 63 69  1  0
 64 74  1  0
 64 71  1  0
 65 71  1  0
 65 70  1  0
 66 72  1  0
 66 67  1  0
 67 65  2  0
 68 67  1  0
 68 63  2  0
 69 70  2  0
 72 64  1  0
 74 75  1  0
 75 77  1  0
 76 74  2  0
 78 87  1  0
 79 75  1  0
 79 83  1  0
 80 79  1  0
 80 81  1  0
 81 82  1  0
 82 78  1  0
 83 84  1  0
 83 78  2  0
 84 85  2  0
 85 86  1  0
 87 86  2  0
 88 62  1  0
 89 88  1  0
 90 91  2  0
 90 89  1  0
 92 89  1  0
 94 90  1  0
 94 93  1  0
 95 96  1  0
 96 94  1  0
 97 96  1  0
 98 99  1  6
 98 88  1  0
 98100  1  0
101 98  1  0
M  ISO  4  21 100  29 100  60 101  61 101
M  END
>  <TORSDO>  (64) 
F 29

>  <SCORE>  (64) 
9.426

>  <name>  (64) 
66

>  <ligand_id>  (64) 
66

>  <original_smiles>  (64) 
[H]c1c([H])c([H])c2c(c1[H])C([H])([H])C([H])([H])C([H])([H])C2([H])N([H])C(=O)C1([H])N(C(=O)C([H])(N([H])C(=O)C([H])(N([H])C([H])([H])[H])C([H])([H])[H])C(C([H])([H])[H])(C([H])([H])[H])C([H])([H])[H])C([H])([H])c2c([H])c(OC([H])([H])C([H])([H])N3C(=O)C([H])([H])C([H])([H])[N+]([H])(C([H])([H])C([H])([H])OC([H])([H])C([H])([H])OC([H])([H])C([H])([H])OC([H])([H])C([H])([H])N([H])C(=O)N4C([H])([H])C([H])([H])C([H])([H])C([H])(n5nc(-c6c([H])c([H])c(Oc7c([H])c([H])c(F)c([H])c7F)c([H])c6[H])c(C(=O)N([H])[H])c5N([H])[H])C4([H])[H])C([H])([H])C3([H])[H])c([H])c([H])c2C1([H])[H]

>  <smiles>  (64) 
[H]c1c([H])c([H])c2c(c1[H])C([H])([H])C([H])([H])C([H])([H])C2([H])N([H])C(=O)C1([H])N(C(=O)C([H])(N([H])C(=O)C([H])(N([H])C([H])([H])[H])C([H])([H])[H])C(C([H])([H])[H])(C([H])([H])[H])C([H])([H])[H])C([H])([H])c2c([H])c(OC([H])([H])C([H])([H])N3C(=O)C([H])([H])C([H])([H])[N+]([H])(C([H])([H])C([H])([H])OC([H])([H])C([H])([H])OC([H])([H])C([H])([H])OC([H])([H])C([H])([H])N([H])C(=O)N4C([H])([H])C([H])([H])C([H])([H])C([H])(n5nc(-c6c([H])c([H])c(Oc7c([H])c([H])c(F)c([H])c7F)c([H])c6[H])c(C(=O)N([H])[H])c5N([H])[H])C4([H])[H])C([H])([H])C3([H])[H])c([H])c([H])c2C1([H])[H]

$$$$
67:0:0
     RDKit          3D

 86 93  0  0  1  0  0  0  0  0999 V2000
  -28.7250  -22.7500   20.5790 C   0  0  0  0  0  0  0  0  0  0  0  0
  -28.8410  -21.3510   20.0620 N   0  0  0  0  0  0  0  0  0  0  0  0
  -29.1550  -22.9050   21.7240 O   0  0  0  0  0  0  0  0  0  0  0  0
  -28.5310  -21.3120   19.0990 H   0  0  0  0  0  0  0  0  0  0  0  0
  -28.0220  -24.2200   19.8880 C   0  0  0  0  0  2  0  0  0  0  0  0
  -28.1810  -25.8160   20.3270 O   0  0  0  0  0  0  0  0  0  0  0  0
  -24.6460  -31.8650   23.1900 C   0  0  0  0  0  0  0  0  0  0  0  0
  -27.1910  -26.9380   20.2110 C   0  0  0  0  0  0  0  0  0  0  0  0
  -23.4510  -30.4600   21.5590 C   0  0  0  0  0  3  0  0  0  0  0  0
  -24.9000  -28.8410   20.1460 C   0  0  0  0  0  0  0  0  0  0  0  0
  -26.0200  -30.6560   21.4210 C   0  0  0  0  0  2  0  0  0  0  0  0
  -26.0860  -29.2400   20.7720 C   0  0  0  0  0  0  0  0  0  0  0  0
  -27.2230  -28.3080   20.7840 C   0  0  0  0  0  3  0  0  0  0  0  0
  -25.9790  -26.7040   19.5210 C   0  0  0  0  0  3  0  0  0  0  0  0
  -24.8730  -27.5950   19.4990 C   0  0  0  0  0  3  0  0  0  0  0  0
  -23.6830  -29.7660   20.1870 C   0  0  0  0  0  2  0  0  0  0  0  0
  -24.7280  -31.0220   22.1090 N   0  0  0  0  0  0  0  0  0  0  0  0
  -23.5560  -32.1610   23.7070 O   0  0  0  0  0  0  0  0  0  0  0  0
  -22.7510  -29.4750   22.5310 C   0  0  0  0  0  0  0  0  0  0  0  0
  -21.4200  -29.3200   22.4100 N   0  0  0  0  0  0  0  0  0  0  0  0
  -23.4130  -28.8500   23.3630 O   0  0  0  0  0  0  0  0  0  0  0  0
  -20.9380  -29.8750   21.7160 H   0  0  0  0  0  0  0  0  0  0  0  0
  -18.0300  -28.1280   22.9270 C   0  0  0  0  0  0  0  0  0  0  0  0
  -20.5920  -28.3910   23.1880 C   0  0  0  0  0  3  0  0  0  0  0  0
  -20.6890  -26.9540   22.6240 C   0  0  0  0  0  2  0  0  0  0  0  0
  -19.5860  -26.6270   21.6110 C   0  0  0  0  0  2  0  0  0  0  0  0
  -18.2040  -26.7760   22.2560 C   0  0  0  0  0  2  0  0  0  0  0  0
  -19.1510  -28.8920   23.3510 C   0  0  0  0  0  0  0  0  0  0  0  0
  -18.9320  -30.1550   23.9430 C   0  0  0  0  0  3  0  0  0  0  0  0
  -17.6260  -30.6550   24.1130 C   0  0  0  0  0  3  0  0  0  0  0  0
  -16.5220  -29.8880   23.7040 C   0  0  0  0  0  3  0  0  0  0  0  0
  -16.7240  -28.6260   23.1170 C   0  0  0  0  0  3  0  0  0  0  0  0
  -25.9170  -32.5090   23.8220 C   0  0  0  0  0  3  0  0  0  0  0  0
  -26.4230  -31.7460   25.1090 C   0  0  1  0  0  0  0  0  0  0  0  0
  -25.3230  -31.5200   26.1740 C   0  0  0  0  0  1  0  0  0  0  0  0
  -27.0050  -30.3630   24.7410 C   0  0  0  0  0  1  0  0  0  0  0  0
  -27.5730  -32.5420   25.7720 C   0  0  0  0  0  1  0  0  0  0  0  0
  -25.5980  -33.9090   24.1570 N   0  0  0  0  0  0  0  0  0  0  0  0
  -25.9300  -34.9720   23.4130 C   0  0  0  0  0  0  0  0  0  0  0  0
  -26.5990  -34.8790   22.3820 O   0  0  0  0  0  0  0  0  0  0  0  0
  -25.0020  -34.0540   24.9580 H   0  0  0  0  0  0  0  0  0  0  0  0
  -24.2010  -36.7750   23.0900 C   0  0  0  0  0  1  0  0  0  0  0  0
  -25.4470  -36.3590   23.8880 C   0  0  0  0  0  3  0  0  0  0  0  0
  -27.5870  -37.2400   24.7120 C   0  0  0  0  0  1  0  0  0  0  0  0
  -26.4790  -37.4140   23.7760 N   0  0  0  0  0  0  0  0  0  0  0  0
  -26.0740  -38.3320   23.9320 H   0  0  0  0  0  0  0  0  0  0  0  0
  -29.1200  -19.7980   20.6660 C   0  0  0  0  0  2  0  0  0  0  0  0
  -29.8280  -18.2610   19.9970 C   0  0  0  0  0  2  0  0  0  0  0  0
  -30.4160  -15.3400   20.2120 C   0  0  0  0  0  0  0  0  0  0  0  0
  -30.3850  -12.8860   19.3430 C   0  0  0  0  0  2  0  0  0  0  0  0
  -29.4590  -12.6810   18.1170 C   0  0  0  0  0  2  0  0  0  0  0  0
  -28.0130  -12.4050   18.5670 C   0  0  0  0  0  2  0  0  0  0  0  0
  -27.5720  -13.3620   19.7030 C   0  0  0  0  0  3  0  0  0  0  0  0
  -28.6280  -13.5140   20.8190 C   0  0  0  0  0  2  0  0  0  0  0  0
  -29.8530  -14.0280   20.1810 N   0  0  0  0  0  0  0  0  0  0  0  0
  -31.6220  -15.3370   19.9210 O   0  0  0  0  0  0  0  0  0  0  0  0
  -29.6630  -16.6220   20.3640 N   0  0  0  0  0  0  0  0  0  0  0  0
  -28.7150  -16.4170   20.6450 H   0  0  0  0  0  0  0  0  0  0  0  0
  -25.2070  -13.9120   20.4730 C   0  0  0  0  0  0  0  0  0  0  0  0
  -24.1500  -13.1320   20.8510 C   0  0  0  0  0  0  0  0  0  0  0  0
  -24.6210  -11.7830   20.8200 C   0  0  0  0  0  0  0  0  0  0  0  0
  -26.2500  -13.0390   20.2220 N   0  0  0  0  0  0  0  0  0  0  0  0
  -25.9100  -11.7530   20.5000 N   0  0  0  0  0  0  0  0  0  0  0  0
  -23.8980  -10.5200   21.0170 C   0  0  0  0  0  0  0  0  0  0  0  0
  -24.3420   -9.5490   21.9430 C   0  0  0  0  0  3  0  0  0  0  0  0
  -23.6160   -8.3540   22.1300 C   0  0  0  0  0  3  0  0  0  0  0  0
  -22.4320   -8.1180   21.3930 C   0  0  0  0  0  0  0  0  0  0  0  0
  -22.0070   -9.0770   20.4550 C   0  0  0  0  0  3  0  0  0  0  0  0
  -22.7330  -10.2640   20.2660 C   0  0  0  0  0  3  0  0  0  0  0  0
  -21.6760   -6.9750   21.4890 O   0  0  0  0  0  0  0  0  0  0  0  0
  -21.6500   -6.2250   22.6370 C   0  0  0  0  0  0  0  0  0  0  0  0
  -21.2600   -6.7740   23.8780 C   0  0  0  0  0  3  0  0  0  0  0  0
  -21.1810   -5.9500   25.0190 C   0  0  0  0  0  3  0  0  0  0  0  0
  -21.4810   -4.5790   24.9200 C   0  0  0  0  0  0  0  0  0  0  0  0
  -21.8640   -4.0290   23.6840 C   0  0  0  0  0  3  0  0  0  0  0  0
  -21.9440   -4.8490   22.5460 C   0  0  0  0  0  0  0  0  0  0  0  0
  -22.2930   -4.3090   21.3530 F   0  0  0  0  0  0  0  0  0  0  0  0
  -21.3980   -3.7860   26.0150 F   0  0  0  0  0  0  0  0  0  0  0  0
  -22.7530  -13.6070   21.1260 C   0  0  0  0  0  0  0  0  0  0  0  0
  -22.0320  -12.9140   22.0000 N   0  0  0  0  0  0  0  0  0  0  0  0
  -22.3120  -14.6280   20.6000 O   0  0  0  0  0  0  0  0  0  0  0  0
  -22.4040  -12.0890   22.4460 H   0  0  0  0  0  0  0  0  0  0  0  0
  -21.0950  -13.2140   22.2270 H   0  0  0  0  0  0  0  0  0  0  0  0
  -25.3620  -15.2830   20.2890 N   0  0  0  0  0  0  0  0  0  0  0  0
  -24.5880  -15.9300   20.3980 H   0  0  0  0  0  0  0  0  0  0  0  0
  -26.1930  -15.7200   19.9130 H   0  0  0  0  0  0  0  0  0  0  0  0
  1  3  2  0
  2  1  1  0
  2 47  1  0
  4  2  1  0
  5  6  1  0
  5  1  1  0
  7 18  2  0
  8  6  1  0
  8 13  1  0
  9 17  1  0
  9 19  1  0
 10 16  1  0
 10 12  1  0
 11 17  1  0
 12 13  2  0
 12 11  1  0
 14  8  2  0
 15 14  1  0
 15 10  2  0
 16  9  1  0
 17  7  1  0
 19 21  2  0
 20 19  1  0
 22 20  1  0
 23 32  2  0
 23 28  1  0
 24 20  1  0
 24 28  1  0
 25 24  1  0
 26 27  1  0
 26 25  1  0
 27 23  1  0
 28 29  2  0
 29 30  1  0
 31 30  2  0
 32 31  1  0
 33  7  1  0
 33 38  1  0
 33 34  1  0
 34 37  1  1
 34 35  1  0
 36 34  1  0
 38 41  1  0
 39 43  1  0
 39 38  1  0
 40 39  2  0
 43 42  1  0
 45 43  1  0
 45 46  1  0
 45 44  1  0
 48 57  1  0
 48 47  1  0
 49 57  1  0
 50 55  1  0
 51 52  1  0
 51 50  1  0
 53 52  1  0
 53 62  1  0
 53 54  1  0
 55 49  1  0
 55 54  1  0
 56 49  2  0
 57 58  1  0
 59 60  2  0
 60 79  1  0
 61 60  1  0
 61 64  1  0
 62 59  1  0
 62 63  1  0
 63 61  2  0
 64 65  1  0
 65 66  2  0
 67 70  1  0
 67 66  1  0
 68 67  2  0
 69 68  1  0
 69 64  2  0
 70 71  1  0
 71 72  1  0
 72 73  2  0
 74 73  1  0
 74 78  1  0
 75 74  2  0
 76 71  2  0
 76 75  1  0
 77 76  1  0
 79 80  1  0
 80 83  1  0
 80 82  1  0
 81 79  2  0
 84 85  1  0
 84 59  1  0
 86 84  1  0
M  ISO  4   5 101   6 101  49 100  57 100
M  END
>  <TORSDO>  (65) 
F 19

>  <SCORE>  (65) 
-16.442

>  <name>  (65) 
67

>  <ligand_id>  (65) 
67

>  <original_smiles>  (65) 
[H]c1c([H])c([H])c2c(c1[H])C([H])([H])C([H])([H])C([H])([H])C2([H])N([H])C(=O)C1([H])N(C(=O)C([H])(N([H])C(=O)C([H])(N([H])C([H])([H])[H])C([H])([H])[H])C(C([H])([H])[H])(C([H])([H])[H])C([H])([H])[H])C([H])([H])c2c([H])c(OC([H])([H])C(=O)N([H])C([H])([H])C([H])([H])N([H])C(=O)N3C([H])([H])C([H])([H])C([H])([H])C([H])(n4nc(-c5c([H])c([H])c(Oc6c([H])c([H])c(F)c([H])c6F)c([H])c5[H])c(C(=O)N([H])[H])c4N([H])[H])C3([H])[H])c([H])c([H])c2C1([H])[H]

>  <smiles>  (65) 
[H]c1c([H])c([H])c2c(c1[H])C([H])([H])C([H])([H])C([H])([H])C2([H])N([H])C(=O)C1([H])N(C(=O)C([H])(N([H])C(=O)C([H])(N([H])C([H])([H])[H])C([H])([H])[H])C(C([H])([H])[H])(C([H])([H])[H])C([H])([H])[H])C([H])([H])c2c([H])c(OC([H])([H])C(=O)N([H])C([H])([H])C([H])([H])N([H])C(=O)N3C([H])([H])C([H])([H])C([H])([H])C([H])(n4nc(-c5c([H])c([H])c(Oc6c([H])c([H])c(F)c([H])c6F)c([H])c5[H])c(C(=O)N([H])[H])c4N([H])[H])C3([H])[H])c([H])c([H])c2C1([H])[H]

$$$$
68:0:0
     RDKit          3D

 93100  0  0  1  0  0  0  0  0999 V2000
  -31.8500  -24.0390   18.1300 C   0  0  0  0  0  2  0  0  0  0  0  0
  -29.9930  -25.0910   19.4180 C   0  0  0  0  0  0  0  0  0  0  0  0
  -30.6000  -24.7860   18.2670 N   0  0  0  0  0  0  0  0  0  0  0  0
  -30.5320  -24.9380   20.5170 O   0  0  0  0  0  0  0  0  0  0  0  0
  -30.0910  -24.9800   17.4140 H   0  0  0  0  0  0  0  0  0  0  0  0
  -28.5590  -25.6170   19.3250 C   0  0  0  0  0  2  0  0  0  0  0  0
  -28.4460  -26.8030   20.1020 O   0  0  0  0  0  0  0  0  0  0  0  0
  -24.6310  -31.8790   23.2530 C   0  0  0  0  0  0  0  0  0  0  0  0
  -27.2380  -27.4620   20.1190 C   0  0  0  0  0  0  0  0  0  0  0  0
  -23.4000  -30.4830   21.6240 C   0  0  0  0  0  3  0  0  0  0  0  0
  -24.8320  -28.9440   20.1810 C   0  0  0  0  0  0  0  0  0  0  0  0
  -25.9210  -30.8410   21.3950 C   0  0  0  0  0  2  0  0  0  0  0  0
  -25.9940  -29.4720   20.7550 C   0  0  0  0  0  0  0  0  0  0  0  0
  -27.1940  -28.7330   20.7290 C   0  0  0  0  0  3  0  0  0  0  0  0
  -26.0500  -26.9350   19.5530 C   0  0  0  0  0  3  0  0  0  0  0  0
  -24.8510  -27.6710   19.5850 C   0  0  0  0  0  3  0  0  0  0  0  0
  -23.5910  -29.8060   20.2400 C   0  0  0  0  0  2  0  0  0  0  0  0
  -24.6700  -31.0810   22.1500 N   0  0  0  0  0  0  0  0  0  0  0  0
  -23.5590  -32.1520   23.8080 O   0  0  0  0  0  0  0  0  0  0  0  0
  -22.7620  -29.4590   22.5880 C   0  0  0  0  0  0  0  0  0  0  0  0
  -21.4370  -29.2740   22.4700 N   0  0  0  0  0  0  0  0  0  0  0  0
  -23.4520  -28.8370   23.3990 O   0  0  0  0  0  0  0  0  0  0  0  0
  -20.9410  -29.8290   21.7860 H   0  0  0  0  0  0  0  0  0  0  0  0
  -18.0700  -28.0640   22.9730 C   0  0  0  0  0  0  0  0  0  0  0  0
  -20.6260  -28.3360   23.2460 C   0  0  0  0  0  3  0  0  0  0  0  0
  -20.7380  -26.9020   22.6790 C   0  0  0  0  0  2  0  0  0  0  0  0
  -19.6390  -26.5670   21.6660 C   0  0  0  0  0  2  0  0  0  0  0  0
  -18.2550  -26.7100   22.3080 C   0  0  0  0  0  2  0  0  0  0  0  0
  -19.1850  -28.8340   23.3990 C   0  0  0  0  0  0  0  0  0  0  0  0
  -18.9600  -30.1020   23.9790 C   0  0  0  0  0  3  0  0  0  0  0  0
  -17.6530  -30.5980   24.1380 C   0  0  0  0  0  3  0  0  0  0  0  0
  -16.5530  -29.8250   23.7290 C   0  0  0  0  0  3  0  0  0  0  0  0
  -16.7630  -28.5590   23.1510 C   0  0  0  0  0  3  0  0  0  0  0  0
  -25.9280  -32.5030   23.8580 C   0  0  0  0  0  3  0  0  0  0  0  0
  -26.4660  -31.7240   25.1190 C   0  0  1  0  0  0  0  0  0  0  0  0
  -25.3910  -31.4810   26.2040 C   0  0  0  0  0  1  0  0  0  0  0  0
  -27.0390  -30.3470   24.7070 C   0  0  0  0  0  1  0  0  0  0  0  0
  -27.6300  -32.5110   25.7670 C   0  0  0  0  0  1  0  0  0  0  0  0
  -25.6300  -33.8990   24.1970 N   0  0  0  0  0  0  0  0  0  0  0  0
  -25.9520  -34.9520   23.4350 C   0  0  0  0  0  0  0  0  0  0  0  0
  -26.6050  -34.8510   22.3930 O   0  0  0  0  0  0  0  0  0  0  0  0
  -25.0480  -34.0540   25.0080 H   0  0  0  0  0  0  0  0  0  0  0  0
  -24.2190  -36.7450   23.1110 C   0  0  0  0  0  1  0  0  0  0  0  0
  -25.4730  -36.3390   23.9020 C   0  0  0  0  0  3  0  0  0  0  0  0
  -27.6230  -37.2190   24.6970 C   0  0  0  0  0  1  0  0  0  0  0  0
  -26.5040  -37.3920   23.7720 N   0  0  0  0  0  0  0  0  0  0  0  0
  -26.1020  -38.3130   23.9300 H   0  0  0  0  0  0  0  0  0  0  0  0
  -31.6450  -22.5350   18.4160 C   0  0  0  0  0  2  0  0  0  0  0  0
  -30.5090  -21.8880   17.5960 C   0  0  0  0  0  2  0  0  0  0  0  0
  -29.7180  -20.8140   18.3620 C   0  0  0  0  0  2  0  0  0  0  0  0
  -28.3820  -20.4890   17.6660 C   0  0  0  0  0  2  0  0  0  0  0  0
  -27.5530  -19.3860   18.3460 C   0  0  0  0  0  2  0  0  0  0  0  0
  -28.2820  -18.0310   18.3680 C   0  0  0  0  0  2  0  0  0  0  0  0
  -28.6940  -17.5760   19.7790 C   0  0  0  0  0  2  0  0  0  0  0  0
  -29.9430  -16.6810   19.7730 C   0  0  0  0  0  2  0  0  0  0  0  0
  -30.6240  -14.4800   20.5240 C   0  0  0  0  0  0  0  0  0  0  0  0
  -30.3530  -12.3100   19.4390 C   0  0  0  0  0  2  0  0  0  0  0  0
  -29.4370  -12.5580   18.2220 C   0  0  0  0  0  2  0  0  0  0  0  0
  -27.9550  -12.4270   18.6250 C   0  0  0  0  0  2  0  0  0  0  0  0
  -27.5970  -13.2570   19.8860 C   0  0  0  0  0  3  0  0  0  0  0  0
  -28.6370  -13.0220   21.0090 C   0  0  0  0  0  2  0  0  0  0  0  0
  -29.9790  -13.2910   20.4640 N   0  0  0  0  0  0  0  0  0  0  0  0
  -31.7850  -14.6610   20.1500 O   0  0  0  0  0  0  0  0  0  0  0  0
  -29.7880  -15.5150   20.6350 N   0  0  0  0  0  0  0  0  0  0  0  0
  -28.8480  -15.2740   20.9130 H   0  0  0  0  0  0  0  0  0  0  0  0
  -25.1870  -13.8700   20.5580 C   0  0  0  0  0  0  0  0  0  0  0  0
  -24.1190  -13.0910   20.9210 C   0  0  0  0  0  0  0  0  0  0  0  0
  -24.5890  -11.7430   20.9040 C   0  0  0  0  0  0  0  0  0  0  0  0
  -26.2380  -12.9880   20.3480 N   0  0  0  0  0  0  0  0  0  0  0  0
  -25.8820  -11.7060   20.6140 N   0  0  0  0  0  0  0  0  0  0  0  0
  -23.8680  -10.4790   21.0930 C   0  0  0  0  0  0  0  0  0  0  0  0
  -24.3140   -9.5090   22.0180 C   0  0  0  0  0  3  0  0  0  0  0  0
  -23.5980   -8.3050   22.1940 C   0  0  0  0  0  3  0  0  0  0  0  0
  -22.4200   -8.0670   21.4430 C   0  0  0  0  0  0  0  0  0  0  0  0
  -21.9970   -9.0230   20.5050 C   0  0  0  0  0  3  0  0  0  0  0  0
  -22.7140  -10.2200   20.3280 C   0  0  0  0  0  3  0  0  0  0  0  0
  -21.6710   -6.9180   21.5320 O   0  0  0  0  0  0  0  0  0  0  0  0
  -21.6510   -6.1570   22.6740 C   0  0  0  0  0  0  0  0  0  0  0  0
  -21.2650   -6.6950   23.9210 C   0  0  0  0  0  3  0  0  0  0  0  0
  -21.1900   -5.8620   25.0540 C   0  0  0  0  0  3  0  0  0  0  0  0
  -21.4910   -4.4900   24.9400 C   0  0  0  0  0  0  0  0  0  0  0  0
  -21.8720   -3.9530   23.6990 C   0  0  0  0  0  3  0  0  0  0  0  0
  -21.9480   -4.7830   22.5670 C   0  0  0  0  0  0  0  0  0  0  0  0
  -22.2940   -4.2570   21.3670 F   0  0  0  0  0  0  0  0  0  0  0  0
  -21.4130   -3.6860   26.0250 F   0  0  0  0  0  0  0  0  0  0  0  0
  -22.7140  -13.5630   21.1680 C   0  0  0  0  0  0  0  0  0  0  0  0
  -21.9770  -12.8670   22.0300 N   0  0  0  0  0  0  0  0  0  0  0  0
  -22.2750  -14.5790   20.6360 O   0  0  0  0  0  0  0  0  0  0  0  0
  -22.3430  -12.0450   22.4860 H   0  0  0  0  0  0  0  0  0  0  0  0
  -21.0350  -13.1600   22.2370 H   0  0  0  0  0  0  0  0  0  0  0  0
  -25.3390  -15.2400   20.3710 N   0  0  0  0  0  0  0  0  0  0  0  0
  -24.5500  -15.8740   20.4610 H   0  0  0  0  0  0  0  0  0  0  0  0
  -26.1710  -15.6890   20.0140 H   0  0  0  0  0  0  0  0  0  0  0  0
  1  3  1  0
  1 48  1  0
  2  4  2  0
  3  2  1  0
  5  3  1  0
  6  2  1  0
  6  7  1  0
  7  9  1  0
  8 19  2  0
  9 14  1  0
 10 18  1  0
 10 20  1  0
 11 17  1  0
 11 13  1  0
 12 18  1  0
 13 12  1  0
 14 13  2  0
 15 16  1  0
 15  9  2  0
 16 11  2  0
 17 10  1  0
 18  8  1  0
 20 22  2  0
 21 20  1  0
 23 21  1  0
 24 33  2  0
 24 29  1  0
 25 21  1  0
 25 29  1  0
 26 25  1  0
 27 28  1  0
 27 26  1  0
 28 24  1  0
 29 30  2  0
 30 31  1  0
 32 31  2  0
 33 32  1  0
 34  8  1  0
 34 39  1  0
 34 35  1  0
 35 38  1  1
 35 36  1  0
 37 35  1  0
 39 42  1  0
 40 44  1  0
 40 39  1  0
 41 40  2  0
 44 43  1  0
 46 44  1  0
 46 47  1  0
 46 45  1  0
 49 50  1  0
 49 48  1  0
 51 52  1  0
 51 50  1  0
 52 53  1  0
 53 54  1  0
 55 54  1  0
 55 64  1  0
 56 64  1  0
 57 62  1  0
 58 59  1  0
 58 57  1  0
 60 59  1  0
 60 69  1  0
 60 61  1  0
 62 56  1  0
 62 61  1  0
 63 56  2  0
 64 65  1  0
 66 67  2  0
 67 86  1  0
 68 67  1  0
 68 71  1  0
 69 66  1  0
 69 70  1  0
 70 68  2  0
 71 72  1  0
 72 73  2  0
 74 77  1  0
 74 73  1  0
 75 74  2  0
 76 75  1  0
 76 71  2  0
 77 78  1  0
 78 79  1  0
 79 80  2  0
 81 80  1  0
 81 85  1  0
 82 81  2  0
 83 78  2  0
 83 82  1  0
 84 83  1  0
 86 87  1  0
 87 90  1  0
 87 89  1  0
 88 86  2  0
 91 92  1  0
 91 66  1  0
 93 91  1  0
M  ISO  4   6 101   7 101  56 100  64 100
M  END
>  <TORSDO>  (66) 
F 26

>  <SCORE>  (66) 
-11.892

>  <name>  (66) 
68

>  <ligand_id>  (66) 
68

>  <original_smiles>  (66) 
[H]c1c([H])c([H])c2c(c1[H])C([H])([H])C([H])([H])C([H])([H])C2([H])N([H])C(=O)C1([H])N(C(=O)C([H])(N([H])C(=O)C([H])(N([H])C([H])([H])[H])C([H])([H])[H])C(C([H])([H])[H])(C([H])([H])[H])C([H])([H])[H])C([H])([H])c2c([H])c(OC([H])([H])C(=O)N([H])C([H])([H])C([H])([H])C([H])([H])C([H])([H])C([H])([H])C([H])([H])C([H])([H])C([H])([H])C([H])([H])N([H])C(=O)N3C([H])([H])C([H])([H])C([H])([H])C([H])(n4nc(-c5c([H])c([H])c(Oc6c([H])c([H])c(F)c([H])c6F)c([H])c5[H])c(C(=O)N([H])[H])c4N([H])[H])C3([H])[H])c([H])c([H])c2C1([H])[H]

>  <smiles>  (66) 
[H]c1c([H])c([H])c2c(c1[H])C([H])([H])C([H])([H])C([H])([H])C2([H])N([H])C(=O)C1([H])N(C(=O)C([H])(N([H])C(=O)C([H])(N([H])C([H])([H])[H])C([H])([H])[H])C(C([H])([H])[H])(C([H])([H])[H])C([H])([H])[H])C([H])([H])c2c([H])c(OC([H])([H])C(=O)N([H])C([H])([H])C([H])([H])C([H])([H])C([H])([H])C([H])([H])C([H])([H])C([H])([H])C([H])([H])C([H])([H])N([H])C(=O)N3C([H])([H])C([H])([H])C([H])([H])C([H])(n4nc(-c5c([H])c([H])c(Oc6c([H])c([H])c(F)c([H])c6F)c([H])c5[H])c(C(=O)N([H])[H])c4N([H])[H])C3([H])[H])c([H])c([H])c2C1([H])[H]

$$$$
69:0:0
     RDKit          3D

 81 85  0  0  1  0  0  0  0  0999 V2000
  -28.1090  -24.6470   20.3000 O   0  0  0  0  0  1  0  0  0  0  0  0
  -24.7100  -31.7810   23.1610 C   0  0  0  0  0  0  0  0  0  0  0  0
  -27.2070  -26.1440   20.2640 C   0  0  0  0  0  0  0  0  0  0  0  0
  -23.5560  -30.3680   21.5220 C   0  0  0  0  0  3  0  0  0  0  0  0
  -25.0090  -28.5810   20.1690 C   0  0  0  0  0  0  0  0  0  0  0  0
  -26.1560  -30.3130   21.5020 C   0  0  0  0  0  2  0  0  0  0  0  0
  -26.2110  -28.8120   20.8490 C   0  0  0  0  0  0  0  0  0  0  0  0
  -27.2590  -27.6460   20.8460 C   0  0  0  0  0  3  0  0  0  0  0  0
  -25.9680  -26.2870   19.5230 C   0  0  0  0  0  3  0  0  0  0  0  0
  -24.9660  -27.3480   19.4800 C   0  0  0  0  0  3  0  0  0  0  0  0
  -23.8360  -29.6140   20.1780 C   0  0  0  0  0  2  0  0  0  0  0  0
  -24.8390  -30.8700   22.1140 N   0  0  0  0  0  0  0  0  0  0  0  0
  -23.6010  -32.1150   23.6230 O   0  0  0  0  0  0  0  0  0  0  0  0
  -22.7620  -29.4580   22.5040 C   0  0  0  0  0  0  0  0  0  0  0  0
  -21.4220  -29.3560   22.3730 N   0  0  0  0  0  0  0  0  0  0  0  0
  -23.3780  -28.8290   23.3670 O   0  0  0  0  0  0  0  0  0  0  0  0
  -20.9670  -29.9120   21.6630 H   0  0  0  0  0  0  0  0  0  0  0  0
  -17.9970  -28.2130   22.9010 C   0  0  0  0  0  0  0  0  0  0  0  0
  -20.5670  -28.4380   23.1430 C   0  0  0  0  0  3  0  0  0  0  0  0
  -20.6330  -27.0060   22.5600 C   0  0  0  0  0  2  0  0  0  0  0  0
  -19.5210  -26.7160   21.5460 C   0  0  0  0  0  2  0  0  0  0  0  0
  -18.1460  -26.8740   22.1990 C   0  0  0  0  0  2  0  0  0  0  0  0
  -19.1320  -28.9550   23.3290 C   0  0  0  0  0  0  0  0  0  0  0  0
  -18.9320  -30.2040   23.9560 C   0  0  0  0  0  3  0  0  0  0  0  0
  -17.6350  -30.7130   24.1530 C   0  0  0  0  0  3  0  0  0  0  0  0
  -16.5160  -29.9710   23.7350 C   0  0  0  0  0  3  0  0  0  0  0  0
  -16.6980  -28.7220   23.1160 C   0  0  0  0  0  3  0  0  0  0  0  0
  -25.9400  -32.4590   23.8420 C   0  0  0  0  0  3  0  0  0  0  0  0
  -25.5980  -33.8650   24.1720 N   0  0  0  0  0  0  0  0  0  0  0  0
  -25.9200  -34.9450   23.4450 C   0  0  0  0  0  0  0  0  0  0  0  0
  -26.5760  -34.8640   22.4040 O   0  0  0  0  0  0  0  0  0  0  0  0
  -25.0070  -33.9990   24.9800 H   0  0  0  0  0  0  0  0  0  0  0  0
  -24.1680  -36.7480   23.1980 C   0  0  0  0  0  1  0  0  0  0  0  0
  -25.4480  -36.3330   23.9420 C   0  0  0  0  0  3  0  0  0  0  0  0
  -27.6060  -37.2470   24.6880 C   0  0  0  0  0  1  0  0  0  0  0  0
  -26.4650  -37.3980   23.7880 N   0  0  0  0  0  0  0  0  0  0  0  0
  -26.0550  -38.3150   23.9480 H   0  0  0  0  0  0  0  0  0  0  0  0
  -26.3960  -31.7200   25.1620 C   0  0  1  0  0  0  0  0  0  0  0  0
  -25.2580  -31.5140   26.1910 C   0  0  0  0  0  1  0  0  0  0  0  0
  -26.9880  -30.3300   24.8490 C   0  0  0  0  0  1  0  0  0  0  0  0
  -27.5230  -32.5250   25.8520 C   0  0  0  0  0  1  0  0  0  0  0  0
  -28.1400  -22.5480   20.1630 C   0  0  0  0  0 15  0  0  0  0  0  0
  -29.1420  -20.4180   20.2160 C   0  0  0  0  0 15  0  0  0  0  0  0
  -29.9010  -16.6470   20.0860 C   0  0  0  0  0  0  0  0  0  0  0  0
  -30.2300  -13.8900   19.2940 C   0  0  0  0  0  2  0  0  0  0  0  0
  -29.4480  -13.0530   18.1990 C   0  0  0  0  0  2  0  0  0  0  0  0
  -28.1340  -12.4820   18.7300 C   0  0  0  0  0  2  0  0  0  0  0  0
  -27.5010  -13.5140   19.6750 C   0  0  0  0  0  3  0  0  0  0  0  0
  -28.4750  -14.2100   20.6950 C   0  0  0  0  0  2  0  0  0  0  0  0
  -29.4550  -15.1290   19.9600 N   0  0  0  0  0  0  0  0  0  0  0  0
  -31.1430  -16.3980   20.0040 O   0  0  0  0  0  0  0  0  0  0  0  0
  -29.2570  -18.3100   20.1340 N   0  0  0  0  0  2  0  0  0  0  0  0
  -30.2580  -18.4710   20.1320 H   0  0  0  0  0  0  0  0  0  0  0  0
  -25.1600  -13.9200   20.5080 C   0  0  0  0  0  0  0  0  0  0  0  0
  -24.1280  -13.1120   20.8810 C   0  0  0  0  0  0  0  0  0  0  0  0
  -24.6260  -11.7720   20.8220 C   0  0  0  0  0  0  0  0  0  0  0  0
  -26.2240  -13.0860   20.2420 N   0  0  0  0  0  0  0  0  0  0  0  0
  -25.9190  -11.7780   20.4820 N   0  0  0  0  0  0  0  0  0  0  0  0
  -23.9140  -10.4950   21.0120 C   0  0  0  0  0  0  0  0  0  0  0  0
  -24.3570   -9.5290   21.9420 C   0  0  0  0  0  3  0  0  0  0  0  0
  -23.6350   -8.3280   22.1300 C   0  0  0  0  0  3  0  0  0  0  0  0
  -22.4560   -8.0830   21.3870 C   0  0  0  0  0  0  0  0  0  0  0  0
  -22.0290   -9.0390   20.4470 C   0  0  0  0  0  3  0  0  0  0  0  0
  -22.7510  -10.2310   20.2590 C   0  0  0  0  0  3  0  0  0  0  0  0
  -21.7070   -6.9350   21.4820 O   0  0  0  0  0  0  0  0  0  0  0  0
  -21.6700   -6.1910   22.6350 C   0  0  0  0  0  0  0  0  0  0  0  0
  -21.2140   -6.7320   23.8560 C   0  0  0  0  0  3  0  0  0  0  0  0
  -21.1260   -5.9140   25.0000 C   0  0  0  0  0  3  0  0  0  0  0  0
  -21.4850   -4.5540   24.9250 C   0  0  0  0  0  0  0  0  0  0  0  0
  -21.9340   -4.0110   23.7070 C   0  0  0  0  0  3  0  0  0  0  0  0
  -22.0220   -4.8270   22.5660 C   0  0  0  0  0  0  0  0  0  0  0  0
  -22.4340   -4.2930   21.3900 F   0  0  0  0  0  0  0  0  0  0  0  0
  -21.3950   -3.7660   26.0220 F   0  0  0  0  0  0  0  0  0  0  0  0
  -22.7270  -13.5620   21.1730 C   0  0  0  0  0  0  0  0  0  0  0  0
  -22.0260  -12.8570   22.0520 N   0  0  0  0  0  0  0  0  0  0  0  0
  -22.2670  -14.5820   20.6590 O   0  0  0  0  0  0  0  0  0  0  0  0
  -22.4140  -12.0340   22.4890 H   0  0  0  0  0  0  0  0  0  0  0  0
  -21.0880  -13.1430   22.2910 H   0  0  0  0  0  0  0  0  0  0  0  0
  -25.2790  -15.2960   20.3350 N   0  0  0  0  0  0  0  0  0  0  0  0
  -24.4980  -15.9290   20.4650 H   0  0  0  0  0  0  0  0  0  0  0  0
  -26.1180  -15.7610   20.0090 H   0  0  0  0  0  0  0  0  0  0  0  0
  2 13  2  0
  3  1  1  0
  3  8  1  0
  4 12  1  0
  4 14  1  0
  5 11  1  0
  5  7  1  0
  6 12  1  0
  7  6  1  0
  8  7  2  0
  9  3  2  0
 10  9  1  0
 10  5  2  0
 11  4  1  0
 12  2  1  0
 14 16  2  0
 15 14  1  0
 17 15  1  0
 18 27  2  0
 18 23  1  0
 19 15  1  0
 19 23  1  0
 20 19  1  0
 21 22  1  0
 21 20  1  0
 22 18  1  0
 23 24  2  0
 24 25  1  0
 26 25  2  0
 27 26  1  0
 28  2  1  0
 28 29  1  0
 28 38  1  0
 29 32  1  0
 30 34  1  0
 30 29  1  0
 31 30  2  0
 34 33  1  0
 36 34  1  0
 36 37  1  0
 36 35  1  0
 38 41  1  1
 38 39  1  0
 40 38  1  0
 44 52  1  0
 45 50  1  0
 46 47  1  0
 46 45  1  0
 48 47  1  0
 48 57  1  0
 48 49  1  0
 50 44  1  0
 50 49  1  0
 51 44  2  0
 53 52  1  0
 54 55  2  0
 55 74  1  0
 56 55  1  0
 56 59  1  0
 57 58  1  0
 57 54  1  0
 58 56  2  0
 59 60  1  0
 60 61  2  0
 62 65  1  0
 62 61  1  0
 63 62  2  0
 64 63  1  0
 64 59  2  0
 65 66  1  0
 66 67  1  0
 67 68  2  0
 69 68  1  0
 69 73  1  0
 70 69  2  0
 71 66  2  0
 71 70  1  0
 72 71  1  0
 74 75  1  0
 75 78  1  0
 75 77  1  0
 76 74  2  0
 79 80  1  0
 79 54  1  0
 81 79  1  0
M  ISO  4   1 101  42 101  44 100  52 100
M  END
>  <TORSDO>  (67) 
F 17

>  <SCORE>  (67) 
-16.141

>  <name>  (67) 
69

>  <ligand_id>  (67) 
69

>  <original_smiles>  (67) 
[H]c1c([H])c([H])c2c(c1[H])C([H])([H])C([H])([H])C([H])([H])C2([H])N([H])C(=O)C1([H])N(C(=O)C([H])(N([H])C(=O)C([H])(N([H])C([H])([H])[H])C([H])([H])[H])C(C([H])([H])[H])(C([H])([H])[H])C([H])([H])[H])C([H])([H])c2c([H])c(OC([H])([H])C([H])([H])N([H])C(=O)N3C([H])([H])C([H])([H])C([H])([H])C([H])(n4nc(-c5c([H])c([H])c(Oc6c([H])c([H])c(F)c([H])c6F)c([H])c5[H])c(C(=O)N([H])[H])c4N([H])[H])C3([H])[H])c([H])c([H])c2C1([H])[H]

>  <smiles>  (67) 
[H]c1c([H])c([H])c2c(c1[H])C([H])([H])C([H])([H])C([H])([H])C2([H])N([H])C(=O)C1([H])N(C(=O)C([H])(N([H])C(=O)C([H])(N([H])C([H])([H])[H])C([H])([H])[H])C(C([H])([H])[H])(C([H])([H])[H])C([H])([H])[H])C([H])([H])c2c([H])c(OC([H])([H])C([H])([H])N([H])C(=O)N3C([H])([H])C([H])([H])C([H])([H])C([H])(n4nc(-c5c([H])c([H])c(Oc6c([H])c([H])c(F)c([H])c6F)c([H])c5[H])c(C(=O)N([H])[H])c4N([H])[H])C3([H])[H])c([H])c([H])c2C1([H])[H]

$$$$
70:0:0
     RDKit          3D

100107  0  0  1  0  0  0  0  0999 V2000
  -23.9080  -24.6460   16.7260 C   0  0  0  0  0  2  0  0  0  0  0  0
  -25.2730  -25.7610   14.9200 C   0  0  0  0  0  0  0  0  0  0  0  0
  -24.1170  -25.4740   15.5420 N   0  0  0  0  0  0  0  0  0  0  0  0
  -25.2890  -26.5880   14.0110 O   0  0  0  0  0  0  0  0  0  0  0  0
  -23.2970  -25.9540   15.1950 H   0  0  0  0  0  0  0  0  0  0  0  0
  -26.5770  -25.0380   15.3070 C   0  0  0  0  0  2  0  0  0  0  0  0
  -26.9190  -25.3050   16.6630 O   0  0  0  0  0  0  0  0  0  0  0  0
  -28.1410  -24.6820   17.0390 C   0  0  0  0  0  2  0  0  0  0  0  0
  -28.4610  -24.9920   18.5080 C   0  0  0  0  0  2  0  0  0  0  0  0
  -28.7510  -26.4810   18.7640 C   0  0  0  0  0  2  0  0  0  0  0  0
  -28.3790  -26.8700   20.0850 O   0  0  0  0  0  0  0  0  0  0  0  0
  -24.5720  -31.9610   23.2650 C   0  0  0  0  0  0  0  0  0  0  0  0
  -27.1830  -27.5420   20.1570 C   0  0  0  0  0  0  0  0  0  0  0  0
  -23.3460  -30.5580   21.6380 C   0  0  0  0  0  3  0  0  0  0  0  0
  -24.7810  -29.0180   20.2080 C   0  0  0  0  0  0  0  0  0  0  0  0
  -25.8680  -30.9140   21.4230 C   0  0  0  0  0  2  0  0  0  0  0  0
  -25.9420  -29.5430   20.7920 C   0  0  0  0  0  0  0  0  0  0  0  0
  -27.1410  -28.8040   20.7810 C   0  0  0  0  0  3  0  0  0  0  0  0
  -25.9990  -27.0100   19.5950 C   0  0  0  0  0  3  0  0  0  0  0  0
  -24.7990  -27.7430   19.6210 C   0  0  0  0  0  3  0  0  0  0  0  0
  -23.5420  -29.8760   20.2580 C   0  0  0  0  0  2  0  0  0  0  0  0
  -24.6120  -31.1590   22.1660 N   0  0  0  0  0  0  0  0  0  0  0  0
  -23.4950  -32.2380   23.8120 O   0  0  0  0  0  0  0  0  0  0  0  0
  -22.6990  -29.5410   22.6050 C   0  0  0  0  0  0  0  0  0  0  0  0
  -21.3740  -29.3600   22.4780 N   0  0  0  0  0  0  0  0  0  0  0  0
  -23.3840  -28.9180   23.4210 O   0  0  0  0  0  0  0  0  0  0  0  0
  -20.8840  -29.9100   21.7860 H   0  0  0  0  0  0  0  0  0  0  0  0
  -18.0040  -28.1620   22.9670 C   0  0  0  0  0  0  0  0  0  0  0  0
  -20.5600  -28.4210   23.2490 C   0  0  0  0  0  3  0  0  0  0  0  0
  -20.6720  -26.9910   22.6740 C   0  0  0  0  0  2  0  0  0  0  0  0
  -19.5750  -26.6640   21.6580 C   0  0  0  0  0  2  0  0  0  0  0  0
  -18.1900  -26.8090   22.2980 C   0  0  0  0  0  2  0  0  0  0  0  0
  -19.1200  -28.9240   23.3990 C   0  0  0  0  0  0  0  0  0  0  0  0
  -18.9010  -30.1910   23.9790 C   0  0  0  0  0  3  0  0  0  0  0  0
  -17.5960  -30.6950   24.1370 C   0  0  0  0  0  3  0  0  0  0  0  0
  -16.4930  -29.9260   23.7290 C   0  0  0  0  0  3  0  0  0  0  0  0
  -16.6960  -28.6630   23.1450 C   0  0  0  0  0  3  0  0  0  0  0  0
  -25.8670  -32.5860   23.8720 C   0  0  0  0  0  3  0  0  0  0  0  0
  -25.5670  -33.9860   24.1990 N   0  0  0  0  0  0  0  0  0  0  0  0
  -25.9020  -35.0320   23.4340 C   0  0  0  0  0  0  0  0  0  0  0  0
  -26.5660  -34.9210   22.4010 O   0  0  0  0  0  0  0  0  0  0  0  0
  -24.9770  -34.1460   25.0020 H   0  0  0  0  0  0  0  0  0  0  0  0
  -24.1830  -36.8290   23.0740 C   0  0  0  0  0  1  0  0  0  0  0  0
  -25.4200  -36.4230   23.8890 C   0  0  0  0  0  3  0  0  0  0  0  0
  -27.5610  -37.2980   24.7100 C   0  0  0  0  0  1  0  0  0  0  0  0
  -26.4560  -37.4720   23.7720 N   0  0  0  0  0  0  0  0  0  0  0  0
  -26.0540  -38.3950   23.9200 H   0  0  0  0  0  0  0  0  0  0  0  0
  -26.3910  -31.8170   25.1460 C   0  0  1  0  0  0  0  0  0  0  0  0
  -25.3040  -31.5900   26.2230 C   0  0  0  0  0  1  0  0  0  0  0  0
  -26.9630  -30.4370   24.7530 C   0  0  0  0  0  1  0  0  0  0  0  0
  -27.5500  -32.6080   25.7970 C   0  0  0  0  0  1  0  0  0  0  0  0
  -24.1340  -23.1430   16.4790 C   0  0  0  0  0  2  0  0  0  0  0  0
  -25.0780  -22.6850   17.4360 O   0  0  0  0  0  0  0  0  0  0  0  0
  -25.6430  -21.3990   17.1930 C   0  0  0  0  0  2  0  0  0  0  0  0
  -26.5360  -21.1000   18.4120 C   0  0  0  0  0  2  0  0  0  0  0  0
  -27.4630  -19.8650   18.3410 C   0  0  0  0  0  2  0  0  0  0  0  0
  -27.9920  -19.5550   19.7570 C   0  0  0  0  0  2  0  0  0  0  0  0
  -29.0290  -17.4240   20.5170 C   0  0  0  0  0  0  0  0  0  0  0  0
  -29.0690  -18.5650   19.8190 N   0  0  0  0  0  0  0  0  0  0  0  0
  -27.9810  -16.9330   20.9420 O   0  0  0  0  0  0  0  0  0  0  0  0
  -29.9710  -18.8550   19.4630 H   0  0  0  0  0  0  0  0  0  0  0  0
  -30.3690  -16.7590   20.8410 C   0  0  0  0  0  2  0  0  0  0  0  0
  -30.8150  -14.3800   20.3260 C   0  0  0  0  0  0  0  0  0  0  0  0
  -30.4580  -12.2570   19.1440 C   0  0  0  0  0  2  0  0  0  0  0  0
  -29.4890  -12.4840   17.9670 C   0  0  0  0  0  2  0  0  0  0  0  0
  -28.0200  -12.3900   18.4190 C   0  0  0  0  0  2  0  0  0  0  0  0
  -27.7320  -13.2190   19.6990 C   0  0  0  0  0  3  0  0  0  0  0  0
  -28.7980  -12.9420   20.7820 C   0  0  0  0  0  2  0  0  0  0  0  0
  -30.1260  -13.2200   20.2000 N   0  0  0  0  0  0  0  0  0  0  0  0
  -31.8800  -14.6120   19.7480 O   0  0  0  0  0  0  0  0  0  0  0  0
  -30.1830  -15.3240   21.0260 N   0  0  0  0  0  0  0  0  0  0  0  0
  -29.3160  -15.0570   21.4690 H   0  0  0  0  0  0  0  0  0  0  0  0
  -25.3490  -13.8840   20.4150 C   0  0  0  0  0  0  0  0  0  0  0  0
  -24.2700  -13.1330   20.7940 C   0  0  0  0  0  0  0  0  0  0  0  0
  -24.7050  -11.7730   20.7740 C   0  0  0  0  0  0  0  0  0  0  0  0
  -26.3780  -12.9790   20.1930 N   0  0  0  0  0  0  0  0  0  0  0  0
  -25.9910  -11.7060   20.4600 N   0  0  0  0  0  0  0  0  0  0  0  0
  -23.9610  -10.5250   20.9830 C   0  0  0  0  0  0  0  0  0  0  0  0
  -24.3950   -9.5480   21.9080 C   0  0  0  0  0  3  0  0  0  0  0  0
  -23.6500   -8.3640   22.1010 C   0  0  0  0  0  3  0  0  0  0  0  0
  -22.4600   -8.1470   21.3680 C   0  0  0  0  0  0  0  0  0  0  0  0
  -22.0460   -9.1130   20.4320 C   0  0  0  0  0  3  0  0  0  0  0  0
  -22.7880  -10.2880   20.2380 C   0  0  0  0  0  3  0  0  0  0  0  0
  -21.6880   -7.0160   21.4700 O   0  0  0  0  0  0  0  0  0  0  0  0
  -21.6490   -6.2730   22.6240 C   0  0  0  0  0  0  0  0  0  0  0  0
  -21.2740   -6.8400   23.8620 C   0  0  0  0  0  3  0  0  0  0  0  0
  -21.1850   -6.0270   25.0090 C   0  0  0  0  0  3  0  0  0  0  0  0
  -21.4560   -4.6480   24.9200 C   0  0  0  0  0  0  0  0  0  0  0  0
  -21.8220   -4.0820   23.6860 C   0  0  0  0  0  3  0  0  0  0  0  0
  -21.9160   -4.8920   22.5400 C   0  0  0  0  0  0  0  0  0  0  0  0
  -22.2500   -4.3370   21.3500 F   0  0  0  0  0  0  0  0  0  0  0  0
  -21.3580   -3.8650   26.0190 F   0  0  0  0  0  0  0  0  0  0  0  0
  -22.8860  -13.6380   21.0900 C   0  0  0  0  0  0  0  0  0  0  0  0
  -22.1630  -12.9610   21.9740 N   0  0  0  0  0  0  0  0  0  0  0  0
  -22.4560  -14.6690   20.5710 O   0  0  0  0  0  0  0  0  0  0  0  0
  -22.5220  -12.1250   22.4120 H   0  0  0  0  0  0  0  0  0  0  0  0
  -21.2380  -13.2880   22.2210 H   0  0  0  0  0  0  0  0  0  0  0  0
  -25.5430  -15.2490   20.2250 N   0  0  0  0  0  0  0  0  0  0  0  0
  -24.7920  -15.9240   20.3190 H   0  0  0  0  0  0  0  0  0  0  0  0
  -26.4570  -15.6960   20.1800 H   0  0  0  0  0  0  0  0  0  0  0  0
  2  6  1  0
  2  3  1  0
  3  1  1  0
  4  2  2  0
  5  3  1  0
  6  7  1  0
  7  8  1  0
  8  9  1  0
  9 10  1  0
 10 11  1  0
 11 13  1  0
 12 23  2  0
 13 18  1  0
 14 22  1  0
 14 24  1  0
 15 21  1  0
 15 17  1  0
 16 22  1  0
 17 16  1  0
 18 17  2  0
 19 20  1  0
 19 13  2  0
 20 15  2  0
 21 14  1  0
 22 12  1  0
 24 26  2  0
 25 24  1  0
 27 25  1  0
 28 37  2  0
 28 33  1  0
 29 25  1  0
 29 33  1  0
 30 29  1  0
 31 32  1  0
 31 30  1  0
 32 28  1  0
 33 34  2  0
 34 35  1  0
 36 35  2  0
 37 36  1  0
 38 12  1  0
 38 39  1  0
 38 48  1  0
 39 42  1  0
 40 44  1  0
 40 39  1  0
 41 40  2  0
 44 43  1  0
 46 44  1  0
 46 47  1  0
 46 45  1  0
 48 51  1  1
 48 49  1  0
 50 48  1  0
 52  1  1  0
 52 53  1  0
 54 53  1  0
 54 55  1  0
 56 55  1  0
 56 57  1  0
 57 59  1  0
 58 62  1  0
 58 60  2  0
 59 58  1  0
 61 59  1  0
 62 71  1  0
 63 71  1  0
 64 69  1  0
 65 66  1  0
 65 64  1  0
 67 66  1  0
 67 76  1  0
 67 68  1  0
 69 63  1  0
 69 68  1  0
 70 63  2  0
 71 72  1  0
 73 74  2  0
 74 93  1  0
 75 74  1  0
 75 78  1  0
 76 73  1  0
 76 77  1  0
 77 75  2  0
 78 79  1  0
 79 80  2  0
 81 84  1  0
 81 80  1  0
 82 81  2  0
 83 82  1  0
 83 78  2  0
 84 85  1  0
 85 86  1  0
 86 87  2  0
 88 87  1  0
 88 92  1  0
 89 88  2  0
 90 85  2  0
 90 89  1  0
 91 90  1  0
 93 94  1  0
 94 97  1  0
 94 96  1  0
 95 93  2  0
 98 99  1  0
 98 73  1  0
100 98  1  0
M  ISO  4  10 101  11 101  63 100  71 100
M  END
>  <TORSDO>  (68) 
F 30

>  <SCORE>  (68) 
-10.835

>  <name>  (68) 
70

>  <ligand_id>  (68) 
70

>  <original_smiles>  (68) 
[H]c1c([H])c([H])c2c(c1[H])C([H])([H])C([H])([H])C([H])([H])C2([H])N([H])C(=O)C1([H])N(C(=O)C([H])(N([H])C(=O)C([H])(N([H])C([H])([H])[H])C([H])([H])[H])C(C([H])([H])[H])(C([H])([H])[H])C([H])([H])[H])C([H])([H])c2c([H])c(OC([H])([H])C([H])([H])C([H])([H])OC([H])([H])C(=O)N([H])C([H])([H])C([H])([H])OC([H])([H])C([H])([H])C([H])([H])C([H])([H])N([H])C(=O)C([H])([H])N([H])C(=O)N3C([H])([H])C([H])([H])C([H])([H])C([H])(n4nc(-c5c([H])c([H])c(Oc6c([H])c([H])c(F)c([H])c6F)c([H])c5[H])c(C(=O)N([H])[H])c4N([H])[H])C3([H])[H])c([H])c([H])c2C1([H])[H]

>  <smiles>  (68) 
[H]c1c([H])c([H])c2c(c1[H])C([H])([H])C([H])([H])C([H])([H])C2([H])N([H])C(=O)C1([H])N(C(=O)C([H])(N([H])C(=O)C([H])(N([H])C([H])([H])[H])C([H])([H])[H])C(C([H])([H])[H])(C([H])([H])[H])C([H])([H])[H])C([H])([H])c2c([H])c(OC([H])([H])C([H])([H])C([H])([H])OC([H])([H])C(=O)N([H])C([H])([H])C([H])([H])OC([H])([H])C([H])([H])C([H])([H])C([H])([H])N([H])C(=O)C([H])([H])N([H])C(=O)N3C([H])([H])C([H])([H])C([H])([H])C([H])(n4nc(-c5c([H])c([H])c(Oc6c([H])c([H])c(F)c([H])c6F)c([H])c5[H])c(C(=O)N([H])[H])c4N([H])[H])C3([H])[H])c([H])c([H])c2C1([H])[H]

$$$$
71:0:0
     RDKit          3D

 99106  0  0  1  0  0  0  0  0999 V2000
  -23.9140  -21.8600   23.8670 C   0  0  0  0  0  2  0  0  0  0  0  0
  -23.6350  -23.3000   23.4010 C   0  0  0  0  0  2  0  0  0  0  0  0
  -25.3730  -24.0930   21.7920 C   0  0  0  0  0  0  0  0  0  0  0  0
  -24.8410  -24.0310   23.0200 N   0  0  0  0  0  0  0  0  0  0  0  0
  -25.0150  -23.3570   20.8720 O   0  0  0  0  0  0  0  0  0  0  0  0
  -25.2140  -24.6710   23.7090 H   0  0  0  0  0  0  0  0  0  0  0  0
  -26.4210  -25.1900   21.5730 C   0  0  0  0  0  2  0  0  0  0  0  0
  -27.4500  -24.9020   20.4560 C   0  0  0  0  0  2  0  0  0  0  0  0
  -28.3320  -26.1180   20.1060 C   0  0  0  0  0  2  0  0  0  0  0  0
  -27.7930  -26.8940   19.0360 O   0  0  0  0  0  0  0  0  0  0  0  0
  -24.5830  -31.7030   23.2130 C   0  0  0  0  0  0  0  0  0  0  0  0
  -26.6770  -27.6320   19.3300 C   0  0  0  0  0  0  0  0  0  0  0  0
  -23.1410  -30.5550   21.5620 C   0  0  0  0  0  3  0  0  0  0  0  0
  -24.3620  -29.1640   19.8080 C   0  0  0  0  0  0  0  0  0  0  0  0
  -25.6380  -30.8680   21.1180 C   0  0  0  0  0  2  0  0  0  0  0  0
  -25.5960  -29.5830   20.3200 C   0  0  0  0  0  0  0  0  0  0  0  0
  -26.7600  -28.8190   20.0890 C   0  0  0  0  0  3  0  0  0  0  0  0
  -25.4330  -27.2230   18.8100 C   0  0  0  0  0  3  0  0  0  0  0  0
  -24.2720  -27.9790   19.0550 C   0  0  0  0  0  3  0  0  0  0  0  0
  -23.1670  -30.0430   20.0960 C   0  0  0  0  0  2  0  0  0  0  0  0
  -24.4780  -31.0500   22.0220 N   0  0  0  0  0  0  0  0  0  0  0  0
  -23.5810  -31.9370   23.9040 O   0  0  0  0  0  0  0  0  0  0  0  0
  -22.5590  -29.4400   22.4590 C   0  0  0  0  0  0  0  0  0  0  0  0
  -21.2400  -29.2130   22.3460 N   0  0  0  0  0  0  0  0  0  0  0  0
  -23.2890  -28.7870   23.2100 O   0  0  0  0  0  0  0  0  0  0  0  0
  -20.7120  -29.7980   21.7140 H   0  0  0  0  0  0  0  0  0  0  0  0
  -17.9640  -27.7250   22.6900 C   0  0  0  0  0  0  0  0  0  0  0  0
  -20.4800  -28.1860   23.0580 C   0  0  0  0  0  3  0  0  0  0  0  0
  -20.7240  -26.7880   22.4450 C   0  0  0  0  0  2  0  0  0  0  0  0
  -19.6860  -26.4100   21.3860 C   0  0  0  0  0  2  0  0  0  0  0  0
  -18.2780  -26.4150   21.9890 C   0  0  0  0  0  2  0  0  0  0  0  0
  -18.9990  -28.5650   23.1770 C   0  0  0  0  0  0  0  0  0  0  0  0
  -18.6560  -29.7900   23.7890 C   0  0  0  0  0  3  0  0  0  0  0  0
  -17.3090  -30.1790   23.9160 C   0  0  0  0  0  3  0  0  0  0  0  0
  -16.2870  -29.3370   23.4450 C   0  0  0  0  0  3  0  0  0  0  0  0
  -16.6140  -28.1100   22.8390 C   0  0  0  0  0  3  0  0  0  0  0  0
  -25.9570  -32.2100   23.7500 C   0  0  0  0  0  3  0  0  0  0  0  0
  -25.7730  -33.6000   24.1880 N   0  0  0  0  0  0  0  0  0  0  0  0
  -26.1360  -34.6750   23.4760 C   0  0  0  0  0  0  0  0  0  0  0  0
  -26.7330  -34.5940   22.3980 O   0  0  0  0  0  0  0  0  0  0  0  0
  -25.2440  -33.7420   25.0360 H   0  0  0  0  0  0  0  0  0  0  0  0
  -24.5320  -36.6050   23.3380 C   0  0  0  0  0  1  0  0  0  0  0  0
  -25.7790  -36.0600   24.0490 C   0  0  0  0  0  3  0  0  0  0  0  0
  -28.0130  -36.7320   24.8150 C   0  0  0  0  0  1  0  0  0  0  0  0
  -26.8810  -37.0410   23.9450 N   0  0  0  0  0  0  0  0  0  0  0  0
  -26.5540  -37.9770   24.1720 H   0  0  0  0  0  0  0  0  0  0  0  0
  -26.5320  -31.3250   24.9240 C   0  0  1  0  0  0  0  0  0  0  0  0
  -25.5170  -31.0720   26.0620 C   0  0  0  0  0  1  0  0  0  0  0  0
  -26.9980  -29.9490   24.3910 C   0  0  0  0  0  1  0  0  0  0  0  0
  -27.7770  -32.0080   25.5360 C   0  0  0  0  0  1  0  0  0  0  0  0
  -22.6100  -21.0410   23.9020 C   0  0  0  0  0  2  0  0  0  0  0  0
  -22.7780  -19.5150   24.0260 C   0  0  0  0  0  2  0  0  0  0  0  0
  -23.4830  -18.8580   22.8250 C   0  0  0  0  0  2  0  0  0  0  0  0
  -24.9430  -18.4730   23.1090 C   0  0  0  0  0  2  0  0  0  0  0  0
  -25.6490  -17.9410   21.8560 C   0  0  0  0  0  2  0  0  0  0  0  0
  -27.1070  -17.5470   22.1240 C   0  0  0  0  0  2  0  0  0  0  0  0
  -28.9660  -16.8450   20.6610 C   0  0  0  0  0  0  0  0  0  0  0  0
  -27.6640  -16.8760   20.9590 N   0  0  0  0  0  0  0  0  0  0  0  0
  -29.8380  -17.2760   21.4190 O   0  0  0  0  0  0  0  0  0  0  0  0
  -27.0040  -16.4440   20.3190 H   0  0  0  0  0  0  0  0  0  0  0  0
  -29.3540  -16.2920   19.2960 C   0  0  0  0  0  2  0  0  0  0  0  0
  -30.8030  -14.5050   18.5210 C   0  0  0  0  0  0  0  0  0  0  0  0
  -30.4120  -12.1740   17.8200 C   0  0  0  0  0  2  0  0  0  0  0  0
  -29.1940  -12.0530   16.8850 C   0  0  0  0  0  2  0  0  0  0  0  0
  -27.8990  -11.8860   17.7020 C   0  0  0  0  0  2  0  0  0  0  0  0
  -27.7630  -12.9550   18.8170 C   0  0  0  0  0  3  0  0  0  0  0  0
  -29.0650  -13.0490   19.6460 C   0  0  0  0  0  2  0  0  0  0  0  0
  -30.1870  -13.3110   18.7250 N   0  0  0  0  0  0  0  0  0  0  0  0
  -31.6390  -14.6990   17.6380 O   0  0  0  0  0  0  0  0  0  0  0  0
  -30.5530  -15.4660   19.4080 N   0  0  0  0  0  0  0  0  0  0  0  0
  -31.3580  -16.0500   19.5770 H   0  0  0  0  0  0  0  0  0  0  0  0
  -25.7870  -13.6110   20.3280 C   0  0  0  0  0  0  0  0  0  0  0  0
  -24.8030  -12.8620   20.9190 C   0  0  0  0  0  0  0  0  0  0  0  0
  -25.0770  -11.5040   20.5700 C   0  0  0  0  0  0  0  0  0  0  0  0
  -26.6010  -12.7070   19.6630 N   0  0  0  0  0  0  0  0  0  0  0  0
  -26.1960  -11.4270   19.8630 N   0  0  0  0  0  0  0  0  0  0  0  0
  -24.3100  -10.2760   20.8190 C   0  0  0  0  0  0  0  0  0  0  0  0
  -24.6840   -9.3690   21.8350 C   0  0  0  0  0  3  0  0  0  0  0  0
  -23.9230   -8.2030   22.0670 C   0  0  0  0  0  3  0  0  0  0  0  0
  -22.7740   -7.9360   21.2850 C   0  0  0  0  0  0  0  0  0  0  0  0
  -22.4200   -8.8310   20.2600 C   0  0  0  0  0  3  0  0  0  0  0  0
  -23.1820   -9.9890   20.0270 C   0  0  0  0  0  3  0  0  0  0  0  0
  -21.9910   -6.8170   21.4210 O   0  0  0  0  0  0  0  0  0  0  0  0
  -21.6050   -6.3550   22.6530 C   0  0  0  0  0  0  0  0  0  0  0  0
  -20.7700   -7.1110   23.5050 C   0  0  0  0  0  3  0  0  0  0  0  0
  -20.3430   -6.5690   24.7340 C   0  0  0  0  0  3  0  0  0  0  0  0
  -20.7390   -5.2710   25.1080 C   0  0  0  0  0  0  0  0  0  0  0  0
  -21.5660   -4.5150   24.2580 C   0  0  0  0  0  3  0  0  0  0  0  0
  -21.9960   -5.0560   23.0330 C   0  0  0  0  0  0  0  0  0  0  0  0
  -22.7740   -4.3150   22.2080 F   0  0  0  0  0  0  0  0  0  0  0  0
  -20.3240   -4.7460   26.2840 F   0  0  0  0  0  0  0  0  0  0  0  0
  -23.6140  -13.3830   21.6730 C   0  0  0  0  0  0  0  0  0  0  0  0
  -23.1160  -12.6180   22.6390 N   0  0  0  0  0  0  0  0  0  0  0  0
  -23.1480  -14.4960   21.4360 O   0  0  0  0  0  0  0  0  0  0  0  0
  -23.5080  -11.7110   22.8430 H   0  0  0  0  0  0  0  0  0  0  0  0
  -22.3270  -12.9450   23.1800 H   0  0  0  0  0  0  0  0  0  0  0  0
  -26.0420  -14.9780   20.2750 N   0  0  0  0  0  0  0  0  0  0  0  0
  -25.2910  -15.5890   20.5760 H   0  0  0  0  0  0  0  0  0  0  0  0
  -26.5290  -15.3500   19.4700 H   0  0  0  0  0  0  0  0  0  0  0  0
  1 51  1  0
  2  1  1  0
  3  4  1  0
  4  2  1  0
  4  6  1  0
  5  3  2  0
  7  3  1  0
  8  7  1  0
  9  8  1  0
 10 12  1  0
 10  9  1  0
 11 22  2  0
 12 17  1  0
 13 21  1  0
 13 23  1  0
 14 20  1  0
 14 16  1  0
 15 21  1  0
 16 15  1  0
 17 16  2  0
 18 19  1  0
 18 12  2  0
 19 14  2  0
 20 13  1  0
 21 11  1  0
 23 25  2  0
 24 23  1  0
 26 24  1  0
 27 36  2  0
 27 32  1  0
 28 24  1  0
 28 32  1  0
 29 28  1  0
 30 31  1  0
 30 29  1  0
 31 27  1  0
 32 33  2  0
 33 34  1  0
 35 34  2  0
 36 35  1  0
 37 11  1  0
 37 38  1  0
 37 47  1  0
 38 41  1  0
 39 43  1  0
 39 38  1  0
 40 39  2  0
 43 42  1  0
 45 43  1  0
 45 46  1  0
 45 44  1  0
 47 50  1  1
 47 48  1  0
 49 47  1  0
 51 52  1  0
 53 54  1  0
 53 52  1  0
 55 56  1  0
 55 54  1  0
 57 58  1  0
 57 59  2  0
 58 56  1  0
 60 58  1  0
 61 70  1  0
 61 57  1  0
 62 68  1  0
 62 70  1  0
 63 68  1  0
 64 65  1  0
 64 63  1  0
 66 65  1  0
 66 67  1  0
 66 75  1  0
 68 67  1  0
 69 62  2  0
 70 71  1  0
 72 73  2  0
 73 92  1  0
 74 77  1  0
 74 73  1  0
 75 76  1  0
 75 72  1  0
 76 74  2  0
 77 78  1  0
 78 79  2  0
 80 83  1  0
 80 79  1  0
 81 80  2  0
 82 81  1  0
 82 77  2  0
 83 84  1  0
 84 89  2  0
 84 85  1  0
 85 86  2  0
 86 87  1  0
 87 91  1  0
 88 87  2  0
 89 88  1  0
 90 89  1  0
 92 93  1  0
 93 95  1  0
 93 96  1  0
 94 92  2  0
 97 72  1  0
 97 98  1  0
 99 97  1  0
M  ISO  4   9 101  10 101  62 100  70 100
M  END
>  <TORSDO>  (69) 
F 29

>  <SCORE>  (69) 
32.293

>  <name>  (69) 
71

>  <ligand_id>  (69) 
71

>  <original_smiles>  (69) 
[H]c1c([H])c([H])c2c(c1[H])C([H])([H])C([H])([H])C([H])([H])C2([H])N([H])C(=O)C1([H])N(C(=O)C([H])(N([H])C(=O)C([H])(N([H])C([H])([H])[H])C([H])([H])[H])C(C([H])([H])[H])(C([H])([H])[H])C([H])([H])[H])C([H])([H])c2c([H])c(OC([H])([H])C([H])([H])C([H])([H])C(=O)N([H])C([H])([H])C([H])([H])C([H])([H])C([H])([H])C([H])([H])C([H])([H])C([H])([H])C([H])([H])N([H])C(=O)C([H])([H])N([H])C(=O)N3C([H])([H])C([H])([H])C([H])([H])C([H])(n4nc(-c5c([H])c([H])c(Oc6c([H])c([H])c(F)c([H])c6F)c([H])c5[H])c(C(=O)N([H])[H])c4N([H])[H])C3([H])[H])c([H])c([H])c2C1([H])[H]

>  <smiles>  (69) 
[H]c1c([H])c([H])c2c(c1[H])C([H])([H])C([H])([H])C([H])([H])C2([H])N([H])C(=O)C1([H])N(C(=O)C([H])(N([H])C(=O)C([H])(N([H])C([H])([H])[H])C([H])([H])[H])C(C([H])([H])[H])(C([H])([H])[H])C([H])([H])[H])C([H])([H])c2c([H])c(OC([H])([H])C([H])([H])C([H])([H])C(=O)N([H])C([H])([H])C([H])([H])C([H])([H])C([H])([H])C([H])([H])C([H])([H])C([H])([H])C([H])([H])N([H])C(=O)C([H])([H])N([H])C(=O)N3C([H])([H])C([H])([H])C([H])([H])C([H])(n4nc(-c5c([H])c([H])c(Oc6c([H])c([H])c(F)c([H])c6F)c([H])c5[H])c(C(=O)N([H])[H])c4N([H])[H])C3([H])[H])c([H])c([H])c2C1([H])[H]

$$$$
72:0:0
     RDKit          3D

 95104  0  0  1  0  0  0  0  0999 V2000
  -30.5330  -20.2030   23.8970 C   0  0  0  0  0  3  0  0  0  0  0  0
  -31.0250  -17.8590   23.3930 C   0  0  0  0  0  3  0  0  0  0  0  0
  -30.0610  -21.4670   23.4900 C   0  0  0  0  0  3  0  0  0  0  0  0
  -31.0820  -16.7860   22.4820 C   0  0  0  0  0  3  0  0  0  0  0  0
  -29.6690  -20.5950   21.2440 C   0  0  0  0  0  3  0  0  0  0  0  0
  -30.1770  -18.2350   20.7380 C   0  0  0  0  0  3  0  0  0  0  0  0
  -30.5720  -19.1290   22.9810 C   0  0  0  0  0  0  0  0  0  0  0  0
  -30.1460  -19.3240   21.6460 C   0  0  0  0  0  0  0  0  0  0  0  0
  -29.6180  -21.6740   22.1670 C   0  0  0  0  0  0  0  0  0  0  0  0
  -30.6590  -16.9670   21.1480 C   0  0  0  0  0  0  0  0  0  0  0  0
  -31.3940  -14.8150   20.1180 C   0  0  0  0  0  0  0  0  0  0  0  0
  -31.1060  -12.6440   18.9700 C   0  0  0  0  0  2  0  0  0  0  0  0
  -30.1110  -12.8310   17.8030 C   0  0  0  0  0  2  0  0  0  0  0  0
  -28.6510  -12.7140   18.2850 C   0  0  0  0  0  2  0  0  0  0  0  0
  -28.3640  -13.5790   19.5400 C   0  0  0  0  0  3  0  0  0  0  0  0
  -29.4470  -13.3410   20.6150 C   0  0  0  0  0  2  0  0  0  0  0  0
  -30.7500  -13.6320   19.9940 N   0  0  0  0  0  0  0  0  0  0  0  0
  -32.5730  -14.9950   19.7910 O   0  0  0  0  0  0  0  0  0  0  0  0
  -30.5350  -15.8410   20.2940 N   0  0  0  0  0  0  0  0  0  0  0  0
  -29.5780  -15.5610   20.1390 H   0  0  0  0  0  0  0  0  0  0  0  0
  -26.0240  -14.2760   20.3450 C   0  0  0  0  0  0  0  0  0  0  0  0
  -24.9340  -13.5410   20.7220 C   0  0  0  0  0  0  0  0  0  0  0  0
  -25.3350  -12.1730   20.6490 C   0  0  0  0  0  0  0  0  0  0  0  0
  -27.0210  -13.3540   20.0610 N   0  0  0  0  0  0  0  0  0  0  0  0
  -26.6130  -12.0830   20.3020 N   0  0  0  0  0  0  0  0  0  0  0  0
  -24.5640  -10.9380   20.8330 C   0  0  0  0  0  0  0  0  0  0  0  0
  -24.9470   -9.9620   21.7790 C   0  0  0  0  0  3  0  0  0  0  0  0
  -24.1780   -8.7900   21.9470 C   0  0  0  0  0  3  0  0  0  0  0  0
  -23.0120   -8.5880   21.1680 C   0  0  0  0  0  0  0  0  0  0  0  0
  -22.6490   -9.5550   20.2140 C   0  0  0  0  0  3  0  0  0  0  0  0
  -23.4180  -10.7180   20.0450 C   0  0  0  0  0  3  0  0  0  0  0  0
  -22.2200   -7.4660   21.2440 O   0  0  0  0  0  0  0  0  0  0  0  0
  -22.0000   -6.8220   22.4360 C   0  0  0  0  0  0  0  0  0  0  0  0
  -21.4400   -7.4840   23.5500 C   0  0  0  0  0  3  0  0  0  0  0  0
  -21.1670   -6.7670   24.7320 C   0  0  0  0  0  3  0  0  0  0  0  0
  -21.4440   -5.3880   24.8000 C   0  0  0  0  0  0  0  0  0  0  0  0
  -21.9970   -4.7260   23.6890 C   0  0  0  0  0  3  0  0  0  0  0  0
  -22.2740   -5.4410   22.5110 C   0  0  0  0  0  0  0  0  0  0  0  0
  -22.7870   -4.7940   21.4360 F   0  0  0  0  0  0  0  0  0  0  0  0
  -21.1760   -4.6960   25.9320 F   0  0  0  0  0  0  0  0  0  0  0  0
  -23.5670  -14.0720   21.0460 C   0  0  0  0  0  0  0  0  0  0  0  0
  -22.8540  -13.4180   21.9540 N   0  0  0  0  0  0  0  0  0  0  0  0
  -23.1450  -15.1080   20.5320 O   0  0  0  0  0  0  0  0  0  0  0  0
  -23.2030  -12.5790   22.3940 H   0  0  0  0  0  0  0  0  0  0  0  0
  -21.9460  -13.7670   22.2160 H   0  0  0  0  0  0  0  0  0  0  0  0
  -26.2420  -15.6420   20.1960 N   0  0  0  0  0  0  0  0  0  0  0  0
  -25.5110  -16.3270   20.3570 H   0  0  0  0  0  0  0  0  0  0  0  0
  -27.1130  -16.0600   19.8960 H   0  0  0  0  0  0  0  0  0  0  0  0
  -29.0180  -23.0020   21.7820 C   0  0  0  0  0  0  0  0  0  0  0  0
  -29.3910  -23.5050   20.6000 N   0  0  0  0  0  0  0  0  0  0  0  0
  -28.2520  -23.5860   22.5500 O   0  0  0  0  0  0  0  0  0  0  0  0
  -30.0820  -22.9840   20.0840 H   0  0  0  0  0  0  0  0  0  0  0  0
  -28.8310  -24.6850   19.9320 C   0  0  0  0  0  2  0  0  0  0  0  0
  -28.7430  -25.9540   20.8040 C   0  0  0  0  0  2  0  0  0  0  0  0
  -28.7490  -27.1120   19.9670 O   0  0  0  0  0  0  0  0  0  0  0  0
  -24.5870  -31.7950   23.2600 C   0  0  0  0  0  0  0  0  0  0  0  0
  -27.5540  -27.7790   19.9510 C   0  0  0  0  0  0  0  0  0  0  0  0
  -23.4960  -30.4490   21.4880 C   0  0  0  0  0  3  0  0  0  0  0  0
  -25.0730  -29.1130   19.9920 C   0  0  0  0  0  0  0  0  0  0  0  0
  -25.9940  -30.9810   21.3740 C   0  0  0  0  0  2  0  0  0  0  0  0
  -26.1760  -29.6670   20.6490 C   0  0  0  0  0  0  0  0  0  0  0  0
  -27.4240  -29.0070   20.6290 C   0  0  0  0  0  3  0  0  0  0  0  0
  -26.4470  -27.2390   19.2630 C   0  0  0  0  0  3  0  0  0  0  0  0
  -25.2040  -27.9020   19.2870 C   0  0  0  0  0  3  0  0  0  0  0  0
  -23.7730  -29.8780   20.0670 C   0  0  0  0  0  2  0  0  0  0  0  0
  -24.7070  -31.0880   22.1010 N   0  0  0  0  0  0  0  0  0  0  0  0
  -23.4800  -31.9680   23.7910 O   0  0  0  0  0  0  0  0  0  0  0  0
  -22.8910  -29.3250   22.3570 C   0  0  0  0  0  0  0  0  0  0  0  0
  -21.5730  -29.1030   22.2130 N   0  0  0  0  0  0  0  0  0  0  0  0
  -23.6010  -28.6580   23.1130 O   0  0  0  0  0  0  0  0  0  0  0  0
  -21.0600  -29.7050   21.5870 H   0  0  0  0  0  0  0  0  0  0  0  0
  -18.2590  -27.7090   22.5250 C   0  0  0  0  0  0  0  0  0  0  0  0
  -20.7930  -28.0680   22.8910 C   0  0  0  0  0  3  0  0  0  0  0  0
  -20.9790  -26.6930   22.2030 C   0  0  0  0  0  2  0  0  0  0  0  0
  -19.9250  -26.4200   21.1270 C   0  0  0  0  0  2  0  0  0  0  0  0
  -18.5200  -26.4360   21.7350 C   0  0  0  0  0  2  0  0  0  0  0  0
  -19.3270  -28.4870   23.0450 C   0  0  0  0  0  0  0  0  0  0  0  0
  -19.0300  -29.6930   23.7170 C   0  0  0  0  0  3  0  0  0  0  0  0
  -17.6980  -30.1210   23.8780 C   0  0  0  0  0  3  0  0  0  0  0  0
  -16.6440  -29.3330   23.3810 C   0  0  0  0  0  3  0  0  0  0  0  0
  -16.9260  -28.1260   22.7150 C   0  0  0  0  0  3  0  0  0  0  0  0
  -25.8220  -32.4450   23.9600 C   0  0  0  0  0  3  0  0  0  0  0  0
  -26.2500  -31.7020   25.2840 C   0  0  1  0  0  0  0  0  0  0  0  0
  -25.0890  -31.4870   26.2810 C   0  0  0  0  0  1  0  0  0  0  0  0
  -26.8570  -30.3190   24.9550 C   0  0  0  0  0  1  0  0  0  0  0  0
  -27.3580  -32.5080   26.0030 C   0  0  0  0  0  1  0  0  0  0  0  0
  -25.4880  -33.8480   24.2370 N   0  0  0  0  0  0  0  0  0  0  0  0
  -25.8660  -34.8830   23.4720 C   0  0  0  0  0  0  0  0  0  0  0  0
  -26.6080  -34.7570   22.4940 O   0  0  0  0  0  0  0  0  0  0  0  0
  -24.8430  -34.0170   24.9940 H   0  0  0  0  0  0  0  0  0  0  0  0
  -24.1540  -36.6460   22.9490 C   0  0  0  0  0  1  0  0  0  0  0  0
  -25.3400  -36.2780   23.8560 C   0  0  0  0  0  3  0  0  0  0  0  0
  -27.4120  -37.1970   24.7970 C   0  0  0  0  0  1  0  0  0  0  0  0
  -26.3720  -37.3360   23.7820 N   0  0  0  0  0  0  0  0  0  0  0  0
  -25.9540  -38.2580   23.8770 H   0  0  0  0  0  0  0  0  0  0  0  0
  3  1  1  0
  4  2  2  0
  5  8  2  0
  5  9  1  0
  6 10  2  0
  6  8  1  0
  7  2  1  0
  7  1  2  0
  8  7  1  0
  9  3  2  0
 10  4  1  0
 11 19  1  0
 12 17  1  0
 13 14  1  0
 13 12  1  0
 15 14  1  0
 15 24  1  0
 15 16  1  0
 17 11  1  0
 17 16  1  0
 18 11  2  0
 19 10  1  0
 20 19  1  0
 21 22  2  0
 22 41  1  0
 23 22  1  0
 23 26  1  0
 24 25  1  0
 24 21  1  0
 25 23  2  0
 26 27  1  0
 27 28  2  0
 29 32  1  0
 29 28  1  0
 30 29  2  0
 31 30  1  0
 31 26  2  0
 32 33  1  0
 33 38  2  0
 33 34  1  0
 34 35  2  0
 35 36  1  0
 36 40  1  0
 37 36  2  0
 38 37  1  0
 39 38  1  0
 41 42  1  0
 42 45  1  0
 42 44  1  0
 43 41  2  0
 46 21  1  0
 46 47  1  0
 48 46  1  0
 49  9  1  0
 49 51  2  0
 50 49  1  0
 52 50  1  0
 53 50  1  0
 53 54  1  0
 55 54  1  0
 56 67  2  0
 57 55  1  0
 57 62  1  0
 58 66  1  0
 58 68  1  0
 59 65  1  0
 59 61  1  0
 60 66  1  0
 61 60  1  0
 62 61  2  0
 63 64  1  0
 63 57  2  0
 64 59  2  0
 65 58  1  0
 66 56  1  0
 68 70  2  0
 69 68  1  0
 71 69  1  0
 72 81  2  0
 72 77  1  0
 73 69  1  0
 73 77  1  0
 74 73  1  0
 75 76  1  0
 75 74  1  0
 76 72  1  0
 77 78  2  0
 78 79  1  0
 80 79  2  0
 81 80  1  0
 82 56  1  0
 82 87  1  0
 82 83  1  0
 83 86  1  1
 83 84  1  0
 85 83  1  0
 87 90  1  0
 88 92  1  0
 88 87  1  0
 89 88  2  0
 92 91  1  0
 94 92  1  0
 94 95  1  0
 94 93  1  0
M  ISO  4  11 100  19 100  54 101  55 101
M  END
>  <TORSDO>  (70) 
F 19

>  <SCORE>  (70) 
-11.760

>  <name>  (70) 
72

>  <ligand_id>  (70) 
72

>  <original_smiles>  (70) 
[H]c1c([H])c([H])c2c(c1[H])C([H])([H])C([H])([H])C([H])([H])C2([H])N([H])C(=O)C1([H])N(C(=O)C([H])(N([H])C(=O)C([H])(N([H])C([H])([H])[H])C([H])([H])[H])C(C([H])([H])[H])(C([H])([H])[H])C([H])([H])[H])C([H])([H])c2c([H])c(OC([H])([H])C([H])([H])N([H])C(=O)c3c([H])c([H])c4c([H])c([H])c(N([H])C(=O)N5C([H])([H])C([H])([H])C([H])([H])C([H])(n6nc(-c7c([H])c([H])c(Oc8c([H])c([H])c(F)c([H])c8F)c([H])c7[H])c(C(=O)N([H])[H])c6N([H])[H])C5([H])[H])c([H])c4c3[H])c([H])c([H])c2C1([H])[H]

>  <smiles>  (70) 
[H]c1c([H])c([H])c2c(c1[H])C([H])([H])C([H])([H])C([H])([H])C2([H])N([H])C(=O)C1([H])N(C(=O)C([H])(N([H])C(=O)C([H])(N([H])C([H])([H])[H])C([H])([H])[H])C(C([H])([H])[H])(C([H])([H])[H])C([H])([H])[H])C([H])([H])c2c([H])c(OC([H])([H])C([H])([H])N([H])C(=O)c3c([H])c([H])c4c([H])c([H])c(N([H])C(=O)N5C([H])([H])C([H])([H])C([H])([H])C([H])(n6nc(-c7c([H])c([H])c(Oc8c([H])c([H])c(F)c([H])c8F)c([H])c7[H])c(C(=O)N([H])[H])c6N([H])[H])C5([H])[H])c([H])c4c3[H])c([H])c([H])c2C1([H])[H]

$$$$
73:0:0
     RDKit          3D

105113  0  0  1  0  0  0  0  0999 V2000
  -22.0290  -12.3030   22.8870 C   0  0  0  0  0  2  0  0  0  0  0  0
  -22.8150  -10.0440   22.0940 C   0  0  0  0  0  0  0  0  0  0  0  0
  -22.9530  -11.1260   22.9210 N   0  0  0  0  0  0  0  0  0  0  0  0
  -21.6780   -9.6140   21.9250 O   0  0  0  0  0  0  0  0  0  0  0  0
  -23.6160  -11.0620   23.6980 H   0  0  0  0  0  0  0  0  0  0  0  0
  -23.9370   -9.7110   20.9760 C   0  0  0  0  0  3  0  0  0  0  0  0
  -27.2680   -7.2350   21.2300 C   0  0  0  0  0  0  0  0  0  0  0  0
  -26.2980   -7.9650   20.5330 N   0  0  0  0  0  2  0  0  0  0  0  0
  -27.0090   -6.1660   21.7980 O   0  0  0  0  0  0  0  0  0  0  0  0
  -26.8220   -8.4730   19.8320 H   0  0  0  0  0  0  0  0  0  0  0  0
  -28.7020   -7.8370   21.3640 C   0  0  0  0  0  2  0  0  0  0  0  0
  -29.1020   -8.2980   22.8310 C   0  0  0  0  0  2  0  0  0  0  0  0
  -30.6360   -8.5010   23.1930 C   0  0  0  0  0  3  0  0  0  0  0  0
  -31.0960   -9.6600   24.1880 C   0  0  0  0  0  3  0  0  0  0  0  0
  -32.6680   -9.9920   24.2180 C   0  0  0  0  0  2  0  0  0  0  0  0
  -33.5910  -11.2910   22.1660 C   0  0  0  0  0  0  0  0  0  0  0  0
  -33.0610   -9.3460   20.8920 C   0  0  0  0  0  2  0  0  0  0  0  0
  -32.5080   -9.2620   19.4780 C   0  0  0  0  0  2  0  0  0  0  0  0
  -30.9930   -9.5210   19.5260 C   0  0  0  0  0  2  0  0  0  0  0  0
  -30.7030  -10.9360   20.0660 C   0  0  0  0  0  3  0  0  0  0  0  0
  -31.3010  -11.1470   21.4360 C   0  0  0  0  0  2  0  0  0  0  0  0
  -32.6840  -10.6480   21.4660 N   0  0  0  0  0  0  0  0  0  0  0  0
  -34.6580  -11.6960   21.6680 O   0  0  0  0  0  0  0  0  0  0  0  0
  -33.2800  -11.1910   23.5020 N   0  0  0  0  0  0  0  0  0  0  0  0
  -33.9060  -11.6950   24.1130 H   0  0  0  0  0  0  0  0  0  0  0  0
  -28.5870  -12.3410   19.7370 C   0  0  0  0  0  0  0  0  0  0  0  0
  -27.2720  -12.0450   19.8910 C   0  0  0  0  0  0  0  0  0  0  0  0
  -27.3000  -10.7520   20.4550 C   0  0  0  0  0  0  0  0  0  0  0  0
  -29.2840  -11.2110   20.1270 N   0  0  0  0  0  0  0  0  0  0  0  0
  -28.4900  -10.2600   20.6320 N   0  0  0  0  0  0  0  0  0  0  0  0
  -26.2670   -9.8980   20.7550 C   0  0  0  0  0  0  0  0  0  0  0  0
  -26.0400   -9.2800   22.3960 C   0  0  0  0  0  3  0  0  0  0  0  0
  -24.6720   -8.1970   22.7170 C   0  0  0  0  0  3  0  0  0  0  0  0
  -23.5500   -7.7920   21.3970 C   0  0  0  0  0  0  0  0  0  0  0  0
  -23.8020   -8.4300   19.7910 C   0  0  0  0  0  0  0  0  0  0  0  0
  -25.1420   -9.4930   19.4670 C   0  0  0  0  0  0  0  0  0  0  0  0
  -22.4250   -7.0990   21.5410 O   0  0  0  0  0  0  0  0  0  0  0  0
  -22.2630   -6.4520   22.7070 C   0  0  0  0  0  0  0  0  0  0  0  0
  -21.6220   -7.0340   23.8150 C   0  0  0  0  0  3  0  0  0  0  0  0
  -21.3740   -6.2780   24.9570 C   0  0  0  0  0  3  0  0  0  0  0  0
  -21.7760   -4.9330   24.9860 C   0  0  0  0  0  0  0  0  0  0  0  0
  -22.4530   -4.3580   23.8910 C   0  0  0  0  0  3  0  0  0  0  0  0
  -22.7040   -5.1320   22.7480 C   0  0  0  0  0  0  0  0  0  0  0  0
  -23.3380   -4.6050   21.6760 F   0  0  0  0  0  0  0  0  0  0  0  0
  -21.4940   -4.1810   26.0670 F   0  0  0  0  0  0  0  0  0  0  0  0
  -26.0960  -12.8340   19.3620 C   0  0  0  0  0  0  0  0  0  0  0  0
  -24.8680  -12.5360   19.7230 N   0  0  0  0  0  0  0  0  0  0  0  0
  -26.2420  -13.8060   18.6420 O   0  0  0  0  0  0  0  0  0  0  0  0
  -24.7240  -11.9710   20.5430 H   0  0  0  0  0  0  0  0  0  0  0  0
  -24.0700  -12.9700   19.2900 H   0  0  0  0  0  0  0  0  0  0  0  0
  -29.2700  -13.4450   19.2480 N   0  0  0  0  0  0  0  0  0  0  0  0
  -28.8540  -14.2960   18.8880 H   0  0  0  0  0  0  0  0  0  0  0  0
  -30.2760  -13.4230   19.1350 H   0  0  0  0  0  0  0  0  0  0  0  0
  -22.6750  -13.7140   22.5640 C   0  0  0  0  0  2  0  0  0  0  0  0
  -24.0570  -13.8820   21.8140 C   0  0  0  0  0  2  0  0  0  0  0  0
  -24.2670  -15.2610   21.0530 C   0  0  0  0  0  3  0  0  0  0  0  0
  -25.7250  -15.6880   20.6240 C   0  0  0  0  0  3  0  0  0  0  0  0
  -25.8570  -17.1220   19.9400 C   0  0  0  0  0  3  0  0  0  0  0  0
  -27.2760  -17.5600   19.3830 C   0  0  0  0  0  3  0  0  0  0  0  0
  -27.5170  -19.0760   18.9360 C   0  0  0  0  0  3  0  0  0  0  0  0
  -28.8660  -19.4120   18.1560 C   0  0  0  0  0  3  0  0  0  0  0  0
  -29.3640  -20.9230   18.0040 C   0  0  0  0  0  2  0  0  0  0  0  0
  -30.4750  -21.2480   16.8960 C   0  0  0  0  0  2  0  0  0  0  0  0
  -31.5600  -22.4000   17.1510 C   0  0  0  0  0  2  0  0  0  0  0  0
  -31.9040  -23.3990   16.0950 O   0  0  0  0  0  0  0  0  0  0  0  0
  -34.0040  -28.8190   20.1180 C   0  0  0  0  0  0  0  0  0  0  0  0
  -31.5810  -24.6800   16.5010 C   0  0  0  0  0  0  0  0  0  0  0  0
  -31.5710  -28.4620   19.8900 C   0  0  0  0  0  3  0  0  0  0  0  0
  -30.8340  -26.9850   17.9480 C   0  0  0  0  0  0  0  0  0  0  0  0
  -33.1540  -27.9060   17.9500 C   0  0  0  0  0  2  0  0  0  0  0  0
  -32.1600  -26.8380   17.5150 C   0  0  0  0  0  0  0  0  0  0  0  0
  -32.5440  -25.6920   16.7670 C   0  0  0  0  0  3  0  0  0  0  0  0
  -30.2450  -24.8840   16.8760 C   0  0  0  0  0  3  0  0  0  0  0  0
  -29.8720  -26.0190   17.6130 C   0  0  0  0  0  3  0  0  0  0  0  0
  -30.5040  -28.1900   18.8010 C   0  0  0  0  0  2  0  0  0  0  0  0
  -32.9660  -28.3850   19.3470 N   0  0  0  0  0  0  0  0  0  0  0  0
  -33.8120  -29.3000   21.2460 O   0  0  0  0  0  0  0  0  0  0  0  0
  -31.3310  -27.5150   21.0880 C   0  0  0  0  0  0  0  0  0  0  0  0
  -30.4260  -27.9140   21.9980 N   0  0  0  0  0  0  0  0  0  0  0  0
  -31.9300  -26.4380   21.1700 O   0  0  0  0  0  0  0  0  0  0  0  0
  -29.9750  -28.8070   21.8560 H   0  0  0  0  0  0  0  0  0  0  0  0
  -28.4450  -28.0950   25.0120 C   0  0  0  0  0  0  0  0  0  0  0  0
  -30.0180  -27.1650   23.1870 C   0  0  0  0  0  3  0  0  0  0  0  0
  -28.8820  -26.1740   22.8530 C   0  0  0  0  0  2  0  0  0  0  0  0
  -27.4860  -26.7540   23.0840 C   0  0  0  0  0  2  0  0  0  0  0  0
  -27.3220  -27.1790   24.5470 C   0  0  0  0  0  2  0  0  0  0  0  0
  -29.7060  -28.0990   24.3590 C   0  0  0  0  0  0  0  0  0  0  0  0
  -30.7080  -28.9880   24.8030 C   0  0  0  0  0  3  0  0  0  0  0  0
  -30.4700  -29.8650   25.8750 C   0  0  0  0  0  3  0  0  0  0  0  0
  -29.2250  -29.8500   26.5290 C   0  0  0  0  0  3  0  0  0  0  0  0
  -28.2190  -28.9620   26.1020 C   0  0  0  0  0  3  0  0  0  0  0  0
  -35.4770  -28.7460   19.6170 C   0  0  0  0  0  3  0  0  0  0  0  0
  -36.1120  -30.0340   19.9350 N   0  0  0  0  0  0  0  0  0  0  0  0
  -36.2060  -31.0660   19.0880 C   0  0  0  0  0  0  0  0  0  0  0  0
  -35.8200  -31.0100   17.9160 O   0  0  0  0  0  0  0  0  0  0  0  0
  -36.3930  -30.1810   20.8950 H   0  0  0  0  0  0  0  0  0  0  0  0
  -35.7010  -33.3680   19.9710 C   0  0  0  0  0  1  0  0  0  0  0  0
  -36.8210  -32.3740   19.6260 C   0  0  0  0  0  3  0  0  0  0  0  0
  -39.0280  -32.2600   18.5570 C   0  0  0  0  0  1  0  0  0  0  0  0
  -37.7760  -33.0030   18.6870 N   0  0  0  0  0  0  0  0  0  0  0  0
  -37.9970  -33.9520   18.9760 H   0  0  0  0  0  0  0  0  0  0  0  0
  -36.2950  -27.5490   20.2440 C   0  0  1  0  0  0  0  0  0  0  0  0
  -36.2520  -27.5160   21.7890 C   0  0  0  0  0  1  0  0  0  0  0  0
  -35.7590  -26.1930   19.7320 C   0  0  0  0  0  1  0  0  0  0  0  0
  -37.7730  -27.6350   19.8010 C   0  0  0  0  0  1  0  0  0  0  0  0
  1  3  1  0
  2  3  1  0
  3  5  1  0
  4  2  2  0
  6  2  1  0
  7 11  1  0
  7  9  2  0
  8  7  1  0
 10  8  1  0
 11 12  1  0
 12 13  1  0
 13 14  2  0
 14 15  1  0
 16 24  1  0
 17 22  1  0
 18 19  1  0
 18 17  1  0
 20 19  1  0
 20 29  1  0
 20 21  1  0
 21 22  1  0
 22 16  1  0
 23 16  2  0
 24 25  1  0
 24 15  1  0
 26 27  2  0
 26 29  1  0
 27 28  1  0
 28 30  2  0
 28 31  1  0
 29 30  1  0
 31 32  1  0
 32 33  2  0
 34 37  1  0
 34 33  1  0
 35  6  1  0
 35 34  2  3
 36 35  1  0
 36 31  2  3
 36  6  1  0
 37 38  1  0
 38 43  2  0
 38 39  1  0
 39 40  2  0
 40 41  1  0
 41 45  1  0
 42 41  2  0
 43 42  1  0
 44 43  1  0
 46 47  1  0
 46 27  1  0
 47 49  1  0
 48 46  2  0
 50 47  1  0
 51 26  1  0
 52 51  1  0
 53 51  1  0
 54  1  1  0
 55 54  1  0
 56 55  1  0
 57 56  2  0
 58 57  1  0
 59 58  2  0
 60 59  1  0
 61 60  2  0
 62 61  1  0
 63 64  1  0
 63 62  1  0
 65 67  1  0
 65 64  1  0
 66 77  2  0
 67 72  2  0
 67 73  1  0
 68 78  1  0
 69 75  1  0
 70 76  1  0
 71 69  2  0
 71 70  1  0
 72 71  1  0
 73 74  2  0
 74 69  1  0
 75 68  1  0
 76 68  1  0
 76 66  1  0
 78 80  2  0
 78 79  1  0
 81 79  1  0
 82 91  1  0
 83 79  1  0
 83 87  1  0
 84 85  1  0
 84 83  1  0
 85 86  1  0
 86 82  1  0
 87 88  1  0
 87 82  2  0
 88 89  2  0
 89 90  1  0
 91 90  2  0
 92 93  1  0
 92 66  1  0
 92102  1  0
 93 96  1  0
 94 98  1  0
 94 93  1  0
 95 94  2  0
 98 97  1  0
 99100  1  0
100101  1  0
100 98  1  0
102103  1  1
104102  1  0
105102  1  0
M  ISO  4  16 100  24 100  64 101  65 101
M  END
>  <TORSDO>  (71) 
F 35

>  <SCORE>  (71) 
0.696

>  <name>  (71) 
73

>  <ligand_id>  (71) 
73

>  <original_smiles>  (71) 
[H]c1c([H])c([H])c2c(c1[H])C([H])([H])C([H])([H])C([H])([H])C2([H])N([H])C(=O)C1([H])N(C(=O)C([H])(N([H])C(=O)C([H])(N([H])C([H])([H])[H])C([H])([H])[H])C(C([H])([H])[H])(C([H])([H])[H])C([H])([H])[H])C([H])([H])c2c([H])c(OC([H])([H])C([H])([H])C([H])([H])C([H])([H])C([H])([H])C([H])([H])C([H])([H])C([H])([H])C([H])([H])C([H])([H])C([H])([H])C([H])([H])N([H])C(=O)C([H])([H])N([H])C(=O)C([H])([H])C([H])([H])C([H])([H])C([H])([H])C([H])([H])N([H])C(=O)N3C([H])([H])C([H])([H])C([H])([H])C([H])(n4nc(-c5c([H])c([H])c(Oc6c([H])c([H])c(F)c([H])c6F)c([H])c5[H])c(C(=O)N([H])[H])c4N([H])[H])C3([H])[H])c([H])c([H])c2C1([H])[H]

>  <smiles>  (71) 
[H]c1c([H])c([H])c2c(c1[H])C([H])([H])C([H])([H])C([H])([H])C2([H])N([H])C(=O)C1([H])N(C(=O)C([H])(N([H])C(=O)C([H])(N([H])C([H])([H])[H])C([H])([H])[H])C(C([H])([H])[H])(C([H])([H])[H])C([H])([H])[H])C([H])([H])c2c([H])c(OC([H])([H])C([H])([H])C([H])([H])C([H])([H])C([H])([H])C([H])([H])C([H])([H])C([H])([H])C([H])([H])C([H])([H])C([H])([H])C([H])([H])N([H])C(=O)C([H])([H])N([H])C(=O)C([H])([H])C([H])([H])C([H])([H])C([H])([H])C([H])([H])N([H])C(=O)N3C([H])([H])C([H])([H])C([H])([H])C([H])(n4nc(-c5c([H])c([H])c(Oc6c([H])c([H])c(F)c([H])c6F)c([H])c5[H])c(C(=O)N([H])[H])c4N([H])[H])C3([H])[H])c([H])c([H])c2C1([H])[H]

$$$$
74:0:0
     RDKit          3D

109118  0  0  1  0  0  0  0  0999 V2000
  -29.8520  -22.1450   20.9690 C   0  0  0  0  0  0  0  0  0  0  0  0
  -29.5640  -22.8980   19.7960 C   0  0  0  0  0  0  0  0  0  0  0  0
  -29.4360  -24.2170   20.1540 C   0  0  0  0  0  0  0  0  0  0  0  0
  -29.7440  -22.9870   22.0500 C   0  0  0  0  0  0  0  0  0  0  0  0
  -29.8810  -22.7440   23.5360 C   0  0  0  0  0  2  0  0  0  0  0  0
  -29.2900  -23.8660   24.3910 C   0  0  0  0  0  2  0  0  0  0  0  0
  -29.7470  -25.2360   23.8710 C   0  0  0  0  0  2  0  0  0  0  0  0
  -29.3560  -25.4630   22.3980 C   0  0  0  0  0  2  0  0  0  0  0  0
  -29.5140  -24.2740   21.5540 N   0  0  0  0  0  0  0  0  0  0  0  0
  -29.2450  -25.4080   19.2630 C   0  0  0  0  0  0  0  0  0  0  0  0
  -28.4780  -25.1350   18.2020 N   0  0  0  0  0  0  0  0  0  0  0  0
  -29.7710  -26.5060   19.4560 O   0  0  0  0  0  0  0  0  0  0  0  0
  -28.0980  -24.1890   18.2180 H   0  0  0  0  0  0  0  0  0  0  0  0
  -28.0500  -25.9670   17.0900 C   0  0  0  0  0  2  0  0  0  0  0  0
  -26.6110  -25.5720   16.6920 C   0  0  0  0  0  2  0  0  0  0  0  0
  -25.8930  -26.6780   16.1200 O   0  0  0  0  0  0  0  0  0  0  0  0
  -25.3780  -29.7000   22.5340 C   0  0  0  0  0  0  0  0  0  0  0  0
  -25.1140  -27.4430   16.9680 C   0  0  0  0  0  0  0  0  0  0  0  0
  -23.3060  -29.7090   21.1810 C   0  0  0  0  0  3  0  0  0  0  0  0
  -23.5810  -29.0380   18.7360 C   0  0  0  0  0  0  0  0  0  0  0  0
  -25.6020  -29.6860   20.0550 C   0  0  0  0  0  2  0  0  0  0  0  0
  -24.9650  -28.9310   18.9100 C   0  0  0  0  0  0  0  0  0  0  0  0
  -25.7330  -28.1360   18.0300 C   0  0  0  0  0  3  0  0  0  0  0  0
  -23.7190  -27.5900   16.7860 C   0  0  0  0  0  3  0  0  0  0  0  0
  -22.9500  -28.3650   17.6750 C   0  0  0  0  0  3  0  0  0  0  0  0
  -22.8340  -29.9140   19.7180 C   0  0  0  0  0  2  0  0  0  0  0  0
  -24.7990  -29.6760   21.3000 N   0  0  0  0  0  0  0  0  0  0  0  0
  -24.6930  -29.7890   23.5620 O   0  0  0  0  0  0  0  0  0  0  0  0
  -22.6250  -28.4460   21.7510 C   0  0  0  0  0  0  0  0  0  0  0  0
  -21.2830  -28.4600   21.7910 N   0  0  0  0  0  0  0  0  0  0  0  0
  -23.2930  -27.4740   22.1160 O   0  0  0  0  0  0  0  0  0  0  0  0
  -20.8140  -29.2960   21.4740 H   0  0  0  0  0  0  0  0  0  0  0  0
  -17.8560  -27.3230   21.9360 C   0  0  0  0  0  0  0  0  0  0  0  0
  -20.4200  -27.3720   22.2500 C   0  0  0  0  0  3  0  0  0  0  0  0
  -20.4620  -26.1820   21.2660 C   0  0  0  0  0  2  0  0  0  0  0  0
  -19.3510  -26.2270   20.2120 C   0  0  0  0  0  2  0  0  0  0  0  0
  -17.9730  -26.2330   20.8840 C   0  0  0  0  0  2  0  0  0  0  0  0
  -19.0050  -27.8680   22.5650 C   0  0  0  0  0  0  0  0  0  0  0  0
  -18.8450  -28.9020   23.5130 C   0  0  0  0  0  3  0  0  0  0  0  0
  -17.5640  -29.3890   23.8360 C   0  0  0  0  0  3  0  0  0  0  0  0
  -16.4280  -28.8370   23.2230 C   0  0  0  0  0  3  0  0  0  0  0  0
  -16.5730  -27.8020   22.2800 C   0  0  0  0  0  3  0  0  0  0  0  0
  -26.9260  -29.6380   22.7130 C   0  0  0  0  0  3  0  0  0  0  0  0
  -27.2740  -30.4960   23.8540 N   0  0  0  0  0  0  0  0  0  0  0  0
  -27.9870  -31.6260   23.7660 C   0  0  0  0  0  0  0  0  0  0  0  0
  -28.4880  -32.0210   22.7090 O   0  0  0  0  0  0  0  0  0  0  0  0
  -26.8480  -30.2610   24.7370 H   0  0  0  0  0  0  0  0  0  0  0  0
  -27.2850  -33.7080   24.9900 C   0  0  0  0  0  1  0  0  0  0  0  0
  -28.1690  -32.4520   25.0510 C   0  0  0  0  0  3  0  0  0  0  0  0
  -30.4340  -31.7160   25.6510 C   0  0  0  0  0  1  0  0  0  0  0  0
  -29.5730  -32.8420   25.3040 N   0  0  0  0  0  0  0  0  0  0  0  0
  -29.6300  -33.5310   26.0510 H   0  0  0  0  0  0  0  0  0  0  0  0
  -27.4710  -28.1720   22.9300 C   0  0  1  0  0  0  0  0  0  0  0  0
  -26.7200  -27.3870   24.0320 C   0  0  0  0  0  1  0  0  0  0  0  0
  -27.3720  -27.3550   21.6200 C   0  0  0  0  0  1  0  0  0  0  0  0
  -28.9690  -28.2220   23.3100 C   0  0  0  0  0  1  0  0  0  0  0  0
  -30.2610  -20.7200   21.0350 C   0  0  0  0  0  0  0  0  0  0  0  0
  -31.4810  -20.4410   20.5670 N   0  0  0  0  0  0  0  0  0  0  0  0
  -29.4380  -19.8330   21.2580 O   0  0  0  0  0  0  0  0  0  0  0  0
  -32.1570  -21.1880   20.6090 H   0  0  0  0  0  0  0  0  0  0  0  0
  -31.8260  -19.2250   19.8270 C   0  0  0  0  0  2  0  0  0  0  0  0
  -31.5860  -19.3790   18.2990 C   0  0  0  0  0  2  0  0  0  0  0  0
  -32.7170  -18.9310   17.3370 C   0  0  0  0  0  2  0  0  0  0  0  0
  -34.0660  -18.9310   17.9580 N   0  0  0  0  0  4  0  0  0  0  0  0
  -33.9820  -18.4000   18.8090 H   0  0  0  0  0  0  0  0  0  0  0  0
  -34.3360  -19.8780   18.1800 H   0  0  0  0  0  0  0  0  0  0  0  0
  -35.1750  -18.3030   17.2080 C   0  0  0  0  0  2  0  0  0  0  0  0
  -36.0970  -17.5550   18.2040 C   0  0  0  0  0  2  0  0  0  0  0  0
  -37.0190  -16.4680   17.6030 C   0  0  0  0  0  2  0  0  0  0  0  0
  -36.6540  -14.0340   17.1140 C   0  0  0  0  0  0  0  0  0  0  0  0
  -35.2260  -12.4730   15.8790 C   0  0  0  0  0  2  0  0  0  0  0  0
  -34.2100  -13.3150   15.0710 C   0  0  0  0  0  2  0  0  0  0  0  0
  -32.9720  -13.6890   15.9120 C   0  0  0  0  0  2  0  0  0  0  0  0
  -33.3530  -14.2630   17.3020 C   0  0  0  0  0  3  0  0  0  0  0  0
  -34.3980  -13.3550   17.9900 C   0  0  0  0  0  2  0  0  0  0  0  0
  -35.5640  -13.2280   17.0930 N   0  0  0  0  0  0  0  0  0  0  0  0
  -37.6210  -13.9160   16.3540 O   0  0  0  0  0  0  0  0  0  0  0  0
  -36.4700  -15.1330   17.8590 N   0  0  0  0  0  0  0  0  0  0  0  0
  -35.6720  -15.0730   18.4660 H   0  0  0  0  0  0  0  0  0  0  0  0
  -31.7720  -15.6150   18.8180 C   0  0  0  0  0  0  0  0  0  0  0  0
  -30.5690  -15.3040   19.3940 C   0  0  0  0  0  0  0  0  0  0  0  0
  -30.2880  -13.9580   19.0080 C   0  0  0  0  0  0  0  0  0  0  0  0
  -32.1750  -14.4750   18.1400 N   0  0  0  0  0  0  0  0  0  0  0  0
  -31.2930  -13.4580   18.3000 N   0  0  0  0  0  0  0  0  0  0  0  0
  -29.0950  -13.1320   19.2280 C   0  0  0  0  0  0  0  0  0  0  0  0
  -29.1710  -11.9010   19.9130 C   0  0  0  0  0  3  0  0  0  0  0  0
  -28.0090  -11.1260   20.1160 C   0  0  0  0  0  3  0  0  0  0  0  0
  -26.7580  -11.5810   19.6370 C   0  0  0  0  0  0  0  0  0  0  0  0
  -26.6950  -12.7980   18.9380 C   0  0  0  0  0  3  0  0  0  0  0  0
  -27.8530  -13.5640   18.7290 C   0  0  0  0  0  3  0  0  0  0  0  0
  -25.5830  -10.8870   19.7760 O   0  0  0  0  0  0  0  0  0  0  0  0
  -25.3120  -10.1440   20.8970 C   0  0  0  0  0  0  0  0  0  0  0  0
  -25.2270  -10.7380   22.1750 C   0  0  0  0  0  3  0  0  0  0  0  0
  -24.8720   -9.9550   23.2900 C   0  0  0  0  0  3  0  0  0  0  0  0
  -24.5990   -8.5830   23.1270 C   0  0  0  0  0  0  0  0  0  0  0  0
  -24.6770   -7.9910   21.8550 C   0  0  0  0  0  3  0  0  0  0  0  0
  -25.0300   -8.7720   20.7390 C   0  0  0  0  0  0  0  0  0  0  0  0
  -25.0800   -8.2040   19.5100 F   0  0  0  0  0  0  0  0  0  0  0  0
  -24.2550   -7.8310   24.1980 F   0  0  0  0  0  0  0  0  0  0  0  0
  -29.6820  -16.2340   20.1670 C   0  0  0  0  0  0  0  0  0  0  0  0
  -28.9180  -15.7060   21.1200 N   0  0  0  0  0  0  0  0  0  0  0  0
  -29.6960  -17.4460   19.9540 O   0  0  0  0  0  0  0  0  0  0  0  0
  -28.9270  -14.7150   21.3070 H   0  0  0  0  0  0  0  0  0  0  0  0
  -28.3180  -16.3040   21.6710 H   0  0  0  0  0  0  0  0  0  0  0  0
  -32.5250  -16.7820   18.7740 N   0  0  0  0  0  0  0  0  0  0  0  0
  -31.8980  -17.5450   18.9950 H   0  0  0  0  0  0  0  0  0  0  0  0
  -32.8750  -16.8820   17.8310 H   0  0  0  0  0  0  0  0  0  0  0  0
  -29.5070  -22.3920   18.5230 O   0  0  0  0  0  0  0  0  0  0  0  0
  -29.5470  -21.4370   18.5110 H   0  0  0  0  0  0  0  0  0  0  0  0
  1 57  1  0
  1  4  2  0
  2  3  2  0
  2  1  1  0
  3  9  1  0
  4  5  1  0
  5  6  1  0
  7  6  1  0
  8  7  1  0
  9  4  1  0
  9  8  1  0
 10 12  2  0
 10  3  1  0
 11 13  1  0
 11 10  1  0
 14 11  1  0
 15 14  1  0
 16 15  1  0
 16 18  1  0
 17 28  2  0
 18 23  1  0
 19 27  1  0
 19 29  1  0
 20 22  1  0
 20 26  1  0
 21 27  1  0
 22 21  1  0
 23 22  2  0
 24 18  2  0
 24 25  1  0
 25 20  2  0
 26 19  1  0
 27 17  1  0
 29 30  1  0
 29 31  2  0
 32 30  1  0
 33 42  2  0
 33 38  1  0
 34 30  1  0
 34 38  1  0
 35 34  1  0
 36 37  1  0
 36 35  1  0
 37 33  1  0
 38 39  2  0
 39 40  1  0
 41 40  2  0
 42 41  1  0
 43 17  1  0
 43 53  1  0
 43 44  1  0
 44 47  1  0
 45 44  1  0
 45 49  1  0
 46 45  2  0
 49 48  1  0
 49 51  1  0
 51 50  1  0
 51 52  1  0
 53 56  1  1
 53 54  1  0
 55 53  1  0
 57 59  2  0
 58 60  1  0
 58 57  1  0
 61 58  1  0
 62 61  1  0
 63 64  1  0
 63 62  1  0
 64 66  1  0
 64 65  1  0
 67 64  1  0
 67 68  1  0
 69 78  1  0
 69 68  1  0
 70 78  1  0
 71 76  1  0
 72 71  1  0
 72 73  1  0
 74 73  1  0
 74 75  1  0
 74 83  1  0
 76 70  1  0
 76 75  1  0
 77 70  2  0
 78 79  1  0
 80 81  2  0
 81100  1  0
 82 85  1  0
 82 81  1  0
 83 84  1  0
 83 80  1  0
 84 82  2  0
 85 86  1  0
 86 87  2  0
 88 91  1  0
 88 87  1  0
 89 88  2  0
 90 89  1  0
 90 85  2  0
 91 92  1  0
 92 93  1  0
 93 94  2  0
 95 94  1  0
 95 99  1  0
 96 95  2  0
 97 92  2  0
 97 96  1  0
 98 97  1  0
100101  1  0
101103  1  0
101104  1  0
102100  2  0
105 80  1  0
105106  1  0
107105  1  0
108  2  1  0
109108  1  0
M  ISO  4  15 101  16 101  70 100  78 100
M  END
>  <TORSDO>  (72) 
F 28

>  <SCORE>  (72) 
-1.639

>  <name>  (72) 
74

>  <ligand_id>  (72) 
74

>  <original_smiles>  (72) 
[H]Oc1c(C(=O)N([H])C([H])([H])C([H])([H])C([H])([H])[N+]([H])([H])C([H])([H])C([H])([H])C([H])([H])N([H])C(=O)N2C([H])([H])C([H])([H])C([H])([H])C([H])(n3nc(-c4c([H])c([H])c(Oc5c([H])c([H])c(F)c([H])c5F)c([H])c4[H])c(C(=O)N([H])[H])c3N([H])[H])C2([H])[H])c2n(c1C(=O)N([H])C([H])([H])C([H])([H])Oc1c([H])c([H])c3c(c1[H])C([H])([H])N(C(=O)C([H])(N([H])C(=O)C([H])(N([H])C([H])([H])[H])C([H])([H])[H])C(C([H])([H])[H])(C([H])([H])[H])C([H])([H])[H])C([H])(C(=O)N([H])C1([H])c4c([H])c([H])c([H])c([H])c4C([H])([H])C([H])([H])C1([H])[H])C3([H])[H])C([H])([H])C([H])([H])C([H])([H])C2([H])[H]

>  <smiles>  (72) 
[H]Oc1c(C(=O)N([H])C([H])([H])C([H])([H])C([H])([H])[N+]([H])([H])C([H])([H])C([H])([H])C([H])([H])N([H])C(=O)N2C([H])([H])C([H])([H])C([H])([H])C([H])(n3nc(-c4c([H])c([H])c(Oc5c([H])c([H])c(F)c([H])c5F)c([H])c4[H])c(C(=O)N([H])[H])c3N([H])[H])C2([H])[H])c2n(c1C(=O)N([H])C([H])([H])C([H])([H])Oc1c([H])c([H])c3c(c1[H])C([H])([H])N(C(=O)C([H])(N([H])C(=O)C([H])(N([H])C([H])([H])[H])C([H])([H])[H])C(C([H])([H])[H])(C([H])([H])[H])C([H])([H])[H])C([H])(C(=O)N([H])C1([H])c4c([H])c([H])c([H])c([H])c4C([H])([H])C([H])([H])C1([H])[H])C3([H])[H])C([H])([H])C([H])([H])C([H])([H])C2([H])[H]

$$$$
75:0:0
     RDKit          3D

 96104  0  0  1  0  0  0  0  0999 V2000
  -28.4790  -22.1490   18.4140 C   0  0  0  0  0  2  0  0  0  0  0  0
  -26.1870  -22.9910   18.0600 C   0  0  0  0  0  2  0  0  0  0  0  0
  -27.7960  -20.8940   17.8130 C   0  0  0  0  0  2  0  0  0  0  0  0
  -25.6270  -21.6870   18.6830 C   0  0  0  0  0  2  0  0  0  0  0  0
  -27.5580  -23.2910   18.5200 N   0  0  0  0  0  0  0  0  0  0  0  0
  -26.5780  -20.5430   18.5970 N   0  0  2  0  0  4  0  0  0  0  0  0
  -26.0980  -19.8410   18.0540 H   0  0  0  0  0  0  0  0  0  0  0  0
  -27.6340  -23.9840   19.8130 C   0  0  0  0  0  2  0  0  0  0  0  0
  -28.5280  -25.2420   19.6850 C   0  0  0  0  0  2  0  0  0  0  0  0
  -28.2830  -26.2340   20.6940 O   0  0  0  0  0  0  0  0  0  0  0  0
  -24.5240  -31.6530   23.3780 C   0  0  0  0  0  0  0  0  0  0  0  0
  -27.1570  -27.0210   20.5600 C   0  0  0  0  0  0  0  0  0  0  0  0
  -23.4960  -29.9920   21.8620 C   0  0  0  0  0  3  0  0  0  0  0  0
  -24.8690  -28.6510   20.3070 C   0  0  0  0  0  0  0  0  0  0  0  0
  -25.9280  -30.5500   21.6010 C   0  0  0  0  0  2  0  0  0  0  0  0
  -26.0130  -29.1540   20.9650 C   0  0  0  0  0  0  0  0  0  0  0  0
  -27.1460  -28.3230   21.1200 C   0  0  0  0  0  3  0  0  0  0  0  0
  -26.0040  -26.5730   19.8730 C   0  0  0  0  0  3  0  0  0  0  0  0
  -24.8540  -27.3630   19.7670 C   0  0  0  0  0  3  0  0  0  0  0  0
  -23.5980  -29.4740   20.4080 C   0  0  0  0  0  2  0  0  0  0  0  0
  -24.6280  -30.8510   22.2820 N   0  0  0  0  0  0  0  0  0  0  0  0
  -23.4200  -31.9520   23.8520 O   0  0  0  0  0  0  0  0  0  0  0  0
  -22.5430  -29.2710   22.8370 C   0  0  0  0  0  0  0  0  0  0  0  0
  -21.2500  -29.1670   22.5200 N   0  0  0  0  0  0  0  0  0  0  0  0
  -22.9940  -28.6950   23.8400 O   0  0  0  0  0  0  0  0  0  0  0  0
  -20.8890  -29.6590   21.7140 H   0  0  0  0  0  0  0  0  0  0  0  0
  -17.7940  -28.2150   22.9330 C   0  0  0  0  0  0  0  0  0  0  0  0
  -20.3430  -28.2860   23.2540 C   0  0  0  0  0  3  0  0  0  0  0  0
  -20.3630  -26.8490   22.6790 C   0  0  0  0  0  2  0  0  0  0  0  0
  -19.2670  -26.6130   21.6390 C   0  0  0  0  0  2  0  0  0  0  0  0
  -17.8890  -26.8550   22.2610 C   0  0  0  0  0  2  0  0  0  0  0  0
  -18.9530  -28.8940   23.3850 C   0  0  0  0  0  0  0  0  0  0  0  0
  -18.8270  -30.1710   23.9730 C   0  0  0  0  0  3  0  0  0  0  0  0
  -17.5640  -30.7700   24.1150 C   0  0  0  0  0  3  0  0  0  0  0  0
  -16.4120  -30.0840   23.6900 C   0  0  0  0  0  3  0  0  0  0  0  0
  -16.5280  -28.8090   23.1020 C   0  0  0  0  0  3  0  0  0  0  0  0
  -25.7860  -32.2690   24.0490 C   0  0  0  0  0  3  0  0  0  0  0  0
  -25.5120  -33.6860   24.3210 N   0  0  0  0  0  0  0  0  0  0  0  0
  -25.8990  -34.6950   23.5320 C   0  0  0  0  0  0  0  0  0  0  0  0
  -26.5980  -34.5350   22.5270 O   0  0  0  0  0  0  0  0  0  0  0  0
  -24.9240  -33.8850   25.1160 H   0  0  0  0  0  0  0  0  0  0  0  0
  -24.2450  -36.5190   23.0330 C   0  0  0  0  0  1  0  0  0  0  0  0
  -25.4340  -36.1100   23.9150 C   0  0  0  0  0  3  0  0  0  0  0  0
  -27.5650  -36.9670   24.7970 C   0  0  0  0  0  1  0  0  0  0  0  0
  -26.5030  -37.1240   23.8070 N   0  0  0  0  0  0  0  0  0  0  0  0
  -26.1220  -38.0610   23.8900 H   0  0  0  0  0  0  0  0  0  0  0  0
  -26.2070  -31.5200   25.3680 C   0  0  1  0  0  0  0  0  0  0  0  0
  -25.0520  -31.3220   26.3770 C   0  0  0  0  0  1  0  0  0  0  0  0
  -26.7890  -30.1280   25.0310 C   0  0  0  0  0  1  0  0  0  0  0  0
  -27.3320  -32.3020   26.0840 C   0  0  0  0  0  1  0  0  0  0  0  0
  -26.8310  -19.9040   19.9200 C   0  0  0  0  0  2  0  0  0  0  0  0
  -27.2410  -18.4240   19.7970 C   0  0  0  0  0  2  0  0  0  0  0  0
  -29.4460  -17.3050   20.0950 C   0  0  0  0  0  0  0  0  0  0  0  0
  -28.6890  -18.2890   19.6140 N   0  0  0  0  0  0  0  0  0  0  0  0
  -28.9620  -16.3360   20.6870 O   0  0  0  0  0  0  0  0  0  0  0  0
  -29.1960  -19.0420   19.1700 H   0  0  0  0  0  0  0  0  0  0  0  0
  -30.9650  -17.4590   19.9000 C   0  0  0  0  0  2  0  0  0  0  0  0
  -31.8140  -16.5230   20.7990 C   0  0  0  0  0  2  0  0  0  0  0  0
  -31.6840  -14.1620   19.9610 C   0  0  0  0  0  0  0  0  0  0  0  0
  -31.2190  -11.8590   19.2000 C   0  0  0  0  0  2  0  0  0  0  0  0
  -30.2850  -11.8450   17.9770 C   0  0  0  0  0  2  0  0  0  0  0  0
  -28.8120  -11.8560   18.4240 C   0  0  0  0  0  2  0  0  0  0  0  0
  -28.5140  -12.9750   19.4570 C   0  0  0  0  0  3  0  0  0  0  0  0
  -29.5540  -12.9610   20.5990 C   0  0  0  0  0  2  0  0  0  0  0  0
  -30.9120  -13.0410   20.0200 N   0  0  0  0  0  0  0  0  0  0  0  0
  -32.6610  -14.2800   19.2230 O   0  0  0  0  0  0  0  0  0  0  0  0
  -31.3130  -15.1440   20.7960 N   0  0  0  0  0  0  0  0  0  0  0  0
  -30.5220  -14.9490   21.3940 H   0  0  0  0  0  0  0  0  0  0  0  0
  -26.2390  -13.8850   20.2580 C   0  0  0  0  0  0  0  0  0  0  0  0
  -25.0890  -13.2520   20.6540 C   0  0  0  0  0  0  0  0  0  0  0  0
  -25.3620  -11.8520   20.5760 C   0  0  0  0  0  0  0  0  0  0  0  0
  -27.1490  -12.8760   19.9760 N   0  0  0  0  0  0  0  0  0  0  0  0
  -26.6230  -11.6470   20.2190 N   0  0  0  0  0  0  0  0  0  0  0  0
  -24.4780  -10.6930   20.7620 C   0  0  0  0  0  0  0  0  0  0  0  0
  -24.7840   -9.6720   21.6890 C   0  0  0  0  0  3  0  0  0  0  0  0
  -23.9080   -8.5800   21.8620 C   0  0  0  0  0  3  0  0  0  0  0  0
  -22.7130   -8.5000   21.1100 C   0  0  0  0  0  0  0  0  0  0  0  0
  -22.4260   -9.5080   20.1750 C   0  0  0  0  0  3  0  0  0  0  0  0
  -23.3000  -10.5920   19.9990 C   0  0  0  0  0  3  0  0  0  0  0  0
  -21.8140   -7.4620   21.1910 O   0  0  0  0  0  0  0  0  0  0  0  0
  -21.6500   -6.7430   22.3480 C   0  0  0  0  0  0  0  0  0  0  0  0
  -21.2650   -7.3590   23.5600 C   0  0  0  0  0  3  0  0  0  0  0  0
  -21.0430   -6.5730   24.7080 C   0  0  0  0  0  3  0  0  0  0  0  0
  -21.1930   -5.1750   24.6450 C   0  0  0  0  0  0  0  0  0  0  0  0
  -21.5670   -4.5600   23.4380 C   0  0  0  0  0  3  0  0  0  0  0  0
  -21.7930   -5.3420   22.2920 C   0  0  0  0  0  0  0  0  0  0  0  0
  -22.1340   -4.7430   21.1260 F   0  0  0  0  0  0  0  0  0  0  0  0
  -20.9700   -4.4190   25.7470 F   0  0  0  0  0  0  0  0  0  0  0  0
  -23.7820  -13.9050   20.9980 C   0  0  0  0  0  0  0  0  0  0  0  0
  -23.0170  -13.2970   21.8980 N   0  0  0  0  0  0  0  0  0  0  0  0
  -23.4570  -14.9840   20.5050 O   0  0  0  0  0  0  0  0  0  0  0  0
  -23.3010  -12.4250   22.3150 H   0  0  0  0  0  0  0  0  0  0  0  0
  -22.1400  -13.7120   22.1790 H   0  0  0  0  0  0  0  0  0  0  0  0
  -26.5750  -15.2240   20.0910 N   0  0  0  0  0  0  0  0  0  0  0  0
  -25.8880  -15.9600   20.1850 H   0  0  0  0  0  0  0  0  0  0  0  0
  -27.4730  -15.5440   19.7500 H   0  0  0  0  0  0  0  0  0  0  0  0
  1  5  1  0
  2  5  1  0
  2  4  1  0
  3  1  1  0
  3  6  1  0
  5  8  1  0
  6  4  1  0
  6 51  1  0
  6  7  1  6
  9  8  1  0
  9 10  1  0
 11 22  2  0
 12 10  1  0
 12 17  1  0
 13 21  1  0
 13 23  1  0
 14 20  1  0
 14 16  1  0
 15 21  1  0
 16 17  2  0
 16 15  1  0
 18 12  2  0
 19 18  1  0
 19 14  2  0
 20 13  1  0
 21 11  1  0
 23 25  2  0
 24 23  1  0
 26 24  1  0
 27 36  2  0
 27 32  1  0
 28 24  1  0
 28 32  1  0
 29 28  1  0
 30 31  1  0
 30 29  1  0
 31 27  1  0
 32 33  2  0
 33 34  1  0
 35 34  2  0
 36 35  1  0
 37 11  1  0
 37 38  1  0
 37 47  1  0
 38 41  1  0
 39 43  1  0
 39 38  1  0
 40 39  2  0
 43 42  1  0
 45 46  1  0
 45 43  1  0
 45 44  1  0
 47 50  1  1
 47 48  1  0
 49 47  1  0
 52 51  1  0
 53 55  2  0
 54 52  1  0
 54 53  1  0
 56 54  1  0
 57 53  1  0
 57 58  1  0
 59 65  1  0
 59 67  1  0
 60 65  1  0
 61 62  1  0
 61 60  1  0
 63 62  1  0
 63 72  1  0
 63 64  1  0
 65 64  1  0
 66 59  2  0
 67 58  1  0
 67 68  1  0
 69 70  2  0
 70 89  1  0
 71 70  1  0
 71 74  1  0
 72 73  1  0
 72 69  1  0
 73 71  2  0
 74 75  1  0
 75 76  2  0
 77 80  1  0
 77 76  1  0
 78 77  2  0
 79 78  1  0
 79 74  2  0
 80 81  1  0
 81 82  1  0
 82 83  2  0
 84 83  1  0
 84 88  1  0
 85 84  2  0
 86 81  2  0
 86 85  1  0
 87 86  1  0
 89 90  1  0
 90 93  1  0
 90 92  1  0
 91 89  2  0
 94 95  1  0
 94 69  1  0
 96 94  1  0
M  ISO  4   9 101  10 101  59 100  67 100
M  END
>  <TORSDO>  (73) 
F 23

>  <SCORE>  (73) 
-11.612

>  <name>  (73) 
75

>  <ligand_id>  (73) 
75

>  <original_smiles>  (73) 
[H]c1c([H])c([H])c2c(c1[H])C([H])([H])C([H])([H])C([H])([H])C2([H])N([H])C(=O)C1([H])N(C(=O)C([H])(N([H])C(=O)C([H])(N([H])C([H])([H])[H])C([H])([H])[H])C(C([H])([H])[H])(C([H])([H])[H])C([H])([H])[H])C([H])([H])c2c([H])c(OC([H])([H])C([H])([H])N3C([H])([H])C([H])([H])[N+]([H])(C([H])([H])C([H])([H])N([H])C(=O)C([H])([H])C([H])([H])N([H])C(=O)N4C([H])([H])C([H])([H])C([H])([H])C([H])(n5nc(-c6c([H])c([H])c(Oc7c([H])c([H])c(F)c([H])c7F)c([H])c6[H])c(C(=O)N([H])[H])c5N([H])[H])C4([H])[H])C([H])([H])C3([H])[H])c([H])c([H])c2C1([H])[H]

>  <smiles>  (73) 
[H]c1c([H])c([H])c2c(c1[H])C([H])([H])C([H])([H])C([H])([H])C2([H])N([H])C(=O)C1([H])N(C(=O)C([H])(N([H])C(=O)C([H])(N([H])C([H])([H])[H])C([H])([H])[H])C(C([H])([H])[H])(C([H])([H])[H])C([H])([H])[H])C([H])([H])c2c([H])c(OC([H])([H])C([H])([H])N3C([H])([H])C([H])([H])[N+]([H])(C([H])([H])C([H])([H])N([H])C(=O)C([H])([H])C([H])([H])N([H])C(=O)N4C([H])([H])C([H])([H])C([H])([H])C([H])(n5nc(-c6c([H])c([H])c(Oc7c([H])c([H])c(F)c([H])c7F)c([H])c6[H])c(C(=O)N([H])[H])c5N([H])[H])C4([H])[H])C([H])([H])C3([H])[H])c([H])c([H])c2C1([H])[H]

$$$$
76:0:0
     RDKit          3D

110117  0  0  1  0  0  0  0  0999 V2000
  -28.6070  -27.0180   15.7290 C   0  0  0  0  0  0  0  0  0  0  0  0
  -27.7020  -26.7430   16.6720 N   0  0  0  0  0  0  0  0  0  0  0  0
  -28.3680  -26.8920   14.5250 O   0  0  0  0  0  0  0  0  0  0  0  0
  -27.9700  -26.9130   17.6330 H   0  0  0  0  0  0  0  0  0  0  0  0
  -26.3420  -26.2640   16.4410 C   0  0  0  0  0  2  0  0  0  0  0  0
  -26.2870  -24.7220   16.3710 C   0  0  0  0  0  2  0  0  0  0  0  0
  -25.0600  -24.0980   17.0730 C   0  0  0  0  0  2  0  0  0  0  0  0
  -25.0430  -24.2400   18.6130 C   0  0  0  0  0  2  0  0  0  0  0  0
  -26.1880  -23.5020   19.3460 C   0  0  0  0  0  2  0  0  0  0  0  0
  -26.4440  -24.0460   20.7560 C   0  0  0  0  0  0  0  0  0  0  0  0
  -27.6690  -24.5210   21.0050 N   0  0  0  0  0  0  0  0  0  0  0  0
  -25.5300  -24.0690   21.5850 O   0  0  0  0  0  0  0  0  0  0  0  0
  -28.3530  -24.4600   20.2650 H   0  0  0  0  0  0  0  0  0  0  0  0
  -28.0770  -25.2760   22.1880 C   0  0  0  0  0  2  0  0  0  0  0  0
  -29.1150  -26.3620   21.8270 C   0  0  0  0  0  2  0  0  0  0  0  0
  -28.8590  -26.9700   20.5570 O   0  0  0  0  0  0  0  0  0  0  0  0
  -24.7680  -32.0150   23.4620 C   0  0  0  0  0  0  0  0  0  0  0  0
  -27.6890  -27.6850   20.5110 C   0  0  0  0  0  0  0  0  0  0  0  0
  -23.6850  -30.5760   21.7660 C   0  0  0  0  0  3  0  0  0  0  0  0
  -25.2510  -29.0940   20.4100 C   0  0  0  0  0  0  0  0  0  0  0  0
  -26.2030  -31.0260   21.6850 C   0  0  0  0  0  2  0  0  0  0  0  0
  -26.3640  -29.6630   21.0470 C   0  0  0  0  0  0  0  0  0  0  0  0
  -27.5900  -28.9660   21.0910 C   0  0  0  0  0  3  0  0  0  0  0  0
  -26.5710  -27.1340   19.8600 C   0  0  0  0  0  3  0  0  0  0  0  0
  -25.3510  -27.8270   19.8100 C   0  0  0  0  0  3  0  0  0  0  0  0
  -23.9780  -29.9050   20.3990 C   0  0  0  0  0  2  0  0  0  0  0  0
  -24.8990  -31.2180   22.3640 N   0  0  0  0  0  0  0  0  0  0  0  0
  -23.6530  -32.2580   23.9470 O   0  0  0  0  0  0  0  0  0  0  0  0
  -23.0240  -29.5310   22.6950 C   0  0  0  0  0  0  0  0  0  0  0  0
  -21.7190  -29.2930   22.4900 N   0  0  0  0  0  0  0  0  0  0  0  0
  -23.6810  -28.9410   23.5560 O   0  0  0  0  0  0  0  0  0  0  0  0
  -21.2510  -29.8210   21.7670 H   0  0  0  0  0  0  0  0  0  0  0  0
  -18.3740  -27.9540   22.7780 C   0  0  0  0  0  0  0  0  0  0  0  0
  -20.8930  -28.3300   23.2190 C   0  0  0  0  0  3  0  0  0  0  0  0
  -21.0980  -26.8990   22.6690 C   0  0  0  0  0  2  0  0  0  0  0  0
  -20.0810  -26.5130   21.5890 C   0  0  0  0  0  2  0  0  0  0  0  0
  -18.6550  -26.6050   22.1390 C   0  0  0  0  0  2  0  0  0  0  0  0
  -19.4250  -28.7700   23.2720 C   0  0  0  0  0  0  0  0  0  0  0  0
  -19.1120  -30.0300   23.8250 C   0  0  0  0  0  3  0  0  0  0  0  0
  -17.7770  -30.4720   23.8960 C   0  0  0  0  0  3  0  0  0  0  0  0
  -16.7390  -29.6510   23.4230 C   0  0  0  0  0  3  0  0  0  0  0  0
  -17.0380  -28.3940   22.8680 C   0  0  0  0  0  3  0  0  0  0  0  0
  -26.0030  -32.6840   24.1440 C   0  0  0  0  0  3  0  0  0  0  0  0
  -25.6550  -34.0840   24.4150 N   0  0  0  0  0  0  0  0  0  0  0  0
  -25.9950  -35.1150   23.6310 C   0  0  0  0  0  0  0  0  0  0  0  0
  -26.7100  -34.9900   22.6320 O   0  0  0  0  0  0  0  0  0  0  0  0
  -25.0210  -34.2550   25.1830 H   0  0  0  0  0  0  0  0  0  0  0  0
  -24.2350  -36.8460   23.1560 C   0  0  0  0  0  1  0  0  0  0  0  0
  -25.4620  -36.5080   24.0180 C   0  0  0  0  0  3  0  0  0  0  0  0
  -27.5500  -37.4750   24.8740 C   0  0  0  0  0  1  0  0  0  0  0  0
  -26.4730  -37.5800   23.8910 N   0  0  0  0  0  0  0  0  0  0  0  0
  -26.0440  -38.4960   23.9900 H   0  0  0  0  0  0  0  0  0  0  0  0
  -26.4580  -31.9550   25.4690 C   0  0  1  0  0  0  0  0  0  0  0  0
  -25.2990  -31.6910   26.4580 C   0  0  0  0  0  1  0  0  0  0  0  0
  -27.1180  -30.5950   25.1460 C   0  0  0  0  0  1  0  0  0  0  0  0
  -27.5310  -32.8030   26.1910 C   0  0  0  0  0  1  0  0  0  0  0  0
  -29.9860  -27.5190   16.2000 C   0  0  0  0  0  2  0  0  0  0  0  0
  -30.9940  -26.5060   16.1050 O   0  0  0  0  0  0  0  0  0  0  0  0
  -31.3890  -26.1760   14.7710 C   0  0  0  0  0  2  0  0  0  0  0  0
  -32.7170  -25.3970   14.7860 C   0  0  0  0  0  2  0  0  0  0  0  0
  -32.6190  -24.1910   15.5360 O   0  0  0  0  0  0  0  0  0  0  0  0
  -31.9550  -23.1290   14.8610 C   0  0  0  0  0  2  0  0  0  0  0  0
  -31.7540  -21.9500   15.8280 C   0  0  0  0  0  2  0  0  0  0  0  0
  -30.5720  -22.0850   16.6150 O   0  0  0  0  0  0  0  0  0  0  0  0
  -30.6100  -23.0650   17.6520 C   0  0  0  0  0  2  0  0  0  0  0  0
  -31.4050  -22.6170   18.8900 C   0  0  0  0  0  2  0  0  0  0  0  0
  -30.7090  -21.5960   19.5990 O   0  0  0  0  0  0  0  0  0  0  0  0
  -31.2830  -21.3740   20.8850 C   0  0  0  0  0  2  0  0  0  0  0  0
  -30.5910  -20.2030   21.6020 C   0  0  0  0  0  2  0  0  0  0  0  0
  -31.0560  -19.0000   21.0190 O   0  0  0  0  0  0  0  0  0  0  0  0
  -30.4560  -17.8290   21.5450 C   0  0  0  0  0  2  0  0  0  0  0  0
  -31.1530  -16.6920   20.8030 C   0  0  0  0  0  2  0  0  0  0  0  0
  -31.1560  -14.2940   20.4960 C   0  0  0  0  0  0  0  0  0  0  0  0
  -30.7350  -12.1530   19.3790 C   0  0  0  0  0  2  0  0  0  0  0  0
  -29.8360  -12.3930   18.1490 C   0  0  0  0  0  2  0  0  0  0  0  0
  -28.3500  -12.3320   18.5510 C   0  0  0  0  0  2  0  0  0  0  0  0
  -28.0250  -13.1960   19.7990 C   0  0  0  0  0  3  0  0  0  0  0  0
  -29.0520  -12.9700   20.9320 C   0  0  0  0  0  2  0  0  0  0  0  0
  -30.4010  -13.1730   20.3830 N   0  0  0  0  0  0  0  0  0  0  0  0
  -32.2800  -14.4020   19.9960 O   0  0  0  0  0  0  0  0  0  0  0  0
  -30.5690  -15.3690   21.0250 N   0  0  0  0  0  0  0  0  0  0  0  0
  -29.6340  -15.2910   21.3980 H   0  0  0  0  0  0  0  0  0  0  0  0
  -25.6380  -13.8850   20.4660 C   0  0  0  0  0  0  0  0  0  0  0  0
  -24.5390  -13.1490   20.8230 C   0  0  0  0  0  0  0  0  0  0  0  0
  -24.9550  -11.7820   20.8020 C   0  0  0  0  0  0  0  0  0  0  0  0
  -26.6570  -12.9680   20.2590 N   0  0  0  0  0  0  0  0  0  0  0  0
  -26.2470  -11.7000   20.5170 N   0  0  0  0  0  0  0  0  0  0  0  0
  -24.1830  -10.5450   20.9860 C   0  0  0  0  0  0  0  0  0  0  0  0
  -24.5580   -9.5780   21.9440 C   0  0  0  0  0  3  0  0  0  0  0  0
  -23.7910   -8.4040   22.1130 C   0  0  0  0  0  3  0  0  0  0  0  0
  -22.6380   -8.1910   21.3230 C   0  0  0  0  0  0  0  0  0  0  0  0
  -22.2830   -9.1460   20.3540 C   0  0  0  0  0  3  0  0  0  0  0  0
  -23.0480  -10.3110   20.1840 C   0  0  0  0  0  3  0  0  0  0  0  0
  -21.8460   -7.0700   21.4000 O   0  0  0  0  0  0  0  0  0  0  0  0
  -21.7220   -6.3550   22.5630 C   0  0  0  0  0  0  0  0  0  0  0  0
  -21.2430   -6.9470   23.7520 C   0  0  0  0  0  3  0  0  0  0  0  0
  -21.0640   -6.1610   24.9070 C   0  0  0  0  0  3  0  0  0  0  0  0
  -21.3520   -4.7830   24.8750 C   0  0  0  0  0  0  0  0  0  0  0  0
  -21.8220   -4.1910   23.6890 C   0  0  0  0  0  3  0  0  0  0  0  0
  -22.0020   -4.9740   22.5370 C   0  0  0  0  0  0  0  0  0  0  0  0
  -22.4360   -4.3940   21.3920 F   0  0  0  0  0  0  0  0  0  0  0  0
  -21.1720   -4.0270   25.9810 F   0  0  0  0  0  0  0  0  0  0  0  0
  -23.1560  -13.6720   21.0710 C   0  0  0  0  0  0  0  0  0  0  0  0
  -22.3960  -13.0090   21.9390 N   0  0  0  0  0  0  0  0  0  0  0  0
  -22.7550  -14.7050   20.5360 O   0  0  0  0  0  0  0  0  0  0  0  0
  -22.7340  -12.1740   22.3920 H   0  0  0  0  0  0  0  0  0  0  0  0
  -21.4660  -13.3410   22.1490 H   0  0  0  0  0  0  0  0  0  0  0  0
  -25.8560  -15.2470   20.2870 N   0  0  0  0  0  0  0  0  0  0  0  0
  -25.1200  -15.9380   20.3810 H   0  0  0  0  0  0  0  0  0  0  0  0
  -26.7310  -15.6460   19.9730 H   0  0  0  0  0  0  0  0  0  0  0  0
  1 57  1  0
  1  2  1  0
  2  4  1  0
  3  1  2  0
  5  2  1  0
  6  5  1  0
  6  7  1  0
  7  8  1  0
  8  9  1  0
  9 10  1  0
 10 11  1  0
 10 12  2  0
 11 14  1  0
 13 11  1  0
 15 14  1  0
 16 15  1  0
 17 28  2  0
 18 16  1  0
 18 23  1  0
 19 27  1  0
 19 29  1  0
 20 22  1  0
 21 27  1  0
 22 23  2  0
 22 21  1  0
 24 18  2  0
 25 24  1  0
 25 20  2  0
 26 20  1  0
 26 19  1  0
 27 17  1  0
 29 31  2  0
 30 29  1  0
 32 30  1  0
 33 42  2  0
 33 38  1  0
 34 30  1  0
 34 38  1  0
 35 34  1  0
 36 37  1  0
 36 35  1  0
 37 33  1  0
 38 39  2  0
 39 40  1  0
 41 40  2  0
 42 41  1  0
 43 17  1  0
 43 44  1  0
 43 53  1  0
 44 47  1  0
 45 49  1  0
 45 44  1  0
 46 45  2  0
 49 48  1  0
 51 52  1  0
 51 49  1  0
 51 50  1  0
 53 56  1  1
 53 54  1  0
 55 53  1  0
 58 57  1  0
 59 60  1  0
 59 58  1  0
 60 61  1  0
 62 61  1  0
 62 63  1  0
 63 64  1  0
 64 65  1  0
 65 66  1  0
 66 67  1  0
 67 68  1  0
 68 69  1  0
 70 71  1  0
 70 69  1  0
 72 81  1  0
 72 71  1  0
 73 81  1  0
 74 79  1  0
 75 76  1  0
 75 74  1  0
 77 76  1  0
 77 86  1  0
 77 78  1  0
 79 73  1  0
 79 78  1  0
 80 73  2  0
 81 82  1  0
 83 84  2  0
 84103  1  0
 85 84  1  0
 85 88  1  0
 86 83  1  0
 86 87  1  0
 87 85  2  0
 88 89  1  0
 89 90  2  0
 91 94  1  0
 91 90  1  0
 92 91  2  0
 93 92  1  0
 93 88  2  0
 94 95  1  0
 95 96  1  0
 96 97  2  0
 98 97  1  0
 98102  1  0
 99 98  2  0
100 95  2  0
100 99  1  0
101100  1  0
103104  1  0
104107  1  0
104106  1  0
105103  2  0
108109  1  0
108 83  1  0
110108  1  0
M  ISO  4  15 101  16 101  73 100  81 100
M  END
>  <TORSDO>  (74) 
F 40

>  <SCORE>  (74) 
-8.937

>  <name>  (74) 
76

>  <ligand_id>  (74) 
76

>  <original_smiles>  (74) 
[H]c1c([H])c([H])c2c(c1[H])C([H])([H])C([H])([H])C([H])([H])C2([H])N([H])C(=O)C1([H])N(C(=O)C([H])(N([H])C(=O)C([H])(N([H])C([H])([H])[H])C([H])([H])[H])C(C([H])([H])[H])(C([H])([H])[H])C([H])([H])[H])C([H])([H])c2c([H])c(OC([H])([H])C([H])([H])N([H])C(=O)C([H])([H])C([H])([H])C([H])([H])C([H])([H])C([H])([H])N([H])C(=O)C([H])([H])OC([H])([H])C([H])([H])OC([H])([H])C([H])([H])OC([H])([H])C([H])([H])OC([H])([H])C([H])([H])OC([H])([H])C([H])([H])N([H])C(=O)N3C([H])([H])C([H])([H])C([H])([H])C([H])(n4nc(-c5c([H])c([H])c(Oc6c([H])c([H])c(F)c([H])c6F)c([H])c5[H])c(C(=O)N([H])[H])c4N([H])[H])C3([H])[H])c([H])c([H])c2C1([H])[H]

>  <smiles>  (74) 
[H]c1c([H])c([H])c2c(c1[H])C([H])([H])C([H])([H])C([H])([H])C2([H])N([H])C(=O)C1([H])N(C(=O)C([H])(N([H])C(=O)C([H])(N([H])C([H])([H])[H])C([H])([H])[H])C(C([H])([H])[H])(C([H])([H])[H])C([H])([H])[H])C([H])([H])c2c([H])c(OC([H])([H])C([H])([H])N([H])C(=O)C([H])([H])C([H])([H])C([H])([H])C([H])([H])C([H])([H])N([H])C(=O)C([H])([H])OC([H])([H])C([H])([H])OC([H])([H])C([H])([H])OC([H])([H])C([H])([H])OC([H])([H])C([H])([H])OC([H])([H])C([H])([H])N([H])C(=O)N3C([H])([H])C([H])([H])C([H])([H])C([H])(n4nc(-c5c([H])c([H])c(Oc6c([H])c([H])c(F)c([H])c6F)c([H])c5[H])c(C(=O)N([H])[H])c4N([H])[H])C3([H])[H])c([H])c([H])c2C1([H])[H]

$$$$
77:0:0
     RDKit          3D

 97 99  0  0  1  0  0  0  0  0999 V2000
  -25.6870  -14.1040   19.1950 C   0  0  0  0  0  2  0  0  0  0  0  0
  -26.6780  -15.1270   18.3900 N   0  0  0  0  0  2  0  0  0  0  0  0
  -26.0940  -12.2270   21.0520 O   0  0  0  0  0 15  0  0  0  0  0  0
  -27.3290  -14.5210   17.9070 H   0  0  0  0  0  0  0  0  0  0  0  0
  -27.2840  -17.2940   20.6930 C   0  0  0  0  0  0  0  0  0  0  0  0
  -23.4180  -17.2760   19.9560 C   0  0  0  0  0  2  0  0  0  0  0  0
  -23.6900  -16.0480   19.0960 C   0  0  0  0  0  2  0  0  0  0  0  0
  -24.7560  -17.6950   20.6490 C   0  0  0  0  0  2  0  0  0  0  0  0
  -25.1370  -15.6820   19.5060 C   0  0  0  0  0  3  0  0  0  0  0  0
  -25.9440  -16.8330   20.2620 N   0  0  0  0  0  0  0  0  0  0  0  0
  -27.1520  -18.4340   21.1480 O   0  0  0  0  0  0  0  0  0  0  0  0
  -31.0160  -14.6980   19.8620 C   0  0  0  0  0  0  0  0  0  0  0  0
  -31.2330  -12.2520   19.1040 C   0  0  0  0  0  2  0  0  0  0  0  0
  -30.2310  -11.9760   17.9470 C   0  0  0  0  0  2  0  0  0  0  0  0
  -28.8180  -11.9700   18.4650 C   0  0  0  0  0  2  0  0  0  0  0  0
  -28.7340  -13.1220   19.5060 C   0  0  0  0  0  3  0  0  0  0  0  0
  -29.6090  -12.8940   20.6880 C   0  0  0  0  0  2  0  0  0  0  0  0
  -30.7500  -13.3490   20.0300 N   0  0  0  0  0  0  0  0  0  0  0  0
  -32.0610  -14.8550   19.2160 O   0  0  0  0  0  0  0  0  0  0  0  0
  -30.9970  -17.8230   21.8760 C   0  0  0  0  0  2  0  0  0  0  0  0
  -29.7140  -18.1690   21.1890 C   0  0  0  0  0  2  0  0  0  0  0  0
  -31.4570  -16.5590   21.1740 C   0  0  0  0  0  2  0  0  0  0  0  0
  -28.9970  -16.8250   20.8580 C   0  0  0  0  0  3  0  0  0  0  0  0
  -30.3180  -15.8490   20.4980 N   0  0  0  0  0  0  0  0  0  0  0  0
  -26.2970  -14.1380   21.7050 C   0  0  0  0  0  2  0  0  0  0  0  0
  -24.5110  -13.5140   21.2650 C   0  0  0  0  0  3  0  0  0  0  0  0
  -24.4760  -12.2590   19.7900 C   0  0  0  0  0  3  0  0  0  0  0  0
  -27.5860  -13.1940   20.0560 N   0  0  0  0  0  1  0  0  0  0  0  0
  -26.1980  -12.1260   18.9560 N   0  0  0  0  0  1  0  0  0  0  0  0
  -24.0180  -10.7850   20.3830 C   0  0  0  0  0  0  0  0  0  0  0  0
  -24.5840   -9.8640   21.4060 C   0  0  0  0  0  3  0  0  0  0  0  0
  -23.9600   -8.6220   21.8230 C   0  0  0  0  0  3  0  0  0  0  0  0
  -22.7240   -8.2250   21.2480 C   0  0  0  0  0  0  0  0  0  0  0  0
  -22.1760   -9.1230   20.3160 C   0  0  0  0  0  3  0  0  0  0  0  0
  -22.7880  -10.3340   19.9260 C   0  0  0  0  0  3  0  0  0  0  0  0
  -22.0240   -7.0250   21.3890 O   0  0  0  0  0  0  0  0  0  0  0  0
  -21.9030   -6.2540   22.5280 C   0  0  0  0  0  0  0  0  0  0  0  0
  -21.4760   -6.7820   23.7690 C   0  0  0  0  0  3  0  0  0  0  0  0
  -21.2730   -5.9320   24.8770 C   0  0  0  0  0  3  0  0  0  0  0  0
  -21.4870   -4.5430   24.7610 C   0  0  0  0  0  0  0  0  0  0  0  0
  -21.8700   -4.0060   23.5210 C   0  0  0  0  0  3  0  0  0  0  0  0
  -22.0640   -4.8490   22.4130 C   0  0  0  0  0  0  0  0  0  0  0  0
  -22.3930   -4.3000   21.2190 F   0  0  0  0  0  0  0  0  0  0  0  0
  -21.3200   -3.7330   25.8320 F   0  0  0  0  0  0  0  0  0  0  0  0
  -23.2260  -13.7740   21.8100 C   0  0  0  0  0  0  0  0  0  0  0  0
  -22.6890  -12.8180   22.5240 N   0  0  0  0  0  0  0  0  0  0  0  0
  -22.6050  -14.7360   21.4100 O   0  0  0  0  0  0  0  0  0  0  0  0
  -21.7710  -12.9200   22.9300 H   0  0  0  0  0  0  0  0  0  0  0  0
  -23.1700  -11.9360   22.6520 H   0  0  0  0  0  0  0  0  0  0  0  0
  -27.5160  -14.4600   21.8730 N   0  0  0  0  0  0  0  0  0  0  0  0
  -27.7490  -14.4620   22.8590 H   0  0  0  0  0  0  0  0  0  0  0  0
  -28.1970  -13.9230   21.3450 H   0  0  0  0  0  0  0  0  0  0  0  0
  -27.2760  -16.9160   18.0170 C   0  0  0  0  0 15  0  0  0  0  0  0
  -26.8830  -18.9420   18.0390 C   0  0  0  0  0 15  0  0  0  0  0  0
  -27.6180  -20.8370   18.3770 C   0  0  0  0  0 15  0  0  0  0  0  0
  -27.3100  -22.8700   18.2880 C   0  0  0  0  0  1  0  0  0  0  0  0
  -27.8580  -24.5770   18.7870 O   0  0  0  0  0  0  0  0  0  0  0  0
  -24.6260  -30.8280   22.5470 C   0  0  0  0  0  0  0  0  0  0  0  0
  -27.1210  -25.9690   18.9680 C   0  0  0  0  0  0  0  0  0  0  0  0
  -23.4950  -29.5070   20.8360 C   0  0  0  0  0  3  0  0  0  0  0  0
  -24.9520  -28.0750   19.2280 C   0  0  0  0  0  0  0  0  0  0  0  0
  -26.0790  -29.7120   20.6990 C   0  0  0  0  0  2  0  0  0  0  0  0
  -26.1570  -28.3440   19.8830 C   0  0  0  0  0  0  0  0  0  0  0  0
  -27.2480  -27.3080   19.7280 C   0  0  0  0  0  3  0  0  0  0  0  0
  -25.9190  -26.0020   18.2650 C   0  0  0  0  0  3  0  0  0  0  0  0
  -24.8830  -26.9540   18.3960 C   0  0  0  0  0  3  0  0  0  0  0  0
  -23.7360  -28.9890   19.3970 C   0  0  0  0  0  2  0  0  0  0  0  0
  -24.7650  -30.0540   21.4100 N   0  0  0  0  0  0  0  0  0  0  0  0
  -23.5210  -31.0200   23.0850 O   0  0  0  0  0  0  0  0  0  0  0  0
  -22.8690  -28.3910   21.7170 C   0  0  0  0  0  0  0  0  0  0  0  0
  -21.5460  -28.1670   21.6120 N   0  0  0  0  0  0  0  0  0  0  0  0
  -23.5820  -27.7410   22.4840 O   0  0  0  0  0  0  0  0  0  0  0  0
  -21.0140  -28.7530   20.9830 H   0  0  0  0  0  0  0  0  0  0  0  0
  -18.2500  -26.7120   22.1030 C   0  0  0  0  0  0  0  0  0  0  0  0
  -20.7970  -27.1190   22.3180 C   0  0  0  0  0  3  0  0  0  0  0  0
  -20.9640  -25.7490   21.6200 C   0  0  0  0  0  2  0  0  0  0  0  0
  -19.8530  -25.4460   20.6080 C   0  0  0  0  0  2  0  0  0  0  0  0
  -18.4860  -25.4430   21.3000 C   0  0  0  0  0  2  0  0  0  0  0  0
  -19.3340  -27.5070   22.5660 C   0  0  0  0  0  0  0  0  0  0  0  0
  -19.0570  -28.6890   23.2850 C   0  0  0  0  0  3  0  0  0  0  0  0
  -17.7290  -29.0830   23.5380 C   0  0  0  0  0  3  0  0  0  0  0  0
  -16.6620  -28.2900   23.0840 C   0  0  0  0  0  3  0  0  0  0  0  0
  -16.9230  -27.1030   22.3750 C   0  0  0  0  0  3  0  0  0  0  0  0
  -25.8420  -31.5240   23.2210 C   0  0  0  0  0  3  0  0  0  0  0  0
  -25.3960  -32.8410   23.7290 N   0  0  0  0  0  0  0  0  0  0  0  0
  -25.6140  -34.0210   23.1320 C   0  0  0  0  0  0  0  0  0  0  0  0
  -26.2690  -34.1240   22.0940 O   0  0  0  0  0  0  0  0  0  0  0  0
  -24.8050  -32.8240   24.5480 H   0  0  0  0  0  0  0  0  0  0  0  0
  -23.7320  -35.6980   23.0590 C   0  0  0  0  0  1  0  0  0  0  0  0
  -25.0210  -35.2880   23.7900 C   0  0  0  0  0  3  0  0  0  0  0  0
  -27.0850  -36.2410   24.7190 C   0  0  0  0  0  1  0  0  0  0  0  0
  -25.9530  -36.4380   23.8170 N   0  0  0  0  0  0  0  0  0  0  0  0
  -25.4690  -37.2860   24.1000 H   0  0  0  0  0  0  0  0  0  0  0  0
  -26.4480  -30.6820   24.4150 C   0  0  1  0  0  0  0  0  0  0  0  0
  -25.4040  -30.2500   25.4730 C   0  0  0  0  0  1  0  0  0  0  0  0
  -27.1420  -29.4020   23.9010 C   0  0  0  0  0  1  0  0  0  0  0  0
  -27.5370  -31.5080   25.1380 C   0  0  0  0  0  1  0  0  0  0  0  0
  2  1  1  0
  4  2  1  0
  5 11  2  0
  6  8  1  0
  7  9  1  0
  7  6  1  0
  9  1  1  0
  9 10  1  0
 10  8  1  0
 10  5  1  0
 12 18  1  0
 12 24  1  0
 13 18  1  0
 14 15  1  0
 14 13  1  0
 15 16  1  0
 16 28  1  0
 16 17  1  0
 18 17  1  0
 19 12  2  0
 21 20  1  0
 22 20  1  0
 23  5  1  0
 23 21  1  0
 24 23  1  0
 24 22  1  0
 25 50  1  0
 26 25  1  0
 26 45  1  0
 27 29  1  0
 27 30  1  0
 27 26  1  0
 30 31  1  0
 31 32  2  0
 33 36  1  0
 33 32  1  0
 34 33  2  0
 35 34  1  0
 35 30  2  0
 36 37  1  0
 37 38  1  0
 38 39  2  0
 40 39  1  0
 40 44  1  0
 41 40  2  0
 42 37  2  0
 42 41  1  0
 43 42  1  0
 45 46  1  0
 46 49  1  0
 46 48  1  0
 47 45  2  0
 50 51  1  0
 52 50  1  0
 56 57  1  0
 57 59  1  0
 58 69  2  0
 59 64  1  0
 60 68  1  0
 60 70  1  0
 61 67  1  0
 61 63  1  0
 62 68  1  0
 63 62  1  0
 64 63  2  0
 65 66  1  0
 65 59  2  0
 66 61  2  0
 67 60  1  0
 68 58  1  0
 70 72  2  0
 71 70  1  0
 73 71  1  0
 74 83  2  0
 74 79  1  0
 75 71  1  0
 75 79  1  0
 76 75  1  0
 77 78  1  0
 77 76  1  0
 78 74  1  0
 79 80  2  0
 80 81  1  0
 82 81  2  0
 83 82  1  0
 84 58  1  0
 84 85  1  0
 84 94  1  0
 85 88  1  0
 86 85  1  0
 86 90  1  0
 87 86  2  0
 90 89  1  0
 90 92  1  0
 92 93  1  0
 92 91  1  0
 94 97  1  1
 94 95  1  0
 96 94  1  0
M  ISO  4  12 100  24 100  56 101  57 101
M  END
>  <TORSDO>  (75) 
F 21

>  <SCORE>  (75) 
2.650

>  <name>  (75) 
77

>  <ligand_id>  (75) 
77

>  <original_smiles>  (75) 
[H]c1c([H])c([H])c2c(c1[H])C([H])([H])C([H])([H])C([H])([H])C2([H])N([H])C(=O)C1([H])N(C(=O)C([H])(N([H])C(=O)C([H])(N([H])C([H])([H])[H])C([H])([H])[H])C(C([H])([H])[H])(C([H])([H])[H])C([H])([H])[H])C([H])([H])c2c([H])c(OC([H])([H])C([H])([H])C([H])([H])C([H])([H])N([H])C(=O)C3([H])N(C(=O)C4([H])N(C(=O)N5C([H])([H])C([H])([H])C([H])([H])C([H])(n6nc(-c7c([H])c([H])c(Oc8c([H])c([H])c(F)c([H])c8F)c([H])c7[H])c(C(=O)N([H])[H])c6N([H])[H])C5([H])[H])C([H])([H])C([H])([H])C4([H])[H])C([H])([H])C([H])([H])C3([H])[H])c([H])c([H])c2C1([H])[H]

>  <smiles>  (75) 
[H]c1c([H])c([H])c2c(c1[H])C([H])([H])C([H])([H])C([H])([H])C2([H])N([H])C(=O)C1([H])N(C(=O)C([H])(N([H])C(=O)C([H])(N([H])C([H])([H])[H])C([H])([H])[H])C(C([H])([H])[H])(C([H])([H])[H])C([H])([H])[H])C([H])([H])c2c([H])c(OC([H])([H])C([H])([H])C([H])([H])C([H])([H])N([H])C(=O)C3([H])N(C(=O)C4([H])N(C(=O)N5C([H])([H])C([H])([H])C([H])([H])C([H])(n6nc(-c7c([H])c([H])c(Oc8c([H])c([H])c(F)c([H])c8F)c([H])c7[H])c(C(=O)N([H])[H])c6N([H])[H])C5([H])[H])C([H])([H])C([H])([H])C4([H])[H])C([H])([H])C([H])([H])C3([H])[H])c([H])c([H])c2C1([H])[H]

$$$$
78:0:0
     RDKit          3D

102109  0  0  1  0  0  0  0  0999 V2000
  -22.8280  -21.7410   17.0820 C   0  0  0  0  0  2  0  0  0  0  0  0
  -22.7110  -23.0360   17.9190 C   0  0  0  0  0  2  0  0  0  0  0  0
  -23.8660  -24.0480   17.7420 C   0  0  0  0  0  2  0  0  0  0  0  0
  -24.6390  -24.2450   18.9880 N   0  0  0  0  0  4  0  0  0  0  0  0
  -24.6620  -23.3640   19.4780 H   0  0  0  0  0  0  0  0  0  0  0  0
  -24.1540  -24.9060   19.5790 H   0  0  0  0  0  0  0  0  0  0  0  0
  -26.0350  -24.6840   18.7630 C   0  0  0  0  0  2  0  0  0  0  0  0
  -26.9320  -24.4890   19.9980 C   0  0  0  0  0  2  0  0  0  0  0  0
  -28.2430  -24.7850   19.5550 O   0  0  0  0  0  0  0  0  0  0  0  0
  -29.2340  -24.8990   20.5630 C   0  0  0  0  0  2  0  0  0  0  0  0
  -30.2470  -25.9730   20.1060 C   0  0  0  0  0  2  0  0  0  0  0  0
  -30.0790  -27.2540   20.7250 O   0  0  0  0  0  0  0  0  0  0  0  0
  -25.3900  -31.0850   24.4110 C   0  0  0  0  0  0  0  0  0  0  0  0
  -28.8590  -27.8950   20.6760 C   0  0  0  0  0  0  0  0  0  0  0  0
  -24.5780  -30.2010   22.2500 C   0  0  0  0  0  3  0  0  0  0  0  0
  -26.3610  -29.2250   20.7120 C   0  0  0  0  0  0  0  0  0  0  0  0
  -27.0630  -30.6970   22.6060 C   0  0  0  0  0  2  0  0  0  0  0  0
  -27.3610  -29.5850   21.6250 C   0  0  0  0  0  0  0  0  0  0  0  0
  -28.6060  -28.9170   21.6150 C   0  0  0  0  0  3  0  0  0  0  0  0
  -27.8570  -27.5900   19.7250 C   0  0  0  0  0  3  0  0  0  0  0  0
  -26.6020  -28.2230   19.7590 C   0  0  0  0  0  3  0  0  0  0  0  0
  -25.0530  -29.9750   20.7900 C   0  0  0  0  0  2  0  0  0  0  0  0
  -25.6840  -30.6560   23.1520 N   0  0  0  0  0  0  0  0  0  0  0  0
  -24.2180  -31.1440   24.8100 O   0  0  0  0  0  0  0  0  0  0  0  0
  -23.8790  -28.9110   22.7420 C   0  0  0  0  0  0  0  0  0  0  0  0
  -22.6290  -28.7040   22.3030 N   0  0  0  0  0  0  0  0  0  0  0  0
  -24.4680  -28.1160   23.4800 O   0  0  0  0  0  0  0  0  0  0  0  0
  -22.2100  -29.4130   21.7160 H   0  0  0  0  0  0  0  0  0  0  0  0
  -19.3780  -27.2320   21.7320 C   0  0  0  0  0  0  0  0  0  0  0  0
  -21.7920  -27.5420   22.6020 C   0  0  0  0  0  3  0  0  0  0  0  0
  -22.1600  -26.3390   21.7020 C   0  0  0  0  0  2  0  0  0  0  0  0
  -21.3130  -26.2550   20.4290 C   0  0  0  0  0  2  0  0  0  0  0  0
  -19.8280  -26.1390   20.7780 C   0  0  0  0  0  2  0  0  0  0  0  0
  -20.3020  -27.9020   22.5770 C   0  0  0  0  0  0  0  0  0  0  0  0
  -19.8350  -28.9370   23.4170 C   0  0  0  0  0  3  0  0  0  0  0  0
  -18.4760  -29.2990   23.4250 C   0  0  0  0  0  3  0  0  0  0  0  0
  -17.5630  -28.6210   22.5970 C   0  0  0  0  0  3  0  0  0  0  0  0
  -18.0140  -27.5880   21.7580 C   0  0  0  0  0  3  0  0  0  0  0  0
  -26.5050  -31.5490   25.4000 C   0  0  0  0  0  3  0  0  0  0  0  0
  -26.2830  -32.9750   25.6800 N   0  0  0  0  0  0  0  0  0  0  0  0
  -26.9700  -33.9770   25.1160 C   0  0  0  0  0  0  0  0  0  0  0  0
  -27.9170  -33.7890   24.3460 O   0  0  0  0  0  0  0  0  0  0  0  0
  -25.4880  -33.2020   26.2600 H   0  0  0  0  0  0  0  0  0  0  0  0
  -25.7280  -36.0020   24.2920 C   0  0  0  0  0  1  0  0  0  0  0  0
  -26.5380  -35.4150   25.4590 C   0  0  0  0  0  3  0  0  0  0  0  0
  -28.3350  -35.9780   27.0350 C   0  0  0  0  0  1  0  0  0  0  0  0
  -27.6740  -36.3090   25.7760 N   0  0  0  0  0  0  0  0  0  0  0  0
  -27.3680  -37.2770   25.8220 H   0  0  0  0  0  0  0  0  0  0  0  0
  -26.5340  -30.7160   26.7380 C   0  0  1  0  0  0  0  0  0  0  0  0
  -25.1570  -30.6120   27.4360 C   0  0  0  0  0  1  0  0  0  0  0  0
  -27.0420  -29.2800   26.4750 C   0  0  0  0  0  1  0  0  0  0  0  0
  -27.5290  -31.3600   27.7320 C   0  0  0  0  0  1  0  0  0  0  0  0
  -24.0820  -20.8790   17.3320 C   0  0  0  0  0  2  0  0  0  0  0  0
  -25.4000  -21.5380   16.8990 C   0  0  0  0  0  2  0  0  0  0  0  0
  -26.6280  -20.6410   17.1120 C   0  0  0  0  0  2  0  0  0  0  0  0
  -27.9320  -21.4600   17.1570 C   0  0  0  0  0  2  0  0  0  0  0  0
  -29.1910  -20.6360   17.4880 C   0  0  0  0  0  2  0  0  0  0  0  0
  -29.0410  -19.8930   18.7570 N   0  0  0  0  0  4  0  0  0  0  0  0
  -28.3700  -19.1560   18.6090 H   0  0  0  0  0  0  0  0  0  0  0  0
  -28.6760  -20.5090   19.4650 H   0  0  0  0  0  0  0  0  0  0  0  0
  -30.2820  -19.2900   19.2770 C   0  0  0  0  0  2  0  0  0  0  0  0
  -29.9710  -18.3070   20.4170 C   0  0  0  0  0  2  0  0  0  0  0  0
  -31.2330  -17.7900   21.1280 C   0  0  0  0  0  2  0  0  0  0  0  0
  -30.9400  -16.7380   22.2190 C   0  0  0  0  0  2  0  0  0  0  0  0
  -30.7270  -14.7890   20.6680 C   0  0  0  0  0  0  0  0  0  0  0  0
  -30.4440  -12.6890   19.4110 C   0  0  0  0  0  2  0  0  0  0  0  0
  -29.5100  -12.8550   18.2000 C   0  0  0  0  0  2  0  0  0  0  0  0
  -28.0420  -12.6550   18.6140 C   0  0  0  0  0  2  0  0  0  0  0  0
  -27.6550  -13.4970   19.8580 C   0  0  0  0  0  3  0  0  0  0  0  0
  -28.6960  -13.3220   20.9870 C   0  0  0  0  0  2  0  0  0  0  0  0
  -30.0330  -13.6430   20.4520 N   0  0  0  0  0  0  0  0  0  0  0  0
  -31.7170  -15.1170   20.0090 O   0  0  0  0  0  0  0  0  0  0  0  0
  -30.3060  -15.5230   21.7070 N   0  0  0  0  0  0  0  0  0  0  0  0
  -29.5130  -15.1650   22.2180 H   0  0  0  0  0  0  0  0  0  0  0  0
  -25.2410  -14.0270   20.5840 C   0  0  0  0  0  0  0  0  0  0  0  0
  -24.1860  -13.2180   20.9120 C   0  0  0  0  0  0  0  0  0  0  0  0
  -24.6710  -11.8770   20.8150 C   0  0  0  0  0  0  0  0  0  0  0  0
  -26.3030  -13.1770   20.3150 N   0  0  0  0  0  0  0  0  0  0  0  0
  -25.9620  -11.8770   20.5060 N   0  0  0  0  0  0  0  0  0  0  0  0
  -23.9680  -10.5940   20.9400 C   0  0  0  0  0  0  0  0  0  0  0  0
  -24.3260   -9.6500   21.9260 C   0  0  0  0  0  3  0  0  0  0  0  0
  -23.6240   -8.4310   22.0390 C   0  0  0  0  0  3  0  0  0  0  0  0
  -22.5480   -8.1480   21.1630 C   0  0  0  0  0  0  0  0  0  0  0  0
  -22.2090   -9.0830   20.1690 C   0  0  0  0  0  3  0  0  0  0  0  0
  -22.9140  -10.2930   20.0550 C   0  0  0  0  0  3  0  0  0  0  0  0
  -21.8260   -6.9800   21.1830 O   0  0  0  0  0  0  0  0  0  0  0  0
  -21.5180   -6.3420   22.3580 C   0  0  0  0  0  0  0  0  0  0  0  0
  -20.7440   -6.9630   23.3620 C   0  0  0  0  0  3  0  0  0  0  0  0
  -20.3930   -6.2470   24.5240 C   0  0  0  0  0  3  0  0  0  0  0  0
  -20.8050   -4.9110   24.6800 C   0  0  0  0  0  0  0  0  0  0  0  0
  -21.5710   -4.2890   23.6770 C   0  0  0  0  0  3  0  0  0  0  0  0
  -21.9230   -5.0010   22.5190 C   0  0  0  0  0  0  0  0  0  0  0  0
  -22.6430   -4.3910   21.5470 F   0  0  0  0  0  0  0  0  0  0  0  0
  -20.4620   -4.2200   25.7910 F   0  0  0  0  0  0  0  0  0  0  0  0
  -22.7800  -13.6550   21.2070 C   0  0  0  0  0  0  0  0  0  0  0  0
  -22.0780  -12.9260   22.0660 N   0  0  0  0  0  0  0  0  0  0  0  0
  -22.3110  -14.6800   20.7110 O   0  0  0  0  0  0  0  0  0  0  0  0
  -22.4700  -12.0970   22.4900 H   0  0  0  0  0  0  0  0  0  0  0  0
  -21.1360  -13.1990   22.3060 H   0  0  0  0  0  0  0  0  0  0  0  0
  -25.3830  -15.4070   20.4750 N   0  0  0  0  0  0  0  0  0  0  0  0
  -24.6050  -16.0430   20.6110 H   0  0  0  0  0  0  0  0  0  0  0  0
  -26.2340  -15.8680   20.1840 H   0  0  0  0  0  0  0  0  0  0  0  0
  1 53  1  0
  1  2  1  0
  3  2  1  0
  3  4  1  0
  4  5  1  0
  4  6  1  0
  7  4  1  0
  7  8  1  0
  9  8  1  0
  9 10  1  0
 11 10  1  0
 11 12  1  0
 13 24  2  0
 14 12  1  0
 14 19  1  0
 15 25  1  0
 15 23  1  0
 16 22  1  0
 16 18  1  0
 17 23  1  0
 18 17  1  0
 19 18  2  0
 20 21  1  0
 20 14  2  0
 21 16  2  0
 22 15  1  0
 23 13  1  0
 25 27  2  0
 26 25  1  0
 28 26  1  0
 29 38  2  0
 29 34  1  0
 30 26  1  0
 31 30  1  0
 32 33  1  0
 32 31  1  0
 33 29  1  0
 34 30  1  0
 34 35  2  0
 35 36  1  0
 37 36  2  0
 38 37  1  0
 39 13  1  0
 39 40  1  0
 39 49  1  0
 40 43  1  0
 41 45  1  0
 41 40  1  0
 42 41  2  0
 45 44  1  0
 45 47  1  0
 47 48  1  0
 47 46  1  0
 49 50  1  1
 49 52  1  0
 51 49  1  0
 54 55  1  0
 54 53  1  0
 55 56  1  0
 56 57  1  0
 57 58  1  0
 58 61  1  0
 58 60  1  0
 59 58  1  0
 61 62  1  0
 62 63  1  0
 63 64  1  0
 65 73  1  0
 66 71  1  0
 67 68  1  0
 67 66  1  0
 69 68  1  0
 69 78  1  0
 69 70  1  0
 71 65  1  0
 71 70  1  0
 72 65  2  0
 73 74  1  0
 73 64  1  0
 75 76  2  0
 76 95  1  0
 77 76  1  0
 77 80  1  0
 78 79  1  0
 78 75  1  0
 79 77  2  0
 80 81  1  0
 81 82  2  0
 83 86  1  0
 83 82  1  0
 84 83  2  0
 85 84  1  0
 85 80  2  0
 86 87  1  0
 87 92  2  0
 87 88  1  0
 88 89  2  0
 89 90  1  0
 90 94  1  0
 91 90  2  0
 92 91  1  0
 93 92  1  0
 95 96  1  0
 96 99  1  0
 96 98  1  0
 97 95  2  0
100 75  1  0
100101  1  0
102100  1  0
M  ISO  4  11 101  12 101  65 100  73 100
M  END
>  <TORSDO>  (76) 
F 34

>  <SCORE>  (76) 
-6.916

>  <name>  (76) 
78

>  <ligand_id>  (76) 
78

>  <original_smiles>  (76) 
[H]c1c([H])c([H])c2c(c1[H])C([H])([H])C([H])([H])C([H])([H])C2([H])N([H])C(=O)C1([H])N(C(=O)C([H])(N([H])C(=O)C([H])(N([H])C([H])([H])[H])C([H])([H])[H])C(C([H])([H])[H])(C([H])([H])[H])C([H])([H])[H])C([H])([H])c2c([H])c(OC([H])([H])C([H])([H])OC([H])([H])C([H])([H])[N+]([H])([H])C([H])([H])C([H])([H])C([H])([H])C([H])([H])C([H])([H])C([H])([H])C([H])([H])C([H])([H])[N+]([H])([H])C([H])([H])C([H])([H])C([H])([H])C([H])([H])N([H])C(=O)N3C([H])([H])C([H])([H])C([H])([H])C([H])(n4nc(-c5c([H])c([H])c(Oc6c([H])c([H])c(F)c([H])c6F)c([H])c5[H])c(C(=O)N([H])[H])c4N([H])[H])C3([H])[H])c([H])c([H])c2C1([H])[H]

>  <smiles>  (76) 
[H]c1c([H])c([H])c2c(c1[H])C([H])([H])C([H])([H])C([H])([H])C2([H])N([H])C(=O)C1([H])N(C(=O)C([H])(N([H])C(=O)C([H])(N([H])C([H])([H])[H])C([H])([H])[H])C(C([H])([H])[H])(C([H])([H])[H])C([H])([H])[H])C([H])([H])c2c([H])c(OC([H])([H])C([H])([H])OC([H])([H])C([H])([H])[N+]([H])([H])C([H])([H])C([H])([H])C([H])([H])C([H])([H])C([H])([H])C([H])([H])C([H])([H])C([H])([H])[N+]([H])([H])C([H])([H])C([H])([H])C([H])([H])C([H])([H])N([H])C(=O)N3C([H])([H])C([H])([H])C([H])([H])C([H])(n4nc(-c5c([H])c([H])c(Oc6c([H])c([H])c(F)c([H])c6F)c([H])c5[H])c(C(=O)N([H])[H])c4N([H])[H])C3([H])[H])c([H])c([H])c2C1([H])[H]

$$$$
79:0:0
     RDKit          3D

107114  0  0  1  0  0  0  0  0999 V2000
  -32.8500  -25.4010   15.8370 C   0  0  0  0  0  0  0  0  0  0  0  0
  -32.1890  -24.2740   16.1220 N   0  0  0  0  0  0  0  0  0  0  0  0
  -32.7630  -25.9650   14.7450 O   0  0  0  0  0  0  0  0  0  0  0  0
  -32.3340  -23.9190   17.0560 H   0  0  0  0  0  0  0  0  0  0  0  0
  -31.1660  -23.6190   15.3090 C   0  0  0  0  0  2  0  0  0  0  0  0
  -29.8480  -23.6180   16.0960 C   0  0  0  0  0  2  0  0  0  0  0  0
  -28.6760  -22.9250   15.3790 C   0  0  0  0  0  2  0  0  0  0  0  0
  -27.3530  -23.0720   16.1550 C   0  0  0  0  0  2  0  0  0  0  0  0
  -27.2380  -22.0870   17.3310 C   0  0  0  0  0  2  0  0  0  0  0  0
  -26.3600  -22.5900   18.4890 C   0  0  0  0  0  2  0  0  0  0  0  0
  -27.1300  -23.2440   19.6570 C   0  0  0  0  0  2  0  0  0  0  0  0
  -28.0690  -24.4160   19.2920 C   0  0  0  0  0  2  0  0  0  0  0  0
  -28.3160  -25.3810   20.4700 C   0  0  0  0  0  2  0  0  0  0  0  0
  -28.3970  -26.7490   20.0670 O   0  0  0  0  0  0  0  0  0  0  0  0
  -24.6160  -31.8750   23.2140 C   0  0  0  0  0  0  0  0  0  0  0  0
  -27.2170  -27.4600   20.0850 C   0  0  0  0  0  0  0  0  0  0  0  0
  -23.3950  -30.5070   21.5560 C   0  0  0  0  0  3  0  0  0  0  0  0
  -24.8300  -28.9740   20.1220 C   0  0  0  0  0  0  0  0  0  0  0  0
  -25.9240  -30.8530   21.3540 C   0  0  0  0  0  2  0  0  0  0  0  0
  -25.9970  -29.4900   20.7000 C   0  0  0  0  0  0  0  0  0  0  0  0
  -27.1960  -28.7460   20.6640 C   0  0  0  0  0  3  0  0  0  0  0  0
  -26.0200  -26.9480   19.5280 C   0  0  0  0  0  3  0  0  0  0  0  0
  -24.8340  -27.6990   19.5360 C   0  0  0  0  0  3  0  0  0  0  0  0
  -23.5990  -29.8500   20.1670 C   0  0  0  0  0  2  0  0  0  0  0  0
  -24.6640  -31.0920   22.1000 N   0  0  0  0  0  0  0  0  0  0  0  0
  -23.5370  -32.1470   23.7570 O   0  0  0  0  0  0  0  0  0  0  0  0
  -22.7390  -29.4710   22.4990 C   0  0  0  0  0  0  0  0  0  0  0  0
  -21.4130  -29.3060   22.3740 N   0  0  0  0  0  0  0  0  0  0  0  0
  -23.4200  -28.8250   23.2990 O   0  0  0  0  0  0  0  0  0  0  0  0
  -20.9240  -29.8860   21.7060 H   0  0  0  0  0  0  0  0  0  0  0  0
  -18.0290  -28.1370   22.8530 C   0  0  0  0  0  0  0  0  0  0  0  0
  -20.5890  -28.3670   23.1330 C   0  0  0  0  0  3  0  0  0  0  0  0
  -20.6770  -26.9410   22.5420 C   0  0  0  0  0  2  0  0  0  0  0  0
  -19.5730  -26.6390   21.5240 C   0  0  0  0  0  2  0  0  0  0  0  0
  -18.1920  -26.7930   22.1650 C   0  0  0  0  0  2  0  0  0  0  0  0
  -19.1550  -28.8830   23.2940 C   0  0  0  0  0  0  0  0  0  0  0  0
  -18.9460  -30.1450   23.8930 C   0  0  0  0  0  3  0  0  0  0  0  0
  -17.6450  -30.6580   24.0590 C   0  0  0  0  0  3  0  0  0  0  0  0
  -16.5350  -29.9080   23.6320 C   0  0  0  0  0  3  0  0  0  0  0  0
  -16.7280  -28.6500   23.0350 C   0  0  0  0  0  3  0  0  0  0  0  0
  -25.9090  -32.4860   23.8410 C   0  0  0  0  0  3  0  0  0  0  0  0
  -26.4510  -31.6630   25.0730 C   0  0  1  0  0  0  0  0  0  0  0  0
  -25.3790  -31.3770   26.1490 C   0  0  0  0  0  1  0  0  0  0  0  0
  -27.0320  -30.3060   24.6080 C   0  0  0  0  0  1  0  0  0  0  0  0
  -27.6070  -32.4330   25.7540 C   0  0  0  0  0  1  0  0  0  0  0  0
  -25.5980  -33.8670   24.2380 N   0  0  0  0  0  0  0  0  0  0  0  0
  -25.9030  -34.9510   23.5130 C   0  0  0  0  0  0  0  0  0  0  0  0
  -26.5550  -34.8950   22.4660 O   0  0  0  0  0  0  0  0  0  0  0  0
  -25.0350  -33.9840   25.0670 H   0  0  0  0  0  0  0  0  0  0  0  0
  -24.1470  -36.7330   23.2630 C   0  0  0  0  0  1  0  0  0  0  0  0
  -25.4100  -36.3140   24.0330 C   0  0  0  0  0  3  0  0  0  0  0  0
  -27.5580  -37.1820   24.8470 C   0  0  0  0  0  1  0  0  0  0  0  0
  -26.4290  -37.3820   23.9420 N   0  0  0  0  0  0  0  0  0  0  0  0
  -26.0180  -38.2910   24.1410 H   0  0  0  0  0  0  0  0  0  0  0  0
  -33.7340  -26.0060   16.9430 C   0  0  0  0  0  2  0  0  0  0  0  0
  -32.6670  -25.4560   19.1310 C   0  0  0  0  0  0  0  0  0  0  0  0
  -33.6650  -25.3300   18.2450 N   0  0  0  0  0  0  0  0  0  0  0  0
  -31.6400  -26.0860   18.8740 O   0  0  0  0  0  0  0  0  0  0  0  0
  -34.4720  -24.7870   18.5160 H   0  0  0  0  0  0  0  0  0  0  0  0
  -32.8350  -24.7870   20.5060 C   0  0  0  0  0  2  0  0  0  0  0  0
  -32.3740  -23.4340   20.4970 O   0  0  0  0  0  0  0  0  0  0  0  0
  -33.2680  -22.5000   19.8980 C   0  0  0  0  0  2  0  0  0  0  0  0
  -32.7540  -21.0690   20.1040 C   0  0  0  0  0  2  0  0  0  0  0  0
  -31.6290  -20.8290   19.2710 O   0  0  0  0  0  0  0  0  0  0  0  0
  -30.3720  -20.9690   19.9260 C   0  0  0  0  0  2  0  0  0  0  0  0
  -30.0040  -19.6860   20.6830 C   0  0  0  0  0  2  0  0  0  0  0  0
  -29.9740  -18.6160   19.7450 O   0  0  0  0  0  0  0  0  0  0  0  0
  -29.4840  -17.3820   20.2500 C   0  0  0  0  0  2  0  0  0  0  0  0
  -30.4280  -16.7370   21.2850 C   0  0  0  0  0  2  0  0  0  0  0  0
  -30.7470  -14.3810   20.6250 C   0  0  0  0  0  0  0  0  0  0  0  0
  -30.4210  -12.2720   19.4090 C   0  0  0  0  0  2  0  0  0  0  0  0
  -29.4940  -12.5090   18.2000 C   0  0  0  0  0  2  0  0  0  0  0  0
  -28.0150  -12.3760   18.6080 C   0  0  0  0  0  2  0  0  0  0  0  0
  -27.6680  -13.1990   19.8770 C   0  0  0  0  0  3  0  0  0  0  0  0
  -28.7050  -12.9490   20.9960 C   0  0  0  0  0  2  0  0  0  0  0  0
  -30.0520  -13.2270   20.4610 N   0  0  0  0  0  0  0  0  0  0  0  0
  -31.8090  -14.6250   20.0460 O   0  0  0  0  0  0  0  0  0  0  0  0
  -30.1470  -15.3060   21.3770 N   0  0  0  0  0  0  0  0  0  0  0  0
  -29.3050  -15.0240   21.8600 H   0  0  0  0  0  0  0  0  0  0  0  0
  -25.2590  -13.8160   20.5640 C   0  0  0  0  0  0  0  0  0  0  0  0
  -24.1830  -13.0460   20.9090 C   0  0  0  0  0  0  0  0  0  0  0  0
  -24.6370  -11.6910   20.8670 C   0  0  0  0  0  0  0  0  0  0  0  0
  -26.3040  -12.9330   20.3340 N   0  0  0  0  0  0  0  0  0  0  0  0
  -25.9300  -11.6490   20.5720 N   0  0  0  0  0  0  0  0  0  0  0  0
  -23.9050  -10.4310   21.0380 C   0  0  0  0  0  0  0  0  0  0  0  0
  -24.3620   -9.4230   21.9160 C   0  0  0  0  0  3  0  0  0  0  0  0
  -23.6290   -8.2270   22.0770 C   0  0  0  0  0  3  0  0  0  0  0  0
  -22.4270   -8.0320   21.3560 C   0  0  0  0  0  0  0  0  0  0  0  0
  -21.9890   -9.0280   20.4650 C   0  0  0  0  0  3  0  0  0  0  0  0
  -22.7220  -10.2150   20.3030 C   0  0  0  0  0  3  0  0  0  0  0  0
  -21.6660   -6.8900   21.4260 O   0  0  0  0  0  0  0  0  0  0  0  0
  -21.6870   -6.0740   22.5290 C   0  0  0  0  0  0  0  0  0  0  0  0
  -21.4040   -6.5640   23.8230 C   0  0  0  0  0  3  0  0  0  0  0  0
  -21.3640   -5.6780   24.9170 C   0  0  0  0  0  3  0  0  0  0  0  0
  -21.6040   -4.3050   24.7210 C   0  0  0  0  0  0  0  0  0  0  0  0
  -21.8820   -3.8150   23.4330 C   0  0  0  0  0  3  0  0  0  0  0  0
  -21.9200   -4.6970   22.3400 C   0  0  0  0  0  0  0  0  0  0  0  0
  -22.1660   -4.2160   21.0960 F   0  0  0  0  0  0  0  0  0  0  0  0
  -21.5600   -3.4530   25.7710 F   0  0  0  0  0  0  0  0  0  0  0  0
  -22.7850  -13.5270   21.1740 C   0  0  0  0  0  0  0  0  0  0  0  0
  -22.0480  -12.8330   22.0320 N   0  0  0  0  0  0  0  0  0  0  0  0
  -22.3540  -14.5570   20.6550 O   0  0  0  0  0  0  0  0  0  0  0  0
  -22.4130  -12.0080   22.4840 H   0  0  0  0  0  0  0  0  0  0  0  0
  -21.1080  -13.1360   22.2460 H   0  0  0  0  0  0  0  0  0  0  0  0
  -25.4290  -15.1890   20.4100 N   0  0  0  0  0  0  0  0  0  0  0  0
  -24.6570  -15.8380   20.5230 H   0  0  0  0  0  0  0  0  0  0  0  0
  -26.2870  -15.6430   20.1250 H   0  0  0  0  0  0  0  0  0  0  0  0
  1  2  1  0
  1 55  1  0
  2  4  1  0
  3  1  2  0
  5  6  1  0
  5  2  1  0
  7  6  1  0
  7  8  1  0
  8  9  1  0
  9 10  1  0
 10 11  1  0
 12 11  1  0
 12 13  1  0
 14 16  1  0
 14 13  1  0
 15 26  2  0
 16 21  1  0
 17 25  1  0
 17 27  1  0
 18 24  1  0
 18 20  1  0
 19 25  1  0
 20 19  1  0
 21 20  2  0
 22 23  1  0
 22 16  2  0
 23 18  2  0
 24 17  1  0
 25 15  1  0
 27 29  2  0
 28 27  1  0
 30 28  1  0
 31 40  2  0
 31 36  1  0
 32 28  1  0
 32 36  1  0
 33 32  1  0
 34 35  1  0
 34 33  1  0
 35 31  1  0
 36 37  2  0
 37 38  1  0
 39 38  2  0
 40 39  1  0
 41 15  1  0
 41 46  1  0
 41 42  1  0
 42 45  1  1
 42 43  1  0
 44 42  1  0
 46 49  1  0
 47 51  1  0
 47 46  1  0
 48 47  2  0
 51 50  1  0
 53 51  1  0
 53 54  1  0
 53 52  1  0
 55 57  1  0
 56 60  1  0
 57 59  1  0
 57 56  1  0
 58 56  2  0
 61 60  1  0
 62 63  1  0
 62 61  1  0
 64 65  1  0
 64 63  1  0
 65 66  1  0
 67 68  1  0
 67 66  1  0
 68 69  1  0
 69 78  1  0
 70 78  1  0
 71 76  1  0
 72 73  1  0
 72 71  1  0
 74 73  1  0
 74 83  1  0
 74 75  1  0
 76 70  1  0
 76 75  1  0
 77 70  2  0
 78 79  1  0
 80 81  2  0
 81100  1  0
 82 81  1  0
 82 85  1  0
 83 80  1  0
 83 84  1  0
 84 82  2  0
 85 86  1  0
 86 87  2  0
 88 91  1  0
 88 87  1  0
 89 88  2  0
 90 89  1  0
 90 85  2  0
 91 92  1  0
 92 93  1  0
 93 94  2  0
 95 94  1  0
 95 99  1  0
 96 95  2  0
 97 92  2  0
 97 96  1  0
 98 97  1  0
100101  1  0
101104  1  0
101103  1  0
102100  2  0
105106  1  0
105 80  1  0
107105  1  0
M  ISO  4  13 101  14 101  70 100  78 100
M  END
>  <TORSDO>  (77) 
F 37

>  <SCORE>  (77) 
-7.080

>  <name>  (77) 
79

>  <ligand_id>  (77) 
79

>  <original_smiles>  (77) 
[H]c1c([H])c([H])c2c(c1[H])C([H])([H])C([H])([H])C([H])([H])C2([H])N([H])C(=O)C1([H])N(C(=O)C([H])(N([H])C(=O)C([H])(N([H])C([H])([H])[H])C([H])([H])[H])C(C([H])([H])[H])(C([H])([H])[H])C([H])([H])[H])C([H])([H])c2c([H])c(OC([H])([H])C([H])([H])C([H])([H])C([H])([H])C([H])([H])C([H])([H])C([H])([H])C([H])([H])C([H])([H])N([H])C(=O)C([H])([H])N([H])C(=O)C([H])([H])OC([H])([H])C([H])([H])OC([H])([H])C([H])([H])OC([H])([H])C([H])([H])N([H])C(=O)N3C([H])([H])C([H])([H])C([H])([H])C([H])(n4nc(-c5c([H])c([H])c(Oc6c([H])c([H])c(F)c([H])c6F)c([H])c5[H])c(C(=O)N([H])[H])c4N([H])[H])C3([H])[H])c([H])c([H])c2C1([H])[H]

>  <smiles>  (77) 
[H]c1c([H])c([H])c2c(c1[H])C([H])([H])C([H])([H])C([H])([H])C2([H])N([H])C(=O)C1([H])N(C(=O)C([H])(N([H])C(=O)C([H])(N([H])C([H])([H])[H])C([H])([H])[H])C(C([H])([H])[H])(C([H])([H])[H])C([H])([H])[H])C([H])([H])c2c([H])c(OC([H])([H])C([H])([H])C([H])([H])C([H])([H])C([H])([H])C([H])([H])C([H])([H])C([H])([H])C([H])([H])N([H])C(=O)C([H])([H])N([H])C(=O)C([H])([H])OC([H])([H])C([H])([H])OC([H])([H])C([H])([H])OC([H])([H])C([H])([H])N([H])C(=O)N3C([H])([H])C([H])([H])C([H])([H])C([H])(n4nc(-c5c([H])c([H])c(Oc6c([H])c([H])c(F)c([H])c6F)c([H])c5[H])c(C(=O)N([H])[H])c4N([H])[H])C3([H])[H])c([H])c([H])c2C1([H])[H]

$$$$
80:0:0
     RDKit          3D

109117  0  0  1  0  0  0  0  0999 V2000
  -26.4090  -22.8440   22.3500 C   0  0  0  0  0  2  0  0  0  0  0  0
  -25.2910  -26.4490   21.4880 C   0  0  0  0  0  2  0  0  0  0  0  0
  -27.3170  -25.8990   20.1590 C   0  0  0  0  0  2  0  0  0  0  0  0
  -25.2090  -24.9800   21.9740 C   0  0  0  0  0  2  0  0  0  0  0  0
  -27.1910  -24.4240   20.5790 C   0  0  0  0  0  2  0  0  0  0  0  0
  -25.9500  -26.6180   20.1020 C   0  0  0  0  0  3  0  0  0  0  0  0
  -26.5160  -24.2650   21.8980 N   0  0  2  0  0  4  0  0  0  0  0  0
  -27.1220  -24.7020   22.5820 H   0  0  0  0  0  0  0  0  0  0  0  0
  -25.0460  -26.1640   18.9390 C   0  0  0  0  0  0  0  0  0  0  0  0
  -25.5810  -26.1210   17.7110 N   0  0  0  0  0  0  0  0  0  0  0  0
  -23.8700  -25.8700   19.1420 O   0  0  0  0  0  0  0  0  0  0  0  0
  -26.5410  -26.4220   17.5980 H   0  0  0  0  0  0  0  0  0  0  0  0
  -24.8400  -25.7050   16.5160 C   0  0  0  0  0  2  0  0  0  0  0  0
  -24.7230  -26.8420   15.4830 C   0  0  0  0  0  2  0  0  0  0  0  0
  -23.3600  -27.1380   15.1610 O   0  0  0  0  0  0  0  0  0  0  0  0
  -23.8930  -29.8820   21.6770 C   0  0  0  0  0  0  0  0  0  0  0  0
  -22.6810  -27.6120   16.2530 C   0  0  0  0  0  0  0  0  0  0  0  0
  -21.6750  -28.9850   21.0500 C   0  0  0  0  0  3  0  0  0  0  0  0
  -21.3350  -28.4620   18.5740 C   0  0  0  0  0  0  0  0  0  0  0  0
  -23.2400  -29.9240   19.2670 C   0  0  0  0  0  2  0  0  0  0  0  0
  -22.6210  -28.9450   18.2930 C   0  0  0  0  0  0  0  0  0  0  0  0
  -23.3000  -28.5240   17.1300 C   0  0  0  0  0  3  0  0  0  0  0  0
  -21.3750  -27.1550   16.5230 C   0  0  0  0  0  3  0  0  0  0  0  0
  -20.6980  -27.5770   17.6840 C   0  0  0  0  0  3  0  0  0  0  0  0
  -20.6870  -28.9480   19.8530 C   0  0  0  0  0  2  0  0  0  0  0  0
  -23.0010  -29.5890   20.6900 N   0  0  0  0  0  0  0  0  0  0  0  0
  -23.6150  -29.6960   22.8710 O   0  0  0  0  0  0  0  0  0  0  0  0
  -21.7910  -27.5620   21.6390 C   0  0  0  0  0  0  0  0  0  0  0  0
  -20.6560  -26.8420   21.6840 N   0  0  0  0  0  0  0  0  0  0  0  0
  -22.8770  -27.1180   22.0210 O   0  0  0  0  0  0  0  0  0  0  0  0
  -19.8010  -27.2780   21.3710 H   0  0  0  0  0  0  0  0  0  0  0  0
  -18.7140  -23.8200   21.3540 C   0  0  0  0  0  0  0  0  0  0  0  0
  -20.5300  -25.4700   22.1650 C   0  0  0  0  0  3  0  0  0  0  0  0
  -21.5470  -24.5370   21.4680 C   0  0  0  0  0  2  0  0  0  0  0  0
  -20.9730  -23.8520   20.2230 C   0  0  0  0  0  2  0  0  0  0  0  0
  -19.7460  -23.0140   20.5860 C   0  0  0  0  0  2  0  0  0  0  0  0
  -19.0780  -24.9830   22.0830 C   0  0  0  0  0  0  0  0  0  0  0  0
  -18.0710  -25.7200   22.7430 C   0  0  0  0  0  3  0  0  0  0  0  0
  -16.7270  -25.3060   22.6940 C   0  0  0  0  0  3  0  0  0  0  0  0
  -16.3760  -24.1430   21.9860 C   0  0  0  0  0  3  0  0  0  0  0  0
  -17.3680  -23.4010   21.3210 C   0  0  0  0  0  3  0  0  0  0  0  0
  -25.2980  -30.4870   21.3630 C   0  0  0  0  0  3  0  0  0  0  0  0
  -26.3690  -29.3980   20.9680 C   0  0  1  0  0  0  0  0  0  0  0  0
  -26.3040  -28.1130   21.8300 C   0  0  0  0  0  1  0  0  0  0  0  0
  -26.1990  -28.9860   19.4890 C   0  0  0  0  0  1  0  0  0  0  0  0
  -27.7930  -29.9870   21.0950 C   0  0  0  0  0  1  0  0  0  0  0  0
  -25.7360  -31.2460   22.5430 N   0  0  0  0  0  0  0  0  0  0  0  0
  -25.6920  -32.5800   22.6420 C   0  0  0  0  0  0  0  0  0  0  0  0
  -25.3460  -33.3120   21.7130 O   0  0  0  0  0  0  0  0  0  0  0  0
  -25.9860  -30.7110   23.3630 H   0  0  0  0  0  0  0  0  0  0  0  0
  -24.8410  -33.7080   24.7240 C   0  0  0  0  0  1  0  0  0  0  0  0
  -26.0970  -33.2040   23.9950 C   0  0  0  0  0  3  0  0  0  0  0  0
  -28.3980  -33.8590   23.4290 C   0  0  0  0  0  1  0  0  0  0  0  0
  -27.0750  -34.3060   23.8640 N   0  0  0  0  0  0  0  0  0  0  0  0
  -27.1800  -34.8010   24.7470 H   0  0  0  0  0  0  0  0  0  0  0  0
  -27.6640  -22.3700   23.0950 C   0  0  0  0  0  2  0  0  0  0  0  0
  -28.1100  -23.4620   23.8860 O   0  0  0  0  0  0  0  0  0  0  0  0
  -28.7550  -23.0570   25.0870 C   0  0  0  0  0  2  0  0  0  0  0  0
  -30.2610  -23.0650   24.8080 C   0  0  0  0  0  2  0  0  0  0  0  0
  -30.5230  -22.2510   23.6680 O   0  0  0  0  0  0  0  0  0  0  0  0
  -31.9080  -22.2240   23.3490 C   0  0  0  0  0  2  0  0  0  0  0  0
  -32.1340  -21.7920   21.8930 C   0  0  0  0  0  2  0  0  0  0  0  0
  -31.7240  -22.7940   20.9720 O   0  0  0  0  0  0  0  0  0  0  0  0
  -31.9750  -22.4250   19.6150 C   0  0  0  0  0  2  0  0  0  0  0  0
  -30.6300  -22.2850   18.8920 C   0  0  0  0  0  2  0  0  0  0  0  0
  -29.9210  -21.1900   19.4510 O   0  0  0  0  0  0  0  0  0  0  0  0
  -28.7080  -20.9010   18.7650 C   0  0  0  0  0  2  0  0  0  0  0  0
  -28.1560  -19.5810   19.3100 C   0  0  0  0  0  2  0  0  0  0  0  0
  -29.2510  -18.7740   19.7080 O   0  0  0  0  0  0  0  0  0  0  0  0
  -28.8180  -17.5350   20.2300 C   0  0  0  0  0  2  0  0  0  0  0  0
  -29.9870  -16.8770   20.9710 C   0  0  0  0  0  2  0  0  0  0  0  0
  -30.1060  -14.6180   19.9640 C   0  0  0  0  0  0  0  0  0  0  0  0
  -30.1000  -12.2450   19.3290 C   0  0  0  0  0  2  0  0  0  0  0  0
  -29.1210  -11.9450   18.1860 C   0  0  0  0  0  2  0  0  0  0  0  0
  -27.7160  -11.6510   18.7430 C   0  0  0  0  0  2  0  0  0  0  0  0
  -27.2290  -12.7490   19.7230 C   0  0  0  0  0  3  0  0  0  0  0  0
  -28.3060  -13.0760   20.7810 C   0  0  0  0  0  2  0  0  0  0  0  0
  -29.5860  -13.3780   20.1040 N   0  0  0  0  0  0  0  0  0  0  0  0
  -30.8930  -14.9520   19.0770 O   0  0  0  0  0  0  0  0  0  0  0  0
  -29.7970  -15.4360   20.9690 N   0  0  0  0  0  0  0  0  0  0  0  0
  -29.2830  -15.0310   21.7360 H   0  0  0  0  0  0  0  0  0  0  0  0
  -25.0510  -13.1630   21.0390 C   0  0  0  0  0  0  0  0  0  0  0  0
  -24.0100  -12.3390   21.3710 C   0  0  0  0  0  0  0  0  0  0  0  0
  -24.3390  -11.0550   20.8390 C   0  0  0  0  0  0  0  0  0  0  0  0
  -25.9620  -12.3740   20.3530 N   0  0  0  0  0  0  0  0  0  0  0  0
  -25.5460  -11.0810   20.2870 N   0  0  0  0  0  0  0  0  0  0  0  0
  -23.5540   -9.8130   20.7810 C   0  0  0  0  0  0  0  0  0  0  0  0
  -24.1200   -8.5630   21.1170 C   0  0  0  0  0  3  0  0  0  0  0  0
  -23.3380   -7.3890   21.0710 C   0  0  0  0  0  3  0  0  0  0  0  0
  -21.9760   -7.4560   20.6910 C   0  0  0  0  0  0  0  0  0  0  0  0
  -21.4250   -8.6990   20.3360 C   0  0  0  0  0  3  0  0  0  0  0  0
  -22.2050   -9.8670   20.3770 C   0  0  0  0  0  3  0  0  0  0  0  0
  -21.1480   -6.3630   20.5920 O   0  0  0  0  0  0  0  0  0  0  0  0
  -21.5230   -5.1310   21.0650 C   0  0  0  0  0  0  0  0  0  0  0  0
  -21.5950   -4.8520   22.4490 C   0  0  0  0  0  3  0  0  0  0  0  0
  -21.9190   -3.5560   22.8920 C   0  0  0  0  0  3  0  0  0  0  0  0
  -22.1570   -2.5290   21.9580 C   0  0  0  0  0  0  0  0  0  0  0  0
  -22.0780   -2.8010   20.5800 C   0  0  0  0  0  3  0  0  0  0  0  0
  -21.7590   -4.0950   20.1370 C   0  0  0  0  0  0  0  0  0  0  0  0
  -21.6650   -4.3470   18.8080 F   0  0  0  0  0  0  0  0  0  0  0  0
  -22.4600   -1.2810   22.3840 F   0  0  0  0  0  0  0  0  0  0  0  0
  -22.7320  -12.7400   22.0490 C   0  0  0  0  0  0  0  0  0  0  0  0
  -22.1800  -11.8710   22.8870 N   0  0  0  0  0  0  0  0  0  0  0  0
  -22.2430  -13.8550   21.8690 O   0  0  0  0  0  0  0  0  0  0  0  0
  -22.5960  -10.9660   23.0530 H   0  0  0  0  0  0  0  0  0  0  0  0
  -21.3230  -12.1100   23.3650 H   0  0  0  0  0  0  0  0  0  0  0  0
  -25.2890  -14.5190   21.2480 N   0  0  0  0  0  0  0  0  0  0  0  0
  -24.5330  -15.1290   21.5290 H   0  0  0  0  0  0  0  0  0  0  0  0
  -26.0460  -15.0100   20.7900 H   0  0  0  0  0  0  0  0  0  0  0  0
  1 56  1  0
  2  4  1  0
  3  5  1  0
  5  7  1  0
  6  9  1  0
  6  3  1  0
  6  2  1  0
  7  4  1  0
  7  1  1  0
  7  8  1  1
  9 11  2  0
 10  9  1  0
 12 10  1  0
 13 10  1  0
 14 13  1  0
 15 14  1  0
 15 17  1  0
 16 27  2  0
 17 23  2  0
 17 22  1  0
 18 28  1  0
 19 25  1  0
 20 26  1  0
 21 19  1  0
 21 20  1  0
 22 21  2  0
 23 24  1  0
 24 19  2  0
 25 18  1  0
 26 18  1  0
 26 16  1  0
 28 29  1  0
 28 30  2  0
 31 29  1  0
 32 37  1  0
 33 29  1  0
 34 33  1  0
 35 36  1  0
 35 34  1  0
 36 32  1  0
 37 33  1  0
 37 38  2  0
 39 38  1  0
 40 39  2  0
 41 32  2  0
 41 40  1  0
 42 16  1  0
 42 47  1  0
 43 46  1  6
 43 42  1  0
 43 44  1  0
 45 43  1  0
 47 48  1  0
 47 50  1  0
 48 52  1  0
 49 48  2  0
 52 51  1  0
 53 54  1  0
 54 52  1  0
 54 55  1  0
 56 57  1  0
 57 58  1  0
 59 58  1  0
 60 59  1  0
 61 60  1  0
 62 61  1  0
 63 62  1  0
 64 63  1  0
 65 66  1  0
 65 64  1  0
 67 68  1  0
 67 66  1  0
 68 69  1  0
 69 70  1  0
 70 71  1  0
 72 78  1  0
 72 80  1  0
 73 78  1  0
 74 75  1  0
 74 73  1  0
 76 75  1  0
 76 85  1  0
 76 77  1  0
 78 77  1  0
 79 72  2  0
 80 71  1  0
 80 81  1  0
 82107  1  0
 82 83  2  0
 83102  1  0
 84 83  1  0
 85 82  1  0
 86 85  1  0
 86 84  2  0
 87 84  1  0
 87 88  1  0
 89 88  2  0
 90 89  1  0
 91 92  1  0
 91 90  2  0
 92 87  2  0
 93 90  1  0
 93 94  1  0
 94 95  1  0
 95 96  2  0
 97101  1  0
 97 96  1  0
 98 97  2  0
 99 98  1  0
 99 94  2  0
100 99  1  0
102103  1  0
103105  1  0
103106  1  0
104102  2  0
107108  1  0
109107  1  0
M  ISO  4  14 101  15 101  72 100  80 100
M  END
>  <TORSDO>  (78) 
F 36

>  <SCORE>  (78) 
4.893

>  <name>  (78) 
80

>  <ligand_id>  (78) 
80

>  <original_smiles>  (78) 
[H]c1c([H])c([H])c2c(c1[H])C([H])([H])C([H])([H])C([H])([H])C2([H])N([H])C(=O)C1([H])N(C(=O)C([H])(N([H])C(=O)C([H])(N([H])C([H])([H])[H])C([H])([H])[H])C(C([H])([H])[H])(C([H])([H])[H])C([H])([H])[H])C([H])([H])c2c([H])c(OC([H])([H])C([H])([H])N([H])C(=O)C3([H])C([H])([H])C([H])([H])[N+]([H])(C([H])([H])C([H])([H])OC([H])([H])C([H])([H])OC([H])([H])C([H])([H])OC([H])([H])C([H])([H])OC([H])([H])C([H])([H])OC([H])([H])C([H])([H])N([H])C(=O)N4C([H])([H])C([H])([H])C([H])([H])C([H])(n5nc(-c6c([H])c([H])c(Oc7c([H])c([H])c(F)c([H])c7F)c([H])c6[H])c(C(=O)N([H])[H])c5N([H])[H])C4([H])[H])C([H])([H])C3([H])[H])c([H])c([H])c2C1([H])[H]

>  <smiles>  (78) 
[H]c1c([H])c([H])c2c(c1[H])C([H])([H])C([H])([H])C([H])([H])C2([H])N([H])C(=O)C1([H])N(C(=O)C([H])(N([H])C(=O)C([H])(N([H])C([H])([H])[H])C([H])([H])[H])C(C([H])([H])[H])(C([H])([H])[H])C([H])([H])[H])C([H])([H])c2c([H])c(OC([H])([H])C([H])([H])N([H])C(=O)C3([H])C([H])([H])C([H])([H])[N+]([H])(C([H])([H])C([H])([H])OC([H])([H])C([H])([H])OC([H])([H])C([H])([H])OC([H])([H])C([H])([H])OC([H])([H])C([H])([H])OC([H])([H])C([H])([H])N([H])C(=O)N4C([H])([H])C([H])([H])C([H])([H])C([H])(n5nc(-c6c([H])c([H])c(Oc7c([H])c([H])c(F)c([H])c7F)c([H])c6[H])c(C(=O)N([H])[H])c5N([H])[H])C4([H])[H])C([H])([H])C3([H])[H])c([H])c([H])c2C1([H])[H]

$$$$
81:0:0
     RDKit          3D

 99107  0  0  1  0  0  0  0  0999 V2000
  -25.8990  -24.4920   21.6350 C   0  0  0  0  0  2  0  0  0  0  0  0
  -27.2270  -24.6900   19.5630 C   0  0  0  0  0  2  0  0  0  0  0  0
  -24.6990  -25.0910   20.8790 C   0  0  0  0  0  2  0  0  0  0  0  0
  -25.9740  -25.2410   18.8470 C   0  0  0  0  0  2  0  0  0  0  0  0
  -27.1380  -24.9750   21.0060 N   0  0  0  0  0  0  0  0  0  0  0  0
  -24.8020  -24.6090   19.4890 N   0  0  2  0  0  4  0  0  0  0  0  0
  -25.0840  -23.6480   19.5800 H   0  0  0  0  0  0  0  0  0  0  0  0
  -23.5510  -24.5210   18.7060 C   0  0  0  0  0  2  0  0  0  0  0  0
  -23.0860  -23.0550   18.6950 C   0  0  0  0  0  2  0  0  0  0  0  0
  -22.5870  -22.5350   17.3430 C   0  0  0  0  0  2  0  0  0  0  0  0
  -23.0230  -21.0940   17.0270 C   0  0  0  0  0  2  0  0  0  0  0  0
  -24.5040  -20.7270   17.2990 C   0  0  0  0  0  2  0  0  0  0  0  0
  -25.5620  -21.6040   16.6010 C   0  0  0  0  0  2  0  0  0  0  0  0
  -26.5970  -22.3220   17.5070 C   0  0  0  0  0  2  0  0  0  0  0  0
  -27.6930  -22.9550   16.6300 C   0  0  0  0  0  2  0  0  0  0  0  0
  -28.8150  -23.7900   17.2880 C   0  0  0  0  0  2  0  0  0  0  0  0
  -29.5460  -24.5220   16.1420 C   0  0  0  0  0  2  0  0  0  0  0  0
  -30.4790  -25.6920   16.4790 C   0  0  0  0  0  2  0  0  0  0  0  0
  -30.2440  -27.9330   15.4580 C   0  0  0  0  0  0  0  0  0  0  0  0
  -28.8990  -29.8600   14.7190 C   0  0  0  0  0  2  0  0  0  0  0  0
  -27.7040  -30.0590   15.6730 C   0  0  0  0  0  2  0  0  0  0  0  0
  -26.5170  -29.1490   15.2840 C   0  0  0  0  0  2  0  0  0  0  0  0
  -26.9350  -27.6720   15.0580 C   0  0  0  0  0  3  0  0  0  0  0  0
  -28.1500  -27.6260   14.1050 C   0  0  0  0  0  2  0  0  0  0  0  0
  -29.2430  -28.4330   14.6970 N   0  0  0  0  0  0  0  0  0  0  0  0
  -30.9810  -28.6060   16.1880 O   0  0  0  0  0  0  0  0  0  0  0  0
  -30.3600  -26.6120   15.3600 N   0  0  0  0  0  0  0  0  0  0  0  0
  -29.9010  -26.2380   14.5430 H   0  0  0  0  0  0  0  0  0  0  0  0
  -25.4910  -25.5430   14.8160 C   0  0  0  0  0  0  0  0  0  0  0  0
  -24.3130  -25.3120   14.1610 C   0  0  0  0  0  0  0  0  0  0  0  0
  -23.9610  -26.5500   13.5370 C   0  0  0  0  0  0  0  0  0  0  0  0
  -25.8160  -26.8700   14.5640 N   0  0  0  0  0  0  0  0  0  0  0  0
  -24.9060  -27.4540   13.7450 N   0  0  0  0  0  0  0  0  0  0  0  0
  -22.7540  -26.9480   12.7980 C   0  0  0  0  0  0  0  0  0  0  0  0
  -22.8290  -27.4490   11.4770 C   0  0  0  0  0  3  0  0  0  0  0  0
  -21.6530  -27.8020   10.7770 C   0  0  0  0  0  3  0  0  0  0  0  0
  -20.3890  -27.6520   11.3920 C   0  0  0  0  0  0  0  0  0  0  0  0
  -20.3220  -27.1760   12.7130 C   0  0  0  0  0  3  0  0  0  0  0  0
  -21.4900  -26.8310   13.4120 C   0  0  0  0  0  3  0  0  0  0  0  0
  -19.1970  -27.9980   10.8000 O   0  0  0  0  0  0  0  0  0  0  0  0
  -19.0160  -27.9180    9.4430 C   0  0  0  0  0  0  0  0  0  0  0  0
  -19.3040  -26.7380    8.7210 C   0  0  0  0  0  3  0  0  0  0  0  0
  -19.0460  -26.6770    7.3380 C   0  0  0  0  0  3  0  0  0  0  0  0
  -18.4840  -27.7870    6.6770 C   0  0  0  0  0  0  0  0  0  0  0  0
  -18.1920  -28.9610    7.3950 C   0  0  0  0  0  3  0  0  0  0  0  0
  -18.4520  -29.0240    8.7730 C   0  0  0  0  0  0  0  0  0  0  0  0
  -18.1490  -30.1500    9.4680 F   0  0  0  0  0  0  0  0  0  0  0  0
  -18.2230  -27.7260    5.3510 F   0  0  0  0  0  0  0  0  0  0  0  0
  -23.4960  -24.0510   14.1860 C   0  0  0  0  0  0  0  0  0  0  0  0
  -22.8010  -23.7450   13.0960 N   0  0  0  0  0  0  0  0  0  0  0  0
  -23.5010  -23.3040   15.1690 O   0  0  0  0  0  0  0  0  0  0  0  0
  -22.8080  -24.3520   12.2870 H   0  0  0  0  0  0  0  0  0  0  0  0
  -22.2500  -22.8990   13.0630 H   0  0  0  0  0  0  0  0  0  0  0  0
  -26.2980  -24.7540   15.6370 N   0  0  0  0  0  0  0  0  0  0  0  0
  -26.0450  -23.8070   15.8920 H   0  0  0  0  0  0  0  0  0  0  0  0
  -27.1130  -25.0950   16.1250 H   0  0  0  0  0  0  0  0  0  0  0  0
  -28.3180  -24.5160   21.7320 C   0  0  0  0  0  2  0  0  0  0  0  0
  -29.5680  -25.2890   21.2560 C   0  0  0  0  0  2  0  0  0  0  0  0
  -29.6580  -26.5550   21.8990 O   0  0  0  0  0  0  0  0  0  0  0  0
  -26.0000  -31.0460   25.9730 C   0  0  0  0  0  0  0  0  0  0  0  0
  -28.5670  -27.3940   21.9440 C   0  0  0  0  0  0  0  0  0  0  0  0
  -24.9270  -30.4560   23.8180 C   0  0  0  0  0  3  0  0  0  0  0  0
  -26.3930  -29.1930   22.1620 C   0  0  0  0  0  0  0  0  0  0  0  0
  -27.4710  -30.3960   24.0770 C   0  0  0  0  0  2  0  0  0  0  0  0
  -27.4800  -29.2970   23.0360 C   0  0  0  0  0  0  0  0  0  0  0  0
  -28.5610  -28.3990   22.9370 C   0  0  0  0  0  3  0  0  0  0  0  0
  -27.4750  -27.3240   21.0460 C   0  0  0  0  0  3  0  0  0  0  0  0
  -26.3790  -28.1970   21.1680 C   0  0  0  0  0  3  0  0  0  0  0  0
  -25.2880  -30.2040   22.3300 C   0  0  0  0  0  2  0  0  0  0  0  0
  -26.1410  -30.6270   24.6850 N   0  0  0  0  0  0  0  0  0  0  0  0
  -24.8860  -31.3330   26.4300 O   0  0  0  0  0  0  0  0  0  0  0  0
  -23.9880  -29.3250   24.2960 C   0  0  0  0  0  0  0  0  0  0  0  0
  -22.7930  -29.2450   23.6870 N   0  0  0  0  0  0  0  0  0  0  0  0
  -24.3440  -28.5340   25.1740 O   0  0  0  0  0  0  0  0  0  0  0  0
  -22.5670  -29.9440   22.9890 H   0  0  0  0  0  0  0  0  0  0  0  0
  -19.5040  -28.1400   22.6840 C   0  0  0  0  0  0  0  0  0  0  0  0
  -21.7610  -28.2430   23.9350 C   0  0  0  0  0  3  0  0  0  0  0  0
  -22.1000  -26.9120   23.2250 C   0  0  0  0  0  2  0  0  0  0  0  0
  -21.4650  -26.7930   21.8410 C   0  0  0  0  0  2  0  0  0  0  0  0
  -19.9440  -26.9010   21.9320 C   0  0  0  0  0  2  0  0  0  0  0  0
  -20.3620  -28.7810   23.6170 C   0  0  0  0  0  0  0  0  0  0  0  0
  -19.9200  -29.9550   24.2620 C   0  0  0  0  0  3  0  0  0  0  0  0
  -18.6440  -30.4860   23.9980 C   0  0  0  0  0  3  0  0  0  0  0  0
  -17.7900  -29.8400   23.0860 C   0  0  0  0  0  3  0  0  0  0  0  0
  -18.2190  -28.6700   22.4330 C   0  0  0  0  0  3  0  0  0  0  0  0
  -27.2260  -31.2030   26.9240 C   0  0  0  0  0  3  0  0  0  0  0  0
  -27.2630  -32.6010   27.3640 N   0  0  0  0  0  0  0  0  0  0  0  0
  -28.1390  -33.5140   26.9220 C   0  0  0  0  0  0  0  0  0  0  0  0
  -29.0560  -33.2390   26.1430 O   0  0  0  0  0  0  0  0  0  0  0  0
  -26.5100  -32.9100   27.9610 H   0  0  0  0  0  0  0  0  0  0  0  0
  -27.3690  -35.8280   26.3090 C   0  0  0  0  0  1  0  0  0  0  0  0
  -27.9700  -34.9590   27.4250 C   0  0  0  0  0  3  0  0  0  0  0  0
  -29.7390  -34.9620   29.1320 C   0  0  0  0  0  1  0  0  0  0  0  0
  -29.2340  -35.5660   27.9020 N   0  0  0  0  0  0  0  0  0  0  0  0
  -29.1170  -36.5630   28.0620 H   0  0  0  0  0  0  0  0  0  0  0  0
  -27.1860  -30.2240   28.1610 C   0  0  1  0  0  0  0  0  0  0  0  0
  -25.8310  -30.2200   28.9060 C   0  0  0  0  0  1  0  0  0  0  0  0
  -27.4860  -28.7710   27.7200 C   0  0  0  0  0  1  0  0  0  0  0  0
  -28.2870  -30.6150   29.1750 C   0  0  0  0  0  1  0  0  0  0  0  0
  2  5  1  0
  3  1  1  0
  4  6  1  0
  4  2  1  0
  5  1  1  0
  5 57  1  0
  6  7  1  1
  6  3  1  0
  8  6  1  0
  9  8  1  0
 10  9  1  0
 11 12  1  0
 11 10  1  0
 13 12  1  0
 13 14  1  0
 15 16  1  0
 15 14  1  0
 17 18  1  0
 17 16  1  0
 19 26  2  0
 20 21  1  0
 22 21  1  0
 23 24  1  0
 23 22  1  0
 24 25  1  0
 25 20  1  0
 25 19  1  0
 27 19  1  0
 27 18  1  0
 28 27  1  0
 29 54  1  0
 30 49  1  0
 30 29  2  0
 31 33  2  0
 31 30  1  0
 32 29  1  0
 32 23  1  0
 33 32  1  0
 34 39  1  0
 34 31  1  0
 35 34  2  0
 36 37  2  0
 36 35  1  0
 37 38  1  0
 38 39  2  0
 40 37  1  0
 41 40  1  0
 42 41  2  0
 43 42  1  0
 44 43  2  0
 44 45  1  0
 45 46  2  0
 46 41  1  0
 46 47  1  0
 48 44  1  0
 49 51  2  0
 50 49  1  0
 52 50  1  0
 53 50  1  0
 54 55  1  0
 54 56  1  0
 58 57  1  0
 58 59  1  0
 59 61  1  0
 60 71  2  0
 61 66  1  0
 62 72  1  0
 62 70  1  0
 63 69  1  0
 63 65  1  0
 64 70  1  0
 65 64  1  0
 66 65  2  0
 67 68  1  0
 67 61  2  0
 68 63  2  0
 69 62  1  0
 70 60  1  0
 72 74  2  0
 73 72  1  0
 75 73  1  0
 76 81  1  0
 77 73  1  0
 78 77  1  0
 79 80  1  0
 79 78  1  0
 80 76  1  0
 81 77  1  0
 81 82  2  0
 83 82  1  0
 84 83  2  0
 85 76  2  0
 85 84  1  0
 86 60  1  0
 86 87  1  0
 86 96  1  0
 87 90  1  0
 88 87  1  0
 88 92  1  0
 89 88  2  0
 92 91  1  0
 92 94  1  0
 94 95  1  0
 94 93  1  0
 96 97  1  1
 96 99  1  0
 98 96  1  0
M  ISO  4  19 100  27 100  58 101  59 101
M  END
>  <TORSDO>  (79) 
F 29

>  <SCORE>  (79) 
-1.155

>  <name>  (79) 
81

>  <ligand_id>  (79) 
81

>  <original_smiles>  (79) 
[H]c1c([H])c([H])c2c(c1[H])C([H])([H])C([H])([H])C([H])([H])C2([H])N([H])C(=O)C1([H])N(C(=O)C([H])(N([H])C(=O)C([H])(N([H])C([H])([H])[H])C([H])([H])[H])C(C([H])([H])[H])(C([H])([H])[H])C([H])([H])[H])C([H])([H])c2c([H])c(OC([H])([H])C([H])([H])N3C([H])([H])C([H])([H])[N+]([H])(C([H])([H])C([H])([H])C([H])([H])C([H])([H])C([H])([H])C([H])([H])C([H])([H])C([H])([H])C([H])([H])C([H])([H])C([H])([H])N([H])C(=O)N4C([H])([H])C([H])([H])C([H])([H])C([H])(n5nc(-c6c([H])c([H])c(Oc7c([H])c([H])c(F)c([H])c7F)c([H])c6[H])c(C(=O)N([H])[H])c5N([H])[H])C4([H])[H])C([H])([H])C3([H])[H])c([H])c([H])c2C1([H])[H]

>  <smiles>  (79) 
[H]c1c([H])c([H])c2c(c1[H])C([H])([H])C([H])([H])C([H])([H])C2([H])N([H])C(=O)C1([H])N(C(=O)C([H])(N([H])C(=O)C([H])(N([H])C([H])([H])[H])C([H])([H])[H])C(C([H])([H])[H])(C([H])([H])[H])C([H])([H])[H])C([H])([H])c2c([H])c(OC([H])([H])C([H])([H])N3C([H])([H])C([H])([H])[N+]([H])(C([H])([H])C([H])([H])C([H])([H])C([H])([H])C([H])([H])C([H])([H])C([H])([H])C([H])([H])C([H])([H])C([H])([H])C([H])([H])N([H])C(=O)N4C([H])([H])C([H])([H])C([H])([H])C([H])(n5nc(-c6c([H])c([H])c(Oc7c([H])c([H])c(F)c([H])c7F)c([H])c6[H])c(C(=O)N([H])[H])c5N([H])[H])C4([H])[H])C([H])([H])C3([H])[H])c([H])c([H])c2C1([H])[H]

$$$$
82:0:0
     RDKit          3D

104111  0  0  1  0  0  0  0  0999 V2000
  -28.4970  -19.3350   26.2370 C   0  0  0  0  0  2  0  0  0  0  0  0
  -28.2180  -18.5430   25.0880 O   0  0  0  0  0  0  0  0  0  0  0  0
  -27.5270  -19.2390   24.0560 C   0  0  0  0  0  2  0  0  0  0  0  0
  -28.5170  -20.0780   23.2290 C   0  0  0  0  0  2  0  0  0  0  0  0
  -29.2330  -19.1970   22.3740 O   0  0  0  0  0  0  0  0  0  0  0  0
  -30.3780  -19.7950   21.7850 C   0  0  0  0  0  2  0  0  0  0  0  0
  -30.5190  -19.2530   20.3580 C   0  0  0  0  0  2  0  0  0  0  0  0
  -31.2360  -18.0240   20.4010 O   0  0  0  0  0  0  0  0  0  0  0  0
  -31.3670  -17.4170   19.1220 C   0  0  0  0  0  2  0  0  0  0  0  0
  -32.5020  -16.3910   19.2240 C   0  0  0  0  0  2  0  0  0  0  0  0
  -32.1820  -15.3430   20.2210 N   0  0  0  0  0  4  0  0  0  0  0  0
  -31.8910  -15.8060   21.0720 H   0  0  0  0  0  0  0  0  0  0  0  0
  -31.4040  -14.7950   19.8930 H   0  0  0  0  0  0  0  0  0  0  0  0
  -33.3020  -14.4290   20.5260 C   0  0  0  0  0  2  0  0  0  0  0  0
  -32.8530  -13.2290   21.3860 C   0  0  0  0  0  2  0  0  0  0  0  0
  -31.7650  -11.8870   19.5920 C   0  0  0  0  0  0  0  0  0  0  0  0
  -30.5250  -10.4870   17.9850 C   0  0  0  0  0  2  0  0  0  0  0  0
  -29.6020  -11.3360   17.0920 C   0  0  0  0  0  2  0  0  0  0  0  0
  -28.2390  -11.5650   17.7730 C   0  0  0  0  0  2  0  0  0  0  0  0
  -28.3820  -12.0650   19.2340 C   0  0  0  0  0  3  0  0  0  0  0  0
  -29.3800  -11.1830   20.0180 C   0  0  0  0  0  2  0  0  0  0  0  0
  -30.6610  -11.1620   19.2840 N   0  0  0  0  0  0  0  0  0  0  0  0
  -32.7410  -11.9980   18.8450 O   0  0  0  0  0  0  0  0  0  0  0  0
  -31.7420  -12.4810   20.7920 N   0  0  0  0  0  0  0  0  0  0  0  0
  -30.9360  -12.2900   21.3720 H   0  0  0  0  0  0  0  0  0  0  0  0
  -26.3490  -13.2460   20.2880 C   0  0  0  0  0  0  0  0  0  0  0  0
  -25.1810  -12.7620   20.8120 C   0  0  0  0  0  0  0  0  0  0  0  0
  -25.2620  -11.3400   20.7050 C   0  0  0  0  0  0  0  0  0  0  0  0
  -27.0840  -12.1350   19.9030 N   0  0  0  0  0  0  0  0  0  0  0  0
  -26.4370  -10.9800   20.2070 N   0  0  0  0  0  0  0  0  0  0  0  0
  -24.2650  -10.3010   20.9950 C   0  0  0  0  0  0  0  0  0  0  0  0
  -24.5620   -9.2060   21.8360 C   0  0  0  0  0  3  0  0  0  0  0  0
  -23.5810   -8.2300   22.1130 C   0  0  0  0  0  3  0  0  0  0  0  0
  -22.2880   -8.3440   21.5510 C   0  0  0  0  0  0  0  0  0  0  0  0
  -22.0040   -9.4230   20.6970 C   0  0  0  0  0  3  0  0  0  0  0  0
  -22.9820  -10.3920   20.4170 C   0  0  0  0  0  3  0  0  0  0  0  0
  -21.2800   -7.4300   21.7450 O   0  0  0  0  0  0  0  0  0  0  0  0
  -21.2090   -6.6680   22.8840 C   0  0  0  0  0  0  0  0  0  0  0  0
  -21.1490   -7.2510   24.1680 C   0  0  0  0  0  3  0  0  0  0  0  0
  -21.0060   -6.4330   25.3070 C   0  0  0  0  0  3  0  0  0  0  0  0
  -20.9120   -5.0350   25.1640 C   0  0  0  0  0  0  0  0  0  0  0  0
  -20.9660   -4.4530   23.8850 C   0  0  0  0  0  3  0  0  0  0  0  0
  -21.1110   -5.2680   22.7480 C   0  0  0  0  0  0  0  0  0  0  0  0
  -21.1410   -4.7030   21.5160 F   0  0  0  0  0  0  0  0  0  0  0  0
  -20.7670   -4.2500   26.2560 F   0  0  0  0  0  0  0  0  0  0  0  0
  -24.0120  -13.5720   21.2930 C   0  0  0  0  0  0  0  0  0  0  0  0
  -23.2810  -13.0670   22.2810 N   0  0  0  0  0  0  0  0  0  0  0  0
  -23.7680  -14.6830   20.8250 O   0  0  0  0  0  0  0  0  0  0  0  0
  -23.4930  -12.1650   22.6790 H   0  0  0  0  0  0  0  0  0  0  0  0
  -22.4980  -13.5920   22.6450 H   0  0  0  0  0  0  0  0  0  0  0  0
  -26.8400  -14.5330   20.0890 N   0  0  0  0  0  0  0  0  0  0  0  0
  -26.2770  -15.3530   20.2880 H   0  0  0  0  0  0  0  0  0  0  0  0
  -27.6770  -14.7420   19.5640 H   0  0  0  0  0  0  0  0  0  0  0  0
  -29.9730  -19.7450   26.2200 C   0  0  0  0  0  2  0  0  0  0  0  0
  -30.2120  -20.5780   25.0890 O   0  0  0  0  0  0  0  0  0  0  0  0
  -31.5650  -21.0060   24.9810 C   0  0  0  0  0  2  0  0  0  0  0  0
  -31.6160  -22.5440   24.9790 C   0  0  0  0  0  2  0  0  0  0  0  0
  -30.9940  -23.3960   22.7410 C   0  0  0  0  0  0  0  0  0  0  0  0
  -30.6860  -23.1360   24.0180 N   0  0  0  0  0  0  0  0  0  0  0  0
  -32.0590  -23.0360   22.2390 O   0  0  0  0  0  0  0  0  0  0  0  0
  -29.7840  -23.4260   24.3720 H   0  0  0  0  0  0  0  0  0  0  0  0
  -29.9790  -24.1720   21.8930 C   0  0  0  0  0  2  0  0  0  0  0  0
  -30.4190  -25.6310   21.6460 C   0  0  0  0  0  2  0  0  0  0  0  0
  -29.9860  -26.0750   20.3620 O   0  0  0  0  0  0  0  0  0  0  0  0
  -24.8630  -30.2170   23.1020 C   0  0  0  0  0  0  0  0  0  0  0  0
  -28.7100  -26.5690   20.2950 C   0  0  0  0  0  0  0  0  0  0  0  0
  -24.1860  -28.7230   21.2460 C   0  0  0  0  0  3  0  0  0  0  0  0
  -26.0920  -27.5700   20.0050 C   0  0  0  0  0  0  0  0  0  0  0  0
  -26.5920  -29.5610   21.4330 C   0  0  0  0  0  2  0  0  0  0  0  0
  -27.0270  -28.2690   20.7790 C   0  0  0  0  0  0  0  0  0  0  0  0
  -28.3400  -27.7740   20.9330 C   0  0  0  0  0  3  0  0  0  0  0  0
  -27.7660  -25.8780   19.5110 C   0  0  0  0  0  3  0  0  0  0  0  0
  -26.4540  -26.3680   19.3710 C   0  0  0  0  0  3  0  0  0  0  0  0
  -24.7130  -28.1770   19.8910 C   0  0  0  0  0  2  0  0  0  0  0  0
  -25.2200  -29.5150   21.9890 N   0  0  0  0  0  0  0  0  0  0  0  0
  -23.6870  -30.2480   23.4880 O   0  0  0  0  0  0  0  0  0  0  0  0
  -23.6200  -27.5400   22.0640 C   0  0  0  0  0  0  0  0  0  0  0  0
  -22.3770  -27.1390   21.7530 N   0  0  0  0  0  0  0  0  0  0  0  0
  -24.3000  -26.9890   22.9340 O   0  0  0  0  0  0  0  0  0  0  0  0
  -21.8780  -27.6520   21.0390 H   0  0  0  0  0  0  0  0  0  0  0  0
  -19.2330  -25.3640   21.7560 C   0  0  0  0  0  0  0  0  0  0  0  0
  -21.6580  -26.0220   22.3630 C   0  0  0  0  0  3  0  0  0  0  0  0
  -22.0740  -24.6760   21.7250 C   0  0  0  0  0  2  0  0  0  0  0  0
  -21.1700  -24.2530   20.5630 C   0  0  0  0  0  2  0  0  0  0  0  0
  -19.7190  -24.1170   21.0350 C   0  0  0  0  0  2  0  0  0  0  0  0
  -20.1450  -26.2660   22.3660 C   0  0  0  0  0  0  0  0  0  0  0  0
  -19.6430  -27.4280   22.9900 C   0  0  0  0  0  3  0  0  0  0  0  0
  -18.2610  -27.6930   23.0160 C   0  0  0  0  0  3  0  0  0  0  0  0
  -17.3620  -26.7900   22.4250 C   0  0  0  0  0  3  0  0  0  0  0  0
  -17.8480  -25.6260   21.8000 C   0  0  0  0  0  3  0  0  0  0  0  0
  -25.9090  -31.0320   23.9270 C   0  0  0  0  0  3  0  0  0  0  0  0
  -25.3040  -32.3310   24.2470 N   0  0  0  0  0  0  0  0  0  0  0  0
  -25.5380  -33.4660   23.5730 C   0  0  0  0  0  0  0  0  0  0  0  0
  -26.3520  -33.5400   22.6490 O   0  0  0  0  0  0  0  0  0  0  0  0
  -24.5870  -32.3350   24.9570 H   0  0  0  0  0  0  0  0  0  0  0  0
  -23.5670  -34.9260   23.0210 C   0  0  0  0  0  1  0  0  0  0  0  0
  -24.7390  -34.7150   23.9910 C   0  0  0  0  0  3  0  0  0  0  0  0
  -26.5280  -35.9360   25.1490 C   0  0  0  0  0  1  0  0  0  0  0  0
  -25.5580  -35.9430   24.0550 N   0  0  0  0  0  0  0  0  0  0  0  0
  -24.9690  -36.7640   24.1610 H   0  0  0  0  0  0  0  0  0  0  0  0
  -26.3800  -30.2950   25.2390 C   0  0  1  0  0  0  0  0  0  0  0  0
  -25.2160  -29.8110   26.1320 C   0  0  0  0  0  1  0  0  0  0  0  0
  -27.2530  -29.0660   24.8870 C   0  0  0  0  0  1  0  0  0  0  0  0
  -27.2610  -31.2430   26.0870 C   0  0  0  0  0  1  0  0  0  0  0  0
  2  1  1  0
  3  2  1  0
  4  3  1  0
  5  4  1  0
  6  5  1  0
  7  8  1  0
  7  6  1  0
  9 10  1  0
  9  8  1  0
 10 11  1  0
 11 14  1  0
 11 12  1  0
 13 11  1  0
 14 15  1  0
 16 24  1  0
 17 22  1  0
 18 19  1  0
 18 17  1  0
 20 19  1  0
 20 29  1  0
 20 21  1  0
 22 16  1  0
 22 21  1  0
 23 16  2  0
 24 25  1  0
 24 15  1  0
 26 27  2  0
 27 46  1  0
 28 27  1  0
 28 31  1  0
 29 30  1  0
 29 26  1  0
 30 28  2  0
 31 32  1  0
 32 33  2  0
 34 37  1  0
 34 33  1  0
 35 34  2  0
 36 35  1  0
 36 31  2  0
 37 38  1  0
 38 39  1  0
 39 40  2  0
 41 40  1  0
 41 45  1  0
 42 41  2  0
 43 38  2  0
 43 42  1  0
 44 43  1  0
 46 47  1  0
 47 50  1  0
 47 49  1  0
 48 46  2  0
 51 52  1  0
 51 26  1  0
 53 51  1  0
 54  1  1  0
 55 54  1  0
 56 55  1  0
 57 56  1  0
 58 59  1  0
 59 61  1  0
 59 57  1  0
 60 58  2  0
 62 58  1  0
 63 62  1  0
 64 63  1  0
 65 76  2  0
 66 64  1  0
 66 71  1  0
 67 75  1  0
 67 77  1  0
 68 70  1  0
 69 75  1  0
 70 71  2  0
 70 69  1  0
 72 66  2  0
 73 72  1  0
 73 68  2  0
 74 68  1  0
 74 67  1  0
 75 65  1  0
 77 79  2  0
 78 77  1  0
 80 78  1  0
 81 90  2  0
 81 86  1  0
 82 78  1  0
 82 86  1  0
 83 82  1  0
 84 85  1  0
 84 83  1  0
 85 81  1  0
 86 87  2  0
 87 88  1  0
 89 88  2  0
 90 89  1  0
 91 65  1  0
 91 92  1  0
 91101  1  0
 92 95  1  0
 93 97  1  0
 93 92  1  0
 94 93  2  0
 97 96  1  0
 97 99  1  0
 99100  1  0
 99 98  1  0
101104  1  1
101102  1  0
103101  1  0
M  ISO  4  16 100  24 100  63 101  64 101
M  END
>  <TORSDO>  (80) 
F 35

>  <SCORE>  (80) 
17.707

>  <name>  (80) 
82

>  <ligand_id>  (80) 
82

>  <original_smiles>  (80) 
[H]c1c([H])c([H])c2c(c1[H])C([H])([H])C([H])([H])C([H])([H])C2([H])N([H])C(=O)C1([H])N(C(=O)C([H])(N([H])C(=O)C([H])(N([H])C([H])([H])[H])C([H])([H])[H])C(C([H])([H])[H])(C([H])([H])[H])C([H])([H])[H])C([H])([H])c2c([H])c(OC([H])([H])C([H])([H])C(=O)N([H])C([H])([H])C([H])([H])OC([H])([H])C([H])([H])OC([H])([H])C([H])([H])OC([H])([H])C([H])([H])OC([H])([H])C([H])([H])[N+]([H])([H])C([H])([H])C([H])([H])N([H])C(=O)N3C([H])([H])C([H])([H])C([H])([H])C([H])(n4nc(-c5c([H])c([H])c(Oc6c([H])c([H])c(F)c([H])c6F)c([H])c5[H])c(C(=O)N([H])[H])c4N([H])[H])C3([H])[H])c([H])c([H])c2C1([H])[H]

>  <smiles>  (80) 
[H]c1c([H])c([H])c2c(c1[H])C([H])([H])C([H])([H])C([H])([H])C2([H])N([H])C(=O)C1([H])N(C(=O)C([H])(N([H])C(=O)C([H])(N([H])C([H])([H])[H])C([H])([H])[H])C(C([H])([H])[H])(C([H])([H])[H])C([H])([H])[H])C([H])([H])c2c([H])c(OC([H])([H])C([H])([H])C(=O)N([H])C([H])([H])C([H])([H])OC([H])([H])C([H])([H])OC([H])([H])C([H])([H])OC([H])([H])C([H])([H])OC([H])([H])C([H])([H])[N+]([H])([H])C([H])([H])C([H])([H])N([H])C(=O)N3C([H])([H])C([H])([H])C([H])([H])C([H])(n4nc(-c5c([H])c([H])c(Oc6c([H])c([H])c(F)c([H])c6F)c([H])c5[H])c(C(=O)N([H])[H])c4N([H])[H])C3([H])[H])c([H])c([H])c2C1([H])[H]

$$$$
83:0:0
     RDKit          3D

107112  0  0  1  0  0  0  0  0999 V2000
  -21.8620  -16.6020   17.9730 C   0  0  0  0  0  2  0  0  0  0  0  0
  -21.4970  -15.3630   17.1250 C   0  0  0  0  0  2  0  0  0  0  0  0
  -21.2190  -14.0870   17.9660 C   0  0  0  0  0  2  0  0  0  0  0  0
  -21.5590  -11.7220   17.9430 C   0  0  0  0  0  2  0  0  0  0  0  0
  -23.1750  -13.0930   18.9740 C   0  0  0  0  0  2  0  0  0  0  0  0
  -22.5580  -10.5370   17.8860 C   0  0  0  0  0  2  0  0  0  0  0  0
  -24.2180  -11.9620   18.9080 C   0  0  0  0  0  2  0  0  0  0  0  0
  -22.2370  -13.0260   17.8450 N   0  0  0  0  0  0  0  0  0  0  0  0
  -23.5720  -10.6340   18.9710 N   0  0  2  0  0  4  0  0  0  0  0  0
  -23.0510  -10.5770   19.8310 H   0  0  0  0  0  0  0  0  0  0  0  0
  -24.5780   -9.5330   18.9750 C   0  0  0  0  0  2  0  0  0  0  0  0
  -25.0290   -9.0650   20.3950 C   0  0  0  0  0  2  0  0  0  0  0  0
  -26.5270   -8.7070   20.5000 C   0  0  0  0  0  2  0  0  0  0  0  0
  -26.9410   -7.6170   21.5490 C   0  0  0  0  0  2  0  0  0  0  0  0
  -28.0800   -7.8670   22.6190 C   0  0  0  0  0  2  0  0  0  0  0  0
  -29.5540   -8.2100   22.1920 C   0  0  0  0  0  2  0  0  0  0  0  0
  -31.3890  -10.5840   22.0500 C   0  0  2  0  0  0  0  0  0  0  0  0
  -32.2550   -9.2680   21.7060 C   0  0  0  0  0  1  0  0  0  0  0  0
  -31.2010   -9.2690   20.1040 C   0  0  0  0  0  1  0  0  0  0  0  0
  -29.7300  -10.2680   20.0770 C   0  0  0  0  0  2  0  0  0  0  0  0
  -29.4150  -11.5940   21.2020 C   0  0  0  0  0  2  0  0  0  0  0  0
  -30.4880  -11.7520   22.7280 C   0  0  0  0  0  1  0  0  0  0  0  0
  -31.8060  -10.5510   22.9270 N   0  0  0  0  0  1  0  0  0  0  0  0
  -32.1200  -11.3850   21.1790 O   0  0  0  0  0  1  0  0  0  0  0  0
  -30.2040   -9.5380   22.5410 N   0  0  0  0  0  2  0  0  0  0  0  0
  -30.1870   -9.6260   23.5450 H   0  0  0  0  0  0  0  0  0  0  0  0
  -27.3340  -13.0720   21.4400 C   0  0  0  0  0  0  0  0  0  0  0  0
  -26.0180  -12.8460   21.7450 C   0  0  0  0  0  0  0  0  0  0  0  0
  -25.8790  -11.4400   21.9200 C   0  0  0  0  0  0  0  0  0  0  0  0
  -27.9760  -11.8530   21.4730 N   0  0  0  0  0  0  0  0  0  0  0  0
  -27.0900  -10.8780   21.8310 N   0  0  0  0  0  0  0  0  0  0  0  0
  -24.6560  -10.6300   22.1370 C   0  0  0  0  0  0  0  0  0  0  0  0
  -24.6830   -9.4200   22.8680 C   0  0  0  0  0  3  0  0  0  0  0  0
  -23.4970   -8.6880   23.1020 C   0  0  0  0  0  3  0  0  0  0  0  0
  -22.2550   -9.1610   22.6100 C   0  0  0  0  0  0  0  0  0  0  0  0
  -22.2330  -10.3520   21.8670 C   0  0  0  0  0  3  0  0  0  0  0  0
  -23.4130  -11.0810   21.6350 C   0  0  0  0  0  3  0  0  0  0  0  0
  -21.0520   -8.5170   22.7790 O   0  0  0  0  0  0  0  0  0  0  0  0
  -20.9380   -7.3720   23.5270 C   0  0  0  0  0  0  0  0  0  0  0  0
  -21.0250   -7.3870   24.9360 C   0  0  0  0  0  3  0  0  0  0  0  0
  -20.8300   -6.1970   25.6660 C   0  0  0  0  0  3  0  0  0  0  0  0
  -20.5410   -4.9940   24.9930 C   0  0  0  0  0  0  0  0  0  0  0  0
  -20.4430   -4.9790   23.5900 C   0  0  0  0  0  3  0  0  0  0  0  0
  -20.6360   -6.1640   22.8590 C   0  0  0  0  0  0  0  0  0  0  0  0
  -20.5180   -6.1460   21.5080 F   0  0  0  0  0  0  0  0  0  0  0  0
  -20.3460   -3.8550   25.6940 F   0  0  0  0  0  0  0  0  0  0  0  0
  -24.9380  -13.8850   21.7850 C   0  0  0  0  0  0  0  0  0  0  0  0
  -23.8850  -13.6550   22.5590 N   0  0  0  0  0  0  0  0  0  0  0  0
  -25.0500  -14.9370   21.1600 O   0  0  0  0  0  0  0  0  0  0  0  0
  -23.7860  -12.7980   23.0810 H   0  0  0  0  0  0  0  0  0  0  0  0
  -23.1590  -14.3530   22.6300 H   0  0  0  0  0  0  0  0  0  0  0  0
  -28.0340  -14.2280   21.1210 N   0  0  0  0  0  0  0  0  0  0  0  0
  -27.5920  -15.1400   21.1040 H   0  0  0  0  0  0  0  0  0  0  0  0
  -29.0210  -14.2620   20.9000 H   0  0  0  0  0  0  0  0  0  0  0  0
  -22.8410  -17.6120   17.3260 C   0  0  0  0  0  2  0  0  0  0  0  0
  -23.7170  -18.3030   18.4000 C   0  0  0  0  0  2  0  0  0  0  0  0
  -24.9450  -19.0590   17.8620 C   0  0  0  0  0  2  0  0  0  0  0  0
  -25.9640  -19.4060   18.9690 C   0  0  0  0  0  2  0  0  0  0  0  0
  -26.9810  -20.4400   18.4760 C   0  0  0  0  0  2  0  0  0  0  0  0
  -28.6620  -21.9330   19.4440 C   0  0  0  0  0  0  0  0  0  0  0  0
  -28.0120  -20.7630   19.4630 N   0  0  0  0  0  0  0  0  0  0  0  0
  -28.3340  -22.8300   18.6670 O   0  0  0  0  0  0  0  0  0  0  0  0
  -28.3010  -20.0500   20.1230 H   0  0  0  0  0  0  0  0  0  0  0  0
  -29.8480  -22.1220   20.4050 C   0  0  0  0  0  2  0  0  0  0  0  0
  -29.9720  -23.5630   20.9740 C   0  0  0  0  0  2  0  0  0  0  0  0
  -30.8290  -24.5180   20.0910 C   0  0  0  0  0  2  0  0  0  0  0  0
  -30.7920  -25.8790   20.5280 O   0  0  0  0  0  0  0  0  0  0  0  0
  -25.9120  -29.4200   24.2220 C   0  0  0  0  0  0  0  0  0  0  0  0
  -29.5750  -26.5150   20.4730 C   0  0  0  0  0  0  0  0  0  0  0  0
  -25.1910  -28.6020   21.9940 C   0  0  0  0  0  3  0  0  0  0  0  0
  -27.0470  -27.7740   20.4770 C   0  0  0  0  0  0  0  0  0  0  0  0
  -27.6380  -29.1810   22.4460 C   0  0  0  0  0  2  0  0  0  0  0  0
  -28.0060  -28.1200   21.4380 C   0  0  0  0  0  0  0  0  0  0  0  0
  -29.2710  -27.4960   21.4390 C   0  0  0  0  0  3  0  0  0  0  0  0
  -28.6040  -26.2070   19.4890 C   0  0  0  0  0  3  0  0  0  0  0  0
  -27.3460  -26.8260   19.4910 C   0  0  0  0  0  3  0  0  0  0  0  0
  -25.7120  -28.4720   20.5410 C   0  0  0  0  0  2  0  0  0  0  0  0
  -26.2490  -29.0770   22.9460 N   0  0  0  0  0  0  0  0  0  0  0  0
  -24.7300  -29.3980   24.5930 O   0  0  0  0  0  0  0  0  0  0  0  0
  -24.5370  -27.2700   22.4140 C   0  0  0  0  0  0  0  0  0  0  0  0
  -23.3370  -27.0060   21.8730 N   0  0  0  0  0  0  0  0  0  0  0  0
  -25.1150  -26.4980   23.1810 O   0  0  0  0  0  0  0  0  0  0  0  0
  -22.9470  -27.6920   21.2410 H   0  0  0  0  0  0  0  0  0  0  0  0
  -20.3270  -25.2810   20.8290 C   0  0  0  0  0  0  0  0  0  0  0  0
  -22.5420  -25.7910   22.0730 C   0  0  0  0  0  3  0  0  0  0  0  0
  -23.1400  -24.6070   21.2780 C   0  0  0  0  0  2  0  0  0  0  0  0
  -22.5110  -24.4230   19.8910 C   0  0  0  0  0  2  0  0  0  0  0  0
  -21.0010  -24.1950   20.0050 C   0  0  0  0  0  2  0  0  0  0  0  0
  -21.0540  -26.0380   21.7900 C   0  0  0  0  0  0  0  0  0  0  0  0
  -20.3880  -27.0560   22.5050 C   0  0  0  0  0  3  0  0  0  0  0  0
  -19.0290  -27.3300   22.2740 C   0  0  0  0  0  3  0  0  0  0  0  0
  -18.3090  -26.5700   21.3370 C   0  0  0  0  0  3  0  0  0  0  0  0
  -18.9540  -25.5430   20.6220 C   0  0  0  0  0  3  0  0  0  0  0  0
  -26.9870  -29.8710   25.2670 C   0  0  0  0  0  3  0  0  0  0  0  0
  -26.7010  -31.2650   25.6130 N   0  0  0  0  0  0  0  0  0  0  0  0
  -27.4500  -32.3100   25.2280 C   0  0  0  0  0  0  0  0  0  0  0  0
  -28.5030  -32.1860   24.5960 O   0  0  0  0  0  0  0  0  0  0  0  0
  -25.8170  -31.4460   26.0670 H   0  0  0  0  0  0  0  0  0  0  0  0
  -26.3410  -34.4050   24.3740 C   0  0  0  0  0  1  0  0  0  0  0  0
  -26.9480  -33.7150   25.6090 C   0  0  0  0  0  3  0  0  0  0  0  0
  -28.4370  -34.1470   27.5140 C   0  0  0  0  0  1  0  0  0  0  0  0
  -27.9940  -34.5860   26.1920 N   0  0  0  0  0  0  0  0  0  0  0  0
  -27.6560  -35.5420   26.2700 H   0  0  0  0  0  0  0  0  0  0  0  0
  -27.0200  -28.9660   26.5610 C   0  0  1  0  0  0  0  0  0  0  0  0
  -25.6410  -28.8190   27.2450 C   0  0  0  0  0  1  0  0  0  0  0  0
  -27.5350  -27.5480   26.2150 C   0  0  0  0  0  1  0  0  0  0  0  0
  -27.9970  -29.5620   27.5980 C   0  0  0  0  0  1  0  0  0  0  0  0
  2  3  1  0
  2  1  1  0
  6  4  1  0
  6  9  1  0
  7  9  1  0
  7  5  1  0
  8  4  1  0
  8  3  1  0
  8  5  1  0
  9 11  1  0
  9 10  1  1
 11 12  1  0
 12 13  1  0
 13 14  1  0
 14 15  1  0
 16 25  1  0
 16 15  1  0
 17 22  1  1
 17 23  1  0
 18 17  1  0
 20 19  1  0
 20 21  1  0
 21 30  1  0
 24 17  1  0
 25 26  1  0
 27 30  1  0
 27 28  2  0
 28 47  1  0
 28 29  1  0
 29 32  1  0
 30 31  1  0
 31 29  2  0
 32 33  1  0
 33 34  2  0
 35 38  1  0
 35 34  1  0
 36 35  2  0
 37 36  1  0
 37 32  2  0
 38 39  1  0
 39 40  1  0
 40 41  2  0
 42 41  1  0
 42 46  1  0
 43 42  2  0
 44 39  2  0
 44 43  1  0
 45 44  1  0
 47 48  1  0
 48 51  1  0
 48 50  1  0
 49 47  2  0
 52 27  1  0
 53 52  1  0
 54 52  1  0
 55  1  1  0
 55 56  1  0
 57 56  1  0
 57 58  1  0
 59 58  1  0
 59 61  1  0
 60 61  1  0
 60 64  1  0
 61 63  1  0
 62 60  2  0
 64 65  1  0
 66 67  1  0
 66 65  1  0
 68 79  2  0
 69 67  1  0
 69 74  1  0
 70 80  1  0
 70 78  1  0
 71 77  1  0
 71 73  1  0
 72 78  1  0
 73 74  2  0
 73 72  1  0
 75 76  1  0
 75 69  2  0
 76 71  2  0
 77 70  1  0
 78 68  1  0
 80 82  2  0
 81 80  1  0
 83 81  1  0
 84 89  1  0
 85 81  1  0
 86 85  1  0
 87 88  1  0
 87 86  1  0
 88 84  1  0
 89 85  1  0
 89 90  2  0
 91 90  1  0
 92 91  2  0
 93 84  2  0
 93 92  1  0
 94 68  1  0
 94 95  1  0
 94104  1  0
 95 98  1  0
 96100  1  0
 96 95  1  0
 97 96  2  0
100 99  1  0
100102  1  0
102103  1  0
102101  1  0
104105  1  1
104107  1  0
106104  1  0
M  ISO  4  17 100  25 100  66 101  67 101
M  END
>  <TORSDO>  (81) 
F 34

>  <SCORE>  (81) 
16.944

>  <name>  (81) 
83

>  <ligand_id>  (81) 
83

>  <original_smiles>  (81) 
[H]c1c([H])c([H])c2c(c1[H])C([H])([H])C([H])([H])C([H])([H])C2([H])N([H])C(=O)C1([H])N(C(=O)C([H])(N([H])C(=O)C([H])(N([H])C([H])([H])[H])C([H])([H])[H])C(C([H])([H])[H])(C([H])([H])[H])C([H])([H])[H])C([H])([H])c2c([H])c(OC([H])([H])C([H])([H])C([H])([H])C(=O)N([H])C([H])([H])C([H])([H])C([H])([H])C([H])([H])C([H])([H])C([H])([H])C([H])([H])C([H])([H])N3C([H])([H])C([H])([H])[N+]([H])(C([H])([H])C([H])([H])C([H])([H])C([H])([H])C([H])([H])C([H])([H])N([H])C(=O)N4C([H])([H])C([H])([H])C([H])([H])C([H])(n5nc(-c6c([H])c([H])c(Oc7c([H])c([H])c(F)c([H])c7F)c([H])c6[H])c(C(=O)N([H])[H])c5N([H])[H])C4([H])[H])C([H])([H])C3([H])[H])c([H])c([H])c2C1([H])[H]

>  <smiles>  (81) 
[H]c1c([H])c([H])c2c(c1[H])C([H])([H])C([H])([H])C([H])([H])C2([H])N([H])C(=O)C1([H])N(C(=O)C([H])(N([H])C(=O)C([H])(N([H])C([H])([H])[H])C([H])([H])[H])C(C([H])([H])[H])(C([H])([H])[H])C([H])([H])[H])C([H])([H])c2c([H])c(OC([H])([H])C([H])([H])C([H])([H])C(=O)N([H])C([H])([H])C([H])([H])C([H])([H])C([H])([H])C([H])([H])C([H])([H])C([H])([H])C([H])([H])N3C([H])([H])C([H])([H])[N+]([H])(C([H])([H])C([H])([H])C([H])([H])C([H])([H])C([H])([H])C([H])([H])N([H])C(=O)N4C([H])([H])C([H])([H])C([H])([H])C([H])(n5nc(-c6c([H])c([H])c(Oc7c([H])c([H])c(F)c([H])c7F)c([H])c6[H])c(C(=O)N([H])[H])c5N([H])[H])C4([H])[H])C([H])([H])C3([H])[H])c([H])c([H])c2C1([H])[H]

$$$$
84:0:0
     RDKit          3D

102110  0  0  1  0  0  0  0  0999 V2000
  -27.5050  -17.5290   21.4010 C   0  0  0  0  0  2  0  0  0  0  0  0
  -26.6640  -15.5140   22.4350 C   0  0  0  0  0  2  0  0  0  0  0  0
  -28.2120  -15.3310   20.6100 C   0  0  0  0  0  2  0  0  0  0  0  0
  -26.2070  -14.0580   22.2240 C   0  0  0  0  0  2  0  0  0  0  0  0
  -27.8210  -13.8480   20.4080 C   0  0  0  0  0  2  0  0  0  0  0  0
  -27.1190  -16.1330   21.1860 N   0  0  0  0  0  0  0  0  0  0  0  0
  -27.3490  -13.2780   21.6950 N   0  0  2  0  0  4  0  0  0  0  0  0
  -28.0850  -13.4400   22.3640 H   0  0  0  0  0  0  0  0  0  0  0  0
  -27.1630  -11.8050   21.7070 C   0  0  0  0  0  2  0  0  0  0  0  0
  -28.4630  -11.0830   22.1150 C   0  0  0  0  0  2  0  0  0  0  0  0
  -29.4570  -12.0490   22.4690 O   0  0  0  0  0  0  0  0  0  0  0  0
  -30.6560  -11.9290   21.7170 C   0  0  0  0  0  2  0  0  0  0  0  0
  -31.1680  -13.3050   21.2550 C   0  0  0  0  0  2  0  0  0  0  0  0
  -30.5910  -12.9950   18.8780 C   0  0  0  0  0  0  0  0  0  0  0  0
  -29.8590  -10.8710   17.8600 C   0  0  0  0  0  2  0  0  0  0  0  0
  -28.7300  -11.0400   16.8270 C   0  0  0  0  0  2  0  0  0  0  0  0
  -27.3540  -11.0140   17.5150 C   0  0  0  0  0  2  0  0  0  0  0  0
  -27.2830  -12.0050   18.7010 C   0  0  0  0  0  3  0  0  0  0  0  0
  -28.4910  -11.8350   19.6310 C   0  0  0  0  0  2  0  0  0  0  0  0
  -29.7490  -11.9330   18.8680 N   0  0  0  0  0  0  0  0  0  0  0  0
  -31.3710  -13.2630   17.9630 O   0  0  0  0  0  0  0  0  0  0  0  0
  -30.5720  -13.7440   19.9880 N   0  0  0  0  0  0  0  0  0  0  0  0
  -30.8460  -14.6930   19.7730 H   0  0  0  0  0  0  0  0  0  0  0  0
  -25.1390  -12.8610   19.8450 C   0  0  0  0  0  0  0  0  0  0  0  0
  -24.1030  -12.2040   20.4540 C   0  0  0  0  0  0  0  0  0  0  0  0
  -24.4320  -10.8150   20.4020 C   0  0  0  0  0  0  0  0  0  0  0  0
  -26.0330  -11.8770   19.4500 N   0  0  0  0  0  0  0  0  0  0  0  0
  -25.6260  -10.6440   19.8470 N   0  0  0  0  0  0  0  0  0  0  0  0
  -23.6530   -9.6340   20.7930 C   0  0  0  0  0  0  0  0  0  0  0  0
  -24.1430   -8.7120   21.7450 C   0  0  0  0  0  3  0  0  0  0  0  0
  -23.3680   -7.5930   22.1210 C   0  0  0  0  0  3  0  0  0  0  0  0
  -22.0900   -7.3920   21.5470 C   0  0  0  0  0  0  0  0  0  0  0  0
  -21.6190   -8.3010   20.5840 C   0  0  0  0  0  3  0  0  0  0  0  0
  -22.3920   -9.4110   20.2070 C   0  0  0  0  0  3  0  0  0  0  0  0
  -21.2790   -6.3200   21.8290 O   0  0  0  0  0  0  0  0  0  0  0  0
  -21.4220   -5.5920   22.9820 C   0  0  0  0  0  0  0  0  0  0  0  0
  -21.1780   -6.1560   24.2540 C   0  0  0  0  0  3  0  0  0  0  0  0
  -21.2660   -5.3510   25.4090 C   0  0  0  0  0  3  0  0  0  0  0  0
  -21.5890   -3.9860   25.2950 C   0  0  0  0  0  0  0  0  0  0  0  0
  -21.8320   -3.4230   24.0290 C   0  0  0  0  0  3  0  0  0  0  0  0
  -21.7440   -4.2230   22.8750 C   0  0  0  0  0  0  0  0  0  0  0  0
  -21.9530   -3.6690   21.6570 F   0  0  0  0  0  0  0  0  0  0  0  0
  -21.6680   -3.2140   26.4030 F   0  0  0  0  0  0  0  0  0  0  0  0
  -22.8310  -12.8190   20.9630 C   0  0  0  0  0  0  0  0  0  0  0  0
  -22.2140  -12.2140   21.9730 N   0  0  0  0  0  0  0  0  0  0  0  0
  -22.3990  -13.8730   20.4950 O   0  0  0  0  0  0  0  0  0  0  0  0
  -22.5700  -11.3580   22.3690 H   0  0  0  0  0  0  0  0  0  0  0  0
  -21.3610  -12.6070   22.3440 H   0  0  0  0  0  0  0  0  0  0  0  0
  -25.3870  -14.2030   19.5840 N   0  0  0  0  0  0  0  0  0  0  0  0
  -24.6960  -14.9200   19.7740 H   0  0  0  0  0  0  0  0  0  0  0  0
  -26.1570  -14.5370   19.0180 H   0  0  0  0  0  0  0  0  0  0  0  0
  -27.0150  -18.4990   20.3100 C   0  0  0  0  0  2  0  0  0  0  0  0
  -28.0070  -19.4840   20.0540 O   0  0  0  0  0  0  0  0  0  0  0  0
  -27.8360  -20.6640   20.8380 C   0  0  0  0  0  2  0  0  0  0  0  0
  -28.3190  -21.8640   20.0260 C   0  0  0  0  0  0  0  0  0  0  0  0
  -29.6330  -22.1300   20.0740 N   0  0  0  0  0  0  0  0  0  0  0  0
  -27.5240  -22.5140   19.3440 O   0  0  0  0  0  0  0  0  0  0  0  0
  -30.2080  -21.5130   20.6320 H   0  0  0  0  0  0  0  0  0  0  0  0
  -30.2980  -23.1480   19.2640 C   0  0  0  0  0  2  0  0  0  0  0  0
  -31.3750  -23.9480   20.0320 C   0  0  0  0  0  2  0  0  0  0  0  0
  -30.8620  -25.1900   20.7920 C   0  0  0  0  0  2  0  0  0  0  0  0
  -30.7940  -26.3550   19.9600 O   0  0  0  0  0  0  0  0  0  0  0  0
  -25.7260  -30.3690   22.9200 C   0  0  0  0  0  0  0  0  0  0  0  0
  -29.5460  -26.9070   19.8410 C   0  0  0  0  0  0  0  0  0  0  0  0
  -25.0660  -29.1020   20.9000 C   0  0  0  0  0  3  0  0  0  0  0  0
  -26.9750  -28.0330   19.5910 C   0  0  0  0  0  0  0  0  0  0  0  0
  -27.4910  -29.8290   21.2510 C   0  0  0  0  0  2  0  0  0  0  0  0
  -27.9060  -28.6030   20.4700 C   0  0  0  0  0  0  0  0  0  0  0  0
  -29.1920  -28.0400   20.6040 C   0  0  0  0  0  3  0  0  0  0  0  0
  -28.6180  -26.3770   18.9240 C   0  0  0  0  0  3  0  0  0  0  0  0
  -27.3230  -26.9130   18.8180 C   0  0  0  0  0  3  0  0  0  0  0  0
  -25.6180  -28.6910   19.5080 C   0  0  0  0  0  2  0  0  0  0  0  0
  -26.1000  -29.7740   21.7530 N   0  0  0  0  0  0  0  0  0  0  0  0
  -24.5400  -30.4010   23.2720 O   0  0  0  0  0  0  0  0  0  0  0  0
  -24.4370  -27.8580   21.5670 C   0  0  0  0  0  0  0  0  0  0  0  0
  -23.1560  -27.5980   21.2600 N   0  0  0  0  0  0  0  0  0  0  0  0
  -25.1000  -27.1400   22.3210 O   0  0  0  0  0  0  0  0  0  0  0  0
  -22.6790  -28.2400   20.6410 H   0  0  0  0  0  0  0  0  0  0  0  0
  -19.8300  -26.1920   21.3400 C   0  0  0  0  0  0  0  0  0  0  0  0
  -22.3680  -26.4640   21.7390 C   0  0  0  0  0  3  0  0  0  0  0  0
  -22.5420  -25.2360   20.8150 C   0  0  0  0  0  2  0  0  0  0  0  0
  -21.4720  -25.1470   19.7230 C   0  0  0  0  0  2  0  0  0  0  0  0
  -20.0740  -25.0700   20.3460 C   0  0  0  0  0  2  0  0  0  0  0  0
  -20.9070  -26.8560   21.9830 C   0  0  0  0  0  0  0  0  0  0  0  0
  -20.6260  -27.9170   22.8720 C   0  0  0  0  0  3  0  0  0  0  0  0
  -19.3000  -28.3110   23.1240 C   0  0  0  0  0  3  0  0  0  0  0  0
  -18.2360  -27.6390   22.4980 C   0  0  0  0  0  3  0  0  0  0  0  0
  -18.5010  -26.5790   21.6130 C   0  0  0  0  0  3  0  0  0  0  0  0
  -26.7680  -31.0580   23.8570 C   0  0  0  0  0  3  0  0  0  0  0  0
  -26.2200  -32.3640   24.2440 N   0  0  0  0  0  0  0  0  0  0  0  0
  -26.5940  -33.5340   23.7090 C   0  0  0  0  0  0  0  0  0  0  0  0
  -27.5000  -33.6300   22.8770 O   0  0  0  0  0  0  0  0  0  0  0  0
  -25.4390  -32.3560   24.8850 H   0  0  0  0  0  0  0  0  0  0  0  0
  -24.8100  -35.1970   23.0980 C   0  0  0  0  0  1  0  0  0  0  0  0
  -25.8400  -34.7970   24.1670 C   0  0  0  0  0  3  0  0  0  0  0  0
  -27.5670  -35.7400   25.6350 C   0  0  0  0  0  1  0  0  0  0  0  0
  -26.7320  -35.9420   24.4540 N   0  0  0  0  0  0  0  0  0  0  0  0
  -26.1940  -36.7930   24.5870 H   0  0  0  0  0  0  0  0  0  0  0  0
  -27.1220  -30.1980   25.1320 C   0  0  1  0  0  0  0  0  0  0  0  0
  -25.8830  -29.6870   25.9030 C   0  0  0  0  0  1  0  0  0  0  0  0
  -27.9730  -28.9690   24.7400 C   0  0  0  0  0  1  0  0  0  0  0  0
  -27.9840  -31.0350   26.1060 C   0  0  0  0  0  1  0  0  0  0  0  0
  3  6  1  0
  4  2  1  0
  5  3  1  0
  5  7  1  0
  6  1  1  0
  6  2  1  0
  7  9  1  0
  7  4  1  0
  7  8  1  1
  9 10  1  0
 10 11  1  0
 12 11  1  0
 13 12  1  0
 14 22  1  0
 15 20  1  0
 16 17  1  0
 16 15  1  0
 18 17  1  0
 18 27  1  0
 18 19  1  0
 20 14  1  0
 20 19  1  0
 21 14  2  0
 22 13  1  0
 23 22  1  0
 24 25  2  0
 25 44  1  0
 26 25  1  0
 26 29  1  0
 27 24  1  0
 27 28  1  0
 28 26  2  0
 29 30  1  0
 30 31  2  0
 32 35  1  0
 32 31  1  0
 33 32  2  0
 34 33  1  0
 34 29  2  0
 35 36  1  0
 36 37  1  0
 37 38  2  0
 39 38  1  0
 39 43  1  0
 40 39  2  0
 41 36  2  0
 41 40  1  0
 42 41  1  0
 44 45  1  0
 45 48  1  0
 45 47  1  0
 46 44  2  0
 49 50  1  0
 49 24  1  0
 51 49  1  0
 52  1  1  0
 53 52  1  0
 53 54  1  0
 55 56  1  0
 55 54  1  0
 56 58  1  0
 57 55  2  0
 59 60  1  0
 59 56  1  0
 60 61  1  0
 62 61  1  0
 63 74  2  0
 64 62  1  0
 64 69  1  0
 65 75  1  0
 65 73  1  0
 66 68  1  0
 67 73  1  0
 68 69  2  0
 68 67  1  0
 70 64  2  0
 71 70  1  0
 71 66  2  0
 72 66  1  0
 72 65  1  0
 73 63  1  0
 75 77  2  0
 76 75  1  0
 78 76  1  0
 79 88  2  0
 79 84  1  0
 80 76  1  0
 80 84  1  0
 81 80  1  0
 82 83  1  0
 82 81  1  0
 83 79  1  0
 84 85  2  0
 85 86  1  0
 87 86  2  0
 88 87  1  0
 89 63  1  0
 89 90  1  0
 89 99  1  0
 90 93  1  0
 91 95  1  0
 91 90  1  0
 92 91  2  0
 95 94  1  0
 95 97  1  0
 97 98  1  0
 97 96  1  0
 99100  1  1
 99102  1  0
101 99  1  0
M  ISO  4  14 100  22 100  61 101  62 101
M  END
>  <TORSDO>  (82) 
F 29

>  <SCORE>  (82) 
2.508

>  <name>  (82) 
84

>  <ligand_id>  (82) 
84

>  <original_smiles>  (82) 
[H]c1c([H])c([H])c2c(c1[H])C([H])([H])C([H])([H])C([H])([H])C2([H])N([H])C(=O)C1([H])N(C(=O)C([H])(N([H])C(=O)C([H])(N([H])C([H])([H])[H])C([H])([H])[H])C(C([H])([H])[H])(C([H])([H])[H])C([H])([H])[H])C([H])([H])c2c([H])c(OC([H])([H])C([H])([H])C([H])([H])N([H])C(=O)C([H])([H])OC([H])([H])C([H])([H])N3C([H])([H])C([H])([H])[N+]([H])(C([H])([H])C([H])([H])OC([H])([H])C([H])([H])N([H])C(=O)N4C([H])([H])C([H])([H])C([H])([H])C([H])(n5nc(-c6c([H])c([H])c(Oc7c([H])c([H])c(F)c([H])c7F)c([H])c6[H])c(C(=O)N([H])[H])c5N([H])[H])C4([H])[H])C([H])([H])C3([H])[H])c([H])c([H])c2C1([H])[H]

>  <smiles>  (82) 
[H]c1c([H])c([H])c2c(c1[H])C([H])([H])C([H])([H])C([H])([H])C2([H])N([H])C(=O)C1([H])N(C(=O)C([H])(N([H])C(=O)C([H])(N([H])C([H])([H])[H])C([H])([H])[H])C(C([H])([H])[H])(C([H])([H])[H])C([H])([H])[H])C([H])([H])c2c([H])c(OC([H])([H])C([H])([H])C([H])([H])N([H])C(=O)C([H])([H])OC([H])([H])C([H])([H])N3C([H])([H])C([H])([H])[N+]([H])(C([H])([H])C([H])([H])OC([H])([H])C([H])([H])N([H])C(=O)N4C([H])([H])C([H])([H])C([H])([H])C([H])(n5nc(-c6c([H])c([H])c(Oc7c([H])c([H])c(F)c([H])c7F)c([H])c6[H])c(C(=O)N([H])[H])c5N([H])[H])C4([H])[H])C([H])([H])C3([H])[H])c([H])c([H])c2C1([H])[H]

$$$$
85:0:0
     RDKit          3D

106115  0  0  1  0  0  0  0  0999 V2000
  -32.0610  -20.3840   22.4810 C   0  0  0  0  0  3  0  0  0  0  0  0
  -31.8490  -21.7680   21.8530 C   0  0  0  0  0  2  0  0  0  0  0  0
  -33.0400  -22.3230   21.3000 O   0  0  0  0  0  0  0  0  0  0  0  0
  -32.7880  -23.3170   20.3040 C   0  0  0  0  0  2  0  0  0  0  0  0
  -31.8780  -24.4650   20.8210 C   0  0  0  0  0  2  0  0  0  0  0  0
  -30.6990  -27.4850   18.8640 C   0  0  0  0  0  2  0  0  0  0  0  0
  -29.7100  -25.4350   17.7500 C   0  0  0  0  0  2  0  0  0  0  0  0
  -31.8090  -26.4840   19.2740 C   0  0  0  0  0  2  0  0  0  0  0  0
  -30.4060  -24.4880   18.7550 C   0  0  0  0  0  2  0  0  0  0  0  0
  -29.3910  -26.7800   18.4220 C   0  0  0  0  0  3  0  0  0  0  0  0
  -31.1620  -25.2540   19.7890 N   0  0  1  0  0  4  0  0  0  0  0  0
  -30.4080  -25.6630   20.3280 H   0  0  0  0  0  0  0  0  0  0  0  0
  -28.6330  -26.4660   19.6000 O   0  0  0  0  0  0  0  0  0  0  0  0
  -24.2400  -31.1510   22.6520 C   0  0  0  0  0  0  0  0  0  0  0  0
  -27.4000  -27.0500   19.6210 C   0  0  0  0  0  0  0  0  0  0  0  0
  -23.2540  -29.7300   20.8800 C   0  0  0  0  0  3  0  0  0  0  0  0
  -24.9060  -28.3340   19.5350 C   0  0  0  0  0  0  0  0  0  0  0  0
  -25.7540  -30.2620   20.8900 C   0  0  0  0  0  2  0  0  0  0  0  0
  -25.9750  -28.9220   20.2250 C   0  0  0  0  0  0  0  0  0  0  0  0
  -27.2240  -28.2790   20.2810 C   0  0  0  0  0  3  0  0  0  0  0  0
  -26.3210  -26.4450   18.9510 C   0  0  0  0  0  3  0  0  0  0  0  0
  -25.0670  -27.0840   18.9080 C   0  0  0  0  0  3  0  0  0  0  0  0
  -23.6130  -29.1130   19.5010 C   0  0  0  0  0  2  0  0  0  0  0  0
  -24.4270  -30.3960   21.5330 N   0  0  0  0  0  0  0  0  0  0  0  0
  -23.1080  -31.3340   23.1170 O   0  0  0  0  0  0  0  0  0  0  0  0
  -22.6050  -28.6360   21.7570 C   0  0  0  0  0  0  0  0  0  0  0  0
  -21.3160  -28.3580   21.5070 N   0  0  0  0  0  0  0  0  0  0  0  0
  -23.2630  -28.0420   22.6150 O   0  0  0  0  0  0  0  0  0  0  0  0
  -20.8460  -28.8980   20.7950 H   0  0  0  0  0  0  0  0  0  0  0  0
  -18.0220  -26.8860   21.6520 C   0  0  0  0  0  0  0  0  0  0  0  0
  -20.5090  -27.3410   22.1820 C   0  0  0  0  0  3  0  0  0  0  0  0
  -20.7840  -25.9350   21.6010 C   0  0  0  0  0  2  0  0  0  0  0  0
  -19.8190  -25.5470   20.4770 C   0  0  0  0  0  2  0  0  0  0  0  0
  -18.3730  -25.5690   20.9790 C   0  0  0  0  0  2  0  0  0  0  0  0
  -19.0260  -27.7250   22.2020 C   0  0  0  0  0  0  0  0  0  0  0  0
  -18.6490  -28.9560   22.7820 C   0  0  0  0  0  3  0  0  0  0  0  0
  -17.2980  -29.3490   22.8230 C   0  0  0  0  0  3  0  0  0  0  0  0
  -16.3070  -28.5080   22.2900 C   0  0  0  0  0  3  0  0  0  0  0  0
  -16.6690  -27.2780   21.7110 C   0  0  0  0  0  3  0  0  0  0  0  0
  -25.4360  -31.8400   23.3840 C   0  0  0  0  0  3  0  0  0  0  0  0
  -25.0250  -33.2110   23.7100 N   0  0  0  0  0  0  0  0  0  0  0  0
  -25.3730  -34.2960   23.0040 C   0  0  0  0  0  0  0  0  0  0  0  0
  -26.1440  -34.2510   22.0410 O   0  0  0  0  0  0  0  0  0  0  0  0
  -24.3500  -33.3160   24.4530 H   0  0  0  0  0  0  0  0  0  0  0  0
  -23.5890  -36.0000   22.5160 C   0  0  0  0  0  1  0  0  0  0  0  0
  -24.7680  -35.6450   23.4370 C   0  0  0  0  0  3  0  0  0  0  0  0
  -26.7730  -36.6140   24.4720 C   0  0  0  0  0  1  0  0  0  0  0  0
  -25.7490  -36.7530   23.4410 N   0  0  0  0  0  0  0  0  0  0  0  0
  -25.2810  -37.6450   23.5790 H   0  0  0  0  0  0  0  0  0  0  0  0
  -25.8980  -31.0710   24.6820 C   0  0  1  0  0  0  0  0  0  0  0  0
  -24.7450  -30.7580   25.6640 C   0  0  0  0  0  1  0  0  0  0  0  0
  -26.5800  -29.7340   24.3110 C   0  0  0  0  0  1  0  0  0  0  0  0
  -26.9530  -31.9120   25.4400 C   0  0  0  0  0  1  0  0  0  0  0  0
  -30.8260  -19.9120   23.0290 O   0  0  0  0  0  0  0  0  0  0  0  0
  -30.4590  -20.4990   24.2810 C   0  0  0  0  0  2  0  0  0  0  0  0
  -29.3590  -21.5780   24.1350 C   0  0  0  0  0  2  0  0  0  0  0  0
  -28.1670  -20.9890   23.6170 O   0  0  0  0  0  0  0  0  0  0  0  0
  -26.9750  -21.7780   23.7260 C   0  0  0  0  0  2  0  0  0  0  0  0
  -27.0290  -23.0630   22.8670 C   0  0  0  0  0  2  0  0  0  0  0  0
  -27.2230  -21.9070   20.6760 C   0  0  0  0  0  0  0  0  0  0  0  0
  -27.6590  -22.7890   21.5780 N   0  0  0  0  0  0  0  0  0  0  0  0
  -26.0510  -21.5260   20.6170 O   0  0  0  0  0  0  0  0  0  0  0  0
  -28.6310  -23.0530   21.4930 H   0  0  0  0  0  0  0  0  0  0  0  0
  -28.2920  -21.3030   19.7690 C   0  0  0  0  0  2  0  0  0  0  0  0
  -29.4600  -20.7950   20.6430 C   0  0  0  0  0  2  0  0  0  0  0  0
  -30.6500  -20.2070   19.8820 C   0  0  0  0  0  2  0  0  0  0  0  0
  -31.8180  -19.9990   20.8570 C   0  0  0  0  0  3  0  0  0  0  0  0
  -33.1470  -19.6800   20.1710 C   0  0  0  0  0  2  0  0  0  0  0  0
  -34.8080  -20.9550   18.8950 C   0  0  0  0  0  0  0  0  0  0  0  0
  -35.9460  -20.9670   16.7220 C   0  0  0  0  0  2  0  0  0  0  0  0
  -35.4240  -22.1320   15.8660 C   0  0  0  0  0  2  0  0  0  0  0  0
  -34.1770  -21.7140   15.0670 C   0  0  0  0  0  2  0  0  0  0  0  0
  -33.1100  -21.0490   15.9710 C   0  0  0  0  0  3  0  0  0  0  0  0
  -33.7460  -19.9390   16.8340 C   0  0  0  0  0  2  0  0  0  0  0  0
  -34.8530  -20.5360   17.6050 N   0  0  0  0  0  0  0  0  0  0  0  0
  -35.7210  -21.5670   19.4460 O   0  0  0  0  0  0  0  0  0  0  0  0
  -33.6230  -20.8800   19.5010 N   0  0  0  0  0  0  0  0  0  0  0  0
  -33.5420  -21.6620   20.1340 H   0  0  0  0  0  0  0  0  0  0  0  0
  -30.6290  -20.7080   15.3830 C   0  0  0  0  0  0  0  0  0  0  0  0
  -30.0190  -20.0750   14.3280 C   0  0  0  0  0  0  0  0  0  0  0  0
  -31.0730  -19.5540   13.5200 C   0  0  0  0  0  0  0  0  0  0  0  0
  -31.9910  -20.5370   15.1870 N   0  0  0  0  0  0  0  0  0  0  0  0
  -32.2480  -19.7930   14.0830 N   0  0  0  0  0  0  0  0  0  0  0  0
  -31.0370  -18.8840   12.2150 C   0  0  0  0  0  0  0  0  0  0  0  0
  -31.7240  -17.6660   12.0010 C   0  0  0  0  0  3  0  0  0  0  0  0
  -31.6580  -17.0270   10.7420 C   0  0  0  0  0  3  0  0  0  0  0  0
  -30.9040  -17.5960    9.6900 C   0  0  0  0  0  0  0  0  0  0  0  0
  -30.2440  -18.8190    9.9050 C   0  0  0  0  0  3  0  0  0  0  0  0
  -30.3080  -19.4590   11.1550 C   0  0  0  0  0  3  0  0  0  0  0  0
  -30.8030  -17.0550    8.4270 O   0  0  0  0  0  0  0  0  0  0  0  0
  -31.0070  -15.7160    8.2000 C   0  0  0  0  0  0  0  0  0  0  0  0
  -30.2760  -14.7210    8.8860 C   0  0  0  0  0  3  0  0  0  0  0  0
  -30.4660  -13.3620    8.5680 C   0  0  0  0  0  3  0  0  0  0  0  0
  -31.3710  -12.9940    7.5540 C   0  0  0  0  0  0  0  0  0  0  0  0
  -32.0920  -13.9820    6.8620 C   0  0  0  0  0  3  0  0  0  0  0  0
  -31.9090  -15.3410    7.1860 C   0  0  0  0  0  0  0  0  0  0  0  0
  -32.5900  -16.2900    6.4990 F   0  0  0  0  0  0  0  0  0  0  0  0
  -31.5480  -11.6870    7.2460 F   0  0  0  0  0  0  0  0  0  0  0  0
  -28.5500  -20.0450   14.0300 C   0  0  0  0  0  0  0  0  0  0  0  0
  -28.0800  -18.9860   13.3790 N   0  0  0  0  0  0  0  0  0  0  0  0
  -27.8010  -20.9400   14.4180 O   0  0  0  0  0  0  0  0  0  0  0  0
  -28.6890  -18.2390   13.0780 H   0  0  0  0  0  0  0  0  0  0  0  0
  -27.0910  -18.9150   13.1860 H   0  0  0  0  0  0  0  0  0  0  0  0
  -30.1490  -21.4340   16.4700 N   0  0  0  0  0  0  0  0  0  0  0  0
  -29.1740  -21.6750   16.5960 H   0  0  0  0  0  0  0  0  0  0  0  0
  -30.7550  -21.8750   17.1520 H   0  0  0  0  0  0  0  0  0  0  0  0
  1  2  1  0
  1 54  1  0
  3  2  1  0
  4  5  1  0
  4  3  1  0
  6  8  1  0
  7 10  1  0
  7  9  1  0
  8 11  1  0
  9 11  1  0
 10  6  1  0
 10 13  1  0
 11 12  1  1
 11  5  1  0
 13 15  1  0
 14 25  2  0
 15 20  1  0
 16 24  1  0
 16 26  1  0
 17 19  1  0
 18 24  1  0
 19 20  2  0
 19 18  1  0
 21 15  2  0
 22 21  1  0
 22 17  2  0
 23 17  1  0
 23 16  1  0
 24 14  1  0
 26 28  2  0
 27 26  1  0
 29 27  1  0
 30 39  2  0
 30 35  1  0
 31 27  1  0
 31 35  1  0
 32 31  1  0
 33 34  1  0
 33 32  1  0
 34 30  1  0
 35 36  2  0
 36 37  1  0
 38 37  2  0
 39 38  1  0
 40 14  1  0
 40 41  1  0
 40 50  1  0
 41 44  1  0
 42 46  1  0
 42 41  1  0
 43 42  2  0
 46 45  1  0
 46 48  1  0
 48 49  1  0
 48 47  1  0
 50 53  1  1
 50 51  1  0
 52 50  1  0
 54 55  1  0
 56 55  1  0
 57 58  1  0
 57 56  1  0
 59 58  1  0
 60 61  1  0
 61 59  1  0
 62 60  2  0
 63 61  1  0
 64 65  1  0
 64 60  1  0
 66 65  1  0
 66 67  1  0
 67 68  1  0
 67  1  1  0
 69 76  2  0
 69 77  1  0
 70 75  1  0
 71 70  1  0
 72 71  1  0
 73 72  1  0
 73 74  1  0
 74 75  1  0
 75 69  1  0
 77 78  1  0
 77 68  1  0
 79104  1  0
 80 79  2  0
 81 83  2  0
 81 80  1  0
 82 79  1  0
 82 73  1  0
 83 82  1  0
 84 81  1  0
 85 84  1  0
 86 85  2  0
 87 88  2  0
 87 86  1  0
 88 89  1  0
 89 84  2  0
 90 87  1  0
 91 90  1  0
 91 92  1  0
 93 92  2  0
 94 93  1  0
 95 96  1  0
 95 94  2  0
 96 91  2  0
 97 96  1  0
 98 94  1  0
 99 80  1  0
 99101  2  0
100 99  1  0
102100  1  0
103100  1  0
104105  1  0
104106  1  0
M  ISO  4  10 101  13 101  69 100  77 100
M  END
>  <TORSDO>  (83) 
F 33

>  <SCORE>  (83) 
11.983

>  <name>  (83) 
85

>  <ligand_id>  (83) 
85

>  <original_smiles>  (83) 
[H]c1c([H])c([H])c2c(c1[H])C([H])([H])C([H])([H])C([H])([H])C2([H])N([H])C(=O)C1([H])N(C(=O)C([H])(N([H])C(=O)C([H])(N([H])C([H])([H])[H])C([H])([H])[H])C(C([H])([H])[H])(C([H])([H])[H])C([H])([H])[H])C([H])([H])c2c([H])c(OC3([H])C([H])([H])C([H])([H])[N+]([H])(C([H])([H])C([H])([H])OC([H])([H])C([H])([H])OC([H])([H])C([H])([H])OC([H])([H])C([H])([H])N([H])C(=O)C([H])([H])C([H])([H])C([H])([H])C([H])([H])C([H])([H])N([H])C(=O)N4C([H])([H])C([H])([H])C([H])([H])C([H])(n5nc(-c6c([H])c([H])c(Oc7c([H])c([H])c(F)c([H])c7F)c([H])c6[H])c(C(=O)N([H])[H])c5N([H])[H])C4([H])[H])C([H])([H])C3([H])[H])c([H])c([H])c2C1([H])[H]

>  <smiles>  (83) 
[H]c1c([H])c([H])c2c(c1[H])C([H])([H])C([H])([H])C([H])([H])C2([H])N([H])C(=O)C1([H])N(C(=O)C([H])(N([H])C(=O)C([H])(N([H])C([H])([H])[H])C([H])([H])[H])C(C([H])([H])[H])(C([H])([H])[H])C([H])([H])[H])C([H])([H])c2c([H])c(OC3([H])C([H])([H])C([H])([H])[N+]([H])(C([H])([H])C([H])([H])OC([H])([H])C([H])([H])OC([H])([H])C([H])([H])OC([H])([H])C([H])([H])N([H])C(=O)C([H])([H])C([H])([H])C([H])([H])C([H])([H])C([H])([H])N([H])C(=O)N4C([H])([H])C([H])([H])C([H])([H])C([H])(n5nc(-c6c([H])c([H])c(Oc7c([H])c([H])c(F)c([H])c7F)c([H])c6[H])c(C(=O)N([H])[H])c5N([H])[H])C4([H])[H])C([H])([H])C3([H])[H])c([H])c([H])c2C1([H])[H]

$$$$
86:0:0
     RDKit          3D

 98105  0  0  1  0  0  0  0  0999 V2000
  -26.8240  -23.6500   17.0740 C   0  0  0  0  0  2  0  0  0  0  0  0
  -27.4980  -24.6210   16.0840 C   0  0  0  0  0  2  0  0  0  0  0  0
  -26.9800  -25.9990   16.1940 N   0  0  0  0  0  4  0  0  0  0  0  0
  -26.7470  -26.2090   17.1490 H   0  0  0  0  0  0  0  0  0  0  0  0
  -26.1220  -26.0460   15.6670 H   0  0  0  0  0  0  0  0  0  0  0  0
  -27.8880  -27.0540   15.6780 C   0  0  0  0  0  2  0  0  0  0  0  0
  -28.5220  -27.8980   16.8050 C   0  0  0  0  0  2  0  0  0  0  0  0
  -29.6260  -27.1770   17.6490 C   0  0  0  0  0  2  0  0  0  0  0  0
  -29.3750  -27.2210   19.1810 C   0  0  0  0  0  2  0  0  0  0  0  0
  -28.4290  -26.7020   20.1390 O   0  0  0  0  0  0  0  0  0  0  0  0
  -24.5980  -31.8880   23.2630 C   0  0  0  0  0  0  0  0  0  0  0  0
  -27.2480  -27.4180   20.2550 C   0  0  0  0  0  0  0  0  0  0  0  0
  -23.4030  -30.4740   21.6210 C   0  0  0  0  0  3  0  0  0  0  0  0
  -24.8560  -28.9040   20.2460 C   0  0  0  0  0  0  0  0  0  0  0  0
  -25.9270  -30.8300   21.4280 C   0  0  0  0  0  2  0  0  0  0  0  0
  -26.0140  -29.4380   20.8280 C   0  0  0  0  0  0  0  0  0  0  0  0
  -27.2130  -28.7010   20.8360 C   0  0  0  0  0  3  0  0  0  0  0  0
  -26.0670  -26.8640   19.7170 C   0  0  0  0  0  3  0  0  0  0  0  0
  -24.8710  -27.6100   19.6960 C   0  0  0  0  0  3  0  0  0  0  0  0
  -23.6260  -29.7780   20.2550 C   0  0  0  0  0  2  0  0  0  0  0  0
  -24.6630  -31.0770   22.1680 N   0  0  0  0  0  0  0  0  0  0  0  0
  -23.5130  -32.1670   23.7930 O   0  0  0  0  0  0  0  0  0  0  0  0
  -22.7350  -29.4670   22.5830 C   0  0  0  0  0  0  0  0  0  0  0  0
  -21.4100  -29.2970   22.4470 N   0  0  0  0  0  0  0  0  0  0  0  0
  -23.4080  -28.8370   23.4050 O   0  0  0  0  0  0  0  0  0  0  0  0
  -20.9350  -29.8620   21.7570 H   0  0  0  0  0  0  0  0  0  0  0  0
  -18.0180  -28.1340   22.9230 C   0  0  0  0  0  0  0  0  0  0  0  0
  -20.5760  -28.3740   23.2210 C   0  0  0  0  0  3  0  0  0  0  0  0
  -20.6710  -26.9360   22.6640 C   0  0  0  0  0  2  0  0  0  0  0  0
  -19.5780  -26.6090   21.6420 C   0  0  0  0  0  2  0  0  0  0  0  0
  -18.1900  -26.7710   22.2690 C   0  0  0  0  0  2  0  0  0  0  0  0
  -19.1390  -28.8910   23.3570 C   0  0  0  0  0  0  0  0  0  0  0  0
  -18.9220  -30.1610   23.9310 C   0  0  0  0  0  3  0  0  0  0  0  0
  -17.6210  -30.6770   24.0780 C   0  0  0  0  0  3  0  0  0  0  0  0
  -16.5170  -29.9150   23.6650 C   0  0  0  0  0  3  0  0  0  0  0  0
  -16.7150  -28.6470   23.0940 C   0  0  0  0  0  3  0  0  0  0  0  0
  -25.8810  -32.5220   23.8920 C   0  0  0  0  0  3  0  0  0  0  0  0
  -25.5720  -33.9240   24.2040 N   0  0  0  0  0  0  0  0  0  0  0  0
  -25.9180  -34.9690   23.4380 C   0  0  0  0  0  0  0  0  0  0  0  0
  -26.6020  -34.8520   22.4170 O   0  0  0  0  0  0  0  0  0  0  0  0
  -24.9650  -34.0920   24.9960 H   0  0  0  0  0  0  0  0  0  0  0  0
  -24.2040  -36.7730   23.0440 C   0  0  0  0  0  1  0  0  0  0  0  0
  -25.4320  -36.3660   23.8710 C   0  0  0  0  0  3  0  0  0  0  0  0
  -27.5730  -37.2400   24.7110 C   0  0  0  0  0  1  0  0  0  0  0  0
  -26.4740  -37.4090   23.7630 N   0  0  0  0  0  0  0  0  0  0  0  0
  -26.0730  -38.3290   23.9050 H   0  0  0  0  0  0  0  0  0  0  0  0
  -26.3900  -31.7570   25.1750 C   0  0  1  0  0  0  0  0  0  0  0  0
  -25.2950  -31.5220   26.2440 C   0  0  0  0  0  1  0  0  0  0  0  0
  -26.9760  -30.3790   24.7920 C   0  0  0  0  0  1  0  0  0  0  0  0
  -27.5410  -32.5540   25.8370 C   0  0  0  0  0  1  0  0  0  0  0  0
  -27.4380  -22.2400   16.9760 C   0  0  0  0  0  2  0  0  0  0  0  0
  -27.2770  -21.3920   18.2520 C   0  0  0  0  0  2  0  0  0  0  0  0
  -28.3840  -20.3270   18.3600 C   0  0  0  0  0  2  0  0  0  0  0  0
  -28.4350  -19.6070   19.7190 C   0  0  0  0  0  2  0  0  0  0  0  0
  -29.7670  -19.0060   19.9490 N   0  0  0  0  0  4  0  0  0  0  0  0
  -30.4110  -19.7270   20.2360 H   0  0  0  0  0  0  0  0  0  0  0  0
  -30.0980  -18.6260   19.0770 H   0  0  0  0  0  0  0  0  0  0  0  0
  -29.7820  -17.9240   20.9530 C   0  0  0  0  0  2  0  0  0  0  0  0
  -31.1920  -17.3300   21.1030 C   0  0  0  0  0  2  0  0  0  0  0  0
  -31.2350  -16.0310   21.9290 C   0  0  0  0  0  2  0  0  0  0  0  0
  -30.8290  -14.1990   20.2600 C   0  0  0  0  0  0  0  0  0  0  0  0
  -30.3220  -12.1830   18.9250 C   0  0  0  0  0  2  0  0  0  0  0  0
  -29.3410  -12.4830   17.7770 C   0  0  0  0  0  2  0  0  0  0  0  0
  -27.8860  -12.3700   18.2650 C   0  0  0  0  0  2  0  0  0  0  0  0
  -27.6370  -13.1720   19.5700 C   0  0  0  0  0  3  0  0  0  0  0  0
  -28.7190  -12.8610   20.6270 C   0  0  0  0  0  2  0  0  0  0  0  0
  -30.0450  -13.1140   20.0290 N   0  0  0  0  0  0  0  0  0  0  0  0
  -31.8230  -14.4760   19.5850 O   0  0  0  0  0  0  0  0  0  0  0  0
  -30.4780  -14.9300   21.3300 N   0  0  0  0  0  0  0  0  0  0  0  0
  -29.6560  -14.6200   21.8260 H   0  0  0  0  0  0  0  0  0  0  0  0
  -25.2780  -13.8460   20.3540 C   0  0  0  0  0  0  0  0  0  0  0  0
  -24.2040  -13.1050   20.7660 C   0  0  0  0  0  0  0  0  0  0  0  0
  -24.6300  -11.7420   20.7240 C   0  0  0  0  0  0  0  0  0  0  0  0
  -26.2940  -12.9350   20.0920 N   0  0  0  0  0  0  0  0  0  0  0  0
  -25.9050  -11.6650   20.3700 N   0  0  0  0  0  0  0  0  0  0  0  0
  -23.8800  -10.4990   20.9490 C   0  0  0  0  0  0  0  0  0  0  0  0
  -24.3250   -9.5220   21.8670 C   0  0  0  0  0  3  0  0  0  0  0  0
  -23.5770   -8.3420   22.0800 C   0  0  0  0  0  3  0  0  0  0  0  0
  -22.3680   -8.1330   21.3740 C   0  0  0  0  0  0  0  0  0  0  0  0
  -21.9400   -9.0990   20.4450 C   0  0  0  0  0  3  0  0  0  0  0  0
  -22.6890  -10.2690   20.2320 C   0  0  0  0  0  3  0  0  0  0  0  0
  -21.5900   -7.0080   21.4940 O   0  0  0  0  0  0  0  0  0  0  0  0
  -21.5790   -6.2610   22.6470 C   0  0  0  0  0  0  0  0  0  0  0  0
  -21.2440   -6.8250   23.8980 C   0  0  0  0  0  3  0  0  0  0  0  0
  -21.1770   -6.0080   25.0440 C   0  0  0  0  0  3  0  0  0  0  0  0
  -21.4320   -4.6260   24.9390 C   0  0  0  0  0  0  0  0  0  0  0  0
  -21.7610   -4.0630   23.6930 C   0  0  0  0  0  3  0  0  0  0  0  0
  -21.8290   -4.8780   22.5510 C   0  0  0  0  0  0  0  0  0  0  0  0
  -22.1250   -4.3260   21.3490 F   0  0  0  0  0  0  0  0  0  0  0  0
  -21.3620   -3.8400   26.0380 F   0  0  0  0  0  0  0  0  0  0  0  0
  -22.8320  -13.6170   21.0870 C   0  0  0  0  0  0  0  0  0  0  0  0
  -22.1190  -12.9440   21.9840 N   0  0  0  0  0  0  0  0  0  0  0  0
  -22.4020  -14.6510   20.5780 O   0  0  0  0  0  0  0  0  0  0  0  0
  -22.4820  -12.1070   22.4140 H   0  0  0  0  0  0  0  0  0  0  0  0
  -21.2000  -13.2700   22.2420 H   0  0  0  0  0  0  0  0  0  0  0  0
  -25.4760  -15.2110   20.1670 N   0  0  0  0  0  0  0  0  0  0  0  0
  -24.7340  -15.8890   20.3030 H   0  0  0  0  0  0  0  0  0  0  0  0
  -26.3300  -15.6190   19.8090 H   0  0  0  0  0  0  0  0  0  0  0  0
  2  3  1  0
  2  1  1  0
  3  4  1  0
  5  3  1  0
  6  3  1  0
  6  7  1  0
  7  8  1  0
  8  9  1  0
  9 10  1  0
 10 12  1  0
 11 22  2  0
 12 17  1  0
 13 21  1  0
 13 23  1  0
 14 20  1  0
 14 16  1  0
 15 21  1  0
 16 17  2  0
 16 15  1  0
 18 12  2  0
 19 18  1  0
 19 14  2  0
 20 13  1  0
 21 11  1  0
 23 25  2  0
 24 23  1  0
 26 24  1  0
 27 36  2  0
 27 32  1  0
 28 24  1  0
 28 32  1  0
 29 28  1  0
 30 31  1  0
 30 29  1  0
 31 27  1  0
 32 33  2  0
 33 34  1  0
 35 34  2  0
 36 35  1  0
 37 11  1  0
 37 38  1  0
 37 47  1  0
 38 41  1  0
 39 43  1  0
 39 38  1  0
 40 39  2  0
 43 42  1  0
 45 43  1  0
 45 46  1  0
 45 44  1  0
 47 50  1  1
 47 48  1  0
 49 47  1  0
 51  1  1  0
 51 52  1  0
 52 53  1  0
 53 54  1  0
 54 55  1  0
 55 56  1  0
 55 58  1  0
 57 55  1  0
 58 59  1  0
 59 60  1  0
 61 69  1  0
 62 67  1  0
 63 64  1  0
 63 62  1  0
 65 64  1  0
 65 74  1  0
 65 66  1  0
 67 61  1  0
 67 66  1  0
 68 61  2  0
 69 70  1  0
 69 60  1  0
 71 72  2  0
 72 91  1  0
 73 72  1  0
 73 76  1  0
 74 71  1  0
 74 75  1  0
 75 73  2  0
 76 77  1  0
 77 78  2  0
 79 82  1  0
 79 78  1  0
 80 79  2  0
 81 80  1  0
 81 76  2  0
 82 83  1  0
 83 84  1  0
 84 85  2  0
 86 85  1  0
 86 90  1  0
 87 86  2  0
 88 83  2  0
 88 87  1  0
 89 88  1  0
 91 92  1  0
 92 95  1  0
 92 94  1  0
 93 91  2  0
 96 97  1  0
 96 71  1  0
 98 96  1  0
M  ISO  4   9 101  10 101  61 100  69 100
M  END
>  <TORSDO>  (84) 
F 30

>  <SCORE>  (84) 
-9.832

>  <name>  (84) 
86

>  <ligand_id>  (84) 
86

>  <original_smiles>  (84) 
[H]c1c([H])c([H])c2c(c1[H])C([H])([H])C([H])([H])C([H])([H])C2([H])N([H])C(=O)C1([H])N(C(=O)C([H])(N([H])C(=O)C([H])(N([H])C([H])([H])[H])C([H])([H])[H])C(C([H])([H])[H])(C([H])([H])[H])C([H])([H])[H])C([H])([H])c2c([H])c(OC([H])([H])C([H])([H])C([H])([H])C([H])([H])[N+]([H])([H])C([H])([H])C([H])([H])C([H])([H])C([H])([H])C([H])([H])C([H])([H])[N+]([H])([H])C([H])([H])C([H])([H])C([H])([H])N([H])C(=O)N3C([H])([H])C([H])([H])C([H])([H])C([H])(n4nc(-c5c([H])c([H])c(Oc6c([H])c([H])c(F)c([H])c6F)c([H])c5[H])c(C(=O)N([H])[H])c4N([H])[H])C3([H])[H])c([H])c([H])c2C1([H])[H]

>  <smiles>  (84) 
[H]c1c([H])c([H])c2c(c1[H])C([H])([H])C([H])([H])C([H])([H])C2([H])N([H])C(=O)C1([H])N(C(=O)C([H])(N([H])C(=O)C([H])(N([H])C([H])([H])[H])C([H])([H])[H])C(C([H])([H])[H])(C([H])([H])[H])C([H])([H])[H])C([H])([H])c2c([H])c(OC([H])([H])C([H])([H])C([H])([H])C([H])([H])[N+]([H])([H])C([H])([H])C([H])([H])C([H])([H])C([H])([H])C([H])([H])C([H])([H])[N+]([H])([H])C([H])([H])C([H])([H])C([H])([H])N([H])C(=O)N3C([H])([H])C([H])([H])C([H])([H])C([H])(n4nc(-c5c([H])c([H])c(Oc6c([H])c([H])c(F)c([H])c6F)c([H])c5[H])c(C(=O)N([H])[H])c4N([H])[H])C3([H])[H])c([H])c([H])c2C1([H])[H]

$$$$
88:0:0
     RDKit          3D

108116  0  0  1  0  0  0  0  0999 V2000
  -29.2900  -20.9950   17.0310 C   0  0  0  0  0  2  0  0  0  0  0  0
  -28.2990  -21.7000   16.2880 O   0  0  0  0  0  0  0  0  0  0  0  0
  -27.6100  -22.7100   17.0220 C   0  0  0  0  0  2  0  0  0  0  0  0
  -26.6110  -22.0740   18.0110 C   0  0  0  0  0  2  0  0  0  0  0  0
  -26.5200  -22.7930   19.2370 O   0  0  0  0  0  0  0  0  0  0  0  0
  -27.7370  -22.8610   19.9770 C   0  0  0  0  0  2  0  0  0  0  0  0
  -27.5950  -22.0520   21.2850 C   0  0  0  0  0  2  0  0  0  0  0  0
  -27.2820  -20.6710   21.0850 O   0  0  0  0  0  0  0  0  0  0  0  0
  -28.3740  -19.8630   20.6740 C   0  0  0  0  0  2  0  0  0  0  0  0
  -28.1130  -18.3830   21.0220 C   0  0  0  0  0  2  0  0  0  0  0  0
  -30.4550  -17.5730   21.0600 C   0  0  0  0  0  0  0  0  0  0  0  0
  -29.2220  -17.5650   20.5420 N   0  0  0  0  0  0  0  0  0  0  0  0
  -30.6980  -18.0240   22.1800 O   0  0  0  0  0  0  0  0  0  0  0  0
  -29.1160  -17.1600   19.6220 H   0  0  0  0  0  0  0  0  0  0  0  0
  -32.1440  -14.6670   20.1150 C   0  0  0  0  0  0  0  0  0  0  0  0
  -31.8790  -12.2340   19.9290 C   0  0  0  0  0  2  0  0  0  0  0  0
  -31.0770  -11.9300   18.6480 C   0  0  0  0  0  2  0  0  0  0  0  0
  -29.5670  -11.9360   18.9630 C   0  0  0  0  0  2  0  0  0  0  0  0
  -29.1110  -13.1930   19.7490 C   0  0  0  0  0  3  0  0  0  0  0  0
  -30.0600  -13.5100   20.9270 C   0  0  0  0  0  2  0  0  0  0  0  0
  -31.4330  -13.5480   20.4070 N   0  0  0  0  0  0  0  0  0  0  0  0
  -33.3610  -14.6620   19.9290 O   0  0  0  0  0  0  0  0  0  0  0  0
  -30.9070  -17.2210   17.8420 C   0  0  0  0  0  2  0  0  0  0  0  0
  -31.6670  -17.9900   18.9080 C   0  0  0  0  0  2  0  0  0  0  0  0
  -31.2400  -15.7750   18.1760 C   0  0  0  0  0  2  0  0  0  0  0  0
  -31.6010  -17.0860   20.1590 C   0  0  0  0  0  3  0  0  0  0  0  0
  -31.4330  -15.7120   19.6370 N   0  0  0  0  0  0  0  0  0  0  0  0
  -26.7800  -14.0850   20.3490 C   0  0  0  0  0  0  0  0  0  0  0  0
  -25.6170  -13.4470   20.6920 C   0  0  0  0  0  0  0  0  0  0  0  0
  -25.9210  -12.0520   20.7040 C   0  0  0  0  0  0  0  0  0  0  0  0
  -27.7230  -13.0850   20.1820 N   0  0  0  0  0  0  0  0  0  0  0  0
  -27.2090  -11.8590   20.4540 N   0  0  0  0  0  0  0  0  0  0  0  0
  -25.0500  -10.8840   20.8790 C   0  0  0  0  0  0  0  0  0  0  0  0
  -25.2980   -9.9220   21.8840 C   0  0  0  0  0  3  0  0  0  0  0  0
  -24.4350   -8.8170   22.0400 C   0  0  0  0  0  3  0  0  0  0  0  0
  -23.3120   -8.6700   21.1900 C   0  0  0  0  0  0  0  0  0  0  0  0
  -23.0850   -9.6170   20.1780 C   0  0  0  0  0  3  0  0  0  0  0  0
  -23.9470  -10.7140   20.0200 C   0  0  0  0  0  3  0  0  0  0  0  0
  -22.4300   -7.6180   21.2530 O   0  0  0  0  0  0  0  0  0  0  0  0
  -22.1350   -6.9970   22.4380 C   0  0  0  0  0  0  0  0  0  0  0  0
  -21.6180   -7.7090   23.5440 C   0  0  0  0  0  3  0  0  0  0  0  0
  -21.2730   -7.0200   24.7230 C   0  0  0  0  0  3  0  0  0  0  0  0
  -21.4270   -5.6220   24.7930 C   0  0  0  0  0  0  0  0  0  0  0  0
  -21.9290   -4.9110   23.6900 C   0  0  0  0  0  3  0  0  0  0  0  0
  -22.2800   -5.5980   22.5140 C   0  0  0  0  0  0  0  0  0  0  0  0
  -22.7490   -4.9070   21.4470 F   0  0  0  0  0  0  0  0  0  0  0  0
  -21.0830   -4.9580   25.9230 F   0  0  0  0  0  0  0  0  0  0  0  0
  -24.2750  -14.0890   20.8940 C   0  0  0  0  0  0  0  0  0  0  0  0
  -23.4390  -13.5140   21.7540 N   0  0  0  0  0  0  0  0  0  0  0  0
  -23.9770  -15.1350   20.3210 O   0  0  0  0  0  0  0  0  0  0  0  0
  -23.6890  -12.6660   22.2400 H   0  0  0  0  0  0  0  0  0  0  0  0
  -22.5380  -13.9360   21.9290 H   0  0  0  0  0  0  0  0  0  0  0  0
  -27.0940  -15.4190   20.1300 N   0  0  0  0  0  0  0  0  0  0  0  0
  -26.3200  -16.0680   20.0300 H   0  0  0  0  0  0  0  0  0  0  0  0
  -27.9040  -15.6800   19.5850 H   0  0  0  0  0  0  0  0  0  0  0  0
  -30.5710  -21.8440   17.1840 C   0  0  0  0  0  2  0  0  0  0  0  0
  -31.3300  -21.5110   18.3480 O   0  0  0  0  0  0  0  0  0  0  0  0
  -30.6090  -21.6210   19.5710 C   0  0  0  0  0  2  0  0  0  0  0  0
  -31.4730  -22.2840   20.6610 C   0  0  0  0  0  2  0  0  0  0  0  0
  -30.3430  -23.1630   22.7310 C   0  0  0  0  0  0  0  0  0  0  0  0
  -30.6610  -23.2120   21.4360 N   0  0  0  0  0  0  0  0  0  0  0  0
  -30.7530  -22.2900   23.4970 O   0  0  0  0  0  0  0  0  0  0  0  0
  -30.2170  -23.9680   20.9280 H   0  0  0  0  0  0  0  0  0  0  0  0
  -29.3800  -24.2580   23.2150 C   0  0  0  0  0  2  0  0  0  0  0  0
  -29.0240  -25.1130   22.1190 O   0  0  0  0  0  0  0  0  0  0  0  0
  -29.8230  -26.2910   21.9740 C   0  0  0  0  0  2  0  0  0  0  0  0
  -30.0790  -26.6010   20.4860 C   0  0  0  0  0  2  0  0  0  0  0  0
  -28.9360  -26.3740   19.6640 O   0  0  0  0  0  0  0  0  0  0  0  0
  -25.0660  -31.2480   23.2220 C   0  0  0  0  0  0  0  0  0  0  0  0
  -27.8080  -27.1600   19.7860 C   0  0  0  0  0  0  0  0  0  0  0  0
  -23.8970  -30.0220   21.4150 C   0  0  0  0  0  3  0  0  0  0  0  0
  -25.3890  -28.6290   19.8820 C   0  0  0  0  0  0  0  0  0  0  0  0
  -26.4220  -30.3950   21.3210 C   0  0  0  0  0  2  0  0  0  0  0  0
  -26.5280  -29.1030   20.5460 C   0  0  0  0  0  0  0  0  0  0  0  0
  -27.7420  -28.3830   20.4940 C   0  0  0  0  0  3  0  0  0  0  0  0
  -26.6480  -26.6890   19.1330 C   0  0  0  0  0  3  0  0  0  0  0  0
  -25.4450  -27.4210   19.1670 C   0  0  0  0  0  3  0  0  0  0  0  0
  -24.1370  -29.4720   19.9820 C   0  0  0  0  0  2  0  0  0  0  0  0
  -25.1430  -30.5660   22.0440 N   0  0  0  0  0  0  0  0  0  0  0  0
  -23.9760  -31.4680   23.7650 O   0  0  0  0  0  0  0  0  0  0  0  0
  -23.2250  -28.9120   22.2530 C   0  0  0  0  0  0  0  0  0  0  0  0
  -21.9060  -28.7400   22.0710 N   0  0  0  0  0  0  0  0  0  0  0  0
  -23.8880  -28.2140   23.0230 O   0  0  0  0  0  0  0  0  0  0  0  0
  -21.4350  -29.3580   21.4260 H   0  0  0  0  0  0  0  0  0  0  0  0
  -18.5230  -27.5110   22.3660 C   0  0  0  0  0  0  0  0  0  0  0  0
  -21.0730  -27.7330   22.7250 C   0  0  0  0  0  3  0  0  0  0  0  0
  -21.1880  -26.3660   22.0120 C   0  0  0  0  0  2  0  0  0  0  0  0
  -20.1080  -26.1490   20.9460 C   0  0  0  0  0  2  0  0  0  0  0  0
  -18.7120  -26.2350   21.5660 C   0  0  0  0  0  2  0  0  0  0  0  0
  -19.6300  -28.2240   22.8970 C   0  0  0  0  0  0  0  0  0  0  0  0
  -19.3940  -29.4270   23.5990 C   0  0  0  0  0  3  0  0  0  0  0  0
  -18.0830  -29.9110   23.7820 C   0  0  0  0  0  3  0  0  0  0  0  0
  -16.9920  -29.1920   23.2660 C   0  0  0  0  0  3  0  0  0  0  0  0
  -17.2120  -27.9950   22.5620 C   0  0  0  0  0  3  0  0  0  0  0  0
  -26.3400  -31.8060   23.9290 C   0  0  0  0  0  3  0  0  0  0  0  0
  -26.0250  -33.1600   24.3990 N   0  0  0  0  0  0  0  0  0  0  0  0
  -26.3550  -34.2870   23.7540 C   0  0  0  0  0  0  0  0  0  0  0  0
  -27.0350  -34.2950   22.7230 O   0  0  0  0  0  0  0  0  0  0  0  0
  -25.4330  -33.2270   25.2140 H   0  0  0  0  0  0  0  0  0  0  0  0
  -24.6170  -36.0930   23.5760 C   0  0  0  0  0  1  0  0  0  0  0  0
  -25.8570  -35.6190   24.3490 C   0  0  0  0  0  3  0  0  0  0  0  0
  -27.9840  -36.4280   25.2720 C   0  0  0  0  0  1  0  0  0  0  0  0
  -26.8840  -36.6850   24.3490 N   0  0  0  0  0  0  0  0  0  0  0  0
  -26.4680  -37.5810   24.5950 H   0  0  0  0  0  0  0  0  0  0  0  0
  -26.8350  -30.9060   25.1260 C   0  0  1  0  0  0  0  0  0  0  0  0
  -25.7260  -30.5730   26.1490 C   0  0  0  0  0  1  0  0  0  0  0  0
  -27.4220  -29.5730   24.6060 C   0  0  0  0  0  1  0  0  0  0  0  0
  -27.9720  -31.6280   25.8880 C   0  0  0  0  0  1  0  0  0  0  0  0
  1 56  1  0
  2  3  1  0
  2  1  1  0
  3  4  1  0
  4  5  1  0
  5  6  1  0
  6  7  1  0
  8  7  1  0
  9 10  1  0
  9  8  1  0
 11 13  2  0
 12 10  1  0
 12 11  1  0
 14 12  1  0
 15 21  1  0
 16 21  1  0
 17 18  1  0
 17 16  1  0
 19 18  1  0
 19 31  1  0
 19 20  1  0
 21 20  1  0
 22 15  2  0
 23 25  1  0
 23 24  1  0
 24 26  1  0
 25 27  1  0
 26 11  1  0
 27 15  1  0
 27 26  1  0
 28 29  2  0
 29 30  1  0
 29 48  1  0
 30 33  1  0
 31 28  1  0
 31 32  1  0
 32 30  2  0
 33 34  1  0
 34 35  2  0
 36 39  1  0
 36 35  1  0
 37 36  2  0
 38 37  1  0
 38 33  2  0
 39 40  1  0
 40 45  2  0
 40 41  1  0
 41 42  2  0
 42 43  1  0
 43 47  1  0
 44 43  2  0
 45 44  1  0
 46 45  1  0
 48 49  1  0
 49 52  1  0
 49 51  1  0
 50 48  2  0
 53 28  1  0
 54 53  1  0
 55 53  1  0
 56 57  1  0
 57 58  1  0
 58 59  1  0
 59 61  1  0
 60 64  1  0
 60 62  2  0
 61 60  1  0
 63 61  1  0
 65 64  1  0
 66 65  1  0
 67 66  1  0
 68 70  1  0
 68 67  1  0
 69 80  2  0
 70 75  1  0
 71 79  1  0
 71 81  1  0
 72 78  1  0
 72 74  1  0
 73 79  1  0
 74 73  1  0
 75 74  2  0
 76 77  1  0
 76 70  2  0
 77 72  2  0
 78 71  1  0
 79 69  1  0
 81 83  2  0
 82 81  1  0
 84 82  1  0
 85 94  2  0
 85 90  1  0
 86 82  1  0
 86 90  1  0
 87 86  1  0
 88 89  1  0
 88 87  1  0
 89 85  1  0
 90 91  2  0
 91 92  1  0
 93 92  2  0
 94 93  1  0
 95 69  1  0
 95 96  1  0
 95105  1  0
 96 99  1  0
 97101  1  0
 97 96  1  0
 98 97  2  0
101100  1  0
103101  1  0
103104  1  0
103102  1  0
105108  1  1
105106  1  0
107105  1  0
M  ISO  4  15 100  27 100  67 101  68 101
M  END
>  <TORSDO>  (85) 
F 35

>  <SCORE>  (85) 
-6.455

>  <name>  (85) 
88

>  <ligand_id>  (85) 
88

>  <original_smiles>  (85) 
[H]c1c([H])c([H])c2c(c1[H])C([H])([H])C([H])([H])C([H])([H])C2([H])N([H])C(=O)C1([H])N(C(=O)C([H])(N([H])C(=O)C([H])(N([H])C([H])([H])[H])C([H])([H])[H])C(C([H])([H])[H])(C([H])([H])[H])C([H])([H])[H])C([H])([H])c2c([H])c(OC([H])([H])C([H])([H])OC([H])([H])C(=O)N([H])C([H])([H])C([H])([H])OC([H])([H])C([H])([H])OC([H])([H])C([H])([H])OC([H])([H])C([H])([H])OC([H])([H])C([H])([H])N([H])C(=O)C3([H])N(C(=O)N4C([H])([H])C([H])([H])C([H])([H])C([H])(n5nc(-c6c([H])c([H])c(Oc7c([H])c([H])c(F)c([H])c7F)c([H])c6[H])c(C(=O)N([H])[H])c5N([H])[H])C4([H])[H])C([H])([H])C([H])([H])C3([H])[H])c([H])c([H])c2C1([H])[H]

>  <smiles>  (85) 
[H]c1c([H])c([H])c2c(c1[H])C([H])([H])C([H])([H])C([H])([H])C2([H])N([H])C(=O)C1([H])N(C(=O)C([H])(N([H])C(=O)C([H])(N([H])C([H])([H])[H])C([H])([H])[H])C(C([H])([H])[H])(C([H])([H])[H])C([H])([H])[H])C([H])([H])c2c([H])c(OC([H])([H])C([H])([H])OC([H])([H])C(=O)N([H])C([H])([H])C([H])([H])OC([H])([H])C([H])([H])OC([H])([H])C([H])([H])OC([H])([H])C([H])([H])OC([H])([H])C([H])([H])N([H])C(=O)C3([H])N(C(=O)N4C([H])([H])C([H])([H])C([H])([H])C([H])(n5nc(-c6c([H])c([H])c(Oc7c([H])c([H])c(F)c([H])c7F)c([H])c6[H])c(C(=O)N([H])[H])c5N([H])[H])C4([H])[H])C([H])([H])C([H])([H])C3([H])[H])c([H])c([H])c2C1([H])[H]

$$$$
89:0:0
     RDKit          3D

111118  0  0  1  0  0  0  0  0999 V2000
  -23.4220  -13.8800   15.9590 C   0  0  0  0  0  3  0  0  0  0  0  0
  -24.9940  -13.9890   16.0430 C   0  0  0  0  0  3  0  0  0  0  0  0
  -25.7080  -15.0010   15.0740 C   0  0  0  0  0  2  0  0  0  0  0  0
  -27.1710  -15.4020   15.4990 C   0  0  0  0  0  2  0  0  0  0  0  0
  -27.6700  -16.8430   15.1190 C   0  0  0  0  0  2  0  0  0  0  0  0
  -28.3900  -17.5730   16.3000 C   0  0  0  0  0  3  0  0  0  0  0  0
  -28.7170  -19.0780   16.0650 C   0  0  0  0  0  3  0  0  0  0  0  0
  -29.0580  -19.9230   17.3290 C   0  0  0  0  0  2  0  0  0  0  0  0
  -29.2970  -21.4310   17.0150 C   0  0  0  0  0  2  0  0  0  0  0  0
  -29.4050  -22.3270   18.2030 N   0  0  0  0  0  4  0  0  0  0  0  0
  -30.0540  -21.9310   18.8590 H   0  0  0  0  0  0  0  0  0  0  0  0
  -28.5100  -22.3630   18.6540 H   0  0  0  0  0  0  0  0  0  0  0  0
  -29.8510  -23.7140   17.8910 C   0  0  0  0  0  2  0  0  0  0  0  0
  -29.7610  -24.7440   19.0600 C   0  0  0  0  0  2  0  0  0  0  0  0
  -28.3790  -25.4260   19.2190 C   0  0  0  0  0  2  0  0  0  0  0  0
  -28.4020  -26.6610   19.9790 O   0  0  0  0  0  0  0  0  0  0  0  0
  -24.6260  -31.8620   23.2000 C   0  0  0  0  0  0  0  0  0  0  0  0
  -27.2250  -27.4040   20.0420 C   0  0  0  0  0  0  0  0  0  0  0  0
  -23.4110  -30.4930   21.5440 C   0  0  0  0  0  3  0  0  0  0  0  0
  -24.8460  -28.9510   20.1130 C   0  0  0  0  0  0  0  0  0  0  0  0
  -25.9480  -30.8070   21.3660 C   0  0  0  0  0  2  0  0  0  0  0  0
  -26.0150  -29.4440   20.7060 C   0  0  0  0  0  0  0  0  0  0  0  0
  -27.2060  -28.6760   20.6710 C   0  0  0  0  0  3  0  0  0  0  0  0
  -26.0180  -26.9220   19.4790 C   0  0  0  0  0  3  0  0  0  0  0  0
  -24.8420  -27.6870   19.5060 C   0  0  0  0  0  3  0  0  0  0  0  0
  -23.6160  -29.8260   20.1610 C   0  0  0  0  0  2  0  0  0  0  0  0
  -24.6810  -31.0700   22.0940 N   0  0  0  0  0  0  0  0  0  0  0  0
  -23.5460  -32.1420   23.7380 O   0  0  0  0  0  0  0  0  0  0  0  0
  -22.7460  -29.4690   22.4910 C   0  0  0  0  0  0  0  0  0  0  0  0
  -21.4190  -29.3090   22.3670 N   0  0  0  0  0  0  0  0  0  0  0  0
  -23.4170  -28.8220   23.2990 O   0  0  0  0  0  0  0  0  0  0  0  0
  -20.9330  -29.8810   21.6910 H   0  0  0  0  0  0  0  0  0  0  0  0
  -18.0290  -28.1400   22.8470 C   0  0  0  0  0  0  0  0  0  0  0  0
  -20.5900  -28.3700   23.1260 C   0  0  0  0  0  3  0  0  0  0  0  0
  -20.6780  -26.9420   22.5400 C   0  0  0  0  0  2  0  0  0  0  0  0
  -19.5770  -26.6400   21.5190 C   0  0  0  0  0  2  0  0  0  0  0  0
  -18.1950  -26.7940   22.1600 C   0  0  0  0  0  2  0  0  0  0  0  0
  -19.1550  -28.8860   23.2880 C   0  0  0  0  0  0  0  0  0  0  0  0
  -18.9480  -30.1450   23.8900 C   0  0  0  0  0  3  0  0  0  0  0  0
  -17.6480  -30.6590   24.0570 C   0  0  0  0  0  3  0  0  0  0  0  0
  -16.5370  -29.9100   23.6330 C   0  0  0  0  0  3  0  0  0  0  0  0
  -16.7280  -28.6520   23.0330 C   0  0  0  0  0  3  0  0  0  0  0  0
  -25.9150  -32.4770   23.8300 C   0  0  0  0  0  3  0  0  0  0  0  0
  -25.5990  -33.8540   24.2240 N   0  0  0  0  0  0  0  0  0  0  0  0
  -25.9070  -34.9430   23.5060 C   0  0  0  0  0  0  0  0  0  0  0  0
  -26.5630  -34.8910   22.4620 O   0  0  0  0  0  0  0  0  0  0  0  0
  -25.0120  -33.9670   25.0370 H   0  0  0  0  0  0  0  0  0  0  0  0
  -24.1500  -36.7290   23.2630 C   0  0  0  0  0  1  0  0  0  0  0  0
  -25.4120  -36.3030   24.0290 C   0  0  0  0  0  3  0  0  0  0  0  0
  -27.5580  -37.1790   24.8440 C   0  0  0  0  0  1  0  0  0  0  0  0
  -26.4280  -37.3750   23.9410 N   0  0  0  0  0  0  0  0  0  0  0  0
  -26.0130  -38.2800   24.1420 H   0  0  0  0  0  0  0  0  0  0  0  0
  -26.4530  -31.6560   25.0660 C   0  0  1  0  0  0  0  0  0  0  0  0
  -25.3760  -31.3740   26.1390 C   0  0  0  0  0  1  0  0  0  0  0  0
  -27.0390  -30.2970   24.6140 C   0  0  0  0  0  1  0  0  0  0  0  0
  -27.6070  -32.4290   25.7490 C   0  0  0  0  0  1  0  0  0  0  0  0
  -22.7020  -13.1410   17.1640 C   0  0  0  0  0  2  0  0  0  0  0  0
  -21.1330  -13.0740   17.0460 C   0  0  0  0  0  2  0  0  0  0  0  0
  -20.3060  -11.9960   17.8540 C   0  0  0  0  0  3  0  0  0  0  0  0
  -20.1450  -12.2560   19.3760 C   0  0  0  0  0  3  0  0  0  0  0  0
  -19.7410  -11.0640   20.3490 C   0  0  0  0  0  2  0  0  0  0  0  0
  -20.2170  -11.3150   21.8530 C   0  0  0  0  0  2  0  0  0  0  0  0
  -20.8110  -10.3750   23.0100 C   0  0  0  0  0  2  0  0  0  0  0  0
  -22.0310  -11.0530   23.7340 C   0  0  0  0  0  2  0  0  0  0  0  0
  -23.1950  -10.4000   24.4100 N   0  0  0  0  0  4  0  0  0  0  0  0
  -23.5050   -9.6130   23.8610 H   0  0  0  0  0  0  0  0  0  0  0  0
  -22.9140  -10.0330   25.3020 H   0  0  0  0  0  0  0  0  0  0  0  0
  -24.2860  -11.4600   24.5680 C   0  0  0  0  0  2  0  0  0  0  0  0
  -25.7960  -11.1100   24.8430 C   0  0  0  0  0  2  0  0  0  0  0  0
  -26.8740  -12.0140   24.0910 C   0  0  0  0  0  3  0  0  0  0  0  0
  -27.3830  -13.3150   24.7960 C   0  0  0  0  0  3  0  0  0  0  0  0
  -28.1540  -14.3630   23.8820 C   0  0  0  0  0  2  0  0  0  0  0  0
  -29.6540  -14.1140   23.4170 C   0  0  0  0  0  2  0  0  0  0  0  0
  -30.6160  -14.2570   20.9760 C   0  0  0  0  0  0  0  0  0  0  0  0
  -30.5000  -12.3630   19.3370 C   0  0  0  0  0  2  0  0  0  0  0  0
  -29.5490  -12.6300   18.1530 C   0  0  0  0  0  2  0  0  0  0  0  0
  -28.0530  -12.3950   18.5240 C   0  0  0  0  0  2  0  0  0  0  0  0
  -27.6700  -13.1520   19.8200 C   0  0  0  0  0  3  0  0  0  0  0  0
  -28.6680  -12.7050   20.8820 C   0  0  0  0  0  2  0  0  0  0  0  0
  -30.0170  -13.1430   20.5020 N   0  0  0  0  0  0  0  0  0  0  0  0
  -31.5890  -14.7520   20.3730 O   0  0  0  0  0  0  0  0  0  0  0  0
  -30.0890  -14.7880   22.1340 N   0  0  0  0  0  0  0  0  0  0  0  0
  -30.4050  -15.7420   22.2850 H   0  0  0  0  0  0  0  0  0  0  0  0
  -25.2670  -13.8100   20.5040 C   0  0  0  0  0  0  0  0  0  0  0  0
  -24.1820  -13.0980   20.8630 C   0  0  0  0  0  0  0  0  0  0  0  0
  -24.6080  -11.7130   20.8130 C   0  0  0  0  0  0  0  0  0  0  0  0
  -26.2980  -12.9260   20.2710 N   0  0  0  0  0  0  0  0  0  0  0  0
  -25.8990  -11.6610   20.5250 N   0  0  0  0  0  0  0  0  0  0  0  0
  -23.9280  -10.4180   20.9740 C   0  0  0  0  0  0  0  0  0  0  0  0
  -24.4130   -9.4250   21.8700 C   0  0  0  0  0  3  0  0  0  0  0  0
  -23.6960   -8.2280   22.0830 C   0  0  0  0  0  3  0  0  0  0  0  0
  -22.5390   -7.9570   21.3060 C   0  0  0  0  0  0  0  0  0  0  0  0
  -22.1660   -8.8550   20.3060 C   0  0  0  0  0  3  0  0  0  0  0  0
  -22.8310  -10.0820   20.1590 C   0  0  0  0  0  3  0  0  0  0  0  0
  -21.7090   -6.8740   21.4100 O   0  0  0  0  0  0  0  0  0  0  0  0
  -21.7000   -6.0650   22.5080 C   0  0  0  0  0  0  0  0  0  0  0  0
  -21.4240   -6.5800   23.7830 C   0  0  0  0  0  3  0  0  0  0  0  0
  -21.3910   -5.7340   24.9030 C   0  0  0  0  0  3  0  0  0  0  0  0
  -21.6130   -4.3520   24.7430 C   0  0  0  0  0  0  0  0  0  0  0  0
  -21.8700   -3.8210   23.4590 C   0  0  0  0  0  3  0  0  0  0  0  0
  -21.9140   -4.6860   22.3450 C   0  0  0  0  0  0  0  0  0  0  0  0
  -22.1680   -4.2050   21.1100 F   0  0  0  0  0  0  0  0  0  0  0  0
  -21.5660   -3.5270   25.8200 F   0  0  0  0  0  0  0  0  0  0  0  0
  -22.8460  -13.7250   21.1500 C   0  0  0  0  0  0  0  0  0  0  0  0
  -22.3220  -13.5740   22.3310 N   0  0  0  0  0  0  0  0  0  0  0  0
  -22.3490  -14.5690   20.4080 O   0  0  0  0  0  0  0  0  0  0  0  0
  -22.9140  -13.2040   23.0490 H   0  0  0  0  0  0  0  0  0  0  0  0
  -21.4610  -14.0520   22.5880 H   0  0  0  0  0  0  0  0  0  0  0  0
  -25.4260  -15.1850   20.3460 N   0  0  0  0  0  0  0  0  0  0  0  0
  -24.6470  -15.7840   20.5730 H   0  0  0  0  0  0  0  0  0  0  0  0
  -26.2810  -15.6800   20.1920 H   0  0  0  0  0  0  0  0  0  0  0  0
  1  2  2  0
  1 57  1  0
  3  4  1  0
  3  2  1  0
  5  4  1  0
  5  6  1  0
  7  6  2  0
  7  8  1  0
  9  8  1  0
  9 10  1  0
 10 12  1  0
 10 11  1  0
 13 10  1  0
 13 14  1  0
 14 15  1  0
 15 16  1  0
 16 18  1  0
 17 28  2  0
 18 23  1  0
 19 27  1  0
 19 29  1  0
 20 26  1  0
 20 22  1  0
 21 27  1  0
 22 21  1  0
 23 22  2  0
 24 25  1  0
 24 18  2  0
 25 20  2  0
 26 19  1  0
 27 17  1  0
 29 31  2  0
 30 29  1  0
 32 30  1  0
 33 42  2  0
 33 38  1  0
 34 30  1  0
 34 38  1  0
 35 34  1  0
 36 37  1  0
 36 35  1  0
 37 33  1  0
 38 39  2  0
 39 40  1  0
 41 40  2  0
 42 41  1  0
 43 17  1  0
 43 44  1  0
 43 53  1  0
 44 47  1  0
 45 49  1  0
 45 44  1  0
 46 45  2  0
 49 48  1  0
 51 49  1  0
 51 52  1  0
 51 50  1  0
 53 56  1  1
 53 54  1  0
 55 53  1  0
 58 57  1  0
 58 59  1  0
 59 60  2  0
 60 61  1  0
 61 62  1  0
 62 63  1  0
 63 64  1  0
 64 65  1  0
 65 68  1  0
 65 67  1  0
 66 65  1  0
 68 69  1  0
 70 71  2  0
 70 69  1  0
 72 71  1  0
 73 72  1  0
 74 82  1  0
 75 80  1  0
 76 77  1  0
 76 75  1  0
 78 77  1  0
 78 87  1  0
 78 79  1  0
 80 79  1  0
 80 74  1  0
 81 74  2  0
 82 83  1  0
 82 73  1  0
 84 85  2  0
 85104  1  0
 86 85  1  0
 86 89  1  0
 87 84  1  0
 87 88  1  0
 88 86  2  0
 89 90  1  0
 90 91  2  0
 92 95  1  0
 92 91  1  0
 93 92  2  0
 94 93  1  0
 94 89  2  0
 95 96  1  0
 96 97  1  0
 97 98  2  0
 99 98  1  0
 99103  1  0
100 99  2  0
101 96  2  0
101100  1  0
102101  1  0
104105  1  0
105108  1  0
105107  1  0
106104  2  0
109 84  1  0
109110  1  0
111109  1  0
M  ISO  4  15 101  16 101  74 100  82 100
M  END
>  <TORSDO>  (86) 
F 43

>  <SCORE>  (86) 
56.886

>  <name>  (86) 
89

>  <ligand_id>  (86) 
89

>  <original_smiles>  (86) 
[H]c1c([H])c([H])c2c(c1[H])C([H])([H])C([H])([H])C([H])([H])C2([H])N([H])C(=O)C1([H])N(C(=O)C([H])(N([H])C(=O)C([H])(N([H])C([H])([H])[H])C([H])([H])[H])C(C([H])([H])[H])(C([H])([H])[H])C([H])([H])[H])C([H])([H])c2c([H])c(OC([H])([H])C([H])([H])C([H])([H])[N+]([H])([H])C([H])([H])C([H])([H])C([H])([H])C([H])([H])C([H])([H])C([H])([H])C([H])([H])C([H])([H])C([H])([H])C([H])([H])C([H])([H])C([H])([H])C([H])([H])C([H])([H])C([H])([H])C([H])([H])C([H])([H])[N+]([H])([H])C([H])([H])C([H])([H])C([H])([H])C([H])([H])C([H])([H])C([H])([H])N([H])C(=O)N3C([H])([H])C([H])([H])C([H])([H])C([H])(n4nc(-c5c([H])c([H])c(Oc6c([H])c([H])c(F)c([H])c6F)c([H])c5[H])c(C(=O)N([H])[H])c4N([H])[H])C3([H])[H])c([H])c([H])c2C1([H])[H]

>  <smiles>  (86) 
[H]c1c([H])c([H])c2c(c1[H])C([H])([H])C([H])([H])C([H])([H])C2([H])N([H])C(=O)C1([H])N(C(=O)C([H])(N([H])C(=O)C([H])(N([H])C([H])([H])[H])C([H])([H])[H])C(C([H])([H])[H])(C([H])([H])[H])C([H])([H])[H])C([H])([H])c2c([H])c(OC([H])([H])C([H])([H])C([H])([H])[N+]([H])([H])C([H])([H])C([H])([H])C([H])([H])C([H])([H])C([H])([H])C([H])([H])C([H])([H])C([H])([H])C([H])([H])C([H])([H])C([H])([H])C([H])([H])C([H])([H])C([H])([H])C([H])([H])C([H])([H])C([H])([H])[N+]([H])([H])C([H])([H])C([H])([H])C([H])([H])C([H])([H])C([H])([H])C([H])([H])N([H])C(=O)N3C([H])([H])C([H])([H])C([H])([H])C([H])(n4nc(-c5c([H])c([H])c(Oc6c([H])c([H])c(F)c([H])c6F)c([H])c5[H])c(C(=O)N([H])[H])c4N([H])[H])C3([H])[H])c([H])c([H])c2C1([H])[H]

$$$$
90:0:0
     RDKit          3D

101108  0  0  1  0  0  0  0  0999 V2000
  -26.5670  -24.1280   23.3560 C   0  0  0  0  0  2  0  0  0  0  0  0
  -26.8500  -25.5180   23.4440 O   0  0  0  0  0  0  0  0  0  0  0  0
  -27.3940  -25.8750   24.7090 C   0  0  0  0  0  2  0  0  0  0  0  0
  -28.0580  -27.2490   24.5960 C   0  0  0  0  0  2  0  0  0  0  0  0
  -29.2100  -27.1130   23.7810 O   0  0  0  0  0  0  0  0  0  0  0  0
  -29.7400  -28.3650   23.3770 C   0  0  0  0  0  2  0  0  0  0  0  0
  -30.9720  -28.1430   22.4860 C   0  0  0  0  0  2  0  0  0  0  0  0
  -30.6250  -27.7640   21.1550 O   0  0  0  0  0  0  0  0  0  0  0  0
  -30.3370  -26.3780   20.9670 C   0  0  0  0  0  2  0  0  0  0  0  0
  -28.8490  -26.1690   20.6510 C   0  0  0  0  0  2  0  0  0  0  0  0
  -28.5240  -26.7630   19.3940 O   0  0  0  0  0  0  0  0  0  0  0  0
  -24.5410  -31.5320   22.8160 C   0  0  0  0  0  0  0  0  0  0  0  0
  -27.3420  -27.4500   19.4360 C   0  0  0  0  0  0  0  0  0  0  0  0
  -23.3780  -30.1920   21.0880 C   0  0  0  0  0  3  0  0  0  0  0  0
  -24.8840  -28.8150   19.5560 C   0  0  0  0  0  0  0  0  0  0  0  0
  -25.8790  -30.6800   20.8980 C   0  0  0  0  0  2  0  0  0  0  0  0
  -26.0190  -29.3600   20.1710 C   0  0  0  0  0  0  0  0  0  0  0  0
  -27.2540  -28.6840   20.1110 C   0  0  0  0  0  3  0  0  0  0  0  0
  -26.2000  -26.9050   18.8180 C   0  0  0  0  0  3  0  0  0  0  0  0
  -24.9680  -27.5850   18.8760 C   0  0  0  0  0  3  0  0  0  0  0  0
  -23.6020  -29.6090   19.6660 C   0  0  0  0  0  2  0  0  0  0  0  0
  -24.6180  -30.8140   21.6600 N   0  0  0  0  0  0  0  0  0  0  0  0
  -23.4560  -31.7230   23.3800 O   0  0  0  0  0  0  0  0  0  0  0  0
  -22.7830  -29.0840   21.9840 C   0  0  0  0  0  0  0  0  0  0  0  0
  -21.4560  -28.8980   21.9010 N   0  0  0  0  0  0  0  0  0  0  0  0
  -23.5090  -28.4010   22.7120 O   0  0  0  0  0  0  0  0  0  0  0  0
  -20.9260  -29.5090   21.2920 H   0  0  0  0  0  0  0  0  0  0  0  0
  -18.1130  -27.6760   22.5020 C   0  0  0  0  0  0  0  0  0  0  0  0
  -20.6860  -27.8820   22.6180 C   0  0  0  0  0  3  0  0  0  0  0  0
  -20.7300  -26.5270   21.8750 C   0  0  0  0  0  2  0  0  0  0  0  0
  -19.5480  -26.3160   20.9240 C   0  0  0  0  0  2  0  0  0  0  0  0
  -18.2220  -26.4020   21.6820 C   0  0  0  0  0  2  0  0  0  0  0  0
  -19.2710  -28.3760   22.9310 C   0  0  0  0  0  0  0  0  0  0  0  0
  -19.1150  -29.5710   23.6670 C   0  0  0  0  0  3  0  0  0  0  0  0
  -17.8330  -30.0650   23.9760 C   0  0  0  0  0  3  0  0  0  0  0  0
  -16.6900  -29.3580   23.5630 C   0  0  0  0  0  3  0  0  0  0  0  0
  -16.8320  -28.1660   22.8320 C   0  0  0  0  0  3  0  0  0  0  0  0
  -25.8080  -32.1670   23.4720 C   0  0  0  0  0  3  0  0  0  0  0  0
  -25.4370  -33.5060   23.9460 N   0  0  0  0  0  0  0  0  0  0  0  0
  -25.7190  -34.6440   23.2960 C   0  0  0  0  0  0  0  0  0  0  0  0
  -26.3880  -34.6770   22.2600 O   0  0  0  0  0  0  0  0  0  0  0  0
  -24.8300  -33.5500   24.7500 H   0  0  0  0  0  0  0  0  0  0  0  0
  -23.9180  -36.3900   23.1120 C   0  0  0  0  0  1  0  0  0  0  0  0
  -25.1690  -35.9550   23.8910 C   0  0  0  0  0  3  0  0  0  0  0  0
  -27.2780  -36.8220   24.8030 C   0  0  0  0  0  1  0  0  0  0  0  0
  -26.1550  -37.0560   23.8990 N   0  0  0  0  0  0  0  0  0  0  0  0
  -25.7140  -37.9340   24.1610 H   0  0  0  0  0  0  0  0  0  0  0  0
  -26.4050  -31.2990   24.6480 C   0  0  1  0  0  0  0  0  0  0  0  0
  -25.3490  -30.8290   25.6740 C   0  0  0  0  0  1  0  0  0  0  0  0
  -27.1050  -30.0410   24.0890 C   0  0  0  0  0  1  0  0  0  0  0  0
  -27.4890  -32.1060   25.4020 C   0  0  0  0  0  1  0  0  0  0  0  0
  -25.9670  -23.8240   21.9720 C   0  0  0  0  0  3  0  0  0  0  0  0
  -24.5880  -24.1430   22.0190 O   0  0  0  0  0  0  0  0  0  0  0  0
  -24.5350  -25.0380   22.3390 H   0  0  0  0  0  0  0  0  0  0  0  0
  -26.1480  -22.3470   21.5770 C   0  0  0  0  0  2  0  0  0  0  0  0
  -27.3740  -22.2190   20.8690 O   0  0  0  0  0  0  0  0  0  0  0  0
  -27.9980  -20.9570   21.0360 C   0  0  0  0  0  2  0  0  0  0  0  0
  -29.0250  -20.7720   19.9080 C   0  0  0  0  0  2  0  0  0  0  0  0
  -30.1440  -18.6520   20.5530 C   0  0  0  0  0  0  0  0  0  0  0  0
  -30.1640  -19.9690   20.3450 N   0  0  0  0  0  0  0  0  0  0  0  0
  -29.1400  -17.9640   20.3490 O   0  0  0  0  0  0  0  0  0  0  0  0
  -31.0290  -20.4620   20.5250 H   0  0  0  0  0  0  0  0  0  0  0  0
  -31.4350  -18.0210   21.0890 C   0  0  0  0  0  2  0  0  0  0  0  0
  -31.8250  -15.6300   20.5500 C   0  0  0  0  0  0  0  0  0  0  0  0
  -31.6460  -13.2910   19.7830 C   0  0  0  0  0  2  0  0  0  0  0  0
  -30.8690  -13.2000   18.4530 C   0  0  0  0  0  2  0  0  0  0  0  0
  -29.3500  -13.1540   18.6940 C   0  0  0  0  0  2  0  0  0  0  0  0
  -28.8610  -14.2470   19.6800 C   0  0  0  0  0  3  0  0  0  0  0  0
  -29.7440  -14.2660   20.9460 C   0  0  0  0  0  2  0  0  0  0  0  0
  -31.1500  -14.4520   20.5360 N   0  0  0  0  0  0  0  0  0  0  0  0
  -32.8970  -15.8150   19.9650 O   0  0  0  0  0  0  0  0  0  0  0  0
  -31.2400  -16.5860   21.2710 N   0  0  0  0  0  0  0  0  0  0  0  0
  -30.3860  -16.3150   21.7360 H   0  0  0  0  0  0  0  0  0  0  0  0
  -26.4280  -15.0120   20.0350 C   0  0  0  0  0  0  0  0  0  0  0  0
  -25.2850  -14.3180   20.3330 C   0  0  0  0  0  0  0  0  0  0  0  0
  -25.6800  -12.9540   20.4820 C   0  0  0  0  0  0  0  0  0  0  0  0
  -27.4490  -14.0720   20.0100 N   0  0  0  0  0  0  0  0  0  0  0  0
  -26.9930  -12.8350   20.3340 N   0  0  0  0  0  0  0  0  0  0  0  0
  -24.8770  -11.7450   20.7040 C   0  0  0  0  0  0  0  0  0  0  0  0
  -25.1740  -10.8390   21.7460 C   0  0  0  0  0  3  0  0  0  0  0  0
  -24.3780   -9.6920   21.9470 C   0  0  0  0  0  3  0  0  0  0  0  0
  -23.2690   -9.4410   21.1030 C   0  0  0  0  0  0  0  0  0  0  0  0
  -22.9880  -10.3350   20.0540 C   0  0  0  0  0  3  0  0  0  0  0  0
  -23.7870  -11.4740   19.8530 C   0  0  0  0  0  3  0  0  0  0  0  0
  -22.4530   -8.3410   21.2080 O   0  0  0  0  0  0  0  0  0  0  0  0
  -22.1620   -7.7730   22.4220 C   0  0  0  0  0  0  0  0  0  0  0  0
  -21.6180   -8.5230   23.4870 C   0  0  0  0  0  3  0  0  0  0  0  0
  -21.2720   -7.8840   24.6940 C   0  0  0  0  0  3  0  0  0  0  0  0
  -21.4580   -6.4970   24.8360 C   0  0  0  0  0  0  0  0  0  0  0  0
  -21.9960   -5.7460   23.7760 C   0  0  0  0  0  3  0  0  0  0  0  0
  -22.3440   -6.3820   22.5710 C   0  0  0  0  0  0  0  0  0  0  0  0
  -22.8420   -5.6520   21.5450 F   0  0  0  0  0  0  0  0  0  0  0  0
  -21.1190   -5.8800   25.9920 F   0  0  0  0  0  0  0  0  0  0  0  0
  -23.8910  -14.8730   20.3950 C   0  0  0  0  0  0  0  0  0  0  0  0
  -23.0320  -14.2800   21.2170 N   0  0  0  0  0  0  0  0  0  0  0  0
  -23.5660  -15.8690   19.7510 O   0  0  0  0  0  0  0  0  0  0  0  0
  -23.3000  -13.4780   21.7670 H   0  0  0  0  0  0  0  0  0  0  0  0
  -22.0920  -14.6410   21.3020 H   0  0  0  0  0  0  0  0  0  0  0  0
  -26.6810  -16.3560   19.7750 N   0  0  0  0  0  0  0  0  0  0  0  0
  -25.9560  -17.0600   19.8380 H   0  0  0  0  0  0  0  0  0  0  0  0
  -27.6170  -16.7550   19.7660 H   0  0  0  0  0  0  0  0  0  0  0  0
  1  2  1  0
  2  3  1  0
  4  3  1  0
  5  4  1  0
  6  5  1  0
  7  6  1  0
  8  7  1  0
  9  8  1  0
 10  9  1  0
 11 13  1  0
 11 10  1  0
 12 23  2  0
 13 18  1  0
 14 22  1  0
 14 24  1  0
 15 21  1  0
 15 17  1  0
 16 22  1  0
 17 16  1  0
 18 17  2  0
 19 20  1  0
 19 13  2  0
 20 15  2  0
 21 14  1  0
 22 12  1  0
 24 26  2  0
 25 24  1  0
 27 25  1  0
 28 37  2  0
 28 33  1  0
 29 25  1  0
 29 33  1  0
 30 29  1  0
 31 32  1  0
 31 30  1  0
 32 28  1  0
 33 34  2  0
 34 35  1  0
 36 35  2  0
 37 36  1  0
 38 12  1  0
 38 39  1  0
 38 48  1  0
 39 42  1  0
 40 44  1  0
 40 39  1  0
 41 40  2  0
 44 43  1  0
 44 46  1  0
 46 47  1  0
 46 45  1  0
 48 51  1  1
 48 49  1  0
 50 48  1  0
 52 55  1  0
 52 53  1  0
 52  1  1  0
 53 54  1  0
 56 57  1  0
 56 55  1  0
 58 60  1  0
 58 57  1  0
 59 63  1  0
 60 62  1  0
 60 59  1  0
 61 59  2  0
 63 72  1  0
 64 72  1  0
 65 70  1  0
 66 67  1  0
 66 65  1  0
 68 67  1  0
 68 77  1  0
 68 69  1  0
 70 64  1  0
 70 69  1  0
 71 64  2  0
 72 73  1  0
 74 75  2  0
 75 94  1  0
 75 76  1  0
 76 79  1  0
 77 74  1  0
 77 78  1  0
 78 76  2  0
 79 80  1  0
 80 81  2  0
 82 85  1  0
 82 81  1  0
 83 82  2  0
 84 83  1  0
 84 79  2  0
 85 86  1  0
 86 91  2  0
 86 87  1  0
 87 88  2  0
 88 89  1  0
 89 93  1  0
 90 89  2  0
 91 90  1  0
 92 91  1  0
 94 95  1  0
 95 98  1  0
 95 97  1  0
 96 94  2  0
 99100  1  0
 99 74  1  0
101 99  1  0
M  ISO  4  10 101  11 101  64 100  72 100
M  END
>  <TORSDO>  (87) 
F 33

>  <SCORE>  (87) 
-5.687

>  <name>  (87) 
90

>  <ligand_id>  (87) 
90

>  <original_smiles>  (87) 
[H]OC([H])(C([H])([H])OC([H])([H])C([H])([H])OC([H])([H])C([H])([H])OC([H])([H])C([H])([H])Oc1c([H])c([H])c2c(c1[H])C([H])([H])N(C(=O)C([H])(N([H])C(=O)C([H])(N([H])C([H])([H])[H])C([H])([H])[H])C(C([H])([H])[H])(C([H])([H])[H])C([H])([H])[H])C([H])(C(=O)N([H])C1([H])c3c([H])c([H])c([H])c([H])c3C([H])([H])C([H])([H])C1([H])[H])C2([H])[H])C([H])([H])OC([H])([H])C([H])([H])N([H])C(=O)C([H])([H])N([H])C(=O)N1C([H])([H])C([H])([H])C([H])([H])C([H])(n2nc(-c3c([H])c([H])c(Oc4c([H])c([H])c(F)c([H])c4F)c([H])c3[H])c(C(=O)N([H])[H])c2N([H])[H])C1([H])[H]

>  <smiles>  (87) 
[H]OC([H])(C([H])([H])OC([H])([H])C([H])([H])OC([H])([H])C([H])([H])OC([H])([H])C([H])([H])Oc1c([H])c([H])c2c(c1[H])C([H])([H])N(C(=O)C([H])(N([H])C(=O)C([H])(N([H])C([H])([H])[H])C([H])([H])[H])C(C([H])([H])[H])(C([H])([H])[H])C([H])([H])[H])C([H])(C(=O)N([H])C1([H])c3c([H])c([H])c([H])c([H])c3C([H])([H])C([H])([H])C1([H])[H])C2([H])[H])C([H])([H])OC([H])([H])C([H])([H])N([H])C(=O)C([H])([H])N([H])C(=O)N1C([H])([H])C([H])([H])C([H])([H])C([H])(n2nc(-c3c([H])c([H])c(Oc4c([H])c([H])c(F)c([H])c4F)c([H])c3[H])c(C(=O)N([H])[H])c2N([H])[H])C1([H])[H]

$$$$
91:0:0
     RDKit          3D

105113  0  0  1  0  0  0  0  0999 V2000
  -29.9280  -19.2380   20.0240 O   0  0  0  0  0  0  0  0  0  0  0  0
  -30.5020  -18.2230   20.8280 C   0  0  0  0  0  2  0  0  0  0  0  0
  -32.0210  -18.3530   20.6750 C   0  0  0  0  0  2  0  0  0  0  0  0
  -32.3780  -17.9750   19.3490 O   0  0  0  0  0  0  0  0  0  0  0  0
  -33.7240  -18.2970   19.0210 C   0  0  0  0  0  2  0  0  0  0  0  0
  -34.1450  -17.5490   17.7490 C   0  0  0  0  0  2  0  0  0  0  0  0
  -34.2720  -16.1720   18.0710 O   0  0  0  0  0  0  0  0  0  0  0  0
  -34.9980  -15.4110   17.1190 C   0  0  0  0  0  2  0  0  0  0  0  0
  -34.9500  -13.9480   17.5660 C   0  0  0  0  0  2  0  0  0  0  0  0
  -35.4140  -13.8850   18.9090 O   0  0  0  0  0  0  0  0  0  0  0  0
  -35.2090  -12.6210   19.5230 C   0  0  0  0  0  2  0  0  0  0  0  0
  -35.0900  -12.8200   21.0440 C   0  0  0  0  0  2  0  0  0  0  0  0
  -33.9450  -13.6280   21.2940 O   0  0  0  0  0  0  0  0  0  0  0  0
  -33.5830  -13.7650   22.6600 C   0  0  0  0  0  2  0  0  0  0  0  0
  -32.3460  -14.6910   22.7840 C   0  0  0  0  0  2  0  0  0  0  0  0
  -30.9290  -14.1550   20.7960 C   0  0  0  0  0  0  0  0  0  0  0  0
  -30.4230  -12.2790   19.3210 C   0  0  0  0  0  2  0  0  0  0  0  0
  -29.4800  -12.5840   18.1590 C   0  0  0  0  0  2  0  0  0  0  0  0
  -28.0170  -12.4110   18.5970 C   0  0  0  0  0  2  0  0  0  0  0  0
  -27.6860  -13.2130   19.8840 C   0  0  0  0  0  3  0  0  0  0  0  0
  -28.7380  -12.9550   20.9890 C   0  0  0  0  0  2  0  0  0  0  0  0
  -30.0940  -13.1590   20.4460 N   0  0  0  0  0  0  0  0  0  0  0  0
  -31.6590  -14.7570   20.0070 O   0  0  0  0  0  0  0  0  0  0  0  0
  -31.1590  -14.1510   22.1130 N   0  0  0  0  0  0  0  0  0  0  0  0
  -30.5690  -13.5300   22.6470 H   0  0  0  0  0  0  0  0  0  0  0  0
  -25.2670  -13.8180   20.5700 C   0  0  0  0  0  0  0  0  0  0  0  0
  -24.1900  -13.0460   20.9150 C   0  0  0  0  0  0  0  0  0  0  0  0
  -24.6480  -11.6920   20.8690 C   0  0  0  0  0  0  0  0  0  0  0  0
  -26.3200  -12.9390   20.3460 N   0  0  0  0  0  0  0  0  0  0  0  0
  -25.9430  -11.6510   20.5780 N   0  0  0  0  0  0  0  0  0  0  0  0
  -23.9130  -10.4300   21.0380 C   0  0  0  0  0  0  0  0  0  0  0  0
  -24.3670   -9.4240   21.9180 C   0  0  0  0  0  3  0  0  0  0  0  0
  -23.6350   -8.2280   22.0760 C   0  0  0  0  0  3  0  0  0  0  0  0
  -22.4300   -8.0310   21.3580 C   0  0  0  0  0  0  0  0  0  0  0  0
  -21.9970   -9.0250   20.4660 C   0  0  0  0  0  3  0  0  0  0  0  0
  -22.7300  -10.2120   20.3060 C   0  0  0  0  0  3  0  0  0  0  0  0
  -21.6660   -6.8920   21.4310 O   0  0  0  0  0  0  0  0  0  0  0  0
  -21.6860   -6.0770   22.5340 C   0  0  0  0  0  0  0  0  0  0  0  0
  -21.4010   -6.5660   23.8270 C   0  0  0  0  0  3  0  0  0  0  0  0
  -21.3630   -5.6800   24.9220 C   0  0  0  0  0  3  0  0  0  0  0  0
  -21.6030   -4.3070   24.7270 C   0  0  0  0  0  0  0  0  0  0  0  0
  -21.8810   -3.8180   23.4380 C   0  0  0  0  0  3  0  0  0  0  0  0
  -21.9200   -4.7000   22.3440 C   0  0  0  0  0  0  0  0  0  0  0  0
  -22.1670   -4.2200   21.1000 F   0  0  0  0  0  0  0  0  0  0  0  0
  -21.5620   -3.4540   25.7770 F   0  0  0  0  0  0  0  0  0  0  0  0
  -22.7920  -13.5220   21.1840 C   0  0  0  0  0  0  0  0  0  0  0  0
  -22.0500  -12.8180   22.0360 N   0  0  0  0  0  0  0  0  0  0  0  0
  -22.3600  -14.5530   20.6710 O   0  0  0  0  0  0  0  0  0  0  0  0
  -22.4000  -11.9820   22.4790 H   0  0  0  0  0  0  0  0  0  0  0  0
  -21.1160  -13.1310   22.2540 H   0  0  0  0  0  0  0  0  0  0  0  0
  -25.4360  -15.1910   20.4050 N   0  0  0  0  0  0  0  0  0  0  0  0
  -24.6720  -15.8540   20.4840 H   0  0  0  0  0  0  0  0  0  0  0  0
  -26.3060  -15.6240   20.1200 H   0  0  0  0  0  0  0  0  0  0  0  0
  -28.5080  -19.2390   20.0150 C   0  0  0  0  0  2  0  0  0  0  0  0
  -28.1360  -20.4240   19.1210 C   0  0  0  0  0  2  0  0  0  0  0  0
  -28.9330  -23.5720   21.1590 C   0  0  0  0  0  2  0  0  0  0  0  0
  -30.3460  -23.5620   19.2140 C   0  0  0  0  0  2  0  0  0  0  0  0
  -28.0560  -22.4590   20.5530 C   0  0  0  0  0  2  0  0  0  0  0  0
  -29.4790  -22.4610   18.5640 C   0  0  0  0  0  2  0  0  0  0  0  0
  -29.5150  -24.3920   20.0910 N   0  0  0  0  0  0  0  0  0  0  0  0
  -28.8490  -21.6280   19.6150 N   0  0  2  0  0  4  0  0  0  0  0  0
  -29.6250  -21.2450   20.1390 H   0  0  0  0  0  0  0  0  0  0  0  0
  -30.2610  -25.5330   20.6420 C   0  0  0  0  0  2  0  0  0  0  0  0
  -29.3010  -26.6840   21.0050 C   0  0  0  0  0  2  0  0  0  0  0  0
  -28.3830  -26.7590   19.9240 O   0  0  0  0  0  0  0  0  0  0  0  0
  -24.6090  -31.8770   23.2170 C   0  0  0  0  0  0  0  0  0  0  0  0
  -27.2400  -27.4920   20.0750 C   0  0  0  0  0  0  0  0  0  0  0  0
  -23.3930  -30.4990   21.5570 C   0  0  0  0  0  3  0  0  0  0  0  0
  -24.8410  -28.9630   20.1280 C   0  0  0  0  0  0  0  0  0  0  0  0
  -25.9190  -30.8480   21.3740 C   0  0  0  0  0  2  0  0  0  0  0  0
  -25.9970  -29.4850   20.7290 C   0  0  0  0  0  0  0  0  0  0  0  0
  -27.1980  -28.7510   20.7180 C   0  0  0  0  0  3  0  0  0  0  0  0
  -26.0740  -26.9770   19.4780 C   0  0  0  0  0  3  0  0  0  0  0  0
  -24.8690  -27.7020   19.5110 C   0  0  0  0  0  3  0  0  0  0  0  0
  -23.6040  -29.8280   20.1720 C   0  0  0  0  0  2  0  0  0  0  0  0
  -24.6580  -31.0880   22.1080 N   0  0  0  0  0  0  0  0  0  0  0  0
  -23.5310  -32.1480   23.7620 O   0  0  0  0  0  0  0  0  0  0  0  0
  -22.7360  -29.4700   22.5030 C   0  0  0  0  0  0  0  0  0  0  0  0
  -21.4100  -29.3060   22.3760 N   0  0  0  0  0  0  0  0  0  0  0  0
  -23.4160  -28.8250   23.3060 O   0  0  0  0  0  0  0  0  0  0  0  0
  -20.9240  -29.8770   21.6980 H   0  0  0  0  0  0  0  0  0  0  0  0
  -18.0260  -28.1380   22.8470 C   0  0  0  0  0  0  0  0  0  0  0  0
  -20.5850  -28.3660   23.1330 C   0  0  0  0  0  3  0  0  0  0  0  0
  -20.6770  -26.9410   22.5430 C   0  0  0  0  0  2  0  0  0  0  0  0
  -19.5760  -26.6370   21.5210 C   0  0  0  0  0  2  0  0  0  0  0  0
  -18.1920  -26.7930   22.1580 C   0  0  0  0  0  2  0  0  0  0  0  0
  -19.1510  -28.8830   23.2900 C   0  0  0  0  0  0  0  0  0  0  0  0
  -18.9450  -30.1430   23.8920 C   0  0  0  0  0  3  0  0  0  0  0  0
  -17.6450  -30.6590   24.0550 C   0  0  0  0  0  3  0  0  0  0  0  0
  -16.5340  -29.9100   23.6320 C   0  0  0  0  0  3  0  0  0  0  0  0
  -16.7240  -28.6520   23.0340 C   0  0  0  0  0  3  0  0  0  0  0  0
  -25.9020  -32.4860   23.8450 C   0  0  0  0  0  3  0  0  0  0  0  0
  -25.5910  -33.8650   24.2380 N   0  0  0  0  0  0  0  0  0  0  0  0
  -25.9020  -34.9500   23.5160 C   0  0  0  0  0  0  0  0  0  0  0  0
  -26.5560  -34.8930   22.4700 O   0  0  0  0  0  0  0  0  0  0  0  0
  -25.0090  -33.9830   25.0550 H   0  0  0  0  0  0  0  0  0  0  0  0
  -24.1480  -36.7330   23.2630 C   0  0  0  0  0  1  0  0  0  0  0  0
  -25.4110  -36.3140   24.0350 C   0  0  0  0  0  3  0  0  0  0  0  0
  -27.5600  -37.1820   24.8450 C   0  0  0  0  0  1  0  0  0  0  0  0
  -26.4300  -37.3830   23.9420 N   0  0  0  0  0  0  0  0  0  0  0  0
  -26.0200  -38.2910   24.1450 H   0  0  0  0  0  0  0  0  0  0  0  0
  -26.4470  -31.6600   25.0730 C   0  0  1  0  0  0  0  0  0  0  0  0
  -25.3750  -31.3720   26.1480 C   0  0  0  0  0  1  0  0  0  0  0  0
  -27.0290  -30.3040   24.6110 C   0  0  0  0  0  1  0  0  0  0  0  0
  -27.6050  -32.4290   25.7500 C   0  0  0  0  0  1  0  0  0  0  0  0
  1  2  1  0
  3  2  1  0
  4  3  1  0
  5  4  1  0
  6  7  1  0
  6  5  1  0
  8  9  1  0
  8  7  1  0
  9 10  1  0
 10 11  1  0
 11 12  1  0
 12 13  1  0
 13 14  1  0
 14 15  1  0
 16 24  1  0
 17 22  1  0
 18 19  1  0
 18 17  1  0
 20 19  1  0
 20 29  1  0
 20 21  1  0
 22 16  1  0
 22 21  1  0
 23 16  2  0
 24 25  1  0
 24 15  1  0
 26 27  2  0
 27 46  1  0
 28 27  1  0
 28 31  1  0
 29 26  1  0
 29 30  1  0
 30 28  2  0
 31 32  1  0
 32 33  2  0
 34 37  1  0
 34 33  1  0
 35 34  2  0
 36 35  1  0
 36 31  2  0
 37 38  1  0
 38 39  1  0
 39 40  2  0
 41 40  1  0
 41 45  1  0
 42 41  2  0
 43 38  2  0
 43 42  1  0
 44 43  1  0
 46 47  1  0
 47 50  1  0
 47 49  1  0
 48 46  2  0
 51 52  1  0
 51 26  1  0
 53 51  1  0
 54  1  1  0
 55 61  1  0
 55 54  1  0
 57 60  1  0
 58 56  1  0
 59 57  1  0
 59 61  1  0
 60 63  1  0
 60 56  1  0
 61 62  1  1
 61 58  1  0
 63 64  1  0
 65 67  1  0
 65 64  1  0
 66 77  2  0
 67 72  1  0
 68 76  1  0
 68 78  1  0
 69 75  1  0
 69 71  1  0
 70 76  1  0
 71 70  1  0
 72 71  2  0
 73 74  1  0
 73 67  2  0
 74 69  2  0
 75 68  1  0
 76 66  1  0
 78 80  2  0
 79 78  1  0
 81 79  1  0
 82 91  2  0
 82 87  1  0
 83 79  1  0
 83 87  1  0
 84 83  1  0
 85 86  1  0
 85 84  1  0
 86 82  1  0
 87 88  2  0
 88 89  1  0
 90 89  2  0
 91 90  1  0
 92 66  1  0
 92 93  1  0
 92102  1  0
 93 96  1  0
 94 98  1  0
 94 93  1  0
 95 94  2  0
 98 97  1  0
100 98  1  0
100101  1  0
100 99  1  0
102105  1  1
102103  1  0
104102  1  0
M  ISO  4  16 100  24 100  64 101  65 101
M  END
>  <TORSDO>  (88) 
F 35

>  <SCORE>  (88) 
-6.058

>  <name>  (88) 
91

>  <ligand_id>  (88) 
91

>  <original_smiles>  (88) 
[H]c1c([H])c([H])c2c(c1[H])C([H])([H])C([H])([H])C([H])([H])C2([H])N([H])C(=O)C1([H])N(C(=O)C([H])(N([H])C(=O)C([H])(N([H])C([H])([H])[H])C([H])([H])[H])C(C([H])([H])[H])(C([H])([H])[H])C([H])([H])[H])C([H])([H])c2c([H])c(OC([H])([H])C([H])([H])N3C([H])([H])C([H])([H])[N+]([H])(C([H])([H])C([H])([H])OC([H])([H])C([H])([H])OC([H])([H])C([H])([H])OC([H])([H])C([H])([H])OC([H])([H])C([H])([H])OC([H])([H])C([H])([H])N([H])C(=O)N4C([H])([H])C([H])([H])C([H])([H])C([H])(n5nc(-c6c([H])c([H])c(Oc7c([H])c([H])c(F)c([H])c7F)c([H])c6[H])c(C(=O)N([H])[H])c5N([H])[H])C4([H])[H])C([H])([H])C3([H])[H])c([H])c([H])c2C1([H])[H]

>  <smiles>  (88) 
[H]c1c([H])c([H])c2c(c1[H])C([H])([H])C([H])([H])C([H])([H])C2([H])N([H])C(=O)C1([H])N(C(=O)C([H])(N([H])C(=O)C([H])(N([H])C([H])([H])[H])C([H])([H])[H])C(C([H])([H])[H])(C([H])([H])[H])C([H])([H])[H])C([H])([H])c2c([H])c(OC([H])([H])C([H])([H])N3C([H])([H])C([H])([H])[N+]([H])(C([H])([H])C([H])([H])OC([H])([H])C([H])([H])OC([H])([H])C([H])([H])OC([H])([H])C([H])([H])OC([H])([H])C([H])([H])OC([H])([H])C([H])([H])N([H])C(=O)N4C([H])([H])C([H])([H])C([H])([H])C([H])(n5nc(-c6c([H])c([H])c(Oc7c([H])c([H])c(F)c([H])c7F)c([H])c6[H])c(C(=O)N([H])[H])c5N([H])[H])C4([H])[H])C([H])([H])C3([H])[H])c([H])c([H])c2C1([H])[H]

$$$$
92:0:0
     RDKit          3D

 94101  0  0  1  0  0  0  0  0999 V2000
  -25.6750  -22.3440   23.1470 C   0  0  0  0  0  2  0  0  0  0  0  0
  -27.0490  -22.9870   23.3750 C   0  0  0  0  0  2  0  0  0  0  0  0
  -28.2060  -22.0460   22.9880 C   0  0  0  0  0  2  0  0  0  0  0  0
  -28.9180  -22.4190   21.6740 C   0  0  0  0  0  2  0  0  0  0  0  0
  -28.9810  -21.2640   20.6630 C   0  0  0  0  0  2  0  0  0  0  0  0
  -27.7110  -21.0910   20.0480 O   0  0  0  0  0  0  0  0  0  0  0  0
  -27.7520  -20.3740   18.8240 C   0  0  0  0  0  2  0  0  0  0  0  0
  -26.9280  -19.0730   18.9140 C   0  0  0  0  0  2  0  0  0  0  0  0
  -27.6920  -17.8380   18.4060 C   0  0  0  0  0  2  0  0  0  0  0  0
  -28.0860  -16.8930   19.5510 C   0  0  0  0  0  2  0  0  0  0  0  0
  -30.1700  -15.4860   19.3090 C   0  0  0  0  0  0  0  0  0  0  0  0
  -30.5540  -13.0880   19.7530 C   0  0  0  0  0  2  0  0  0  0  0  0
  -29.8160  -12.2050   18.7270 C   0  0  0  0  0  2  0  0  0  0  0  0
  -28.3620  -11.9390   19.1630 C   0  0  0  0  0  2  0  0  0  0  0  0
  -27.6260  -13.2380   19.5830 C   0  0  0  0  0  3  0  0  0  0  0  0
  -28.4980  -14.0290   20.5830 C   0  0  0  0  0  2  0  0  0  0  0  0
  -29.7850  -14.3330   19.9340 N   0  0  0  0  0  0  0  0  0  0  0  0
  -31.2020  -15.5620   18.6410 O   0  0  0  0  0  0  0  0  0  0  0  0
  -29.5220  -16.6280   19.5900 N   0  0  0  0  0  0  0  0  0  0  0  0
  -30.0770  -17.4350   19.3440 H   0  0  0  0  0  0  0  0  0  0  0  0
  -25.2360  -13.8160   20.3580 C   0  0  0  0  0  0  0  0  0  0  0  0
  -24.2110  -13.0310   20.8120 C   0  0  0  0  0  0  0  0  0  0  0  0
  -24.7150  -11.6940   20.8300 C   0  0  0  0  0  0  0  0  0  0  0  0
  -26.3010  -12.9550   20.1280 N   0  0  0  0  0  0  0  0  0  0  0  0
  -25.9910  -11.6780   20.4680 N   0  0  0  0  0  0  0  0  0  0  0  0
  -24.0420  -10.4210   21.1190 C   0  0  0  0  0  0  0  0  0  0  0  0
  -24.1900   -9.7780   22.3660 C   0  0  0  0  0  3  0  0  0  0  0  0
  -23.5220   -8.5620   22.6280 C   0  0  0  0  0  3  0  0  0  0  0  0
  -22.6940   -7.9810   21.6380 C   0  0  0  0  0  0  0  0  0  0  0  0
  -22.5700   -8.6140   20.3880 C   0  0  0  0  0  3  0  0  0  0  0  0
  -23.2410   -9.8210   20.1280 C   0  0  0  0  0  3  0  0  0  0  0  0
  -22.0270   -6.7900   21.7930 O   0  0  0  0  0  0  0  0  0  0  0  0
  -21.1930   -6.5670   22.8580 C   0  0  0  0  0  0  0  0  0  0  0  0
  -20.0570   -7.3710   23.0970 C   0  0  0  0  0  3  0  0  0  0  0  0
  -19.1870   -7.0620   24.1620 C   0  0  0  0  0  3  0  0  0  0  0  0
  -19.4450   -5.9480   24.9820 C   0  0  0  0  0  0  0  0  0  0  0  0
  -20.5720   -5.1410   24.7410 C   0  0  0  0  0  3  0  0  0  0  0  0
  -21.4420   -5.4490   23.6800 C   0  0  0  0  0  0  0  0  0  0  0  0
  -22.5150   -4.6580   23.4400 F   0  0  0  0  0  0  0  0  0  0  0  0
  -18.6060   -5.6460   26.0000 F   0  0  0  0  0  0  0  0  0  0  0  0
  -22.8110  -13.4770   21.1220 C   0  0  0  0  0  0  0  0  0  0  0  0
  -22.1360  -12.7880   22.0350 N   0  0  0  0  0  0  0  0  0  0  0  0
  -22.3250  -14.4710   20.5850 O   0  0  0  0  0  0  0  0  0  0  0  0
  -22.5410  -11.9820   22.4880 H   0  0  0  0  0  0  0  0  0  0  0  0
  -21.1960  -13.0660   22.2810 H   0  0  0  0  0  0  0  0  0  0  0  0
  -25.3450  -15.1800   20.1020 N   0  0  0  0  0  0  0  0  0  0  0  0
  -24.5570  -15.8090   20.2010 H   0  0  0  0  0  0  0  0  0  0  0  0
  -26.1480  -15.6230   19.6750 H   0  0  0  0  0  0  0  0  0  0  0  0
  -24.6100  -23.3560   22.7020 C   0  0  0  0  0  2  0  0  0  0  0  0
  -23.5660  -22.7070   21.7860 C   0  0  0  0  0  2  0  0  0  0  0  0
  -23.3120  -23.5080   20.5020 C   0  0  0  0  0  2  0  0  0  0  0  0
  -22.3330  -22.7800   19.5740 C   0  0  0  0  0  2  0  0  0  0  0  0
  -22.4330  -23.2300   18.1060 C   0  0  0  0  0  2  0  0  0  0  0  0
  -21.1290  -23.4770   17.5940 O   0  0  0  0  0  0  0  0  0  0  0  0
  -21.1990  -28.3620   22.7680 C   0  0  0  0  0  0  0  0  0  0  0  0
  -20.4670  -24.4890   18.2400 C   0  0  0  0  0  0  0  0  0  0  0  0
  -19.0290  -28.0240   21.6270 C   0  0  0  0  0  3  0  0  0  0  0  0
  -19.1010  -26.5960   19.5160 C   0  0  0  0  0  0  0  0  0  0  0  0
  -21.2290  -27.5570   20.4140 C   0  0  0  0  0  2  0  0  0  0  0  0
  -20.4940  -26.5010   19.6190 C   0  0  0  0  0  0  0  0  0  0  0  0
  -21.1840  -25.4460   18.9880 C   0  0  0  0  0  3  0  0  0  0  0  0
  -19.0660  -24.5990   18.1320 C   0  0  0  0  0  3  0  0  0  0  0  0
  -18.3780  -25.6420   18.7800 C   0  0  0  0  0  3  0  0  0  0  0  0
  -18.4420  -27.7650   20.2130 C   0  0  0  0  0  2  0  0  0  0  0  0
  -20.5270  -27.9690   21.6490 N   0  0  0  0  0  0  0  0  0  0  0  0
  -20.5960  -28.8060   23.7540 O   0  0  0  0  0  0  0  0  0  0  0  0
  -18.3660  -27.0420   22.6200 C   0  0  0  0  0  0  0  0  0  0  0  0
  -17.0240  -27.0450   22.6560 N   0  0  0  0  0  0  0  0  0  0  0  0
  -19.0510  -26.2830   23.3110 O   0  0  0  0  0  0  0  0  0  0  0  0
  -16.5360  -27.7040   22.0640 H   0  0  0  0  0  0  0  0  0  0  0  0
  -13.6360  -25.8990   23.1550 C   0  0  0  0  0  0  0  0  0  0  0  0
  -16.1830  -26.1810   23.4830 C   0  0  0  0  0  3  0  0  0  0  0  0
  -16.3010  -24.7040   23.0450 C   0  0  0  0  0  2  0  0  0  0  0  0
  -15.2300  -24.2880   22.0300 C   0  0  0  0  0  2  0  0  0  0  0  0
  -13.8300  -24.4930   22.6140 C   0  0  0  0  0  2  0  0  0  0  0  0
  -14.7430  -26.6980   23.5470 C   0  0  0  0  0  0  0  0  0  0  0  0
  -14.5090  -28.0130   24.0080 C   0  0  0  0  0  3  0  0  0  0  0  0
  -13.2010  -28.5270   24.0850 C   0  0  0  0  0  3  0  0  0  0  0  0
  -12.1080  -27.7270   23.7100 C   0  0  0  0  0  3  0  0  0  0  0  0
  -12.3270  -26.4160   23.2490 C   0  0  0  0  0  3  0  0  0  0  0  0
  -22.7570  -28.2950   22.8520 C   0  0  0  0  0  3  0  0  0  0  0  0
  -23.2050  -29.4350   23.6620 N   0  0  0  0  0  0  0  0  0  0  0  0
  -23.8800  -30.4890   23.1830 C   0  0  0  0  0  0  0  0  0  0  0  0
  -24.2570  -30.5670   22.0100 O   0  0  0  0  0  0  0  0  0  0  0  0
  -22.8880  -29.4630   24.6200 H   0  0  0  0  0  0  0  0  0  0  0  0
  -23.2520  -32.8260   23.8650 C   0  0  0  0  0  1  0  0  0  0  0  0
  -24.1840  -31.6400   24.1610 C   0  0  0  0  0  3  0  0  0  0  0  0
  -26.5290  -31.1040   24.6550 C   0  0  0  0  0  1  0  0  0  0  0  0
  -25.5930  -32.0900   24.1200 N   0  0  0  0  0  0  0  0  0  0  0  0
  -25.7110  -32.9550   24.6400 H   0  0  0  0  0  0  0  0  0  0  0  0
  -23.2910  -26.9370   23.4520 C   0  0  1  0  0  0  0  0  0  0  0  0
  -22.6370  -26.5540   24.7990 C   0  0  0  0  0  1  0  0  0  0  0  0
  -23.0520  -25.7730   22.4630 C   0  0  0  0  0  1  0  0  0  0  0  0
  -24.8200  -27.0250   23.6710 C   0  0  0  0  0  1  0  0  0  0  0  0
  1  2  1  0
  3  2  1  0
  4  3  1  0
  5  4  1  0
  6  5  1  0
  7  8  1  0
  7  6  1  0
  9  8  1  0
  9 10  1  0
 10 19  1  0
 11 19  1  0
 11 17  1  0
 12 17  1  0
 13 14  1  0
 13 12  1  0
 15 14  1  0
 15 24  1  0
 15 16  1  0
 17 16  1  0
 18 11  2  0
 20 19  1  0
 21 22  2  0
 22 23  1  0
 22 41  1  0
 23 26  1  0
 24 21  1  0
 24 25  1  0
 25 23  2  0
 26 27  1  0
 27 28  2  0
 29 32  1  0
 29 28  1  0
 30 29  2  0
 31 30  1  0
 31 26  2  0
 32 33  1  0
 33 34  2  0
 33 38  1  0
 34 35  1  0
 35 36  2  0
 36 40  1  0
 37 36  1  0
 38 37  2  0
 39 38  1  0
 41 42  1  0
 42 45  1  0
 42 44  1  0
 43 41  2  0
 46 47  1  0
 46 21  1  0
 48 46  1  0
 49  1  1  0
 50 49  1  0
 51 50  1  0
 52 51  1  0
 53 52  1  0
 54 53  1  0
 54 56  1  0
 55 66  2  0
 56 61  1  0
 57 65  1  0
 57 67  1  0
 58 60  1  0
 58 64  1  0
 59 65  1  0
 60 59  1  0
 61 60  2  0
 62 56  2  0
 62 63  1  0
 63 58  2  0
 64 57  1  0
 65 55  1  0
 67 68  1  0
 67 69  2  0
 70 68  1  0
 71 80  2  0
 71 76  1  0
 72 68  1  0
 72 76  1  0
 73 72  1  0
 74 75  1  0
 74 73  1  0
 75 71  1  0
 76 77  2  0
 77 78  1  0
 79 78  2  0
 80 79  1  0
 81 55  1  0
 81 91  1  0
 81 82  1  0
 82 85  1  0
 83 82  1  0
 83 87  1  0
 84 83  2  0
 87 86  1  0
 89 87  1  0
 89 90  1  0
 89 88  1  0
 91 94  1  1
 91 92  1  0
 93 91  1  0
M  ISO  4  11 100  19 100  53 101  54 101
M  END
>  <TORSDO>  (89) 
F 30

>  <SCORE>  (89) 
3.846

>  <name>  (89) 
92

>  <ligand_id>  (89) 
92

>  <original_smiles>  (89) 
[H]c1c([H])c([H])c2c(c1[H])C([H])([H])C([H])([H])C([H])([H])C2([H])N([H])C(=O)C1([H])N(C(=O)C([H])(N([H])C(=O)C([H])(N([H])C([H])([H])[H])C([H])([H])[H])C(C([H])([H])[H])(C([H])([H])[H])C([H])([H])[H])C([H])([H])c2c([H])c(OC([H])([H])C([H])([H])C([H])([H])C([H])([H])C([H])([H])C([H])([H])C([H])([H])C([H])([H])C([H])([H])C([H])([H])OC([H])([H])C([H])([H])C([H])([H])C([H])([H])N([H])C(=O)N3C([H])([H])C([H])([H])C([H])([H])C([H])(n4nc(-c5c([H])c([H])c(Oc6c([H])c([H])c(F)c([H])c6F)c([H])c5[H])c(C(=O)N([H])[H])c4N([H])[H])C3([H])[H])c([H])c([H])c2C1([H])[H]

>  <smiles>  (89) 
[H]c1c([H])c([H])c2c(c1[H])C([H])([H])C([H])([H])C([H])([H])C2([H])N([H])C(=O)C1([H])N(C(=O)C([H])(N([H])C(=O)C([H])(N([H])C([H])([H])[H])C([H])([H])[H])C(C([H])([H])[H])(C([H])([H])[H])C([H])([H])[H])C([H])([H])c2c([H])c(OC([H])([H])C([H])([H])C([H])([H])C([H])([H])C([H])([H])C([H])([H])C([H])([H])C([H])([H])C([H])([H])C([H])([H])OC([H])([H])C([H])([H])C([H])([H])C([H])([H])N([H])C(=O)N3C([H])([H])C([H])([H])C([H])([H])C([H])(n4nc(-c5c([H])c([H])c(Oc6c([H])c([H])c(F)c([H])c6F)c([H])c5[H])c(C(=O)N([H])[H])c4N([H])[H])C3([H])[H])c([H])c([H])c2C1([H])[H]

$$$$
93:0:0
     RDKit          3D

 91 98  0  0  1  0  0  0  0  0999 V2000
  -30.6830  -21.4710   21.0150 N   0  0  0  0  0  4  0  0  0  0  0  0
  -30.8680  -21.4360   20.0260 H   0  0  0  0  0  0  0  0  0  0  0  0
  -31.5570  -21.6380   21.4860 H   0  0  0  0  0  0  0  0  0  0  0  0
  -29.7970  -22.6150   21.2930 C   0  0  0  0  0  2  0  0  0  0  0  0
  -30.4950  -23.9120   20.8590 C   0  0  0  0  0  2  0  0  0  0  0  0
  -29.7300  -25.2000   21.1740 C   0  0  0  0  0  2  0  0  0  0  0  0
  -28.4680  -25.4500   20.3320 C   0  0  0  0  0  2  0  0  0  0  0  0
  -28.3770  -26.8620   20.2830 O   0  0  0  0  0  0  0  0  0  0  0  0
  -24.5030  -31.9510   23.2710 C   0  0  0  0  0  0  0  0  0  0  0  0
  -27.1540  -27.4790   20.2880 C   0  0  0  0  0  0  0  0  0  0  0  0
  -23.2920  -30.5160   21.6560 C   0  0  0  0  0  3  0  0  0  0  0  0
  -24.7430  -28.9390   20.2720 C   0  0  0  0  0  0  0  0  0  0  0  0
  -25.8110  -30.8800   21.4460 C   0  0  0  0  0  2  0  0  0  0  0  0
  -25.8940  -29.4960   20.8400 C   0  0  0  0  0  0  0  0  0  0  0  0
  -27.1010  -28.7710   20.8400 C   0  0  0  0  0  3  0  0  0  0  0  0
  -25.9860  -26.9110   19.7300 C   0  0  0  0  0  3  0  0  0  0  0  0
  -24.7800  -27.6440   19.7190 C   0  0  0  0  0  3  0  0  0  0  0  0
  -23.4980  -29.7980   20.2950 C   0  0  0  0  0  2  0  0  0  0  0  0
  -24.5540  -31.1310   22.1840 N   0  0  0  0  0  0  0  0  0  0  0  0
  -23.4230  -32.2370   23.8060 O   0  0  0  0  0  0  0  0  0  0  0  0
  -22.6400  -29.5190   22.6390 C   0  0  0  0  0  0  0  0  0  0  0  0
  -21.3190  -29.3260   22.5010 N   0  0  0  0  0  0  0  0  0  0  0  0
  -23.3200  -28.9200   23.4760 O   0  0  0  0  0  0  0  0  0  0  0  0
  -20.8340  -29.8600   21.7930 H   0  0  0  0  0  0  0  0  0  0  0  0
  -17.9480  -28.1220   22.9790 C   0  0  0  0  0  0  0  0  0  0  0  0
  -20.4980  -28.4060   23.2860 C   0  0  0  0  0  3  0  0  0  0  0  0
  -20.6200  -26.9600   22.7550 C   0  0  0  0  0  2  0  0  0  0  0  0
  -19.5390  -26.6000   21.7320 C   0  0  0  0  0  2  0  0  0  0  0  0
  -18.1440  -26.7560   22.3440 C   0  0  0  0  0  2  0  0  0  0  0  0
  -19.0540  -28.9050   23.4050 C   0  0  0  0  0  0  0  0  0  0  0  0
  -18.8180  -30.1850   23.9520 C   0  0  0  0  0  3  0  0  0  0  0  0
  -17.5080  -30.6810   24.0810 C   0  0  0  0  0  3  0  0  0  0  0  0
  -16.4160  -29.8970   23.6720 C   0  0  0  0  0  3  0  0  0  0  0  0
  -16.6370  -28.6190   23.1290 C   0  0  0  0  0  3  0  0  0  0  0  0
  -25.7930  -32.5890   23.8790 C   0  0  0  0  0  3  0  0  0  0  0  0
  -26.3150  -31.8350   25.1630 C   0  0  1  0  0  0  0  0  0  0  0  0
  -25.2220  -31.6050   26.2330 C   0  0  0  0  0  1  0  0  0  0  0  0
  -26.9020  -30.4560   24.7830 C   0  0  0  0  0  1  0  0  0  0  0  0
  -27.4660  -32.6380   25.8130 C   0  0  0  0  0  1  0  0  0  0  0  0
  -25.4900  -33.9920   24.1880 N   0  0  0  0  0  0  0  0  0  0  0  0
  -25.8240  -35.0300   23.4090 C   0  0  0  0  0  0  0  0  0  0  0  0
  -26.4910  -34.9060   22.3790 O   0  0  0  0  0  0  0  0  0  0  0  0
  -24.9030  -34.1630   24.9910 H   0  0  0  0  0  0  0  0  0  0  0  0
  -24.0980  -36.8160   23.0200 C   0  0  0  0  0  1  0  0  0  0  0  0
  -25.3380  -36.4270   23.8420 C   0  0  0  0  0  3  0  0  0  0  0  0
  -27.4720  -37.3210   24.6600 C   0  0  0  0  0  1  0  0  0  0  0  0
  -26.3730  -37.4760   23.7110 N   0  0  0  0  0  0  0  0  0  0  0  0
  -25.9700  -38.3990   23.8410 H   0  0  0  0  0  0  0  0  0  0  0  0
  -30.1830  -20.1550   21.4520 C   0  0  0  0  0  2  0  0  0  0  0  0
  -31.2300  -19.0740   21.1470 C   0  0  0  0  0  2  0  0  0  0  0  0
  -30.7800  -17.6590   21.5260 C   0  0  0  0  0  2  0  0  0  0  0  0
  -31.9320  -16.6600   21.3610 C   0  0  0  0  0  2  0  0  0  0  0  0
  -31.6140  -15.2480   21.8760 C   0  0  0  0  0  2  0  0  0  0  0  0
  -30.5570  -14.1360   19.9020 C   0  0  0  0  0  0  0  0  0  0  0  0
  -29.9500  -12.1690   18.5540 C   0  0  0  0  0  2  0  0  0  0  0  0
  -28.8850  -12.4250   17.4760 C   0  0  0  0  0  2  0  0  0  0  0  0
  -27.4730  -12.2780   18.0690 C   0  0  0  0  0  2  0  0  0  0  0  0
  -27.2890  -13.1020   19.3690 C   0  0  0  0  0  3  0  0  0  0  0  0
  -28.4440  -12.8460   20.3610 C   0  0  0  0  0  2  0  0  0  0  0  0
  -29.7270  -13.0920   19.6740 N   0  0  0  0  0  0  0  0  0  0  0  0
  -31.4140  -14.5150   19.0980 O   0  0  0  0  0  0  0  0  0  0  0  0
  -30.5270  -14.5750   21.1660 N   0  0  0  0  0  0  0  0  0  0  0  0
  -29.7920  -14.1850   21.7380 H   0  0  0  0  0  0  0  0  0  0  0  0
  -24.9670  -13.7220   20.2970 C   0  0  0  0  0  0  0  0  0  0  0  0
  -23.9430  -12.9540   20.7850 C   0  0  0  0  0  0  0  0  0  0  0  0
  -24.4040  -11.6040   20.7360 C   0  0  0  0  0  0  0  0  0  0  0  0
  -25.9890  -12.8390   19.9840 N   0  0  0  0  0  0  0  0  0  0  0  0
  -25.6560  -11.5610   20.3020 N   0  0  0  0  0  0  0  0  0  0  0  0
  -23.7060  -10.3440   21.0200 C   0  0  0  0  0  0  0  0  0  0  0  0
  -24.2140   -9.4120   21.9520 C   0  0  0  0  0  3  0  0  0  0  0  0
  -23.5150   -8.2150   22.2210 C   0  0  0  0  0  3  0  0  0  0  0  0
  -22.2950   -7.9400   21.5580 C   0  0  0  0  0  0  0  0  0  0  0  0
  -21.8070   -8.8600   20.6140 C   0  0  0  0  0  3  0  0  0  0  0  0
  -22.5050  -10.0490   20.3440 C   0  0  0  0  0  3  0  0  0  0  0  0
  -21.5630   -6.7920   21.7370 O   0  0  0  0  0  0  0  0  0  0  0  0
  -21.5920   -6.0960   22.9180 C   0  0  0  0  0  0  0  0  0  0  0  0
  -21.2440   -6.7000   24.1470 C   0  0  0  0  0  3  0  0  0  0  0  0
  -21.2200   -5.9310   25.3270 C   0  0  0  0  0  3  0  0  0  0  0  0
  -21.5330   -4.5590   25.2810 C   0  0  0  0  0  0  0  0  0  0  0  0
  -21.8730   -3.9550   24.0580 C   0  0  0  0  0  3  0  0  0  0  0  0
  -21.8990   -4.7210   22.8790 C   0  0  0  0  0  0  0  0  0  0  0  0
  -22.2070   -4.1300   21.7000 F   0  0  0  0  0  0  0  0  0  0  0  0
  -21.5020   -3.8170   26.4140 F   0  0  0  0  0  0  0  0  0  0  0  0
  -22.5760  -13.4330   21.1810 C   0  0  0  0  0  0  0  0  0  0  0  0
  -21.9450  -12.7610   22.1370 N   0  0  0  0  0  0  0  0  0  0  0  0
  -22.0810  -14.4400   20.6760 O   0  0  0  0  0  0  0  0  0  0  0  0
  -22.3590  -11.9450   22.5630 H   0  0  0  0  0  0  0  0  0  0  0  0
  -21.0310  -13.0650   22.4440 H   0  0  0  0  0  0  0  0  0  0  0  0
  -25.1100  -15.0880   20.0770 N   0  0  0  0  0  0  0  0  0  0  0  0
  -24.3600  -15.7490   20.2530 H   0  0  0  0  0  0  0  0  0  0  0  0
  -25.9280  -15.5190   19.6640 H   0  0  0  0  0  0  0  0  0  0  0  0
  1  4  1  0
  1 49  1  0
  1  3  1  0
  2  1  1  0
  5  6  1  0
  5  4  1  0
  7  6  1  0
  8 10  1  0
  8  7  1  0
  9 20  2  0
 10 15  1  0
 11 19  1  0
 11 21  1  0
 12 18  1  0
 12 14  1  0
 13 19  1  0
 14 13  1  0
 15 14  2  0
 16 10  2  0
 17 16  1  0
 17 12  2  0
 18 11  1  0
 19  9  1  0
 21 23  2  0
 22 21  1  0
 24 22  1  0
 25 34  2  0
 25 30  1  0
 26 22  1  0
 26 30  1  0
 27 26  1  0
 28 29  1  0
 28 27  1  0
 29 25  1  0
 30 31  2  0
 31 32  1  0
 33 32  2  0
 34 33  1  0
 35  9  1  0
 35 40  1  0
 35 36  1  0
 36 39  1  1
 36 37  1  0
 38 36  1  0
 40 43  1  0
 41 45  1  0
 41 40  1  0
 42 41  2  0
 45 44  1  0
 47 48  1  0
 47 45  1  0
 47 46  1  0
 50 49  1  0
 50 51  1  0
 52 51  1  0
 52 53  1  0
 54 62  1  0
 55 60  1  0
 56 57  1  0
 56 55  1  0
 58 57  1  0
 58 67  1  0
 58 59  1  0
 60 54  1  0
 60 59  1  0
 61 54  2  0
 62 63  1  0
 62 53  1  0
 64 65  2  0
 65 84  1  0
 66 65  1  0
 66 69  1  0
 67 64  1  0
 67 68  1  0
 68 66  2  0
 69 70  1  0
 70 71  2  0
 72 75  1  0
 72 71  1  0
 73 72  2  0
 74 73  1  0
 74 69  2  0
 75 76  1  0
 76 77  1  0
 77 78  2  0
 79 78  1  0
 79 83  1  0
 80 79  2  0
 81 76  2  0
 81 80  1  0
 82 81  1  0
 84 85  1  0
 85 88  1  0
 85 87  1  0
 86 84  2  0
 89 90  1  0
 89 64  1  0
 91 89  1  0
M  ISO  4   7 101   8 101  54 100  62 100
M  END
>  <TORSDO>  (90) 
F 25

>  <SCORE>  (90) 
-10.507

>  <name>  (90) 
93

>  <ligand_id>  (90) 
93

>  <original_smiles>  (90) 
[H]c1c([H])c([H])c2c(c1[H])C([H])([H])C([H])([H])C([H])([H])C2([H])N([H])C(=O)C1([H])N(C(=O)C([H])(N([H])C(=O)C([H])(N([H])C([H])([H])[H])C([H])([H])[H])C(C([H])([H])[H])(C([H])([H])[H])C([H])([H])[H])C([H])([H])c2c([H])c(OC([H])([H])C([H])([H])C([H])([H])C([H])([H])[N+]([H])([H])C([H])([H])C([H])([H])C([H])([H])C([H])([H])C([H])([H])N([H])C(=O)N3C([H])([H])C([H])([H])C([H])([H])C([H])(n4nc(-c5c([H])c([H])c(Oc6c([H])c([H])c(F)c([H])c6F)c([H])c5[H])c(C(=O)N([H])[H])c4N([H])[H])C3([H])[H])c([H])c([H])c2C1([H])[H]

>  <smiles>  (90) 
[H]c1c([H])c([H])c2c(c1[H])C([H])([H])C([H])([H])C([H])([H])C2([H])N([H])C(=O)C1([H])N(C(=O)C([H])(N([H])C(=O)C([H])(N([H])C([H])([H])[H])C([H])([H])[H])C(C([H])([H])[H])(C([H])([H])[H])C([H])([H])[H])C([H])([H])c2c([H])c(OC([H])([H])C([H])([H])C([H])([H])C([H])([H])[N+]([H])([H])C([H])([H])C([H])([H])C([H])([H])C([H])([H])C([H])([H])N([H])C(=O)N3C([H])([H])C([H])([H])C([H])([H])C([H])(n4nc(-c5c([H])c([H])c(Oc6c([H])c([H])c(F)c([H])c6F)c([H])c5[H])c(C(=O)N([H])[H])c4N([H])[H])C3([H])[H])c([H])c([H])c2C1([H])[H]

$$$$
94:0:0
     RDKit          3D

103111  0  0  1  0  0  0  0  0999 V2000
  -34.2720  -25.5090   19.5160 C   0  0  0  0  0  2  0  0  0  0  0  0
  -34.3220  -26.1720   18.1240 C   0  0  0  0  0  2  0  0  0  0  0  0
  -32.9660  -26.7550   17.6790 C   0  0  0  0  0  2  0  0  0  0  0  0
  -33.0010  -27.3610   16.2600 C   0  0  0  0  0  2  0  0  0  0  0  0
  -31.8660  -28.3640   15.9470 C   0  0  0  0  0  2  0  0  0  0  0  0
  -30.4760  -27.7690   15.6290 C   0  0  0  0  0  2  0  0  0  0  0  0
  -29.4690  -27.3420   17.8760 C   0  0  0  0  0  0  0  0  0  0  0  0
  -29.9210  -26.9260   16.6840 N   0  0  0  0  0  0  0  0  0  0  0  0
  -29.5180  -28.5250   18.2240 O   0  0  0  0  0  0  0  0  0  0  0  0
  -29.8400  -25.9380   16.4820 H   0  0  0  0  0  0  0  0  0  0  0  0
  -28.8870  -26.2550   18.7990 C   0  0  0  0  0  2  0  0  0  0  0  0
  -28.4500  -26.8050   20.0480 O   0  0  0  0  0  0  0  0  0  0  0  0
  -24.6120  -31.8690   23.2110 C   0  0  0  0  0  0  0  0  0  0  0  0
  -27.2510  -27.4800   20.0670 C   0  0  0  0  0  0  0  0  0  0  0  0
  -23.3960  -30.4900   21.5500 C   0  0  0  0  0  3  0  0  0  0  0  0
  -24.8440  -28.9520   20.1180 C   0  0  0  0  0  0  0  0  0  0  0  0
  -25.9220  -30.8410   21.3580 C   0  0  0  0  0  2  0  0  0  0  0  0
  -25.9980  -29.4750   20.7150 C   0  0  0  0  0  0  0  0  0  0  0  0
  -27.1980  -28.7350   20.7040 C   0  0  0  0  0  3  0  0  0  0  0  0
  -26.0760  -26.9490   19.4880 C   0  0  0  0  0  3  0  0  0  0  0  0
  -24.8730  -27.6820   19.5140 C   0  0  0  0  0  3  0  0  0  0  0  0
  -23.6040  -29.8160   20.1660 C   0  0  0  0  0  2  0  0  0  0  0  0
  -24.6610  -31.0820   22.0990 N   0  0  0  0  0  0  0  0  0  0  0  0
  -23.5310  -32.1440   23.7520 O   0  0  0  0  0  0  0  0  0  0  0  0
  -22.7380  -29.4660   22.5020 C   0  0  0  0  0  0  0  0  0  0  0  0
  -21.4120  -29.3030   22.3740 N   0  0  0  0  0  0  0  0  0  0  0  0
  -23.4160  -28.8230   23.3060 O   0  0  0  0  0  0  0  0  0  0  0  0
  -20.9270  -29.8730   21.6960 H   0  0  0  0  0  0  0  0  0  0  0  0
  -18.0260  -28.1380   22.8490 C   0  0  0  0  0  0  0  0  0  0  0  0
  -20.5860  -28.3660   23.1340 C   0  0  0  0  0  3  0  0  0  0  0  0
  -20.6760  -26.9410   22.5420 C   0  0  0  0  0  2  0  0  0  0  0  0
  -19.5740  -26.6390   21.5210 C   0  0  0  0  0  2  0  0  0  0  0  0
  -18.1920  -26.7930   22.1620 C   0  0  0  0  0  2  0  0  0  0  0  0
  -19.1510  -28.8830   23.2910 C   0  0  0  0  0  0  0  0  0  0  0  0
  -18.9440  -30.1450   23.8900 C   0  0  0  0  0  3  0  0  0  0  0  0
  -17.6450  -30.6580   24.0570 C   0  0  0  0  0  3  0  0  0  0  0  0
  -16.5340  -29.9090   23.6340 C   0  0  0  0  0  3  0  0  0  0  0  0
  -16.7260  -28.6520   23.0330 C   0  0  0  0  0  3  0  0  0  0  0  0
  -25.9030  -32.4830   23.8390 C   0  0  0  0  0  3  0  0  0  0  0  0
  -25.5920  -33.8630   24.2330 N   0  0  0  0  0  0  0  0  0  0  0  0
  -25.9040  -34.9480   23.5120 C   0  0  0  0  0  0  0  0  0  0  0  0
  -26.5590  -34.8930   22.4680 O   0  0  0  0  0  0  0  0  0  0  0  0
  -25.0110  -33.9800   25.0500 H   0  0  0  0  0  0  0  0  0  0  0  0
  -24.1490  -36.7320   23.2630 C   0  0  0  0  0  1  0  0  0  0  0  0
  -25.4110  -36.3120   24.0340 C   0  0  0  0  0  3  0  0  0  0  0  0
  -27.5580  -37.1810   24.8470 C   0  0  0  0  0  1  0  0  0  0  0  0
  -26.4300  -37.3790   23.9410 N   0  0  0  0  0  0  0  0  0  0  0  0
  -26.0190  -38.2880   24.1390 H   0  0  0  0  0  0  0  0  0  0  0  0
  -26.4480  -31.6580   25.0700 C   0  0  1  0  0  0  0  0  0  0  0  0
  -25.3770  -31.3660   26.1460 C   0  0  0  0  0  1  0  0  0  0  0  0
  -27.0300  -30.3030   24.6030 C   0  0  0  0  0  1  0  0  0  0  0  0
  -27.6070  -32.4280   25.7470 C   0  0  0  0  0  1  0  0  0  0  0  0
  -34.2700  -23.9760   19.4430 C   0  0  0  0  0  2  0  0  0  0  0  0
  -33.8990  -23.3010   20.7730 C   0  0  0  0  0  2  0  0  0  0  0  0
  -33.8350  -21.7680   20.6520 C   0  0  0  0  0  2  0  0  0  0  0  0
  -32.9200  -21.1380   21.7180 C   0  0  0  0  0  2  0  0  0  0  0  0
  -32.7410  -19.6100   21.6120 C   0  0  0  0  0  2  0  0  0  0  0  0
  -32.2620  -19.1360   20.2260 C   0  0  0  0  0  2  0  0  0  0  0  0
  -30.7570  -17.4230   19.2910 C   0  0  0  0  0  0  0  0  0  0  0  0
  -31.4420  -17.9350   20.3190 N   0  0  0  0  0  0  0  0  0  0  0  0
  -30.9710  -17.7540   18.1250 O   0  0  0  0  0  0  0  0  0  0  0  0
  -31.2060  -17.5870   21.2370 H   0  0  0  0  0  0  0  0  0  0  0  0
  -30.6840  -14.4430   20.5680 C   0  0  0  0  0  0  0  0  0  0  0  0
  -30.4340  -12.2980   19.3880 C   0  0  0  0  0  2  0  0  0  0  0  0
  -29.4880  -12.5150   18.1860 C   0  0  0  0  0  2  0  0  0  0  0  0
  -28.0050  -12.3900   18.6000 C   0  0  0  0  0  2  0  0  0  0  0  0
  -27.6660  -13.1890   19.8880 C   0  0  0  0  0  3  0  0  0  0  0  0
  -28.7210  -12.8820   20.9750 C   0  0  0  0  0  2  0  0  0  0  0  0
  -30.0380  -13.2520   20.4330 N   0  0  0  0  0  0  0  0  0  0  0  0
  -31.8290  -14.6210   20.1450 O   0  0  0  0  0  0  0  0  0  0  0  0
  -28.5080  -17.2760   21.6110 C   0  0  0  0  0  2  0  0  0  0  0  0
  -28.3870  -17.2460   20.0900 C   0  0  0  0  0  2  0  0  0  0  0  0
  -29.2360  -15.9750   21.9630 C   0  0  0  0  0  2  0  0  0  0  0  0
  -29.6080  -16.4470   19.6130 C   0  0  0  0  0  3  0  0  0  0  0  0
  -29.8670  -15.5120   20.7190 N   0  0  0  0  0  0  0  0  0  0  0  0
  -25.2590  -13.8070   20.5740 C   0  0  0  0  0  0  0  0  0  0  0  0
  -24.1820  -13.0360   20.9170 C   0  0  0  0  0  0  0  0  0  0  0  0
  -24.6360  -11.6850   20.8760 C   0  0  0  0  0  0  0  0  0  0  0  0
  -26.3040  -12.9220   20.3460 N   0  0  0  0  0  0  0  0  0  0  0  0
  -25.9290  -11.6390   20.5790 N   0  0  0  0  0  0  0  0  0  0  0  0
  -23.9010  -10.4270   21.0430 C   0  0  0  0  0  0  0  0  0  0  0  0
  -24.3570   -9.4190   21.9210 C   0  0  0  0  0  3  0  0  0  0  0  0
  -23.6260   -8.2220   22.0770 C   0  0  0  0  0  3  0  0  0  0  0  0
  -22.4260   -8.0250   21.3540 C   0  0  0  0  0  0  0  0  0  0  0  0
  -21.9870   -9.0240   20.4670 C   0  0  0  0  0  3  0  0  0  0  0  0
  -22.7190  -10.2110   20.3080 C   0  0  0  0  0  3  0  0  0  0  0  0
  -21.6620   -6.8850   21.4250 O   0  0  0  0  0  0  0  0  0  0  0  0
  -21.6850   -6.0720   22.5280 C   0  0  0  0  0  0  0  0  0  0  0  0
  -21.4030   -6.5630   23.8220 C   0  0  0  0  0  3  0  0  0  0  0  0
  -21.3660   -5.6780   24.9180 C   0  0  0  0  0  3  0  0  0  0  0  0
  -21.6050   -4.3040   24.7240 C   0  0  0  0  0  0  0  0  0  0  0  0
  -21.8810   -3.8130   23.4360 C   0  0  0  0  0  3  0  0  0  0  0  0
  -21.9190   -4.6940   22.3420 C   0  0  0  0  0  0  0  0  0  0  0  0
  -22.1650   -4.2130   21.0990 F   0  0  0  0  0  0  0  0  0  0  0  0
  -21.5610   -3.4520   25.7750 F   0  0  0  0  0  0  0  0  0  0  0  0
  -22.7850  -13.5210   21.1780 C   0  0  0  0  0  0  0  0  0  0  0  0
  -22.0440  -12.8320   22.0370 N   0  0  0  0  0  0  0  0  0  0  0  0
  -22.3570  -14.5500   20.6570 O   0  0  0  0  0  0  0  0  0  0  0  0
  -22.4010  -12.0010   22.4840 H   0  0  0  0  0  0  0  0  0  0  0  0
  -21.1060  -13.1410   22.2500 H   0  0  0  0  0  0  0  0  0  0  0  0
  -25.4200  -15.1790   20.4250 N   0  0  0  0  0  0  0  0  0  0  0  0
  -24.6480  -15.8230   20.5540 H   0  0  0  0  0  0  0  0  0  0  0  0
  -26.2870  -15.6380   20.1800 H   0  0  0  0  0  0  0  0  0  0  0  0
  2  1  1  0
  3  2  1  0
  4  3  1  0
  5  4  1  0
  6  5  1  0
  6  8  1  0
  7  9  2  0
  7 11  1  0
  8  7  1  0
 10  8  1  0
 11 12  1  0
 12 14  1  0
 13 24  2  0
 14 19  1  0
 15 23  1  0
 15 25  1  0
 16 22  1  0
 16 18  1  0
 17 23  1  0
 18 17  1  0
 19 18  2  0
 20 21  1  0
 20 14  2  0
 21 16  2  0
 22 15  1  0
 23 13  1  0
 25 27  2  0
 26 25  1  0
 28 26  1  0
 29 38  2  0
 29 34  1  0
 30 26  1  0
 30 34  1  0
 31 30  1  0
 32 33  1  0
 32 31  1  0
 33 29  1  0
 34 35  2  0
 35 36  1  0
 37 36  2  0
 38 37  1  0
 39 13  1  0
 39 40  1  0
 39 49  1  0
 40 43  1  0
 41 45  1  0
 41 40  1  0
 42 41  2  0
 45 44  1  0
 47 45  1  0
 47 48  1  0
 47 46  1  0
 49 52  1  1
 49 50  1  0
 51 49  1  0
 53  1  1  0
 53 54  1  0
 55 54  1  0
 55 56  1  0
 57 56  1  0
 58 60  1  0
 58 57  1  0
 59 60  1  0
 60 62  1  0
 61 59  2  0
 63 75  1  0
 64 69  1  0
 65 66  1  0
 65 64  1  0
 67 66  1  0
 67 79  1  0
 67 68  1  0
 69 63  1  0
 69 68  1  0
 70 63  2  0
 71 73  1  0
 72 71  1  0
 74 59  1  0
 74 72  1  0
 74 75  1  0
 75 73  1  0
 76 77  2  0
 77 96  1  0
 78 77  1  0
 78 81  1  0
 79 76  1  0
 79 80  1  0
 80 78  2  0
 81 82  1  0
 82 83  2  0
 84 87  1  0
 84 83  1  0
 85 84  2  0
 86 85  1  0
 86 81  2  0
 87 88  1  0
 88 89  1  0
 89 90  2  0
 91 90  1  0
 91 95  1  0
 92 91  2  0
 93 88  2  0
 93 92  1  0
 94 93  1  0
 96 97  1  0
 97100  1  0
 97 99  1  0
 98 96  2  0
101102  1  0
101 76  1  0
103101  1  0
M  ISO  4  11 101  12 101  63 100  75 100
M  END
>  <TORSDO>  (91) 
F 30

>  <SCORE>  (91) 
-8.437

>  <name>  (91) 
94

>  <ligand_id>  (91) 
94

>  <original_smiles>  (91) 
[H]c1c([H])c([H])c2c(c1[H])C([H])([H])C([H])([H])C([H])([H])C2([H])N([H])C(=O)C1([H])N(C(=O)C([H])(N([H])C(=O)C([H])(N([H])C([H])([H])[H])C([H])([H])[H])C(C([H])([H])[H])(C([H])([H])[H])C([H])([H])[H])C([H])([H])c2c([H])c(OC([H])([H])C(=O)N([H])C([H])([H])C([H])([H])C([H])([H])C([H])([H])C([H])([H])C([H])([H])C([H])([H])C([H])([H])C([H])([H])C([H])([H])C([H])([H])C([H])([H])N([H])C(=O)C3([H])N(C(=O)N4C([H])([H])C([H])([H])C([H])([H])C([H])(n5nc(-c6c([H])c([H])c(Oc7c([H])c([H])c(F)c([H])c7F)c([H])c6[H])c(C(=O)N([H])[H])c5N([H])[H])C4([H])[H])C([H])([H])C([H])([H])C3([H])[H])c([H])c([H])c2C1([H])[H]

>  <smiles>  (91) 
[H]c1c([H])c([H])c2c(c1[H])C([H])([H])C([H])([H])C([H])([H])C2([H])N([H])C(=O)C1([H])N(C(=O)C([H])(N([H])C(=O)C([H])(N([H])C([H])([H])[H])C([H])([H])[H])C(C([H])([H])[H])(C([H])([H])[H])C([H])([H])[H])C([H])([H])c2c([H])c(OC([H])([H])C(=O)N([H])C([H])([H])C([H])([H])C([H])([H])C([H])([H])C([H])([H])C([H])([H])C([H])([H])C([H])([H])C([H])([H])C([H])([H])C([H])([H])C([H])([H])N([H])C(=O)C3([H])N(C(=O)N4C([H])([H])C([H])([H])C([H])([H])C([H])(n5nc(-c6c([H])c([H])c(Oc7c([H])c([H])c(F)c([H])c7F)c([H])c6[H])c(C(=O)N([H])[H])c5N([H])[H])C4([H])[H])C([H])([H])C([H])([H])C3([H])[H])c([H])c([H])c2C1([H])[H]

$$$$
95:0:0
     RDKit          3D

111118  0  0  1  0  0  0  0  0999 V2000
  -25.0800  -27.9120   31.3220 C   0  0  0  0  0  2  0  0  0  0  0  0
  -26.6510  -28.8900   29.6520 C   0  0  0  0  0  0  0  0  0  0  0  0
  -26.2960  -28.6180   30.9110 N   0  0  0  0  0  0  0  0  0  0  0  0
  -27.9010  -29.3460   29.5600 N   0  0  0  0  0  0  0  0  0  0  0  0
  -25.9300  -28.6810   28.6790 O   0  0  0  0  0  0  0  0  0  0  0  0
  -26.9520  -28.8380   31.6470 H   0  0  0  0  0  0  0  0  0  0  0  0
  -28.4120  -29.5320   30.4120 H   0  0  0  0  0  0  0  0  0  0  0  0
  -28.6430  -29.5040   28.3130 C   0  0  0  0  0  2  0  0  0  0  0  0
  -29.2970  -28.1850   27.8490 C   0  0  0  0  0  2  0  0  0  0  0  0
  -28.6410  -27.6840   26.6910 O   0  0  0  0  0  0  0  0  0  0  0  0
  -29.1710  -26.4370   26.2520 C   0  0  0  0  0  2  0  0  0  0  0  0
  -28.4540  -25.9750   24.9680 C   0  0  0  0  0  2  0  0  0  0  0  0
  -29.0990  -26.4920   23.8060 O   0  0  0  0  0  0  0  0  0  0  0  0
  -28.3530  -26.2540   22.6140 C   0  0  0  0  0  2  0  0  0  0  0  0
  -29.1490  -26.7200   21.3680 C   0  0  0  0  0  2  0  0  0  0  0  0
  -28.3760  -26.6900   20.1560 O   0  0  0  0  0  0  0  0  0  0  0  0
  -24.6020  -31.8690   23.2150 C   0  0  0  0  0  0  0  0  0  0  0  0
  -27.2480  -27.4790   20.1240 C   0  0  0  0  0  0  0  0  0  0  0  0
  -23.3890  -30.4900   21.5500 C   0  0  0  0  0  3  0  0  0  0  0  0
  -24.8430  -28.9650   20.1070 C   0  0  0  0  0  0  0  0  0  0  0  0
  -25.9060  -30.8550   21.3560 C   0  0  0  0  0  2  0  0  0  0  0  0
  -25.9900  -29.4920   20.7090 C   0  0  0  0  0  0  0  0  0  0  0  0
  -27.1920  -28.7600   20.7180 C   0  0  0  0  0  3  0  0  0  0  0  0
  -26.0950  -26.9680   19.4930 C   0  0  0  0  0  3  0  0  0  0  0  0
  -24.8900  -27.7020   19.4880 C   0  0  0  0  0  3  0  0  0  0  0  0
  -23.5950  -29.8190   20.1620 C   0  0  0  0  0  2  0  0  0  0  0  0
  -24.6500  -31.0840   22.1010 N   0  0  0  0  0  0  0  0  0  0  0  0
  -23.5240  -32.1400   23.7610 O   0  0  0  0  0  0  0  0  0  0  0  0
  -22.7340  -29.4630   22.5000 C   0  0  0  0  0  0  0  0  0  0  0  0
  -21.4080  -29.2960   22.3740 N   0  0  0  0  0  0  0  0  0  0  0  0
  -23.4160  -28.8180   23.3000 O   0  0  0  0  0  0  0  0  0  0  0  0
  -20.9230  -29.8690   21.6990 H   0  0  0  0  0  0  0  0  0  0  0  0
  -18.0230  -28.1330   22.8510 C   0  0  0  0  0  0  0  0  0  0  0  0
  -20.5820  -28.3600   23.1340 C   0  0  0  0  0  3  0  0  0  0  0  0
  -20.6720  -26.9340   22.5440 C   0  0  0  0  0  2  0  0  0  0  0  0
  -19.5710  -26.6320   21.5230 C   0  0  0  0  0  2  0  0  0  0  0  0
  -18.1870  -26.7870   22.1620 C   0  0  0  0  0  2  0  0  0  0  0  0
  -19.1490  -28.8780   23.2910 C   0  0  0  0  0  0  0  0  0  0  0  0
  -18.9440  -30.1410   23.8900 C   0  0  0  0  0  3  0  0  0  0  0  0
  -17.6460  -30.6580   24.0540 C   0  0  0  0  0  3  0  0  0  0  0  0
  -16.5340  -29.9080   23.6330 C   0  0  0  0  0  3  0  0  0  0  0  0
  -16.7230  -28.6480   23.0380 C   0  0  0  0  0  3  0  0  0  0  0  0
  -25.8960  -32.4840   23.8370 C   0  0  0  0  0  3  0  0  0  0  0  0
  -26.4540  -31.6660   25.0640 C   0  0  1  0  0  0  0  0  0  0  0  0
  -25.3900  -31.3760   26.1500 C   0  0  0  0  0  1  0  0  0  0  0  0
  -27.0330  -30.3140   24.5840 C   0  0  0  0  0  1  0  0  0  0  0  0
  -27.6130  -32.4520   25.7250 C   0  0  0  0  0  1  0  0  0  0  0  0
  -25.5840  -33.8640   24.2280 N   0  0  0  0  0  0  0  0  0  0  0  0
  -25.9010  -34.9500   23.5100 C   0  0  0  0  0  0  0  0  0  0  0  0
  -26.5550  -34.8960   22.4650 O   0  0  0  0  0  0  0  0  0  0  0  0
  -24.9940  -33.9780   25.0400 H   0  0  0  0  0  0  0  0  0  0  0  0
  -24.1460  -36.7340   23.2660 C   0  0  0  0  0  1  0  0  0  0  0  0
  -25.4080  -36.3120   24.0340 C   0  0  0  0  0  3  0  0  0  0  0  0
  -27.5550  -37.1800   24.8460 C   0  0  0  0  0  1  0  0  0  0  0  0
  -26.4250  -37.3820   23.9430 N   0  0  0  0  0  0  0  0  0  0  0  0
  -26.0140  -38.2890   24.1460 H   0  0  0  0  0  0  0  0  0  0  0  0
  -25.3440  -26.4110   31.5690 C   0  0  0  0  0  2  0  0  0  0  0  0
  -25.7800  -25.6620   30.2980 C   0  0  0  0  0  2  0  0  0  0  0  0
  -26.2710  -24.2270   30.5240 C   0  0  0  0  0  2  0  0  0  0  0  0
  -26.9000  -23.6760   29.2330 C   0  0  0  0  0  2  0  0  0  0  0  0
  -27.6660  -22.3580   29.4070 C   0  0  0  0  0  2  0  0  0  0  0  0
  -28.4650  -22.0190   28.1370 C   0  0  0  0  0  2  0  0  0  0  0  0
  -29.3490  -20.7710   28.2680 C   0  0  0  0  0  2  0  0  0  0  0  0
  -30.1830  -20.5440   26.9960 C   0  0  0  0  0  2  0  0  0  0  0  0
  -31.0840  -19.3000   27.0570 C   0  0  0  0  0  2  0  0  0  0  0  0
  -31.8660  -19.1090   25.7490 C   0  0  0  0  0  2  0  0  0  0  0  0
  -32.7690  -17.8630   25.7460 C   0  0  0  0  0  2  0  0  0  0  0  0
  -33.4710  -17.6280   24.3940 C   0  0  0  0  0  2  0  0  0  0  0  0
  -31.8480  -16.3580   23.0000 C   0  0  0  0  0  0  0  0  0  0  0  0
  -32.5010  -17.4800   23.3140 N   0  0  0  0  0  0  0  0  0  0  0  0
  -32.0750  -15.2750   23.5480 O   0  0  0  0  0  0  0  0  0  0  0  0
  -32.2550  -18.3170   22.8020 H   0  0  0  0  0  0  0  0  0  0  0  0
  -30.7530  -16.4920   21.9380 C   0  0  0  0  0  2  0  0  0  0  0  0
  -30.7470  -14.3660   20.6610 C   0  0  0  0  0  0  0  0  0  0  0  0
  -30.4200  -12.2800   19.3910 C   0  0  0  0  0  2  0  0  0  0  0  0
  -29.4840  -12.5180   18.1910 C   0  0  0  0  0  2  0  0  0  0  0  0
  -28.0070  -12.3780   18.6090 C   0  0  0  0  0  2  0  0  0  0  0  0
  -27.6680  -13.1960   19.8820 C   0  0  0  0  0  3  0  0  0  0  0  0
  -28.7060  -12.9230   20.9920 C   0  0  0  0  0  2  0  0  0  0  0  0
  -30.0480  -13.2220   20.4540 N   0  0  0  0  0  0  0  0  0  0  0  0
  -31.7910  -14.6480   20.0660 O   0  0  0  0  0  0  0  0  0  0  0  0
  -30.2010  -15.2000   21.5490 N   0  0  0  0  0  0  0  0  0  0  0  0
  -29.3720  -14.8860   22.0270 H   0  0  0  0  0  0  0  0  0  0  0  0
  -25.2620  -13.8140   20.5680 C   0  0  0  0  0  0  0  0  0  0  0  0
  -24.1860  -13.0450   20.9160 C   0  0  0  0  0  0  0  0  0  0  0  0
  -24.6390  -11.6900   20.8730 C   0  0  0  0  0  0  0  0  0  0  0  0
  -26.3060  -12.9300   20.3390 N   0  0  0  0  0  0  0  0  0  0  0  0
  -25.9320  -11.6470   20.5770 N   0  0  0  0  0  0  0  0  0  0  0  0
  -23.9060  -10.4300   21.0410 C   0  0  0  0  0  0  0  0  0  0  0  0
  -24.3610   -9.4210   21.9190 C   0  0  0  0  0  3  0  0  0  0  0  0
  -23.6290   -8.2250   22.0760 C   0  0  0  0  0  3  0  0  0  0  0  0
  -22.4270   -8.0280   21.3550 C   0  0  0  0  0  0  0  0  0  0  0  0
  -21.9910   -9.0250   20.4640 C   0  0  0  0  0  3  0  0  0  0  0  0
  -22.7230  -10.2130   20.3050 C   0  0  0  0  0  3  0  0  0  0  0  0
  -21.6630   -6.8880   21.4240 O   0  0  0  0  0  0  0  0  0  0  0  0
  -21.6850   -6.0730   22.5280 C   0  0  0  0  0  0  0  0  0  0  0  0
  -21.4010   -6.5640   23.8210 C   0  0  0  0  0  3  0  0  0  0  0  0
  -21.3660   -5.6790   24.9170 C   0  0  0  0  0  3  0  0  0  0  0  0
  -21.6040   -4.3060   24.7230 C   0  0  0  0  0  0  0  0  0  0  0  0
  -21.8820   -3.8140   23.4350 C   0  0  0  0  0  3  0  0  0  0  0  0
  -21.9190   -4.6960   22.3400 C   0  0  0  0  0  0  0  0  0  0  0  0
  -22.1660   -4.2150   21.0980 F   0  0  0  0  0  0  0  0  0  0  0  0
  -21.5630   -3.4540   25.7740 F   0  0  0  0  0  0  0  0  0  0  0  0
  -22.7880  -13.5240   21.1830 C   0  0  0  0  0  0  0  0  0  0  0  0
  -22.0520  -12.8250   22.0390 N   0  0  0  0  0  0  0  0  0  0  0  0
  -22.3580  -14.5560   20.6670 O   0  0  0  0  0  0  0  0  0  0  0  0
  -22.4120  -11.9890   22.4760 H   0  0  0  0  0  0  0  0  0  0  0  0
  -21.1150  -13.1290   22.2600 H   0  0  0  0  0  0  0  0  0  0  0  0
  -25.4390  -15.1860   20.4090 N   0  0  0  0  0  0  0  0  0  0  0  0
  -24.6800  -15.8500   20.5190 H   0  0  0  0  0  0  0  0  0  0  0  0
  -26.3020  -15.6200   20.1030 H   0  0  0  0  0  0  0  0  0  0  0  0
  1 57  1  0
  2  3  1  0
  3  1  1  0
  3  6  1  0
  4  2  1  0
  4  7  1  0
  5  2  2  0
  8  4  1  0
  9  8  1  0
 10  9  1  0
 11 10  1  0
 12 11  1  0
 13 12  1  0
 14 13  1  0
 15 14  1  0
 16 15  1  0
 17 28  2  0
 18 16  1  0
 18 23  1  0
 19 27  1  0
 19 29  1  0
 20 26  1  0
 20 22  1  0
 21 27  1  0
 22 23  2  0
 22 21  1  0
 24 18  2  0
 25 24  1  0
 25 20  2  0
 26 19  1  0
 27 17  1  0
 29 31  2  0
 30 29  1  0
 32 30  1  0
 33 42  2  0
 33 38  1  0
 34 30  1  0
 34 38  1  0
 35 34  1  0
 36 37  1  0
 36 35  1  0
 37 33  1  0
 38 39  2  0
 39 40  1  0
 41 40  2  0
 42 41  1  0
 43 17  1  0
 43 48  1  0
 43 44  1  0
 44 47  1  1
 44 45  1  0
 46 44  1  0
 48 51  1  0
 49 53  1  0
 49 48  1  0
 50 49  2  0
 53 52  1  0
 55 53  1  0
 55 56  1  0
 55 54  1  0
 58 59  1  0
 58 57  1  0
 60 61  1  0
 60 59  1  0
 62 63  1  0
 62 61  1  0
 64 65  1  0
 64 63  1  0
 66 65  1  0
 67 66  1  0
 68 67  1  0
 69 70  1  0
 69 71  2  0
 70 68  1  0
 72 70  1  0
 73 69  1  0
 74 82  1  0
 75 80  1  0
 76 77  1  0
 76 75  1  0
 78 77  1  0
 78 87  1  0
 78 79  1  0
 80 74  1  0
 80 79  1  0
 81 74  2  0
 82 73  1  0
 82 83  1  0
 84 85  2  0
 85104  1  0
 86 85  1  0
 86 89  1  0
 87 84  1  0
 87 88  1  0
 88 86  2  0
 89 90  1  0
 90 91  2  0
 92 95  1  0
 92 91  1  0
 93 92  2  0
 94 93  1  0
 94 89  2  0
 95 96  1  0
 96 97  1  0
 97 98  2  0
 99 98  1  0
 99103  1  0
100 99  2  0
101 96  2  0
101100  1  0
102101  1  0
104105  1  0
105108  1  0
105107  1  0
106104  2  0
109110  1  0
109 84  1  0
111109  1  0
M  ISO  4  15 101  16 101  74 100  82 100
M  END
>  <TORSDO>  (92) 
F 39

>  <SCORE>  (92) 
53.304

>  <name>  (92) 
95

>  <ligand_id>  (92) 
95

>  <original_smiles>  (92) 
[H]c1c([H])c([H])c2c(c1[H])C([H])([H])C([H])([H])C([H])([H])C2([H])N([H])C(=O)C1([H])N(C(=O)C([H])(N([H])C(=O)C([H])(N([H])C([H])([H])[H])C([H])([H])[H])C(C([H])([H])[H])(C([H])([H])[H])C([H])([H])[H])C([H])([H])c2c([H])c(OC([H])([H])C([H])([H])OC([H])([H])C([H])([H])OC([H])([H])C([H])([H])N([H])C(=O)N([H])C([H])([H])C([H])([H])C([H])([H])C([H])([H])C([H])([H])C([H])([H])C([H])([H])C([H])([H])C([H])([H])C([H])([H])C([H])([H])C([H])([H])C([H])([H])N([H])C(=O)C([H])([H])N([H])C(=O)N3C([H])([H])C([H])([H])C([H])([H])C([H])(n4nc(-c5c([H])c([H])c(Oc6c([H])c([H])c(F)c([H])c6F)c([H])c5[H])c(C(=O)N([H])[H])c4N([H])[H])C3([H])[H])c([H])c([H])c2C1([H])[H]

>  <smiles>  (92) 
[H]c1c([H])c([H])c2c(c1[H])C([H])([H])C([H])([H])C([H])([H])C2([H])N([H])C(=O)C1([H])N(C(=O)C([H])(N([H])C(=O)C([H])(N([H])C([H])([H])[H])C([H])([H])[H])C(C([H])([H])[H])(C([H])([H])[H])C([H])([H])[H])C([H])([H])c2c([H])c(OC([H])([H])C([H])([H])OC([H])([H])C([H])([H])OC([H])([H])C([H])([H])N([H])C(=O)N([H])C([H])([H])C([H])([H])C([H])([H])C([H])([H])C([H])([H])C([H])([H])C([H])([H])C([H])([H])C([H])([H])C([H])([H])C([H])([H])C([H])([H])C([H])([H])N([H])C(=O)C([H])([H])N([H])C(=O)N3C([H])([H])C([H])([H])C([H])([H])C([H])(n4nc(-c5c([H])c([H])c(Oc6c([H])c([H])c(F)c([H])c6F)c([H])c5[H])c(C(=O)N([H])[H])c4N([H])[H])C3([H])[H])c([H])c([H])c2C1([H])[H]

$$$$
96:0:0
     RDKit          3D

117122  0  0  1  0  0  0  0  0999 V2000
  -20.9680  -25.0730   23.6480 C   0  0  0  0  0  0  0  0  0  0  0  0
  -22.1410  -24.8700   23.0720 N   0  0  0  0  0  0  0  0  0  0  0  0
  -20.4090  -24.0950   24.1580 O   0  0  0  0  0  0  0  0  0  0  0  0
  -22.6660  -25.6270   22.6570 H   0  0  0  0  0  0  0  0  0  0  0  0
  -20.8890  -25.8570   26.1750 C   0  0  0  0  0  0  0  0  0  0  0  0
  -18.0320  -25.8590   25.3240 C   0  0  0  0  0  1  0  0  0  0  0  0
  -16.5320  -26.0590   24.0180 C   0  0  0  0  0  1  0  0  0  0  0  0
  -18.2080  -27.5030   21.7400 C   0  0  0  0  0  1  0  0  0  0  0  0
  -20.2320  -26.5740   23.7120 C   0  0  0  0  0  2  0  0  0  0  0  0
  -19.7510  -26.1700   25.1920 N   0  0  0  0  0  0  0  0  0  0  0  0
  -16.6040  -26.9080   22.4050 N   0  0  0  0  0  4  0  0  0  0  0  0
  -20.6290  -25.6770   27.3690 O   0  0  0  0  0  0  0  0  0  0  0  0
  -15.9750  -27.7050   22.4420 H   0  0  0  0  0  0  0  0  0  0  0  0
  -16.1660  -26.2810   21.7190 H   0  0  0  0  0  0  0  0  0  0  0  0
  -22.6490  -25.6050   25.8640 C   0  0  0  0  0  2  0  0  0  0  0  0
  -24.8520  -23.4080   25.7330 C   0  0  0  0  0  0  0  0  0  0  0  0
  -23.7200  -24.3560   26.0580 N   0  0  0  0  0  0  0  0  0  0  0  0
  -25.2750  -22.8860   26.7510 O   0  0  0  0  0  0  0  0  0  0  0  0
  -23.6180  -24.1480   27.0550 H   0  0  0  0  0  0  0  0  0  0  0  0
  -25.7670  -22.7020   24.4270 C   0  0  0  0  0  3  0  0  0  0  0  0
  -26.8120  -21.2470   24.3050 C   0  0  0  0  0  3  0  0  0  0  0  0
  -27.5130  -20.2750   22.9840 C   0  0  0  0  0  2  0  0  0  0  0  0
  -28.4250  -18.7410   22.9770 C   0  0  0  0  0  3  0  0  0  0  0  0
  -29.0140  -17.6230   21.7390 C   0  0  0  0  0  3  0  0  0  0  0  0
  -30.3350  -15.0750   20.8560 C   0  0  0  0  0  0  0  0  0  0  0  0
  -30.4090  -12.7290   19.6490 C   0  0  0  0  0  2  0  0  0  0  0  0
  -29.5430  -12.5890   18.3550 C   0  0  0  0  0  2  0  0  0  0  0  0
  -28.0790  -12.3010   18.7330 C   0  0  0  0  0  2  0  0  0  0  0  0
  -27.6160  -13.2260   19.8780 C   0  0  0  0  0  3  0  0  0  0  0  0
  -28.5880  -13.2280   21.0840 C   0  0  0  0  0  2  0  0  0  0  0  0
  -29.8640  -13.7600   20.6180 N   0  0  0  0  0  0  0  0  0  0  0  0
  -31.4130  -15.2910   20.2960 O   0  0  0  0  0  0  0  0  0  0  0  0
  -29.6000  -16.0570   21.7190 N   0  0  0  0  0  0  0  0  0  0  0  0
  -29.5780  -15.6780   22.6650 H   0  0  0  0  0  0  0  0  0  0  0  0
  -25.2360  -13.8130   20.5710 C   0  0  0  0  0  0  0  0  0  0  0  0
  -24.1720  -13.0470   20.9180 C   0  0  0  0  0  0  0  0  0  0  0  0
  -24.6220  -11.6870   20.8710 C   0  0  0  0  0  0  0  0  0  0  0  0
  -26.2740  -12.9330   20.3190 N   0  0  0  0  0  0  0  0  0  0  0  0
  -25.9130  -11.6400   20.5680 N   0  0  0  0  0  0  0  0  0  0  0  0
  -23.9000  -10.4320   21.0380 C   0  0  0  0  0  0  0  0  0  0  0  0
  -24.3550   -9.4220   21.9170 C   0  0  0  0  0  3  0  0  0  0  0  0
  -23.6250   -8.2230   22.0780 C   0  0  0  0  0  3  0  0  0  0  0  0
  -22.4220   -8.0230   21.3540 C   0  0  0  0  0  0  0  0  0  0  0  0
  -21.9820   -9.0230   20.4650 C   0  0  0  0  0  3  0  0  0  0  0  0
  -22.7160  -10.2110   20.3070 C   0  0  0  0  0  3  0  0  0  0  0  0
  -21.6620   -6.8820   21.4210 O   0  0  0  0  0  0  0  0  0  0  0  0
  -21.6830   -6.0720   22.5260 C   0  0  0  0  0  0  0  0  0  0  0  0
  -21.4000   -6.5620   23.8210 C   0  0  0  0  0  3  0  0  0  0  0  0
  -21.3650   -5.6780   24.9190 C   0  0  0  0  0  3  0  0  0  0  0  0
  -21.6090   -4.3040   24.7240 C   0  0  0  0  0  0  0  0  0  0  0  0
  -21.8820   -3.8120   23.4350 C   0  0  0  0  0  3  0  0  0  0  0  0
  -21.9190   -4.6950   22.3410 C   0  0  0  0  0  0  0  0  0  0  0  0
  -22.1670   -4.2150   21.0990 F   0  0  0  0  0  0  0  0  0  0  0  0
  -21.5620   -3.4530   25.7740 F   0  0  0  0  0  0  0  0  0  0  0  0
  -22.7740  -13.5200   21.1890 C   0  0  0  0  0  0  0  0  0  0  0  0
  -22.0430  -12.8240   22.0450 N   0  0  0  0  0  0  0  0  0  0  0  0
  -22.3410  -14.5560   20.6740 O   0  0  0  0  0  0  0  0  0  0  0  0
  -22.4030  -11.9900   22.4760 H   0  0  0  0  0  0  0  0  0  0  0  0
  -21.1050  -13.1330   22.2710 H   0  0  0  0  0  0  0  0  0  0  0  0
  -25.4170  -15.1880   20.4130 N   0  0  0  0  0  0  0  0  0  0  0  0
  -24.6740  -15.8580   20.5550 H   0  0  0  0  0  0  0  0  0  0  0  0
  -26.2960  -15.6180   20.1300 H   0  0  0  0  0  0  0  0  0  0  0  0
  -22.7360  -23.5740   23.0490 C   0  0  0  0  0  2  0  0  0  0  0  0
  -21.7970  -22.4320   22.7760 C   0  0  0  0  0  2  0  0  0  0  0  0
  -21.3070  -21.5550   23.9740 C   0  0  0  0  0  2  0  0  0  0  0  0
  -19.9820  -21.0420   23.4330 C   0  0  0  0  0  2  0  0  0  0  0  0
  -19.5220  -19.6540   23.8080 C   0  0  0  0  0  2  0  0  0  0  0  0
  -19.2530  -18.8630   22.5130 C   0  0  0  0  0  2  0  0  0  0  0  0
  -20.5000  -18.3310   21.7390 C   0  0  0  0  0  2  0  0  0  0  0  0
  -21.2930  -19.2800   20.7550 C   0  0  0  0  0  3  0  0  0  0  0  0
  -22.7380  -19.7320   21.1520 C   0  0  0  0  0  3  0  0  0  0  0  0
  -23.5110  -20.8310   20.2700 C   0  0  0  0  0  2  0  0  0  0  0  0
  -24.7770  -21.5610   20.9110 C   0  0  0  0  0  2  0  0  0  0  0  0
  -25.2160  -22.8890   20.4270 O   0  0  0  0  0  0  0  0  0  0  0  0
  -26.5430  -23.4590   20.8010 C   0  0  0  0  0  2  0  0  0  0  0  0
  -26.7320  -24.8730   20.1020 C   0  0  0  0  0  2  0  0  0  0  0  0
  -27.7120  -26.0570   20.2760 O   0  0  0  0  0  0  0  0  0  0  0  0
  -24.6620  -31.8920   23.2430 C   0  0  0  0  0  0  0  0  0  0  0  0
  -27.0200  -27.2590   20.0570 C   0  0  0  0  0  0  0  0  0  0  0  0
  -23.5140  -30.6490   21.5110 C   0  0  0  0  0  3  0  0  0  0  0  0
  -24.8980  -29.0960   20.0620 C   0  0  0  0  0  0  0  0  0  0  0  0
  -26.0710  -30.6880   21.5860 C   0  0  0  0  0  2  0  0  0  0  0  0
  -26.0490  -29.3850   20.8060 C   0  0  0  0  0  0  0  0  0  0  0  0
  -27.1240  -28.4590   20.8160 C   0  0  0  0  0  3  0  0  0  0  0  0
  -25.9750  -27.1740   19.1170 C   0  0  0  0  0  3  0  0  0  0  0  0
  -24.8540  -27.9860   19.2310 C   0  0  0  0  0  3  0  0  0  0  0  0
  -23.7410  -30.0570   20.1100 C   0  0  0  0  0  2  0  0  0  0  0  0
  -24.7580  -31.0410   22.1760 N   0  0  0  0  0  0  0  0  0  0  0  0
  -23.5770  -32.2340   23.7540 O   0  0  0  0  0  0  0  0  0  0  0  0
  -22.7870  -29.6140   22.3350 C   0  0  0  0  0  0  0  0  0  0  0  0
  -21.4670  -29.6560   22.0620 N   0  0  0  0  0  4  0  0  0  0  0  0
  -23.3770  -28.8410   23.1190 O   0  0  0  0  0  0  0  0  0  0  0  0
  -21.1570  -30.3280   21.3760 H   0  0  0  0  0  0  0  0  0  0  0  0
  -18.2850  -27.8460   23.9010 C   0  0  0  0  0  2  0  0  0  0  0  0
  -20.5170  -28.6530   22.4490 C   0  0  0  0  0  0  0  0  0  0  0  0
  -20.6700  -27.2320   21.4220 C   0  0  0  0  0  2  0  0  0  0  0  0
  -19.7550  -25.7370   21.4210 C   0  0  0  0  0  2  0  0  0  0  0  0
  -18.4680  -25.5970   22.7740 C   0  0  0  0  0  1  0  0  0  0  0  0
  -19.2760  -28.9400   23.4870 C   0  0  0  0  0  3  0  0  0  0  0  0
  -19.0680  -30.3110   23.7260 C   0  0  0  0  0  2  0  0  0  0  0  0
  -17.8080  -30.8470   23.9770 C   0  0  0  0  0  3  0  0  0  0  0  0
  -16.7520  -29.9790   24.0680 C   0  0  0  0  0  3  0  0  0  0  0  0
  -17.0440  -28.6300   24.1900 C   0  0  0  0  0  2  0  0  0  0  0  0
  -25.9220  -32.4820   23.8800 C   0  0  0  0  0  3  0  0  0  0  0  0
  -26.4720  -31.8210   25.1790 C   0  0  2  0  0  0  0  0  0  0  0  0
  -25.6400  -32.0910   26.4990 C   0  0  0  0  0  1  0  0  0  0  0  0
  -27.9950  -31.8390   24.9940 C   0  0  0  0  0  1  0  0  0  0  0  0
  -26.6080  -30.4140   25.3640 C   0  0  0  0  0  1  0  0  0  0  0  0
  -25.6260  -33.8760   24.2120 N   0  0  0  0  0  0  0  0  0  0  0  0
  -25.9450  -34.9590   23.4880 C   0  0  0  0  0  0  0  0  0  0  0  0
  -26.5880  -34.9280   22.4370 O   0  0  0  0  0  0  0  0  0  0  0  0
  -24.9970  -34.1050   24.9740 H   0  0  0  0  0  0  0  0  0  0  0  0
  -24.1720  -36.7400   23.2380 C   0  0  0  0  0  1  0  0  0  0  0  0
  -25.4410  -36.3150   24.0010 C   0  0  0  0  0  3  0  0  0  0  0  0
  -27.5710  -37.1930   24.8450 C   0  0  0  0  0  1  0  0  0  0  0  0
  -26.4480  -37.4030   23.9350 N   0  0  0  0  0  0  0  0  0  0  0  0
  -26.0490  -38.3420   24.1040 H   0  0  0  0  0  0  0  0  0  0  0  0
  1  9  1  0
  1  3  2  0
  2  1  1  0
  4  2  1  0
  5 12  2  0
  8 11  1  0
  9 10  1  0
 10  6  1  0
 10  5  1  0
 11 13  1  0
 11  7  1  0
 14 11  1  0
 15 17  1  0
 15  5  1  0
 16 17  1  0
 16 18  2  0
 17 19  1  0
 20 16  1  0
 21 20  2  0
 22 21  1  0
 23 22  1  0
 24 23  2  0
 25 33  1  0
 26 31  1  0
 27 28  1  0
 27 26  1  0
 29 28  1  0
 29 38  1  0
 29 30  1  0
 31 25  1  0
 31 30  1  0
 32 25  2  0
 33 24  1  0
 33 34  1  0
 35 36  2  0
 36 55  1  0
 37 36  1  0
 37 40  1  0
 38 39  1  0
 38 35  1  0
 39 37  2  0
 40 41  1  0
 41 42  2  0
 43 46  1  0
 43 42  1  0
 44 43  2  0
 45 44  1  0
 45 40  2  0
 46 47  1  0
 47 48  1  0
 48 49  2  0
 50 49  1  0
 50 54  1  0
 51 50  2  0
 52 47  2  0
 52 51  1  0
 53 52  1  0
 55 56  1  0
 56 59  1  0
 56 58  1  0
 57 55  2  0
 60 61  1  0
 60 35  1  0
 62 60  1  0
 63  2  1  0
 64 63  1  0
 64 65  1  0
 66 67  1  0
 66 65  1  0
 68 67  1  0
 69 68  1  0
 70 71  2  0
 70 69  1  0
 72 73  1  0
 72 71  1  0
 74 75  1  0
 74 73  1  0
 76 77  1  0
 76 75  1  0
 78 89  2  0
 79 77  1  0
 79 84  1  0
 80 88  1  0
 80 90  1  0
 81 87  1  0
 81 83  1  0
 82 88  1  0
 83 84  2  0
 83 82  1  0
 85 86  1  0
 85 79  2  0
 86 81  2  0
 87 80  1  0
 88 78  1  0
 90 92  2  0
 91 90  1  0
 91 95  2  0
 93 91  1  0
 94103  1  0
 96 95  1  0
 97 96  1  0
 97 98  1  0
 99 95  1  0
 99100  1  0
 99 94  1  0
100101  1  0
101102  2  0
102103  1  0
104 78  1  0
104109  1  0
104105  1  0
105108  1  6
105106  1  0
107105  1  0
109112  1  0
110114  1  0
110109  1  0
111110  2  0
114113  1  0
116114  1  0
116117  1  0
116115  1  0
M  ISO  4  25 100  33 100  76 101  77 101
M  END
>  <TORSDO>  (93) 
F 38

>  <SCORE>  (93) 
80.263

>  <name>  (93) 
96

>  <ligand_id>  (93) 
96

>  <original_smiles>  (93) 
[H]c1c([H])c([H])c2c(c1[H])C([H])([H])C([H])([H])C([H])([H])C2([H])N([H])C(=O)C1([H])N(C(=O)C([H])(N([H])C(=O)C([H])(N([H])C([H])([H])[H])C([H])([H])[H])C(C([H])([H])[H])(C([H])([H])[H])C([H])([H])[H])C([H])([H])c2c([H])c(OC([H])([H])C([H])([H])OC([H])([H])C([H])([H])C([H])([H])C([H])([H])C([H])([H])C([H])([H])C([H])([H])C([H])([H])C([H])([H])C([H])([H])C([H])([H])N([H])C(=O)C3([H])N(C(=O)C([H])([H])N([H])C(=O)C([H])([H])C([H])([H])C([H])([H])C([H])([H])C([H])([H])N([H])C(=O)N4C([H])([H])C([H])([H])C([H])([H])C([H])(n5nc(-c6c([H])c([H])c(Oc7c([H])c([H])c(F)c([H])c7F)c([H])c6[H])c(C(=O)N([H])[H])c5N([H])[H])C4([H])[H])C([H])([H])C([H])([H])[N+]([H])([H])C3([H])[H])c([H])c([H])c2C1([H])[H]

>  <smiles>  (93) 
[H]c1c([H])c([H])c2c(c1[H])C([H])([H])C([H])([H])C([H])([H])C2([H])N([H])C(=O)C1([H])N(C(=O)C([H])(N([H])C(=O)C([H])(N([H])C([H])([H])[H])C([H])([H])[H])C(C([H])([H])[H])(C([H])([H])[H])C([H])([H])[H])C([H])([H])c2c([H])c(OC([H])([H])C([H])([H])OC([H])([H])C([H])([H])C([H])([H])C([H])([H])C([H])([H])C([H])([H])C([H])([H])C([H])([H])C([H])([H])C([H])([H])C([H])([H])N([H])C(=O)C3([H])N(C(=O)C([H])([H])N([H])C(=O)C([H])([H])C([H])([H])C([H])([H])C([H])([H])C([H])([H])N([H])C(=O)N4C([H])([H])C([H])([H])C([H])([H])C([H])(n5nc(-c6c([H])c([H])c(Oc7c([H])c([H])c(F)c([H])c7F)c([H])c6[H])c(C(=O)N([H])[H])c5N([H])[H])C4([H])[H])C([H])([H])C([H])([H])[N+]([H])([H])C3([H])[H])c([H])c([H])c2C1([H])[H]

$$$$
97:0:0
     RDKit          3D

 99107  0  0  1  0  0  0  0  0999 V2000
  -26.5900  -20.8050   18.8740 C   0  0  0  0  0  2  0  0  0  0  0  0
  -26.9460  -19.4080   18.3570 C   0  0  0  0  0  2  0  0  0  0  0  0
  -26.6560  -18.1930   19.2780 C   0  0  0  0  0  2  0  0  0  0  0  0
  -26.9680  -16.8830   18.5160 C   0  0  0  0  0  2  0  0  0  0  0  0
  -29.4700  -16.3030   18.7340 C   0  0  0  0  0  0  0  0  0  0  0  0
  -28.1590  -16.1430   18.9880 N   0  0  0  0  0  0  0  0  0  0  0  0
  -29.9180  -17.1820   17.9960 O   0  0  0  0  0  0  0  0  0  0  0  0
  -27.9540  -15.3510   19.5770 H   0  0  0  0  0  0  0  0  0  0  0  0
  -33.0800  -12.7310   21.3090 C   0  0  0  0  0  0  0  0  0  0  0  0
  -32.9030  -10.5570   22.4800 C   0  0  0  0  0  2  0  0  0  0  0  0
  -32.3650   -9.4730   21.5280 C   0  0  0  0  0  2  0  0  0  0  0  0
  -30.8230   -9.4690   21.5300 C   0  0  0  0  0  2  0  0  0  0  0  0
  -30.2290  -10.8870   21.3200 C   0  0  0  0  0  3  0  0  0  0  0  0
  -30.8940  -11.9030   22.2730 C   0  0  0  0  0  2  0  0  0  0  0  0
  -32.3510  -11.8560   22.0550 N   0  0  0  0  0  0  0  0  0  0  0  0
  -34.2750  -12.5410   21.0500 O   0  0  0  0  0  0  0  0  0  0  0  0
  -31.7700  -15.1240   18.6620 C   0  0  0  0  0  2  0  0  0  0  0  0
  -30.7300  -15.6170   20.8730 C   0  0  0  0  0  2  0  0  0  0  0  0
  -32.6310  -13.9800   19.2560 C   0  0  0  0  0  2  0  0  0  0  0  0
  -32.0040  -14.9300   21.4430 C   0  0  0  0  0  2  0  0  0  0  0  0
  -30.4190  -15.2720   19.3970 C   0  0  0  0  0  3  0  0  0  0  0  0
  -32.3860  -13.7220   20.6920 N   0  0  0  0  0  0  0  0  0  0  0  0
  -27.8760  -11.9380   21.3040 C   0  0  0  0  0  0  0  0  0  0  0  0
  -26.6300  -11.3880   21.5030 C   0  0  0  0  0  0  0  0  0  0  0  0
  -26.8500  -10.0070   21.7820 C   0  0  0  0  0  0  0  0  0  0  0  0
  -28.7750  -10.8920   21.4700 N   0  0  0  0  0  0  0  0  0  0  0  0
  -28.1490   -9.7390   21.8160 N   0  0  0  0  0  0  0  0  0  0  0  0
  -25.8900   -8.9070   21.9690 C   0  0  0  0  0  0  0  0  0  0  0  0
  -25.3640   -8.5920   23.2410 C   0  0  0  0  0  3  0  0  0  0  0  0
  -24.4290   -7.5460   23.3910 C   0  0  0  0  0  3  0  0  0  0  0  0
  -24.0040   -6.8050   22.2640 C   0  0  0  0  0  0  0  0  0  0  0  0
  -24.5470   -7.1080   21.0010 C   0  0  0  0  0  3  0  0  0  0  0  0
  -25.4840   -8.1460   20.8560 C   0  0  0  0  0  3  0  0  0  0  0  0
  -23.1200   -5.7550   22.3210 O   0  0  0  0  0  0  0  0  0  0  0  0
  -21.9090   -5.8640   22.9600 C   0  0  0  0  0  0  0  0  0  0  0  0
  -20.8830   -6.7040   22.4740 C   0  0  0  0  0  3  0  0  0  0  0  0
  -19.6310   -6.7320   23.1170 C   0  0  0  0  0  3  0  0  0  0  0  0
  -19.3980   -5.9180   24.2420 C   0  0  0  0  0  0  0  0  0  0  0  0
  -20.4160   -5.0760   24.7240 C   0  0  0  0  0  3  0  0  0  0  0  0
  -21.6670   -5.0470   24.0840 C   0  0  0  0  0  0  0  0  0  0  0  0
  -22.6350   -4.2170   24.5400 F   0  0  0  0  0  0  0  0  0  0  0  0
  -18.1920   -5.9380   24.8550 F   0  0  0  0  0  0  0  0  0  0  0  0
  -25.3130  -12.0890   21.3380 C   0  0  0  0  0  0  0  0  0  0  0  0
  -24.2970  -11.6600   22.0850 N   0  0  0  0  0  0  0  0  0  0  0  0
  -25.1880  -13.0490   20.5830 O   0  0  0  0  0  0  0  0  0  0  0  0
  -24.4010  -10.8790   22.7180 H   0  0  0  0  0  0  0  0  0  0  0  0
  -23.3970  -12.1090   22.0110 H   0  0  0  0  0  0  0  0  0  0  0  0
  -28.3100  -13.2140   20.9780 N   0  0  0  0  0  0  0  0  0  0  0  0
  -27.6650  -13.9690   20.7740 H   0  0  0  0  0  0  0  0  0  0  0  0
  -29.2780  -13.4650   20.7950 H   0  0  0  0  0  0  0  0  0  0  0  0
  -27.0750  -21.9040   17.8710 C   0  0  0  0  0  2  0  0  0  0  0  0
  -28.3810  -22.6430   18.2560 C   0  0  0  0  0  2  0  0  0  0  0  0
  -28.1370  -23.6730   19.3880 C   0  0  0  0  0  2  0  0  0  0  0  0
  -29.2020  -23.7700   20.4070 N   0  0  0  0  0  4  0  0  0  0  0  0
  -28.8140  -24.2450   21.2040 H   0  0  0  0  0  0  0  0  0  0  0  0
  -29.5120  -22.8700   20.7390 H   0  0  0  0  0  0  0  0  0  0  0  0
  -30.3550  -24.5920   20.0100 C   0  0  0  0  0  2  0  0  0  0  0  0
  -30.8700  -25.3550   21.2320 C   0  0  0  0  0  2  0  0  0  0  0  0
  -30.3450  -26.6580   21.4810 O   0  0  0  0  0  0  0  0  0  0  0  0
  -25.7080  -31.0220   24.5920 C   0  0  0  0  0  0  0  0  0  0  0  0
  -29.0270  -27.0770   21.4980 C   0  0  0  0  0  0  0  0  0  0  0  0
  -24.8290  -29.7940   22.6270 C   0  0  0  0  0  3  0  0  0  0  0  0
  -26.5530  -28.4540   21.3110 C   0  0  0  0  0  0  0  0  0  0  0  0
  -27.3290  -30.2400   22.8810 C   0  0  0  0  0  2  0  0  0  0  0  0
  -27.5690  -28.9430   22.1390 C   0  0  0  0  0  0  0  0  0  0  0  0
  -28.7910  -28.2540   22.2440 C   0  0  0  0  0  3  0  0  0  0  0  0
  -27.9780  -26.5810   20.6780 C   0  0  0  0  0  3  0  0  0  0  0  0
  -26.7470  -27.2670   20.5830 C   0  0  0  0  0  3  0  0  0  0  0  0
  -25.2810  -29.2690   21.2350 C   0  0  0  0  0  2  0  0  0  0  0  0
  -25.9620  -30.3600   23.4280 N   0  0  0  0  0  0  0  0  0  0  0  0
  -24.5460  -31.2040   24.9810 O   0  0  0  0  0  0  0  0  0  0  0  0
  -24.0820  -28.6540   23.3540 C   0  0  0  0  0  0  0  0  0  0  0  0
  -22.9530  -28.2230   22.7730 N   0  0  0  0  0  0  0  0  0  0  0  0
  -24.5340  -28.1590   24.3900 O   0  0  0  0  0  0  0  0  0  0  0  0
  -22.6420  -28.6850   21.9300 H   0  0  0  0  0  0  0  0  0  0  0  0
  -20.0560  -26.2360   21.9370 C   0  0  0  0  0  0  0  0  0  0  0  0
  -22.1020  -27.1320   23.2410 C   0  0  0  0  0  3  0  0  0  0  0  0
  -22.7570  -25.7590   22.9610 C   0  0  0  0  0  2  0  0  0  0  0  0
  -22.3120  -25.1340   21.6320 C   0  0  0  0  0  2  0  0  0  0  0  0
  -20.7920  -24.9540   21.5950 C   0  0  0  0  0  2  0  0  0  0  0  0
  -20.6760  -27.2660   22.6970 C   0  0  0  0  0  0  0  0  0  0  0  0
  -19.9590  -28.4540   22.9540 C   0  0  0  0  0  3  0  0  0  0  0  0
  -18.6470  -28.6230   22.4690 C   0  0  0  0  0  3  0  0  0  0  0  0
  -18.0320  -27.5910   21.7350 C   0  0  0  0  0  3  0  0  0  0  0  0
  -18.7350  -26.4010   21.4730 C   0  0  0  0  0  3  0  0  0  0  0  0
  -26.8580  -31.5990   25.4790 C   0  0  0  0  0  3  0  0  0  0  0  0
  -26.8340  -31.0560   26.9600 C   0  0  1  0  0  0  0  0  0  0  0  0
  -25.4490  -31.1680   27.6380 C   0  0  0  0  0  1  0  0  0  0  0  0
  -27.2630  -29.5700   26.9990 C   0  0  0  0  0  1  0  0  0  0  0  0
  -27.8480  -31.8380   27.8260 C   0  0  0  0  0  1  0  0  0  0  0  0
  -26.7330  -33.0630   25.4580 N   0  0  0  0  0  0  0  0  0  0  0  0
  -27.4490  -33.8750   24.6710 C   0  0  0  0  0  0  0  0  0  0  0  0
  -28.3430  -33.4680   23.9230 O   0  0  0  0  0  0  0  0  0  0  0  0
  -25.9820  -33.4590   26.0050 H   0  0  0  0  0  0  0  0  0  0  0  0
  -26.2150  -35.7490   23.5330 C   0  0  0  0  0  1  0  0  0  0  0  0
  -27.1200  -35.3800   24.7190 C   0  0  0  0  0  3  0  0  0  0  0  0
  -29.0910  -36.1720   25.9540 C   0  0  0  0  0  1  0  0  0  0  0  0
  -28.3200  -36.2440   24.7150 N   0  0  0  0  0  0  0  0  0  0  0  0
  -28.0640  -37.2140   24.5570 H   0  0  0  0  0  0  0  0  0  0  0  0
  2  1  1  0
  2  3  1  0
  4  6  1  0
  4  3  1  0
  5  6  1  0
  6  8  1  0
  7  5  2  0
  9 15  1  0
 11 12  1  0
 11 10  1  0
 13 26  1  0
 13 12  1  0
 13 14  1  0
 15 14  1  0
 15 10  1  0
 16  9  2  0
 17 19  1  0
 17 21  1  0
 18 20  1  0
 19 22  1  0
 21  5  1  0
 21 18  1  0
 22  9  1  0
 22 20  1  0
 23 26  1  0
 23 24  2  0
 24 25  1  0
 25 27  2  0
 25 28  1  0
 26 27  1  0
 28 29  1  0
 29 30  2  0
 31 34  1  0
 31 30  1  0
 32 31  2  0
 33 32  1  0
 33 28  2  0
 34 35  1  0
 35 40  1  0
 36 35  2  0
 36 37  1  0
 37 38  2  0
 38 39  1  0
 38 42  1  0
 40 41  1  0
 40 39  2  0
 43 24  1  0
 43 44  1  0
 44 46  1  0
 45 43  2  0
 47 44  1  0
 48 23  1  0
 49 48  1  0
 50 48  1  0
 51 52  1  0
 51  1  1  0
 52 53  1  0
 53 54  1  0
 54 56  1  0
 54 55  1  0
 57 54  1  0
 57 58  1  0
 58 59  1  0
 59 61  1  0
 60 71  2  0
 61 66  1  0
 62 72  1  0
 62 70  1  0
 63 65  1  0
 64 70  1  0
 65 66  2  0
 65 64  1  0
 67 61  2  0
 68 67  1  0
 68 63  2  0
 69 63  1  0
 69 62  1  0
 70 60  1  0
 72 74  2  0
 73 72  1  0
 75 73  1  0
 76 81  1  0
 77 73  1  0
 78 77  1  0
 79 78  1  0
 80 79  1  0
 80 76  1  0
 81 82  2  0
 81 77  1  0
 83 82  1  0
 84 83  2  0
 85 84  1  0
 85 76  2  0
 86 60  1  0
 86 87  1  0
 87 89  1  6
 87 88  1  0
 87 90  1  0
 91 86  1  0
 91 94  1  0
 92 96  1  0
 92 91  1  0
 93 92  2  0
 96 95  1  0
 98 96  1  0
 98 97  1  0
 99 98  1  0
M  ISO  4   9 100  22 100  58 101  59 101
M  END
>  <TORSDO>  (94) 
F 26

>  <SCORE>  (94) 
-1.885

>  <name>  (94) 
97

>  <ligand_id>  (94) 
97

>  <original_smiles>  (94) 
[H]c1c([H])c([H])c2c(c1[H])C([H])([H])C([H])([H])C([H])([H])C2([H])N([H])C(=O)C1([H])N(C(=O)C([H])(N([H])C(=O)C([H])(N([H])C([H])([H])[H])C([H])([H])[H])C(C([H])([H])[H])(C([H])([H])[H])C([H])([H])[H])C([H])([H])c2c([H])c(OC([H])([H])C([H])([H])[N+]([H])([H])C([H])([H])C([H])([H])C([H])([H])C([H])([H])C([H])([H])C([H])([H])C([H])([H])N([H])C(=O)C3([H])C([H])([H])C([H])([H])N(C(=O)N4C([H])([H])C([H])([H])C([H])([H])C([H])(n5nc(-c6c([H])c([H])c(Oc7c([H])c([H])c(F)c([H])c7F)c([H])c6[H])c(C(=O)N([H])[H])c5N([H])[H])C4([H])[H])C([H])([H])C3([H])[H])c([H])c([H])c2C1([H])[H]

>  <smiles>  (94) 
[H]c1c([H])c([H])c2c(c1[H])C([H])([H])C([H])([H])C([H])([H])C2([H])N([H])C(=O)C1([H])N(C(=O)C([H])(N([H])C(=O)C([H])(N([H])C([H])([H])[H])C([H])([H])[H])C(C([H])([H])[H])(C([H])([H])[H])C([H])([H])[H])C([H])([H])c2c([H])c(OC([H])([H])C([H])([H])[N+]([H])([H])C([H])([H])C([H])([H])C([H])([H])C([H])([H])C([H])([H])C([H])([H])C([H])([H])N([H])C(=O)C3([H])C([H])([H])C([H])([H])N(C(=O)N4C([H])([H])C([H])([H])C([H])([H])C([H])(n5nc(-c6c([H])c([H])c(Oc7c([H])c([H])c(F)c([H])c7F)c([H])c6[H])c(C(=O)N([H])[H])c5N([H])[H])C4([H])[H])C([H])([H])C3([H])[H])c([H])c([H])c2C1([H])[H]

$$$$
98:0:0
     RDKit          3D

 98105  0  0  1  0  0  0  0  0999 V2000
  -28.9820  -21.6900   21.0350 C   0  0  0  0  0  0  0  0  0  0  0  0
  -28.5030  -22.8760   20.6300 N   0  0  0  0  0  0  0  0  0  0  0  0
  -28.3430  -20.6430   20.9380 O   0  0  0  0  0  0  0  0  0  0  0  0
  -29.1050  -23.6640   20.8300 H   0  0  0  0  0  0  0  0  0  0  0  0
  -27.1580  -23.1530   20.1220 C   0  0  0  0  0  2  0  0  0  0  0  0
  -27.0570  -23.2150   18.5800 C   0  0  0  0  0  2  0  0  0  0  0  0
  -26.7880  -24.5980   18.1320 N   0  0  0  0  0  4  0  0  0  0  0  0
  -27.6710  -25.0500   17.9490 H   0  0  0  0  0  0  0  0  0  0  0  0
  -26.3440  -25.0900   18.8920 H   0  0  0  0  0  0  0  0  0  0  0  0
  -25.9270  -24.7330   16.9350 C   0  0  0  0  0  2  0  0  0  0  0  0
  -25.7890  -26.2170   16.5500 C   0  0  0  0  0  2  0  0  0  0  0  0
  -24.4800  -26.5140   16.0710 O   0  0  0  0  0  0  0  0  0  0  0  0
  -23.4630  -27.4940   23.0440 C   0  0  0  0  0  0  0  0  0  0  0  0
  -23.6300  -26.9030   17.0710 C   0  0  0  0  0  0  0  0  0  0  0  0
  -21.4360  -27.5780   21.6270 C   0  0  0  0  0  3  0  0  0  0  0  0
  -21.8470  -27.6670   19.1130 C   0  0  0  0  0  0  0  0  0  0  0  0
  -23.7220  -28.2200   20.6750 C   0  0  0  0  0  2  0  0  0  0  0  0
  -23.2290  -27.7330   19.3310 C   0  0  0  0  0  0  0  0  0  0  0  0
  -24.1270  -27.3560   18.3100 C   0  0  0  0  0  3  0  0  0  0  0  0
  -22.2390  -26.8360   16.8600 C   0  0  0  0  0  3  0  0  0  0  0  0
  -21.3440  -27.2130   17.8800 C   0  0  0  0  0  3  0  0  0  0  0  0
  -20.9550  -28.1080   20.2500 C   0  0  0  0  0  2  0  0  0  0  0  0
  -22.9150  -27.7360   21.8190 N   0  0  0  0  0  0  0  0  0  0  0  0
  -22.7530  -27.1860   24.0130 O   0  0  0  0  0  0  0  0  0  0  0  0
  -20.9480  -26.1200   21.7880 C   0  0  0  0  0  0  0  0  0  0  0  0
  -19.6210  -25.9230   21.7130 N   0  0  0  0  0  0  0  0  0  0  0  0
  -21.7530  -25.1980   21.9490 O   0  0  0  0  0  0  0  0  0  0  0  0
  -19.0280  -26.7320   21.5840 H   0  0  0  0  0  0  0  0  0  0  0  0
  -16.4430  -24.2810   21.2250 C   0  0  0  0  0  0  0  0  0  0  0  0
  -18.9380  -24.6340   21.7990 C   0  0  0  0  0  3  0  0  0  0  0  0
  -19.2430  -23.7590   20.5610 C   0  0  0  0  0  2  0  0  0  0  0  0
  -18.2050  -23.9090   19.4470 C   0  0  0  0  0  2  0  0  0  0  0  0
  -16.8090  -23.5340   19.9540 C   0  0  0  0  0  2  0  0  0  0  0  0
  -17.4420  -24.8110   22.0810 C   0  0  0  0  0  0  0  0  0  0  0  0
  -17.0440  -25.5300   23.2300 C   0  0  0  0  0  3  0  0  0  0  0  0
  -15.6810  -25.7140   23.5310 C   0  0  0  0  0  3  0  0  0  0  0  0
  -14.6990  -25.1680   22.6870 C   0  0  0  0  0  3  0  0  0  0  0  0
  -15.0780  -24.4530   21.5380 C   0  0  0  0  0  3  0  0  0  0  0  0
  -24.9980  -27.6150   23.2930 C   0  0  0  0  0  3  0  0  0  0  0  0
  -25.2040  -27.7800   24.7390 N   0  0  0  0  0  0  0  0  0  0  0  0
  -25.6160  -28.9140   25.3250 C   0  0  0  0  0  0  0  0  0  0  0  0
  -25.9390  -29.9180   24.6840 O   0  0  0  0  0  0  0  0  0  0  0  0
  -24.9200  -27.0110   25.3250 H   0  0  0  0  0  0  0  0  0  0  0  0
  -24.5110  -29.7710   27.4150 C   0  0  0  0  0  1  0  0  0  0  0  0
  -25.6780  -28.9340   26.8630 C   0  0  0  0  0  3  0  0  0  0  0  0
  -28.0900  -28.5650   27.1320 C   0  0  0  0  0  1  0  0  0  0  0  0
  -26.9580  -29.4510   27.3940 N   0  0  0  0  0  0  0  0  0  0  0  0
  -26.8980  -29.5990   28.3980 H   0  0  0  0  0  0  0  0  0  0  0  0
  -25.8150  -26.3760   22.7580 C   0  0  1  0  0  0  0  0  0  0  0  0
  -25.1870  -25.0100   23.1230 C   0  0  0  0  0  1  0  0  0  0  0  0
  -25.9470  -26.4410   21.2190 C   0  0  0  0  0  1  0  0  0  0  0  0
  -27.2520  -26.4090   23.3300 C   0  0  0  0  0  1  0  0  0  0  0  0
  -30.3940  -21.6970   21.6340 C   0  0  0  0  0  2  0  0  0  0  0  0
  -30.7870  -23.0490   21.8350 O   0  0  0  0  0  0  0  0  0  0  0  0
  -31.9440  -23.4460   21.1150 C   0  0  0  0  0  2  0  0  0  0  0  0
  -31.4380  -24.4130   20.0380 C   0  0  0  0  0  2  0  0  0  0  0  0
  -31.0630  -23.6740   18.7440 C   0  0  0  0  0  2  0  0  0  0  0  0
  -32.1290  -22.8130   18.3600 O   0  0  0  0  0  0  0  0  0  0  0  0
  -31.8880  -22.1790   17.1130 C   0  0  0  0  0  2  0  0  0  0  0  0
  -33.1050  -21.3320   16.7350 C   0  0  0  0  0  2  0  0  0  0  0  0
  -33.9780  -19.0760   17.2920 C   0  0  0  0  0  0  0  0  0  0  0  0
  -34.8320  -16.9930   18.2970 C   0  0  0  0  0  2  0  0  0  0  0  0
  -34.3480  -15.7350   17.5570 C   0  0  0  0  0  2  0  0  0  0  0  0
  -32.9680  -15.2890   18.0750 C   0  0  0  0  0  2  0  0  0  0  0  0
  -31.9480  -16.4550   18.1250 C   0  0  0  0  0  3  0  0  0  0  0  0
  -32.5580  -17.6810   18.8370 C   0  0  0  0  0  2  0  0  0  0  0  0
  -33.8130  -18.0420   18.1500 N   0  0  0  0  0  0  0  0  0  0  0  0
  -34.9670  -19.2080   16.5640 O   0  0  0  0  0  0  0  0  0  0  0  0
  -33.0310  -20.0150   17.3550 N   0  0  0  0  0  0  0  0  0  0  0  0
  -32.2390  -19.8370   17.9550 H   0  0  0  0  0  0  0  0  0  0  0  0
  -29.5810  -16.7920   19.0890 C   0  0  0  0  0  0  0  0  0  0  0  0
  -28.6600  -15.9090   19.5780 C   0  0  0  0  0  0  0  0  0  0  0  0
  -29.2720  -14.6200   19.5070 C   0  0  0  0  0  0  0  0  0  0  0  0
  -30.6940  -16.0360   18.7520 N   0  0  0  0  0  0  0  0  0  0  0  0
  -30.5160  -14.7260   19.0570 N   0  0  0  0  0  0  0  0  0  0  0  0
  -28.7260  -13.2850   19.7840 C   0  0  0  0  0  0  0  0  0  0  0  0
  -28.7470  -12.7360   21.0850 C   0  0  0  0  0  3  0  0  0  0  0  0
  -28.2000  -11.4600   21.3310 C   0  0  0  0  0  3  0  0  0  0  0  0
  -27.6190  -10.7200   20.2740 C   0  0  0  0  0  0  0  0  0  0  0  0
  -27.6220  -11.2620   18.9770 C   0  0  0  0  0  3  0  0  0  0  0  0
  -28.1720  -12.5310   18.7320 C   0  0  0  0  0  3  0  0  0  0  0  0
  -27.0860   -9.4610   20.4150 O   0  0  0  0  0  0  0  0  0  0  0  0
  -25.8440   -9.2610   20.9610 C   0  0  0  0  0  0  0  0  0  0  0  0
  -24.6640   -9.6410   20.2830 C   0  0  0  0  0  3  0  0  0  0  0  0
  -23.4050   -9.3540   20.8500 C   0  0  0  0  0  3  0  0  0  0  0  0
  -23.3240   -8.6800   22.0820 C   0  0  0  0  0  0  0  0  0  0  0  0
  -24.4980   -8.2960   22.7550 C   0  0  0  0  0  3  0  0  0  0  0  0
  -25.7540   -8.5830   22.1930 C   0  0  0  0  0  0  0  0  0  0  0  0
  -26.8810   -8.1920   22.8340 F   0  0  0  0  0  0  0  0  0  0  0  0
  -22.1160   -8.3980   22.6230 F   0  0  0  0  0  0  0  0  0  0  0  0
  -27.2540  -16.2250   20.0010 C   0  0  0  0  0  0  0  0  0  0  0  0
  -26.6460  -15.3560   20.8010 N   0  0  0  0  0  0  0  0  0  0  0  0
  -26.7050  -17.2710   19.6600 O   0  0  0  0  0  0  0  0  0  0  0  0
  -27.1040  -14.5070   21.0950 H   0  0  0  0  0  0  0  0  0  0  0  0
  -25.7070  -15.5440   21.1220 H   0  0  0  0  0  0  0  0  0  0  0  0
  -29.5630  -18.1690   18.8850 N   0  0  0  0  0  0  0  0  0  0  0  0
  -28.7260  -18.7210   19.0390 H   0  0  0  0  0  0  0  0  0  0  0  0
  -30.3030  -18.6870   18.4270 H   0  0  0  0  0  0  0  0  0  0  0  0
  1 53  1  0
  2  4  1  0
  2  1  1  0
  3  1  2  0
  5  2  1  0
  6  5  1  0
  7  6  1  0
  7  9  1  0
  8  7  1  0
 10  7  1  0
 11 10  1  0
 12 11  1  0
 12 14  1  0
 13 24  2  0
 14 19  1  0
 15 25  1  0
 15 23  1  0
 16 18  1  0
 16 22  1  0
 17 23  1  0
 18 17  1  0
 19 18  2  0
 20 14  2  0
 20 21  1  0
 21 16  2  0
 22 15  1  0
 23 13  1  0
 25 27  2  0
 26 25  1  0
 28 26  1  0
 29 38  2  0
 29 34  1  0
 30 26  1  0
 30 34  1  0
 31 30  1  0
 32 33  1  0
 32 31  1  0
 33 29  1  0
 34 35  2  0
 35 36  1  0
 37 36  2  0
 38 37  1  0
 39 13  1  0
 39 40  1  0
 40 43  1  0
 40 41  1  0
 41 45  1  0
 42 41  2  0
 45 47  1  0
 45 44  1  0
 46 47  1  0
 47 48  1  0
 49 50  1  6
 49 39  1  0
 49 52  1  0
 51 49  1  0
 53 54  1  0
 55 54  1  0
 56 55  1  0
 57 56  1  0
 58 57  1  0
 59 58  1  0
 60 59  1  0
 60 69  1  0
 61 69  1  0
 61 67  1  0
 63 64  1  0
 63 62  1  0
 65 64  1  0
 65 74  1  0
 65 66  1  0
 67 62  1  0
 67 66  1  0
 68 61  2  0
 69 70  1  0
 71 72  2  0
 72 91  1  0
 73 72  1  0
 73 76  1  0
 74 75  1  0
 74 71  1  0
 75 73  2  0
 76 77  1  0
 77 78  2  0
 79 82  1  0
 79 78  1  0
 80 79  2  0
 81 80  1  0
 81 76  2  0
 82 83  1  0
 83 88  1  0
 84 85  1  0
 84 83  2  0
 85 86  2  0
 86 90  1  0
 86 87  1  0
 88 87  2  0
 88 89  1  0
 91 92  1  0
 92 94  1  0
 92 95  1  0
 93 91  2  0
 96 97  1  0
 96 71  1  0
 98 96  1  0
M  ISO  4  11 101  12 101  61 100  69 100
M  END
>  <TORSDO>  (95) 
F 29

>  <SCORE>  (95) 
-5.588

>  <name>  (95) 
98

>  <ligand_id>  (95) 
98

>  <original_smiles>  (95) 
[H]c1c([H])c([H])c2c(c1[H])C([H])([H])C([H])([H])C([H])([H])C2([H])N([H])C(=O)C1([H])N(C(=O)C([H])(N([H])C(=O)C([H])(N([H])C([H])([H])[H])C([H])([H])[H])C(C([H])([H])[H])(C([H])([H])[H])C([H])([H])[H])C([H])([H])c2c([H])c(OC([H])([H])C([H])([H])[N+]([H])([H])C([H])([H])C([H])([H])N([H])C(=O)C([H])([H])OC([H])([H])C([H])([H])C([H])([H])OC([H])([H])C([H])([H])N([H])C(=O)N3C([H])([H])C([H])([H])C([H])([H])C([H])(n4nc(-c5c([H])c([H])c(Oc6c([H])c([H])c(F)c([H])c6F)c([H])c5[H])c(C(=O)N([H])[H])c4N([H])[H])C3([H])[H])c([H])c([H])c2C1([H])[H]

>  <smiles>  (95) 
[H]c1c([H])c([H])c2c(c1[H])C([H])([H])C([H])([H])C([H])([H])C2([H])N([H])C(=O)C1([H])N(C(=O)C([H])(N([H])C(=O)C([H])(N([H])C([H])([H])[H])C([H])([H])[H])C(C([H])([H])[H])(C([H])([H])[H])C([H])([H])[H])C([H])([H])c2c([H])c(OC([H])([H])C([H])([H])[N+]([H])([H])C([H])([H])C([H])([H])N([H])C(=O)C([H])([H])OC([H])([H])C([H])([H])C([H])([H])OC([H])([H])C([H])([H])N([H])C(=O)N3C([H])([H])C([H])([H])C([H])([H])C([H])(n4nc(-c5c([H])c([H])c(Oc6c([H])c([H])c(F)c([H])c6F)c([H])c5[H])c(C(=O)N([H])[H])c4N([H])[H])C3([H])[H])c([H])c([H])c2C1([H])[H]

$$$$
