0:0:0
     RDKit          3D

116123  0  0  1  0  0  0  0  0999 V2000
  -21.9860  -18.5840   20.2300 C   0  0  0  0  0  0  0  0  0  0  0  0
  -20.7050  -18.9050   20.4570 N   0  0  0  0  0  0  0  0  0  0  0  0
  -22.8200  -18.4980   21.1340 O   0  0  0  0  0  0  0  0  0  0  0  0
  -20.0940  -18.9400   19.6520 H   0  0  0  0  0  0  0  0  0  0  0  0
  -20.0990  -19.2030   21.7550 C   0  0  0  0  0  2  0  0  0  0  0  0
  -20.3310  -20.6560   22.2180 C   0  0  0  0  0  2  0  0  0  0  0  0
  -19.7710  -21.7200   21.2560 C   0  0  0  0  0  2  0  0  0  0  0  0
  -20.6040  -23.0110   21.2440 C   0  0  0  0  0  2  0  0  0  0  0  0
  -20.2510  -23.9180   20.0480 C   0  0  0  0  0  2  0  0  0  0  0  0
  -21.3830  -24.8720   19.6600 C   0  0  0  0  0  0  0  0  0  0  0  0
  -21.6040  -25.0610   18.3550 N   0  0  0  0  0  0  0  0  0  0  0  0
  -22.0460  -25.4410   20.5280 O   0  0  0  0  0  0  0  0  0  0  0  0
  -21.0330  -24.5560   17.6920 H   0  0  0  0  0  0  0  0  0  0  0  0
  -22.6930  -25.8670   17.8010 C   0  0  0  0  0  2  0  0  0  0  0  0
  -24.0220  -25.0950   17.7880 C   0  0  0  0  0  0  0  0  0  0  0  0
  -25.1380  -25.8130   17.6180 N   0  0  0  0  0  0  0  0  0  0  0  0
  -24.0380  -23.8670   17.9220 O   0  0  0  0  0  0  0  0  0  0  0  0
  -25.0430  -26.8150   17.5140 H   0  0  0  0  0  0  0  0  0  0  0  0
  -26.4940  -25.2690   17.5780 C   0  0  0  0  0  2  0  0  0  0  0  0
  -27.0970  -25.0010   18.9760 C   0  0  0  0  0  2  0  0  0  0  0  0
  -27.5430  -26.1940   19.6260 O   0  0  0  0  0  0  0  0  0  0  0  0
  -26.0080  -30.8620   24.7580 C   0  0  0  0  0  0  0  0  0  0  0  0
  -26.6420  -27.1390   20.0710 C   0  0  0  0  0  0  0  0  0  0  0  0
  -24.2290  -30.5010   23.0760 C   0  0  0  0  0  3  0  0  0  0  0  0
  -24.9110  -29.1670   21.0180 C   0  0  0  0  0  0  0  0  0  0  0  0
  -26.6900  -30.1500   22.4710 C   0  0  0  0  0  2  0  0  0  0  0  0
  -26.2330  -29.1080   21.4720 C   0  0  0  0  0  0  0  0  0  0  0  0
  -27.1000  -28.1000   21.0000 C   0  0  0  0  0  3  0  0  0  0  0  0
  -25.2930  -27.1970   19.6470 C   0  0  0  0  0  3  0  0  0  0  0  0
  -24.4330  -28.2090   20.1090 C   0  0  0  0  0  3  0  0  0  0  0  0
  -24.0470  -30.2850   21.5510 C   0  0  0  0  0  2  0  0  0  0  0  0
  -25.6720  -30.4930   23.4890 N   0  0  0  0  0  0  0  0  0  0  0  0
  -25.1470  -31.2450   25.5620 O   0  0  0  0  0  0  0  0  0  0  0  0
  -23.3700  -29.4590   23.8270 C   0  0  0  0  0  0  0  0  0  0  0  0
  -22.0790  -29.3830   23.4690 N   0  0  0  0  0  0  0  0  0  0  0  0
  -23.8690  -28.7250   24.6840 O   0  0  0  0  0  0  0  0  0  0  0  0
  -21.7410  -30.0270   22.7670 H   0  0  0  0  0  0  0  0  0  0  0  0
  -18.8340  -27.9100   22.8740 C   0  0  0  0  0  0  0  0  0  0  0  0
  -21.0910  -28.4500   24.0140 C   0  0  0  0  0  3  0  0  0  0  0  0
  -21.4820  -26.9870   23.7070 C   0  0  0  0  0  2  0  0  0  0  0  0
  -20.8520  -26.4490   22.4200 C   0  0  0  0  0  2  0  0  0  0  0  0
  -19.3250  -26.5220   22.4950 C   0  0  0  0  0  2  0  0  0  0  0  0
  -19.6700  -28.8210   23.5730 C   0  0  0  0  0  0  0  0  0  0  0  0
  -19.1790  -30.1110   23.8690 C   0  0  0  0  0  3  0  0  0  0  0  0
  -17.8790  -30.4920   23.4850 C   0  0  0  0  0  3  0  0  0  0  0  0
  -17.0510  -29.5800   22.8070 C   0  0  0  0  0  3  0  0  0  0  0  0
  -17.5280  -28.2930   22.5050 C   0  0  0  0  0  3  0  0  0  0  0  0
  -27.4880  -30.8440   25.2490 C   0  0  0  0  0  3  0  0  0  0  0  0
  -27.7160  -32.0800   26.0060 N   0  0  0  0  0  0  0  0  0  0  0  0
  -28.4250  -33.1260   25.5610 C   0  0  0  0  0  0  0  0  0  0  0  0
  -29.0220  -33.1220   24.4800 O   0  0  0  0  0  0  0  0  0  0  0  0
  -27.2150  -32.1780   26.8760 H   0  0  0  0  0  0  0  0  0  0  0  0
  -27.5100  -35.4400   25.9160 C   0  0  0  0  0  1  0  0  0  0  0  0
  -28.4810  -34.3790   26.4560 C   0  0  0  0  0  3  0  0  0  0  0  0
  -30.7620  -34.1100   27.3260 C   0  0  0  0  0  1  0  0  0  0  0  0
  -29.8370  -34.9580   26.5750 N   0  0  0  0  0  0  0  0  0  0  0  0
  -29.8030  -35.8670   27.0290 H   0  0  0  0  0  0  0  0  0  0  0  0
  -27.8370  -29.5770   26.1220 C   0  0  1  0  0  0  0  0  0  0  0  0
  -26.8490  -29.3340   27.2860 C   0  0  0  0  0  1  0  0  0  0  0  0
  -27.8590  -28.3010   25.2500 C   0  0  0  0  0  1  0  0  0  0  0  0
  -29.2550  -29.7300   26.7230 C   0  0  0  0  0  1  0  0  0  0  0  0
  -22.3750  -18.3380   18.7650 C   0  0  0  0  0  2  0  0  0  0  0  0
  -23.3060  -19.3240   18.3280 O   0  0  0  0  0  0  0  0  0  0  0  0
  -23.7490  -19.0900   17.0000 C   0  0  0  0  0  2  0  0  0  0  0  0
  -24.1380  -20.4200   16.3450 C   0  0  0  0  0  2  0  0  0  0  0  0
  -22.9390  -21.3540   16.1120 C   0  0  0  0  0  2  0  0  0  0  0  0
  -23.1890  -22.3500   14.9690 C   0  0  0  0  0  2  0  0  0  0  0  0
  -21.9330  -22.9570   14.4860 N   0  0  0  0  0  4  0  0  0  0  0  0
  -21.7750  -23.8210   14.9860 H   0  0  0  0  0  0  0  0  0  0  0  0
  -21.1600  -22.3430   14.6870 H   0  0  0  0  0  0  0  0  0  0  0  0
  -21.9300  -23.2920   13.0450 C   0  0  0  0  0  2  0  0  0  0  0  0
  -20.5790  -23.8850   12.6370 C   0  0  0  0  0  2  0  0  0  0  0  0
  -20.5980  -25.2440   13.0520 O   0  0  0  0  0  0  0  0  0  0  0  0
  -19.4390  -25.9620   12.6510 C   0  0  0  0  0  2  0  0  0  0  0  0
  -19.7730  -27.4580   12.6530 C   0  0  0  0  0  2  0  0  0  0  0  0
  -20.6820  -27.7220   11.5930 O   0  0  0  0  0  0  0  0  0  0  0  0
  -21.0940  -29.0800   11.5450 C   0  0  0  0  0  2  0  0  0  0  0  0
  -21.9060  -29.3240   10.2630 C   0  0  0  0  0  2  0  0  0  0  0  0
  -23.3540  -27.3390    9.8480 C   0  0  0  0  0  0  0  0  0  0  0  0
  -24.9740  -25.4970    9.5890 C   0  0  0  0  0  2  0  0  0  0  0  0
  -25.0660  -24.6520   10.8720 C   0  0  0  0  0  2  0  0  0  0  0  0
  -26.0860  -25.2600   11.8550 C   0  0  0  0  0  2  0  0  0  0  0  0
  -25.8610  -26.7780   12.0830 C   0  0  0  0  0  3  0  0  0  0  0  0
  -25.7120  -27.5130   10.7330 C   0  0  0  0  0  2  0  0  0  0  0  0
  -24.6230  -26.8720    9.9710 N   0  0  0  0  0  0  0  0  0  0  0  0
  -22.4340  -26.6830    9.3520 O   0  0  0  0  0  0  0  0  0  0  0  0
  -23.1700  -28.5920   10.2770 N   0  0  0  0  0  0  0  0  0  0  0  0
  -23.9760  -29.0650   10.6580 H   0  0  0  0  0  0  0  0  0  0  0  0
  -26.8600  -27.9450   14.1510 C   0  0  0  0  0  0  0  0  0  0  0  0
  -28.1500  -28.2590   14.4890 C   0  0  0  0  0  0  0  0  0  0  0  0
  -28.9610  -27.8250   13.3970 C   0  0  0  0  0  0  0  0  0  0  0  0
  -26.9280  -27.3580   12.8960 N   0  0  0  0  0  0  0  0  0  0  0  0
  -28.2010  -27.3370   12.4240 N   0  0  0  0  0  0  0  0  0  0  0  0
  -30.4210  -27.7970   13.2430 C   0  0  0  0  0  0  0  0  0  0  0  0
  -31.0610  -28.4090   12.1420 C   0  0  0  0  0  3  0  0  0  0  0  0
  -32.4670  -28.3820   12.0280 C   0  0  0  0  0  3  0  0  0  0  0  0
  -33.2490  -27.7430   13.0200 C   0  0  0  0  0  0  0  0  0  0  0  0
  -32.6060  -27.1160   14.1010 C   0  0  0  0  0  3  0  0  0  0  0  0
  -31.2040  -27.1380   14.2110 C   0  0  0  0  0  3  0  0  0  0  0  0
  -34.6190  -27.6460   12.9780 O   0  0  0  0  0  0  0  0  0  0  0  0
  -35.3900  -28.5940   12.3530 C   0  0  0  0  0  0  0  0  0  0  0  0
  -35.3600  -29.9510   12.7400 C   0  0  0  0  0  3  0  0  0  0  0  0
  -36.2200  -30.8790   12.1170 C   0  0  0  0  0  3  0  0  0  0  0  0
  -37.1130  -30.4510   11.1160 C   0  0  0  0  0  0  0  0  0  0  0  0
  -37.1470  -29.0970   10.7340 C   0  0  0  0  0  3  0  0  0  0  0  0
  -36.2890  -28.1710   11.3530 C   0  0  0  0  0  0  0  0  0  0  0  0
  -36.3400  -26.8660   10.9960 F   0  0  0  0  0  0  0  0  0  0  0  0
  -37.9440  -31.3380   10.5240 F   0  0  0  0  0  0  0  0  0  0  0  0
  -28.6200  -28.8450   15.7890 C   0  0  0  0  0  0  0  0  0  0  0  0
  -29.6800  -29.6460   15.7530 N   0  0  0  0  0  0  0  0  0  0  0  0
  -28.0230  -28.6330   16.8420 O   0  0  0  0  0  0  0  0  0  0  0  0
  -30.1610  -29.8370   14.8870 H   0  0  0  0  0  0  0  0  0  0  0  0
  -30.0130  -30.0740   16.6050 H   0  0  0  0  0  0  0  0  0  0  0  0
  -25.6420  -28.0910   14.8080 N   0  0  0  0  0  0  0  0  0  0  0  0
  -25.5850  -28.4590   15.7520 H   0  0  0  0  0  0  0  0  0  0  0  0
  -24.7420  -27.8380   14.4240 H   0  0  0  0  0  0  0  0  0  0  0  0
  1  2  1  0
  1  3  2  0
  2  5  1  0
  4  2  1  0
  5  6  1  0
  7  6  1  0
  8  7  1  0
  9  8  1  0
 10  9  1  0
 10 12  2  0
 11 10  1  0
 13 11  1  0
 14 11  1  0
 15 14  1  0
 15 17  2  0
 16 15  1  0
 18 16  1  0
 19 16  1  0
 19 20  1  0
 20 21  1  0
 21 23  1  0
 22 33  2  0
 23 28  1  0
 24 32  1  0
 24 34  1  0
 25 27  1  0
 25 31  1  0
 26 32  1  0
 27 26  1  0
 28 27  2  0
 29 23  2  0
 29 30  1  0
 30 25  2  0
 31 24  1  0
 32 22  1  0
 34 36  2  0
 35 34  1  0
 37 35  1  0
 38 43  1  0
 39 35  1  0
 40 39  1  0
 41 42  1  0
 41 40  1  0
 42 38  1  0
 43 44  2  0
 43 39  1  0
 45 44  1  0
 46 45  2  0
 47 46  1  0
 47 38  2  0
 48 22  1  0
 48 49  1  0
 48 58  1  0
 49 52  1  0
 50 49  1  0
 50 54  1  0
 51 50  2  0
 54 53  1  0
 54 56  1  0
 56 57  1  0
 56 55  1  0
 58 61  1  1
 58 59  1  0
 60 58  1  0
 62  1  1  0
 63 62  1  0
 64 63  1  0
 65 64  1  0
 66 65  1  0
 67 66  1  0
 68 70  1  0
 68 67  1  0
 68 69  1  0
 71 68  1  0
 72 71  1  0
 72 73  1  0
 74 75  1  0
 74 73  1  0
 76 75  1  0
 77 76  1  0
 78 87  1  0
 78 77  1  0
 79 85  1  0
 79 87  1  0
 80 85  1  0
 80 81  1  0
 81 82  1  0
 82 83  1  0
 83 84  1  0
 83 92  1  0
 85 84  1  0
 86 79  2  0
 87 88  1  0
 89 90  2  0
 89114  1  0
 90109  1  0
 91 90  1  0
 92 89  1  0
 93 92  1  0
 93 91  2  0
 94 91  1  0
 94 99  1  0
 95 94  2  0
 96 95  1  0
 96 97  2  0
 97 98  1  0
 98 99  2  0
100 97  1  0
101102  1  0
101100  1  0
103102  2  0
104103  1  0
105104  2  0
105106  1  0
106101  2  0
107106  1  0
108104  1  0
109111  2  0
110109  1  0
110113  1  0
112110  1  0
114115  1  0
116114  1  0
M  ISO  4  20 101  21 101  79 100  87 100
M  END
>  <TORSDO>  (1) 
F 41

>  <SCORE>  (1) 
20.431

>  <name>  (1) 
0

>  <ligand_id>  (1) 
0

>  <original_smiles>  (1) 
[H]c1c([H])c([H])c2c(c1[H])C([H])([H])C([H])([H])C([H])([H])C2([H])N([H])C(=O)C1([H])N(C(=O)C([H])(N([H])C(=O)C([H])(N([H])C([H])([H])[H])C([H])([H])[H])C(C([H])([H])[H])(C([H])([H])[H])C([H])([H])[H])C([H])([H])c2c([H])c(OC([H])([H])C([H])([H])N([H])C(=O)C([H])([H])N([H])C(=O)C([H])([H])C([H])([H])C([H])([H])C([H])([H])C([H])([H])N([H])C(=O)C([H])([H])OC([H])([H])C([H])([H])C([H])([H])C([H])([H])[N+]([H])([H])C([H])([H])C([H])([H])OC([H])([H])C([H])([H])OC([H])([H])C([H])([H])N([H])C(=O)N3C([H])([H])C([H])([H])C([H])([H])C([H])(n4nc(-c5c([H])c([H])c(Oc6c([H])c([H])c(F)c([H])c6F)c([H])c5[H])c(C(=O)N([H])[H])c4N([H])[H])C3([H])[H])c([H])c([H])c2C1([H])[H]

>  <smiles>  (1) 
[H]c1c([H])c([H])c2c(c1[H])C([H])([H])C([H])([H])C([H])([H])C2([H])N([H])C(=O)C1([H])N(C(=O)C([H])(N([H])C(=O)C([H])(N([H])C([H])([H])[H])C([H])([H])[H])C(C([H])([H])[H])(C([H])([H])[H])C([H])([H])[H])C([H])([H])c2c([H])c(OC([H])([H])C([H])([H])N([H])C(=O)C([H])([H])N([H])C(=O)C([H])([H])C([H])([H])C([H])([H])C([H])([H])C([H])([H])N([H])C(=O)C([H])([H])OC([H])([H])C([H])([H])C([H])([H])C([H])([H])[N+]([H])([H])C([H])([H])C([H])([H])OC([H])([H])C([H])([H])OC([H])([H])C([H])([H])N([H])C(=O)N3C([H])([H])C([H])([H])C([H])([H])C([H])(n4nc(-c5c([H])c([H])c(Oc6c([H])c([H])c(F)c([H])c6F)c([H])c5[H])c(C(=O)N([H])[H])c4N([H])[H])C3([H])[H])c([H])c([H])c2C1([H])[H]

$$$$
1:0:0
     RDKit          3D

109117  0  0  1  0  0  0  0  0999 V2000
  -34.6060  -27.6200   18.8340 C   0  0  0  0  0  2  0  0  0  0  0  0
  -34.2650  -27.7040   17.4570 O   0  0  0  0  0  0  0  0  0  0  0  0
  -33.1000  -28.4670   17.1600 C   0  0  0  0  0  2  0  0  0  0  0  0
  -32.5720  -27.9370   15.8200 C   0  0  0  0  0  2  0  0  0  0  0  0
  -29.5230  -27.3420   14.2460 C   0  0  0  0  0  2  0  0  0  0  0  0
  -29.4320  -26.3820   15.4540 C   0  0  0  0  0  2  0  0  0  0  0  0
  -29.5130  -28.3540   16.8760 C   0  0  0  0  0  2  0  0  0  0  0  0
  -30.8810  -28.0390   14.0050 C   0  0  0  0  0  2  0  0  0  0  0  0
  -30.4310  -29.3350   16.0970 C   0  0  0  0  0  2  0  0  0  0  0  0
  -29.8950  -26.9420   16.7370 N   0  0  0  0  0  0  0  0  0  0  0  0
  -31.4570  -28.7200   15.1950 N   0  0  1  0  0  4  0  0  0  0  0  0
  -31.9290  -29.5230   14.7980 H   0  0  0  0  0  0  0  0  0  0  0  0
  -29.4070  -26.0940   17.8290 C   0  0  0  0  0  2  0  0  0  0  0  0
  -29.9180  -26.5000   19.2430 C   0  0  0  0  0  2  0  0  0  0  0  0
  -28.9410  -26.4100   20.2780 O   0  0  0  0  0  0  0  0  0  0  0  0
  -24.7100  -31.5500   22.8670 C   0  0  0  0  0  0  0  0  0  0  0  0
  -27.7910  -27.1550   20.1610 C   0  0  0  0  0  0  0  0  0  0  0  0
  -23.7040  -30.0440   21.1730 C   0  0  0  0  0  3  0  0  0  0  0  0
  -25.3450  -28.5390   19.9180 C   0  0  0  0  0  0  0  0  0  0  0  0
  -26.2200  -30.5140   21.1840 C   0  0  0  0  0  2  0  0  0  0  0  0
  -26.4230  -29.1350   20.5890 C   0  0  0  0  0  0  0  0  0  0  0  0
  -27.6530  -28.4460   20.7150 C   0  0  0  0  0  3  0  0  0  0  0  0
  -26.6980  -26.5670   19.4970 C   0  0  0  0  0  3  0  0  0  0  0  0
  -25.4790  -27.2530   19.3670 C   0  0  0  0  0  3  0  0  0  0  0  0
  -24.0530  -29.3190   19.8430 C   0  0  0  0  0  2  0  0  0  0  0  0
  -24.8880  -30.7210   21.7980 N   0  0  0  0  0  0  0  0  0  0  0  0
  -23.5780  -31.7930   23.3050 O   0  0  0  0  0  0  0  0  0  0  0  0
  -23.0180  -29.0280   22.1150 C   0  0  0  0  0  0  0  0  0  0  0  0
  -21.6840  -28.9260   22.0070 N   0  0  0  0  0  0  0  0  0  0  0  0
  -23.6800  -28.3310   22.8880 O   0  0  0  0  0  0  0  0  0  0  0  0
  -21.2110  -29.5330   21.3520 H   0  0  0  0  0  0  0  0  0  0  0  0
  -18.2490  -28.0300   22.6690 C   0  0  0  0  0  0  0  0  0  0  0  0
  -20.8310  -28.0020   22.7530 C   0  0  0  0  0  3  0  0  0  0  0  0
  -20.7360  -26.6340   22.0390 C   0  0  0  0  0  2  0  0  0  0  0  0
  -19.5380  -26.5230   21.0930 C   0  0  0  0  0  2  0  0  0  0  0  0
  -18.2300  -26.7420   21.8610 C   0  0  0  0  0  2  0  0  0  0  0  0
  -19.4710  -28.6320   23.0710 C   0  0  0  0  0  0  0  0  0  0  0  0
  -19.4330  -29.8480   23.7870 C   0  0  0  0  0  3  0  0  0  0  0  0
  -18.2060  -30.4590   24.1040 C   0  0  0  0  0  3  0  0  0  0  0  0
  -16.9980  -29.8480   23.7210 C   0  0  0  0  0  3  0  0  0  0  0  0
  -17.0220  -28.6340   23.0110 C   0  0  0  0  0  3  0  0  0  0  0  0
  -25.9150  -32.2500   23.5700 C   0  0  0  0  0  3  0  0  0  0  0  0
  -26.4280  -31.4750   24.8480 C   0  0  1  0  0  0  0  0  0  0  0  0
  -25.3070  -31.1230   25.8490 C   0  0  0  0  0  1  0  0  0  0  0  0
  -27.1230  -30.1520   24.4490 C   0  0  0  0  0  1  0  0  0  0  0  0
  -27.4840  -32.3260   25.5930 C   0  0  0  0  0  1  0  0  0  0  0  0
  -25.4870  -33.6100   23.9250 N   0  0  0  0  0  0  0  0  0  0  0  0
  -25.8690  -34.7170   23.2760 C   0  0  0  0  0  0  0  0  0  0  0  0
  -26.6830  -34.7040   22.3490 O   0  0  0  0  0  0  0  0  0  0  0  0
  -24.7780  -33.6880   24.6380 H   0  0  0  0  0  0  0  0  0  0  0  0
  -24.1720  -36.4850   22.7130 C   0  0  0  0  0  1  0  0  0  0  0  0
  -25.2440  -36.0520   23.7260 C   0  0  0  0  0  3  0  0  0  0  0  0
  -27.1280  -36.9270   25.0330 C   0  0  0  0  0  1  0  0  0  0  0  0
  -26.2360  -37.1350   23.8960 N   0  0  0  0  0  0  0  0  0  0  0  0
  -25.7750  -38.0330   24.0100 H   0  0  0  0  0  0  0  0  0  0  0  0
  -33.7320  -26.5970   19.5880 C   0  0  0  0  0  2  0  0  0  0  0  0
  -34.0550  -25.2440   19.2750 O   0  0  0  0  0  0  0  0  0  0  0  0
  -33.8510  -24.8780   17.9140 C   0  0  0  0  0  2  0  0  0  0  0  0
  -33.8950  -23.3420   17.7770 C   0  0  0  0  0  2  0  0  0  0  0  0
  -32.6480  -22.7060   18.0560 O   0  0  0  0  0  0  0  0  0  0  0  0
  -31.6740  -22.8760   17.0300 C   0  0  0  0  0  2  0  0  0  0  0  0
  -30.3880  -22.0940   17.3350 C   0  0  0  0  0  2  0  0  0  0  0  0
  -29.8790  -22.3800   18.6380 O   0  0  0  0  0  0  0  0  0  0  0  0
  -28.4670  -22.5900   18.7010 C   0  0  0  0  0  2  0  0  0  0  0  0
  -27.5980  -21.4100   18.2060 C   0  0  0  0  0  2  0  0  0  0  0  0
  -27.6540  -20.2280   19.0080 O   0  0  0  0  0  0  0  0  0  0  0  0
  -28.7260  -19.3440   18.6950 C   0  0  0  0  0  2  0  0  0  0  0  0
  -28.4370  -17.9150   19.2150 C   0  0  0  0  0  2  0  0  0  0  0  0
  -28.4470  -17.7620   20.6360 O   0  0  0  0  0  0  0  0  0  0  0  0
  -29.6910  -17.9610   21.3050 C   0  0  0  0  0  2  0  0  0  0  0  0
  -30.7950  -16.9720   20.8780 C   0  0  0  0  0  2  0  0  0  0  0  0
  -30.9710  -14.5780   20.2710 C   0  0  0  0  0  0  0  0  0  0  0  0
  -30.6110  -12.4420   19.1090 C   0  0  0  0  0  2  0  0  0  0  0  0
  -29.6710  -12.6890   17.9110 C   0  0  0  0  0  2  0  0  0  0  0  0
  -28.1980  -12.5790   18.3520 C   0  0  0  0  0  2  0  0  0  0  0  0
  -27.8890  -13.4140   19.6280 C   0  0  0  0  0  3  0  0  0  0  0  0
  -28.9430  -13.1500   20.7260 C   0  0  0  0  0  2  0  0  0  0  0  0
  -30.2710  -13.4210   20.1480 N   0  0  0  0  0  0  0  0  0  0  0  0
  -32.0810  -14.7550   19.7630 O   0  0  0  0  0  0  0  0  0  0  0  0
  -30.3150  -15.5870   20.8560 N   0  0  0  0  0  0  0  0  0  0  0  0
  -29.3930  -15.4050   21.2250 H   0  0  0  0  0  0  0  0  0  0  0  0
  -25.5190  -14.0990   20.3560 C   0  0  0  0  0  0  0  0  0  0  0  0
  -24.4300  -13.3660   20.7390 C   0  0  0  0  0  0  0  0  0  0  0  0
  -24.8480  -11.9990   20.7110 C   0  0  0  0  0  0  0  0  0  0  0  0
  -26.5320  -13.1830   20.1140 N   0  0  0  0  0  0  0  0  0  0  0  0
  -26.1310  -11.9150   20.3810 N   0  0  0  0  0  0  0  0  0  0  0  0
  -24.0890  -10.7620   20.9200 C   0  0  0  0  0  0  0  0  0  0  0  0
  -24.5210   -9.7790   21.8370 C   0  0  0  0  0  3  0  0  0  0  0  0
  -23.7660   -8.6010   22.0290 C   0  0  0  0  0  3  0  0  0  0  0  0
  -22.5680   -8.3990   21.3020 C   0  0  0  0  0  0  0  0  0  0  0  0
  -22.1560   -9.3720   20.3740 C   0  0  0  0  0  3  0  0  0  0  0  0
  -22.9100  -10.5410   20.1810 C   0  0  0  0  0  3  0  0  0  0  0  0
  -21.7890   -7.2730   21.4010 O   0  0  0  0  0  0  0  0  0  0  0  0
  -21.7620   -6.5130   22.5440 C   0  0  0  0  0  0  0  0  0  0  0  0
  -21.3490   -7.0470   23.7830 C   0  0  0  0  0  3  0  0  0  0  0  0
  -21.2660   -6.2130   24.9160 C   0  0  0  0  0  3  0  0  0  0  0  0
  -21.5920   -4.8470   24.8120 C   0  0  0  0  0  0  0  0  0  0  0  0
  -21.9980   -4.3140   23.5770 C   0  0  0  0  0  3  0  0  0  0  0  0
  -22.0800   -5.1440   22.4450 C   0  0  0  0  0  0  0  0  0  0  0  0
  -22.4520   -4.6190   21.2530 F   0  0  0  0  0  0  0  0  0  0  0  0
  -21.5070   -4.0450   25.9000 F   0  0  0  0  0  0  0  0  0  0  0  0
  -23.0510  -13.8890   21.0250 C   0  0  0  0  0  0  0  0  0  0  0  0
  -22.3180  -13.2450   21.9240 N   0  0  0  0  0  0  0  0  0  0  0  0
  -22.6320  -14.9130   20.4850 O   0  0  0  0  0  0  0  0  0  0  0  0
  -22.6660  -12.4250   22.3960 H   0  0  0  0  0  0  0  0  0  0  0  0
  -21.3910  -13.5840   22.1410 H   0  0  0  0  0  0  0  0  0  0  0  0
  -25.7340  -15.4640   20.1810 N   0  0  0  0  0  0  0  0  0  0  0  0
  -25.0040  -16.1540   20.3170 H   0  0  0  0  0  0  0  0  0  0  0  0
  -26.6320  -15.8800   19.9640 H   0  0  0  0  0  0  0  0  0  0  0  0
  1 56  1  0
  2  1  1  0
  3  2  1  0
  4  3  1  0
  5  6  1  0
  6 10  1  0
  8  5  1  0
  8 11  1  0
  9  7  1  0
 10  7  1  0
 10 13  1  0
 11  4  1  0
 11  9  1  0
 11 12  1  6
 13 14  1  0
 14 15  1  0
 16 27  2  0
 17 15  1  0
 17 22  1  0
 18 26  1  0
 18 28  1  0
 19 21  1  0
 20 26  1  0
 21 22  2  0
 21 20  1  0
 23 17  2  0
 24 23  1  0
 24 19  2  0
 25 19  1  0
 25 18  1  0
 26 16  1  0
 28 30  2  0
 29 28  1  0
 31 29  1  0
 32 41  2  0
 32 37  1  0
 33 29  1  0
 33 37  1  0
 34 33  1  0
 35 36  1  0
 35 34  1  0
 36 32  1  0
 37 38  2  0
 38 39  1  0
 40 39  2  0
 41 40  1  0
 42 16  1  0
 42 47  1  0
 42 43  1  0
 43 46  1  1
 43 44  1  0
 45 43  1  0
 47 50  1  0
 48 52  1  0
 48 47  1  0
 49 48  2  0
 52 51  1  0
 52 54  1  0
 54 55  1  0
 54 53  1  0
 57 56  1  0
 58 57  1  0
 59 58  1  0
 59 60  1  0
 61 62  1  0
 61 60  1  0
 62 63  1  0
 63 64  1  0
 65 64  1  0
 65 66  1  0
 67 66  1  0
 67 68  1  0
 68 69  1  0
 69 70  1  0
 71 70  1  0
 72 80  1  0
 73 78  1  0
 74 75  1  0
 74 73  1  0
 76 75  1  0
 76 85  1  0
 76 77  1  0
 78 72  1  0
 78 77  1  0
 79 72  2  0
 80 71  1  0
 80 81  1  0
 82 83  2  0
 83102  1  0
 84 83  1  0
 84 87  1  0
 85 82  1  0
 85 86  1  0
 86 84  2  0
 87 88  1  0
 88 89  2  0
 90 93  1  0
 90 89  1  0
 91 90  2  0
 92 91  1  0
 92 87  2  0
 93 94  1  0
 94 95  1  0
 95 96  2  0
 97 96  1  0
 97101  1  0
 98 97  2  0
 99 94  2  0
 99 98  1  0
100 99  1  0
102103  1  0
103106  1  0
103105  1  0
104102  2  0
107108  1  0
107 82  1  0
109107  1  0
M  ISO  4  14 101  15 101  72 100  80 100
M  END
>  <TORSDO>  (2) 
F 38

>  <SCORE>  (2) 
-8.940

>  <name>  (2) 
1

>  <ligand_id>  (2) 
1

>  <original_smiles>  (2) 
[H]c1c([H])c([H])c2c(c1[H])C([H])([H])C([H])([H])C([H])([H])C2([H])N([H])C(=O)C1([H])N(C(=O)C([H])(N([H])C(=O)C([H])(N([H])C([H])([H])[H])C([H])([H])[H])C(C([H])([H])[H])(C([H])([H])[H])C([H])([H])[H])C([H])([H])c2c([H])c(OC([H])([H])C([H])([H])N3C([H])([H])C([H])([H])C([H])([H])[N+]([H])(C([H])([H])C([H])([H])OC([H])([H])C([H])([H])OC([H])([H])C([H])([H])OC([H])([H])C([H])([H])OC([H])([H])C([H])([H])OC([H])([H])C([H])([H])OC([H])([H])C([H])([H])N([H])C(=O)N4C([H])([H])C([H])([H])C([H])([H])C([H])(n5nc(-c6c([H])c([H])c(Oc7c([H])c([H])c(F)c([H])c7F)c([H])c6[H])c(C(=O)N([H])[H])c5N([H])[H])C4([H])[H])C([H])([H])C3([H])[H])c([H])c([H])c2C1([H])[H]

>  <smiles>  (2) 
[H]c1c([H])c([H])c2c(c1[H])C([H])([H])C([H])([H])C([H])([H])C2([H])N([H])C(=O)C1([H])N(C(=O)C([H])(N([H])C(=O)C([H])(N([H])C([H])([H])[H])C([H])([H])[H])C(C([H])([H])[H])(C([H])([H])[H])C([H])([H])[H])C([H])([H])c2c([H])c(OC([H])([H])C([H])([H])N3C([H])([H])C([H])([H])C([H])([H])[N+]([H])(C([H])([H])C([H])([H])OC([H])([H])C([H])([H])OC([H])([H])C([H])([H])OC([H])([H])C([H])([H])OC([H])([H])C([H])([H])OC([H])([H])C([H])([H])OC([H])([H])C([H])([H])N([H])C(=O)N4C([H])([H])C([H])([H])C([H])([H])C([H])(n5nc(-c6c([H])c([H])c(Oc7c([H])c([H])c(F)c([H])c7F)c([H])c6[H])c(C(=O)N([H])[H])c5N([H])[H])C4([H])[H])C([H])([H])C3([H])[H])c([H])c([H])c2C1([H])[H]

$$$$
2:0:0
     RDKit          3D

108115  0  0  1  0  0  0  0  0999 V2000
  -28.3980  -22.3610   22.0510 C   0  0  0  0  0  2  0  0  0  0  0  0
  -29.0650  -23.5570   21.3520 C   0  0  0  0  0  2  0  0  0  0  0  0
  -27.2810  -25.2450   21.9190 C   0  0  0  0  0  0  0  0  0  0  0  0
  -28.6180  -24.8140   21.9660 N   0  0  0  0  0  0  0  0  0  0  0  0
  -26.8090  -26.1980   22.5410 O   0  0  0  0  0  0  0  0  0  0  0  0
  -26.5610  -24.4730   21.0700 O   0  0  0  0  0  0  0  0  0  0  0  0
  -25.6260  -25.1440   18.9660 C   0  0  0  0  0  1  0  0  0  0  0  0
  -25.3610  -24.9450   20.4670 C   0  0  0  0  0  3  0  0  0  0  0  0
  -23.8600  -23.7690   22.1900 C   0  0  0  0  0  1  0  0  0  0  0  0
  -24.2380  -23.9210   20.7100 C   0  0  0  0  0  2  0  0  0  0  0  0
  -29.6150  -25.4910   22.8100 C   0  0  0  0  0  2  0  0  0  0  0  0
  -30.8540  -25.9890   22.0330 C   0  0  0  0  0  2  0  0  0  0  0  0
  -30.5660  -26.7220   20.7200 C   0  0  0  0  0  2  0  0  0  0  0  0
  -30.1870  -28.0550   21.0500 O   0  0  0  0  0  0  0  0  0  0  0  0
  -24.8010  -31.9850   23.5000 C   0  0  0  0  0  0  0  0  0  0  0  0
  -28.8950  -28.4750   20.8340 C   0  0  0  0  0  0  0  0  0  0  0  0
  -24.2990  -30.5910   21.5210 C   0  0  0  0  0  3  0  0  0  0  0  0
  -26.3050  -29.5070   20.3870 C   0  0  0  0  0  0  0  0  0  0  0  0
  -26.6810  -31.4090   21.9650 C   0  0  0  0  0  2  0  0  0  0  0  0
  -27.1720  -30.1550   21.2750 C   0  0  0  0  0  0  0  0  0  0  0  0
  -28.4670  -29.6420   21.4980 C   0  0  0  0  0  3  0  0  0  0  0  0
  -28.0110  -27.8390   19.9310 C   0  0  0  0  0  3  0  0  0  0  0  0
  -26.7180  -28.3450   19.7160 C   0  0  0  0  0  3  0  0  0  0  0  0
  -24.9390  -30.1210   20.1900 C   0  0  0  0  0  2  0  0  0  0  0  0
  -25.2630  -31.3380   22.3920 N   0  0  0  0  0  0  0  0  0  0  0  0
  -23.5920  -32.0020   23.7730 O   0  0  0  0  0  0  0  0  0  0  0  0
  -23.6630  -29.3670   22.2180 C   0  0  0  0  0  0  0  0  0  0  0  0
  -22.3770  -29.1150   21.9230 N   0  0  0  0  0  0  0  0  0  0  0  0
  -24.3250  -28.6570   22.9780 O   0  0  0  0  0  0  0  0  0  0  0  0
  -21.9030  -29.7490   21.2950 H   0  0  0  0  0  0  0  0  0  0  0  0
  -19.0140  -27.8300   22.1980 C   0  0  0  0  0  0  0  0  0  0  0  0
  -21.5830  -27.9980   22.4290 C   0  0  0  0  0  3  0  0  0  0  0  0
  -21.6480  -26.7870   21.4700 C   0  0  0  0  0  2  0  0  0  0  0  0
  -20.5050  -26.7640   20.4510 C   0  0  0  0  0  2  0  0  0  0  0  0
  -19.1490  -26.7240   21.1640 C   0  0  0  0  0  2  0  0  0  0  0  0
  -20.1560  -28.4380   22.7800 C   0  0  0  0  0  0  0  0  0  0  0  0
  -19.9780  -29.4850   23.7120 C   0  0  0  0  0  3  0  0  0  0  0  0
  -18.6880  -29.9240   24.0610 C   0  0  0  0  0  3  0  0  0  0  0  0
  -17.5590  -29.3070   23.4950 C   0  0  0  0  0  3  0  0  0  0  0  0
  -17.7230  -28.2590   22.5710 C   0  0  0  0  0  3  0  0  0  0  0  0
  -25.7580  -32.7560   24.4600 C   0  0  0  0  0  3  0  0  0  0  0  0
  -25.2230  -34.1150   24.6180 N   0  0  0  0  0  0  0  0  0  0  0  0
  -25.6260  -35.1780   23.9070 C   0  0  0  0  0  0  0  0  0  0  0  0
  -26.5480  -35.1260   23.0890 O   0  0  0  0  0  0  0  0  0  0  0  0
  -24.4260  -34.2190   25.2270 H   0  0  0  0  0  0  0  0  0  0  0  0
  -23.8310  -36.7150   23.0440 C   0  0  0  0  0  1  0  0  0  0  0  0
  -24.8870  -36.5100   24.1410 C   0  0  0  0  0  3  0  0  0  0  0  0
  -26.6730  -37.6810   25.3530 C   0  0  0  0  0  1  0  0  0  0  0  0
  -25.7900  -37.6810   24.1900 N   0  0  0  0  0  0  0  0  0  0  0  0
  -25.2570  -38.5470   24.1980 H   0  0  0  0  0  0  0  0  0  0  0  0
  -25.9290  -32.0550   25.8630 C   0  0  1  0  0  0  0  0  0  0  0  0
  -24.5910  -31.6600   26.5290 C   0  0  0  0  0  1  0  0  0  0  0  0
  -26.7820  -30.7720   25.7250 C   0  0  0  0  0  1  0  0  0  0  0  0
  -26.6890  -32.9930   26.8290 C   0  0  0  0  0  1  0  0  0  0  0  0
  -29.3770  -21.2170   22.3410 C   0  0  0  0  0  2  0  0  0  0  0  0
  -31.4500  -21.6860   21.0590 C   0  0  0  0  0  0  0  0  0  0  0  0
  -30.7650  -21.6490   22.2070 N   0  0  0  0  0  0  0  0  0  0  0  0
  -30.9340  -21.4160   19.9700 O   0  0  0  0  0  0  0  0  0  0  0  0
  -31.2640  -21.8860   23.0530 H   0  0  0  0  0  0  0  0  0  0  0  0
  -32.9430  -22.0110   21.1580 C   0  0  0  0  0  2  0  0  0  0  0  0
  -33.6070  -21.3620   20.0820 O   0  0  0  0  0  0  0  0  0  0  0  0
  -35.0220  -21.4210   20.1620 C   0  0  0  0  0  2  0  0  0  0  0  0
  -35.5910  -21.3850   18.7370 C   0  0  0  0  0  2  0  0  0  0  0  0
  -35.3260  -20.0660   17.9980 C   0  0  0  0  0  2  0  0  0  0  0  0
  -36.4750  -19.2410   18.0970 O   0  0  0  0  0  0  0  0  0  0  0  0
  -36.2790  -18.0510   18.8540 C   0  0  0  0  0  2  0  0  0  0  0  0
  -37.5770  -17.2330   18.7940 C   0  0  0  0  0  2  0  0  0  0  0  0
  -38.6990  -18.0910   19.0060 O   0  0  0  0  0  0  0  0  0  0  0  0
  -38.7370  -18.7080   20.2880 C   0  0  0  0  0  2  0  0  0  0  0  0
  -38.8180  -17.6490   21.4100 C   0  0  0  0  0  2  0  0  0  0  0  0
  -39.6390  -15.3400   21.7350 C   0  0  0  0  0  0  0  0  0  0  0  0
  -38.9100  -13.0510   22.2870 C   0  0  0  0  0  2  0  0  0  0  0  0
  -38.8170  -12.1970   21.0070 C   0  0  0  0  0  2  0  0  0  0  0  0
  -37.4520  -12.3890   20.3120 C   0  0  0  0  0  2  0  0  0  0  0  0
  -37.0710  -13.8860   20.1440 C   0  0  0  0  0  3  0  0  0  0  0  0
  -37.2410  -14.6230   21.4870 C   0  0  0  0  0  2  0  0  0  0  0  0
  -38.6340  -14.4480   21.9250 N   0  0  0  0  0  0  0  0  0  0  0  0
  -40.8090  -15.1230   22.0610 O   0  0  0  0  0  0  0  0  0  0  0  0
  -39.3610  -16.3760   20.9300 N   0  0  0  0  0  0  0  0  0  0  0  0
  -40.1390  -16.5420   20.3070 H   0  0  0  0  0  0  0  0  0  0  0  0
  -35.2170  -15.0150   18.7500 C   0  0  0  0  0  0  0  0  0  0  0  0
  -33.9160  -14.6570   18.5050 C   0  0  0  0  0  0  0  0  0  0  0  0
  -33.6960  -13.4510   19.2360 C   0  0  0  0  0  0  0  0  0  0  0  0
  -35.7220  -14.0440   19.6070 N   0  0  0  0  0  0  0  0  0  0  0  0
  -34.7760  -13.1280   19.9350 N   0  0  0  0  0  0  0  0  0  0  0  0
  -32.5390  -12.5460   19.2680 C   0  0  0  0  0  0  0  0  0  0  0  0
  -32.0200  -12.0590   20.4870 C   0  0  0  0  0  3  0  0  0  0  0  0
  -30.8890  -11.2130   20.4920 C   0  0  0  0  0  3  0  0  0  0  0  0
  -30.2750  -10.8430   19.2720 C   0  0  0  0  0  0  0  0  0  0  0  0
  -30.8120  -11.3150   18.0630 C   0  0  0  0  0  3  0  0  0  0  0  0
  -31.9390  -12.1510   18.0580 C   0  0  0  0  0  3  0  0  0  0  0  0
  -29.1920  -10.0040   19.1740 O   0  0  0  0  0  0  0  0  0  0  0  0
  -28.3530   -9.7920   20.2370 C   0  0  0  0  0  0  0  0  0  0  0  0
  -27.6510  -10.8510   20.8510 C   0  0  0  0  0  3  0  0  0  0  0  0
  -26.7430  -10.5850   21.8940 C   0  0  0  0  0  3  0  0  0  0  0  0
  -26.5340   -9.2590   22.3220 C   0  0  0  0  0  0  0  0  0  0  0  0
  -27.2270   -8.2010   21.7090 C   0  0  0  0  0  3  0  0  0  0  0  0
  -28.1300   -8.4680   20.6640 C   0  0  0  0  0  0  0  0  0  0  0  0
  -28.7770   -7.4440   20.0600 F   0  0  0  0  0  0  0  0  0  0  0  0
  -25.6590   -8.9990   23.3230 F   0  0  0  0  0  0  0  0  0  0  0  0
  -32.9630  -15.3400   17.5630 C   0  0  0  0  0  0  0  0  0  0  0  0
  -31.6700  -15.3170   17.8720 N   0  0  0  0  0  0  0  0  0  0  0  0
  -33.3670  -15.9430   16.5700 O   0  0  0  0  0  0  0  0  0  0  0  0
  -31.3330  -14.8570   18.7040 H   0  0  0  0  0  0  0  0  0  0  0  0
  -31.0080  -15.7640   17.2550 H   0  0  0  0  0  0  0  0  0  0  0  0
  -36.0160  -16.0630   18.3000 N   0  0  0  0  0  0  0  0  0  0  0  0
  -35.7060  -16.7380   17.6130 H   0  0  0  0  0  0  0  0  0  0  0  0
  -36.9800  -16.1880   18.5910 H   0  0  0  0  0  0  0  0  0  0  0  0
  1 55  1  0
  2  4  1  0
  2  1  1  0
  3  4  1  0
  3  5  2  0
  4 11  1  0
  6  3  1  0
  8  7  1  0
  8 10  1  0
  8  6  1  0
 10  9  1  0
 12 11  1  0
 13 14  1  0
 13 12  1  0
 15 26  2  0
 16 14  1  0
 16 21  1  0
 17 27  1  0
 17 25  1  0
 18 20  1  0
 19 25  1  0
 20 21  2  0
 20 19  1  0
 22 16  2  0
 23 22  1  0
 23 18  2  0
 24 18  1  0
 24 17  1  0
 25 15  1  0
 27 29  2  0
 28 27  1  0
 30 28  1  0
 31 40  2  0
 31 36  1  0
 32 28  1  0
 32 36  1  0
 33 32  1  0
 34 35  1  0
 34 33  1  0
 35 31  1  0
 36 37  2  0
 37 38  1  0
 39 38  2  0
 40 39  1  0
 41 15  1  0
 41 42  1  0
 41 51  1  0
 42 45  1  0
 43 47  1  0
 43 42  1  0
 44 43  2  0
 47 46  1  0
 47 49  1  0
 49 50  1  0
 49 48  1  0
 51 52  1  1
 51 54  1  0
 53 51  1  0
 56 60  1  0
 56 57  1  0
 57 55  1  0
 57 59  1  0
 58 56  2  0
 61 62  1  0
 61 60  1  0
 63 62  1  0
 64 65  1  0
 64 63  1  0
 65 66  1  0
 67 66  1  0
 67 68  1  0
 68 69  1  0
 69 70  1  0
 71 77  1  0
 71 78  2  0
 73 72  1  0
 74 73  1  0
 75 84  1  0
 75 74  1  0
 75 76  1  0
 76 77  1  0
 77 72  1  0
 79 70  1  0
 79 71  1  0
 80 79  1  0
 81 84  1  0
 82 81  2  0
 82 83  1  0
 83 86  1  0
 83 85  2  0
 84 85  1  0
 86 87  1  0
 87 88  2  0
 89 88  1  0
 90 89  2  0
 91 90  1  0
 91 86  2  0
 92 89  1  0
 92 93  1  0
 93 98  2  0
 93 94  1  0
 94 95  2  0
 95 96  1  0
 96100  1  0
 97 96  2  0
 98 97  1  0
 99 98  1  0
101102  1  0
101 82  1  0
102104  1  0
103101  2  0
105102  1  0
106108  1  0
106 81  1  0
107106  1  0
M  ISO  4  13 101  14 101  71 100  79 100
M  END
>  <TORSDO>  (3) 
F 37

>  <SCORE>  (3) 
-3.797

>  <name>  (3) 
2

>  <ligand_id>  (3) 
2

>  <original_smiles>  (3) 
[H]c1c([H])c([H])c2c(c1[H])C([H])([H])C([H])([H])C([H])([H])C2([H])N([H])C(=O)C1([H])N(C(=O)C([H])(N([H])C(=O)C([H])(N([H])C([H])([H])[H])C([H])([H])[H])C(C([H])([H])[H])(C([H])([H])[H])C([H])([H])[H])C([H])([H])c2c([H])c(OC([H])([H])C([H])([H])C([H])([H])N(C(=O)OC([H])(C([H])([H])[H])C([H])([H])C([H])([H])[H])C([H])([H])C([H])([H])C([H])([H])N([H])C(=O)C([H])([H])OC([H])([H])C([H])([H])C([H])([H])OC([H])([H])C([H])([H])OC([H])([H])C([H])([H])N([H])C(=O)N3C([H])([H])C([H])([H])C([H])([H])C([H])(n4nc(-c5c([H])c([H])c(Oc6c([H])c([H])c(F)c([H])c6F)c([H])c5[H])c(C(=O)N([H])[H])c4N([H])[H])C3([H])[H])c([H])c([H])c2C1([H])[H]

>  <smiles>  (3) 
[H]c1c([H])c([H])c2c(c1[H])C([H])([H])C([H])([H])C([H])([H])C2([H])N([H])C(=O)C1([H])N(C(=O)C([H])(N([H])C(=O)C([H])(N([H])C([H])([H])[H])C([H])([H])[H])C(C([H])([H])[H])(C([H])([H])[H])C([H])([H])[H])C([H])([H])c2c([H])c(OC([H])([H])C([H])([H])C([H])([H])N(C(=O)OC([H])(C([H])([H])[H])C([H])([H])C([H])([H])[H])C([H])([H])C([H])([H])C([H])([H])N([H])C(=O)C([H])([H])OC([H])([H])C([H])([H])C([H])([H])OC([H])([H])C([H])([H])OC([H])([H])C([H])([H])N([H])C(=O)N3C([H])([H])C([H])([H])C([H])([H])C([H])(n4nc(-c5c([H])c([H])c(Oc6c([H])c([H])c(F)c([H])c6F)c([H])c5[H])c(C(=O)N([H])[H])c4N([H])[H])C3([H])[H])c([H])c([H])c2C1([H])[H]

$$$$
3:0:0
     RDKit          3D

110117  0  0  1  0  0  0  0  0999 V2000
  -31.3930  -26.9520   15.0520 C   0  0  0  0  0  3  0  0  0  0  0  0
  -32.4840  -26.3530   15.8630 N   0  0  0  0  0  4  0  0  0  0  0  0
  -32.0240  -25.8980   16.6400 H   0  0  0  0  0  0  0  0  0  0  0  0
  -32.9600  -25.6470   15.3240 H   0  0  0  0  0  0  0  0  0  0  0  0
  -33.4910  -27.2900   16.4080 C   0  0  0  0  0  2  0  0  0  0  0  0
  -34.1590  -26.7290   17.6830 C   0  0  0  0  0  2  0  0  0  0  0  0
  -34.0920  -25.2000   17.8590 C   0  0  0  0  0  2  0  0  0  0  0  0
  -34.8550  -24.3950   16.7980 C   0  0  0  0  0  2  0  0  0  0  0  0
  -34.7910  -22.8860   17.1020 C   0  0  0  0  0  2  0  0  0  0  0  0
  -35.7090  -21.9960   16.2380 C   0  0  0  0  0  2  0  0  0  0  0  0
  -34.4910  -21.4710   14.1090 C   0  0  0  0  0  0  0  0  0  0  0  0
  -34.4730  -21.7070   12.6080 C   0  0  0  0  0  1  0  0  0  0  0  0
  -35.4600  -22.0830   14.8000 N   0  0  0  0  0  0  0  0  0  0  0  0
  -33.6350  -20.7580   14.6310 O   0  0  0  0  0  0  0  0  0  0  0  0
  -36.1110  -22.6500   14.2700 H   0  0  0  0  0  0  0  0  0  0  0  0
  -30.0620  -26.8090   15.8190 C   0  0  0  0  0  2  0  0  0  0  0  0
  -29.9080  -25.4190   16.0910 O   0  0  0  0  0  0  0  0  0  0  0  0
  -31.1410  -19.8290   20.2710 C   0  0  0  0  0  0  0  0  0  0  0  0
  -30.4580  -24.9750   17.2600 C   0  0  0  0  0  0  0  0  0  0  0  0
  -31.5290  -22.0480   21.2980 C   0  0  0  0  0  3  0  0  0  0  0  0
  -31.5210  -24.0290   19.6900 C   0  0  0  0  0  0  0  0  0  0  0  0
  -31.7900  -21.7120   18.7790 C   0  0  0  0  0  2  0  0  0  0  0  0
  -31.3650  -23.1550   18.6070 C   0  0  0  0  0  0  0  0  0  0  0  0
  -30.8230  -23.6200   17.3910 C   0  0  0  0  0  3  0  0  0  0  0  0
  -30.6060  -25.8480   18.3570 C   0  0  0  0  0  3  0  0  0  0  0  0
  -31.1350  -25.3780   19.5740 C   0  0  0  0  0  3  0  0  0  0  0  0
  -32.1120  -23.4470   20.9540 C   0  0  0  0  0  2  0  0  0  0  0  0
  -31.4490  -21.1470   20.1040 N   0  0  0  0  0  0  0  0  0  0  0  0
  -30.9680  -19.3510   21.4020 O   0  0  0  0  0  0  0  0  0  0  0  0
  -30.1710  -22.2430   22.0090 C   0  0  0  0  0  0  0  0  0  0  0  0
  -29.0730  -22.1350   21.2430 N   0  0  0  0  0  0  0  0  0  0  0  0
  -30.1180  -22.4560   23.2230 O   0  0  0  0  0  0  0  0  0  0  0  0
  -29.2010  -21.9690   20.2550 H   0  0  0  0  0  0  0  0  0  0  0  0
  -26.2790  -24.4030   21.5510 C   0  0  0  0  0  0  0  0  0  0  0  0
  -27.6900  -22.2430   21.7030 C   0  0  0  0  0  3  0  0  0  0  0  0
  -26.7100  -21.6510   20.6630 C   0  0  0  0  0  2  0  0  0  0  0  0
  -26.1640  -22.6980   19.6860 C   0  0  0  0  0  2  0  0  0  0  0  0
  -25.4290  -23.8080   20.4420 C   0  0  0  0  0  2  0  0  0  0  0  0
  -27.3510  -23.6730   22.1330 C   0  0  0  0  0  0  0  0  0  0  0  0
  -28.1320  -24.2870   23.1350 C   0  0  0  0  0  3  0  0  0  0  0  0
  -27.8570  -25.6000   23.5610 C   0  0  0  0  0  3  0  0  0  0  0  0
  -26.7860  -26.3120   22.9930 C   0  0  0  0  0  3  0  0  0  0  0  0
  -25.9970  -25.7120   21.9950 C   0  0  0  0  0  3  0  0  0  0  0  0
  -31.0170  -18.8570   19.0560 C   0  0  0  0  0  3  0  0  0  0  0  0
  -32.3370  -18.7670   18.1950 C   0  0  1  0  0  0  0  0  0  0  0  0
  -32.5060  -19.9320   17.1940 C   0  0  0  0  0  1  0  0  0  0  0  0
  -33.5830  -18.7430   19.1100 C   0  0  0  0  0  1  0  0  0  0  0  0
  -32.3520  -17.4440   17.3930 C   0  0  0  0  0  1  0  0  0  0  0  0
  -29.8880  -19.3150   18.2350 N   0  0  0  0  0  0  0  0  0  0  0  0
  -29.0520  -20.3030   18.5780 C   0  0  0  0  0  0  0  0  0  0  0  0
  -29.1070  -20.8810   19.6670 O   0  0  0  0  0  0  0  0  0  0  0  0
  -29.8140  -18.9210   17.3080 H   0  0  0  0  0  0  0  0  0  0  0  0
  -28.0610  -19.7920   16.3250 C   0  0  0  0  0  1  0  0  0  0  0  0
  -27.9820  -20.7170   17.5500 C   0  0  0  0  0  3  0  0  0  0  0  0
  -27.4660  -23.0670   18.0440 C   0  0  0  0  0  1  0  0  0  0  0  0
  -28.0950  -22.1280   17.1180 N   0  0  0  0  0  0  0  0  0  0  0  0
  -27.6780  -22.2580   16.2000 H   0  0  0  0  0  0  0  0  0  0  0  0
  -31.3020  -26.2460   13.6820 C   0  0  0  0  0  2  0  0  0  0  0  0
  -31.0360  -24.7330   13.7690 C   0  0  0  0  0  2  0  0  0  0  0  0
  -30.8470  -24.0960   12.3870 C   0  0  0  0  0  2  0  0  0  0  0  0
  -30.3850  -25.1180   11.5220 O   0  0  0  0  0  0  0  0  0  0  0  0
  -29.5230  -24.6580   10.4890 C   0  0  0  0  0  2  0  0  0  0  0  0
  -28.2950  -24.0520   11.1800 C   0  0  0  0  0  2  0  0  0  0  0  0
  -27.4470  -25.1300   11.5660 O   0  0  0  0  0  0  0  0  0  0  0  0
  -27.6930  -25.6170   12.8770 C   0  0  0  0  0  2  0  0  0  0  0  0
  -26.3730  -25.6990   13.6620 C   0  0  0  0  0  2  0  0  0  0  0  0
  -26.4750  -24.8130   14.7700 O   0  0  0  0  0  0  0  0  0  0  0  0
  -25.3370  -24.7760   15.6190 C   0  0  0  0  0  2  0  0  0  0  0  0
  -24.7990  -23.3360   15.6530 C   0  0  0  0  0  2  0  0  0  0  0  0
  -24.4420  -22.9750   16.9900 O   0  0  0  0  0  0  0  0  0  0  0  0
  -23.1050  -22.5120   17.1460 C   0  0  0  0  0  2  0  0  0  0  0  0
  -22.2860  -23.4350   18.0680 C   0  0  0  0  0  2  0  0  0  0  0  0
  -23.2530  -25.6280   17.4460 C   0  0  0  0  0  0  0  0  0  0  0  0
  -22.7930  -28.0330   17.5510 C   0  0  0  0  0  2  0  0  0  0  0  0
  -23.8490  -28.9470   16.9240 C   0  0  0  0  0  2  0  0  0  0  0  0
  -24.9540  -29.2680   17.9450 C   0  0  0  0  0  2  0  0  0  0  0  0
  -25.5110  -28.0080   18.6620 C   0  0  0  0  0  3  0  0  0  0  0  0
  -24.3840  -27.0710   19.1520 C   0  0  0  0  0  2  0  0  0  0  0  0
  -23.4420  -26.8200   18.0490 N   0  0  0  0  0  0  0  0  0  0  0  0
  -22.9820  -25.4740   16.2510 O   0  0  0  0  0  0  0  0  0  0  0  0
  -22.9930  -24.6780   18.3450 N   0  0  0  0  0  0  0  0  0  0  0  0
  -23.1230  -24.9320   19.3140 H   0  0  0  0  0  0  0  0  0  0  0  0
  -27.6290  -27.8060   20.1190 C   0  0  0  0  0  0  0  0  0  0  0  0
  -28.1000  -28.5580   21.1640 C   0  0  0  0  0  0  0  0  0  0  0  0
  -27.1250  -29.5780   21.3860 C   0  0  0  0  0  0  0  0  0  0  0  0
  -26.4150  -28.3720   19.7570 N   0  0  0  0  0  0  0  0  0  0  0  0
  -26.0930  -29.4150   20.5670 N   0  0  0  0  0  0  0  0  0  0  0  0
  -27.1440  -30.7330   22.2950 C   0  0  0  0  0  0  0  0  0  0  0  0
  -28.2130  -30.9490   23.1920 C   0  0  0  0  0  3  0  0  0  0  0  0
  -28.2180  -32.0750   24.0430 C   0  0  0  0  0  3  0  0  0  0  0  0
  -27.1520  -33.0040   24.0010 C   0  0  0  0  0  0  0  0  0  0  0  0
  -26.0820  -32.7730   23.1220 C   0  0  0  0  0  3  0  0  0  0  0  0
  -26.0730  -31.6480   22.2790 C   0  0  0  0  0  3  0  0  0  0  0  0
  -27.0610  -34.1120   24.8100 O   0  0  0  0  0  0  0  0  0  0  0  0
  -26.3680  -35.2320   24.4260 C   0  0  0  0  0  0  0  0  0  0  0  0
  -24.9570  -35.2820   24.4630 C   0  0  0  0  0  3  0  0  0  0  0  0
  -24.2870  -36.4770   24.1280 C   0  0  0  0  0  3  0  0  0  0  0  0
  -25.0260  -37.6180   23.7590 C   0  0  0  0  0  0  0  0  0  0  0  0
  -26.4300  -37.5700   23.7270 C   0  0  0  0  0  3  0  0  0  0  0  0
  -27.0990  -36.3800   24.0600 C   0  0  0  0  0  0  0  0  0  0  0  0
  -28.4540  -36.3420   24.0430 F   0  0  0  0  0  0  0  0  0  0  0  0
  -24.3840  -38.7670   23.4440 F   0  0  0  0  0  0  0  0  0  0  0  0
  -29.4240  -28.3990   21.8510 C   0  0  0  0  0  0  0  0  0  0  0  0
  -29.7600  -29.3090   22.7590 N   0  0  0  0  0  0  0  0  0  0  0  0
  -30.1520  -27.4350   21.6170 O   0  0  0  0  0  0  0  0  0  0  0  0
  -29.1560  -30.0900   22.9690 H   0  0  0  0  0  0  0  0  0  0  0  0
  -30.6410  -29.2270   23.2450 H   0  0  0  0  0  0  0  0  0  0  0  0
  -28.1400  -26.7050   19.4400 N   0  0  0  0  0  0  0  0  0  0  0  0
  -29.0480  -26.3090   19.6600 H   0  0  0  0  0  0  0  0  0  0  0  0
  -27.6930  -26.2570   18.6490 H   0  0  0  0  0  0  0  0  0  0  0  0
  1 58  1  0
  1 16  1  0
  1  2  1  0
  2  5  1  0
  2  3  1  0
  4  2  1  0
  5  6  1  0
  6  7  1  0
  8  9  1  0
  8  7  1  0
 10  9  1  0
 11 14  2  0
 11 13  1  0
 12 11  1  0
 13 10  1  0
 15 13  1  0
 16 17  1  0
 17 19  1  0
 18 29  2  0
 19 24  2  0
 19 25  1  0
 20 30  1  0
 21 27  1  0
 22 28  1  0
 23 22  1  0
 23 21  2  0
 24 23  1  0
 25 26  2  0
 26 21  1  0
 27 20  1  0
 28 18  1  0
 28 20  1  0
 30 32  2  0
 31 30  1  0
 33 31  1  0
 34 43  2  0
 34 39  1  0
 35 31  1  0
 35 39  1  0
 36 35  1  0
 37 38  1  0
 37 36  1  0
 38 34  1  0
 39 40  2  0
 40 41  1  0
 42 41  2  0
 43 42  1  0
 44 18  1  0
 45 44  1  0
 45 47  1  1
 46 45  1  0
 48 45  1  0
 49 50  1  0
 49 44  1  0
 50 51  2  0
 52 49  1  0
 54 53  1  0
 54 50  1  0
 56 54  1  0
 56 55  1  0
 57 56  1  0
 58 59  1  0
 60 59  1  0
 61 60  1  0
 62 63  1  0
 62 61  1  0
 63 64  1  0
 64 65  1  0
 65 66  1  0
 66 67  1  0
 67 68  1  0
 68 69  1  0
 69 70  1  0
 70 71  1  0
 71 72  1  0
 72 81  1  0
 73 79  1  0
 73 81  1  0
 74 79  1  0
 75 74  1  0
 75 76  1  0
 77 76  1  0
 77 78  1  0
 77 86  1  0
 79 78  1  0
 80 73  2  0
 81 82  1  0
 83 84  2  0
 84 85  1  0
 84103  1  0
 85 88  1  0
 86 83  1  0
 86 87  1  0
 87 85  2  0
 88 89  1  0
 89 90  2  0
 91 90  1  0
 91 94  1  0
 92 91  2  0
 93 88  2  0
 93 92  1  0
 95 96  1  0
 95 94  1  0
 97 96  2  0
 98 97  1  0
 99 98  2  0
 99100  1  0
100 95  2  0
101100  1  0
102 98  1  0
103104  1  0
104106  1  0
104107  1  0
105103  2  0
108109  1  0
108 83  1  0
110108  1  0
M  ISO  4  16 101  17 101  73 100  81 100
M  END
>  <TORSDO>  (4) 
F 40

>  <SCORE>  (4) 
-0.575

>  <name>  (4) 
3

>  <ligand_id>  (4) 
3

>  <original_smiles>  (4) 
[H]c1c([H])c([H])c2c(c1[H])C([H])([H])C([H])([H])C([H])([H])C2([H])N([H])C(=O)C1([H])N(C(=O)C([H])(N([H])C(=O)C([H])(N([H])C([H])([H])[H])C([H])([H])[H])C(C([H])([H])[H])(C([H])([H])[H])C([H])([H])[H])C([H])([H])c2c([H])c(OC([H])([H])C([H])(C([H])([H])C([H])([H])C([H])([H])OC([H])([H])C([H])([H])OC([H])([H])C([H])([H])OC([H])([H])C([H])([H])OC([H])([H])C([H])([H])N([H])C(=O)N3C([H])([H])C([H])([H])C([H])([H])C([H])(n4nc(-c5c([H])c([H])c(Oc6c([H])c([H])c(F)c([H])c6F)c([H])c5[H])c(C(=O)N([H])[H])c4N([H])[H])C3([H])[H])[N+]([H])([H])C([H])([H])C([H])([H])C([H])([H])C([H])([H])C([H])([H])C([H])([H])N([H])C(=O)C([H])([H])[H])c([H])c([H])c2C1([H])[H]

>  <smiles>  (4) 
[H]c1c([H])c([H])c2c(c1[H])C([H])([H])C([H])([H])C([H])([H])C2([H])N([H])C(=O)C1([H])N(C(=O)C([H])(N([H])C(=O)C([H])(N([H])C([H])([H])[H])C([H])([H])[H])C(C([H])([H])[H])(C([H])([H])[H])C([H])([H])[H])C([H])([H])c2c([H])c(OC([H])([H])C([H])(C([H])([H])C([H])([H])C([H])([H])OC([H])([H])C([H])([H])OC([H])([H])C([H])([H])OC([H])([H])C([H])([H])OC([H])([H])C([H])([H])N([H])C(=O)N3C([H])([H])C([H])([H])C([H])([H])C([H])(n4nc(-c5c([H])c([H])c(Oc6c([H])c([H])c(F)c([H])c6F)c([H])c5[H])c(C(=O)N([H])[H])c4N([H])[H])C3([H])[H])[N+]([H])([H])C([H])([H])C([H])([H])C([H])([H])C([H])([H])C([H])([H])C([H])([H])N([H])C(=O)C([H])([H])[H])c([H])c([H])c2C1([H])[H]

$$$$
4:0:0
     RDKit          3D

104107  0  0  1  0  0  0  0  0999 V2000
  -20.8300  -20.0960   24.9040 C   0  0  0  0  0  2  0  0  0  0  0  0
  -20.1130  -20.0450   23.6790 O   0  0  0  0  0  0  0  0  0  0  0  0
  -19.9170  -21.3230   23.1030 C   0  0  0  0  0  2  0  0  0  0  0  0
  -19.3580  -21.1570   21.6870 C   0  0  0  0  0  2  0  0  0  0  0  0
  -19.5650  -22.3800   21.0030 O   0  0  0  0  0  0  0  0  0  0  0  0
  -18.9100  -22.4530   19.7440 C   0  0  0  0  0  2  0  0  0  0  0  0
  -19.0170  -23.9370   19.0980 C   0  0  0  0  0  1  0  0  0  0  0  0
  -22.0490  -25.4470   17.2050 C   0  0  0  0  0  0  0  0  0  0  0  0
  -20.5280  -25.0660   17.4290 N   0  0  0  0  0  2  0  0  0  0  0  0
  -22.1820  -25.7760   16.0290 O   0  0  0  0  0  0  0  0  0  0  0  0
  -19.9780  -25.3930   16.6470 H   0  0  0  0  0  0  0  0  0  0  0  0
  -23.7170  -25.3630   18.0420 C   0  0  0  0  0  2  0  0  0  0  0  0
  -25.0130  -26.3910   18.6510 O   0  0  0  0  0  0  0  0  0  0  0  0
  -24.5710  -30.3950   22.5060 C   0  0  0  0  0  0  0  0  0  0  0  0
  -26.2410  -26.9140   18.1640 C   0  0  0  0  0  3  0  0  0  0  0  0
  -23.4800  -29.9230   20.3920 C   0  0  0  0  0  3  0  0  0  0  0  0
  -24.8760  -29.1230   18.4150 C   0  0  0  0  0  0  0  0  0  0  0  0
  -26.0100  -29.8870   20.5130 C   0  0  0  0  0  2  0  0  0  0  0  0
  -25.9260  -28.9430   19.3260 C   0  0  0  0  0  3  0  0  0  0  0  0
  -26.7800  -27.8420   19.1040 C   0  0  0  0  0  2  0  0  0  0  0  0
  -25.8650  -27.4400   16.9570 C   0  0  0  0  0  2  0  0  0  0  0  0
  -24.9290  -28.4730   17.1530 C   0  0  0  0  0  3  0  0  0  0  0  0
  -23.7660  -30.0250   18.8660 C   0  0  0  0  0  2  0  0  0  0  0  0
  -24.7090  -30.1080   21.1850 N   0  0  0  0  0  0  0  0  0  0  0  0
  -23.4570  -30.5660   23.0260 O   0  0  0  0  0  0  0  0  0  0  0  0
  -22.8350  -28.6110   20.8820 C   0  0  0  0  0  0  0  0  0  0  0  0
  -21.6040  -28.7070   21.2840 N   0  0  0  0  0  0  0  0  0  0  0  0
  -23.4230  -27.5380   20.9790 O   0  0  0  0  0  0  0  0  0  0  0  0
  -21.1330  -29.5900   21.1530 H   0  0  0  0  0  0  0  0  0  0  0  0
  -17.8820  -28.8400   21.6920 C   0  0  0  0  0  0  0  0  0  0  0  0
  -20.7640  -27.5790   21.6440 C   0  0  0  0  0  2  0  0  0  0  0  0
  -20.3020  -26.1250   20.1030 C   0  0  0  0  0 15  0  0  0  0  0  0
  -18.3010  -26.4190   19.2490 C   0  0  0  0  0 15  0  0  0  0  0  0
  -17.1790  -27.8770   20.2180 C   0  0  0  0  0  1  0  0  0  0  0  0
  -19.4040  -28.7130   22.2760 C   0  0  0  0  0  0  0  0  0  0  0  0
  -19.6510  -29.2020   23.5770 C   0  0  0  0  0  3  0  0  0  0  0  0
  -18.6290  -29.6650   24.4150 C   0  0  0  0  0  3  0  0  0  0  0  0
  -17.2890  -29.6100   24.0110 C   0  0  0  0  0  3  0  0  0  0  0  0
  -16.9300  -29.1990   22.7020 C   0  0  0  0  0  3  0  0  0  0  0  0
  -25.8130  -30.5470   23.4090 C   0  0  0  0  0  3  0  0  0  0  0  0
  -26.0490  -29.3100   24.3550 C   0  0  1  0  0  0  0  0  0  0  0  0
  -24.8050  -28.8940   25.1730 C   0  0  0  0  0  1  0  0  0  0  0  0
  -26.5170  -28.0730   23.5530 C   0  0  0  0  0  1  0  0  0  0  0  0
  -27.1900  -29.6440   25.3430 C   0  0  0  0  0  1  0  0  0  0  0  0
  -25.6090  -31.7750   24.1830 N   0  0  0  0  0  0  0  0  0  0  0  0
  -26.1550  -32.9570   23.8720 C   0  0  0  0  0  0  0  0  0  0  0  0
  -26.9590  -33.0990   22.9480 O   0  0  0  0  0  0  0  0  0  0  0  0
  -24.9220  -31.7380   24.9210 H   0  0  0  0  0  0  0  0  0  0  0  0
  -24.7380  -35.0330   23.9550 C   0  0  0  0  0  1  0  0  0  0  0  0
  -25.7480  -34.1690   24.7270 C   0  0  0  0  0  3  0  0  0  0  0  0
  -27.7790  -34.3250   26.0980 C   0  0  0  0  0  1  0  0  0  0  0  0
  -26.8970  -34.9980   25.1470 N   0  0  0  0  0  0  0  0  0  0  0  0
  -26.5800  -35.8680   25.5670 H   0  0  0  0  0  0  0  0  0  0  0  0
  -21.6810  -18.8280   24.9900 C   0  0  0  0  0  2  0  0  0  0  0  0
  -22.7510  -18.9440   24.0610 O   0  0  0  0  0  0  0  0  0  0  0  0
  -23.4510  -17.7220   23.8980 C   0  0  0  0  0  2  0  0  0  0  0  0
  -24.6100  -17.8920   22.9060 C   0  0  0  0  0  2  0  0  0  0  0  0
  -24.1050  -18.0500   21.5810 O   0  0  0  0  0  0  0  0  0  0  0  0
  -24.6920  -17.1640   20.6280 C   0  0  0  0  0  2  0  0  0  0  0  0
  -25.9660  -17.7100   19.9520 C   0  0  0  0  0  2  0  0  0  0  0  0
  -27.1610  -17.1400   20.4860 O   0  0  0  0  0  0  0  0  0  0  0  0
  -28.2400  -17.1230   19.5450 C   0  0  0  0  0  2  0  0  0  0  0  0
  -29.6100  -17.1820   20.2530 C   0  0  0  0  0  2  0  0  0  0  0  0
  -30.4390  -16.0450   19.9740 O   0  0  0  0  0  0  0  0  0  0  0  0
  -31.7280  -16.1810   20.5800 C   0  0  0  0  0  2  0  0  0  0  0  0
  -32.7190  -15.0620   20.1860 C   0  0  0  0  0  2  0  0  0  0  0  0
  -32.7900  -12.5670   20.2280 C   0  0  0  0  0  0  0  0  0  0  0  0
  -32.0440  -10.4430   19.2460 C   0  0  0  0  0  2  0  0  0  0  0  0
  -31.1220  -10.7990   18.0560 C   0  0  0  0  0  2  0  0  0  0  0  0
  -29.6670  -11.0240   18.5190 C   0  0  0  0  0  2  0  0  0  0  0  0
  -29.5700  -11.9710   19.7450 C   0  0  0  0  0  3  0  0  0  0  0  0
  -30.5780  -11.5490   20.8370 C   0  0  0  0  0  2  0  0  0  0  0  0
  -31.9180  -11.5280   20.2290 N   0  0  0  0  0  0  0  0  0  0  0  0
  -33.9280  -12.5080   19.7560 O   0  0  0  0  0  0  0  0  0  0  0  0
  -32.2250  -13.7380   20.5610 N   0  0  0  0  0  0  0  0  0  0  0  0
  -31.2890  -13.6980   20.9340 H   0  0  0  0  0  0  0  0  0  0  0  0
  -27.4350  -13.1470   20.5720 C   0  0  0  0  0  0  0  0  0  0  0  0
  -26.2110  -12.6610   20.9480 C   0  0  0  0  0  0  0  0  0  0  0  0
  -26.3090  -11.2380   20.8520 C   0  0  0  0  0  0  0  0  0  0  0  0
  -28.2070  -12.0370   20.2660 N   0  0  0  0  0  0  0  0  0  0  0  0
  -27.5350  -10.8800   20.4940 N   0  0  0  0  0  0  0  0  0  0  0  0
  -25.2890  -10.1990   21.0260 C   0  0  0  0  0  0  0  0  0  0  0  0
  -25.4940   -9.1040   21.8940 C   0  0  0  0  0  3  0  0  0  0  0  0
  -24.4910   -8.1240   22.0590 C   0  0  0  0  0  3  0  0  0  0  0  0
  -23.2670   -8.2370   21.3570 C   0  0  0  0  0  0  0  0  0  0  0  0
  -23.0780   -9.3160   20.4770 C   0  0  0  0  0  3  0  0  0  0  0  0
  -24.0790  -10.2880   20.3090 C   0  0  0  0  0  3  0  0  0  0  0  0
  -22.2470   -7.3220   21.4360 O   0  0  0  0  0  0  0  0  0  0  0  0
  -22.0280   -6.5860   22.5720 C   0  0  0  0  0  0  0  0  0  0  0  0
  -21.7570   -7.1970   23.8170 C   0  0  0  0  0  3  0  0  0  0  0  0
  -21.4680   -6.4010   24.9430 C   0  0  0  0  0  3  0  0  0  0  0  0
  -21.4410   -4.9980   24.8270 C   0  0  0  0  0  0  0  0  0  0  0  0
  -21.7050   -4.3890   23.5880 C   0  0  0  0  0  3  0  0  0  0  0  0
  -21.9940   -5.1810   22.4630 C   0  0  0  0  0  0  0  0  0  0  0  0
  -22.2280   -4.5890   21.2670 F   0  0  0  0  0  0  0  0  0  0  0  0
  -21.1540   -4.2340   25.9070 F   0  0  0  0  0  0  0  0  0  0  0  0
  -24.9920  -13.4660   21.2890 C   0  0  0  0  0  0  0  0  0  0  0  0
  -24.1640  -12.9640   22.2000 N   0  0  0  0  0  0  0  0  0  0  0  0
  -24.7880  -14.5640   20.7760 O   0  0  0  0  0  0  0  0  0  0  0  0
  -24.3470  -12.0710   22.6370 H   0  0  0  0  0  0  0  0  0  0  0  0
  -23.3360  -13.4790   22.4660 H   0  0  0  0  0  0  0  0  0  0  0  0
  -27.9440  -14.4330   20.4470 N   0  0  0  0  0  0  0  0  0  0  0  0
  -27.3770  -15.2630   20.5960 H   0  0  0  0  0  0  0  0  0  0  0  0
  -28.8860  -14.6590   20.1510 H   0  0  0  0  0  0  0  0  0  0  0  0
  1 54  1  0
  2  1  1  0
  3  2  1  0
  4  3  1  0
  5  4  1  0
  6  5  1  0
  7  6  1  0
  8  9  1  0
  8 12  1  0
 10  8  2  0
 11  9  1  0
 12 13  1  0
 14 25  2  0
 15 13  1  0
 15 20  1  0
 16 26  1  0
 16 24  1  0
 17 23  1  0
 17 19  1  0
 18 24  1  0
 19 20  1  0
 19 18  1  0
 21 22  1  0
 21 15  1  0
 22 17  2  0
 23 16  1  0
 24 14  1  0
 26 28  2  0
 26 27  1  0
 27 31  1  0
 29 27  1  0
 30 35  2  0
 30 39  1  0
 31 35  1  0
 34 30  1  0
 35 36  1  0
 36 37  2  0
 38 37  1  0
 39 38  2  0
 40 14  1  0
 40 45  1  0
 40 41  1  0
 41 42  1  1
 41 44  1  0
 43 41  1  0
 45 48  1  0
 46 45  1  0
 46 50  1  0
 47 46  2  0
 50 49  1  0
 50 52  1  0
 52 53  1  0
 52 51  1  0
 55 54  1  0
 56 55  1  0
 57 56  1  0
 58 57  1  0
 59 58  1  0
 60 61  1  0
 60 59  1  0
 62 63  1  0
 62 61  1  0
 64 63  1  0
 64 65  1  0
 66 75  1  0
 66 65  1  0
 67 73  1  0
 67 75  1  0
 68 73  1  0
 69 70  1  0
 69 68  1  0
 71 70  1  0
 71 80  1  0
 71 72  1  0
 73 72  1  0
 74 67  2  0
 75 76  1  0
 77 78  2  0
 78 97  1  0
 79 78  1  0
 79 82  1  0
 80 81  1  0
 80 77  1  0
 81 79  2  0
 82 83  1  0
 83 84  2  0
 85 88  1  0
 85 84  1  0
 86 85  2  0
 87 86  1  0
 87 82  2  0
 88 89  1  0
 89 90  1  0
 90 91  2  0
 92 91  1  0
 92 96  1  0
 93 92  2  0
 94 89  2  0
 94 93  1  0
 95 94  1  0
 97 98  1  0
 98101  1  0
 98100  1  0
 99 97  2  0
102 77  1  0
102103  1  0
104102  1  0
M  ISO  4  12 101  13 101  67 100  75 100
M  END
>  <TORSDO>  (5) 
F 37

>  <SCORE>  (5) 
23.709

>  <name>  (5) 
4

>  <ligand_id>  (5) 
4

>  <original_smiles>  (5) 
[H]c1c([H])c([H])c2c(c1[H])C([H])([H])C([H])([H])C([H])([H])C2([H])N([H])C(=O)C1([H])N(C(=O)C([H])(N([H])C(=O)C([H])(N([H])C([H])([H])[H])C([H])([H])[H])C(C([H])([H])[H])(C([H])([H])[H])C([H])([H])[H])C([H])([H])c2c([H])c(OC([H])([H])C(=O)N([H])C([H])([H])C([H])([H])OC([H])([H])C([H])([H])OC([H])([H])C([H])([H])OC([H])([H])C([H])([H])OC([H])([H])C([H])([H])OC([H])([H])C([H])([H])OC([H])([H])C([H])([H])N([H])C(=O)N3C([H])([H])C([H])([H])C([H])([H])C([H])(n4nc(-c5c([H])c([H])c(Oc6c([H])c([H])c(F)c([H])c6F)c([H])c5[H])c(C(=O)N([H])[H])c4N([H])[H])C3([H])[H])c([H])c([H])c2C1([H])[H]

>  <smiles>  (5) 
[H]c1c([H])c([H])c2c(c1[H])C([H])([H])C([H])([H])C([H])([H])C2([H])N([H])C(=O)C1([H])N(C(=O)C([H])(N([H])C(=O)C([H])(N([H])C([H])([H])[H])C([H])([H])[H])C(C([H])([H])[H])(C([H])([H])[H])C([H])([H])[H])C([H])([H])c2c([H])c(OC([H])([H])C(=O)N([H])C([H])([H])C([H])([H])OC([H])([H])C([H])([H])OC([H])([H])C([H])([H])OC([H])([H])C([H])([H])OC([H])([H])C([H])([H])OC([H])([H])C([H])([H])OC([H])([H])C([H])([H])N([H])C(=O)N3C([H])([H])C([H])([H])C([H])([H])C([H])(n4nc(-c5c([H])c([H])c(Oc6c([H])c([H])c(F)c([H])c6F)c([H])c5[H])c(C(=O)N([H])[H])c4N([H])[H])C3([H])[H])c([H])c([H])c2C1([H])[H]

$$$$
5:0:0
     RDKit          3D

 97104  0  0  1  0  0  0  0  0999 V2000
  -25.8210  -22.5070   20.6020 C   0  0  0  0  0  0  0  0  0  0  0  0
  -24.5370  -22.1350   20.6620 N   0  0  0  0  0  0  0  0  0  0  0  0
  -26.5680  -22.1630   19.6810 O   0  0  0  0  0  0  0  0  0  0  0  0
  -23.9830  -22.4820   21.4340 H   0  0  0  0  0  0  0  0  0  0  0  0
  -26.3610  -23.3010   21.7910 C   0  0  0  0  0  2  0  0  0  0  0  0
  -27.7480  -23.5580   21.5980 O   0  0  0  0  0  0  0  0  0  0  0  0
  -28.3200  -24.2920   22.6680 C   0  0  0  0  0  2  0  0  0  0  0  0
  -29.5510  -25.0590   22.1490 C   0  0  0  0  0  2  0  0  0  0  0  0
  -29.4470  -26.4530   22.4260 O   0  0  0  0  0  0  0  0  0  0  0  0
  -24.9370  -31.6320   24.1500 C   0  0  0  0  0  0  0  0  0  0  0  0
  -28.2930  -27.1120   22.0610 C   0  0  0  0  0  0  0  0  0  0  0  0
  -24.1910  -30.1400   22.3240 C   0  0  0  0  0  3  0  0  0  0  0  0
  -25.9590  -28.5580   21.3970 C   0  0  0  0  0  0  0  0  0  0  0  0
  -26.6810  -30.5270   22.7590 C   0  0  0  0  0  2  0  0  0  0  0  0
  -26.9270  -29.1320   22.2290 C   0  0  0  0  0  0  0  0  0  0  0  0
  -28.0970  -28.4170   22.5550 C   0  0  0  0  0  3  0  0  0  0  0  0
  -27.3010  -26.5380   21.2300 C   0  0  0  0  0  3  0  0  0  0  0  0
  -26.1380  -27.2570   20.8980 C   0  0  0  0  0  3  0  0  0  0  0  0
  -24.7440  -29.3980   21.0790 C   0  0  0  0  0  2  0  0  0  0  0  0
  -25.2730  -30.7820   23.1390 N   0  0  0  0  0  0  0  0  0  0  0  0
  -23.7540  -31.9180   24.3800 O   0  0  0  0  0  0  0  0  0  0  0  0
  -23.3160  -29.1580   23.1320 C   0  0  0  0  0  0  0  0  0  0  0  0
  -22.0510  -28.9970   22.7070 N   0  0  0  0  0  0  0  0  0  0  0  0
  -23.7800  -28.5390   24.0940 O   0  0  0  0  0  0  0  0  0  0  0  0
  -21.7450  -29.5420   21.9130 H   0  0  0  0  0  0  0  0  0  0  0  0
  -18.5670  -28.0650   22.6050 C   0  0  0  0  0  0  0  0  0  0  0  0
  -21.0570  -28.1000   23.2920 C   0  0  0  0  0  3  0  0  0  0  0  0
  -21.1470  -26.6890   22.6660 C   0  0  0  0  0  2  0  0  0  0  0  0
  -20.2010  -26.4960   21.4770 C   0  0  0  0  0  2  0  0  0  0  0  0
  -18.7480  -26.7310   21.9010 C   0  0  0  0  0  2  0  0  0  0  0  0
  -19.6540  -28.7140   23.2460 C   0  0  0  0  0  0  0  0  0  0  0  0
  -19.4380  -29.9690   23.8570 C   0  0  0  0  0  3  0  0  0  0  0  0
  -18.1660  -30.5700   23.8380 C   0  0  0  0  0  3  0  0  0  0  0  0
  -17.0890  -29.9150   23.2170 C   0  0  0  0  0  3  0  0  0  0  0  0
  -17.2900  -28.6640   22.6050 C   0  0  0  0  0  3  0  0  0  0  0  0
  -26.0240  -32.3020   25.0480 C   0  0  0  0  0  3  0  0  0  0  0  0
  -25.6130  -33.6930   25.2710 N   0  0  0  0  0  0  0  0  0  0  0  0
  -26.0500  -34.7390   24.5560 C   0  0  0  0  0  0  0  0  0  0  0  0
  -26.9080  -34.6370   23.6750 O   0  0  0  0  0  0  0  0  0  0  0  0
  -24.8710  -33.8450   25.9390 H   0  0  0  0  0  0  0  0  0  0  0  0
  -24.3310  -36.4320   23.8480 C   0  0  0  0  0  1  0  0  0  0  0  0
  -25.4360  -36.1160   24.8680 C   0  0  0  0  0  3  0  0  0  0  0  0
  -27.3500  -37.1430   26.0110 C   0  0  0  0  0  1  0  0  0  0  0  0
  -26.4280  -37.2130   24.8810 N   0  0  0  0  0  0  0  0  0  0  0  0
  -25.9650  -38.1180   24.9050 H   0  0  0  0  0  0  0  0  0  0  0  0
  -26.2460  -31.5550   26.4200 C   0  0  1  0  0  0  0  0  0  0  0  0
  -24.9320  -31.2450   27.1760 C   0  0  0  0  0  1  0  0  0  0  0  0
  -26.9910  -30.2180   26.1990 C   0  0  0  0  0  1  0  0  0  0  0  0
  -27.1400  -32.4120   27.3470 C   0  0  0  0  0  1  0  0  0  0  0  0
  -23.9690  -21.0700   19.8420 C   0  0  0  0  0  2  0  0  0  0  0  0
  -24.4220  -19.7090   20.4010 C   0  0  0  0  0  2  0  0  0  0  0  0
  -24.7110  -18.6680   19.3160 C   0  0  0  0  0  2  0  0  0  0  0  0
  -25.2270  -17.4190   19.9140 N   0  0  0  0  0  4  0  0  0  0  0  0
  -25.5170  -17.5810   20.8650 H   0  0  0  0  0  0  0  0  0  0  0  0
  -24.4660  -16.7570   19.9440 H   0  0  0  0  0  0  0  0  0  0  0  0
  -26.3470  -16.8020   19.1800 C   0  0  0  0  0  2  0  0  0  0  0  0
  -27.6780  -17.5790   19.3350 C   0  0  0  0  0  2  0  0  0  0  0  0
  -28.8100  -16.5930   19.6310 C   0  0  0  0  0  2  0  0  0  0  0  0
  -30.2070  -17.1730   19.9400 C   0  0  0  0  0  2  0  0  0  0  0  0
  -31.4980  -15.2250   20.8150 C   0  0  0  0  0  0  0  0  0  0  0  0
  -31.7720  -12.9660   21.7830 C   0  0  0  0  0  2  0  0  0  0  0  0
  -31.3760  -11.8490   20.8000 C   0  0  0  0  0  2  0  0  0  0  0  0
  -29.8570  -11.5890   20.8220 C   0  0  0  0  0  2  0  0  0  0  0  0
  -29.0370  -12.8950   20.6760 C   0  0  0  0  0  3  0  0  0  0  0  0
  -29.5400  -13.9310   21.7040 C   0  0  0  0  0  2  0  0  0  0  0  0
  -30.9860  -14.1670   21.4880 N   0  0  0  0  0  0  0  0  0  0  0  0
  -32.5920  -15.2330   20.2400 O   0  0  0  0  0  0  0  0  0  0  0  0
  -30.7610  -16.3250   20.9880 N   0  0  0  0  0  0  0  0  0  0  0  0
  -30.1420  -16.2310   21.7810 H   0  0  0  0  0  0  0  0  0  0  0  0
  -26.5260  -13.4980   20.6100 C   0  0  0  0  0  0  0  0  0  0  0  0
  -25.4000  -12.7440   20.8170 C   0  0  0  0  0  0  0  0  0  0  0  0
  -25.8590  -11.4310   21.1370 C   0  0  0  0  0  0  0  0  0  0  0  0
  -27.6010  -12.6430   20.8170 N   0  0  0  0  0  0  0  0  0  0  0  0
  -27.1860  -11.4040   21.1820 N   0  0  0  0  0  0  0  0  0  0  0  0
  -25.1150  -10.1840   21.3510 C   0  0  0  0  0  0  0  0  0  0  0  0
  -24.9420   -9.6420   22.6450 C   0  0  0  0  0  3  0  0  0  0  0  0
  -24.2100   -8.4500   22.8310 C   0  0  0  0  0  3  0  0  0  0  0  0
  -23.6380   -7.7870   21.7180 C   0  0  0  0  0  0  0  0  0  0  0  0
  -23.8310   -8.3190   20.4300 C   0  0  0  0  0  3  0  0  0  0  0  0
  -24.5650   -9.5030   20.2470 C   0  0  0  0  0  3  0  0  0  0  0  0
  -22.9330   -6.6110   21.7990 O   0  0  0  0  0  0  0  0  0  0  0  0
  -21.9800   -6.4080   22.7650 C   0  0  0  0  0  0  0  0  0  0  0  0
  -20.8650   -7.2650   22.9020 C   0  0  0  0  0  3  0  0  0  0  0  0
  -19.8710   -6.9800   23.8590 C   0  0  0  0  0  3  0  0  0  0  0  0
  -19.9830   -5.8370   24.6730 C   0  0  0  0  0  0  0  0  0  0  0  0
  -21.0890   -4.9800   24.5350 C   0  0  0  0  0  3  0  0  0  0  0  0
  -22.0830   -5.2640   23.5820 C   0  0  0  0  0  0  0  0  0  0  0  0
  -23.1360   -4.4230   23.4390 F   0  0  0  0  0  0  0  0  0  0  0  0
  -19.0230   -5.5590   25.5870 F   0  0  0  0  0  0  0  0  0  0  0  0
  -23.9780  -13.1900   20.6370 C   0  0  0  0  0  0  0  0  0  0  0  0
  -23.0520  -12.6150   21.3970 N   0  0  0  0  0  0  0  0  0  0  0  0
  -23.6840  -14.0880   19.8500 O   0  0  0  0  0  0  0  0  0  0  0  0
  -23.2930  -11.8950   22.0620 H   0  0  0  0  0  0  0  0  0  0  0  0
  -22.0860  -12.9000   21.3120 H   0  0  0  0  0  0  0  0  0  0  0  0
  -26.7250  -14.8270   20.2500 N   0  0  0  0  0  0  0  0  0  0  0  0
  -25.9550  -15.4230   19.9680 H   0  0  0  0  0  0  0  0  0  0  0  0
  -27.6330  -15.2170   20.0280 H   0  0  0  0  0  0  0  0  0  0  0  0
  1  2  1  0
  1  5  1  0
  2  4  1  0
  3  1  2  0
  6  5  1  0
  6  7  1  0
  8  9  1  0
  8  7  1  0
 10 21  2  0
 11  9  1  0
 11 16  1  0
 12 22  1  0
 12 20  1  0
 13 15  1  0
 14 20  1  0
 15 16  2  0
 15 14  1  0
 17 11  2  0
 18 17  1  0
 18 13  2  0
 19 13  1  0
 19 12  1  0
 20 10  1  0
 22 24  2  0
 23 22  1  0
 25 23  1  0
 26 35  2  0
 26 31  1  0
 27 23  1  0
 28 27  1  0
 29 30  1  0
 29 28  1  0
 30 26  1  0
 31 27  1  0
 31 32  2  0
 33 32  1  0
 34 33  2  0
 35 34  1  0
 36 10  1  0
 36 37  1  0
 36 46  1  0
 37 40  1  0
 38 42  1  0
 38 37  1  0
 39 38  2  0
 42 41  1  0
 42 44  1  0
 44 45  1  0
 44 43  1  0
 46 47  1  1
 46 49  1  0
 48 46  1  0
 50 51  1  0
 50  2  1  0
 52 53  1  0
 52 51  1  0
 53 55  1  0
 53 54  1  0
 56 57  1  0
 56 53  1  0
 57 58  1  0
 58 59  1  0
 59 68  1  0
 60 68  1  0
 60 66  1  0
 62 63  1  0
 62 61  1  0
 64 73  1  0
 64 63  1  0
 64 65  1  0
 66 65  1  0
 66 61  1  0
 67 60  2  0
 68 69  1  0
 70 73  1  0
 70 71  2  0
 71 72  1  0
 72 74  2  0
 72 75  1  0
 73 74  1  0
 75 76  1  0
 76 77  2  0
 78 81  1  0
 78 77  1  0
 79 78  2  0
 80 79  1  0
 80 75  2  0
 81 82  1  0
 82 83  2  0
 82 87  1  0
 83 84  1  0
 84 85  2  0
 85 89  1  0
 86 85  1  0
 87 86  2  0
 88 87  1  0
 90 71  1  0
 90 91  1  0
 91 93  1  0
 92 90  2  0
 94 91  1  0
 95 70  1  0
 96 95  1  0
 97 95  1  0
M  ISO  4   8 101   9 101  60 100  68 100
M  END
>  <TORSDO>  (6) 
F 28

>  <SCORE>  (6) 
1.572

>  <name>  (6) 
5

>  <ligand_id>  (6) 
5

>  <original_smiles>  (6) 
[H]c1c([H])c([H])c2c(c1[H])C([H])([H])C([H])([H])C([H])([H])C2([H])N([H])C(=O)C1([H])N(C(=O)C([H])(N([H])C(=O)C([H])(N([H])C([H])([H])[H])C([H])([H])[H])C(C([H])([H])[H])(C([H])([H])[H])C([H])([H])[H])C([H])([H])c2c([H])c(OC([H])([H])C([H])([H])OC([H])([H])C(=O)N([H])C([H])([H])C([H])([H])C([H])([H])[N+]([H])([H])C([H])([H])C([H])([H])C([H])([H])C([H])([H])N([H])C(=O)N3C([H])([H])C([H])([H])C([H])([H])C([H])(n4nc(-c5c([H])c([H])c(Oc6c([H])c([H])c(F)c([H])c6F)c([H])c5[H])c(C(=O)N([H])[H])c4N([H])[H])C3([H])[H])c([H])c([H])c2C1([H])[H]

>  <smiles>  (6) 
[H]c1c([H])c([H])c2c(c1[H])C([H])([H])C([H])([H])C([H])([H])C2([H])N([H])C(=O)C1([H])N(C(=O)C([H])(N([H])C(=O)C([H])(N([H])C([H])([H])[H])C([H])([H])[H])C(C([H])([H])[H])(C([H])([H])[H])C([H])([H])[H])C([H])([H])c2c([H])c(OC([H])([H])C([H])([H])OC([H])([H])C(=O)N([H])C([H])([H])C([H])([H])C([H])([H])[N+]([H])([H])C([H])([H])C([H])([H])C([H])([H])C([H])([H])N([H])C(=O)N3C([H])([H])C([H])([H])C([H])([H])C([H])(n4nc(-c5c([H])c([H])c(Oc6c([H])c([H])c(F)c([H])c6F)c([H])c5[H])c(C(=O)N([H])[H])c4N([H])[H])C3([H])[H])c([H])c([H])c2C1([H])[H]

$$$$
6:0:0
     RDKit          3D

102109  0  0  1  0  0  0  0  0999 V2000
  -26.8120  -24.4260   24.9410 C   0  0  0  0  0  0  0  0  0  0  0  0
  -27.0020  -24.8370   23.6840 N   0  0  0  0  0  0  0  0  0  0  0  0
  -25.7170  -24.0970   25.4030 O   0  0  0  0  0  0  0  0  0  0  0  0
  -27.9630  -25.0490   23.4530 H   0  0  0  0  0  0  0  0  0  0  0  0
  -26.0330  -24.8960   22.5970 C   0  0  0  0  0  2  0  0  0  0  0  0
  -25.9960  -23.5970   21.7620 C   0  0  0  0  0  2  0  0  0  0  0  0
  -27.3630  -22.9090   21.5240 C   0  0  0  0  0  2  0  0  0  0  0  0
  -28.3870  -23.7290   20.7220 C   0  0  0  0  0  2  0  0  0  0  0  0
  -28.2340  -24.8870   18.4780 C   0  0  0  0  0  0  0  0  0  0  0  0
  -27.9540  -23.8950   19.3370 N   0  0  0  0  0  0  0  0  0  0  0  0
  -27.8930  -24.7870   17.3000 O   0  0  0  0  0  0  0  0  0  0  0  0
  -27.4510  -23.1130   18.9450 H   0  0  0  0  0  0  0  0  0  0  0  0
  -28.9460  -26.1740   18.9370 C   0  0  0  0  0  2  0  0  0  0  0  0
  -28.4020  -26.7550   20.1240 O   0  0  0  0  0  0  0  0  0  0  0  0
  -24.6100  -31.8690   23.2170 C   0  0  0  0  0  0  0  0  0  0  0  0
  -27.2330  -27.4780   20.0590 C   0  0  0  0  0  0  0  0  0  0  0  0
  -23.3950  -30.4960   21.5570 C   0  0  0  0  0  3  0  0  0  0  0  0
  -24.8400  -28.9790   20.1080 C   0  0  0  0  0  0  0  0  0  0  0  0
  -25.9180  -30.8530   21.3560 C   0  0  0  0  0  2  0  0  0  0  0  0
  -25.9990  -29.4900   20.7030 C   0  0  0  0  0  0  0  0  0  0  0  0
  -27.1950  -28.7410   20.6880 C   0  0  0  0  0  3  0  0  0  0  0  0
  -26.0480  -26.9720   19.4720 C   0  0  0  0  0  3  0  0  0  0  0  0
  -24.8570  -27.7160   19.4960 C   0  0  0  0  0  3  0  0  0  0  0  0
  -23.6000  -29.8380   20.1660 C   0  0  0  0  0  2  0  0  0  0  0  0
  -24.6600  -31.0860   22.1030 N   0  0  0  0  0  0  0  0  0  0  0  0
  -23.5310  -32.1420   23.7590 O   0  0  0  0  0  0  0  0  0  0  0  0
  -22.7390  -29.4640   22.5020 C   0  0  0  0  0  0  0  0  0  0  0  0
  -21.4110  -29.3010   22.3750 N   0  0  0  0  0  0  0  0  0  0  0  0
  -23.4190  -28.8180   23.3030 O   0  0  0  0  0  0  0  0  0  0  0  0
  -20.9280  -29.8680   21.6930 H   0  0  0  0  0  0  0  0  0  0  0  0
  -18.0260  -28.1380   22.8490 C   0  0  0  0  0  0  0  0  0  0  0  0
  -20.5850  -28.3640   23.1350 C   0  0  0  0  0  3  0  0  0  0  0  0
  -20.6760  -26.9390   22.5440 C   0  0  0  0  0  2  0  0  0  0  0  0
  -19.5730  -26.6390   21.5240 C   0  0  0  0  0  2  0  0  0  0  0  0
  -18.1910  -26.7930   22.1630 C   0  0  0  0  0  2  0  0  0  0  0  0
  -19.1520  -28.8820   23.2920 C   0  0  0  0  0  0  0  0  0  0  0  0
  -18.9450  -30.1440   23.8920 C   0  0  0  0  0  3  0  0  0  0  0  0
  -17.6460  -30.6600   24.0560 C   0  0  0  0  0  3  0  0  0  0  0  0
  -16.5350  -29.9110   23.6330 C   0  0  0  0  0  3  0  0  0  0  0  0
  -16.7250  -28.6520   23.0340 C   0  0  0  0  0  3  0  0  0  0  0  0
  -25.9000  -32.4830   23.8410 C   0  0  0  0  0  3  0  0  0  0  0  0
  -26.4510  -31.6620   25.0700 C   0  0  1  0  0  0  0  0  0  0  0  0
  -25.3830  -31.3690   26.1490 C   0  0  0  0  0  1  0  0  0  0  0  0
  -27.0370  -30.3090   24.6040 C   0  0  0  0  0  1  0  0  0  0  0  0
  -27.6090  -32.4370   25.7440 C   0  0  0  0  0  1  0  0  0  0  0  0
  -25.5850  -33.8640   24.2330 N   0  0  0  0  0  0  0  0  0  0  0  0
  -25.9010  -34.9480   23.5110 C   0  0  0  0  0  0  0  0  0  0  0  0
  -26.5590  -34.8930   22.4680 O   0  0  0  0  0  0  0  0  0  0  0  0
  -24.9970  -33.9810   25.0440 H   0  0  0  0  0  0  0  0  0  0  0  0
  -24.1480  -36.7360   23.2640 C   0  0  0  0  0  1  0  0  0  0  0  0
  -25.4090  -36.3120   24.0330 C   0  0  0  0  0  3  0  0  0  0  0  0
  -27.5580  -37.1790   24.8440 C   0  0  0  0  0  1  0  0  0  0  0  0
  -26.4270  -37.3800   23.9420 N   0  0  0  0  0  0  0  0  0  0  0  0
  -26.0170  -38.2860   24.1490 H   0  0  0  0  0  0  0  0  0  0  0  0
  -28.0930  -24.3350   25.7710 C   0  0  0  0  0  2  0  0  0  0  0  0
  -29.0550  -23.6240   24.9970 O   0  0  0  0  0  0  0  0  0  0  0  0
  -30.3190  -23.5360   25.6350 C   0  0  0  0  0  2  0  0  0  0  0  0
  -31.2340  -22.5930   24.8400 C   0  0  0  0  0  2  0  0  0  0  0  0
  -30.8050  -21.2500   25.0120 O   0  0  0  0  0  0  0  0  0  0  0  0
  -31.6240  -20.3130   24.3250 C   0  0  0  0  0  2  0  0  0  0  0  0
  -30.7690  -19.5090   23.3310 C   0  0  0  0  0  2  0  0  0  0  0  0
  -31.3980  -18.2600   23.0950 O   0  0  0  0  0  0  0  0  0  0  0  0
  -30.6720  -17.3910   22.2370 C   0  0  0  0  0  2  0  0  0  0  0  0
  -31.2330  -15.9930   22.5390 C   0  0  0  0  0  2  0  0  0  0  0  0
  -30.7970  -14.3300   20.7330 C   0  0  0  0  0  0  0  0  0  0  0  0
  -30.4220  -12.3230   19.3500 C   0  0  0  0  0  2  0  0  0  0  0  0
  -29.4550  -12.5460   18.1730 C   0  0  0  0  0  2  0  0  0  0  0  0
  -27.9910  -12.3800   18.6130 C   0  0  0  0  0  2  0  0  0  0  0  0
  -27.6620  -13.2030   19.8800 C   0  0  0  0  0  3  0  0  0  0  0  0
  -28.7110  -12.9350   20.9820 C   0  0  0  0  0  2  0  0  0  0  0  0
  -30.0580  -13.2290   20.4490 N   0  0  0  0  0  0  0  0  0  0  0  0
  -31.7560  -14.7090   20.0530 O   0  0  0  0  0  0  0  0  0  0  0  0
  -30.4900  -14.9170   21.8940 N   0  0  0  0  0  0  0  0  0  0  0  0
  -29.7380  -14.5010   22.4210 H   0  0  0  0  0  0  0  0  0  0  0  0
  -25.2590  -13.8080   20.5720 C   0  0  0  0  0  0  0  0  0  0  0  0
  -24.1870  -13.0400   20.9260 C   0  0  0  0  0  0  0  0  0  0  0  0
  -24.6430  -11.6850   20.8850 C   0  0  0  0  0  0  0  0  0  0  0  0
  -26.3030  -12.9290   20.3450 N   0  0  0  0  0  0  0  0  0  0  0  0
  -25.9350  -11.6430   20.5850 N   0  0  0  0  0  0  0  0  0  0  0  0
  -23.9100  -10.4240   21.0500 C   0  0  0  0  0  0  0  0  0  0  0  0
  -24.3640   -9.4100   21.9240 C   0  0  0  0  0  3  0  0  0  0  0  0
  -23.6270   -8.2160   22.0760 C   0  0  0  0  0  3  0  0  0  0  0  0
  -22.4230   -8.0300   21.3580 C   0  0  0  0  0  0  0  0  0  0  0  0
  -21.9910   -9.0310   20.4670 C   0  0  0  0  0  3  0  0  0  0  0  0
  -22.7290  -10.2160   20.3110 C   0  0  0  0  0  3  0  0  0  0  0  0
  -21.6520   -6.8950   21.4310 O   0  0  0  0  0  0  0  0  0  0  0  0
  -21.6780   -6.0770   22.5340 C   0  0  0  0  0  0  0  0  0  0  0  0
  -21.3970   -6.5650   23.8290 C   0  0  0  0  0  3  0  0  0  0  0  0
  -21.3650   -5.6790   24.9240 C   0  0  0  0  0  3  0  0  0  0  0  0
  -21.6030   -4.3060   24.7280 C   0  0  0  0  0  0  0  0  0  0  0  0
  -21.8780   -3.8170   23.4400 C   0  0  0  0  0  3  0  0  0  0  0  0
  -21.9140   -4.6990   22.3460 C   0  0  0  0  0  0  0  0  0  0  0  0
  -22.1600   -4.2180   21.1020 F   0  0  0  0  0  0  0  0  0  0  0  0
  -21.5650   -3.4540   25.7790 F   0  0  0  0  0  0  0  0  0  0  0  0
  -22.7880  -13.5230   21.1870 C   0  0  0  0  0  0  0  0  0  0  0  0
  -22.0470  -12.8340   22.0440 N   0  0  0  0  0  0  0  0  0  0  0  0
  -22.3610  -14.5570   20.6700 O   0  0  0  0  0  0  0  0  0  0  0  0
  -22.3990  -12.0020   22.4940 H   0  0  0  0  0  0  0  0  0  0  0  0
  -21.1160  -13.1570   22.2690 H   0  0  0  0  0  0  0  0  0  0  0  0
  -25.4300  -15.1820   20.4050 N   0  0  0  0  0  0  0  0  0  0  0  0
  -24.6610  -15.8390   20.4770 H   0  0  0  0  0  0  0  0  0  0  0  0
  -26.2860  -15.6080   20.0750 H   0  0  0  0  0  0  0  0  0  0  0  0
  1  3  2  0
  1 55  1  0
  2  1  1  0
  4  2  1  0
  5  2  1  0
  6  5  1  0
  7  6  1  0
  8  7  1  0
  9 13  1  0
  9 10  1  0
 10  8  1  0
 11  9  2  0
 12 10  1  0
 13 14  1  0
 15 26  2  0
 16 14  1  0
 16 21  1  0
 17 25  1  0
 17 27  1  0
 18 24  1  0
 18 20  1  0
 19 25  1  0
 20 19  1  0
 21 20  2  0
 22 23  1  0
 22 16  2  0
 23 18  2  0
 24 17  1  0
 25 15  1  0
 27 29  2  0
 28 27  1  0
 30 28  1  0
 31 40  2  0
 31 36  1  0
 32 28  1  0
 32 36  1  0
 33 32  1  0
 34 35  1  0
 34 33  1  0
 35 31  1  0
 36 37  2  0
 37 38  1  0
 39 38  2  0
 40 39  1  0
 41 15  1  0
 41 46  1  0
 41 42  1  0
 42 45  1  1
 42 43  1  0
 44 42  1  0
 46 49  1  0
 47 51  1  0
 47 46  1  0
 48 47  2  0
 51 50  1  0
 53 51  1  0
 53 54  1  0
 53 52  1  0
 56 57  1  0
 56 55  1  0
 58 59  1  0
 58 57  1  0
 60 59  1  0
 61 60  1  0
 62 61  1  0
 63 64  1  0
 63 62  1  0
 65 73  1  0
 66 71  1  0
 67 68  1  0
 67 66  1  0
 69 68  1  0
 69 78  1  0
 69 70  1  0
 71 65  1  0
 71 70  1  0
 72 65  2  0
 73 74  1  0
 73 64  1  0
 75 76  2  0
 76 95  1  0
 77 76  1  0
 77 80  1  0
 78 75  1  0
 78 79  1  0
 79 77  2  0
 80 81  1  0
 81 82  2  0
 83 86  1  0
 83 82  1  0
 84 83  2  0
 85 84  1  0
 85 80  2  0
 86 87  1  0
 87 88  1  0
 88 89  2  0
 90 89  1  0
 90 94  1  0
 91 90  2  0
 92 87  2  0
 92 91  1  0
 93 92  1  0
 95 96  1  0
 96 99  1  0
 96 98  1  0
 97 95  2  0
100101  1  0
100 75  1  0
102100  1  0
M  ISO  4  13 101  14 101  65 100  73 100
M  END
>  <TORSDO>  (7) 
F 32

>  <SCORE>  (7) 
0.725

>  <name>  (7) 
6

>  <ligand_id>  (7) 
6

>  <original_smiles>  (7) 
[H]c1c([H])c([H])c2c(c1[H])C([H])([H])C([H])([H])C([H])([H])C2([H])N([H])C(=O)C1([H])N(C(=O)C([H])(N([H])C(=O)C([H])(N([H])C([H])([H])[H])C([H])([H])[H])C(C([H])([H])[H])(C([H])([H])[H])C([H])([H])[H])C([H])([H])c2c([H])c(OC([H])([H])C(=O)N([H])C([H])([H])C([H])([H])C([H])([H])C([H])([H])N([H])C(=O)C([H])([H])OC([H])([H])C([H])([H])OC([H])([H])C([H])([H])OC([H])([H])C([H])([H])N([H])C(=O)N3C([H])([H])C([H])([H])C([H])([H])C([H])(n4nc(-c5c([H])c([H])c(Oc6c([H])c([H])c(F)c([H])c6F)c([H])c5[H])c(C(=O)N([H])[H])c4N([H])[H])C3([H])[H])c([H])c([H])c2C1([H])[H]

>  <smiles>  (7) 
[H]c1c([H])c([H])c2c(c1[H])C([H])([H])C([H])([H])C([H])([H])C2([H])N([H])C(=O)C1([H])N(C(=O)C([H])(N([H])C(=O)C([H])(N([H])C([H])([H])[H])C([H])([H])[H])C(C([H])([H])[H])(C([H])([H])[H])C([H])([H])[H])C([H])([H])c2c([H])c(OC([H])([H])C(=O)N([H])C([H])([H])C([H])([H])C([H])([H])C([H])([H])N([H])C(=O)C([H])([H])OC([H])([H])C([H])([H])OC([H])([H])C([H])([H])OC([H])([H])C([H])([H])N([H])C(=O)N3C([H])([H])C([H])([H])C([H])([H])C([H])(n4nc(-c5c([H])c([H])c(Oc6c([H])c([H])c(F)c([H])c6F)c([H])c5[H])c(C(=O)N([H])[H])c4N([H])[H])C3([H])[H])c([H])c([H])c2C1([H])[H]

$$$$
7:0:0
     RDKit          3D

107114  0  0  1  0  0  0  0  0999 V2000
  -24.0450  -21.6030   23.7890 C   0  0  0  0  0  2  0  0  0  0  0  0
  -24.8650  -20.9270   24.7310 O   0  0  0  0  0  0  0  0  0  0  0  0
  -25.8560  -21.7620   25.3170 C   0  0  0  0  0  2  0  0  0  0  0  0
  -27.2700  -21.3560   24.8670 C   0  0  0  0  0  2  0  0  0  0  0  0
  -27.4900  -21.5000   23.4620 O   0  0  0  0  0  0  0  0  0  0  0  0
  -28.8890  -21.5160   23.1530 C   0  0  0  0  0  2  0  0  0  0  0  0
  -29.3250  -20.3660   22.2270 C   0  0  0  0  0  2  0  0  0  0  0  0
  -29.0650  -20.6520   20.8480 O   0  0  0  0  0  0  0  0  0  0  0  0
  -30.0920  -20.1660   19.9780 C   0  0  0  0  0  2  0  0  0  0  0  0
  -29.6100  -20.1540   18.5190 C   0  0  0  0  0  2  0  0  0  0  0  0
  -28.4880  -19.2860   18.3500 O   0  0  0  0  0  0  0  0  0  0  0  0
  -28.7430  -18.1160   17.5690 C   0  0  0  0  0  2  0  0  0  0  0  0
  -28.8750  -16.8380   18.4120 C   0  0  0  0  0  2  0  0  0  0  0  0
  -29.9030  -16.9770   19.3800 O   0  0  0  0  0  0  0  0  0  0  0  0
  -30.3670  -15.7310   19.8610 C   0  0  0  0  0  2  0  0  0  0  0  0
  -31.1240  -15.9150   21.1880 C   0  0  0  0  0  2  0  0  0  0  0  0
  -32.8330  -14.1400   21.1260 C   0  0  0  0  0  0  0  0  0  0  0  0
  -33.7470  -12.0990   20.1090 C   0  0  0  0  0  2  0  0  0  0  0  0
  -32.9280  -11.7790   18.8410 C   0  0  0  0  0  2  0  0  0  0  0  0
  -31.6810  -10.9420   19.1950 C   0  0  0  0  0  2  0  0  0  0  0  0
  -30.8660  -11.5440   20.3730 C   0  0  0  0  0  3  0  0  0  0  0  0
  -31.8060  -11.8850   21.5550 C   0  0  0  0  0  2  0  0  0  0  0  0
  -32.8600  -12.7880   21.0550 N   0  0  0  0  0  0  0  0  0  0  0  0
  -33.6930  -14.8760   20.6300 O   0  0  0  0  0  0  0  0  0  0  0  0
  -31.6940  -14.6390   21.6080 N   0  0  0  0  0  0  0  0  0  0  0  0
  -31.0530  -13.9690   22.0120 H   0  0  0  0  0  0  0  0  0  0  0  0
  -28.4120  -10.8260   20.7070 C   0  0  0  0  0  0  0  0  0  0  0  0
  -27.8530   -9.6670   21.1660 C   0  0  0  0  0  0  0  0  0  0  0  0
  -28.9480   -8.8100   21.5040 C   0  0  0  0  0  0  0  0  0  0  0  0
  -29.7850  -10.6510   20.7850 N   0  0  0  0  0  0  0  0  0  0  0  0
  -30.0990   -9.4420   21.3180 N   0  0  0  0  0  0  0  0  0  0  0  0
  -28.9680   -7.4100   21.9390 C   0  0  0  0  0  0  0  0  0  0  0  0
  -29.6960   -6.9990   23.0770 C   0  0  0  0  0  3  0  0  0  0  0  0
  -29.6860   -5.6480   23.4860 C   0  0  0  0  0  3  0  0  0  0  0  0
  -28.9420   -4.6910   22.7560 C   0  0  0  0  0  0  0  0  0  0  0  0
  -28.2370   -5.1010   21.6100 C   0  0  0  0  0  3  0  0  0  0  0  0
  -28.2540   -6.4450   21.2020 C   0  0  0  0  0  3  0  0  0  0  0  0
  -28.8950   -3.3540   23.0630 O   0  0  0  0  0  0  0  0  0  0  0  0
  -29.0910   -2.9020   24.3430 C   0  0  0  0  0  0  0  0  0  0  0  0
  -28.3600   -3.4210   25.4350 C   0  0  0  0  0  3  0  0  0  0  0  0
  -28.5400   -2.8770   26.7230 C   0  0  0  0  0  3  0  0  0  0  0  0
  -29.4410   -1.8160   26.9210 C   0  0  0  0  0  0  0  0  0  0  0  0
  -30.1680   -1.2970   25.8350 C   0  0  0  0  0  3  0  0  0  0  0  0
  -29.9890   -1.8370   24.5490 C   0  0  0  0  0  0  0  0  0  0  0  0
  -30.6760   -1.3190   23.5020 F   0  0  0  0  0  0  0  0  0  0  0  0
  -29.6090   -1.2890   28.1570 F   0  0  0  0  0  0  0  0  0  0  0  0
  -26.3910   -9.3270   21.2070 C   0  0  0  0  0  0  0  0  0  0  0  0
  -25.9830   -8.4920   22.1530 N   0  0  0  0  0  0  0  0  0  0  0  0
  -25.5930   -9.8470   20.4280 O   0  0  0  0  0  0  0  0  0  0  0  0
  -26.6390   -8.0800   22.8020 H   0  0  0  0  0  0  0  0  0  0  0  0
  -25.0030   -8.2670   22.2350 H   0  0  0  0  0  0  0  0  0  0  0  0
  -27.8670  -12.0120   20.2180 N   0  0  0  0  0  0  0  0  0  0  0  0
  -26.8660  -12.1440   20.1340 H   0  0  0  0  0  0  0  0  0  0  0  0
  -28.4000  -12.7940   19.8640 H   0  0  0  0  0  0  0  0  0  0  0  0
  -23.4940  -20.5770   22.7800 C   0  0  0  0  0  2  0  0  0  0  0  0
  -23.9550  -20.8310   21.4560 O   0  0  0  0  0  0  0  0  0  0  0  0
  -23.2750  -21.8960   20.8020 C   0  0  0  0  0  2  0  0  0  0  0  0
  -23.8250  -22.0640   19.3730 C   0  0  0  0  0  2  0  0  0  0  0  0
  -24.6160  -23.2430   19.2890 O   0  0  0  0  0  0  0  0  0  0  0  0
  -25.9880  -23.0710   19.6230 C   0  0  0  0  0  2  0  0  0  0  0  0
  -26.4510  -24.2830   20.4530 C   0  0  0  0  0  2  0  0  0  0  0  0
  -27.5310  -25.0670   19.8040 N   0  0  0  0  0  4  0  0  0  0  0  0
  -28.2910  -24.4310   19.5700 H   0  0  0  0  0  0  0  0  0  0  0  0
  -27.1660  -25.4400   18.9380 H   0  0  0  0  0  0  0  0  0  0  0  0
  -28.0740  -26.1750   20.6390 C   0  0  0  0  0  2  0  0  0  0  0  0
  -28.9530  -27.1730   19.8190 C   0  0  0  0  0  2  0  0  0  0  0  0
  -28.9600  -28.5160   20.3260 O   0  0  0  0  0  0  0  0  0  0  0  0
  -25.1260  -32.9720   24.2790 C   0  0  0  0  0  0  0  0  0  0  0  0
  -27.7630  -29.2030   20.4200 C   0  0  0  0  0  0  0  0  0  0  0  0
  -23.8930  -31.8240   22.4650 C   0  0  0  0  0  3  0  0  0  0  0  0
  -25.3290  -30.5900   20.7760 C   0  0  0  0  0  0  0  0  0  0  0  0
  -26.3940  -32.3000   22.2460 C   0  0  0  0  0  2  0  0  0  0  0  0
  -26.4940  -31.0540   21.3950 C   0  0  0  0  0  0  0  0  0  0  0  0
  -27.7140  -30.3620   21.2220 C   0  0  0  0  0  3  0  0  0  0  0  0
  -26.5750  -28.7700   19.7810 C   0  0  0  0  0  3  0  0  0  0  0  0
  -25.3560  -29.4380   19.9760 C   0  0  0  0  0  3  0  0  0  0  0  0
  -24.0790  -31.3950   20.9850 C   0  0  0  0  0  2  0  0  0  0  0  0
  -25.1580  -32.3730   23.0580 N   0  0  0  0  0  0  0  0  0  0  0  0
  -24.0600  -33.1120   24.8930 O   0  0  0  0  0  0  0  0  0  0  0  0
  -23.3010  -30.6350   23.2610 C   0  0  0  0  0  0  0  0  0  0  0  0
  -22.0100  -30.3380   23.0290 N   0  0  0  0  0  0  0  0  0  0  0  0
  -24.0020  -29.9890   24.0450 O   0  0  0  0  0  0  0  0  0  0  0  0
  -21.5010  -30.9080   22.3690 H   0  0  0  0  0  0  0  0  0  0  0  0
  -18.8080  -28.6730   23.0580 C   0  0  0  0  0  0  0  0  0  0  0  0
  -21.2530  -29.2570   23.6620 C   0  0  0  0  0  3  0  0  0  0  0  0
  -21.6170  -27.8790   23.0630 C   0  0  0  0  0  2  0  0  0  0  0  0
  -20.7140  -27.4840   21.8880 C   0  0  0  0  0  2  0  0  0  0  0  0
  -19.2500  -27.4130   22.3310 C   0  0  0  0  0  2  0  0  0  0  0  0
  -19.7480  -29.5470   23.6670 C   0  0  0  0  0  0  0  0  0  0  0  0
  -19.2850  -30.7200   24.2990 C   0  0  0  0  0  3  0  0  0  0  0  0
  -17.9120  -31.0270   24.3320 C   0  0  0  0  0  3  0  0  0  0  0  0
  -16.9860  -30.1500   23.7450 C   0  0  0  0  0  3  0  0  0  0  0  0
  -17.4330  -28.9770   23.1120 C   0  0  0  0  0  3  0  0  0  0  0  0
  -26.4220  -33.5360   24.9480 C   0  0  0  0  0  3  0  0  0  0  0  0
  -26.9660  -32.6180   26.1120 C   0  0  1  0  0  0  0  0  0  0  0  0
  -25.8930  -32.2430   27.1580 C   0  0  0  0  0  1  0  0  0  0  0  0
  -27.5430  -31.3040   25.5400 C   0  0  0  0  0  1  0  0  0  0  0  0
  -28.1290  -33.3270   26.8450 C   0  0  0  0  0  1  0  0  0  0  0  0
  -26.1130  -34.8810   25.4440 N   0  0  0  0  0  0  0  0  0  0  0  0
  -26.4420  -36.0160   24.8130 C   0  0  0  0  0  0  0  0  0  0  0  0
  -27.1140  -36.0370   23.7780 O   0  0  0  0  0  0  0  0  0  0  0  0
  -25.5300  -34.9380   26.2690 H   0  0  0  0  0  0  0  0  0  0  0  0
  -24.7240  -37.8360   24.6700 C   0  0  0  0  0  1  0  0  0  0  0  0
  -25.9590  -37.3380   25.4330 C   0  0  0  0  0  3  0  0  0  0  0  0
  -28.0930  -38.1110   26.3680 C   0  0  0  0  0  1  0  0  0  0  0  0
  -26.9910  -38.3950   25.4500 N   0  0  0  0  0  0  0  0  0  0  0  0
  -26.5840  -39.2880   25.7120 H   0  0  0  0  0  0  0  0  0  0  0  0
  1  2  1  0
  2  3  1  0
  4  3  1  0
  5  4  1  0
  6  5  1  0
  7  6  1  0
  8  7  1  0
  9  8  1  0
 10  9  1  0
 11 10  1  0
 12 11  1  0
 12 13  1  0
 13 14  1  0
 14 15  1  0
 15 16  1  0
 16 25  1  0
 17 25  1  0
 18 23  1  0
 19 20  1  0
 19 18  1  0
 21 20  1  0
 21 30  1  0
 21 22  1  0
 23 17  1  0
 23 22  1  0
 24 17  2  0
 25 26  1  0
 27 30  1  0
 27 28  2  0
 28 47  1  0
 28 29  1  0
 29 32  1  0
 30 31  1  0
 31 29  2  0
 32 33  1  0
 33 34  2  0
 35 38  1  0
 35 34  1  0
 36 35  2  0
 37 36  1  0
 37 32  2  0
 38 39  1  0
 39 44  2  0
 39 40  1  0
 40 41  2  0
 41 42  1  0
 42 46  1  0
 43 42  2  0
 44 43  1  0
 45 44  1  0
 47 48  1  0
 48 51  1  0
 48 50  1  0
 49 47  2  0
 52 27  1  0
 53 52  1  0
 54 52  1  0
 55  1  1  0
 56 55  1  0
 57 56  1  0
 58 57  1  0
 59 58  1  0
 59 60  1  0
 60 61  1  0
 62 61  1  0
 62 65  1  0
 63 62  1  0
 64 62  1  0
 66 67  1  0
 66 65  1  0
 67 69  1  0
 68 79  2  0
 69 74  1  0
 70 78  1  0
 70 80  1  0
 71 77  1  0
 71 73  1  0
 72 78  1  0
 73 72  1  0
 74 73  2  0
 75 76  1  0
 75 69  2  0
 76 71  2  0
 77 70  1  0
 78 68  1  0
 80 82  2  0
 81 80  1  0
 83 81  1  0
 84 93  2  0
 84 89  1  0
 85 81  1  0
 85 89  1  0
 86 85  1  0
 87 88  1  0
 87 86  1  0
 88 84  1  0
 89 90  2  0
 90 91  1  0
 92 91  2  0
 93 92  1  0
 94 68  1  0
 94 99  1  0
 94 95  1  0
 95 98  1  1
 95 96  1  0
 97 95  1  0
 99102  1  0
100104  1  0
100 99  1  0
101100  2  0
104103  1  0
104106  1  0
106107  1  0
106105  1  0
M  ISO  4  17 100  25 100  66 101  67 101
M  END
>  <TORSDO>  (8) 
F 41

>  <SCORE>  (8) 
36.107

>  <name>  (8) 
7

>  <ligand_id>  (8) 
7

>  <original_smiles>  (8) 
[H]c1c([H])c([H])c2c(c1[H])C([H])([H])C([H])([H])C([H])([H])C2([H])N([H])C(=O)C1([H])N(C(=O)C([H])(N([H])C(=O)C([H])(N([H])C([H])([H])[H])C([H])([H])[H])C(C([H])([H])[H])(C([H])([H])[H])C([H])([H])[H])C([H])([H])c2c([H])c(OC([H])([H])C([H])([H])[N+]([H])([H])C([H])([H])C([H])([H])OC([H])([H])C([H])([H])OC([H])([H])C([H])([H])OC([H])([H])C([H])([H])OC([H])([H])C([H])([H])OC([H])([H])C([H])([H])OC([H])([H])C([H])([H])OC([H])([H])C([H])([H])N([H])C(=O)N3C([H])([H])C([H])([H])C([H])([H])C([H])(n4nc(-c5c([H])c([H])c(Oc6c([H])c([H])c(F)c([H])c6F)c([H])c5[H])c(C(=O)N([H])[H])c4N([H])[H])C3([H])[H])c([H])c([H])c2C1([H])[H]

>  <smiles>  (8) 
[H]c1c([H])c([H])c2c(c1[H])C([H])([H])C([H])([H])C([H])([H])C2([H])N([H])C(=O)C1([H])N(C(=O)C([H])(N([H])C(=O)C([H])(N([H])C([H])([H])[H])C([H])([H])[H])C(C([H])([H])[H])(C([H])([H])[H])C([H])([H])[H])C([H])([H])c2c([H])c(OC([H])([H])C([H])([H])[N+]([H])([H])C([H])([H])C([H])([H])OC([H])([H])C([H])([H])OC([H])([H])C([H])([H])OC([H])([H])C([H])([H])OC([H])([H])C([H])([H])OC([H])([H])C([H])([H])OC([H])([H])C([H])([H])OC([H])([H])C([H])([H])N([H])C(=O)N3C([H])([H])C([H])([H])C([H])([H])C([H])(n4nc(-c5c([H])c([H])c(Oc6c([H])c([H])c(F)c([H])c6F)c([H])c5[H])c(C(=O)N([H])[H])c4N([H])[H])C3([H])[H])c([H])c([H])c2C1([H])[H]

$$$$
8:0:0
     RDKit          3D

108117  0  0  1  0  0  0  0  0999 V2000
  -25.8270  -22.3040   17.5250 C   0  0  0  0  0  2  0  0  0  0  0  0
  -25.9000  -20.8310   17.9500 C   0  0  0  0  0  0  0  0  0  0  0  0
  -27.1050  -20.2910   18.1280 N   0  0  0  0  0  0  0  0  0  0  0  0
  -24.8780  -20.1720   18.1500 O   0  0  0  0  0  0  0  0  0  0  0  0
  -27.1230  -19.3140   18.3890 H   0  0  0  0  0  0  0  0  0  0  0  0
  -28.3970  -20.9130   17.8480 C   0  0  0  0  0  2  0  0  0  0  0  0
  -29.0570  -21.6780   19.0230 C   0  0  0  0  0  2  0  0  0  0  0  0
  -29.0890  -20.9460   20.3870 C   0  0  0  0  0  2  0  0  0  0  0  0
  -29.6340  -21.8170   21.4570 N   0  0  0  0  0  4  0  0  0  0  0  0
  -28.8600  -22.2880   21.9020 H   0  0  0  0  0  0  0  0  0  0  0  0
  -30.2210  -22.5310   21.0480 H   0  0  0  0  0  0  0  0  0  0  0  0
  -30.4480  -21.1450   22.4960 C   0  0  0  0  0  2  0  0  0  0  0  0
  -31.7550  -20.5180   21.9580 C   0  0  0  0  0  2  0  0  0  0  0  0
  -32.4990  -21.4370   21.1440 O   0  0  0  0  0  0  0  0  0  0  0  0
  -32.1160  -23.3000   14.2890 C   0  0  0  0  0  0  0  0  0  0  0  0
  -32.8560  -21.1030   19.8510 C   0  0  0  0  0  0  0  0  0  0  0  0
  -32.9820  -21.0300   14.7340 C   0  0  0  0  0  3  0  0  0  0  0  0
  -33.5410  -20.5250   17.1630 C   0  0  0  0  0  0  0  0  0  0  0  0
  -33.2450  -22.8950   16.4670 C   0  0  0  0  0  2  0  0  0  0  0  0
  -33.1930  -21.8270   17.5320 C   0  0  0  0  0  0  0  0  0  0  0  0
  -32.8320  -22.1180   18.8680 C   0  0  0  0  0  3  0  0  0  0  0  0
  -33.2790  -19.8100   19.4610 C   0  0  0  0  0  3  0  0  0  0  0  0
  -33.5910  -19.5150   18.1250 C   0  0  0  0  0  3  0  0  0  0  0  0
  -33.9100  -20.2820   15.7180 C   0  0  0  0  0  2  0  0  0  0  0  0
  -32.7370  -22.4490   15.1490 N   0  0  0  0  0  0  0  0  0  0  0  0
  -31.7830  -22.9330   13.1530 O   0  0  0  0  0  0  0  0  0  0  0  0
  -31.6830  -20.2090   14.5550 C   0  0  0  0  0  0  0  0  0  0  0  0
  -31.6410  -19.3770   13.5010 N   0  0  0  0  0  0  0  0  0  0  0  0
  -30.7570  -20.3090   15.3640 O   0  0  0  0  0  0  0  0  0  0  0  0
  -32.4390  -19.3620   12.8790 H   0  0  0  0  0  0  0  0  0  0  0  0
  -29.8780  -17.8600   10.7390 C   0  0  0  0  0  0  0  0  0  0  0  0
  -30.5340  -18.4840   13.1580 C   0  0  0  0  0  3  0  0  0  0  0  0
  -30.9410  -17.0000   13.3190 C   0  0  0  0  0  2  0  0  0  0  0  0
  -31.4770  -16.3790   12.0280 C   0  0  0  0  0  2  0  0  0  0  0  0
  -30.4160  -16.4490   10.9260 C   0  0  0  0  0  2  0  0  0  0  0  0
  -29.9500  -18.8200   11.7810 C   0  0  0  0  0  0  0  0  0  0  0  0
  -29.4730  -20.1270   11.5410 C   0  0  0  0  0  3  0  0  0  0  0  0
  -28.9310  -20.4790   10.2920 C   0  0  0  0  0  3  0  0  0  0  0  0
  -28.8460  -19.5190    9.2680 C   0  0  0  0  0  3  0  0  0  0  0  0
  -29.3160  -18.2130    9.4950 C   0  0  0  0  0  3  0  0  0  0  0  0
  -31.8150  -24.7770   14.6830 C   0  0  0  0  0  3  0  0  0  0  0  0
  -32.1880  -25.6210   13.5410 N   0  0  0  0  0  0  0  0  0  0  0  0
  -33.3910  -26.1860   13.3790 C   0  0  0  0  0  0  0  0  0  0  0  0
  -34.2890  -26.1100   14.2230 O   0  0  0  0  0  0  0  0  0  0  0  0
  -31.5250  -25.6740   12.7820 H   0  0  0  0  0  0  0  0  0  0  0  0
  -34.7350  -26.2490   11.2520 C   0  0  0  0  0  1  0  0  0  0  0  0
  -33.6400  -26.9560   12.0690 C   0  0  0  0  0  3  0  0  0  0  0  0
  -32.9210  -29.1840   12.8050 C   0  0  0  0  0  1  0  0  0  0  0  0
  -34.0140  -28.3700   12.2830 N   0  0  0  0  0  0  0  0  0  0  0  0
  -34.3380  -28.7910   11.4170 H   0  0  0  0  0  0  0  0  0  0  0  0
  -30.3090  -25.0170   15.0890 C   0  0  1  0  0  0  0  0  0  0  0  0
  -29.3540  -25.1340   13.8790 C   0  0  0  0  0  1  0  0  0  0  0  0
  -29.7950  -23.8700   15.9920 C   0  0  0  0  0  1  0  0  0  0  0  0
  -30.1960  -26.3150   15.9220 C   0  0  0  0  0  1  0  0  0  0  0  0
  -23.8350  -23.2140   18.7000 C   0  0  0  0  0  0  0  0  0  0  0  0
  -24.4770  -22.8200   17.6040 N   0  0  0  0  0  0  0  0  0  0  0  0
  -22.6370  -23.4700   18.5900 O   0  0  0  0  0  0  0  0  0  0  0  0
  -23.9350  -22.7710   16.7510 H   0  0  0  0  0  0  0  0  0  0  0  0
  -24.7720  -26.1500   19.1490 C   0  0  0  0  0  3  0  0  0  0  0  0
  -24.2290  -24.3900   22.4800 C   0  0  0  0  0  2  0  0  0  0  0  0
  -26.5810  -24.2650   21.6780 C   0  0  0  0  0  2  0  0  0  0  0  0
  -24.5600  -23.3390   20.0890 C   0  0  0  0  0  3  0  0  0  0  0  0
  -23.9690  -24.4760   20.9450 C   0  0  0  0  0  3  0  0  0  0  0  0
  -25.8590  -24.2090   20.2770 C   0  0  0  0  0  3  0  0  0  0  0  0
  -24.9790  -25.3830   20.3080 N   0  0  0  0  0  0  0  0  0  0  0  0
  -25.6220  -24.8390   22.6790 N   0  0  2  0  0  4  0  0  0  0  0  0
  -24.5560  -27.3550   19.2160 O   0  0  0  0  0  0  0  0  0  0  0  0
  -25.4190  -25.5190   21.9470 H   0  0  0  0  0  0  0  0  0  0  0  0
  -25.9520  -26.0060   23.5600 C   0  0  0  0  0  2  0  0  0  0  0  0
  -24.7720  -26.9130   24.0620 C   0  0  0  0  0  2  0  0  0  0  0  0
  -24.0210  -29.2490   23.4010 C   0  0  0  0  0  0  0  0  0  0  0  0
  -21.9030  -30.4800   23.1000 C   0  0  0  0  0  2  0  0  0  0  0  0
  -20.7840  -29.6030   23.7030 C   0  0  0  0  0  2  0  0  0  0  0  0
  -20.2740  -28.5610   22.6850 C   0  0  0  0  0  2  0  0  0  0  0  0
  -21.4250  -27.7990   21.9870 C   0  0  0  0  0  3  0  0  0  0  0  0
  -22.4960  -28.7830   21.4660 C   0  0  0  0  0  2  0  0  0  0  0  0
  -22.9650  -29.5840   22.6110 N   0  0  0  0  0  0  0  0  0  0  0  0
  -24.3630  -29.9050   24.3910 O   0  0  0  0  0  0  0  0  0  0  0  0
  -24.5280  -28.0290   23.1210 N   0  0  0  0  0  0  0  0  0  0  0  0
  -24.2600  -27.7270   22.1950 H   0  0  0  0  0  0  0  0  0  0  0  0
  -20.3710  -25.6690   21.0280 C   0  0  0  0  0  0  0  0  0  0  0  0
  -20.0100  -25.2890   19.7710 C   0  0  0  0  0  0  0  0  0  0  0  0
  -20.3750  -26.3850   18.9340 C   0  0  0  0  0  0  0  0  0  0  0  0
  -20.9270  -26.9260   20.9280 N   0  0  0  0  0  0  0  0  0  0  0  0
  -20.9740  -27.3370   19.6390 N   0  0  0  0  0  0  0  0  0  0  0  0
  -20.1290  -26.6140   17.5130 C   0  0  0  0  0  0  0  0  0  0  0  0
  -21.0810  -26.2550   16.5360 C   0  0  0  0  0  3  0  0  0  0  0  0
  -20.8140  -26.4720   15.1690 C   0  0  0  0  0  3  0  0  0  0  0  0
  -19.5850  -27.0470   14.7710 C   0  0  0  0  0  0  0  0  0  0  0  0
  -18.6520  -27.4270   15.7520 C   0  0  0  0  0  3  0  0  0  0  0  0
  -18.9220  -27.2180   17.1130 C   0  0  0  0  0  3  0  0  0  0  0  0
  -19.2490  -27.3120   13.4660 O   0  0  0  0  0  0  0  0  0  0  0  0
  -19.2820  -26.3340   12.5050 C   0  0  0  0  0  0  0  0  0  0  0  0
  -18.3800  -25.2480   12.5180 C   0  0  0  0  0  3  0  0  0  0  0  0
  -18.4010  -24.3040   11.4730 C   0  0  0  0  0  3  0  0  0  0  0  0
  -19.3140  -24.4480   10.4110 C   0  0  0  0  0  0  0  0  0  0  0  0
  -20.2130  -25.5290   10.3960 C   0  0  0  0  0  3  0  0  0  0  0  0
  -20.1950  -26.4720   11.4390 C   0  0  0  0  0  0  0  0  0  0  0  0
  -21.0480  -27.5230   11.4120 F   0  0  0  0  0  0  0  0  0  0  0  0
  -19.3290  -23.5460    9.4020 F   0  0  0  0  0  0  0  0  0  0  0  0
  -19.2740  -24.0390   19.3830 C   0  0  0  0  0  0  0  0  0  0  0  0
  -19.7760  -23.3200   18.3880 N   0  0  0  0  0  0  0  0  0  0  0  0
  -18.2650  -23.6740   19.9900 O   0  0  0  0  0  0  0  0  0  0  0  0
  -20.6040  -23.6220   17.8970 H   0  0  0  0  0  0  0  0  0  0  0  0
  -19.3280  -22.4610   18.1090 H   0  0  0  0  0  0  0  0  0  0  0  0
  -20.2390  -25.0880   22.2650 N   0  0  0  0  0  0  0  0  0  0  0  0
  -19.6740  -24.2500   22.2070 H   0  0  0  0  0  0  0  0  0  0  0  0
  -19.8690  -25.7580   22.9240 H   0  0  0  0  0  0  0  0  0  0  0  0
  1 56  1  0
  1  2  1  0
  2  3  1  0
  2  4  2  0
  3  5  1  0
  6  3  1  0
  6  7  1  0
  7  8  1  0
  8  9  1  0
  9 10  1  0
  9 12  1  0
 11  9  1  0
 13 12  1  0
 14 13  1  0
 15 25  1  0
 16 14  1  0
 17 27  1  0
 17 25  1  0
 17 24  1  0
 18 20  2  0
 18 23  1  0
 19 20  1  0
 20 21  1  0
 21 16  2  0
 22 16  1  0
 23 22  2  0
 24 18  1  0
 25 19  1  0
 26 15  2  0
 27 29  2  0
 28 27  1  0
 30 28  1  0
 31 35  1  0
 31 36  1  0
 32 33  1  0
 32 28  1  0
 34 33  1  0
 35 34  1  0
 36 32  1  0
 37 36  2  0
 38 37  1  0
 39 40  1  0
 39 38  2  0
 40 31  2  0
 41 15  1  0
 41 51  1  0
 42 41  1  0
 43 42  1  0
 43 44  2  0
 45 42  1  0
 47 46  1  0
 47 49  1  0
 47 43  1  0
 49 48  1  0
 50 49  1  0
 51 54  1  1
 51 53  1  0
 52 51  1  0
 56 55  1  0
 57 55  2  0
 58 56  1  0
 59 67  2  0
 59 65  1  0
 60 66  1  0
 61 66  1  0
 62 55  1  0
 62 64  1  0
 62 63  1  0
 63 60  1  0
 64 65  1  0
 64 61  1  0
 65 63  1  0
 66 69  1  0
 66 68  1  1
 69 70  1  0
 71 78  2  0
 72 73  1  0
 74 73  1  0
 75 84  1  0
 75 74  1  0
 76 75  1  0
 76 77  1  0
 77 72  1  0
 77 71  1  0
 79 71  1  0
 79 70  1  0
 80 79  1  0
 81106  1  0
 82 81  2  0
 83 85  2  0
 83 82  1  0
 84 81  1  0
 85 84  1  0
 86 83  1  0
 87 86  2  0
 88 87  1  0
 89 88  2  0
 89 90  1  0
 90 91  2  0
 91 86  1  0
 92 89  1  0
 93 94  1  0
 93 92  1  0
 95 94  2  0
 96 95  1  0
 97 96  2  0
 97 98  1  0
 98 93  2  0
 99 98  1  0
100 96  1  0
101 82  1  0
101103  2  0
102101  1  0
104102  1  0
105102  1  0
106108  1  0
107106  1  0
M  ISO  4  13 101  14 101  71 100  79 100
M  END
>  <TORSDO>  (9) 
F 27

>  <SCORE>  (9) 
-6.022

>  <name>  (9) 
8

>  <ligand_id>  (9) 
8

>  <original_smiles>  (9) 
[H]C(=O)N1C2([H])C([H])(C(=O)N([H])C([H])([H])C(=O)N([H])C([H])([H])C([H])([H])C([H])([H])[N+]([H])([H])C([H])([H])C([H])([H])Oc3c([H])c([H])c4c(c3[H])C([H])([H])N(C(=O)C([H])(N([H])C(=O)C([H])(N([H])C([H])([H])[H])C([H])([H])[H])C(C([H])([H])[H])(C([H])([H])[H])C([H])([H])[H])C([H])(C(=O)N([H])C3([H])c5c([H])c([H])c([H])c([H])c5C([H])([H])C([H])([H])C3([H])[H])C4([H])[H])C1([H])C([H])([H])[N+]([H])(C([H])([H])C([H])([H])N([H])C(=O)N1C([H])([H])C([H])([H])C([H])([H])C([H])(n3nc(-c4c([H])c([H])c(Oc5c([H])c([H])c(F)c([H])c5F)c([H])c4[H])c(C(=O)N([H])[H])c3N([H])[H])C1([H])[H])C2([H])[H]

>  <smiles>  (9) 
[H]C(=O)N1C2([H])C([H])(C(=O)N([H])C([H])([H])C(=O)N([H])C([H])([H])C([H])([H])C([H])([H])[N+]([H])([H])C([H])([H])C([H])([H])Oc3c([H])c([H])c4c(c3[H])C([H])([H])N(C(=O)C([H])(N([H])C(=O)C([H])(N([H])C([H])([H])[H])C([H])([H])[H])C(C([H])([H])[H])(C([H])([H])[H])C([H])([H])[H])C([H])(C(=O)N([H])C3([H])c5c([H])c([H])c([H])c([H])c5C([H])([H])C([H])([H])C3([H])[H])C4([H])[H])C1([H])C([H])([H])[N+]([H])(C([H])([H])C([H])([H])N([H])C(=O)N1C([H])([H])C([H])([H])C([H])([H])C([H])(n3nc(-c4c([H])c([H])c(Oc5c([H])c([H])c(F)c([H])c5F)c([H])c4[H])c(C(=O)N([H])[H])c3N([H])[H])C1([H])[H])C2([H])[H]

$$$$
9:0:0
     RDKit          3D

108113  0  0  1  0  0  0  0  0999 V2000
  -24.9950   -8.6280   24.4470 C   0  0  0  0  0  3  0  0  0  0  0  0
  -23.6050   -9.4960   25.0030 C   0  0  0  0  0  3  0  0  0  0  0  0
  -25.5320   -8.3790   22.8230 C   0  0  0  0  0  2  0  0  0  0  0  0
  -22.4080  -10.3420   24.0760 C   0  0  0  0  0  2  0  0  0  0  0  0
  -24.6920   -9.0520   21.4350 C   0  0  2  0  0  0  0  0  0  0  0  0
  -22.4820  -10.5050   22.3060 C   0  0  0  0  0  3  0  0  0  0  0  0
  -25.5540   -8.8630   20.1230 C   0  0  0  0  0  2  0  0  0  0  0  0
  -27.1440   -8.8810   20.2170 C   0  0  0  0  0  2  0  0  0  0  0  0
  -29.2240  -10.3780   20.1580 C   0  0  0  0  0  0  0  0  0  0  0  0
  -27.8770  -10.1690   20.2680 N   0  0  0  0  0  0  0  0  0  0  0  0
  -29.9730   -9.4040   20.0570 O   0  0  0  0  0  0  0  0  0  0  0  0
  -27.3100  -11.0140   20.3830 H   0  0  0  0  0  0  0  0  0  0  0  0
  -29.8720  -11.8740   20.3340 C   0  0  0  0  0  1  0  0  0  0  0  0
  -31.1690  -15.0030   18.7180 C   0  0  0  0  0  0  0  0  0  0  0  0
  -30.5800  -13.7730   18.9930 N   0  0  0  0  0  0  0  0  0  0  0  0
  -31.1160  -15.4330   17.5690 O   0  0  0  0  0  0  0  0  0  0  0  0
  -29.9510  -13.6540   18.2050 H   0  0  0  0  0  0  0  0  0  0  0  0
  -31.9400  -15.8910   19.7510 C   0  0  0  0  0  2  0  0  0  0  0  0
  -32.8890  -14.0210   20.7730 C   0  0  0  0  0  0  0  0  0  0  0  0
  -32.3750  -11.9120   19.2640 C   0  0  0  0  0  1  0  0  0  0  0  0
  -31.0080  -11.6450   17.7140 C   0  0  0  0  0 15  0  0  0  0  0  0
  -29.1300  -12.5100   17.9350 C   0  0  0  0  0 15  0  0  0  0  0  0
  -28.8570  -13.6800   19.5970 C   0  0  0  0  0  2  0  0  0  0  0  0
  -30.2610  -13.7400   21.0430 C   0  0  0  0  0  1  0  0  0  0  0  0
  -31.9560  -13.0410   20.7240 N   0  0  0  0  0  0  0  0  0  0  0  0
  -33.9660  -13.9890   20.1960 O   0  0  0  0  0  0  0  0  0  0  0  0
  -32.3780  -15.2200   20.9770 N   0  0  0  0  0  0  0  0  0  0  0  0
  -31.6650  -15.1910   21.6890 H   0  0  0  0  0  0  0  0  0  0  0  0
  -27.0540  -14.5830   20.8920 C   0  0  0  0  0  0  0  0  0  0  0  0
  -25.8790  -14.0190   21.1850 C   0  0  0  0  0  0  0  0  0  0  0  0
  -25.9310  -12.8900   20.3160 C   0  0  0  0  0  3  0  0  0  0  0  0
  -27.6650  -13.6470   20.1380 N   0  0  0  0  0  0  0  0  0  0  0  0
  -27.0460  -12.5640   19.8830 N   0  0  0  0  0  2  0  0  0  0  0  0
  -25.1980  -11.8630   20.0200 C   0  0  0  0  0  3  0  0  0  0  0  0
  -25.2840  -10.8830   21.3750 C   0  0  0  0  0  2  0  0  0  0  0  0
  -23.3660   -9.3690   21.4340 C   0  0  0  0  0  3  0  0  0  0  0  0
  -22.3440   -9.5270   20.1570 C   0  0  0  0  0  0  0  0  0  0  0  0
  -22.6240  -10.6740   18.9780 C   0  0  0  0  0  3  0  0  0  0  0  0
  -23.9440  -11.7440   18.8770 C   0  0  0  0  0  2  0  0  0  0  0  0
  -21.3510   -8.5970   20.0310 O   0  0  0  0  0  0  0  0  0  0  0  0
  -21.3000   -7.5100   20.8890 C   0  0  0  0  0  0  0  0  0  0  0  0
  -21.2990   -7.6630   22.2990 C   0  0  0  0  0  3  0  0  0  0  0  0
  -21.2360   -6.5540   23.1580 C   0  0  0  0  0  3  0  0  0  0  0  0
  -21.0150   -5.2790   22.6080 C   0  0  0  0  0  0  0  0  0  0  0  0
  -20.9600   -5.1130   21.2130 C   0  0  0  0  0  3  0  0  0  0  0  0
  -21.1250   -6.2220   20.3560 C   0  0  0  0  0  0  0  0  0  0  0  0
  -21.0610   -6.0470   19.0160 F   0  0  0  0  0  0  0  0  0  0  0  0
  -20.8160   -4.2250   23.4290 F   0  0  0  0  0  0  0  0  0  0  0  0
  -24.7960  -14.6540   22.0180 C   0  0  0  0  0  0  0  0  0  0  0  0
  -23.9590  -13.9780   22.7210 N   0  0  0  0  0  0  0  0  0  0  0  0
  -24.4380  -15.8060   21.8990 O   0  0  0  0  0  0  0  0  0  0  0  0
  -24.0470  -12.9740   22.8330 H   0  0  0  0  0  0  0  0  0  0  0  0
  -23.2350  -14.4800   23.2140 H   0  0  0  0  0  0  0  0  0  0  0  0
  -27.6530  -15.7960   21.1550 N   0  0  0  0  0  0  0  0  0  0  0  0
  -27.2530  -16.4510   21.8120 H   0  0  0  0  0  0  0  0  0  0  0  0
  -28.6220  -15.9950   20.9430 H   0  0  0  0  0  0  0  0  0  0  0  0
  -21.6530  -11.9850   21.4850 C   0  0  0  0  0  2  0  0  0  0  0  0
  -21.8750  -13.5470   20.6470 N   0  0  0  0  0  4  0  0  0  0  0  0
  -21.9040  -14.1010   21.4960 H   0  0  0  0  0  0  0  0  0  0  0  0
  -20.9590  -13.7170   20.2630 H   0  0  0  0  0  0  0  0  0  0  0  0
  -22.9000  -14.6750   19.7510 C   0  0  0  0  0  2  0  0  0  0  0  0
  -23.4170  -16.5180   19.9810 C   0  0  0  0  0  3  0  0  0  0  0  0
  -24.4160  -17.8850   19.1950 C   0  0  0  0  0  3  0  0  0  0  0  0
  -24.9910  -19.4170   19.6580 O   0  0  0  0  0  0  0  0  0  0  0  0
  -25.5690  -20.8390   18.9310 C   0  0  0  0  0  2  0  0  0  0  0  0
  -26.6180  -22.3170   19.3780 C   0  0  0  0  0  3  0  0  0  0  0  0
  -26.6960  -24.1300   18.9810 C   0  0  0  0  0  3  0  0  0  0  0  0
  -27.6260  -25.5570   19.1960 O   0  0  0  0  0  0  0  0  0  0  0  0
  -24.5280  -31.3800   22.9240 C   0  0  0  0  0  0  0  0  0  0  0  0
  -27.0120  -26.9040   19.2780 C   0  0  0  0  0  0  0  0  0  0  0  0
  -23.4170  -30.1450   21.1410 C   0  0  0  0  0  3  0  0  0  0  0  0
  -24.8970  -28.8800   19.4870 C   0  0  0  0  0  0  0  0  0  0  0  0
  -25.9890  -30.4310   21.0630 C   0  0  0  0  0  2  0  0  0  0  0  0
  -26.0760  -29.1330   20.2000 C   0  0  0  0  0  0  0  0  0  0  0  0
  -27.1610  -28.1430   20.1010 C   0  0  0  0  0  3  0  0  0  0  0  0
  -25.9180  -26.9560   18.4300 C   0  0  0  0  0  3  0  0  0  0  0  0
  -24.8560  -27.8310   18.5810 C   0  0  0  0  0  3  0  0  0  0  0  0
  -23.6670  -29.7410   19.6770 C   0  0  0  0  0  2  0  0  0  0  0  0
  -24.6700  -30.6770   21.7580 N   0  0  0  0  0  0  0  0  0  0  0  0
  -23.4180  -31.5430   23.4580 O   0  0  0  0  0  0  0  0  0  0  0  0
  -22.8090  -28.9550   21.9330 C   0  0  0  0  0  0  0  0  0  0  0  0
  -21.4850  -28.7430   21.8130 N   0  0  0  0  0  0  0  0  0  0  0  0
  -23.5270  -28.2470   22.6440 O   0  0  0  0  0  0  0  0  0  0  0  0
  -20.9550  -29.3720   21.2260 H   0  0  0  0  0  0  0  0  0  0  0  0
  -18.1680  -27.3370   22.2350 C   0  0  0  0  0  0  0  0  0  0  0  0
  -20.7240  -27.6730   22.4690 C   0  0  0  0  0  3  0  0  0  0  0  0
  -20.8640  -26.3370   21.7020 C   0  0  0  0  0  2  0  0  0  0  0  0
  -19.7440  -26.1070   20.6820 C   0  0  0  0  0  2  0  0  0  0  0  0
  -18.3780  -26.1030   21.3740 C   0  0  0  0  0  2  0  0  0  0  0  0
  -19.2690  -28.0820   22.7370 C   0  0  0  0  0  0  0  0  0  0  0  0
  -19.0150  -29.2380   23.5080 C   0  0  0  0  0  3  0  0  0  0  0  0
  -17.6960  -29.6490   23.7800 C   0  0  0  0  0  3  0  0  0  0  0  0
  -16.6120  -28.8970   23.2930 C   0  0  0  0  0  3  0  0  0  0  0  0
  -16.8490  -27.7430   22.5260 C   0  0  0  0  0  3  0  0  0  0  0  0
  -25.7510  -32.0290   23.6300 C   0  0  0  0  0  3  0  0  0  0  0  0
  -25.3580  -33.3900   24.0400 N   0  0  0  0  0  0  0  0  0  0  0  0
  -25.7030  -34.5170   23.4020 C   0  0  0  0  0  0  0  0  0  0  0  0
  -26.4510  -34.5220   22.4230 O   0  0  0  0  0  0  0  0  0  0  0  0
  -24.6950  -33.4570   24.7990 H   0  0  0  0  0  0  0  0  0  0  0  0
  -23.9440  -36.2880   23.0600 C   0  0  0  0  0  1  0  0  0  0  0  0
  -25.1290  -35.8470   23.9350 C   0  0  0  0  0  3  0  0  0  0  0  0
  -27.1500  -36.7200   25.0250 C   0  0  0  0  0  1  0  0  0  0  0  0
  -26.1290  -36.9360   24.0040 N   0  0  0  0  0  0  0  0  0  0  0  0
  -25.6790  -37.8280   24.1920 H   0  0  0  0  0  0  0  0  0  0  0  0
  -26.2370  -31.2090   24.8880 C   0  0  1  0  0  0  0  0  0  0  0  0
  -25.1070  -30.8920   25.8970 C   0  0  0  0  0  1  0  0  0  0  0  0
  -26.8750  -29.8640   24.4730 C   0  0  0  0  0  1  0  0  0  0  0  0
  -27.3440  -31.9970   25.6270 C   0  0  0  0  0  1  0  0  0  0  0  0
  1  2  2  0
  3  1  1  0
  4  2  1  0
  5  7  1  6
  5  3  1  0
  6 57  1  0
  6  4  1  0
  7  8  1  0
  8 10  1  0
  9 10  1  0
  9 13  1  0
 10 12  1  0
 11  9  2  0
 14 15  1  0
 14 18  1  0
 15 23  1  0
 16 14  2  0
 17 15  1  0
 18 27  1  0
 19 27  1  0
 20 25  1  0
 23 32  1  0
 25 19  1  0
 25 24  1  0
 26 19  2  0
 27 28  1  0
 29 54  1  0
 29 30  2  0
 30 49  1  0
 31 33  1  0
 31 30  1  0
 32 29  1  0
 33 32  1  0
 34 39  1  0
 34 31  1  0
 34 35  1  0
 35  5  1  0
 36 37  1  0
 36  5  1  0
 36  6  1  0
 38 37  2  0
 39 38  1  0
 40 37  1  0
 40 41  1  0
 41 42  1  0
 42 43  2  0
 44 43  1  0
 44 48  1  0
 45 44  2  0
 46 41  2  0
 46 45  1  0
 47 46  1  0
 49 50  1  0
 50 52  1  0
 50 53  1  0
 51 49  2  0
 54 55  1  0
 56 54  1  0
 58 57  1  0
 58 59  1  0
 60 58  1  0
 61 62  1  0
 61 58  1  0
 63 64  1  0
 63 62  2  0
 65 66  1  0
 65 64  1  0
 67 68  1  0
 67 66  2  0
 68 70  1  0
 69 80  2  0
 70 75  1  0
 71 79  1  0
 71 81  1  0
 72 78  1  0
 72 74  1  0
 73 79  1  0
 74 73  1  0
 75 74  2  0
 76 77  1  0
 76 70  2  0
 77 72  2  0
 78 71  1  0
 79 69  1  0
 81 83  2  0
 82 81  1  0
 84 82  1  0
 85 94  2  0
 85 90  1  0
 86 82  1  0
 86 90  1  0
 87 86  1  0
 88 89  1  0
 88 87  1  0
 89 85  1  0
 90 91  2  0
 91 92  1  0
 93 92  2  0
 94 93  1  0
 95 69  1  0
 95 96  1  0
 95105  1  0
 96 99  1  0
 97101  1  0
 97 96  1  0
 98 97  2  0
101100  1  0
101103  1  0
103104  1  0
103102  1  0
105108  1  1
105106  1  0
107105  1  0
M  ISO  4  19 100  27 100  67 101  68 101
M  END
>  <TORSDO>  (10) 
F 31

>  <SCORE>  (10) 
7.301

>  <name>  (10) 
9

>  <ligand_id>  (10) 
9

>  <original_smiles>  (10) 
[H]c1c([H])c([H])c(C([H])([H])[N+]([H])([H])C([H])([H])C([H])([H])C([H])([H])OC([H])([H])C([H])([H])C([H])([H])Oc2c([H])c([H])c3c(c2[H])C([H])([H])N(C(=O)C([H])(N([H])C(=O)C([H])(N([H])C([H])([H])[H])C([H])([H])[H])C(C([H])([H])[H])(C([H])([H])[H])C([H])([H])[H])C([H])(C(=O)N([H])C2([H])c4c([H])c([H])c([H])c([H])c4C([H])([H])C([H])([H])C2([H])[H])C3([H])[H])c(C([H])([H])C([H])([H])N([H])C(=O)C([H])([H])N([H])C(=O)C([H])([H])N([H])C(=O)N2C([H])([H])C([H])([H])C([H])([H])C([H])(n3nc(-c4c([H])c([H])c(Oc5c([H])c([H])c(F)c([H])c5F)c([H])c4[H])c(C(=O)N([H])[H])c3N([H])[H])C2([H])[H])c1[H]

>  <smiles>  (10) 
[H]c1c([H])c([H])c(C([H])([H])[N+]([H])([H])C([H])([H])C([H])([H])C([H])([H])OC([H])([H])C([H])([H])C([H])([H])Oc2c([H])c([H])c3c(c2[H])C([H])([H])N(C(=O)C([H])(N([H])C(=O)C([H])(N([H])C([H])([H])[H])C([H])([H])[H])C(C([H])([H])[H])(C([H])([H])[H])C([H])([H])[H])C([H])(C(=O)N([H])C2([H])c4c([H])c([H])c([H])c([H])c4C([H])([H])C([H])([H])C2([H])[H])C3([H])[H])c(C([H])([H])C([H])([H])N([H])C(=O)C([H])([H])N([H])C(=O)C([H])([H])N([H])C(=O)N2C([H])([H])C([H])([H])C([H])([H])C([H])(n3nc(-c4c([H])c([H])c(Oc5c([H])c([H])c(F)c([H])c5F)c([H])c4[H])c(C(=O)N([H])[H])c3N([H])[H])C2([H])[H])c1[H]

$$$$
10:0:0
     RDKit          3D

106114  0  0  1  0  0  0  0  0999 V2000
  -26.9480  -33.4250   26.5270 C   0  0  0  0  0  2  0  0  0  0  0  0
  -25.4930  -32.9550   25.5000 C   0  0  0  0  0  2  0  0  0  0  0  0
  -24.3460  -32.0820   22.9320 C   0  0  0  0  0  0  0  0  0  0  0  0
  -25.2110  -32.7620   23.8740 N   0  0  0  0  0  0  0  0  0  0  0  0
  -23.2080  -31.7910   23.3090 O   0  0  0  0  0  0  0  0  0  0  0  0
  -25.9420  -33.1900   23.3210 H   0  0  0  0  0  0  0  0  0  0  0  0
  -24.7950  -31.5100   21.3640 C   0  0  0  0  0  2  0  0  0  0  0  0
  -24.1940  -30.1910   20.6960 O   0  0  0  0  0  0  0  0  0  0  0  0
  -24.1590  -29.6040   19.2080 C   0  0  0  0  0  3  0  0  0  0  0  0
  -24.2760  -27.9350   18.5220 C   0  0  0  0  0  3  0  0  0  0  0  0
  -24.6010  -26.4020   19.0460 O   0  0  0  0  0  0  0  0  0  0  0  0
  -25.7000  -25.2480   19.4080 C   0  0  0  0  0  2  0  0  0  0  0  0
  -26.8180  -24.7420   20.7410 C   0  0  0  0  0  2  0  0  0  0  0  0
  -28.4090  -24.5540   21.1120 O   0  0  0  0  0  0  0  0  0  0  0  0
  -27.0150  -29.6320   23.4630 C   0  0  0  0  0  0  0  0  0  0  0  0
  -29.4010  -25.3390   20.6470 C   0  0  0  0  0  3  0  0  0  0  0  0
  -26.1000  -28.5320   21.5640 C   0  0  0  0  0  3  0  0  0  0  0  0
  -27.8350  -27.4050   20.0380 C   0  0  0  0  0  3  0  0  0  0  0  0
  -28.6090  -28.8060   21.8650 C   0  0  0  0  0  2  0  0  0  0  0  0
  -28.7020  -27.5430   21.0990 C   0  0  0  0  0  3  0  0  0  0  0  0
  -29.5810  -26.5100   21.4020 C   0  0  0  0  0  2  0  0  0  0  0  0
  -28.9840  -25.4010   19.3340 C   0  0  0  0  0  2  0  0  0  0  0  0
  -28.0810  -26.4270   19.0500 C   0  0  0  0  0  2  0  0  0  0  0  0
  -26.6610  -28.3080   20.0820 C   0  0  0  0  0  2  0  0  0  0  0  0
  -27.2530  -28.9920   22.3490 N   0  0  0  0  0  0  0  0  0  0  0  0
  -25.8850  -29.8600   23.7420 O   0  0  0  0  0  0  0  0  0  0  0  0
  -25.0990  -27.5280   22.4270 C   0  0  0  0  0  0  0  0  0  0  0  0
  -23.7420  -27.6980   22.4970 N   0  0  0  0  0  0  0  0  0  0  0  0
  -25.5620  -26.6060   23.0720 O   0  0  0  0  0  0  0  0  0  0  0  0
  -23.5120  -28.6700   22.3290 H   0  0  0  0  0  0  0  0  0  0  0  0
  -20.0220  -27.3930   22.0070 C   0  0  0  0  0  0  0  0  0  0  0  0
  -22.5140  -26.8700   22.6250 C   0  0  0  0  0  3  0  0  0  0  0  0
  -22.3440  -25.6820   21.6350 C   0  0  0  0  0  2  0  0  0  0  0  0
  -21.3490  -25.9050   20.4700 C   0  0  0  0  0  2  0  0  0  0  0  0
  -19.9640  -26.2440   21.0160 C   0  0  0  0  0  2  0  0  0  0  0  0
  -21.2200  -27.7200   22.7100 C   0  0  0  0  0  0  0  0  0  0  0  0
  -21.1950  -28.8300   23.5830 C   0  0  0  0  0  3  0  0  0  0  0  0
  -20.0220  -29.5840   23.7750 C   0  0  0  0  0  3  0  0  0  0  0  0
  -18.8370  -29.2260   23.1090 C   0  0  0  0  0  3  0  0  0  0  0  0
  -18.8400  -28.1350   22.2240 C   0  0  0  0  0  3  0  0  0  0  0  0
  -28.0560  -30.0400   24.4540 C   0  0  0  0  0  3  0  0  0  0  0  0
  -28.1860  -31.4750   24.0670 N   0  0  0  0  0  0  0  0  0  0  0  0
  -29.0220  -32.3200   23.4310 C   0  0  0  0  0  0  0  0  0  0  0  0
  -29.9580  -31.8980   22.7730 O   0  0  0  0  0  0  0  0  0  0  0  0
  -27.4130  -31.9600   24.5160 H   0  0  0  0  0  0  0  0  0  0  0  0
  -27.5650  -34.3530   22.8500 C   0  0  0  0  0  1  0  0  0  0  0  0
  -28.8190  -33.8750   23.5990 C   0  0  0  0  0  3  0  0  0  0  0  0
  -31.0870  -34.7810   24.1000 C   0  0  0  0  0  1  0  0  0  0  0  0
  -29.9690  -34.7030   23.1640 N   0  0  0  0  0  0  0  0  0  0  0  0
  -29.6710  -35.6490   22.9470 H   0  0  0  0  0  0  0  0  0  0  0  0
  -27.4140  -29.4900   25.9220 C   0  0  1  0  0  0  0  0  0  0  0  0
  -25.8750  -29.6020   26.1510 C   0  0  0  0  0  1  0  0  0  0  0  0
  -27.6130  -27.9550   25.9010 C   0  0  0  0  0  1  0  0  0  0  0  0
  -27.7520  -29.8670   27.4400 C   0  0  0  0  0  1  0  0  0  0  0  0
  -28.7790  -33.2200   26.6820 C   0  0  0  0  0  2  0  0  0  0  0  0
  -30.0690  -31.9550   26.5510 C   0  0  0  0  0  2  0  0  0  0  0  0
  -31.2000  -31.3140   25.3730 C   0  0  0  0  0  2  0  0  0  0  0  0
  -31.4340  -29.6950   24.7510 C   0  0  0  0  0  2  0  0  0  0  0  0
  -31.7760  -29.1210   23.1450 C   0  0  0  0  0  3  0  0  0  0  0  0
  -32.7740  -27.8130   22.5930 C   0  0  0  0  0  3  0  0  0  0  0  0
  -32.8680  -27.0630   21.0270 C   0  0  0  0  0  2  0  0  0  0  0  0
  -34.1870  -26.2780   20.2030 C   0  0  0  0  0  2  0  0  0  0  0  0
  -34.1060  -25.0840   18.9490 C   0  0  0  0  0  2  0  0  0  0  0  0
  -37.7850  -22.2560   14.5120 C   0  0  0  0  0  0  0  0  0  0  0  0
  -38.4840  -20.9030   12.4370 C   0  0  0  0  0  2  0  0  0  0  0  0
  -37.3900  -20.7130   11.3570 C   0  0  0  0  0  2  0  0  0  0  0  0
  -36.5480  -19.4660   11.6640 C   0  0  0  0  0  2  0  0  0  0  0  0
  -36.1190  -19.4200   13.1510 C   0  0  0  0  0  3  0  0  0  0  0  0
  -37.2780  -19.7230   14.1370 C   0  0  0  0  0  2  0  0  0  0  0  0
  -37.8430  -21.0390   13.7980 N   0  0  0  0  0  0  0  0  0  0  0  0
  -38.5420  -23.1360   14.0850 O   0  0  0  0  0  0  0  0  0  0  0  0
  -35.5700  -23.3000   15.4080 C   0  0  0  0  0  2  0  0  0  0  0  0
  -37.3920  -23.3760   16.8330 C   0  0  0  0  0  2  0  0  0  0  0  0
  -34.6110  -23.8230   16.6390 C   0  0  0  0  0  2  0  0  0  0  0  0
  -36.4310  -23.8740   18.0800 C   0  0  0  0  0  2  0  0  0  0  0  0
  -36.8940  -22.5890   15.6180 N   0  0  0  0  0  0  0  0  0  0  0  0
  -35.1700  -24.6720   17.7810 N   0  0  2  0  0  4  0  0  0  0  0  0
  -35.4620  -25.5430   17.3630 H   0  0  0  0  0  0  0  0  0  0  0  0
  -34.2720  -18.0160   14.2230 C   0  0  0  0  0  0  0  0  0  0  0  0
  -33.9740  -16.6830   14.1750 C   0  0  0  0  0  0  0  0  0  0  0  0
  -34.9940  -16.0790   13.3760 C   0  0  0  0  0  0  0  0  0  0  0  0
  -35.4240  -18.1780   13.4760 N   0  0  0  0  0  0  0  0  0  0  0  0
  -35.8940  -16.9880   13.0130 N   0  0  0  0  0  0  0  0  0  0  0  0
  -35.1300  -14.6970   12.8910 C   0  0  0  0  0  0  0  0  0  0  0  0
  -36.2950  -13.9380   13.1340 C   0  0  0  0  0  3  0  0  0  0  0  0
  -36.3910  -12.6050   12.6780 C   0  0  0  0  0  3  0  0  0  0  0  0
  -35.3130  -12.0170   11.9750 C   0  0  0  0  0  0  0  0  0  0  0  0
  -34.1630  -12.7840   11.7160 C   0  0  0  0  0  3  0  0  0  0  0  0
  -34.0730  -14.1120   12.1650 C   0  0  0  0  0  3  0  0  0  0  0  0
  -35.3270  -10.7380   11.4710 O   0  0  0  0  0  0  0  0  0  0  0  0
  -36.1380   -9.7650   11.9990 C   0  0  0  0  0  0  0  0  0  0  0  0
  -36.0480   -9.3740   13.3540 C   0  0  0  0  0  3  0  0  0  0  0  0
  -36.8510   -8.3220   13.8380 C   0  0  0  0  0  3  0  0  0  0  0  0
  -37.7360   -7.6540   12.9700 C   0  0  0  0  0  0  0  0  0  0  0  0
  -37.8240   -8.0390   11.6200 C   0  0  0  0  0  3  0  0  0  0  0  0
  -37.0240   -9.0890   11.1360 C   0  0  0  0  0  0  0  0  0  0  0  0
  -37.0970   -9.4410    9.8300 F   0  0  0  0  0  0  0  0  0  0  0  0
  -38.5020   -6.6390   13.4320 F   0  0  0  0  0  0  0  0  0  0  0  0
  -32.7600  -16.0210   14.7570 C   0  0  0  0  0  0  0  0  0  0  0  0
  -32.9170  -14.8220   15.3060 N   0  0  0  0  0  0  0  0  0  0  0  0
  -31.6680  -16.5910   14.7710 O   0  0  0  0  0  0  0  0  0  0  0  0
  -33.8180  -14.3660   15.3120 H   0  0  0  0  0  0  0  0  0  0  0  0
  -32.1270  -14.3550   15.7270 H   0  0  0  0  0  0  0  0  0  0  0  0
  -33.6480  -19.1100   14.8180 N   0  0  0  0  0  0  0  0  0  0  0  0
  -32.7720  -19.0240   15.3210 H   0  0  0  0  0  0  0  0  0  0  0  0
  -33.9690  -20.0670   14.7400 H   0  0  0  0  0  0  0  0  0  0  0  0
  1 55  1  0
  2  1  1  0
  3  5  2  0
  3  4  1  0
  4  2  1  0
  6  4  1  0
  7  3  1  0
  8  7  1  0
  9  8  1  0
 10 11  1  0
 10  9  2  0
 11 12  1  0
 12 13  1  0
 13 14  1  0
 15 26  2  0
 16 14  1  0
 16 21  1  0
 17 25  1  0
 17 27  1  0
 18 23  1  0
 18 24  1  0
 18 20  1  0
 19 25  1  0
 20 21  1  0
 20 19  1  0
 22 16  1  0
 23 22  1  0
 24 17  1  0
 25 15  1  0
 27 28  1  0
 27 29  2  0
 30 28  1  0
 31 40  2  0
 31 36  1  0
 32 28  1  0
 32 36  1  0
 33 32  1  0
 34 35  1  0
 34 33  1  0
 35 31  1  0
 36 37  2  0
 37 38  1  0
 39 38  2  0
 40 39  1  0
 41 15  1  0
 41 51  1  0
 42 41  1  0
 42 45  1  0
 43 47  1  0
 43 42  1  0
 44 43  2  0
 47 46  1  0
 49 47  1  0
 49 48  1  0
 50 49  1  0
 51 52  1  6
 51 54  1  0
 53 51  1  0
 56 55  1  0
 57 56  1  0
 58 57  1  0
 59 58  1  0
 60 59  2  0
 61 60  1  0
 62 61  1  0
 63 62  1  0
 64 76  1  0
 65 70  1  0
 66 67  1  0
 66 65  1  0
 68 67  1  0
 68 82  1  0
 68 69  1  0
 70 69  1  0
 70 64  1  0
 71 64  2  0
 72 76  1  0
 72 74  1  0
 73 75  1  0
 74 77  1  0
 76 73  1  0
 77 75  1  0
 77 63  1  0
 77 78  1  6
 79104  1  0
 80 79  2  0
 80 99  1  0
 81 80  1  0
 82 79  1  0
 83 81  2  0
 83 82  1  0
 84 85  1  0
 84 81  1  0
 86 85  2  0
 87 86  1  0
 88 87  2  0
 88 89  1  0
 89 84  2  0
 90 87  1  0
 90 91  1  0
 91 92  1  0
 92 93  2  0
 94 98  1  0
 94 93  1  0
 95 94  2  0
 96 95  1  0
 96 91  2  0
 97 96  1  0
 99101  2  0
 99100  1  0
100102  1  0
100103  1  0
104105  1  0
106104  1  0
M  ISO  4  13 101  14 101  64 100  76 100
M  END
>  <TORSDO>  (11) 
F 34

>  <SCORE>  (11) 
-5.958

>  <name>  (11) 
10

>  <ligand_id>  (11) 
10

>  <original_smiles>  (11) 
[H]c1c([H])c([H])c2c(c1[H])C([H])([H])C([H])([H])C([H])([H])C2([H])N([H])C(=O)C1([H])N(C(=O)C([H])(N([H])C(=O)C([H])(N([H])C([H])([H])[H])C([H])([H])[H])C(C([H])([H])[H])(C([H])([H])[H])C([H])([H])[H])C([H])([H])c2c([H])c(OC([H])([H])C([H])([H])OC([H])([H])C([H])([H])OC([H])([H])C(=O)N([H])C([H])([H])C([H])([H])C([H])([H])C([H])([H])C([H])([H])C([H])([H])C([H])([H])C([H])([H])C([H])([H])C([H])([H])C([H])([H])[N+]3([H])C([H])([H])C([H])([H])N(C(=O)N4C([H])([H])C([H])([H])C([H])([H])C([H])(n5nc(-c6c([H])c([H])c(Oc7c([H])c([H])c(F)c([H])c7F)c([H])c6[H])c(C(=O)N([H])[H])c5N([H])[H])C4([H])[H])C([H])([H])C3([H])[H])c([H])c([H])c2C1([H])[H]

>  <smiles>  (11) 
[H]c1c([H])c([H])c2c(c1[H])C([H])([H])C([H])([H])C([H])([H])C2([H])N([H])C(=O)C1([H])N(C(=O)C([H])(N([H])C(=O)C([H])(N([H])C([H])([H])[H])C([H])([H])[H])C(C([H])([H])[H])(C([H])([H])[H])C([H])([H])[H])C([H])([H])c2c([H])c(OC([H])([H])C([H])([H])OC([H])([H])C([H])([H])OC([H])([H])C(=O)N([H])C([H])([H])C([H])([H])C([H])([H])C([H])([H])C([H])([H])C([H])([H])C([H])([H])C([H])([H])C([H])([H])C([H])([H])C([H])([H])[N+]3([H])C([H])([H])C([H])([H])N(C(=O)N4C([H])([H])C([H])([H])C([H])([H])C([H])(n5nc(-c6c([H])c([H])c(Oc7c([H])c([H])c(F)c([H])c7F)c([H])c6[H])c(C(=O)N([H])[H])c5N([H])[H])C4([H])[H])C([H])([H])C3([H])[H])c([H])c([H])c2C1([H])[H]

$$$$
12:0:0
     RDKit          3D

 99107  0  0  1  0  0  0  0  0999 V2000
  -26.7180  -24.1810   22.7960 C   0  0  0  0  0  2  0  0  0  0  0  0
  -26.3780  -24.5900   20.4700 C   0  0  0  0  0  2  0  0  0  0  0  0
  -25.2410  -24.5240   23.0950 C   0  0  0  0  0  2  0  0  0  0  0  0
  -24.9090  -24.9860   20.7250 C   0  0  0  0  0  2  0  0  0  0  0  0
  -27.1940  -24.9480   21.6360 N   0  0  0  0  0  0  0  0  0  0  0  0
  -24.3860  -24.2640   21.9080 N   0  0  2  0  0  4  0  0  0  0  0  0
  -24.4640  -23.2810   21.6860 H   0  0  0  0  0  0  0  0  0  0  0  0
  -22.9370  -24.4880   22.1420 C   0  0  0  0  0  2  0  0  0  0  0  0
  -22.1190  -23.3390   21.5430 C   0  0  0  0  0  2  0  0  0  0  0  0
  -22.3170  -23.3730   20.1340 O   0  0  0  0  0  0  0  0  0  0  0  0
  -21.7610  -22.2360   19.4870 C   0  0  0  0  0  2  0  0  0  0  0  0
  -21.6720  -22.4930   17.9780 C   0  0  0  0  0  2  0  0  0  0  0  0
  -22.9640  -22.7870   17.4540 O   0  0  0  0  0  0  0  0  0  0  0  0
  -22.8930  -23.2480   16.1090 C   0  0  0  0  0  2  0  0  0  0  0  0
  -24.2740  -23.6560   15.5730 C   0  0  0  0  0  2  0  0  0  0  0  0
  -24.5120  -25.0450   15.8030 O   0  0  0  0  0  0  0  0  0  0  0  0
  -25.5740  -25.6110   15.0350 C   0  0  0  0  0  2  0  0  0  0  0  0
  -25.1070  -25.8890   13.5950 C   0  0  0  0  0  2  0  0  0  0  0  0
  -25.7240  -27.7960   12.0560 C   0  0  0  0  0  0  0  0  0  0  0  0
  -24.4410  -28.7920   10.1930 C   0  0  0  0  0  2  0  0  0  0  0  0
  -23.1790  -29.5220   10.6960 C   0  0  0  0  0  2  0  0  0  0  0  0
  -21.9940  -28.5510   10.8610 C   0  0  0  0  0  2  0  0  0  0  0  0
  -22.3890  -27.2780   11.6500 C   0  0  0  0  0  3  0  0  0  0  0  0
  -23.6680  -26.6750   11.0300 C   0  0  0  0  0  2  0  0  0  0  0  0
  -24.7400  -27.6830   11.1180 N   0  0  0  0  0  0  0  0  0  0  0  0
  -26.4690  -28.7770   12.1140 O   0  0  0  0  0  0  0  0  0  0  0  0
  -26.0210  -26.7350   12.8260 N   0  0  0  0  0  0  0  0  0  0  0  0
  -26.9330  -26.8210   13.2510 H   0  0  0  0  0  0  0  0  0  0  0  0
  -20.7220  -25.6700   12.7830 C   0  0  0  0  0  0  0  0  0  0  0  0
  -19.6950  -24.9200   12.2780 C   0  0  0  0  0  0  0  0  0  0  0  0
  -19.6910  -25.1540   10.8690 C   0  0  0  0  0  0  0  0  0  0  0  0
  -21.2980  -26.3070   11.6930 N   0  0  0  0  0  0  0  0  0  0  0  0
  -20.6980  -25.9470   10.5310 N   0  0  0  0  0  0  0  0  0  0  0  0
  -18.7540  -24.7140    9.8290 C   0  0  0  0  0  0  0  0  0  0  0  0
  -19.2020  -24.0630    8.6610 C   0  0  0  0  0  3  0  0  0  0  0  0
  -18.2810  -23.6350    7.6810 C   0  0  0  0  0  3  0  0  0  0  0  0
  -16.8960  -23.8530    7.8680 C   0  0  0  0  0  0  0  0  0  0  0  0
  -16.4560  -24.5220    9.0240 C   0  0  0  0  0  3  0  0  0  0  0  0
  -17.3760  -24.9520    9.9950 C   0  0  0  0  0  3  0  0  0  0  0  0
  -15.9300  -23.4960    6.9580 O   0  0  0  0  0  0  0  0  0  0  0  0
  -16.1150  -22.4570    6.0830 C   0  0  0  0  0  0  0  0  0  0  0  0
  -16.4240  -21.1530    6.5290 C   0  0  0  0  0  3  0  0  0  0  0  0
  -16.5380  -20.1000    5.6010 C   0  0  0  0  0  3  0  0  0  0  0  0
  -16.3370  -20.3430    4.2300 C   0  0  0  0  0  0  0  0  0  0  0  0
  -16.0230  -21.6380    3.7830 C   0  0  0  0  0  3  0  0  0  0  0  0
  -15.9120  -22.6920    4.7080 C   0  0  0  0  0  0  0  0  0  0  0  0
  -15.5890  -23.9350    4.2750 F   0  0  0  0  0  0  0  0  0  0  0  0
  -16.4370  -19.3290    3.3390 F   0  0  0  0  0  0  0  0  0  0  0  0
  -18.7100  -24.1050   13.0660 C   0  0  0  0  0  0  0  0  0  0  0  0
  -18.2090  -23.0210   12.4870 N   0  0  0  0  0  0  0  0  0  0  0  0
  -18.4160  -24.4020   14.2230 O   0  0  0  0  0  0  0  0  0  0  0  0
  -18.4600  -22.7670   11.5430 H   0  0  0  0  0  0  0  0  0  0  0  0
  -17.5640  -22.4330   12.9980 H   0  0  0  0  0  0  0  0  0  0  0  0
  -21.1970  -25.8790   14.0740 N   0  0  0  0  0  0  0  0  0  0  0  0
  -20.7030  -25.5160   14.8810 H   0  0  0  0  0  0  0  0  0  0  0  0
  -21.9120  -26.5520   14.3220 H   0  0  0  0  0  0  0  0  0  0  0  0
  -28.6110  -24.6750   21.3650 C   0  0  0  0  0  2  0  0  0  0  0  0
  -29.5350  -25.8050   21.8760 C   0  0  0  0  0  2  0  0  0  0  0  0
  -29.7750  -26.7980   20.8790 O   0  0  0  0  0  0  0  0  0  0  0  0
  -24.5680  -31.4360   22.3200 C   0  0  0  0  0  0  0  0  0  0  0  0
  -28.6680  -27.4800   20.4440 C   0  0  0  0  0  0  0  0  0  0  0  0
  -24.3850  -30.2400   20.1630 C   0  0  0  0  0  3  0  0  0  0  0  0
  -26.4460  -28.9120   19.4630 C   0  0  0  0  0  0  0  0  0  0  0  0
  -26.6680  -30.6590   21.2370 C   0  0  0  0  0  2  0  0  0  0  0  0
  -27.1430  -29.3800   20.5840 C   0  0  0  0  0  0  0  0  0  0  0  0
  -28.2530  -28.6670   21.0830 C   0  0  0  0  0  3  0  0  0  0  0  0
  -27.9700  -27.0260   19.3090 C   0  0  0  0  0  3  0  0  0  0  0  0
  -26.8510  -27.7270   18.8230 C   0  0  0  0  0  3  0  0  0  0  0  0
  -25.2720  -29.7390   18.9920 C   0  0  0  0  0  2  0  0  0  0  0  0
  -25.1940  -30.7850   21.3010 N   0  0  0  0  0  0  0  0  0  0  0  0
  -23.3430  -31.6260   22.3020 O   0  0  0  0  0  0  0  0  0  0  0  0
  -23.4320  -29.0970   20.5820 C   0  0  0  0  0  0  0  0  0  0  0  0
  -22.6110  -28.6250   19.6310 N   0  0  0  0  0  0  0  0  0  0  0  0
  -23.4610  -28.6370   21.7270 O   0  0  0  0  0  0  0  0  0  0  0  0
  -22.6520  -29.0530   18.7170 H   0  0  0  0  0  0  0  0  0  0  0  0
  -20.4400  -26.3820   17.8180 C   0  0  0  0  0  0  0  0  0  0  0  0
  -21.6550  -27.5300   19.7900 C   0  0  0  0  0  3  0  0  0  0  0  0
  -22.3840  -26.1810   19.9950 C   0  0  0  0  0  2  0  0  0  0  0  0
  -22.6120  -25.4130   18.6900 C   0  0  0  0  0  2  0  0  0  0  0  0
  -21.2780  -25.1270   17.9940 C   0  0  0  0  0  2  0  0  0  0  0  0
  -20.6260  -27.5160   18.6530 C   0  0  0  0  0  0  0  0  0  0  0  0
  -19.8430  -28.6690   18.4260 C   0  0  0  0  0  3  0  0  0  0  0  0
  -18.8890  -28.6990   17.3920 C   0  0  0  0  0  3  0  0  0  0  0  0
  -18.6980  -27.5670   16.5790 C   0  0  0  0  0  3  0  0  0  0  0  0
  -19.4660  -26.4100   16.7980 C   0  0  0  0  0  3  0  0  0  0  0  0
  -25.3610  -31.9980   23.5440 C   0  0  0  0  0  3  0  0  0  0  0  0
  -24.9260  -33.3850   23.7520 N   0  0  0  0  0  0  0  0  0  0  0  0
  -25.5800  -34.4620   23.2950 C   0  0  0  0  0  0  0  0  0  0  0  0
  -26.6610  -34.3910   22.7080 O   0  0  0  0  0  0  0  0  0  0  0  0
  -24.0220  -33.5160   24.1800 H   0  0  0  0  0  0  0  0  0  0  0  0
  -24.1550  -36.2610   22.2650 C   0  0  0  0  0  1  0  0  0  0  0  0
  -24.9250  -35.8370   23.5260 C   0  0  0  0  0  3  0  0  0  0  0  0
  -26.5110  -36.6770   25.2020 C   0  0  0  0  0  1  0  0  0  0  0  0
  -25.8910  -36.8930   23.8970 N   0  0  0  0  0  0  0  0  0  0  0  0
  -25.4440  -37.8060   23.9030 H   0  0  0  0  0  0  0  0  0  0  0  0
  -25.1660  -31.1450   24.8580 C   0  0  1  0  0  0  0  0  0  0  0  0
  -23.6830  -30.8740   25.2030 C   0  0  0  0  0  1  0  0  0  0  0  0
  -25.8830  -29.7810   24.7370 C   0  0  0  0  0  1  0  0  0  0  0  0
  -25.8130  -31.8750   26.0590 C   0  0  0  0  0  1  0  0  0  0  0  0
  1  3  1  0
  2  4  1  0
  2  5  1  0
  4  6  1  0
  5  1  1  0
  6  8  1  0
  6  3  1  0
  6  7  1  6
  9  8  1  0
 10  9  1  0
 11 10  1  0
 12 11  1  0
 13 12  1  0
 14 13  1  0
 15 16  1  0
 15 14  1  0
 17 16  1  0
 18 17  1  0
 19 26  2  0
 19 27  1  0
 20 21  1  0
 20 25  1  0
 21 22  1  0
 23 22  1  0
 23 32  1  0
 24 25  1  0
 24 23  1  0
 25 19  1  0
 27 28  1  0
 27 18  1  0
 29 54  1  0
 30 29  2  0
 30 49  1  0
 31 30  1  0
 32 29  1  0
 33 31  2  0
 33 32  1  0
 34 39  1  0
 34 31  1  0
 35 34  2  0
 36 37  2  0
 36 35  1  0
 37 38  1  0
 38 39  2  0
 40 37  1  0
 41 42  1  0
 41 40  1  0
 43 42  2  0
 44 43  1  0
 45 44  2  0
 45 46  1  0
 46 41  2  0
 47 46  1  0
 48 44  1  0
 49 51  2  0
 50 53  1  0
 50 49  1  0
 52 50  1  0
 54 56  1  0
 54 55  1  0
 57  5  1  0
 57 58  1  0
 59 58  1  0
 61 59  1  0
 61 66  1  0
 62 72  1  0
 62 70  1  0
 63 65  1  0
 64 70  1  0
 65 66  2  0
 65 64  1  0
 67 61  2  0
 68 67  1  0
 68 63  2  0
 69 63  1  0
 69 62  1  0
 70 60  1  0
 71 60  2  0
 72 74  2  0
 73 72  1  0
 75 73  1  0
 76 80  1  0
 76 81  1  0
 77 73  1  0
 77 78  1  0
 79 78  1  0
 80 79  1  0
 81 77  1  0
 82 81  2  0
 83 82  1  0
 84 85  1  0
 84 83  2  0
 85 76  2  0
 86 60  1  0
 86 87  1  0
 86 96  1  0
 87 90  1  0
 88 92  1  0
 88 87  1  0
 89 88  2  0
 92 91  1  0
 92 94  1  0
 94 95  1  0
 94 93  1  0
 96 97  1  1
 96 99  1  0
 98 96  1  0
M  ISO  4  19 100  27 100  58 101  59 101
M  END
>  <TORSDO>  (12) 
F 29

>  <SCORE>  (12) 
-0.038

>  <name>  (12) 
12

>  <ligand_id>  (12) 
12

>  <original_smiles>  (12) 
[H]c1c([H])c([H])c2c(c1[H])C([H])([H])C([H])([H])C([H])([H])C2([H])N([H])C(=O)C1([H])N(C(=O)C([H])(N([H])C(=O)C([H])(N([H])C([H])([H])[H])C([H])([H])[H])C(C([H])([H])[H])(C([H])([H])[H])C([H])([H])[H])C([H])([H])c2c([H])c(OC([H])([H])C([H])([H])N3C([H])([H])C([H])([H])[N+]([H])(C([H])([H])C([H])([H])OC([H])([H])C([H])([H])OC([H])([H])C([H])([H])OC([H])([H])C([H])([H])N([H])C(=O)N4C([H])([H])C([H])([H])C([H])([H])C([H])(n5nc(-c6c([H])c([H])c(Oc7c([H])c([H])c(F)c([H])c7F)c([H])c6[H])c(C(=O)N([H])[H])c5N([H])[H])C4([H])[H])C([H])([H])C3([H])[H])c([H])c([H])c2C1([H])[H]

>  <smiles>  (12) 
[H]c1c([H])c([H])c2c(c1[H])C([H])([H])C([H])([H])C([H])([H])C2([H])N([H])C(=O)C1([H])N(C(=O)C([H])(N([H])C(=O)C([H])(N([H])C([H])([H])[H])C([H])([H])[H])C(C([H])([H])[H])(C([H])([H])[H])C([H])([H])[H])C([H])([H])c2c([H])c(OC([H])([H])C([H])([H])N3C([H])([H])C([H])([H])[N+]([H])(C([H])([H])C([H])([H])OC([H])([H])C([H])([H])OC([H])([H])C([H])([H])OC([H])([H])C([H])([H])N([H])C(=O)N4C([H])([H])C([H])([H])C([H])([H])C([H])(n5nc(-c6c([H])c([H])c(Oc7c([H])c([H])c(F)c([H])c7F)c([H])c6[H])c(C(=O)N([H])[H])c5N([H])[H])C4([H])[H])C([H])([H])C3([H])[H])c([H])c([H])c2C1([H])[H]

$$$$
13:0:0
     RDKit          3D

105111  0  0  1  0  0  0  0  0999 V2000
  -21.2510  -26.7700   18.3880 C   0  0  0  0  0  0  0  0  0  0  0  0
  -20.0910  -27.0300   19.0750 N   0  0  0  0  0  0  0  0  0  0  0  0
  -21.7910  -27.6350   17.7070 O   0  0  0  0  0  0  0  0  0  0  0  0
  -19.5720  -26.1670   19.1690 H   0  0  0  0  0  0  0  0  0  0  0  0
  -19.7820  -27.8840   20.3570 C   0  0  0  0  0  2  0  0  0  0  0  0
  -19.7660  -27.0860   23.0710 C   0  0  0  0  0  3  0  0  0  0  0  0
  -20.8430  -26.2840   24.0370 C   0  0  0  0  0  2  0  0  0  0  0  0
  -22.2110  -26.8530   24.5910 C   0  0  0  0  0  2  0  0  0  0  0  0
  -23.3080  -25.9240   24.4290 O   0  0  0  0  0  0  0  0  0  0  0  0
  -24.6220  -26.4990   24.2920 C   0  0  0  0  0  2  0  0  0  0  0  0
  -25.5930  -25.6250   23.4480 C   0  0  0  0  0  2  0  0  0  0  0  0
  -26.6970  -26.3770   22.9100 O   0  0  0  0  0  0  0  0  0  0  0  0
  -27.5410  -25.6330   22.0100 C   0  0  0  0  0  2  0  0  0  0  0  0
  -28.5960  -26.5050   21.2430 C   0  0  0  0  0  2  0  0  0  0  0  0
  -28.3010  -26.7750   19.8540 O   0  0  0  0  0  0  0  0  0  0  0  0
  -24.4820  -31.7730   23.0160 C   0  0  0  0  0  0  0  0  0  0  0  0
  -27.2340  -27.6120   19.7220 C   0  0  0  0  0  0  0  0  0  0  0  0
  -23.4010  -30.5780   21.1690 C   0  0  0  0  0  3  0  0  0  0  0  0
  -24.8860  -29.1480   19.6840 C   0  0  0  0  0  0  0  0  0  0  0  0
  -25.9080  -30.9110   21.1490 C   0  0  0  0  0  2  0  0  0  0  0  0
  -26.0030  -29.5990   20.3980 C   0  0  0  0  0  0  0  0  0  0  0  0
  -27.1860  -28.8370   20.4170 C   0  0  0  0  0  3  0  0  0  0  0  0
  -26.1310  -27.1910   18.9560 C   0  0  0  0  0  3  0  0  0  0  0  0
  -24.9490  -27.9500   18.9500 C   0  0  0  0  0  3  0  0  0  0  0  0
  -23.6520  -30.0130   19.7470 C   0  0  0  0  0  2  0  0  0  0  0  0
  -24.6150  -31.1100   21.8330 N   0  0  0  0  0  0  0  0  0  0  0  0
  -23.3670  -31.9820   23.5210 O   0  0  0  0  0  0  0  0  0  0  0  0
  -22.7690  -29.4860   22.0150 C   0  0  0  0  0  0  0  0  0  0  0  0
  -21.4790  -29.6210   22.1690 N   0  0  0  0  0  0  0  0  0  0  0  0
  -23.4170  -28.5690   22.5120 O   0  0  0  0  0  0  0  0  0  0  0  0
  -21.0190  -30.4340   21.7820 H   0  0  0  0  0  0  0  0  0  0  0  0
  -17.6070  -28.7420   22.8730 C   0  0  0  0  0  0  0  0  0  0  0  0
  -20.6700  -28.6080   22.7420 C   0  0  0  0  0  3  0  0  0  0  0  0
  -20.6830  -26.9260   21.6630 C   0  0  0  0  0  2  0  0  0  0  0  0
  -18.8410  -26.1190   21.2790 C   0  0  0  0  0 15  0  0  0  0  0  0
  -17.2990  -27.1920   21.8880 C   0  0  0  0  0  1  0  0  0  0  0  0
  -19.0610  -29.3710   23.1980 C   0  0  0  0  0  0  0  0  0  0  0  0
  -19.1210  -30.4830   24.0410 C   0  0  0  0  0  3  0  0  0  0  0  0
  -17.9370  -31.0650   24.5170 C   0  0  0  0  0  3  0  0  0  0  0  0
  -16.6680  -30.5540   24.1810 C   0  0  0  0  0  3  0  0  0  0  0  0
  -16.4990  -29.4090   23.3830 C   0  0  0  0  0  3  0  0  0  0  0  0
  -25.7240  -32.3210   23.7720 C   0  0  0  0  0  3  0  0  0  0  0  0
  -25.4170  -33.7070   24.1410 N   0  0  0  0  0  0  0  0  0  0  0  0
  -25.8120  -34.7760   23.4380 C   0  0  0  0  0  0  0  0  0  0  0  0
  -26.5400  -34.6950   22.4480 O   0  0  0  0  0  0  0  0  0  0  0  0
  -24.7770  -33.8400   24.9100 H   0  0  0  0  0  0  0  0  0  0  0  0
  -24.1440  -36.6140   23.0360 C   0  0  0  0  0  1  0  0  0  0  0  0
  -25.3200  -36.1560   23.9130 C   0  0  0  0  0  3  0  0  0  0  0  0
  -27.4050  -36.9680   24.9220 C   0  0  0  0  0  1  0  0  0  0  0  0
  -26.3800  -37.1860   23.9040 N   0  0  0  0  0  0  0  0  0  0  0  0
  -25.9850  -38.1120   24.0430 H   0  0  0  0  0  0  0  0  0  0  0  0
  -26.1050  -31.4670   25.0410 C   0  0  1  0  0  0  0  0  0  0  0  0
  -24.9280  -31.2340   26.0190 C   0  0  0  0  0  1  0  0  0  0  0  0
  -26.6540  -30.0820   24.6210 C   0  0  0  0  0  1  0  0  0  0  0  0
  -27.2410  -32.1790   25.8110 C   0  0  0  0  0  1  0  0  0  0  0  0
  -21.9140  -25.3350   18.5600 C   0  0  0  0  0  2  0  0  0  0  0  0
  -23.1200  -25.0080   17.7960 O   0  0  0  0  0  0  0  0  0  0  0  0
  -24.0080  -24.0480   18.4670 C   0  0  0  0  0  2  0  0  0  0  0  0
  -24.8860  -23.0210   17.6390 C   0  0  0  0  0  2  0  0  0  0  0  0
  -25.9910  -22.2520   18.4850 C   0  0  0  0  0  2  0  0  0  0  0  0
  -26.4760  -20.7860   18.0890 C   0  0  0  0  0  2  0  0  0  0  0  0
  -27.9970  -20.4120   18.3400 C   0  0  0  0  0  2  0  0  0  0  0  0
  -28.9580  -18.0580   18.8690 C   0  0  0  0  0  0  0  0  0  0  0  0
  -28.3780  -19.2450   19.2110 N   0  0  0  0  0  0  0  0  0  0  0  0
  -28.8560  -17.5980   17.7310 O   0  0  0  0  0  0  0  0  0  0  0  0
  -28.4490  -19.4740   20.1940 H   0  0  0  0  0  0  0  0  0  0  0  0
  -29.8770  -17.3170   19.9090 C   0  0  0  0  0  2  0  0  0  0  0  0
  -30.7920  -14.8630   19.7330 C   0  0  0  0  0  0  0  0  0  0  0  0
  -30.7260  -12.5160   18.9360 C   0  0  0  0  0  2  0  0  0  0  0  0
  -29.7140  -12.4720   17.7670 C   0  0  0  0  0  2  0  0  0  0  0  0
  -28.2660  -12.3190   18.2820 C   0  0  0  0  0  2  0  0  0  0  0  0
  -27.9340  -13.3040   19.4340 C   0  0  0  0  0  3  0  0  0  0  0  0
  -29.0400  -13.2600   20.5120 C   0  0  0  0  0  2  0  0  0  0  0  0
  -30.3020  -13.5960   19.8400 N   0  0  0  0  0  0  0  0  0  0  0  0
  -31.9340  -15.0940   19.3140 O   0  0  0  0  0  0  0  0  0  0  0  0
  -29.8480  -15.8280   19.9520 N   0  0  0  0  0  0  0  0  0  0  0  0
  -28.9530  -15.4480   20.2190 H   0  0  0  0  0  0  0  0  0  0  0  0
  -25.6320  -13.9750   20.3540 C   0  0  0  0  0  0  0  0  0  0  0  0
  -24.5710  -13.2280   20.7850 C   0  0  0  0  0  0  0  0  0  0  0  0
  -24.9780  -11.8630   20.6730 C   0  0  0  0  0  0  0  0  0  0  0  0
  -26.6180  -13.0640   20.0080 N   0  0  0  0  0  0  0  0  0  0  0  0
  -26.2360  -11.7880   20.2610 N   0  0  0  0  0  0  0  0  0  0  0  0
  -24.2260  -10.6210   20.8760 C   0  0  0  0  0  0  0  0  0  0  0  0
  -24.6590   -9.6370   21.7920 C   0  0  0  0  0  3  0  0  0  0  0  0
  -23.9090   -8.4570   21.9800 C   0  0  0  0  0  3  0  0  0  0  0  0
  -22.7120   -8.2530   21.2520 C   0  0  0  0  0  0  0  0  0  0  0  0
  -22.2990   -9.2240   20.3230 C   0  0  0  0  0  3  0  0  0  0  0  0
  -23.0490  -10.3960   20.1340 C   0  0  0  0  0  3  0  0  0  0  0  0
  -21.9330   -7.1270   21.3520 O   0  0  0  0  0  0  0  0  0  0  0  0
  -21.7960   -6.4480   22.5360 C   0  0  0  0  0  0  0  0  0  0  0  0
  -21.2760   -7.0670   23.6940 C   0  0  0  0  0  3  0  0  0  0  0  0
  -21.0900   -6.3150   24.8700 C   0  0  0  0  0  3  0  0  0  0  0  0
  -21.4120   -4.9440   24.8880 C   0  0  0  0  0  0  0  0  0  0  0  0
  -21.9250   -4.3260   23.7350 C   0  0  0  0  0  3  0  0  0  0  0  0
  -22.1130   -5.0750   22.5610 C   0  0  0  0  0  0  0  0  0  0  0  0
  -22.5890   -4.4700   21.4450 F   0  0  0  0  0  0  0  0  0  0  0  0
  -21.2240   -4.2190   26.0150 F   0  0  0  0  0  0  0  0  0  0  0  0
  -23.2160  -13.7420   21.1800 C   0  0  0  0  0  0  0  0  0  0  0  0
  -22.5490  -13.0650   22.1070 N   0  0  0  0  0  0  0  0  0  0  0  0
  -22.7610  -14.7800   20.7010 O   0  0  0  0  0  0  0  0  0  0  0  0
  -22.9300  -12.2240   22.5160 H   0  0  0  0  0  0  0  0  0  0  0  0
  -21.6440  -13.3920   22.4140 H   0  0  0  0  0  0  0  0  0  0  0  0
  -25.8300  -15.3460   20.2060 N   0  0  0  0  0  0  0  0  0  0  0  0
  -25.0780  -16.0050   20.3720 H   0  0  0  0  0  0  0  0  0  0  0  0
  -26.6210  -15.7650   19.7310 H   0  0  0  0  0  0  0  0  0  0  0  0
  1 56  1  0
  1  2  1  0
  2  4  1  0
  2  5  1  0
  3  1  2  0
  5 34  1  0
  6 34  1  0
  6  7  1  0
  7  8  1  0
  9  8  1  0
 10  9  1  0
 11 10  1  0
 12 11  1  0
 13 12  1  0
 14 13  1  0
 15 14  1  0
 16 27  2  0
 17 15  1  0
 17 22  1  0
 18 25  1  0
 18 26  1  0
 18 28  1  0
 19 25  1  0
 19 21  1  0
 20 26  1  0
 21 22  2  0
 21 20  1  0
 23 17  2  0
 24 23  1  0
 24 19  2  0
 26 16  1  0
 28 29  1  0
 28 30  2  0
 29 33  1  0
 31 29  1  0
 32 37  2  0
 32 41  1  0
 33  6  1  0
 33 37  1  0
 36 32  1  0
 37 38  1  0
 38 39  2  0
 40 39  1  0
 41 40  2  0
 42 16  1  0
 42 43  1  0
 42 52  1  0
 43 46  1  0
 44 48  1  0
 44 43  1  0
 45 44  2  0
 48 47  1  0
 50 48  1  0
 50 51  1  0
 50 49  1  0
 52 55  1  1
 52 53  1  0
 54 52  1  0
 57 58  1  0
 57 56  1  0
 59 58  1  0
 59 60  1  0
 61 62  1  0
 61 60  1  0
 62 64  1  0
 63 64  1  0
 63 67  1  0
 64 66  1  0
 65 63  2  0
 67 76  1  0
 68 74  1  0
 68 76  1  0
 69 74  1  0
 70 71  1  0
 70 69  1  0
 72 71  1  0
 72 81  1  0
 72 73  1  0
 74 73  1  0
 75 68  2  0
 76 77  1  0
 78 79  2  0
 79 98  1  0
 80 79  1  0
 80 83  1  0
 81 82  1  0
 81 78  1  0
 82 80  2  0
 83 84  1  0
 84 85  2  0
 86 89  1  0
 86 85  1  0
 87 86  2  0
 88 87  1  0
 88 83  2  0
 89 90  1  0
 90 95  2  0
 90 91  1  0
 91 92  2  0
 92 93  1  0
 93 97  1  0
 94 93  2  0
 95 94  1  0
 96 95  1  0
 98 99  1  0
 99102  1  0
 99101  1  0
100 98  2  0
103 78  1  0
103104  1  0
105103  1  0
M  ISO  4  14 101  15 101  68 100  76 100
M  END
>  <TORSDO>  (13) 
F 35

>  <SCORE>  (13) 
-8.719

>  <name>  (13) 
13

>  <ligand_id>  (13) 
13

>  <original_smiles>  (13) 
[H]c1c([H])c([H])c2c(c1[H])C([H])([H])C([H])([H])C([H])([H])C2([H])N([H])C(=O)C1([H])N(C(=O)C([H])(N([H])C(=O)C([H])(N([H])C([H])([H])[H])C([H])([H])[H])C(C([H])([H])[H])(C([H])([H])[H])C([H])([H])[H])C([H])([H])c2c([H])c(OC([H])([H])C([H])([H])OC([H])([H])C([H])([H])OC([H])([H])C([H])([H])C([H])([H])C([H])([H])N([H])C(=O)C([H])([H])OC([H])([H])C([H])([H])C([H])([H])C([H])([H])C([H])([H])N([H])C(=O)C([H])([H])N([H])C(=O)N3C([H])([H])C([H])([H])C([H])([H])C([H])(n4nc(-c5c([H])c([H])c(Oc6c([H])c([H])c(F)c([H])c6F)c([H])c5[H])c(C(=O)N([H])[H])c4N([H])[H])C3([H])[H])c([H])c([H])c2C1([H])[H]

>  <smiles>  (13) 
[H]c1c([H])c([H])c2c(c1[H])C([H])([H])C([H])([H])C([H])([H])C2([H])N([H])C(=O)C1([H])N(C(=O)C([H])(N([H])C(=O)C([H])(N([H])C([H])([H])[H])C([H])([H])[H])C(C([H])([H])[H])(C([H])([H])[H])C([H])([H])[H])C([H])([H])c2c([H])c(OC([H])([H])C([H])([H])OC([H])([H])C([H])([H])OC([H])([H])C([H])([H])C([H])([H])C([H])([H])N([H])C(=O)C([H])([H])OC([H])([H])C([H])([H])C([H])([H])C([H])([H])C([H])([H])N([H])C(=O)C([H])([H])N([H])C(=O)N3C([H])([H])C([H])([H])C([H])([H])C([H])(n4nc(-c5c([H])c([H])c(Oc6c([H])c([H])c(F)c([H])c6F)c([H])c5[H])c(C(=O)N([H])[H])c4N([H])[H])C3([H])[H])c([H])c([H])c2C1([H])[H]

$$$$
14:0:0
     RDKit          3D

109117  0  0  1  0  0  0  0  0999 V2000
  -28.5140  -15.8960   16.2990 C   0  0  0  0  0  0  0  0  0  0  0  0
  -29.6550  -16.5840   16.4830 N   0  0  0  0  0  0  0  0  0  0  0  0
  -27.8500  -15.4590   17.2390 O   0  0  0  0  0  0  0  0  0  0  0  0
  -30.1100  -16.9510   15.6590 H   0  0  0  0  0  0  0  0  0  0  0  0
  -30.4810  -16.5450   17.6930 C   0  0  0  0  0  2  0  0  0  0  0  0
  -29.9460  -17.3010   18.9280 C   0  0  0  0  0  2  0  0  0  0  0  0
  -30.1400  -18.8260   18.9250 C   0  0  0  0  0  2  0  0  0  0  0  0
  -30.2240  -19.3920   20.3630 C   0  0  0  0  0  2  0  0  0  0  0  0
  -29.9280  -23.1910   20.5230 C   0  0  0  0  0  2  0  0  0  0  0  0
  -27.7800  -22.2010   21.0510 C   0  0  0  0  0  2  0  0  0  0  0  0
  -30.6090  -21.8280   20.7460 C   0  0  0  0  0  2  0  0  0  0  0  0
  -28.4670  -20.8590   21.3330 C   0  0  0  0  0  2  0  0  0  0  0  0
  -28.6800  -23.3380   21.3010 N   0  0  0  0  0  0  0  0  0  0  0  0
  -29.6450  -20.7490   20.4420 N   0  0  2  0  0  4  0  0  0  0  0  0
  -29.2990  -20.9450   19.5180 H   0  0  0  0  0  0  0  0  0  0  0  0
  -27.9460  -24.5230   20.8400 C   0  0  0  0  0  2  0  0  0  0  0  0
  -28.5840  -25.8880   21.1730 C   0  0  0  0  0  2  0  0  0  0  0  0
  -28.4040  -26.7700   20.0680 O   0  0  0  0  0  0  0  0  0  0  0  0
  -24.6060  -31.8720   23.2100 C   0  0  0  0  0  0  0  0  0  0  0  0
  -27.2330  -27.4820   20.0970 C   0  0  0  0  0  0  0  0  0  0  0  0
  -23.3920  -30.4950   21.5480 C   0  0  0  0  0  3  0  0  0  0  0  0
  -24.8440  -28.9710   20.1100 C   0  0  0  0  0  0  0  0  0  0  0  0
  -25.9160  -30.8560   21.3550 C   0  0  0  0  0  2  0  0  0  0  0  0
  -25.9980  -29.4910   20.7110 C   0  0  0  0  0  0  0  0  0  0  0  0
  -27.1980  -28.7490   20.7060 C   0  0  0  0  0  3  0  0  0  0  0  0
  -26.0730  -26.9660   19.4870 C   0  0  0  0  0  3  0  0  0  0  0  0
  -24.8740  -27.7030   19.4970 C   0  0  0  0  0  3  0  0  0  0  0  0
  -23.5980  -29.8260   20.1610 C   0  0  0  0  0  2  0  0  0  0  0  0
  -24.6550  -31.0880   22.0970 N   0  0  0  0  0  0  0  0  0  0  0  0
  -23.5270  -32.1440   23.7530 O   0  0  0  0  0  0  0  0  0  0  0  0
  -22.7370  -29.4670   22.4980 C   0  0  0  0  0  0  0  0  0  0  0  0
  -21.4110  -29.3000   22.3720 N   0  0  0  0  0  0  0  0  0  0  0  0
  -23.4180  -28.8230   23.3020 O   0  0  0  0  0  0  0  0  0  0  0  0
  -20.9250  -29.8640   21.6880 H   0  0  0  0  0  0  0  0  0  0  0  0
  -18.0260  -28.1380   22.8480 C   0  0  0  0  0  0  0  0  0  0  0  0
  -20.5850  -28.3640   23.1330 C   0  0  0  0  0  3  0  0  0  0  0  0
  -20.6760  -26.9390   22.5420 C   0  0  0  0  0  2  0  0  0  0  0  0
  -19.5750  -26.6390   21.5200 C   0  0  0  0  0  2  0  0  0  0  0  0
  -18.1920  -26.7920   22.1600 C   0  0  0  0  0  2  0  0  0  0  0  0
  -19.1510  -28.8820   23.2910 C   0  0  0  0  0  0  0  0  0  0  0  0
  -18.9430  -30.1420   23.8920 C   0  0  0  0  0  3  0  0  0  0  0  0
  -17.6440  -30.6580   24.0550 C   0  0  0  0  0  3  0  0  0  0  0  0
  -16.5330  -29.9090   23.6330 C   0  0  0  0  0  3  0  0  0  0  0  0
  -16.7250  -28.6500   23.0350 C   0  0  0  0  0  3  0  0  0  0  0  0
  -25.9000  -32.4830   23.8380 C   0  0  0  0  0  3  0  0  0  0  0  0
  -26.4460  -31.6570   25.0670 C   0  0  1  0  0  0  0  0  0  0  0  0
  -25.3730  -31.3650   26.1400 C   0  0  0  0  0  1  0  0  0  0  0  0
  -27.0260  -30.3000   24.5980 C   0  0  0  0  0  1  0  0  0  0  0  0
  -27.6040  -32.4260   25.7420 C   0  0  0  0  0  1  0  0  0  0  0  0
  -25.5860  -33.8630   24.2320 N   0  0  0  0  0  0  0  0  0  0  0  0
  -25.9030  -34.9460   23.5120 C   0  0  0  0  0  0  0  0  0  0  0  0
  -26.5620  -34.8920   22.4710 O   0  0  0  0  0  0  0  0  0  0  0  0
  -24.9890  -33.9780   25.0370 H   0  0  0  0  0  0  0  0  0  0  0  0
  -24.1500  -36.7320   23.2640 C   0  0  0  0  0  1  0  0  0  0  0  0
  -25.4110  -36.3090   24.0320 C   0  0  0  0  0  3  0  0  0  0  0  0
  -27.5570  -37.1790   24.8450 C   0  0  0  0  0  1  0  0  0  0  0  0
  -26.4300  -37.3760   23.9390 N   0  0  0  0  0  0  0  0  0  0  0  0
  -26.0170  -38.2840   24.1380 H   0  0  0  0  0  0  0  0  0  0  0  0
  -28.0540  -15.6100   14.8560 C   0  0  0  0  0  2  0  0  0  0  0  0
  -27.7160  -14.2220   14.6660 O   0  0  0  0  0  0  0  0  0  0  0  0
  -28.7940  -13.2830   14.5400 C   0  0  0  0  0  2  0  0  0  0  0  0
  -28.2400  -11.8390   14.6550 C   0  0  0  0  0  2  0  0  0  0  0  0
  -29.1070  -10.9570   15.3810 O   0  0  0  0  0  0  0  0  0  0  0  0
  -28.4360   -9.8620   16.0240 C   0  0  0  0  0  2  0  0  0  0  0  0
  -29.3760   -8.9680   16.8680 C   0  0  0  0  0  2  0  0  0  0  0  0
  -29.6940   -9.5840   18.1220 O   0  0  0  0  0  0  0  0  0  0  0  0
  -29.8130   -8.7120   19.2580 C   0  0  0  0  0  2  0  0  0  0  0  0
  -30.9540   -9.0970   20.2560 C   0  0  0  0  0  2  0  0  0  0  0  0
  -30.5920  -10.1010   21.2370 O   0  0  0  0  0  0  0  0  0  0  0  0
  -31.7010  -10.8220   21.8090 C   0  0  0  0  0  2  0  0  0  0  0  0
  -31.3050  -12.1060   22.6120 C   0  0  0  0  0  2  0  0  0  0  0  0
  -31.0310  -13.9650   20.8820 C   0  0  0  0  0  0  0  0  0  0  0  0
  -30.4130  -12.4360   19.1890 C   0  0  0  0  0  2  0  0  0  0  0  0
  -29.4130  -12.6820   18.1020 C   0  0  0  0  0  2  0  0  0  0  0  0
  -27.9700  -12.4660   18.5820 C   0  0  0  0  0  2  0  0  0  0  0  0
  -27.6580  -13.2450   19.8780 C   0  0  0  0  0  3  0  0  0  0  0  0
  -28.7220  -12.9600   20.9540 C   0  0  0  0  0  2  0  0  0  0  0  0
  -30.0640  -13.1950   20.3790 N   0  0  0  0  0  0  0  0  0  0  0  0
  -31.6840  -14.7870   20.2350 O   0  0  0  0  0  0  0  0  0  0  0  0
  -31.6060  -13.4010   21.9560 N   0  0  0  0  0  0  0  0  0  0  0  0
  -32.4500  -13.8610   22.2700 H   0  0  0  0  0  0  0  0  0  0  0  0
  -25.2460  -13.8280   20.5620 C   0  0  0  0  0  0  0  0  0  0  0  0
  -24.1740  -13.0440   20.9150 C   0  0  0  0  0  0  0  0  0  0  0  0
  -24.6370  -11.6970   20.8680 C   0  0  0  0  0  0  0  0  0  0  0  0
  -26.2960  -12.9510   20.3370 N   0  0  0  0  0  0  0  0  0  0  0  0
  -25.9310  -11.6620   20.5710 N   0  0  0  0  0  0  0  0  0  0  0  0
  -23.9030  -10.4320   21.0350 C   0  0  0  0  0  0  0  0  0  0  0  0
  -24.3590   -9.4240   21.9130 C   0  0  0  0  0  3  0  0  0  0  0  0
  -23.6310   -8.2260   22.0730 C   0  0  0  0  0  3  0  0  0  0  0  0
  -22.4270   -8.0290   21.3530 C   0  0  0  0  0  0  0  0  0  0  0  0
  -21.9880   -9.0240   20.4610 C   0  0  0  0  0  3  0  0  0  0  0  0
  -22.7180  -10.2140   20.3010 C   0  0  0  0  0  3  0  0  0  0  0  0
  -21.6650   -6.8860   21.4220 O   0  0  0  0  0  0  0  0  0  0  0  0
  -21.6870   -6.0710   22.5270 C   0  0  0  0  0  0  0  0  0  0  0  0
  -21.4060   -6.5610   23.8210 C   0  0  0  0  0  3  0  0  0  0  0  0
  -21.3660   -5.6730   24.9160 C   0  0  0  0  0  3  0  0  0  0  0  0
  -21.6050   -4.3010   24.7220 C   0  0  0  0  0  0  0  0  0  0  0  0
  -21.8840   -3.8120   23.4330 C   0  0  0  0  0  3  0  0  0  0  0  0
  -21.9210   -4.6950   22.3390 C   0  0  0  0  0  0  0  0  0  0  0  0
  -22.1660   -4.2150   21.0970 F   0  0  0  0  0  0  0  0  0  0  0  0
  -21.5600   -3.4470   25.7720 F   0  0  0  0  0  0  0  0  0  0  0  0
  -22.7790  -13.5260   21.1880 C   0  0  0  0  0  0  0  0  0  0  0  0
  -22.0320  -12.8280   22.0420 N   0  0  0  0  0  0  0  0  0  0  0  0
  -22.3520  -14.5580   20.6800 O   0  0  0  0  0  0  0  0  0  0  0  0
  -22.3720  -11.9900   22.4840 H   0  0  0  0  0  0  0  0  0  0  0  0
  -21.0980  -13.1520   22.2610 H   0  0  0  0  0  0  0  0  0  0  0  0
  -25.4130  -15.1990   20.4010 N   0  0  0  0  0  0  0  0  0  0  0  0
  -24.6360  -15.8510   20.4410 H   0  0  0  0  0  0  0  0  0  0  0  0
  -26.2670  -15.6150   20.0460 H   0  0  0  0  0  0  0  0  0  0  0  0
  1  2  1  0
  1  3  2  0
  2  5  1  0
  4  2  1  0
  5  6  1  0
  7  6  1  0
  7  8  1  0
  8 14  1  0
  9 11  1  0
  9 13  1  0
 10 13  1  0
 10 12  1  0
 14 11  1  0
 14 12  1  0
 14 15  1  6
 16 17  1  0
 16 13  1  0
 18 20  1  0
 18 17  1  0
 19 30  2  0
 20 25  1  0
 21 29  1  0
 21 31  1  0
 22 28  1  0
 22 24  1  0
 23 29  1  0
 24 23  1  0
 25 24  2  0
 26 27  1  0
 26 20  2  0
 27 22  2  0
 28 21  1  0
 29 19  1  0
 31 33  2  0
 32 31  1  0
 34 32  1  0
 35 44  2  0
 35 40  1  0
 36 32  1  0
 36 40  1  0
 37 36  1  0
 38 39  1  0
 38 37  1  0
 39 35  1  0
 40 41  2  0
 41 42  1  0
 43 42  2  0
 44 43  1  0
 45 19  1  0
 45 50  1  0
 45 46  1  0
 46 49  1  1
 46 47  1  0
 48 46  1  0
 50 53  1  0
 51 55  1  0
 51 50  1  0
 52 51  2  0
 55 54  1  0
 57 55  1  0
 57 58  1  0
 57 56  1  0
 59  1  1  0
 60 59  1  0
 61 62  1  0
 61 60  1  0
 62 63  1  0
 63 64  1  0
 64 65  1  0
 65 66  1  0
 66 67  1  0
 67 68  1  0
 68 69  1  0
 69 70  1  0
 70 71  1  0
 72 80  1  0
 73 78  1  0
 74 75  1  0
 74 73  1  0
 76 75  1  0
 76 85  1  0
 76 77  1  0
 78 72  1  0
 78 77  1  0
 79 72  2  0
 80 81  1  0
 80 71  1  0
 82 83  2  0
 83102  1  0
 84 83  1  0
 84 87  1  0
 85 82  1  0
 85 86  1  0
 86 84  2  0
 87 88  1  0
 88 89  2  0
 90 93  1  0
 90 89  1  0
 91 90  2  0
 92 91  1  0
 92 87  2  0
 93 94  1  0
 94 95  1  0
 95 96  2  0
 97 96  1  0
 97101  1  0
 98 97  2  0
 99 94  2  0
 99 98  1  0
100 99  1  0
102103  1  0
103106  1  0
103105  1  0
104102  2  0
107108  1  0
107 82  1  0
109107  1  0
M  ISO  4  17 101  18 101  72 100  80 100
M  END
>  <TORSDO>  (14) 
F 36

>  <SCORE>  (14) 
36.751

>  <name>  (14) 
14

>  <ligand_id>  (14) 
14

>  <original_smiles>  (14) 
[H]c1c([H])c([H])c2c(c1[H])C([H])([H])C([H])([H])C([H])([H])C2([H])N([H])C(=O)C1([H])N(C(=O)C([H])(N([H])C(=O)C([H])(N([H])C([H])([H])[H])C([H])([H])[H])C(C([H])([H])[H])(C([H])([H])[H])C([H])([H])[H])C([H])([H])c2c([H])c(OC([H])([H])C([H])([H])N3C([H])([H])C([H])([H])[N+]([H])(C([H])([H])C([H])([H])C([H])([H])C([H])([H])N([H])C(=O)C([H])([H])OC([H])([H])C([H])([H])OC([H])([H])C([H])([H])OC([H])([H])C([H])([H])OC([H])([H])C([H])([H])N([H])C(=O)N4C([H])([H])C([H])([H])C([H])([H])C([H])(n5nc(-c6c([H])c([H])c(Oc7c([H])c([H])c(F)c([H])c7F)c([H])c6[H])c(C(=O)N([H])[H])c5N([H])[H])C4([H])[H])C([H])([H])C3([H])[H])c([H])c([H])c2C1([H])[H]

>  <smiles>  (14) 
[H]c1c([H])c([H])c2c(c1[H])C([H])([H])C([H])([H])C([H])([H])C2([H])N([H])C(=O)C1([H])N(C(=O)C([H])(N([H])C(=O)C([H])(N([H])C([H])([H])[H])C([H])([H])[H])C(C([H])([H])[H])(C([H])([H])[H])C([H])([H])[H])C([H])([H])c2c([H])c(OC([H])([H])C([H])([H])N3C([H])([H])C([H])([H])[N+]([H])(C([H])([H])C([H])([H])C([H])([H])C([H])([H])N([H])C(=O)C([H])([H])OC([H])([H])C([H])([H])OC([H])([H])C([H])([H])OC([H])([H])C([H])([H])OC([H])([H])C([H])([H])N([H])C(=O)N4C([H])([H])C([H])([H])C([H])([H])C([H])(n5nc(-c6c([H])c([H])c(Oc7c([H])c([H])c(F)c([H])c7F)c([H])c6[H])c(C(=O)N([H])[H])c5N([H])[H])C4([H])[H])C([H])([H])C3([H])[H])c([H])c([H])c2C1([H])[H]

$$$$
15:0:0
     RDKit          3D

104111  0  0  1  0  0  0  0  0999 V2000
  -31.1480  -18.4330   20.0350 C   0  0  0  0  0  2  0  0  0  0  0  0
  -32.3440  -17.5490   17.9990 C   0  0  0  0  0  0  0  0  0  0  0  0
  -32.2990  -18.2220   19.1560 N   0  0  0  0  0  0  0  0  0  0  0  0
  -31.3500  -17.0850   17.4360 O   0  0  0  0  0  0  0  0  0  0  0  0
  -33.1940  -18.5280   19.5150 H   0  0  0  0  0  0  0  0  0  0  0  0
  -33.7410  -17.3310   17.4130 C   0  0  0  0  0  2  0  0  0  0  0  0
  -34.1990  -16.0740   17.8850 O   0  0  0  0  0  0  0  0  0  0  0  0
  -35.5730  -15.8150   17.6490 C   0  0  0  0  0  2  0  0  0  0  0  0
  -35.8660  -14.4620   18.3100 C   0  0  0  0  0  2  0  0  0  0  0  0
  -35.6790  -14.6170   19.7120 O   0  0  0  0  0  0  0  0  0  0  0  0
  -35.5510  -13.3870   20.4170 C   0  0  0  0  0  2  0  0  0  0  0  0
  -35.0770  -13.6990   21.8450 C   0  0  0  0  0  2  0  0  0  0  0  0
  -33.7460  -14.1880   21.7540 O   0  0  0  0  0  0  0  0  0  0  0  0
  -33.1740  -14.6170   22.9800 C   0  0  0  0  0  2  0  0  0  0  0  0
  -31.8770  -15.4110   22.7050 C   0  0  0  0  0  2  0  0  0  0  0  0
  -30.8540  -14.2610   20.7510 C   0  0  0  0  0  0  0  0  0  0  0  0
  -30.4090  -12.2820   19.3740 C   0  0  0  0  0  2  0  0  0  0  0  0
  -29.4740  -12.5460   18.1870 C   0  0  0  0  0  2  0  0  0  0  0  0
  -28.0090  -12.3820   18.6130 C   0  0  0  0  0  2  0  0  0  0  0  0
  -27.6710  -13.2070   19.8830 C   0  0  0  0  0  3  0  0  0  0  0  0
  -28.7100  -12.9720   21.0030 C   0  0  0  0  0  2  0  0  0  0  0  0
  -30.0650  -13.1990   20.4670 N   0  0  0  0  0  0  0  0  0  0  0  0
  -31.6840  -14.7200   19.9660 O   0  0  0  0  0  0  0  0  0  0  0  0
  -30.8470  -14.6050   22.0440 N   0  0  0  0  0  0  0  0  0  0  0  0
  -30.1590  -14.1560   22.6300 H   0  0  0  0  0  0  0  0  0  0  0  0
  -25.2620  -13.8150   20.5710 C   0  0  0  0  0  0  0  0  0  0  0  0
  -24.1850  -13.0430   20.9150 C   0  0  0  0  0  0  0  0  0  0  0  0
  -24.6400  -11.6890   20.8730 C   0  0  0  0  0  0  0  0  0  0  0  0
  -26.3080  -12.9340   20.3430 N   0  0  0  0  0  0  0  0  0  0  0  0
  -25.9340  -11.6490   20.5780 N   0  0  0  0  0  0  0  0  0  0  0  0
  -23.9070  -10.4290   21.0400 C   0  0  0  0  0  0  0  0  0  0  0  0
  -24.3630   -9.4200   21.9190 C   0  0  0  0  0  3  0  0  0  0  0  0
  -23.6310   -8.2240   22.0750 C   0  0  0  0  0  3  0  0  0  0  0  0
  -22.4290   -8.0280   21.3560 C   0  0  0  0  0  0  0  0  0  0  0  0
  -21.9920   -9.0250   20.4660 C   0  0  0  0  0  3  0  0  0  0  0  0
  -22.7250  -10.2120   20.3050 C   0  0  0  0  0  3  0  0  0  0  0  0
  -21.6670   -6.8870   21.4240 O   0  0  0  0  0  0  0  0  0  0  0  0
  -21.6870   -6.0710   22.5290 C   0  0  0  0  0  0  0  0  0  0  0  0
  -21.4030   -6.5620   23.8210 C   0  0  0  0  0  3  0  0  0  0  0  0
  -21.3670   -5.6770   24.9180 C   0  0  0  0  0  3  0  0  0  0  0  0
  -21.6050   -4.3030   24.7220 C   0  0  0  0  0  0  0  0  0  0  0  0
  -21.8830   -3.8120   23.4340 C   0  0  0  0  0  3  0  0  0  0  0  0
  -21.9220   -4.6940   22.3390 C   0  0  0  0  0  0  0  0  0  0  0  0
  -22.1680   -4.2130   21.0970 F   0  0  0  0  0  0  0  0  0  0  0  0
  -21.5610   -3.4500   25.7720 F   0  0  0  0  0  0  0  0  0  0  0  0
  -22.7870  -13.5250   21.1790 C   0  0  0  0  0  0  0  0  0  0  0  0
  -22.0490  -12.8250   22.0360 N   0  0  0  0  0  0  0  0  0  0  0  0
  -22.3580  -14.5560   20.6650 O   0  0  0  0  0  0  0  0  0  0  0  0
  -22.4130  -11.9950   22.4790 H   0  0  0  0  0  0  0  0  0  0  0  0
  -21.1070  -13.1210   22.2430 H   0  0  0  0  0  0  0  0  0  0  0  0
  -25.4320  -15.1880   20.4140 N   0  0  0  0  0  0  0  0  0  0  0  0
  -24.6700  -15.8440   20.5470 H   0  0  0  0  0  0  0  0  0  0  0  0
  -26.2880  -15.6330   20.1060 H   0  0  0  0  0  0  0  0  0  0  0  0
  -29.9330  -19.1070   19.3710 C   0  0  0  0  0  2  0  0  0  0  0  0
  -30.2400  -20.3990   18.5950 C   0  0  0  0  0  2  0  0  0  0  0  0
  -28.9670  -20.9810   17.9600 C   0  0  0  0  0  2  0  0  0  0  0  0
  -29.2330  -22.1010   16.9400 C   0  0  0  0  0  2  0  0  0  0  0  0
  -29.1200  -24.2820   18.1210 C   0  0  0  0  0  0  0  0  0  0  0  0
  -29.8190  -23.2920   17.5500 N   0  0  0  0  0  0  0  0  0  0  0  0
  -27.8950  -24.2290   18.2420 O   0  0  0  0  0  0  0  0  0  0  0  0
  -30.8230  -23.4020   17.4780 H   0  0  0  0  0  0  0  0  0  0  0  0
  -29.9150  -25.5030   18.5980 C   0  0  0  0  0  2  0  0  0  0  0  0
  -29.0710  -26.7780   18.7910 C   0  0  0  0  0  2  0  0  0  0  0  0
  -28.4050  -26.7560   20.0520 O   0  0  0  0  0  0  0  0  0  0  0  0
  -24.6100  -31.8710   23.2120 C   0  0  0  0  0  0  0  0  0  0  0  0
  -27.2420  -27.4790   20.0810 C   0  0  0  0  0  0  0  0  0  0  0  0
  -23.3970  -30.4920   21.5520 C   0  0  0  0  0  3  0  0  0  0  0  0
  -24.8450  -28.9590   20.1180 C   0  0  0  0  0  0  0  0  0  0  0  0
  -25.9200  -30.8470   21.3590 C   0  0  0  0  0  2  0  0  0  0  0  0
  -26.0010  -29.4810   20.7140 C   0  0  0  0  0  0  0  0  0  0  0  0
  -27.2010  -28.7410   20.7060 C   0  0  0  0  0  3  0  0  0  0  0  0
  -26.0720  -26.9550   19.4930 C   0  0  0  0  0  3  0  0  0  0  0  0
  -24.8710  -27.6920   19.5100 C   0  0  0  0  0  3  0  0  0  0  0  0
  -23.6040  -29.8220   20.1660 C   0  0  0  0  0  2  0  0  0  0  0  0
  -24.6610  -31.0840   22.1000 N   0  0  0  0  0  0  0  0  0  0  0  0
  -23.5310  -32.1450   23.7530 O   0  0  0  0  0  0  0  0  0  0  0  0
  -22.7390  -29.4670   22.5010 C   0  0  0  0  0  0  0  0  0  0  0  0
  -21.4120  -29.3020   22.3760 N   0  0  0  0  0  0  0  0  0  0  0  0
  -23.4180  -28.8210   23.3050 O   0  0  0  0  0  0  0  0  0  0  0  0
  -20.9260  -29.8750   21.7000 H   0  0  0  0  0  0  0  0  0  0  0  0
  -18.0260  -28.1370   22.8490 C   0  0  0  0  0  0  0  0  0  0  0  0
  -20.5850  -28.3650   23.1340 C   0  0  0  0  0  3  0  0  0  0  0  0
  -20.6750  -26.9390   22.5420 C   0  0  0  0  0  2  0  0  0  0  0  0
  -19.5730  -26.6390   21.5210 C   0  0  0  0  0  2  0  0  0  0  0  0
  -18.1910  -26.7930   22.1620 C   0  0  0  0  0  2  0  0  0  0  0  0
  -19.1510  -28.8830   23.2910 C   0  0  0  0  0  0  0  0  0  0  0  0
  -18.9440  -30.1440   23.8910 C   0  0  0  0  0  3  0  0  0  0  0  0
  -17.6450  -30.6580   24.0570 C   0  0  0  0  0  3  0  0  0  0  0  0
  -16.5340  -29.9080   23.6330 C   0  0  0  0  0  3  0  0  0  0  0  0
  -16.7250  -28.6510   23.0340 C   0  0  0  0  0  3  0  0  0  0  0  0
  -25.9010  -32.4840   23.8400 C   0  0  0  0  0  3  0  0  0  0  0  0
  -26.4470  -31.6600   25.0710 C   0  0  1  0  0  0  0  0  0  0  0  0
  -25.3750  -31.3670   26.1460 C   0  0  0  0  0  1  0  0  0  0  0  0
  -27.0280  -30.3060   24.6030 C   0  0  0  0  0  1  0  0  0  0  0  0
  -27.6050  -32.4310   25.7480 C   0  0  0  0  0  1  0  0  0  0  0  0
  -25.5890  -33.8640   24.2350 N   0  0  0  0  0  0  0  0  0  0  0  0
  -25.9030  -34.9500   23.5150 C   0  0  0  0  0  0  0  0  0  0  0  0
  -26.5580  -34.8950   22.4710 O   0  0  0  0  0  0  0  0  0  0  0  0
  -25.0070  -33.9800   25.0520 H   0  0  0  0  0  0  0  0  0  0  0  0
  -24.1480  -36.7310   23.2640 C   0  0  0  0  0  1  0  0  0  0  0  0
  -25.4100  -36.3130   24.0360 C   0  0  0  0  0  3  0  0  0  0  0  0
  -27.5590  -37.1810   24.8460 C   0  0  0  0  0  1  0  0  0  0  0  0
  -26.4280  -37.3820   23.9430 N   0  0  0  0  0  0  0  0  0  0  0  0
  -26.0180  -38.2900   24.1450 H   0  0  0  0  0  0  0  0  0  0  0  0
  2  3  1  0
  3  5  1  0
  3  1  1  0
  4  2  2  0
  6  7  1  0
  6  2  1  0
  8  7  1  0
  8  9  1  0
  9 10  1  0
 10 11  1  0
 11 12  1  0
 13 12  1  0
 13 14  1  0
 15 14  1  0
 16 24  1  0
 17 22  1  0
 18 19  1  0
 18 17  1  0
 20 19  1  0
 20 29  1  0
 20 21  1  0
 22 16  1  0
 22 21  1  0
 23 16  2  0
 24 25  1  0
 24 15  1  0
 26 27  2  0
 27 46  1  0
 28 27  1  0
 28 31  1  0
 29 26  1  0
 29 30  1  0
 30 28  2  0
 31 32  1  0
 32 33  2  0
 34 37  1  0
 34 33  1  0
 35 34  2  0
 36 35  1  0
 36 31  2  0
 37 38  1  0
 38 39  1  0
 39 40  2  0
 41 40  1  0
 41 45  1  0
 42 41  2  0
 43 38  2  0
 43 42  1  0
 44 43  1  0
 46 47  1  0
 47 50  1  0
 47 49  1  0
 48 46  2  0
 51 52  1  0
 51 26  1  0
 53 51  1  0
 54  1  1  0
 55 54  1  0
 56 55  1  0
 57 59  1  0
 57 56  1  0
 58 60  2  0
 58 62  1  0
 59 58  1  0
 61 59  1  0
 62 63  1  0
 63 64  1  0
 64 66  1  0
 65 76  2  0
 66 71  1  0
 67 75  1  0
 67 77  1  0
 68 74  1  0
 68 70  1  0
 69 75  1  0
 70 69  1  0
 71 70  2  0
 72 73  1  0
 72 66  2  0
 73 68  2  0
 74 67  1  0
 75 65  1  0
 77 79  2  0
 78 77  1  0
 80 78  1  0
 81 90  2  0
 81 86  1  0
 82 78  1  0
 82 86  1  0
 83 82  1  0
 84 85  1  0
 84 83  1  0
 85 81  1  0
 86 87  2  0
 87 88  1  0
 89 88  2  0
 90 89  1  0
 91 65  1  0
 91 96  1  0
 91 92  1  0
 92 95  1  1
 92 93  1  0
 94 92  1  0
 96 99  1  0
 97101  1  0
 97 96  1  0
 98 97  2  0
101100  1  0
103101  1  0
103104  1  0
103102  1  0
M  ISO  4  16 100  24 100  63 101  64 101
M  END
>  <TORSDO>  (15) 
F 34

>  <SCORE>  (15) 
-2.924

>  <name>  (15) 
15

>  <ligand_id>  (15) 
15

>  <original_smiles>  (15) 
[H]c1c([H])c([H])c2c(c1[H])C([H])([H])C([H])([H])C([H])([H])C2([H])N([H])C(=O)C1([H])N(C(=O)C([H])(N([H])C(=O)C([H])(N([H])C([H])([H])[H])C([H])([H])[H])C(C([H])([H])[H])(C([H])([H])[H])C([H])([H])[H])C([H])([H])c2c([H])c(OC([H])([H])C([H])([H])C(=O)N([H])C([H])([H])C([H])([H])C([H])([H])C([H])([H])C([H])([H])N([H])C(=O)C([H])([H])OC([H])([H])C([H])([H])OC([H])([H])C([H])([H])OC([H])([H])C([H])([H])N([H])C(=O)N3C([H])([H])C([H])([H])C([H])([H])C([H])(n4nc(-c5c([H])c([H])c(Oc6c([H])c([H])c(F)c([H])c6F)c([H])c5[H])c(C(=O)N([H])[H])c4N([H])[H])C3([H])[H])c([H])c([H])c2C1([H])[H]

>  <smiles>  (15) 
[H]c1c([H])c([H])c2c(c1[H])C([H])([H])C([H])([H])C([H])([H])C2([H])N([H])C(=O)C1([H])N(C(=O)C([H])(N([H])C(=O)C([H])(N([H])C([H])([H])[H])C([H])([H])[H])C(C([H])([H])[H])(C([H])([H])[H])C([H])([H])[H])C([H])([H])c2c([H])c(OC([H])([H])C([H])([H])C(=O)N([H])C([H])([H])C([H])([H])C([H])([H])C([H])([H])C([H])([H])N([H])C(=O)C([H])([H])OC([H])([H])C([H])([H])OC([H])([H])C([H])([H])OC([H])([H])C([H])([H])N([H])C(=O)N3C([H])([H])C([H])([H])C([H])([H])C([H])(n4nc(-c5c([H])c([H])c(Oc6c([H])c([H])c(F)c([H])c6F)c([H])c5[H])c(C(=O)N([H])[H])c4N([H])[H])C3([H])[H])c([H])c([H])c2C1([H])[H]

$$$$
16:0:0
     RDKit          3D

113120  0  0  1  0  0  0  0  0999 V2000
  -32.3920  -18.5500   17.1340 C   0  0  0  0  0  0  0  0  0  0  0  0
  -31.5370  -19.1280   17.9860 N   0  0  0  0  0  0  0  0  0  0  0  0
  -33.6160  -18.6080   17.2720 O   0  0  0  0  0  0  0  0  0  0  0  0
  -30.5540  -19.0260   17.7800 H   0  0  0  0  0  0  0  0  0  0  0  0
  -31.9160  -19.8760   19.1810 C   0  0  0  0  0  2  0  0  0  0  0  0
  -30.7540  -20.7560   19.6680 C   0  0  0  0  0  2  0  0  0  0  0  0
  -31.1450  -22.2340   19.8430 C   0  0  0  0  0  2  0  0  0  0  0  0
  -29.9030  -23.1290   20.0190 C   0  0  0  0  0  2  0  0  0  0  0  0
  -30.0750  -24.6210   19.6370 C   0  0  0  0  0  3  0  0  0  0  0  0
  -31.8900  -25.2780   18.0410 C   0  0  0  0  0  0  0  0  0  0  0  0
  -30.6920  -24.7540   18.3220 N   0  0  0  0  0  0  0  0  0  0  0  0
  -32.7050  -25.5810   18.9140 O   0  0  0  0  0  0  0  0  0  0  0  0
  -30.1120  -24.5290   17.5270 H   0  0  0  0  0  0  0  0  0  0  0  0
  -30.9700  -26.1680   15.8590 C   0  0  0  0  0  1  0  0  0  0  0  0
  -33.4100  -26.4330   16.3660 C   0  0  0  0  0  1  0  0  0  0  0  0
  -32.4850  -24.1450   15.8750 C   0  0  0  0  0  1  0  0  0  0  0  0
  -32.1890  -25.5030   16.5400 C   0  0  1  0  0  0  0  0  0  0  0  0
  -28.6960  -25.3040   19.5870 C   0  0  0  0  0  2  0  0  0  0  0  0
  -28.7350  -26.7280   19.7370 O   0  0  0  0  0  0  0  0  0  0  0  0
  -24.7760  -31.6800   23.0160 C   0  0  0  0  0  0  0  0  0  0  0  0
  -27.5150  -27.3830   19.7960 C   0  0  0  0  0  0  0  0  0  0  0  0
  -23.5810  -30.2420   21.3990 C   0  0  0  0  0  3  0  0  0  0  0  0
  -25.0530  -28.7830   19.9190 C   0  0  0  0  0  0  0  0  0  0  0  0
  -26.0830  -30.7090   21.1280 C   0  0  0  0  0  2  0  0  0  0  0  0
  -26.2070  -29.3490   20.4730 C   0  0  0  0  0  0  0  0  0  0  0  0
  -27.4400  -28.6560   20.4110 C   0  0  0  0  0  3  0  0  0  0  0  0
  -26.3280  -26.8300   19.2560 C   0  0  0  0  0  3  0  0  0  0  0  0
  -25.1070  -27.5190   19.3140 C   0  0  0  0  0  3  0  0  0  0  0  0
  -23.7750  -29.5850   20.0090 C   0  0  0  0  0  2  0  0  0  0  0  0
  -24.8330  -30.8930   21.9050 N   0  0  0  0  0  0  0  0  0  0  0  0
  -23.7000  -31.9010   23.5900 O   0  0  0  0  0  0  0  0  0  0  0  0
  -23.0050  -29.1840   22.3680 C   0  0  0  0  0  0  0  0  0  0  0  0
  -21.7210  -28.8330   22.1790 N   0  0  0  0  0  0  0  0  0  0  0  0
  -23.7110  -28.6780   23.2450 O   0  0  0  0  0  0  0  0  0  0  0  0
  -21.2070  -29.3000   21.4450 H   0  0  0  0  0  0  0  0  0  0  0  0
  -18.4790  -27.2910   22.5830 C   0  0  0  0  0  0  0  0  0  0  0  0
  -20.9810  -27.8320   22.9450 C   0  0  0  0  0  3  0  0  0  0  0  0
  -21.2610  -26.4060   22.4160 C   0  0  0  0  0  2  0  0  0  0  0  0
  -20.2420  -25.9400   21.3710 C   0  0  0  0  0  2  0  0  0  0  0  0
  -18.8270  -25.9520   21.9570 C   0  0  0  0  0  2  0  0  0  0  0  0
  -19.4910  -28.1820   23.0330 C   0  0  0  0  0  0  0  0  0  0  0  0
  -19.1140  -29.4290   23.5750 C   0  0  0  0  0  3  0  0  0  0  0  0
  -17.7580  -29.7910   23.6740 C   0  0  0  0  0  3  0  0  0  0  0  0
  -16.7590  -28.9010   23.2420 C   0  0  0  0  0  3  0  0  0  0  0  0
  -17.1210  -27.6530   22.7020 C   0  0  0  0  0  3  0  0  0  0  0  0
  -26.0520  -32.3610   23.6010 C   0  0  0  0  0  3  0  0  0  0  0  0
  -25.6630  -33.6970   24.0690 N   0  0  0  0  0  0  0  0  0  0  0  0
  -25.8500  -34.8300   23.3780 C   0  0  0  0  0  0  0  0  0  0  0  0
  -26.4410  -34.8640   22.2960 O   0  0  0  0  0  0  0  0  0  0  0  0
  -25.1250  -33.7380   24.9220 H   0  0  0  0  0  0  0  0  0  0  0  0
  -23.9610  -36.4880   23.3060 C   0  0  0  0  0  1  0  0  0  0  0  0
  -25.2930  -36.1310   23.9860 C   0  0  0  0  0  3  0  0  0  0  0  0
  -27.4090  -37.1310   24.7260 C   0  0  0  0  0  1  0  0  0  0  0  0
  -26.2250  -37.2740   23.8830 N   0  0  0  0  0  0  0  0  0  0  0  0
  -25.7600  -38.1420   24.1360 H   0  0  0  0  0  0  0  0  0  0  0  0
  -26.7180  -31.5320   24.7660 C   0  0  1  0  0  0  0  0  0  0  0  0
  -25.7220  -31.0880   25.8630 C   0  0  0  0  0  1  0  0  0  0  0  0
  -27.4050  -30.2640   24.2080 C   0  0  0  0  0  1  0  0  0  0  0  0
  -27.8260  -32.3750   25.4420 C   0  0  0  0  0  1  0  0  0  0  0  0
  -31.7780  -17.8080   15.9450 C   0  0  0  0  0  2  0  0  0  0  0  0
  -30.9450  -18.7030   15.2180 O   0  0  0  0  0  0  0  0  0  0  0  0
  -30.1610  -18.0260   14.2440 C   0  0  0  0  0  2  0  0  0  0  0  0
  -28.8490  -18.7770   13.9890 C   0  0  0  0  0  2  0  0  0  0  0  0
  -28.1280  -18.8510   15.2110 O   0  0  0  0  0  0  0  0  0  0  0  0
  -26.7640  -19.2170   15.0400 C   0  0  0  0  0  2  0  0  0  0  0  0
  -26.0890  -19.2880   16.4150 C   0  0  0  0  0  2  0  0  0  0  0  0
  -26.4840  -20.4930   17.0670 O   0  0  0  0  0  0  0  0  0  0  0  0
  -26.5220  -20.4300   18.4910 C   0  0  0  0  0  2  0  0  0  0  0  0
  -27.8710  -19.8630   18.9620 C   0  0  0  0  0  2  0  0  0  0  0  0
  -27.7820  -18.4530   19.0890 O   0  0  0  0  0  0  0  0  0  0  0  0
  -29.0430  -17.8540   19.3300 C   0  0  0  0  0  2  0  0  0  0  0  0
  -28.8250  -16.3750   19.6390 C   0  0  0  0  0  2  0  0  0  0  0  0
  -30.0500  -15.7100   19.9200 O   0  0  0  0  0  0  0  0  0  0  0  0
  -30.5380  -15.9370   21.2370 C   0  0  0  0  0  2  0  0  0  0  0  0
  -31.6980  -14.9690   21.5100 C   0  0  0  0  0  2  0  0  0  0  0  0
  -31.6400  -12.7230   20.4490 C   0  0  0  0  0  0  0  0  0  0  0  0
  -30.8610  -11.0280   18.8490 C   0  0  0  0  0  2  0  0  0  0  0  0
  -29.9870  -11.7180   17.7840 C   0  0  0  0  0  2  0  0  0  0  0  0
  -28.5200  -11.8400   18.2440 C   0  0  0  0  0  2  0  0  0  0  0  0
  -28.3850  -12.3920   19.6880 C   0  0  0  0  0  3  0  0  0  0  0  0
  -29.3560  -11.6670   20.6470 C   0  0  0  0  0  2  0  0  0  0  0  0
  -30.7230  -11.7860   20.0990 N   0  0  0  0  0  0  0  0  0  0  0  0
  -32.7350  -12.8520   19.8950 O   0  0  0  0  0  0  0  0  0  0  0  0
  -31.2160  -13.5950   21.3690 N   0  0  0  0  0  0  0  0  0  0  0  0
  -30.3200  -13.3880   21.7820 H   0  0  0  0  0  0  0  0  0  0  0  0
  -26.0770  -13.3480   20.3230 C   0  0  0  0  0  0  0  0  0  0  0  0
  -24.9120  -12.7470   20.7140 C   0  0  0  0  0  0  0  0  0  0  0  0
  -25.1910  -11.3490   20.7690 C   0  0  0  0  0  0  0  0  0  0  0  0
  -27.0000  -12.3260   20.1580 N   0  0  0  0  0  0  0  0  0  0  0  0
  -26.4660  -11.1200   20.4780 N   0  0  0  0  0  0  0  0  0  0  0  0
  -24.3030  -10.2090   21.0280 C   0  0  0  0  0  0  0  0  0  0  0  0
  -24.6360   -9.2180   21.9770 C   0  0  0  0  0  3  0  0  0  0  0  0
  -23.7600   -8.1370   22.2180 C   0  0  0  0  0  3  0  0  0  0  0  0
  -22.5370   -8.0450   21.5130 C   0  0  0  0  0  0  0  0  0  0  0  0
  -22.2230   -9.0230   20.5540 C   0  0  0  0  0  3  0  0  0  0  0  0
  -23.0990  -10.0930   20.3100 C   0  0  0  0  0  3  0  0  0  0  0  0
  -21.6360   -7.0180   21.6630 O   0  0  0  0  0  0  0  0  0  0  0  0
  -21.5750   -6.2790   22.8170 C   0  0  0  0  0  0  0  0  0  0  0  0
  -21.3220   -6.8750   24.0730 C   0  0  0  0  0  3  0  0  0  0  0  0
  -21.2000   -6.0690   25.2210 C   0  0  0  0  0  3  0  0  0  0  0  0
  -21.3200   -4.6710   25.1190 C   0  0  0  0  0  0  0  0  0  0  0  0
  -21.5660   -4.0750   23.8700 C   0  0  0  0  0  3  0  0  0  0  0  0
  -21.6890   -4.8760   22.7210 C   0  0  0  0  0  0  0  0  0  0  0  0
  -21.9060   -4.2970   21.5180 F   0  0  0  0  0  0  0  0  0  0  0  0
  -21.1930   -3.8980   26.2220 F   0  0  0  0  0  0  0  0  0  0  0  0
  -23.5910  -13.4240   20.9440 C   0  0  0  0  0  0  0  0  0  0  0  0
  -22.7830  -12.9040   21.8600 N   0  0  0  0  0  0  0  0  0  0  0  0
  -23.2880  -14.4520   20.3420 O   0  0  0  0  0  0  0  0  0  0  0  0
  -23.0350  -12.0730   22.3730 H   0  0  0  0  0  0  0  0  0  0  0  0
  -21.8970  -13.3490   22.0520 H   0  0  0  0  0  0  0  0  0  0  0  0
  -26.4220  -14.6710   20.0820 N   0  0  0  0  0  0  0  0  0  0  0  0
  -25.7670  -15.4400   20.1790 H   0  0  0  0  0  0  0  0  0  0  0  0
  -27.3530  -14.9620   19.8190 H   0  0  0  0  0  0  0  0  0  0  0  0
  1  3  2  0
  1  2  1  0
  2  5  1  0
  4  2  1  0
  5  6  1  0
  6  7  1  0
  7  8  1  0
  9 18  1  0
  9  8  1  0
 10 11  1  0
 10 12  2  0
 11  9  1  0
 13 11  1  0
 17 14  1  6
 15 17  1  0
 16 17  1  0
 17 10  1  0
 18 19  1  0
 19 21  1  0
 20 31  2  0
 21 26  1  0
 22 30  1  0
 22 32  1  0
 23 29  1  0
 23 25  1  0
 24 30  1  0
 25 24  1  0
 26 25  2  0
 27 28  1  0
 27 21  2  0
 28 23  2  0
 29 22  1  0
 30 20  1  0
 32 34  2  0
 33 32  1  0
 35 33  1  0
 36 45  2  0
 36 41  1  0
 37 33  1  0
 37 41  1  0
 38 37  1  0
 39 40  1  0
 39 38  1  0
 40 36  1  0
 41 42  2  0
 42 43  1  0
 44 43  2  0
 45 44  1  0
 46 20  1  0
 46 47  1  0
 46 56  1  0
 47 50  1  0
 48 52  1  0
 48 47  1  0
 49 48  2  0
 52 51  1  0
 54 52  1  0
 54 55  1  0
 54 53  1  0
 56 59  1  1
 56 57  1  0
 58 56  1  0
 60  1  1  0
 61 60  1  0
 62 61  1  0
 63 62  1  0
 63 64  1  0
 65 64  1  0
 65 66  1  0
 66 67  1  0
 67 68  1  0
 68 69  1  0
 69 70  1  0
 70 71  1  0
 71 72  1  0
 72 73  1  0
 73 74  1  0
 74 75  1  0
 76 84  1  0
 77 82  1  0
 78 79  1  0
 78 77  1  0
 80 79  1  0
 80 89  1  0
 80 81  1  0
 82 76  1  0
 82 81  1  0
 83 76  2  0
 84 75  1  0
 84 85  1  0
 86 87  2  0
 87 88  1  0
 87106  1  0
 88 91  1  0
 89 86  1  0
 89 90  1  0
 90 88  2  0
 91 92  1  0
 92 93  2  0
 94 97  1  0
 94 93  1  0
 95 94  2  0
 96 95  1  0
 96 91  2  0
 97 98  1  0
 98 99  1  0
 99100  2  0
101100  1  0
101105  1  0
102101  2  0
103 98  2  0
103102  1  0
104103  1  0
106107  1  0
107110  1  0
107109  1  0
108106  2  0
111112  1  0
111 86  1  0
113111  1  0
M  ISO  4  18 101  19 101  76 100  84 100
M  END
>  <TORSDO>  (16) 
F 40

>  <SCORE>  (16) 
-6.710

>  <name>  (16) 
16

>  <ligand_id>  (16) 
16

>  <original_smiles>  (16) 
[H]c1c([H])c([H])c2c(c1[H])C([H])([H])C([H])([H])C([H])([H])C2([H])N([H])C(=O)C1([H])N(C(=O)C([H])(N([H])C(=O)C([H])(N([H])C([H])([H])[H])C([H])([H])[H])C(C([H])([H])[H])(C([H])([H])[H])C([H])([H])[H])C([H])([H])c2c([H])c(OC([H])([H])C([H])(N([H])C(=O)C(C([H])([H])[H])(C([H])([H])[H])C([H])([H])[H])C([H])([H])C([H])([H])C([H])([H])C([H])([H])N([H])C(=O)C([H])([H])OC([H])([H])C([H])([H])OC([H])([H])C([H])([H])OC([H])([H])C([H])([H])OC([H])([H])C([H])([H])OC([H])([H])C([H])([H])N([H])C(=O)N3C([H])([H])C([H])([H])C([H])([H])C([H])(n4nc(-c5c([H])c([H])c(Oc6c([H])c([H])c(F)c([H])c6F)c([H])c5[H])c(C(=O)N([H])[H])c4N([H])[H])C3([H])[H])c([H])c([H])c2C1([H])[H]

>  <smiles>  (16) 
[H]c1c([H])c([H])c2c(c1[H])C([H])([H])C([H])([H])C([H])([H])C2([H])N([H])C(=O)C1([H])N(C(=O)C([H])(N([H])C(=O)C([H])(N([H])C([H])([H])[H])C([H])([H])[H])C(C([H])([H])[H])(C([H])([H])[H])C([H])([H])[H])C([H])([H])c2c([H])c(OC([H])([H])C([H])(N([H])C(=O)C(C([H])([H])[H])(C([H])([H])[H])C([H])([H])[H])C([H])([H])C([H])([H])C([H])([H])C([H])([H])N([H])C(=O)C([H])([H])OC([H])([H])C([H])([H])OC([H])([H])C([H])([H])OC([H])([H])C([H])([H])OC([H])([H])C([H])([H])OC([H])([H])C([H])([H])N([H])C(=O)N3C([H])([H])C([H])([H])C([H])([H])C([H])(n4nc(-c5c([H])c([H])c(Oc6c([H])c([H])c(F)c([H])c6F)c([H])c5[H])c(C(=O)N([H])[H])c4N([H])[H])C3([H])[H])c([H])c([H])c2C1([H])[H]

$$$$
17:0:0
     RDKit          3D

109116  0  0  1  0  0  0  0  0999 V2000
  -24.0330  -25.1920   21.4490 C   0  0  0  0  0  2  0  0  0  0  0  0
  -23.9120  -25.2350   22.9800 C   0  0  0  0  0  2  0  0  0  0  0  0
  -24.6080  -26.4360   23.5020 N   0  0  0  0  0  4  0  0  0  0  0  0
  -23.9670  -27.2230   23.5730 H   0  0  0  0  0  0  0  0  0  0  0  0
  -25.2730  -26.6930   22.7950 H   0  0  0  0  0  0  0  0  0  0  0  0
  -25.3460  -26.2310   24.7710 C   0  0  0  0  0  2  0  0  0  0  0  0
  -26.5500  -27.1900   24.9260 C   0  0  0  0  0  2  0  0  0  0  0  0
  -27.8180  -26.5420   25.5460 C   0  0  0  0  0  2  0  0  0  0  0  0
  -28.6190  -25.6850   24.6280 N   0  0  0  0  0  4  0  0  0  0  0  0
  -28.1100  -24.8820   24.2990 H   0  0  0  0  0  0  0  0  0  0  0  0
  -29.3570  -25.3070   25.2050 H   0  0  0  0  0  0  0  0  0  0  0  0
  -29.2990  -26.3680   23.4970 C   0  0  0  0  0  2  0  0  0  0  0  0
  -28.5150  -26.2710   22.1670 C   0  0  0  0  0  2  0  0  0  0  0  0
  -29.2160  -26.9600   20.9810 C   0  0  0  0  0  2  0  0  0  0  0  0
  -28.3630  -26.9880   19.8300 O   0  0  0  0  0  0  0  0  0  0  0  0
  -24.5570  -32.0000   23.2000 C   0  0  0  0  0  0  0  0  0  0  0  0
  -27.2120  -27.7420   19.9070 C   0  0  0  0  0  0  0  0  0  0  0  0
  -23.3280  -30.6270   21.5490 C   0  0  0  0  0  3  0  0  0  0  0  0
  -24.7750  -29.1680   20.0290 C   0  0  0  0  0  0  0  0  0  0  0  0
  -25.8350  -31.0480   21.2930 C   0  0  0  0  0  2  0  0  0  0  0  0
  -25.9270  -29.6970   20.6190 C   0  0  0  0  0  0  0  0  0  0  0  0
  -27.1430  -28.9900   20.5670 C   0  0  0  0  0  3  0  0  0  0  0  0
  -26.0530  -27.2380   19.2870 C   0  0  0  0  0  3  0  0  0  0  0  0
  -24.8300  -27.9350   19.3580 C   0  0  0  0  0  3  0  0  0  0  0  0
  -23.5090  -29.9890   20.1450 C   0  0  0  0  0  2  0  0  0  0  0  0
  -24.5920  -31.2360   22.0730 N   0  0  0  0  0  0  0  0  0  0  0  0
  -23.4880  -32.2350   23.7790 O   0  0  0  0  0  0  0  0  0  0  0  0
  -22.7210  -29.5620   22.4890 C   0  0  0  0  0  0  0  0  0  0  0  0
  -21.3970  -29.3700   22.3860 N   0  0  0  0  0  0  0  0  0  0  0  0
  -23.4400  -28.8940   23.2440 O   0  0  0  0  0  0  0  0  0  0  0  0
  -20.8840  -29.9560   21.7410 H   0  0  0  0  0  0  0  0  0  0  0  0
  -18.0530  -28.0790   22.8870 C   0  0  0  0  0  0  0  0  0  0  0  0
  -20.6080  -28.3900   23.1300 C   0  0  0  0  0  3  0  0  0  0  0  0
  -20.7350  -26.9840   22.5040 C   0  0  0  0  0  2  0  0  0  0  0  0
  -19.6210  -26.6540   21.5080 C   0  0  0  0  0  2  0  0  0  0  0  0
  -18.2520  -26.7470   22.1830 C   0  0  0  0  0  2  0  0  0  0  0  0
  -19.1620  -28.8560   23.3180 C   0  0  0  0  0  0  0  0  0  0  0  0
  -18.9250  -30.1020   23.9390 C   0  0  0  0  0  3  0  0  0  0  0  0
  -17.6140  -30.5720   24.1320 C   0  0  0  0  0  3  0  0  0  0  0  0
  -16.5200  -29.7940   23.7180 C   0  0  0  0  0  3  0  0  0  0  0  0
  -16.7400  -28.5500   23.0990 C   0  0  0  0  0  3  0  0  0  0  0  0
  -25.8530  -32.6240   23.8030 C   0  0  0  0  0  3  0  0  0  0  0  0
  -25.5530  -34.0200   24.1470 N   0  0  0  0  0  0  0  0  0  0  0  0
  -25.8900  -35.0750   23.3930 C   0  0  0  0  0  0  0  0  0  0  0  0
  -26.5600  -34.9760   22.3610 O   0  0  0  0  0  0  0  0  0  0  0  0
  -24.9670  -34.1710   24.9540 H   0  0  0  0  0  0  0  0  0  0  0  0
  -24.1810  -36.8770   23.0360 C   0  0  0  0  0  1  0  0  0  0  0  0
  -25.4100  -36.4610   23.8580 C   0  0  0  0  0  3  0  0  0  0  0  0
  -27.5480  -37.3200   24.7090 C   0  0  0  0  0  1  0  0  0  0  0  0
  -26.4520  -37.5060   23.7610 N   0  0  0  0  0  0  0  0  0  0  0  0
  -26.0550  -38.4300   23.9050 H   0  0  0  0  0  0  0  0  0  0  0  0
  -26.3910  -31.8390   25.0620 C   0  0  1  0  0  0  0  0  0  0  0  0
  -25.3110  -31.5730   26.1380 C   0  0  0  0  0  1  0  0  0  0  0  0
  -26.9840  -30.4730   24.6440 C   0  0  0  0  0  1  0  0  0  0  0  0
  -27.5400  -32.6390   25.7180 C   0  0  0  0  0  1  0  0  0  0  0  0
  -23.6200  -23.8690   20.7740 C   0  0  0  0  0  2  0  0  0  0  0  0
  -24.2410  -23.7580   19.3630 C   0  0  0  0  0  2  0  0  0  0  0  0
  -24.0690  -22.4260   18.7400 N   0  0  0  0  0  4  0  0  0  0  0  0
  -23.1190  -22.3410   18.4150 H   0  0  0  0  0  0  0  0  0  0  0  0
  -24.2110  -21.7330   19.4550 H   0  0  0  0  0  0  0  0  0  0  0  0
  -25.0030  -22.1880   17.6110 C   0  0  0  0  0  2  0  0  0  0  0  0
  -24.9280  -20.7670   16.9990 C   0  0  0  0  0  2  0  0  0  0  0  0
  -25.4460  -19.6120   17.8860 C   0  0  0  0  0  2  0  0  0  0  0  0
  -26.9110  -19.6360   18.1210 N   0  0  0  0  0  4  0  0  0  0  0  0
  -27.3950  -19.5810   17.2380 H   0  0  0  0  0  0  0  0  0  0  0  0
  -27.1760  -20.5010   18.5610 H   0  0  0  0  0  0  0  0  0  0  0  0
  -27.3840  -18.5340   18.9840 C   0  0  0  0  0  2  0  0  0  0  0  0
  -28.8370  -18.7350   19.4550 C   0  0  0  0  0  2  0  0  0  0  0  0
  -29.2510  -17.6480   20.4560 C   0  0  0  0  0  2  0  0  0  0  0  0
  -30.7200  -17.7440   20.9130 C   0  0  0  0  0  2  0  0  0  0  0  0
  -31.1140  -16.6720   21.9530 C   0  0  0  0  0  2  0  0  0  0  0  0
  -31.0500  -14.5730   20.6090 C   0  0  0  0  0  0  0  0  0  0  0  0
  -30.6830  -12.4970   19.3370 C   0  0  0  0  0  2  0  0  0  0  0  0
  -29.7600  -12.7270   18.1270 C   0  0  0  0  0  2  0  0  0  0  0  0
  -28.2800  -12.5940   18.5330 C   0  0  0  0  0  2  0  0  0  0  0  0
  -27.9330  -13.4380   19.7860 C   0  0  0  0  0  3  0  0  0  0  0  0
  -28.9590  -13.1910   20.9140 C   0  0  0  0  0  2  0  0  0  0  0  0
  -30.3160  -13.4540   20.3900 N   0  0  0  0  0  0  0  0  0  0  0  0
  -32.0600  -14.8680   19.9640 O   0  0  0  0  0  0  0  0  0  0  0  0
  -30.6080  -15.3480   21.6040 N   0  0  0  0  0  0  0  0  0  0  0  0
  -29.8050  -15.0120   22.1140 H   0  0  0  0  0  0  0  0  0  0  0  0
  -25.5230  -14.0730   20.4370 C   0  0  0  0  0  0  0  0  0  0  0  0
  -24.4400  -13.3100   20.7940 C   0  0  0  0  0  0  0  0  0  0  0  0
  -24.8930  -11.9550   20.7810 C   0  0  0  0  0  0  0  0  0  0  0  0
  -26.5660  -13.1820   20.2360 N   0  0  0  0  0  0  0  0  0  0  0  0
  -26.1880  -11.9050   20.4960 N   0  0  0  0  0  0  0  0  0  0  0  0
  -24.1550  -10.7000   20.9700 C   0  0  0  0  0  0  0  0  0  0  0  0
  -24.5490   -9.7490   21.9380 C   0  0  0  0  0  3  0  0  0  0  0  0
  -23.8130   -8.5570   22.1120 C   0  0  0  0  0  3  0  0  0  0  0  0
  -22.6700   -8.3090   21.3170 C   0  0  0  0  0  0  0  0  0  0  0  0
  -22.2950   -9.2470   20.3390 C   0  0  0  0  0  3  0  0  0  0  0  0
  -23.0320  -10.4290   20.1640 C   0  0  0  0  0  3  0  0  0  0  0  0
  -21.9090   -7.1660   21.3980 O   0  0  0  0  0  0  0  0  0  0  0  0
  -21.7840   -6.4660   22.5710 C   0  0  0  0  0  0  0  0  0  0  0  0
  -21.2820   -7.0640   23.7480 C   0  0  0  0  0  3  0  0  0  0  0  0
  -21.1040   -6.2900   24.9110 C   0  0  0  0  0  3  0  0  0  0  0  0
  -21.4210   -4.9190   24.8990 C   0  0  0  0  0  0  0  0  0  0  0  0
  -21.9180   -4.3200   23.7290 C   0  0  0  0  0  3  0  0  0  0  0  0
  -22.0960   -5.0910   22.5670 C   0  0  0  0  0  0  0  0  0  0  0  0
  -22.5540   -4.5060   21.4350 F   0  0  0  0  0  0  0  0  0  0  0  0
  -21.2450   -4.1720   26.0150 F   0  0  0  0  0  0  0  0  0  0  0  0
  -23.0420  -13.8000   21.0370 C   0  0  0  0  0  0  0  0  0  0  0  0
  -22.2960  -13.1160   21.9010 N   0  0  0  0  0  0  0  0  0  0  0  0
  -22.6190  -14.8230   20.5030 O   0  0  0  0  0  0  0  0  0  0  0  0
  -22.6510  -12.2890   22.3570 H   0  0  0  0  0  0  0  0  0  0  0  0
  -21.3580  -13.4250   22.1080 H   0  0  0  0  0  0  0  0  0  0  0  0
  -25.7030  -15.4390   20.2560 N   0  0  0  0  0  0  0  0  0  0  0  0
  -24.9490  -16.1070   20.3720 H   0  0  0  0  0  0  0  0  0  0  0  0
  -26.5860  -15.8650   20.0100 H   0  0  0  0  0  0  0  0  0  0  0  0
  1  2  1  0
  2  3  1  0
  3  4  1  0
  3  6  1  0
  5  3  1  0
  6  7  1  0
  7  8  1  0
  9 11  1  0
  9  8  1  0
 10  9  1  0
 12  9  1  0
 13 12  1  0
 14 13  1  0
 15 17  1  0
 15 14  1  0
 16 27  2  0
 17 22  1  0
 18 26  1  0
 18 28  1  0
 19 25  1  0
 19 21  1  0
 20 26  1  0
 21 20  1  0
 22 21  2  0
 23 24  1  0
 23 17  2  0
 24 19  2  0
 25 18  1  0
 26 16  1  0
 28 30  2  0
 29 28  1  0
 31 29  1  0
 32 41  2  0
 32 37  1  0
 33 29  1  0
 33 37  1  0
 34 33  1  0
 35 36  1  0
 35 34  1  0
 36 32  1  0
 37 38  2  0
 38 39  1  0
 40 39  2  0
 41 40  1  0
 42 16  1  0
 42 43  1  0
 42 52  1  0
 43 46  1  0
 44 48  1  0
 44 43  1  0
 45 44  2  0
 48 47  1  0
 50 48  1  0
 50 51  1  0
 50 49  1  0
 52 55  1  1
 52 53  1  0
 54 52  1  0
 56  1  1  0
 57 56  1  0
 58 57  1  0
 58 60  1  0
 59 58  1  0
 61 58  1  0
 62 61  1  0
 62 63  1  0
 63 64  1  0
 64 66  1  0
 64 67  1  0
 65 64  1  0
 67 68  1  0
 68 69  1  0
 69 70  1  0
 70 71  1  0
 72 80  1  0
 73 78  1  0
 74 75  1  0
 74 73  1  0
 76 75  1  0
 76 85  1  0
 76 77  1  0
 78 72  1  0
 78 77  1  0
 79 72  2  0
 80 71  1  0
 80 81  1  0
 82 83  2  0
 83102  1  0
 84 83  1  0
 84 87  1  0
 85 82  1  0
 85 86  1  0
 86 84  2  0
 87 88  1  0
 88 89  2  0
 90 93  1  0
 90 89  1  0
 91 90  2  0
 92 91  1  0
 92 87  2  0
 93 94  1  0
 94 95  1  0
 95 96  2  0
 97 96  1  0
 97101  1  0
 98 97  2  0
 99 94  2  0
 99 98  1  0
100 99  1  0
102103  1  0
103106  1  0
103105  1  0
104102  2  0
107108  1  0
107 82  1  0
109107  1  0
M  ISO  4  14 101  15 101  72 100  80 100
M  END
>  <TORSDO>  (17) 
F 37

>  <SCORE>  (17) 
-9.479

>  <name>  (17) 
17

>  <ligand_id>  (17) 
17

>  <original_smiles>  (17) 
[H]c1c([H])c([H])c2c(c1[H])C([H])([H])C([H])([H])C([H])([H])C2([H])N([H])C(=O)C1([H])N(C(=O)C([H])(N([H])C(=O)C([H])(N([H])C([H])([H])[H])C([H])([H])[H])C(C([H])([H])[H])(C([H])([H])[H])C([H])([H])[H])C([H])([H])c2c([H])c(OC([H])([H])C([H])([H])C([H])([H])[N+]([H])([H])C([H])([H])C([H])([H])C([H])([H])[N+]([H])([H])C([H])([H])C([H])([H])C([H])([H])C([H])([H])[N+]([H])([H])C([H])([H])C([H])([H])C([H])([H])[N+]([H])([H])C([H])([H])C([H])([H])C([H])([H])C([H])([H])C([H])([H])N([H])C(=O)N3C([H])([H])C([H])([H])C([H])([H])C([H])(n4nc(-c5c([H])c([H])c(Oc6c([H])c([H])c(F)c([H])c6F)c([H])c5[H])c(C(=O)N([H])[H])c4N([H])[H])C3([H])[H])c([H])c([H])c2C1([H])[H]

>  <smiles>  (17) 
[H]c1c([H])c([H])c2c(c1[H])C([H])([H])C([H])([H])C([H])([H])C2([H])N([H])C(=O)C1([H])N(C(=O)C([H])(N([H])C(=O)C([H])(N([H])C([H])([H])[H])C([H])([H])[H])C(C([H])([H])[H])(C([H])([H])[H])C([H])([H])[H])C([H])([H])c2c([H])c(OC([H])([H])C([H])([H])C([H])([H])[N+]([H])([H])C([H])([H])C([H])([H])C([H])([H])[N+]([H])([H])C([H])([H])C([H])([H])C([H])([H])C([H])([H])[N+]([H])([H])C([H])([H])C([H])([H])C([H])([H])[N+]([H])([H])C([H])([H])C([H])([H])C([H])([H])C([H])([H])C([H])([H])N([H])C(=O)N3C([H])([H])C([H])([H])C([H])([H])C([H])(n4nc(-c5c([H])c([H])c(Oc6c([H])c([H])c(F)c([H])c6F)c([H])c5[H])c(C(=O)N([H])[H])c4N([H])[H])C3([H])[H])c([H])c([H])c2C1([H])[H]

$$$$
18:0:0
     RDKit          3D

100108  0  0  1  0  0  0  0  0999 V2000
  -29.7810  -21.3360   24.3660 C   0  0  0  0  0  2  0  0  0  0  0  0
  -29.4190  -22.6180   23.7380 N   0  0  0  0  0  4  0  0  0  0  0  0
  -30.2540  -23.1550   23.5500 H   0  0  0  0  0  0  0  0  0  0  0  0
  -28.8430  -23.1620   24.3590 H   0  0  0  0  0  0  0  0  0  0  0  0
  -28.7440  -22.5040   22.4330 C   0  0  0  0  0  2  0  0  0  0  0  0
  -28.3590  -23.9060   21.9640 C   0  0  0  0  0  2  0  0  0  0  0  0
  -29.5890  -24.6230   21.6320 N   0  0  0  0  0  0  0  0  0  0  0  0
  -29.9490  -24.2510   20.7550 H   0  0  0  0  0  0  0  0  0  0  0  0
  -29.3220  -26.0480   21.4610 C   0  0  0  0  0  2  0  0  0  0  0  0
  -30.3210  -26.6700   20.4530 C   0  0  0  0  0  2  0  0  0  0  0  0
  -30.1170  -28.0680   20.2450 O   0  0  0  0  0  0  0  0  0  0  0  0
  -24.9800  -31.5570   23.5880 C   0  0  0  0  0  0  0  0  0  0  0  0
  -28.8140  -28.4910   20.1650 C   0  0  0  0  0  0  0  0  0  0  0  0
  -24.2610  -30.2710   21.5980 C   0  0  0  0  0  3  0  0  0  0  0  0
  -26.1410  -29.3840   20.1190 C   0  0  0  0  0  0  0  0  0  0  0  0
  -26.6280  -31.2120   21.7520 C   0  0  0  0  0  2  0  0  0  0  0  0
  -27.0860  -30.0360   20.9240 C   0  0  0  0  0  0  0  0  0  0  0  0
  -28.4230  -29.6020   20.9400 C   0  0  0  0  0  3  0  0  0  0  0  0
  -27.8600  -27.8430   19.3490 C   0  0  0  0  0  3  0  0  0  0  0  0
  -26.5260  -28.2890   19.3230 C   0  0  0  0  0  3  0  0  0  0  0  0
  -24.7280  -29.9190   20.1580 C   0  0  0  0  0  2  0  0  0  0  0  0
  -25.3010  -31.0200   22.3770 N   0  0  0  0  0  0  0  0  0  0  0  0
  -23.8290  -31.4780   24.0380 O   0  0  0  0  0  0  0  0  0  0  0  0
  -23.7940  -28.9700   22.2890 C   0  0  0  0  0  0  0  0  0  0  0  0
  -22.5590  -28.5440   21.9820 N   0  0  0  0  0  0  0  0  0  0  0  0
  -24.5420  -28.3530   23.0510 O   0  0  0  0  0  0  0  0  0  0  0  0
  -22.0050  -29.1120   21.3580 H   0  0  0  0  0  0  0  0  0  0  0  0
  -19.5210  -26.5990   21.8500 C   0  0  0  0  0  0  0  0  0  0  0  0
  -21.9210  -27.3250   22.4750 C   0  0  0  0  0  3  0  0  0  0  0  0
  -22.3940  -26.0880   21.6780 C   0  0  0  0  0  2  0  0  0  0  0  0
  -21.4820  -25.7450   20.4950 C   0  0  0  0  0  2  0  0  0  0  0  0
  -20.0550  -25.4710   20.9830 C   0  0  0  0  0  2  0  0  0  0  0  0
  -20.3980  -27.4780   22.5380 C   0  0  0  0  0  0  0  0  0  0  0  0
  -19.8520  -28.5310   23.3030 C   0  0  0  0  0  3  0  0  0  0  0  0
  -18.4590  -28.7110   23.3890 C   0  0  0  0  0  3  0  0  0  0  0  0
  -17.5940  -27.8270   22.7200 C   0  0  0  0  0  3  0  0  0  0  0  0
  -18.1260  -26.7720   21.9580 C   0  0  0  0  0  3  0  0  0  0  0  0
  -26.0330  -32.3110   24.4600 C   0  0  0  0  0  3  0  0  0  0  0  0
  -25.5020  -33.6510   24.7330 N   0  0  0  0  0  0  0  0  0  0  0  0
  -25.8590  -34.7580   24.0680 C   0  0  0  0  0  0  0  0  0  0  0  0
  -26.7340  -34.7660   23.1980 O   0  0  0  0  0  0  0  0  0  0  0  0
  -24.7360  -33.7070   25.3910 H   0  0  0  0  0  0  0  0  0  0  0  0
  -24.0240  -36.3400   23.3970 C   0  0  0  0  0  1  0  0  0  0  0  0
  -25.1280  -36.0640   24.4300 C   0  0  0  0  0  3  0  0  0  0  0  0
  -26.9490  -37.1610   25.6570 C   0  0  0  0  0  1  0  0  0  0  0  0
  -26.0270  -37.2340   24.5270 N   0  0  0  0  0  0  0  0  0  0  0  0
  -25.4930  -38.0940   24.6110 H   0  0  0  0  0  0  0  0  0  0  0  0
  -26.3800  -31.5570   25.8010 C   0  0  1  0  0  0  0  0  0  0  0  0
  -25.1300  -31.1700   26.6250 C   0  0  0  0  0  1  0  0  0  0  0  0
  -27.1840  -30.2690   25.5090 C   0  0  0  0  0  1  0  0  0  0  0  0
  -27.2740  -32.4570   26.6880 C   0  0  0  0  0  1  0  0  0  0  0  0
  -31.1700  -20.8670   23.9040 C   0  0  0  0  0  2  0  0  0  0  0  0
  -31.3470  -19.3470   23.9800 C   0  0  0  0  0  2  0  0  0  0  0  0
  -30.3180  -18.6090   23.1050 C   0  0  0  0  0  2  0  0  0  0  0  0
  -30.9300  -17.5770   22.2800 N   0  0  0  0  0  0  0  0  0  0  0  0
  -30.6190  -16.6290   22.4750 H   0  0  0  0  0  0  0  0  0  0  0  0
  -30.8730  -18.3720   18.1230 C   0  0  0  0  0  3  0  0  0  0  0  0
  -31.2720  -19.3860   19.0140 C   0  0  0  0  0  3  0  0  0  0  0  0
  -30.5360  -17.1000   18.6200 C   0  0  0  0  0  3  0  0  0  0  0  0
  -31.3020  -19.1270   20.3970 C   0  0  0  0  0  3  0  0  0  0  0  0
  -30.5910  -16.8300   20.0050 C   0  0  0  0  0  0  0  0  0  0  0  0
  -30.9470  -17.8540   20.9060 C   0  0  0  0  0  0  0  0  0  0  0  0
  -30.9870  -14.4570   20.1190 C   0  0  0  0  0  0  0  0  0  0  0  0
  -30.5980  -12.3080   19.0260 C   0  0  0  0  0  2  0  0  0  0  0  0
  -29.6400  -12.5610   17.8450 C   0  0  0  0  0  2  0  0  0  0  0  0
  -28.1780  -12.4360   18.3130 C   0  0  0  0  0  2  0  0  0  0  0  0
  -27.8820  -13.2980   19.5670 C   0  0  0  0  0  3  0  0  0  0  0  0
  -28.9560  -13.0690   20.6570 C   0  0  0  0  0  2  0  0  0  0  0  0
  -30.2780  -13.3040   20.0560 N   0  0  0  0  0  0  0  0  0  0  0  0
  -32.1350  -14.5720   19.6830 O   0  0  0  0  0  0  0  0  0  0  0  0
  -30.2850  -15.5310   20.4930 N   0  0  0  0  0  0  0  0  0  0  0  0
  -29.3590  -15.3880   20.8660 H   0  0  0  0  0  0  0  0  0  0  0  0
  -25.5110  -13.9610   20.3250 C   0  0  0  0  0  0  0  0  0  0  0  0
  -24.4380  -13.2090   20.7290 C   0  0  0  0  0  0  0  0  0  0  0  0
  -24.8750  -11.8510   20.7030 C   0  0  0  0  0  0  0  0  0  0  0  0
  -26.5340  -13.0570   20.0790 N   0  0  0  0  0  0  0  0  0  0  0  0
  -26.1560  -11.7850   20.3620 N   0  0  0  0  0  0  0  0  0  0  0  0
  -24.1300  -10.6040   20.9230 C   0  0  0  0  0  0  0  0  0  0  0  0
  -24.5870   -9.6220   21.8290 C   0  0  0  0  0  3  0  0  0  0  0  0
  -23.8450   -8.4380   22.0360 C   0  0  0  0  0  3  0  0  0  0  0  0
  -22.6350   -8.2280   21.3330 C   0  0  0  0  0  0  0  0  0  0  0  0
  -22.1990   -9.1970   20.4130 C   0  0  0  0  0  3  0  0  0  0  0  0
  -22.9410  -10.3710   20.2060 C   0  0  0  0  0  3  0  0  0  0  0  0
  -21.8630   -7.0990   21.4510 O   0  0  0  0  0  0  0  0  0  0  0  0
  -21.8320   -6.3660   22.6090 C   0  0  0  0  0  0  0  0  0  0  0  0
  -21.4590   -6.9410   23.8440 C   0  0  0  0  0  3  0  0  0  0  0  0
  -21.3710   -6.1370   24.9970 C   0  0  0  0  0  3  0  0  0  0  0  0
  -21.6480   -4.7590   24.9190 C   0  0  0  0  0  0  0  0  0  0  0  0
  -22.0150   -4.1830   23.6900 C   0  0  0  0  0  3  0  0  0  0  0  0
  -22.1040   -4.9840   22.5380 C   0  0  0  0  0  0  0  0  0  0  0  0
  -22.4390   -4.4210   21.3520 F   0  0  0  0  0  0  0  0  0  0  0  0
  -21.5570   -3.9840   26.0250 F   0  0  0  0  0  0  0  0  0  0  0  0
  -23.0570  -13.7140   21.0310 C   0  0  0  0  0  0  0  0  0  0  0  0
  -22.3560  -13.0570   21.9500 N   0  0  0  0  0  0  0  0  0  0  0  0
  -22.6070  -14.7210   20.4890 O   0  0  0  0  0  0  0  0  0  0  0  0
  -22.7320  -12.2360   22.4010 H   0  0  0  0  0  0  0  0  0  0  0  0
  -21.4320  -13.3780   22.2070 H   0  0  0  0  0  0  0  0  0  0  0  0
  -25.6910  -15.3250   20.1300 N   0  0  0  0  0  0  0  0  0  0  0  0
  -24.9310  -15.9870   20.2550 H   0  0  0  0  0  0  0  0  0  0  0  0
  -26.5190  -15.7450   19.7230 H   0  0  0  0  0  0  0  0  0  0  0  0
  2  4  1  0
  2  1  1  0
  3  2  1  0
  5  2  1  0
  6  5  1  0
  7  6  1  0
  8  7  1  0
  9  7  1  0
 10  9  1  0
 11 10  1  0
 12 23  2  0
 13 11  1  0
 13 18  1  0
 14 24  1  0
 14 22  1  0
 15 21  1  0
 15 17  1  0
 16 22  1  0
 17 18  2  0
 17 16  1  0
 19 13  2  0
 20 19  1  0
 20 15  2  0
 21 14  1  0
 22 12  1  0
 24 26  2  0
 25 24  1  0
 27 25  1  0
 28 37  2  0
 28 33  1  0
 29 25  1  0
 29 33  1  0
 30 29  1  0
 31 32  1  0
 31 30  1  0
 32 28  1  0
 33 34  2  0
 34 35  1  0
 36 35  2  0
 37 36  1  0
 38 12  1  0
 38 39  1  0
 38 48  1  0
 39 42  1  0
 40 44  1  0
 40 39  1  0
 41 40  2  0
 44 43  1  0
 44 46  1  0
 46 47  1  0
 46 45  1  0
 48 49  1  1
 48 51  1  0
 50 48  1  0
 52 53  1  0
 52  1  1  0
 54 53  1  0
 55 56  1  0
 55 54  1  0
 57 59  2  0
 57 58  1  0
 58 60  2  0
 59 61  1  0
 60 62  1  0
 61 71  1  0
 61 62  2  0
 62 55  1  0
 63 71  1  0
 64 69  1  0
 65 66  1  0
 65 64  1  0
 67 66  1  0
 67 76  1  0
 67 68  1  0
 69 63  1  0
 69 68  1  0
 70 63  2  0
 71 72  1  0
 73 74  2  0
 74 93  1  0
 75 74  1  0
 75 78  1  0
 76 73  1  0
 76 77  1  0
 77 75  2  0
 78 79  1  0
 79 80  2  0
 81 84  1  0
 81 80  1  0
 82 81  2  0
 83 82  1  0
 83 78  2  0
 84 85  1  0
 85 86  1  0
 86 87  2  0
 88 87  1  0
 88 92  1  0
 89 88  2  0
 90 85  2  0
 90 89  1  0
 91 90  1  0
 93 94  1  0
 94 97  1  0
 94 96  1  0
 95 93  2  0
 98 99  1  0
 98 73  1  0
100 98  1  0
M  ISO  4  10 101  11 101  63 100  71 100
M  END
>  <TORSDO>  (18) 
F 27

>  <SCORE>  (18) 
-7.083

>  <name>  (18) 
18

>  <ligand_id>  (18) 
18

>  <original_smiles>  (18) 
[H]c1c([H])c([H])c(N([H])C([H])([H])C([H])([H])C([H])([H])C([H])([H])[N+]([H])([H])C([H])([H])C([H])([H])N([H])C([H])([H])C([H])([H])Oc2c([H])c([H])c3c(c2[H])C([H])([H])N(C(=O)C([H])(N([H])C(=O)C([H])(N([H])C([H])([H])[H])C([H])([H])[H])C(C([H])([H])[H])(C([H])([H])[H])C([H])([H])[H])C([H])(C(=O)N([H])C2([H])c4c([H])c([H])c([H])c([H])c4C([H])([H])C([H])([H])C2([H])[H])C3([H])[H])c(N([H])C(=O)N2C([H])([H])C([H])([H])C([H])([H])C([H])(n3nc(-c4c([H])c([H])c(Oc5c([H])c([H])c(F)c([H])c5F)c([H])c4[H])c(C(=O)N([H])[H])c3N([H])[H])C2([H])[H])c1[H]

>  <smiles>  (18) 
[H]c1c([H])c([H])c(N([H])C([H])([H])C([H])([H])C([H])([H])C([H])([H])[N+]([H])([H])C([H])([H])C([H])([H])N([H])C([H])([H])C([H])([H])Oc2c([H])c([H])c3c(c2[H])C([H])([H])N(C(=O)C([H])(N([H])C(=O)C([H])(N([H])C([H])([H])[H])C([H])([H])[H])C(C([H])([H])[H])(C([H])([H])[H])C([H])([H])[H])C([H])(C(=O)N([H])C2([H])c4c([H])c([H])c([H])c([H])c4C([H])([H])C([H])([H])C2([H])[H])C3([H])[H])c(N([H])C(=O)N2C([H])([H])C([H])([H])C([H])([H])C([H])(n3nc(-c4c([H])c([H])c(Oc5c([H])c([H])c(F)c([H])c5F)c([H])c4[H])c(C(=O)N([H])[H])c3N([H])[H])C2([H])[H])c1[H]

$$$$
19:0:0
     RDKit          3D

105112  0  0  1  0  0  0  0  0999 V2000
  -32.3200  -17.6820   16.1790 C   0  0  0  0  0  2  0  0  0  0  0  0
  -33.5300  -18.5260   16.6100 C   0  0  0  0  0  2  0  0  0  0  0  0
  -33.2050  -19.5850   17.6820 C   0  0  0  0  0  2  0  0  0  0  0  0
  -34.2740  -20.6890   17.7230 C   0  0  0  0  0  2  0  0  0  0  0  0
  -33.4660  -22.8730   18.6480 C   0  0  0  0  0  0  0  0  0  0  0  0
  -34.0280  -21.6650   18.7820 N   0  0  0  0  0  0  0  0  0  0  0  0
  -32.9250  -23.2440   17.6020 O   0  0  0  0  0  0  0  0  0  0  0  0
  -34.4340  -21.4590   19.6870 H   0  0  0  0  0  0  0  0  0  0  0  0
  -33.5730  -23.8090   19.8660 C   0  0  0  0  0  2  0  0  0  0  0  0
  -32.8990  -25.0480   19.6260 O   0  0  0  0  0  0  0  0  0  0  0  0
  -33.0860  -25.9870   20.6880 C   0  0  0  0  0  2  0  0  0  0  0  0
  -31.9320  -27.0030   20.7430 C   0  0  0  0  0  2  0  0  0  0  0  0
  -30.7820  -26.3090   21.2100 O   0  0  0  0  0  0  0  0  0  0  0  0
  -25.8430  -30.9170   23.5230 C   0  0  0  0  0  0  0  0  0  0  0  0
  -29.5730  -26.9260   21.0200 C   0  0  0  0  0  0  0  0  0  0  0  0
  -25.1430  -29.3680   21.7230 C   0  0  0  0  0  3  0  0  0  0  0  0
  -27.0200  -28.0510   20.6080 C   0  0  0  0  0  0  0  0  0  0  0  0
  -27.5890  -30.0820   21.9550 C   0  0  0  0  0  2  0  0  0  0  0  0
  -27.9760  -28.7400   21.3690 C   0  0  0  0  0  0  0  0  0  0  0  0
  -29.2580  -28.1860   21.5740 C   0  0  0  0  0  3  0  0  0  0  0  0
  -28.5960  -26.2290   20.2830 C   0  0  0  0  0  3  0  0  0  0  0  0
  -27.3250  -26.7900   20.0640 C   0  0  0  0  0  3  0  0  0  0  0  0
  -25.6820  -28.7250   20.4170 C   0  0  0  0  0  2  0  0  0  0  0  0
  -26.1970  -30.1370   22.4620 N   0  0  0  0  0  0  0  0  0  0  0  0
  -24.6580  -31.0360   23.8620 O   0  0  0  0  0  0  0  0  0  0  0  0
  -24.4770  -28.2650   22.5790 C   0  0  0  0  0  0  0  0  0  0  0  0
  -23.2420  -27.8880   22.2120 N   0  0  0  0  0  0  0  0  0  0  0  0
  -25.0800  -27.7500   23.5240 O   0  0  0  0  0  0  0  0  0  0  0  0
  -22.8150  -28.3660   21.4300 H   0  0  0  0  0  0  0  0  0  0  0  0
  -20.0550  -26.1940   22.0890 C   0  0  0  0  0  0  0  0  0  0  0  0
  -22.4380  -26.8440   22.8450 C   0  0  0  0  0  3  0  0  0  0  0  0
  -22.8670  -25.4410   22.3540 C   0  0  0  0  0  2  0  0  0  0  0  0
  -22.0480  -24.9460   21.1580 C   0  0  0  0  0  2  0  0  0  0  0  0
  -20.5610  -24.8820   21.5140 C   0  0  0  0  0  2  0  0  0  0  0  0
  -20.9380  -27.1220   22.7000 C   0  0  0  0  0  0  0  0  0  0  0  0
  -20.4220  -28.3430   23.1870 C   0  0  0  0  0  3  0  0  0  0  0  0
  -19.0500  -28.6400   23.0740 C   0  0  0  0  0  3  0  0  0  0  0  0
  -18.1770  -27.7110   22.4820 C   0  0  0  0  0  3  0  0  0  0  0  0
  -18.6790  -26.4910   21.9950 C   0  0  0  0  0  3  0  0  0  0  0  0
  -26.9050  -31.7130   24.3430 C   0  0  0  0  0  3  0  0  0  0  0  0
  -26.3740  -33.0650   24.5610 N   0  0  0  0  0  0  0  0  0  0  0  0
  -26.6970  -34.1350   23.8230 C   0  0  0  0  0  0  0  0  0  0  0  0
  -27.5400  -34.0990   22.9230 O   0  0  0  0  0  0  0  0  0  0  0  0
  -25.6380  -33.1580   25.2460 H   0  0  0  0  0  0  0  0  0  0  0  0
  -24.8300  -35.6680   23.1220 C   0  0  0  0  0  1  0  0  0  0  0  0
  -25.9690  -35.4570   24.1330 C   0  0  0  0  0  3  0  0  0  0  0  0
  -27.8140  -36.6430   25.2370 C   0  0  0  0  0  1  0  0  0  0  0  0
  -26.8620  -36.6360   24.1280 N   0  0  0  0  0  0  0  0  0  0  0  0
  -26.3240  -37.4970   24.1680 H   0  0  0  0  0  0  0  0  0  0  0  0
  -27.2720  -31.0290   25.7170 C   0  0  1  0  0  0  0  0  0  0  0  0
  -26.0400  -30.6700   26.5800 C   0  0  0  0  0  1  0  0  0  0  0  0
  -28.0780  -29.7310   25.4810 C   0  0  0  0  0  1  0  0  0  0  0  0
  -28.1790  -31.9680   26.5460 C   0  0  0  0  0  1  0  0  0  0  0  0
  -31.3350  -18.4760   15.3080 C   0  0  0  0  0  2  0  0  0  0  0  0
  -29.9100  -17.9040   15.3090 C   0  0  0  0  0  2  0  0  0  0  0  0
  -28.9130  -18.8640   14.6320 C   0  0  0  0  0  2  0  0  0  0  0  0
  -27.5350  -18.9720   15.3160 C   0  0  0  0  0  2  0  0  0  0  0  0
  -27.5490  -19.7320   16.6600 C   0  0  0  0  0  2  0  0  0  0  0  0
  -29.2230  -19.0340   18.3880 C   0  0  0  0  0  0  0  0  0  0  0  0
  -28.0540  -18.9070   17.7490 N   0  0  0  0  0  0  0  0  0  0  0  0
  -30.0080  -19.9630   18.1910 O   0  0  0  0  0  0  0  0  0  0  0  0
  -27.4650  -18.1390   18.0340 H   0  0  0  0  0  0  0  0  0  0  0  0
  -29.5430  -17.9290   19.3990 C   0  0  0  0  0  2  0  0  0  0  0  0
  -31.0170  -17.8830   19.8440 C   0  0  0  0  0  2  0  0  0  0  0  0
  -31.2470  -16.8850   20.9960 C   0  0  0  0  0  2  0  0  0  0  0  0
  -31.8820  -15.5610   20.5410 C   0  0  0  0  0  2  0  0  0  0  0  0
  -32.3480  -14.6520   21.7010 C   0  0  0  0  0  2  0  0  0  0  0  0
  -32.1970  -12.2610   21.0000 C   0  0  0  0  0  0  0  0  0  0  0  0
  -31.4100  -10.5250   19.4500 C   0  0  0  0  0  2  0  0  0  0  0  0
  -30.6680  -11.2410   18.3010 C   0  0  0  0  0  2  0  0  0  0  0  0
  -29.1900  -11.4800   18.6660 C   0  0  0  0  0  2  0  0  0  0  0  0
  -29.0110  -12.1020   20.0800 C   0  0  0  0  0  3  0  0  0  0  0  0
  -29.8590  -11.3510   21.1290 C   0  0  0  0  0  2  0  0  0  0  0  0
  -31.2540  -11.3500   20.6560 N   0  0  0  0  0  0  0  0  0  0  0  0
  -33.3630  -12.2230   20.5980 O   0  0  0  0  0  0  0  0  0  0  0  0
  -31.7060  -13.3420   21.6280 N   0  0  0  0  0  0  0  0  0  0  0  0
  -30.7370  -13.3010   21.9030 H   0  0  0  0  0  0  0  0  0  0  0  0
  -26.7830  -13.2710   20.6320 C   0  0  0  0  0  0  0  0  0  0  0  0
  -25.5430  -12.7750   20.9400 C   0  0  0  0  0  0  0  0  0  0  0  0
  -25.6820  -11.3530   20.9460 C   0  0  0  0  0  0  0  0  0  0  0  0
  -27.6050  -12.1670   20.4700 N   0  0  0  0  0  0  0  0  0  0  0  0
  -26.9400  -11.0100   20.7120 N   0  0  0  0  0  0  0  0  0  0  0  0
  -24.6750  -10.2940   21.0970 C   0  0  0  0  0  0  0  0  0  0  0  0
  -24.8580   -9.2230   21.9980 C   0  0  0  0  0  3  0  0  0  0  0  0
  -23.8630   -8.2320   22.1360 C   0  0  0  0  0  3  0  0  0  0  0  0
  -22.6760   -8.3040   21.3660 C   0  0  0  0  0  0  0  0  0  0  0  0
  -22.5130   -9.3550   20.4470 C   0  0  0  0  0  3  0  0  0  0  0  0
  -23.5030  -10.3410   20.3150 C   0  0  0  0  0  3  0  0  0  0  0  0
  -21.6690   -7.3700   21.4170 O   0  0  0  0  0  0  0  0  0  0  0  0
  -21.4680   -6.5890   22.5270 C   0  0  0  0  0  0  0  0  0  0  0  0
  -21.2040   -7.1500   23.7950 C   0  0  0  0  0  3  0  0  0  0  0  0
  -20.9360   -6.3140   24.8950 C   0  0  0  0  0  3  0  0  0  0  0  0
  -20.9130   -4.9160   24.7280 C   0  0  0  0  0  0  0  0  0  0  0  0
  -21.1710   -4.3540   23.4650 C   0  0  0  0  0  3  0  0  0  0  0  0
  -21.4490   -5.1890   22.3680 C   0  0  0  0  0  0  0  0  0  0  0  0
  -21.6760   -4.6430   21.1500 F   0  0  0  0  0  0  0  0  0  0  0  0
  -20.6490   -4.1090   25.7820 F   0  0  0  0  0  0  0  0  0  0  0  0
  -24.2840  -13.5700   21.1300 C   0  0  0  0  0  0  0  0  0  0  0  0
  -23.3640  -13.0860   21.9610 N   0  0  0  0  0  0  0  0  0  0  0  0
  -24.1250  -14.6590   20.5800 O   0  0  0  0  0  0  0  0  0  0  0  0
  -22.5290  -13.6200   22.1470 H   0  0  0  0  0  0  0  0  0  0  0  0
  -23.4820  -12.1910   22.4110 H   0  0  0  0  0  0  0  0  0  0  0  0
  -27.2670  -14.5630   20.4630 N   0  0  0  0  0  0  0  0  0  0  0  0
  -26.6520  -15.3660   20.5400 H   0  0  0  0  0  0  0  0  0  0  0  0
  -28.2300  -14.8110   20.2810 H   0  0  0  0  0  0  0  0  0  0  0  0
  1  2  1  0
  2  3  1  0
  3  4  1  0
  4  6  1  0
  5  6  1  0
  5  9  1  0
  6  8  1  0
  7  5  2  0
 10  9  1  0
 10 11  1  0
 11 12  1  0
 12 13  1  0
 14 25  2  0
 15 13  1  0
 15 20  1  0
 16 24  1  0
 16 26  1  0
 17 19  1  0
 18 24  1  0
 19 20  2  0
 19 18  1  0
 21 15  2  0
 22 21  1  0
 22 17  2  0
 23 17  1  0
 23 16  1  0
 24 14  1  0
 26 28  2  0
 27 26  1  0
 29 27  1  0
 30 35  1  0
 31 27  1  0
 32 31  1  0
 33 34  1  0
 33 32  1  0
 34 30  1  0
 35 31  1  0
 35 36  2  0
 37 36  1  0
 38 37  2  0
 39 30  2  0
 39 38  1  0
 40 14  1  0
 40 41  1  0
 40 50  1  0
 41 44  1  0
 42 46  1  0
 42 41  1  0
 43 42  2  0
 46 45  1  0
 48 46  1  0
 48 49  1  0
 48 47  1  0
 50 53  1  1
 50 51  1  0
 52 50  1  0
 54 55  1  0
 54  1  1  0
 56 55  1  0
 56 57  1  0
 57 58  1  0
 58 60  1  0
 59 63  1  0
 60 62  1  0
 60 59  1  0
 61 59  2  0
 63 64  1  0
 64 65  1  0
 66 65  1  0
 66 67  1  0
 68 76  1  0
 69 74  1  0
 70 71  1  0
 70 69  1  0
 72 71  1  0
 72 81  1  0
 72 73  1  0
 74 68  1  0
 74 73  1  0
 75 68  2  0
 76 67  1  0
 76 77  1  0
 78 79  2  0
 79 80  1  0
 79 98  1  0
 80 83  1  0
 81 78  1  0
 81 82  1  0
 82 80  2  0
 83 84  1  0
 84 85  2  0
 86 89  1  0
 86 85  1  0
 87 86  2  0
 88 87  1  0
 88 83  2  0
 89 90  1  0
 90 91  1  0
 91 92  2  0
 93 92  1  0
 93 97  1  0
 94 93  2  0
 95 90  2  0
 95 94  1  0
 96 95  1  0
 98 99  1  0
 99101  1  0
 99102  1  0
100 98  2  0
103104  1  0
103 78  1  0
105103  1  0
M  ISO  4  12 101  13 101  68 100  76 100
M  END
>  <TORSDO>  (19) 
F 35

>  <SCORE>  (19) 
-6.392

>  <name>  (19) 
19

>  <ligand_id>  (19) 
19

>  <original_smiles>  (19) 
[H]c1c([H])c([H])c2c(c1[H])C([H])([H])C([H])([H])C([H])([H])C2([H])N([H])C(=O)C1([H])N(C(=O)C([H])(N([H])C(=O)C([H])(N([H])C([H])([H])[H])C([H])([H])[H])C(C([H])([H])[H])(C([H])([H])[H])C([H])([H])[H])C([H])([H])c2c([H])c(OC([H])([H])C([H])([H])OC([H])([H])C(=O)N([H])C([H])([H])C([H])([H])C([H])([H])C([H])([H])C([H])([H])C([H])([H])C([H])([H])C([H])([H])C([H])([H])N([H])C(=O)C([H])([H])C([H])([H])C([H])([H])C([H])([H])C([H])([H])N([H])C(=O)N3C([H])([H])C([H])([H])C([H])([H])C([H])(n4nc(-c5c([H])c([H])c(Oc6c([H])c([H])c(F)c([H])c6F)c([H])c5[H])c(C(=O)N([H])[H])c4N([H])[H])C3([H])[H])c([H])c([H])c2C1([H])[H]

>  <smiles>  (19) 
[H]c1c([H])c([H])c2c(c1[H])C([H])([H])C([H])([H])C([H])([H])C2([H])N([H])C(=O)C1([H])N(C(=O)C([H])(N([H])C(=O)C([H])(N([H])C([H])([H])[H])C([H])([H])[H])C(C([H])([H])[H])(C([H])([H])[H])C([H])([H])[H])C([H])([H])c2c([H])c(OC([H])([H])C([H])([H])OC([H])([H])C(=O)N([H])C([H])([H])C([H])([H])C([H])([H])C([H])([H])C([H])([H])C([H])([H])C([H])([H])C([H])([H])C([H])([H])N([H])C(=O)C([H])([H])C([H])([H])C([H])([H])C([H])([H])C([H])([H])N([H])C(=O)N3C([H])([H])C([H])([H])C([H])([H])C([H])(n4nc(-c5c([H])c([H])c(Oc6c([H])c([H])c(F)c([H])c6F)c([H])c5[H])c(C(=O)N([H])[H])c4N([H])[H])C3([H])[H])c([H])c([H])c2C1([H])[H]

$$$$
20:0:0
     RDKit          3D

105112  0  0  1  0  0  0  0  0999 V2000
  -21.4420  -20.9300   23.2630 O   0  0  0  0  0  0  0  0  0  0  0  0
  -20.2480  -20.6750   22.5340 C   0  0  0  0  0  2  0  0  0  0  0  0
  -20.6550  -19.9530   21.2440 C   0  0  0  0  0  2  0  0  0  0  0  0
  -21.8250  -20.5880   20.7410 O   0  0  0  0  0  0  0  0  0  0  0  0
  -22.5570  -19.7520   19.8590 C   0  0  0  0  0  2  0  0  0  0  0  0
  -24.0630  -20.0080   20.0240 C   0  0  0  0  0  2  0  0  0  0  0  0
  -24.6140  -20.9090   19.0630 O   0  0  0  0  0  0  0  0  0  0  0  0
  -24.9420  -20.3010   17.8160 C   0  0  0  0  0  2  0  0  0  0  0  0
  -26.2920  -20.8330   17.3060 C   0  0  0  0  0  2  0  0  0  0  0  0
  -27.3450  -20.6250   18.2510 O   0  0  0  0  0  0  0  0  0  0  0  0
  -27.8140  -19.2860   18.3910 C   0  0  0  0  0  2  0  0  0  0  0  0
  -28.1660  -19.0580   19.8690 C   0  0  0  0  0  2  0  0  0  0  0  0
  -28.8030  -17.8000   20.0690 O   0  0  0  0  0  0  0  0  0  0  0  0
  -29.1290  -17.5800   21.4400 C   0  0  0  0  0  2  0  0  0  0  0  0
  -30.3540  -16.6640   21.5660 C   0  0  0  0  0  2  0  0  0  0  0  0
  -30.5690  -14.4460   20.4770 C   0  0  0  0  0  0  0  0  0  0  0  0
  -30.0650  -12.6600   18.8690 C   0  0  0  0  0  2  0  0  0  0  0  0
  -29.0600  -13.2090   17.8350 C   0  0  0  0  0  2  0  0  0  0  0  0
  -27.6110  -13.0530   18.3390 C   0  0  0  0  0  2  0  0  0  0  0  0
  -27.4260  -13.5520   19.7970 C   0  0  0  0  0  3  0  0  0  0  0  0
  -28.5310  -12.9880   20.7150 C   0  0  0  0  0  2  0  0  0  0  0  0
  -29.8320  -13.3610   20.1360 N   0  0  0  0  0  0  0  0  0  0  0  0
  -31.6410  -14.7390   19.9440 O   0  0  0  0  0  0  0  0  0  0  0  0
  -29.9770  -15.2690   21.3470 N   0  0  0  0  0  0  0  0  0  0  0  0
  -29.0980  -14.9610   21.7340 H   0  0  0  0  0  0  0  0  0  0  0  0
  -25.0370  -14.0840   20.5960 C   0  0  0  0  0  0  0  0  0  0  0  0
  -23.9960  -13.2790   20.9670 C   0  0  0  0  0  0  0  0  0  0  0  0
  -24.4870  -11.9410   20.8880 C   0  0  0  0  0  0  0  0  0  0  0  0
  -26.0930  -13.2350   20.3050 N   0  0  0  0  0  0  0  0  0  0  0  0
  -25.7670  -11.9390   20.5380 N   0  0  0  0  0  0  0  0  0  0  0  0
  -23.8010  -10.6570   21.0730 C   0  0  0  0  0  0  0  0  0  0  0  0
  -24.2870   -9.6850   21.9750 C   0  0  0  0  0  3  0  0  0  0  0  0
  -23.6040   -8.4600   22.1420 C   0  0  0  0  0  3  0  0  0  0  0  0
  -22.4190   -8.2030   21.4120 C   0  0  0  0  0  0  0  0  0  0  0  0
  -21.9540   -9.1650   20.4990 C   0  0  0  0  0  3  0  0  0  0  0  0
  -22.6370  -10.3790   20.3290 C   0  0  0  0  0  3  0  0  0  0  0  0
  -21.7000   -7.0350   21.4950 O   0  0  0  0  0  0  0  0  0  0  0  0
  -21.6540   -6.3010   22.6520 C   0  0  0  0  0  0  0  0  0  0  0  0
  -21.2560   -6.8700   23.8830 C   0  0  0  0  0  3  0  0  0  0  0  0
  -21.1540   -6.0620   25.0310 C   0  0  0  0  0  3  0  0  0  0  0  0
  -21.4400   -4.6850   24.9520 C   0  0  0  0  0  0  0  0  0  0  0  0
  -21.8310   -4.1160   23.7270 C   0  0  0  0  0  3  0  0  0  0  0  0
  -21.9350   -4.9220   22.5810 C   0  0  0  0  0  0  0  0  0  0  0  0
  -22.2920   -4.3650   21.3970 F   0  0  0  0  0  0  0  0  0  0  0  0
  -21.3340   -3.9050   26.0520 F   0  0  0  0  0  0  0  0  0  0  0  0
  -22.5960  -13.7160   21.2990 C   0  0  0  0  0  0  0  0  0  0  0  0
  -21.9270  -12.9950   22.1920 N   0  0  0  0  0  0  0  0  0  0  0  0
  -22.1100  -14.7340   20.8040 O   0  0  0  0  0  0  0  0  0  0  0  0
  -22.3370  -12.1710   22.6110 H   0  0  0  0  0  0  0  0  0  0  0  0
  -20.9950  -13.2750   22.4650 H   0  0  0  0  0  0  0  0  0  0  0  0
  -25.1810  -15.4600   20.4720 N   0  0  0  0  0  0  0  0  0  0  0  0
  -24.4140  -16.0920   20.6550 H   0  0  0  0  0  0  0  0  0  0  0  0
  -26.0440  -15.9170   20.2050 H   0  0  0  0  0  0  0  0  0  0  0  0
  -21.4850  -22.1950   23.9240 C   0  0  0  0  0  2  0  0  0  0  0  0
  -22.6260  -23.0210   23.3200 C   0  0  0  0  0  0  0  0  0  0  0  0
  -22.7430  -22.9670   21.9870 N   0  0  0  0  0  0  0  0  0  0  0  0
  -23.3690  -23.6950   24.0370 O   0  0  0  0  0  0  0  0  0  0  0  0
  -22.0810  -22.3480   21.5320 H   0  0  0  0  0  0  0  0  0  0  0  0
  -23.6830  -23.7090   21.1500 C   0  0  0  0  0  2  0  0  0  0  0  0
  -25.0800  -23.0600   21.1230 C   0  0  0  0  0  2  0  0  0  0  0  0
  -26.0800  -23.7750   20.1960 C   0  0  0  0  0  2  0  0  0  0  0  0
  -27.2450  -22.9610   20.1160 O   0  0  0  0  0  0  0  0  0  0  0  0
  -28.1330  -23.2220   19.0260 C   0  0  0  0  0  2  0  0  0  0  0  0
  -29.0640  -24.4380   19.2310 C   0  0  0  0  0  2  0  0  0  0  0  0
  -28.8500  -25.4640   18.2550 O   0  0  0  0  0  0  0  0  0  0  0  0
  -25.5070  -29.0610   23.3700 C   0  0  0  0  0  0  0  0  0  0  0  0
  -27.8340  -26.3190   18.5820 C   0  0  0  0  0  0  0  0  0  0  0  0
  -24.2980  -28.8430   21.2250 C   0  0  0  0  0  3  0  0  0  0  0  0
  -25.6750  -27.9910   19.2560 C   0  0  0  0  0  0  0  0  0  0  0  0
  -26.8540  -28.8570   21.2870 C   0  0  0  0  0  2  0  0  0  0  0  0
  -26.8220  -27.9710   20.0620 C   0  0  0  0  0  0  0  0  0  0  0  0
  -27.9050  -27.1320   19.7340 C   0  0  0  0  0  3  0  0  0  0  0  0
  -26.6970  -26.3750   17.7550 C   0  0  0  0  0  3  0  0  0  0  0  0
  -25.6070  -27.1970   18.0970 C   0  0  0  0  0  3  0  0  0  0  0  0
  -24.5490  -28.8990   19.6950 C   0  0  0  0  0  2  0  0  0  0  0  0
  -25.5680  -28.8990   22.0190 N   0  0  0  0  0  0  0  0  0  0  0  0
  -24.4210  -29.2020   23.9500 O   0  0  0  0  0  0  0  0  0  0  0  0
  -23.4320  -27.6000   21.5370 C   0  0  0  0  0  0  0  0  0  0  0  0
  -22.1310  -27.6810   21.2200 N   0  0  0  0  0  0  0  0  0  0  0  0
  -23.9370  -26.5860   22.0260 O   0  0  0  0  0  0  0  0  0  0  0  0
  -21.7880  -28.5510   20.8380 H   0  0  0  0  0  0  0  0  0  0  0  0
  -18.6550  -26.8460   20.7060 C   0  0  0  0  0  0  0  0  0  0  0  0
  -21.1380  -26.6220   21.3890 C   0  0  0  0  0  3  0  0  0  0  0  0
  -21.2450  -25.5690   20.2640 C   0  0  0  0  0  2  0  0  0  0  0  0
  -20.3190  -25.8500   19.0750 C   0  0  0  0  0  2  0  0  0  0  0  0
  -18.8590  -25.8970   19.5340 C   0  0  0  0  0  2  0  0  0  0  0  0
  -19.7290  -27.1980   21.5660 C   0  0  0  0  0  0  0  0  0  0  0  0
  -19.4920  -28.1120   22.6170 C   0  0  0  0  0  3  0  0  0  0  0  0
  -18.2150  -28.6680   22.8160 C   0  0  0  0  0  3  0  0  0  0  0  0
  -17.1530  -28.3050   21.9680 C   0  0  0  0  0  3  0  0  0  0  0  0
  -17.3730  -27.3940   20.9190 C   0  0  0  0  0  3  0  0  0  0  0  0
  -26.7960  -29.0970   24.2500 C   0  0  0  0  0  3  0  0  0  0  0  0
  -27.0830  -27.7340   24.9940 C   0  0  1  0  0  0  0  0  0  0  0  0
  -25.8660  -27.1860   25.7760 C   0  0  0  0  0  1  0  0  0  0  0  0
  -27.5250  -26.6480   23.9860 C   0  0  0  0  0  1  0  0  0  0  0  0
  -28.2480  -27.9170   25.9950 C   0  0  0  0  0  1  0  0  0  0  0  0
  -26.6400  -30.1920   25.2170 N   0  0  0  0  0  0  0  0  0  0  0  0
  -27.1960  -31.4050   25.0870 C   0  0  0  0  0  0  0  0  0  0  0  0
  -27.9630  -31.6960   24.1630 O   0  0  0  0  0  0  0  0  0  0  0  0
  -25.9890  -30.0410   25.9730 H   0  0  0  0  0  0  0  0  0  0  0  0
  -25.7760  -33.4160   25.5960 C   0  0  0  0  0  1  0  0  0  0  0  0
  -26.8480  -32.4640   26.1500 C   0  0  0  0  0  3  0  0  0  0  0  0
  -28.9700  -32.4510   27.3870 C   0  0  0  0  0  1  0  0  0  0  0  0
  -28.0190  -33.2430   26.6120 N   0  0  0  0  0  0  0  0  0  0  0  0
  -27.7240  -34.0320   27.1820 H   0  0  0  0  0  0  0  0  0  0  0  0
  1 54  1  0
  2  1  1  0
  3  2  1  0
  4  3  1  0
  5  6  1  0
  5  4  1  0
  7  6  1  0
  8  7  1  0
  9  8  1  0
  9 10  1  0
 10 11  1  0
 11 12  1  0
 12 13  1  0
 13 14  1  0
 14 15  1  0
 16 24  1  0
 17 22  1  0
 18 19  1  0
 18 17  1  0
 20 19  1  0
 20 29  1  0
 20 21  1  0
 22 16  1  0
 22 21  1  0
 23 16  2  0
 24 15  1  0
 24 25  1  0
 26 27  2  0
 27 46  1  0
 28 27  1  0
 28 31  1  0
 29 30  1  0
 29 26  1  0
 30 28  2  0
 31 32  1  0
 32 33  2  0
 34 37  1  0
 34 33  1  0
 35 34  2  0
 36 35  1  0
 36 31  2  0
 37 38  1  0
 38 39  1  0
 39 40  2  0
 41 40  1  0
 41 45  1  0
 42 41  2  0
 43 38  2  0
 43 42  1  0
 44 43  1  0
 46 47  1  0
 47 50  1  0
 47 49  1  0
 48 46  2  0
 51 26  1  0
 51 52  1  0
 53 51  1  0
 55 54  1  0
 55 57  2  0
 56 55  1  0
 58 56  1  0
 59 56  1  0
 60 59  1  0
 61 60  1  0
 62 61  1  0
 63 64  1  0
 63 62  1  0
 65 67  1  0
 65 64  1  0
 66 77  2  0
 67 72  1  0
 68 78  1  0
 68 76  1  0
 69 75  1  0
 69 71  1  0
 70 76  1  0
 71 70  1  0
 72 71  2  0
 73 74  1  0
 73 67  2  0
 74 69  2  0
 75 68  1  0
 76 66  1  0
 78 80  2  0
 79 78  1  0
 81 79  1  0
 82 91  2  0
 82 87  1  0
 83 79  1  0
 83 87  1  0
 84 83  1  0
 85 86  1  0
 85 84  1  0
 86 82  1  0
 87 88  2  0
 88 89  1  0
 90 89  2  0
 91 90  1  0
 92 66  1  0
 92 93  1  0
 92 97  1  0
 93 94  1  1
 93 96  1  0
 95 93  1  0
 97100  1  0
 98 97  1  0
 98102  1  0
 99 98  2  0
102101  1  0
102104  1  0
104105  1  0
104103  1  0
M  ISO  4  16 100  24 100  64 101  65 101
M  END
>  <TORSDO>  (20) 
F 38

>  <SCORE>  (20) 
15.385

>  <name>  (20) 
20

>  <ligand_id>  (20) 
20

>  <original_smiles>  (20) 
[H]c1c([H])c([H])c2c(c1[H])C([H])([H])C([H])([H])C([H])([H])C2([H])N([H])C(=O)C1([H])N(C(=O)C([H])(N([H])C(=O)C([H])(N([H])C([H])([H])[H])C([H])([H])[H])C(C([H])([H])[H])(C([H])([H])[H])C([H])([H])[H])C([H])([H])c2c([H])c(OC([H])([H])C([H])([H])OC([H])([H])C([H])([H])C([H])([H])N([H])C(=O)C([H])([H])OC([H])([H])C([H])([H])OC([H])([H])C([H])([H])OC([H])([H])C([H])([H])OC([H])([H])C([H])([H])OC([H])([H])C([H])([H])N([H])C(=O)N3C([H])([H])C([H])([H])C([H])([H])C([H])(n4nc(-c5c([H])c([H])c(Oc6c([H])c([H])c(F)c([H])c6F)c([H])c5[H])c(C(=O)N([H])[H])c4N([H])[H])C3([H])[H])c([H])c([H])c2C1([H])[H]

>  <smiles>  (20) 
[H]c1c([H])c([H])c2c(c1[H])C([H])([H])C([H])([H])C([H])([H])C2([H])N([H])C(=O)C1([H])N(C(=O)C([H])(N([H])C(=O)C([H])(N([H])C([H])([H])[H])C([H])([H])[H])C(C([H])([H])[H])(C([H])([H])[H])C([H])([H])[H])C([H])([H])c2c([H])c(OC([H])([H])C([H])([H])OC([H])([H])C([H])([H])C([H])([H])N([H])C(=O)C([H])([H])OC([H])([H])C([H])([H])OC([H])([H])C([H])([H])OC([H])([H])C([H])([H])OC([H])([H])C([H])([H])OC([H])([H])C([H])([H])N([H])C(=O)N3C([H])([H])C([H])([H])C([H])([H])C([H])(n4nc(-c5c([H])c([H])c(Oc6c([H])c([H])c(F)c([H])c6F)c([H])c5[H])c(C(=O)N([H])[H])c4N([H])[H])C3([H])[H])c([H])c([H])c2C1([H])[H]

$$$$
21:0:0
     RDKit          3D

108116  0  0  1  0  0  0  0  0999 V2000
  -25.7950  -26.0500   26.9220 C   0  0  0  0  0  2  0  0  0  0  0  0
  -25.9700  -27.1650   26.0540 O   0  0  0  0  0  0  0  0  0  0  0  0
  -24.8680  -27.3900   25.1790 C   0  0  0  0  0  2  0  0  0  0  0  0
  -25.3920  -28.2030   23.9820 C   0  0  0  0  0  2  0  0  0  0  0  0
  -28.8170  -28.9310   22.4710 C   0  0  0  0  0  2  0  0  0  0  0  0
  -29.0640  -27.0830   24.0220 C   0  0  0  0  0  2  0  0  0  0  0  0
  -27.4420  -29.3180   23.0790 C   0  0  0  0  0  2  0  0  0  0  0  0
  -27.5480  -26.9400   23.7520 C   0  0  0  0  0  2  0  0  0  0  0  0
  -29.6360  -28.3510   23.5440 N   0  0  0  0  0  0  0  0  0  0  0  0
  -26.8760  -28.2470   23.9490 N   0  0  2  0  0  4  0  0  0  0  0  0
  -27.1500  -28.5060   24.8870 H   0  0  0  0  0  0  0  0  0  0  0  0
  -31.0400  -28.1030   23.2090 C   0  0  0  0  0  2  0  0  0  0  0  0
  -31.8860  -29.3750   23.0780 C   0  0  0  0  0  2  0  0  0  0  0  0
  -31.8720  -30.0200   24.3430 O   0  0  0  0  0  0  0  0  0  0  0  0
  -30.0280  -34.9590   29.0710 C   0  0  0  0  0  0  0  0  0  0  0  0
  -31.2980  -31.2550   24.5190 C   0  0  0  0  0  0  0  0  0  0  0  0
  -29.4030  -35.4530   26.7260 C   0  0  0  0  0  3  0  0  0  0  0  0
  -30.3720  -33.8810   24.9770 C   0  0  0  0  0  0  0  0  0  0  0  0
  -31.3900  -33.9330   27.2630 C   0  0  0  0  0  2  0  0  0  0  0  0
  -31.1100  -33.2180   25.9620 C   0  0  0  0  0  0  0  0  0  0  0  0
  -31.5780  -31.9100   25.7350 C   0  0  0  0  0  3  0  0  0  0  0  0
  -30.5240  -31.9250   23.5420 C   0  0  0  0  0  3  0  0  0  0  0  0
  -30.0650  -33.2340   23.7670 C   0  0  0  0  0  3  0  0  0  0  0  0
  -29.9540  -35.2970   25.2840 C   0  0  0  0  0  2  0  0  0  0  0  0
  -30.2620  -34.7630   27.7430 N   0  0  0  0  0  0  0  0  0  0  0  0
  -29.1390  -35.7300   29.4580 O   0  0  0  0  0  0  0  0  0  0  0  0
  -27.9330  -34.9750   26.7520 C   0  0  0  0  0  0  0  0  0  0  0  0
  -27.1180  -35.4780   25.8100 N   0  0  0  0  0  0  0  0  0  0  0  0
  -27.5530  -34.1500   27.5880 O   0  0  0  0  0  0  0  0  0  0  0  0
  -27.4990  -36.1620   25.1720 H   0  0  0  0  0  0  0  0  0  0  0  0
  -24.4560  -35.3450   23.3760 C   0  0  0  0  0  0  0  0  0  0  0  0
  -25.7070  -35.1420   25.6270 C   0  0  0  0  0  3  0  0  0  0  0  0
  -25.5100  -33.6160   25.4820 C   0  0  0  0  0  2  0  0  0  0  0  0
  -25.5260  -33.1430   24.0240 C   0  0  0  0  0  2  0  0  0  0  0  0
  -24.4160  -33.8330   23.2260 C   0  0  0  0  0  2  0  0  0  0  0  0
  -25.0750  -35.9600   24.4950 C   0  0  0  0  0  0  0  0  0  0  0  0
  -25.1180  -37.3700   24.5680 C   0  0  0  0  0  3  0  0  0  0  0  0
  -24.5510  -38.1600   23.5500 C   0  0  0  0  0  3  0  0  0  0  0  0
  -23.9280  -37.5460   22.4500 C   0  0  0  0  0  3  0  0  0  0  0  0
  -23.8780  -36.1430   22.3670 C   0  0  0  0  0  3  0  0  0  0  0  0
  -30.8850  -34.2480   30.1640 C   0  0  0  0  0  3  0  0  0  0  0  0
  -30.1050  -33.1080   30.9290 C   0  0  1  0  0  0  0  0  0  0  0  0
  -28.6860  -33.5200   31.3810 C   0  0  0  0  0  1  0  0  0  0  0  0
  -29.9660  -31.8420   30.0490 C   0  0  0  0  0  1  0  0  0  0  0  0
  -30.8960  -32.6850   32.1870 C   0  0  0  0  0  1  0  0  0  0  0  0
  -31.3510  -35.2830   31.0980 N   0  0  0  0  0  0  0  0  0  0  0  0
  -32.2750  -36.2080   30.8080 C   0  0  0  0  0  0  0  0  0  0  0  0
  -32.8790  -36.2390   29.7310 O   0  0  0  0  0  0  0  0  0  0  0  0
  -30.8510  -35.3580   31.9730 H   0  0  0  0  0  0  0  0  0  0  0  0
  -31.5720  -38.4270   31.7580 C   0  0  0  0  0  1  0  0  0  0  0  0
  -32.5760  -37.2710   31.8800 C   0  0  0  0  0  3  0  0  0  0  0  0
  -34.9750  -36.8050   32.1270 C   0  0  0  0  0  1  0  0  0  0  0  0
  -33.9560  -37.8020   31.8120 N   0  0  0  0  0  0  0  0  0  0  0  0
  -34.0680  -38.5870   32.4470 H   0  0  0  0  0  0  0  0  0  0  0  0
  -27.1170  -25.2760   26.9270 C   0  0  0  0  0  2  0  0  0  0  0  0
  -27.3450  -24.8200   25.6020 O   0  0  0  0  0  0  0  0  0  0  0  0
  -28.7130  -24.5580   25.3300 C   0  0  0  0  0  2  0  0  0  0  0  0
  -28.7960  -23.3590   24.3800 C   0  0  0  0  0  2  0  0  0  0  0  0
  -28.6600  -23.7820   23.0260 O   0  0  0  0  0  0  0  0  0  0  0  0
  -29.0240  -22.7550   22.1120 C   0  0  0  0  0  2  0  0  0  0  0  0
  -28.3630  -22.9630   20.7440 C   0  0  0  0  0  2  0  0  0  0  0  0
  -29.1110  -23.8720   19.9450 O   0  0  0  0  0  0  0  0  0  0  0  0
  -28.8250  -23.7140   18.5610 C   0  0  0  0  0  2  0  0  0  0  0  0
  -29.6110  -24.7340   17.7330 C   0  0  0  0  0  2  0  0  0  0  0  0
  -31.0030  -24.4960   17.8960 O   0  0  0  0  0  0  0  0  0  0  0  0
  -31.7730  -24.8860   16.7650 C   0  0  0  0  0  2  0  0  0  0  0  0
  -32.4800  -23.6670   16.1520 C   0  0  0  0  0  2  0  0  0  0  0  0
  -31.5440  -22.6230   15.8730 O   0  0  0  0  0  0  0  0  0  0  0  0
  -31.7430  -21.4720   16.6870 C   0  0  0  0  0  2  0  0  0  0  0  0
  -30.6800  -20.4010   16.3970 C   0  0  0  0  0  2  0  0  0  0  0  0
  -31.5620  -19.5410   14.2170 C   0  0  0  0  0  0  0  0  0  0  0  0
  -32.0860  -18.5580   12.0180 C   0  0  0  0  0  2  0  0  0  0  0  0
  -32.5240  -19.6650   11.0410 C   0  0  0  0  0  2  0  0  0  0  0  0
  -31.3040  -20.2900   10.3360 C   0  0  0  0  0  2  0  0  0  0  0  0
  -30.1860  -20.6940   11.3350 C   0  0  0  0  0  3  0  0  0  0  0  0
  -29.8930  -19.5470   12.3260 C   0  0  0  0  0  2  0  0  0  0  0  0
  -31.1580  -19.1590   12.9780 N   0  0  0  0  0  0  0  0  0  0  0  0
  -32.7120  -19.3850   14.6370 O   0  0  0  0  0  0  0  0  0  0  0  0
  -30.5890  -20.0360   14.9840 N   0  0  0  0  0  0  0  0  0  0  0  0
  -29.6770  -20.0980   14.5570 H   0  0  0  0  0  0  0  0  0  0  0  0
  -28.3100  -22.3500   10.7130 C   0  0  0  0  0  0  0  0  0  0  0  0
  -27.2710  -22.2670    9.8250 C   0  0  0  0  0  0  0  0  0  0  0  0
  -27.3690  -20.9730    9.2240 C   0  0  0  0  0  0  0  0  0  0  0  0
  -28.9750  -21.1350   10.6400 N   0  0  0  0  0  0  0  0  0  0  0  0
  -28.3690  -20.2870    9.7680 N   0  0  0  0  0  0  0  0  0  0  0  0
  -26.6020  -20.3710    8.1260 C   0  0  0  0  0  0  0  0  0  0  0  0
  -25.9500  -19.1270    8.2800 C   0  0  0  0  0  3  0  0  0  0  0  0
  -25.2020  -18.5710    7.2210 C   0  0  0  0  0  3  0  0  0  0  0  0
  -25.0960  -19.2600    5.9870 C   0  0  0  0  0  0  0  0  0  0  0  0
  -25.7620  -20.4890    5.8320 C   0  0  0  0  0  3  0  0  0  0  0  0
  -26.5110  -21.0370    6.8870 C   0  0  0  0  0  3  0  0  0  0  0  0
  -24.4180  -18.7830    4.8930 O   0  0  0  0  0  0  0  0  0  0  0  0
  -23.3510  -17.9290    5.0210 C   0  0  0  0  0  0  0  0  0  0  0  0
  -22.2060  -18.2790    5.7730 C   0  0  0  0  0  3  0  0  0  0  0  0
  -21.1040  -17.4020    5.8180 C   0  0  0  0  0  3  0  0  0  0  0  0
  -21.1390  -16.1850    5.1140 C   0  0  0  0  0  0  0  0  0  0  0  0
  -22.2770  -15.8370    4.3640 C   0  0  0  0  0  3  0  0  0  0  0  0
  -23.3770  -16.7120    4.3150 C   0  0  0  0  0  0  0  0  0  0  0  0
  -24.4620  -16.3840    3.5710 F   0  0  0  0  0  0  0  0  0  0  0  0
  -20.0770  -15.3490    5.1540 F   0  0  0  0  0  0  0  0  0  0  0  0
  -26.3000  -23.3560    9.4740 C   0  0  0  0  0  0  0  0  0  0  0  0
  -25.0570  -22.9970    9.1730 N   0  0  0  0  0  0  0  0  0  0  0  0
  -26.6300  -24.5410    9.5090 O   0  0  0  0  0  0  0  0  0  0  0  0
  -24.7840  -22.0270    9.1690 H   0  0  0  0  0  0  0  0  0  0  0  0
  -24.3710  -23.7000    8.9380 H   0  0  0  0  0  0  0  0  0  0  0  0
  -28.7560  -23.3540   11.5690 N   0  0  0  0  0  0  0  0  0  0  0  0
  -28.3190  -24.2680   11.6200 H   0  0  0  0  0  0  0  0  0  0  0  0
  -29.5640  -23.2640   12.1740 H   0  0  0  0  0  0  0  0  0  0  0  0
  1 55  1  0
  2  1  1  0
  3  2  1  0
  4  3  1  0
  5  7  1  0
  5  9  1  0
  7 10  1  0
  8 10  1  0
  8  6  1  0
  9  6  1  0
 10  4  1  0
 10 11  1  1
 12  9  1  0
 13 12  1  0
 13 14  1  0
 14 16  1  0
 15 26  2  0
 16 21  1  0
 17 27  1  0
 17 25  1  0
 18 24  1  0
 18 20  1  0
 19 25  1  0
 20 19  1  0
 21 20  2  0
 22 23  1  0
 22 16  2  0
 23 18  2  0
 24 17  1  0
 25 15  1  0
 27 29  2  0
 28 27  1  0
 30 28  1  0
 31 36  1  0
 32 28  1  0
 33 32  1  0
 34 33  1  0
 35 31  1  0
 35 34  1  0
 36 37  2  0
 36 32  1  0
 38 37  1  0
 39 38  2  0
 40 39  1  0
 40 31  2  0
 41 15  1  0
 41 42  1  0
 41 46  1  0
 42 43  1  1
 42 45  1  0
 44 42  1  0
 46 49  1  0
 47 46  1  0
 47 51  1  0
 48 47  2  0
 51 50  1  0
 53 51  1  0
 53 52  1  0
 53 54  1  0
 56 55  1  0
 57 56  1  0
 58 57  1  0
 59 58  1  0
 60 59  1  0
 61 60  1  0
 62 61  1  0
 63 62  1  0
 64 65  1  0
 64 63  1  0
 66 65  1  0
 67 66  1  0
 68 67  1  0
 68 69  1  0
 70 69  1  0
 71 78  2  0
 71 79  1  0
 72 77  1  0
 73 72  1  0
 74 73  1  0
 75 74  1  0
 75 76  1  0
 76 77  1  0
 77 71  1  0
 79 70  1  0
 80 79  1  0
 81106  1  0
 82 81  2  0
 83 85  2  0
 83 82  1  0
 84 81  1  0
 84 75  1  0
 85 84  1  0
 86 87  1  0
 86 83  1  0
 88 87  2  0
 89 88  1  0
 90 89  2  0
 90 91  1  0
 91 86  2  0
 92 93  1  0
 92 89  1  0
 93 94  1  0
 94 95  2  0
 96100  1  0
 96 95  1  0
 97 96  2  0
 98 97  1  0
 98 93  2  0
 99 98  1  0
101103  2  0
101 82  1  0
102101  1  0
104102  1  0
105102  1  0
106107  1  0
106108  1  0
M  ISO  4  13 101  14 101  71 100  79 100
M  END
>  <TORSDO>  (21) 
F 38

>  <SCORE>  (21) 
1.370

>  <name>  (21) 
21

>  <ligand_id>  (21) 
21

>  <original_smiles>  (21) 
[H]c1c([H])c([H])c2c(c1[H])C([H])([H])C([H])([H])C([H])([H])C2([H])N([H])C(=O)C1([H])N(C(=O)C([H])(N([H])C(=O)C([H])(N([H])C([H])([H])[H])C([H])([H])[H])C(C([H])([H])[H])(C([H])([H])[H])C([H])([H])[H])C([H])([H])c2c([H])c(OC([H])([H])C([H])([H])N3C([H])([H])C([H])([H])[N+]([H])(C([H])([H])C([H])([H])OC([H])([H])C([H])([H])OC([H])([H])C([H])([H])OC([H])([H])C([H])([H])OC([H])([H])C([H])([H])OC([H])([H])C([H])([H])OC([H])([H])C([H])([H])N([H])C(=O)N4C([H])([H])C([H])([H])C([H])([H])C([H])(n5nc(-c6c([H])c([H])c(Oc7c([H])c([H])c(F)c([H])c7F)c([H])c6[H])c(C(=O)N([H])[H])c5N([H])[H])C4([H])[H])C([H])([H])C3([H])[H])c([H])c([H])c2C1([H])[H]

>  <smiles>  (21) 
[H]c1c([H])c([H])c2c(c1[H])C([H])([H])C([H])([H])C([H])([H])C2([H])N([H])C(=O)C1([H])N(C(=O)C([H])(N([H])C(=O)C([H])(N([H])C([H])([H])[H])C([H])([H])[H])C(C([H])([H])[H])(C([H])([H])[H])C([H])([H])[H])C([H])([H])c2c([H])c(OC([H])([H])C([H])([H])N3C([H])([H])C([H])([H])[N+]([H])(C([H])([H])C([H])([H])OC([H])([H])C([H])([H])OC([H])([H])C([H])([H])OC([H])([H])C([H])([H])OC([H])([H])C([H])([H])OC([H])([H])C([H])([H])OC([H])([H])C([H])([H])N([H])C(=O)N4C([H])([H])C([H])([H])C([H])([H])C([H])(n5nc(-c6c([H])c([H])c(Oc7c([H])c([H])c(F)c([H])c7F)c([H])c6[H])c(C(=O)N([H])[H])c5N([H])[H])C4([H])[H])C([H])([H])C3([H])[H])c([H])c([H])c2C1([H])[H]

$$$$
22:0:0
     RDKit          3D

 95102  0  0  1  0  0  0  0  0999 V2000
  -27.4680  -20.3470   20.2950 C   0  0  0  0  0  0  0  0  0  0  0  0
  -27.1440  -21.2660   19.3800 N   0  0  0  0  0  0  0  0  0  0  0  0
  -27.4610  -20.5750   21.5060 O   0  0  0  0  0  0  0  0  0  0  0  0
  -27.1880  -20.9830   18.4080 H   0  0  0  0  0  0  0  0  0  0  0  0
  -27.8470  -18.9630   19.7670 C   0  0  0  0  0  2  0  0  0  0  0  0
  -29.9210  -17.6470   19.5810 C   0  0  0  0  0  0  0  0  0  0  0  0
  -29.1980  -18.5970   20.1760 N   0  0  0  0  0  0  0  0  0  0  0  0
  -29.5130  -17.0290   18.5960 O   0  0  0  0  0  0  0  0  0  0  0  0
  -29.5600  -19.0680   20.9950 H   0  0  0  0  0  0  0  0  0  0  0  0
  -31.2770  -17.2940   20.1960 C   0  0  0  0  0  2  0  0  0  0  0  0
  -31.6600  -14.9010   19.6710 C   0  0  0  0  0  0  0  0  0  0  0  0
  -31.3410  -12.5370   19.0450 C   0  0  0  0  0  2  0  0  0  0  0  0
  -30.3670  -12.4110   17.8580 C   0  0  0  0  0  2  0  0  0  0  0  0
  -28.9100  -12.3450   18.3540 C   0  0  0  0  0  2  0  0  0  0  0  0
  -28.5780  -13.4960   19.3370 C   0  0  0  0  0  3  0  0  0  0  0  0
  -29.6510  -13.5980   20.4440 C   0  0  0  0  0  2  0  0  0  0  0  0
  -30.9820  -13.7360   19.8150 N   0  0  0  0  0  0  0  0  0  0  0  0
  -32.5920  -15.0690   18.8750 O   0  0  0  0  0  0  0  0  0  0  0  0
  -31.2480  -15.8670   20.4970 N   0  0  0  0  0  0  0  0  0  0  0  0
  -30.5590  -15.5780   21.1750 H   0  0  0  0  0  0  0  0  0  0  0  0
  -26.3130  -14.3210   20.2410 C   0  0  0  0  0  0  0  0  0  0  0  0
  -25.2010  -13.6500   20.6750 C   0  0  0  0  0  0  0  0  0  0  0  0
  -25.5130  -12.2600   20.5620 C   0  0  0  0  0  0  0  0  0  0  0  0
  -27.2390  -13.3490   19.9020 N   0  0  0  0  0  0  0  0  0  0  0  0
  -26.7630  -12.1010   20.1500 N   0  0  0  0  0  0  0  0  0  0  0  0
  -24.6740  -11.0730   20.7680 C   0  0  0  0  0  0  0  0  0  0  0  0
  -25.0290  -10.0750   21.7030 C   0  0  0  0  0  3  0  0  0  0  0  0
  -24.2010   -8.9490   21.8970 C   0  0  0  0  0  3  0  0  0  0  0  0
  -23.0040   -8.8150   21.1570 C   0  0  0  0  0  0  0  0  0  0  0  0
  -22.6680   -9.7980   20.2100 C   0  0  0  0  0  3  0  0  0  0  0  0
  -23.4950  -10.9160   20.0140 C   0  0  0  0  0  3  0  0  0  0  0  0
  -22.1500   -7.7430   21.2580 O   0  0  0  0  0  0  0  0  0  0  0  0
  -21.9420   -7.1010   22.4510 C   0  0  0  0  0  0  0  0  0  0  0  0
  -21.3980   -7.7650   23.5720 C   0  0  0  0  0  3  0  0  0  0  0  0
  -21.1350   -7.0490   24.7550 C   0  0  0  0  0  3  0  0  0  0  0  0
  -21.4070   -5.6680   24.8200 C   0  0  0  0  0  0  0  0  0  0  0  0
  -21.9440   -5.0050   23.7020 C   0  0  0  0  0  3  0  0  0  0  0  0
  -22.2070   -5.7180   22.5210 C   0  0  0  0  0  0  0  0  0  0  0  0
  -22.7060   -5.0710   21.4390 F   0  0  0  0  0  0  0  0  0  0  0  0
  -21.1470   -4.9760   25.9530 F   0  0  0  0  0  0  0  0  0  0  0  0
  -23.8900  -14.2580   21.0810 C   0  0  0  0  0  0  0  0  0  0  0  0
  -23.1830  -13.6220   22.0100 N   0  0  0  0  0  0  0  0  0  0  0  0
  -23.5070  -15.3260   20.6090 O   0  0  0  0  0  0  0  0  0  0  0  0
  -23.5110  -12.7560   22.4090 H   0  0  0  0  0  0  0  0  0  0  0  0
  -22.3020  -14.0070   22.3240 H   0  0  0  0  0  0  0  0  0  0  0  0
  -26.6030  -15.6720   20.0890 N   0  0  0  0  0  0  0  0  0  0  0  0
  -25.8880  -16.3810   20.2010 H   0  0  0  0  0  0  0  0  0  0  0  0
  -27.4600  -16.0210   19.6740 H   0  0  0  0  0  0  0  0  0  0  0  0
  -26.7990  -22.6630   19.6370 C   0  0  0  0  0  2  0  0  0  0  0  0
  -27.8780  -23.6350   19.1190 C   0  0  0  0  0  2  0  0  0  0  0  0
  -27.8650  -23.8250   17.5900 C   0  0  0  0  0  2  0  0  0  0  0  0
  -28.7160  -25.0080   17.1120 C   0  0  0  0  0  2  0  0  0  0  0  0
  -28.3470  -25.4140   15.6780 C   0  0  0  0  0  2  0  0  0  0  0  0
  -28.7710  -26.8440   15.3030 C   0  0  0  0  0  2  0  0  0  0  0  0
  -27.6530  -27.5470   14.7680 O   0  0  0  0  0  0  0  0  0  0  0  0
  -25.4690  -27.6110   21.5330 C   0  0  0  0  0  0  0  0  0  0  0  0
  -26.6000  -27.6410   15.6440 C   0  0  0  0  0  0  0  0  0  0  0  0
  -23.6840  -27.4360   19.8220 C   0  0  0  0  0  3  0  0  0  0  0  0
  -24.4190  -27.8520   17.4140 C   0  0  0  0  0  0  0  0  0  0  0  0
  -25.8950  -28.6010   19.2910 C   0  0  0  0  0  2  0  0  0  0  0  0
  -25.7120  -28.1600   17.8560 C   0  0  0  0  0  0  0  0  0  0  0  0
  -26.8080  -28.0530   16.9760 C   0  0  0  0  0  3  0  0  0  0  0  0
  -25.2960  -27.3460   15.2030 C   0  0  0  0  0  3  0  0  0  0  0  0
  -24.2030  -27.4390   16.0860 C   0  0  0  0  0  3  0  0  0  0  0  0
  -23.3040  -27.9930   18.4230 C   0  0  0  0  0  2  0  0  0  0  0  0
  -25.0560  -27.8560   20.2560 N   0  0  0  0  0  0  0  0  0  0  0  0
  -24.7130  -27.0850   22.3610 O   0  0  0  0  0  0  0  0  0  0  0  0
  -23.4940  -25.9040   19.8100 C   0  0  0  0  0  0  0  0  0  0  0  0
  -22.2280  -25.4610   19.7290 N   0  0  0  0  0  0  0  0  0  0  0  0
  -24.4660  -25.1440   19.8460 O   0  0  0  0  0  0  0  0  0  0  0  0
  -21.4890  -26.1510   19.7100 H   0  0  0  0  0  0  0  0  0  0  0  0
  -19.3690  -23.3040   19.2740 C   0  0  0  0  0  0  0  0  0  0  0  0
  -21.8090  -24.0630   19.6600 C   0  0  0  0  0  3  0  0  0  0  0  0
  -22.1090  -23.4600   18.2680 C   0  0  0  0  0  2  0  0  0  0  0  0
  -20.9280  -23.5630   17.2980 C   0  0  0  0  0  2  0  0  0  0  0  0
  -19.7040  -22.8400   17.8660 C   0  0  0  0  0  2  0  0  0  0  0  0
  -20.3540  -23.8940   20.1090 C   0  0  0  0  0  0  0  0  0  0  0  0
  -19.9830  -24.3400   21.3960 C   0  0  0  0  0  3  0  0  0  0  0  0
  -18.6580  -24.2030   21.8530 C   0  0  0  0  0  3  0  0  0  0  0  0
  -17.6920  -23.6040   21.0280 C   0  0  0  0  0  3  0  0  0  0  0  0
  -18.0470  -23.1530   19.7440 C   0  0  0  0  0  3  0  0  0  0  0  0
  -26.9000  -28.0010   22.0200 C   0  0  0  0  0  3  0  0  0  0  0  0
  -27.9330  -26.8110   21.9390 C   0  0  1  0  0  0  0  0  0  0  0  0
  -27.4210  -25.5020   22.5820 C   0  0  0  0  0  1  0  0  0  0  0  0
  -28.2940  -26.5040   20.4660 C   0  0  0  0  0  1  0  0  0  0  0  0
  -29.2490  -27.2090   22.6430 C   0  0  0  0  0  1  0  0  0  0  0  0
  -26.7780  -28.4920   23.3990 N   0  0  0  0  0  0  0  0  0  0  0  0
  -26.8020  -29.7840   23.7510 C   0  0  0  0  0  0  0  0  0  0  0  0
  -27.0080  -30.6950   22.9440 O   0  0  0  0  0  0  0  0  0  0  0  0
  -26.5490  -27.8050   24.1030 H   0  0  0  0  0  0  0  0  0  0  0  0
  -25.1180  -30.6210   25.4200 C   0  0  0  0  0  1  0  0  0  0  0  0
  -26.5600  -30.1200   25.2340 C   0  0  0  0  0  3  0  0  0  0  0  0
  -28.8710  -30.6100   25.9020 C   0  0  0  0  0  1  0  0  0  0  0  0
  -27.5070  -31.1190   25.7750 N   0  0  0  0  0  0  0  0  0  0  0  0
  -27.2020  -31.4470   26.6870 H   0  0  0  0  0  0  0  0  0  0  0  0
  1  3  2  0
  2 49  1  0
  2  1  1  0
  4  2  1  0
  5  7  1  0
  5  1  1  0
  6  7  1  0
  6 10  1  0
  7  9  1  0
  8  6  2  0
 10 19  1  0
 11 17  1  0
 11 19  1  0
 12 17  1  0
 13 14  1  0
 13 12  1  0
 15 14  1  0
 15 24  1  0
 15 16  1  0
 17 16  1  0
 18 11  2  0
 19 20  1  0
 21 22  2  0
 22 41  1  0
 23 22  1  0
 23 26  1  0
 24 25  1  0
 24 21  1  0
 25 23  2  0
 26 27  1  0
 27 28  2  0
 29 32  1  0
 29 28  1  0
 30 29  2  0
 31 30  1  0
 31 26  2  0
 32 33  1  0
 33 38  2  0
 33 34  1  0
 34 35  2  0
 35 36  1  0
 36 40  1  0
 37 36  2  0
 38 37  1  0
 39 38  1  0
 41 42  1  0
 42 45  1  0
 42 44  1  0
 43 41  2  0
 46 47  1  0
 46 21  1  0
 48 46  1  0
 50 49  1  0
 51 50  1  0
 52 51  1  0
 53 52  1  0
 54 53  1  0
 55 54  1  0
 55 57  1  0
 56 67  2  0
 57 62  1  0
 58 68  1  0
 58 66  1  0
 59 61  1  0
 59 65  1  0
 60 66  1  0
 61 60  1  0
 62 61  2  0
 63 57  2  0
 63 64  1  0
 64 59  2  0
 65 58  1  0
 66 56  1  0
 68 70  2  0
 69 68  1  0
 71 69  1  0
 72 81  2  0
 72 77  1  0
 73 69  1  0
 73 77  1  0
 74 73  1  0
 75 76  1  0
 75 74  1  0
 76 72  1  0
 77 78  2  0
 78 79  1  0
 80 79  2  0
 81 80  1  0
 82 56  1  0
 82 87  1  0
 83 82  1  0
 83 84  1  1
 83 86  1  0
 85 83  1  0
 87 88  1  0
 87 90  1  0
 88 92  1  0
 89 88  2  0
 92 91  1  0
 92 94  1  0
 94 93  1  0
 94 95  1  0
M  ISO  4  11 100  19 100  54 101  55 101
M  END
>  <TORSDO>  (22) 
F 25

>  <SCORE>  (22) 
-7.815

>  <name>  (22) 
22

>  <ligand_id>  (22) 
22

>  <original_smiles>  (22) 
[H]c1c([H])c([H])c2c(c1[H])C([H])([H])C([H])([H])C([H])([H])C2([H])N([H])C(=O)C1([H])N(C(=O)C([H])(N([H])C(=O)C([H])(N([H])C([H])([H])[H])C([H])([H])[H])C(C([H])([H])[H])(C([H])([H])[H])C([H])([H])[H])C([H])([H])c2c([H])c(OC([H])([H])C([H])([H])C([H])([H])C([H])([H])C([H])([H])C([H])([H])N([H])C(=O)C([H])([H])N([H])C(=O)C([H])([H])N([H])C(=O)N3C([H])([H])C([H])([H])C([H])([H])C([H])(n4nc(-c5c([H])c([H])c(Oc6c([H])c([H])c(F)c([H])c6F)c([H])c5[H])c(C(=O)N([H])[H])c4N([H])[H])C3([H])[H])c([H])c([H])c2C1([H])[H]

>  <smiles>  (22) 
[H]c1c([H])c([H])c2c(c1[H])C([H])([H])C([H])([H])C([H])([H])C2([H])N([H])C(=O)C1([H])N(C(=O)C([H])(N([H])C(=O)C([H])(N([H])C([H])([H])[H])C([H])([H])[H])C(C([H])([H])[H])(C([H])([H])[H])C([H])([H])[H])C([H])([H])c2c([H])c(OC([H])([H])C([H])([H])C([H])([H])C([H])([H])C([H])([H])C([H])([H])N([H])C(=O)C([H])([H])N([H])C(=O)C([H])([H])N([H])C(=O)N3C([H])([H])C([H])([H])C([H])([H])C([H])(n4nc(-c5c([H])c([H])c(Oc6c([H])c([H])c(F)c([H])c6F)c([H])c5[H])c(C(=O)N([H])[H])c4N([H])[H])C3([H])[H])c([H])c([H])c2C1([H])[H]

$$$$
23:0:0
     RDKit          3D

115123  0  0  1  0  0  0  0  0999 V2000
  -22.1320  -14.1620   25.0290 C   0  0  0  0  0  2  0  0  0  0  0  0
  -21.0060  -14.9270   24.3020 C   0  0  0  0  0  2  0  0  0  0  0  0
  -21.2920  -14.9540   22.9020 O   0  0  0  0  0  0  0  0  0  0  0  0
  -20.3010  -15.6120   22.1170 C   0  0  0  0  0  2  0  0  0  0  0  0
  -21.0100  -16.2750   20.9200 C   0  0  0  0  0  2  0  0  0  0  0  0
  -21.4640  -17.5540   21.3770 O   0  0  0  0  0  0  0  0  0  0  0  0
  -22.0910  -18.3950   20.4070 C   0  0  0  0  0  2  0  0  0  0  0  0
  -23.5490  -18.8360   20.7440 C   0  0  0  0  0  2  0  0  0  0  0  0
  -23.7230  -20.0220   21.5530 O   0  0  0  0  0  0  0  0  0  0  0  0
  -22.9060  -21.1410   21.1830 C   0  0  0  0  0  2  0  0  0  0  0  0
  -23.5600  -22.5540   21.1830 C   0  0  0  0  0  2  0  0  0  0  0  0
  -24.0390  -23.0740   22.4310 O   0  0  0  0  0  0  0  0  0  0  0  0
  -23.8370  -24.4910   22.5630 C   0  0  0  0  0  2  0  0  0  0  0  0
  -24.9340  -25.1820   23.4080 C   0  0  0  0  0  2  0  0  0  0  0  0
  -25.7660  -26.0570   22.6250 O   0  0  0  0  0  0  0  0  0  0  0  0
  -26.8420  -26.6670   23.3630 C   0  0  0  0  0  2  0  0  0  0  0  0
  -26.8560  -28.2140   23.2440 C   0  0  0  0  0  2  0  0  0  0  0  0
  -27.5350  -28.7520   22.1050 O   0  0  0  0  0  0  0  0  0  0  0  0
  -28.6490  -29.6360   22.3320 C   0  0  0  0  0  2  0  0  0  0  0  0
  -28.3450  -31.1510   22.0780 C   0  0  0  0  0  2  0  0  0  0  0  0
  -29.8440  -33.2520   22.1640 C   0  0  0  0  0  0  0  0  0  0  0  0
  -31.6850  -34.7520   21.3720 C   0  0  0  0  0  2  0  0  0  0  0  0
  -31.8220  -34.7030   19.8270 C   0  0  0  0  0  2  0  0  0  0  0  0
  -32.6090  -33.4650   19.3430 C   0  0  0  0  0  2  0  0  0  0  0  0
  -32.1350  -32.1600   20.0250 C   0  0  0  0  0  3  0  0  0  0  0  0
  -32.1150  -32.3790   21.5570 C   0  0  0  0  0  2  0  0  0  0  0  0
  -31.1520  -33.4590   21.8480 N   0  0  0  0  0  0  0  0  0  0  0  0
  -29.0090  -34.1600   22.2460 O   0  0  0  0  0  0  0  0  0  0  0  0
  -29.5670  -31.9360   22.3030 N   0  0  0  0  0  0  0  0  0  0  0  0
  -30.4010  -31.3660   22.3090 H   0  0  0  0  0  0  0  0  0  0  0  0
  -32.6260  -29.9030   18.8790 C   0  0  0  0  0  0  0  0  0  0  0  0
  -33.7760  -29.1800   18.7460 C   0  0  0  0  0  0  0  0  0  0  0  0
  -34.7800  -29.9150   19.4600 C   0  0  0  0  0  0  0  0  0  0  0  0
  -32.9580  -31.0190   19.6340 N   0  0  0  0  0  0  0  0  0  0  0  0
  -34.2570  -30.9940   20.0140 N   0  0  0  0  0  0  0  0  0  0  0  0
  -36.2160  -29.6820   19.6030 C   0  0  0  0  0  0  0  0  0  0  0  0
  -36.8350  -29.6820   20.8720 C   0  0  0  0  0  3  0  0  0  0  0  0
  -38.2210  -29.4670   20.9990 C   0  0  0  0  0  3  0  0  0  0  0  0
  -38.9990  -29.2120   19.8430 C   0  0  0  0  0  0  0  0  0  0  0  0
  -38.3780  -29.2210   18.5840 C   0  0  0  0  0  3  0  0  0  0  0  0
  -37.0020  -29.4660   18.4570 C   0  0  0  0  0  3  0  0  0  0  0  0
  -40.3510  -28.9830   19.8560 O   0  0  0  0  0  0  0  0  0  0  0  0
  -40.9850  -28.4780   20.9590 C   0  0  0  0  0  0  0  0  0  0  0  0
  -40.6260  -27.2370   21.5290 C   0  0  0  0  0  3  0  0  0  0  0  0
  -41.3580  -26.7230   22.6170 C   0  0  0  0  0  3  0  0  0  0  0  0
  -42.4610  -27.4390   23.1220 C   0  0  0  0  0  0  0  0  0  0  0  0
  -42.8110  -28.6790   22.5570 C   0  0  0  0  0  3  0  0  0  0  0  0
  -42.0820  -29.1920   21.4760 C   0  0  0  0  0  0  0  0  0  0  0  0
  -42.4510  -30.3670   20.9140 F   0  0  0  0  0  0  0  0  0  0  0  0
  -43.1660  -26.9490   24.1660 F   0  0  0  0  0  0  0  0  0  0  0  0
  -33.9850  -27.9310   17.9540 C   0  0  0  0  0  0  0  0  0  0  0  0
  -34.8740  -27.0770   18.4360 N   0  0  0  0  0  0  0  0  0  0  0  0
  -33.2980  -27.6850   16.9570 O   0  0  0  0  0  0  0  0  0  0  0  0
  -35.3990  -27.3030   19.2720 H   0  0  0  0  0  0  0  0  0  0  0  0
  -34.8680  -26.1080   18.1000 H   0  0  0  0  0  0  0  0  0  0  0  0
  -31.3240  -29.7370   18.4190 N   0  0  0  0  0  0  0  0  0  0  0  0
  -30.9780  -28.8030   18.2130 H   0  0  0  0  0  0  0  0  0  0  0  0
  -30.6160  -30.3390   18.8260 H   0  0  0  0  0  0  0  0  0  0  0  0
  -23.3840  -14.6240   24.5070 O   0  0  0  0  0  0  0  0  0  0  0  0
  -24.5250  -13.8410   24.8610 C   0  0  0  0  0  2  0  0  0  0  0  0
  -25.6220  -14.0780   23.8020 C   0  0  0  0  0  2  0  0  0  0  0  0
  -26.6040  -13.0410   23.6890 O   0  0  0  0  0  0  0  0  0  0  0  0
  -27.2610  -13.1230   22.4180 C   0  0  0  0  0  2  0  0  0  0  0  0
  -28.3750  -12.0660   22.2330 C   0  0  0  0  0  2  0  0  0  0  0  0
  -32.1460  -11.9970   22.8530 C   0  0  0  0  0  2  0  0  0  0  0  0
  -32.9490  -12.1160   21.5460 C   0  0  0  0  0  2  0  0  0  0  0  0
  -31.4770  -14.0630   21.0160 C   0  0  0  0  0  2  0  0  0  0  0  0
  -30.7090  -11.5050   22.6230 C   0  0  0  0  0  2  0  0  0  0  0  0
  -30.2010  -13.1830   20.8910 C   0  0  0  0  0  2  0  0  0  0  0  0
  -32.7460  -13.3530   20.7690 N   0  0  0  0  0  0  0  0  0  0  0  0
  -29.7790  -12.5810   22.1930 N   0  0  1  0  0  4  0  0  0  0  0  0
  -29.8250  -13.2940   22.9060 H   0  0  0  0  0  0  0  0  0  0  0  0
  -33.9050  -14.2730   20.7510 C   0  0  0  0  0  2  0  0  0  0  0  0
  -35.2980  -13.5820   20.5460 C   0  0  0  0  0  2  0  0  0  0  0  0
  -36.3340  -14.4300   20.0160 O   0  0  0  0  0  0  0  0  0  0  0  0
  -37.0950  -19.4290   15.0200 C   0  0  0  0  0  0  0  0  0  0  0  0
  -36.3260  -14.7040   18.6620 C   0  0  0  0  0  0  0  0  0  0  0  0
  -36.0750  -17.3040   14.2820 C   0  0  0  0  0  3  0  0  0  0  0  0
  -36.2570  -15.3610   15.9140 C   0  0  0  0  0  0  0  0  0  0  0  0
  -37.7300  -17.3490   16.2350 C   0  0  0  0  0  2  0  0  0  0  0  0
  -36.9980  -16.1510   16.8010 C   0  0  0  0  0  0  0  0  0  0  0  0
  -37.0380  -15.8260   18.1750 C   0  0  0  0  0  3  0  0  0  0  0  0
  -35.6050  -13.9060   17.7410 C   0  0  0  0  0  3  0  0  0  0  0  0
  -35.5610  -14.2350   16.3780 C   0  0  0  0  0  3  0  0  0  0  0  0
  -36.2470  -15.7740   14.4620 C   0  0  0  0  0  2  0  0  0  0  0  0
  -36.9640  -18.0850   15.2010 N   0  0  0  0  0  0  0  0  0  0  0  0
  -36.5220  -20.0090   14.0870 O   0  0  0  0  0  0  0  0  0  0  0  0
  -34.5780  -17.6630   14.4290 C   0  0  0  0  0  0  0  0  0  0  0  0
  -33.7810  -17.3440   13.3960 N   0  0  0  0  0  0  0  0  0  0  0  0
  -34.1520  -18.1920   15.4600 O   0  0  0  0  0  0  0  0  0  0  0  0
  -34.2100  -16.9220   12.5830 H   0  0  0  0  0  0  0  0  0  0  0  0
  -30.8710  -16.8800   11.3050 C   0  0  0  0  0  0  0  0  0  0  0  0
  -32.3370  -17.5650   13.3210 C   0  0  0  0  0  3  0  0  0  0  0  0
  -31.5670  -16.4860   14.1170 C   0  0  0  0  0  2  0  0  0  0  0  0
  -31.1400  -15.2920   13.2590 C   0  0  0  0  0  2  0  0  0  0  0  0
  -30.2410  -15.7540   12.1080 C   0  0  0  0  0  2  0  0  0  0  0  0
  -31.8670  -17.7200   11.8700 C   0  0  0  0  0  0  0  0  0  0  0  0
  -32.4450  -18.7300   11.0700 C   0  0  0  0  0  3  0  0  0  0  0  0
  -32.0450  -18.9070    9.7330 C   0  0  0  0  0  3  0  0  0  0  0  0
  -31.0490  -18.0810    9.1830 C   0  0  0  0  0  3  0  0  0  0  0  0
  -30.4620  -17.0740    9.9700 C   0  0  0  0  0  3  0  0  0  0  0  0
  -37.9920  -20.2930   15.9580 C   0  0  0  0  0  3  0  0  0  0  0  0
  -37.1800  -21.0240   17.0960 C   0  0  1  0  0  0  0  0  0  0  0  0
  -35.9620  -21.8230   16.5760 C   0  0  0  0  0  1  0  0  0  0  0  0
  -36.6640  -20.0050   18.1380 C   0  0  0  0  0  1  0  0  0  0  0  0
  -38.1080  -22.0010   17.8570 C   0  0  0  0  0  1  0  0  0  0  0  0
  -38.7000  -21.2660   15.1150 N   0  0  0  0  0  0  0  0  0  0  0  0
  -39.9570  -21.1160   14.6740 C   0  0  0  0  0  0  0  0  0  0  0  0
  -40.6730  -20.1670   15.0030 O   0  0  0  0  0  0  0  0  0  0  0  0
  -38.1570  -22.0390   14.7610 H   0  0  0  0  0  0  0  0  0  0  0  0
  -40.4190  -21.6880   12.2700 C   0  0  0  0  0  1  0  0  0  0  0  0
  -40.5060  -22.1930   13.7190 C   0  0  0  0  0  3  0  0  0  0  0  0
  -42.0210  -23.3240   15.2840 C   0  0  0  0  0  1  0  0  0  0  0  0
  -41.8970  -22.5960   14.0240 N   0  0  0  0  0  0  0  0  0  0  0  0
  -42.2700  -23.1820   13.2820 H   0  0  0  0  0  0  0  0  0  0  0  0
  2  1  1  0
  3  2  1  0
  4  3  1  0
  5  6  1  0
  5  4  1  0
  7  8  1  0
  7  6  1  0
  8  9  1  0
 10  9  1  0
 11 10  1  0
 11 12  1  0
 12 13  1  0
 13 14  1  0
 15 16  1  0
 15 14  1  0
 17 16  1  0
 18 19  1  0
 18 17  1  0
 20 29  1  0
 20 19  1  0
 21 28  2  0
 21 29  1  0
 22 27  1  0
 23 22  1  0
 24 23  1  0
 25 24  1  0
 25 26  1  0
 26 27  1  0
 27 21  1  0
 29 30  1  0
 31 34  1  0
 32 31  2  0
 32 33  1  0
 33 36  1  0
 33 35  2  0
 34 35  1  0
 34 25  1  0
 36 37  1  0
 37 38  2  0
 39 42  1  0
 39 38  1  0
 40 39  2  0
 41 40  1  0
 41 36  2  0
 42 43  1  0
 43 48  2  0
 43 44  1  0
 44 45  2  0
 45 46  1  0
 46 50  1  0
 47 46  2  0
 48 47  1  0
 49 48  1  0
 51 52  1  0
 51 32  1  0
 52 54  1  0
 53 51  2  0
 55 52  1  0
 56 58  1  0
 56 31  1  0
 57 56  1  0
 59 60  1  0
 59  1  1  0
 61 60  1  0
 62 61  1  0
 63 62  1  0
 64 63  1  0
 66 65  1  0
 68 65  1  0
 69 67  1  0
 69 71  1  0
 70 67  1  0
 70 66  1  0
 71 64  1  0
 71 68  1  0
 71 72  1  1
 73 70  1  0
 74 73  1  0
 75 74  1  0
 76 86  1  0
 77 75  1  0
 78 88  1  0
 78 85  1  0
 78 86  1  0
 79 84  2  0
 79 81  1  0
 80 81  1  0
 81 82  2  0
 82 77  1  0
 83 77  2  0
 84 83  1  0
 85 79  1  0
 86 80  1  0
 87 76  2  0
 88 90  2  0
 89 88  1  0
 91 89  1  0
 92 97  1  0
 92 96  1  0
 93 89  1  0
 93 94  1  0
 95 94  1  0
 96 95  1  0
 97 93  1  0
 98 97  2  0
 99 98  1  0
100 99  2  0
100101  1  0
101 92  2  0
102 76  1  0
102103  1  0
103106  1  1
103105  1  0
104103  1  0
107102  1  0
108109  2  0
108107  1  0
110107  1  0
112111  1  0
112114  1  0
112108  1  0
114113  1  0
115114  1  0
M  ISO  4  21 100  29 100  74 101  75 101
M  END
>  <TORSDO>  (23) 
F 44

>  <SCORE>  (23) 
54.207

>  <name>  (23) 
23

>  <ligand_id>  (23) 
23

>  <original_smiles>  (23) 
[H]c1c([H])c([H])c2c(c1[H])C([H])([H])C([H])([H])C([H])([H])C2([H])N([H])C(=O)C1([H])N(C(=O)C([H])(N([H])C(=O)C([H])(N([H])C([H])([H])[H])C([H])([H])[H])C(C([H])([H])[H])(C([H])([H])[H])C([H])([H])[H])C([H])([H])c2c([H])c(OC([H])([H])C([H])([H])N3C([H])([H])C([H])([H])C([H])([H])[N+]([H])(C([H])([H])C([H])([H])OC([H])([H])C([H])([H])OC([H])([H])C([H])([H])OC([H])([H])C([H])([H])OC([H])([H])C([H])([H])OC([H])([H])C([H])([H])OC([H])([H])C([H])([H])OC([H])([H])C([H])([H])OC([H])([H])C([H])([H])N([H])C(=O)N4C([H])([H])C([H])([H])C([H])([H])C([H])(n5nc(-c6c([H])c([H])c(Oc7c([H])c([H])c(F)c([H])c7F)c([H])c6[H])c(C(=O)N([H])[H])c5N([H])[H])C4([H])[H])C([H])([H])C3([H])[H])c([H])c([H])c2C1([H])[H]

>  <smiles>  (23) 
[H]c1c([H])c([H])c2c(c1[H])C([H])([H])C([H])([H])C([H])([H])C2([H])N([H])C(=O)C1([H])N(C(=O)C([H])(N([H])C(=O)C([H])(N([H])C([H])([H])[H])C([H])([H])[H])C(C([H])([H])[H])(C([H])([H])[H])C([H])([H])[H])C([H])([H])c2c([H])c(OC([H])([H])C([H])([H])N3C([H])([H])C([H])([H])C([H])([H])[N+]([H])(C([H])([H])C([H])([H])OC([H])([H])C([H])([H])OC([H])([H])C([H])([H])OC([H])([H])C([H])([H])OC([H])([H])C([H])([H])OC([H])([H])C([H])([H])OC([H])([H])C([H])([H])OC([H])([H])C([H])([H])OC([H])([H])C([H])([H])N([H])C(=O)N4C([H])([H])C([H])([H])C([H])([H])C([H])(n5nc(-c6c([H])c([H])c(Oc7c([H])c([H])c(F)c([H])c7F)c([H])c6[H])c(C(=O)N([H])[H])c5N([H])[H])C4([H])[H])C([H])([H])C3([H])[H])c([H])c([H])c2C1([H])[H]

$$$$
24:0:0
     RDKit          3D

114121  0  0  1  0  0  0  0  0999 V2000
  -34.6430  -28.9040   18.1390 N   0  0  0  0  0  4  0  0  0  0  0  0
  -35.4940  -28.5630   18.5580 H   0  0  0  0  0  0  0  0  0  0  0  0
  -34.6550  -29.9080   18.2440 H   0  0  0  0  0  0  0  0  0  0  0  0
  -34.6530  -28.6420   16.6780 C   0  0  0  0  0  2  0  0  0  0  0  0
  -35.6180  -27.5110   16.2350 C   0  0  0  0  0  2  0  0  0  0  0  0
  -35.1600  -26.0550   16.4880 C   0  0  0  0  0  2  0  0  0  0  0  0
  -34.1340  -25.5720   15.5270 N   0  0  0  0  0  4  0  0  0  0  0  0
  -33.3190  -26.1600   15.5620 H   0  0  0  0  0  0  0  0  0  0  0  0
  -34.5080  -25.6270   14.5910 H   0  0  0  0  0  0  0  0  0  0  0  0
  -33.7090  -24.1700   15.7480 C   0  0  0  0  0  2  0  0  0  0  0  0
  -32.2300  -23.9250   15.3770 C   0  0  0  0  0  2  0  0  0  0  0  0
  -31.2150  -24.6240   16.3100 C   0  0  0  0  0  2  0  0  0  0  0  0
  -29.7730  -24.1100   16.1100 C   0  0  0  0  0  2  0  0  0  0  0  0
  -28.7420  -24.9960   16.6960 N   0  0  0  0  0  4  0  0  0  0  0  0
  -27.8450  -24.6160   16.4330 H   0  0  0  0  0  0  0  0  0  0  0  0
  -28.7990  -25.9010   16.2520 H   0  0  0  0  0  0  0  0  0  0  0  0
  -28.7420  -25.1460   18.1720 C   0  0  0  0  0  2  0  0  0  0  0  0
  -28.8310  -26.6240   18.5900 C   0  0  0  0  0  2  0  0  0  0  0  0
  -28.4260  -26.8080   19.9510 O   0  0  0  0  0  0  0  0  0  0  0  0
  -24.6060  -31.8710   23.2180 C   0  0  0  0  0  0  0  0  0  0  0  0
  -27.2340  -27.4750   20.0740 C   0  0  0  0  0  0  0  0  0  0  0  0
  -23.3950  -30.4960   21.5580 C   0  0  0  0  0  3  0  0  0  0  0  0
  -24.8410  -28.9640   20.1290 C   0  0  0  0  0  0  0  0  0  0  0  0
  -25.9200  -30.8420   21.3710 C   0  0  0  0  0  2  0  0  0  0  0  0
  -25.9960  -29.4730   20.7350 C   0  0  0  0  0  0  0  0  0  0  0  0
  -27.1950  -28.7280   20.7240 C   0  0  0  0  0  3  0  0  0  0  0  0
  -26.0540  -26.9570   19.4930 C   0  0  0  0  0  3  0  0  0  0  0  0
  -24.8610  -27.7000   19.5170 C   0  0  0  0  0  3  0  0  0  0  0  0
  -23.6050  -29.8340   20.1710 C   0  0  0  0  0  2  0  0  0  0  0  0
  -24.6600  -31.0830   22.1080 N   0  0  0  0  0  0  0  0  0  0  0  0
  -23.5260  -32.1510   23.7550 O   0  0  0  0  0  0  0  0  0  0  0  0
  -22.7380  -29.4650   22.5010 C   0  0  0  0  0  0  0  0  0  0  0  0
  -21.4110  -29.3010   22.3750 N   0  0  0  0  0  0  0  0  0  0  0  0
  -23.4170  -28.8160   23.3030 O   0  0  0  0  0  0  0  0  0  0  0  0
  -20.9240  -29.8820   21.7070 H   0  0  0  0  0  0  0  0  0  0  0  0
  -18.0280  -28.1340   22.8470 C   0  0  0  0  0  0  0  0  0  0  0  0
  -20.5860  -28.3610   23.1330 C   0  0  0  0  0  3  0  0  0  0  0  0
  -20.6750  -26.9350   22.5410 C   0  0  0  0  0  2  0  0  0  0  0  0
  -19.5730  -26.6370   21.5190 C   0  0  0  0  0  2  0  0  0  0  0  0
  -18.1920  -26.7880   22.1600 C   0  0  0  0  0  2  0  0  0  0  0  0
  -19.1530  -28.8770   23.2900 C   0  0  0  0  0  0  0  0  0  0  0  0
  -18.9450  -30.1390   23.8880 C   0  0  0  0  0  3  0  0  0  0  0  0
  -17.6450  -30.6540   24.0550 C   0  0  0  0  0  3  0  0  0  0  0  0
  -16.5330  -29.9060   23.6300 C   0  0  0  0  0  3  0  0  0  0  0  0
  -16.7270  -28.6490   23.0280 C   0  0  0  0  0  3  0  0  0  0  0  0
  -25.8970  -32.4840   23.8470 C   0  0  0  0  0  3  0  0  0  0  0  0
  -25.5840  -33.8660   24.2410 N   0  0  0  0  0  0  0  0  0  0  0  0
  -25.9000  -34.9490   23.5190 C   0  0  0  0  0  0  0  0  0  0  0  0
  -26.5570  -34.8910   22.4760 O   0  0  0  0  0  0  0  0  0  0  0  0
  -24.9960  -33.9860   25.0530 H   0  0  0  0  0  0  0  0  0  0  0  0
  -24.1480  -36.7350   23.2630 C   0  0  0  0  0  1  0  0  0  0  0  0
  -25.4080  -36.3140   24.0350 C   0  0  0  0  0  3  0  0  0  0  0  0
  -27.5610  -37.1810   24.8450 C   0  0  0  0  0  1  0  0  0  0  0  0
  -26.4290  -37.3810   23.9440 N   0  0  0  0  0  0  0  0  0  0  0  0
  -26.0180  -38.2890   24.1480 H   0  0  0  0  0  0  0  0  0  0  0  0
  -26.4450  -31.6560   25.0730 C   0  0  1  0  0  0  0  0  0  0  0  0
  -25.3740  -31.3580   26.1500 C   0  0  0  0  0  1  0  0  0  0  0  0
  -27.0290  -30.3010   24.6030 C   0  0  0  0  0  1  0  0  0  0  0  0
  -27.6060  -32.4250   25.7450 C   0  0  0  0  0  1  0  0  0  0  0  0
  -33.4390  -28.4140   18.8540 C   0  0  0  0  0  2  0  0  0  0  0  0
  -33.5020  -28.5970   20.3930 C   0  0  0  0  0  2  0  0  0  0  0  0
  -33.6690  -27.2900   21.2090 C   0  0  0  0  0  2  0  0  0  0  0  0
  -32.4580  -26.4310   21.1810 N   0  0  0  0  0  4  0  0  0  0  0  0
  -31.7120  -26.9060   21.6700 H   0  0  0  0  0  0  0  0  0  0  0  0
  -32.1730  -26.3040   20.2280 H   0  0  0  0  0  0  0  0  0  0  0  0
  -32.6160  -25.0790   21.7680 C   0  0  0  0  0  2  0  0  0  0  0  0
  -31.4510  -24.1470   21.3530 C   0  0  0  0  0  2  0  0  0  0  0  0
  -31.5490  -22.7150   21.9220 C   0  0  0  0  0  2  0  0  0  0  0  0
  -30.4400  -21.7740   21.3950 C   0  0  0  0  0  2  0  0  0  0  0  0
  -30.5780  -20.3970   21.9220 N   0  0  0  0  0  4  0  0  0  0  0  0
  -31.5320  -20.1040   21.7910 H   0  0  0  0  0  0  0  0  0  0  0  0
  -30.3880  -20.4040   22.9110 H   0  0  0  0  0  0  0  0  0  0  0  0
  -29.6980  -19.3980   21.2710 C   0  0  0  0  0  2  0  0  0  0  0  0
  -29.8090  -18.0030   21.9190 C   0  0  0  0  0  2  0  0  0  0  0  0
  -31.2080  -17.3710   21.8060 C   0  0  0  0  0  2  0  0  0  0  0  0
  -31.3090  -15.9870   22.4670 C   0  0  0  0  0  2  0  0  0  0  0  0
  -30.8020  -14.3180   20.7040 C   0  0  0  0  0  0  0  0  0  0  0  0
  -30.4070  -12.2800   19.3820 C   0  0  0  0  0  2  0  0  0  0  0  0
  -29.4740  -12.5160   18.1810 C   0  0  0  0  0  2  0  0  0  0  0  0
  -28.0010  -12.3700   18.6050 C   0  0  0  0  0  2  0  0  0  0  0  0
  -27.6620  -13.2010   19.8710 C   0  0  0  0  0  3  0  0  0  0  0  0
  -28.7000  -12.9530   20.9870 C   0  0  0  0  0  2  0  0  0  0  0  0
  -30.0460  -13.2230   20.4480 N   0  0  0  0  0  0  0  0  0  0  0  0
  -31.7930  -14.6360   20.0380 O   0  0  0  0  0  0  0  0  0  0  0  0
  -30.4720  -14.9830   21.8160 N   0  0  0  0  0  0  0  0  0  0  0  0
  -29.6490  -14.6670   22.3080 H   0  0  0  0  0  0  0  0  0  0  0  0
  -25.2600  -13.8160   20.5660 C   0  0  0  0  0  0  0  0  0  0  0  0
  -24.1840  -13.0440   20.9160 C   0  0  0  0  0  0  0  0  0  0  0  0
  -24.6370  -11.6910   20.8720 C   0  0  0  0  0  0  0  0  0  0  0  0
  -26.3020  -12.9320   20.3340 N   0  0  0  0  0  0  0  0  0  0  0  0
  -25.9290  -11.6490   20.5730 N   0  0  0  0  0  0  0  0  0  0  0  0
  -23.9040  -10.4300   21.0400 C   0  0  0  0  0  0  0  0  0  0  0  0
  -24.3600   -9.4210   21.9180 C   0  0  0  0  0  3  0  0  0  0  0  0
  -23.6280   -8.2250   22.0750 C   0  0  0  0  0  3  0  0  0  0  0  0
  -22.4270   -8.0280   21.3540 C   0  0  0  0  0  0  0  0  0  0  0  0
  -21.9900   -9.0240   20.4650 C   0  0  0  0  0  3  0  0  0  0  0  0
  -22.7220  -10.2130   20.3050 C   0  0  0  0  0  3  0  0  0  0  0  0
  -21.6640   -6.8880   21.4240 O   0  0  0  0  0  0  0  0  0  0  0  0
  -21.6860   -6.0740   22.5280 C   0  0  0  0  0  0  0  0  0  0  0  0
  -21.4010   -6.5640   23.8210 C   0  0  0  0  0  3  0  0  0  0  0  0
  -21.3660   -5.6790   24.9170 C   0  0  0  0  0  3  0  0  0  0  0  0
  -21.6050   -4.3050   24.7230 C   0  0  0  0  0  0  0  0  0  0  0  0
  -21.8820   -3.8140   23.4350 C   0  0  0  0  0  3  0  0  0  0  0  0
  -21.9190   -4.6960   22.3400 C   0  0  0  0  0  0  0  0  0  0  0  0
  -22.1660   -4.2150   21.0980 F   0  0  0  0  0  0  0  0  0  0  0  0
  -21.5630   -3.4540   25.7740 F   0  0  0  0  0  0  0  0  0  0  0  0
  -22.7870  -13.5260   21.1840 C   0  0  0  0  0  0  0  0  0  0  0  0
  -22.0490  -12.8240   22.0390 N   0  0  0  0  0  0  0  0  0  0  0  0
  -22.3560  -14.5560   20.6690 O   0  0  0  0  0  0  0  0  0  0  0  0
  -22.4100  -11.9890   22.4770 H   0  0  0  0  0  0  0  0  0  0  0  0
  -21.1100  -13.1270   22.2580 H   0  0  0  0  0  0  0  0  0  0  0  0
  -25.4350  -15.1870   20.4090 N   0  0  0  0  0  0  0  0  0  0  0  0
  -24.6780  -15.8500   20.5270 H   0  0  0  0  0  0  0  0  0  0  0  0
  -26.2990  -15.6210   20.1060 H   0  0  0  0  0  0  0  0  0  0  0  0
  1  3  1  0
  1  2  1  0
  1 60  1  0
  4  1  1  0
  5  6  1  0
  5  4  1  0
  7  8  1  0
  7 10  1  0
  7  6  1  0
  9  7  1  0
 11 10  1  0
 11 12  1  0
 13 12  1  0
 13 14  1  0
 14 17  1  0
 15 14  1  0
 16 14  1  0
 17 18  1  0
 18 19  1  0
 19 21  1  0
 20 31  2  0
 21 26  1  0
 22 30  1  0
 22 32  1  0
 23 29  1  0
 23 25  1  0
 24 30  1  0
 25 24  1  0
 26 25  2  0
 27 28  1  0
 27 21  2  0
 28 23  2  0
 29 22  1  0
 30 20  1  0
 32 34  2  0
 33 32  1  0
 35 33  1  0
 36 45  2  0
 36 41  1  0
 37 33  1  0
 37 41  1  0
 38 37  1  0
 39 40  1  0
 39 38  1  0
 40 36  1  0
 41 42  2  0
 42 43  1  0
 44 43  2  0
 45 44  1  0
 46 20  1  0
 46 47  1  0
 46 56  1  0
 47 50  1  0
 48 52  1  0
 48 47  1  0
 49 48  2  0
 52 51  1  0
 54 52  1  0
 54 55  1  0
 54 53  1  0
 56 59  1  1
 56 57  1  0
 58 56  1  0
 60 61  1  0
 61 62  1  0
 63 62  1  0
 63 64  1  0
 63 66  1  0
 65 63  1  0
 67 66  1  0
 67 68  1  0
 69 68  1  0
 69 70  1  0
 70 72  1  0
 71 70  1  0
 73 74  1  0
 73 70  1  0
 75 74  1  0
 75 76  1  0
 77 85  1  0
 78 83  1  0
 79 80  1  0
 79 78  1  0
 81 80  1  0
 81 90  1  0
 81 82  1  0
 83 77  1  0
 83 82  1  0
 84 77  2  0
 85 86  1  0
 85 76  1  0
 87 88  2  0
 88107  1  0
 89 88  1  0
 89 92  1  0
 90 87  1  0
 90 91  1  0
 91 89  2  0
 92 93  1  0
 93 94  2  0
 95 98  1  0
 95 94  1  0
 96 95  2  0
 97 96  1  0
 97 92  2  0
 98 99  1  0
 99100  1  0
100101  2  0
102101  1  0
102106  1  0
103102  2  0
104 99  2  0
104103  1  0
105104  1  0
107108  1  0
108111  1  0
108110  1  0
109107  2  0
112113  1  0
112 87  1  0
114112  1  0
M  ISO  4  18 101  19 101  77 100  85 100
M  END
>  <TORSDO>  (24) 
F 40

>  <SCORE>  (24) 
-6.346

>  <name>  (24) 
24

>  <ligand_id>  (24) 
24

>  <original_smiles>  (24) 
[H]c1c([H])c([H])c2c(c1[H])C([H])([H])C([H])([H])C([H])([H])C2([H])N([H])C(=O)C1([H])N(C(=O)C([H])(N([H])C(=O)C([H])(N([H])C([H])([H])[H])C([H])([H])[H])C(C([H])([H])[H])(C([H])([H])[H])C([H])([H])[H])C([H])([H])c2c([H])c(OC([H])([H])C([H])([H])[N+]([H])([H])C([H])([H])C([H])([H])C([H])([H])C([H])([H])[N+]([H])([H])C([H])([H])C([H])([H])C([H])([H])[N+]([H])([H])C([H])([H])C([H])([H])C([H])([H])[N+]([H])([H])C([H])([H])C([H])([H])C([H])([H])C([H])([H])[N+]([H])([H])C([H])([H])C([H])([H])C([H])([H])C([H])([H])N([H])C(=O)N3C([H])([H])C([H])([H])C([H])([H])C([H])(n4nc(-c5c([H])c([H])c(Oc6c([H])c([H])c(F)c([H])c6F)c([H])c5[H])c(C(=O)N([H])[H])c4N([H])[H])C3([H])[H])c([H])c([H])c2C1([H])[H]

>  <smiles>  (24) 
[H]c1c([H])c([H])c2c(c1[H])C([H])([H])C([H])([H])C([H])([H])C2([H])N([H])C(=O)C1([H])N(C(=O)C([H])(N([H])C(=O)C([H])(N([H])C([H])([H])[H])C([H])([H])[H])C(C([H])([H])[H])(C([H])([H])[H])C([H])([H])[H])C([H])([H])c2c([H])c(OC([H])([H])C([H])([H])[N+]([H])([H])C([H])([H])C([H])([H])C([H])([H])C([H])([H])[N+]([H])([H])C([H])([H])C([H])([H])C([H])([H])[N+]([H])([H])C([H])([H])C([H])([H])C([H])([H])[N+]([H])([H])C([H])([H])C([H])([H])C([H])([H])C([H])([H])[N+]([H])([H])C([H])([H])C([H])([H])C([H])([H])C([H])([H])N([H])C(=O)N3C([H])([H])C([H])([H])C([H])([H])C([H])(n4nc(-c5c([H])c([H])c(Oc6c([H])c([H])c(F)c([H])c6F)c([H])c5[H])c(C(=O)N([H])[H])c4N([H])[H])C3([H])[H])c([H])c([H])c2C1([H])[H]

$$$$
25:0:0
     RDKit          3D

101108  0  0  1  0  0  0  0  0999 V2000
  -27.7020  -12.7370   23.5560 C   0  0  0  0  0  0  0  0  0  0  0  0
  -27.0530  -13.8190   22.9780 N   0  0  0  0  0  0  0  0  0  0  0  0
  -28.6410  -12.9440   24.3270 O   0  0  0  0  0  0  0  0  0  0  0  0
  -26.2850  -13.5490   22.3790 H   0  0  0  0  0  0  0  0  0  0  0  0
  -27.2000  -15.3410   23.1360 C   0  0  0  0  0  2  0  0  0  0  0  0
  -27.7620  -16.3280   21.9630 C   0  0  0  0  0  2  0  0  0  0  0  0
  -27.2550  -17.8720   21.7800 C   0  0  0  0  0  3  0  0  0  0  0  0
  -28.2420  -19.1190   21.3920 C   0  0  0  0  0  3  0  0  0  0  0  0
  -27.7050  -20.5620   20.8340 C   0  0  0  0  0  3  0  0  0  0  0  0
  -28.5620  -21.9430   21.0300 C   0  0  0  0  0  3  0  0  0  0  0  0
  -28.1260  -23.3970   20.4140 C   0  0  0  0  0  3  0  0  0  0  0  0
  -28.8010  -24.7750   20.9730 C   0  0  0  0  0  3  0  0  0  0  0  0
  -28.5310  -26.1750   20.4780 O   0  0  0  0  0  0  0  0  0  0  0  0
  -29.0520  -30.7610   26.0370 C   0  0  0  0  0  0  0  0  0  0  0  0
  -27.9100  -27.0830   21.3500 C   0  0  0  0  0  0  0  0  0  0  0  0
  -26.8260  -29.7990   25.5660 C   0  0  0  0  0  3  0  0  0  0  0  0
  -26.5440  -28.6760   23.2850 C   0  0  0  0  0  0  0  0  0  0  0  0
  -28.4950  -30.1870   23.6570 C   0  0  0  0  0  2  0  0  0  0  0  0
  -27.8570  -29.0090   22.9250 C   0  0  0  0  0  0  0  0  0  0  0  0
  -28.5400  -28.2270   21.9400 C   0  0  0  0  0  3  0  0  0  0  0  0
  -26.5700  -26.8320   21.6940 C   0  0  0  0  0  3  0  0  0  0  0  0
  -25.8920  -27.6050   22.6540 C   0  0  0  0  0  3  0  0  0  0  0  0
  -25.8810  -29.4980   24.3720 C   0  0  0  0  0  2  0  0  0  0  0  0
  -28.1810  -30.2540   25.1140 N   0  0  0  0  0  0  0  0  0  0  0  0
  -28.7340  -30.8730   27.2280 O   0  0  0  0  0  0  0  0  0  0  0  0
  -26.8770  -28.5630   26.4960 C   0  0  0  0  0  0  0  0  0  0  0  0
  -25.8010  -28.3350   27.2670 N   0  0  0  0  0  0  0  0  0  0  0  0
  -27.8600  -27.8160   26.4920 O   0  0  0  0  0  0  0  0  0  0  0  0
  -25.0400  -28.9960   27.2200 H   0  0  0  0  0  0  0  0  0  0  0  0
  -23.4940  -26.8090   29.5970 C   0  0  0  0  0  0  0  0  0  0  0  0
  -25.6220  -27.2080   28.1820 C   0  0  0  0  0  3  0  0  0  0  0  0
  -25.2260  -25.9270   27.4130 C   0  0  0  0  0  2  0  0  0  0  0  0
  -23.7100  -25.7230   27.3210 C   0  0  0  0  0  2  0  0  0  0  0  0
  -23.0940  -25.6350   28.7190 C   0  0  0  0  0  2  0  0  0  0  0  0
  -24.6730  -27.5590   29.3350 C   0  0  0  0  0  0  0  0  0  0  0  0
  -24.9820  -28.6630   30.1600 C   0  0  0  0  0  3  0  0  0  0  0  0
  -24.1390  -29.0200   31.2290 C   0  0  0  0  0  3  0  0  0  0  0  0
  -22.9820  -28.2670   31.4940 C   0  0  0  0  0  3  0  0  0  0  0  0
  -22.6620  -27.1640   30.6810 C   0  0  0  0  0  3  0  0  0  0  0  0
  -30.4800  -31.2430   25.6330 C   0  0  0  0  0  3  0  0  0  0  0  0
  -30.7180  -32.5340   26.2960 N   0  0  0  0  0  0  0  0  0  0  0  0
  -30.5260  -33.7320   25.7250 C   0  0  0  0  0  0  0  0  0  0  0  0
  -30.1940  -33.8640   24.5450 O   0  0  0  0  0  0  0  0  0  0  0  0
  -30.9390  -32.5020   27.2800 H   0  0  0  0  0  0  0  0  0  0  0  0
  -29.3890  -35.4700   27.1440 C   0  0  0  0  0  1  0  0  0  0  0  0
  -30.7420  -34.9810   26.6020 C   0  0  0  0  0  3  0  0  0  0  0  0
  -32.8040  -35.7790   25.5340 C   0  0  0  0  0  1  0  0  0  0  0  0
  -31.4220  -36.0870   25.8940 N   0  0  0  0  0  0  0  0  0  0  0  0
  -31.4250  -36.9290   26.4620 H   0  0  0  0  0  0  0  0  0  0  0  0
  -31.6110  -30.2090   26.0110 C   0  0  1  0  0  0  0  0  0  0  0  0
  -31.5620  -29.7420   27.4850 C   0  0  0  0  0  1  0  0  0  0  0  0
  -31.5240  -28.9490   25.1190 C   0  0  0  0  0  1  0  0  0  0  0  0
  -33.0030  -30.8350   25.7560 C   0  0  0  0  0  1  0  0  0  0  0  0
  -27.3330  -11.1920   23.2310 C   0  0  0  0  0  2  0  0  0  0  0  0
  -28.2500  -10.3750   22.3430 O   0  0  0  0  0  0  0  0  0  0  0  0
  -27.8740   -9.1100   21.5990 C   0  0  0  0  0  2  0  0  0  0  0  0
  -28.0490   -8.7580   19.9780 C   0  0  0  0  0  2  0  0  0  0  0  0
  -27.5430   -9.5610   18.8250 O   0  0  0  0  0  0  0  0  0  0  0  0
  -28.3150   -9.9550   17.6270 C   0  0  0  0  0  2  0  0  0  0  0  0
  -28.4520  -11.5180   17.1180 C   0  0  0  0  0  2  0  0  0  0  0  0
  -29.1710  -12.6680   17.7690 O   0  0  0  0  0  0  0  0  0  0  0  0
  -30.5980  -13.0840   17.6060 C   0  0  0  0  0  2  0  0  0  0  0  0
  -31.2720  -14.2190   18.6000 C   0  0  0  0  0  2  0  0  0  0  0  0
  -32.5220  -13.7520   21.0340 C   0  0  0  0  0  0  0  0  0  0  0  0
  -32.3870  -11.3880   21.2030 C   0  0  0  0  0  2  0  0  0  0  0  0
  -31.8390  -11.0770   19.8370 C   0  0  0  0  0  2  0  0  0  0  0  0
  -30.3260  -11.2480   19.9470 C   0  0  0  0  0  2  0  0  0  0  0  0
  -29.6190  -12.5040   20.5950 C   0  0  0  0  0  3  0  0  0  0  0  0
  -30.4570  -12.7580   21.8520 C   0  0  0  0  0  2  0  0  0  0  0  0
  -31.8480  -12.7040   21.4940 N   0  0  0  0  0  0  0  0  0  0  0  0
  -33.5950  -14.0410   21.5640 O   0  0  0  0  0  0  0  0  0  0  0  0
  -32.3630  -14.0070   19.6730 N   0  0  0  0  0  0  0  0  0  0  0  0
  -33.2190  -14.4460   19.3630 H   0  0  0  0  0  0  0  0  0  0  0  0
  -27.1470  -13.4390   20.2830 C   0  0  0  0  0  0  0  0  0  0  0  0
  -25.9150  -12.8400   20.4810 C   0  0  0  0  0  0  0  0  0  0  0  0
  -26.1770  -11.5220   20.9050 C   0  0  0  0  0  0  0  0  0  0  0  0
  -28.1190  -12.5070   20.6410 N   0  0  0  0  0  0  0  0  0  0  0  0
  -27.4660  -11.4240   21.0360 N   0  0  0  0  0  0  0  0  0  0  0  0
  -25.3160  -10.3450   21.1690 C   0  0  0  0  0  0  0  0  0  0  0  0
  -25.3400   -9.6360   22.3960 C   0  0  0  0  0  3  0  0  0  0  0  0
  -24.5270   -8.5080   22.6100 C   0  0  0  0  0  3  0  0  0  0  0  0
  -23.6080   -8.1080   21.6180 C   0  0  0  0  0  0  0  0  0  0  0  0
  -23.5680   -8.8130   20.4010 C   0  0  0  0  0  3  0  0  0  0  0  0
  -24.4270   -9.9040   20.1710 C   0  0  0  0  0  3  0  0  0  0  0  0
  -22.7480   -7.0440   21.7570 O   0  0  0  0  0  0  0  0  0  0  0  0
  -22.3860   -6.5620   22.9910 C   0  0  0  0  0  0  0  0  0  0  0  0
  -21.8080   -7.3910   23.9810 C   0  0  0  0  0  3  0  0  0  0  0  0
  -21.3770   -6.8370   25.2010 C   0  0  0  0  0  3  0  0  0  0  0  0
  -21.5250   -5.4560   25.4410 C   0  0  0  0  0  0  0  0  0  0  0  0
  -22.0960   -4.6310   24.4580 C   0  0  0  0  0  3  0  0  0  0  0  0
  -22.5200   -5.1810   23.2360 C   0  0  0  0  0  0  0  0  0  0  0  0
  -23.0480   -4.3730   22.2850 F   0  0  0  0  0  0  0  0  0  0  0  0
  -21.1070   -4.9260   26.6130 F   0  0  0  0  0  0  0  0  0  0  0  0
  -24.5640  -13.4080   20.2100 C   0  0  0  0  0  0  0  0  0  0  0  0
  -23.5570  -12.9780   20.9690 N   0  0  0  0  0  0  0  0  0  0  0  0
  -24.3980  -14.2740   19.3590 O   0  0  0  0  0  0  0  0  0  0  0  0
  -23.6880  -12.2900   21.6960 H   0  0  0  0  0  0  0  0  0  0  0  0
  -22.6410  -13.3790   20.8380 H   0  0  0  0  0  0  0  0  0  0  0  0
  -27.5040  -14.7010   19.8440 N   0  0  0  0  0  0  0  0  0  0  0  0
  -26.8310  -15.3680   19.4830 H   0  0  0  0  0  0  0  0  0  0  0  0
  -28.4630  -15.0120   19.7670 H   0  0  0  0  0  0  0  0  0  0  0  0
  1  3  2  0
  2  5  1  0
  2  1  1  0
  4  2  1  0
  6  5  1  0
  7  6  1  0
  8  7  2  0
  9 10  2  0
  9  8  1  0
 11 12  2  0
 11 10  1  0
 13 12  1  0
 13 15  1  0
 14 25  2  0
 15 21  2  0
 15 20  1  0
 16 26  1  0
 17 23  1  0
 18 24  1  0
 19 17  1  0
 19 18  1  0
 20 19  2  0
 21 22  1  0
 22 17  2  0
 23 16  1  0
 24 16  1  0
 24 14  1  0
 26 27  1  0
 28 26  2  0
 29 27  1  0
 30 39  1  0
 31 27  1  0
 31 35  1  0
 32 31  1  0
 33 32  1  0
 33 34  1  0
 34 30  1  0
 35 30  2  0
 35 36  1  0
 36 37  2  0
 37 38  1  0
 39 38  2  0
 40 50  1  0
 40 14  1  0
 40 41  1  0
 41 44  1  0
 42 41  1  0
 42 46  1  0
 43 42  2  0
 46 45  1  0
 47 48  1  0
 48 49  1  0
 48 46  1  0
 50 51  1  1
 52 50  1  0
 53 50  1  0
 54  1  1  0
 55 54  1  0
 56 55  1  0
 57 56  1  0
 58 57  1  0
 59 58  1  0
 60 59  1  0
 60 61  1  0
 62 61  1  0
 62 63  1  0
 63 72  1  0
 64 70  1  0
 64 71  2  0
 65 70  1  0
 66 67  1  0
 66 65  1  0
 68 67  1  0
 68 77  1  0
 68 69  1  0
 70 69  1  0
 72 64  1  0
 73 72  1  0
 74 75  2  0
 74 77  1  0
 75 76  1  0
 76 78  2  0
 76 79  1  0
 77 78  1  0
 79 80  1  0
 80 81  2  0
 82 85  1  0
 82 81  1  0
 83 82  2  0
 84 83  1  0
 84 79  2  0
 85 86  1  0
 86 91  2  0
 86 87  1  0
 87 88  2  0
 88 89  1  0
 89 93  1  0
 90 89  2  0
 91 90  1  0
 92 91  1  0
 94 75  1  0
 94 95  1  0
 95 97  1  0
 96 94  2  0
 98 95  1  0
 99 74  1  0
100 99  1  0
101 99  1  0
M  ISO  4  12 101  13 101  64 100  72 100
M  END
>  <TORSDO>  (25) 
F 34

>  <SCORE>  (25) 
20.477

>  <name>  (25) 
25

>  <ligand_id>  (25) 
25

>  <original_smiles>  (25) 
[H]c1c([H])c([H])c2c(c1[H])C([H])([H])C([H])([H])C([H])([H])C2([H])N([H])C(=O)C1([H])N(C(=O)C([H])(N([H])C(=O)C([H])(N([H])C([H])([H])[H])C([H])([H])[H])C(C([H])([H])[H])(C([H])([H])[H])C([H])([H])[H])C([H])([H])c2c([H])c(OC([H])([H])C([H])([H])C([H])([H])C([H])([H])C([H])([H])C([H])([H])C([H])([H])C([H])([H])N([H])C(=O)C([H])([H])OC([H])([H])C([H])([H])OC([H])([H])C([H])([H])OC([H])([H])C([H])([H])N([H])C(=O)N3C([H])([H])C([H])([H])C([H])([H])C([H])(n4nc(-c5c([H])c([H])c(Oc6c([H])c([H])c(F)c([H])c6F)c([H])c5[H])c(C(=O)N([H])[H])c4N([H])[H])C3([H])[H])c([H])c([H])c2C1([H])[H]

>  <smiles>  (25) 
[H]c1c([H])c([H])c2c(c1[H])C([H])([H])C([H])([H])C([H])([H])C2([H])N([H])C(=O)C1([H])N(C(=O)C([H])(N([H])C(=O)C([H])(N([H])C([H])([H])[H])C([H])([H])[H])C(C([H])([H])[H])(C([H])([H])[H])C([H])([H])[H])C([H])([H])c2c([H])c(OC([H])([H])C([H])([H])C([H])([H])C([H])([H])C([H])([H])C([H])([H])C([H])([H])C([H])([H])N([H])C(=O)C([H])([H])OC([H])([H])C([H])([H])OC([H])([H])C([H])([H])OC([H])([H])C([H])([H])N([H])C(=O)N3C([H])([H])C([H])([H])C([H])([H])C([H])(n4nc(-c5c([H])c([H])c(Oc6c([H])c([H])c(F)c([H])c6F)c([H])c5[H])c(C(=O)N([H])[H])c4N([H])[H])C3([H])[H])c([H])c([H])c2C1([H])[H]

$$$$
26:0:0
     RDKit          3D

107115  0  0  1  0  0  0  0  0999 V2000
  -28.0940  -17.8090   17.7570 C   0  0  0  0  0  2  0  0  0  0  0  0
  -28.1740  -19.2020   15.8130 C   0  0  0  0  0  2  0  0  0  0  0  0
  -26.6460  -17.4030   17.4250 C   0  0  0  0  0  2  0  0  0  0  0  0
  -26.7290  -18.7880   15.4460 C   0  0  0  0  0  2  0  0  0  0  0  0
  -28.4080  -19.1600   17.2680 N   0  0  0  0  0  0  0  0  0  0  0  0
  -26.4420  -17.4280   15.9640 N   0  0  2  0  0  4  0  0  0  0  0  0
  -27.1480  -16.8210   15.5730 H   0  0  0  0  0  0  0  0  0  0  0  0
  -25.1420  -16.8460   15.5480 C   0  0  0  0  0  2  0  0  0  0  0  0
  -25.2690  -15.3250   15.3580 C   0  0  0  0  0  2  0  0  0  0  0  0
  -26.0500  -14.7110   16.3930 O   0  0  0  0  0  0  0  0  0  0  0  0
  -26.5240  -13.4300   15.9530 C   0  0  0  0  0  2  0  0  0  0  0  0
  -27.6080  -12.7480   16.8290 C   0  0  0  0  0  2  0  0  0  0  0  0
  -27.0570  -11.8780   17.8200 O   0  0  0  0  0  0  0  0  0  0  0  0
  -27.5390  -10.5250   17.8370 C   0  0  0  0  0  2  0  0  0  0  0  0
  -29.0390  -10.2870   18.1580 C   0  0  0  0  0  2  0  0  0  0  0  0
  -29.3510  -10.1290   19.5500 O   0  0  0  0  0  0  0  0  0  0  0  0
  -30.5910   -9.4380   19.7860 C   0  0  0  0  0  2  0  0  0  0  0  0
  -31.2270   -9.7410   21.1680 C   0  0  0  0  0  2  0  0  0  0  0  0
  -31.9540  -10.9830   21.1520 O   0  0  0  0  0  0  0  0  0  0  0  0
  -32.2940  -11.5230   22.4310 C   0  0  0  0  0  2  0  0  0  0  0  0
  -32.9320  -12.9490   22.3670 C   0  0  0  0  0  2  0  0  0  0  0  0
  -31.5920  -14.7210   21.3580 C   0  0  0  0  0  0  0  0  0  0  0  0
  -30.9510  -13.5540   19.3510 C   0  0  0  0  0  2  0  0  0  0  0  0
  -29.9350  -14.1490   18.4080 C   0  0  0  0  0  2  0  0  0  0  0  0
  -28.5320  -13.7530   18.8830 C   0  0  0  0  0  2  0  0  0  0  0  0
  -28.2580  -14.1060   20.3600 C   0  0  0  0  0  3  0  0  0  0  0  0
  -29.3870  -13.5710   21.2690 C   0  0  0  0  0  2  0  0  0  0  0  0
  -30.6820  -13.9830   20.7160 N   0  0  0  0  0  0  0  0  0  0  0  0
  -32.2720  -15.6200   20.8510 O   0  0  0  0  0  0  0  0  0  0  0  0
  -32.0170  -14.1020   22.4640 N   0  0  0  0  0  0  0  0  0  0  0  0
  -32.4010  -14.7660   23.1230 H   0  0  0  0  0  0  0  0  0  0  0  0
  -25.7760  -14.3660   20.9330 C   0  0  0  0  0  0  0  0  0  0  0  0
  -24.7840  -13.4580   21.1670 C   0  0  0  0  0  0  0  0  0  0  0  0
  -25.3930  -12.1640   21.0840 C   0  0  0  0  0  0  0  0  0  0  0  0
  -26.9320  -13.6300   20.7420 N   0  0  0  0  0  0  0  0  0  0  0  0
  -26.6950  -12.2920   20.8680 N   0  0  0  0  0  0  0  0  0  0  0  0
  -24.7990  -10.8230   21.1580 C   0  0  0  0  0  0  0  0  0  0  0  0
  -25.1520   -9.9050   22.1740 C   0  0  0  0  0  3  0  0  0  0  0  0
  -24.5480   -8.6310   22.2340 C   0  0  0  0  0  3  0  0  0  0  0  0
  -23.5760   -8.2660   21.2700 C   0  0  0  0  0  0  0  0  0  0  0  0
  -23.2440   -9.1740   20.2490 C   0  0  0  0  0  3  0  0  0  0  0  0
  -23.8520  -10.4390   20.1910 C   0  0  0  0  0  3  0  0  0  0  0  0
  -22.9440   -7.0480   21.2360 O   0  0  0  0  0  0  0  0  0  0  0  0
  -22.4180   -6.4790   22.3680 C   0  0  0  0  0  0  0  0  0  0  0  0
  -21.4840   -7.1610   23.1790 C   0  0  0  0  0  3  0  0  0  0  0  0
  -20.9140   -6.5160   24.2940 C   0  0  0  0  0  3  0  0  0  0  0  0
  -21.2660   -5.1870   24.5970 C   0  0  0  0  0  0  0  0  0  0  0  0
  -22.1880   -4.5040   23.7850 C   0  0  0  0  0  3  0  0  0  0  0  0
  -22.7610   -5.1480   22.6750 C   0  0  0  0  0  0  0  0  0  0  0  0
  -23.6360   -4.4780   21.8890 F   0  0  0  0  0  0  0  0  0  0  0  0
  -20.7120   -4.5600   25.6620 F   0  0  0  0  0  0  0  0  0  0  0  0
  -23.3330  -13.7660   21.3900 C   0  0  0  0  0  0  0  0  0  0  0  0
  -22.6690  -13.0160   22.2620 N   0  0  0  0  0  0  0  0  0  0  0  0
  -22.7890  -14.7190   20.8290 O   0  0  0  0  0  0  0  0  0  0  0  0
  -23.1220  -12.2470   22.7360 H   0  0  0  0  0  0  0  0  0  0  0  0
  -21.7010  -13.2210   22.4690 H   0  0  0  0  0  0  0  0  0  0  0  0
  -25.7900  -15.7600   20.8470 N   0  0  0  0  0  0  0  0  0  0  0  0
  -24.9630  -16.3120   21.0520 H   0  0  0  0  0  0  0  0  0  0  0  0
  -26.6320  -16.3140   20.8380 H   0  0  0  0  0  0  0  0  0  0  0  0
  -29.8310  -19.4040   17.5430 C   0  0  0  0  0  2  0  0  0  0  0  0
  -30.2270  -20.8940   17.5820 C   0  0  0  0  0  2  0  0  0  0  0  0
  -30.2240  -21.4760   19.0070 C   0  0  0  0  0  2  0  0  0  0  0  0
  -30.9120  -22.8500   19.1030 C   0  0  0  0  0  2  0  0  0  0  0  0
  -30.9520  -23.3870   20.5430 C   0  0  0  0  0  2  0  0  0  0  0  0
  -31.4510  -24.8410   20.6280 C   0  0  0  0  0  2  0  0  0  0  0  0
  -31.1800  -25.4680   22.0080 C   0  0  0  0  0  2  0  0  0  0  0  0
  -31.0680  -26.8950   21.9630 O   0  0  0  0  0  0  0  0  0  0  0  0
  -26.0350  -31.4450   24.1000 C   0  0  0  0  0  0  0  0  0  0  0  0
  -29.8220  -27.4300   21.7070 C   0  0  0  0  0  0  0  0  0  0  0  0
  -25.3900  -29.9100   22.2720 C   0  0  0  0  0  3  0  0  0  0  0  0
  -27.2940  -28.5940   21.2070 C   0  0  0  0  0  0  0  0  0  0  0  0
  -27.8310  -30.6070   22.5890 C   0  0  0  0  0  2  0  0  0  0  0  0
  -28.2280  -29.2670   22.0050 C   0  0  0  0  0  0  0  0  0  0  0  0
  -29.4960  -28.6950   22.2470 C   0  0  0  0  0  3  0  0  0  0  0  0
  -28.8620  -26.7630   20.9140 C   0  0  0  0  0  3  0  0  0  0  0  0
  -27.6030  -27.3400   20.6620 C   0  0  0  0  0  3  0  0  0  0  0  0
  -25.9670  -29.2800   20.9790 C   0  0  0  0  0  2  0  0  0  0  0  0
  -26.4230  -30.6700   23.0480 N   0  0  0  0  0  0  0  0  0  0  0  0
  -24.8390  -31.5660   24.4000 O   0  0  0  0  0  0  0  0  0  0  0  0
  -24.6980  -28.8020   23.0960 C   0  0  0  0  0  0  0  0  0  0  0  0
  -23.4980  -28.3900   22.6540 N   0  0  0  0  0  0  0  0  0  0  0  0
  -25.2470  -28.3120   24.0870 O   0  0  0  0  0  0  0  0  0  0  0  0
  -23.1120  -28.8460   21.8380 H   0  0  0  0  0  0  0  0  0  0  0  0
  -20.2960  -26.7290   22.4420 C   0  0  0  0  0  0  0  0  0  0  0  0
  -22.6770  -27.3360   23.2470 C   0  0  0  0  0  3  0  0  0  0  0  0
  -23.1000  -25.9440   22.7240 C   0  0  0  0  0  2  0  0  0  0  0  0
  -22.2930  -25.4880   21.5040 C   0  0  0  0  0  2  0  0  0  0  0  0
  -20.7990  -25.4280   21.8390 C   0  0  0  0  0  2  0  0  0  0  0  0
  -21.1820  -27.6320   23.0890 C   0  0  0  0  0  0  0  0  0  0  0  0
  -20.6690  -28.8430   23.6020 C   0  0  0  0  0  3  0  0  0  0  0  0
  -19.3040  -29.1560   23.4810 C   0  0  0  0  0  3  0  0  0  0  0  0
  -18.4280  -28.2520   22.8530 C   0  0  0  0  0  3  0  0  0  0  0  0
  -18.9270  -27.0400   22.3390 C   0  0  0  0  0  3  0  0  0  0  0  0
  -27.0710  -32.2360   24.9590 C   0  0  0  0  0  3  0  0  0  0  0  0
  -27.3300  -31.5860   26.3730 C   0  0  1  0  0  0  0  0  0  0  0  0
  -26.0380  -31.1550   27.1070 C   0  0  0  0  0  1  0  0  0  0  0  0
  -28.2370  -30.3390   26.2420 C   0  0  0  0  0  1  0  0  0  0  0  0
  -28.0810  -32.5870   27.2810 C   0  0  0  0  0  1  0  0  0  0  0  0
  -26.5680  -33.6100   25.1030 N   0  0  0  0  0  0  0  0  0  0  0  0
  -26.9360  -34.6360   24.3270 C   0  0  0  0  0  0  0  0  0  0  0  0
  -27.8010  -34.5400   23.4520 O   0  0  0  0  0  0  0  0  0  0  0  0
  -25.8190  -33.7510   25.7640 H   0  0  0  0  0  0  0  0  0  0  0  0
  -25.1240  -36.1800   23.5150 C   0  0  0  0  0  1  0  0  0  0  0  0
  -26.2350  -35.9900   24.5590 C   0  0  0  0  0  3  0  0  0  0  0  0
  -28.0960  -37.1730   25.6400 C   0  0  0  0  0  1  0  0  0  0  0  0
  -27.1590  -37.1450   24.5200 N   0  0  0  0  0  0  0  0  0  0  0  0
  -26.6410  -38.0200   24.5180 H   0  0  0  0  0  0  0  0  0  0  0  0
  2  5  1  0
  3  1  1  0
  4  2  1  0
  4  6  1  0
  5 60  1  0
  5  1  1  0
  6  3  1  0
  6  7  1  6
  8  6  1  0
  9  8  1  0
  9 10  1  0
 11 10  1  0
 11 12  1  0
 12 13  1  0
 13 14  1  0
 14 15  1  0
 15 16  1  0
 16 17  1  0
 17 18  1  0
 19 18  1  0
 19 20  1  0
 21 20  1  0
 21 30  1  0
 22 30  1  0
 23 28  1  0
 24 25  1  0
 24 23  1  0
 26 25  1  0
 26 35  1  0
 26 27  1  0
 28 27  1  0
 28 22  1  0
 29 22  2  0
 30 31  1  0
 32 33  2  0
 33 52  1  0
 34 37  1  0
 34 33  1  0
 35 36  1  0
 35 32  1  0
 36 34  2  0
 37 38  1  0
 38 39  2  0
 40 39  1  0
 41 40  2  0
 42 41  1  0
 42 37  2  0
 43 40  1  0
 43 44  1  0
 44 49  2  0
 44 45  1  0
 45 46  2  0
 46 47  1  0
 47 51  1  0
 48 47  2  0
 49 48  1  0
 50 49  1  0
 52 53  1  0
 53 56  1  0
 53 55  1  0
 54 52  2  0
 57 32  1  0
 57 58  1  0
 59 57  1  0
 60 61  1  0
 61 62  1  0
 62 63  1  0
 63 64  1  0
 64 65  1  0
 65 66  1  0
 67 66  1  0
 68 79  2  0
 69 67  1  0
 69 74  1  0
 70 78  1  0
 70 80  1  0
 71 73  1  0
 72 78  1  0
 73 74  2  0
 73 72  1  0
 75 69  2  0
 76 75  1  0
 76 71  2  0
 77 71  1  0
 77 70  1  0
 78 68  1  0
 80 82  2  0
 81 80  1  0
 83 81  1  0
 84 89  1  0
 85 81  1  0
 86 85  1  0
 87 88  1  0
 87 86  1  0
 88 84  1  0
 89 85  1  0
 89 90  2  0
 91 90  1  0
 92 91  2  0
 93 84  2  0
 93 92  1  0
 94 68  1  0
 94 99  1  0
 94 95  1  0
 95 96  1  1
 95 98  1  0
 97 95  1  0
 99102  1  0
100104  1  0
100 99  1  0
101100  2  0
104103  1  0
106104  1  0
106105  1  0
107106  1  0
M  ISO  4  22 100  30 100  66 101  67 101
M  END
>  <TORSDO>  (26) 
F 37

>  <SCORE>  (26) 
21.609

>  <name>  (26) 
26

>  <ligand_id>  (26) 
26

>  <original_smiles>  (26) 
[H]c1c([H])c([H])c2c(c1[H])C([H])([H])C([H])([H])C([H])([H])C2([H])N([H])C(=O)C1([H])N(C(=O)C([H])(N([H])C(=O)C([H])(N([H])C([H])([H])[H])C([H])([H])[H])C(C([H])([H])[H])(C([H])([H])[H])C([H])([H])[H])C([H])([H])c2c([H])c(OC([H])([H])C([H])([H])C([H])([H])C([H])([H])C([H])([H])C([H])([H])C([H])([H])N3C([H])([H])C([H])([H])[N+]([H])(C([H])([H])C([H])([H])OC([H])([H])C([H])([H])OC([H])([H])C([H])([H])OC([H])([H])C([H])([H])OC([H])([H])C([H])([H])N([H])C(=O)N4C([H])([H])C([H])([H])C([H])([H])C([H])(n5nc(-c6c([H])c([H])c(Oc7c([H])c([H])c(F)c([H])c7F)c([H])c6[H])c(C(=O)N([H])[H])c5N([H])[H])C4([H])[H])C([H])([H])C3([H])[H])c([H])c([H])c2C1([H])[H]

>  <smiles>  (26) 
[H]c1c([H])c([H])c2c(c1[H])C([H])([H])C([H])([H])C([H])([H])C2([H])N([H])C(=O)C1([H])N(C(=O)C([H])(N([H])C(=O)C([H])(N([H])C([H])([H])[H])C([H])([H])[H])C(C([H])([H])[H])(C([H])([H])[H])C([H])([H])[H])C([H])([H])c2c([H])c(OC([H])([H])C([H])([H])C([H])([H])C([H])([H])C([H])([H])C([H])([H])C([H])([H])N3C([H])([H])C([H])([H])[N+]([H])(C([H])([H])C([H])([H])OC([H])([H])C([H])([H])OC([H])([H])C([H])([H])OC([H])([H])C([H])([H])OC([H])([H])C([H])([H])N([H])C(=O)N4C([H])([H])C([H])([H])C([H])([H])C([H])(n5nc(-c6c([H])c([H])c(Oc7c([H])c([H])c(F)c([H])c7F)c([H])c6[H])c(C(=O)N([H])[H])c5N([H])[H])C4([H])[H])C([H])([H])C3([H])[H])c([H])c([H])c2C1([H])[H]

$$$$
27:0:0
     RDKit          3D

100101  0  0  1  0  0  0  0  0999 V2000
  -29.9700  -17.0880   17.7900 C   0  0  0  0  0 15  0  0  0  0  0  0
  -28.4940  -17.0250   20.7880 C   0  0  0  0  0  1  0  0  0  0  0  0
  -29.5530  -14.7320   17.3970 C   0  0  0  0  0 15  0  0  0  0  0  0
  -27.9450  -14.8340   20.6220 C   0  0  0  0  0  1  0  0  0  0  0  0
  -29.2300  -18.0590   19.3770 N   0  0  0  0  0  2  0  0  0  0  0  0
  -28.4630  -13.6830   18.8330 N   0  0  0  0  0  2  0  0  0  0  0  0
  -27.6090  -14.0360   18.4260 H   0  0  0  0  0  0  0  0  0  0  0  0
  -28.0550  -12.0660   18.4160 C   0  0  0  0  0  2  0  0  0  0  0  0
  -27.9830  -10.3590   19.2740 C   0  0  0  0  0  2  0  0  0  0  0  0
  -27.7430   -9.9200   20.9480 O   0  0  0  0  0  0  0  0  0  0  0  0
  -26.7360  -10.1030   22.3760 C   0  0  0  0  0  2  0  0  0  0  0  0
  -24.8820  -10.3150   22.6750 C   0  0  0  0  0  2  0  0  0  0  0  0
  -23.5460  -10.7920   21.6790 O   0  0  0  0  0  0  0  0  0  0  0  0
  -23.0610  -11.8660   20.3800 C   0  0  0  0  0  3  0  0  0  0  0  0
  -23.9320  -13.0740   19.2530 C   0  0  0  0  0  3  0  0  0  0  0  0
  -25.4580  -13.6470   18.9730 O   0  0  0  0  0  0  0  0  0  0  0  0
  -26.3150  -14.9890   19.2500 C   0  0  0  0  0  2  0  0  0  0  0  0
  -27.9710  -15.6630   18.8660 C   0  0  0  0  0  3  0  0  0  0  0  0
  -31.0180  -14.7800   20.6670 C   0  0  0  0  0  2  0  0  0  0  0  0
  -31.9960  -12.3750   20.5170 C   0  0  0  0  0  2  0  0  0  0  0  0
  -31.1810  -11.4260   19.7090 C   0  0  0  0  0  2  0  0  0  0  0  0
  -30.0830  -10.9910   20.7200 C   0  0  0  0  0  2  0  0  0  0  0  0
  -29.1410  -11.9480   21.6700 C   0  0  0  0  0  3  0  0  0  0  0  0
  -30.3210  -12.7470   22.2510 C   0  0  0  0  0  2  0  0  0  0  0  0
  -31.0710  -13.3910   21.1300 N   0  0  0  0  0  0  0  0  0  0  0  0
  -32.2220  -15.0330   20.9680 O   0  0  0  0  0  1  0  0  0  0  0  0
  -29.5420  -15.7490   19.6160 N   0  0  0  0  0  2  0  0  0  0  0  0
  -29.8690  -16.7280   19.7080 H   0  0  0  0  0  0  0  0  0  0  0  0
  -26.5550  -13.2510   22.0460 C   0  0  0  0  0  0  0  0  0  0  0  0
  -25.3590  -12.8360   21.6180 C   0  0  0  0  0  0  0  0  0  0  0  0
  -25.5990  -11.5830   20.7990 C   0  0  0  0  0  0  0  0  0  0  0  0
  -27.5660  -12.3940   21.5580 N   0  0  0  0  0  0  0  0  0  0  0  0
  -26.7480  -12.0410   20.5930 N   0  0  0  0  0  0  0  0  0  0  0  0
  -25.0370   -9.9880   20.4230 C   0  0  0  0  0  0  0  0  0  0  0  0
  -25.3170   -8.6760   21.0730 C   0  0  0  0  0  3  0  0  0  0  0  0
  -24.4120   -7.7250   21.5790 C   0  0  0  0  0  3  0  0  0  0  0  0
  -23.1190   -7.7840   21.0910 C   0  0  0  0  0  0  0  0  0  0  0  0
  -22.8560   -8.7860   20.1400 C   0  0  0  0  0  3  0  0  0  0  0  0
  -23.8390   -9.7290   19.7230 C   0  0  0  0  0  3  0  0  0  0  0  0
  -22.1950   -6.7810   21.2390 O   0  0  0  0  0  0  0  0  0  0  0  0
  -22.1990   -5.9010   22.2960 C   0  0  0  0  0  0  0  0  0  0  0  0
  -21.9070   -6.3480   23.6020 C   0  0  0  0  0  3  0  0  0  0  0  0
  -21.7290   -5.4150   24.6430 C   0  0  0  0  0  3  0  0  0  0  0  0
  -21.8380   -4.0370   24.3830 C   0  0  0  0  0  0  0  0  0  0  0  0
  -22.1530   -3.5880   23.0890 C   0  0  0  0  0  3  0  0  0  0  0  0
  -22.3350   -4.5170   22.0470 C   0  0  0  0  0  0  0  0  0  0  0  0
  -22.6020   -4.0680   20.7970 F   0  0  0  0  0  0  0  0  0  0  0  0
  -21.6310   -3.1410   25.3790 F   0  0  0  0  0  0  0  0  0  0  0  0
  -24.1640  -13.7090   22.0810 C   0  0  0  0  0  0  0  0  0  0  0  0
  -23.2710  -13.2290   22.9350 N   0  0  0  0  0  0  0  0  0  0  0  0
  -23.9310  -14.7780   21.5280 O   0  0  0  0  0  0  0  0  0  0  0  0
  -23.2840  -12.2310   23.1080 H   0  0  0  0  0  0  0  0  0  0  0  0
  -22.4670  -13.7790   23.2020 H   0  0  0  0  0  0  0  0  0  0  0  0
  -26.6570  -14.3820   22.8520 N   0  0  0  0  0  0  0  0  0  0  0  0
  -25.8650  -14.9720   23.0800 H   0  0  0  0  0  0  0  0  0  0  0  0
  -27.4720  -14.6360   23.3940 H   0  0  0  0  0  0  0  0  0  0  0  0
  -28.5640  -19.7070   19.3750 C   0  0  0  0  0  1  0  0  0  0  0  0
  -28.7670  -21.5690   20.0030 C   0  0  0  0  0 15  0  0  0  0  0  0
  -27.9430  -23.3670   19.9090 C   0  0  0  0  0  1  0  0  0  0  0  0
  -28.1820  -25.1030   20.2690 O   0  0  0  0  0  0  0  0  0  0  0  0
  -24.6970  -31.6550   22.9910 C   0  0  0  0  0  0  0  0  0  0  0  0
  -27.2640  -26.3690   20.2380 C   0  0  0  0  0  0  0  0  0  0  0  0
  -23.5580  -30.1610   21.4230 C   0  0  0  0  0  3  0  0  0  0  0  0
  -25.0260  -28.4350   20.1360 C   0  0  0  0  0  0  0  0  0  0  0  0
  -26.1470  -30.2700   21.3680 C   0  0  0  0  0  2  0  0  0  0  0  0
  -26.2200  -28.8030   20.7660 C   0  0  0  0  0  0  0  0  0  0  0  0
  -27.3290  -27.7900   20.7910 C   0  0  0  0  0  3  0  0  0  0  0  0
  -26.0270  -26.2220   19.5800 C   0  0  0  0  0  3  0  0  0  0  0  0
  -24.9660  -27.1690   19.5370 C   0  0  0  0  0  3  0  0  0  0  0  0
  -23.8300  -29.3930   20.1020 C   0  0  0  0  0  2  0  0  0  0  0  0
  -24.8250  -30.7300   21.9780 N   0  0  0  0  0  0  0  0  0  0  0  0
  -23.5880  -31.9870   23.4460 O   0  0  0  0  0  0  0  0  0  0  0  0
  -22.8160  -29.2380   22.4260 C   0  0  0  0  0  0  0  0  0  0  0  0
  -21.4800  -29.1140   22.3070 N   0  0  0  0  0  0  0  0  0  0  0  0
  -23.4550  -28.6310   23.2890 O   0  0  0  0  0  0  0  0  0  0  0  0
  -21.0110  -29.6470   21.5890 H   0  0  0  0  0  0  0  0  0  0  0  0
  -18.0590  -28.0560   22.9090 C   0  0  0  0  0  0  0  0  0  0  0  0
  -20.6320  -28.2340   23.1210 C   0  0  0  0  0  3  0  0  0  0  0  0
  -20.6690  -26.7820   22.5880 C   0  0  0  0  0  2  0  0  0  0  0  0
  -19.5390  -26.4730   21.6010 C   0  0  0  0  0  2  0  0  0  0  0  0
  -18.1750  -26.6850   22.2630 C   0  0  0  0  0  2  0  0  0  0  0  0
  -19.2120  -28.7890   23.2970 C   0  0  0  0  0  0  0  0  0  0  0  0
  -19.0460  -30.0710   23.8660 C   0  0  0  0  0  3  0  0  0  0  0  0
  -17.7610  -30.6170   24.0480 C   0  0  0  0  0  3  0  0  0  0  0  0
  -16.6240  -29.8810   23.6720 C   0  0  0  0  0  3  0  0  0  0  0  0
  -16.7740  -28.6020   23.1090 C   0  0  0  0  0  3  0  0  0  0  0  0
  -25.9360  -32.3560   23.6220 C   0  0  0  0  0  3  0  0  0  0  0  0
  -25.5500  -33.7320   23.9950 N   0  0  0  0  0  0  0  0  0  0  0  0
  -25.8610  -34.8370   23.3040 C   0  0  0  0  0  0  0  0  0  0  0  0
  -26.5590  -34.8080   22.2890 O   0  0  0  0  0  0  0  0  0  0  0  0
  -24.9280  -33.8250   24.7840 H   0  0  0  0  0  0  0  0  0  0  0  0
  -24.0790  -36.5930   23.0000 C   0  0  0  0  0  1  0  0  0  0  0  0
  -25.3150  -36.1860   23.8190 C   0  0  0  0  0  3  0  0  0  0  0  0
  -27.3880  -37.1160   24.7550 C   0  0  0  0  0  1  0  0  0  0  0  0
  -26.3090  -37.2810   23.7830 N   0  0  0  0  0  0  0  0  0  0  0  0
  -25.8620  -38.1770   23.9560 H   0  0  0  0  0  0  0  0  0  0  0  0
  -26.4900  -31.5980   24.8940 C   0  0  1  0  0  0  0  0  0  0  0  0
  -25.4070  -31.2920   25.9550 C   0  0  0  0  0  1  0  0  0  0  0  0
  -27.1460  -30.2560   24.5040 C   0  0  0  0  0  1  0  0  0  0  0  0
  -27.5960  -32.4440   25.5690 C   0  0  0  0  0  1  0  0  0  0  0  0
  5  2  1  0
  7  6  1  0
  8  6  1  0
  8  9  1  0
  9 10  1  0
 10 11  1  0
 11 12  1  0
 13 12  1  0
 14 13  1  0
 15 14  2  0
 16 17  1  0
 16 15  1  0
 18 17  1  0
 18 27  1  0
 18  4  1  0
 19 26  1  0
 19 25  1  0
 20 25  1  0
 21 20  1  0
 21 22  1  0
 23 22  1  0
 23 24  1  0
 25 24  1  0
 27 28  1  0
 29 54  1  0
 30 29  2  0
 30 49  1  0
 31 30  1  0
 32 23  1  0
 32 29  1  0
 33 31  2  0
 33 32  1  0
 34 31  1  0
 34 35  1  0
 35 36  2  0
 37 40  1  0
 37 36  1  0
 38 37  2  0
 39 38  1  0
 39 34  2  0
 40 41  1  0
 41 42  1  0
 42 43  2  0
 44 43  1  0
 44 48  1  0
 45 44  2  0
 46 41  2  0
 46 45  1  0
 47 46  1  0
 49 50  1  0
 50 52  1  0
 50 53  1  0
 51 49  2  0
 54 55  1  0
 54 56  1  0
 57  5  1  0
 59 60  1  0
 61 72  2  0
 62 60  1  0
 62 67  1  0
 63 71  1  0
 63 73  1  0
 64 66  1  0
 65 71  1  0
 66 67  2  0
 66 65  1  0
 68 62  2  0
 69 68  1  0
 69 64  2  0
 70 64  1  0
 70 63  1  0
 71 61  1  0
 73 75  2  0
 74 73  1  0
 76 74  1  0
 77 86  2  0
 77 82  1  0
 78 74  1  0
 78 82  1  0
 79 78  1  0
 80 81  1  0
 80 79  1  0
 81 77  1  0
 82 83  2  0
 83 84  1  0
 85 84  2  0
 86 85  1  0
 87 61  1  0
 87 88  1  0
 87 97  1  0
 88 91  1  0
 89 93  1  0
 89 88  1  0
 90 89  2  0
 93 92  1  0
 95 93  1  0
 95 96  1  0
 95 94  1  0
 97100  1  1
 97 98  1  0
 99 97  1  0
M  ISO  4  19 100  27 100  59 101  60 101
M  END
>  <TORSDO>  (27) 
F 30

>  <SCORE>  (27) 
-2.140

>  <name>  (27) 
27

>  <ligand_id>  (27) 
27

>  <original_smiles>  (27) 
[H]c1c([H])c([H])c2c(c1[H])C([H])([H])C([H])([H])C([H])([H])C2([H])N([H])C(=O)C1([H])N(C(=O)C([H])(N([H])C(=O)C([H])(N([H])C([H])([H])[H])C([H])([H])[H])C(C([H])([H])[H])(C([H])([H])[H])C([H])([H])[H])C([H])([H])c2c([H])c(OC([H])([H])C([H])([H])C([H])([H])N3C([H])([H])C([H])([H])[N+]([H])(C([H])([H])C([H])([H])OC([H])([H])C([H])([H])OC([H])([H])C([H])([H])OC([H])([H])C([H])([H])N([H])C(=O)N4C([H])([H])C([H])([H])C([H])([H])C([H])(n5nc(-c6c([H])c([H])c(Oc7c([H])c([H])c(F)c([H])c7F)c([H])c6[H])c(C(=O)N([H])[H])c5N([H])[H])C4([H])[H])C([H])([H])C3([H])[H])c([H])c([H])c2C1([H])[H]

>  <smiles>  (27) 
[H]c1c([H])c([H])c2c(c1[H])C([H])([H])C([H])([H])C([H])([H])C2([H])N([H])C(=O)C1([H])N(C(=O)C([H])(N([H])C(=O)C([H])(N([H])C([H])([H])[H])C([H])([H])[H])C(C([H])([H])[H])(C([H])([H])[H])C([H])([H])[H])C([H])([H])c2c([H])c(OC([H])([H])C([H])([H])C([H])([H])N3C([H])([H])C([H])([H])[N+]([H])(C([H])([H])C([H])([H])OC([H])([H])C([H])([H])OC([H])([H])C([H])([H])OC([H])([H])C([H])([H])N([H])C(=O)N4C([H])([H])C([H])([H])C([H])([H])C([H])(n5nc(-c6c([H])c([H])c(Oc7c([H])c([H])c(F)c([H])c7F)c([H])c6[H])c(C(=O)N([H])[H])c5N([H])[H])C4([H])[H])C([H])([H])C3([H])[H])c([H])c([H])c2C1([H])[H]

$$$$
28:0:0
     RDKit          3D

104111  0  0  1  0  0  0  0  0999 V2000
  -30.7340  -22.9760   14.8330 C   0  0  0  0  0  2  0  0  0  0  0  0
  -29.3640  -21.6800   16.4820 C   0  0  0  0  0  0  0  0  0  0  0  0
  -29.9260  -22.8110   16.0400 N   0  0  0  0  0  0  0  0  0  0  0  0
  -29.5080  -20.5920   15.9150 O   0  0  0  0  0  0  0  0  0  0  0  0
  -29.7220  -23.6520   16.5610 H   0  0  0  0  0  0  0  0  0  0  0  0
  -28.5090  -21.8100   17.7500 C   0  0  0  0  0  2  0  0  0  0  0  0
  -27.5000  -20.8070   17.7870 O   0  0  0  0  0  0  0  0  0  0  0  0
  -26.6690  -20.9330   18.9350 C   0  0  0  0  0  2  0  0  0  0  0  0
  -25.4620  -19.9930   18.8010 C   0  0  0  0  0  2  0  0  0  0  0  0
  -25.8450  -18.6520   18.5020 O   0  0  0  0  0  0  0  0  0  0  0  0
  -26.2930  -17.8880   19.6170 C   0  0  0  0  0  2  0  0  0  0  0  0
  -27.7580  -17.4670   19.4430 C   0  0  0  0  0  2  0  0  0  0  0  0
  -28.0760  -16.5300   20.4620 O   0  0  0  0  0  0  0  0  0  0  0  0
  -29.4130  -16.0590   20.4100 C   0  0  0  0  0  2  0  0  0  0  0  0
  -29.6320  -15.1190   21.6220 C   0  0  0  0  0  2  0  0  0  0  0  0
  -30.9490  -13.4350   20.3290 C   0  0  0  0  0  0  0  0  0  0  0  0
  -30.1960  -11.8260   18.6250 C   0  0  0  0  0  2  0  0  0  0  0  0
  -29.1810  -12.4670   17.6600 C   0  0  0  0  0  2  0  0  0  0  0  0
  -27.7560  -12.3650   18.2360 C   0  0  0  0  0  2  0  0  0  0  0  0
  -27.6600  -12.8310   19.7120 C   0  0  0  0  0  3  0  0  0  0  0  0
  -28.7670  -12.1630   20.5550 C   0  0  0  0  0  2  0  0  0  0  0  0
  -30.0630  -12.4840   19.9340 N   0  0  0  0  0  0  0  0  0  0  0  0
  -32.0030  -13.6650   19.7370 O   0  0  0  0  0  0  0  0  0  0  0  0
  -30.6960  -14.1210   21.4490 N   0  0  0  0  0  0  0  0  0  0  0  0
  -31.5630  -14.4560   21.8460 H   0  0  0  0  0  0  0  0  0  0  0  0
  -25.3270  -13.5080   20.5800 C   0  0  0  0  0  0  0  0  0  0  0  0
  -24.2560  -12.7630   20.9860 C   0  0  0  0  0  0  0  0  0  0  0  0
  -24.6670  -11.3980   20.8920 C   0  0  0  0  0  0  0  0  0  0  0  0
  -26.3280  -12.5990   20.2660 N   0  0  0  0  0  0  0  0  0  0  0  0
  -25.9340  -11.3240   20.5080 N   0  0  0  0  0  0  0  0  0  0  0  0
  -23.9100  -10.1580   21.0920 C   0  0  0  0  0  0  0  0  0  0  0  0
  -24.3600   -9.1610   21.9850 C   0  0  0  0  0  3  0  0  0  0  0  0
  -23.6120   -7.9780   22.1700 C   0  0  0  0  0  3  0  0  0  0  0  0
  -22.3970   -7.7900   21.4680 C   0  0  0  0  0  0  0  0  0  0  0  0
  -21.9660   -8.7760   20.5640 C   0  0  0  0  0  3  0  0  0  0  0  0
  -22.7150   -9.9500   20.3760 C   0  0  0  0  0  3  0  0  0  0  0  0
  -21.6120   -6.6660   21.5740 O   0  0  0  0  0  0  0  0  0  0  0  0
  -21.5730   -5.9220   22.7260 C   0  0  0  0  0  0  0  0  0  0  0  0
  -21.2800   -6.5020   23.9800 C   0  0  0  0  0  3  0  0  0  0  0  0
  -21.1830   -5.6870   25.1260 C   0  0  0  0  0  3  0  0  0  0  0  0
  -21.3700   -4.2960   25.0200 C   0  0  0  0  0  0  0  0  0  0  0  0
  -21.6590   -3.7170   23.7710 C   0  0  0  0  0  3  0  0  0  0  0  0
  -21.7560   -4.5270   22.6270 C   0  0  0  0  0  0  0  0  0  0  0  0
  -22.0090   -3.9620   21.4220 F   0  0  0  0  0  0  0  0  0  0  0  0
  -21.2690   -3.5140   26.1180 F   0  0  0  0  0  0  0  0  0  0  0  0
  -22.8930  -13.2780   21.3490 C   0  0  0  0  0  0  0  0  0  0  0  0
  -22.2170  -12.6130   22.2780 N   0  0  0  0  0  0  0  0  0  0  0  0
  -22.4400  -14.3040   20.8410 O   0  0  0  0  0  0  0  0  0  0  0  0
  -22.5990  -11.7830   22.7090 H   0  0  0  0  0  0  0  0  0  0  0  0
  -21.3070  -12.9420   22.5680 H   0  0  0  0  0  0  0  0  0  0  0  0
  -25.5300  -14.8770   20.4400 N   0  0  0  0  0  0  0  0  0  0  0  0
  -24.7940  -15.5530   20.6050 H   0  0  0  0  0  0  0  0  0  0  0  0
  -26.3710  -15.2980   20.0490 H   0  0  0  0  0  0  0  0  0  0  0  0
  -32.1510  -22.3710   14.9450 C   0  0  0  0  0  2  0  0  0  0  0  0
  -32.8410  -22.5340   16.3140 C   0  0  0  0  0  2  0  0  0  0  0  0
  -33.0180  -23.9970   16.7650 C   0  0  0  0  0  2  0  0  0  0  0  0
  -33.5070  -24.1460   18.2200 C   0  0  0  0  0  2  0  0  0  0  0  0
  -32.5540  -23.5810   19.2930 C   0  0  0  0  0  2  0  0  0  0  0  0
  -30.7300  -25.2070   19.7840 C   0  0  0  0  0  0  0  0  0  0  0  0
  -31.1940  -24.1090   19.1740 N   0  0  0  0  0  0  0  0  0  0  0  0
  -31.4470  -25.9040   20.5080 O   0  0  0  0  0  0  0  0  0  0  0  0
  -30.5480  -23.5840   18.6020 H   0  0  0  0  0  0  0  0  0  0  0  0
  -29.2530  -25.5690   19.5560 C   0  0  0  0  0  2  0  0  0  0  0  0
  -29.0320  -26.8910   20.0370 O   0  0  0  0  0  0  0  0  0  0  0  0
  -24.6900  -31.5730   23.0950 C   0  0  0  0  0  0  0  0  0  0  0  0
  -27.7710  -27.4430   19.9980 C   0  0  0  0  0  0  0  0  0  0  0  0
  -23.6450  -30.1280   21.3790 C   0  0  0  0  0  3  0  0  0  0  0  0
  -25.2550  -28.7340   19.9720 C   0  0  0  0  0  0  0  0  0  0  0  0
  -26.1380  -30.6820   21.2750 C   0  0  0  0  0  2  0  0  0  0  0  0
  -26.3440  -29.3370   20.6110 C   0  0  0  0  0  0  0  0  0  0  0  0
  -27.5990  -28.6950   20.6240 C   0  0  0  0  0  3  0  0  0  0  0  0
  -26.6600  -26.8380   19.3620 C   0  0  0  0  0  3  0  0  0  0  0  0
  -25.4060  -27.4810   19.3500 C   0  0  0  0  0  3  0  0  0  0  0  0
  -23.9480  -29.4950   19.9920 C   0  0  0  0  0  2  0  0  0  0  0  0
  -24.8400  -30.8090   21.9760 N   0  0  0  0  0  0  0  0  0  0  0  0
  -23.5760  -31.7530   23.6050 O   0  0  0  0  0  0  0  0  0  0  0  0
  -23.0400  -29.0390   22.2920 C   0  0  0  0  0  0  0  0  0  0  0  0
  -21.7320  -28.7860   22.1320 N   0  0  0  0  0  0  0  0  0  0  0  0
  -23.7440  -28.4290   23.0990 O   0  0  0  0  0  0  0  0  0  0  0  0
  -21.2220  -29.3360   21.4540 H   0  0  0  0  0  0  0  0  0  0  0  0
  -18.4230  -27.3870   22.5160 C   0  0  0  0  0  0  0  0  0  0  0  0
  -20.9570  -27.7790   22.8520 C   0  0  0  0  0  3  0  0  0  0  0  0
  -21.1520  -26.3770   22.2290 C   0  0  0  0  0  2  0  0  0  0  0  0
  -20.0890  -26.0290   21.1810 C   0  0  0  0  0  2  0  0  0  0  0  0
  -18.6890  -26.0740   21.8000 C   0  0  0  0  0  2  0  0  0  0  0  0
  -19.4900  -28.1940   22.9960 C   0  0  0  0  0  0  0  0  0  0  0  0
  -19.1880  -29.4240   23.6230 C   0  0  0  0  0  3  0  0  0  0  0  0
  -17.8540  -29.8470   23.7770 C   0  0  0  0  0  3  0  0  0  0  0  0
  -16.8040  -29.0360   23.3150 C   0  0  0  0  0  3  0  0  0  0  0  0
  -17.0880  -27.8090   22.6900 C   0  0  0  0  0  3  0  0  0  0  0  0
  -25.9070  -32.2770   23.7750 C   0  0  0  0  0  3  0  0  0  0  0  0
  -26.4380  -31.5120   25.0500 C   0  0  1  0  0  0  0  0  0  0  0  0
  -25.3320  -31.1810   26.0790 C   0  0  0  0  0  1  0  0  0  0  0  0
  -27.1200  -30.1860   24.6430 C   0  0  0  0  0  1  0  0  0  0  0  0
  -27.5140  -32.3640   25.7620 C   0  0  0  0  0  1  0  0  0  0  0  0
  -25.4910  -33.6420   24.1220 N   0  0  0  0  0  0  0  0  0  0  0  0
  -25.7780  -34.7310   23.3970 C   0  0  0  0  0  0  0  0  0  0  0  0
  -26.4920  -34.6980   22.3920 O   0  0  0  0  0  0  0  0  0  0  0  0
  -24.8570  -33.7370   24.9020 H   0  0  0  0  0  0  0  0  0  0  0  0
  -23.9360  -36.4000   23.0180 C   0  0  0  0  0  1  0  0  0  0  0  0
  -25.1780  -36.0720   23.8630 C   0  0  0  0  0  3  0  0  0  0  0  0
  -27.2170  -37.0890   24.7760 C   0  0  0  0  0  1  0  0  0  0  0  0
  -26.1340  -37.1980   23.8010 N   0  0  0  0  0  0  0  0  0  0  0  0
  -25.6580  -38.0830   23.9540 H   0  0  0  0  0  0  0  0  0  0  0  0
  1 54  1  0
  1  3  1  0
  2  6  1  0
  3  2  1  0
  3  5  1  0
  4  2  2  0
  6  7  1  0
  7  8  1  0
  9  8  1  0
 10  9  1  0
 10 11  1  0
 12 11  1  0
 12 13  1  0
 14 13  1  0
 14 15  1  0
 16 24  1  0
 17 22  1  0
 18 19  1  0
 18 17  1  0
 20 19  1  0
 20 29  1  0
 20 21  1  0
 22 16  1  0
 22 21  1  0
 23 16  2  0
 24 15  1  0
 24 25  1  0
 26 27  2  0
 27 46  1  0
 28 27  1  0
 28 31  1  0
 29 30  1  0
 29 26  1  0
 30 28  2  0
 31 32  1  0
 32 33  2  0
 34 37  1  0
 34 33  1  0
 35 34  2  0
 36 35  1  0
 36 31  2  0
 37 38  1  0
 38 39  1  0
 39 40  2  0
 41 40  1  0
 41 45  1  0
 42 41  2  0
 43 38  2  0
 43 42  1  0
 44 43  1  0
 46 47  1  0
 47 50  1  0
 47 49  1  0
 48 46  2  0
 51 26  1  0
 51 52  1  0
 53 51  1  0
 54 55  1  0
 55 56  1  0
 56 57  1  0
 57 58  1  0
 59 61  2  0
 60 58  1  0
 60 59  1  0
 62 60  1  0
 63 59  1  0
 63 64  1  0
 65 76  2  0
 66 64  1  0
 66 71  1  0
 67 75  1  0
 67 77  1  0
 68 74  1  0
 68 70  1  0
 69 75  1  0
 70 71  2  0
 70 69  1  0
 72 66  2  0
 73 72  1  0
 73 68  2  0
 74 67  1  0
 75 65  1  0
 77 79  2  0
 78 77  1  0
 80 78  1  0
 81 90  2  0
 81 86  1  0
 82 78  1  0
 82 86  1  0
 83 82  1  0
 84 85  1  0
 84 83  1  0
 85 81  1  0
 86 87  2  0
 87 88  1  0
 89 88  2  0
 90 89  1  0
 91 65  1  0
 91 96  1  0
 91 92  1  0
 92 95  1  1
 92 93  1  0
 94 92  1  0
 96 99  1  0
 97101  1  0
 97 96  1  0
 98 97  2  0
101100  1  0
103101  1  0
103104  1  0
103102  1  0
M  ISO  4  16 100  24 100  63 101  64 101
M  END
>  <TORSDO>  (28) 
F 34

>  <SCORE>  (28) 
-8.029

>  <name>  (28) 
28

>  <ligand_id>  (28) 
28

>  <original_smiles>  (28) 
[H]c1c([H])c([H])c2c(c1[H])C([H])([H])C([H])([H])C([H])([H])C2([H])N([H])C(=O)C1([H])N(C(=O)C([H])(N([H])C(=O)C([H])(N([H])C([H])([H])[H])C([H])([H])[H])C(C([H])([H])[H])(C([H])([H])[H])C([H])([H])[H])C([H])([H])c2c([H])c(OC([H])([H])C(=O)N([H])C([H])([H])C([H])([H])C([H])([H])C([H])([H])C([H])([H])C([H])([H])N([H])C(=O)C([H])([H])OC([H])([H])C([H])([H])OC([H])([H])C([H])([H])OC([H])([H])C([H])([H])N([H])C(=O)N3C([H])([H])C([H])([H])C([H])([H])C([H])(n4nc(-c5c([H])c([H])c(Oc6c([H])c([H])c(F)c([H])c6F)c([H])c5[H])c(C(=O)N([H])[H])c4N([H])[H])C3([H])[H])c([H])c([H])c2C1([H])[H]

>  <smiles>  (28) 
[H]c1c([H])c([H])c2c(c1[H])C([H])([H])C([H])([H])C([H])([H])C2([H])N([H])C(=O)C1([H])N(C(=O)C([H])(N([H])C(=O)C([H])(N([H])C([H])([H])[H])C([H])([H])[H])C(C([H])([H])[H])(C([H])([H])[H])C([H])([H])[H])C([H])([H])c2c([H])c(OC([H])([H])C(=O)N([H])C([H])([H])C([H])([H])C([H])([H])C([H])([H])C([H])([H])C([H])([H])N([H])C(=O)C([H])([H])OC([H])([H])C([H])([H])OC([H])([H])C([H])([H])OC([H])([H])C([H])([H])N([H])C(=O)N3C([H])([H])C([H])([H])C([H])([H])C([H])(n4nc(-c5c([H])c([H])c(Oc6c([H])c([H])c(F)c([H])c6F)c([H])c5[H])c(C(=O)N([H])[H])c4N([H])[H])C3([H])[H])c([H])c([H])c2C1([H])[H]

$$$$
29:0:0
     RDKit          3D

111119  0  0  1  0  0  0  0  0999 V2000
  -28.8680  -20.2730   22.6190 C   0  0  0  0  0  1  0  0  0  0  0  0
  -30.1180  -20.0890   23.5040 C   0  0  0  0  0  3  0  0  0  0  0  0
  -31.5500  -20.3220   22.9250 C   0  0  0  0  0  0  0  0  0  0  0  0
  -33.2780  -21.5930   19.8990 C   0  0  0  0  0  2  0  0  0  0  0  0
  -32.0780  -20.8880   19.2890 C   0  0  0  0  0  2  0  0  0  0  0  0
  -33.2690  -21.0490   21.3250 C   0  0  0  0  0  2  0  0  0  0  0  0
  -31.0340  -20.8460   20.4350 C   0  0  0  0  0  3  0  0  0  0  0  0
  -31.8580  -20.7620   21.6690 N   0  0  0  0  0  0  0  0  0  0  0  0
  -32.4730  -20.1100   23.7240 O   0  0  0  0  0  0  0  0  0  0  0  0
  -30.1380  -22.0880   20.2410 C   0  0  0  0  0  0  0  0  0  0  0  0
  -30.2430  -23.1410   21.0630 N   0  0  0  0  0  0  0  0  0  0  0  0
  -29.3760  -22.1040   19.2730 O   0  0  0  0  0  0  0  0  0  0  0  0
  -30.8210  -23.0500   21.8880 H   0  0  0  0  0  0  0  0  0  0  0  0
  -29.9800  -24.5130   20.6140 C   0  0  0  0  0  2  0  0  0  0  0  0
  -28.5480  -24.9000   20.1950 C   0  0  0  0  0  2  0  0  0  0  0  0
  -28.6930  -26.2570   19.7630 O   0  0  0  0  0  0  0  0  0  0  0  0
  -25.2040  -31.2260   23.4410 C   0  0  0  0  0  0  0  0  0  0  0  0
  -27.5750  -27.0400   19.8520 C   0  0  0  0  0  0  0  0  0  0  0  0
  -23.9300  -30.1120   21.6400 C   0  0  0  0  0  3  0  0  0  0  0  0
  -25.2880  -28.6770   20.0400 C   0  0  0  0  0  0  0  0  0  0  0  0
  -26.4740  -30.3420   21.4840 C   0  0  0  0  0  2  0  0  0  0  0  0
  -26.4750  -29.0570   20.6830 C   0  0  0  0  0  0  0  0  0  0  0  0
  -27.6250  -28.2500   20.5790 C   0  0  0  0  0  3  0  0  0  0  0  0
  -26.3720  -26.6650   19.2120 C   0  0  0  0  0  3  0  0  0  0  0  0
  -25.2340  -27.4850   19.2990 C   0  0  0  0  0  3  0  0  0  0  0  0
  -24.1040  -29.6010   20.1890 C   0  0  0  0  0  2  0  0  0  0  0  0
  -25.2230  -30.5670   22.2480 N   0  0  0  0  0  0  0  0  0  0  0  0
  -24.1370  -31.4970   24.0070 O   0  0  0  0  0  0  0  0  0  0  0  0
  -23.2130  -29.0190   22.4650 C   0  0  0  0  0  0  0  0  0  0  0  0
  -21.8910  -28.9030   22.2770 N   0  0  0  0  0  0  0  0  0  0  0  0
  -23.8470  -28.2880   23.2290 O   0  0  0  0  0  0  0  0  0  0  0  0
  -21.4470  -29.5490   21.6380 H   0  0  0  0  0  0  0  0  0  0  0  0
  -18.4690  -27.7590   22.4740 C   0  0  0  0  0  0  0  0  0  0  0  0
  -21.0090  -27.9250   22.9150 C   0  0  0  0  0  3  0  0  0  0  0  0
  -21.1170  -26.5470   22.2260 C   0  0  0  0  0  2  0  0  0  0  0  0
  -20.0700  -26.3380   21.1250 C   0  0  0  0  0  2  0  0  0  0  0  0
  -18.6570  -26.4650   21.7000 C   0  0  0  0  0  2  0  0  0  0  0  0
  -19.5750  -28.4510   23.0320 C   0  0  0  0  0  0  0  0  0  0  0  0
  -19.3470  -29.6650   23.7150 C   0  0  0  0  0  3  0  0  0  0  0  0
  -18.0460  -30.1870   23.8450 C   0  0  0  0  0  3  0  0  0  0  0  0
  -16.9530  -29.4860   23.3080 C   0  0  0  0  0  3  0  0  0  0  0  0
  -17.1640  -28.2750   22.6280 C   0  0  0  0  0  3  0  0  0  0  0  0
  -26.5210  -31.6940   24.1350 C   0  0  0  0  0  3  0  0  0  0  0  0
  -26.2940  -33.0540   24.6420 N   0  0  0  0  0  0  0  0  0  0  0  0
  -26.7020  -34.1720   24.0270 C   0  0  0  0  0  0  0  0  0  0  0  0
  -27.3820  -34.1610   22.9980 O   0  0  0  0  0  0  0  0  0  0  0  0
  -25.6900  -33.1440   25.4450 H   0  0  0  0  0  0  0  0  0  0  0  0
  -25.0840  -36.0950   23.8990 C   0  0  0  0  0  1  0  0  0  0  0  0
  -26.2910  -35.5190   24.6560 C   0  0  0  0  0  3  0  0  0  0  0  0
  -28.4660  -36.1640   25.5980 C   0  0  0  0  0  1  0  0  0  0  0  0
  -27.3850  -36.5140   24.6790 N   0  0  0  0  0  0  0  0  0  0  0  0
  -27.0320  -37.4320   24.9380 H   0  0  0  0  0  0  0  0  0  0  0  0
  -26.9850  -30.7340   25.2970 C   0  0  1  0  0  0  0  0  0  0  0  0
  -25.8740  -30.4280   26.3280 C   0  0  0  0  0  1  0  0  0  0  0  0
  -27.4830  -29.3840   24.7250 C   0  0  0  0  0  1  0  0  0  0  0  0
  -28.1870  -31.3610   26.0500 C   0  0  0  0  0  1  0  0  0  0  0  0
  -30.0790  -18.7540   24.1560 N   0  0  0  0  0  4  0  0  0  0  0  0
  -29.5690  -18.1070   23.5790 H   0  0  0  0  0  0  0  0  0  0  0  0
  -31.0430  -18.4550   24.1960 H   0  0  0  0  0  0  0  0  0  0  0  0
  -29.5700  -18.7010   25.5520 C   0  0  0  0  0  2  0  0  0  0  0  0
  -28.2970  -17.8520   25.6990 C   0  0  0  0  0  2  0  0  0  0  0  0
  -27.3730  -18.2060   24.6790 O   0  0  0  0  0  0  0  0  0  0  0  0
  -26.3310  -17.2450   24.5400 C   0  0  0  0  0  2  0  0  0  0  0  0
  -25.6170  -17.4980   23.2050 C   0  0  0  0  0  2  0  0  0  0  0  0
  -26.4800  -17.0050   22.1890 O   0  0  0  0  0  0  0  0  0  0  0  0
  -26.3080  -17.6220   20.9230 C   0  0  0  0  0  2  0  0  0  0  0  0
  -27.0670  -16.7790   19.8940 C   0  0  0  0  0  2  0  0  0  0  0  0
  -28.4720  -16.8280   20.1170 O   0  0  0  0  0  0  0  0  0  0  0  0
  -29.1360  -15.9140   19.2520 C   0  0  0  0  0  2  0  0  0  0  0  0
  -30.6520  -15.9040   19.4730 C   0  0  0  0  0  2  0  0  0  0  0  0
  -30.9780  -15.0430   20.5610 O   0  0  0  0  0  0  0  0  0  0  0  0
  -32.3830  -14.9190   20.7380 C   0  0  0  0  0  2  0  0  0  0  0  0
  -32.6990  -13.9890   21.9240 C   0  0  0  0  0  2  0  0  0  0  0  0
  -32.3740  -11.6220   21.1860 C   0  0  0  0  0  0  0  0  0  0  0  0
  -31.5530   -9.6090   20.0220 C   0  0  0  0  0  2  0  0  0  0  0  0
  -30.8030  -10.0320   18.7420 C   0  0  0  0  0  2  0  0  0  0  0  0
  -29.3280  -10.3540   19.0570 C   0  0  0  0  0  2  0  0  0  0  0  0
  -29.1650  -11.3050   20.2750 C   0  0  0  0  0  3  0  0  0  0  0  0
  -30.0110  -10.8090   21.4690 C   0  0  0  0  0  2  0  0  0  0  0  0
  -31.4050  -10.6870   21.0110 N   0  0  0  0  0  0  0  0  0  0  0  0
  -33.5110  -11.5190   20.7270 O   0  0  0  0  0  0  0  0  0  0  0  0
  -31.9650  -12.7280   21.8160 N   0  0  0  0  0  0  0  0  0  0  0  0
  -31.0110  -12.7190   22.1390 H   0  0  0  0  0  0  0  0  0  0  0  0
  -27.0140  -12.6270   20.7800 C   0  0  0  0  0  0  0  0  0  0  0  0
  -25.7360  -12.2270   21.0640 C   0  0  0  0  0  0  0  0  0  0  0  0
  -25.7680  -10.8000   21.0740 C   0  0  0  0  0  0  0  0  0  0  0  0
  -27.7590  -11.4660   20.6420 N   0  0  0  0  0  0  0  0  0  0  0  0
  -27.0050  -10.3630   20.8700 N   0  0  0  0  0  0  0  0  0  0  0  0
  -24.6840   -9.8210   21.2050 C   0  0  0  0  0  0  0  0  0  0  0  0
  -24.7300   -8.7910   22.1690 C   0  0  0  0  0  3  0  0  0  0  0  0
  -23.6650   -7.8740   22.2870 C   0  0  0  0  0  3  0  0  0  0  0  0
  -22.5350   -7.9840   21.4420 C   0  0  0  0  0  0  0  0  0  0  0  0
  -22.5060   -8.9990   20.4680 C   0  0  0  0  0  3  0  0  0  0  0  0
  -23.5710   -9.9070   20.3460 C   0  0  0  0  0  3  0  0  0  0  0  0
  -21.4670   -7.1230   21.4670 O   0  0  0  0  0  0  0  0  0  0  0  0
  -21.0950   -6.4740   22.6190 C   0  0  0  0  0  0  0  0  0  0  0  0
  -20.7680   -7.1800   23.7970 C   0  0  0  0  0  3  0  0  0  0  0  0
  -20.3220   -6.4780   24.9350 C   0  0  0  0  0  3  0  0  0  0  0  0
  -20.1950   -5.0780   24.8940 C   0  0  0  0  0  0  0  0  0  0  0  0
  -20.5180   -4.3730   23.7210 C   0  0  0  0  0  3  0  0  0  0  0  0
  -20.9630   -5.0710   22.5840 C   0  0  0  0  0  0  0  0  0  0  0  0
  -21.2530   -4.3910   21.4480 F   0  0  0  0  0  0  0  0  0  0  0  0
  -19.7590   -4.4040   25.9860 F   0  0  0  0  0  0  0  0  0  0  0  0
  -24.5360  -13.1150   21.2240 C   0  0  0  0  0  0  0  0  0  0  0  0
  -23.5720  -12.6970   22.0410 N   0  0  0  0  0  0  0  0  0  0  0  0
  -24.4690  -14.2070   20.6640 O   0  0  0  0  0  0  0  0  0  0  0  0
  -23.6340  -11.8080   22.5160 H   0  0  0  0  0  0  0  0  0  0  0  0
  -22.7590  -13.2740   22.1960 H   0  0  0  0  0  0  0  0  0  0  0  0
  -27.6020  -13.8690   20.6090 N   0  0  0  0  0  0  0  0  0  0  0  0
  -27.0750  -14.7260   20.6920 H   0  0  0  0  0  0  0  0  0  0  0  0
  -28.5870  -14.0210   20.4280 H   0  0  0  0  0  0  0  0  0  0  0  0
  2  1  1  0
  2 57  1  0
  3  2  1  0
  3  9  2  0
  4  6  1  0
  5  4  1  0
  5  7  1  0
  6  8  1  0
  7 10  1  0
  7  8  1  0
  8  3  1  0
 10 11  1  0
 11 13  1  0
 12 10  2  0
 14 11  1  0
 15 14  1  0
 16 18  1  0
 16 15  1  0
 17 28  2  0
 18 23  1  0
 19 27  1  0
 19 29  1  0
 20 26  1  0
 20 22  1  0
 21 27  1  0
 22 21  1  0
 23 22  2  0
 24 25  1  0
 24 18  2  0
 25 20  2  0
 26 19  1  0
 27 17  1  0
 29 31  2  0
 30 29  1  0
 32 30  1  0
 33 42  2  0
 33 38  1  0
 34 30  1  0
 34 38  1  0
 35 34  1  0
 36 37  1  0
 36 35  1  0
 37 33  1  0
 38 39  2  0
 39 40  1  0
 41 40  2  0
 42 41  1  0
 43 17  1  0
 43 44  1  0
 43 53  1  0
 44 47  1  0
 45 44  1  0
 45 49  1  0
 46 45  2  0
 49 48  1  0
 49 51  1  0
 51 52  1  0
 51 50  1  0
 53 56  1  1
 53 54  1  0
 55 53  1  0
 57 59  1  0
 57 60  1  0
 58 57  1  0
 60 61  1  0
 62 61  1  0
 63 62  1  0
 64 63  1  0
 65 64  1  0
 66 65  1  0
 67 68  1  0
 67 66  1  0
 69 70  1  0
 69 68  1  0
 70 71  1  0
 71 72  1  0
 72 73  1  0
 74 82  1  0
 75 80  1  0
 76 77  1  0
 76 75  1  0
 78 77  1  0
 78 87  1  0
 78 79  1  0
 80 74  1  0
 80 79  1  0
 81 74  2  0
 82 73  1  0
 82 83  1  0
 84 85  2  0
 85 86  1  0
 85104  1  0
 86 89  1  0
 87 84  1  0
 87 88  1  0
 88 86  2  0
 89 90  1  0
 90 91  2  0
 92 95  1  0
 92 91  1  0
 93 92  2  0
 94 93  1  0
 94 89  2  0
 95 96  1  0
 96 97  1  0
 97 98  2  0
 99 98  1  0
 99103  1  0
100 99  2  0
101 96  2  0
101100  1  0
102101  1  0
104105  1  0
105108  1  0
105107  1  0
106104  2  0
109110  1  0
109 84  1  0
111109  1  0
M  ISO  4  15 101  16 101  74 100  82 100
M  END
>  <TORSDO>  (29) 
F 35

>  <SCORE>  (29) 
21.369

>  <name>  (29) 
29

>  <ligand_id>  (29) 
29

>  <original_smiles>  (29) 
[H]c1c([H])c([H])c2c(c1[H])C([H])([H])C([H])([H])C([H])([H])C2([H])N([H])C(=O)C1([H])N(C(=O)C([H])(N([H])C(=O)C([H])(N([H])C([H])([H])[H])C([H])([H])[H])C(C([H])([H])[H])(C([H])([H])[H])C([H])([H])[H])C([H])([H])c2c([H])c(OC([H])([H])C([H])([H])N([H])C(=O)C3([H])N(C(=O)C([H])(C([H])([H])[H])[N+]([H])([H])C([H])([H])C([H])([H])OC([H])([H])C([H])([H])OC([H])([H])C([H])([H])OC([H])([H])C([H])([H])OC([H])([H])C([H])([H])N([H])C(=O)N4C([H])([H])C([H])([H])C([H])([H])C([H])(n5nc(-c6c([H])c([H])c(Oc7c([H])c([H])c(F)c([H])c7F)c([H])c6[H])c(C(=O)N([H])[H])c5N([H])[H])C4([H])[H])C([H])([H])C([H])([H])C3([H])[H])c([H])c([H])c2C1([H])[H]

>  <smiles>  (29) 
[H]c1c([H])c([H])c2c(c1[H])C([H])([H])C([H])([H])C([H])([H])C2([H])N([H])C(=O)C1([H])N(C(=O)C([H])(N([H])C(=O)C([H])(N([H])C([H])([H])[H])C([H])([H])[H])C(C([H])([H])[H])(C([H])([H])[H])C([H])([H])[H])C([H])([H])c2c([H])c(OC([H])([H])C([H])([H])N([H])C(=O)C3([H])N(C(=O)C([H])(C([H])([H])[H])[N+]([H])([H])C([H])([H])C([H])([H])OC([H])([H])C([H])([H])OC([H])([H])C([H])([H])OC([H])([H])C([H])([H])OC([H])([H])C([H])([H])N([H])C(=O)N4C([H])([H])C([H])([H])C([H])([H])C([H])(n5nc(-c6c([H])c([H])c(Oc7c([H])c([H])c(F)c([H])c7F)c([H])c6[H])c(C(=O)N([H])[H])c5N([H])[H])C4([H])[H])C([H])([H])C([H])([H])C3([H])[H])c([H])c([H])c2C1([H])[H]

$$$$
30:0:0
     RDKit          3D

113122  0  0  1  0  0  0  0  0999 V2000
  -31.8040  -26.5650   25.2830 C   0  0  0  0  0  2  0  0  0  0  0  0
  -32.7370  -25.9010   24.2630 C   0  0  0  0  0  0  0  0  0  0  0  0
  -32.1520  -25.5010   23.1300 N   0  0  0  0  0  0  0  0  0  0  0  0
  -33.9390  -25.7570   24.4980 O   0  0  0  0  0  0  0  0  0  0  0  0
  -31.1560  -25.6580   23.0730 H   0  0  0  0  0  0  0  0  0  0  0  0
  -32.7920  -24.8770   21.9800 C   0  0  0  0  0  2  0  0  0  0  0  0
  -31.9410  -23.6930   21.4930 C   0  0  0  0  0  2  0  0  0  0  0  0
  -32.3830  -23.1260   20.1370 C   0  0  0  0  0  2  0  0  0  0  0  0
  -31.9710  -23.9950   18.9350 C   0  0  0  0  0  3  0  0  0  0  0  0
  -30.4810  -23.8730   18.5830 C   0  0  1  0  0  0  0  0  0  0  0  0
  -30.0440  -24.8620   17.4900 C   0  0  0  0  0  2  0  0  0  0  0  0
  -30.5470  -27.2790   17.9670 C   0  0  0  0  0  0  0  0  0  0  0  0
  -29.7980  -26.1770   18.0650 N   0  0  0  0  0  0  0  0  0  0  0  0
  -31.5680  -27.3470   17.2800 O   0  0  0  0  0  0  0  0  0  0  0  0
  -28.9980  -26.2690   18.6790 H   0  0  0  0  0  0  0  0  0  0  0  0
  -30.0560  -28.4810   18.7850 C   0  0  0  0  0  2  0  0  0  0  0  0
  -29.2360  -27.9890   19.8470 O   0  0  0  0  0  0  0  0  0  0  0  0
  -25.3720  -32.4780   23.7410 C   0  0  0  0  0  0  0  0  0  0  0  0
  -28.0410  -28.6360   19.9960 C   0  0  0  0  0  0  0  0  0  0  0  0
  -24.1370  -31.2200   22.0040 C   0  0  0  0  0  3  0  0  0  0  0  0
  -25.5770  -29.9510   20.3270 C   0  0  0  0  0  0  0  0  0  0  0  0
  -26.6150  -31.7590   21.7060 C   0  0  0  0  0  2  0  0  0  0  0  0
  -26.7350  -30.4790   20.9090 C   0  0  0  0  0  0  0  0  0  0  0  0
  -27.9700  -29.8190   20.7570 C   0  0  0  0  0  3  0  0  0  0  0  0
  -26.8700  -28.0970   19.4280 C   0  0  0  0  0  3  0  0  0  0  0  0
  -25.6340  -28.7490   19.5940 C   0  0  0  0  0  3  0  0  0  0  0  0
  -24.2960  -30.7250   20.5400 C   0  0  0  0  0  2  0  0  0  0  0  0
  -25.3970  -31.8260   22.5440 N   0  0  0  0  0  0  0  0  0  0  0  0
  -24.3150  -32.6190   24.3700 O   0  0  0  0  0  0  0  0  0  0  0  0
  -23.5980  -30.0540   22.8610 C   0  0  0  0  0  0  0  0  0  0  0  0
  -22.2770  -29.8260   22.7940 N   0  0  0  0  0  0  0  0  0  0  0  0
  -24.3630  -29.3640   23.5420 O   0  0  0  0  0  0  0  0  0  0  0  0
  -21.7160  -30.4440   22.2240 H   0  0  0  0  0  0  0  0  0  0  0  0
  -18.9970  -28.4100   23.3360 C   0  0  0  0  0  0  0  0  0  0  0  0
  -21.5530  -28.7580   23.4850 C   0  0  0  0  0  3  0  0  0  0  0  0
  -21.6770  -27.4160   22.7290 C   0  0  0  0  0  2  0  0  0  0  0  0
  -20.5270  -27.1690   21.7480 C   0  0  0  0  0  2  0  0  0  0  0  0
  -19.1870  -27.1640   22.4860 C   0  0  0  0  0  2  0  0  0  0  0  0
  -20.1090  -29.1660   23.7920 C   0  0  0  0  0  0  0  0  0  0  0  0
  -19.8770  -30.3340   24.5510 C   0  0  0  0  0  3  0  0  0  0  0  0
  -18.5670  -30.7490   24.8530 C   0  0  0  0  0  3  0  0  0  0  0  0
  -17.4700  -29.9890   24.4100 C   0  0  0  0  0  3  0  0  0  0  0  0
  -17.6870  -28.8200   23.6590 C   0  0  0  0  0  3  0  0  0  0  0  0
  -26.6630  -33.0960   24.3620 C   0  0  0  0  0  3  0  0  0  0  0  0
  -26.3090  -34.4260   24.8820 N   0  0  0  0  0  0  0  0  0  0  0  0
  -26.5490  -35.5780   24.2410 C   0  0  0  0  0  0  0  0  0  0  0  0
  -27.1630  -35.6370   23.1730 O   0  0  0  0  0  0  0  0  0  0  0  0
  -25.7490  -34.4500   25.7210 H   0  0  0  0  0  0  0  0  0  0  0  0
  -24.7150  -37.2960   24.2080 C   0  0  0  0  0  1  0  0  0  0  0  0
  -26.0240  -36.8710   24.8900 C   0  0  0  0  0  3  0  0  0  0  0  0
  -28.1680  -37.7630   25.6900 C   0  0  0  0  0  1  0  0  0  0  0  0
  -26.9950  -37.9860   24.8490 N   0  0  0  0  0  0  0  0  0  0  0  0
  -26.5560  -38.8550   25.1440 H   0  0  0  0  0  0  0  0  0  0  0  0
  -27.3020  -32.1990   25.4940 C   0  0  1  0  0  0  0  0  0  0  0  0
  -26.2960  -31.7690   26.5860 C   0  0  0  0  0  1  0  0  0  0  0  0
  -27.9170  -30.9160   24.8850 C   0  0  0  0  0  1  0  0  0  0  0  0
  -28.4610  -32.9610   26.1770 C   0  0  0  0  0  1  0  0  0  0  0  0
  -30.7360  -25.6770   25.6170 O   0  0  0  0  0  0  0  0  0  0  0  0
  -31.1000  -24.7250   26.6110 C   0  0  0  0  0  2  0  0  0  0  0  0
  -30.1150  -23.5390   26.6600 C   0  0  0  0  0  2  0  0  0  0  0  0
  -30.4730  -22.4910   25.7600 O   0  0  0  0  0  0  0  0  0  0  0  0
  -30.5740  -22.8570   24.3880 C   0  0  0  0  0  2  0  0  0  0  0  0
  -29.1960  -23.0650   23.7300 C   0  0  0  0  0  2  0  0  0  0  0  0
  -28.5450  -24.2660   24.1410 O   0  0  0  0  0  0  0  0  0  0  0  0
  -29.1860  -25.4670   23.7180 C   0  0  0  0  0  2  0  0  0  0  0  0
  -28.3640  -26.1900   22.6360 C   0  0  0  0  0  2  0  0  0  0  0  0
  -28.6770  -25.7270   21.3230 O   0  0  0  0  0  0  0  0  0  0  0  0
  -27.8070  -24.6920   20.8700 C   0  0  0  0  0  2  0  0  0  0  0  0
  -28.0790  -24.3620   19.3940 C   0  0  0  0  0  1  0  0  0  0  0  0
  -29.3860  -23.8090   19.2660 O   0  0  0  0  0  0  0  0  0  0  0  0
  -29.7360  -23.4470   17.9330 C   0  0  0  0  0  3  0  0  0  0  0  0
  -31.2560  -23.6200   17.7540 C   0  0  0  0  0  3  0  0  0  0  0  0
  -31.9390  -22.3690   17.7040 O   0  0  0  0  0  0  0  0  0  0  0  0
  -33.3510  -22.5220   17.8250 C   0  0  0  0  0  2  0  0  0  0  0  0
  -34.0710  -21.1910   17.5380 C   0  0  0  0  0  2  0  0  0  0  0  0
  -35.0170  -20.8140   15.2500 C   0  0  0  0  0  0  0  0  0  0  0  0
  -35.6820  -20.4800   12.8940 C   0  0  0  0  0  2  0  0  0  0  0  0
  -35.3890  -21.7440   12.0650 C   0  0  0  0  0  2  0  0  0  0  0  0
  -33.9410  -21.7090   11.5360 C   0  0  0  0  0  2  0  0  0  0  0  0
  -32.9080  -21.4010   12.6520 C   0  0  0  0  0  3  0  0  0  0  0  0
  -33.3380  -20.1700   13.4800 C   0  0  0  0  0  2  0  0  0  0  0  0
  -34.7010  -20.4100   13.9910 N   0  0  0  0  0  0  0  0  0  0  0  0
  -36.1490  -21.1600   15.5900 O   0  0  0  0  0  0  0  0  0  0  0  0
  -34.0000  -20.8140   16.1250 N   0  0  0  0  0  0  0  0  0  0  0  0
  -33.0980  -20.5360   15.7740 H   0  0  0  0  0  0  0  0  0  0  0  0
  -30.3870  -21.8740   12.4430 C   0  0  0  0  0  0  0  0  0  0  0  0
  -29.4410  -21.4070   11.5730 C   0  0  0  0  0  0  0  0  0  0  0  0
  -30.1130  -20.4840   10.7130 C   0  0  0  0  0  0  0  0  0  0  0  0
  -31.5670  -21.2360   12.0990 N   0  0  0  0  0  0  0  0  0  0  0  0
  -31.3800  -20.3540   11.0830 N   0  0  0  0  0  0  0  0  0  0  0  0
  -29.6390  -19.7610    9.5280 C   0  0  0  0  0  0  0  0  0  0  0  0
  -29.8250  -18.3670    9.3910 C   0  0  0  0  0  3  0  0  0  0  0  0
  -29.3420  -17.6890    8.2510 C   0  0  0  0  0  3  0  0  0  0  0  0
  -28.6610  -18.4030    7.2360 C   0  0  0  0  0  0  0  0  0  0  0  0
  -28.4970  -19.7940    7.3680 C   0  0  0  0  0  3  0  0  0  0  0  0
  -28.9830  -20.4680    8.5000 C   0  0  0  0  0  3  0  0  0  0  0  0
  -28.1820  -17.8330    6.0810 O   0  0  0  0  0  0  0  0  0  0  0  0
  -27.8500  -16.5020    6.0210 C   0  0  0  0  0  0  0  0  0  0  0  0
  -26.9190  -15.9240    6.9110 C   0  0  0  0  0  3  0  0  0  0  0  0
  -26.5550  -14.5710    6.7690 C   0  0  0  0  0  3  0  0  0  0  0  0
  -27.1120  -13.7970    5.7330 C   0  0  0  0  0  0  0  0  0  0  0  0
  -28.0360  -14.3710    4.8420 C   0  0  0  0  0  3  0  0  0  0  0  0
  -28.4020  -15.7210    4.9860 C   0  0  0  0  0  0  0  0  0  0  0  0
  -29.2770  -16.2770    4.1120 F   0  0  0  0  0  0  0  0  0  0  0  0
  -26.7560  -12.4980    5.5900 F   0  0  0  0  0  0  0  0  0  0  0  0
  -28.0110  -21.8570   11.4780 C   0  0  0  0  0  0  0  0  0  0  0  0
  -27.1170  -20.9700   11.0600 N   0  0  0  0  0  0  0  0  0  0  0  0
  -27.6720  -22.9880   11.8250 O   0  0  0  0  0  0  0  0  0  0  0  0
  -27.3940  -20.0400   10.7840 H   0  0  0  0  0  0  0  0  0  0  0  0
  -26.1410  -21.2230   11.0090 H   0  0  0  0  0  0  0  0  0  0  0  0
  -30.3520  -22.8040   13.4800 N   0  0  0  0  0  0  0  0  0  0  0  0
  -29.5060  -23.3070   13.7230 H   0  0  0  0  0  0  0  0  0  0  0  0
  -31.1560  -23.0770   14.0300 H   0  0  0  0  0  0  0  0  0  0  0  0
  1 58  1  0
  2  4  2  0
  2  1  1  0
  3  2  1  0
  5  3  1  0
  6  3  1  0
  7  6  1  0
  8  7  1  0
  9  8  1  0
 10  9  1  0
 10 70  1  6
 11 13  1  0
 12 13  1  0
 12 16  1  0
 13 15  1  0
 14 12  2  0
 16 17  1  0
 17 19  1  0
 18 29  2  0
 19 24  1  0
 20 28  1  0
 20 30  1  0
 21 27  1  0
 21 23  1  0
 22 28  1  0
 23 22  1  0
 24 23  2  0
 25 26  1  0
 25 19  2  0
 26 21  2  0
 27 20  1  0
 28 18  1  0
 30 32  2  0
 31 30  1  0
 33 31  1  0
 34 43  2  0
 34 39  1  0
 35 31  1  0
 35 39  1  0
 36 35  1  0
 37 38  1  0
 37 36  1  0
 38 34  1  0
 39 40  2  0
 40 41  1  0
 42 41  2  0
 43 42  1  0
 44 18  1  0
 44 45  1  0
 44 54  1  0
 45 48  1  0
 46 45  1  0
 46 50  1  0
 47 46  2  0
 50 49  1  0
 52 50  1  0
 52 53  1  0
 52 51  1  0
 54 57  1  1
 54 55  1  0
 56 54  1  0
 58 59  1  0
 59 60  1  0
 61 60  1  0
 62 61  1  0
 63 64  1  0
 63 62  1  0
 65 64  1  0
 66 65  1  0
 67 66  1  0
 68 67  1  0
 69 68  1  0
 71 11  1  0
 71 10  1  0
 71 70  1  0
 72 73  1  0
 72 10  1  0
 72  9  1  0
 73 74  1  0
 75 74  1  0
 76 83  2  0
 76 84  1  0
 77 82  1  0
 78 77  1  0
 79 78  1  0
 80 79  1  0
 80 81  1  0
 81 82  1  0
 82 76  1  0
 84 75  1  0
 85 84  1  0
 86111  1  0
 87 86  2  0
 88 90  2  0
 88 87  1  0
 89 86  1  0
 89 80  1  0
 90 89  1  0
 91 88  1  0
 92 91  1  0
 93 92  2  0
 94 95  2  0
 94 93  1  0
 95 96  1  0
 96 91  2  0
 97 94  1  0
 98 97  1  0
 98 99  1  0
100 99  2  0
101100  1  0
102103  1  0
102101  2  0
103 98  2  0
104103  1  0
105101  1  0
106 87  1  0
106108  2  0
107106  1  0
109107  1  0
110107  1  0
111112  1  0
111113  1  0
M  ISO  4  16 101  17 101  76 100  84 100
M  END
>  <TORSDO>  (30) 
F 43

>  <SCORE>  (30) 
24.798

>  <name>  (30) 
30

>  <ligand_id>  (30) 
30

>  <original_smiles>  (30) 
[H]c1c([H])c([H])c2c(c1[H])C([H])([H])C([H])([H])C([H])([H])C2([H])N([H])C(=O)C1([H])N(C(=O)C([H])(N([H])C(=O)C([H])(N([H])C([H])([H])[H])C([H])([H])[H])C(C([H])([H])[H])(C([H])([H])[H])C([H])([H])[H])C([H])([H])c2c([H])c(OC([H])([H])C(=O)N([H])C([H])([H])C([H])([H])C([H])([H])C([H])([H])C([H])([H])C([H])([H])N([H])C(=O)C([H])([H])OC([H])([H])C([H])([H])OC([H])([H])C([H])([H])OC([H])([H])C([H])([H])OC([H])([H])C([H])([H])OC([H])([H])C([H])([H])OC([H])([H])C([H])([H])N([H])C(=O)N3C([H])([H])C([H])([H])C([H])([H])C([H])(n4nc(-c5c([H])c([H])c(Oc6c([H])c([H])c(F)c([H])c6F)c([H])c5[H])c(C(=O)N([H])[H])c4N([H])[H])C3([H])[H])c([H])c([H])c2C1([H])[H]

>  <smiles>  (30) 
[H]c1c([H])c([H])c2c(c1[H])C([H])([H])C([H])([H])C([H])([H])C2([H])N([H])C(=O)C1([H])N(C(=O)C([H])(N([H])C(=O)C([H])(N([H])C([H])([H])[H])C([H])([H])[H])C(C([H])([H])[H])(C([H])([H])[H])C([H])([H])[H])C([H])([H])c2c([H])c(OC([H])([H])C(=O)N([H])C([H])([H])C([H])([H])C([H])([H])C([H])([H])C([H])([H])C([H])([H])N([H])C(=O)C([H])([H])OC([H])([H])C([H])([H])OC([H])([H])C([H])([H])OC([H])([H])C([H])([H])OC([H])([H])C([H])([H])OC([H])([H])C([H])([H])OC([H])([H])C([H])([H])N([H])C(=O)N3C([H])([H])C([H])([H])C([H])([H])C([H])(n4nc(-c5c([H])c([H])c(Oc6c([H])c([H])c(F)c([H])c6F)c([H])c5[H])c(C(=O)N([H])[H])c4N([H])[H])C3([H])[H])c([H])c([H])c2C1([H])[H]

$$$$
31:0:0
     RDKit          3D

107114  0  0  1  0  0  0  0  0999 V2000
  -23.6380  -23.1810   16.0790 C   0  0  0  0  0  0  0  0  0  0  0  0
  -23.1040  -23.4600   17.2740 N   0  0  0  0  0  0  0  0  0  0  0  0
  -24.1590  -24.0320   15.3610 O   0  0  0  0  0  0  0  0  0  0  0  0
  -22.6860  -22.6860   17.7740 H   0  0  0  0  0  0  0  0  0  0  0  0
  -23.1310  -24.7420   17.9760 C   0  0  0  0  0  2  0  0  0  0  0  0
  -23.7510  -24.6140   19.3750 C   0  0  0  0  0  0  0  0  0  0  0  0
  -24.6140  -23.6030   19.5760 N   0  0  0  0  0  0  0  0  0  0  0  0
  -23.4400  -25.4180   20.2550 O   0  0  0  0  0  0  0  0  0  0  0  0
  -24.7530  -22.9830   18.7880 H   0  0  0  0  0  0  0  0  0  0  0  0
  -25.4240  -23.3410   20.7670 C   0  0  0  0  0  2  0  0  0  0  0  0
  -26.2770  -24.5390   21.1490 C   0  0  0  0  0  3  0  0  0  0  0  0
  -27.5810  -24.6940   20.8650 C   0  0  0  0  0  3  0  0  0  0  0  0
  -28.3800  -25.9470   21.1940 C   0  0  0  0  0  2  0  0  0  0  0  0
  -28.4250  -26.8770   20.0980 O   0  0  0  0  0  0  0  0  0  0  0  0
  -24.6680  -31.8880   23.4050 C   0  0  0  0  0  0  0  0  0  0  0  0
  -27.3060  -27.6740   20.0540 C   0  0  0  0  0  0  0  0  0  0  0  0
  -23.4700  -30.6060   21.6610 C   0  0  0  0  0  3  0  0  0  0  0  0
  -24.9240  -29.1820   20.1320 C   0  0  0  0  0  0  0  0  0  0  0  0
  -25.9980  -30.9750   21.5100 C   0  0  0  0  0  2  0  0  0  0  0  0
  -26.0780  -29.6560   20.7750 C   0  0  0  0  0  0  0  0  0  0  0  0
  -27.2720  -28.9060   20.7380 C   0  0  0  0  0  3  0  0  0  0  0  0
  -26.1560  -27.2310   19.3710 C   0  0  0  0  0  3  0  0  0  0  0  0
  -24.9630  -27.9720   19.4210 C   0  0  0  0  0  3  0  0  0  0  0  0
  -23.6780  -30.0280   20.2360 C   0  0  0  0  0  2  0  0  0  0  0  0
  -24.7290  -31.1680   22.2490 N   0  0  0  0  0  0  0  0  0  0  0  0
  -23.5820  -32.1200   23.9540 O   0  0  0  0  0  0  0  0  0  0  0  0
  -22.8110  -29.5220   22.5430 C   0  0  0  0  0  0  0  0  0  0  0  0
  -21.4960  -29.3170   22.3570 N   0  0  0  0  0  0  0  0  0  0  0  0
  -23.4790  -28.8750   23.3560 O   0  0  0  0  0  0  0  0  0  0  0  0
  -21.0180  -29.8890   21.6740 H   0  0  0  0  0  0  0  0  0  0  0  0
  -18.1400  -28.0050   22.6330 C   0  0  0  0  0  0  0  0  0  0  0  0
  -20.6720  -28.3270   23.0450 C   0  0  0  0  0  3  0  0  0  0  0  0
  -20.8500  -26.9220   22.4230 C   0  0  0  0  0  2  0  0  0  0  0  0
  -19.8110  -26.6090   21.3420 C   0  0  0  0  0  2  0  0  0  0  0  0
  -18.3950  -26.6880   21.9190 C   0  0  0  0  0  2  0  0  0  0  0  0
  -19.2120  -28.7830   23.1490 C   0  0  0  0  0  0  0  0  0  0  0  0
  -18.9250  -30.0150   23.7750 C   0  0  0  0  0  3  0  0  0  0  0  0
  -17.6000  -30.4720   23.8900 C   0  0  0  0  0  3  0  0  0  0  0  0
  -16.5400  -29.6910   23.3920 C   0  0  0  0  0  3  0  0  0  0  0  0
  -16.8120  -28.4580   22.7710 C   0  0  0  0  0  3  0  0  0  0  0  0
  -25.9510  -32.4690   24.0750 C   0  0  0  0  0  3  0  0  0  0  0  0
  -25.6790  -33.8720   24.4090 N   0  0  0  0  0  0  0  0  0  0  0  0
  -26.0690  -34.9170   23.6680 C   0  0  0  0  0  0  0  0  0  0  0  0
  -26.7690  -34.8010   22.6570 O   0  0  0  0  0  0  0  0  0  0  0  0
  -25.0600  -34.0390   25.1910 H   0  0  0  0  0  0  0  0  0  0  0  0
  -24.4040  -36.7590   23.2780 C   0  0  0  0  0  1  0  0  0  0  0  0
  -25.6120  -36.3180   24.1180 C   0  0  0  0  0  3  0  0  0  0  0  0
  -27.7520  -37.1300   25.0070 C   0  0  0  0  0  1  0  0  0  0  0  0
  -26.6790  -37.3400   24.0360 N   0  0  0  0  0  0  0  0  0  0  0  0
  -26.2970  -38.2690   24.1840 H   0  0  0  0  0  0  0  0  0  0  0  0
  -26.4000  -31.6660   25.3570 C   0  0  1  0  0  0  0  0  0  0  0  0
  -25.2650  -31.4440   26.3860 C   0  0  0  0  0  1  0  0  0  0  0  0
  -26.9580  -30.2790   24.9630 C   0  0  0  0  0  1  0  0  0  0  0  0
  -27.5530  -32.4140   26.0680 C   0  0  0  0  0  1  0  0  0  0  0  0
  -23.6290  -21.7050   15.6640 C   0  0  0  0  0  2  0  0  0  0  0  0
  -25.3460  -20.8370   17.2240 C   0  0  0  0  0  0  0  0  0  0  0  0
  -24.0960  -20.8390   16.7500 N   0  0  0  0  0  0  0  0  0  0  0  0
  -26.2410  -21.5390   16.7430 O   0  0  0  0  0  0  0  0  0  0  0  0
  -23.4150  -20.2390   17.1960 H   0  0  0  0  0  0  0  0  0  0  0  0
  -25.6350  -19.9650   18.4510 C   0  0  0  0  0  2  0  0  0  0  0  0
  -27.0840  -19.8310   18.6820 N   0  0  0  0  0  0  0  0  0  0  0  0
  -27.5300  -20.7290   18.5130 H   0  0  0  0  0  0  0  0  0  0  0  0
  -27.3810  -19.3330   20.0190 C   0  0  0  0  0  2  0  0  0  0  0  0
  -28.9040  -19.1910   20.2170 C   0  0  0  0  0  2  0  0  0  0  0  0
  -29.2330  -18.1410   21.2010 N   0  0  0  0  0  4  0  0  0  0  0  0
  -28.7850  -18.3600   22.0760 H   0  0  0  0  0  0  0  0  0  0  0  0
  -28.8640  -17.2670   20.8670 H   0  0  0  0  0  0  0  0  0  0  0  0
  -30.6820  -17.9660   21.4430 C   0  0  0  0  0  2  0  0  0  0  0  0
  -30.9850  -16.7100   22.2870 C   0  0  0  0  0  2  0  0  0  0  0  0
  -30.8670  -14.7600   20.7440 C   0  0  0  0  0  0  0  0  0  0  0  0
  -30.5110  -12.7990   19.2920 C   0  0  0  0  0  2  0  0  0  0  0  0
  -29.5790  -13.1450   18.1160 C   0  0  0  0  0  2  0  0  0  0  0  0
  -28.1020  -12.9770   18.5210 C   0  0  0  0  0  2  0  0  0  0  0  0
  -27.7650  -13.6900   19.8570 C   0  0  0  0  0  3  0  0  0  0  0  0
  -28.8020  -13.3240   20.9430 C   0  0  0  0  0  2  0  0  0  0  0  0
  -30.1480  -13.6500   20.4340 N   0  0  0  0  0  0  0  0  0  0  0  0
  -31.8990  -15.0950   20.1560 O   0  0  0  0  0  0  0  0  0  0  0  0
  -30.3700  -15.4960   21.7470 N   0  0  0  0  0  0  0  0  0  0  0  0
  -29.5600  -15.1230   22.2240 H   0  0  0  0  0  0  0  0  0  0  0  0
  -25.3300  -14.2550   20.4760 C   0  0  0  0  0  0  0  0  0  0  0  0
  -24.2670  -13.4610   20.8250 C   0  0  0  0  0  0  0  0  0  0  0  0
  -24.7600  -12.1220   20.8200 C   0  0  0  0  0  0  0  0  0  0  0  0
  -26.4020  -13.3940   20.2890 N   0  0  0  0  0  0  0  0  0  0  0  0
  -26.0590  -12.1080   20.5500 N   0  0  0  0  0  0  0  0  0  0  0  0
  -24.0570  -10.8450   21.0010 C   0  0  0  0  0  0  0  0  0  0  0  0
  -24.4700   -9.9050   21.9710 C   0  0  0  0  0  3  0  0  0  0  0  0
  -23.7680   -8.6920   22.1370 C   0  0  0  0  0  3  0  0  0  0  0  0
  -22.6390   -8.4110   21.3330 C   0  0  0  0  0  0  0  0  0  0  0  0
  -22.2460   -9.3380   20.3530 C   0  0  0  0  0  3  0  0  0  0  0  0
  -22.9480  -10.5430   20.1850 C   0  0  0  0  0  3  0  0  0  0  0  0
  -21.9100   -7.2470   21.4060 O   0  0  0  0  0  0  0  0  0  0  0  0
  -21.8020   -6.5390   22.5760 C   0  0  0  0  0  0  0  0  0  0  0  0
  -21.2790   -7.1190   23.7520 C   0  0  0  0  0  3  0  0  0  0  0  0
  -21.1210   -6.3350   24.9130 C   0  0  0  0  0  3  0  0  0  0  0  0
  -21.4750   -4.9740   24.8970 C   0  0  0  0  0  0  0  0  0  0  0  0
  -21.9910   -4.3930   23.7260 C   0  0  0  0  0  3  0  0  0  0  0  0
  -22.1520   -5.1740   22.5670 C   0  0  0  0  0  0  0  0  0  0  0  0
  -22.6300   -4.6050   21.4340 F   0  0  0  0  0  0  0  0  0  0  0  0
  -21.3160   -4.2180   26.0090 F   0  0  0  0  0  0  0  0  0  0  0  0
  -22.8530  -13.9110   21.0490 C   0  0  0  0  0  0  0  0  0  0  0  0
  -22.1150  -13.2070   21.9040 N   0  0  0  0  0  0  0  0  0  0  0  0
  -22.4070  -14.9190   20.5030 O   0  0  0  0  0  0  0  0  0  0  0  0
  -22.4880  -12.3930   22.3670 H   0  0  0  0  0  0  0  0  0  0  0  0
  -21.1650  -13.4910   22.0960 H   0  0  0  0  0  0  0  0  0  0  0  0
  -25.4670  -15.6240   20.2800 N   0  0  0  0  0  0  0  0  0  0  0  0
  -24.6610  -16.2400   20.3050 H   0  0  0  0  0  0  0  0  0  0  0  0
  -26.2710  -16.0420   19.8340 H   0  0  0  0  0  0  0  0  0  0  0  0
  1  2  1  0
  2  4  1  0
  2  5  1  0
  3  1  2  0
  5  6  1  0
  6  7  1  0
  6  8  2  0
  7 10  1  0
  9  7  1  0
 10 11  1  0
 12 11  2  0
 12 13  1  0
 14 13  1  0
 15 26  2  0
 16 14  1  0
 16 21  1  0
 17 25  1  0
 17 27  1  0
 18 24  1  0
 18 20  1  0
 19 25  1  0
 20 19  1  0
 21 20  2  0
 22 23  1  0
 22 16  2  0
 23 18  2  0
 24 17  1  0
 25 15  1  0
 27 29  2  0
 28 27  1  0
 30 28  1  0
 31 40  2  0
 31 36  1  0
 32 28  1  0
 32 36  1  0
 33 32  1  0
 34 35  1  0
 34 33  1  0
 35 31  1  0
 36 37  2  0
 37 38  1  0
 39 38  2  0
 40 39  1  0
 41 15  1  0
 41 42  1  0
 41 51  1  0
 42 45  1  0
 43 47  1  0
 43 42  1  0
 44 43  2  0
 47 46  1  0
 49 47  1  0
 49 50  1  0
 49 48  1  0
 51 54  1  1
 51 52  1  0
 53 51  1  0
 55  1  1  0
 55 57  1  0
 56 60  1  0
 57 59  1  0
 57 56  1  0
 58 56  2  0
 60 61  1  0
 61 63  1  0
 62 61  1  0
 63 64  1  0
 64 65  1  0
 65 68  1  0
 65 66  1  0
 67 65  1  0
 68 69  1  0
 70 78  1  0
 71 76  1  0
 72 73  1  0
 72 71  1  0
 74 73  1  0
 74 83  1  0
 74 75  1  0
 76 70  1  0
 76 75  1  0
 77 70  2  0
 78 79  1  0
 78 69  1  0
 80 81  2  0
 81100  1  0
 82 81  1  0
 82 85  1  0
 83 80  1  0
 83 84  1  0
 84 82  2  0
 85 86  1  0
 86 87  2  0
 88 91  1  0
 88 87  1  0
 89 88  2  0
 90 89  1  0
 90 85  2  0
 91 92  1  0
 92 93  1  0
 93 94  2  0
 95 94  1  0
 95 99  1  0
 96 95  2  0
 97 92  2  0
 97 96  1  0
 98 97  1  0
100101  1  0
101104  1  0
101103  1  0
102100  2  0
105106  1  0
105 80  1  0
107105  1  0
M  ISO  4  13 101  14 101  70 100  78 100
M  END
>  <TORSDO>  (31) 
F 30

>  <SCORE>  (31) 
-10.518

>  <name>  (31) 
31

>  <ligand_id>  (31) 
31

>  <original_smiles>  (31) 
[H]C(=C([H])C([H])([H])N([H])C(=O)C([H])([H])N([H])C(=O)C([H])([H])N([H])C(=O)C([H])([H])N([H])C([H])([H])C([H])([H])[N+]([H])([H])C([H])([H])C([H])([H])N([H])C(=O)N1C([H])([H])C([H])([H])C([H])([H])C([H])(n2nc(-c3c([H])c([H])c(Oc4c([H])c([H])c(F)c([H])c4F)c([H])c3[H])c(C(=O)N([H])[H])c2N([H])[H])C1([H])[H])C([H])([H])Oc1c([H])c([H])c2c(c1[H])C([H])([H])N(C(=O)C([H])(N([H])C(=O)C([H])(N([H])C([H])([H])[H])C([H])([H])[H])C(C([H])([H])[H])(C([H])([H])[H])C([H])([H])[H])C([H])(C(=O)N([H])C1([H])c3c([H])c([H])c([H])c([H])c3C([H])([H])C([H])([H])C1([H])[H])C2([H])[H]

>  <smiles>  (31) 
[H]C(=C([H])C([H])([H])N([H])C(=O)C([H])([H])N([H])C(=O)C([H])([H])N([H])C(=O)C([H])([H])N([H])C([H])([H])C([H])([H])[N+]([H])([H])C([H])([H])C([H])([H])N([H])C(=O)N1C([H])([H])C([H])([H])C([H])([H])C([H])(n2nc(-c3c([H])c([H])c(Oc4c([H])c([H])c(F)c([H])c4F)c([H])c3[H])c(C(=O)N([H])[H])c2N([H])[H])C1([H])[H])C([H])([H])Oc1c([H])c([H])c2c(c1[H])C([H])([H])N(C(=O)C([H])(N([H])C(=O)C([H])(N([H])C([H])([H])[H])C([H])([H])[H])C(C([H])([H])[H])(C([H])([H])[H])C([H])([H])[H])C([H])(C(=O)N([H])C1([H])c3c([H])c([H])c([H])c([H])c3C([H])([H])C([H])([H])C1([H])[H])C2([H])[H]

$$$$
32:0:0
     RDKit          3D

108115  0  0  1  0  0  0  0  0999 V2000
  -25.9820  -24.6140   15.1110 C   0  0  0  0  0  2  0  0  0  0  0  0
  -24.9240  -25.2240   16.0530 C   0  0  0  0  0  2  0  0  0  0  0  0
  -23.9500  -24.2010   16.5100 N   0  0  0  0  0  4  0  0  0  0  0  0
  -23.8580  -23.4880   15.8050 H   0  0  0  0  0  0  0  0  0  0  0  0
  -23.0500  -24.6570   16.5550 H   0  0  0  0  0  0  0  0  0  0  0  0
  -24.1680  -23.5780   17.8470 C   0  0  0  0  0  2  0  0  0  0  0  0
  -25.2480  -22.4640   17.9100 C   0  0  0  0  0  2  0  0  0  0  0  0
  -26.7000  -22.9340   18.1140 C   0  0  0  0  0  2  0  0  0  0  0  0
  -27.0430  -23.1770   19.5340 N   0  0  0  0  0  4  0  0  0  0  0  0
  -26.8560  -22.3390   20.0730 H   0  0  0  0  0  0  0  0  0  0  0  0
  -26.4540  -23.9120   19.8930 H   0  0  0  0  0  0  0  0  0  0  0  0
  -28.4630  -23.5660   19.7080 C   0  0  0  0  0  2  0  0  0  0  0  0
  -28.8060  -24.1570   21.0910 C   0  0  0  0  0  2  0  0  0  0  0  0
  -28.1720  -25.5220   21.4100 C   0  0  0  0  0  2  0  0  0  0  0  0
  -28.2660  -26.4530   20.3270 O   0  0  0  0  0  0  0  0  0  0  0  0
  -24.5350  -31.7250   23.2460 C   0  0  0  0  0  0  0  0  0  0  0  0
  -27.1490  -27.2440   20.2560 C   0  0  0  0  0  0  0  0  0  0  0  0
  -23.3270  -30.3300   21.5950 C   0  0  0  0  0  3  0  0  0  0  0  0
  -24.7810  -28.7700   20.2080 C   0  0  0  0  0  0  0  0  0  0  0  0
  -25.8590  -30.6660   21.4260 C   0  0  0  0  0  2  0  0  0  0  0  0
  -25.9390  -29.2910   20.7980 C   0  0  0  0  0  0  0  0  0  0  0  0
  -27.1320  -28.5330   20.8200 C   0  0  0  0  0  3  0  0  0  0  0  0
  -25.9760  -26.7220   19.6730 C   0  0  0  0  0  3  0  0  0  0  0  0
  -24.7910  -27.4780   19.6480 C   0  0  0  0  0  3  0  0  0  0  0  0
  -23.5430  -29.6350   20.2270 C   0  0  0  0  0  2  0  0  0  0  0  0
  -24.5890  -30.9200   22.1480 N   0  0  0  0  0  0  0  0  0  0  0  0
  -23.4480  -32.0250   23.7600 O   0  0  0  0  0  0  0  0  0  0  0  0
  -22.6470  -29.3280   22.5510 C   0  0  0  0  0  0  0  0  0  0  0  0
  -21.3220  -29.1770   22.4090 N   0  0  0  0  0  0  0  0  0  0  0  0
  -23.3080  -28.6920   23.3760 O   0  0  0  0  0  0  0  0  0  0  0  0
  -20.8560  -29.7310   21.7050 H   0  0  0  0  0  0  0  0  0  0  0  0
  -17.9120  -28.0790   22.8710 C   0  0  0  0  0  0  0  0  0  0  0  0
  -20.4730  -28.2640   23.1700 C   0  0  0  0  0  3  0  0  0  0  0  0
  -20.5410  -26.8330   22.5930 C   0  0  0  0  0  2  0  0  0  0  0  0
  -19.4420  -26.5370   21.5690 C   0  0  0  0  0  2  0  0  0  0  0  0
  -18.0580  -26.7260   22.1970 C   0  0  0  0  0  2  0  0  0  0  0  0
  -19.0470  -28.8100   23.3120 C   0  0  0  0  0  0  0  0  0  0  0  0
  -18.8620  -30.0800   23.8970 C   0  0  0  0  0  3  0  0  0  0  0  0
  -17.5720  -30.6230   24.0460 C   0  0  0  0  0  3  0  0  0  0  0  0
  -16.4500  -29.8870   23.6250 C   0  0  0  0  0  3  0  0  0  0  0  0
  -16.6200  -28.6180   23.0460 C   0  0  0  0  0  3  0  0  0  0  0  0
  -25.8200  -32.3410   23.8810 C   0  0  0  0  0  3  0  0  0  0  0  0
  -25.5270  -33.7450   24.1990 N   0  0  0  0  0  0  0  0  0  0  0  0
  -25.8950  -34.7850   23.4390 C   0  0  0  0  0  0  0  0  0  0  0  0
  -26.5830  -34.6650   22.4230 O   0  0  0  0  0  0  0  0  0  0  0  0
  -24.9100  -33.9160   24.9790 H   0  0  0  0  0  0  0  0  0  0  0  0
  -24.2010  -36.6020   23.0450 C   0  0  0  0  0  1  0  0  0  0  0  0
  -25.4200  -36.1830   23.8810 C   0  0  0  0  0  3  0  0  0  0  0  0
  -27.5490  -37.0340   24.7510 C   0  0  0  0  0  1  0  0  0  0  0  0
  -26.4710  -37.2180   23.7860 N   0  0  0  0  0  0  0  0  0  0  0  0
  -26.0730  -38.1440   23.9230 H   0  0  0  0  0  0  0  0  0  0  0  0
  -26.3130  -31.5650   25.1630 C   0  0  1  0  0  0  0  0  0  0  0  0
  -25.1950  -31.3200   26.2030 C   0  0  0  0  0  1  0  0  0  0  0  0
  -26.8980  -30.1870   24.7730 C   0  0  0  0  0  1  0  0  0  0  0  0
  -27.4560  -32.3490   25.8460 C   0  0  0  0  0  1  0  0  0  0  0  0
  -27.3320  -25.3760   15.0390 C   0  0  0  0  0  2  0  0  0  0  0  0
  -28.5090  -24.3990   14.8550 C   0  0  0  0  0  2  0  0  0  0  0  0
  -29.9170  -25.0270   14.9680 C   0  0  0  0  0  2  0  0  0  0  0  0
  -30.9950  -24.0640   14.6220 N   0  0  0  0  0  4  0  0  0  0  0  0
  -31.7500  -24.6390   14.2790 H   0  0  0  0  0  0  0  0  0  0  0  0
  -30.7190  -23.4880   13.8450 H   0  0  0  0  0  0  0  0  0  0  0  0
  -31.6060  -23.2680   15.7240 C   0  0  0  0  0  2  0  0  0  0  0  0
  -30.6810  -22.2340   16.4250 C   0  0  0  0  0  2  0  0  0  0  0  0
  -31.3740  -21.4740   17.5960 C   0  0  0  0  0  2  0  0  0  0  0  0
  -30.4690  -20.5030   18.2750 N   0  0  0  0  0  4  0  0  0  0  0  0
  -29.6410  -20.9900   18.5720 H   0  0  0  0  0  0  0  0  0  0  0  0
  -30.1870  -19.8090   17.5960 H   0  0  0  0  0  0  0  0  0  0  0  0
  -31.0170  -19.7840   19.4680 C   0  0  0  0  0  2  0  0  0  0  0  0
  -30.0850  -18.6040   19.8840 C   0  0  0  0  0  2  0  0  0  0  0  0
  -30.5430  -17.7540   21.1140 C   0  0  0  0  0  2  0  0  0  0  0  0
  -30.7790  -15.2580   20.8430 C   0  0  0  0  0  0  0  0  0  0  0  0
  -30.6060  -13.0800   19.7140 C   0  0  0  0  0  2  0  0  0  0  0  0
  -29.7420  -13.2340   18.4480 C   0  0  0  0  0  2  0  0  0  0  0  0
  -28.2480  -13.0470   18.7750 C   0  0  0  0  0  2  0  0  0  0  0  0
  -27.7840  -13.8690   20.0040 C   0  0  0  0  0  3  0  0  0  0  0  0
  -28.7790  -13.7330   21.1830 C   0  0  0  0  0  2  0  0  0  0  0  0
  -30.1230  -14.0720   20.6880 N   0  0  0  0  0  0  0  0  0  0  0  0
  -31.9680  -15.4000   20.5530 O   0  0  0  0  0  0  0  0  0  0  0  0
  -30.0400  -16.3520   21.1020 N   0  0  0  0  0  0  0  0  0  0  0  0
  -29.0560  -16.2150   21.2810 H   0  0  0  0  0  0  0  0  0  0  0  0
  -25.3220  -14.3600   20.5710 C   0  0  0  0  0  0  0  0  0  0  0  0
  -24.2610  -13.5380   20.8500 C   0  0  0  0  0  0  0  0  0  0  0  0
  -24.7740  -12.2030   20.8190 C   0  0  0  0  0  0  0  0  0  0  0  0
  -26.4140  -13.5220   20.3900 N   0  0  0  0  0  0  0  0  0  0  0  0
  -26.0810  -12.2220   20.5920 N   0  0  0  0  0  0  0  0  0  0  0  0
  -24.0760  -10.9120   20.9410 C   0  0  0  0  0  0  0  0  0  0  0  0
  -24.4780   -9.9390   21.8850 C   0  0  0  0  0  3  0  0  0  0  0  0
  -23.7860   -8.7140   21.9940 C   0  0  0  0  0  3  0  0  0  0  0  0
  -22.6790   -8.4450   21.1510 C   0  0  0  0  0  0  0  0  0  0  0  0
  -22.2980   -9.4060   20.1950 C   0  0  0  0  0  3  0  0  0  0  0  0
  -22.9940  -10.6250   20.0880 C   0  0  0  0  0  3  0  0  0  0  0  0
  -21.9710   -7.2700   21.1600 O   0  0  0  0  0  0  0  0  0  0  0  0
  -21.8520   -6.5090   22.2960 C   0  0  0  0  0  0  0  0  0  0  0  0
  -21.3070   -7.0310   23.4890 C   0  0  0  0  0  3  0  0  0  0  0  0
  -21.1440   -6.1960   24.6110 C   0  0  0  0  0  3  0  0  0  0  0  0
  -21.5190   -4.8390   24.5410 C   0  0  0  0  0  0  0  0  0  0  0  0
  -22.0620   -4.3190   23.3550 C   0  0  0  0  0  3  0  0  0  0  0  0
  -22.2250   -5.1520   22.2320 C   0  0  0  0  0  0  0  0  0  0  0  0
  -22.7310   -4.6400   21.0850 F   0  0  0  0  0  0  0  0  0  0  0  0
  -21.3570   -4.0360   25.6190 F   0  0  0  0  0  0  0  0  0  0  0  0
  -22.8340  -13.9520   21.0470 C   0  0  0  0  0  0  0  0  0  0  0  0
  -22.0870  -13.2050   21.8550 N   0  0  0  0  0  0  0  0  0  0  0  0
  -22.3760  -14.9630   20.5110 O   0  0  0  0  0  0  0  0  0  0  0  0
  -22.4700  -12.3800   22.2940 H   0  0  0  0  0  0  0  0  0  0  0  0
  -21.1240  -13.4520   22.0320 H   0  0  0  0  0  0  0  0  0  0  0  0
  -25.4590  -15.7360   20.4300 N   0  0  0  0  0  0  0  0  0  0  0  0
  -24.6820  -16.3880   20.4870 H   0  0  0  0  0  0  0  0  0  0  0  0
  -26.3260  -16.1810   20.1590 H   0  0  0  0  0  0  0  0  0  0  0  0
  1  2  1  0
  2  3  1  0
  3  5  1  0
  3  6  1  0
  4  3  1  0
  6  7  1  0
  7  8  1  0
  8  9  1  0
  9 12  1  0
  9 11  1  0
  9 10  1  0
 12 13  1  0
 13 14  1  0
 15 14  1  0
 16 27  2  0
 17 15  1  0
 17 22  1  0
 18 26  1  0
 18 28  1  0
 19 25  1  0
 19 21  1  0
 20 26  1  0
 21 22  2  0
 21 20  1  0
 23 17  2  0
 24 23  1  0
 24 19  2  0
 25 18  1  0
 26 16  1  0
 28 30  2  0
 29 28  1  0
 31 29  1  0
 32 41  2  0
 32 37  1  0
 33 29  1  0
 33 37  1  0
 34 33  1  0
 35 36  1  0
 35 34  1  0
 36 32  1  0
 37 38  2  0
 38 39  1  0
 40 39  2  0
 41 40  1  0
 42 16  1  0
 42 43  1  0
 42 52  1  0
 43 46  1  0
 44 48  1  0
 44 43  1  0
 45 44  2  0
 48 47  1  0
 50 48  1  0
 50 51  1  0
 50 49  1  0
 52 55  1  1
 52 53  1  0
 54 52  1  0
 56  1  1  0
 57 58  1  0
 57 56  1  0
 59 58  1  0
 59 62  1  0
 60 59  1  0
 61 59  1  0
 62 63  1  0
 63 64  1  0
 64 65  1  0
 65 66  1  0
 65 68  1  0
 67 65  1  0
 68 69  1  0
 69 70  1  0
 71 79  1  0
 72 77  1  0
 73 74  1  0
 73 72  1  0
 75 74  1  0
 75 84  1  0
 75 76  1  0
 77 71  1  0
 77 76  1  0
 78 71  2  0
 79 70  1  0
 79 80  1  0
 81 82  2  0
 82101  1  0
 83 82  1  0
 83 86  1  0
 84 81  1  0
 84 85  1  0
 85 83  2  0
 86 87  1  0
 87 88  2  0
 89 92  1  0
 89 88  1  0
 90 89  2  0
 91 90  1  0
 91 86  2  0
 92 93  1  0
 93 94  1  0
 94 95  2  0
 96 95  1  0
 96100  1  0
 97 96  2  0
 98 93  2  0
 98 97  1  0
 99 98  1  0
101102  1  0
102105  1  0
102104  1  0
103101  2  0
106107  1  0
106 81  1  0
108106  1  0
M  ISO  4  14 101  15 101  71 100  79 100
M  END
>  <TORSDO>  (32) 
F 36

>  <SCORE>  (32) 
-8.821

>  <name>  (32) 
32

>  <ligand_id>  (32) 
32

>  <original_smiles>  (32) 
[H]c1c([H])c([H])c2c(c1[H])C([H])([H])C([H])([H])C([H])([H])C2([H])N([H])C(=O)C1([H])N(C(=O)C([H])(N([H])C(=O)C([H])(N([H])C([H])([H])[H])C([H])([H])[H])C(C([H])([H])[H])(C([H])([H])[H])C([H])([H])[H])C([H])([H])c2c([H])c(OC([H])([H])C([H])([H])C([H])([H])[N+]([H])([H])C([H])([H])C([H])([H])C([H])([H])[N+]([H])([H])C([H])([H])C([H])([H])C([H])([H])C([H])([H])C([H])([H])[N+]([H])([H])C([H])([H])C([H])([H])C([H])([H])[N+]([H])([H])C([H])([H])C([H])([H])C([H])([H])N([H])C(=O)N3C([H])([H])C([H])([H])C([H])([H])C([H])(n4nc(-c5c([H])c([H])c(Oc6c([H])c([H])c(F)c([H])c6F)c([H])c5[H])c(C(=O)N([H])[H])c4N([H])[H])C3([H])[H])c([H])c([H])c2C1([H])[H]

>  <smiles>  (32) 
[H]c1c([H])c([H])c2c(c1[H])C([H])([H])C([H])([H])C([H])([H])C2([H])N([H])C(=O)C1([H])N(C(=O)C([H])(N([H])C(=O)C([H])(N([H])C([H])([H])[H])C([H])([H])[H])C(C([H])([H])[H])(C([H])([H])[H])C([H])([H])[H])C([H])([H])c2c([H])c(OC([H])([H])C([H])([H])C([H])([H])[N+]([H])([H])C([H])([H])C([H])([H])C([H])([H])[N+]([H])([H])C([H])([H])C([H])([H])C([H])([H])C([H])([H])C([H])([H])[N+]([H])([H])C([H])([H])C([H])([H])C([H])([H])[N+]([H])([H])C([H])([H])C([H])([H])C([H])([H])N([H])C(=O)N3C([H])([H])C([H])([H])C([H])([H])C([H])(n4nc(-c5c([H])c([H])c(Oc6c([H])c([H])c(F)c([H])c6F)c([H])c5[H])c(C(=O)N([H])[H])c4N([H])[H])C3([H])[H])c([H])c([H])c2C1([H])[H]

$$$$
33:0:0
     RDKit          3D

124132  0  0  1  0  0  0  0  0999 V2000
  -26.8360  -16.3460   23.2440 C   0  0  0  0  0  3  0  0  0  0  0  0
  -28.2120  -16.2230   22.8910 C   0  0  0  0  0  3  0  0  0  0  0  0
  -28.0410  -13.8880   23.2880 C   0  0  0  0  0  3  0  0  0  0  0  0
  -26.6300  -13.9060   23.1250 C   0  0  0  0  0  0  0  0  0  0  0  0
  -25.9710  -15.2120   23.2150 C   0  0  0  0  0  0  0  0  0  0  0  0
  -28.8100  -14.9450   22.7390 C   0  0  0  0  0  0  0  0  0  0  0  0
  -25.9720  -12.6220   22.3390 C   0  0  0  0  0  1  0  0  0  0  0  0
  -23.8250  -16.2100   21.8000 C   0  0  0  0  0  3  0  0  0  0  0  0
  -24.4920  -13.2180   19.0910 C   0  0  0  0  0  1  0  0  0  0  0  0
  -23.6110  -15.9820   20.0520 C   0  0  0  0  0  3  0  0  0  0  0  0
  -24.5490  -15.4220   22.9820 N   0  0  0  0  0  0  0  0  0  0  0  0
  -23.9340  -14.7790   18.9500 N   0  0  2  0  0  4  0  0  0  0  0  0
  -24.8730  -15.1390   18.8410 H   0  0  0  0  0  0  0  0  0  0  0  0
  -30.6220  -14.2810   20.9620 C   0  0  0  0  0  0  0  0  0  0  0  0
  -30.5920  -12.4120   19.2640 C   0  0  0  0  0  2  0  0  0  0  0  0
  -29.6240  -12.6340   18.0590 C   0  0  0  0  0  2  0  0  0  0  0  0
  -28.1180  -12.4970   18.3810 C   0  0  0  0  0  2  0  0  0  0  0  0
  -27.8410  -13.1860   19.7160 C   0  0  0  0  0  3  0  0  0  0  0  0
  -28.8040  -12.5580   20.7020 C   0  0  0  0  0  2  0  0  0  0  0  0
  -30.0960  -13.1240   20.4580 N   0  0  0  0  0  0  0  0  0  0  0  0
  -31.5940  -14.7910   20.3790 O   0  0  0  0  0  0  0  0  0  0  0  0
  -30.1510  -14.7830   22.1630 N   0  0  0  0  0  0  0  0  0  0  0  0
  -30.8000  -15.4870   22.4960 H   0  0  0  0  0  0  0  0  0  0  0  0
  -25.5110  -14.1570   20.7920 C   0  0  0  0  0  0  0  0  0  0  0  0
  -24.1060  -13.2570   21.2760 C   0  0  0  0  0  0  0  0  0  0  0  0
  -24.4830  -11.6840   20.8540 C   0  0  0  0  0  0  0  0  0  0  0  0
  -26.5130  -13.0350   20.1610 N   0  0  0  0  0  0  0  0  0  0  0  0
  -25.8590  -11.6190   20.2090 N   0  0  0  0  0  0  0  0  0  0  0  0
  -23.8050  -10.4170   21.0270 C   0  0  0  0  0  0  0  0  0  0  0  0
  -24.3220   -9.4100   21.8760 C   0  0  0  0  0  3  0  0  0  0  0  0
  -23.6090   -8.2000   22.0200 C   0  0  0  0  0  3  0  0  0  0  0  0
  -22.3960   -8.0020   21.3250 C   0  0  0  0  0  0  0  0  0  0  0  0
  -21.9330   -8.9960   20.4470 C   0  0  0  0  0  3  0  0  0  0  0  0
  -22.6290  -10.1990   20.3060 C   0  0  0  0  0  3  0  0  0  0  0  0
  -21.6520   -6.8580   21.4080 O   0  0  0  0  0  0  0  0  0  0  0  0
  -21.6860   -6.0610   22.5220 C   0  0  0  0  0  0  0  0  0  0  0  0
  -21.4290   -6.5650   23.8170 C   0  0  0  0  0  3  0  0  0  0  0  0
  -21.4020   -5.6870   24.9160 C   0  0  0  0  0  3  0  0  0  0  0  0
  -21.6160   -4.3090   24.7240 C   0  0  0  0  0  0  0  0  0  0  0  0
  -21.8710   -3.8040   23.4390 C   0  0  0  0  0  3  0  0  0  0  0  0
  -21.9060   -4.6800   22.3410 C   0  0  0  0  0  0  0  0  0  0  0  0
  -22.1430   -4.1930   21.0990 F   0  0  0  0  0  0  0  0  0  0  0  0
  -21.5720   -3.4590   25.7810 F   0  0  0  0  0  0  0  0  0  0  0  0
  -22.6130  -13.4950   21.4660 C   0  0  0  0  0  0  0  0  0  0  0  0
  -21.9810  -12.6050   22.1960 N   0  0  0  0  0  0  0  0  0  0  0  0
  -21.9300  -14.2960   20.8540 O   0  0  0  0  0  0  0  0  0  0  0  0
  -20.9740  -12.6650   22.2980 H   0  0  0  0  0  0  0  0  0  0  0  0
  -22.4700  -11.8390   22.6260 H   0  0  0  0  0  0  0  0  0  0  0  0
  -26.0870  -15.3960   20.4880 N   0  0  0  0  0  0  0  0  0  0  0  0
  -25.7940  -16.0610   21.2050 H   0  0  0  0  0  0  0  0  0  0  0  0
  -27.0930  -15.4150   20.4270 H   0  0  0  0  0  0  0  0  0  0  0  0
  -23.3540  -15.0920   17.6200 C   0  0  0  0  0  2  0  0  0  0  0  0
  -23.9470  -16.4030   17.0480 C   0  0  0  0  0  2  0  0  0  0  0  0
  -24.2780  -16.3350   15.5530 C   0  0  0  0  0  2  0  0  0  0  0  0
  -25.5610  -15.7300   15.4400 O   0  0  0  0  0  0  0  0  0  0  0  0
  -26.1280  -15.8350   14.1380 C   0  0  0  0  0  2  0  0  0  0  0  0
  -27.6290  -15.5300   14.2340 C   0  0  0  0  0  2  0  0  0  0  0  0
  -28.2830  -16.6170   14.8760 O   0  0  0  0  0  0  0  0  0  0  0  0
  -29.6730  -16.3840   15.0660 C   0  0  0  0  0  2  0  0  0  0  0  0
  -30.3150  -17.5630   15.8110 C   0  0  0  0  0  2  0  0  0  0  0  0
  -29.7690  -17.6590   17.1220 O   0  0  0  0  0  0  0  0  0  0  0  0
  -30.6480  -18.3070   18.0320 C   0  0  0  0  0  2  0  0  0  0  0  0
  -29.9300  -18.5280   19.3730 C   0  0  0  0  0  2  0  0  0  0  0  0
  -29.4110  -20.9390   19.6780 C   0  0  0  0  0  0  0  0  0  0  0  0
  -29.0540  -19.6990   19.3180 N   0  0  0  0  0  0  0  0  0  0  0  0
  -30.5280  -21.1930   20.1380 O   0  0  0  0  0  0  0  0  0  0  0  0
  -28.1260  -19.5600   18.9420 H   0  0  0  0  0  0  0  0  0  0  0  0
  -28.3810  -22.0600   19.4740 C   0  0  0  0  0  2  0  0  0  0  0  0
  -28.7850  -23.2170   20.2090 O   0  0  0  0  0  0  0  0  0  0  0  0
  -27.9670  -24.3500   19.9570 C   0  0  0  0  0  2  0  0  0  0  0  0
  -28.4960  -25.5550   20.7570 C   0  0  0  0  0  2  0  0  0  0  0  0
  -28.4340  -26.7820   20.0330 O   0  0  0  0  0  0  0  0  0  0  0  0
  -24.6100  -31.8710   23.2140 C   0  0  0  0  0  0  0  0  0  0  0  0
  -27.2440  -27.4650   20.0950 C   0  0  0  0  0  0  0  0  0  0  0  0
  -23.4010  -30.4920   21.5510 C   0  0  0  0  0  3  0  0  0  0  0  0
  -24.8490  -28.9550   20.1240 C   0  0  0  0  0  0  0  0  0  0  0  0
  -25.9280  -30.8440   21.3660 C   0  0  0  0  0  2  0  0  0  0  0  0
  -26.0060  -29.4780   20.7160 C   0  0  0  0  0  0  0  0  0  0  0  0
  -27.2090  -28.7420   20.6930 C   0  0  0  0  0  3  0  0  0  0  0  0
  -26.0730  -26.9490   19.5000 C   0  0  0  0  0  3  0  0  0  0  0  0
  -24.8750  -27.6880   19.5180 C   0  0  0  0  0  3  0  0  0  0  0  0
  -23.6090  -29.8170   20.1680 C   0  0  0  0  0  2  0  0  0  0  0  0
  -24.6650  -31.0820   22.1010 N   0  0  0  0  0  0  0  0  0  0  0  0
  -23.5320  -32.1450   23.7530 O   0  0  0  0  0  0  0  0  0  0  0  0
  -22.7410  -29.4670   22.5010 C   0  0  0  0  0  0  0  0  0  0  0  0
  -21.4140  -29.3040   22.3750 N   0  0  0  0  0  0  0  0  0  0  0  0
  -23.4190  -28.8210   23.3030 O   0  0  0  0  0  0  0  0  0  0  0  0
  -20.9310  -29.8800   21.6990 H   0  0  0  0  0  0  0  0  0  0  0  0
  -18.0290  -28.1370   22.8510 C   0  0  0  0  0  0  0  0  0  0  0  0
  -20.5880  -28.3660   23.1330 C   0  0  0  0  0  3  0  0  0  0  0  0
  -20.6760  -26.9390   22.5430 C   0  0  0  0  0  2  0  0  0  0  0  0
  -19.5730  -26.6380   21.5230 C   0  0  0  0  0  2  0  0  0  0  0  0
  -18.1910  -26.7920   22.1640 C   0  0  0  0  0  2  0  0  0  0  0  0
  -19.1540  -28.8830   23.2920 C   0  0  0  0  0  0  0  0  0  0  0  0
  -18.9450  -30.1440   23.8920 C   0  0  0  0  0  3  0  0  0  0  0  0
  -17.6440  -30.6570   24.0560 C   0  0  0  0  0  3  0  0  0  0  0  0
  -16.5340  -29.9080   23.6310 C   0  0  0  0  0  3  0  0  0  0  0  0
  -16.7280  -28.6500   23.0340 C   0  0  0  0  0  3  0  0  0  0  0  0
  -25.9000  -32.4850   23.8420 C   0  0  0  0  0  3  0  0  0  0  0  0
  -25.5860  -33.8660   24.2340 N   0  0  0  0  0  0  0  0  0  0  0  0
  -25.9030  -34.9500   23.5140 C   0  0  0  0  0  0  0  0  0  0  0  0
  -26.5590  -34.8920   22.4710 O   0  0  0  0  0  0  0  0  0  0  0  0
  -25.0020  -33.9840   25.0490 H   0  0  0  0  0  0  0  0  0  0  0  0
  -24.1490  -36.7340   23.2630 C   0  0  0  0  0  1  0  0  0  0  0  0
  -25.4110  -36.3140   24.0340 C   0  0  0  0  0  3  0  0  0  0  0  0
  -27.5610  -37.1820   24.8460 C   0  0  0  0  0  1  0  0  0  0  0  0
  -26.4310  -37.3810   23.9400 N   0  0  0  0  0  0  0  0  0  0  0  0
  -26.0220  -38.2900   24.1380 H   0  0  0  0  0  0  0  0  0  0  0  0
  -26.4420  -31.6640   25.0750 C   0  0  1  0  0  0  0  0  0  0  0  0
  -25.3670  -31.3760   26.1500 C   0  0  0  0  0  1  0  0  0  0  0  0
  -27.0230  -30.3080   24.6140 C   0  0  0  0  0  1  0  0  0  0  0  0
  -27.6030  -32.4350   25.7470 C   0  0  0  0  0  1  0  0  0  0  0  0
  -23.9330  -15.3930   24.3250 C   0  0  0  0  0  2  0  0  0  0  0  0
  -23.5590  -13.9880   24.9080 C   0  0  0  0  0  2  0  0  0  0  0  0
  -24.6620  -13.1150   25.2210 O   0  0  0  0  0  0  0  0  0  0  0  0
  -24.2530  -11.7600   25.4930 C   0  0  0  0  0  2  0  0  0  0  0  0
  -25.4400  -10.7620   25.6450 C   0  0  0  0  0  2  0  0  0  0  0  0
  -25.0070   -9.4350   25.3160 O   0  0  0  0  0  0  0  0  0  0  0  0
  -25.9100   -8.3820   25.6670 C   0  0  0  0  0  2  0  0  0  0  0  0
  -25.5530   -7.1500   24.8140 C   0  0  0  0  0  2  0  0  0  0  0  0
  -26.2370   -5.9480   25.1530 O   0  0  0  0  0  0  0  0  0  0  0  0
  -26.2260   -5.0270   24.0550 C   0  0  0  0  0  2  0  0  0  0  0  0
  -26.6270   -3.6060   24.4730 C   0  0  0  0  0  2  0  0  0  0  0  0
  -25.6090   -2.9500   25.0360 F   0  0  0  0  0  0  0  0  0  0  0  0
  2  1  2  0
  4  5  2  0
  4  3  1  0
  5  1  1  0
  6  2  1  0
  6  3  2  0
  7  4  1  0
  8 11  1  0
 10  8  2  0
 11  5  1  0
 11113  1  0
 12  9  1  0
 12 10  1  0
 12 13  1  6
 14 22  1  0
 15 20  1  0
 16 17  1  0
 16 15  1  0
 18 17  1  0
 18 27  1  0
 18 19  1  0
 20 19  1  0
 20 14  1  0
 21 14  2  0
 22 23  1  0
 22  6  1  0
 24 25  2  0
 25 44  1  0
 26 29  1  0
 26 25  1  0
 27 28  1  0
 27 24  1  0
 28 26  2  0
 29 30  1  0
 30 31  2  0
 32 35  1  0
 32 31  1  0
 33 32  2  0
 34 33  1  0
 34 29  2  0
 35 36  1  0
 36 37  1  0
 37 38  2  0
 39 38  1  0
 39 43  1  0
 40 39  2  0
 41 36  2  0
 41 40  1  0
 42 41  1  0
 44 45  1  0
 45 47  1  0
 45 48  1  0
 46 44  2  0
 49 24  1  0
 49 50  1  0
 51 49  1  0
 52 12  1  0
 53 52  1  0
 54 53  1  0
 55 54  1  0
 56 57  1  0
 56 55  1  0
 57 58  1  0
 58 59  1  0
 59 60  1  0
 60 61  1  0
 61 62  1  0
 62 63  1  0
 64 66  2  0
 65 63  1  0
 65 64  1  0
 67 65  1  0
 68 64  1  0
 68 69  1  0
 70 69  1  0
 70 71  1  0
 72 74  1  0
 72 71  1  0
 73 84  2  0
 74 79  1  0
 75 83  1  0
 75 85  1  0
 76 82  1  0
 76 78  1  0
 77 83  1  0
 78 77  1  0
 79 78  2  0
 80 81  1  0
 80 74  2  0
 81 76  2  0
 82 75  1  0
 83 73  1  0
 85 87  2  0
 86 85  1  0
 88 86  1  0
 89 98  2  0
 89 94  1  0
 90 86  1  0
 90 94  1  0
 91 90  1  0
 92 93  1  0
 92 91  1  0
 93 89  1  0
 94 95  2  0
 95 96  1  0
 97 96  2  0
 98 97  1  0
 99 73  1  0
 99100  1  0
 99109  1  0
100103  1  0
101105  1  0
101100  1  0
102101  2  0
105104  1  0
107105  1  0
107108  1  0
107106  1  0
109112  1  1
109110  1  0
111109  1  0
113114  1  0
114115  1  0
115116  1  0
116117  1  0
118117  1  0
118119  1  0
120121  1  0
120119  1  0
122123  1  0
122121  1  0
123124  1  0
M  ISO  4  14 100  22 100  71 101  72 101
M  END
>  <TORSDO>  (33) 
F 44

>  <SCORE>  (33) 
95.783

>  <name>  (33) 
33

>  <ligand_id>  (33) 
33

>  <original_smiles>  (33) 
[H]c1c([H])c([H])c2c(c1[H])C([H])([H])C([H])([H])C([H])([H])C2([H])N([H])C(=O)C1([H])N(C(=O)C([H])(N([H])C(=O)C([H])(N([H])C([H])([H])[H])C([H])([H])[H])C(C([H])([H])[H])(C([H])([H])[H])C([H])([H])[H])C([H])([H])c2c([H])c(OC([H])([H])C([H])([H])OC([H])([H])C(=O)N([H])C([H])([H])C([H])([H])OC([H])([H])C([H])([H])OC([H])([H])C([H])([H])OC([H])([H])C([H])([H])C([H])([H])[N+]3([H])C([H])([H])C([H])([H])c4c([H])c(N([H])C(=O)N5C([H])([H])C([H])([H])C([H])([H])C([H])(n6nc(-c7c([H])c([H])c(Oc8c([H])c([H])c(F)c([H])c8F)c([H])c7[H])c(C(=O)N([H])[H])c6N([H])[H])C5([H])[H])c([H])c([H])c4N(C([H])([H])C([H])([H])OC([H])([H])C([H])([H])OC([H])([H])C([H])([H])OC([H])([H])C([H])([H])F)C([H])([H])C3([H])[H])c([H])c([H])c2C1([H])[H]

>  <smiles>  (33) 
[H]c1c([H])c([H])c2c(c1[H])C([H])([H])C([H])([H])C([H])([H])C2([H])N([H])C(=O)C1([H])N(C(=O)C([H])(N([H])C(=O)C([H])(N([H])C([H])([H])[H])C([H])([H])[H])C(C([H])([H])[H])(C([H])([H])[H])C([H])([H])[H])C([H])([H])c2c([H])c(OC([H])([H])C([H])([H])OC([H])([H])C(=O)N([H])C([H])([H])C([H])([H])OC([H])([H])C([H])([H])OC([H])([H])C([H])([H])OC([H])([H])C([H])([H])C([H])([H])[N+]3([H])C([H])([H])C([H])([H])c4c([H])c(N([H])C(=O)N5C([H])([H])C([H])([H])C([H])([H])C([H])(n6nc(-c7c([H])c([H])c(Oc8c([H])c([H])c(F)c([H])c8F)c([H])c7[H])c(C(=O)N([H])[H])c6N([H])[H])C5([H])[H])c([H])c([H])c4N(C([H])([H])C([H])([H])OC([H])([H])C([H])([H])OC([H])([H])C([H])([H])OC([H])([H])C([H])([H])F)C([H])([H])C3([H])[H])c([H])c([H])c2C1([H])[H]

$$$$
34:0:0
     RDKit          3D

104113  0  0  1  0  0  0  0  0999 V2000
  -29.4100  -21.2910   23.2870 C   0  0  0  0  0  2  0  0  0  0  0  0
  -30.0290  -20.0160   23.9120 C   0  0  0  0  0  2  0  0  0  0  0  0
  -31.3930  -19.6440   23.2640 C   0  0  0  0  0  2  0  0  0  0  0  0
  -30.6540  -18.1060   21.4370 C   0  0  0  0  0  0  0  0  0  0  0  0
  -31.2690  -19.2220   21.8650 N   0  0  0  0  0  0  0  0  0  0  0  0
  -30.1850  -17.2730   22.2160 O   0  0  0  0  0  0  0  0  0  0  0  0
  -31.6900  -19.8130   21.1550 H   0  0  0  0  0  0  0  0  0  0  0  0
  -30.5070  -17.9150   19.9190 C   0  0  0  0  0  2  0  0  0  0  0  0
  -28.5590  -19.3140   19.2490 C   0  0  0  0  0  0  0  0  0  0  0  0
  -29.8770  -19.0730   19.2830 N   0  0  0  0  0  0  0  0  0  0  0  0
  -27.7230  -18.5790   19.7850 O   0  0  0  0  0  0  0  0  0  0  0  0
  -30.4820  -19.7470   18.8260 H   0  0  0  0  0  0  0  0  0  0  0  0
  -25.8470  -20.1090   17.6720 C   0  0  0  0  0  0  0  0  0  0  0  0
  -23.6830  -19.9700   16.4590 C   0  0  0  0  0  2  0  0  0  0  0  0
  -23.3650  -21.3240   15.7960 C   0  0  0  0  0  2  0  0  0  0  0  0
  -22.5930  -22.2300   16.7750 C   0  0  0  0  0  2  0  0  0  0  0  0
  -23.2370  -22.2750   18.1840 C   0  0  0  0  0  3  0  0  0  0  0  0
  -23.6150  -20.8580   18.6860 C   0  0  0  0  0  2  0  0  0  0  0  0
  -24.4840  -20.2500   17.6710 N   0  0  0  0  0  0  0  0  0  0  0  0
  -26.3810  -19.4040   16.8090 O   0  0  0  0  0  0  0  0  0  0  0  0
  -27.7610  -22.3980   20.0340 C   0  0  0  0  0  3  0  0  0  0  0  0
  -28.8210  -21.8160   19.1280 C   0  0  0  0  0  2  0  0  0  0  0  0
  -26.4320  -22.0220   19.3550 C   0  0  0  0  0  2  0  0  0  0  0  0
  -28.1390  -20.5820   18.4940 C   0  0  0  0  0  3  0  0  0  0  0  0
  -26.6700  -20.8250   18.5120 N   0  0  0  0  0  0  0  0  0  0  0  0
  -22.7720  -23.8580   20.1520 C   0  0  0  0  0  0  0  0  0  0  0  0
  -21.6100  -24.2870   20.7190 C   0  0  0  0  0  0  0  0  0  0  0  0
  -20.5520  -23.6250   20.0170 C   0  0  0  0  0  0  0  0  0  0  0  0
  -22.3990  -22.9750   19.1490 N   0  0  0  0  0  0  0  0  0  0  0  0
  -21.0550  -22.7870   19.1200 N   0  0  0  0  0  0  0  0  0  0  0  0
  -19.0960  -23.7830   20.1040 C   0  0  0  0  0  0  0  0  0  0  0  0
  -18.2510  -22.7120   20.4730 C   0  0  0  0  0  3  0  0  0  0  0  0
  -16.8560  -22.8990   20.5710 C   0  0  0  0  0  3  0  0  0  0  0  0
  -16.2880  -24.1660   20.2960 C   0  0  0  0  0  0  0  0  0  0  0  0
  -17.1280  -25.2220   19.9080 C   0  0  0  0  0  3  0  0  0  0  0  0
  -18.5170  -25.0330   19.8070 C   0  0  0  0  0  3  0  0  0  0  0  0
  -14.9420  -24.4290   20.3320 O   0  0  0  0  0  0  0  0  0  0  0  0
  -14.0890  -23.7310   21.1510 C   0  0  0  0  0  0  0  0  0  0  0  0
  -14.3740  -23.5260   22.5180 C   0  0  0  0  0  3  0  0  0  0  0  0
  -13.4430  -22.8560   23.3350 C   0  0  0  0  0  3  0  0  0  0  0  0
  -12.2290  -22.3970   22.7940 C   0  0  0  0  0  0  0  0  0  0  0  0
  -11.9380  -22.6110   21.4360 C   0  0  0  0  0  3  0  0  0  0  0  0
  -12.8680  -23.2750   20.6140 C   0  0  0  0  0  0  0  0  0  0  0  0
  -12.5770  -23.4930   19.3080 F   0  0  0  0  0  0  0  0  0  0  0  0
  -11.3290  -21.7660   23.5840 F   0  0  0  0  0  0  0  0  0  0  0  0
  -21.4690  -25.3290   21.7880 C   0  0  0  0  0  0  0  0  0  0  0  0
  -20.4440  -25.2160   22.6270 N   0  0  0  0  0  0  0  0  0  0  0  0
  -22.3040  -26.2280   21.9170 O   0  0  0  0  0  0  0  0  0  0  0  0
  -19.7680  -24.4740   22.5300 H   0  0  0  0  0  0  0  0  0  0  0  0
  -20.3430  -25.8750   23.3850 H   0  0  0  0  0  0  0  0  0  0  0  0
  -24.1170  -24.1610   20.3730 N   0  0  0  0  0  0  0  0  0  0  0  0
  -24.4200  -24.8680   21.0320 H   0  0  0  0  0  0  0  0  0  0  0  0
  -24.8720  -23.7780   19.8250 H   0  0  0  0  0  0  0  0  0  0  0  0
  -27.9450  -21.6820   23.6630 C   0  0  0  0  0  2  0  0  0  0  0  0
  -26.5080  -23.7640   24.4170 C   0  0  0  0  0  1  0  0  0  0  0  0
  -27.7110  -23.2290   23.6020 C   0  0  0  0  0  3  0  0  0  0  0  0
  -27.6400  -23.8020   22.1670 C   0  0  0  0  0  3  0  0  0  0  0  0
  -27.6990  -25.1350   22.0600 N   0  0  0  0  0  0  0  0  0  0  0  0
  -27.5290  -23.0610   21.1900 O   0  0  0  0  0  0  0  0  0  0  0  0
  -27.7490  -25.6340   22.9360 H   0  0  0  0  0  0  0  0  0  0  0  0
  -27.5530  -25.9380   20.8400 C   0  0  0  0  0  2  0  0  0  0  0  0
  -28.8900  -26.2400   20.1230 C   0  0  0  0  0  2  0  0  0  0  0  0
  -28.8680  -27.5280   19.2520 C   0  0  0  0  0  2  0  0  0  0  0  0
  -27.8170  -27.5660   18.2670 O   0  0  0  0  0  0  0  0  0  0  0  0
  -24.4740  -31.8730   22.8620 C   0  0  0  0  0  0  0  0  0  0  0  0
  -26.7320  -28.3780   18.5380 C   0  0  0  0  0  0  0  0  0  0  0  0
  -23.1140  -31.0290   20.9790 C   0  0  0  0  0  3  0  0  0  0  0  0
  -24.4150  -29.9120   19.0870 C   0  0  0  0  0  0  0  0  0  0  0  0
  -25.6390  -31.3590   20.7230 C   0  0  0  0  0  2  0  0  0  0  0  0
  -25.6250  -30.2230   19.7190 C   0  0  0  0  0  0  0  0  0  0  0  0
  -26.7880  -29.4690   19.4410 C   0  0  0  0  0  3  0  0  0  0  0  0
  -25.5140  -28.1030   17.8870 C   0  0  0  0  0  3  0  0  0  0  0  0
  -24.3520  -28.8500   18.1660 C   0  0  0  0  0  3  0  0  0  0  0  0
  -23.2110  -30.7480   19.4560 C   0  0  0  0  0  2  0  0  0  0  0  0
  -24.4320  -31.4110   21.5770 N   0  0  0  0  0  0  0  0  0  0  0  0
  -23.4410  -32.0250   23.5230 O   0  0  0  0  0  0  0  0  0  0  0  0
  -22.4630  -29.8050   21.6670 C   0  0  0  0  0  0  0  0  0  0  0  0
  -21.1400  -29.8770   21.8880 N   0  0  0  0  0  0  0  0  0  0  0  0
  -23.1340  -28.8110   21.9660 O   0  0  0  0  0  0  0  0  0  0  0  0
  -20.6670  -30.7280   21.6150 H   0  0  0  0  0  0  0  0  0  0  0  0
  -17.8610  -29.1760   23.2480 C   0  0  0  0  0  0  0  0  0  0  0  0
  -20.3030  -28.8300   22.4810 C   0  0  0  0  0  3  0  0  0  0  0  0
  -19.7250  -27.9070   21.3860 C   0  0  0  0  0  2  0  0  0  0  0  0
  -18.3350  -28.3340   20.9060 C   0  0  0  0  0  2  0  0  0  0  0  0
  -17.3460  -28.3530   22.0760 C   0  0  0  0  0  2  0  0  0  0  0  0
  -19.2500  -29.4100   23.4270 C   0  0  0  0  0  0  0  0  0  0  0  0
  -19.6780  -30.2020   24.5120 C   0  0  0  0  0  3  0  0  0  0  0  0
  -18.7440  -30.7630   25.4030 C   0  0  0  0  0  3  0  0  0  0  0  0
  -17.3710  -30.5080   25.2380 C   0  0  0  0  0  3  0  0  0  0  0  0
  -16.9320  -29.7110   24.1660 C   0  0  0  0  0  3  0  0  0  0  0  0
  -25.8200  -32.2650   23.5430 C   0  0  0  0  0  3  0  0  0  0  0  0
  -25.6660  -33.6290   24.0630 N   0  0  0  0  0  0  0  0  0  0  0  0
  -26.1090  -34.7290   23.4390 C   0  0  0  0  0  0  0  0  0  0  0  0
  -26.7550  -34.6940   22.3900 O   0  0  0  0  0  0  0  0  0  0  0  0
  -25.0810  -33.7390   24.8790 H   0  0  0  0  0  0  0  0  0  0  0  0
  -24.5910  -36.7300   23.3890 C   0  0  0  0  0  1  0  0  0  0  0  0
  -25.7940  -36.0850   24.0900 C   0  0  0  0  0  3  0  0  0  0  0  0
  -28.0340  -36.6190   24.9420 C   0  0  0  0  0  1  0  0  0  0  0  0
  -26.9300  -37.0290   24.0760 N   0  0  0  0  0  0  0  0  0  0  0  0
  -26.6320  -37.9570   24.3670 H   0  0  0  0  0  0  0  0  0  0  0  0
  -26.2440  -31.2660   24.6880 C   0  0  1  0  0  0  0  0  0  0  0  0
  -25.1190  -30.9790   25.7150 C   0  0  0  0  0  1  0  0  0  0  0  0
  -26.6740  -29.9030   24.0880 C   0  0  0  0  0  1  0  0  0  0  0  0
  -27.4780  -31.8260   25.4380 C   0  0  0  0  0  1  0  0  0  0  0  0
  1 54  1  0
  1  2  1  0
  3  2  1  0
  4  5  1  0
  4  6  2  0
  5  3  1  0
  7  5  1  0
  8  4  1  0
  9 10  1  0
  9 11  2  0
 10  8  1  0
 12 10  1  0
 13 25  1  0
 14 19  1  0
 15 14  1  0
 15 16  1  0
 17 16  1  0
 17 18  1  0
 17 29  1  0
 19 13  1  0
 19 18  1  0
 20 13  2  0
 21 22  1  0
 21 59  1  0
 23 21  1  0
 24 25  1  0
 24 22  1  0
 24  9  1  0
 25 23  1  0
 26 51  1  0
 26 27  2  0
 27 46  1  0
 28 31  1  0
 28 27  1  0
 29 26  1  0
 30 29  1  0
 30 28  2  0
 31 32  1  0
 32 33  2  0
 34 37  1  0
 34 33  1  0
 35 34  2  0
 36 35  1  0
 36 31  2  0
 37 38  1  0
 38 39  1  0
 39 40  2  0
 41 40  1  0
 41 45  1  0
 42 41  2  0
 43 38  2  0
 43 42  1  0
 44 43  1  0
 46 48  2  0
 46 47  1  0
 47 50  1  0
 49 47  1  0
 51 52  1  0
 53 51  1  0
 56 54  1  0
 56 55  1  0
 57 58  1  0
 57 56  1  0
 58 60  1  0
 59 57  1  0
 61 58  1  0
 62 61  1  0
 63 62  1  0
 64 66  1  0
 64 63  1  0
 65 76  2  0
 66 71  1  0
 67 75  1  0
 67 77  1  0
 68 74  1  0
 68 70  1  0
 69 75  1  0
 70 69  1  0
 71 70  2  0
 72 73  1  0
 72 66  2  0
 73 68  2  0
 74 67  1  0
 75 65  1  0
 77 78  1  0
 77 79  2  0
 80 78  1  0
 81 86  2  0
 81 90  1  0
 82 78  1  0
 82 86  1  0
 83 82  1  0
 84 83  1  0
 84 85  1  0
 85 81  1  0
 86 87  1  0
 87 88  2  0
 89 88  1  0
 90 89  2  0
 91 65  1  0
 91 92  1  0
 91101  1  0
 92 95  1  0
 93 92  1  0
 93 97  1  0
 94 93  2  0
 97 96  1  0
 99 97  1  0
 99100  1  0
 99 98  1  0
101104  1  1
101102  1  0
103101  1  0
M  ISO  4  13 100  25 100  63 101  64 101
M  END
>  <TORSDO>  (34) 
F 27

>  <SCORE>  (34) 
14.046

>  <name>  (34) 
34

>  <ligand_id>  (34) 
34

>  <original_smiles>  (34) 
[H]c1c([H])c([H])c2c(c1[H])C([H])([H])C([H])([H])C([H])([H])C2([H])N([H])C(=O)C1([H])N(C(=O)C([H])(N([H])C(=O)C([H])(N([H])C([H])([H])[H])C([H])([H])[H])C(C([H])([H])[H])(C([H])([H])[H])C([H])([H])[H])C([H])([H])c2c([H])c(OC([H])([H])C([H])([H])C([H])([H])N([H])C(=O)C([H])(C([H])([H])[H])C([H])([H])C([H])([H])C([H])([H])C([H])([H])N([H])C(=O)C([H])([H])N([H])C(=O)C3([H])N(C(=O)N4C([H])([H])C([H])([H])C([H])([H])C([H])(n5nc(-c6c([H])c([H])c(Oc7c([H])c([H])c(F)c([H])c7F)c([H])c6[H])c(C(=O)N([H])[H])c5N([H])[H])C4([H])[H])C([H])([H])C([H])([H])C3([H])[H])c([H])c([H])c2C1([H])[H]

>  <smiles>  (34) 
[H]c1c([H])c([H])c2c(c1[H])C([H])([H])C([H])([H])C([H])([H])C2([H])N([H])C(=O)C1([H])N(C(=O)C([H])(N([H])C(=O)C([H])(N([H])C([H])([H])[H])C([H])([H])[H])C(C([H])([H])[H])(C([H])([H])[H])C([H])([H])[H])C([H])([H])c2c([H])c(OC([H])([H])C([H])([H])C([H])([H])N([H])C(=O)C([H])(C([H])([H])[H])C([H])([H])C([H])([H])C([H])([H])C([H])([H])N([H])C(=O)C([H])([H])N([H])C(=O)C3([H])N(C(=O)N4C([H])([H])C([H])([H])C([H])([H])C([H])(n5nc(-c6c([H])c([H])c(Oc7c([H])c([H])c(F)c([H])c7F)c([H])c6[H])c(C(=O)N([H])[H])c5N([H])[H])C4([H])[H])C([H])([H])C([H])([H])C3([H])[H])c([H])c([H])c2C1([H])[H]

$$$$
35:0:0
     RDKit          3D

111118  0  0  1  0  0  0  0  0999 V2000
  -28.8050  -21.7280   24.8390 O   0  0  0  0  0  0  0  0  0  0  0  0
  -28.3960  -22.8940   25.5500 C   0  0  0  0  0  2  0  0  0  0  0  0
  -26.8950  -23.1770   25.2940 C   0  0  0  0  0  2  0  0  0  0  0  0
  -26.6450  -23.5750   23.9450 O   0  0  0  0  0  0  0  0  0  0  0  0
  -25.2540  -23.8010   23.6970 C   0  0  0  0  0  2  0  0  0  0  0  0
  -24.9760  -24.1370   22.2220 C   0  0  0  0  0  2  0  0  0  0  0  0
  -25.0250  -22.9650   21.4100 O   0  0  0  0  0  0  0  0  0  0  0  0
  -24.6940  -23.1910   20.0430 C   0  0  0  0  0  2  0  0  0  0  0  0
  -24.7960  -21.8840   19.2150 C   0  0  0  0  0  2  0  0  0  0  0  0
  -26.1530  -21.5130   18.9540 O   0  0  0  0  0  0  0  0  0  0  0  0
  -26.3190  -20.2990   18.2210 C   0  0  0  0  0  2  0  0  0  0  0  0
  -27.8100  -20.0550   17.8670 C   0  0  0  0  0  2  0  0  0  0  0  0
  -28.6590  -17.6490   18.0010 C   0  0  0  0  0  0  0  0  0  0  0  0
  -28.0550  -18.6850   17.3780 N   0  0  0  0  0  0  0  0  0  0  0  0
  -28.6300  -16.5280   17.4980 O   0  0  0  0  0  0  0  0  0  0  0  0
  -27.7050  -18.4840   16.4510 H   0  0  0  0  0  0  0  0  0  0  0  0
  -29.4180  -17.8870   19.3200 C   0  0  0  0  0  2  0  0  0  0  0  0
  -30.4660  -16.8340   19.7750 C   0  0  0  0  0  2  0  0  0  0  0  0
  -30.7030  -14.4690   20.4100 C   0  0  0  0  0  0  0  0  0  0  0  0
  -30.4070  -12.2760   19.4000 C   0  0  0  0  0  2  0  0  0  0  0  0
  -29.4680  -12.4340   18.1870 C   0  0  0  0  0  2  0  0  0  0  0  0
  -27.9930  -12.3180   18.6110 C   0  0  0  0  0  2  0  0  0  0  0  0
  -27.6400  -13.2020   19.8320 C   0  0  0  0  0  3  0  0  0  0  0  0
  -28.6880  -13.0760   20.9610 C   0  0  0  0  0  2  0  0  0  0  0  0
  -30.0220  -13.2980   20.3810 N   0  0  0  0  0  0  0  0  0  0  0  0
  -31.9130  -14.5590   20.2180 O   0  0  0  0  0  0  0  0  0  0  0  0
  -29.9300  -15.5600   20.2910 N   0  0  0  0  0  0  0  0  0  0  0  0
  -28.9330  -15.4450   20.3800 H   0  0  0  0  0  0  0  0  0  0  0  0
  -25.2530  -13.8180   20.5460 C   0  0  0  0  0  0  0  0  0  0  0  0
  -24.1760  -13.0440   20.9110 C   0  0  0  0  0  0  0  0  0  0  0  0
  -24.6350  -11.6930   20.8700 C   0  0  0  0  0  0  0  0  0  0  0  0
  -26.2900  -12.9280   20.3140 N   0  0  0  0  0  0  0  0  0  0  0  0
  -25.9250  -11.6460   20.5700 N   0  0  0  0  0  0  0  0  0  0  0  0
  -23.9040  -10.4280   21.0440 C   0  0  0  0  0  0  0  0  0  0  0  0
  -24.3630   -9.4220   21.9200 C   0  0  0  0  0  3  0  0  0  0  0  0
  -23.6320   -8.2240   22.0750 C   0  0  0  0  0  3  0  0  0  0  0  0
  -22.4300   -8.0290   21.3560 C   0  0  0  0  0  0  0  0  0  0  0  0
  -21.9940   -9.0240   20.4660 C   0  0  0  0  0  3  0  0  0  0  0  0
  -22.7240  -10.2150   20.3070 C   0  0  0  0  0  3  0  0  0  0  0  0
  -21.6630   -6.8890   21.4250 O   0  0  0  0  0  0  0  0  0  0  0  0
  -21.6840   -6.0750   22.5260 C   0  0  0  0  0  0  0  0  0  0  0  0
  -21.3990   -6.5620   23.8210 C   0  0  0  0  0  3  0  0  0  0  0  0
  -21.3670   -5.6790   24.9150 C   0  0  0  0  0  3  0  0  0  0  0  0
  -21.6040   -4.3030   24.7210 C   0  0  0  0  0  0  0  0  0  0  0  0
  -21.8840   -3.8170   23.4310 C   0  0  0  0  0  3  0  0  0  0  0  0
  -21.9200   -4.6960   22.3400 C   0  0  0  0  0  0  0  0  0  0  0  0
  -22.1690   -4.2180   21.0960 F   0  0  0  0  0  0  0  0  0  0  0  0
  -21.5650   -3.4520   25.7710 F   0  0  0  0  0  0  0  0  0  0  0  0
  -22.7820  -13.5270   21.1900 C   0  0  0  0  0  0  0  0  0  0  0  0
  -22.0560  -12.8100   22.0430 N   0  0  0  0  0  0  0  0  0  0  0  0
  -22.3440  -14.5600   20.6920 O   0  0  0  0  0  0  0  0  0  0  0  0
  -22.4220  -11.9680   22.4600 H   0  0  0  0  0  0  0  0  0  0  0  0
  -21.1210  -13.1090   22.2850 H   0  0  0  0  0  0  0  0  0  0  0  0
  -25.4370  -15.1840   20.3770 N   0  0  0  0  0  0  0  0  0  0  0  0
  -24.7080  -15.8720   20.5200 H   0  0  0  0  0  0  0  0  0  0  0  0
  -26.3120  -15.5950   20.0820 H   0  0  0  0  0  0  0  0  0  0  0  0
  -29.8110  -20.9410   25.4750 C   0  0  0  0  0  2  0  0  0  0  0  0
  -30.1200  -19.7520   24.5460 C   0  0  0  0  0  2  0  0  0  0  0  0
  -28.9110  -19.0670   24.2490 O   0  0  0  0  0  0  0  0  0  0  0  0
  -29.0810  -17.6860   23.9790 C   0  0  0  0  0  2  0  0  0  0  0  0
  -27.7880  -17.0640   23.4250 C   0  0  0  0  0  2  0  0  0  0  0  0
  -27.6030  -17.3620   22.0470 O   0  0  0  0  0  0  0  0  0  0  0  0
  -26.5200  -18.2230   21.7100 C   0  0  0  0  0  2  0  0  0  0  0  0
  -26.8000  -19.6970   22.0450 C   0  0  0  0  0  2  0  0  0  0  0  0
  -27.9840  -20.2160   21.4200 O   0  0  0  0  0  0  0  0  0  0  0  0
  -27.9850  -21.6320   21.5680 C   0  0  0  0  0  2  0  0  0  0  0  0
  -29.2300  -22.4250   21.1510 C   0  0  0  0  0  2  0  0  0  0  0  0
  -28.9890  -23.1390   19.9380 O   0  0  0  0  0  0  0  0  0  0  0  0
  -29.4670  -24.4950   19.9320 C   0  0  0  0  0  2  0  0  0  0  0  0
  -28.4860  -25.4980   20.5980 C   0  0  0  0  0  2  0  0  0  0  0  0
  -28.4700  -26.7900   19.9800 O   0  0  0  0  0  0  0  0  0  0  0  0
  -24.6170  -31.8700   23.2070 C   0  0  0  0  0  0  0  0  0  0  0  0
  -27.2730  -27.4730   20.0550 C   0  0  0  0  0  0  0  0  0  0  0  0
  -23.4030  -30.4890   21.5530 C   0  0  0  0  0  3  0  0  0  0  0  0
  -24.8510  -28.9400   20.1310 C   0  0  0  0  0  0  0  0  0  0  0  0
  -25.9350  -30.8400   21.3570 C   0  0  0  0  0  2  0  0  0  0  0  0
  -26.0160  -29.4820   20.6880 C   0  0  0  0  0  0  0  0  0  0  0  0
  -27.2300  -28.7600   20.6300 C   0  0  0  0  0  3  0  0  0  0  0  0
  -26.0830  -26.9330   19.5190 C   0  0  0  0  0  3  0  0  0  0  0  0
  -24.8720  -27.6570   19.5550 C   0  0  0  0  0  3  0  0  0  0  0  0
  -23.6100  -29.8020   20.1790 C   0  0  0  0  0  2  0  0  0  0  0  0
  -24.6700  -31.0780   22.0980 N   0  0  0  0  0  0  0  0  0  0  0  0
  -23.5350  -32.1440   23.7460 O   0  0  0  0  0  0  0  0  0  0  0  0
  -22.7410  -29.4700   22.5060 C   0  0  0  0  0  0  0  0  0  0  0  0
  -21.4160  -29.2990   22.3700 N   0  0  0  0  0  0  0  0  0  0  0  0
  -23.4170  -28.8260   23.3110 O   0  0  0  0  0  0  0  0  0  0  0  0
  -20.9380  -29.8570   21.6790 H   0  0  0  0  0  0  0  0  0  0  0  0
  -18.0290  -28.1380   22.8490 C   0  0  0  0  0  0  0  0  0  0  0  0
  -20.5870  -28.3670   23.1330 C   0  0  0  0  0  3  0  0  0  0  0  0
  -20.6790  -26.9420   22.5410 C   0  0  0  0  0  2  0  0  0  0  0  0
  -19.5760  -26.6380   21.5220 C   0  0  0  0  0  2  0  0  0  0  0  0
  -18.1940  -26.7930   22.1640 C   0  0  0  0  0  2  0  0  0  0  0  0
  -19.1540  -28.8850   23.2890 C   0  0  0  0  0  0  0  0  0  0  0  0
  -18.9460  -30.1460   23.8880 C   0  0  0  0  0  3  0  0  0  0  0  0
  -17.6450  -30.6580   24.0560 C   0  0  0  0  0  3  0  0  0  0  0  0
  -16.5350  -29.9070   23.6320 C   0  0  0  0  0  3  0  0  0  0  0  0
  -16.7280  -28.6480   23.0350 C   0  0  0  0  0  3  0  0  0  0  0  0
  -25.9030  -32.4830   23.8370 C   0  0  0  0  0  3  0  0  0  0  0  0
  -26.4420  -31.6620   25.0710 C   0  0  1  0  0  0  0  0  0  0  0  0
  -25.3700  -31.3710   26.1460 C   0  0  0  0  0  1  0  0  0  0  0  0
  -27.0260  -30.3060   24.6140 C   0  0  0  0  0  1  0  0  0  0  0  0
  -27.5980  -32.4360   25.7450 C   0  0  0  0  0  1  0  0  0  0  0  0
  -25.5890  -33.8620   24.2300 N   0  0  0  0  0  0  0  0  0  0  0  0
  -25.9050  -34.9440   23.5100 C   0  0  0  0  0  0  0  0  0  0  0  0
  -26.5610  -34.8910   22.4660 O   0  0  0  0  0  0  0  0  0  0  0  0
  -24.9990  -33.9790   25.0410 H   0  0  0  0  0  0  0  0  0  0  0  0
  -24.1510  -36.7300   23.2630 C   0  0  0  0  0  1  0  0  0  0  0  0
  -25.4120  -36.3070   24.0320 C   0  0  0  0  0  3  0  0  0  0  0  0
  -27.5580  -37.1790   24.8440 C   0  0  0  0  0  1  0  0  0  0  0  0
  -26.4300  -37.3740   23.9360 N   0  0  0  0  0  0  0  0  0  0  0  0
  -26.0210  -38.2830   24.1360 H   0  0  0  0  0  0  0  0  0  0  0  0
  1 57  1  0
  1  2  1  0
  3  2  1  0
  4  3  1  0
  5  4  1  0
  6  5  1  0
  7  6  1  0
  8  7  1  0
  9  8  1  0
 10  9  1  0
 11 10  1  0
 12 11  1  0
 13 17  1  0
 14 12  1  0
 14 13  1  0
 15 13  2  0
 16 14  1  0
 17 18  1  0
 18 27  1  0
 20 25  1  0
 21 22  1  0
 21 20  1  0
 23 22  1  0
 23 32  1  0
 23 24  1  0
 25 19  1  0
 25 24  1  0
 26 19  2  0
 27 28  1  0
 27 19  1  0
 29 30  2  0
 30 49  1  0
 31 30  1  0
 31 34  1  0
 32 29  1  0
 32 33  1  0
 33 31  2  0
 34 35  1  0
 35 36  2  0
 37 40  1  0
 37 36  1  0
 38 37  2  0
 39 38  1  0
 39 34  2  0
 40 41  1  0
 41 42  1  0
 42 43  2  0
 44 43  1  0
 44 48  1  0
 45 44  2  0
 46 41  2  0
 46 45  1  0
 47 46  1  0
 49 50  1  0
 50 53  1  0
 50 52  1  0
 51 49  2  0
 54 55  1  0
 54 29  1  0
 56 54  1  0
 58 57  1  0
 59 58  1  0
 60 59  1  0
 61 60  1  0
 62 61  1  0
 63 64  1  0
 63 62  1  0
 65 66  1  0
 65 64  1  0
 67 66  1  0
 68 67  1  0
 69 68  1  0
 69 70  1  0
 71 73  1  0
 71 70  1  0
 72 83  2  0
 73 78  1  0
 74 82  1  0
 74 84  1  0
 75 81  1  0
 75 77  1  0
 76 82  1  0
 77 76  1  0
 78 77  2  0
 79 80  1  0
 79 73  2  0
 80 75  2  0
 81 74  1  0
 82 72  1  0
 84 86  2  0
 85 84  1  0
 87 85  1  0
 88 97  2  0
 88 93  1  0
 89 85  1  0
 89 93  1  0
 90 89  1  0
 91 92  1  0
 91 90  1  0
 92 88  1  0
 93 94  2  0
 94 95  1  0
 96 95  2  0
 97 96  1  0
 98 72  1  0
 98103  1  0
 98 99  1  0
 99102  1  1
 99100  1  0
101 99  1  0
103106  1  0
104108  1  0
104103  1  0
105104  2  0
108107  1  0
110108  1  0
110111  1  0
110109  1  0
M  ISO  4  19 100  27 100  70 101  71 101
M  END
>  <TORSDO>  (35) 
F 44

>  <SCORE>  (35) 
23.963

>  <name>  (35) 
35

>  <ligand_id>  (35) 
35

>  <original_smiles>  (35) 
[H]c1c([H])c([H])c2c(c1[H])C([H])([H])C([H])([H])C([H])([H])C2([H])N([H])C(=O)C1([H])N(C(=O)C([H])(N([H])C(=O)C([H])(N([H])C([H])([H])[H])C([H])([H])[H])C(C([H])([H])[H])(C([H])([H])[H])C([H])([H])[H])C([H])([H])c2c([H])c(OC([H])([H])C([H])([H])OC([H])([H])C([H])([H])OC([H])([H])C([H])([H])OC([H])([H])C([H])([H])OC([H])([H])C([H])([H])OC([H])([H])C([H])([H])OC([H])([H])C([H])([H])OC([H])([H])C([H])([H])OC([H])([H])C([H])([H])N([H])C(=O)C([H])([H])C([H])([H])N([H])C(=O)N3C([H])([H])C([H])([H])C([H])([H])C([H])(n4nc(-c5c([H])c([H])c(Oc6c([H])c([H])c(F)c([H])c6F)c([H])c5[H])c(C(=O)N([H])[H])c4N([H])[H])C3([H])[H])c([H])c([H])c2C1([H])[H]

>  <smiles>  (35) 
[H]c1c([H])c([H])c2c(c1[H])C([H])([H])C([H])([H])C([H])([H])C2([H])N([H])C(=O)C1([H])N(C(=O)C([H])(N([H])C(=O)C([H])(N([H])C([H])([H])[H])C([H])([H])[H])C(C([H])([H])[H])(C([H])([H])[H])C([H])([H])[H])C([H])([H])c2c([H])c(OC([H])([H])C([H])([H])OC([H])([H])C([H])([H])OC([H])([H])C([H])([H])OC([H])([H])C([H])([H])OC([H])([H])C([H])([H])OC([H])([H])C([H])([H])OC([H])([H])C([H])([H])OC([H])([H])C([H])([H])OC([H])([H])C([H])([H])N([H])C(=O)C([H])([H])C([H])([H])N([H])C(=O)N3C([H])([H])C([H])([H])C([H])([H])C([H])(n4nc(-c5c([H])c([H])c(Oc6c([H])c([H])c(F)c([H])c6F)c([H])c5[H])c(C(=O)N([H])[H])c4N([H])[H])C3([H])[H])c([H])c([H])c2C1([H])[H]

$$$$
36:0:0
     RDKit          3D

101108  0  0  1  0  0  0  0  0999 V2000
  -24.0090  -24.4640   15.4620 C   0  0  0  0  0  2  0  0  0  0  0  0
  -25.2250  -23.6760   15.9810 C   0  0  0  0  0  2  0  0  0  0  0  0
  -24.9190  -22.6560   17.0110 N   0  0  0  0  0  4  0  0  0  0  0  0
  -24.2550  -21.9940   16.6420 H   0  0  0  0  0  0  0  0  0  0  0  0
  -24.5090  -23.0990   17.8170 H   0  0  0  0  0  0  0  0  0  0  0  0
  -26.1500  -21.9410   17.4070 C   0  0  0  0  0  2  0  0  0  0  0  0
  -25.9830  -20.8520   18.4860 C   0  0  0  0  0  2  0  0  0  0  0  0
  -27.3680  -20.2410   18.7610 C   0  0  0  0  0  2  0  0  0  0  0  0
  -27.4530  -19.1020   19.7900 C   0  0  0  0  0  2  0  0  0  0  0  0
  -28.9350  -18.7260   19.9630 C   0  0  0  0  0  2  0  0  0  0  0  0
  -29.2300  -17.5210   20.8620 C   0  0  0  0  0  2  0  0  0  0  0  0
  -30.7540  -17.3130   20.9760 C   0  0  0  0  0  2  0  0  0  0  0  0
  -31.1910  -16.0970   21.8060 C   0  0  0  0  0  2  0  0  0  0  0  0
  -30.9570  -14.1550   20.2370 C   0  0  0  0  0  0  0  0  0  0  0  0
  -30.4880  -12.1060   18.9380 C   0  0  0  0  0  2  0  0  0  0  0  0
  -29.5130  -12.3680   17.7760 C   0  0  0  0  0  2  0  0  0  0  0  0
  -28.0500  -12.2800   18.2510 C   0  0  0  0  0  2  0  0  0  0  0  0
  -27.7920  -13.1220   19.5270 C   0  0  0  0  0  3  0  0  0  0  0  0
  -28.8570  -12.8130   20.6000 C   0  0  0  0  0  2  0  0  0  0  0  0
  -30.1920  -13.0570   20.0190 N   0  0  0  0  0  0  0  0  0  0  0  0
  -31.9350  -14.4590   19.5450 O   0  0  0  0  0  0  0  0  0  0  0  0
  -30.5960  -14.8600   21.3180 N   0  0  0  0  0  0  0  0  0  0  0  0
  -29.8230  -14.4880   21.8470 H   0  0  0  0  0  0  0  0  0  0  0  0
  -25.4360  -13.8400   20.2830 C   0  0  0  0  0  0  0  0  0  0  0  0
  -24.3480  -13.1170   20.6930 C   0  0  0  0  0  0  0  0  0  0  0  0
  -24.7520  -11.7470   20.6660 C   0  0  0  0  0  0  0  0  0  0  0  0
  -26.4390  -12.9130   20.0390 N   0  0  0  0  0  0  0  0  0  0  0  0
  -26.0300  -11.6510   20.3220 N   0  0  0  0  0  0  0  0  0  0  0  0
  -23.9830  -10.5180   20.8950 C   0  0  0  0  0  0  0  0  0  0  0  0
  -24.4090   -9.5440   21.8240 C   0  0  0  0  0  3  0  0  0  0  0  0
  -23.6430   -8.3770   22.0400 C   0  0  0  0  0  3  0  0  0  0  0  0
  -22.4390   -8.1770   21.3240 C   0  0  0  0  0  0  0  0  0  0  0  0
  -22.0310   -9.1410   20.3840 C   0  0  0  0  0  3  0  0  0  0  0  0
  -22.7960  -10.2980   20.1680 C   0  0  0  0  0  3  0  0  0  0  0  0
  -21.6440   -7.0630   21.4470 O   0  0  0  0  0  0  0  0  0  0  0  0
  -21.6060   -6.3310   22.6060 C   0  0  0  0  0  0  0  0  0  0  0  0
  -21.2730   -6.9180   23.8480 C   0  0  0  0  0  3  0  0  0  0  0  0
  -21.1770   -6.1170   25.0020 C   0  0  0  0  0  3  0  0  0  0  0  0
  -21.4030   -4.7280   24.9170 C   0  0  0  0  0  0  0  0  0  0  0  0
  -21.7300   -4.1420   23.6830 C   0  0  0  0  0  3  0  0  0  0  0  0
  -21.8270   -4.9420   22.5300 C   0  0  0  0  0  0  0  0  0  0  0  0
  -22.1200   -4.3680   21.3380 F   0  0  0  0  0  0  0  0  0  0  0  0
  -21.3040   -3.9570   26.0250 F   0  0  0  0  0  0  0  0  0  0  0  0
  -22.9790  -13.6520   20.9990 C   0  0  0  0  0  0  0  0  0  0  0  0
  -22.2520  -12.9980   21.8980 N   0  0  0  0  0  0  0  0  0  0  0  0
  -22.5650  -14.6870   20.4770 O   0  0  0  0  0  0  0  0  0  0  0  0
  -22.6020  -12.1620   22.3430 H   0  0  0  0  0  0  0  0  0  0  0  0
  -21.3340  -13.3390   22.1460 H   0  0  0  0  0  0  0  0  0  0  0  0
  -25.6500  -15.2000   20.0840 N   0  0  0  0  0  0  0  0  0  0  0  0
  -24.9140  -15.8870   20.2100 H   0  0  0  0  0  0  0  0  0  0  0  0
  -26.5170  -15.6020   19.7470 H   0  0  0  0  0  0  0  0  0  0  0  0
  -24.4180  -25.4440   14.3350 C   0  0  0  0  0  2  0  0  0  0  0  0
  -24.5570  -26.9360   14.7230 C   0  0  0  0  0  2  0  0  0  0  0  0
  -25.4010  -27.3040   15.9690 C   0  0  0  0  0  2  0  0  0  0  0  0
  -26.8860  -26.9070   15.9950 C   0  0  0  0  0  0  0  0  0  0  0  0
  -27.5580  -27.2980   17.0830 N   0  0  0  0  0  0  0  0  0  0  0  0
  -27.3940  -26.2180   15.1090 O   0  0  0  0  0  0  0  0  0  0  0  0
  -27.0570  -27.8760   17.7450 H   0  0  0  0  0  0  0  0  0  0  0  0
  -28.8380  -26.7760   17.5520 C   0  0  0  0  0  2  0  0  0  0  0  0
  -29.1730  -27.2800   18.9780 C   0  0  0  0  0  2  0  0  0  0  0  0
  -28.3030  -26.7540   19.9860 O   0  0  0  0  0  0  0  0  0  0  0  0
  -24.5570  -31.9060   23.2370 C   0  0  0  0  0  0  0  0  0  0  0  0
  -27.1390  -27.4630   20.1350 C   0  0  0  0  0  0  0  0  0  0  0  0
  -23.3240  -30.5070   21.6130 C   0  0  0  0  0  3  0  0  0  0  0  0
  -24.7520  -28.9490   20.1960 C   0  0  0  0  0  0  0  0  0  0  0  0
  -25.8510  -30.8540   21.3910 C   0  0  0  0  0  2  0  0  0  0  0  0
  -25.9190  -29.4820   20.7600 C   0  0  0  0  0  0  0  0  0  0  0  0
  -27.1210  -28.7430   20.7270 C   0  0  0  0  0  3  0  0  0  0  0  0
  -25.9450  -26.9100   19.6320 C   0  0  0  0  0  3  0  0  0  0  0  0
  -24.7540  -27.6570   19.6400 C   0  0  0  0  0  3  0  0  0  0  0  0
  -23.5150  -29.8150   20.2380 C   0  0  0  0  0  2  0  0  0  0  0  0
  -24.5970  -31.1000   22.1400 N   0  0  0  0  0  0  0  0  0  0  0  0
  -23.4810  -32.1920   23.7830 O   0  0  0  0  0  0  0  0  0  0  0  0
  -22.6730  -29.4950   22.5820 C   0  0  0  0  0  0  0  0  0  0  0  0
  -21.3470  -29.3300   22.4670 N   0  0  0  0  0  0  0  0  0  0  0  0
  -23.3570  -28.8630   23.3910 O   0  0  0  0  0  0  0  0  0  0  0  0
  -20.8600  -29.8930   21.7840 H   0  0  0  0  0  0  0  0  0  0  0  0
  -17.9650  -28.1700   22.9810 C   0  0  0  0  0  0  0  0  0  0  0  0
  -20.5250  -28.4050   23.2450 C   0  0  0  0  0  3  0  0  0  0  0  0
  -20.6130  -26.9680   22.6790 C   0  0  0  0  0  2  0  0  0  0  0  0
  -19.5050  -26.6500   21.6710 C   0  0  0  0  0  2  0  0  0  0  0  0
  -18.1270  -26.8130   22.3170 C   0  0  0  0  0  2  0  0  0  0  0  0
  -19.0920  -28.9240   23.4040 C   0  0  0  0  0  0  0  0  0  0  0  0
  -18.8860  -30.1970   23.9820 C   0  0  0  0  0  3  0  0  0  0  0  0
  -17.5870  -30.7110   24.1460 C   0  0  0  0  0  3  0  0  0  0  0  0
  -16.4750  -29.9540   23.7440 C   0  0  0  0  0  3  0  0  0  0  0  0
  -16.6640  -28.6870   23.1650 C   0  0  0  0  0  3  0  0  0  0  0  0
  -25.8560  -32.5230   23.8450 C   0  0  0  0  0  3  0  0  0  0  0  0
  -26.3890  -31.7380   25.1060 C   0  0  1  0  0  0  0  0  0  0  0  0
  -25.3130  -31.5040   26.1920 C   0  0  0  0  0  1  0  0  0  0  0  0
  -26.9560  -30.3590   24.6920 C   0  0  0  0  0  1  0  0  0  0  0  0
  -27.5550  -32.5230   25.7520 C   0  0  0  0  0  1  0  0  0  0  0  0
  -25.5620  -33.9200   24.1830 N   0  0  0  0  0  0  0  0  0  0  0  0
  -25.8990  -34.9710   23.4250 C   0  0  0  0  0  0  0  0  0  0  0  0
  -26.5590  -34.8690   22.3860 O   0  0  0  0  0  0  0  0  0  0  0  0
  -24.9690  -34.0780   24.9850 H   0  0  0  0  0  0  0  0  0  0  0  0
  -24.1740  -36.7740   23.1070 C   0  0  0  0  0  1  0  0  0  0  0  0
  -25.4250  -36.3590   23.8950 C   0  0  0  0  0  3  0  0  0  0  0  0
  -27.5800  -37.2260   24.6940 C   0  0  0  0  0  1  0  0  0  0  0  0
  -26.4610  -37.4090   23.7740 N   0  0  0  0  0  0  0  0  0  0  0  0
  -26.0620  -38.3290   23.9400 H   0  0  0  0  0  0  0  0  0  0  0  0
  1  2  1  0
  2  3  1  0
  3  6  1  0
  3  5  1  0
  4  3  1  0
  6  7  1  0
  7  8  1  0
  8  9  1  0
  9 10  1  0
 10 11  1  0
 11 12  1  0
 12 13  1  0
 14 22  1  0
 15 20  1  0
 16 17  1  0
 16 15  1  0
 18 17  1  0
 18 27  1  0
 18 19  1  0
 20 14  1  0
 20 19  1  0
 21 14  2  0
 22 13  1  0
 22 23  1  0
 24 25  2  0
 25 44  1  0
 26 25  1  0
 26 29  1  0
 27 24  1  0
 27 28  1  0
 28 26  2  0
 29 30  1  0
 30 31  2  0
 32 35  1  0
 32 31  1  0
 33 32  2  0
 34 33  1  0
 34 29  2  0
 35 36  1  0
 36 37  1  0
 37 38  2  0
 39 38  1  0
 39 43  1  0
 40 39  2  0
 41 36  2  0
 41 40  1  0
 42 41  1  0
 44 45  1  0
 45 48  1  0
 45 47  1  0
 46 44  2  0
 49 50  1  0
 49 24  1  0
 51 49  1  0
 52 53  1  0
 52  1  1  0
 53 54  1  0
 54 55  1  0
 55 56  1  0
 56 59  1  0
 56 58  1  0
 57 55  2  0
 59 60  1  0
 60 61  1  0
 61 63  1  0
 62 73  2  0
 63 68  1  0
 64 72  1  0
 64 74  1  0
 65 71  1  0
 65 67  1  0
 66 72  1  0
 67 66  1  0
 68 67  2  0
 69 70  1  0
 69 63  2  0
 70 65  2  0
 71 64  1  0
 72 62  1  0
 74 76  2  0
 75 74  1  0
 77 75  1  0
 78 87  2  0
 78 83  1  0
 79 75  1  0
 79 83  1  0
 80 79  1  0
 81 82  1  0
 81 80  1  0
 82 78  1  0
 83 84  2  0
 84 85  1  0
 86 85  2  0
 87 86  1  0
 88 62  1  0
 88 93  1  0
 88 89  1  0
 89 92  1  1
 89 90  1  0
 91 89  1  0
 93 96  1  0
 94 98  1  0
 94 93  1  0
 95 94  2  0
 98 97  1  0
100 98  1  0
100101  1  0
100 99  1  0
M  ISO  4  14 100  22 100  60 101  61 101
M  END
>  <TORSDO>  (36) 
F 32

>  <SCORE>  (36) 
-9.860

>  <name>  (36) 
36

>  <ligand_id>  (36) 
36

>  <original_smiles>  (36) 
[H]c1c([H])c([H])c2c(c1[H])C([H])([H])C([H])([H])C([H])([H])C2([H])N([H])C(=O)C1([H])N(C(=O)C([H])(N([H])C(=O)C([H])(N([H])C([H])([H])[H])C([H])([H])[H])C(C([H])([H])[H])(C([H])([H])[H])C([H])([H])[H])C([H])([H])c2c([H])c(OC([H])([H])C([H])([H])N([H])C(=O)C([H])([H])C([H])([H])C([H])([H])C([H])([H])C([H])([H])[N+]([H])([H])C([H])([H])C([H])([H])C([H])([H])C([H])([H])C([H])([H])C([H])([H])C([H])([H])C([H])([H])N([H])C(=O)N3C([H])([H])C([H])([H])C([H])([H])C([H])(n4nc(-c5c([H])c([H])c(Oc6c([H])c([H])c(F)c([H])c6F)c([H])c5[H])c(C(=O)N([H])[H])c4N([H])[H])C3([H])[H])c([H])c([H])c2C1([H])[H]

>  <smiles>  (36) 
[H]c1c([H])c([H])c2c(c1[H])C([H])([H])C([H])([H])C([H])([H])C2([H])N([H])C(=O)C1([H])N(C(=O)C([H])(N([H])C(=O)C([H])(N([H])C([H])([H])[H])C([H])([H])[H])C(C([H])([H])[H])(C([H])([H])[H])C([H])([H])[H])C([H])([H])c2c([H])c(OC([H])([H])C([H])([H])N([H])C(=O)C([H])([H])C([H])([H])C([H])([H])C([H])([H])C([H])([H])[N+]([H])([H])C([H])([H])C([H])([H])C([H])([H])C([H])([H])C([H])([H])C([H])([H])C([H])([H])C([H])([H])N([H])C(=O)N3C([H])([H])C([H])([H])C([H])([H])C([H])(n4nc(-c5c([H])c([H])c(Oc6c([H])c([H])c(F)c([H])c6F)c([H])c5[H])c(C(=O)N([H])[H])c4N([H])[H])C3([H])[H])c([H])c([H])c2C1([H])[H]

$$$$
37:0:0
     RDKit          3D

102110  0  0  1  0  0  0  0  0999 V2000
  -29.7590  -18.7550   18.8210 C   0  0  0  0  0  2  0  0  0  0  0  0
  -30.5310  -22.5280   18.5940 C   0  0  0  0  0  2  0  0  0  0  0  0
  -28.2080  -22.3280   18.8910 C   0  0  0  0  0  2  0  0  0  0  0  0
  -30.7340  -21.0150   18.8640 C   0  0  0  0  0  2  0  0  0  0  0  0
  -28.3370  -20.8040   19.1660 C   0  0  0  0  0  2  0  0  0  0  0  0
  -29.3950  -23.0570   19.3650 N   0  0  0  0  0  0  0  0  0  0  0  0
  -29.5360  -20.2060   18.5080 N   0  0  2  0  0  4  0  0  0  0  0  0
  -29.4100  -20.2840   17.5080 H   0  0  0  0  0  0  0  0  0  0  0  0
  -29.2790  -24.5180   19.1620 C   0  0  0  0  0  2  0  0  0  0  0  0
  -28.3160  -25.2340   20.1520 C   0  0  0  0  0  2  0  0  0  0  0  0
  -28.3950  -26.6740   20.0460 O   0  0  0  0  0  0  0  0  0  0  0  0
  -24.6160  -31.8690   23.2120 C   0  0  0  0  0  0  0  0  0  0  0  0
  -27.2230  -27.4140   20.0700 C   0  0  0  0  0  0  0  0  0  0  0  0
  -23.4050  -30.4950   21.5560 C   0  0  0  0  0  3  0  0  0  0  0  0
  -24.8440  -28.9640   20.1130 C   0  0  0  0  0  0  0  0  0  0  0  0
  -25.9400  -30.8220   21.3730 C   0  0  0  0  0  2  0  0  0  0  0  0
  -26.0100  -29.4580   20.7100 C   0  0  0  0  0  0  0  0  0  0  0  0
  -27.2010  -28.6920   20.6820 C   0  0  0  0  0  3  0  0  0  0  0  0
  -26.0370  -26.9500   19.4550 C   0  0  0  0  0  3  0  0  0  0  0  0
  -24.8540  -27.7090   19.4820 C   0  0  0  0  0  3  0  0  0  0  0  0
  -23.6100  -29.8350   20.1680 C   0  0  0  0  0  2  0  0  0  0  0  0
  -24.6720  -31.0750   22.1050 N   0  0  0  0  0  0  0  0  0  0  0  0
  -23.5340  -32.1460   23.7500 O   0  0  0  0  0  0  0  0  0  0  0  0
  -22.7430  -29.4650   22.5000 C   0  0  0  0  0  0  0  0  0  0  0  0
  -21.4150  -29.3020   22.3730 N   0  0  0  0  0  0  0  0  0  0  0  0
  -23.4200  -28.8190   23.3050 O   0  0  0  0  0  0  0  0  0  0  0  0
  -20.9310  -29.8750   21.6970 H   0  0  0  0  0  0  0  0  0  0  0  0
  -18.0280  -28.1360   22.8500 C   0  0  0  0  0  0  0  0  0  0  0  0
  -20.5870  -28.3640   23.1330 C   0  0  0  0  0  3  0  0  0  0  0  0
  -20.6770  -26.9380   22.5420 C   0  0  0  0  0  2  0  0  0  0  0  0
  -19.5750  -26.6370   21.5220 C   0  0  0  0  0  2  0  0  0  0  0  0
  -18.1930  -26.7910   22.1630 C   0  0  0  0  0  2  0  0  0  0  0  0
  -19.1530  -28.8820   23.2910 C   0  0  0  0  0  0  0  0  0  0  0  0
  -18.9450  -30.1430   23.8910 C   0  0  0  0  0  3  0  0  0  0  0  0
  -17.6450  -30.6570   24.0560 C   0  0  0  0  0  3  0  0  0  0  0  0
  -16.5350  -29.9070   23.6320 C   0  0  0  0  0  3  0  0  0  0  0  0
  -16.7260  -28.6480   23.0350 C   0  0  0  0  0  3  0  0  0  0  0  0
  -25.9060  -32.4830   23.8400 C   0  0  0  0  0  3  0  0  0  0  0  0
  -25.5920  -33.8630   24.2330 N   0  0  0  0  0  0  0  0  0  0  0  0
  -25.9040  -34.9490   23.5130 C   0  0  0  0  0  0  0  0  0  0  0  0
  -26.5600  -34.8930   22.4700 O   0  0  0  0  0  0  0  0  0  0  0  0
  -25.0070  -33.9810   25.0470 H   0  0  0  0  0  0  0  0  0  0  0  0
  -24.1490  -36.7310   23.2630 C   0  0  0  0  0  1  0  0  0  0  0  0
  -25.4120  -36.3130   24.0330 C   0  0  0  0  0  3  0  0  0  0  0  0
  -27.5600  -37.1810   24.8450 C   0  0  0  0  0  1  0  0  0  0  0  0
  -26.4310  -37.3810   23.9390 N   0  0  0  0  0  0  0  0  0  0  0  0
  -26.0220  -38.2890   24.1400 H   0  0  0  0  0  0  0  0  0  0  0  0
  -26.4460  -31.6610   25.0740 C   0  0  1  0  0  0  0  0  0  0  0  0
  -25.3690  -31.3800   26.1480 C   0  0  0  0  0  1  0  0  0  0  0  0
  -27.0260  -30.3030   24.6160 C   0  0  0  0  0  1  0  0  0  0  0  0
  -27.6080  -32.4300   25.7470 C   0  0  0  0  0  1  0  0  0  0  0  0
  -28.6570  -17.7580   18.3660 C   0  0  0  0  0  2  0  0  0  0  0  0
  -28.9040  -17.1530   17.0870 O   0  0  0  0  0  0  0  0  0  0  0  0
  -28.1290  -15.9560   16.9090 C   0  0  0  0  0  2  0  0  0  0  0  0
  -28.3630  -15.2050   15.5720 C   0  0  0  0  0  2  0  0  0  0  0  0
  -27.7620  -13.9080   15.6710 O   0  0  0  0  0  0  0  0  0  0  0  0
  -28.0200  -13.0150   14.5880 C   0  0  0  0  0  2  0  0  0  0  0  0
  -27.5080  -11.5880   14.9170 C   0  0  0  0  0  2  0  0  0  0  0  0
  -28.4320  -10.8920   15.7510 O   0  0  0  0  0  0  0  0  0  0  0  0
  -28.0520   -9.5680   16.1350 C   0  0  0  0  0  2  0  0  0  0  0  0
  -29.0140   -9.0150   17.2180 C   0  0  0  0  0  2  0  0  0  0  0  0
  -28.6620   -9.5310   18.4980 O   0  0  0  0  0  0  0  0  0  0  0  0
  -29.7070   -9.5910   19.4680 C   0  0  0  0  0  2  0  0  0  0  0  0
  -29.2940  -10.5460   20.6270 C   0  0  0  0  0  2  0  0  0  0  0  0
  -30.1400  -13.3880   20.2140 C   0  0  1  0  0  0  0  0  0  0  0  0
  -30.9920  -12.6620   19.0380 C   0  0  0  0  0  2  0  0  0  0  0  0
  -29.6370  -12.5010   18.0040 C   0  0  0  0  0  2  0  0  0  0  0  0
  -28.0960  -12.5450   18.6030 C   0  0  0  0  0  2  0  0  0  0  0  0
  -27.6900  -13.3470   19.9730 C   0  0  0  0  0  3  0  0  0  0  0  0
  -28.8570  -13.5690   21.2340 C   0  0  0  0  0  2  0  0  0  0  0  0
  -30.5780  -12.9430   20.8630 N   0  0  0  0  0  2  0  0  0  0  0  0
  -30.8500  -14.5120   20.3410 O   0  0  0  0  0  1  0  0  0  0  0  0
  -30.0740  -11.8140   20.8100 N   0  0  0  0  0  0  0  0  0  0  0  0
  -30.7890  -11.7150   21.5120 H   0  0  0  0  0  0  0  0  0  0  0  0
  -25.2500  -13.8390   20.6090 C   0  0  0  0  0  0  0  0  0  0  0  0
  -24.1800  -13.0460   20.9220 C   0  0  0  0  0  0  0  0  0  0  0  0
  -24.6510  -11.6980   20.8760 C   0  0  0  0  0  0  0  0  0  0  0  0
  -26.3250  -12.9910   20.4050 N   0  0  0  0  0  0  0  0  0  0  0  0
  -25.9560  -11.6910   20.5960 N   0  0  0  0  0  0  0  0  0  0  0  0
  -23.9180  -10.4300   21.0360 C   0  0  0  0  0  0  0  0  0  0  0  0
  -24.3630   -9.4210   21.9190 C   0  0  0  0  0  3  0  0  0  0  0  0
  -23.6280   -8.2250   22.0730 C   0  0  0  0  0  3  0  0  0  0  0  0
  -22.4300   -8.0260   21.3480 C   0  0  0  0  0  0  0  0  0  0  0  0
  -21.9950   -9.0280   20.4630 C   0  0  0  0  0  3  0  0  0  0  0  0
  -22.7300  -10.2160   20.3060 C   0  0  0  0  0  3  0  0  0  0  0  0
  -21.6670   -6.8840   21.4170 O   0  0  0  0  0  0  0  0  0  0  0  0
  -21.6850   -6.0690   22.5230 C   0  0  0  0  0  0  0  0  0  0  0  0
  -21.4040   -6.5630   23.8170 C   0  0  0  0  0  3  0  0  0  0  0  0
  -21.3710   -5.6800   24.9150 C   0  0  0  0  0  3  0  0  0  0  0  0
  -21.6070   -4.3060   24.7220 C   0  0  0  0  0  0  0  0  0  0  0  0
  -21.8830   -3.8100   23.4360 C   0  0  0  0  0  3  0  0  0  0  0  0
  -21.9170   -4.6900   22.3390 C   0  0  0  0  0  0  0  0  0  0  0  0
  -22.1610   -4.2040   21.0970 F   0  0  0  0  0  0  0  0  0  0  0  0
  -21.5660   -3.4600   25.7770 F   0  0  0  0  0  0  0  0  0  0  0  0
  -22.7790  -13.5170   21.1770 C   0  0  0  0  0  0  0  0  0  0  0  0
  -22.0440  -12.8100   22.0280 N   0  0  0  0  0  0  0  0  0  0  0  0
  -22.3470  -14.5460   20.6610 O   0  0  0  0  0  0  0  0  0  0  0  0
  -22.4060  -11.9690   22.4520 H   0  0  0  0  0  0  0  0  0  0  0  0
  -21.1180  -13.1310   22.2730 H   0  0  0  0  0  0  0  0  0  0  0  0
  -25.3930  -15.2150   20.4620 N   0  0  0  0  0  0  0  0  0  0  0  0
  -24.6080  -15.8530   20.5500 H   0  0  0  0  0  0  0  0  0  0  0  0
  -26.2630  -15.6830   20.2530 H   0  0  0  0  0  0  0  0  0  0  0  0
  2  4  1  0
  2  6  1  0
  3  5  1  0
  3  6  1  0
  7  1  1  0
  7  4  1  0
  7  5  1  0
  7  8  1  6
  9  6  1  0
  9 10  1  0
 11 13  1  0
 11 10  1  0
 12 23  2  0
 13 18  1  0
 14 22  1  0
 14 24  1  0
 15 21  1  0
 15 17  1  0
 16 22  1  0
 17 16  1  0
 18 17  2  0
 19 20  1  0
 19 13  2  0
 20 15  2  0
 21 14  1  0
 22 12  1  0
 24 26  2  0
 25 24  1  0
 27 25  1  0
 28 37  2  0
 28 33  1  0
 29 25  1  0
 29 33  1  0
 30 29  1  0
 31 32  1  0
 31 30  1  0
 32 28  1  0
 33 34  2  0
 34 35  1  0
 36 35  2  0
 37 36  1  0
 38 12  1  0
 38 39  1  0
 38 48  1  0
 39 42  1  0
 40 44  1  0
 40 39  1  0
 41 40  2  0
 44 43  1  0
 46 44  1  0
 46 47  1  0
 46 45  1  0
 48 51  1  1
 48 49  1  0
 50 48  1  0
 52  1  1  0
 53 52  1  0
 54 53  1  0
 55 56  1  0
 55 54  1  0
 57 58  1  0
 57 56  1  0
 58 59  1  0
 59 60  1  0
 60 61  1  0
 61 62  1  0
 62 63  1  0
 63 64  1  0
 64 73  1  0
 65 72  1  1
 65 71  1  0
 65 70  1  0
 66 65  1  0
 67 68  1  0
 67 66  1  0
 69 68  1  0
 69 78  1  0
 69 70  1  0
 73 71  1  0
 73 74  1  0
 75 76  2  0
 76 95  1  0
 77 76  1  0
 77 80  1  0
 78 79  1  0
 78 75  1  0
 79 77  2  0
 80 81  1  0
 81 82  2  0
 83 86  1  0
 83 82  1  0
 84 83  2  0
 85 84  1  0
 85 80  2  0
 86 87  1  0
 87 88  1  0
 88 89  2  0
 90 89  1  0
 90 94  1  0
 91 90  2  0
 92 87  2  0
 92 91  1  0
 93 92  1  0
 95 96  1  0
 96 99  1  0
 96 98  1  0
 97 95  2  0
100101  1  0
100 75  1  0
102100  1  0
M  ISO  4  10 101  11 101  65 100  73 100
M  END
>  <TORSDO>  (37) 
F 32

>  <SCORE>  (37) 
23.314

>  <name>  (37) 
37

>  <ligand_id>  (37) 
37

>  <original_smiles>  (37) 
[H]c1c([H])c([H])c2c(c1[H])C([H])([H])C([H])([H])C([H])([H])C2([H])N([H])C(=O)C1([H])N(C(=O)C([H])(N([H])C(=O)C([H])(N([H])C([H])([H])[H])C([H])([H])[H])C(C([H])([H])[H])(C([H])([H])[H])C([H])([H])[H])C([H])([H])c2c([H])c(OC([H])([H])C([H])([H])N3C([H])([H])C([H])([H])[N+]([H])(C([H])([H])C([H])([H])OC([H])([H])C([H])([H])OC([H])([H])C([H])([H])OC([H])([H])C([H])([H])OC([H])([H])C([H])([H])N([H])C(=O)N4C([H])([H])C([H])([H])C([H])([H])C([H])(n5nc(-c6c([H])c([H])c(Oc7c([H])c([H])c(F)c([H])c7F)c([H])c6[H])c(C(=O)N([H])[H])c5N([H])[H])C4([H])[H])C([H])([H])C3([H])[H])c([H])c([H])c2C1([H])[H]

>  <smiles>  (37) 
[H]c1c([H])c([H])c2c(c1[H])C([H])([H])C([H])([H])C([H])([H])C2([H])N([H])C(=O)C1([H])N(C(=O)C([H])(N([H])C(=O)C([H])(N([H])C([H])([H])[H])C([H])([H])[H])C(C([H])([H])[H])(C([H])([H])[H])C([H])([H])[H])C([H])([H])c2c([H])c(OC([H])([H])C([H])([H])N3C([H])([H])C([H])([H])[N+]([H])(C([H])([H])C([H])([H])OC([H])([H])C([H])([H])OC([H])([H])C([H])([H])OC([H])([H])C([H])([H])OC([H])([H])C([H])([H])N([H])C(=O)N4C([H])([H])C([H])([H])C([H])([H])C([H])(n5nc(-c6c([H])c([H])c(Oc7c([H])c([H])c(F)c([H])c7F)c([H])c6[H])c(C(=O)N([H])[H])c5N([H])[H])C4([H])[H])C([H])([H])C3([H])[H])c([H])c([H])c2C1([H])[H]

$$$$
38:0:0
     RDKit          3D

110118  0  0  1  0  0  0  0  0999 V2000
  -28.6010  -17.1350   18.5820 C   0  0  0  0  0  2  0  0  0  0  0  0
  -28.1370  -15.7870   18.7310 O   0  0  0  0  0  0  0  0  0  0  0  0
  -26.7850  -15.7250   19.2040 C   0  0  0  0  0  2  0  0  0  0  0  0
  -26.4750  -14.4500   20.0230 C   0  0  0  0  0  2  0  0  0  0  0  0
  -26.3600  -14.7490   21.4180 O   0  0  0  0  0  0  0  0  0  0  0  0
  -25.4530  -13.8900   22.1160 C   0  0  0  0  0  2  0  0  0  0  0  0
  -25.3180  -14.2990   23.5970 C   0  0  0  0  0  2  0  0  0  0  0  0
  -24.8170  -15.6280   23.6820 O   0  0  0  0  0  0  0  0  0  0  0  0
  -24.6570  -16.1660   24.9940 C   0  0  0  0  0  2  0  0  0  0  0  0
  -25.9380  -16.4140   25.8310 C   0  0  0  0  0  2  0  0  0  0  0  0
  -26.6060  -17.6350   25.4960 O   0  0  0  0  0  0  0  0  0  0  0  0
  -27.5470  -18.0580   26.4880 C   0  0  0  0  0  2  0  0  0  0  0  0
  -28.4320  -19.2350   26.0260 C   0  0  0  0  0  2  0  0  0  0  0  0
  -30.3910  -19.6700   24.5440 C   0  0  0  0  0  0  0  0  0  0  0  0
  -29.6290  -18.8340   25.2740 N   0  0  0  0  0  0  0  0  0  0  0  0
  -30.1620  -20.8780   24.4880 O   0  0  0  0  0  0  0  0  0  0  0  0
  -29.8570  -17.8490   25.2760 H   0  0  0  0  0  0  0  0  0  0  0  0
  -31.5820  -19.1020   23.7450 C   0  0  0  0  0  2  0  0  0  0  0  0
  -31.4660  -19.5470   21.3380 C   0  0  0  0  0  0  0  0  0  0  0  0
  -29.1140  -19.1090   21.4360 C   0  0  0  0  0  2  0  0  0  0  0  0
  -28.2960  -18.9710   20.1770 C   0  0  0  0  0  2  0  0  0  0  0  0
  -27.7280  -20.3510   19.8400 C   0  0  0  0  0  2  0  0  0  0  0  0
  -28.8960  -21.3290   19.5810 C   0  0  0  0  0  3  0  0  0  0  0  0
  -29.8360  -21.3940   20.8080 C   0  0  0  0  0  2  0  0  0  0  0  0
  -30.2190  -20.0270   21.1940 N   0  0  0  0  0  0  0  0  0  0  0  0
  -31.8390  -18.4560   20.8950 O   0  0  0  0  0  0  0  0  0  0  0  0
  -31.9000  -19.9120   22.5520 N   0  0  0  0  0  0  0  0  0  0  0  0
  -32.7820  -20.4060   22.5950 H   0  0  0  0  0  0  0  0  0  0  0  0
  -28.6180  -23.3500   18.0180 C   0  0  0  0  0  0  0  0  0  0  0  0
  -27.8640  -24.4920   18.1240 C   0  0  0  0  0  0  0  0  0  0  0  0
  -27.2120  -24.4140   19.3920 C   0  0  0  0  0  0  0  0  0  0  0  0
  -28.4000  -22.6450   19.1900 N   0  0  0  0  0  0  0  0  0  0  0  0
  -27.5890  -23.3230   20.0420 N   0  0  0  0  0  0  0  0  0  0  0  0
  -26.2060  -25.2890   20.0040 C   0  0  0  0  0  0  0  0  0  0  0  0
  -26.4610  -25.9600   21.2200 C   0  0  0  0  0  3  0  0  0  0  0  0
  -25.4870  -26.8070   21.7890 C   0  0  0  0  0  3  0  0  0  0  0  0
  -24.2420  -26.9880   21.1440 C   0  0  0  0  0  0  0  0  0  0  0  0
  -23.9850  -26.3030   19.9440 C   0  0  0  0  0  3  0  0  0  0  0  0
  -24.9540  -25.4560   19.3790 C   0  0  0  0  0  3  0  0  0  0  0  0
  -23.2280  -27.7770   21.6290 O   0  0  0  0  0  0  0  0  0  0  0  0
  -23.4820  -28.9380   22.3120 C   0  0  0  0  0  0  0  0  0  0  0  0
  -24.1790  -30.0170   21.7260 C   0  0  0  0  0  3  0  0  0  0  0  0
  -24.3520  -31.2180   22.4430 C   0  0  0  0  0  3  0  0  0  0  0  0
  -23.8250  -31.3430   23.7410 C   0  0  0  0  0  0  0  0  0  0  0  0
  -23.1290  -30.2700   24.3280 C   0  0  0  0  0  3  0  0  0  0  0  0
  -22.9600  -29.0720   23.6140 C   0  0  0  0  0  0  0  0  0  0  0  0
  -22.2710  -28.0500   24.1740 F   0  0  0  0  0  0  0  0  0  0  0  0
  -23.9810  -32.4980   24.4290 F   0  0  0  0  0  0  0  0  0  0  0  0
  -27.6810  -25.5390   17.0680 C   0  0  0  0  0  0  0  0  0  0  0  0
  -27.5040  -26.7930   17.4700 N   0  0  0  0  0  0  0  0  0  0  0  0
  -27.7250  -25.2660   15.8680 O   0  0  0  0  0  0  0  0  0  0  0  0
  -27.5110  -27.0480   18.4470 H   0  0  0  0  0  0  0  0  0  0  0  0
  -27.3870  -27.5110   16.7670 H   0  0  0  0  0  0  0  0  0  0  0  0
  -29.4470  -22.8480   17.0200 N   0  0  0  0  0  0  0  0  0  0  0  0
  -29.6100  -23.3530   16.1570 H   0  0  0  0  0  0  0  0  0  0  0  0
  -30.0120  -22.0100   17.0970 H   0  0  0  0  0  0  0  0  0  0  0  0
  -30.1450  -17.2010   18.5410 C   0  0  0  0  0  2  0  0  0  0  0  0
  -32.3940  -17.2410   15.4130 C   0  0  0  0  0  2  0  0  0  0  0  0
  -31.8420  -19.4970   15.9130 C   0  0  0  0  0  2  0  0  0  0  0  0
  -31.8070  -16.7480   16.7530 C   0  0  0  0  0  2  0  0  0  0  0  0
  -31.1850  -19.0680   17.2520 C   0  0  0  0  0  2  0  0  0  0  0  0
  -32.9350  -18.6010   15.5100 N   0  0  0  0  0  0  0  0  0  0  0  0
  -30.7200  -17.6470   17.2330 N   0  0  2  0  0  4  0  0  0  0  0  0
  -29.9860  -17.5810   16.5450 H   0  0  0  0  0  0  0  0  0  0  0  0
  -33.5860  -19.0220   14.2550 C   0  0  0  0  0  2  0  0  0  0  0  0
  -34.7330  -20.0500   14.4160 C   0  0  0  0  0  2  0  0  0  0  0  0
  -34.3250  -21.3810   14.0930 O   0  0  0  0  0  0  0  0  0  0  0  0
  -35.3360  -22.3400   14.4110 C   0  0  0  0  0  2  0  0  0  0  0  0
  -34.7960  -23.7830   14.5290 C   0  0  0  0  0  2  0  0  0  0  0  0
  -33.6340  -23.8120   15.3580 O   0  0  0  0  0  0  0  0  0  0  0  0
  -35.2290  -29.9800   18.6400 C   0  0  0  0  0  0  0  0  0  0  0  0
  -33.2360  -24.9950   15.9470 C   0  0  0  0  0  0  0  0  0  0  0  0
  -32.8600  -29.2660   18.7390 C   0  0  0  0  0  3  0  0  0  0  0  0
  -32.2310  -27.3230   17.2100 C   0  0  0  0  0  0  0  0  0  0  0  0
  -34.3450  -28.5870   16.7740 C   0  0  0  0  0  2  0  0  0  0  0  0
  -33.5190  -27.3220   16.6620 C   0  0  0  0  0  0  0  0  0  0  0  0
  -34.0260  -26.1700   16.0240 C   0  0  0  0  0  3  0  0  0  0  0  0
  -31.9500  -25.0090   16.5250 C   0  0  0  0  0  3  0  0  0  0  0  0
  -31.4410  -26.1620   17.1520 C   0  0  0  0  0  3  0  0  0  0  0  0
  -31.7640  -28.6080   17.8570 C   0  0  0  0  0  2  0  0  0  0  0  0
  -34.2040  -29.2800   18.0760 N   0  0  0  0  0  0  0  0  0  0  0  0
  -35.0570  -30.6470   19.6690 O   0  0  0  0  0  0  0  0  0  0  0  0
  -32.8640  -28.5660   20.1160 C   0  0  0  0  0  0  0  0  0  0  0  0
  -31.8090  -28.8100   20.9120 N   0  0  0  0  0  0  0  0  0  0  0  0
  -33.7790  -27.8020   20.4350 O   0  0  0  0  0  0  0  0  0  0  0  0
  -31.1030  -29.4500   20.5780 H   0  0  0  0  0  0  0  0  0  0  0  0
  -29.4090  -28.5590   23.6000 C   0  0  0  0  0  0  0  0  0  0  0  0
  -31.5780  -28.2290   22.2340 C   0  0  0  0  0  3  0  0  0  0  0  0
  -31.1610  -26.7440   22.1210 C   0  0  0  0  0  2  0  0  0  0  0  0
  -29.6410  -26.5450   22.0840 C   0  0  0  0  0  2  0  0  0  0  0  0
  -28.9950  -27.1200   23.3480 C   0  0  0  0  0  2  0  0  0  0  0  0
  -30.6150  -29.0840   23.0640 C   0  0  0  0  0  0  0  0  0  0  0  0
  -30.9360  -30.4390   23.2980 C   0  0  0  0  0  3  0  0  0  0  0  0
  -30.0810  -31.2610   24.0540 C   0  0  0  0  0  3  0  0  0  0  0  0
  -28.8970  -30.7320   24.5980 C   0  0  0  0  0  3  0  0  0  0  0  0
  -28.5660  -29.3840   24.3730 C   0  0  0  0  0  3  0  0  0  0  0  0
  -36.6560  -29.9990   18.0060 C   0  0  0  0  0  3  0  0  0  0  0  0
  -37.6660  -29.0270   18.7260 C   0  0  1  0  0  0  0  0  0  0  0  0
  -37.7340  -29.2240   20.2590 C   0  0  0  0  0  1  0  0  0  0  0  0
  -37.2900  -27.5500   18.4550 C   0  0  0  0  0  1  0  0  0  0  0  0
  -39.0900  -29.2320   18.1550 C   0  0  0  0  0  1  0  0  0  0  0  0
  -37.1420  -31.3840   18.0520 N   0  0  0  0  0  0  0  0  0  0  0  0
  -37.0980  -32.2380   17.0210 C   0  0  0  0  0  0  0  0  0  0  0  0
  -36.7030  -31.9130   15.8980 O   0  0  0  0  0  0  0  0  0  0  0  0
  -37.4240  -31.7330   18.9550 H   0  0  0  0  0  0  0  0  0  0  0  0
  -36.3420  -34.5940   17.4710 C   0  0  0  0  0  1  0  0  0  0  0  0
  -37.5650  -33.6830   17.2780 C   0  0  0  0  0  3  0  0  0  0  0  0
  -39.7320  -33.5820   16.1280 C   0  0  0  0  0  1  0  0  0  0  0  0
  -38.4220  -34.2240   16.2000 N   0  0  0  0  0  0  0  0  0  0  0  0
  -38.5640  -35.2230   16.3180 H   0  0  0  0  0  0  0  0  0  0  0  0
  1  2  1  0
  2  3  1  0
  3  4  1  0
  4  5  1  0
  5  6  1  0
  6  7  1  0
  7  8  1  0
  8  9  1  0
  9 10  1  0
 11 10  1  0
 11 12  1  0
 13 12  1  0
 14 15  1  0
 15 17  1  0
 15 13  1  0
 16 14  2  0
 18 14  1  0
 19 27  1  0
 21 20  1  0
 22 21  1  0
 23 32  1  0
 23 22  1  0
 23 24  1  0
 24 25  1  0
 25 19  1  0
 25 20  1  0
 26 19  2  0
 27 28  1  0
 27 18  1  0
 29 30  2  0
 29 32  1  0
 30 31  1  0
 31 34  1  0
 31 33  2  0
 32 33  1  0
 34 35  1  0
 35 36  2  0
 37 40  1  0
 37 36  1  0
 38 37  2  0
 39 38  1  0
 39 34  2  0
 40 41  1  0
 41 46  1  0
 42 41  2  0
 42 43  1  0
 43 44  2  0
 44 45  1  0
 44 48  1  0
 46 47  1  0
 46 45  2  0
 49 50  1  0
 49 30  1  0
 50 52  1  0
 51 49  2  0
 53 50  1  0
 54 56  1  0
 54 29  1  0
 55 54  1  0
 57  1  1  0
 58 62  1  0
 58 60  1  0
 59 61  1  0
 60 63  1  0
 62 59  1  0
 63 61  1  0
 63 57  1  0
 63 64  1  6
 65 66  1  0
 65 62  1  0
 67 68  1  0
 67 66  1  0
 68 69  1  0
 69 70  1  0
 70 72  1  0
 71 82  2  0
 72 77  2  0
 72 78  1  0
 73 83  1  0
 74 80  1  0
 75 81  1  0
 76 75  1  0
 76 74  2  0
 77 76  1  0
 78 79  2  0
 79 74  1  0
 80 73  1  0
 81 71  1  0
 81 73  1  0
 83 85  2  0
 83 84  1  0
 86 84  1  0
 87 96  1  0
 88 84  1  0
 88 92  1  0
 89 88  1  0
 90 89  1  0
 90 91  1  0
 91 87  1  0
 92 93  1  0
 92 87  2  0
 93 94  2  0
 94 95  1  0
 96 95  2  0
 97102  1  0
 97 71  1  0
 97 98  1  0
 98 99  1  1
100 98  1  0
101 98  1  0
102105  1  0
103107  1  0
103102  1  0
104103  2  0
107106  1  0
108109  1  0
109110  1  0
109107  1  0
M  ISO  4  19 100  27 100  69 101  70 101
M  END
>  <TORSDO>  (38) 
F 37

>  <SCORE>  (38) 
15.256

>  <name>  (38) 
38

>  <ligand_id>  (38) 
38

>  <original_smiles>  (38) 
[H]c1c([H])c([H])c2c(c1[H])C([H])([H])C([H])([H])C([H])([H])C2([H])N([H])C(=O)C1([H])N(C(=O)C([H])(N([H])C(=O)C([H])(N([H])C([H])([H])[H])C([H])([H])[H])C(C([H])([H])[H])(C([H])([H])[H])C([H])([H])[H])C([H])([H])c2c([H])c(OC([H])([H])C([H])([H])OC([H])([H])C([H])([H])N3C([H])([H])C([H])([H])[N+]([H])(C([H])([H])C([H])([H])OC([H])([H])C([H])([H])OC([H])([H])C([H])([H])OC([H])([H])C([H])([H])OC([H])([H])C([H])([H])N([H])C(=O)C([H])([H])N([H])C(=O)N4C([H])([H])C([H])([H])C([H])([H])C([H])(n5nc(-c6c([H])c([H])c(Oc7c([H])c([H])c(F)c([H])c7F)c([H])c6[H])c(C(=O)N([H])[H])c5N([H])[H])C4([H])[H])C([H])([H])C3([H])[H])c([H])c([H])c2C1([H])[H]

>  <smiles>  (38) 
[H]c1c([H])c([H])c2c(c1[H])C([H])([H])C([H])([H])C([H])([H])C2([H])N([H])C(=O)C1([H])N(C(=O)C([H])(N([H])C(=O)C([H])(N([H])C([H])([H])[H])C([H])([H])[H])C(C([H])([H])[H])(C([H])([H])[H])C([H])([H])[H])C([H])([H])c2c([H])c(OC([H])([H])C([H])([H])OC([H])([H])C([H])([H])N3C([H])([H])C([H])([H])[N+]([H])(C([H])([H])C([H])([H])OC([H])([H])C([H])([H])OC([H])([H])C([H])([H])OC([H])([H])C([H])([H])OC([H])([H])C([H])([H])N([H])C(=O)C([H])([H])N([H])C(=O)N4C([H])([H])C([H])([H])C([H])([H])C([H])(n5nc(-c6c([H])c([H])c(Oc7c([H])c([H])c(F)c([H])c7F)c([H])c6[H])c(C(=O)N([H])[H])c5N([H])[H])C4([H])[H])C([H])([H])C3([H])[H])c([H])c([H])c2C1([H])[H]

$$$$
39:0:0
     RDKit          3D

 93 98  0  0  1  0  0  0  0  0999 V2000
  -29.1660  -19.2670   20.2040 C   0  0  0  0  0  2  0  0  0  0  0  0
  -27.6650  -19.0640   19.8850 C   0  0  0  0  0  0  0  0  0  0  0  0
  -26.9030  -21.1460   16.7240 C   0  0  0  0  0  2  0  0  0  0  0  0
  -27.7600  -20.4470   17.8110 C   0  0  0  0  0  2  0  0  0  0  0  0
  -25.6270  -19.3060   18.5090 C   0  0  0  0  0  2  0  0  0  0  0  0
  -25.8130  -22.1050   17.2490 C   0  0  0  0  0  2  0  0  0  0  0  0
  -24.6800  -20.4860   18.7940 C   0  0  0  0  0  2  0  0  0  0  0  0
  -27.0440  -19.6230   18.8050 N   0  0  0  0  0  0  0  0  0  0  0  0
  -24.5670  -21.4200   17.6560 N   0  0  0  0  0  4  0  0  0  0  0  0
  -27.0520  -18.3430   20.6800 O   0  0  0  0  0  0  0  0  0  0  0  0
  -24.1770  -20.9400   16.8590 H   0  0  0  0  0  0  0  0  0  0  0  0
  -23.8970  -22.1300   17.9090 H   0  0  0  0  0  0  0  0  0  0  0  0
  -30.1910  -16.0080   20.7490 C   0  0  0  0  0  0  0  0  0  0  0  0
  -30.5160  -13.3340   20.1530 C   0  0  0  0  0  2  0  0  0  0  0  0
  -29.7940  -12.7540   18.8940 C   0  0  0  0  0  2  0  0  0  0  0  0
  -28.3720  -12.2930   19.2360 C   0  0  0  0  0  2  0  0  0  0  0  0
  -27.7010  -13.3160   20.1780 C   0  0  0  0  0  3  0  0  0  0  0  0
  -28.5900  -13.8270   21.3470 C   0  0  0  0  0  2  0  0  0  0  0  0
  -29.7570  -14.5580   20.7630 N   0  0  0  0  0  0  0  0  0  0  0  0
  -31.4300  -15.9100   20.5850 O   0  0  0  0  0  0  0  0  0  0  0  0
  -29.4140  -17.4610   20.7950 N   0  0  0  0  0  0  0  0  0  0  0  0
  -28.4720  -17.2070   21.0670 H   0  0  0  0  0  0  0  0  0  0  0  0
  -25.2950  -13.7690   20.7920 C   0  0  0  0  0  0  0  0  0  0  0  0
  -24.2300  -12.9670   21.0790 C   0  0  0  0  0  0  0  0  0  0  0  0
  -24.7250  -11.6260   21.0630 C   0  0  0  0  0  0  0  0  0  0  0  0
  -26.3680  -12.9230   20.6060 N   0  0  0  0  0  0  0  0  0  0  0  0
  -26.0390  -11.6220   20.8340 N   0  0  0  0  0  0  0  0  0  0  0  0
  -24.0010  -10.3520   21.1850 C   0  0  0  0  0  0  0  0  0  0  0  0
  -24.3260   -9.4050   22.1810 C   0  0  0  0  0  3  0  0  0  0  0  0
  -23.5960   -8.2010   22.2920 C   0  0  0  0  0  3  0  0  0  0  0  0
  -22.5240   -7.9360   21.4090 C   0  0  0  0  0  0  0  0  0  0  0  0
  -22.2180   -8.8710   20.4050 C   0  0  0  0  0  3  0  0  0  0  0  0
  -22.9500  -10.0660   20.2910 C   0  0  0  0  0  3  0  0  0  0  0  0
  -21.7770   -6.7830   21.4260 O   0  0  0  0  0  0  0  0  0  0  0  0
  -21.5190   -6.1100   22.5930 C   0  0  0  0  0  0  0  0  0  0  0  0
  -20.8330   -6.7160   23.6700 C   0  0  0  0  0  3  0  0  0  0  0  0
  -20.5280   -5.9660   24.8220 C   0  0  0  0  0  3  0  0  0  0  0  0
  -20.9000   -4.6100   24.9000 C   0  0  0  0  0  0  0  0  0  0  0  0
  -21.5780   -4.0040   23.8280 C   0  0  0  0  0  3  0  0  0  0  0  0
  -21.8840   -4.7510   22.6780 C   0  0  0  0  0  0  0  0  0  0  0  0
  -22.5180   -4.1550   21.6390 F   0  0  0  0  0  0  0  0  0  0  0  0
  -20.6020   -3.8870   26.0040 F   0  0  0  0  0  0  0  0  0  0  0  0
  -22.8110  -13.4230   21.2510 C   0  0  0  0  0  0  0  0  0  0  0  0
  -22.0360  -12.7170   22.0640 N   0  0  0  0  0  0  0  0  0  0  0  0
  -22.4010  -14.4440   20.7000 O   0  0  0  0  0  0  0  0  0  0  0  0
  -22.3770  -11.8890   22.5280 H   0  0  0  0  0  0  0  0  0  0  0  0
  -21.0820  -13.0080   22.2250 H   0  0  0  0  0  0  0  0  0  0  0  0
  -25.4400  -15.1450   20.6430 N   0  0  0  0  0  0  0  0  0  0  0  0
  -24.6510  -15.7800   20.7090 H   0  0  0  0  0  0  0  0  0  0  0  0
  -26.3000  -15.6140   20.3920 H   0  0  0  0  0  0  0  0  0  0  0  0
  -29.0520  -21.2960   20.7630 C   0  0  0  0  0 15  0  0  0  0  0  0
  -28.4040  -23.2500   20.2870 C   0  0  0  0  0 15  0  0  0  0  0  0
  -28.3480  -25.1130   20.6640 O   0  0  0  0  0  1  0  0  0  0  0  0
  -24.8280  -31.7910   23.3590 C   0  0  0  0  0  0  0  0  0  0  0  0
  -27.4320  -26.4580   20.5260 C   0  0  0  0  0  0  0  0  0  0  0  0
  -23.7160  -30.3880   21.6800 C   0  0  0  0  0  3  0  0  0  0  0  0
  -25.2150  -28.6760   20.3510 C   0  0  0  0  0  0  0  0  0  0  0  0
  -26.3070  -30.4350   21.7090 C   0  0  0  0  0  2  0  0  0  0  0  0
  -26.3840  -28.9730   21.0570 C   0  0  0  0  0  0  0  0  0  0  0  0
  -27.4660  -27.9000   21.1060 C   0  0  0  0  0  3  0  0  0  0  0  0
  -26.2270  -26.4380   19.7600 C   0  0  0  0  0  3  0  0  0  0  0  0
  -25.1930  -27.4380   19.6770 C   0  0  0  0  0  3  0  0  0  0  0  0
  -24.0270  -29.6700   20.3310 C   0  0  0  0  0  2  0  0  0  0  0  0
  -24.9760  -30.9100   22.3020 N   0  0  0  0  0  0  0  0  0  0  0  0
  -23.7100  -32.1140   23.7980 O   0  0  0  0  0  0  0  0  0  0  0  0
  -22.9250  -29.4400   22.6260 C   0  0  0  0  0  0  0  0  0  0  0  0
  -21.6010  -29.2800   22.4230 N   0  0  0  0  0  0  0  0  0  0  0  0
  -23.5210  -28.8460   23.5280 O   0  0  0  0  0  0  0  0  0  0  0  0
  -21.1640  -29.8100   21.6800 H   0  0  0  0  0  0  0  0  0  0  0  0
  -18.2020  -28.0170   22.7410 C   0  0  0  0  0  0  0  0  0  0  0  0
  -20.7350  -28.3510   23.1660 C   0  0  0  0  0  3  0  0  0  0  0  0
  -20.8990  -26.9020   22.6460 C   0  0  0  0  0  2  0  0  0  0  0  0
  -19.8770  -26.5310   21.5670 C   0  0  0  0  0  2  0  0  0  0  0  0
  -18.4520  -26.6590   22.1100 C   0  0  0  0  0  2  0  0  0  0  0  0
  -19.2720  -28.8200   23.2210 C   0  0  0  0  0  0  0  0  0  0  0  0
  -18.9790  -30.0860   23.7730 C   0  0  0  0  0  3  0  0  0  0  0  0
  -17.6520  -30.5500   23.8470 C   0  0  0  0  0  3  0  0  0  0  0  0
  -16.5990  -29.7480   23.3770 C   0  0  0  0  0  3  0  0  0  0  0  0
  -16.8730  -28.4820   22.8300 C   0  0  0  0  0  3  0  0  0  0  0  0
  -26.0520  -32.4520   24.0650 C   0  0  0  0  0  3  0  0  0  0  0  0
  -26.4610  -31.7240   25.4060 C   0  0  1  0  0  0  0  0  0  0  0  0
  -25.2830  -31.5160   26.3880 C   0  0  0  0  0  1  0  0  0  0  0  0
  -27.0710  -30.3360   25.1210 C   0  0  0  0  0  1  0  0  0  0  0  0
  -27.5590  -32.5370   26.1320 C   0  0  0  0  0  1  0  0  0  0  0  0
  -25.7220  -33.8650   24.3570 N   0  0  0  0  0  0  0  0  0  0  0  0
  -26.0710  -34.9160   23.6020 C   0  0  0  0  0  0  0  0  0  0  0  0
  -26.7560  -34.8000   22.5840 O   0  0  0  0  0  0  0  0  0  0  0  0
  -25.1160  -34.0310   25.1480 H   0  0  0  0  0  0  0  0  0  0  0  0
  -24.3420  -36.7170   23.2420 C   0  0  0  0  0  1  0  0  0  0  0  0
  -25.5910  -36.3160   24.0460 C   0  0  0  0  0  3  0  0  0  0  0  0
  -27.7260  -37.2290   24.8470 C   0  0  0  0  0  1  0  0  0  0  0  0
  -26.6210  -37.3690   23.9040 N   0  0  0  0  0  0  0  0  0  0  0  0
  -26.2120  -38.2910   24.0310 H   0  0  0  0  0  0  0  0  0  0  0  0
  1 21  1  0
  2  1  1  0
  2 10  2  0
  3  6  1  0
  3  4  1  0
  4  8  1  0
  5  7  1  0
  5  8  1  0
  6  9  1  0
  8  2  1  0
  9 12  1  0
  9  7  1  0
 11  9  1  0
 13 19  1  0
 13 21  1  0
 14 19  1  0
 15 16  1  0
 15 14  1  0
 17 16  1  0
 17 26  1  0
 17 18  1  0
 19 18  1  0
 20 13  2  0
 21 22  1  0
 23 24  2  0
 24 43  1  0
 25 24  1  0
 25 28  1  0
 26 23  1  0
 26 27  1  0
 27 25  2  0
 28 29  1  0
 29 30  2  0
 31 34  1  0
 31 30  1  0
 32 31  2  0
 33 32  1  0
 33 28  2  0
 34 35  1  0
 35 40  2  0
 35 36  1  0
 36 37  2  0
 37 38  1  0
 38 42  1  0
 39 38  2  0
 40 39  1  0
 41 40  1  0
 43 44  1  0
 44 47  1  0
 44 46  1  0
 45 43  2  0
 48 49  1  0
 48 23  1  0
 50 48  1  0
 54 65  2  0
 55 53  1  0
 55 60  1  0
 56 64  1  0
 56 66  1  0
 57 59  1  0
 58 64  1  0
 59 60  2  0
 59 58  1  0
 61 55  2  0
 62 61  1  0
 62 57  2  0
 63 57  1  0
 63 56  1  0
 64 54  1  0
 66 68  2  0
 67 66  1  0
 69 67  1  0
 70 79  2  0
 70 75  1  0
 71 67  1  0
 71 75  1  0
 72 71  1  0
 73 74  1  0
 73 72  1  0
 74 70  1  0
 75 76  2  0
 76 77  1  0
 78 77  2  0
 79 78  1  0
 80 54  1  0
 80 85  1  0
 80 81  1  0
 81 84  1  1
 81 82  1  0
 83 81  1  0
 85 88  1  0
 86 90  1  0
 86 85  1  0
 87 86  2  0
 90 89  1  0
 92 93  1  0
 92 90  1  0
 92 91  1  0
M  ISO  4  13 100  21 100  52 101  53 101
M  END
>  <TORSDO>  (39) 
F 19

>  <SCORE>  (39) 
-12.688

>  <name>  (39) 
39

>  <ligand_id>  (39) 
39

>  <original_smiles>  (39) 
[H]c1c([H])c([H])c2c(c1[H])C([H])([H])C([H])([H])C([H])([H])C2([H])N([H])C(=O)C1([H])N(C(=O)C([H])(N([H])C(=O)C([H])(N([H])C([H])([H])[H])C([H])([H])[H])C(C([H])([H])[H])(C([H])([H])[H])C([H])([H])[H])C([H])([H])c2c([H])c(OC([H])([H])C([H])([H])C([H])(C(=O)N3C([H])([H])C([H])([H])C([H])([H])[N+]([H])([H])C([H])([H])C3([H])[H])N([H])C(=O)N3C([H])([H])C([H])([H])C([H])([H])C([H])(n4nc(-c5c([H])c([H])c(Oc6c([H])c([H])c(F)c([H])c6F)c([H])c5[H])c(C(=O)N([H])[H])c4N([H])[H])C3([H])[H])c([H])c([H])c2C1([H])[H]

>  <smiles>  (39) 
[H]c1c([H])c([H])c2c(c1[H])C([H])([H])C([H])([H])C([H])([H])C2([H])N([H])C(=O)C1([H])N(C(=O)C([H])(N([H])C(=O)C([H])(N([H])C([H])([H])[H])C([H])([H])[H])C(C([H])([H])[H])(C([H])([H])[H])C([H])([H])[H])C([H])([H])c2c([H])c(OC([H])([H])C([H])([H])C([H])(C(=O)N3C([H])([H])C([H])([H])C([H])([H])[N+]([H])([H])C([H])([H])C3([H])[H])N([H])C(=O)N3C([H])([H])C([H])([H])C([H])([H])C([H])(n4nc(-c5c([H])c([H])c(Oc6c([H])c([H])c(F)c([H])c6F)c([H])c5[H])c(C(=O)N([H])[H])c4N([H])[H])C3([H])[H])c([H])c([H])c2C1([H])[H]

$$$$
41:0:0
     RDKit          3D

107114  0  0  1  0  0  0  0  0999 V2000
  -31.7180  -18.5630   22.6310 C   0  0  0  0  0  2  0  0  0  0  0  0
  -31.5110  -20.0930   22.7830 C   0  0  0  0  0  2  0  0  0  0  0  0
  -30.1280  -20.5120   22.4780 N   0  0  0  0  0  4  0  0  0  0  0  0
  -29.8130  -20.0150   21.6430 H   0  0  0  0  0  0  0  0  0  0  0  0
  -29.5070  -20.2460   23.2240 H   0  0  0  0  0  0  0  0  0  0  0  0
  -29.9440  -21.9560   22.1970 C   0  0  0  0  0  2  0  0  0  0  0  0
  -28.5840  -22.2050   21.5370 C   0  0  0  0  0  0  0  0  0  0  0  0
  -26.7520  -23.6470   20.8510 C   0  0  0  0  0  1  0  0  0  0  0  0
  -28.1210  -23.4650   21.3490 N   0  0  0  0  0  0  0  0  0  0  0  0
  -27.9210  -21.2160   21.2030 O   0  0  0  0  0  0  0  0  0  0  0  0
  -28.8260  -24.7300   21.6360 C   0  0  0  0  0  2  0  0  0  0  0  0
  -28.9950  -25.5770   20.3500 C   0  0  0  0  0  2  0  0  0  0  0  0
  -28.9980  -27.1060   20.5750 C   0  0  0  0  0  2  0  0  0  0  0  0
  -28.3620  -27.7010   19.4420 O   0  0  0  0  0  0  0  0  0  0  0  0
  -24.5050  -32.1930   23.4360 C   0  0  0  0  0  0  0  0  0  0  0  0
  -27.1680  -28.3400   19.6750 C   0  0  0  0  0  0  0  0  0  0  0  0
  -23.2650  -30.9650   21.6760 C   0  0  0  0  0  3  0  0  0  0  0  0
  -24.7080  -29.6910   19.9940 C   0  0  0  0  0  0  0  0  0  0  0  0
  -25.7570  -31.4610   21.4120 C   0  0  0  0  0  2  0  0  0  0  0  0
  -25.8670  -30.1870   20.6060 C   0  0  0  0  0  0  0  0  0  0  0  0
  -27.0970  -29.5120   20.4610 C   0  0  0  0  0  3  0  0  0  0  0  0
  -25.9970  -27.8510   19.0610 C   0  0  0  0  0  3  0  0  0  0  0  0
  -24.7640  -28.5120   19.2280 C   0  0  0  0  0  3  0  0  0  0  0  0
  -23.4330  -30.4760   20.2090 C   0  0  0  0  0  2  0  0  0  0  0  0
  -24.5290  -31.5500   22.2340 N   0  0  0  0  0  0  0  0  0  0  0  0
  -23.4470  -32.3460   24.0610 O   0  0  0  0  0  0  0  0  0  0  0  0
  -22.7070  -29.8010   22.5230 C   0  0  0  0  0  0  0  0  0  0  0  0
  -21.3910  -29.5580   22.4090 N   0  0  0  0  0  0  0  0  0  0  0  0
  -23.4510  -29.1210   23.2330 O   0  0  0  0  0  0  0  0  0  0  0  0
  -20.8470  -30.1640   21.8110 H   0  0  0  0  0  0  0  0  0  0  0  0
  -18.1230  -28.0620   22.7690 C   0  0  0  0  0  0  0  0  0  0  0  0
  -20.6540  -28.4870   23.0770 C   0  0  0  0  0  3  0  0  0  0  0  0
  -20.8650  -27.1340   22.3600 C   0  0  0  0  0  2  0  0  0  0  0  0
  -19.7880  -26.8310   21.3130 C   0  0  0  0  0  2  0  0  0  0  0  0
  -18.4000  -26.8060   21.9620 C   0  0  0  0  0  2  0  0  0  0  0  0
  -19.1810  -28.8610   23.2790 C   0  0  0  0  0  0  0  0  0  0  0  0
  -18.8680  -30.0400   23.9910 C   0  0  0  0  0  3  0  0  0  0  0  0
  -17.5300  -30.4220   24.1980 C   0  0  0  0  0  3  0  0  0  0  0  0
  -16.4860  -29.6190   23.7040 C   0  0  0  0  0  3  0  0  0  0  0  0
  -16.7830  -28.4410   22.9960 C   0  0  0  0  0  3  0  0  0  0  0  0
  -25.8010  -32.7900   24.0730 C   0  0  0  0  0  3  0  0  0  0  0  0
  -26.2770  -32.0130   25.3590 C   0  0  1  0  0  0  0  0  0  0  0  0
  -25.1600  -31.8110   26.4100 C   0  0  0  0  0  1  0  0  0  0  0  0
  -26.8270  -30.6180   24.9800 C   0  0  0  0  0  1  0  0  0  0  0  0
  -27.4390  -32.7770   26.0360 C   0  0  0  0  0  1  0  0  0  0  0  0
  -25.5310  -34.1990   24.3840 N   0  0  0  0  0  0  0  0  0  0  0  0
  -25.9290  -35.2350   23.6310 C   0  0  0  0  0  0  0  0  0  0  0  0
  -26.6330  -35.1010   22.6270 O   0  0  0  0  0  0  0  0  0  0  0  0
  -24.9150  -34.3820   25.1640 H   0  0  0  0  0  0  0  0  0  0  0  0
  -24.2810  -37.0820   23.1960 C   0  0  0  0  0  1  0  0  0  0  0  0
  -25.4730  -36.6410   24.0610 C   0  0  0  0  0  3  0  0  0  0  0  0
  -27.6100  -37.4430   24.9630 C   0  0  0  0  0  1  0  0  0  0  0  0
  -26.5460  -37.6550   23.9850 N   0  0  0  0  0  0  0  0  0  0  0  0
  -26.1700  -38.5890   24.1260 H   0  0  0  0  0  0  0  0  0  0  0  0
  -33.1080  -18.1350   22.0950 C   0  0  0  0  0  2  0  0  0  0  0  0
  -33.2910  -18.1410   20.5510 C   0  0  0  0  0  2  0  0  0  0  0  0
  -32.8060  -19.4320   19.8720 C   0  0  0  0  0  2  0  0  0  0  0  0
  -33.3340  -19.7290   18.4540 C   0  0  0  0  0  2  0  0  0  0  0  0
  -32.6650  -20.9040   17.8340 N   0  0  0  0  0  4  0  0  0  0  0  0
  -33.1860  -21.1130   16.9940 H   0  0  0  0  0  0  0  0  0  0  0  0
  -32.7520  -21.7180   18.4220 H   0  0  0  0  0  0  0  0  0  0  0  0
  -31.2560  -20.7020   17.4100 C   0  0  0  0  0  2  0  0  0  0  0  0
  -30.1830  -21.2280   18.4110 C   0  0  0  0  0  2  0  0  0  0  0  0
  -28.7780  -20.6010   18.2240 C   0  0  0  0  0  2  0  0  0  0  0  0
  -28.6010  -18.4260   19.4660 C   0  0  0  0  0  0  0  0  0  0  0  0
  -28.7960  -19.1450   18.3540 N   0  0  0  0  0  0  0  0  0  0  0  0
  -28.2140  -18.9210   20.5280 O   0  0  0  0  0  0  0  0  0  0  0  0
  -29.0250  -18.6200   17.5190 H   0  0  0  0  0  0  0  0  0  0  0  0
  -28.9670  -16.9440   19.3410 C   0  0  0  0  0  2  0  0  0  0  0  0
  -29.8580  -14.9850   20.4800 C   0  0  0  0  0  0  0  0  0  0  0  0
  -29.9200  -12.6900   19.6600 C   0  0  0  0  0  2  0  0  0  0  0  0
  -29.0200  -12.6480   18.4060 C   0  0  0  0  0  2  0  0  0  0  0  0
  -27.5670  -12.3300   18.8050 C   0  0  0  0  0  2  0  0  0  0  0  0
  -27.0470  -13.2390   19.9500 C   0  0  0  0  0  3  0  0  0  0  0  0
  -28.0700  -13.3300   21.1130 C   0  0  0  0  0  2  0  0  0  0  0  0
  -29.3730  -13.7200   20.5560 N   0  0  0  0  0  0  0  0  0  0  0  0
  -31.0110  -15.2530   20.1420 O   0  0  0  0  0  0  0  0  0  0  0  0
  -28.9070  -15.9270   20.4000 N   0  0  0  0  0  0  0  0  0  0  0  0
  -27.9900  -15.6700   20.7260 H   0  0  0  0  0  0  0  0  0  0  0  0
  -24.5870  -13.5550   20.6420 C   0  0  0  0  0  0  0  0  0  0  0  0
  -23.6180  -12.6590   20.9950 C   0  0  0  0  0  0  0  0  0  0  0  0
  -24.2380  -11.3720   20.9620 C   0  0  0  0  0  0  0  0  0  0  0  0
  -25.7330  -12.8070   20.4170 N   0  0  0  0  0  0  0  0  0  0  0  0
  -25.5260  -11.4890   20.6710 N   0  0  0  0  0  0  0  0  0  0  0  0
  -23.6680  -10.0320   21.1350 C   0  0  0  0  0  0  0  0  0  0  0  0
  -24.1380   -9.1540   22.1360 C   0  0  0  0  0  3  0  0  0  0  0  0
  -23.5650   -7.8730   22.2890 C   0  0  0  0  0  3  0  0  0  0  0  0
  -22.5050   -7.4640   21.4450 C   0  0  0  0  0  0  0  0  0  0  0  0
  -22.0580   -8.3340   20.4350 C   0  0  0  0  0  3  0  0  0  0  0  0
  -22.6330   -9.6060   20.2790 C   0  0  0  0  0  3  0  0  0  0  0  0
  -21.9000   -6.2320   21.5090 O   0  0  0  0  0  0  0  0  0  0  0  0
  -21.7620   -5.5600   22.6960 C   0  0  0  0  0  0  0  0  0  0  0  0
  -21.0640   -6.1160   23.7920 C   0  0  0  0  0  3  0  0  0  0  0  0
  -20.8900   -5.3620   24.9690 C   0  0  0  0  0  3  0  0  0  0  0  0
  -21.3970   -4.0510   25.0500 C   0  0  0  0  0  0  0  0  0  0  0  0
  -22.0850   -3.4940   23.9580 C   0  0  0  0  0  3  0  0  0  0  0  0
  -22.2640   -4.2460   22.7840 C   0  0  0  0  0  0  0  0  0  0  0  0
  -22.9110   -3.6970   21.7270 F   0  0  0  0  0  0  0  0  0  0  0  0
  -21.2220   -3.3250   26.1800 F   0  0  0  0  0  0  0  0  0  0  0  0
  -22.1700  -12.9630   21.2550 C   0  0  0  0  0  0  0  0  0  0  0  0
  -21.5240  -12.1820   22.1150 N   0  0  0  0  0  0  0  0  0  0  0  0
  -21.6150  -13.9280   20.7310 O   0  0  0  0  0  0  0  0  0  0  0  0
  -21.9800  -11.3990   22.5590 H   0  0  0  0  0  0  0  0  0  0  0  0
  -20.5570  -12.3720   22.3340 H   0  0  0  0  0  0  0  0  0  0  0  0
  -24.5860  -14.9370   20.4660 N   0  0  0  0  0  0  0  0  0  0  0  0
  -23.7400  -15.4860   20.5670 H   0  0  0  0  0  0  0  0  0  0  0  0
  -25.3660  -15.4760   20.1140 H   0  0  0  0  0  0  0  0  0  0  0  0
  1  2  1  0
  3  2  1  0
  3  5  1  0
  4  3  1  0
  6  3  1  0
  7  6  1  0
  8  9  1  0
  9  7  1  0
  9 11  1  0
 10  7  2  0
 12 13  1  0
 12 11  1  0
 14 16  1  0
 14 13  1  0
 15 26  2  0
 16 21  1  0
 17 25  1  0
 17 27  1  0
 18 24  1  0
 18 20  1  0
 19 25  1  0
 20 19  1  0
 21 20  2  0
 22 23  1  0
 22 16  2  0
 23 18  2  0
 24 17  1  0
 25 15  1  0
 27 29  2  0
 28 27  1  0
 30 28  1  0
 31 40  2  0
 31 36  1  0
 32 28  1  0
 32 36  1  0
 33 32  1  0
 34 35  1  0
 34 33  1  0
 35 31  1  0
 36 37  2  0
 37 38  1  0
 39 38  2  0
 40 39  1  0
 41 15  1  0
 41 46  1  0
 41 42  1  0
 42 45  1  1
 42 43  1  0
 44 42  1  0
 46 49  1  0
 47 51  1  0
 47 46  1  0
 48 47  2  0
 51 50  1  0
 53 51  1  0
 53 54  1  0
 53 52  1  0
 55  1  1  0
 56 55  1  0
 57 56  1  0
 58 57  1  0
 59 61  1  0
 59 58  1  0
 60 59  1  0
 62 59  1  0
 62 63  1  0
 64 66  1  0
 64 63  1  0
 65 67  2  0
 66 65  1  0
 68 66  1  0
 69 65  1  0
 69 78  1  0
 70 76  1  0
 71 76  1  0
 72 73  1  0
 72 71  1  0
 74 73  1  0
 74 83  1  0
 74 75  1  0
 76 75  1  0
 77 70  2  0
 78 70  1  0
 78 79  1  0
 80 81  2  0
 81100  1  0
 82 81  1  0
 82 85  1  0
 83 80  1  0
 83 84  1  0
 84 82  2  0
 85 86  1  0
 86 87  2  0
 88 91  1  0
 88 87  1  0
 89 88  2  0
 90 89  1  0
 90 85  2  0
 91 92  1  0
 92 97  2  0
 92 93  1  0
 93 94  2  0
 94 95  1  0
 95 99  1  0
 96 95  2  0
 97 96  1  0
 98 97  1  0
100101  1  0
101104  1  0
101103  1  0
102100  2  0
105106  1  0
105 80  1  0
107105  1  0
M  ISO  4  13 101  14 101  70 100  78 100
M  END
>  <TORSDO>  (40) 
F 33

>  <SCORE>  (40) 
-7.587

>  <name>  (40) 
41

>  <ligand_id>  (40) 
41

>  <original_smiles>  (40) 
[H]c1c([H])c([H])c2c(c1[H])C([H])([H])C([H])([H])C([H])([H])C2([H])N([H])C(=O)C1([H])N(C(=O)C([H])(N([H])C(=O)C([H])(N([H])C([H])([H])[H])C([H])([H])[H])C(C([H])([H])[H])(C([H])([H])[H])C([H])([H])[H])C([H])([H])c2c([H])c(OC([H])([H])C([H])([H])C([H])([H])N(C(=O)C([H])([H])[N+]([H])([H])C([H])([H])C([H])([H])C([H])([H])C([H])([H])C([H])([H])C([H])([H])[N+]([H])([H])C([H])([H])C([H])([H])C([H])([H])N([H])C(=O)C([H])([H])N([H])C(=O)N3C([H])([H])C([H])([H])C([H])([H])C([H])(n4nc(-c5c([H])c([H])c(Oc6c([H])c([H])c(F)c([H])c6F)c([H])c5[H])c(C(=O)N([H])[H])c4N([H])[H])C3([H])[H])C([H])([H])[H])c([H])c([H])c2C1([H])[H]

>  <smiles>  (40) 
[H]c1c([H])c([H])c2c(c1[H])C([H])([H])C([H])([H])C([H])([H])C2([H])N([H])C(=O)C1([H])N(C(=O)C([H])(N([H])C(=O)C([H])(N([H])C([H])([H])[H])C([H])([H])[H])C(C([H])([H])[H])(C([H])([H])[H])C([H])([H])[H])C([H])([H])c2c([H])c(OC([H])([H])C([H])([H])C([H])([H])N(C(=O)C([H])([H])[N+]([H])([H])C([H])([H])C([H])([H])C([H])([H])C([H])([H])C([H])([H])C([H])([H])[N+]([H])([H])C([H])([H])C([H])([H])C([H])([H])N([H])C(=O)C([H])([H])N([H])C(=O)N3C([H])([H])C([H])([H])C([H])([H])C([H])(n4nc(-c5c([H])c([H])c(Oc6c([H])c([H])c(F)c([H])c6F)c([H])c5[H])c(C(=O)N([H])[H])c4N([H])[H])C3([H])[H])C([H])([H])[H])c([H])c([H])c2C1([H])[H]

$$$$
42:0:0
     RDKit          3D

102110  0  0  1  0  0  0  0  0999 V2000
  -28.7330  -19.2900   21.2630 C   0  0  0  0  0  0  0  0  0  0  0  0
  -28.1900  -17.8880   17.8470 C   0  0  0  0  0  2  0  0  0  0  0  0
  -29.3990  -17.0950   18.3070 C   0  0  0  0  0  2  0  0  0  0  0  0
  -27.6660  -18.5850   19.1130 C   0  0  0  0  0  2  0  0  0  0  0  0
  -29.9070  -17.8740   19.5220 C   0  0  0  0  0  3  0  0  0  0  0  0
  -28.7400  -18.5530   20.1200 N   0  0  0  0  0  0  0  0  0  0  0  0
  -29.5410  -19.1180   22.1790 O   0  0  0  0  0  0  0  0  0  0  0  0
  -30.9670  -17.1280   20.4050 C   0  0  0  0  0  3  0  0  0  0  0  0
  -31.2690  -14.5630   20.3450 C   0  0  0  0  0  0  0  0  0  0  0  0
  -30.8930  -12.3590   19.3360 C   0  0  0  0  0  2  0  0  0  0  0  0
  -29.9790  -12.5370   18.1070 C   0  0  0  0  0  2  0  0  0  0  0  0
  -28.4990  -12.4320   18.5260 C   0  0  0  0  0  2  0  0  0  0  0  0
  -28.1630  -13.3300   19.7470 C   0  0  0  0  0  3  0  0  0  0  0  0
  -29.2100  -13.1880   20.8760 C   0  0  0  0  0  2  0  0  0  0  0  0
  -30.5410  -13.4190   20.2930 N   0  0  0  0  0  0  0  0  0  0  0  0
  -32.4450  -14.5910   19.9830 O   0  0  0  0  0  0  0  0  0  0  0  0
  -30.5830  -15.7000   20.5960 N   0  0  0  0  0  0  0  0  0  0  0  0
  -29.6290  -15.5510   20.8890 H   0  0  0  0  0  0  0  0  0  0  0  0
  -25.8330  -14.0170   20.5780 C   0  0  0  0  0  0  0  0  0  0  0  0
  -24.7210  -13.2830   20.8940 C   0  0  0  0  0  0  0  0  0  0  0  0
  -25.0890  -11.9150   20.7080 C   0  0  0  0  0  0  0  0  0  0  0  0
  -26.8090  -13.0970   20.2320 N   0  0  0  0  0  0  0  0  0  0  0  0
  -26.3680  -11.8220   20.3690 N   0  0  0  0  0  0  0  0  0  0  0  0
  -24.2830  -10.6890   20.7780 C   0  0  0  0  0  0  0  0  0  0  0  0
  -24.6920   -9.5820   21.5530 C   0  0  0  0  0  3  0  0  0  0  0  0
  -23.8940   -8.4200   21.6220 C   0  0  0  0  0  3  0  0  0  0  0  0
  -22.6700   -8.3600   20.9150 C   0  0  0  0  0  0  0  0  0  0  0  0
  -22.2760   -9.4560   20.1250 C   0  0  0  0  0  3  0  0  0  0  0  0
  -23.0750  -10.6100   20.0550 C   0  0  0  0  0  3  0  0  0  0  0  0
  -21.8410   -7.2640   20.9030 O   0  0  0  0  0  0  0  0  0  0  0  0
  -21.8210   -6.3650   21.9390 C   0  0  0  0  0  0  0  0  0  0  0  0
  -21.5220   -6.7580   23.2620 C   0  0  0  0  0  3  0  0  0  0  0  0
  -21.4410   -5.7890   24.2820 C   0  0  0  0  0  3  0  0  0  0  0  0
  -21.6520   -4.4300   23.9810 C   0  0  0  0  0  0  0  0  0  0  0  0
  -21.9460   -4.0370   22.6630 C   0  0  0  0  0  3  0  0  0  0  0  0
  -22.0260   -5.0020   21.6440 C   0  0  0  0  0  0  0  0  0  0  0  0
  -22.2880   -4.6150   20.3730 F   0  0  0  0  0  0  0  0  0  0  0  0
  -21.5670   -3.5000   24.9600 F   0  0  0  0  0  0  0  0  0  0  0  0
  -23.3640  -13.8180   21.2480 C   0  0  0  0  0  0  0  0  0  0  0  0
  -22.6110  -13.0880   22.0620 N   0  0  0  0  0  0  0  0  0  0  0  0
  -22.9800  -14.9140   20.8390 O   0  0  0  0  0  0  0  0  0  0  0  0
  -22.9360  -12.1990   22.4120 H   0  0  0  0  0  0  0  0  0  0  0  0
  -21.6970  -13.4220   22.3400 H   0  0  0  0  0  0  0  0  0  0  0  0
  -26.0930  -15.3830   20.5350 N   0  0  0  0  0  0  0  0  0  0  0  0
  -25.3760  -16.0810   20.7060 H   0  0  0  0  0  0  0  0  0  0  0  0
  -26.9660  -15.7780   20.2150 H   0  0  0  0  0  0  0  0  0  0  0  0
  -32.3990  -17.3550   19.8040 C   0  0  0  0  0  2  0  0  0  0  0  0
  -32.8440  -18.8090   19.5010 C   0  0  0  0  0  2  0  0  0  0  0  0
  -32.7920  -19.1800   17.9990 C   0  0  0  0  0  2  0  0  0  0  0  0
  -33.0950  -20.6650   17.7080 C   0  0  0  0  0  2  0  0  0  0  0  0
  -31.9790  -21.5600   18.0670 N   0  0  0  0  0  4  0  0  0  0  0  0
  -31.1510  -21.3230   17.5520 H   0  0  0  0  0  0  0  0  0  0  0  0
  -32.2200  -22.5080   17.8310 H   0  0  0  0  0  0  0  0  0  0  0  0
  -31.7830  -21.5250   19.0500 H   0  0  0  0  0  0  0  0  0  0  0  0
  -27.7640  -20.4790   21.4120 C   0  0  0  0  0  2  0  0  0  0  0  0
  -28.4850  -21.6800   21.1230 O   0  0  0  0  0  0  0  0  0  0  0  0
  -27.6770  -22.8530   21.1280 C   0  0  0  0  0  2  0  0  0  0  0  0
  -28.5570  -24.0890   21.3830 C   0  0  0  0  0  2  0  0  0  0  0  0
  -29.3700  -24.3620   20.2430 O   0  0  0  0  0  0  0  0  0  0  0  0
  -30.3890  -25.3390   20.4620 C   0  0  0  0  0  2  0  0  0  0  0  0
  -29.8360  -26.7640   20.6710 C   0  0  0  0  0  2  0  0  0  0  0  0
  -29.1830  -27.2060   19.4810 O   0  0  0  0  0  0  0  0  0  0  0  0
  -25.2650  -31.5860   23.5360 C   0  0  0  0  0  0  0  0  0  0  0  0
  -28.0240  -27.9190   19.6670 C   0  0  0  0  0  0  0  0  0  0  0  0
  -24.0930  -30.5170   21.6320 C   0  0  0  0  0  3  0  0  0  0  0  0
  -25.5910  -29.3190   19.9480 C   0  0  0  0  0  0  0  0  0  0  0  0
  -26.6110  -30.9600   21.5380 C   0  0  0  0  0  2  0  0  0  0  0  0
  -26.7300  -29.7420   20.6480 C   0  0  0  0  0  0  0  0  0  0  0  0
  -27.9490  -29.0460   20.5170 C   0  0  0  0  0  3  0  0  0  0  0  0
  -26.8790  -27.5100   18.9570 C   0  0  0  0  0  3  0  0  0  0  0  0
  -25.6590  -28.1980   19.0990 C   0  0  0  0  0  3  0  0  0  0  0  0
  -24.3250  -30.1210   20.1460 C   0  0  0  0  0  2  0  0  0  0  0  0
  -25.3390  -31.0250   22.2940 N   0  0  0  0  0  0  0  0  0  0  0  0
  -24.1770  -31.7210   24.1140 O   0  0  0  0  0  0  0  0  0  0  0  0
  -23.4580  -29.3150   22.3720 C   0  0  0  0  0  0  0  0  0  0  0  0
  -22.1400  -29.1280   22.1960 N   0  0  0  0  0  0  0  0  0  0  0  0
  -24.1520  -28.5610   23.0580 O   0  0  0  0  0  0  0  0  0  0  0  0
  -21.6380  -29.7960   21.6280 H   0  0  0  0  0  0  0  0  0  0  0  0
  -18.8090  -27.7380   22.3510 C   0  0  0  0  0  0  0  0  0  0  0  0
  -21.3450  -28.0380   22.7570 C   0  0  0  0  0  3  0  0  0  0  0  0
  -21.5260  -26.7350   21.9440 C   0  0  0  0  0  2  0  0  0  0  0  0
  -20.4690  -26.5550   20.8490 C   0  0  0  0  0  2  0  0  0  0  0  0
  -19.0630  -26.5360   21.4580 C   0  0  0  0  0  2  0  0  0  0  0  0
  -19.8800  -28.4520   22.9500 C   0  0  0  0  0  0  0  0  0  0  0  0
  -19.5910  -29.5830   23.7450 C   0  0  0  0  0  3  0  0  0  0  0  0
  -18.2600  -29.9980   23.9470 C   0  0  0  0  0  3  0  0  0  0  0  0
  -17.2030  -29.2770   23.3640 C   0  0  0  0  0  3  0  0  0  0  0  0
  -17.4780  -28.1480   22.5720 C   0  0  0  0  0  3  0  0  0  0  0  0
  -26.5380  -32.1050   24.2760 C   0  0  0  0  0  3  0  0  0  0  0  0
  -26.2210  -33.4310   24.8200 N   0  0  0  0  0  0  0  0  0  0  0  0
  -26.5890  -34.5910   24.2600 C   0  0  0  0  0  0  0  0  0  0  0  0
  -27.3010  -34.6520   23.2530 O   0  0  0  0  0  0  0  0  0  0  0  0
  -25.6050  -33.4600   25.6190 H   0  0  0  0  0  0  0  0  0  0  0  0
  -24.8900  -36.4400   24.1340 C   0  0  0  0  0  1  0  0  0  0  0  0
  -26.0880  -35.8880   24.9220 C   0  0  0  0  0  3  0  0  0  0  0  0
  -28.1860  -36.5940   25.9870 C   0  0  0  0  0  1  0  0  0  0  0  0
  -27.1300  -36.9320   25.0370 N   0  0  0  0  0  0  0  0  0  0  0  0
  -26.7180  -37.8160   25.3210 H   0  0  0  0  0  0  0  0  0  0  0  0
  -27.0390  -31.1350   25.4160 C   0  0  1  0  0  0  0  0  0  0  0  0
  -25.9350  -30.7320   26.4200 C   0  0  0  0  0  1  0  0  0  0  0  0
  -27.6230  -29.8350   24.8110 C   0  0  0  0  0  1  0  0  0  0  0  0
  -28.1820  -31.8080   26.2120 C   0  0  0  0  0  1  0  0  0  0  0  0
  1 55  1  0
  1  7  2  0
  2  3  1  0
  2  4  1  0
  3  5  1  0
  4  6  1  0
  5  6  1  0
  5  8  1  0
  6  1  1  0
  8 47  1  0
  8 17  1  0
  9 17  1  0
 10 15  1  0
 11 12  1  0
 11 10  1  0
 13 12  1  0
 13 22  1  0
 13 14  1  0
 15  9  1  0
 15 14  1  0
 16  9  2  0
 17 18  1  0
 19 20  2  0
 20 39  1  0
 21 24  1  0
 21 20  1  0
 22 23  1  0
 22 19  1  0
 23 21  2  0
 24 25  1  0
 25 26  2  0
 27 26  1  0
 28 27  2  0
 29 28  1  0
 29 24  2  0
 30 27  1  0
 30 31  1  0
 31 32  1  0
 32 33  2  0
 34 33  1  0
 34 38  1  0
 35 34  2  0
 36 31  2  0
 36 35  1  0
 37 36  1  0
 39 40  1  0
 40 43  1  0
 40 42  1  0
 41 39  2  0
 44 19  1  0
 44 45  1  0
 46 44  1  0
 48 47  1  0
 49 48  1  0
 50 49  1  0
 50 51  1  0
 51 54  1  0
 52 51  1  0
 53 51  1  0
 56 57  1  0
 56 55  1  0
 57 58  1  0
 59 60  1  0
 59 58  1  0
 60 61  1  0
 62 64  1  0
 62 61  1  0
 63 74  2  0
 64 69  1  0
 65 73  1  0
 65 75  1  0
 66 72  1  0
 66 68  1  0
 67 73  1  0
 68 67  1  0
 69 68  2  0
 70 71  1  0
 70 64  2  0
 71 66  2  0
 72 65  1  0
 73 63  1  0
 75 77  2  0
 76 75  1  0
 78 76  1  0
 79 88  2  0
 79 84  1  0
 80 76  1  0
 80 84  1  0
 81 80  1  0
 82 83  1  0
 82 81  1  0
 83 79  1  0
 84 85  2  0
 85 86  1  0
 87 86  2  0
 88 87  1  0
 89 63  1  0
 89 90  1  0
 89 99  1  0
 90 93  1  0
 91 90  1  0
 91 95  1  0
 92 91  2  0
 95 94  1  0
 95 97  1  0
 97 98  1  0
 97 96  1  0
 99102  1  1
 99100  1  0
101 99  1  0
M  ISO  4   9 100  17 100  61 101  62 101
M  END
>  <TORSDO>  (41) 
F 29

>  <SCORE>  (41) 
-6.654

>  <name>  (41) 
42

>  <ligand_id>  (41) 
42

>  <original_smiles>  (41) 
[H]c1c([H])c([H])c2c(c1[H])C([H])([H])C([H])([H])C([H])([H])C2([H])N([H])C(=O)C1([H])N(C(=O)C([H])(N([H])C(=O)C([H])(N([H])C([H])([H])[H])C([H])([H])[H])C(C([H])([H])[H])(C([H])([H])[H])C([H])([H])[H])C([H])([H])c2c([H])c(OC([H])([H])C([H])([H])OC([H])([H])C([H])([H])OC([H])([H])C(=O)N3C([H])([H])C([H])([H])C([H])([H])C3([H])C([H])(N([H])C(=O)N3C([H])([H])C([H])([H])C([H])([H])C([H])(n4nc(-c5c([H])c([H])c(Oc6c([H])c([H])c(F)c([H])c6F)c([H])c5[H])c(C(=O)N([H])[H])c4N([H])[H])C3([H])[H])C([H])([H])C([H])([H])C([H])([H])C([H])([H])[N+]([H])([H])[H])c([H])c([H])c2C1([H])[H]

>  <smiles>  (41) 
[H]c1c([H])c([H])c2c(c1[H])C([H])([H])C([H])([H])C([H])([H])C2([H])N([H])C(=O)C1([H])N(C(=O)C([H])(N([H])C(=O)C([H])(N([H])C([H])([H])[H])C([H])([H])[H])C(C([H])([H])[H])(C([H])([H])[H])C([H])([H])[H])C([H])([H])c2c([H])c(OC([H])([H])C([H])([H])OC([H])([H])C([H])([H])OC([H])([H])C(=O)N3C([H])([H])C([H])([H])C([H])([H])C3([H])C([H])(N([H])C(=O)N3C([H])([H])C([H])([H])C([H])([H])C([H])(n4nc(-c5c([H])c([H])c(Oc6c([H])c([H])c(F)c([H])c6F)c([H])c5[H])c(C(=O)N([H])[H])c4N([H])[H])C3([H])[H])C([H])([H])C([H])([H])C([H])([H])C([H])([H])[N+]([H])([H])[H])c([H])c([H])c2C1([H])[H]

$$$$
43:0:0
     RDKit          3D

100107  0  0  1  0  0  0  0  0999 V2000
  -30.7700  -20.2090   20.5950 C   0  0  0  0  0  2  0  0  0  0  0  0
  -29.8860  -18.9770   20.4960 C   0  0  0  0  0  0  0  0  0  0  0  0
  -28.6610  -19.1380   19.9710 N   0  0  0  0  0  0  0  0  0  0  0  0
  -30.3180  -17.9080   20.9130 O   0  0  0  0  0  0  0  0  0  0  0  0
  -28.4420  -20.0470   19.5850 H   0  0  0  0  0  0  0  0  0  0  0  0
  -27.5920  -18.1360   19.9030 C   0  0  0  0  0  2  0  0  0  0  0  0
  -30.7190  -13.0770   20.7710 C   0  0  1  0  0  0  0  0  0  0  0  0
  -30.5280  -12.7080   18.1050 C   0  0  0  0  0  3  0  0  0  0  0  0
  -28.9680  -12.1230   17.4610 C   0  0  0  0  0  3  0  0  0  0  0  0
  -27.3440  -12.2790   18.2380 C   0  0  0  0  0  2  0  0  0  0  0  0
  -27.1970  -13.3750   19.7300 C   0  0  0  0  0  2  0  0  0  0  0  0
  -29.6550  -14.3800   20.1640 C   0  0  0  0  0  2  0  0  0  0  0  0
  -30.7050  -13.5440   19.5050 N   0  0  0  0  0  0  0  0  0  0  0  0
  -31.7690  -13.5310   21.2390 O   0  0  0  0  0  1  0  0  0  0  0  0
  -27.8930  -16.9630   18.9490 C   0  0  0  0  0  0  0  0  0  0  0  0
  -28.5340  -14.3990   18.2810 C   0  0  0  0  0  1  0  0  0  0  0  0
  -27.7320  -15.3500   21.1630 C   0  0  0  0  0  2  0  0  0  0  0  0
  -29.0320  -12.1550   19.9270 C   0  0  0  0  0  1  0  0  0  0  0  0
  -28.3510  -13.7480   22.0570 C   0  0  0  0  0  2  0  0  0  0  0  0
  -27.8580  -15.6860   19.3990 N   0  0  0  0  0  0  0  0  0  0  0  0
  -29.4410  -12.5840   21.3630 N   0  0  0  0  0  0  0  0  0  0  0  0
  -28.1780  -17.2280   17.7790 O   0  0  0  0  0  0  0  0  0  0  0  0
  -24.9360  -13.7250   20.7000 C   0  0  0  0  0  0  0  0  0  0  0  0
  -23.9940  -12.8700   21.1200 C   0  0  0  0  0  0  0  0  0  0  0  0
  -24.5690  -11.5710   21.0270 C   0  0  0  0  0  0  0  0  0  0  0  0
  -26.0850  -12.9760   20.5400 N   0  0  0  0  0  0  0  0  0  0  0  0
  -25.8580  -11.6530   20.7340 N   0  0  0  0  0  0  0  0  0  0  0  0
  -23.9320  -10.2680   21.1380 C   0  0  0  0  0  0  0  0  0  0  0  0
  -24.3750   -9.3190   22.0800 C   0  0  0  0  0  3  0  0  0  0  0  0
  -23.6950   -8.0950   22.2200 C   0  0  0  0  0  3  0  0  0  0  0  0
  -22.5660   -7.8150   21.4140 C   0  0  0  0  0  0  0  0  0  0  0  0
  -22.1560   -8.7500   20.4480 C   0  0  0  0  0  3  0  0  0  0  0  0
  -22.8380   -9.9670   20.3040 C   0  0  0  0  0  3  0  0  0  0  0  0
  -21.8510   -6.6440   21.4770 O   0  0  0  0  0  0  0  0  0  0  0  0
  -21.7010   -5.9640   22.6570 C   0  0  0  0  0  0  0  0  0  0  0  0
  -21.0940   -6.5550   23.7860 C   0  0  0  0  0  3  0  0  0  0  0  0
  -20.8970   -5.7990   24.9570 C   0  0  0  0  0  3  0  0  0  0  0  0
  -21.2950   -4.4480   24.9980 C   0  0  0  0  0  0  0  0  0  0  0  0
  -21.8970   -3.8560   23.8740 C   0  0  0  0  0  3  0  0  0  0  0  0
  -22.0970   -4.6120   22.7050 C   0  0  0  0  0  0  0  0  0  0  0  0
  -22.6570   -4.0330   21.6160 F   0  0  0  0  0  0  0  0  0  0  0  0
  -21.1020   -3.7150   26.1210 F   0  0  0  0  0  0  0  0  0  0  0  0
  -22.5850  -13.2630   21.4090 C   0  0  0  0  0  0  0  0  0  0  0  0
  -21.9450  -12.5520   22.3210 N   0  0  0  0  0  0  0  0  0  0  0  0
  -22.0790  -14.2600   20.8870 O   0  0  0  0  0  0  0  0  0  0  0  0
  -22.3860  -11.7590   22.7630 H   0  0  0  0  0  0  0  0  0  0  0  0
  -20.9950  -12.7960   22.5710 H   0  0  0  0  0  0  0  0  0  0  0  0
  -24.8020  -15.0470   20.3050 N   0  0  0  0  0  0  0  0  0  0  0  0
  -23.8950  -15.5050   20.3360 H   0  0  0  0  0  0  0  0  0  0  0  0
  -25.5290  -15.5860   19.8620 H   0  0  0  0  0  0  0  0  0  0  0  0
  -31.6340  -20.4010   19.3350 C   0  0  0  0  0  2  0  0  0  0  0  0
  -30.9180  -22.6220   18.4820 C   0  0  0  0  0  0  0  0  0  0  0  0
  -31.8160  -21.8240   19.0730 N   0  0  0  0  0  0  0  0  0  0  0  0
  -29.8740  -22.1980   17.9780 O   0  0  0  0  0  0  0  0  0  0  0  0
  -32.6370  -22.2640   19.4700 H   0  0  0  0  0  0  0  0  0  0  0  0
  -31.2360  -24.1160   18.5160 C   0  0  0  0  0  2  0  0  0  0  0  0
  -30.0370  -24.8770   18.6260 O   0  0  0  0  0  0  0  0  0  0  0  0
  -30.3250  -26.2500   18.8620 C   0  0  0  0  0  2  0  0  0  0  0  0
  -29.0360  -27.0730   18.9140 C   0  0  0  0  0  2  0  0  0  0  0  0
  -28.3850  -26.8730   20.1640 O   0  0  0  0  0  0  0  0  0  0  0  0
  -24.5210  -31.9340   23.3500 C   0  0  0  0  0  0  0  0  0  0  0  0
  -27.2070  -27.5620   20.2400 C   0  0  0  0  0  0  0  0  0  0  0  0
  -23.3290  -30.5390   21.6890 C   0  0  0  0  0  3  0  0  0  0  0  0
  -24.7960  -29.0140   20.2700 C   0  0  0  0  0  0  0  0  0  0  0  0
  -25.8490  -30.9180   21.5060 C   0  0  0  0  0  2  0  0  0  0  0  0
  -25.9440  -29.5500   20.8690 C   0  0  0  0  0  0  0  0  0  0  0  0
  -27.1540  -28.8250   20.8620 C   0  0  0  0  0  3  0  0  0  0  0  0
  -26.0450  -27.0200   19.6560 C   0  0  0  0  0  3  0  0  0  0  0  0
  -24.8370  -27.7420   19.6700 C   0  0  0  0  0  3  0  0  0  0  0  0
  -23.5490  -29.8650   20.3080 C   0  0  0  0  0  2  0  0  0  0  0  0
  -24.5840  -31.1440   22.2420 N   0  0  0  0  0  0  0  0  0  0  0  0
  -23.4360  -32.1980   23.8870 O   0  0  0  0  0  0  0  0  0  0  0  0
  -22.6770  -29.5090   22.6380 C   0  0  0  0  0  0  0  0  0  0  0  0
  -21.3600  -29.3040   22.4830 N   0  0  0  0  0  0  0  0  0  0  0  0
  -23.3540  -28.8970   23.4690 O   0  0  0  0  0  0  0  0  0  0  0  0
  -20.8750  -29.8510   21.7850 H   0  0  0  0  0  0  0  0  0  0  0  0
  -18.0010  -28.0400   22.8920 C   0  0  0  0  0  0  0  0  0  0  0  0
  -20.5430  -28.3540   23.2360 C   0  0  0  0  0  3  0  0  0  0  0  0
  -20.6930  -26.9220   22.6740 C   0  0  0  0  0  2  0  0  0  0  0  0
  -19.6280  -26.5680   21.6320 C   0  0  0  0  0  2  0  0  0  0  0  0
  -18.2250  -26.6890   22.2340 C   0  0  0  0  0  2  0  0  0  0  0  0
  -19.0900  -28.8290   23.3480 C   0  0  0  0  0  0  0  0  0  0  0  0
  -18.8290  -30.0930   23.9210 C   0  0  0  0  0  3  0  0  0  0  0  0
  -17.5090  -30.5690   24.0420 C   0  0  0  0  0  3  0  0  0  0  0  0
  -16.4340  -29.7780   23.6020 C   0  0  0  0  0  3  0  0  0  0  0  0
  -16.6800  -28.5170   23.0340 C   0  0  0  0  0  3  0  0  0  0  0  0
  -25.8030  -32.5620   23.9830 C   0  0  0  0  0  3  0  0  0  0  0  0
  -25.5110  -33.9730   24.2670 N   0  0  0  0  0  0  0  0  0  0  0  0
  -25.8880  -34.9970   23.4910 C   0  0  0  0  0  0  0  0  0  0  0  0
  -26.5920  -34.8540   22.4870 O   0  0  0  0  0  0  0  0  0  0  0  0
  -24.8930  -34.1590   25.0430 H   0  0  0  0  0  0  0  0  0  0  0  0
  -24.2230  -36.8180   23.0100 C   0  0  0  0  0  1  0  0  0  0  0  0
  -25.4120  -36.4060   23.8920 C   0  0  0  0  0  3  0  0  0  0  0  0
  -27.5140  -37.2710   24.8190 C   0  0  0  0  0  1  0  0  0  0  0  0
  -26.4750  -37.4300   23.8040 N   0  0  0  0  0  0  0  0  0  0  0  0
  -26.0870  -38.3660   23.8870 H   0  0  0  0  0  0  0  0  0  0  0  0
  -26.2840  -31.8160   25.2870 C   0  0  1  0  0  0  0  0  0  0  0  0
  -25.1670  -31.6190   26.3380 C   0  0  0  0  0  1  0  0  0  0  0  0
  -26.8570  -30.4230   24.9380 C   0  0  0  0  0  1  0  0  0  0  0  0
  -27.4320  -32.6110   25.9540 C   0  0  0  0  0  1  0  0  0  0  0  0
  2  1  1  0
  2  4  2  0
  3  2  1  0
  5  3  1  0
  6  3  1  0
  7 14  1  1
  7 21  1  0
  8 13  1  0
  9  8  2  0
  9 10  1  0
 10 11  1  0
 11 26  1  0
 12  7  1  0
 13 12  1  0
 13  7  1  0
 15 20  1  0
 15  6  1  0
 16 20  1  0
 17 19  1  0
 18 21  1  0
 20 17  1  0
 21 19  1  0
 22 15  2  0
 23 24  2  0
 24 43  1  0
 25 24  1  0
 25 28  1  0
 26 23  1  0
 26 27  1  0
 27 25  2  0
 28 29  1  0
 29 30  2  0
 31 34  1  0
 31 30  1  0
 32 31  2  0
 33 32  1  0
 33 28  2  0
 34 35  1  0
 35 40  2  0
 35 36  1  0
 36 37  2  0
 37 38  1  0
 38 42  1  0
 39 38  2  0
 40 39  1  0
 41 40  1  0
 43 44  1  0
 44 47  1  0
 44 46  1  0
 45 43  2  0
 48 49  1  0
 48 23  1  0
 50 48  1  0
 51  1  1  0
 52 56  1  0
 52 53  1  0
 53 51  1  0
 53 55  1  0
 54 52  2  0
 56 57  1  0
 57 58  1  0
 58 59  1  0
 59 60  1  0
 60 62  1  0
 61 72  2  0
 62 67  1  0
 63 71  1  0
 63 73  1  0
 64 70  1  0
 64 66  1  0
 65 71  1  0
 66 65  1  0
 67 66  2  0
 68 69  1  0
 68 62  2  0
 69 64  2  0
 70 63  1  0
 71 61  1  0
 73 75  2  0
 74 73  1  0
 76 74  1  0
 77 86  2  0
 77 82  1  0
 78 74  1  0
 78 82  1  0
 79 78  1  0
 80 81  1  0
 80 79  1  0
 81 77  1  0
 82 83  2  0
 83 84  1  0
 85 84  2  0
 86 85  1  0
 87 61  1  0
 87 88  1  0
 87 97  1  0
 88 91  1  0
 89 93  1  0
 89 88  1  0
 90 89  2  0
 93 92  1  0
 95 96  1  0
 95 93  1  0
 95 94  1  0
 97100  1  1
 97 98  1  0
 99 97  1  0
M  ISO  4   7 100  21 100  59 101  60 101
M  END
>  <TORSDO>  (42) 
F 24

>  <SCORE>  (42) 
-10.534

>  <name>  (42) 
43

>  <ligand_id>  (42) 
43

>  <original_smiles>  (42) 
[H]c1c([H])c([H])c2c(c1[H])C([H])([H])C([H])([H])C([H])([H])C2([H])N([H])C(=O)C1([H])N(C(=O)C([H])(N([H])C(=O)C([H])(N([H])C([H])([H])[H])C([H])([H])[H])C(C([H])([H])[H])(C([H])([H])[H])C([H])([H])[H])C([H])([H])c2c([H])c(OC([H])([H])C([H])([H])OC([H])([H])C(=O)N([H])C([H])([H])C([H])([H])C(=O)N([H])C([H])([H])C(=O)N3C([H])([H])C([H])([H])N(C(=O)N4C([H])([H])C([H])([H])C([H])([H])C([H])(n5nc(-c6c([H])c([H])c(Oc7c([H])c([H])c(F)c([H])c7F)c([H])c6[H])c(C(=O)N([H])[H])c5N([H])[H])C4([H])[H])C([H])([H])C3([H])[H])c([H])c([H])c2C1([H])[H]

>  <smiles>  (42) 
[H]c1c([H])c([H])c2c(c1[H])C([H])([H])C([H])([H])C([H])([H])C2([H])N([H])C(=O)C1([H])N(C(=O)C([H])(N([H])C(=O)C([H])(N([H])C([H])([H])[H])C([H])([H])[H])C(C([H])([H])[H])(C([H])([H])[H])C([H])([H])[H])C([H])([H])c2c([H])c(OC([H])([H])C([H])([H])OC([H])([H])C(=O)N([H])C([H])([H])C([H])([H])C(=O)N([H])C([H])([H])C(=O)N3C([H])([H])C([H])([H])N(C(=O)N4C([H])([H])C([H])([H])C([H])([H])C([H])(n5nc(-c6c([H])c([H])c(Oc7c([H])c([H])c(F)c([H])c7F)c([H])c6[H])c(C(=O)N([H])[H])c5N([H])[H])C4([H])[H])C([H])([H])C3([H])[H])c([H])c([H])c2C1([H])[H]

$$$$
44:0:0
     RDKit          3D

112121  0  0  1  0  0  0  0  0999 V2000
  -32.4120  -21.5830   21.7330 C   0  0  0  0  0  2  0  0  0  0  0  0
  -30.8260  -20.8360   19.9300 C   0  0  0  0  0  2  0  0  0  0  0  0
  -33.4100  -22.0190   20.6390 C   0  0  0  0  0  1  0  0  0  0  0  0
  -31.8460  -21.3100   18.8740 C   0  0  1  0  0  0  0  0  0  0  0  0
  -31.4640  -20.4530   21.2820 C   0  0  0  0  0  2  0  0  0  0  0  0
  -32.7230  -22.4020   19.3740 N   0  0  2  0  0  4  0  0  0  0  0  0
  -32.1300  -23.1900   19.5960 H   0  0  0  0  0  0  0  0  0  0  0  0
  -32.1660  -19.0800   21.2750 C   0  0  0  0  0  0  0  0  0  0  0  0
  -32.4470  -18.5590   20.0760 N   0  0  0  0  0  0  0  0  0  0  0  0
  -32.3970  -18.4860   22.3290 O   0  0  0  0  0  0  0  0  0  0  0  0
  -32.2830  -19.1440   19.2670 H   0  0  0  0  0  0  0  0  0  0  0  0
  -32.7970  -17.1640   19.8080 C   0  0  0  0  0  2  0  0  0  0  0  0
  -33.4650  -16.9890   18.4270 C   0  0  0  0  0  2  0  0  0  0  0  0
  -34.4230  -18.1370   18.0460 C   0  0  0  0  0  2  0  0  0  0  0  0
  -35.5480  -17.6950   17.0980 C   0  0  0  0  0  2  0  0  0  0  0  0
  -35.0720  -16.6470   16.0780 C   0  0  0  0  0  2  0  0  0  0  0  0
  -35.4590  -17.0150   14.6380 C   0  0  0  0  0  2  0  0  0  0  0  0
  -36.0220  -18.4420   14.5070 C   0  0  0  0  0  2  0  0  0  0  0  0
  -37.5200  -18.4090   14.2010 C   0  0  0  0  0  2  0  0  0  0  0  0
  -38.0440  -17.0840   14.2560 O   0  0  0  0  0  0  0  0  0  0  0  0
  -34.8290  -16.4410    7.9290 C   0  0  0  0  0  0  0  0  0  0  0  0
  -37.7820  -16.2660   13.1740 C   0  0  0  0  0  0  0  0  0  0  0  0
  -35.8150  -14.3690    8.8500 C   0  0  0  0  0  3  0  0  0  0  0  0
  -37.3120  -14.6700   10.8860 C   0  0  0  0  0  0  0  0  0  0  0  0
  -36.7640  -16.6620    9.4820 C   0  0  0  0  0  2  0  0  0  0  0  0
  -37.1660  -16.0600   10.8110 C   0  0  0  0  0  0  0  0  0  0  0  0
  -37.3950  -16.8620   11.9520 C   0  0  0  0  0  3  0  0  0  0  0  0
  -37.9030  -14.8550   13.2310 C   0  0  0  0  0  3  0  0  0  0  0  0
  -37.6720  -14.0600   12.0970 C   0  0  0  0  0  3  0  0  0  0  0  0
  -37.0680  -13.8820    9.6200 C   0  0  0  0  0  2  0  0  0  0  0  0
  -35.7550  -15.8630    8.7450 N   0  0  0  0  0  0  0  0  0  0  0  0
  -34.0620  -15.7530    7.2420 O   0  0  0  0  0  0  0  0  0  0  0  0
  -34.5600  -13.7510    9.5060 C   0  0  0  0  0  0  0  0  0  0  0  0
  -34.1810  -12.5460    9.0490 N   0  0  0  0  0  0  0  0  0  0  0  0
  -33.9700  -14.3350   10.4170 O   0  0  0  0  0  0  0  0  0  0  0  0
  -34.7150  -12.1350    8.2960 H   0  0  0  0  0  0  0  0  0  0  0  0
  -32.2990   -9.5130    8.5020 C   0  0  0  0  0  0  0  0  0  0  0  0
  -33.0500  -11.7570    9.5390 C   0  0  0  0  0  3  0  0  0  0  0  0
  -33.4460  -10.9330   10.7850 C   0  0  0  0  0  2  0  0  0  0  0  0
  -33.9180   -9.5160   10.4470 C   0  0  0  0  0  2  0  0  0  0  0  0
  -32.8190   -8.7470    9.7070 C   0  0  0  0  0  2  0  0  0  0  0  0
  -32.4210  -10.9240    8.4160 C   0  0  0  0  0  0  0  0  0  0  0  0
  -31.9520  -11.5840    7.2590 C   0  0  0  0  0  3  0  0  0  0  0  0
  -31.3660  -10.8580    6.2040 C   0  0  0  0  0  3  0  0  0  0  0  0
  -31.2330   -9.4620    6.3020 C   0  0  0  0  0  3  0  0  0  0  0  0
  -31.6940   -8.7940    7.4500 C   0  0  0  0  0  3  0  0  0  0  0  0
  -34.7060  -17.9920    7.8030 C   0  0  0  0  0  3  0  0  0  0  0  0
  -33.8060  -18.6370    8.9270 C   0  0  1  0  0  0  0  0  0  0  0  0
  -32.3740  -18.0560    8.9870 C   0  0  0  0  0  1  0  0  0  0  0  0
  -34.4520  -18.4460   10.3190 C   0  0  0  0  0  1  0  0  0  0  0  0
  -33.6940  -20.1630    8.6970 C   0  0  0  0  0  1  0  0  0  0  0  0
  -34.1640  -18.2830    6.4690 N   0  0  0  0  0  0  0  0  0  0  0  0
  -34.6630  -19.2030    5.6320 C   0  0  0  0  0  0  0  0  0  0  0  0
  -35.5940  -19.9520    5.9380 O   0  0  0  0  0  0  0  0  0  0  0  0
  -33.4360  -17.6710    6.1320 H   0  0  0  0  0  0  0  0  0  0  0  0
  -35.1160  -19.1600    3.1600 C   0  0  0  0  0  1  0  0  0  0  0  0
  -34.0260  -19.3060    4.2330 C   0  0  0  0  0  3  0  0  0  0  0  0
  -31.9650  -20.5720    4.6540 C   0  0  0  0  0  1  0  0  0  0  0  0
  -33.2800  -20.5650    4.0180 N   0  0  0  0  0  0  0  0  0  0  0  0
  -33.1530  -20.7440    3.0260 H   0  0  0  0  0  0  0  0  0  0  0  0
  -33.6860  -22.8650   18.3380 C   0  0  0  0  0  2  0  0  0  0  0  0
  -35.1520  -22.8330   18.8040 C   0  0  0  0  0  2  0  0  0  0  0  0
  -35.2790  -22.0990   20.0150 O   0  0  0  0  0  0  0  0  0  0  0  0
  -36.6130  -22.1280   20.5130 C   0  0  0  0  0  2  0  0  0  0  0  0
  -36.6740  -21.5580   21.9350 C   0  0  0  0  0  2  0  0  0  0  0  0
  -35.3530  -21.4200   22.4290 O   0  0  0  0  0  0  0  0  0  0  0  0
  -35.0290  -22.3460   23.4580 C   0  0  0  0  0  2  0  0  0  0  0  0
  -33.7200  -23.0570   23.0830 C   0  0  0  0  0  2  0  0  0  0  0  0
  -32.6510  -22.1140   23.1020 O   0  0  0  0  0  0  0  0  0  0  0  0
  -31.4720  -22.5250   22.4090 C   0  0  0  0  0  3  0  0  0  0  0  0
  -31.0430  -21.5040   21.3290 C   0  0  0  0  0  3  0  0  0  0  0  0
  -31.4760  -21.8700   20.0210 O   0  0  0  0  0  0  0  0  0  0  0  0
  -31.3970  -20.8390   19.0460 C   0  0  0  0  0  2  0  0  0  0  0  0
  -32.6990  -20.7890   18.2210 C   0  0  0  0  0  2  0  0  0  0  0  0
  -35.0100  -20.4520   19.0920 C   0  0  0  0  0  0  0  0  0  0  0  0
  -37.1870  -19.8700   18.1090 C   0  0  0  0  0  2  0  0  0  0  0  0
  -38.1590  -21.0500   17.9440 C   0  0  0  0  0  2  0  0  0  0  0  0
  -37.9170  -21.7670   16.6060 C   0  0  0  0  0  2  0  0  0  0  0  0
  -36.4270  -22.1270   16.3970 C   0  0  0  0  0  3  0  0  0  0  0  0
  -35.5250  -20.9050   16.6560 C   0  0  0  0  0  2  0  0  0  0  0  0
  -35.8030  -20.3540   17.9960 N   0  0  0  0  0  0  0  0  0  0  0  0
  -35.4410  -20.4110   20.2440 O   0  0  0  0  0  0  0  0  0  0  0  0
  -33.7530  -20.0440   18.8960 N   0  0  0  0  0  0  0  0  0  0  0  0
  -33.3950  -19.5770   19.7160 H   0  0  0  0  0  0  0  0  0  0  0  0
  -35.2550  -23.6170   14.6510 C   0  0  0  0  0  0  0  0  0  0  0  0
  -35.5090  -23.8400   13.3230 C   0  0  0  0  0  0  0  0  0  0  0  0
  -36.6210  -23.0110   12.9890 C   0  0  0  0  0  0  0  0  0  0  0  0
  -36.1930  -22.6840   15.0650 N   0  0  0  0  0  0  0  0  0  0  0  0
  -36.9820  -22.2820   14.0370 N   0  0  0  0  0  0  0  0  0  0  0  0
  -37.4050  -22.9130   11.7510 C   0  0  0  0  0  0  0  0  0  0  0  0
  -37.0490  -22.0160   10.7210 C   0  0  0  0  0  3  0  0  0  0  0  0
  -37.8100  -21.9490    9.5340 C   0  0  0  0  0  3  0  0  0  0  0  0
  -38.9360  -22.7890    9.3660 C   0  0  0  0  0  0  0  0  0  0  0  0
  -39.3000  -23.6640   10.4040 C   0  0  0  0  0  3  0  0  0  0  0  0
  -38.5450  -23.7250   11.5880 C   0  0  0  0  0  3  0  0  0  0  0  0
  -39.7470  -22.7780    8.2550 O   0  0  0  0  0  0  0  0  0  0  0  0
  -39.2580  -23.0570    7.0040 C   0  0  0  0  0  0  0  0  0  0  0  0
  -38.6120  -24.2770    6.7110 C   0  0  0  0  0  3  0  0  0  0  0  0
  -38.1880  -24.5500    5.3940 C   0  0  0  0  0  3  0  0  0  0  0  0
  -38.4170  -23.6110    4.3710 C   0  0  0  0  0  0  0  0  0  0  0  0
  -39.0660  -22.3980    4.6600 C   0  0  0  0  0  3  0  0  0  0  0  0
  -39.4870  -22.1240    5.9730 C   0  0  0  0  0  0  0  0  0  0  0  0
  -40.1310  -20.9610    6.2410 F   0  0  0  0  0  0  0  0  0  0  0  0
  -38.0180  -23.8750    3.1050 F   0  0  0  0  0  0  0  0  0  0  0  0
  -34.8210  -24.8390   12.4370 C   0  0  0  0  0  0  0  0  0  0  0  0
  -34.6380  -24.5060   11.1630 N   0  0  0  0  0  0  0  0  0  0  0  0
  -34.3980  -25.9040   12.8810 O   0  0  0  0  0  0  0  0  0  0  0  0
  -34.9710  -23.6270   10.7950 H   0  0  0  0  0  0  0  0  0  0  0  0
  -34.1560  -25.1430   10.5440 H   0  0  0  0  0  0  0  0  0  0  0  0
  -34.3200  -24.1400   15.5390 N   0  0  0  0  0  0  0  0  0  0  0  0
  -33.6810  -24.8810   15.2720 H   0  0  0  0  0  0  0  0  0  0  0  0
  -34.2690  -23.9150   16.5250 H   0  0  0  0  0  0  0  0  0  0  0  0
  1 70  1  0
  2 72  1  0
  4 74  1  6
  4 73  1  0
  4  6  1  0
  4 72  1  0
  6  7  1  1
  6  3  1  0
  8  5  1  0
  8 10  2  0
  9  8  1  0
 11  9  1  0
 12  9  1  0
 13 12  1  0
 14 13  1  0
 15 14  1  0
 16 15  1  0
 17 16  1  0
 18 17  1  0
 19 20  1  0
 19 18  1  0
 21 31  1  0
 22 28  1  0
 22 20  1  0
 23 33  1  0
 23 30  1  0
 24 29  1  0
 25 26  1  0
 26 24  2  0
 26 27  1  0
 27 22  2  0
 29 28  2  0
 30 24  1  0
 31 23  1  0
 31 25  1  0
 32 21  2  0
 33 35  2  0
 34 33  1  0
 36 34  1  0
 37 41  1  0
 38 34  1  0
 38 39  1  0
 40 39  1  0
 41 40  1  0
 42 37  1  0
 42 38  1  0
 43 42  2  0
 44 45  2  0
 44 43  1  0
 45 46  1  0
 46 37  2  0
 47 21  1  0
 47 48  1  0
 48 49  1  1
 48 50  1  0
 51 48  1  0
 52 47  1  0
 53 54  2  0
 53 52  1  0
 55 52  1  0
 57 56  1  0
 57 53  1  0
 59 57  1  0
 59 58  1  0
 60 59  1  0
 61 62  1  0
 61  6  1  0
 62 63  1  0
 63 64  1  0
 64 65  1  0
 65 66  1  0
 66 67  1  0
 68 69  1  0
 68 67  1  0
 70 69  1  0
 71  5  1  0
 71  1  1  0
 71 70  1  0
 73  2  1  0
 74 83  1  0
 75 82  2  0
 77 76  1  0
 78 77  1  0
 79 88  1  0
 79 78  1  0
 79 80  1  0
 80 81  1  0
 81 76  1  0
 81 75  1  0
 83 75  1  0
 83 84  1  0
 85 88  1  0
 85110  1  0
 86 85  2  0
 87 86  1  0
 87 89  2  0
 89 88  1  0
 90 87  1  0
 91 90  2  0
 92 91  1  0
 93 92  2  0
 93 94  1  0
 94 95  2  0
 95 90  1  0
 96 93  1  0
 97 96  1  0
 98 97  1  0
 99 98  2  0
100101  2  0
100 99  1  0
101102  1  0
102103  1  0
102 97  2  0
104100  1  0
105107  2  0
105 86  1  0
106105  1  0
108106  1  0
109106  1  0
110112  1  0
111110  1  0
M  ISO  4  19 101  20 101  75 100  83 100
M  END
>  <TORSDO>  (43) 
F 39

>  <SCORE>  (43) 
5.774

>  <name>  (43) 
44

>  <ligand_id>  (43) 
44

>  <original_smiles>  (43) 
[H]c1c([H])c([H])c2c(c1[H])C([H])([H])C([H])([H])C([H])([H])C2([H])N([H])C(=O)C1([H])N(C(=O)C([H])(N([H])C(=O)C([H])(N([H])C([H])([H])[H])C([H])([H])[H])C(C([H])([H])[H])(C([H])([H])[H])C([H])([H])[H])C([H])([H])c2c([H])c(OC([H])([H])C([H])([H])C([H])([H])C([H])([H])C([H])([H])C([H])([H])C([H])([H])C([H])([H])N([H])C(=O)C3([H])C([H])([H])C([H])([H])[N+]([H])(C([H])([H])C([H])([H])OC([H])([H])C([H])([H])OC([H])([H])C([H])([H])OC([H])([H])C([H])([H])OC([H])([H])C([H])([H])N([H])C(=O)N4C([H])([H])C([H])([H])C([H])([H])C([H])(n5nc(-c6c([H])c([H])c(Oc7c([H])c([H])c(F)c([H])c7F)c([H])c6[H])c(C(=O)N([H])[H])c5N([H])[H])C4([H])[H])C([H])([H])C3([H])[H])c([H])c([H])c2C1([H])[H]

>  <smiles>  (43) 
[H]c1c([H])c([H])c2c(c1[H])C([H])([H])C([H])([H])C([H])([H])C2([H])N([H])C(=O)C1([H])N(C(=O)C([H])(N([H])C(=O)C([H])(N([H])C([H])([H])[H])C([H])([H])[H])C(C([H])([H])[H])(C([H])([H])[H])C([H])([H])[H])C([H])([H])c2c([H])c(OC([H])([H])C([H])([H])C([H])([H])C([H])([H])C([H])([H])C([H])([H])C([H])([H])C([H])([H])N([H])C(=O)C3([H])C([H])([H])C([H])([H])[N+]([H])(C([H])([H])C([H])([H])OC([H])([H])C([H])([H])OC([H])([H])C([H])([H])OC([H])([H])C([H])([H])OC([H])([H])C([H])([H])N([H])C(=O)N4C([H])([H])C([H])([H])C([H])([H])C([H])(n5nc(-c6c([H])c([H])c(Oc7c([H])c([H])c(F)c([H])c7F)c([H])c6[H])c(C(=O)N([H])[H])c5N([H])[H])C4([H])[H])C([H])([H])C3([H])[H])c([H])c([H])c2C1([H])[H]

$$$$
45:0:0
     RDKit          3D

103110  0  0  1  0  0  0  0  0999 V2000
  -36.4170  -16.1400   17.6440 C   0  0  0  0  0  2  0  0  0  0  0  0
  -34.9950  -14.8960   16.0100 C   0  0  0  0  0  0  0  0  0  0  0  0
  -35.7690  -15.9370   16.3510 N   0  0  0  0  0  0  0  0  0  0  0  0
  -34.9380  -13.8590   16.6760 O   0  0  0  0  0  0  0  0  0  0  0  0
  -35.8010  -16.7150   15.7050 H   0  0  0  0  0  0  0  0  0  0  0  0
  -34.1470  -15.0550   14.7450 C   0  0  0  0  0  2  0  0  0  0  0  0
  -33.1810  -16.2490   14.8500 C   0  0  0  0  0  2  0  0  0  0  0  0
  -32.2630  -16.0250   15.9170 O   0  0  0  0  0  0  0  0  0  0  0  0
  -31.6240  -17.2070   16.3720 C   0  0  0  0  0  2  0  0  0  0  0  0
  -30.8480  -16.8940   17.6620 C   0  0  0  0  0  2  0  0  0  0  0  0
  -30.0270  -18.0900   18.1760 C   0  0  0  0  0  2  0  0  0  0  0  0
  -29.0460  -17.7630   19.3260 C   0  0  0  0  0  2  0  0  0  0  0  0
  -29.5290  -18.1020   20.7580 C   0  0  0  0  0  2  0  0  0  0  0  0
  -30.6720  -17.2330   21.3180 C   0  0  0  0  0  2  0  0  0  0  0  0
  -31.0470  -14.8190   20.8720 C   0  0  0  0  0  0  0  0  0  0  0  0
  -30.7980  -12.7300   19.6150 C   0  0  0  0  0  2  0  0  0  0  0  0
  -29.9260  -13.0160   18.3730 C   0  0  0  0  0  2  0  0  0  0  0  0
  -28.4210  -12.9140   18.6970 C   0  0  0  0  0  2  0  0  0  0  0  0
  -28.0300  -13.6660   19.9990 C   0  0  0  0  0  3  0  0  0  0  0  0
  -29.0150  -13.3530   21.1470 C   0  0  0  0  0  2  0  0  0  0  0  0
  -30.3770  -13.6580   20.6710 N   0  0  0  0  0  0  0  0  0  0  0  0
  -32.2010  -15.0130   20.4790 O   0  0  0  0  0  0  0  0  0  0  0  0
  -30.3070  -15.8180   21.3670 N   0  0  0  0  0  0  0  0  0  0  0  0
  -29.3850  -15.5880   21.7050 H   0  0  0  0  0  0  0  0  0  0  0  0
  -25.5880  -14.2800   20.5520 C   0  0  0  0  0  0  0  0  0  0  0  0
  -24.4970  -13.5070   20.8420 C   0  0  0  0  0  0  0  0  0  0  0  0
  -24.9510  -12.1540   20.8150 C   0  0  0  0  0  0  0  0  0  0  0  0
  -26.6440  -13.3980   20.3780 N   0  0  0  0  0  0  0  0  0  0  0  0
  -26.2600  -12.1120   20.5880 N   0  0  0  0  0  0  0  0  0  0  0  0
  -24.2100  -10.8930   20.9350 C   0  0  0  0  0  0  0  0  0  0  0  0
  -24.5820   -9.9090   21.8760 C   0  0  0  0  0  3  0  0  0  0  0  0
  -23.8460   -8.7100   21.9910 C   0  0  0  0  0  3  0  0  0  0  0  0
  -22.7210   -8.4900   21.1600 C   0  0  0  0  0  0  0  0  0  0  0  0
  -22.3670   -9.4640   20.2100 C   0  0  0  0  0  3  0  0  0  0  0  0
  -23.1030  -10.6530   20.0930 C   0  0  0  0  0  3  0  0  0  0  0  0
  -21.9610   -7.3470   21.1780 O   0  0  0  0  0  0  0  0  0  0  0  0
  -21.8190   -6.5960   22.3150 C   0  0  0  0  0  0  0  0  0  0  0  0
  -21.3380   -7.1480   23.5220 C   0  0  0  0  0  3  0  0  0  0  0  0
  -21.1420   -6.3210   24.6460 C   0  0  0  0  0  3  0  0  0  0  0  0
  -21.4230   -4.9440   24.5680 C   0  0  0  0  0  0  0  0  0  0  0  0
  -21.8960   -4.3910   23.3660 C   0  0  0  0  0  3  0  0  0  0  0  0
  -22.0920   -5.2140   22.2430 C   0  0  0  0  0  0  0  0  0  0  0  0
  -22.5290   -4.6740   21.0800 F   0  0  0  0  0  0  0  0  0  0  0  0
  -21.2300   -4.1470   25.6450 F   0  0  0  0  0  0  0  0  0  0  0  0
  -23.0880  -13.9870   21.0400 C   0  0  0  0  0  0  0  0  0  0  0  0
  -22.3130  -13.2900   21.8600 N   0  0  0  0  0  0  0  0  0  0  0  0
  -22.6800  -15.0160   20.4980 O   0  0  0  0  0  0  0  0  0  0  0  0
  -22.6590  -12.4580   22.3150 H   0  0  0  0  0  0  0  0  0  0  0  0
  -21.3600  -13.5880   22.0230 H   0  0  0  0  0  0  0  0  0  0  0  0
  -25.7570  -15.6550   20.4100 N   0  0  0  0  0  0  0  0  0  0  0  0
  -24.9830  -16.3010   20.5220 H   0  0  0  0  0  0  0  0  0  0  0  0
  -26.6180  -16.1190   20.1460 H   0  0  0  0  0  0  0  0  0  0  0  0
  -35.4560  -16.7800   18.6730 C   0  0  0  0  0  2  0  0  0  0  0  0
  -34.8730  -18.1270   18.2010 C   0  0  0  0  0  2  0  0  0  0  0  0
  -33.7800  -18.7150   19.1160 C   0  0  0  0  0  2  0  0  0  0  0  0
  -33.1500  -19.9860   18.5070 C   0  0  0  0  0  2  0  0  0  0  0  0
  -32.1980  -20.7440   19.4470 C   0  0  0  0  0  2  0  0  0  0  0  0
  -31.7000  -21.8970   18.7690 O   0  0  0  0  0  0  0  0  0  0  0  0
  -30.8880  -22.7390   19.5840 C   0  0  0  0  0  2  0  0  0  0  0  0
  -30.7300  -24.1170   18.9120 C   0  0  0  0  0  2  0  0  0  0  0  0
  -30.1410  -25.2040   19.8390 C   0  0  0  0  0  2  0  0  0  0  0  0
  -28.6970  -25.6430   19.5270 C   0  0  0  0  0  2  0  0  0  0  0  0
  -28.4280  -26.7330   20.4000 O   0  0  0  0  0  0  0  0  0  0  0  0
  -24.5660  -31.9210   23.2870 C   0  0  0  0  0  0  0  0  0  0  0  0
  -27.2250  -27.4000   20.3380 C   0  0  0  0  0  0  0  0  0  0  0  0
  -23.3690  -30.4930   21.6570 C   0  0  0  0  0  3  0  0  0  0  0  0
  -24.8290  -28.9020   20.2910 C   0  0  0  0  0  0  0  0  0  0  0  0
  -25.8980  -30.8210   21.4910 C   0  0  0  0  0  2  0  0  0  0  0  0
  -25.9760  -29.4320   20.8940 C   0  0  0  0  0  0  0  0  0  0  0  0
  -27.1680  -28.6810   20.9260 C   0  0  0  0  0  3  0  0  0  0  0  0
  -26.0600  -26.8720   19.7340 C   0  0  0  0  0  3  0  0  0  0  0  0
  -24.8650  -27.6200   19.7140 C   0  0  0  0  0  3  0  0  0  0  0  0
  -23.5900  -29.7690   20.2990 C   0  0  0  0  0  2  0  0  0  0  0  0
  -24.6290  -31.0940   22.2040 N   0  0  0  0  0  0  0  0  0  0  0  0
  -23.4800  -32.2200   23.8020 O   0  0  0  0  0  0  0  0  0  0  0  0
  -22.6890  -29.5060   22.6320 C   0  0  0  0  0  0  0  0  0  0  0  0
  -21.3650  -29.3380   22.4840 N   0  0  0  0  0  0  0  0  0  0  0  0
  -23.3500  -28.8900   23.4750 O   0  0  0  0  0  0  0  0  0  0  0  0
  -20.8970  -29.8870   21.7750 H   0  0  0  0  0  0  0  0  0  0  0  0
  -17.9660  -28.2050   22.9340 C   0  0  0  0  0  0  0  0  0  0  0  0
  -20.5190  -28.4300   23.2570 C   0  0  0  0  0  3  0  0  0  0  0  0
  -20.6130  -26.9840   22.7140 C   0  0  0  0  0  2  0  0  0  0  0  0
  -19.5280  -26.6560   21.6850 C   0  0  0  0  0  2  0  0  0  0  0  0
  -18.1350  -26.8370   22.2940 C   0  0  0  0  0  2  0  0  0  0  0  0
  -19.0860  -28.9600   23.3710 C   0  0  0  0  0  0  0  0  0  0  0  0
  -18.8750  -30.2420   23.9240 C   0  0  0  0  0  3  0  0  0  0  0  0
  -17.5750  -30.7660   24.0500 C   0  0  0  0  0  3  0  0  0  0  0  0
  -16.4680  -30.0070   23.6340 C   0  0  0  0  0  3  0  0  0  0  0  0
  -16.6640  -28.7290   23.0800 C   0  0  0  0  0  3  0  0  0  0  0  0
  -25.8500  -32.5480   23.9160 C   0  0  0  0  0  3  0  0  0  0  0  0
  -25.5520  -33.9530   24.2180 N   0  0  0  0  0  0  0  0  0  0  0  0
  -25.9120  -34.9900   23.4510 C   0  0  0  0  0  0  0  0  0  0  0  0
  -26.6020  -34.8640   22.4340 O   0  0  0  0  0  0  0  0  0  0  0  0
  -24.9440  -34.1290   25.0050 H   0  0  0  0  0  0  0  0  0  0  0  0
  -24.2130  -36.7960   23.0310 C   0  0  0  0  0  1  0  0  0  0  0  0
  -25.4320  -36.3910   23.8760 C   0  0  0  0  0  3  0  0  0  0  0  0
  -27.5600  -37.2600   24.7370 C   0  0  0  0  0  1  0  0  0  0  0  0
  -26.4790  -37.4310   23.7700 N   0  0  0  0  0  0  0  0  0  0  0  0
  -26.0800  -38.3560   23.9000 H   0  0  0  0  0  0  0  0  0  0  0  0
  -26.3440  -31.7920   25.2100 C   0  0  1  0  0  0  0  0  0  0  0  0
  -25.2350  -31.5770   26.2670 C   0  0  0  0  0  1  0  0  0  0  0  0
  -26.9200  -30.4060   24.8400 C   0  0  0  0  0  1  0  0  0  0  0  0
  -27.4960  -32.5840   25.8760 C   0  0  0  0  0  1  0  0  0  0  0  0
  1 53  1  0
  2  3  1  0
  2  4  2  0
  3  1  1  0
  5  3  1  0
  6  7  1  0
  6  2  1  0
  7  8  1  0
  8  9  1  0
  9 10  1  0
 10 11  1  0
 11 12  1  0
 12 13  1  0
 13 14  1  0
 14 23  1  0
 15 23  1  0
 16 21  1  0
 17 18  1  0
 17 16  1  0
 19 18  1  0
 19 28  1  0
 19 20  1  0
 21 15  1  0
 21 20  1  0
 22 15  2  0
 23 24  1  0
 25 26  2  0
 26 45  1  0
 27 26  1  0
 27 30  1  0
 28 25  1  0
 28 29  1  0
 29 27  2  0
 30 31  1  0
 31 32  2  0
 33 36  1  0
 33 32  1  0
 34 33  2  0
 35 34  1  0
 35 30  2  0
 36 37  1  0
 37 38  1  0
 38 39  2  0
 40 39  1  0
 40 44  1  0
 41 40  2  0
 42 37  2  0
 42 41  1  0
 43 42  1  0
 45 46  1  0
 46 49  1  0
 46 48  1  0
 47 45  2  0
 50 51  1  0
 50 25  1  0
 52 50  1  0
 54 53  1  0
 54 55  1  0
 56 55  1  0
 56 57  1  0
 58 57  1  0
 58 59  1  0
 60 59  1  0
 60 61  1  0
 62 61  1  0
 62 63  1  0
 64 75  2  0
 65 63  1  0
 65 70  1  0
 66 74  1  0
 66 76  1  0
 67 73  1  0
 67 69  1  0
 68 74  1  0
 69 70  2  0
 69 68  1  0
 71 65  2  0
 72 71  1  0
 72 67  2  0
 73 66  1  0
 74 64  1  0
 76 78  2  0
 77 76  1  0
 79 77  1  0
 80 89  2  0
 80 85  1  0
 81 77  1  0
 81 85  1  0
 82 81  1  0
 83 84  1  0
 83 82  1  0
 84 80  1  0
 85 86  2  0
 86 87  1  0
 88 87  2  0
 89 88  1  0
 90 64  1  0
 90 91  1  0
 90100  1  0
 91 94  1  0
 92 96  1  0
 92 91  1  0
 93 92  2  0
 96 95  1  0
 98 96  1  0
 98 99  1  0
 98 97  1  0
100103  1  1
100101  1  0
102100  1  0
M  ISO  4  15 100  23 100  62 101  63 101
M  END
>  <TORSDO>  (44) 
F 36

>  <SCORE>  (44) 
-9.356

>  <name>  (44) 
45

>  <ligand_id>  (44) 
45

>  <original_smiles>  (44) 
[H]c1c([H])c([H])c2c(c1[H])C([H])([H])C([H])([H])C([H])([H])C2([H])N([H])C(=O)C1([H])N(C(=O)C([H])(N([H])C(=O)C([H])(N([H])C([H])([H])[H])C([H])([H])[H])C(C([H])([H])[H])(C([H])([H])[H])C([H])([H])[H])C([H])([H])c2c([H])c(OC([H])([H])C([H])([H])C([H])([H])C([H])([H])OC([H])([H])C([H])([H])C([H])([H])C([H])([H])C([H])([H])C([H])([H])N([H])C(=O)C([H])([H])C([H])([H])OC([H])([H])C([H])([H])C([H])([H])C([H])([H])C([H])([H])C([H])([H])N([H])C(=O)N3C([H])([H])C([H])([H])C([H])([H])C([H])(n4nc(-c5c([H])c([H])c(Oc6c([H])c([H])c(F)c([H])c6F)c([H])c5[H])c(C(=O)N([H])[H])c4N([H])[H])C3([H])[H])c([H])c([H])c2C1([H])[H]

>  <smiles>  (44) 
[H]c1c([H])c([H])c2c(c1[H])C([H])([H])C([H])([H])C([H])([H])C2([H])N([H])C(=O)C1([H])N(C(=O)C([H])(N([H])C(=O)C([H])(N([H])C([H])([H])[H])C([H])([H])[H])C(C([H])([H])[H])(C([H])([H])[H])C([H])([H])[H])C([H])([H])c2c([H])c(OC([H])([H])C([H])([H])C([H])([H])C([H])([H])OC([H])([H])C([H])([H])C([H])([H])C([H])([H])C([H])([H])C([H])([H])N([H])C(=O)C([H])([H])C([H])([H])OC([H])([H])C([H])([H])C([H])([H])C([H])([H])C([H])([H])C([H])([H])N([H])C(=O)N3C([H])([H])C([H])([H])C([H])([H])C([H])(n4nc(-c5c([H])c([H])c(Oc6c([H])c([H])c(F)c([H])c6F)c([H])c5[H])c(C(=O)N([H])[H])c4N([H])[H])C3([H])[H])c([H])c([H])c2C1([H])[H]

$$$$
46:0:0
     RDKit          3D

 89 96  0  0  1  0  0  0  0  0999 V2000
  -28.7940  -22.4310   21.5330 O   0  0  0  0  0  0  0  0  0  0  0  0
  -28.9260  -23.7870   21.9480 C   0  0  0  0  0  2  0  0  0  0  0  0
  -28.6390  -24.7360   20.7780 C   0  0  0  0  0  2  0  0  0  0  0  0
  -28.8580  -26.2100   21.1580 C   0  0  0  0  0  2  0  0  0  0  0  0
  -28.6080  -27.0450   20.0330 O   0  0  0  0  0  0  0  0  0  0  0  0
  -24.7020  -31.9770   23.3650 C   0  0  0  0  0  0  0  0  0  0  0  0
  -27.4330  -27.7460   20.1020 C   0  0  0  0  0  0  0  0  0  0  0  0
  -23.5290  -30.6450   21.6400 C   0  0  0  0  0  3  0  0  0  0  0  0
  -25.0160  -29.1900   20.1630 C   0  0  0  0  0  0  0  0  0  0  0  0
  -26.0490  -31.0450   21.4890 C   0  0  0  0  0  2  0  0  0  0  0  0
  -26.1560  -29.7060   20.7930 C   0  0  0  0  0  0  0  0  0  0  0  0
  -27.3680  -28.9860   20.7670 C   0  0  0  0  0  3  0  0  0  0  0  0
  -26.2840  -27.2320   19.4690 C   0  0  0  0  0  3  0  0  0  0  0  0
  -25.0710  -27.9480   19.5050 C   0  0  0  0  0  3  0  0  0  0  0  0
  -23.7610  -30.0300   20.2320 C   0  0  0  0  0  2  0  0  0  0  0  0
  -24.7770  -31.2340   22.2250 N   0  0  0  0  0  0  0  0  0  0  0  0
  -23.6120  -32.2130   23.9030 O   0  0  0  0  0  0  0  0  0  0  0  0
  -22.8770  -29.5720   22.5420 C   0  0  0  0  0  0  0  0  0  0  0  0
  -21.5630  -29.3590   22.3610 N   0  0  0  0  0  0  0  0  0  0  0  0
  -23.5500  -28.9370   23.3580 O   0  0  0  0  0  0  0  0  0  0  0  0
  -21.0820  -29.9250   21.6770 H   0  0  0  0  0  0  0  0  0  0  0  0
  -18.2170  -28.0320   22.6620 C   0  0  0  0  0  0  0  0  0  0  0  0
  -20.7470  -28.3730   23.0680 C   0  0  0  0  0  3  0  0  0  0  0  0
  -20.9310  -26.9630   22.4630 C   0  0  0  0  0  2  0  0  0  0  0  0
  -19.8920  -26.6280   21.3880 C   0  0  0  0  0  2  0  0  0  0  0  0
  -18.4750  -26.7070   21.9650 C   0  0  0  0  0  2  0  0  0  0  0  0
  -19.2850  -28.8220   23.1660 C   0  0  0  0  0  0  0  0  0  0  0  0
  -18.9930  -30.0620   23.7730 C   0  0  0  0  0  3  0  0  0  0  0  0
  -17.6640  -30.5140   23.8840 C   0  0  0  0  0  3  0  0  0  0  0  0
  -16.6100  -29.7220   23.3990 C   0  0  0  0  0  3  0  0  0  0  0  0
  -16.8860  -28.4820   22.7940 C   0  0  0  0  0  3  0  0  0  0  0  0
  -25.9750  -32.5860   24.0310 C   0  0  0  0  0  3  0  0  0  0  0  0
  -26.4650  -31.7760   25.2930 C   0  0  1  0  0  0  0  0  0  0  0  0
  -25.3470  -31.5000   26.3270 C   0  0  0  0  0  1  0  0  0  0  0  0
  -27.0620  -30.4150   24.8690 C   0  0  0  0  0  1  0  0  0  0  0  0
  -27.5960  -32.5520   26.0070 C   0  0  0  0  0  1  0  0  0  0  0  0
  -25.6650  -33.9750   24.3920 N   0  0  0  0  0  0  0  0  0  0  0  0
  -26.0240  -35.0460   23.6710 C   0  0  0  0  0  0  0  0  0  0  0  0
  -26.7230  -34.9660   22.6550 O   0  0  0  0  0  0  0  0  0  0  0  0
  -25.0460  -34.1120   25.1770 H   0  0  0  0  0  0  0  0  0  0  0  0
  -24.3140  -36.8540   23.3110 C   0  0  0  0  0  1  0  0  0  0  0  0
  -25.5280  -36.4230   24.1490 C   0  0  0  0  0  3  0  0  0  0  0  0
  -27.6390  -37.2720   25.0680 C   0  0  0  0  0  1  0  0  0  0  0  0
  -26.5680  -37.4740   24.0970 N   0  0  0  0  0  0  0  0  0  0  0  0
  -26.1620  -38.3910   24.2570 H   0  0  0  0  0  0  0  0  0  0  0  0
  -28.9940  -21.5320   22.6170 C   0  0  0  0  0  2  0  0  0  0  0  0
  -28.9150  -20.0710   22.1530 C   0  0  0  0  0  2  0  0  0  0  0  0
  -30.1220  -19.6270   21.3090 C   0  0  0  0  0  2  0  0  0  0  0  0
  -30.2670  -18.0950   21.2440 C   0  0  0  0  0  2  0  0  0  0  0  0
  -31.5790  -17.6570   20.5740 C   0  0  0  0  0  2  0  0  0  0  0  0
  -32.0520  -16.2540   21.0000 C   0  0  0  0  0  2  0  0  0  0  0  0
  -31.3520  -14.3730   19.5350 C   0  0  0  0  0  0  0  0  0  0  0  0
  -30.8340  -12.1510   18.5950 C   0  0  0  0  0  2  0  0  0  0  0  0
  -29.8160  -12.2150   17.4450 C   0  0  0  0  0  2  0  0  0  0  0  0
  -28.3800  -12.1720   17.9930 C   0  0  0  0  0  2  0  0  0  0  0  0
  -28.1470  -13.2070   19.1240 C   0  0  0  0  0  3  0  0  0  0  0  0
  -29.2630  -13.1210   20.1880 C   0  0  0  0  0  2  0  0  0  0  0  0
  -30.5690  -13.2640   19.5180 N   0  0  0  0  0  0  0  0  0  0  0  0
  -32.2730  -14.5670   18.7370 O   0  0  0  0  0  0  0  0  0  0  0  0
  -31.1480  -15.1860   20.5780 N   0  0  0  0  0  0  0  0  0  0  0  0
  -30.3970  -14.9370   21.2050 H   0  0  0  0  0  0  0  0  0  0  0  0
  -25.8570  -14.0130   19.9860 C   0  0  0  0  0  0  0  0  0  0  0  0
  -24.7760  -13.3340   20.4790 C   0  0  0  0  0  0  0  0  0  0  0  0
  -25.1450  -11.9540   20.4840 C   0  0  0  0  0  0  0  0  0  0  0  0
  -26.8220  -13.0530   19.7210 N   0  0  0  0  0  0  0  0  0  0  0  0
  -26.3990  -11.8120   20.0750 N   0  0  0  0  0  0  0  0  0  0  0  0
  -24.3560  -10.7550   20.8000 C   0  0  0  0  0  0  0  0  0  0  0  0
  -24.7590   -9.8520   21.8090 C   0  0  0  0  0  3  0  0  0  0  0  0
  -23.9770   -8.7160   22.1060 C   0  0  0  0  0  3  0  0  0  0  0  0
  -22.7770   -8.4740   21.3940 C   0  0  0  0  0  0  0  0  0  0  0  0
  -22.3940   -9.3630   20.3750 C   0  0  0  0  0  3  0  0  0  0  0  0
  -23.1770  -10.4910   20.0770 C   0  0  0  0  0  3  0  0  0  0  0  0
  -21.9660   -7.3820   21.5970 O   0  0  0  0  0  0  0  0  0  0  0  0
  -21.8490   -6.7920   22.8300 C   0  0  0  0  0  0  0  0  0  0  0  0
  -21.4220   -7.5170   23.9640 C   0  0  0  0  0  3  0  0  0  0  0  0
  -21.2480   -6.8550   25.1960 C   0  0  0  0  0  3  0  0  0  0  0  0
  -21.4900   -5.4710   25.2950 C   0  0  0  0  0  0  0  0  0  0  0  0
  -21.9110   -4.7480   24.1650 C   0  0  0  0  0  3  0  0  0  0  0  0
  -22.0860   -5.4070   22.9350 C   0  0  0  0  0  0  0  0  0  0  0  0
  -22.4710   -4.7020   21.8440 F   0  0  0  0  0  0  0  0  0  0  0  0
  -21.3160   -4.8350   26.4760 F   0  0  0  0  0  0  0  0  0  0  0  0
  -23.4390  -13.9180   20.8390 C   0  0  0  0  0  0  0  0  0  0  0  0
  -22.7520  -13.3260   21.8090 N   0  0  0  0  0  0  0  0  0  0  0  0
  -23.0170  -14.9350   20.2900 O   0  0  0  0  0  0  0  0  0  0  0  0
  -23.1050  -12.5030   22.2740 H   0  0  0  0  0  0  0  0  0  0  0  0
  -21.8580  -13.7020   22.0930 H   0  0  0  0  0  0  0  0  0  0  0  0
  -26.0960  -15.3590   19.7220 N   0  0  0  0  0  0  0  0  0  0  0  0
  -25.3910  -16.0750   19.8630 H   0  0  0  0  0  0  0  0  0  0  0  0
  -26.9520  -15.7190   19.3190 H   0  0  0  0  0  0  0  0  0  0  0  0
  1  2  1  0
  1 46  1  0
  3  4  1  0
  3  2  1  0
  5  7  1  0
  5  4  1  0
  6 17  2  0
  7 12  1  0
  8 16  1  0
  8 18  1  0
  9 15  1  0
  9 11  1  0
 10 16  1  0
 11 10  1  0
 12 11  2  0
 13 14  1  0
 13  7  2  0
 14  9  2  0
 15  8  1  0
 16  6  1  0
 18 20  2  0
 19 18  1  0
 21 19  1  0
 22 31  2  0
 22 27  1  0
 23 19  1  0
 23 27  1  0
 24 23  1  0
 25 26  1  0
 25 24  1  0
 26 22  1  0
 27 28  2  0
 28 29  1  0
 30 29  2  0
 31 30  1  0
 32  6  1  0
 32 37  1  0
 32 33  1  0
 33 36  1  1
 33 34  1  0
 35 33  1  0
 37 40  1  0
 38 42  1  0
 38 37  1  0
 39 38  2  0
 42 41  1  0
 44 42  1  0
 44 45  1  0
 44 43  1  0
 47 46  1  0
 48 47  1  0
 49 48  1  0
 50 51  1  0
 50 49  1  0
 52 60  1  0
 53 58  1  0
 54 55  1  0
 54 53  1  0
 56 55  1  0
 56 65  1  0
 56 57  1  0
 58 52  1  0
 58 57  1  0
 59 52  2  0
 60 51  1  0
 60 61  1  0
 62 63  2  0
 63 64  1  0
 63 82  1  0
 64 67  1  0
 65 62  1  0
 65 66  1  0
 66 64  2  0
 67 68  1  0
 68 69  2  0
 70 73  1  0
 70 69  1  0
 71 70  2  0
 72 71  1  0
 72 67  2  0
 73 74  1  0
 74 79  2  0
 74 75  1  0
 75 76  2  0
 76 77  1  0
 77 81  1  0
 78 77  2  0
 79 78  1  0
 80 79  1  0
 82 83  1  0
 83 86  1  0
 83 85  1  0
 84 82  2  0
 87 88  1  0
 87 62  1  0
 89 87  1  0
M  ISO  4   4 101   5 101  52 100  60 100
M  END
>  <TORSDO>  (45) 
F 25

>  <SCORE>  (45) 
-8.738

>  <name>  (45) 
46

>  <ligand_id>  (45) 
46

>  <original_smiles>  (45) 
[H]c1c([H])c([H])c2c(c1[H])C([H])([H])C([H])([H])C([H])([H])C2([H])N([H])C(=O)C1([H])N(C(=O)C([H])(N([H])C(=O)C([H])(N([H])C([H])([H])[H])C([H])([H])[H])C(C([H])([H])[H])(C([H])([H])[H])C([H])([H])[H])C([H])([H])c2c([H])c(OC([H])([H])C([H])([H])C([H])([H])OC([H])([H])C([H])([H])C([H])([H])C([H])([H])C([H])([H])C([H])([H])N([H])C(=O)N3C([H])([H])C([H])([H])C([H])([H])C([H])(n4nc(-c5c([H])c([H])c(Oc6c([H])c([H])c(F)c([H])c6F)c([H])c5[H])c(C(=O)N([H])[H])c4N([H])[H])C3([H])[H])c([H])c([H])c2C1([H])[H]

>  <smiles>  (45) 
[H]c1c([H])c([H])c2c(c1[H])C([H])([H])C([H])([H])C([H])([H])C2([H])N([H])C(=O)C1([H])N(C(=O)C([H])(N([H])C(=O)C([H])(N([H])C([H])([H])[H])C([H])([H])[H])C(C([H])([H])[H])(C([H])([H])[H])C([H])([H])[H])C([H])([H])c2c([H])c(OC([H])([H])C([H])([H])C([H])([H])OC([H])([H])C([H])([H])C([H])([H])C([H])([H])C([H])([H])C([H])([H])N([H])C(=O)N3C([H])([H])C([H])([H])C([H])([H])C([H])(n4nc(-c5c([H])c([H])c(Oc6c([H])c([H])c(F)c([H])c6F)c([H])c5[H])c(C(=O)N([H])[H])c4N([H])[H])C3([H])[H])c([H])c([H])c2C1([H])[H]

$$$$
47:0:0
     RDKit          3D

123130  0  0  1  0  0  0  0  0999 V2000
  -28.1760  -19.6750   14.9140 C   0  0  0  0  0  2  0  0  0  0  0  0
  -26.7630  -20.2780   14.9870 C   0  0  0  0  0  0  0  0  0  0  0  0
  -26.0160  -20.0020   16.0670 N   0  0  0  0  0  0  0  0  0  0  0  0
  -26.3640  -21.0040   14.0750 O   0  0  0  0  0  0  0  0  0  0  0  0
  -26.4130  -19.3180   16.7010 H   0  0  0  0  0  0  0  0  0  0  0  0
  -24.6520  -20.4720   16.3110 C   0  0  0  0  0  2  0  0  0  0  0  0
  -24.5720  -21.5780   17.3890 C   0  0  0  0  0  2  0  0  0  0  0  0
  -24.6650  -21.0840   18.8530 C   0  0  0  0  0  2  0  0  0  0  0  0
  -23.4780  -21.4590   19.6560 N   0  0  0  0  0  4  0  0  0  0  0  0
  -23.3090  -22.4450   19.5500 H   0  0  0  0  0  0  0  0  0  0  0  0
  -22.6800  -20.9700   19.2820 H   0  0  0  0  0  0  0  0  0  0  0  0
  -23.5590  -21.1550   21.1030 C   0  0  0  0  0  2  0  0  0  0  0  0
  -22.2810  -21.6040   21.8540 C   0  0  0  0  0  2  0  0  0  0  0  0
  -22.4950  -22.6670   22.9490 C   0  0  0  0  0  2  0  0  0  0  0  0
  -22.7150  -24.1120   22.4400 C   0  0  0  0  0  2  0  0  0  0  0  0
  -24.1690  -24.5160   22.1330 C   0  0  0  0  0  2  0  0  0  0  0  0
  -24.9770  -24.7170   23.4280 C   0  0  0  0  0  2  0  0  0  0  0  0
  -26.4870  -24.5930   23.2620 C   0  0  0  0  0  2  0  0  0  0  0  0
  -26.9980  -25.6400   22.4500 O   0  0  0  0  0  0  0  0  0  0  0  0
  -28.3750  -25.4270   22.1570 C   0  0  0  0  0  2  0  0  0  0  0  0
  -29.0230  -26.5600   21.3500 C   0  0  0  0  0  2  0  0  0  0  0  0
  -28.3950  -26.7330   20.0750 O   0  0  0  0  0  0  0  0  0  0  0  0
  -24.6030  -31.8660   23.2180 C   0  0  0  0  0  0  0  0  0  0  0  0
  -27.2480  -27.4880   20.0940 C   0  0  0  0  0  0  0  0  0  0  0  0
  -23.3940  -30.4840   21.5530 C   0  0  0  0  0  3  0  0  0  0  0  0
  -24.8470  -28.9670   20.1090 C   0  0  0  0  0  0  0  0  0  0  0  0
  -25.9130  -30.8610   21.3560 C   0  0  0  0  0  2  0  0  0  0  0  0
  -25.9980  -29.5010   20.7000 C   0  0  0  0  0  0  0  0  0  0  0  0
  -27.2010  -28.7730   20.6820 C   0  0  0  0  0  3  0  0  0  0  0  0
  -26.0840  -26.9620   19.5010 C   0  0  0  0  0  3  0  0  0  0  0  0
  -24.8840  -27.6980   19.5060 C   0  0  0  0  0  3  0  0  0  0  0  0
  -23.6040  -29.8240   20.1620 C   0  0  0  0  0  2  0  0  0  0  0  0
  -24.6540  -31.0840   22.1020 N   0  0  0  0  0  0  0  0  0  0  0  0
  -23.5250  -32.1380   23.7590 O   0  0  0  0  0  0  0  0  0  0  0  0
  -22.7410  -29.4570   22.5060 C   0  0  0  0  0  0  0  0  0  0  0  0
  -21.4120  -29.3020   22.3890 N   0  0  0  0  0  0  0  0  0  0  0  0
  -23.4180  -28.8100   23.3090 O   0  0  0  0  0  0  0  0  0  0  0  0
  -20.9370  -29.8890   21.7180 H   0  0  0  0  0  0  0  0  0  0  0  0
  -18.0190  -28.1610   22.8390 C   0  0  0  0  0  0  0  0  0  0  0  0
  -20.5770  -28.3770   23.1560 C   0  0  0  0  0  3  0  0  0  0  0  0
  -20.6560  -26.9530   22.5780 C   0  0  0  0  0  2  0  0  0  0  0  0
  -19.5900  -26.6910   21.5150 C   0  0  0  0  0  2  0  0  0  0  0  0
  -18.1910  -26.8310   22.1220 C   0  0  0  0  0  2  0  0  0  0  0  0
  -19.1430  -28.8950   23.3000 C   0  0  0  0  0  0  0  0  0  0  0  0
  -18.9430  -30.1440   23.9150 C   0  0  0  0  0  3  0  0  0  0  0  0
  -17.6460  -30.6680   24.0650 C   0  0  0  0  0  3  0  0  0  0  0  0
  -16.5310  -29.9360   23.6250 C   0  0  0  0  0  3  0  0  0  0  0  0
  -16.7170  -28.6770   23.0240 C   0  0  0  0  0  3  0  0  0  0  0  0
  -25.8950  -32.4800   23.8470 C   0  0  0  0  0  3  0  0  0  0  0  0
  -26.4430  -31.6560   25.0750 C   0  0  1  0  0  0  0  0  0  0  0  0
  -25.3760  -31.3660   26.1560 C   0  0  0  0  0  1  0  0  0  0  0  0
  -27.0300  -30.3030   24.6080 C   0  0  0  0  0  1  0  0  0  0  0  0
  -27.6050  -32.4240   25.7470 C   0  0  0  0  0  1  0  0  0  0  0  0
  -25.5840  -33.8610   24.2380 N   0  0  0  0  0  0  0  0  0  0  0  0
  -25.9030  -34.9440   23.5150 C   0  0  0  0  0  0  0  0  0  0  0  0
  -26.5580  -34.8850   22.4710 O   0  0  0  0  0  0  0  0  0  0  0  0
  -24.9950  -33.9870   25.0470 H   0  0  0  0  0  0  0  0  0  0  0  0
  -24.1490  -36.7340   23.2650 C   0  0  0  0  0  1  0  0  0  0  0  0
  -25.4100  -36.3110   24.0340 C   0  0  0  0  0  3  0  0  0  0  0  0
  -27.5570  -37.1830   24.8460 C   0  0  0  0  0  1  0  0  0  0  0  0
  -26.4270  -37.3800   23.9410 N   0  0  0  0  0  0  0  0  0  0  0  0
  -26.0150  -38.2890   24.1360 H   0  0  0  0  0  0  0  0  0  0  0  0
  -28.6730  -18.5490   17.0790 C   0  0  0  0  0  0  0  0  0  0  0  0
  -28.8570  -19.5390   16.2020 N   0  0  0  0  0  0  0  0  0  0  0  0
  -27.7660  -17.7230   16.9640 O   0  0  0  0  0  0  0  0  0  0  0  0
  -29.5770  -20.2190   16.4060 H   0  0  0  0  0  0  0  0  0  0  0  0
  -29.6250  -18.4940   18.2790 C   0  0  0  0  0  2  0  0  0  0  0  0
  -29.3000  -19.4880   19.2510 O   0  0  0  0  0  0  0  0  0  0  0  0
  -28.0200  -19.3580   19.8640 C   0  0  0  0  0  2  0  0  0  0  0  0
  -27.9150  -20.3520   21.0270 C   0  0  0  0  0  2  0  0  0  0  0  0
  -27.5640  -21.6710   20.6130 O   0  0  0  0  0  0  0  0  0  0  0  0
  -28.5180  -22.3490   19.8010 C   0  0  0  0  0  2  0  0  0  0  0  0
  -29.8810  -22.5100   20.5060 C   0  0  0  0  0  2  0  0  0  0  0  0
  -30.5690  -23.6550   20.0230 O   0  0  0  0  0  0  0  0  0  0  0  0
  -31.2470  -23.4370   18.7920 C   0  0  0  0  0  2  0  0  0  0  0  0
  -32.7150  -23.0700   19.0520 C   0  0  0  0  0  2  0  0  0  0  0  0
  -32.7920  -21.7470   19.5700 O   0  0  0  0  0  0  0  0  0  0  0  0
  -34.1180  -21.2940   19.8240 C   0  0  0  0  0  2  0  0  0  0  0  0
  -34.2830  -20.9720   21.3160 C   0  0  0  0  0  2  0  0  0  0  0  0
  -33.3580  -19.9590   21.6900 O   0  0  0  0  0  0  0  0  0  0  0  0
  -33.5050  -19.5280   23.0400 C   0  0  0  0  0  2  0  0  0  0  0  0
  -32.3020  -18.6570   23.4500 C   0  0  0  0  0  2  0  0  0  0  0  0
  -32.3570  -17.3580   22.8600 O   0  0  0  0  0  0  0  0  0  0  0  0
  -31.7780  -17.2900   21.5620 C   0  0  0  0  0  2  0  0  0  0  0  0
  -30.3550  -16.6900   21.6340 C   0  0  0  0  0  2  0  0  0  0  0  0
  -30.7490  -14.3890   20.6480 C   0  0  0  0  0  0  0  0  0  0  0  0
  -30.4230  -12.2910   19.3930 C   0  0  0  0  0  2  0  0  0  0  0  0
  -29.4850  -12.5210   18.1920 C   0  0  0  0  0  2  0  0  0  0  0  0
  -28.0110  -12.3790   18.6130 C   0  0  0  0  0  2  0  0  0  0  0  0
  -27.6720  -13.2000   19.8850 C   0  0  0  0  0  3  0  0  0  0  0  0
  -28.7130  -12.9360   20.9980 C   0  0  0  0  0  2  0  0  0  0  0  0
  -30.0560  -13.2340   20.4620 N   0  0  0  0  0  0  0  0  0  0  0  0
  -31.7650  -14.6650   20.0110 O   0  0  0  0  0  0  0  0  0  0  0  0
  -30.2120  -15.2320   21.5410 N   0  0  0  0  0  0  0  0  0  0  0  0
  -29.4130  -14.8560   22.0290 H   0  0  0  0  0  0  0  0  0  0  0  0
  -25.2660  -13.8160   20.5690 C   0  0  0  0  0  0  0  0  0  0  0  0
  -24.1870  -13.0430   20.9180 C   0  0  0  0  0  0  0  0  0  0  0  0
  -24.6420  -11.6910   20.8730 C   0  0  0  0  0  0  0  0  0  0  0  0
  -26.3090  -12.9310   20.3410 N   0  0  0  0  0  0  0  0  0  0  0  0
  -25.9350  -11.6470   20.5780 N   0  0  0  0  0  0  0  0  0  0  0  0
  -23.9070  -10.4290   21.0400 C   0  0  0  0  0  0  0  0  0  0  0  0
  -24.3630   -9.4210   21.9180 C   0  0  0  0  0  3  0  0  0  0  0  0
  -23.6300   -8.2240   22.0750 C   0  0  0  0  0  3  0  0  0  0  0  0
  -22.4280   -8.0290   21.3540 C   0  0  0  0  0  0  0  0  0  0  0  0
  -21.9910   -9.0270   20.4650 C   0  0  0  0  0  3  0  0  0  0  0  0
  -22.7250  -10.2150   20.3060 C   0  0  0  0  0  3  0  0  0  0  0  0
  -21.6640   -6.8890   21.4240 O   0  0  0  0  0  0  0  0  0  0  0  0
  -21.6860   -6.0740   22.5280 C   0  0  0  0  0  0  0  0  0  0  0  0
  -21.4010   -6.5640   23.8210 C   0  0  0  0  0  3  0  0  0  0  0  0
  -21.3660   -5.6790   24.9170 C   0  0  0  0  0  3  0  0  0  0  0  0
  -21.6050   -4.3060   24.7220 C   0  0  0  0  0  0  0  0  0  0  0  0
  -21.8820   -3.8150   23.4340 C   0  0  0  0  0  3  0  0  0  0  0  0
  -21.9190   -4.6970   22.3400 C   0  0  0  0  0  0  0  0  0  0  0  0
  -22.1670   -4.2150   21.0980 F   0  0  0  0  0  0  0  0  0  0  0  0
  -21.5630   -3.4540   25.7730 F   0  0  0  0  0  0  0  0  0  0  0  0
  -22.7910  -13.5270   21.1820 C   0  0  0  0  0  0  0  0  0  0  0  0
  -22.0540  -12.8250   22.0380 N   0  0  0  0  0  0  0  0  0  0  0  0
  -22.3600  -14.5570   20.6680 O   0  0  0  0  0  0  0  0  0  0  0  0
  -22.4170  -11.9940   22.4790 H   0  0  0  0  0  0  0  0  0  0  0  0
  -21.1140  -13.1260   22.2550 H   0  0  0  0  0  0  0  0  0  0  0  0
  -25.4400  -15.1850   20.4100 N   0  0  0  0  0  0  0  0  0  0  0  0
  -24.6770  -15.8440   20.5150 H   0  0  0  0  0  0  0  0  0  0  0  0
  -26.2990  -15.6160   20.0920 H   0  0  0  0  0  0  0  0  0  0  0  0
  1  2  1  0
  1 64  1  0
  2  3  1  0
  3  6  1  0
  3  5  1  0
  4  2  2  0
  6  7  1  0
  7  8  1  0
  8  9  1  0
  9 12  1  0
 10  9  1  0
 11  9  1  0
 12 13  1  0
 13 14  1  0
 15 14  1  0
 16 15  1  0
 16 17  1  0
 18 17  1  0
 19 18  1  0
 20 19  1  0
 21 20  1  0
 22 24  1  0
 22 21  1  0
 23 34  2  0
 24 29  1  0
 25 33  1  0
 25 35  1  0
 26 32  1  0
 26 28  1  0
 27 33  1  0
 28 27  1  0
 29 28  2  0
 30 31  1  0
 30 24  2  0
 31 26  2  0
 32 25  1  0
 33 23  1  0
 35 37  2  0
 36 35  1  0
 38 36  1  0
 39 48  2  0
 39 44  1  0
 40 36  1  0
 40 44  1  0
 41 40  1  0
 42 43  1  0
 42 41  1  0
 43 39  1  0
 44 45  2  0
 45 46  1  0
 47 46  2  0
 48 47  1  0
 49 23  1  0
 49 54  1  0
 49 50  1  0
 50 53  1  1
 50 51  1  0
 52 50  1  0
 54 57  1  0
 55 59  1  0
 55 54  1  0
 56 55  2  0
 59 58  1  0
 61 59  1  0
 61 62  1  0
 61 60  1  0
 63 67  1  0
 64 66  1  0
 64 63  1  0
 65 63  2  0
 67 68  1  0
 68 69  1  0
 69 70  1  0
 71 70  1  0
 72 73  1  0
 72 71  1  0
 74 73  1  0
 75 76  1  0
 75 74  1  0
 76 77  1  0
 77 78  1  0
 78 79  1  0
 79 80  1  0
 80 81  1  0
 81 82  1  0
 83 82  1  0
 84 85  1  0
 84 83  1  0
 86 94  1  0
 87 92  1  0
 88 89  1  0
 88 87  1  0
 90 89  1  0
 90 99  1  0
 90 91  1  0
 92 86  1  0
 92 91  1  0
 93 86  2  0
 94 85  1  0
 94 95  1  0
 96 97  2  0
 97116  1  0
 98 97  1  0
 98101  1  0
 99 96  1  0
 99100  1  0
100 98  2  0
101102  1  0
102103  2  0
104107  1  0
104103  1  0
105104  2  0
106105  1  0
106101  2  0
107108  1  0
108109  1  0
109110  2  0
111110  1  0
111115  1  0
112111  2  0
113108  2  0
113112  1  0
114113  1  0
116117  1  0
117120  1  0
117119  1  0
118116  2  0
121122  1  0
121 96  1  0
123121  1  0
M  ISO  4  21 101  22 101  86 100  94 100
M  END
>  <TORSDO>  (46) 
F 51

>  <SCORE>  (46) 
11.664

>  <name>  (46) 
47

>  <ligand_id>  (46) 
47

>  <original_smiles>  (46) 
[H]c1c([H])c([H])c2c(c1[H])C([H])([H])C([H])([H])C([H])([H])C2([H])N([H])C(=O)C1([H])N(C(=O)C([H])(N([H])C(=O)C([H])(N([H])C([H])([H])[H])C([H])([H])[H])C(C([H])([H])[H])(C([H])([H])[H])C([H])([H])[H])C([H])([H])c2c([H])c(OC([H])([H])C([H])([H])OC([H])([H])C([H])([H])C([H])([H])C([H])([H])C([H])([H])C([H])([H])C([H])([H])[N+]([H])([H])C([H])([H])C([H])([H])C([H])([H])N([H])C(=O)C([H])([H])N([H])C(=O)C([H])([H])OC([H])([H])C([H])([H])OC([H])([H])C([H])([H])OC([H])([H])C([H])([H])OC([H])([H])C([H])([H])OC([H])([H])C([H])([H])OC([H])([H])C([H])([H])N([H])C(=O)N3C([H])([H])C([H])([H])C([H])([H])C([H])(n4nc(-c5c([H])c([H])c(Oc6c([H])c([H])c(F)c([H])c6F)c([H])c5[H])c(C(=O)N([H])[H])c4N([H])[H])C3([H])[H])c([H])c([H])c2C1([H])[H]

>  <smiles>  (46) 
[H]c1c([H])c([H])c2c(c1[H])C([H])([H])C([H])([H])C([H])([H])C2([H])N([H])C(=O)C1([H])N(C(=O)C([H])(N([H])C(=O)C([H])(N([H])C([H])([H])[H])C([H])([H])[H])C(C([H])([H])[H])(C([H])([H])[H])C([H])([H])[H])C([H])([H])c2c([H])c(OC([H])([H])C([H])([H])OC([H])([H])C([H])([H])C([H])([H])C([H])([H])C([H])([H])C([H])([H])C([H])([H])[N+]([H])([H])C([H])([H])C([H])([H])C([H])([H])N([H])C(=O)C([H])([H])N([H])C(=O)C([H])([H])OC([H])([H])C([H])([H])OC([H])([H])C([H])([H])OC([H])([H])C([H])([H])OC([H])([H])C([H])([H])OC([H])([H])C([H])([H])OC([H])([H])C([H])([H])N([H])C(=O)N3C([H])([H])C([H])([H])C([H])([H])C([H])(n4nc(-c5c([H])c([H])c(Oc6c([H])c([H])c(F)c([H])c6F)c([H])c5[H])c(C(=O)N([H])[H])c4N([H])[H])C3([H])[H])c([H])c([H])c2C1([H])[H]

$$$$
48:0:0
     RDKit          3D

 94102  0  0  1  0  0  0  0  0999 V2000
  -30.1240  -17.6750   20.4580 C   0  0  0  0  0  0  0  0  0  0  0  0
  -30.5720  -19.6650   21.9300 C   0  0  0  0  0  2  0  0  0  0  0  0
  -29.7750  -19.9850   19.6380 C   0  0  0  0  0  2  0  0  0  0  0  0
  -31.6330  -20.7630   21.7120 C   0  0  0  0  0  2  0  0  0  0  0  0
  -30.8640  -21.0510   19.3970 C   0  0  0  0  0  2  0  0  0  0  0  0
  -30.1960  -19.0160   20.6620 N   0  0  0  0  0  0  0  0  0  0  0  0
  -31.2380  -21.7370   20.6620 N   0  0  2  0  0  4  0  0  0  0  0  0
  -29.7250  -17.2020   19.3880 O   0  0  0  0  0  0  0  0  0  0  0  0
  -30.4010  -22.1980   20.9910 H   0  0  0  0  0  0  0  0  0  0  0  0
  -30.5350  -16.7020   21.5840 C   0  0  0  0  0  2  0  0  0  0  0  0
  -30.7480  -14.4240   20.5590 C   0  0  0  0  0  0  0  0  0  0  0  0
  -30.4360  -12.3170   19.3130 C   0  0  0  0  0  2  0  0  0  0  0  0
  -29.5070  -12.5520   18.1060 C   0  0  0  0  0  2  0  0  0  0  0  0
  -28.0270  -12.4230   18.5170 C   0  0  0  0  0  2  0  0  0  0  0  0
  -27.6830  -13.2490   19.7860 C   0  0  0  0  0  3  0  0  0  0  0  0
  -28.7160  -12.9720   20.9010 C   0  0  0  0  0  2  0  0  0  0  0  0
  -30.0580  -13.2710   20.3640 N   0  0  0  0  0  0  0  0  0  0  0  0
  -31.8330  -14.6710   20.0230 O   0  0  0  0  0  0  0  0  0  0  0  0
  -30.1280  -15.3170   21.3400 N   0  0  0  0  0  0  0  0  0  0  0  0
  -29.2300  -15.0390   21.7030 H   0  0  0  0  0  0  0  0  0  0  0  0
  -25.2750  -13.8830   20.4430 C   0  0  0  0  0  0  0  0  0  0  0  0
  -24.1940  -13.1220   20.8030 C   0  0  0  0  0  0  0  0  0  0  0  0
  -24.6460  -11.7670   20.7950 C   0  0  0  0  0  0  0  0  0  0  0  0
  -26.3180  -12.9920   20.2410 N   0  0  0  0  0  0  0  0  0  0  0  0
  -25.9410  -11.7140   20.5070 N   0  0  0  0  0  0  0  0  0  0  0  0
  -23.9100  -10.5110   20.9890 C   0  0  0  0  0  0  0  0  0  0  0  0
  -24.3220   -9.5540   21.9420 C   0  0  0  0  0  3  0  0  0  0  0  0
  -23.5890   -8.3620   22.1230 C   0  0  0  0  0  3  0  0  0  0  0  0
  -22.4290   -8.1180   21.3490 C   0  0  0  0  0  0  0  0  0  0  0  0
  -22.0360   -9.0640   20.3850 C   0  0  0  0  0  3  0  0  0  0  0  0
  -22.7700  -10.2480   20.2030 C   0  0  0  0  0  3  0  0  0  0  0  0
  -21.6690   -6.9780   21.4360 O   0  0  0  0  0  0  0  0  0  0  0  0
  -21.5910   -6.2510   22.5970 C   0  0  0  0  0  0  0  0  0  0  0  0
  -21.1340   -6.8230   23.8040 C   0  0  0  0  0  3  0  0  0  0  0  0
  -21.0040   -6.0250   24.9580 C   0  0  0  0  0  3  0  0  0  0  0  0
  -21.3200   -4.6530   24.9050 C   0  0  0  0  0  0  0  0  0  0  0  0
  -21.7700   -4.0810   23.7020 C   0  0  0  0  0  3  0  0  0  0  0  0
  -21.9030   -4.8780   22.5520 C   0  0  0  0  0  0  0  0  0  0  0  0
  -22.3170   -4.3170   21.3900 F   0  0  0  0  0  0  0  0  0  0  0  0
  -21.1870   -3.8840   26.0110 F   0  0  0  0  0  0  0  0  0  0  0  0
  -22.7940  -13.6110   21.0470 C   0  0  0  0  0  0  0  0  0  0  0  0
  -22.0480  -12.9290   21.9080 N   0  0  0  0  0  0  0  0  0  0  0  0
  -22.3720  -14.6330   20.5100 O   0  0  0  0  0  0  0  0  0  0  0  0
  -22.4010  -12.1040   22.3690 H   0  0  0  0  0  0  0  0  0  0  0  0
  -21.1080  -13.2390   22.1110 H   0  0  0  0  0  0  0  0  0  0  0  0
  -25.4510  -15.2520   20.2570 N   0  0  0  0  0  0  0  0  0  0  0  0
  -24.6860  -15.9120   20.3480 H   0  0  0  0  0  0  0  0  0  0  0  0
  -26.3140  -15.6840   19.9500 H   0  0  0  0  0  0  0  0  0  0  0  0
  -32.2460  -22.8240   20.5100 C   0  0  0  0  0  2  0  0  0  0  0  0
  -31.8170  -23.9470   19.5490 C   0  0  0  0  0  2  0  0  0  0  0  0
  -30.5060  -24.4030   19.8790 O   0  0  0  0  0  0  0  0  0  0  0  0
  -30.0460  -25.3750   18.9430 C   0  0  0  0  0  2  0  0  0  0  0  0
  -28.5650  -25.7170   19.1620 C   0  0  0  0  0  2  0  0  0  0  0  0
  -28.4170  -26.7700   20.1140 O   0  0  0  0  0  0  0  0  0  0  0  0
  -24.5790  -31.8810   23.2420 C   0  0  0  0  0  0  0  0  0  0  0  0
  -27.2150  -27.4460   20.1410 C   0  0  0  0  0  0  0  0  0  0  0  0
  -23.3640  -30.4790   21.6050 C   0  0  0  0  0  3  0  0  0  0  0  0
  -24.8090  -28.9380   20.1820 C   0  0  0  0  0  0  0  0  0  0  0  0
  -25.8890  -30.8340   21.4000 C   0  0  0  0  0  2  0  0  0  0  0  0
  -25.9680  -29.4620   20.7660 C   0  0  0  0  0  0  0  0  0  0  0  0
  -27.1690  -28.7180   20.7530 C   0  0  0  0  0  3  0  0  0  0  0  0
  -26.0260  -26.9220   19.5750 C   0  0  0  0  0  3  0  0  0  0  0  0
  -24.8310  -27.6640   19.5920 C   0  0  0  0  0  3  0  0  0  0  0  0
  -23.5680  -29.7980   20.2260 C   0  0  0  0  0  2  0  0  0  0  0  0
  -24.6290  -31.0800   22.1410 N   0  0  0  0  0  0  0  0  0  0  0  0
  -23.4990  -32.1550   23.7850 O   0  0  0  0  0  0  0  0  0  0  0  0
  -22.7150  -29.4590   22.5670 C   0  0  0  0  0  0  0  0  0  0  0  0
  -21.3910  -29.2750   22.4390 N   0  0  0  0  0  0  0  0  0  0  0  0
  -23.4000  -28.8350   23.3830 O   0  0  0  0  0  0  0  0  0  0  0  0
  -20.9010  -29.8300   21.7520 H   0  0  0  0  0  0  0  0  0  0  0  0
  -18.0170  -28.0820   22.9320 C   0  0  0  0  0  0  0  0  0  0  0  0
  -20.5740  -28.3400   23.2120 C   0  0  0  0  0  3  0  0  0  0  0  0
  -20.6780  -26.9060   22.6430 C   0  0  0  0  0  2  0  0  0  0  0  0
  -19.5790  -26.5810   21.6250 C   0  0  0  0  0  2  0  0  0  0  0  0
  -18.1950  -26.7290   22.2640 C   0  0  0  0  0  2  0  0  0  0  0  0
  -19.1350  -28.8450   23.3640 C   0  0  0  0  0  0  0  0  0  0  0  0
  -18.9150  -30.1110   23.9470 C   0  0  0  0  0  3  0  0  0  0  0  0
  -17.6110  -30.6160   24.1040 C   0  0  0  0  0  3  0  0  0  0  0  0
  -16.5080  -29.8490   23.6910 C   0  0  0  0  0  3  0  0  0  0  0  0
  -16.7120  -28.5840   23.1120 C   0  0  0  0  0  3  0  0  0  0  0  0
  -25.8680  -32.5080   23.8560 C   0  0  0  0  0  3  0  0  0  0  0  0
  -25.5640  -33.9080   24.1840 N   0  0  0  0  0  0  0  0  0  0  0  0
  -25.8970  -34.9560   23.4200 C   0  0  0  0  0  0  0  0  0  0  0  0
  -26.5650  -34.8490   22.3870 O   0  0  0  0  0  0  0  0  0  0  0  0
  -24.9680  -34.0650   24.9820 H   0  0  0  0  0  0  0  0  0  0  0  0
  -24.1740  -36.7520   23.0590 C   0  0  0  0  0  1  0  0  0  0  0  0
  -25.4130  -36.3460   23.8740 C   0  0  0  0  0  3  0  0  0  0  0  0
  -27.5470  -37.2250   24.7090 C   0  0  0  0  0  1  0  0  0  0  0  0
  -26.4480  -37.3960   23.7620 N   0  0  0  0  0  0  0  0  0  0  0  0
  -26.0440  -38.3170   23.9090 H   0  0  0  0  0  0  0  0  0  0  0  0
  -26.3910  -31.7380   25.1300 C   0  0  1  0  0  0  0  0  0  0  0  0
  -25.3030  -31.5060   26.2040 C   0  0  0  0  0  1  0  0  0  0  0  0
  -26.9670  -30.3580   24.7350 C   0  0  0  0  0  1  0  0  0  0  0  0
  -27.5460  -32.5290   25.7860 C   0  0  0  0  0  1  0  0  0  0  0  0
  1  6  1  0
  1 10  1  0
  3  6  1  0
  4  2  1  0
  5  3  1  0
  5  7  1  0
  6  2  1  0
  7  9  1  1
  7  4  1  0
  8  1  2  0
 11 19  1  0
 12 17  1  0
 13 14  1  0
 13 12  1  0
 15 14  1  0
 15 24  1  0
 15 16  1  0
 17 11  1  0
 17 16  1  0
 18 11  2  0
 19 10  1  0
 19 20  1  0
 21 22  2  0
 22 41  1  0
 23 22  1  0
 23 26  1  0
 24 21  1  0
 24 25  1  0
 25 23  2  0
 26 27  1  0
 27 28  2  0
 29 32  1  0
 29 28  1  0
 30 29  2  0
 31 30  1  0
 31 26  2  0
 32 33  1  0
 33 34  1  0
 34 35  2  0
 36 35  1  0
 36 40  1  0
 37 36  2  0
 38 33  2  0
 38 37  1  0
 39 38  1  0
 41 42  1  0
 42 45  1  0
 42 44  1  0
 43 41  2  0
 46 47  1  0
 46 21  1  0
 48 46  1  0
 49  7  1  0
 50 51  1  0
 50 49  1  0
 52 53  1  0
 52 51  1  0
 53 54  1  0
 54 56  1  0
 55 66  2  0
 56 61  1  0
 57 65  1  0
 57 67  1  0
 58 64  1  0
 58 60  1  0
 59 65  1  0
 60 59  1  0
 61 60  2  0
 62 63  1  0
 62 56  2  0
 63 58  2  0
 64 57  1  0
 65 55  1  0
 67 69  2  0
 68 67  1  0
 70 68  1  0
 71 80  2  0
 71 76  1  0
 72 68  1  0
 72 76  1  0
 73 72  1  0
 74 75  1  0
 74 73  1  0
 75 71  1  0
 76 77  2  0
 77 78  1  0
 79 78  2  0
 80 79  1  0
 81 55  1  0
 81 82  1  0
 81 91  1  0
 82 85  1  0
 83 87  1  0
 83 82  1  0
 84 83  2  0
 87 86  1  0
 89 87  1  0
 89 90  1  0
 89 88  1  0
 91 94  1  1
 91 92  1  0
 93 91  1  0
M  ISO  4  11 100  19 100  53 101  54 101
M  END
>  <TORSDO>  (47) 
F 22

>  <SCORE>  (47) 
-13.110

>  <name>  (47) 
48

>  <ligand_id>  (47) 
48

>  <original_smiles>  (47) 
[H]c1c([H])c([H])c2c(c1[H])C([H])([H])C([H])([H])C([H])([H])C2([H])N([H])C(=O)C1([H])N(C(=O)C([H])(N([H])C(=O)C([H])(N([H])C([H])([H])[H])C([H])([H])[H])C(C([H])([H])[H])(C([H])([H])[H])C([H])([H])[H])C([H])([H])c2c([H])c(OC([H])([H])C([H])([H])OC([H])([H])C([H])([H])[N+]3([H])C([H])([H])C([H])([H])N(C(=O)C([H])([H])N([H])C(=O)N4C([H])([H])C([H])([H])C([H])([H])C([H])(n5nc(-c6c([H])c([H])c(Oc7c([H])c([H])c(F)c([H])c7F)c([H])c6[H])c(C(=O)N([H])[H])c5N([H])[H])C4([H])[H])C([H])([H])C3([H])[H])c([H])c([H])c2C1([H])[H]

>  <smiles>  (47) 
[H]c1c([H])c([H])c2c(c1[H])C([H])([H])C([H])([H])C([H])([H])C2([H])N([H])C(=O)C1([H])N(C(=O)C([H])(N([H])C(=O)C([H])(N([H])C([H])([H])[H])C([H])([H])[H])C(C([H])([H])[H])(C([H])([H])[H])C([H])([H])[H])C([H])([H])c2c([H])c(OC([H])([H])C([H])([H])OC([H])([H])C([H])([H])[N+]3([H])C([H])([H])C([H])([H])N(C(=O)C([H])([H])N([H])C(=O)N4C([H])([H])C([H])([H])C([H])([H])C([H])(n5nc(-c6c([H])c([H])c(Oc7c([H])c([H])c(F)c([H])c7F)c([H])c6[H])c(C(=O)N([H])[H])c5N([H])[H])C4([H])[H])C([H])([H])C3([H])[H])c([H])c([H])c2C1([H])[H]

$$$$
50:0:0
     RDKit          3D

106113  0  0  1  0  0  0  0  0999 V2000
  -26.7520  -27.6280   15.6140 C   0  0  0  0  0  0  0  0  0  0  0  0
  -26.3100  -26.4020   15.3220 N   0  0  0  0  0  0  0  0  0  0  0  0
  -25.9770  -28.5420   15.9060 O   0  0  0  0  0  0  0  0  0  0  0  0
  -26.9970  -25.6920   15.0890 H   0  0  0  0  0  0  0  0  0  0  0  0
  -24.8980  -26.0360   15.4250 C   0  0  0  0  0  2  0  0  0  0  0  0
  -24.6680  -24.5400   15.1350 C   0  0  0  0  0  2  0  0  0  0  0  0
  -23.7830  -23.8310   16.1850 C   0  0  0  0  0  2  0  0  0  0  0  0
  -24.5560  -23.1020   17.3200 C   0  0  0  0  0  2  0  0  0  0  0  0
  -25.3590  -24.0850   18.2180 C   0  0  0  0  0  2  0  0  0  0  0  0
  -26.4410  -23.4980   19.0580 N   0  0  0  0  0  4  0  0  0  0  0  0
  -27.1350  -23.1010   18.4450 H   0  0  0  0  0  0  0  0  0  0  0  0
  -26.0570  -22.7360   19.5940 H   0  0  0  0  0  0  0  0  0  0  0  0
  -27.0940  -24.4070   20.0560 C   0  0  0  0  0  2  0  0  0  0  0  0
  -28.1600  -25.3840   19.4710 C   0  0  0  0  0  2  0  0  0  0  0  0
  -28.2950  -26.6830   20.1160 O   0  0  0  0  0  0  0  0  0  0  0  0
  -24.6270  -31.9580   23.2730 C   0  0  0  0  0  0  0  0  0  0  0  0
  -27.1950  -27.5240   20.1130 C   0  0  0  0  0  0  0  0  0  0  0  0
  -23.4010  -30.5790   21.6370 C   0  0  0  0  0  3  0  0  0  0  0  0
  -24.8300  -29.0900   20.1620 C   0  0  0  0  0  0  0  0  0  0  0  0
  -25.9310  -30.9130   21.4310 C   0  0  0  0  0  2  0  0  0  0  0  0
  -25.9970  -29.5490   20.7830 C   0  0  0  0  0  0  0  0  0  0  0  0
  -27.1840  -28.7690   20.7910 C   0  0  0  0  0  3  0  0  0  0  0  0
  -26.0290  -27.1640   19.4210 C   0  0  0  0  0  3  0  0  0  0  0  0
  -24.8420  -27.8820   19.4750 C   0  0  0  0  0  3  0  0  0  0  0  0
  -23.5820  -29.9450   20.2380 C   0  0  0  0  0  2  0  0  0  0  0  0
  -24.6740  -31.1520   22.1780 N   0  0  0  0  0  0  0  0  0  0  0  0
  -23.5510  -32.2260   23.8280 O   0  0  0  0  0  0  0  0  0  0  0  0
  -22.7540  -29.5370   22.5740 C   0  0  0  0  0  0  0  0  0  0  0  0
  -21.4270  -29.3540   22.4580 N   0  0  0  0  0  0  0  0  0  0  0  0
  -23.4410  -28.9110   23.3910 O   0  0  0  0  0  0  0  0  0  0  0  0
  -20.9240  -29.9080   21.7720 H   0  0  0  0  0  0  0  0  0  0  0  0
  -18.0550  -28.1880   22.9730 C   0  0  0  0  0  0  0  0  0  0  0  0
  -20.6130  -28.4200   23.2400 C   0  0  0  0  0  3  0  0  0  0  0  0
  -20.6890  -26.9720   22.6960 C   0  0  0  0  0  2  0  0  0  0  0  0
  -19.5940  -26.6640   21.6670 C   0  0  0  0  0  2  0  0  0  0  0  0
  -18.2150  -26.8310   22.3060 C   0  0  0  0  0  2  0  0  0  0  0  0
  -19.1810  -28.9380   23.3940 C   0  0  0  0  0  0  0  0  0  0  0  0
  -18.9760  -30.2130   23.9690 C   0  0  0  0  0  3  0  0  0  0  0  0
  -17.6780  -30.7290   24.1350 C   0  0  0  0  0  3  0  0  0  0  0  0
  -16.5610  -29.9730   23.7310 C   0  0  0  0  0  3  0  0  0  0  0  0
  -16.7560  -28.7030   23.1480 C   0  0  0  0  0  3  0  0  0  0  0  0
  -25.9190  -32.5950   23.8560 C   0  0  0  0  0  3  0  0  0  0  0  0
  -26.4580  -31.8120   25.1150 C   0  0  1  0  0  0  0  0  0  0  0  0
  -25.4070  -31.5490   26.2150 C   0  0  0  0  0  1  0  0  0  0  0  0
  -27.0250  -30.4380   24.6890 C   0  0  0  0  0  1  0  0  0  0  0  0
  -27.6090  -32.5940   25.7730 C   0  0  0  0  0  1  0  0  0  0  0  0
  -25.6060  -33.9890   24.1880 N   0  0  0  0  0  0  0  0  0  0  0  0
  -25.9210  -35.0450   23.4240 C   0  0  0  0  0  0  0  0  0  0  0  0
  -26.5800  -34.9490   22.3860 O   0  0  0  0  0  0  0  0  0  0  0  0
  -25.0230  -34.1130   25.0050 H   0  0  0  0  0  0  0  0  0  0  0  0
  -24.1880  -36.8260   23.1030 C   0  0  0  0  0  1  0  0  0  0  0  0
  -25.4350  -36.4290   23.9030 C   0  0  0  0  0  3  0  0  0  0  0  0
  -27.5860  -37.3370   24.6800 C   0  0  0  0  0  1  0  0  0  0  0  0
  -26.4540  -37.4900   23.7690 N   0  0  0  0  0  0  0  0  0  0  0  0
  -26.0540  -38.4100   23.9280 H   0  0  0  0  0  0  0  0  0  0  0  0
  -28.2650  -27.8720   15.5900 C   0  0  0  0  0  2  0  0  0  0  0  0
  -28.9070  -27.0630   16.5760 O   0  0  0  0  0  0  0  0  0  0  0  0
  -30.3150  -27.0160   16.3770 C   0  0  0  0  0  2  0  0  0  0  0  0
  -31.1190  -26.4950   17.5930 C   0  0  0  0  0  2  0  0  0  0  0  0
  -31.0460  -25.0690   17.6850 O   0  0  0  0  0  0  0  0  0  0  0  0
  -31.8820  -24.5410   18.7200 C   0  0  0  0  0  2  0  0  0  0  0  0
  -31.8140  -22.9930   18.8330 C   0  0  0  0  0  2  0  0  0  0  0  0
  -30.7220  -22.4610   19.6040 O   0  0  0  0  0  0  0  0  0  0  0  0
  -30.8590  -21.0390   19.7330 C   0  0  0  0  0  2  0  0  0  0  0  0
  -29.7250  -20.2920   20.4780 C   0  0  0  0  0  2  0  0  0  0  0  0
  -30.3150  -19.1710   21.1470 O   0  0  0  0  0  0  0  0  0  0  0  0
  -29.6170  -17.9220   21.0900 C   0  0  0  0  0  2  0  0  0  0  0  0
  -30.6810  -16.8120   21.2030 C   0  0  0  0  0  2  0  0  0  0  0  0
  -30.8350  -14.4390   20.4430 C   0  0  0  0  0  0  0  0  0  0  0  0
  -30.5400  -12.2680   19.3150 C   0  0  0  0  0  2  0  0  0  0  0  0
  -29.6020  -12.4180   18.0970 C   0  0  0  0  0  2  0  0  0  0  0  0
  -28.1210  -12.2990   18.5180 C   0  0  0  0  0  2  0  0  0  0  0  0
  -27.7770  -13.1920   19.7400 C   0  0  0  0  0  3  0  0  0  0  0  0
  -28.8120  -12.9840   20.8700 C   0  0  0  0  0  2  0  0  0  0  0  0
  -30.1450  -13.2690   20.3160 N   0  0  0  0  0  0  0  0  0  0  0  0
  -31.9480  -14.6130   19.9570 O   0  0  0  0  0  0  0  0  0  0  0  0
  -30.1580  -15.4490   21.0280 N   0  0  0  0  0  0  0  0  0  0  0  0
  -29.2170  -15.2660   21.3380 H   0  0  0  0  0  0  0  0  0  0  0  0
  -25.3840  -13.8600   20.4010 C   0  0  0  0  0  0  0  0  0  0  0  0
  -24.2940  -13.1190   20.7800 C   0  0  0  0  0  0  0  0  0  0  0  0
  -24.7340  -11.7590   20.7780 C   0  0  0  0  0  0  0  0  0  0  0  0
  -26.4140  -12.9580   20.2070 N   0  0  0  0  0  0  0  0  0  0  0  0
  -26.0270  -11.6910   20.4880 N   0  0  0  0  0  0  0  0  0  0  0  0
  -23.9850  -10.5130   20.9840 C   0  0  0  0  0  0  0  0  0  0  0  0
  -24.4050   -9.5420   21.9200 C   0  0  0  0  0  3  0  0  0  0  0  0
  -23.6600   -8.3570   22.1140 C   0  0  0  0  0  3  0  0  0  0  0  0
  -22.4730   -8.1350   21.3720 C   0  0  0  0  0  0  0  0  0  0  0  0
  -22.0730   -9.0940   20.4250 C   0  0  0  0  0  3  0  0  0  0  0  0
  -22.8200  -10.2690   20.2310 C   0  0  0  0  0  3  0  0  0  0  0  0
  -21.6980   -7.0060   21.4830 O   0  0  0  0  0  0  0  0  0  0  0  0
  -21.6660   -6.2650   22.6350 C   0  0  0  0  0  0  0  0  0  0  0  0
  -21.3180   -6.8380   23.8820 C   0  0  0  0  0  3  0  0  0  0  0  0
  -21.2360   -6.0210   25.0270 C   0  0  0  0  0  3  0  0  0  0  0  0
  -21.4780   -4.6390   24.9290 C   0  0  0  0  0  0  0  0  0  0  0  0
  -21.8190   -4.0710   23.6880 C   0  0  0  0  0  3  0  0  0  0  0  0
  -21.9100   -4.8820   22.5470 C   0  0  0  0  0  0  0  0  0  0  0  0
  -22.2190   -4.3270   21.3460 F   0  0  0  0  0  0  0  0  0  0  0  0
  -21.3870   -3.8550   26.0260 F   0  0  0  0  0  0  0  0  0  0  0  0
  -22.9060  -13.6250   21.0200 C   0  0  0  0  0  0  0  0  0  0  0  0
  -22.1530  -12.9680   21.8960 N   0  0  0  0  0  0  0  0  0  0  0  0
  -22.4970  -14.6410   20.4590 O   0  0  0  0  0  0  0  0  0  0  0  0
  -22.4920  -12.1390   22.3620 H   0  0  0  0  0  0  0  0  0  0  0  0
  -21.2150  -13.2910   22.0970 H   0  0  0  0  0  0  0  0  0  0  0  0
  -25.5810  -15.2150   20.1820 N   0  0  0  0  0  0  0  0  0  0  0  0
  -24.8310  -15.8930   20.2370 H   0  0  0  0  0  0  0  0  0  0  0  0
  -26.4330  -15.6060   19.8020 H   0  0  0  0  0  0  0  0  0  0  0  0
  1  3  2  0
  2  5  1  0
  2  1  1  0
  4  2  1  0
  6  5  1  0
  6  7  1  0
  7  8  1  0
  8  9  1  0
  9 10  1  0
 10 12  1  0
 10 13  1  0
 11 10  1  0
 14 13  1  0
 14 15  1  0
 16 27  2  0
 17 15  1  0
 17 22  1  0
 18 26  1  0
 18 28  1  0
 19 25  1  0
 19 21  1  0
 20 26  1  0
 21 22  2  0
 21 20  1  0
 23 24  1  0
 23 17  2  0
 24 19  2  0
 25 18  1  0
 26 16  1  0
 28 30  2  0
 29 28  1  0
 31 29  1  0
 32 41  2  0
 32 37  1  0
 33 29  1  0
 33 37  1  0
 34 33  1  0
 35 36  1  0
 35 34  1  0
 36 32  1  0
 37 38  2  0
 38 39  1  0
 40 39  2  0
 41 40  1  0
 42 16  1  0
 42 47  1  0
 42 43  1  0
 43 46  1  1
 43 44  1  0
 45 43  1  0
 47 50  1  0
 48 52  1  0
 48 47  1  0
 49 48  2  0
 52 51  1  0
 54 52  1  0
 54 55  1  0
 54 53  1  0
 56  1  1  0
 56 57  1  0
 58 57  1  0
 58 59  1  0
 59 60  1  0
 60 61  1  0
 61 62  1  0
 62 63  1  0
 63 64  1  0
 64 65  1  0
 65 66  1  0
 67 66  1  0
 67 68  1  0
 69 77  1  0
 70 75  1  0
 71 72  1  0
 71 70  1  0
 73 72  1  0
 73 82  1  0
 73 74  1  0
 75 69  1  0
 75 74  1  0
 76 69  2  0
 77 68  1  0
 77 78  1  0
 79 80  2  0
 80 99  1  0
 81 80  1  0
 81 84  1  0
 82 79  1  0
 82 83  1  0
 83 81  2  0
 84 85  1  0
 85 86  2  0
 87 90  1  0
 87 86  1  0
 88 87  2  0
 89 88  1  0
 89 84  2  0
 90 91  1  0
 91 92  1  0
 92 93  2  0
 94 93  1  0
 94 98  1  0
 95 94  2  0
 96 91  2  0
 96 95  1  0
 97 96  1  0
 99100  1  0
100103  1  0
100102  1  0
101 99  2  0
104105  1  0
104 79  1  0
106104  1  0
M  ISO  4  14 101  15 101  69 100  77 100
M  END
>  <TORSDO>  (48) 
F 37

>  <SCORE>  (48) 
-9.751

>  <name>  (48) 
50

>  <ligand_id>  (48) 
50

>  <original_smiles>  (48) 
[H]c1c([H])c([H])c2c(c1[H])C([H])([H])C([H])([H])C([H])([H])C2([H])N([H])C(=O)C1([H])N(C(=O)C([H])(N([H])C(=O)C([H])(N([H])C([H])([H])[H])C([H])([H])[H])C(C([H])([H])[H])(C([H])([H])[H])C([H])([H])[H])C([H])([H])c2c([H])c(OC([H])([H])C([H])([H])[N+]([H])([H])C([H])([H])C([H])([H])C([H])([H])C([H])([H])C([H])([H])N([H])C(=O)C([H])([H])OC([H])([H])C([H])([H])OC([H])([H])C([H])([H])OC([H])([H])C([H])([H])OC([H])([H])C([H])([H])N([H])C(=O)N3C([H])([H])C([H])([H])C([H])([H])C([H])(n4nc(-c5c([H])c([H])c(Oc6c([H])c([H])c(F)c([H])c6F)c([H])c5[H])c(C(=O)N([H])[H])c4N([H])[H])C3([H])[H])c([H])c([H])c2C1([H])[H]

>  <smiles>  (48) 
[H]c1c([H])c([H])c2c(c1[H])C([H])([H])C([H])([H])C([H])([H])C2([H])N([H])C(=O)C1([H])N(C(=O)C([H])(N([H])C(=O)C([H])(N([H])C([H])([H])[H])C([H])([H])[H])C(C([H])([H])[H])(C([H])([H])[H])C([H])([H])[H])C([H])([H])c2c([H])c(OC([H])([H])C([H])([H])[N+]([H])([H])C([H])([H])C([H])([H])C([H])([H])C([H])([H])C([H])([H])N([H])C(=O)C([H])([H])OC([H])([H])C([H])([H])OC([H])([H])C([H])([H])OC([H])([H])C([H])([H])OC([H])([H])C([H])([H])N([H])C(=O)N3C([H])([H])C([H])([H])C([H])([H])C([H])(n4nc(-c5c([H])c([H])c(Oc6c([H])c([H])c(F)c([H])c6F)c([H])c5[H])c(C(=O)N([H])[H])c4N([H])[H])C3([H])[H])c([H])c([H])c2C1([H])[H]

$$$$
51:0:0
     RDKit          3D

106113  0  0  1  0  0  0  0  0999 V2000
  -24.5530  -25.0990   21.9620 C   0  0  0  0  0  2  0  0  0  0  0  0
  -25.6420  -25.0080   19.7320 C   0  0  0  0  0  0  0  0  0  0  0  0
  -24.7660  -25.5460   20.5880 N   0  0  0  0  0  0  0  0  0  0  0  0
  -26.2730  -23.9800   19.9840 O   0  0  0  0  0  0  0  0  0  0  0  0
  -24.2610  -26.3740   20.3000 H   0  0  0  0  0  0  0  0  0  0  0  0
  -25.9340  -25.8030   18.4550 C   0  0  0  0  0  2  0  0  0  0  0  0
  -27.3290  -25.5400   17.8290 C   0  0  0  0  0  2  0  0  0  0  0  0
  -28.4900  -25.9020   18.6830 N   0  0  0  0  0  4  0  0  0  0  0  0
  -28.4560  -25.3030   19.5000 H   0  0  0  0  0  0  0  0  0  0  0  0
  -29.3370  -25.6600   18.1900 H   0  0  0  0  0  0  0  0  0  0  0  0
  -28.5760  -27.3200   19.1100 C   0  0  0  0  0  2  0  0  0  0  0  0
  -28.6950  -27.4180   20.6450 C   0  0  0  0  0  2  0  0  0  0  0  0
  -28.5930  -28.7470   21.1550 O   0  0  0  0  0  0  0  0  0  0  0  0
  -24.3740  -28.4890   26.8810 C   0  0  0  0  0  0  0  0  0  0  0  0
  -27.3910  -29.1180   21.7160 C   0  0  0  0  0  0  0  0  0  0  0  0
  -23.3720  -29.4960   24.8560 C   0  0  0  0  0  3  0  0  0  0  0  0
  -24.9830  -29.9610   22.9390 C   0  0  0  0  0  0  0  0  0  0  0  0
  -25.9010  -29.5730   25.2340 C   0  0  0  0  0  2  0  0  0  0  0  0
  -26.0650  -29.5510   23.7280 C   0  0  0  0  0  0  0  0  0  0  0  0
  -27.2730  -29.1410   23.1230 C   0  0  0  0  0  3  0  0  0  0  0  0
  -26.2820  -29.5150   20.9340 C   0  0  0  0  0  3  0  0  0  0  0  0
  -25.0830  -29.9350   21.5380 C   0  0  0  0  0  3  0  0  0  0  0  0
  -23.7420  -30.4220   23.6680 C   0  0  0  0  0  2  0  0  0  0  0  0
  -24.5610  -29.1360   25.6950 N   0  0  0  0  0  0  0  0  0  0  0  0
  -23.2350  -28.2320   27.2970 O   0  0  0  0  0  0  0  0  0  0  0  0
  -22.6170  -28.2670   24.3020 C   0  0  0  0  0  0  0  0  0  0  0  0
  -21.4810  -28.5160   23.6310 N   0  0  0  0  0  0  0  0  0  0  0  0
  -23.0710  -27.1280   24.4460 O   0  0  0  0  0  0  0  0  0  0  0  0
  -21.1720  -29.4760   23.5650 H   0  0  0  0  0  0  0  0  0  0  0  0
  -18.5190  -28.0900   21.5990 C   0  0  0  0  0  0  0  0  0  0  0  0
  -20.6310  -27.5210   22.9760 C   0  0  0  0  0  3  0  0  0  0  0  0
  -21.2540  -27.0490   21.6420 C   0  0  0  0  0  2  0  0  0  0  0  0
  -20.7430  -27.8270   20.4260 C   0  0  0  0  0  2  0  0  0  0  0  0
  -19.2220  -27.6990   20.3090 C   0  0  0  0  0  2  0  0  0  0  0  0
  -19.1850  -28.0160   22.8500 C   0  0  0  0  0  0  0  0  0  0  0  0
  -18.4990  -28.4170   24.0170 C   0  0  0  0  0  3  0  0  0  0  0  0
  -17.1720  -28.8810   23.9470 C   0  0  0  0  0  3  0  0  0  0  0  0
  -16.5130  -28.9390   22.7060 C   0  0  0  0  0  3  0  0  0  0  0  0
  -17.1860  -28.5410   21.5360 C   0  0  0  0  0  3  0  0  0  0  0  0
  -25.5770  -28.0600   27.7770 C   0  0  0  0  0  3  0  0  0  0  0  0
  -26.1520  -26.6370   27.4090 C   0  0  1  0  0  0  0  0  0  0  0  0
  -25.0920  -25.5130   27.4410 C   0  0  0  0  0  1  0  0  0  0  0  0
  -26.7820  -26.6540   25.9970 C   0  0  0  0  0  1  0  0  0  0  0  0
  -27.2830  -26.2580   28.3950 C   0  0  0  0  0  1  0  0  0  0  0  0
  -25.1190  -28.0910   29.1720 N   0  0  0  0  0  0  0  0  0  0  0  0
  -25.5730  -28.9430   30.1010 C   0  0  0  0  0  0  0  0  0  0  0  0
  -26.4860  -29.7450   29.8860 O   0  0  0  0  0  0  0  0  0  0  0  0
  -24.3340  -27.5020   29.4080 H   0  0  0  0  0  0  0  0  0  0  0  0
  -23.8770  -30.0320   31.6030 C   0  0  0  0  0  1  0  0  0  0  0  0
  -24.9080  -28.8980   31.4890 C   0  0  0  0  0  3  0  0  0  0  0  0
  -26.7700  -27.8400   32.6890 C   0  0  0  0  0  1  0  0  0  0  0  0
  -25.8740  -28.9900   32.6050 N   0  0  0  0  0  0  0  0  0  0  0  0
  -25.3910  -29.0840   33.4950 H   0  0  0  0  0  0  0  0  0  0  0  0
  -23.5060  -23.9810   22.0540 C   0  0  0  0  0  2  0  0  0  0  0  0
  -22.2830  -24.4770   21.5380 O   0  0  0  0  0  0  0  0  0  0  0  0
  -21.3010  -23.4660   21.3270 C   0  0  0  0  0  2  0  0  0  0  0  0
  -20.3850  -23.9140   20.1850 C   0  0  0  0  0  0  0  0  0  0  0  0
  -20.9950  -24.5420   19.1750 N   0  0  0  0  0  0  0  0  0  0  0  0
  -19.1720  -23.6940   20.2130 O   0  0  0  0  0  0  0  0  0  0  0  0
  -21.9950  -24.6810   19.2730 H   0  0  0  0  0  0  0  0  0  0  0  0
  -20.3690  -25.0870   17.9780 C   0  0  0  0  0  2  0  0  0  0  0  0
  -21.2030  -26.2760   17.4710 C   0  0  0  0  0  2  0  0  0  0  0  0
  -22.5200  -25.8940   17.0620 O   0  0  0  0  0  0  0  0  0  0  0  0
  -22.5930  -25.4140   15.7230 C   0  0  0  0  0  2  0  0  0  0  0  0
  -24.0620  -25.2730   15.2800 C   0  0  0  0  0  2  0  0  0  0  0  0
  -24.0890  -25.1340   13.8670 O   0  0  0  0  0  0  0  0  0  0  0  0
  -25.3490  -24.8540   13.2650 C   0  0  0  0  0  2  0  0  0  0  0  0
  -24.9830  -24.5700   11.7960 C   0  0  0  0  0  2  0  0  0  0  0  0
  -26.5530  -25.4320    9.9640 C   0  0  0  0  0  0  0  0  0  0  0  0
  -26.1500  -27.2000    8.2820 C   0  0  0  0  0  2  0  0  0  0  0  0
  -25.8750  -28.5550    8.9630 C   0  0  0  0  0  2  0  0  0  0  0  0
  -24.3820  -28.7030    9.3200 C   0  0  0  0  0  2  0  0  0  0  0  0
  -23.8210  -27.4530   10.0460 C   0  0  0  0  0  3  0  0  0  0  0  0
  -24.2080  -26.1690    9.2650 C   0  0  0  0  0  2  0  0  0  0  0  0
  -25.6750  -26.1310    9.1790 N   0  0  0  0  0  0  0  0  0  0  0  0
  -27.7730  -25.5360    9.8260 O   0  0  0  0  0  0  0  0  0  0  0  0
  -26.0990  -24.5130   10.8400 N   0  0  0  0  0  0  0  0  0  0  0  0
  -26.8350  -23.8800   11.1220 H   0  0  0  0  0  0  0  0  0  0  0  0
  -21.6530  -27.4220   11.4370 C   0  0  0  0  0  0  0  0  0  0  0  0
  -20.3470  -27.6700   11.1020 C   0  0  0  0  0  0  0  0  0  0  0  0
  -20.3510  -27.9550    9.7050 C   0  0  0  0  0  0  0  0  0  0  0  0
  -22.3800  -27.5460   10.2640 N   0  0  0  0  0  0  0  0  0  0  0  0
  -21.5750  -27.8220    9.2070 N   0  0  0  0  0  0  0  0  0  0  0  0
  -19.2710  -28.4020    8.8190 C   0  0  0  0  0  0  0  0  0  0  0  0
  -18.9210  -27.6730    7.6630 C   0  0  0  0  0  3  0  0  0  0  0  0
  -17.8650  -28.1120    6.8330 C   0  0  0  0  0  3  0  0  0  0  0  0
  -17.1490  -29.2870    7.1590 C   0  0  0  0  0  0  0  0  0  0  0  0
  -17.5140  -30.0190    8.3030 C   0  0  0  0  0  3  0  0  0  0  0  0
  -18.5670  -29.5840    9.1250 C   0  0  0  0  0  3  0  0  0  0  0  0
  -16.1300  -29.8040    6.3960 O   0  0  0  0  0  0  0  0  0  0  0  0
  -15.3400  -29.0030    5.6120 C   0  0  0  0  0  0  0  0  0  0  0  0
  -14.5660  -27.9570    6.1590 C   0  0  0  0  0  3  0  0  0  0  0  0
  -13.7160  -27.2000    5.3280 C   0  0  0  0  0  3  0  0  0  0  0  0
  -13.6300  -27.4910    3.9540 C   0  0  0  0  0  0  0  0  0  0  0  0
  -14.3940  -28.5380    3.4090 C   0  0  0  0  0  3  0  0  0  0  0  0
  -15.2450  -29.2920    4.2360 C   0  0  0  0  0  0  0  0  0  0  0  0
  -15.9660  -30.3100    3.7080 F   0  0  0  0  0  0  0  0  0  0  0  0
  -12.8070  -26.7720    3.1580 F   0  0  0  0  0  0  0  0  0  0  0  0
  -19.1790  -27.7300   12.0450 C   0  0  0  0  0  0  0  0  0  0  0  0
  -18.0150  -27.2510   11.6130 N   0  0  0  0  0  0  0  0  0  0  0  0
  -19.3010  -28.1570   13.1900 O   0  0  0  0  0  0  0  0  0  0  0  0
  -17.9140  -26.8750   10.6810 H   0  0  0  0  0  0  0  0  0  0  0  0
  -17.2110  -27.2600   12.2260 H   0  0  0  0  0  0  0  0  0  0  0  0
  -22.2700  -27.1190   12.6420 N   0  0  0  0  0  0  0  0  0  0  0  0
  -21.7400  -27.0990   13.5040 H   0  0  0  0  0  0  0  0  0  0  0  0
  -23.2410  -26.8570   12.7630 H   0  0  0  0  0  0  0  0  0  0  0  0
  1 54  1  0
  2  4  2  0
  2  3  1  0
  3  1  1  0
  5  3  1  0
  6  2  1  0
  7  6  1  0
  7  8  1  0
  8 11  1  0
  8  9  1  0
 10  8  1  0
 11 12  1  0
 12 13  1  0
 13 15  1  0
 14 25  2  0
 15 20  1  0
 16 26  1  0
 16 24  1  0
 17 23  1  0
 17 19  1  0
 18 24  1  0
 19 18  1  0
 20 19  2  0
 21 22  1  0
 21 15  2  0
 22 17  2  0
 23 16  1  0
 24 14  1  0
 26 28  2  0
 27 26  1  0
 29 27  1  0
 30 35  1  0
 31 27  1  0
 32 31  1  0
 33 32  1  0
 34 33  1  0
 34 30  1  0
 35 31  1  0
 35 36  2  0
 37 36  1  0
 38 37  2  0
 39 30  2  0
 39 38  1  0
 40 14  1  0
 40 45  1  0
 41 42  1  6
 41 40  1  0
 41 44  1  0
 43 41  1  0
 45 48  1  0
 45 46  1  0
 46 50  1  0
 47 46  2  0
 50 49  1  0
 50 52  1  0
 52 51  1  0
 52 53  1  0
 55 54  1  0
 56 55  1  0
 57 59  2  0
 57 56  1  0
 58 60  1  0
 58 57  1  0
 61 58  1  0
 62 61  1  0
 63 62  1  0
 64 63  1  0
 65 64  1  0
 66 65  1  0
 67 66  1  0
 68 67  1  0
 69 77  1  0
 70 71  1  0
 70 75  1  0
 71 72  1  0
 72 73  1  0
 73 74  1  0
 73 82  1  0
 75 74  1  0
 75 69  1  0
 76 69  2  0
 77 78  1  0
 77 68  1  0
 79104  1  0
 80 79  2  0
 80 99  1  0
 81 80  1  0
 82 79  1  0
 83 81  2  0
 83 82  1  0
 84 89  1  0
 84 81  1  0
 85 84  2  0
 86 87  2  0
 86 85  1  0
 87 88  1  0
 88 89  2  0
 90 87  1  0
 91 92  1  0
 91 90  1  0
 93 92  2  0
 94 93  1  0
 95 94  2  0
 95 96  1  0
 96 91  2  0
 97 96  1  0
 98 94  1  0
 99101  2  0
100 99  1  0
100103  1  0
102100  1  0
104106  1  0
104105  1  0
M  ISO  4  12 101  13 101  69 100  77 100
M  END
>  <TORSDO>  (49) 
F 34

>  <SCORE>  (49) 
-4.185

>  <name>  (49) 
51

>  <ligand_id>  (49) 
51

>  <original_smiles>  (49) 
[H]c1c([H])c([H])c2c(c1[H])C([H])([H])C([H])([H])C([H])([H])C2([H])N([H])C(=O)C1([H])N(C(=O)C([H])(N([H])C(=O)C([H])(N([H])C([H])([H])[H])C([H])([H])[H])C(C([H])([H])[H])(C([H])([H])[H])C([H])([H])[H])C([H])([H])c2c([H])c(OC([H])([H])C([H])([H])[N+]([H])([H])C([H])([H])C([H])([H])C(=O)N([H])C([H])([H])C([H])([H])OC([H])([H])C(=O)N([H])C([H])([H])C([H])([H])OC([H])([H])C([H])([H])OC([H])([H])C([H])([H])N([H])C(=O)N3C([H])([H])C([H])([H])C([H])([H])C([H])(n4nc(-c5c([H])c([H])c(Oc6c([H])c([H])c(F)c([H])c6F)c([H])c5[H])c(C(=O)N([H])[H])c4N([H])[H])C3([H])[H])c([H])c([H])c2C1([H])[H]

>  <smiles>  (49) 
[H]c1c([H])c([H])c2c(c1[H])C([H])([H])C([H])([H])C([H])([H])C2([H])N([H])C(=O)C1([H])N(C(=O)C([H])(N([H])C(=O)C([H])(N([H])C([H])([H])[H])C([H])([H])[H])C(C([H])([H])[H])(C([H])([H])[H])C([H])([H])[H])C([H])([H])c2c([H])c(OC([H])([H])C([H])([H])[N+]([H])([H])C([H])([H])C([H])([H])C(=O)N([H])C([H])([H])C([H])([H])OC([H])([H])C(=O)N([H])C([H])([H])C([H])([H])OC([H])([H])C([H])([H])OC([H])([H])C([H])([H])N([H])C(=O)N3C([H])([H])C([H])([H])C([H])([H])C([H])(n4nc(-c5c([H])c([H])c(Oc6c([H])c([H])c(F)c([H])c6F)c([H])c5[H])c(C(=O)N([H])[H])c4N([H])[H])C3([H])[H])c([H])c([H])c2C1([H])[H]

$$$$
52:0:0
     RDKit          3D

103111  0  0  1  0  0  0  0  0999 V2000
  -31.0630  -22.4950   20.8460 C   0  0  0  0  0  2  0  0  0  0  0  0
  -29.6320  -21.9640   20.6730 C   0  0  0  0  0  2  0  0  0  0  0  0
  -29.0040  -21.4370   21.9750 C   0  0  0  0  0  2  0  0  0  0  0  0
  -27.4600  -21.3870   21.9960 C   0  0  0  0  0  2  0  0  0  0  0  0
  -26.7650  -22.7570   22.1850 C   0  0  0  0  0  2  0  0  0  0  0  0
  -26.4200  -23.5110   20.8830 C   0  0  0  0  0  2  0  0  0  0  0  0
  -27.4360  -24.5480   20.5990 N   0  0  0  0  0  4  0  0  0  0  0  0
  -28.1570  -24.0900   20.0680 H   0  0  0  0  0  0  0  0  0  0  0  0
  -27.8530  -24.8410   21.4650 H   0  0  0  0  0  0  0  0  0  0  0  0
  -26.9800  -25.7350   19.8380 C   0  0  0  0  0  2  0  0  0  0  0  0
  -28.1470  -26.3770   19.0330 C   0  0  0  0  0  2  0  0  0  0  0  0
  -27.8410  -27.4890   18.1740 O   0  0  0  0  0  0  0  0  0  0  0  0
  -25.0230  -31.6430   23.1910 C   0  0  0  0  0  0  0  0  0  0  0  0
  -26.7940  -28.2730   18.5790 C   0  0  0  0  0  0  0  0  0  0  0  0
  -23.4700  -30.8400   21.4420 C   0  0  0  0  0  3  0  0  0  0  0  0
  -24.5640  -29.7780   19.4000 C   0  0  0  0  0  0  0  0  0  0  0  0
  -25.9410  -31.2040   20.9200 C   0  0  0  0  0  2  0  0  0  0  0  0
  -25.8320  -30.0770   19.9150 C   0  0  0  0  0  0  0  0  0  0  0  0
  -26.9560  -29.3140   19.5180 C   0  0  0  0  0  3  0  0  0  0  0  0
  -25.5260  -28.0110   18.0350 C   0  0  0  0  0  3  0  0  0  0  0  0
  -24.4020  -28.7430   18.4610 C   0  0  0  0  0  3  0  0  0  0  0  0
  -23.4090  -30.6090   19.9100 C   0  0  0  0  0  2  0  0  0  0  0  0
  -24.8410  -31.2200   21.9100 N   0  0  0  0  0  0  0  0  0  0  0  0
  -24.0650  -31.7660   23.9660 O   0  0  0  0  0  0  0  0  0  0  0  0
  -22.8980  -29.5940   22.1550 C   0  0  0  0  0  0  0  0  0  0  0  0
  -21.5610  -29.4580   22.1460 N   0  0  0  0  0  0  0  0  0  0  0  0
  -23.6490  -28.7640   22.6720 O   0  0  0  0  0  0  0  0  0  0  0  0
  -21.0210  -30.1830   21.6990 H   0  0  0  0  0  0  0  0  0  0  0  0
  -18.2190  -28.1710   22.6480 C   0  0  0  0  0  0  0  0  0  0  0  0
  -20.7980  -28.3540   22.7260 C   0  0  0  0  0  3  0  0  0  0  0  0
  -20.8150  -27.1220   21.7940 C   0  0  0  0  0  2  0  0  0  0  0  0
  -19.6170  -27.0740   20.8440 C   0  0  0  0  0  2  0  0  0  0  0  0
  -18.3010  -27.0440   21.6330 C   0  0  0  0  0  2  0  0  0  0  0  0
  -19.3920  -28.7960   23.1460 C   0  0  0  0  0  0  0  0  0  0  0  0
  -19.2670  -29.8610   24.0630 C   0  0  0  0  0  3  0  0  0  0  0  0
  -17.9970  -30.3050   24.4790 C   0  0  0  0  0  3  0  0  0  0  0  0
  -16.8390  -29.6700   23.9980 C   0  0  0  0  0  3  0  0  0  0  0  0
  -16.9500  -28.6030   23.0880 C   0  0  0  0  0  3  0  0  0  0  0  0
  -26.4380  -32.0230   23.7330 C   0  0  0  0  0  3  0  0  0  0  0  0
  -26.3460  -33.3620   24.3310 N   0  0  0  0  0  0  0  0  0  0  0  0
  -26.7420  -34.4890   23.7210 C   0  0  0  0  0  0  0  0  0  0  0  0
  -27.2970  -34.4960   22.6180 O   0  0  0  0  0  0  0  0  0  0  0  0
  -25.8600  -33.4360   25.2140 H   0  0  0  0  0  0  0  0  0  0  0  0
  -25.2200  -36.4830   23.8500 C   0  0  0  0  0  1  0  0  0  0  0  0
  -26.4740  -35.8220   24.4440 C   0  0  0  0  0  3  0  0  0  0  0  0
  -28.7730  -36.2970   25.1580 C   0  0  0  0  0  1  0  0  0  0  0  0
  -27.6190  -36.7620   24.3920 N   0  0  0  0  0  0  0  0  0  0  0  0
  -27.3520  -37.6780   24.7480 H   0  0  0  0  0  0  0  0  0  0  0  0
  -26.9980  -30.9830   24.7780 C   0  0  1  0  0  0  0  0  0  0  0  0
  -26.0140  -30.6660   25.9310 C   0  0  0  0  0  1  0  0  0  0  0  0
  -27.3480  -29.6530   24.0750 C   0  0  0  0  0  1  0  0  0  0  0  0
  -28.3230  -31.5090   25.3840 C   0  0  0  0  0  1  0  0  0  0  0  0
  -31.6920  -22.9390   19.5160 C   0  0  0  0  0  2  0  0  0  0  0  0
  -32.9280  -20.9210   18.7740 C   0  0  0  0  0  0  0  0  0  0  0  0
  -31.9400  -21.8060   18.6460 N   0  0  0  0  0  0  0  0  0  0  0  0
  -33.8190  -20.9980   19.6260 O   0  0  0  0  0  0  0  0  0  0  0  0
  -31.2780  -21.6390   17.9000 H   0  0  0  0  0  0  0  0  0  0  0  0
  -32.8990  -19.7870   17.7570 C   0  0  0  0  0  2  0  0  0  0  0  0
  -32.4510  -17.8530   19.2390 C   0  0  0  0  0  0  0  0  0  0  0  0
  -33.2160  -18.5030   18.3540 N   0  0  0  0  0  0  0  0  0  0  0  0
  -31.5310  -18.3930   19.8610 O   0  0  0  0  0  0  0  0  0  0  0  0
  -33.9740  -17.9860   17.9310 H   0  0  0  0  0  0  0  0  0  0  0  0
  -31.5050  -14.8170   20.8740 C   0  0  0  0  0  0  0  0  0  0  0  0
  -31.1580  -12.4850   20.3120 C   0  0  0  0  0  2  0  0  0  0  0  0
  -30.4000  -12.2640   18.9950 C   0  0  0  0  0  2  0  0  0  0  0  0
  -28.8630  -12.3970   19.1990 C   0  0  0  0  0  2  0  0  0  0  0  0
  -28.3800  -13.5070   20.1880 C   0  0  0  0  0  3  0  0  0  0  0  0
  -29.3080  -13.6450   21.4150 C   0  0  0  0  0  2  0  0  0  0  0  0
  -30.6790  -13.7400   20.8900 N   0  0  0  0  0  0  0  0  0  0  0  0
  -32.5670  -14.7960   21.4760 O   0  0  0  0  0  0  0  0  0  0  0  0
  -31.5710  -15.7440   17.3470 C   0  0  0  0  0  2  0  0  0  0  0  0
  -32.9600  -15.6750   17.9810 C   0  0  0  0  0  2  0  0  0  0  0  0
  -30.6250  -15.5410   18.5640 C   0  0  0  0  0  2  0  0  0  0  0  0
  -32.7050  -16.3350   19.3380 C   0  0  0  0  0  3  0  0  0  0  0  0
  -31.4740  -15.6340   19.7770 N   0  0  0  0  0  0  0  0  0  0  0  0
  -25.9850  -14.3220   20.6310 C   0  0  0  0  0  0  0  0  0  0  0  0
  -24.8140  -13.6390   20.8430 C   0  0  0  0  0  0  0  0  0  0  0  0
  -25.1690  -12.2580   20.8790 C   0  0  0  0  0  0  0  0  0  0  0  0
  -26.9720  -13.3530   20.5360 N   0  0  0  0  0  0  0  0  0  0  0  0
  -26.4790  -12.1100   20.7510 N   0  0  0  0  0  0  0  0  0  0  0  0
  -24.3340  -11.0530   20.9660 C   0  0  0  0  0  0  0  0  0  0  0  0
  -24.6250  -10.0190   21.8840 C   0  0  0  0  0  3  0  0  0  0  0  0
  -23.7950   -8.8810   21.9630 C   0  0  0  0  0  3  0  0  0  0  0  0
  -22.6650   -8.7690   21.1170 C   0  0  0  0  0  0  0  0  0  0  0  0
  -22.3950   -9.7900   20.1910 C   0  0  0  0  0  3  0  0  0  0  0  0
  -23.2240  -10.9220   20.1110 C   0  0  0  0  0  3  0  0  0  0  0  0
  -21.8170   -7.6890   21.1030 O   0  0  0  0  0  0  0  0  0  0  0  0
  -21.6550   -6.8880   22.2020 C   0  0  0  0  0  0  0  0  0  0  0  0
  -21.2330   -7.4070   23.4450 C   0  0  0  0  0  3  0  0  0  0  0  0
  -21.0170   -6.5380   24.5310 C   0  0  0  0  0  3  0  0  0  0  0  0
  -21.2070   -5.1510   24.3740 C   0  0  0  0  0  0  0  0  0  0  0  0
  -21.6190   -4.6340   23.1330 C   0  0  0  0  0  3  0  0  0  0  0  0
  -21.8430   -5.5000   22.0490 C   0  0  0  0  0  0  0  0  0  0  0  0
  -22.2200   -4.9940   20.8490 F   0  0  0  0  0  0  0  0  0  0  0  0
  -20.9890   -4.3180   25.4160 F   0  0  0  0  0  0  0  0  0  0  0  0
  -23.4390  -14.2320   20.9270 C   0  0  0  0  0  0  0  0  0  0  0  0
  -22.5630  -13.6000   21.7020 N   0  0  0  0  0  0  0  0  0  0  0  0
  -23.1470  -15.2820   20.3590 O   0  0  0  0  0  0  0  0  0  0  0  0
  -22.8200  -12.7400   22.1640 H   0  0  0  0  0  0  0  0  0  0  0  0
  -21.6370  -13.9840   21.8360 H   0  0  0  0  0  0  0  0  0  0  0  0
  -26.2900  -15.6710   20.4870 N   0  0  0  0  0  0  0  0  0  0  0  0
  -25.5980  -16.4100   20.5160 H   0  0  0  0  0  0  0  0  0  0  0  0
  -27.2310  -16.0240   20.3440 H   0  0  0  0  0  0  0  0  0  0  0  0
  2  1  1  0
  2  3  1  0
  3  4  1  0
  4  5  1  0
  6  5  1  0
  7  6  1  0
  7  9  1  0
  8  7  1  0
 10  7  1  0
 11 10  1  0
 12 14  1  0
 12 11  1  0
 13 24  2  0
 14 19  1  0
 15 23  1  0
 15 25  1  0
 16 22  1  0
 16 18  1  0
 17 23  1  0
 18 17  1  0
 19 18  2  0
 20 21  1  0
 20 14  2  0
 21 16  2  0
 22 15  1  0
 23 13  1  0
 25 27  2  0
 26 25  1  0
 28 26  1  0
 29 38  2  0
 29 34  1  0
 30 26  1  0
 30 34  1  0
 31 30  1  0
 32 33  1  0
 32 31  1  0
 33 29  1  0
 34 35  2  0
 35 36  1  0
 37 36  2  0
 38 37  1  0
 39 13  1  0
 39 40  1  0
 39 49  1  0
 40 43  1  0
 41 40  1  0
 41 45  1  0
 42 41  2  0
 45 44  1  0
 47 45  1  0
 47 48  1  0
 47 46  1  0
 49 52  1  1
 49 50  1  0
 51 49  1  0
 53  1  1  0
 54 56  2  0
 55 54  1  0
 55 53  1  0
 57 55  1  0
 58 60  1  0
 58 54  1  0
 59 61  2  0
 60 59  1  0
 62 60  1  0
 63 69  1  0
 63 70  2  0
 64 69  1  0
 65 66  1  0
 65 64  1  0
 67 66  1  0
 67 79  1  0
 67 68  1  0
 69 68  1  0
 71 72  1  0
 71 73  1  0
 72 74  1  0
 73 75  1  0
 74 59  1  0
 74 75  1  0
 75 63  1  0
 76 77  2  0
 77 78  1  0
 77 96  1  0
 78 81  1  0
 79 76  1  0
 79 80  1  0
 80 78  2  0
 81 82  1  0
 82 83  2  0
 84 83  1  0
 85 84  2  0
 86 85  1  0
 86 81  2  0
 87 84  1  0
 87 88  1  0
 88 89  1  0
 89 90  2  0
 91 90  1  0
 91 95  1  0
 92 91  2  0
 93 88  2  0
 93 92  1  0
 94 93  1  0
 96 97  1  0
 97100  1  0
 97 99  1  0
 98 96  2  0
101102  1  0
101 76  1  0
103101  1  0
M  ISO  4  11 101  12 101  63 100  75 100
M  END
>  <TORSDO>  (50) 
F 28

>  <SCORE>  (50) 
-5.627

>  <name>  (50) 
52

>  <ligand_id>  (50) 
52

>  <original_smiles>  (50) 
[H]c1c([H])c([H])c2c(c1[H])C([H])([H])C([H])([H])C([H])([H])C2([H])N([H])C(=O)C1([H])N(C(=O)C([H])(N([H])C(=O)C([H])(N([H])C([H])([H])[H])C([H])([H])[H])C(C([H])([H])[H])(C([H])([H])[H])C([H])([H])[H])C([H])([H])c2c([H])c(OC([H])([H])C([H])([H])[N+]([H])([H])C([H])([H])C([H])([H])C([H])([H])C([H])([H])C([H])([H])C([H])([H])C([H])([H])N([H])C(=O)C([H])([H])N([H])C(=O)C3([H])N(C(=O)N4C([H])([H])C([H])([H])C([H])([H])C([H])(n5nc(-c6c([H])c([H])c(Oc7c([H])c([H])c(F)c([H])c7F)c([H])c6[H])c(C(=O)N([H])[H])c5N([H])[H])C4([H])[H])C([H])([H])C([H])([H])C3([H])[H])c([H])c([H])c2C1([H])[H]

>  <smiles>  (50) 
[H]c1c([H])c([H])c2c(c1[H])C([H])([H])C([H])([H])C([H])([H])C2([H])N([H])C(=O)C1([H])N(C(=O)C([H])(N([H])C(=O)C([H])(N([H])C([H])([H])[H])C([H])([H])[H])C(C([H])([H])[H])(C([H])([H])[H])C([H])([H])[H])C([H])([H])c2c([H])c(OC([H])([H])C([H])([H])[N+]([H])([H])C([H])([H])C([H])([H])C([H])([H])C([H])([H])C([H])([H])C([H])([H])C([H])([H])N([H])C(=O)C([H])([H])N([H])C(=O)C3([H])N(C(=O)N4C([H])([H])C([H])([H])C([H])([H])C([H])(n5nc(-c6c([H])c([H])c(Oc7c([H])c([H])c(F)c([H])c7F)c([H])c6[H])c(C(=O)N([H])[H])c5N([H])[H])C4([H])[H])C([H])([H])C([H])([H])C3([H])[H])c([H])c([H])c2C1([H])[H]

$$$$
53:0:0
     RDKit          3D

105112  0  0  1  0  0  0  0  0999 V2000
  -25.9090  -21.6510   28.6240 O   0  0  0  0  0  0  0  0  0  0  0  0
  -25.3120  -20.8160   29.6120 C   0  0  0  0  0  2  0  0  0  0  0  0
  -26.3710  -19.9200   30.2620 C   0  0  0  0  0  2  0  0  0  0  0  0
  -27.1640  -19.3300   29.2430 O   0  0  0  0  0  0  0  0  0  0  0  0
  -28.0240  -18.3190   29.7440 C   0  0  0  0  0  2  0  0  0  0  0  0
  -29.0660  -18.0020   28.6610 C   0  0  0  0  0  2  0  0  0  0  0  0
  -28.4510  -17.7880   27.2560 C   0  0  0  0  0  2  0  0  0  0  0  0
  -29.0950  -18.6030   26.1970 N   0  0  0  0  0  4  0  0  0  0  0  0
  -28.7720  -18.2340   25.3150 H   0  0  0  0  0  0  0  0  0  0  0  0
  -30.0970  -18.4770   26.2230 H   0  0  0  0  0  0  0  0  0  0  0  0
  -28.7750  -20.0540   26.2280 C   0  0  0  0  0  2  0  0  0  0  0  0
  -29.2040  -20.7670   24.9240 C   0  0  0  0  0  2  0  0  0  0  0  0
  -30.6320  -20.8860   24.8700 O   0  0  0  0  0  0  0  0  0  0  0  0
  -31.1540  -20.8110   23.5400 C   0  0  0  0  0  2  0  0  0  0  0  0
  -32.6320  -21.3040   23.4740 C   0  0  0  0  0  2  0  0  0  0  0  0
  -34.3520  -20.5850   21.7710 C   0  0  0  0  0  0  0  0  0  0  0  0
  -35.0560  -18.5970   20.4680 C   0  0  0  0  0  2  0  0  0  0  0  0
  -34.6220  -18.7210   18.9850 C   0  0  0  0  0  2  0  0  0  0  0  0
  -33.1530  -18.2770   18.7870 C   0  0  0  0  0  2  0  0  0  0  0  0
  -32.2080  -18.9350   19.8240 C   0  0  0  0  0  3  0  0  0  0  0  0
  -32.7810  -18.6970   21.2330 C   0  0  0  0  0  2  0  0  0  0  0  0
  -34.0990  -19.3350   21.3020 N   0  0  0  0  0  0  0  0  0  0  0  0
  -35.4610  -21.1240   21.6590 O   0  0  0  0  0  0  0  0  0  0  0  0
  -33.2590  -21.2960   22.1360 N   0  0  0  0  0  0  0  0  0  0  0  0
  -33.3370  -22.2500   21.8160 H   0  0  0  0  0  0  0  0  0  0  0  0
  -29.6640  -19.1030   19.4170 C   0  0  0  0  0  0  0  0  0  0  0  0
  -28.6810  -18.1410   19.3940 C   0  0  0  0  0  0  0  0  0  0  0  0
  -29.3390  -16.9050   19.6810 C   0  0  0  0  0  0  0  0  0  0  0  0
  -30.8430  -18.4300   19.7120 N   0  0  0  0  0  0  0  0  0  0  0  0
  -30.6270  -17.1070   19.9200 N   0  0  0  0  0  0  0  0  0  0  0  0
  -28.8240  -15.5300   19.6820 C   0  0  0  0  0  0  0  0  0  0  0  0
  -28.8980  -14.7130   20.8310 C   0  0  0  0  0  3  0  0  0  0  0  0
  -28.3840  -13.3990   20.8060 C   0  0  0  0  0  3  0  0  0  0  0  0
  -27.7920  -12.8890   19.6250 C   0  0  0  0  0  0  0  0  0  0  0  0
  -27.7520  -13.6960   18.4740 C   0  0  0  0  0  3  0  0  0  0  0  0
  -28.2620  -15.0040   18.5010 C   0  0  0  0  0  3  0  0  0  0  0  0
  -27.2900  -11.6180   19.5040 O   0  0  0  0  0  0  0  0  0  0  0  0
  -26.6400  -10.9990   20.5430 C   0  0  0  0  0  0  0  0  0  0  0  0
  -25.4930  -11.5600   21.1470 C   0  0  0  0  0  3  0  0  0  0  0  0
  -24.8090  -10.8510   22.1560 C   0  0  0  0  0  3  0  0  0  0  0  0
  -25.2710   -9.5870   22.5640 C   0  0  0  0  0  0  0  0  0  0  0  0
  -26.4110   -9.0260   21.9630 C   0  0  0  0  0  3  0  0  0  0  0  0
  -27.0860   -9.7280   20.9500 C   0  0  0  0  0  0  0  0  0  0  0  0
  -28.1700   -9.1720   20.3580 F   0  0  0  0  0  0  0  0  0  0  0  0
  -24.6120   -8.9030   23.5270 F   0  0  0  0  0  0  0  0  0  0  0  0
  -27.2410  -18.3390   19.0220 C   0  0  0  0  0  0  0  0  0  0  0  0
  -26.3500  -17.5340   19.5940 N   0  0  0  0  0  0  0  0  0  0  0  0
  -26.8890  -19.2360   18.2600 O   0  0  0  0  0  0  0  0  0  0  0  0
  -26.6380  -16.8380   20.2610 H   0  0  0  0  0  0  0  0  0  0  0  0
  -25.3690  -17.6390   19.3820 H   0  0  0  0  0  0  0  0  0  0  0  0
  -29.6500  -20.4740   19.1880 N   0  0  0  0  0  0  0  0  0  0  0  0
  -28.7980  -20.9720   18.9420 H   0  0  0  0  0  0  0  0  0  0  0  0
  -30.4700  -21.0700   19.2060 H   0  0  0  0  0  0  0  0  0  0  0  0
  -24.9580  -22.5330   28.0490 C   0  0  0  0  0  2  0  0  0  0  0  0
  -25.5520  -23.2520   26.8330 C   0  0  0  0  0  2  0  0  0  0  0  0
  -24.4720  -24.0170   26.0590 C   0  0  0  0  0  2  0  0  0  0  0  0
  -24.9110  -24.1920   24.7220 O   0  0  0  0  0  0  0  0  0  0  0  0
  -23.9160  -24.7980   23.9020 C   0  0  0  0  0  2  0  0  0  0  0  0
  -24.3250  -24.6510   22.4360 C   0  0  0  0  0  0  0  0  0  0  0  0
  -25.6080  -24.3500   22.2220 N   0  0  0  0  0  0  0  0  0  0  0  0
  -23.4990  -24.7860   21.5320 O   0  0  0  0  0  0  0  0  0  0  0  0
  -26.1550  -24.2170   23.0650 H   0  0  0  0  0  0  0  0  0  0  0  0
  -26.2420  -24.0850   20.9360 C   0  0  0  0  0  2  0  0  0  0  0  0
  -27.0900  -25.2720   20.4320 C   0  0  0  0  0  2  0  0  0  0  0  0
  -26.3860  -25.9810   19.4150 O   0  0  0  0  0  0  0  0  0  0  0  0
  -24.6040  -31.0860   24.0980 C   0  0  0  0  0  0  0  0  0  0  0  0
  -25.5210  -26.9660   19.8250 C   0  0  0  0  0  0  0  0  0  0  0  0
  -22.9020  -30.5120   22.3960 C   0  0  0  0  0  3  0  0  0  0  0  0
  -23.7030  -29.0180   20.4940 C   0  0  0  0  0  0  0  0  0  0  0  0
  -25.3930  -30.1950   21.9100 C   0  0  0  0  0  2  0  0  0  0  0  0
  -25.0070  -29.0430   21.0090 C   0  0  0  0  0  0  0  0  0  0  0  0
  -25.9240  -28.0210   20.6740 C   0  0  0  0  0  3  0  0  0  0  0  0
  -24.2100  -26.9560   19.3100 C   0  0  0  0  0  3  0  0  0  0  0  0
  -23.2970  -27.9740   19.6430 C   0  0  0  0  0  3  0  0  0  0  0  0
  -22.7860  -30.1510   20.8910 C   0  0  0  0  0  2  0  0  0  0  0  0
  -24.3270  -30.5920   22.8600 N   0  0  0  0  0  0  0  0  0  0  0  0
  -23.7020  -31.5080   24.8350 O   0  0  0  0  0  0  0  0  0  0  0  0
  -22.0540  -29.5120   23.2130 C   0  0  0  0  0  0  0  0  0  0  0  0
  -20.7340  -29.5080   22.9680 N   0  0  0  0  0  0  0  0  0  0  0  0
  -22.5850  -28.7460   24.0220 O   0  0  0  0  0  0  0  0  0  0  0  0
  -20.3770  -30.1760   22.3000 H   0  0  0  0  0  0  0  0  0  0  0  0
  -17.2780  -28.4610   22.8260 C   0  0  0  0  0  0  0  0  0  0  0  0
  -19.7440  -28.6230   23.5840 C   0  0  0  0  0  3  0  0  0  0  0  0
  -19.8940  -27.1730   23.0640 C   0  0  0  0  0  2  0  0  0  0  0  0
  -18.9910  -26.8650   21.8640 C   0  0  0  0  0  2  0  0  0  0  0  0
  -17.5200  -27.0860   22.2260 C   0  0  0  0  0  2  0  0  0  0  0  0
  -18.3260  -29.1890   23.4510 C   0  0  0  0  0  0  0  0  0  0  0  0
  -18.0500  -30.4760   23.9610 C   0  0  0  0  0  3  0  0  0  0  0  0
  -16.7620  -31.0330   23.8590 C   0  0  0  0  0  3  0  0  0  0  0  0
  -15.7270  -30.3020   23.2500 C   0  0  0  0  0  3  0  0  0  0  0  0
  -15.9860  -29.0170   22.7380 C   0  0  0  0  0  3  0  0  0  0  0  0
  -26.0660  -31.1670   24.6380 C   0  0  0  0  0  3  0  0  0  0  0  0
  -26.2180  -32.4640   25.3080 N   0  0  0  0  0  0  0  0  0  0  0  0
  -26.8240  -33.5330   24.7690 C   0  0  0  0  0  0  0  0  0  0  0  0
  -27.3740  -33.5020   23.6650 O   0  0  0  0  0  0  0  0  0  0  0  0
  -25.7400  -32.5750   26.1890 H   0  0  0  0  0  0  0  0  0  0  0  0
  -25.7250  -35.7810   25.0200 C   0  0  0  0  0  1  0  0  0  0  0  0
  -26.8080  -34.8430   25.5770 C   0  0  0  0  0  3  0  0  0  0  0  0
  -29.1440  -34.8280   26.3360 C   0  0  0  0  0  1  0  0  0  0  0  0
  -28.1120  -35.5390   25.5880 N   0  0  0  0  0  0  0  0  0  0  0  0
  -28.0210  -36.4720   25.9800 H   0  0  0  0  0  0  0  0  0  0  0  0
  -26.4290  -29.9820   25.6150 C   0  0  1  0  0  0  0  0  0  0  0  0
  -25.4110  -29.7900   26.7640 C   0  0  0  0  0  1  0  0  0  0  0  0
  -26.5280  -28.6480   24.8400 C   0  0  0  0  0  1  0  0  0  0  0  0
  -27.8180  -30.2350   26.2450 C   0  0  0  0  0  1  0  0  0  0  0  0
  1  2  1  0
  2  3  1  0
  4  5  1  0
  4  3  1  0
  6  5  1  0
  7  6  1  0
  8 10  1  0
  8 11  1  0
  8  7  1  0
  9  8  1  0
 12 11  1  0
 13 12  1  0
 14 13  1  0
 15 14  1  0
 16 24  1  0
 17 22  1  0
 18 17  1  0
 19 18  1  0
 20 19  1  0
 20 21  1  0
 21 22  1  0
 22 16  1  0
 23 16  2  0
 24 15  1  0
 25 24  1  0
 26 29  1  0
 27 26  2  0
 27 28  1  0
 28 31  1  0
 28 30  2  0
 29 20  1  0
 29 30  1  0
 31 32  1  0
 33 32  2  0
 34 33  1  0
 35 36  1  0
 35 34  2  0
 36 31  2  0
 37 34  1  0
 37 38  1  0
 38 43  2  0
 38 39  1  0
 39 40  2  0
 40 41  1  0
 41 45  1  0
 42 41  2  0
 43 42  1  0
 44 43  1  0
 46 27  1  0
 46 47  1  0
 47 49  1  0
 48 46  2  0
 50 47  1  0
 51 53  1  0
 51 26  1  0
 52 51  1  0
 54  1  1  0
 55 54  1  0
 56 55  1  0
 57 56  1  0
 58 57  1  0
 59 58  1  0
 60 59  1  0
 60 62  1  0
 61 59  2  0
 63 60  1  0
 64 63  1  0
 65 67  1  0
 65 64  1  0
 66 77  2  0
 67 72  1  0
 68 76  1  0
 68 78  1  0
 69 75  1  0
 69 71  1  0
 70 76  1  0
 71 70  1  0
 72 71  2  0
 73 74  1  0
 73 67  2  0
 74 69  2  0
 75 68  1  0
 76 66  1  0
 78 80  2  0
 79 78  1  0
 81 79  1  0
 82 87  1  0
 83 79  1  0
 84 83  1  0
 85 86  1  0
 85 84  1  0
 86 82  1  0
 87 83  1  0
 87 88  2  0
 89 88  1  0
 90 89  2  0
 91 82  2  0
 91 90  1  0
 92 66  1  0
 92 93  1  0
 92102  1  0
 93 96  1  0
 94 93  1  0
 94 98  1  0
 95 94  2  0
 98 97  1  0
 98100  1  0
100101  1  0
100 99  1  0
102105  1  1
102103  1  0
104102  1  0
M  ISO  4  16 100  24 100  64 101  65 101
M  END
>  <TORSDO>  (51) 
F 36

>  <SCORE>  (51) 
23.564

>  <name>  (51) 
53

>  <ligand_id>  (51) 
53

>  <original_smiles>  (51) 
[H]c1c([H])c([H])c2c(c1[H])C([H])([H])C([H])([H])C([H])([H])C2([H])N([H])C(=O)C1([H])N(C(=O)C([H])(N([H])C(=O)C([H])(N([H])C([H])([H])[H])C([H])([H])[H])C(C([H])([H])[H])(C([H])([H])[H])C([H])([H])[H])C([H])([H])c2c([H])c(OC([H])([H])C([H])([H])N([H])C(=O)C([H])([H])OC([H])([H])C([H])([H])C([H])([H])OC([H])([H])C([H])([H])OC([H])([H])C([H])([H])C([H])([H])[N+]([H])([H])C([H])([H])C([H])([H])OC([H])([H])C([H])([H])N([H])C(=O)N3C([H])([H])C([H])([H])C([H])([H])C([H])(n4nc(-c5c([H])c([H])c(Oc6c([H])c([H])c(F)c([H])c6F)c([H])c5[H])c(C(=O)N([H])[H])c4N([H])[H])C3([H])[H])c([H])c([H])c2C1([H])[H]

>  <smiles>  (51) 
[H]c1c([H])c([H])c2c(c1[H])C([H])([H])C([H])([H])C([H])([H])C2([H])N([H])C(=O)C1([H])N(C(=O)C([H])(N([H])C(=O)C([H])(N([H])C([H])([H])[H])C([H])([H])[H])C(C([H])([H])[H])(C([H])([H])[H])C([H])([H])[H])C([H])([H])c2c([H])c(OC([H])([H])C([H])([H])N([H])C(=O)C([H])([H])OC([H])([H])C([H])([H])C([H])([H])OC([H])([H])C([H])([H])OC([H])([H])C([H])([H])C([H])([H])[N+]([H])([H])C([H])([H])C([H])([H])OC([H])([H])C([H])([H])N([H])C(=O)N3C([H])([H])C([H])([H])C([H])([H])C([H])(n4nc(-c5c([H])c([H])c(Oc6c([H])c([H])c(F)c([H])c6F)c([H])c5[H])c(C(=O)N([H])[H])c4N([H])[H])C3([H])[H])c([H])c([H])c2C1([H])[H]

$$$$
54:0:0
     RDKit          3D

108117  0  0  1  0  0  0  0  0999 V2000
  -27.3340  -17.9940   19.7020 C   0  0  0  0  0  0  0  0  0  0  0  0
  -27.4590  -16.6840   19.3270 N   0  0  0  0  0  0  0  0  0  0  0  0
  -26.2380  -18.5500   19.7760 O   0  0  0  0  0  0  0  0  0  0  0  0
  -28.4130  -16.3770   19.2100 H   0  0  0  0  0  0  0  0  0  0  0  0
  -29.1920  -17.9190   21.3500 C   0  0  0  0  0  2  0  0  0  0  0  0
  -30.5540  -18.4220   21.8470 C   0  0  0  0  0  2  0  0  0  0  0  0
  -29.9630  -20.7220   21.2080 C   0  0  0  0  0  2  0  0  0  0  0  0
  -28.6310  -18.7460   20.1680 C   0  0  0  0  0  3  0  0  0  0  0  0
  -28.5710  -20.2720   20.6370 C   0  0  0  0  0  3  0  0  0  0  0  0
  -30.4910  -19.8340   22.2550 N   0  0  0  0  0  4  0  0  0  0  0  0
  -31.4290  -20.1360   22.4740 H   0  0  0  0  0  0  0  0  0  0  0  0
  -29.9490  -19.9370   23.0980 H   0  0  0  0  0  0  0  0  0  0  0  0
  -28.2400  -21.2640   19.5930 N   0  0  0  0  0  0  0  0  0  0  0  0
  -29.0370  -21.3680   18.9670 H   0  0  0  0  0  0  0  0  0  0  0  0
  -27.8930  -22.5880   20.1520 C   0  0  0  0  0  2  0  0  0  0  0  0
  -28.3410  -23.7880   19.2680 C   0  0  0  0  0  2  0  0  0  0  0  0
  -27.6610  -25.1310   19.6820 C   0  0  0  0  0  2  0  0  0  0  0  0
  -27.9820  -26.4760   20.1070 O   0  0  0  0  0  0  0  0  0  0  0  0
  -24.4920  -31.8740   23.3270 C   0  0  0  0  0  0  0  0  0  0  0  0
  -26.8760  -27.3200   20.1360 C   0  0  0  0  0  0  0  0  0  0  0  0
  -23.2100  -30.5470   21.6910 C   0  0  0  0  0  3  0  0  0  0  0  0
  -24.5710  -28.9740   20.2190 C   0  0  0  0  0  0  0  0  0  0  0  0
  -25.7530  -30.7780   21.4660 C   0  0  0  0  0  2  0  0  0  0  0  0
  -25.7670  -29.4140   20.8050 C   0  0  0  0  0  0  0  0  0  0  0  0
  -26.9250  -28.5920   20.7630 C   0  0  0  0  0  3  0  0  0  0  0  0
  -25.6520  -26.9150   19.5450 C   0  0  0  0  0  3  0  0  0  0  0  0
  -24.5120  -27.7260   19.5880 C   0  0  0  0  0  3  0  0  0  0  0  0
  -23.3710  -29.8890   20.2980 C   0  0  0  0  0  2  0  0  0  0  0  0
  -24.5060  -31.0790   22.2200 N   0  0  0  0  0  0  0  0  0  0  0  0
  -23.4280  -32.1840   23.8810 O   0  0  0  0  0  0  0  0  0  0  0  0
  -22.5270  -29.5360   22.6420 C   0  0  0  0  0  0  0  0  0  0  0  0
  -21.1970  -29.3970   22.5170 N   0  0  0  0  0  0  0  0  0  0  0  0
  -23.1890  -28.8850   23.4550 O   0  0  0  0  0  0  0  0  0  0  0  0
  -20.7250  -29.9720   21.8330 H   0  0  0  0  0  0  0  0  0  0  0  0
  -17.8000  -28.2340   22.9550 C   0  0  0  0  0  0  0  0  0  0  0  0
  -20.3530  -28.4780   23.2820 C   0  0  0  0  0  3  0  0  0  0  0  0
  -20.4580  -27.0340   22.7350 C   0  0  0  0  0  2  0  0  0  0  0  0
  -19.3760  -26.7010   21.7020 C   0  0  0  0  0  2  0  0  0  0  0  0
  -17.9820  -26.8700   22.3110 C   0  0  0  0  0  2  0  0  0  0  0  0
  -18.9150  -28.9950   23.3980 C   0  0  0  0  0  0  0  0  0  0  0  0
  -18.6920  -30.2710   23.9590 C   0  0  0  0  0  3  0  0  0  0  0  0
  -17.3880  -30.7860   24.0850 C   0  0  0  0  0  3  0  0  0  0  0  0
  -16.2880  -30.0220   23.6580 C   0  0  0  0  0  3  0  0  0  0  0  0
  -16.4950  -28.7490   23.0980 C   0  0  0  0  0  3  0  0  0  0  0  0
  -25.8070  -32.4470   23.9370 C   0  0  0  0  0  3  0  0  0  0  0  0
  -26.3020  -31.6510   25.2050 C   0  0  1  0  0  0  0  0  0  0  0  0
  -25.2140  -31.4690   26.2920 C   0  0  0  0  0  1  0  0  0  0  0  0
  -26.8090  -30.2470   24.8040 C   0  0  0  0  0  1  0  0  0  0  0  0
  -27.5020  -32.3860   25.8480 C   0  0  0  0  0  1  0  0  0  0  0  0
  -25.5610  -33.8560   24.2730 N   0  0  0  0  0  0  0  0  0  0  0  0
  -25.9420  -34.8970   23.5210 C   0  0  0  0  0  0  0  0  0  0  0  0
  -26.6100  -34.7690   22.4920 O   0  0  0  0  0  0  0  0  0  0  0  0
  -24.9720  -34.0320   25.0740 H   0  0  0  0  0  0  0  0  0  0  0  0
  -24.2940  -36.7680   23.1730 C   0  0  0  0  0  1  0  0  0  0  0  0
  -25.5160  -36.3050   23.9830 C   0  0  0  0  0  3  0  0  0  0  0  0
  -27.6880  -37.0900   24.8180 C   0  0  0  0  0  1  0  0  0  0  0  0
  -26.5930  -37.3130   23.8770 N   0  0  0  0  0  0  0  0  0  0  0  0
  -26.2290  -38.2500   24.0290 H   0  0  0  0  0  0  0  0  0  0  0  0
  -25.9630  -13.2270   19.5720 C   0  0  0  0  0  0  0  0  0  0  0  0
  -26.3970  -15.7620   17.3530 C   0  0  0  0  0  2  0  0  0  0  0  0
  -26.0640  -14.2820   17.3690 C   0  0  0  0  0  2  0  0  0  0  0  0
  -26.4080  -15.7130   18.8880 C   0  0  0  0  0  3  0  0  0  0  0  0
  -26.6010  -14.2200   18.7400 N   0  0  0  0  0  0  0  0  0  0  0  0
  -24.7370  -13.2420   19.7010 O   0  0  0  0  0  0  0  0  0  0  0  0
  -26.8160  -12.0670   20.3890 C   0  0  0  0  0  3  0  0  0  0  0  0
  -29.2310  -12.5450   22.5770 N   0  0  0  0  0  0  0  0  0  0  0  0
  -28.7690  -12.6360   23.4710 H   0  0  0  0  0  0  0  0  0  0  0  0
  -29.6990  -11.6470   22.5760 H   0  0  0  0  0  0  0  0  0  0  0  0
  -30.3090  -13.7230   22.5880 C   0  0  0  0  0  2  0  0  0  0  0  0
  -31.9450  -13.6850   22.3210 C   0  0  0  0  0  2  0  0  0  0  0  0
  -33.4000  -13.2810   20.0880 C   0  0  0  0  0  0  0  0  0  0  0  0
  -33.1200  -11.1680   18.7350 C   0  0  0  0  0  2  0  0  0  0  0  0
  -31.9650  -11.3150   17.6760 C   0  0  0  0  0  2  0  0  0  0  0  0
  -30.5390  -11.5190   18.2320 C   0  0  0  0  0  2  0  0  0  0  0  0
  -30.6660  -12.4730   19.4210 C   0  0  0  0  0  3  0  0  0  0  0  0
  -31.5850  -11.7090   20.3690 C   0  0  0  0  0  2  0  0  0  0  0  0
  -32.8900  -12.0440   19.9030 N   0  0  0  0  0  0  0  0  0  0  0  0
  -34.3120  -13.6900   19.3450 O   0  0  0  0  0  0  0  0  0  0  0  0
  -32.6880  -14.0440   21.0150 N   0  0  0  0  0  0  0  0  0  0  0  0
  -32.9680  -15.0100   20.9750 H   0  0  0  0  0  0  0  0  0  0  0  0
  -28.5750  -13.9080   21.0760 C   0  0  0  0  0  3  0  0  0  0  0  0
  -27.1660  -13.1690   21.6190 C   0  0  0  0  0  3  0  0  0  0  0  0
  -27.1180  -11.4880   21.0910 C   0  0  0  0  0  3  0  0  0  0  0  0
  -29.5030  -12.6190   20.1010 N   0  0  0  0  0  0  0  0  0  0  0  0
  -28.5120  -11.1200   20.1890 N   0  0  0  0  0  2  0  0  0  0  0  0
  -26.1080  -10.4950   21.1890 C   0  0  0  0  0  0  0  0  0  0  0  0
  -26.3210   -9.3980   22.0340 C   0  0  0  0  0  3  0  0  0  0  0  0
  -25.3250   -8.4170   22.1430 C   0  0  0  0  0  3  0  0  0  0  0  0
  -24.1310   -8.5450   21.4000 C   0  0  0  0  0  0  0  0  0  0  0  0
  -23.9540   -9.6300   20.5250 C   0  0  0  0  0  3  0  0  0  0  0  0
  -24.9410  -10.6150   20.4190 C   0  0  0  0  0  3  0  0  0  0  0  0
  -23.1090   -7.6420   21.4420 O   0  0  0  0  0  0  0  0  0  0  0  0
  -22.7660   -7.0290   22.6170 C   0  0  0  0  0  0  0  0  0  0  0  0
  -22.3020   -7.7540   23.7360 C   0  0  0  0  0  3  0  0  0  0  0  0
  -21.8920   -7.0670   24.8930 C   0  0  0  0  0  3  0  0  0  0  0  0
  -21.9340   -5.6600   24.9310 C   0  0  0  0  0  0  0  0  0  0  0  0
  -22.3990   -4.9400   23.8170 C   0  0  0  0  0  3  0  0  0  0  0  0
  -22.8170   -5.6260   22.6620 C   0  0  0  0  0  0  0  0  0  0  0  0
  -23.2480   -4.9280   21.5830 F   0  0  0  0  0  0  0  0  0  0  0  0
  -21.5150   -5.0020   26.0350 F   0  0  0  0  0  0  0  0  0  0  0  0
  -25.9630  -13.8730   22.1030 C   0  0  0  0  0  0  0  0  0  0  0  0
  -25.0730  -13.1420   22.7480 N   0  0  0  0  0  0  0  0  0  0  0  0
  -25.8200  -15.0700   21.8810 O   0  0  0  0  0  0  0  0  0  0  0  0
  -25.2370  -12.1780   22.9950 H   0  0  0  0  0  0  0  0  0  0  0  0
  -24.2190  -13.5900   23.0540 H   0  0  0  0  0  0  0  0  0  0  0  0
  -29.0450  -15.1560   21.2500 N   0  0  0  0  0  0  0  0  0  0  0  0
  -28.5250  -15.8560   21.7760 H   0  0  0  0  0  0  0  0  0  0  0  0
  -29.7860  -15.5450   20.6830 H   0  0  0  0  0  0  0  0  0  0  0  0
  1  3  2  0
  2  1  1  0
  4  2  1  0
  5  6  1  0
  6 10  1  0
  7 10  1  0
  8  1  1  0
  8  9  1  0
  8  5  1  0
  9 13  1  0
  9  7  1  0
 10 11  1  0
 10 12  1  0
 13 15  1  0
 14 13  1  0
 16 17  1  0
 16 15  1  0
 17 18  1  0
 18 20  1  0
 19 30  2  0
 20 25  1  0
 21 29  1  0
 21 31  1  0
 22 28  1  0
 22 24  1  0
 23 29  1  0
 24 23  1  0
 25 24  2  0
 26 27  1  0
 26 20  2  0
 27 22  2  0
 28 21  1  0
 29 19  1  0
 31 33  2  0
 32 31  1  0
 34 32  1  0
 35 44  2  0
 35 40  1  0
 36 32  1  0
 36 40  1  0
 37 36  1  0
 38 39  1  0
 38 37  1  0
 39 35  1  0
 40 41  2  0
 41 42  1  0
 43 42  2  0
 44 43  1  0
 45 19  1  0
 45 50  1  0
 45 46  1  0
 46 49  1  1
 46 47  1  0
 48 46  1  0
 50 53  1  0
 51 55  1  0
 51 50  1  0
 52 51  2  0
 55 54  1  0
 57 55  1  0
 57 58  1  0
 57 56  1  0
 59 64  2  0
 60 61  1  0
 60 62  1  0
 61 63  1  0
 62  2  1  0
 63 62  1  0
 63 59  1  0
 65 59  1  0
 65 83  1  0
 65 82  1  0
 66 69  1  0
 66 67  1  0
 68 66  1  0
 70 69  1  0
 71 79  1  0
 72 77  1  0
 73 74  1  0
 73 72  1  0
 75 74  1  0
 75 84  1  0
 75 76  1  0
 77 71  1  0
 77 76  1  0
 78 71  2  0
 79 70  1  0
 80 79  1  0
 81106  1  0
 81 82  1  0
 82101  1  0
 83 86  1  0
 84 85  1  0
 84 81  1  0
 85 83  1  0
 86 87  1  0
 87 88  2  0
 89 92  1  0
 89 88  1  0
 90 89  2  0
 91 90  1  0
 91 86  2  0
 92 93  1  0
 93 98  2  0
 93 94  1  0
 94 95  2  0
 95 96  1  0
 96100  1  0
 97 96  2  0
 98 97  1  0
 99 98  1  0
101102  1  0
102104  1  0
102105  1  0
103101  2  0
106107  1  0
108106  1  0
M  ISO  4  17 101  18 101  71 100  79 100
M  END
>  <TORSDO>  (52) 
F 26

>  <SCORE>  (52) 
6.792

>  <name>  (52) 
54

>  <ligand_id>  (52) 
54

>  <original_smiles>  (52) 
[H]c1c([H])c([H])c2c(c1[H])C([H])([H])C([H])([H])C([H])([H])C2([H])N([H])C(=O)C1([H])N(C(=O)C([H])(N([H])C(=O)C([H])(N([H])C([H])([H])[H])C([H])([H])[H])C(C([H])([H])[H])(C([H])([H])[H])C([H])([H])[H])C([H])([H])c2c([H])c(OC([H])([H])C([H])([H])C([H])([H])N([H])C3([H])C([H])(C(=O)N([H])C4([H])N(C(=O)C([H])([H])[N+]([H])([H])C([H])([H])C([H])([H])N([H])C(=O)N5C([H])([H])C([H])([H])C([H])([H])C([H])(n6nc(-c7c([H])c([H])c(Oc8c([H])c([H])c(F)c([H])c8F)c([H])c7[H])c(C(=O)N([H])[H])c6N([H])[H])C5([H])[H])C([H])([H])C4([H])[H])C([H])([H])C([H])([H])[N+]([H])([H])C3([H])[H])c([H])c([H])c2C1([H])[H]

>  <smiles>  (52) 
[H]c1c([H])c([H])c2c(c1[H])C([H])([H])C([H])([H])C([H])([H])C2([H])N([H])C(=O)C1([H])N(C(=O)C([H])(N([H])C(=O)C([H])(N([H])C([H])([H])[H])C([H])([H])[H])C(C([H])([H])[H])(C([H])([H])[H])C([H])([H])[H])C([H])([H])c2c([H])c(OC([H])([H])C([H])([H])C([H])([H])N([H])C3([H])C([H])(C(=O)N([H])C4([H])N(C(=O)C([H])([H])[N+]([H])([H])C([H])([H])C([H])([H])N([H])C(=O)N5C([H])([H])C([H])([H])C([H])([H])C([H])(n6nc(-c7c([H])c([H])c(Oc8c([H])c([H])c(F)c([H])c8F)c([H])c7[H])c(C(=O)N([H])[H])c6N([H])[H])C5([H])[H])C([H])([H])C4([H])[H])C([H])([H])C([H])([H])[N+]([H])([H])C3([H])[H])c([H])c([H])c2C1([H])[H]

$$$$
55:0:0
     RDKit          3D

106114  0  0  1  0  0  0  0  0999 V2000
  -21.8050  -22.9400   16.6450 C   0  0  0  0  0  2  0  0  0  0  0  0
  -22.4030  -22.3050   15.3760 C   0  0  0  0  0  2  0  0  0  0  0  0
  -22.8300  -20.9740   15.6490 O   0  0  0  0  0  0  0  0  0  0  0  0
  -24.2030  -20.9020   15.9960 C   0  0  0  0  0  2  0  0  0  0  0  0
  -24.4190  -19.7300   16.9660 C   0  0  0  0  0  2  0  0  0  0  0  0
  -26.0090  -18.2530   18.0570 C   0  0  0  0  0  2  0  0  0  0  0  0
  -26.1910  -20.6070   18.3870 C   0  0  0  0  0  2  0  0  0  0  0  0
  -27.4600  -18.0440   18.5510 C   0  0  0  0  0  2  0  0  0  0  0  0
  -27.6550  -20.4590   18.8270 C   0  0  0  0  0  2  0  0  0  0  0  0
  -25.8050  -19.5650   17.4290 N   0  0  0  0  0  0  0  0  0  0  0  0
  -27.8600  -19.1410   19.4780 N   0  0  2  0  0  4  0  0  0  0  0  0
  -27.2230  -19.1150   20.2600 H   0  0  0  0  0  0  0  0  0  0  0  0
  -29.2400  -19.0200   20.0120 C   0  0  0  0  0  2  0  0  0  0  0  0
  -29.3990  -17.9280   21.0830 C   0  0  0  0  0  2  0  0  0  0  0  0
  -30.8800  -17.7410   21.4710 C   0  0  0  0  0  2  0  0  0  0  0  0
  -31.1550  -16.5360   22.3900 C   0  0  0  0  0  2  0  0  0  0  0  0
  -30.9680  -14.6630   20.7550 C   0  0  0  0  0  0  0  0  0  0  0  0
  -30.6140  -12.6690   19.3550 C   0  0  0  0  0  2  0  0  0  0  0  0
  -29.7010  -12.9550   18.1510 C   0  0  0  0  0  2  0  0  0  0  0  0
  -28.2230  -12.7850   18.5410 C   0  0  0  0  0  2  0  0  0  0  0  0
  -27.8560  -13.5670   19.8290 C   0  0  0  0  0  3  0  0  0  0  0  0
  -28.8740  -13.2740   20.9540 C   0  0  0  0  0  2  0  0  0  0  0  0
  -30.2350  -13.5640   20.4550 N   0  0  0  0  0  0  0  0  0  0  0  0
  -31.9520  -15.0300   20.1030 O   0  0  0  0  0  0  0  0  0  0  0  0
  -30.5860  -15.2970   21.8680 N   0  0  0  0  0  0  0  0  0  0  0  0
  -29.8250  -14.8820   22.3850 H   0  0  0  0  0  0  0  0  0  0  0  0
  -25.4220  -14.1430   20.4510 C   0  0  0  0  0  0  0  0  0  0  0  0
  -24.3510  -13.3580   20.7680 C   0  0  0  0  0  0  0  0  0  0  0  0
  -24.8300  -12.0100   20.7490 C   0  0  0  0  0  0  0  0  0  0  0  0
  -26.4880  -13.2780   20.2530 N   0  0  0  0  0  0  0  0  0  0  0  0
  -26.1310  -11.9890   20.4890 N   0  0  0  0  0  0  0  0  0  0  0  0
  -24.1170  -10.7380   20.9110 C   0  0  0  0  0  0  0  0  0  0  0  0
  -24.5320   -9.7720   21.8550 C   0  0  0  0  0  3  0  0  0  0  0  0
  -23.8190   -8.5630   22.0020 C   0  0  0  0  0  3  0  0  0  0  0  0
  -22.6770   -8.3110   21.2060 C   0  0  0  0  0  0  0  0  0  0  0  0
  -22.2810   -9.2660   20.2520 C   0  0  0  0  0  3  0  0  0  0  0  0
  -22.9950  -10.4660   20.1030 C   0  0  0  0  0  3  0  0  0  0  0  0
  -21.9390   -7.1540   21.2610 O   0  0  0  0  0  0  0  0  0  0  0  0
  -21.8220   -6.4300   22.4200 C   0  0  0  0  0  0  0  0  0  0  0  0
  -21.3470   -7.0080   23.6180 C   0  0  0  0  0  3  0  0  0  0  0  0
  -21.1780   -6.2090   24.7660 C   0  0  0  0  0  3  0  0  0  0  0  0
  -21.4730   -4.8340   24.7180 C   0  0  0  0  0  0  0  0  0  0  0  0
  -21.9410   -4.2550   23.5250 C   0  0  0  0  0  3  0  0  0  0  0  0
  -22.1120   -5.0510   22.3780 C   0  0  0  0  0  0  0  0  0  0  0  0
  -22.5430   -4.4840   21.2260 F   0  0  0  0  0  0  0  0  0  0  0  0
  -21.3030   -4.0650   25.8190 F   0  0  0  0  0  0  0  0  0  0  0  0
  -22.9380  -13.8120   20.9980 C   0  0  0  0  0  0  0  0  0  0  0  0
  -22.2010  -13.1200   21.8570 N   0  0  0  0  0  0  0  0  0  0  0  0
  -22.4960  -14.8240   20.4510 O   0  0  0  0  0  0  0  0  0  0  0  0
  -22.5690  -12.3020   22.3220 H   0  0  0  0  0  0  0  0  0  0  0  0
  -21.2530  -13.4090   22.0540 H   0  0  0  0  0  0  0  0  0  0  0  0
  -25.5860  -15.5190   20.3110 N   0  0  0  0  0  0  0  0  0  0  0  0
  -24.8320  -16.1480   20.5640 H   0  0  0  0  0  0  0  0  0  0  0  0
  -26.4990  -15.9390   20.3850 H   0  0  0  0  0  0  0  0  0  0  0  0
  -22.7060  -23.0770   17.7570 O   0  0  0  0  0  0  0  0  0  0  0  0
  -22.1020  -23.8970   18.7670 C   0  0  0  0  0  2  0  0  0  0  0  0
  -22.8400  -23.8640   20.1230 C   0  0  0  0  0  0  0  0  0  0  0  0
  -24.1680  -23.6710   20.1760 N   0  0  0  0  0  0  0  0  0  0  0  0
  -22.1760  -24.0330   21.1510 O   0  0  0  0  0  0  0  0  0  0  0  0
  -24.6480  -23.4720   19.3100 H   0  0  0  0  0  0  0  0  0  0  0  0
  -24.9310  -23.6460   21.4390 C   0  0  0  0  0  2  0  0  0  0  0  0
  -26.3630  -23.0860   21.2820 C   0  0  0  0  0  2  0  0  0  0  0  0
  -27.4320  -24.0300   21.3800 O   0  0  0  0  0  0  0  0  0  0  0  0
  -27.3890  -25.0420   20.3850 C   0  0  0  0  0  2  0  0  0  0  0  0
  -28.6200  -25.9850   20.4050 C   0  0  0  0  0  2  0  0  0  0  0  0
  -28.5380  -27.1260   19.5300 O   0  0  0  0  0  0  0  0  0  0  0  0
  -24.5920  -31.7620   23.2340 C   0  0  0  0  0  0  0  0  0  0  0  0
  -27.3730  -27.8470   19.6210 C   0  0  0  0  0  0  0  0  0  0  0  0
  -23.4190  -30.4750   21.4800 C   0  0  0  0  0  3  0  0  0  0  0  0
  -24.9160  -29.1980   19.8640 C   0  0  0  0  0  0  0  0  0  0  0  0
  -25.9200  -30.9930   21.2790 C   0  0  0  0  0  2  0  0  0  0  0  0
  -26.0590  -29.7110   20.4890 C   0  0  0  0  0  0  0  0  0  0  0  0
  -27.2960  -29.0390   20.3730 C   0  0  0  0  0  3  0  0  0  0  0  0
  -26.2220  -27.3820   18.9510 C   0  0  0  0  0  3  0  0  0  0  0  0
  -24.9850  -28.0300   19.0930 C   0  0  0  0  0  3  0  0  0  0  0  0
  -23.6320  -29.9670   20.0310 C   0  0  0  0  0  2  0  0  0  0  0  0
  -24.6630  -31.0790   22.0580 N   0  0  0  0  0  0  0  0  0  0  0  0
  -23.5090  -31.9240   23.8140 O   0  0  0  0  0  0  0  0  0  0  0  0
  -22.8460  -29.3230   22.3370 C   0  0  0  0  0  0  0  0  0  0  0  0
  -21.5370  -29.0540   22.1920 N   0  0  0  0  0  0  0  0  0  0  0  0
  -23.5750  -28.6770   23.0950 O   0  0  0  0  0  0  0  0  0  0  0  0
  -21.0090  -29.6120   21.5350 H   0  0  0  0  0  0  0  0  0  0  0  0
  -18.2650  -27.5820   22.5640 C   0  0  0  0  0  0  0  0  0  0  0  0
  -20.7930  -27.9930   22.8710 C   0  0  0  0  0  3  0  0  0  0  0  0
  -20.9990  -26.6370   22.1510 C   0  0  0  0  0  2  0  0  0  0  0  0
  -19.9120  -26.3540   21.1080 C   0  0  0  0  0  2  0  0  0  0  0  0
  -18.5440  -26.3030   21.7890 C   0  0  0  0  0  2  0  0  0  0  0  0
  -19.3240  -28.3860   23.0620 C   0  0  0  0  0  0  0  0  0  0  0  0
  -19.0170  -29.5890   23.7360 C   0  0  0  0  0  3  0  0  0  0  0  0
  -17.6750  -29.9740   23.9430 C   0  0  0  0  0  3  0  0  0  0  0  0
  -16.6330  -29.1560   23.4690 C   0  0  0  0  0  3  0  0  0  0  0  0
  -16.9280  -27.9720   22.7710 C   0  0  0  0  0  3  0  0  0  0  0  0
  -25.8560  -32.3970   23.8940 C   0  0  0  0  0  3  0  0  0  0  0  0
  -25.5180  -33.7780   24.2620 N   0  0  0  0  0  0  0  0  0  0  0  0
  -25.8310  -34.8580   23.5330 C   0  0  0  0  0  0  0  0  0  0  0  0
  -26.5050  -34.7980   22.5000 O   0  0  0  0  0  0  0  0  0  0  0  0
  -24.9220  -33.9030   25.0680 H   0  0  0  0  0  0  0  0  0  0  0  0
  -24.0650  -36.6170   23.2210 C   0  0  0  0  0  1  0  0  0  0  0  0
  -25.3130  -36.2220   24.0240 C   0  0  0  0  0  3  0  0  0  0  0  0
  -27.4280  -37.1260   24.8810 C   0  0  0  0  0  1  0  0  0  0  0  0
  -26.3230  -37.2970   23.9430 N   0  0  0  0  0  0  0  0  0  0  0  0
  -25.8970  -38.2020   24.1250 H   0  0  0  0  0  0  0  0  0  0  0  0
  -26.3810  -31.5870   25.1440 C   0  0  1  0  0  0  0  0  0  0  0  0
  -25.2880  -31.2810   26.1920 C   0  0  0  0  0  1  0  0  0  0  0  0
  -26.9910  -30.2360   24.7040 C   0  0  0  0  0  1  0  0  0  0  0  0
  -27.5140  -32.3740   25.8410 C   0  0  0  0  0  1  0  0  0  0  0  0
  1 55  1  0
  2  3  1  0
  2  1  1  0
  3  4  1  0
  4  5  1  0
  5 10  1  0
  6  8  1  0
  7  9  1  0
  8 11  1  0
  9 11  1  0
 10  6  1  0
 10  7  1  0
 11 13  1  0
 11 12  1  1
 13 14  1  0
 14 15  1  0
 15 16  1  0
 17 25  1  0
 18 23  1  0
 19 20  1  0
 19 18  1  0
 21 20  1  0
 21 30  1  0
 21 22  1  0
 23 17  1  0
 23 22  1  0
 24 17  2  0
 25 26  1  0
 25 16  1  0
 27 28  2  0
 28 47  1  0
 29 28  1  0
 29 32  1  0
 30 27  1  0
 30 31  1  0
 31 29  2  0
 32 33  1  0
 33 34  2  0
 35 38  1  0
 35 34  1  0
 36 35  2  0
 37 36  1  0
 37 32  2  0
 38 39  1  0
 39 40  1  0
 40 41  2  0
 42 41  1  0
 42 46  1  0
 43 42  2  0
 44 39  2  0
 44 43  1  0
 45 44  1  0
 47 48  1  0
 48 51  1  0
 48 50  1  0
 49 47  2  0
 52 54  1  0
 52 27  1  0
 52 53  1  0
 55 56  1  0
 56 57  1  0
 57 58  1  0
 57 59  2  0
 58 61  1  0
 60 58  1  0
 62 63  1  0
 62 61  1  0
 64 65  1  0
 64 63  1  0
 66 68  1  0
 66 65  1  0
 67 78  2  0
 68 73  1  0
 69 77  1  0
 69 79  1  0
 70 76  1  0
 70 72  1  0
 71 77  1  0
 72 71  1  0
 73 72  2  0
 74 75  1  0
 74 68  2  0
 75 70  2  0
 76 69  1  0
 77 67  1  0
 79 81  2  0
 80 79  1  0
 82 80  1  0
 83 92  2  0
 83 88  1  0
 84 80  1  0
 84 88  1  0
 85 84  1  0
 86 87  1  0
 86 85  1  0
 87 83  1  0
 88 89  2  0
 89 90  1  0
 91 90  2  0
 92 91  1  0
 93 67  1  0
 93 94  1  0
 93103  1  0
 94 97  1  0
 95 99  1  0
 95 94  1  0
 96 95  2  0
 99 98  1  0
101 99  1  0
101102  1  0
101100  1  0
103106  1  1
103104  1  0
105103  1  0
M  ISO  4  17 100  25 100  65 101  66 101
M  END
>  <TORSDO>  (53) 
F 33

>  <SCORE>  (53) 
-7.657

>  <name>  (53) 
55

>  <ligand_id>  (53) 
55

>  <original_smiles>  (53) 
[H]c1c([H])c([H])c2c(c1[H])C([H])([H])C([H])([H])C([H])([H])C2([H])N([H])C(=O)C1([H])N(C(=O)C([H])(N([H])C(=O)C([H])(N([H])C([H])([H])[H])C([H])([H])[H])C(C([H])([H])[H])(C([H])([H])[H])C([H])([H])[H])C([H])([H])c2c([H])c(OC([H])([H])C([H])([H])OC([H])([H])C([H])([H])N([H])C(=O)C([H])([H])OC([H])([H])C([H])([H])OC([H])([H])C([H])([H])N3C([H])([H])C([H])([H])[N+]([H])(C([H])([H])C([H])([H])C([H])([H])C([H])([H])N([H])C(=O)N4C([H])([H])C([H])([H])C([H])([H])C([H])(n5nc(-c6c([H])c([H])c(Oc7c([H])c([H])c(F)c([H])c7F)c([H])c6[H])c(C(=O)N([H])[H])c5N([H])[H])C4([H])[H])C([H])([H])C3([H])[H])c([H])c([H])c2C1([H])[H]

>  <smiles>  (53) 
[H]c1c([H])c([H])c2c(c1[H])C([H])([H])C([H])([H])C([H])([H])C2([H])N([H])C(=O)C1([H])N(C(=O)C([H])(N([H])C(=O)C([H])(N([H])C([H])([H])[H])C([H])([H])[H])C(C([H])([H])[H])(C([H])([H])[H])C([H])([H])[H])C([H])([H])c2c([H])c(OC([H])([H])C([H])([H])OC([H])([H])C([H])([H])N([H])C(=O)C([H])([H])OC([H])([H])C([H])([H])OC([H])([H])C([H])([H])N3C([H])([H])C([H])([H])[N+]([H])(C([H])([H])C([H])([H])C([H])([H])C([H])([H])N([H])C(=O)N4C([H])([H])C([H])([H])C([H])([H])C([H])(n5nc(-c6c([H])c([H])c(Oc7c([H])c([H])c(F)c([H])c7F)c([H])c6[H])c(C(=O)N([H])[H])c5N([H])[H])C4([H])[H])C([H])([H])C3([H])[H])c([H])c([H])c2C1([H])[H]

$$$$
56:0:0
     RDKit          3D

110118  0  0  1  0  0  0  0  0999 V2000
  -29.7590  -16.1540   17.9480 C   0  0  0  0  0  2  0  0  0  0  0  0
  -29.6800  -17.6610   17.7330 C   0  0  0  0  0  2  0  0  0  0  0  0
  -29.2370  -17.1850   20.0600 C   0  0  0  0  0  3  0  0  0  0  0  0
  -30.0630  -16.0350   19.4430 C   0  0  0  0  0  3  0  0  0  0  0  0
  -29.1810  -18.2340   19.0070 N   0  0  2  0  0  4  0  0  0  0  0  0
  -29.8640  -18.9260   19.3060 H   0  0  0  0  0  0  0  0  0  0  0  0
  -30.3800  -13.6040   19.4850 C   0  0  0  0  0  0  0  0  0  0  0  0
  -29.5040  -11.9920   17.8820 C   0  0  0  0  0  2  0  0  0  0  0  0
  -28.4440  -12.7360   17.0410 C   0  0  0  0  0  2  0  0  0  0  0  0
  -27.0620  -12.6650   17.7190 C   0  0  0  0  0  2  0  0  0  0  0  0
  -27.0990  -13.0340   19.2270 C   0  0  0  0  0  3  0  0  0  0  0  0
  -28.2680  -12.3240   19.9550 C   0  0  0  0  0  2  0  0  0  0  0  0
  -29.5110  -12.6010   19.2160 N   0  0  0  0  0  0  0  0  0  0  0  0
  -31.4970  -13.7030   18.9760 O   0  0  0  0  0  0  0  0  0  0  0  0
  -29.7750  -14.6920   19.9760 N   0  0  0  0  0  0  0  0  0  0  0  0
  -28.8530  -14.5280   20.3520 H   0  0  0  0  0  0  0  0  0  0  0  0
  -24.8100  -13.6570   20.2230 C   0  0  0  0  0  0  0  0  0  0  0  0
  -23.7970  -12.8920   20.7330 C   0  0  0  0  0  0  0  0  0  0  0  0
  -24.2510  -11.5390   20.6630 C   0  0  0  0  0  0  0  0  0  0  0  0
  -25.8180  -12.7700   19.8740 N   0  0  0  0  0  0  0  0  0  0  0  0
  -25.4910  -11.4930   20.1970 N   0  0  0  0  0  0  0  0  0  0  0  0
  -23.5560  -10.2800   20.9570 C   0  0  0  0  0  0  0  0  0  0  0  0
  -24.0930   -9.3340   21.8580 C   0  0  0  0  0  3  0  0  0  0  0  0
  -23.3980   -8.1380   22.1380 C   0  0  0  0  0  3  0  0  0  0  0  0
  -22.1530   -7.8800   21.5150 C   0  0  0  0  0  0  0  0  0  0  0  0
  -21.6350   -8.8140   20.6000 C   0  0  0  0  0  3  0  0  0  0  0  0
  -22.3300  -10.0020   20.3200 C   0  0  0  0  0  3  0  0  0  0  0  0
  -21.4190   -6.7350   21.7080 O   0  0  0  0  0  0  0  0  0  0  0  0
  -21.4960   -6.0180   22.8750 C   0  0  0  0  0  0  0  0  0  0  0  0
  -21.1640   -6.5870   24.1240 C   0  0  0  0  0  3  0  0  0  0  0  0
  -21.1930   -5.7960   25.2880 C   0  0  0  0  0  3  0  0  0  0  0  0
  -21.5400   -4.4340   25.2060 C   0  0  0  0  0  0  0  0  0  0  0  0
  -21.8640   -3.8620   23.9630 C   0  0  0  0  0  3  0  0  0  0  0  0
  -21.8390   -4.6530   22.8010 C   0  0  0  0  0  0  0  0  0  0  0  0
  -22.1320   -4.0940   21.6020 F   0  0  0  0  0  0  0  0  0  0  0  0
  -21.5590   -3.6690   26.3230 F   0  0  0  0  0  0  0  0  0  0  0  0
  -22.4450  -13.3750   21.1720 C   0  0  0  0  0  0  0  0  0  0  0  0
  -21.8410  -12.7010   22.1450 N   0  0  0  0  0  0  0  0  0  0  0  0
  -21.9350  -14.3830   20.6830 O   0  0  0  0  0  0  0  0  0  0  0  0
  -22.2720  -11.8860   22.5570 H   0  0  0  0  0  0  0  0  0  0  0  0
  -20.9400  -13.0040   22.4840 H   0  0  0  0  0  0  0  0  0  0  0  0
  -24.9490  -15.0230   20.0020 N   0  0  0  0  0  0  0  0  0  0  0  0
  -24.1830  -15.6670   20.1710 H   0  0  0  0  0  0  0  0  0  0  0  0
  -25.7180  -15.4470   19.5030 H   0  0  0  0  0  0  0  0  0  0  0  0
  -29.9180  -17.7460   21.3190 C   0  0  0  0  0  0  0  0  0  0  0  0
  -29.8270  -17.0330   22.4470 N   0  0  0  0  0  0  0  0  0  0  0  0
  -30.5260  -18.8180   21.2540 O   0  0  0  0  0  0  0  0  0  0  0  0
  -29.3330  -16.1500   22.4180 H   0  0  0  0  0  0  0  0  0  0  0  0
  -30.4810  -17.3480   23.7120 C   0  0  0  0  0  2  0  0  0  0  0  0
  -31.7430  -16.4920   23.8770 C   0  0  0  0  0  2  0  0  0  0  0  0
  -31.5210  -15.2590   23.2080 O   0  0  0  0  0  0  0  0  0  0  0  0
  -32.7070  -14.4970   23.0250 C   0  0  0  0  0  2  0  0  0  0  0  0
  -32.4310  -13.4410   21.9490 C   0  0  0  0  0  2  0  0  0  0  0  0
  -31.8050  -12.3200   22.5590 O   0  0  0  0  0  0  0  0  0  0  0  0
  -31.4540  -11.3070   21.6250 C   0  0  0  0  0  2  0  0  0  0  0  0
  -30.8670  -10.1070   22.3800 C   0  0  0  0  0  2  0  0  0  0  0  0
  -29.0270   -9.4070   23.6840 C   0  0  0  0  0  1  0  0  0  0  0  0
  -29.6000  -10.4590   22.9220 O   0  0  0  0  0  0  0  0  0  0  0  0
  -27.8960  -18.9770   18.8850 C   0  0  0  0  0  2  0  0  0  0  0  0
  -28.0450  -20.3780   19.4800 C   0  0  0  0  0  2  0  0  0  0  0  0
  -29.1220  -20.9690   18.7660 O   0  0  0  0  0  0  0  0  0  0  0  0
  -29.5210  -22.2160   19.3100 C   0  0  0  0  0  2  0  0  0  0  0  0
  -30.6810  -22.7770   18.4800 C   0  0  0  0  0  2  0  0  0  0  0  0
  -31.2990  -23.7910   19.2460 O   0  0  0  0  0  0  0  0  0  0  0  0
  -32.3290  -24.4810   18.5590 C   0  0  0  0  0  2  0  0  0  0  0  0
  -32.8200  -25.6350   19.4430 C   0  0  0  0  0  2  0  0  0  0  0  0
  -31.7510  -26.5450   19.6860 O   0  0  0  0  0  0  0  0  0  0  0  0
  -31.0840  -26.3150   20.9250 C   0  0  0  0  0  2  0  0  0  0  0  0
  -29.8450  -27.2110   21.0230 C   0  0  0  0  0  2  0  0  0  0  0  0
  -28.7180  -26.6340   20.3590 O   0  0  0  0  0  0  0  0  0  0  0  0
  -24.6960  -31.7880   23.2440 C   0  0  0  0  0  0  0  0  0  0  0  0
  -27.5430  -27.3590   20.3690 C   0  0  0  0  0  0  0  0  0  0  0  0
  -23.5620  -30.3220   21.5970 C   0  0  0  0  0  3  0  0  0  0  0  0
  -25.0860  -28.7680   20.2680 C   0  0  0  0  0  0  0  0  0  0  0  0
  -26.0760  -30.7340   21.4650 C   0  0  0  0  0  2  0  0  0  0  0  0
  -26.2050  -29.3470   20.8780 C   0  0  0  0  0  0  0  0  0  0  0  0
  -27.4260  -28.6520   20.9350 C   0  0  0  0  0  3  0  0  0  0  0  0
  -26.4040  -26.7810   19.7660 C   0  0  0  0  0  3  0  0  0  0  0  0
  -25.1780  -27.4770   19.7150 C   0  0  0  0  0  3  0  0  0  0  0  0
  -23.8250  -29.6010   20.2460 C   0  0  0  0  0  2  0  0  0  0  0  0
  -24.7930  -30.9650   22.1620 N   0  0  0  0  0  0  0  0  0  0  0  0
  -23.5960  -32.0550   23.7470 O   0  0  0  0  0  0  0  0  0  0  0  0
  -22.8970  -29.3190   22.5650 C   0  0  0  0  0  0  0  0  0  0  0  0
  -21.5760  -29.1300   22.4120 N   0  0  0  0  0  0  0  0  0  0  0  0
  -23.5650  -28.7100   23.4050 O   0  0  0  0  0  0  0  0  0  0  0  0
  -21.1000  -29.6660   21.7000 H   0  0  0  0  0  0  0  0  0  0  0  0
  -18.1850  -27.9920   22.9010 C   0  0  0  0  0  0  0  0  0  0  0  0
  -20.7460  -28.2050   23.1820 C   0  0  0  0  0  3  0  0  0  0  0  0
  -20.8260  -26.7720   22.6060 C   0  0  0  0  0  2  0  0  0  0  0  0
  -19.7230  -26.4680   21.5890 C   0  0  0  0  0  2  0  0  0  0  0  0
  -18.3420  -26.6390   22.2270 C   0  0  0  0  0  2  0  0  0  0  0  0
  -19.3140  -28.7340   23.3350 C   0  0  0  0  0  0  0  0  0  0  0  0
  -19.1130  -30.0050   23.9190 C   0  0  0  0  0  3  0  0  0  0  0  0
  -17.8160  -30.5280   24.0790 C   0  0  0  0  0  3  0  0  0  0  0  0
  -16.7010  -29.7810   23.6640 C   0  0  0  0  0  3  0  0  0  0  0  0
  -16.8860  -28.5150   23.0790 C   0  0  0  0  0  3  0  0  0  0  0  0
  -25.9570  -32.4500   23.8870 C   0  0  0  0  0  3  0  0  0  0  0  0
  -26.5050  -31.6600   25.1380 C   0  0  1  0  0  0  0  0  0  0  0  0
  -25.4170  -31.3220   26.1830 C   0  0  0  0  0  1  0  0  0  0  0  0
  -27.1670  -30.3330   24.6990 C   0  0  0  0  0  1  0  0  0  0  0  0
  -27.6060  -32.4850   25.8450 C   0  0  0  0  0  1  0  0  0  0  0  0
  -25.5960  -33.8230   24.2560 N   0  0  0  0  0  0  0  0  0  0  0  0
  -25.8960  -34.9080   23.5300 C   0  0  0  0  0  0  0  0  0  0  0  0
  -26.5780  -34.8580   22.5020 O   0  0  0  0  0  0  0  0  0  0  0  0
  -24.9960  -33.9320   25.0600 H   0  0  0  0  0  0  0  0  0  0  0  0
  -24.0980  -36.6350   23.2040 C   0  0  0  0  0  1  0  0  0  0  0  0
  -25.3500  -36.2630   24.0160 C   0  0  0  0  0  3  0  0  0  0  0  0
  -27.4430  -37.2080   24.8820 C   0  0  0  0  0  1  0  0  0  0  0  0
  -26.3390  -37.3610   23.9400 N   0  0  0  0  0  0  0  0  0  0  0  0
  -25.8950  -38.2580   24.1150 H   0  0  0  0  0  0  0  0  0  0  0  0
  1  4  1  0
  2  1  1  0
  2  5  1  0
  3 45  1  0
  4 15  1  0
  4  3  1  0
  5  6  1  1
  5  3  1  0
  7 15  1  0
  8 13  1  0
  9 10  1  0
  9  8  1  0
 11 10  1  0
 11 20  1  0
 11 12  1  0
 13  7  1  0
 13 12  1  0
 14  7  2  0
 15 16  1  0
 17 18  2  0
 18 37  1  0
 19 18  1  0
 19 22  1  0
 20 21  1  0
 20 17  1  0
 21 19  2  0
 22 23  1  0
 23 24  2  0
 25 28  1  0
 25 24  1  0
 26 25  2  0
 27 26  1  0
 27 22  2  0
 28 29  1  0
 29 30  1  0
 30 31  2  0
 32 31  1  0
 32 36  1  0
 33 32  2  0
 34 29  2  0
 34 33  1  0
 35 34  1  0
 37 38  1  0
 38 41  1  0
 38 40  1  0
 39 37  2  0
 42 43  1  0
 42 17  1  0
 44 42  1  0
 45 46  1  0
 46 49  1  0
 47 45  2  0
 48 46  1  0
 49 50  1  0
 51 50  1  0
 52 51  1  0
 53 54  1  0
 53 52  1  0
 55 56  1  0
 55 54  1  0
 56 58  1  0
 58 57  1  0
 59  5  1  0
 59 60  1  0
 61 62  1  0
 61 60  1  0
 63 64  1  0
 63 62  1  0
 65 64  1  0
 65 66  1  0
 66 67  1  0
 67 68  1  0
 68 69  1  0
 70 72  1  0
 70 69  1  0
 71 82  2  0
 72 77  1  0
 73 81  1  0
 73 83  1  0
 74 76  1  0
 75 81  1  0
 76 77  2  0
 76 75  1  0
 78 72  2  0
 79 78  1  0
 79 74  2  0
 80 74  1  0
 80 73  1  0
 81 71  1  0
 83 85  2  0
 84 83  1  0
 86 84  1  0
 87 96  2  0
 87 92  1  0
 88 84  1  0
 88 92  1  0
 89 88  1  0
 90 91  1  0
 90 89  1  0
 91 87  1  0
 92 93  2  0
 93 94  1  0
 95 94  2  0
 96 95  1  0
 97 71  1  0
 97102  1  0
 97 98  1  0
 98101  1  1
 98 99  1  0
100 98  1  0
102105  1  0
103107  1  0
103102  1  0
104103  2  0
107106  1  0
109107  1  0
109110  1  0
109108  1  0
M  ISO  4   7 100  15 100  69 101  70 101
M  END
>  <TORSDO>  (54) 
F 37

>  <SCORE>  (54) 
-0.660

>  <name>  (54) 
56

>  <ligand_id>  (54) 
56

>  <original_smiles>  (54) 
[H]c1c([H])c([H])c2c(c1[H])C([H])([H])C([H])([H])C([H])([H])C2([H])N([H])C(=O)C1([H])N(C(=O)C([H])(N([H])C(=O)C([H])(N([H])C([H])([H])[H])C([H])([H])[H])C(C([H])([H])[H])(C([H])([H])[H])C([H])([H])[H])C([H])([H])c2c([H])c(OC([H])([H])C([H])([H])OC([H])([H])C([H])([H])OC([H])([H])C([H])([H])OC([H])([H])C([H])([H])[N+]3([H])C([H])([H])C([H])([H])C([H])(N([H])C(=O)N4C([H])([H])C([H])([H])C([H])([H])C([H])(n5nc(-c6c([H])c([H])c(Oc7c([H])c([H])c(F)c([H])c7F)c([H])c6[H])c(C(=O)N([H])[H])c5N([H])[H])C4([H])[H])C3([H])C(=O)N([H])C([H])([H])C([H])([H])OC([H])([H])C([H])([H])OC([H])([H])C([H])([H])OC([H])([H])[H])c([H])c([H])c2C1([H])[H]

>  <smiles>  (54) 
[H]c1c([H])c([H])c2c(c1[H])C([H])([H])C([H])([H])C([H])([H])C2([H])N([H])C(=O)C1([H])N(C(=O)C([H])(N([H])C(=O)C([H])(N([H])C([H])([H])[H])C([H])([H])[H])C(C([H])([H])[H])(C([H])([H])[H])C([H])([H])[H])C([H])([H])c2c([H])c(OC([H])([H])C([H])([H])OC([H])([H])C([H])([H])OC([H])([H])C([H])([H])OC([H])([H])C([H])([H])[N+]3([H])C([H])([H])C([H])([H])C([H])(N([H])C(=O)N4C([H])([H])C([H])([H])C([H])([H])C([H])(n5nc(-c6c([H])c([H])c(Oc7c([H])c([H])c(F)c([H])c7F)c([H])c6[H])c(C(=O)N([H])[H])c5N([H])[H])C4([H])[H])C3([H])C(=O)N([H])C([H])([H])C([H])([H])OC([H])([H])C([H])([H])OC([H])([H])C([H])([H])OC([H])([H])[H])c([H])c([H])c2C1([H])[H]

$$$$
57:0:0
     RDKit          3D

104111  0  0  1  0  0  0  0  0999 V2000
  -21.8230  -21.1590   25.9230 C   0  0  0  0  0  2  0  0  0  0  0  0
  -22.7840  -22.3380   23.9080 C   0  0  0  0  0  0  0  0  0  0  0  0
  -21.7500  -21.9090   24.6600 N   0  0  0  0  0  0  0  0  0  0  0  0
  -23.9590  -22.1210   24.2190 O   0  0  0  0  0  0  0  0  0  0  0  0
  -20.8170  -22.1880   24.3740 H   0  0  0  0  0  0  0  0  0  0  0  0
  -22.4670  -23.1160   22.6100 C   0  0  0  0  0  2  0  0  0  0  0  0
  -23.6280  -23.2250   21.7770 O   0  0  0  0  0  0  0  0  0  0  0  0
  -24.5330  -24.2610   22.1510 C   0  0  0  0  0  2  0  0  0  0  0  0
  -25.9340  -23.9780   21.6010 C   0  0  0  0  0  2  0  0  0  0  0  0
  -26.7650  -25.0670   21.9770 O   0  0  0  0  0  0  0  0  0  0  0  0
  -28.1310  -24.8750   21.6450 C   0  0  0  0  0  2  0  0  0  0  0  0
  -28.7780  -26.2440   21.3960 C   0  0  0  0  0  2  0  0  0  0  0  0
  -28.3980  -26.7380   20.1070 O   0  0  0  0  0  0  0  0  0  0  0  0
  -24.6100  -31.8670   23.2060 C   0  0  0  0  0  0  0  0  0  0  0  0
  -27.2410  -27.4680   20.1080 C   0  0  0  0  0  0  0  0  0  0  0  0
  -23.3980  -30.4840   21.5490 C   0  0  0  0  0  3  0  0  0  0  0  0
  -24.8460  -28.9520   20.1100 C   0  0  0  0  0  0  0  0  0  0  0  0
  -25.9160  -30.8460   21.3560 C   0  0  0  0  0  2  0  0  0  0  0  0
  -25.9970  -29.4790   20.7080 C   0  0  0  0  0  0  0  0  0  0  0  0
  -27.1980  -28.7460   20.7020 C   0  0  0  0  0  3  0  0  0  0  0  0
  -26.0850  -26.9520   19.4900 C   0  0  0  0  0  3  0  0  0  0  0  0
  -24.8820  -27.6860   19.4960 C   0  0  0  0  0  3  0  0  0  0  0  0
  -23.6030  -29.8090   20.1620 C   0  0  0  0  0  2  0  0  0  0  0  0
  -24.6610  -31.0760   22.1000 N   0  0  0  0  0  0  0  0  0  0  0  0
  -23.5270  -32.1380   23.7460 O   0  0  0  0  0  0  0  0  0  0  0  0
  -22.7380  -29.4590   22.5000 C   0  0  0  0  0  0  0  0  0  0  0  0
  -21.4140  -29.2880   22.3700 N   0  0  0  0  0  0  0  0  0  0  0  0
  -23.4140  -28.8220   23.3110 O   0  0  0  0  0  0  0  0  0  0  0  0
  -20.9230  -29.8380   21.6780 H   0  0  0  0  0  0  0  0  0  0  0  0
  -18.0330  -28.1300   22.8610 C   0  0  0  0  0  0  0  0  0  0  0  0
  -20.5900  -28.3630   23.1430 C   0  0  0  0  0  3  0  0  0  0  0  0
  -20.6820  -26.9270   22.5760 C   0  0  0  0  0  2  0  0  0  0  0  0
  -19.5870  -26.6180   21.5530 C   0  0  0  0  0  2  0  0  0  0  0  0
  -18.2080  -26.7710   22.2000 C   0  0  0  0  0  2  0  0  0  0  0  0
  -19.1550  -28.8850   23.2900 C   0  0  0  0  0  0  0  0  0  0  0  0
  -18.9430  -30.1540   23.8720 C   0  0  0  0  0  3  0  0  0  0  0  0
  -17.6400  -30.6620   24.0360 C   0  0  0  0  0  3  0  0  0  0  0  0
  -16.5320  -29.9010   23.6250 C   0  0  0  0  0  3  0  0  0  0  0  0
  -16.7290  -28.6380   23.0430 C   0  0  0  0  0  3  0  0  0  0  0  0
  -25.9010  -32.4850   23.8370 C   0  0  0  0  0  3  0  0  0  0  0  0
  -25.5910  -33.8660   24.2360 N   0  0  0  0  0  0  0  0  0  0  0  0
  -25.9010  -34.9510   23.5140 C   0  0  0  0  0  0  0  0  0  0  0  0
  -26.5520  -34.8930   22.4680 O   0  0  0  0  0  0  0  0  0  0  0  0
  -25.0260  -33.9800   25.0640 H   0  0  0  0  0  0  0  0  0  0  0  0
  -24.1480  -36.7300   23.2640 C   0  0  0  0  0  1  0  0  0  0  0  0
  -25.4100  -36.3140   24.0360 C   0  0  0  0  0  3  0  0  0  0  0  0
  -27.5610  -37.1820   24.8480 C   0  0  0  0  0  1  0  0  0  0  0  0
  -26.4320  -37.3820   23.9410 N   0  0  0  0  0  0  0  0  0  0  0  0
  -26.0250  -38.2940   24.1400 H   0  0  0  0  0  0  0  0  0  0  0  0
  -26.4480  -31.6600   25.0680 C   0  0  1  0  0  0  0  0  0  0  0  0
  -25.3760  -31.3630   26.1400 C   0  0  0  0  0  1  0  0  0  0  0  0
  -27.0290  -30.3070   24.6020 C   0  0  0  0  0  1  0  0  0  0  0  0
  -27.6100  -32.4260   25.7410 C   0  0  0  0  0  1  0  0  0  0  0  0
  -22.6310  -19.8350   25.8430 C   0  0  0  0  0  2  0  0  0  0  0  0
  -22.8070  -19.1230   27.2060 C   0  0  0  0  0  2  0  0  0  0  0  0
  -23.6020  -17.8070   27.1150 C   0  0  0  0  0  2  0  0  0  0  0  0
  -24.9270  -18.0920   26.6690 O   0  0  0  0  0  0  0  0  0  0  0  0
  -25.7190  -16.9260   26.4820 C   0  0  0  0  0  2  0  0  0  0  0  0
  -27.1370  -17.3020   25.9960 C   0  0  0  0  0  2  0  0  0  0  0  0
  -27.9460  -16.0560   25.5620 C   0  0  0  0  0  2  0  0  0  0  0  0
  -29.0900  -16.3870   24.6710 N   0  0  0  0  0  4  0  0  0  0  0  0
  -29.9250  -16.5690   25.2040 H   0  0  0  0  0  0  0  0  0  0  0  0
  -28.8430  -17.2530   24.2220 H   0  0  0  0  0  0  0  0  0  0  0  0
  -30.0670  -14.1460   24.1110 C   0  0  0  0  0  1  0  0  0  0  0  0
  -29.3380  -15.4070   23.5810 C   0  0  0  0  0  3  0  0  0  0  0  0
  -30.0780  -16.0840   22.3930 C   0  0  0  0  0  2  0  0  0  0  0  0
  -30.6840  -14.3920   20.6460 C   0  0  0  0  0  0  0  0  0  0  0  0
  -30.4310  -12.2780   19.4050 C   0  0  0  0  0  2  0  0  0  0  0  0
  -29.4980  -12.5200   18.1990 C   0  0  0  0  0  2  0  0  0  0  0  0
  -28.0090  -12.3750   18.5940 C   0  0  0  0  0  2  0  0  0  0  0  0
  -27.6570  -13.1780   19.8740 C   0  0  0  0  0  3  0  0  0  0  0  0
  -28.6910  -12.8850   20.9770 C   0  0  0  0  0  2  0  0  0  0  0  0
  -30.0280  -13.2200   20.4530 N   0  0  0  0  0  0  0  0  0  0  0  0
  -31.8080  -14.6360   20.1950 O   0  0  0  0  0  0  0  0  0  0  0  0
  -29.9070  -15.3640   21.1340 N   0  0  0  0  0  0  0  0  0  0  0  0
  -29.5430  -15.9450   20.3900 H   0  0  0  0  0  0  0  0  0  0  0  0
  -25.2610  -13.8120   20.5710 C   0  0  0  0  0  0  0  0  0  0  0  0
  -24.1820  -13.0400   20.9190 C   0  0  0  0  0  0  0  0  0  0  0  0
  -24.6310  -11.6870   20.8660 C   0  0  0  0  0  0  0  0  0  0  0  0
  -26.2980  -12.9190   20.3340 N   0  0  0  0  0  0  0  0  0  0  0  0
  -25.9230  -11.6400   20.5600 N   0  0  0  0  0  0  0  0  0  0  0  0
  -23.9010  -10.4280   21.0390 C   0  0  0  0  0  0  0  0  0  0  0  0
  -24.3600   -9.4190   21.9160 C   0  0  0  0  0  3  0  0  0  0  0  0
  -23.6280   -8.2200   22.0710 C   0  0  0  0  0  3  0  0  0  0  0  0
  -22.4260   -8.0280   21.3520 C   0  0  0  0  0  0  0  0  0  0  0  0
  -21.9870   -9.0210   20.4600 C   0  0  0  0  0  3  0  0  0  0  0  0
  -22.7180  -10.2110   20.3030 C   0  0  0  0  0  3  0  0  0  0  0  0
  -21.6610   -6.8880   21.4250 O   0  0  0  0  0  0  0  0  0  0  0  0
  -21.6840   -6.0750   22.5280 C   0  0  0  0  0  0  0  0  0  0  0  0
  -21.4000   -6.5640   23.8220 C   0  0  0  0  0  3  0  0  0  0  0  0
  -21.3680   -5.6780   24.9180 C   0  0  0  0  0  3  0  0  0  0  0  0
  -21.6060   -4.3040   24.7190 C   0  0  0  0  0  0  0  0  0  0  0  0
  -21.8830   -3.8160   23.4300 C   0  0  0  0  0  3  0  0  0  0  0  0
  -21.9180   -4.6990   22.3380 C   0  0  0  0  0  0  0  0  0  0  0  0
  -22.1650   -4.2230   21.0940 F   0  0  0  0  0  0  0  0  0  0  0  0
  -21.5650   -3.4500   25.7680 F   0  0  0  0  0  0  0  0  0  0  0  0
  -22.7880  -13.5240   21.1840 C   0  0  0  0  0  0  0  0  0  0  0  0
  -22.0520  -12.8190   22.0390 N   0  0  0  0  0  0  0  0  0  0  0  0
  -22.3550  -14.5520   20.6680 O   0  0  0  0  0  0  0  0  0  0  0  0
  -22.4100  -11.9870   22.4850 H   0  0  0  0  0  0  0  0  0  0  0  0
  -21.1150  -13.1230   22.2590 H   0  0  0  0  0  0  0  0  0  0  0  0
  -25.4390  -15.1790   20.4150 N   0  0  0  0  0  0  0  0  0  0  0  0
  -24.6740  -15.8390   20.5110 H   0  0  0  0  0  0  0  0  0  0  0  0
  -26.3000  -15.6190   20.1140 H   0  0  0  0  0  0  0  0  0  0  0  0
  2  4  2  0
  2  3  1  0
  3  1  1  0
  5  3  1  0
  6  2  1  0
  7  8  1  0
  7  6  1  0
  9 10  1  0
  9  8  1  0
 11 10  1  0
 12 11  1  0
 13 15  1  0
 13 12  1  0
 14 25  2  0
 15 20  1  0
 16 24  1  0
 16 26  1  0
 17 23  1  0
 17 19  1  0
 18 24  1  0
 19 18  1  0
 20 19  2  0
 21 22  1  0
 21 15  2  0
 22 17  2  0
 23 16  1  0
 24 14  1  0
 26 28  2  0
 27 26  1  0
 29 27  1  0
 30 39  2  0
 30 35  1  0
 31 27  1  0
 31 35  1  0
 32 31  1  0
 33 34  1  0
 33 32  1  0
 34 30  1  0
 35 36  2  0
 36 37  1  0
 38 37  2  0
 39 38  1  0
 40 14  1  0
 40 41  1  0
 40 50  1  0
 41 44  1  0
 42 46  1  0
 42 41  1  0
 43 42  2  0
 46 45  1  0
 48 46  1  0
 48 49  1  0
 48 47  1  0
 50 53  1  1
 50 51  1  0
 52 50  1  0
 54  1  1  0
 54 55  1  0
 56 55  1  0
 57 56  1  0
 58 57  1  0
 59 58  1  0
 60 59  1  0
 61 62  1  0
 61 60  1  0
 63 61  1  0
 65 64  1  0
 65 61  1  0
 66 65  1  0
 67 75  1  0
 68 73  1  0
 69 70  1  0
 69 68  1  0
 71 70  1  0
 71 80  1  0
 71 72  1  0
 73 67  1  0
 73 72  1  0
 74 67  2  0
 75 66  1  0
 76 75  1  0
 77 78  2  0
 78 97  1  0
 79 78  1  0
 79 82  1  0
 80 81  1  0
 80 77  1  0
 81 79  2  0
 82 83  1  0
 83 84  2  0
 85 88  1  0
 85 84  1  0
 86 85  2  0
 87 86  1  0
 87 82  2  0
 88 89  1  0
 89 90  1  0
 90 91  2  0
 92 91  1  0
 92 96  1  0
 93 92  2  0
 94 89  2  0
 94 93  1  0
 95 94  1  0
 97 98  1  0
 98101  1  0
 98100  1  0
 99 97  2  0
102103  1  0
102 77  1  0
104102  1  0
M  ISO  4  12 101  13 101  67 100  75 100
M  END
>  <TORSDO>  (55) 
F 34

>  <SCORE>  (55) 
69.143

>  <name>  (55) 
57

>  <ligand_id>  (55) 
57

>  <original_smiles>  (55) 
[H]c1c([H])c([H])c2c(c1[H])C([H])([H])C([H])([H])C([H])([H])C2([H])N([H])C(=O)C1([H])N(C(=O)C([H])(N([H])C(=O)C([H])(N([H])C([H])([H])[H])C([H])([H])[H])C(C([H])([H])[H])(C([H])([H])[H])C([H])([H])[H])C([H])([H])c2c([H])c(OC([H])([H])C([H])([H])OC([H])([H])C([H])([H])OC([H])([H])C(=O)N([H])C([H])([H])C([H])([H])C([H])([H])C([H])([H])OC([H])([H])C([H])([H])C([H])([H])[N+]([H])([H])C([H])(C([H])([H])[H])C([H])([H])N([H])C(=O)N3C([H])([H])C([H])([H])C([H])([H])C([H])(n4nc(-c5c([H])c([H])c(Oc6c([H])c([H])c(F)c([H])c6F)c([H])c5[H])c(C(=O)N([H])[H])c4N([H])[H])C3([H])[H])c([H])c([H])c2C1([H])[H]

>  <smiles>  (55) 
[H]c1c([H])c([H])c2c(c1[H])C([H])([H])C([H])([H])C([H])([H])C2([H])N([H])C(=O)C1([H])N(C(=O)C([H])(N([H])C(=O)C([H])(N([H])C([H])([H])[H])C([H])([H])[H])C(C([H])([H])[H])(C([H])([H])[H])C([H])([H])[H])C([H])([H])c2c([H])c(OC([H])([H])C([H])([H])OC([H])([H])C([H])([H])OC([H])([H])C(=O)N([H])C([H])([H])C([H])([H])C([H])([H])C([H])([H])OC([H])([H])C([H])([H])C([H])([H])[N+]([H])([H])C([H])(C([H])([H])[H])C([H])([H])N([H])C(=O)N3C([H])([H])C([H])([H])C([H])([H])C([H])(n4nc(-c5c([H])c([H])c(Oc6c([H])c([H])c(F)c([H])c6F)c([H])c5[H])c(C(=O)N([H])[H])c4N([H])[H])C3([H])[H])c([H])c([H])c2C1([H])[H]

$$$$
58:0:0
     RDKit          3D

107116  0  0  1  0  0  0  0  0999 V2000
  -31.1000  -21.7190   20.5520 C   0  0  0  0  0  2  0  0  0  0  0  0
  -30.6710  -22.5390   21.7920 C   0  0  0  0  0  0  0  0  0  0  0  0
  -29.9920  -22.0000   22.8210 N   0  0  0  0  0  0  0  0  0  0  0  0
  -31.0590  -23.7020   21.8850 O   0  0  0  0  0  0  0  0  0  0  0  0
  -29.9220  -22.5950   23.6340 H   0  0  0  0  0  0  0  0  0  0  0  0
  -30.8120  -16.5370   25.4650 C   0  0  0  0  0  3  0  0  0  0  0  0
  -30.7910  -17.9450   25.3930 C   0  0  0  0  0  3  0  0  0  0  0  0
  -28.9350  -18.5000   22.2000 C   0  0  0  0  0  3  0  0  0  0  0  0
  -30.3280  -15.7770   24.3790 C   0  0  0  0  0  3  0  0  0  0  0  0
  -28.9650  -19.8990   22.1220 C   0  0  0  0  0  3  0  0  0  0  0  0
  -30.3070  -19.9870   24.1490 C   0  0  0  0  0  3  0  0  0  0  0  0
  -30.2340  -18.5830   24.2690 C   0  0  0  0  0  0  0  0  0  0  0  0
  -29.6430  -17.8230   23.2240 C   0  0  0  0  0  0  0  0  0  0  0  0
  -29.7940  -16.4130   23.2350 C   0  0  0  0  0  0  0  0  0  0  0  0
  -29.7530  -20.6280   23.0260 C   0  0  0  0  0  0  0  0  0  0  0  0
  -29.5130  -15.5670   21.9980 C   0  0  0  0  0  2  0  0  0  0  0  0
  -30.9810  -14.3200   20.4180 C   0  0  0  0  0  0  0  0  0  0  0  0
  -30.6840  -12.4080   18.8850 C   0  0  0  0  0  2  0  0  0  0  0  0
  -29.6440  -12.6810   17.7800 C   0  0  0  0  0  2  0  0  0  0  0  0
  -28.2040  -12.4580   18.2830 C   0  0  0  0  0  2  0  0  0  0  0  0
  -27.9390  -13.1540   19.6460 C   0  0  0  0  0  3  0  0  0  0  0  0
  -29.0390  -12.7200   20.6300 C   0  0  0  0  0  2  0  0  0  0  0  0
  -30.3210  -13.1820   20.0820 N   0  0  0  0  0  0  0  0  0  0  0  0
  -31.9470  -14.7460   19.7770 O   0  0  0  0  0  0  0  0  0  0  0  0
  -30.7060  -14.7940   21.6390 N   0  0  0  0  0  0  0  0  0  0  0  0
  -31.5230  -15.2070   22.0610 H   0  0  0  0  0  0  0  0  0  0  0  0
  -25.5670  -13.6930   20.5000 C   0  0  0  0  0  0  0  0  0  0  0  0
  -24.5250  -12.8840   20.8580 C   0  0  0  0  0  0  0  0  0  0  0  0
  -24.9920  -11.5420   20.6950 C   0  0  0  0  0  0  0  0  0  0  0  0
  -26.6090  -12.8410   20.1550 N   0  0  0  0  0  0  0  0  0  0  0  0
  -26.2630  -11.5400   20.3180 N   0  0  0  0  0  0  0  0  0  0  0  0
  -24.2930  -10.2610   20.8210 C   0  0  0  0  0  0  0  0  0  0  0  0
  -24.8180   -9.2070   21.6010 C   0  0  0  0  0  3  0  0  0  0  0  0
  -24.1130   -7.9870   21.7210 C   0  0  0  0  0  3  0  0  0  0  0  0
  -22.8740   -7.8180   21.0560 C   0  0  0  0  0  0  0  0  0  0  0  0
  -22.3700   -8.8630   20.2650 C   0  0  0  0  0  3  0  0  0  0  0  0
  -23.0720  -10.0710   20.1430 C   0  0  0  0  0  3  0  0  0  0  0  0
  -22.1340   -6.6610   21.0900 O   0  0  0  0  0  0  0  0  0  0  0  0
  -22.2300   -5.7770   22.1310 C   0  0  0  0  0  0  0  0  0  0  0  0
  -22.0130   -6.1710   23.4690 C   0  0  0  0  0  3  0  0  0  0  0  0
  -22.0530   -5.2120   24.5000 C   0  0  0  0  0  3  0  0  0  0  0  0
  -22.3020   -3.8590   24.1950 C   0  0  0  0  0  0  0  0  0  0  0  0
  -22.5130   -3.4660   22.8610 C   0  0  0  0  0  3  0  0  0  0  0  0
  -22.4710   -4.4210   21.8320 C   0  0  0  0  0  0  0  0  0  0  0  0
  -22.6570   -4.0340   20.5480 F   0  0  0  0  0  0  0  0  0  0  0  0
  -22.3300   -2.9350   25.1830 F   0  0  0  0  0  0  0  0  0  0  0  0
  -23.1390  -13.3180   21.2410 C   0  0  0  0  0  0  0  0  0  0  0  0
  -22.4630  -12.5490   22.0860 N   0  0  0  0  0  0  0  0  0  0  0  0
  -22.6620  -14.3750   20.8270 O   0  0  0  0  0  0  0  0  0  0  0  0
  -22.8670  -11.6990   22.4510 H   0  0  0  0  0  0  0  0  0  0  0  0
  -21.5370  -12.8200   22.3850 H   0  0  0  0  0  0  0  0  0  0  0  0
  -25.7050  -15.0770   20.4110 N   0  0  0  0  0  0  0  0  0  0  0  0
  -24.9170  -15.6930   20.5820 H   0  0  0  0  0  0  0  0  0  0  0  0
  -26.5090  -15.5620   20.0380 H   0  0  0  0  0  0  0  0  0  0  0  0
  -31.1890  -22.5810   19.4200 O   0  0  0  0  0  0  0  0  0  0  0  0
  -30.2250  -22.3410   18.3980 C   0  0  0  0  0  2  0  0  0  0  0  0
  -30.5860  -21.0900   17.5630 C   0  0  0  0  0  2  0  0  0  0  0  0
  -31.4090  -21.3580   16.4240 O   0  0  0  0  0  0  0  0  0  0  0  0
  -32.7970  -21.5700   16.6890 C   0  0  0  0  0  2  0  0  0  0  0  0
  -33.1770  -23.0350   16.4170 C   0  0  0  0  0  2  0  0  0  0  0  0
  -32.7260  -23.8410   17.4950 O   0  0  0  0  0  0  0  0  0  0  0  0
  -33.0370  -25.2180   17.3790 C   0  0  0  0  0  2  0  0  0  0  0  0
  -32.6820  -25.9160   18.7000 C   0  0  0  0  0  2  0  0  0  0  0  0
  -31.2910  -26.2400   18.7940 O   0  0  0  0  0  0  0  0  0  0  0  0
  -30.9620  -26.7120   20.1010 C   0  0  0  0  0  2  0  0  0  0  0  0
  -29.7370  -27.6380   20.1480 C   0  0  0  0  0  2  0  0  0  0  0  0
  -28.4880  -26.9370   20.1470 O   0  0  0  0  0  0  0  0  0  0  0  0
  -24.8610  -32.1220   23.4980 C   0  0  0  0  0  0  0  0  0  0  0  0
  -27.3420  -27.6980   20.2790 C   0  0  0  0  0  0  0  0  0  0  0  0
  -23.5700  -30.7720   21.8700 C   0  0  0  0  0  3  0  0  0  0  0  0
  -24.9460  -29.2080   20.3950 C   0  0  0  0  0  0  0  0  0  0  0  0
  -26.0910  -31.0800   21.6020 C   0  0  0  0  0  2  0  0  0  0  0  0
  -26.1230  -29.7150   20.9520 C   0  0  0  0  0  0  0  0  0  0  0  0
  -27.3150  -28.9710   20.8980 C   0  0  0  0  0  3  0  0  0  0  0  0
  -26.1360  -27.1810   19.7550 C   0  0  0  0  0  3  0  0  0  0  0  0
  -24.9420  -27.9320   19.8010 C   0  0  0  0  0  3  0  0  0  0  0  0
  -23.7230  -30.0930   20.4790 C   0  0  0  0  0  2  0  0  0  0  0  0
  -24.8610  -31.3400   22.3820 N   0  0  0  0  0  0  0  0  0  0  0  0
  -23.8030  -32.4170   24.0720 O   0  0  0  0  0  0  0  0  0  0  0  0
  -22.9180  -29.7620   22.8370 C   0  0  0  0  0  0  0  0  0  0  0  0
  -21.5850  -29.6260   22.7490 N   0  0  0  0  0  0  0  0  0  0  0  0
  -23.6060  -29.1020   23.6200 O   0  0  0  0  0  0  0  0  0  0  0  0
  -21.0910  -30.2110   22.0880 H   0  0  0  0  0  0  0  0  0  0  0  0
  -18.1930  -28.5310   23.3180 C   0  0  0  0  0  0  0  0  0  0  0  0
  -20.7630  -28.7030   23.5300 C   0  0  0  0  0  3  0  0  0  0  0  0
  -20.8060  -27.2770   22.9350 C   0  0  0  0  0  2  0  0  0  0  0  0
  -19.6710  -27.0020   21.9450 C   0  0  0  0  0  2  0  0  0  0  0  0
  -18.3090  -27.1850   22.6250 C   0  0  0  0  0  2  0  0  0  0  0  0
  -19.3460  -29.2520   23.7290 C   0  0  0  0  0  0  0  0  0  0  0  0
  -19.1820  -30.5160   24.3370 C   0  0  0  0  0  3  0  0  0  0  0  0
  -17.8980  -31.0570   24.5390 C   0  0  0  0  0  3  0  0  0  0  0  0
  -16.7610  -30.3320   24.1460 C   0  0  0  0  0  3  0  0  0  0  0  0
  -16.9090  -29.0710   23.5400 C   0  0  0  0  0  3  0  0  0  0  0  0
  -26.1830  -32.7050   24.0890 C   0  0  0  0  0  3  0  0  0  0  0  0
  -25.9140  -34.0930   24.4860 N   0  0  0  0  0  0  0  0  0  0  0  0
  -26.2360  -35.1690   23.7560 C   0  0  0  0  0  0  0  0  0  0  0  0
  -26.8630  -35.0970   22.6950 O   0  0  0  0  0  0  0  0  0  0  0  0
  -25.3570  -34.2230   25.3180 H   0  0  0  0  0  0  0  0  0  0  0  0
  -24.5200  -36.9960   23.5490 C   0  0  0  0  0  1  0  0  0  0  0  0
  -25.7910  -36.5440   24.2860 C   0  0  0  0  0  3  0  0  0  0  0  0
  -27.9800  -37.3650   25.0400 C   0  0  0  0  0  1  0  0  0  0  0  0
  -26.8330  -37.5880   24.1630 N   0  0  0  0  0  0  0  0  0  0  0  0
  -26.4490  -38.5050   24.3690 H   0  0  0  0  0  0  0  0  0  0  0  0
  -26.7410  -31.8730   25.3080 C   0  0  1  0  0  0  0  0  0  0  0  0
  -25.6940  -31.6110   26.4150 C   0  0  0  0  0  1  0  0  0  0  0  0
  -27.2800  -30.5040   24.8300 C   0  0  0  0  0  1  0  0  0  0  0  0
  -27.9340  -32.6190   25.9510 C   0  0  0  0  0  1  0  0  0  0  0  0
  1  2  1  0
  2  4  2  0
  2  3  1  0
  3 15  1  0
  3  5  1  0
  7  6  1  0
  8 13  1  0
  9  6  2  0
 10  8  2  0
 10 15  1  0
 11 12  1  0
 12  7  2  0
 13 14  2  0
 13 12  1  0
 14  9  1  0
 15 11  2  0
 16 14  1  0
 17 25  1  0
 18 23  1  0
 19 20  1  0
 19 18  1  0
 21 20  1  0
 21 30  1  0
 21 22  1  0
 23 17  1  0
 23 22  1  0
 24 17  2  0
 25 16  1  0
 25 26  1  0
 27 28  2  0
 28 47  1  0
 29 32  1  0
 29 28  1  0
 30 31  1  0
 30 27  1  0
 31 29  2  0
 32 33  1  0
 33 34  2  0
 35 38  1  0
 35 34  1  0
 36 35  2  0
 37 36  1  0
 37 32  2  0
 38 39  1  0
 39 40  1  0
 40 41  2  0
 42 41  1  0
 42 46  1  0
 43 42  2  0
 44 39  2  0
 44 43  1  0
 45 44  1  0
 47 48  1  0
 48 51  1  0
 48 50  1  0
 49 47  2  0
 52 27  1  0
 52 53  1  0
 54 52  1  0
 55  1  1  0
 56 55  1  0
 57 56  1  0
 58 59  1  0
 58 57  1  0
 60 59  1  0
 60 61  1  0
 62 61  1  0
 62 63  1  0
 63 64  1  0
 64 65  1  0
 65 66  1  0
 67 66  1  0
 67 69  1  0
 68 79  2  0
 69 74  1  0
 70 78  1  0
 70 80  1  0
 71 77  1  0
 71 73  1  0
 72 78  1  0
 73 72  1  0
 74 73  2  0
 75 76  1  0
 75 69  2  0
 76 71  2  0
 77 70  1  0
 78 68  1  0
 80 82  2  0
 81 80  1  0
 83 81  1  0
 84 93  2  0
 84 89  1  0
 85 81  1  0
 85 89  1  0
 86 85  1  0
 87 88  1  0
 87 86  1  0
 88 84  1  0
 89 90  2  0
 90 91  1  0
 92 91  2  0
 93 92  1  0
 94 68  1  0
 94 95  1  0
 94104  1  0
 95 98  1  0
 96100  1  0
 96 95  1  0
 97 96  2  0
100 99  1  0
102100  1  0
102103  1  0
102101  1  0
104107  1  1
104105  1  0
106104  1  0
M  ISO  4  17 100  25 100  66 101  67 101
M  END
>  <TORSDO>  (56) 
F 31

>  <SCORE>  (56) 
11.375

>  <name>  (56) 
58

>  <ligand_id>  (56) 
58

>  <original_smiles>  (56) 
[H]c1c([H])c([H])c2c(c1[H])C([H])([H])C([H])([H])C([H])([H])C2([H])N([H])C(=O)C1([H])N(C(=O)C([H])(N([H])C(=O)C([H])(N([H])C([H])([H])[H])C([H])([H])[H])C(C([H])([H])[H])(C([H])([H])[H])C([H])([H])[H])C([H])([H])c2c([H])c(OC([H])([H])C([H])([H])OC([H])([H])C([H])([H])OC([H])([H])C([H])([H])OC([H])([H])C([H])([H])OC([H])([H])C(=O)N([H])c3c([H])c([H])c4c(C([H])([H])N([H])C(=O)N5C([H])([H])C([H])([H])C([H])([H])C([H])(n6nc(-c7c([H])c([H])c(Oc8c([H])c([H])c(F)c([H])c8F)c([H])c7[H])c(C(=O)N([H])[H])c6N([H])[H])C5([H])[H])c([H])c([H])c([H])c4c3[H])c([H])c([H])c2C1([H])[H]

>  <smiles>  (56) 
[H]c1c([H])c([H])c2c(c1[H])C([H])([H])C([H])([H])C([H])([H])C2([H])N([H])C(=O)C1([H])N(C(=O)C([H])(N([H])C(=O)C([H])(N([H])C([H])([H])[H])C([H])([H])[H])C(C([H])([H])[H])(C([H])([H])[H])C([H])([H])[H])C([H])([H])c2c([H])c(OC([H])([H])C([H])([H])OC([H])([H])C([H])([H])OC([H])([H])C([H])([H])OC([H])([H])C([H])([H])OC([H])([H])C(=O)N([H])c3c([H])c([H])c4c(C([H])([H])N([H])C(=O)N5C([H])([H])C([H])([H])C([H])([H])C([H])(n6nc(-c7c([H])c([H])c(Oc8c([H])c([H])c(F)c([H])c8F)c([H])c7[H])c(C(=O)N([H])[H])c6N([H])[H])C5([H])[H])c([H])c([H])c([H])c4c3[H])c([H])c([H])c2C1([H])[H]

$$$$
59:0:0
     RDKit          3D

113122  0  0  1  0  0  0  0  0999 V2000
  -27.2270  -22.2750   17.8680 C   0  0  0  0  0  0  0  0  0  0  0  0
  -25.2470  -20.8420   18.2510 C   0  0  0  0  0  2  0  0  0  0  0  0
  -26.1890  -20.9540   15.9950 C   0  0  0  0  0  2  0  0  0  0  0  0
  -23.8420  -21.1460   17.7050 C   0  0  0  0  0  2  0  0  0  0  0  0
  -24.7870  -21.2100   15.4180 C   0  0  0  0  0  2  0  0  0  0  0  0
  -26.2790  -21.4330   17.3850 N   0  0  0  0  0  0  0  0  0  0  0  0
  -23.7160  -20.6820   16.3010 N   0  0  2  0  0  4  0  0  0  0  0  0
  -27.2090  -22.6720   19.0370 O   0  0  0  0  0  0  0  0  0  0  0  0
  -23.8320  -19.6760   16.3460 H   0  0  0  0  0  0  0  0  0  0  0  0
  -22.3540  -20.8310   15.7330 C   0  0  0  0  0  2  0  0  0  0  0  0
  -22.1360  -19.7460   14.6730 C   0  0  0  0  0  2  0  0  0  0  0  0
  -23.0910  -18.7290   14.9580 O   0  0  0  0  0  0  0  0  0  0  0  0
  -23.5040  -17.9930   13.8140 C   0  0  0  0  0  2  0  0  0  0  0  0
  -24.9460  -17.5360   14.0540 C   0  0  0  0  0  2  0  0  0  0  0  0
  -25.7910  -18.6090   13.6520 O   0  0  0  0  0  0  0  0  0  0  0  0
  -27.1340  -18.4740   14.0930 C   0  0  0  0  0  2  0  0  0  0  0  0
  -28.0420  -18.8200   12.9060 C   0  0  0  0  0  2  0  0  0  0  0  0
  -28.1100  -20.2280   12.6910 O   0  0  0  0  0  0  0  0  0  0  0  0
  -28.2070  -20.5430   11.3070 C   0  0  0  0  0  2  0  0  0  0  0  0
  -28.8480  -21.9340   11.1340 C   0  0  0  0  0  2  0  0  0  0  0  0
  -30.2730  -21.9860   11.5490 N   0  0  0  0  0  4  0  0  0  0  0  0
  -30.5780  -22.9470   11.4960 H   0  0  0  0  0  0  0  0  0  0  0  0
  -30.3360  -21.7170   12.5210 H   0  0  0  0  0  0  0  0  0  0  0  0
  -31.1790  -21.1530   10.7220 C   0  0  0  0  0  2  0  0  0  0  0  0
  -33.1950  -19.2300    9.8620 C   0  0  0  0  0  0  0  0  0  0  0  0
  -32.8170  -16.8420   10.3110 C   0  0  0  0  0  2  0  0  0  0  0  0
  -31.4390  -16.5990   10.9460 C   0  0  0  0  0  2  0  0  0  0  0  0
  -31.5290  -16.7170   12.4770 C   0  0  0  0  0  2  0  0  0  0  0  0
  -32.1970  -18.0480   12.9180 C   0  0  0  0  0  3  0  0  0  0  0  0
  -33.5300  -18.2570   12.1710 C   0  0  0  0  0  2  0  0  0  0  0  0
  -33.2740  -18.1780   10.7170 N   0  0  0  0  0  0  0  0  0  0  0  0
  -32.8230  -19.1330    8.6890 O   0  0  0  0  0  0  0  0  0  0  0  0
  -34.6410  -22.5530   10.2330 C   0  0  0  0  0  2  0  0  0  0  0  0
  -33.1760  -22.7610   10.5750 C   0  0  0  0  0  2  0  0  0  0  0  0
  -34.6920  -21.1190    9.7200 C   0  0  0  0  0  2  0  0  0  0  0  0
  -32.6840  -21.3770   11.0340 C   0  0  0  0  0  3  0  0  0  0  0  0
  -33.5940  -20.4130   10.3680 N   0  0  0  0  0  0  0  0  0  0  0  0
  -31.9890  -19.0850   15.2620 C   0  0  0  0  0  0  0  0  0  0  0  0
  -32.3450  -18.6220   16.4960 C   0  0  0  0  0  0  0  0  0  0  0  0
  -32.9620  -17.3550   16.2770 C   0  0  0  0  0  0  0  0  0  0  0  0
  -32.3820  -18.1090   14.3610 N   0  0  0  0  0  0  0  0  0  0  0  0
  -33.0260  -17.0870   14.9810 N   0  0  0  0  0  0  0  0  0  0  0  0
  -33.4350  -16.3420   17.2270 C   0  0  0  0  0  0  0  0  0  0  0  0
  -34.7340  -15.7960   17.1390 C   0  0  0  0  0  3  0  0  0  0  0  0
  -35.1680  -14.8310   18.0720 C   0  0  0  0  0  3  0  0  0  0  0  0
  -34.3040  -14.4080   19.1110 C   0  0  0  0  0  0  0  0  0  0  0  0
  -33.0060  -14.9430   19.1820 C   0  0  0  0  0  3  0  0  0  0  0  0
  -32.5730  -15.9000   18.2500 C   0  0  0  0  0  3  0  0  0  0  0  0
  -34.6290  -13.4600   20.0510 O   0  0  0  0  0  0  0  0  0  0  0  0
  -35.9320  -13.2240   20.4090 C   0  0  0  0  0  0  0  0  0  0  0  0
  -36.7710  -14.2520   20.8890 C   0  0  0  0  0  3  0  0  0  0  0  0
  -38.0820  -13.9510   21.3090 C   0  0  0  0  0  3  0  0  0  0  0  0
  -38.5530  -12.6250   21.2530 C   0  0  0  0  0  0  0  0  0  0  0  0
  -37.7160  -11.5990   20.7800 C   0  0  0  0  0  3  0  0  0  0  0  0
  -36.4070  -11.8980   20.3610 C   0  0  0  0  0  0  0  0  0  0  0  0
  -35.5950  -10.9040   19.9270 F   0  0  0  0  0  0  0  0  0  0  0  0
  -39.8090  -12.3350   21.6610 F   0  0  0  0  0  0  0  0  0  0  0  0
  -32.0380  -19.2710   17.8170 C   0  0  0  0  0  0  0  0  0  0  0  0
  -32.8970  -19.0690   18.8110 N   0  0  0  0  0  0  0  0  0  0  0  0
  -31.0550  -19.9970   17.9580 O   0  0  0  0  0  0  0  0  0  0  0  0
  -33.7150  -18.4900   18.6900 H   0  0  0  0  0  0  0  0  0  0  0  0
  -32.7360  -19.5020   19.7100 H   0  0  0  0  0  0  0  0  0  0  0  0
  -31.3400  -20.2370   14.8330 N   0  0  0  0  0  0  0  0  0  0  0  0
  -31.0210  -20.9310   15.5000 H   0  0  0  0  0  0  0  0  0  0  0  0
  -30.8930  -20.2970   13.9330 H   0  0  0  0  0  0  0  0  0  0  0  0
  -28.3940  -22.7040   16.9570 C   0  0  0  0  0  2  0  0  0  0  0  0
  -29.4080  -23.3450   17.7270 O   0  0  0  0  0  0  0  0  0  0  0  0
  -30.4870  -23.8280   16.9370 C   0  0  0  0  0  2  0  0  0  0  0  0
  -31.4800  -24.5510   17.8570 C   0  0  0  0  0  2  0  0  0  0  0  0
  -30.8390  -25.7080   18.3760 O   0  0  0  0  0  0  0  0  0  0  0  0
  -31.6270  -26.4300   19.3180 C   0  0  0  0  0  2  0  0  0  0  0  0
  -30.7170  -27.4050   20.0760 C   0  0  0  0  0  2  0  0  0  0  0  0
  -29.8500  -26.5960   20.8550 O   0  0  0  0  0  0  0  0  0  0  0  0
  -28.1750  -31.9370   25.3090 C   0  0  0  0  0  0  0  0  0  0  0  0
  -28.9860  -27.1760   21.7510 C   0  0  0  0  0  0  0  0  0  0  0  0
  -26.8490  -29.8580   25.5310 C   0  0  0  0  0  3  0  0  0  0  0  0
  -27.1490  -28.1560   23.6570 C   0  0  0  0  0  0  0  0  0  0  0  0
  -27.8750  -30.5190   23.2840 C   0  0  0  0  0  2  0  0  0  0  0  0
  -27.9840  -29.0440   22.9670 C   0  0  0  0  0  0  0  0  0  0  0  0
  -28.9020  -28.5640   22.0080 C   0  0  0  0  0  3  0  0  0  0  0  0
  -28.1460  -26.2960   22.4600 C   0  0  0  0  0  3  0  0  0  0  0  0
  -27.2260  -26.7750   23.4090 C   0  0  0  0  0  3  0  0  0  0  0  0
  -26.1890  -28.7570   24.6570 C   0  0  0  0  0  2  0  0  0  0  0  0
  -27.6830  -30.8080   24.7240 N   0  0  0  0  0  0  0  0  0  0  0  0
  -27.9090  -32.2160   26.4860 O   0  0  0  0  0  0  0  0  0  0  0  0
  -27.6320  -29.1740   26.6740 C   0  0  0  0  0  0  0  0  0  0  0  0
  -26.9310  -28.8650   27.7760 N   0  0  0  0  0  0  0  0  0  0  0  0
  -28.8310  -28.9080   26.5490 O   0  0  0  0  0  0  0  0  0  0  0  0
  -25.9550  -29.1240   27.8040 H   0  0  0  0  0  0  0  0  0  0  0  0
  -26.0610  -27.7520   31.1000 C   0  0  0  0  0  0  0  0  0  0  0  0
  -27.4480  -28.1850   28.9630 C   0  0  0  0  0  3  0  0  0  0  0  0
  -27.4430  -26.6500   28.7710 C   0  0  0  0  0  2  0  0  0  0  0  0
  -26.1670  -25.9810   29.2940 C   0  0  0  0  0  2  0  0  0  0  0  0
  -25.9880  -26.2660   30.7880 C   0  0  0  0  0  2  0  0  0  0  0  0
  -26.7330  -28.6550   30.2350 C   0  0  0  0  0  0  0  0  0  0  0  0
  -26.7420  -30.0310   30.5530 C   0  0  0  0  0  3  0  0  0  0  0  0
  -26.0980  -30.5060   31.7090 C   0  0  0  0  0  3  0  0  0  0  0  0
  -25.4470  -29.6060   32.5710 C   0  0  0  0  0  3  0  0  0  0  0  0
  -25.4340  -28.2330   32.2680 C   0  0  0  0  0  3  0  0  0  0  0  0
  -29.0740  -32.9410   24.5220 C   0  0  0  0  0  3  0  0  0  0  0  0
  -28.6530  -34.2970   24.8950 N   0  0  0  0  0  0  0  0  0  0  0  0
  -27.8730  -35.0850   24.1410 C   0  0  0  0  0  0  0  0  0  0  0  0
  -27.4910  -34.7650   23.0120 O   0  0  0  0  0  0  0  0  0  0  0  0
  -28.8830  -34.6030   25.8300 H   0  0  0  0  0  0  0  0  0  0  0  0
  -26.0040  -36.3560   25.2410 C   0  0  0  0  0  1  0  0  0  0  0  0
  -27.4530  -36.4420   24.7330 C   0  0  0  0  0  3  0  0  0  0  0  0
  -28.9650  -37.8910   23.4520 C   0  0  0  0  0  1  0  0  0  0  0  0
  -27.5790  -37.5660   23.7790 N   0  0  0  0  0  0  0  0  0  0  0  0
  -27.1360  -38.4030   24.1480 H   0  0  0  0  0  0  0  0  0  0  0  0
  -30.6160  -32.7390   24.7910 C   0  0  1  0  0  0  0  0  0  0  0  0
  -30.9830  -32.6890   26.2930 C   0  0  0  0  0  1  0  0  0  0  0  0
  -31.1160  -31.4300   24.1370 C   0  0  0  0  0  1  0  0  0  0  0  0
  -31.4180  -33.8930   24.1410 C   0  0  0  0  0  1  0  0  0  0  0  0
  1  8  2  0
  3  6  1  0
  4  2  1  0
  5  3  1  0
  5  7  1  0
  6  1  1  0
  6  2  1  0
  7  9  1  1
  7  4  1  0
 10  7  1  0
 11 12  1  0
 11 10  1  0
 13 14  1  0
 13 12  1  0
 15 14  1  0
 15 16  1  0
 17 16  1  0
 18 17  1  0
 19 18  1  0
 20 19  1  0
 20 21  1  0
 21 23  1  0
 22 21  1  0
 24 21  1  0
 25 37  1  0
 25 31  1  0
 26 31  1  0
 26 27  1  0
 27 28  1  0
 28 29  1  0
 29 30  1  0
 29 41  1  0
 31 30  1  0
 32 25  2  0
 33 34  1  0
 34 36  1  0
 35 33  1  0
 35 37  1  0
 36 24  1  0
 37 36  1  0
 38 39  2  0
 39 58  1  0
 40 39  1  0
 40 43  1  0
 41 42  1  0
 41 38  1  0
 42 40  2  0
 43 48  1  0
 44 43  2  0
 44 45  1  0
 45 46  2  0
 46 47  1  0
 46 49  1  0
 48 47  2  0
 49 50  1  0
 50 51  1  0
 51 52  2  0
 53 52  1  0
 53 57  1  0
 54 53  2  0
 55 50  2  0
 55 54  1  0
 56 55  1  0
 58 60  2  0
 58 59  1  0
 59 62  1  0
 61 59  1  0
 63 38  1  0
 63 64  1  0
 65 63  1  0
 66 67  1  0
 66  1  1  0
 68 67  1  0
 68 69  1  0
 69 70  1  0
 70 71  1  0
 71 72  1  0
 72 73  1  0
 73 75  1  0
 74 85  2  0
 75 80  2  0
 75 81  1  0
 76 86  1  0
 77 83  1  0
 78 84  1  0
 79 78  1  0
 79 77  2  0
 80 79  1  0
 81 82  2  0
 82 77  1  0
 83 76  1  0
 84 74  1  0
 84 76  1  0
 86 87  1  0
 87 89  1  0
 88 86  2  0
 90 99  1  0
 91 87  1  0
 91 95  1  0
 92 91  1  0
 92 93  1  0
 93 94  1  0
 94 90  1  0
 95 96  1  0
 95 90  2  0
 96 97  2  0
 97 98  1  0
 99 98  2  0
100110  1  0
100101  1  0
100 74  1  0
101104  1  0
102106  1  0
102101  1  0
103102  2  0
106105  1  0
107108  1  0
108109  1  0
108106  1  0
110111  1  1
112110  1  0
113110  1  0
M  ISO  4  25 100  37 100  72 101  73 101
M  END
>  <TORSDO>  (57) 
F 36

>  <SCORE>  (57) 
13.198

>  <name>  (57) 
59

>  <ligand_id>  (57) 
59

>  <original_smiles>  (57) 
[H]c1c([H])c([H])c2c(c1[H])C([H])([H])C([H])([H])C([H])([H])C2([H])N([H])C(=O)C1([H])N(C(=O)C([H])(N([H])C(=O)C([H])(N([H])C([H])([H])[H])C([H])([H])[H])C(C([H])([H])[H])(C([H])([H])[H])C([H])([H])[H])C([H])([H])c2c([H])c(OC([H])([H])C([H])([H])OC([H])([H])C([H])([H])OC([H])([H])C(=O)N3C([H])([H])C([H])([H])[N+]([H])(C([H])([H])C([H])([H])OC([H])([H])C([H])([H])OC([H])([H])C([H])([H])OC([H])([H])C([H])([H])[N+]([H])([H])C([H])([H])C4([H])N(C(=O)N5C([H])([H])C([H])([H])C([H])([H])C([H])(n6nc(-c7c([H])c([H])c(Oc8c([H])c([H])c(F)c([H])c8F)c([H])c7[H])c(C(=O)N([H])[H])c6N([H])[H])C5([H])[H])C([H])([H])C([H])([H])C4([H])[H])C([H])([H])C3([H])[H])c([H])c([H])c2C1([H])[H]

>  <smiles>  (57) 
[H]c1c([H])c([H])c2c(c1[H])C([H])([H])C([H])([H])C([H])([H])C2([H])N([H])C(=O)C1([H])N(C(=O)C([H])(N([H])C(=O)C([H])(N([H])C([H])([H])[H])C([H])([H])[H])C(C([H])([H])[H])(C([H])([H])[H])C([H])([H])[H])C([H])([H])c2c([H])c(OC([H])([H])C([H])([H])OC([H])([H])C([H])([H])OC([H])([H])C(=O)N3C([H])([H])C([H])([H])[N+]([H])(C([H])([H])C([H])([H])OC([H])([H])C([H])([H])OC([H])([H])C([H])([H])OC([H])([H])C([H])([H])[N+]([H])([H])C([H])([H])C4([H])N(C(=O)N5C([H])([H])C([H])([H])C([H])([H])C([H])(n6nc(-c7c([H])c([H])c(Oc8c([H])c([H])c(F)c([H])c8F)c([H])c7[H])c(C(=O)N([H])[H])c6N([H])[H])C5([H])[H])C([H])([H])C([H])([H])C4([H])[H])C([H])([H])C3([H])[H])c([H])c([H])c2C1([H])[H]

$$$$
60:0:0
     RDKit          3D

103111  0  0  1  0  0  0  0  0999 V2000
  -31.0310  -20.6620   15.9950 C   0  0  0  0  0  2  0  0  0  0  0  0
  -28.7030  -18.9950   17.2340 C   0  0  0  0  0  0  0  0  0  0  0  0
  -30.0160  -18.4540   13.8110 C   0  0  0  0  0  2  0  0  0  0  0  0
  -29.8270  -19.9650   13.8560 C   0  0  0  0  0  2  0  0  0  0  0  0
  -29.2420  -17.9310   15.0200 C   0  0  0  0  0  2  0  0  0  0  0  0
  -29.6750  -20.2790   15.3490 C   0  0  0  0  0  3  0  0  0  0  0  0
  -29.1620  -19.0490   15.9610 N   0  0  0  0  0  0  0  0  0  0  0  0
  -28.4550  -20.0180   17.8850 O   0  0  0  0  0  0  0  0  0  0  0  0
  -28.5290  -17.6250   17.9100 C   0  0  0  0  0  2  0  0  0  0  0  0
  -30.0160  -18.0070   19.8900 C   0  0  0  0  0  0  0  0  0  0  0  0
  -28.8500  -17.6400   19.3380 N   0  0  0  0  0  0  0  0  0  0  0  0
  -30.9620  -18.4650   19.2460 O   0  0  0  0  0  0  0  0  0  0  0  0
  -28.1350  -17.3200   19.9700 H   0  0  0  0  0  0  0  0  0  0  0  0
  -30.1730  -17.6940   21.3830 C   0  0  0  0  0  2  0  0  0  0  0  0
  -30.6590  -15.2960   21.1690 C   0  0  0  0  0  0  0  0  0  0  0  0
  -30.5840  -13.0850   20.1090 C   0  0  0  0  0  2  0  0  0  0  0  0
  -29.7980  -13.2000   18.7900 C   0  0  0  0  0  2  0  0  0  0  0  0
  -28.2900  -12.9930   19.0430 C   0  0  0  0  0  2  0  0  0  0  0  0
  -27.7470  -13.8570   20.2160 C   0  0  0  0  0  3  0  0  0  0  0  0
  -28.6740  -13.7670   21.4490 C   0  0  0  0  0  2  0  0  0  0  0  0
  -30.0480  -14.0950   21.0290 N   0  0  0  0  0  0  0  0  0  0  0  0
  -31.7970  -15.5350   20.7600 O   0  0  0  0  0  0  0  0  0  0  0  0
  -29.8750  -16.2810   21.6240 N   0  0  0  0  0  0  0  0  0  0  0  0
  -28.9370  -16.0340   21.8980 H   0  0  0  0  0  0  0  0  0  0  0  0
  -25.2620  -14.3400   20.7130 C   0  0  0  0  0  0  0  0  0  0  0  0
  -24.2010  -13.5140   20.9680 C   0  0  0  0  0  0  0  0  0  0  0  0
  -24.7190  -12.1860   20.9250 C   0  0  0  0  0  0  0  0  0  0  0  0
  -26.3630  -13.5130   20.5510 N   0  0  0  0  0  0  0  0  0  0  0  0
  -26.0320  -12.2060   20.7300 N   0  0  0  0  0  0  0  0  0  0  0  0
  -24.0300  -10.8910   21.0040 C   0  0  0  0  0  0  0  0  0  0  0  0
  -24.4070   -9.9150   21.9500 C   0  0  0  0  0  3  0  0  0  0  0  0
  -23.7200   -8.6840   22.0170 C   0  0  0  0  0  3  0  0  0  0  0  0
  -22.6440   -8.4220   21.1380 C   0  0  0  0  0  0  0  0  0  0  0  0
  -22.2870   -9.3880   20.1820 C   0  0  0  0  0  3  0  0  0  0  0  0
  -22.9750  -10.6110   20.1120 C   0  0  0  0  0  3  0  0  0  0  0  0
  -21.9350   -7.2450   21.1160 O   0  0  0  0  0  0  0  0  0  0  0  0
  -21.7770   -6.4780   22.2410 C   0  0  0  0  0  0  0  0  0  0  0  0
  -21.1590   -6.9800   23.4070 C   0  0  0  0  0  3  0  0  0  0  0  0
  -20.9550   -6.1340   24.5160 C   0  0  0  0  0  3  0  0  0  0  0  0
  -21.3530   -4.7860   24.4570 C   0  0  0  0  0  0  0  0  0  0  0  0
  -21.9630   -4.2830   23.2950 C   0  0  0  0  0  3  0  0  0  0  0  0
  -22.1710   -5.1250   22.1890 C   0  0  0  0  0  0  0  0  0  0  0  0
  -22.7410   -4.6300   21.0640 F   0  0  0  0  0  0  0  0  0  0  0  0
  -21.1490   -3.9730   25.5210 F   0  0  0  0  0  0  0  0  0  0  0  0
  -22.7660  -13.9300   21.1370 C   0  0  0  0  0  0  0  0  0  0  0  0
  -21.9910  -13.1760   21.9080 N   0  0  0  0  0  0  0  0  0  0  0  0
  -22.3360  -14.9640   20.6280 O   0  0  0  0  0  0  0  0  0  0  0  0
  -22.3380  -12.3340   22.3370 H   0  0  0  0  0  0  0  0  0  0  0  0
  -21.0340  -13.4550   22.0730 H   0  0  0  0  0  0  0  0  0  0  0  0
  -25.3600  -15.7250   20.5890 N   0  0  0  0  0  0  0  0  0  0  0  0
  -24.5080  -16.2770   20.5660 H   0  0  0  0  0  0  0  0  0  0  0  0
  -26.1730  -16.2450   20.2960 H   0  0  0  0  0  0  0  0  0  0  0  0
  -31.2050  -22.1720   16.1820 C   0  0  0  0  0  2  0  0  0  0  0  0
  -32.2580  -22.4960   17.2510 C   0  0  0  0  0  2  0  0  0  0  0  0
  -32.0610  -23.8980   17.8350 C   0  0  0  0  0  2  0  0  0  0  0  0
  -32.8670  -24.1120   19.1220 C   0  0  0  0  0  2  0  0  0  0  0  0
  -32.5460  -25.4520   19.8010 C   0  0  0  0  0  2  0  0  0  0  0  0
  -31.1410  -25.5110   20.2560 N   0  0  0  0  0  4  0  0  0  0  0  0
  -30.9360  -24.6820   20.7920 H   0  0  0  0  0  0  0  0  0  0  0  0
  -30.5330  -25.5000   19.4490 H   0  0  0  0  0  0  0  0  0  0  0  0
  -30.8110  -26.6990   21.0660 C   0  0  0  0  0  2  0  0  0  0  0  0
  -29.3530  -26.6600   21.5260 C   0  0  0  0  0  2  0  0  0  0  0  0
  -28.5350  -26.6140   20.3560 O   0  0  0  0  0  0  0  0  0  0  0  0
  -24.5540  -31.7750   23.2380 C   0  0  0  0  0  0  0  0  0  0  0  0
  -27.3790  -27.3600   20.3500 C   0  0  0  0  0  0  0  0  0  0  0  0
  -23.4280  -30.3440   21.5600 C   0  0  0  0  0  3  0  0  0  0  0  0
  -24.9570  -28.8020   20.2260 C   0  0  0  0  0  0  0  0  0  0  0  0
  -25.9480  -30.7430   21.4540 C   0  0  0  0  0  2  0  0  0  0  0  0
  -26.0760  -29.3640   20.8500 C   0  0  0  0  0  0  0  0  0  0  0  0
  -27.2900  -28.6560   20.9060 C   0  0  0  0  0  3  0  0  0  0  0  0
  -26.2470  -26.8060   19.7170 C   0  0  0  0  0  3  0  0  0  0  0  0
  -25.0350  -27.5180   19.6570 C   0  0  0  0  0  3  0  0  0  0  0  0
  -23.7020  -29.6420   20.2010 C   0  0  0  0  0  2  0  0  0  0  0  0
  -24.6600  -30.9670   22.1460 N   0  0  0  0  0  0  0  0  0  0  0  0
  -23.4490  -32.0400   23.7330 O   0  0  0  0  0  0  0  0  0  0  0  0
  -22.7460  -29.3280   22.5030 C   0  0  0  0  0  0  0  0  0  0  0  0
  -21.4280  -29.1390   22.3240 N   0  0  0  0  0  0  0  0  0  0  0  0
  -23.4010  -28.7110   23.3480 O   0  0  0  0  0  0  0  0  0  0  0  0
  -20.9580  -29.6930   21.6220 H   0  0  0  0  0  0  0  0  0  0  0  0
  -18.0420  -27.9490   22.6990 C   0  0  0  0  0  0  0  0  0  0  0  0
  -20.5870  -28.2030   23.0670 C   0  0  0  0  0  3  0  0  0  0  0  0
  -20.7100  -26.7690   22.5000 C   0  0  0  0  0  2  0  0  0  0  0  0
  -19.6490  -26.4430   21.4460 C   0  0  0  0  0  2  0  0  0  0  0  0
  -18.2440  -26.5940   22.0370 C   0  0  0  0  0  2  0  0  0  0  0  0
  -19.1440  -28.7100   23.1690 C   0  0  0  0  0  0  0  0  0  0  0  0
  -18.9090  -29.9780   23.7430 C   0  0  0  0  0  3  0  0  0  0  0  0
  -17.5990  -30.4840   23.8540 C   0  0  0  0  0  3  0  0  0  0  0  0
  -16.5090  -29.7190   23.4020 C   0  0  0  0  0  3  0  0  0  0  0  0
  -16.7310  -28.4540   22.8300 C   0  0  0  0  0  3  0  0  0  0  0  0
  -25.8100  -32.4220   23.9020 C   0  0  0  0  0  3  0  0  0  0  0  0
  -25.4900  -33.8280   24.1800 N   0  0  0  0  0  0  0  0  0  0  0  0
  -25.8700  -34.8590   23.4130 C   0  0  0  0  0  0  0  0  0  0  0  0
  -26.5980  -34.7260   22.4260 O   0  0  0  0  0  0  0  0  0  0  0  0
  -24.8550  -34.0050   24.9450 H   0  0  0  0  0  0  0  0  0  0  0  0
  -24.1800  -36.6460   22.8980 C   0  0  0  0  0  1  0  0  0  0  0  0
  -25.3600  -36.2590   23.8040 C   0  0  0  0  0  3  0  0  0  0  0  0
  -27.4380  -37.1530   24.7600 C   0  0  0  0  0  1  0  0  0  0  0  0
  -26.4060  -37.3060   23.7380 N   0  0  0  0  0  0  0  0  0  0  0  0
  -25.9940  -38.2300   23.8400 H   0  0  0  0  0  0  0  0  0  0  0  0
  -26.2680  -31.6820   25.2180 C   0  0  1  0  0  0  0  0  0  0  0  0
  -25.1270  -31.4610   26.2370 C   0  0  0  0  0  1  0  0  0  0  0  0
  -26.8760  -30.3010   24.8780 C   0  0  0  0  0  1  0  0  0  0  0  0
  -27.3800  -32.4970   25.9190 C   0  0  0  0  0  1  0  0  0  0  0  0
  1 53  1  0
  2  8  2  0
  2  9  1  0
  3  4  1  0
  3  5  1  0
  4  6  1  0
  5  7  1  0
  6  7  1  0
  6  1  1  0
  7  2  1  0
  9 11  1  0
 10 14  1  0
 11 10  1  0
 11 13  1  0
 12 10  2  0
 14 23  1  0
 15 23  1  0
 16 21  1  0
 17 18  1  0
 17 16  1  0
 19 18  1  0
 19 28  1  0
 19 20  1  0
 21 15  1  0
 21 20  1  0
 22 15  2  0
 23 24  1  0
 25 26  2  0
 26 45  1  0
 27 26  1  0
 27 30  1  0
 28 25  1  0
 28 29  1  0
 29 27  2  0
 30 31  1  0
 31 32  2  0
 33 32  1  0
 34 33  2  0
 35 34  1  0
 35 30  2  0
 36 33  1  0
 36 37  1  0
 37 38  1  0
 38 39  2  0
 40 39  1  0
 40 44  1  0
 41 40  2  0
 42 37  2  0
 42 41  1  0
 43 42  1  0
 45 46  1  0
 46 49  1  0
 46 48  1  0
 47 45  2  0
 50 25  1  0
 51 50  1  0
 52 50  1  0
 53 54  1  0
 54 55  1  0
 55 56  1  0
 56 57  1  0
 57 58  1  0
 58 59  1  0
 58 61  1  0
 60 58  1  0
 61 62  1  0
 63 62  1  0
 64 75  2  0
 65 63  1  0
 65 70  1  0
 66 74  1  0
 66 76  1  0
 67 69  1  0
 68 74  1  0
 69 70  2  0
 69 68  1  0
 71 65  2  0
 72 71  1  0
 72 67  2  0
 73 67  1  0
 73 66  1  0
 74 64  1  0
 76 78  2  0
 77 76  1  0
 79 77  1  0
 80 89  2  0
 80 85  1  0
 81 77  1  0
 81 85  1  0
 82 81  1  0
 83 84  1  0
 83 82  1  0
 84 80  1  0
 85 86  2  0
 86 87  1  0
 88 87  2  0
 89 88  1  0
 90 64  1  0
 90 91  1  0
 90100  1  0
 91 94  1  0
 92 96  1  0
 92 91  1  0
 93 92  2  0
 96 95  1  0
 98 96  1  0
 98 99  1  0
 98 97  1  0
100103  1  1
100101  1  0
102100  1  0
M  ISO  4  15 100  23 100  62 101  63 101
M  END
>  <TORSDO>  (58) 
F 28

>  <SCORE>  (58) 
-10.462

>  <name>  (58) 
60

>  <ligand_id>  (58) 
60

>  <original_smiles>  (58) 
[H]c1c([H])c([H])c2c(c1[H])C([H])([H])C([H])([H])C([H])([H])C2([H])N([H])C(=O)C1([H])N(C(=O)C([H])(N([H])C(=O)C([H])(N([H])C([H])([H])[H])C([H])([H])[H])C(C([H])([H])[H])(C([H])([H])[H])C([H])([H])[H])C([H])([H])c2c([H])c(OC([H])([H])C([H])([H])[N+]([H])([H])C([H])([H])C([H])([H])C([H])([H])C([H])([H])C([H])([H])C([H])([H])C3([H])N(C(=O)C([H])([H])N([H])C(=O)C([H])([H])N([H])C(=O)N4C([H])([H])C([H])([H])C([H])([H])C([H])(n5nc(-c6c([H])c([H])c(Oc7c([H])c([H])c(F)c([H])c7F)c([H])c6[H])c(C(=O)N([H])[H])c5N([H])[H])C4([H])[H])C([H])([H])C([H])([H])C3([H])[H])c([H])c([H])c2C1([H])[H]

>  <smiles>  (58) 
[H]c1c([H])c([H])c2c(c1[H])C([H])([H])C([H])([H])C([H])([H])C2([H])N([H])C(=O)C1([H])N(C(=O)C([H])(N([H])C(=O)C([H])(N([H])C([H])([H])[H])C([H])([H])[H])C(C([H])([H])[H])(C([H])([H])[H])C([H])([H])[H])C([H])([H])c2c([H])c(OC([H])([H])C([H])([H])[N+]([H])([H])C([H])([H])C([H])([H])C([H])([H])C([H])([H])C([H])([H])C([H])([H])C3([H])N(C(=O)C([H])([H])N([H])C(=O)C([H])([H])N([H])C(=O)N4C([H])([H])C([H])([H])C([H])([H])C([H])(n5nc(-c6c([H])c([H])c(Oc7c([H])c([H])c(F)c([H])c7F)c([H])c6[H])c(C(=O)N([H])[H])c5N([H])[H])C4([H])[H])C([H])([H])C([H])([H])C3([H])[H])c([H])c([H])c2C1([H])[H]

$$$$
61:0:0
     RDKit          3D

105114  0  0  1  0  0  0  0  0999 V2000
  -28.5040  -15.2600   23.8720 C   0  0  0  0  0  3  0  0  0  0  0  0
  -29.0520  -16.4210   23.2920 C   0  0  0  0  0  3  0  0  0  0  0  0
  -28.8620  -13.9880   23.3850 C   0  0  0  0  0  3  0  0  0  0  0  0
  -29.9650  -16.3030   22.2280 C   0  0  0  0  0  3  0  0  0  0  0  0
  -31.1550  -13.2240   20.6550 C   0  0  0  0  0  3  0  0  0  0  0  0
  -29.7680  -13.8370   22.3070 C   0  0  0  0  0  0  0  0  0  0  0  0
  -30.3290  -12.7050   21.6230 C   0  0  0  0  0  0  0  0  0  0  0  0
  -30.3110  -15.0290   21.7360 C   0  0  0  0  0  0  0  0  0  0  0  0
  -31.1850  -14.6150   20.7330 N   0  0  0  0  0  0  0  0  0  0  0  0
  -30.1260  -11.2450   21.9510 C   0  0  0  0  0  2  0  0  0  0  0  0
  -29.3210  -10.5420   20.9310 N   0  0  0  0  0  4  0  0  0  0  0  0
  -28.7330  -11.2120   20.4660 H   0  0  0  0  0  0  0  0  0  0  0  0
  -28.7300   -9.8770   21.4020 H   0  0  0  0  0  0  0  0  0  0  0  0
  -30.0910   -9.8190   19.8970 C   0  0  0  0  0  2  0  0  0  0  0  0
  -29.5700  -10.1230   18.4680 C   0  0  0  0  0  2  0  0  0  0  0  0
  -29.0870  -13.1180   18.0780 C   0  0  1  0  0  0  0  0  0  0  0  0
  -29.3840  -12.5970   16.5480 C   0  0  0  0  0  2  0  0  0  0  0  0
  -27.7140  -12.8040   16.0980 C   0  0  0  0  0  2  0  0  0  0  0  0
  -26.5370  -12.6650   17.2520 C   0  0  0  0  0  2  0  0  0  0  0  0
  -26.7540  -13.2110   18.8090 C   0  0  0  0  0  3  0  0  0  0  0  0
  -28.3620  -13.1810   19.5350 C   0  0  0  0  0  2  0  0  0  0  0  0
  -29.6960  -12.5660   18.3980 N   0  0  0  0  0  2  0  0  0  0  0  0
  -29.9770  -14.1250   18.0980 O   0  0  0  0  0  1  0  0  0  0  0  0
  -28.8200  -11.4470   18.3110 N   0  0  0  0  0  0  0  0  0  0  0  0
  -27.8350  -11.2730   18.1550 H   0  0  0  0  0  0  0  0  0  0  0  0
  -24.6890  -13.4940   20.2890 C   0  0  0  0  0  0  0  0  0  0  0  0
  -23.8290  -12.6140   20.8850 C   0  0  0  0  0  0  0  0  0  0  0  0
  -24.3210  -11.3070   20.5790 C   0  0  0  0  0  0  0  0  0  0  0  0
  -25.6640  -12.7330   19.6710 N   0  0  0  0  0  0  0  0  0  0  0  0
  -25.4630  -11.4000   19.8910 N   0  0  0  0  0  0  0  0  0  0  0  0
  -23.7320   -9.9850   20.8710 C   0  0  0  0  0  0  0  0  0  0  0  0
  -24.2140   -9.1740   21.9230 C   0  0  0  0  0  3  0  0  0  0  0  0
  -23.6110   -7.9290   22.2100 C   0  0  0  0  0  3  0  0  0  0  0  0
  -22.5080   -7.4790   21.4450 C   0  0  0  0  0  0  0  0  0  0  0  0
  -22.0400   -8.2790   20.3880 C   0  0  0  0  0  3  0  0  0  0  0  0
  -22.6460   -9.5150   20.1010 C   0  0  0  0  0  3  0  0  0  0  0  0
  -21.8780   -6.2710   21.6330 O   0  0  0  0  0  0  0  0  0  0  0  0
  -21.6680   -5.7510   22.8850 C   0  0  0  0  0  0  0  0  0  0  0  0
  -20.8510   -6.4030   23.8350 C   0  0  0  0  0  3  0  0  0  0  0  0
  -20.6060   -5.8040   25.0870 C   0  0  0  0  0  3  0  0  0  0  0  0
  -21.1670   -4.5480   25.3890 C   0  0  0  0  0  0  0  0  0  0  0  0
  -21.9730   -3.8920   24.4420 C   0  0  0  0  0  3  0  0  0  0  0  0
  -22.2200   -4.4920   23.1940 C   0  0  0  0  0  0  0  0  0  0  0  0
  -22.9800   -3.8430   22.2800 F   0  0  0  0  0  0  0  0  0  0  0  0
  -20.9260   -3.9680   26.5890 F   0  0  0  0  0  0  0  0  0  0  0  0
  -22.5710  -12.9720   21.6220 C   0  0  0  0  0  0  0  0  0  0  0  0
  -22.2110  -12.1920   22.6340 N   0  0  0  0  0  0  0  0  0  0  0  0
  -21.9290  -13.9810   21.3340 O   0  0  0  0  0  0  0  0  0  0  0  0
  -22.7520  -11.3790   22.8860 H   0  0  0  0  0  0  0  0  0  0  0  0
  -21.3820  -12.4110   23.1690 H   0  0  0  0  0  0  0  0  0  0  0  0
  -24.7160  -14.8820   20.1960 N   0  0  0  0  0  0  0  0  0  0  0  0
  -23.9960  -15.4640   20.6090 H   0  0  0  0  0  0  0  0  0  0  0  0
  -25.4220  -15.4160   19.7050 H   0  0  0  0  0  0  0  0  0  0  0  0
  -32.0900  -15.4640   19.9550 C   0  0  0  0  0  2  0  0  0  0  0  0
  -31.4420  -16.3690   18.8910 C   0  0  0  0  0  0  0  0  0  0  0  0
  -32.2940  -17.1190   18.1740 N   0  0  0  0  0  0  0  0  0  0  0  0
  -30.2220  -16.3840   18.7070 O   0  0  0  0  0  0  0  0  0  0  0  0
  -33.2770  -17.0280   18.4000 H   0  0  0  0  0  0  0  0  0  0  0  0
  -31.9690  -17.9780   17.0330 C   0  0  0  0  0  2  0  0  0  0  0  0
  -32.1340  -19.4770   17.3560 C   0  0  0  0  0  2  0  0  0  0  0  0
  -32.0350  -20.3650   16.1020 C   0  0  0  0  0  2  0  0  0  0  0  0
  -31.7820  -21.7200   16.4630 O   0  0  0  0  0  0  0  0  0  0  0  0
  -31.8190  -22.6100   15.3450 C   0  0  0  0  0  2  0  0  0  0  0  0
  -30.6430  -23.6000   15.3950 C   0  0  0  0  0  2  0  0  0  0  0  0
  -30.7850  -24.5540   16.4510 O   0  0  0  0  0  0  0  0  0  0  0  0
  -27.6020  -27.6010   22.0410 C   0  0  0  0  0  0  0  0  0  0  0  0
  -29.6400  -25.1730   16.9200 C   0  0  0  0  0  0  0  0  0  0  0  0
  -26.1520  -27.1840   20.0810 C   0  0  0  0  0  3  0  0  0  0  0  0
  -27.3550  -26.5040   17.9390 C   0  0  0  0  0  0  0  0  0  0  0  0
  -28.6670  -27.5550   19.7890 C   0  0  0  0  0  2  0  0  0  0  0  0
  -28.5950  -26.6610   18.5680 C   0  0  0  0  0  0  0  0  0  0  0  0
  -29.7370  -25.9970   18.0640 C   0  0  0  0  0  3  0  0  0  0  0  0
  -28.3730  -25.0220   16.3040 C   0  0  0  0  0  3  0  0  0  0  0  0
  -27.2370  -25.6800   16.8080 C   0  0  0  0  0  3  0  0  0  0  0  0
  -26.1830  -27.2520   18.5320 C   0  0  0  0  0  2  0  0  0  0  0  0
  -27.4990  -27.4320   20.6930 N   0  0  0  0  0  0  0  0  0  0  0  0
  -26.5980  -27.5950   22.7670 O   0  0  0  0  0  0  0  0  0  0  0  0
  -25.5270  -25.8340   20.5040 C   0  0  0  0  0  0  0  0  0  0  0  0
  -24.2960  -25.5740   20.0340 N   0  0  0  0  0  0  0  0  0  0  0  0
  -26.1520  -25.0410   21.2110 O   0  0  0  0  0  0  0  0  0  0  0  0
  -23.8440  -26.2810   19.4690 H   0  0  0  0  0  0  0  0  0  0  0  0
  -21.3920  -23.7110   18.9620 C   0  0  0  0  0  0  0  0  0  0  0  0
  -23.5270  -24.3530   20.2700 C   0  0  0  0  0  3  0  0  0  0  0  0
  -24.1890  -23.1350   19.5830 C   0  0  0  0  0  2  0  0  0  0  0  0
  -23.6440  -22.8640   18.1770 C   0  0  0  0  0  2  0  0  0  0  0  0
  -22.1360  -22.6070   18.2290 C   0  0  0  0  0  2  0  0  0  0  0  0
  -22.0490  -24.5400   19.9100 C   0  0  0  0  0  0  0  0  0  0  0  0
  -21.3200  -25.5730   20.5380 C   0  0  0  0  0  3  0  0  0  0  0  0
  -19.9620  -25.7830   20.2340 C   0  0  0  0  0  3  0  0  0  0  0  0
  -19.3120  -24.9490   19.3080 C   0  0  0  0  0  3  0  0  0  0  0  0
  -20.0250  -23.9130   18.6780 C   0  0  0  0  0  3  0  0  0  0  0  0
  -28.9820  -27.8350   22.7320 C   0  0  0  0  0  3  0  0  0  0  0  0
  -28.8430  -29.0030   23.6100 N   0  0  0  0  0  0  0  0  0  0  0  0
  -29.2790  -30.2330   23.3120 C   0  0  0  0  0  0  0  0  0  0  0  0
  -29.9130  -30.4890   22.2840 O   0  0  0  0  0  0  0  0  0  0  0  0
  -28.2850  -28.8800   24.4420 H   0  0  0  0  0  0  0  0  0  0  0  0
  -27.7770  -32.1920   23.7970 C   0  0  0  0  0  1  0  0  0  0  0  0
  -28.9630  -31.3610   24.3130 C   0  0  0  0  0  3  0  0  0  0  0  0
  -31.1860  -31.6020   25.3300 C   0  0  0  0  0  1  0  0  0  0  0  0
  -30.1140  -32.2510   24.5790 N   0  0  0  0  0  0  0  0  0  0  0  0
  -29.8210  -33.0770   25.0950 H   0  0  0  0  0  0  0  0  0  0  0  0
  -29.4910  -26.5810   23.5460 C   0  0  1  0  0  0  0  0  0  0  0  0
  -28.4540  -26.0280   24.5500 C   0  0  0  0  0  1  0  0  0  0  0  0
  -29.8800  -25.4310   22.5880 C   0  0  0  0  0  1  0  0  0  0  0  0
  -30.7690  -26.9520   24.3360 C   0  0  0  0  0  1  0  0  0  0  0  0
  2  1  2  0
  3  1  1  0
  4  2  1  0
  5  9  1  0
  5  7  2  0
  6  3  2  0
  7 10  1  0
  7  6  1  0
  8  4  2  0
  8  6  1  0
  9  8  1  0
 11 13  1  0
 11 10  1  0
 12 11  1  0
 14 11  1  0
 15 14  1  0
 16 23  1  6
 16 22  1  0
 16 21  1  0
 17 16  1  0
 18 17  1  0
 18 19  1  0
 20 19  1  0
 20 21  1  0
 20 29  1  0
 24 22  1  0
 24 15  1  0
 25 24  1  0
 26 27  2  0
 27 46  1  0
 28 31  1  0
 28 27  1  0
 29 30  1  0
 29 26  1  0
 30 28  2  0
 31 32  1  0
 32 33  2  0
 34 37  1  0
 34 33  1  0
 35 34  2  0
 36 35  1  0
 36 31  2  0
 37 38  1  0
 38 43  2  0
 38 39  1  0
 39 40  2  0
 40 41  1  0
 41 45  1  0
 42 41  2  0
 43 42  1  0
 44 43  1  0
 46 47  1  0
 47 49  1  0
 47 50  1  0
 48 46  2  0
 51 26  1  0
 51 52  1  0
 53 51  1  0
 54  9  1  0
 55 54  1  0
 56 58  1  0
 56 55  1  0
 57 55  2  0
 59 60  1  0
 59 56  1  0
 61 62  1  0
 61 60  1  0
 63 64  1  0
 63 62  1  0
 64 65  1  0
 65 67  1  0
 66 77  2  0
 67 72  1  0
 68 78  1  0
 68 76  1  0
 69 75  1  0
 69 71  1  0
 70 76  1  0
 71 70  1  0
 72 71  2  0
 73 74  1  0
 73 67  2  0
 74 69  2  0
 75 68  1  0
 76 66  1  0
 78 80  2  0
 79 78  1  0
 81 79  1  0
 82 87  1  0
 83 79  1  0
 84 83  1  0
 85 86  1  0
 85 84  1  0
 86 82  1  0
 87 83  1  0
 87 88  2  0
 89 88  1  0
 90 89  2  0
 91 82  2  0
 91 90  1  0
 92 66  1  0
 92102  1  0
 92 93  1  0
 93 96  1  0
 94 93  1  0
 94 98  1  0
 95 94  2  0
 98 97  1  0
 98100  1  0
100101  1  0
100 99  1  0
102105  1  1
102103  1  0
104102  1  0
M  ISO  4  16 100  24 100  64 101  65 101
M  END
>  <TORSDO>  (59) 
F 28

>  <SCORE>  (59) 
19.205

>  <name>  (59) 
61

>  <ligand_id>  (59) 
61

>  <original_smiles>  (59) 
[H]c1c([H])c([H])c2c(c1[H])C([H])([H])C([H])([H])C([H])([H])C2([H])N([H])C(=O)C1([H])N(C(=O)C([H])(N([H])C(=O)C([H])(N([H])C([H])([H])[H])C([H])([H])[H])C(C([H])([H])[H])(C([H])([H])[H])C([H])([H])[H])C([H])([H])c2c([H])c(OC([H])([H])C([H])([H])OC([H])([H])C([H])([H])C([H])([H])N([H])C(=O)C([H])([H])n3c([H])c(C([H])([H])[N+]([H])([H])C([H])([H])C([H])([H])N([H])C(=O)N4C([H])([H])C([H])([H])C([H])([H])C([H])(n5nc(-c6c([H])c([H])c(Oc7c([H])c([H])c(F)c([H])c7F)c([H])c6[H])c(C(=O)N([H])[H])c5N([H])[H])C4([H])[H])c4c([H])c([H])c([H])c([H])c43)c([H])c([H])c2C1([H])[H]

>  <smiles>  (59) 
[H]c1c([H])c([H])c2c(c1[H])C([H])([H])C([H])([H])C([H])([H])C2([H])N([H])C(=O)C1([H])N(C(=O)C([H])(N([H])C(=O)C([H])(N([H])C([H])([H])[H])C([H])([H])[H])C(C([H])([H])[H])(C([H])([H])[H])C([H])([H])[H])C([H])([H])c2c([H])c(OC([H])([H])C([H])([H])OC([H])([H])C([H])([H])C([H])([H])N([H])C(=O)C([H])([H])n3c([H])c(C([H])([H])[N+]([H])([H])C([H])([H])C([H])([H])N([H])C(=O)N4C([H])([H])C([H])([H])C([H])([H])C([H])(n5nc(-c6c([H])c([H])c(Oc7c([H])c([H])c(F)c([H])c7F)c([H])c6[H])c(C(=O)N([H])[H])c5N([H])[H])C4([H])[H])c4c([H])c([H])c([H])c([H])c43)c([H])c([H])c2C1([H])[H]

$$$$
62:0:0
     RDKit          3D

119126  0  0  1  0  0  0  0  0999 V2000
  -26.1060  -20.7810   19.5870 C   0  0  0  0  0  2  0  0  0  0  0  0
  -25.5380  -21.6630   20.7070 C   0  0  0  0  0  2  0  0  0  0  0  0
  -26.4630  -22.8760   20.8650 C   0  0  0  0  0  2  0  0  0  0  0  0
  -25.7840  -24.2430   21.0200 C   0  0  0  0  0  2  0  0  0  0  0  0
  -25.8250  -24.6240   22.5070 C   0  0  0  0  0  2  0  0  0  0  0  0
  -27.0990  -25.3070   23.0260 C   0  0  0  0  0  2  0  0  0  0  0  0
  -26.8170  -26.8060   23.1480 C   0  0  0  0  0  2  0  0  0  0  0  0
  -26.0580  -27.2090   24.3330 N   0  0  0  0  0  0  0  0  0  0  0  0
  -25.1000  -26.8620   24.2660 H   0  0  0  0  0  0  0  0  0  0  0  0
  -26.6510  -27.2580   26.6340 C   0  0  0  0  0  0  0  0  0  0  0  0
  -26.6570  -26.6270   25.4520 N   0  0  0  0  0  0  0  0  0  0  0  0
  -26.5280  -28.4840   26.7330 O   0  0  0  0  0  0  0  0  0  0  0  0
  -26.7680  -25.6220   25.4560 H   0  0  0  0  0  0  0  0  0  0  0  0
  -26.6810  -26.3660   27.8790 C   0  0  0  0  0  2  0  0  0  0  0  0
  -26.3230  -27.1670   29.0110 O   0  0  0  0  0  0  0  0  0  0  0  0
  -26.2300  -26.4230   30.2200 C   0  0  0  0  0  2  0  0  0  0  0  0
  -27.0680  -27.0560   31.3510 C   0  0  0  0  0  2  0  0  0  0  0  0
  -26.8470  -28.5700   31.5430 C   0  0  0  0  0  2  0  0  0  0  0  0
  -28.0500  -29.1840   32.0080 O   0  0  0  0  0  0  0  0  0  0  0  0
  -28.1660  -30.5720   31.6860 C   0  0  0  0  0  2  0  0  0  0  0  0
  -29.5750  -31.0960   32.0600 C   0  0  0  0  0  2  0  0  0  0  0  0
  -29.9590  -32.4370   31.3740 C   0  0  0  0  0  2  0  0  0  0  0  0
  -32.1550  -33.5820   30.8620 C   0  0  0  0  0  0  0  0  0  0  0  0
  -33.5270  -33.7610   28.8120 C   0  0  0  0  0  2  0  0  0  0  0  0
  -32.9570  -34.7740   27.8010 C   0  0  0  0  0  2  0  0  0  0  0  0
  -31.9100  -34.1020   26.8930 C   0  0  0  0  0  2  0  0  0  0  0  0
  -30.8550  -33.3180   27.7060 C   0  0  0  0  0  3  0  0  0  0  0  0
  -31.5650  -32.3740   28.6960 C   0  0  0  0  0  2  0  0  0  0  0  0
  -32.4180  -33.1810   29.5890 N   0  0  0  0  0  0  0  0  0  0  0  0
  -32.8080  -34.4660   31.4320 O   0  0  0  0  0  0  0  0  0  0  0  0
  -31.3650  -32.7940   31.6140 N   0  0  0  0  0  0  0  0  0  0  0  0
  -31.5730  -32.9120   32.5970 H   0  0  0  0  0  0  0  0  0  0  0  0
  -28.5600  -32.6790   26.7400 C   0  0  0  0  0  0  0  0  0  0  0  0
  -28.2030  -31.8380   25.7240 C   0  0  0  0  0  0  0  0  0  0  0  0
  -29.4190  -31.2670   25.2390 C   0  0  0  0  0  0  0  0  0  0  0  0
  -29.9380  -32.5920   26.8360 N   0  0  0  0  0  0  0  0  0  0  0  0
  -30.4470  -31.6880   25.9610 N   0  0  0  0  0  0  0  0  0  0  0  0
  -29.6730  -30.3820   24.0960 C   0  0  0  0  0  0  0  0  0  0  0  0
  -30.2530  -29.1060   24.2700 C   0  0  0  0  0  3  0  0  0  0  0  0
  -30.4750  -28.2630   23.1590 C   0  0  0  0  0  3  0  0  0  0  0  0
  -30.1100  -28.6910   21.8600 C   0  0  0  0  0  0  0  0  0  0  0  0
  -29.5500  -29.9700   21.6910 C   0  0  0  0  0  3  0  0  0  0  0  0
  -29.3330  -30.8090   22.7960 C   0  0  0  0  0  3  0  0  0  0  0  0
  -30.3040  -27.9530   20.7180 O   0  0  0  0  0  0  0  0  0  0  0  0
  -30.2880  -26.5820   20.7360 C   0  0  0  0  0  0  0  0  0  0  0  0
  -29.1850  -25.8560   21.2310 C   0  0  0  0  0  3  0  0  0  0  0  0
  -29.1830  -24.4490   21.1610 C   0  0  0  0  0  3  0  0  0  0  0  0
  -30.2790  -23.7680   20.5960 C   0  0  0  0  0  0  0  0  0  0  0  0
  -31.3770  -24.4930   20.1020 C   0  0  0  0  0  3  0  0  0  0  0  0
  -31.3810  -25.8950   20.1700 C   0  0  0  0  0  0  0  0  0  0  0  0
  -32.4350  -26.5860   19.6760 F   0  0  0  0  0  0  0  0  0  0  0  0
  -30.2770  -22.4170   20.5300 F   0  0  0  0  0  0  0  0  0  0  0  0
  -26.8280  -31.6460   25.1600 C   0  0  0  0  0  0  0  0  0  0  0  0
  -26.5640  -30.4620   24.6280 N   0  0  0  0  0  0  0  0  0  0  0  0
  -25.9810  -32.5330   25.2180 O   0  0  0  0  0  0  0  0  0  0  0  0
  -27.2630  -29.7360   24.6160 H   0  0  0  0  0  0  0  0  0  0  0  0
  -25.6470  -30.2510   24.2520 H   0  0  0  0  0  0  0  0  0  0  0  0
  -27.8290  -33.5230   27.5730 N   0  0  0  0  0  0  0  0  0  0  0  0
  -26.8340  -33.6560   27.4440 H   0  0  0  0  0  0  0  0  0  0  0  0
  -28.2150  -34.1280   28.2860 H   0  0  0  0  0  0  0  0  0  0  0  0
  -26.5020  -19.3500   19.9750 C   0  0  0  0  0  2  0  0  0  0  0  0
  -26.6830  -18.5160   18.6910 C   0  0  0  0  0  2  0  0  0  0  0  0
  -26.4820  -17.0100   18.8590 C   0  0  0  0  0  0  0  0  0  0  0  0
  -26.5810  -16.2710   17.7490 N   0  0  0  0  0  0  0  0  0  0  0  0
  -26.2100  -16.5270   19.9580 O   0  0  0  0  0  0  0  0  0  0  0  0
  -26.7920  -16.7460   16.8800 H   0  0  0  0  0  0  0  0  0  0  0  0
  -26.2710  -14.8480   17.6500 C   0  0  0  0  0  2  0  0  0  0  0  0
  -25.0240  -14.4910   18.4700 C   0  0  0  0  0  0  0  0  0  0  0  0
  -24.7750  -13.1930   18.6690 N   0  0  0  0  0  0  0  0  0  0  0  0
  -24.2940  -15.3780   18.9170 O   0  0  0  0  0  0  0  0  0  0  0  0
  -25.4280  -12.5260   18.2780 H   0  0  0  0  0  0  0  0  0  0  0  0
  -23.6060  -12.6370   19.3570 C   0  0  0  0  0  2  0  0  0  0  0  0
  -23.9170  -11.7370   20.5650 C   0  0  0  0  0  0  0  0  0  0  0  0
  -25.1780  -11.3220   20.7450 N   0  0  0  0  0  0  0  0  0  0  0  0
  -23.0020  -11.4040   21.3230 O   0  0  0  0  0  0  0  0  0  0  0  0
  -25.8740  -11.6730   20.0950 H   0  0  0  0  0  0  0  0  0  0  0  0
  -25.6460  -10.4730   21.8390 C   0  0  0  0  0  2  0  0  0  0  0  0
  -26.7670  -11.1460   22.6550 C   0  0  0  0  0  2  0  0  0  0  0  0
  -28.0100  -10.9020   22.0010 O   0  0  0  0  0  0  0  0  0  0  0  0
  -31.9220   -6.8080   26.3400 C   0  0  0  0  0  0  0  0  0  0  0  0
  -28.6360   -9.6990   22.2330 C   0  0  0  0  0  0  0  0  0  0  0  0
  -31.7360   -6.0390   23.9930 C   0  0  0  0  0  3  0  0  0  0  0  0
  -29.9870   -7.2410   22.5750 C   0  0  0  0  0  0  0  0  0  0  0  0
  -29.8730   -7.4190   25.0690 C   0  0  0  0  0  2  0  0  0  0  0  0
  -29.5730   -7.9760   23.6930 C   0  0  0  0  0  0  0  0  0  0  0  0
  -28.9010   -9.2040   23.5310 C   0  0  0  0  0  3  0  0  0  0  0  0
  -29.0790   -8.9620   21.1150 C   0  0  0  0  0  3  0  0  0  0  0  0
  -29.7460   -7.7330   21.2790 C   0  0  0  0  0  3  0  0  0  0  0  0
  -30.6960   -5.9310   22.8440 C   0  0  0  0  0  2  0  0  0  0  0  0
  -31.2070   -6.7870   25.1800 N   0  0  0  0  0  0  0  0  0  0  0  0
  -32.9840   -6.1790   26.4480 O   0  0  0  0  0  0  0  0  0  0  0  0
  -33.0390   -6.6410   23.4230 C   0  0  0  0  0  0  0  0  0  0  0  0
  -33.9080   -5.7740   22.8780 N   0  0  0  0  0  0  0  0  0  0  0  0
  -33.2390   -7.8580   23.4500 O   0  0  0  0  0  0  0  0  0  0  0  0
  -33.6740   -4.7920   22.9040 H   0  0  0  0  0  0  0  0  0  0  0  0
  -36.8830   -4.3700   21.3900 C   0  0  0  0  0  0  0  0  0  0  0  0
  -35.1810   -6.1170   22.2470 C   0  0  0  0  0  3  0  0  0  0  0  0
  -34.9800   -6.4990   20.7620 C   0  0  0  0  0  2  0  0  0  0  0  0
  -35.1510   -5.3140   19.8060 C   0  0  0  0  0  2  0  0  0  0  0  0
  -36.5500   -4.7080   19.9470 C   0  0  0  0  0  2  0  0  0  0  0  0
  -36.2300   -5.0200   22.4700 C   0  0  0  0  0  0  0  0  0  0  0  0
  -36.5510   -4.6460   23.7920 C   0  0  0  0  0  3  0  0  0  0  0  0
  -37.5080   -3.6440   24.0440 C   0  0  0  0  0  3  0  0  0  0  0  0
  -38.1630   -3.0140   22.9720 C   0  0  0  0  0  3  0  0  0  0  0  0
  -37.8540   -3.3800   21.6500 C   0  0  0  0  0  3  0  0  0  0  0  0
  -31.4290   -7.5990   27.5930 C   0  0  0  0  0  3  0  0  0  0  0  0
  -31.9250   -9.0960   27.6170 C   0  0  1  0  0  0  0  0  0  0  0  0
  -33.4440   -9.2510   27.3770 C   0  0  0  0  0  1  0  0  0  0  0  0
  -31.1860   -9.9320   26.5450 C   0  0  0  0  0  1  0  0  0  0  0  0
  -31.5910   -9.7350   28.9860 C   0  0  0  0  0  1  0  0  0  0  0  0
  -31.8930   -6.8750   28.7830 N   0  0  0  0  0  0  0  0  0  0  0  0
  -31.1380   -6.0370   29.5050 C   0  0  0  0  0  0  0  0  0  0  0  0
  -29.9400   -5.8470   29.2750 O   0  0  0  0  0  0  0  0  0  0  0  0
  -32.8780   -6.9380   28.9950 H   0  0  0  0  0  0  0  0  0  0  0  0
  -32.1410   -3.8500   30.2360 C   0  0  0  0  0  1  0  0  0  0  0  0
  -31.8190   -5.2900   30.6670 C   0  0  0  0  0  3  0  0  0  0  0  0
  -30.8690   -6.5860   32.5230 C   0  0  0  0  0  1  0  0  0  0  0  0
  -31.0130   -5.2700   31.9070 N   0  0  0  0  0  0  0  0  0  0  0  0
  -31.4220   -4.6410   32.5920 H   0  0  0  0  0  0  0  0  0  0  0  0
  1 61  1  0
  1  2  1  0
  2  3  1  0
  3  4  1  0
  4  5  1  0
  5  6  1  0
  6  7  1  0
  7  8  1  0
  8 11  1  0
  9  8  1  0
 10 12  2  0
 10 14  1  0
 11 13  1  0
 11 10  1  0
 14 15  1  0
 15 16  1  0
 16 17  1  0
 17 18  1  0
 18 19  1  0
 20 19  1  0
 20 21  1  0
 22 31  1  0
 22 21  1  0
 23 30  2  0
 23 31  1  0
 24 29  1  0
 25 24  1  0
 26 27  1  0
 26 25  1  0
 27 36  1  0
 27 28  1  0
 28 29  1  0
 29 23  1  0
 31 32  1  0
 33 36  1  0
 33 58  1  0
 34 33  2  0
 35 34  1  0
 35 37  2  0
 37 36  1  0
 38 39  1  0
 38 35  1  0
 40 39  2  0
 41 40  1  0
 42 41  2  0
 42 43  1  0
 43 38  2  0
 44 45  1  0
 44 41  1  0
 45 46  1  0
 47 46  2  0
 48 47  1  0
 49 50  1  0
 49 48  2  0
 50 45  2  0
 51 50  1  0
 52 48  1  0
 53 55  2  0
 53 34  1  0
 54 53  1  0
 56 54  1  0
 57 54  1  0
 58 60  1  0
 59 58  1  0
 62 63  1  0
 62 61  1  0
 63 65  2  0
 64 63  1  0
 66 64  1  0
 67 64  1  0
 67 68  1  0
 68 69  1  0
 68 70  2  0
 69 72  1  0
 71 69  1  0
 72 73  1  0
 73 74  1  0
 73 75  2  0
 74 77  1  0
 76 74  1  0
 77 78  1  0
 79 81  1  0
 79 78  1  0
 80 91  2  0
 81 86  1  0
 82 92  1  0
 82 90  1  0
 83 89  1  0
 83 85  1  0
 84 90  1  0
 85 84  1  0
 86 85  2  0
 87 88  1  0
 87 81  2  0
 88 83  2  0
 89 82  1  0
 90 80  1  0
 92 94  2  0
 93 95  1  0
 93 92  1  0
 96105  2  0
 96101  1  0
 97101  1  0
 97 93  1  0
 98 97  1  0
 99100  1  0
 99 98  1  0
100 96  1  0
101102  2  0
102103  1  0
104103  2  0
105104  1  0
106 80  1  0
106107  1  0
106111  1  0
107110  1  1
108107  1  0
109107  1  0
111114  1  0
111112  1  0
112116  1  0
113112  2  0
116115  1  0
116118  1  0
118117  1  0
118119  1  0
M  ISO  4  23 100  31 100  78 101  79 101
M  END
>  <TORSDO>  (60) 
F 42

>  <SCORE>  (60) 
68.011

>  <name>  (60) 
62

>  <ligand_id>  (60) 
62

>  <original_smiles>  (60) 
[H]c1c([H])c([H])c2c(c1[H])C([H])([H])C([H])([H])C([H])([H])C2([H])N([H])C(=O)C1([H])N(C(=O)C([H])(N([H])C(=O)C([H])(N([H])C([H])([H])[H])C([H])([H])[H])C(C([H])([H])[H])(C([H])([H])[H])C([H])([H])[H])C([H])([H])c2c([H])c(OC([H])([H])C([H])([H])N([H])C(=O)C([H])([H])N([H])C(=O)C([H])([H])N([H])C(=O)C([H])([H])C([H])([H])C([H])([H])C([H])([H])C([H])([H])C([H])([H])C([H])([H])C([H])([H])C([H])([H])N([H])N([H])C(=O)C([H])([H])OC([H])([H])C([H])([H])C([H])([H])OC([H])([H])C([H])([H])C([H])([H])N([H])C(=O)N3C([H])([H])C([H])([H])C([H])([H])C([H])(n4nc(-c5c([H])c([H])c(Oc6c([H])c([H])c(F)c([H])c6F)c([H])c5[H])c(C(=O)N([H])[H])c4N([H])[H])C3([H])[H])c([H])c([H])c2C1([H])[H]

>  <smiles>  (60) 
[H]c1c([H])c([H])c2c(c1[H])C([H])([H])C([H])([H])C([H])([H])C2([H])N([H])C(=O)C1([H])N(C(=O)C([H])(N([H])C(=O)C([H])(N([H])C([H])([H])[H])C([H])([H])[H])C(C([H])([H])[H])(C([H])([H])[H])C([H])([H])[H])C([H])([H])c2c([H])c(OC([H])([H])C([H])([H])N([H])C(=O)C([H])([H])N([H])C(=O)C([H])([H])N([H])C(=O)C([H])([H])C([H])([H])C([H])([H])C([H])([H])C([H])([H])C([H])([H])C([H])([H])C([H])([H])C([H])([H])N([H])N([H])C(=O)C([H])([H])OC([H])([H])C([H])([H])C([H])([H])OC([H])([H])C([H])([H])C([H])([H])N([H])C(=O)N3C([H])([H])C([H])([H])C([H])([H])C([H])(n4nc(-c5c([H])c([H])c(Oc6c([H])c([H])c(F)c([H])c6F)c([H])c5[H])c(C(=O)N([H])[H])c4N([H])[H])C3([H])[H])c([H])c([H])c2C1([H])[H]

$$$$
63:0:0
     RDKit          3D

103109  0  0  1  0  0  0  0  0999 V2000
  -18.9610  -20.1260   23.4860 C   0  0  0  0  0  2  0  0  0  0  0  0
  -20.4410  -19.9230   23.8360 C   0  0  0  0  0  2  0  0  0  0  0  0
  -20.9130  -21.1600   24.6190 C   0  0  0  0  0  2  0  0  0  0  0  0
  -22.4700  -22.8130   23.6380 C   0  0  0  0  0  0  0  0  0  0  0  0
  -22.2390  -21.6450   24.2550 N   0  0  0  0  0  0  0  0  0  0  0  0
  -21.5920  -23.4190   23.0170 O   0  0  0  0  0  0  0  0  0  0  0  0
  -23.0260  -21.1990   24.7070 H   0  0  0  0  0  0  0  0  0  0  0  0
  -23.8550  -23.4480   23.8180 C   0  0  0  0  0  2  0  0  0  0  0  0
  -23.6640  -24.8080   24.2180 O   0  0  0  0  0  0  0  0  0  0  0  0
  -24.3320  -25.2000   25.4150 C   0  0  0  0  0  2  0  0  0  0  0  0
  -25.2050  -26.4390   25.1740 C   0  0  0  0  0  2  0  0  0  0  0  0
  -24.4930  -27.6830   25.2630 O   0  0  0  0  0  0  0  0  0  0  0  0
  -25.4340  -28.7510   25.2960 C   0  0  0  0  0  2  0  0  0  0  0  0
  -25.2220  -29.8930   26.3110 C   0  0  0  0  0  2  0  0  0  0  0  0
  -27.2290  -31.4130   25.9940 C   0  0  0  0  0  0  0  0  0  0  0  0
  -29.0950  -32.0110   24.4840 C   0  0  0  0  0  2  0  0  0  0  0  0
  -28.6350  -33.0970   23.4810 C   0  0  0  0  0  2  0  0  0  0  0  0
  -27.8690  -32.5040   22.2740 C   0  0  0  0  0  2  0  0  0  0  0  0
  -26.7880  -31.4790   22.7030 C   0  0  0  0  0  3  0  0  0  0  0  0
  -27.4630  -30.4730   23.6550 C   0  0  0  0  0  2  0  0  0  0  0  0
  -27.9220  -31.2020   24.8420 N   0  0  0  0  0  0  0  0  0  0  0  0
  -27.6740  -32.0960   26.9200 O   0  0  0  0  0  0  0  0  0  0  0  0
  -25.9110  -31.1470   25.9430 N   0  0  0  0  0  0  0  0  0  0  0  0
  -25.4270  -31.9150   26.3830 H   0  0  0  0  0  0  0  0  0  0  0  0
  -24.8300  -30.6320   21.2530 C   0  0  0  0  0  0  0  0  0  0  0  0
  -24.8040  -30.0160   20.0300 C   0  0  0  0  0  0  0  0  0  0  0  0
  -26.1690  -29.8640   19.6360 C   0  0  0  0  0  0  0  0  0  0  0  0
  -26.1730  -30.8170   21.5550 N   0  0  0  0  0  0  0  0  0  0  0  0
  -26.9770  -30.3040   20.5910 N   0  0  0  0  0  0  0  0  0  0  0  0
  -26.7540  -29.3780   18.3830 C   0  0  0  0  0  0  0  0  0  0  0  0
  -27.5820  -28.2340   18.3490 C   0  0  0  0  0  0  0  0  0  0  0  0
  -28.1210  -27.7770   17.1280 C   0  0  0  0  0  0  0  0  0  0  0  0
  -27.8300  -28.4610   15.9240 C   0  0  0  0  0  0  0  0  0  0  0  0
  -27.0260  -29.6150   15.9670 C   0  0  0  0  0  3  0  0  0  0  0  0
  -26.4960  -30.0720   17.1860 C   0  0  0  0  0  3  0  0  0  0  0  0
  -28.3300  -28.1060   14.6940 O   0  0  0  0  0  0  0  0  0  0  0  0
  -28.6200  -26.8000   14.3880 C   0  0  0  0  0  0  0  0  0  0  0  0
  -27.7920  -25.7340   14.8030 C   0  0  0  0  0  3  0  0  0  0  0  0
  -28.0910  -24.4150   14.4080 C   0  0  0  0  0  3  0  0  0  0  0  0
  -29.2090  -24.1610   13.5910 C   0  0  0  0  0  0  0  0  0  0  0  0
  -30.0310  -25.2210   13.1720 C   0  0  0  0  0  3  0  0  0  0  0  0
  -29.7360  -26.5380   13.5680 C   0  0  0  0  0  0  0  0  0  0  0  0
  -30.5190  -27.5590   13.1450 F   0  0  0  0  0  0  0  0  0  0  0  0
  -29.4940  -22.8960   13.2040 F   0  0  0  0  0  0  0  0  0  0  0  0
  -23.5840  -29.6770   19.2240 C   0  0  0  0  0  0  0  0  0  0  0  0
  -23.6380  -28.5900   18.4630 N   0  0  0  0  0  0  0  0  0  0  0  0
  -22.5620  -30.3560   19.2950 O   0  0  0  0  0  0  0  0  0  0  0  0
  -24.4770  -28.0300   18.4150 H   0  0  0  0  0  0  0  0  0  0  0  0
  -22.8330  -28.3210   17.9160 H   0  0  0  0  0  0  0  0  0  0  0  0
  -23.8250  -31.0600   22.1160 N   0  0  0  0  0  0  0  0  0  0  0  0
  -22.8450  -30.9370   21.8820 H   0  0  0  0  0  0  0  0  0  0  0  0
  -23.9680  -31.5220   23.0060 H   0  0  0  0  0  0  0  0  0  0  0  0
  -18.1370  -18.8910   23.0970 C   0  0  0  0  0  2  0  0  0  0  0  0
  -17.0590  -19.2110   22.0310 C   0  0  0  0  0  2  0  0  0  0  0  0
  -17.4180  -21.6950   22.0020 C   0  0  0  0  0  0  0  0  0  0  0  0
  -16.6240  -20.6110   21.9670 N   0  0  0  0  0  0  0  0  0  0  0  0
  -18.5890  -21.6570   22.3840 O   0  0  0  0  0  0  0  0  0  0  0  0
  -15.6710  -20.7690   21.6600 H   0  0  0  0  0  0  0  0  0  0  0  0
  -16.8400  -23.0000   21.4360 C   0  0  0  0  0  2  0  0  0  0  0  0
  -17.8490  -24.0370   21.4720 O   0  0  0  0  0  0  0  0  0  0  0  0
  -17.9250  -25.0400   20.3920 C   0  0  0  0  0  1  0  0  0  0  0  0
  -19.4150  -24.5790   17.7360 C   0  0  0  0  0  1  0  0  0  0  0  0
  -20.5440  -22.9170   17.2070 O   0  0  0  0  0  1  0  0  0  0  0  0
  -25.2190  -24.4340   19.1550 C   0  0  0  0  0  0  0  0  0  0  0  0
  -21.3930  -22.0290   16.2420 C   0  0  0  0  0  3  0  0  0  0  0  0
  -23.2950  -25.1150   17.8600 C   0  0  0  0  0  3  0  0  0  0  0  0
  -22.7580  -23.9440   15.6140 C   0  0  0  0  0  3  0  0  0  0  0  0
  -24.8050  -23.3300   16.9290 C   0  0  0  0  0  2  0  0  0  0  0  0
  -23.5510  -22.9360   16.1710 C   0  0  0  0  0  3  0  0  0  0  0  0
  -22.8190  -21.7620   16.4120 C   0  0  0  0  0  2  0  0  0  0  0  0
  -21.1600  -22.2660   14.9050 C   0  0  0  0  0  2  0  0  0  0  0  0
  -21.6400  -23.5740   14.8090 C   0  0  0  0  0  2  0  0  0  0  0  0
  -22.8010  -25.2390   16.3670 C   0  0  0  0  0  2  0  0  0  0  0  0
  -24.5240  -24.3180   17.9910 N   0  0  0  0  0  0  0  0  0  0  0  0
  -24.8970  -25.2540   20.0310 O   0  0  0  0  0  0  0  0  0  0  0  0
  -22.3310  -24.5100   18.8950 C   0  0  0  0  0  0  0  0  0  0  0  0
  -21.3200  -25.2380   19.2220 N   0  0  0  0  0  0  0  0  0  0  0  0
  -22.4790  -23.4320   19.4620 O   0  0  0  0  0  0  0  0  0  0  0  0
  -21.2330  -26.1700   18.8420 H   0  0  0  0  0  0  0  0  0  0  0  0
  -18.1340  -26.0820   18.2170 C   0  0  0  0  0  0  0  0  0  0  0  0
  -20.1500  -24.6680   19.8280 C   0  0  0  0  0  2  0  0  0  0  0  0
  -19.4510  -22.6280   19.6040 C   0  0  0  0  0 15  0  0  0  0  0  0
  -17.9850  -22.7520   17.9670 C   0  0  0  0  0  1  0  0  0  0  0  0
  -17.6100  -24.5850   17.4000 C   0  0  0  0  0  3  0  0  0  0  0  0
  -19.2790  -26.0900   19.2230 C   0  0  0  0  0  0  0  0  0  0  0  0
  -19.4780  -27.3020   19.9750 C   0  0  0  0  0  3  0  0  0  0  0  0
  -18.6120  -28.4200   19.9600 C   0  0  0  0  0  3  0  0  0  0  0  0
  -17.4150  -28.3370   19.2330 C   0  0  0  0  0  3  0  0  0  0  0  0
  -17.1870  -27.1920   18.4100 C   0  0  0  0  0  3  0  0  0  0  0  0
  -26.4560  -23.5530   19.4180 C   0  0  0  0  0  3  0  0  0  0  0  0
  -26.2870  -22.5810   20.6470 C   0  0  1  0  0  0  0  0  0  0  0  0
  -25.7760  -23.2660   21.9380 C   0  0  0  0  0  1  0  0  0  0  0  0
  -25.3070  -21.4310   20.3160 C   0  0  0  0  0  1  0  0  0  0  0  0
  -27.6530  -21.9270   20.9520 C   0  0  0  0  0  1  0  0  0  0  0  0
  -27.5630  -24.4870   19.6420 N   0  0  0  0  0  0  0  0  0  0  0  0
  -28.4840  -24.7880   18.7220 C   0  0  0  0  0  0  0  0  0  0  0  0
  -28.5530  -24.2150   17.6340 O   0  0  0  0  0  0  0  0  0  0  0  0
  -27.5340  -25.0280   20.4940 H   0  0  0  0  0  0  0  0  0  0  0  0
  -29.1510  -27.1840   18.3410 C   0  0  0  0  0  3  0  0  0  0  0  0
  -29.5050  -25.8860   19.0810 C   0  0  0  0  0  3  0  0  0  0  0  0
  -31.3920  -24.4150   19.6260 C   0  0  0  0  0  1  0  0  0  0  0  0
  -30.9000  -25.4990   18.7790 N   0  0  0  0  0  0  0  0  0  0  0  0
  -31.5240  -26.2950   18.8880 H   0  0  0  0  0  0  0  0  0  0  0  0
  1  2  1  0
  2  3  1  0
  4  8  1  0
  4  5  1  0
  5  3  1  0
  5  7  1  0
  6  4  2  0
  8  9  1  0
  9 10  1  0
 11 12  1  0
 11 10  1  0
 12 13  1  0
 13 14  1  0
 15 22  2  0
 16 21  1  0
 17 16  1  0
 18 19  1  0
 18 17  1  0
 19 28  1  0
 19 20  1  0
 20 21  1  0
 21 15  1  0
 23 15  1  0
 23 14  1  0
 23 24  1  0
 25 28  1  0
 25 50  1  0
 26 25  2  0
 27 26  1  0
 27 29  2  0
 29 28  1  0
 30 27  1  0
 31 30  1  0
 32 99  1  0
 32 31  2  0
 33 34  2  0
 33 32  1  0
 34 35  1  0
 35 30  2  0
 36 33  1  0
 37 36  1  0
 37 38  1  0
 39 38  2  0
 40 39  1  0
 41 42  1  0
 41 40  2  0
 42 37  2  0
 43 42  1  0
 44 40  1  0
 45 47  2  0
 45 26  1  0
 46 45  1  0
 48 46  1  0
 49 46  1  0
 50 52  1  0
 51 50  1  0
 53  1  1  0
 54 53  1  0
 55 57  2  0
 56 55  1  0
 56 54  1  0
 58 56  1  0
 59 60  1  0
 59 55  1  0
 61 60  1  0
 64 75  2  0
 65 70  1  0
 65 63  1  0
 66 74  1  0
 66 76  1  0
 67 72  1  0
 67 69  1  0
 67 73  1  0
 68 74  1  0
 69 70  1  0
 69 68  1  0
 71 65  1  0
 72 71  1  0
 73 66  1  0
 74 64  1  0
 76 77  1  0
 76 78  2  0
 77 81  1  0
 79 77  1  0
 80 89  2  0
 80 85  1  0
 84 62  1  0
 84 83  1  0
 84 80  1  0
 85 81  1  0
 85 86  2  0
 87 86  1  0
 88 87  2  0
 89 88  1  0
 90 64  1  0
 90 95  1  0
 90 91  1  0
 91 94  1  1
 91 92  1  0
 93 91  1  0
 95 98  1  0
 96 95  1  0
 97 96  2  0
 99 31  1  0
 99100  1  0
100 96  1  0
102103  1  0
102100  1  0
102101  1  0
M  ISO  4  15 100  23 100  62 101  63 101
M  END
>  <TORSDO>  (61) 
F 33

>  <SCORE>  (61) 
20.046

>  <name>  (61) 
63

>  <ligand_id>  (61) 
63

>  <original_smiles>  (61) 
[H]c1c([H])c([H])c2c(c1[H])C([H])([H])C([H])([H])C([H])([H])C2([H])N([H])C(=O)C1([H])N(C(=O)C([H])(N([H])C(=O)C([H])(N([H])C([H])([H])[H])C([H])([H])[H])C(C([H])([H])[H])(C([H])([H])[H])C([H])([H])[H])C([H])([H])c2c([H])c(OC([H])([H])C([H])([H])OC([H])([H])C(=O)N([H])C([H])([H])C([H])([H])C([H])([H])C([H])([H])C([H])([H])N([H])C(=O)C([H])([H])OC([H])([H])C([H])([H])OC([H])([H])C([H])([H])N([H])C(=O)N3C([H])([H])C([H])([H])C([H])([H])C([H])(n4nc(-c5c([H])c([H])c(Oc6c([H])c([H])c(F)c([H])c6F)c([H])c5[H])c(C(=O)N([H])[H])c4N([H])[H])C3([H])[H])c([H])c([H])c2C1([H])[H]

>  <smiles>  (61) 
[H]c1c([H])c([H])c2c(c1[H])C([H])([H])C([H])([H])C([H])([H])C2([H])N([H])C(=O)C1([H])N(C(=O)C([H])(N([H])C(=O)C([H])(N([H])C([H])([H])[H])C([H])([H])[H])C(C([H])([H])[H])(C([H])([H])[H])C([H])([H])[H])C([H])([H])c2c([H])c(OC([H])([H])C([H])([H])OC([H])([H])C(=O)N([H])C([H])([H])C([H])([H])C([H])([H])C([H])([H])C([H])([H])N([H])C(=O)C([H])([H])OC([H])([H])C([H])([H])OC([H])([H])C([H])([H])N([H])C(=O)N3C([H])([H])C([H])([H])C([H])([H])C([H])(n4nc(-c5c([H])c([H])c(Oc6c([H])c([H])c(F)c([H])c6F)c([H])c5[H])c(C(=O)N([H])[H])c4N([H])[H])C3([H])[H])c([H])c([H])c2C1([H])[H]

$$$$
64:0:0
     RDKit          3D

108115  0  0  1  0  0  0  0  0999 V2000
  -33.2250  -20.6130   18.9220 N   0  0  0  0  0  4  0  0  0  0  0  0
  -33.7240  -20.0970   19.6310 H   0  0  0  0  0  0  0  0  0  0  0  0
  -33.8740  -20.8590   18.1900 H   0  0  0  0  0  0  0  0  0  0  0  0
  -32.1490  -19.7710   18.3490 C   0  0  0  0  0  2  0  0  0  0  0  0
  -32.6020  -18.3350   18.0250 C   0  0  0  0  0  2  0  0  0  0  0  0
  -31.5030  -17.5010   17.3480 C   0  0  0  0  0  2  0  0  0  0  0  0
  -31.1990  -18.0960   16.0910 O   0  0  0  0  0  0  0  0  0  0  0  0
  -30.2060  -17.4120   15.3310 C   0  0  0  0  0  2  0  0  0  0  0  0
  -28.7560  -17.6900   15.7950 C   0  0  0  0  0  2  0  0  0  0  0  0
  -28.2640  -18.9810   15.4280 O   0  0  0  0  0  0  0  0  0  0  0  0
  -28.7130  -20.0890   16.2110 C   0  0  0  0  0  2  0  0  0  0  0  0
  -28.0440  -20.1950   17.5950 C   0  0  0  0  0  2  0  0  0  0  0  0
  -28.5960  -19.2320   18.4830 O   0  0  0  0  0  0  0  0  0  0  0  0
  -28.0660  -19.2890   19.8030 C   0  0  0  0  0  2  0  0  0  0  0  0
  -27.9820  -17.8630   20.3590 C   0  0  0  0  0  2  0  0  0  0  0  0
  -29.2660  -17.2620   20.4690 O   0  0  0  0  0  0  0  0  0  0  0  0
  -29.9900  -17.6240   21.6430 C   0  0  0  0  0  2  0  0  0  0  0  0
  -30.9270  -16.4630   22.0250 C   0  0  0  0  0  2  0  0  0  0  0  0
  -30.7670  -14.3740   20.6840 C   0  0  0  0  0  0  0  0  0  0  0  0
  -30.4190  -12.2860   19.4280 C   0  0  0  0  0  2  0  0  0  0  0  0
  -29.5010  -12.5360   18.2200 C   0  0  0  0  0  2  0  0  0  0  0  0
  -28.0250  -12.3740   18.6220 C   0  0  0  0  0  2  0  0  0  0  0  0
  -27.6640  -13.2050   19.8810 C   0  0  0  0  0  3  0  0  0  0  0  0
  -28.6920  -12.9710   21.0120 C   0  0  0  0  0  2  0  0  0  0  0  0
  -30.0470  -13.2410   20.4830 N   0  0  0  0  0  0  0  0  0  0  0  0
  -31.7790  -14.6560   20.0320 O   0  0  0  0  0  0  0  0  0  0  0  0
  -30.3460  -15.1590   21.6790 N   0  0  0  0  0  0  0  0  0  0  0  0
  -29.5170  -14.8630   22.1760 H   0  0  0  0  0  0  0  0  0  0  0  0
  -25.2540  -13.8140   20.5570 C   0  0  0  0  0  0  0  0  0  0  0  0
  -24.1800  -13.0410   20.9110 C   0  0  0  0  0  0  0  0  0  0  0  0
  -24.6350  -11.6890   20.8690 C   0  0  0  0  0  0  0  0  0  0  0  0
  -26.2990  -12.9310   20.3290 N   0  0  0  0  0  0  0  0  0  0  0  0
  -25.9280  -11.6480   20.5690 N   0  0  0  0  0  0  0  0  0  0  0  0
  -23.9010  -10.4280   21.0380 C   0  0  0  0  0  0  0  0  0  0  0  0
  -24.3580   -9.4210   21.9170 C   0  0  0  0  0  3  0  0  0  0  0  0
  -23.6260   -8.2240   22.0750 C   0  0  0  0  0  3  0  0  0  0  0  0
  -22.4240   -8.0270   21.3560 C   0  0  0  0  0  0  0  0  0  0  0  0
  -21.9850   -9.0230   20.4650 C   0  0  0  0  0  3  0  0  0  0  0  0
  -22.7180  -10.2110   20.3030 C   0  0  0  0  0  3  0  0  0  0  0  0
  -21.6640   -6.8840   21.4230 O   0  0  0  0  0  0  0  0  0  0  0  0
  -21.6860   -6.0700   22.5270 C   0  0  0  0  0  0  0  0  0  0  0  0
  -21.4040   -6.5610   23.8200 C   0  0  0  0  0  3  0  0  0  0  0  0
  -21.3660   -5.6780   24.9170 C   0  0  0  0  0  3  0  0  0  0  0  0
  -21.6040   -4.3030   24.7240 C   0  0  0  0  0  0  0  0  0  0  0  0
  -21.8820   -3.8110   23.4360 C   0  0  0  0  0  3  0  0  0  0  0  0
  -21.9210   -4.6920   22.3410 C   0  0  0  0  0  0  0  0  0  0  0  0
  -22.1670   -4.2120   21.0990 F   0  0  0  0  0  0  0  0  0  0  0  0
  -21.5610   -3.4510   25.7750 F   0  0  0  0  0  0  0  0  0  0  0  0
  -22.7840  -13.5230   21.1810 C   0  0  0  0  0  0  0  0  0  0  0  0
  -22.0490  -12.8260   22.0410 N   0  0  0  0  0  0  0  0  0  0  0  0
  -22.3510  -14.5530   20.6660 O   0  0  0  0  0  0  0  0  0  0  0  0
  -22.4130  -11.9920   22.4790 H   0  0  0  0  0  0  0  0  0  0  0  0
  -21.1130  -13.1310   22.2670 H   0  0  0  0  0  0  0  0  0  0  0  0
  -25.4190  -15.1820   20.3870 N   0  0  0  0  0  0  0  0  0  0  0  0
  -24.6170  -15.8030   20.3880 H   0  0  0  0  0  0  0  0  0  0  0  0
  -26.2380  -15.5880   19.9560 H   0  0  0  0  0  0  0  0  0  0  0  0
  -32.7610  -21.8920   19.5030 C   0  0  0  0  0  2  0  0  0  0  0  0
  -32.5070  -22.9470   18.4240 C   0  0  0  0  0  0  0  0  0  0  0  0
  -31.7240  -23.9790   18.7580 N   0  0  0  0  0  0  0  0  0  0  0  0
  -33.0120  -22.8230   17.3050 O   0  0  0  0  0  0  0  0  0  0  0  0
  -31.3490  -23.9800   19.6980 H   0  0  0  0  0  0  0  0  0  0  0  0
  -31.3220  -25.0900   17.8980 C   0  0  0  0  0  2  0  0  0  0  0  0
  -32.3040  -26.2760   17.9980 C   0  0  0  0  0  2  0  0  0  0  0  0
  -31.8240  -27.5460   17.2690 C   0  0  0  0  0  2  0  0  0  0  0  0
  -31.0650  -28.5570   18.1500 C   0  0  0  0  0  2  0  0  0  0  0  0
  -29.6760  -28.0840   18.5880 C   0  0  0  0  0  2  0  0  0  0  0  0
  -29.6290  -27.4020   19.9680 C   0  0  0  0  0  2  0  0  0  0  0  0
  -28.3880  -26.7150   20.0810 O   0  0  0  0  0  0  0  0  0  0  0  0
  -24.6040  -31.8720   23.2130 C   0  0  0  0  0  0  0  0  0  0  0  0
  -27.2420  -27.4760   20.1280 C   0  0  0  0  0  0  0  0  0  0  0  0
  -23.3940  -30.4970   21.5440 C   0  0  0  0  0  3  0  0  0  0  0  0
  -24.8430  -28.9570   20.1200 C   0  0  0  0  0  0  0  0  0  0  0  0
  -25.9130  -30.8510   21.3640 C   0  0  0  0  0  2  0  0  0  0  0  0
  -25.9900  -29.4830   20.7270 C   0  0  0  0  0  0  0  0  0  0  0  0
  -27.1860  -28.7460   20.7440 C   0  0  0  0  0  3  0  0  0  0  0  0
  -26.0810  -26.9470   19.5320 C   0  0  0  0  0  3  0  0  0  0  0  0
  -24.8780  -27.6810   19.5280 C   0  0  0  0  0  3  0  0  0  0  0  0
  -23.6070  -29.8220   20.1600 C   0  0  0  0  0  2  0  0  0  0  0  0
  -24.6540  -31.0900   22.0990 N   0  0  0  0  0  0  0  0  0  0  0  0
  -23.5240  -32.1440   23.7560 O   0  0  0  0  0  0  0  0  0  0  0  0
  -22.7380  -29.4710   22.4920 C   0  0  0  0  0  0  0  0  0  0  0  0
  -21.4110  -29.3060   22.3670 N   0  0  0  0  0  0  0  0  0  0  0  0
  -23.4170  -28.8260   23.2970 O   0  0  0  0  0  0  0  0  0  0  0  0
  -20.9240  -29.8770   21.6890 H   0  0  0  0  0  0  0  0  0  0  0  0
  -18.0290  -28.1410   22.8490 C   0  0  0  0  0  0  0  0  0  0  0  0
  -20.5880  -28.3690   23.1300 C   0  0  0  0  0  3  0  0  0  0  0  0
  -20.6770  -26.9420   22.5410 C   0  0  0  0  0  2  0  0  0  0  0  0
  -19.5750  -26.6410   21.5200 C   0  0  0  0  0  2  0  0  0  0  0  0
  -18.1940  -26.7950   22.1630 C   0  0  0  0  0  2  0  0  0  0  0  0
  -19.1550  -28.8850   23.2910 C   0  0  0  0  0  0  0  0  0  0  0  0
  -18.9470  -30.1440   23.8920 C   0  0  0  0  0  3  0  0  0  0  0  0
  -17.6470  -30.6590   24.0580 C   0  0  0  0  0  3  0  0  0  0  0  0
  -16.5360  -29.9100   23.6330 C   0  0  0  0  0  3  0  0  0  0  0  0
  -16.7280  -28.6530   23.0320 C   0  0  0  0  0  3  0  0  0  0  0  0
  -25.8950  -32.4820   23.8440 C   0  0  0  0  0  3  0  0  0  0  0  0
  -26.4420  -31.6610   25.0770 C   0  0  1  0  0  0  0  0  0  0  0  0
  -25.3730  -31.3720   26.1570 C   0  0  0  0  0  1  0  0  0  0  0  0
  -27.0210  -30.3050   24.6140 C   0  0  0  0  0  1  0  0  0  0  0  0
  -27.6020  -32.4310   25.7520 C   0  0  0  0  0  1  0  0  0  0  0  0
  -25.5840  -33.8630   24.2340 N   0  0  0  0  0  0  0  0  0  0  0  0
  -25.9010  -34.9470   23.5130 C   0  0  0  0  0  0  0  0  0  0  0  0
  -26.5590  -34.8900   22.4710 O   0  0  0  0  0  0  0  0  0  0  0  0
  -24.9930  -33.9800   25.0460 H   0  0  0  0  0  0  0  0  0  0  0  0
  -24.1490  -36.7350   23.2630 C   0  0  0  0  0  1  0  0  0  0  0  0
  -25.4100  -36.3100   24.0330 C   0  0  0  0  0  3  0  0  0  0  0  0
  -27.5580  -37.1820   24.8450 C   0  0  0  0  0  1  0  0  0  0  0  0
  -26.4280  -37.3780   23.9400 N   0  0  0  0  0  0  0  0  0  0  0  0
  -26.0160  -38.2860   24.1390 H   0  0  0  0  0  0  0  0  0  0  0  0
  1 57  1  0
  1  2  1  0
  3  1  1  0
  4  1  1  0
  5  4  1  0
  6  5  1  0
  7  6  1  0
  8  9  1  0
  8  7  1  0
 10  9  1  0
 10 11  1  0
 11 12  1  0
 12 13  1  0
 13 14  1  0
 14 15  1  0
 15 16  1  0
 16 17  1  0
 17 18  1  0
 19 27  1  0
 20 25  1  0
 21 22  1  0
 21 20  1  0
 23 22  1  0
 23 32  1  0
 23 24  1  0
 25 19  1  0
 25 24  1  0
 26 19  2  0
 27 18  1  0
 27 28  1  0
 29 30  2  0
 30 49  1  0
 31 30  1  0
 31 34  1  0
 32 29  1  0
 32 33  1  0
 33 31  2  0
 34 35  1  0
 35 36  2  0
 37 40  1  0
 37 36  1  0
 38 37  2  0
 39 38  1  0
 39 34  2  0
 40 41  1  0
 41 42  1  0
 42 43  2  0
 44 43  1  0
 44 48  1  0
 45 44  2  0
 46 41  2  0
 46 45  1  0
 47 46  1  0
 49 50  1  0
 50 53  1  0
 50 52  1  0
 51 49  2  0
 54 55  1  0
 54 29  1  0
 56 54  1  0
 58 59  1  0
 58 57  1  0
 59 61  1  0
 60 58  2  0
 62 63  1  0
 62 59  1  0
 64 63  1  0
 64 65  1  0
 65 66  1  0
 66 67  1  0
 67 68  1  0
 68 70  1  0
 69 80  2  0
 70 75  1  0
 71 79  1  0
 71 81  1  0
 72 78  1  0
 72 74  1  0
 73 79  1  0
 74 75  2  0
 74 73  1  0
 76 70  2  0
 77 76  1  0
 77 72  2  0
 78 71  1  0
 79 69  1  0
 81 83  2  0
 82 81  1  0
 84 82  1  0
 85 94  2  0
 85 90  1  0
 86 82  1  0
 86 90  1  0
 87 86  1  0
 88 89  1  0
 88 87  1  0
 89 85  1  0
 90 91  2  0
 91 92  1  0
 93 92  2  0
 94 93  1  0
 95 69  1  0
 95100  1  0
 95 96  1  0
 96 99  1  1
 96 97  1  0
 98 96  1  0
100103  1  0
101105  1  0
101100  1  0
102101  2  0
105104  1  0
107105  1  0
107108  1  0
107106  1  0
M  ISO  4  19 100  27 100  67 101  68 101
M  END
>  <TORSDO>  (62) 
F 39

>  <SCORE>  (62) 
-7.566

>  <name>  (62) 
64

>  <ligand_id>  (62) 
64

>  <original_smiles>  (62) 
[H]c1c([H])c([H])c2c(c1[H])C([H])([H])C([H])([H])C([H])([H])C2([H])N([H])C(=O)C1([H])N(C(=O)C([H])(N([H])C(=O)C([H])(N([H])C([H])([H])[H])C([H])([H])[H])C(C([H])([H])[H])(C([H])([H])[H])C([H])([H])[H])C([H])([H])c2c([H])c(OC([H])([H])C([H])([H])C([H])([H])C([H])([H])C([H])([H])C([H])([H])N([H])C(=O)C([H])([H])[N+]([H])([H])C([H])([H])C([H])([H])C([H])([H])OC([H])([H])C([H])([H])OC([H])([H])C([H])([H])OC([H])([H])C([H])([H])OC([H])([H])C([H])([H])N([H])C(=O)N3C([H])([H])C([H])([H])C([H])([H])C([H])(n4nc(-c5c([H])c([H])c(Oc6c([H])c([H])c(F)c([H])c6F)c([H])c5[H])c(C(=O)N([H])[H])c4N([H])[H])C3([H])[H])c([H])c([H])c2C1([H])[H]

>  <smiles>  (62) 
[H]c1c([H])c([H])c2c(c1[H])C([H])([H])C([H])([H])C([H])([H])C2([H])N([H])C(=O)C1([H])N(C(=O)C([H])(N([H])C(=O)C([H])(N([H])C([H])([H])[H])C([H])([H])[H])C(C([H])([H])[H])(C([H])([H])[H])C([H])([H])[H])C([H])([H])c2c([H])c(OC([H])([H])C([H])([H])C([H])([H])C([H])([H])C([H])([H])C([H])([H])N([H])C(=O)C([H])([H])[N+]([H])([H])C([H])([H])C([H])([H])C([H])([H])OC([H])([H])C([H])([H])OC([H])([H])C([H])([H])OC([H])([H])C([H])([H])OC([H])([H])C([H])([H])N([H])C(=O)N3C([H])([H])C([H])([H])C([H])([H])C([H])(n4nc(-c5c([H])c([H])c(Oc6c([H])c([H])c(F)c([H])c6F)c([H])c5[H])c(C(=O)N([H])[H])c4N([H])[H])C3([H])[H])c([H])c([H])c2C1([H])[H]

$$$$
65:0:0
     RDKit          3D

 96103  0  0  1  0  0  0  0  0999 V2000
  -29.9900  -21.1890   24.3390 C   0  0  0  0  0  2  0  0  0  0  0  0
  -28.8350  -21.0690   22.1280 C   0  0  0  0  0  0  0  0  0  0  0  0
  -29.5130  -20.5210   23.1380 N   0  0  0  0  0  0  0  0  0  0  0  0
  -28.3890  -22.2180   22.1600 O   0  0  0  0  0  0  0  0  0  0  0  0
  -29.8120  -19.5690   22.9670 H   0  0  0  0  0  0  0  0  0  0  0  0
  -28.6740  -20.1900   20.8840 C   0  0  0  0  0  2  0  0  0  0  0  0
  -29.6280  -19.1320   20.9430 O   0  0  0  0  0  0  0  0  0  0  0  0
  -29.4440  -18.1480   19.9420 C   0  0  0  0  0  2  0  0  0  0  0  0
  -30.7690  -17.3900   19.8040 C   0  0  0  0  0  2  0  0  0  0  0  0
  -31.1650  -16.6090   21.0740 C   0  0  0  0  0  2  0  0  0  0  0  0
  -31.1260  -14.2690   20.2520 C   0  0  0  0  0  0  0  0  0  0  0  0
  -30.6670  -12.0960   19.1960 C   0  0  0  0  0  2  0  0  0  0  0  0
  -29.7520  -12.3050   17.9760 C   0  0  0  0  0  2  0  0  0  0  0  0
  -28.2720  -12.2730   18.3990 C   0  0  0  0  0  2  0  0  0  0  0  0
  -27.9760  -13.1960   19.6120 C   0  0  0  0  0  3  0  0  0  0  0  0
  -29.0110  -12.9810   20.7410 C   0  0  0  0  0  2  0  0  0  0  0  0
  -30.3630  -13.1500   20.1740 N   0  0  0  0  0  0  0  0  0  0  0  0
  -32.1710  -14.4250   19.6120 O   0  0  0  0  0  0  0  0  0  0  0  0
  -30.6520  -15.2380   21.0410 N   0  0  0  0  0  0  0  0  0  0  0  0
  -29.8320  -15.0220   21.5910 H   0  0  0  0  0  0  0  0  0  0  0  0
  -25.6180  -13.9680   20.3100 C   0  0  0  0  0  0  0  0  0  0  0  0
  -24.5060  -13.2730   20.7000 C   0  0  0  0  0  0  0  0  0  0  0  0
  -24.8750  -11.8930   20.6860 C   0  0  0  0  0  0  0  0  0  0  0  0
  -26.6060  -13.0180   20.0940 N   0  0  0  0  0  0  0  0  0  0  0  0
  -26.1600  -11.7650   20.3720 N   0  0  0  0  0  0  0  0  0  0  0  0
  -24.0690  -10.6840   20.8990 C   0  0  0  0  0  0  0  0  0  0  0  0
  -24.5270   -9.6260   21.7140 C   0  0  0  0  0  3  0  0  0  0  0  0
  -23.7260   -8.4810   21.9170 C   0  0  0  0  0  3  0  0  0  0  0  0
  -22.4540   -8.3860   21.3040 C   0  0  0  0  0  0  0  0  0  0  0  0
  -22.0120   -9.4330   20.4770 C   0  0  0  0  0  3  0  0  0  0  0  0
  -22.8120  -10.5700   20.2710 C   0  0  0  0  0  3  0  0  0  0  0  0
  -21.6180   -7.3020   21.4240 O   0  0  0  0  0  0  0  0  0  0  0  0
  -21.6440   -6.4900   22.5310 C   0  0  0  0  0  0  0  0  0  0  0  0
  -21.5080   -7.0100   23.8370 C   0  0  0  0  0  3  0  0  0  0  0  0
  -21.4700   -6.1370   24.9420 C   0  0  0  0  0  3  0  0  0  0  0  0
  -21.5600   -4.7460   24.7430 C   0  0  0  0  0  0  0  0  0  0  0  0
  -21.6880   -4.2260   23.4440 C   0  0  0  0  0  3  0  0  0  0  0  0
  -21.7280   -5.0980   22.3410 C   0  0  0  0  0  0  0  0  0  0  0  0
  -21.8330   -4.5910   21.0890 F   0  0  0  0  0  0  0  0  0  0  0  0
  -21.5160   -3.9050   25.8030 F   0  0  0  0  0  0  0  0  0  0  0  0
  -23.1440  -13.8430   20.9760 C   0  0  0  0  0  0  0  0  0  0  0  0
  -22.3840  -13.2170   21.8670 N   0  0  0  0  0  0  0  0  0  0  0  0
  -22.7660  -14.8830   20.4360 O   0  0  0  0  0  0  0  0  0  0  0  0
  -22.7010  -12.3770   22.3270 H   0  0  0  0  0  0  0  0  0  0  0  0
  -21.4720  -13.5840   22.0970 H   0  0  0  0  0  0  0  0  0  0  0  0
  -25.8710  -15.3210   20.1030 N   0  0  0  0  0  0  0  0  0  0  0  0
  -25.1390  -16.0200   20.1650 H   0  0  0  0  0  0  0  0  0  0  0  0
  -26.7300  -15.6770   19.7040 H   0  0  0  0  0  0  0  0  0  0  0  0
  -31.4980  -21.4750   24.2410 C   0  0  0  0  0  2  0  0  0  0  0  0
  -31.8010  -22.2360   23.0770 O   0  0  0  0  0  0  0  0  0  0  0  0
  -31.7180  -21.5150   21.8520 C   0  0  0  0  0  2  0  0  0  0  0  0
  -31.6010  -22.5170   20.7000 C   0  0  0  0  0  2  0  0  0  0  0  0
  -30.3180  -23.1390   20.6910 O   0  0  0  0  0  0  0  0  0  0  0  0
  -30.3600  -24.4010   20.0330 C   0  0  0  0  0  2  0  0  0  0  0  0
  -28.9640  -25.0070   19.8360 C   0  0  0  0  0  2  0  0  0  0  0  0
  -29.1120  -26.4180   19.6880 O   0  0  0  0  0  0  0  0  0  0  0  0
  -25.4300  -31.0690   23.5760 C   0  0  0  0  0  0  0  0  0  0  0  0
  -27.9630  -27.1660   19.7830 C   0  0  0  0  0  0  0  0  0  0  0  0
  -24.2200  -30.0850   21.6560 C   0  0  0  0  0  3  0  0  0  0  0  0
  -25.6450  -28.7620   20.0080 C   0  0  0  0  0  0  0  0  0  0  0  0
  -26.7620  -30.3340   21.6000 C   0  0  0  0  0  2  0  0  0  0  0  0
  -26.8030  -29.1050   20.7160 C   0  0  0  0  0  0  0  0  0  0  0  0
  -27.9680  -28.3170   20.5970 C   0  0  0  0  0  3  0  0  0  0  0  0
  -26.7870  -26.8260   19.0760 C   0  0  0  0  0  3  0  0  0  0  0  0
  -25.6300  -27.6220   19.1850 C   0  0  0  0  0  3  0  0  0  0  0  0
  -24.4510  -29.6710   20.1770 C   0  0  0  0  0  2  0  0  0  0  0  0
  -25.4880  -30.4970   22.3380 N   0  0  0  0  0  0  0  0  0  0  0  0
  -24.3440  -31.2920   24.1280 O   0  0  0  0  0  0  0  0  0  0  0  0
  -23.4800  -28.9370   22.3790 C   0  0  0  0  0  0  0  0  0  0  0  0
  -22.1510  -28.8720   22.1930 N   0  0  0  0  0  0  0  0  0  0  0  0
  -24.1000  -28.1160   23.0610 O   0  0  0  0  0  0  0  0  0  0  0  0
  -21.7130  -29.5870   21.6290 H   0  0  0  0  0  0  0  0  0  0  0  0
  -18.6990  -27.8220   22.3640 C   0  0  0  0  0  0  0  0  0  0  0  0
  -21.2550  -27.8540   22.7430 C   0  0  0  0  0  3  0  0  0  0  0  0
  -21.2940  -26.5590   21.8980 C   0  0  0  0  0  2  0  0  0  0  0  0
  -20.2130  -26.5140   20.8130 C   0  0  0  0  0  2  0  0  0  0  0  0
  -18.8210  -26.6210   21.4410 C   0  0  0  0  0  2  0  0  0  0  0  0
  -19.8460  -28.4100   22.9630 C   0  0  0  0  0  0  0  0  0  0  0  0
  -19.6820  -29.5460   23.7840 C   0  0  0  0  0  3  0  0  0  0  0  0
  -18.4050  -30.0900   24.0160 C   0  0  0  0  0  3  0  0  0  0  0  0
  -17.2730  -29.4970   23.4300 C   0  0  0  0  0  3  0  0  0  0  0  0
  -17.4210  -28.3630   22.6120 C   0  0  0  0  0  3  0  0  0  0  0  0
  -26.7220  -31.4920   24.3430 C   0  0  0  0  0  3  0  0  0  0  0  0
  -26.4900  -32.8370   24.8880 N   0  0  0  0  0  0  0  0  0  0  0  0
  -26.9630  -33.9670   24.3450 C   0  0  0  0  0  0  0  0  0  0  0  0
  -27.7070  -33.9770   23.3600 O   0  0  0  0  0  0  0  0  0  0  0  0
  -25.8460  -32.9080   25.6610 H   0  0  0  0  0  0  0  0  0  0  0  0
  -25.4100  -35.9390   24.1770 C   0  0  0  0  0  1  0  0  0  0  0  0
  -26.5400  -35.2990   24.9970 C   0  0  0  0  0  3  0  0  0  0  0  0
  -28.6610  -35.8320   26.1150 C   0  0  0  0  0  1  0  0  0  0  0  0
  -27.6550  -36.2610   25.1480 N   0  0  0  0  0  0  0  0  0  0  0  0
  -27.3070  -37.1730   25.4330 H   0  0  0  0  0  0  0  0  0  0  0  0
  -27.1210  -30.4850   25.4910 C   0  0  1  0  0  0  0  0  0  0  0  0
  -25.9580  -30.1410   26.4490 C   0  0  0  0  0  1  0  0  0  0  0  0
  -27.6470  -29.1610   24.8900 C   0  0  0  0  0  1  0  0  0  0  0  0
  -28.2700  -31.0820   26.3380 C   0  0  0  0  0  1  0  0  0  0  0  0
  2  4  2  0
  2  3  1  0
  3  1  1  0
  5  3  1  0
  6  7  1  0
  6  2  1  0
  8  7  1  0
  9  8  1  0
  9 10  1  0
 11 19  1  0
 12 17  1  0
 13 14  1  0
 13 12  1  0
 15 14  1  0
 15 24  1  0
 15 16  1  0
 17 11  1  0
 17 16  1  0
 18 11  2  0
 19 10  1  0
 19 20  1  0
 21 22  2  0
 22 41  1  0
 23 22  1  0
 23 26  1  0
 24 21  1  0
 24 25  1  0
 25 23  2  0
 26 27  1  0
 27 28  2  0
 29 32  1  0
 29 28  1  0
 30 29  2  0
 31 30  1  0
 31 26  2  0
 32 33  1  0
 33 34  1  0
 34 35  2  0
 36 35  1  0
 36 40  1  0
 37 36  2  0
 38 33  2  0
 38 37  1  0
 39 38  1  0
 41 42  1  0
 42 45  1  0
 42 44  1  0
 43 41  2  0
 46 47  1  0
 46 21  1  0
 48 46  1  0
 49  1  1  0
 50 49  1  0
 51 50  1  0
 52 51  1  0
 53 52  1  0
 54 53  1  0
 55 54  1  0
 56 58  1  0
 56 55  1  0
 57 68  2  0
 58 63  1  0
 59 67  1  0
 59 69  1  0
 60 66  1  0
 60 62  1  0
 61 67  1  0
 62 61  1  0
 63 62  2  0
 64 65  1  0
 64 58  2  0
 65 60  2  0
 66 59  1  0
 67 57  1  0
 69 71  2  0
 70 69  1  0
 72 70  1  0
 73 82  2  0
 73 78  1  0
 74 70  1  0
 74 78  1  0
 75 74  1  0
 76 77  1  0
 76 75  1  0
 77 73  1  0
 78 79  2  0
 79 80  1  0
 81 80  2  0
 82 81  1  0
 83 57  1  0
 83 84  1  0
 83 93  1  0
 84 87  1  0
 85 84  1  0
 85 89  1  0
 86 85  2  0
 89 88  1  0
 89 91  1  0
 91 92  1  0
 91 90  1  0
 93 96  1  1
 93 94  1  0
 95 93  1  0
M  ISO  4  11 100  19 100  55 101  56 101
M  END
>  <TORSDO>  (63) 
F 29

>  <SCORE>  (63) 
-8.428

>  <name>  (63) 
65

>  <ligand_id>  (63) 
65

>  <original_smiles>  (63) 
[H]c1c([H])c([H])c2c(c1[H])C([H])([H])C([H])([H])C([H])([H])C2([H])N([H])C(=O)C1([H])N(C(=O)C([H])(N([H])C(=O)C([H])(N([H])C([H])([H])[H])C([H])([H])[H])C(C([H])([H])[H])(C([H])([H])[H])C([H])([H])[H])C([H])([H])c2c([H])c(OC([H])([H])C([H])([H])OC([H])([H])C([H])([H])OC([H])([H])C([H])([H])N([H])C(=O)C([H])([H])OC([H])([H])C([H])([H])C([H])([H])N([H])C(=O)N3C([H])([H])C([H])([H])C([H])([H])C([H])(n4nc(-c5c([H])c([H])c(Oc6c([H])c([H])c(F)c([H])c6F)c([H])c5[H])c(C(=O)N([H])[H])c4N([H])[H])C3([H])[H])c([H])c([H])c2C1([H])[H]

>  <smiles>  (63) 
[H]c1c([H])c([H])c2c(c1[H])C([H])([H])C([H])([H])C([H])([H])C2([H])N([H])C(=O)C1([H])N(C(=O)C([H])(N([H])C(=O)C([H])(N([H])C([H])([H])[H])C([H])([H])[H])C(C([H])([H])[H])(C([H])([H])[H])C([H])([H])[H])C([H])([H])c2c([H])c(OC([H])([H])C([H])([H])OC([H])([H])C([H])([H])OC([H])([H])C([H])([H])N([H])C(=O)C([H])([H])OC([H])([H])C([H])([H])C([H])([H])N([H])C(=O)N3C([H])([H])C([H])([H])C([H])([H])C([H])(n4nc(-c5c([H])c([H])c(Oc6c([H])c([H])c(F)c([H])c6F)c([H])c5[H])c(C(=O)N([H])[H])c4N([H])[H])C3([H])[H])c([H])c([H])c2C1([H])[H]

$$$$
66:0:0
     RDKit          3D

 95102  0  0  1  0  0  0  0  0999 V2000
  -26.8520  -22.6180   23.4520 C   0  0  0  0  0  2  0  0  0  0  0  0
  -26.5550  -23.4670   22.2810 N   0  0  0  0  0  4  0  0  0  0  0  0
  -25.7700  -24.0410   22.5420 H   0  0  0  0  0  0  0  0  0  0  0  0
  -26.2510  -22.8850   21.5150 H   0  0  0  0  0  0  0  0  0  0  0  0
  -27.6340  -24.3800   21.8310 C   0  0  0  0  0  2  0  0  0  0  0  0
  -27.1160  -25.2960   20.7090 C   0  0  0  0  0  2  0  0  0  0  0  0
  -28.1810  -26.1700   20.0000 C   0  0  0  0  0  2  0  0  0  0  0  0
  -27.6290  -27.0300   18.9900 O   0  0  0  0  0  0  0  0  0  0  0  0
  -25.5710  -31.1690   24.3950 C   0  0  0  0  0  0  0  0  0  0  0  0
  -26.7240  -27.9450   19.4670 C   0  0  0  0  0  0  0  0  0  0  0  0
  -23.8960  -30.7860   22.6150 C   0  0  0  0  0  3  0  0  0  0  0  0
  -24.7820  -29.7160   20.4750 C   0  0  0  0  0  0  0  0  0  0  0  0
  -26.3980  -30.7270   22.0910 C   0  0  0  0  0  2  0  0  0  0  0  0
  -26.0830  -29.7350   20.9920 C   0  0  0  0  0  0  0  0  0  0  0  0
  -27.0600  -28.8430   20.4990 C   0  0  0  0  0  3  0  0  0  0  0  0
  -25.4220  -27.9610   18.9240 C   0  0  0  0  0  3  0  0  0  0  0  0
  -24.4430  -28.8270   19.4420 C   0  0  0  0  0  3  0  0  0  0  0  0
  -23.7920  -30.6920   21.0700 C   0  0  0  0  0  2  0  0  0  0  0  0
  -25.3140  -30.8810   23.0890 N   0  0  0  0  0  0  0  0  0  0  0  0
  -24.6510  -31.3960   25.1920 O   0  0  0  0  0  0  0  0  0  0  0  0
  -23.1230  -29.6010   23.2350 C   0  0  0  0  0  0  0  0  0  0  0  0
  -21.7970  -29.5750   23.0210 N   0  0  0  0  0  0  0  0  0  0  0  0
  -23.7120  -28.7190   23.8670 O   0  0  0  0  0  0  0  0  0  0  0  0
  -21.3890  -30.3240   22.4800 H   0  0  0  0  0  0  0  0  0  0  0  0
  -18.3900  -28.4030   22.7730 C   0  0  0  0  0  0  0  0  0  0  0  0
  -20.8700  -28.5480   23.4900 C   0  0  0  0  0  3  0  0  0  0  0  0
  -21.0640  -27.2290   22.7130 C   0  0  0  0  0  2  0  0  0  0  0  0
  -20.1460  -27.1090   21.4930 C   0  0  0  0  0  2  0  0  0  0  0  0
  -18.6770  -27.1770   21.9220 C   0  0  0  0  0  2  0  0  0  0  0  0
  -19.4240  -29.0580   23.4940 C   0  0  0  0  0  0  0  0  0  0  0  0
  -19.1120  -30.2140   24.2420 C   0  0  0  0  0  3  0  0  0  0  0  0
  -17.7960  -30.7120   24.2860 C   0  0  0  0  0  3  0  0  0  0  0  0
  -16.7740  -30.0510   23.5840 C   0  0  0  0  0  3  0  0  0  0  0  0
  -17.0700  -28.8980   22.8330 C   0  0  0  0  0  3  0  0  0  0  0  0
  -27.0300  -31.2540   24.9440 C   0  0  0  0  0  3  0  0  0  0  0  0
  -27.1040  -32.4230   25.8300 N   0  0  0  0  0  0  0  0  0  0  0  0
  -27.7120  -33.5740   25.5170 C   0  0  0  0  0  0  0  0  0  0  0  0
  -28.3420  -33.7370   24.4680 O   0  0  0  0  0  0  0  0  0  0  0  0
  -26.5650  -32.3810   26.6820 H   0  0  0  0  0  0  0  0  0  0  0  0
  -26.5820  -35.7600   26.0300 C   0  0  0  0  0  1  0  0  0  0  0  0
  -27.6080  -34.7310   26.5290 C   0  0  0  0  0  3  0  0  0  0  0  0
  -29.8510  -34.5620   27.5120 C   0  0  0  0  0  1  0  0  0  0  0  0
  -28.9000  -35.4030   26.7910 N   0  0  0  0  0  0  0  0  0  0  0  0
  -28.7610  -36.2560   27.3280 H   0  0  0  0  0  0  0  0  0  0  0  0
  -27.4860  -29.9470   25.7000 C   0  0  1  0  0  0  0  0  0  0  0  0
  -26.4930  -29.4820   26.7910 C   0  0  0  0  0  1  0  0  0  0  0  0
  -27.6760  -28.7760   24.7080 C   0  0  0  0  0  1  0  0  0  0  0  0
  -28.8580  -30.1820   26.3740 C   0  0  0  0  0  1  0  0  0  0  0  0
  -28.3100  -22.1280   23.4920 C   0  0  0  0  0  2  0  0  0  0  0  0
  -28.6780  -21.5140   24.8590 C   0  0  0  0  0  2  0  0  0  0  0  0
  -30.1420  -21.7520   25.2680 C   0  0  0  0  0  2  0  0  0  0  0  0
  -31.0940  -21.3230   24.2220 N   0  0  0  0  0  4  0  0  0  0  0  0
  -30.8270  -21.7730   23.3610 H   0  0  0  0  0  0  0  0  0  0  0  0
  -31.0240  -20.3280   24.0840 H   0  0  0  0  0  0  0  0  0  0  0  0
  -32.4980  -21.6900   24.5020 C   0  0  0  0  0  2  0  0  0  0  0  0
  -33.4060  -21.3840   23.3000 C   0  0  0  0  0  2  0  0  0  0  0  0
  -34.8960  -21.3250   23.6760 C   0  0  0  0  0  2  0  0  0  0  0  0
  -36.4910  -20.0480   22.2810 C   0  0  0  0  0  0  0  0  0  0  0  0
  -36.6280  -17.9830   20.9580 C   0  0  0  0  0  2  0  0  0  0  0  0
  -36.2620  -18.3020   19.4940 C   0  0  0  0  0  2  0  0  0  0  0  0
  -34.7400  -18.1940   19.2800 C   0  0  0  0  0  2  0  0  0  0  0  0
  -33.9330  -18.9780   20.3500 C   0  0  0  0  0  3  0  0  0  0  0  0
  -34.4410  -18.6530   21.7700 C   0  0  0  0  0  2  0  0  0  0  0  0
  -35.8900  -18.9220   21.8150 N   0  0  0  0  0  0  0  0  0  0  0  0
  -37.7080  -20.2340   22.2470 O   0  0  0  0  0  0  0  0  0  0  0  0
  -35.6960  -21.1030   22.4790 N   0  0  0  0  0  0  0  0  0  0  0  0
  -36.1880  -21.9460   22.2200 H   0  0  0  0  0  0  0  0  0  0  0  0
  -31.4550  -19.6460   20.1180 C   0  0  0  0  0  0  0  0  0  0  0  0
  -30.3190  -18.8980   19.9630 C   0  0  0  0  0  0  0  0  0  0  0  0
  -30.7380  -17.5330   19.9820 C   0  0  0  0  0  0  0  0  0  0  0  0
  -32.4970  -18.7350   20.2270 N   0  0  0  0  0  0  0  0  0  0  0  0
  -32.0460  -17.4560   20.1990 N   0  0  0  0  0  0  0  0  0  0  0  0
  -29.9820  -16.2950   19.7530 C   0  0  0  0  0  0  0  0  0  0  0  0
  -29.8110  -15.3330   20.7740 C   0  0  0  0  0  3  0  0  0  0  0  0
  -29.0680  -14.1580   20.5320 C   0  0  0  0  0  3  0  0  0  0  0  0
  -28.4830  -13.9360   19.2640 C   0  0  0  0  0  0  0  0  0  0  0  0
  -28.6740  -14.8870   18.2450 C   0  0  0  0  0  3  0  0  0  0  0  0
  -29.4190  -16.0540   18.4850 C   0  0  0  0  0  3  0  0  0  0  0  0
  -27.7650  -12.8130   18.9290 O   0  0  0  0  0  0  0  0  0  0  0  0
  -26.8330  -12.2750   19.7800 C   0  0  0  0  0  0  0  0  0  0  0  0
  -25.7200  -13.0180   20.2300 C   0  0  0  0  0  3  0  0  0  0  0  0
  -24.7500  -12.4040   21.0480 C   0  0  0  0  0  3  0  0  0  0  0  0
  -24.8850  -11.0500   21.4090 C   0  0  0  0  0  0  0  0  0  0  0  0
  -25.9910  -10.3090   20.9580 C   0  0  0  0  0  3  0  0  0  0  0  0
  -26.9620  -10.9200   20.1440 C   0  0  0  0  0  0  0  0  0  0  0  0
  -28.0140  -10.1940   19.6940 F   0  0  0  0  0  0  0  0  0  0  0  0
  -23.9510  -10.4590   22.1890 F   0  0  0  0  0  0  0  0  0  0  0  0
  -28.9320  -19.4160   19.7140 C   0  0  0  0  0  0  0  0  0  0  0  0
  -27.9140  -18.6850   20.1520 N   0  0  0  0  0  0  0  0  0  0  0  0
  -28.7460  -20.5040   19.1710 O   0  0  0  0  0  0  0  0  0  0  0  0
  -28.0660  -17.8030   20.6170 H   0  0  0  0  0  0  0  0  0  0  0  0
  -26.9680  -19.0150   20.0220 H   0  0  0  0  0  0  0  0  0  0  0  0
  -31.6940  -21.0160   20.1540 N   0  0  0  0  0  0  0  0  0  0  0  0
  -30.9590  -21.6910   19.9690 H   0  0  0  0  0  0  0  0  0  0  0  0
  -32.6190  -21.4250   20.1540 H   0  0  0  0  0  0  0  0  0  0  0  0
  1 49  1  0
  2  3  1  0
  2  1  1  0
  4  2  1  0
  5  2  1  0
  6  5  1  0
  7  6  1  0
  8 10  1  0
  8  7  1  0
  9 20  2  0
 10 15  1  0
 11 19  1  0
 11 21  1  0
 12 14  1  0
 12 18  1  0
 13 19  1  0
 14 13  1  0
 15 14  2  0
 16 17  1  0
 16 10  2  0
 17 12  2  0
 18 11  1  0
 19  9  1  0
 21 23  2  0
 22 21  1  0
 24 22  1  0
 25 34  2  0
 25 30  1  0
 26 22  1  0
 26 30  1  0
 27 26  1  0
 28 29  1  0
 28 27  1  0
 29 25  1  0
 30 31  2  0
 31 32  1  0
 33 32  2  0
 34 33  1  0
 35  9  1  0
 35 45  1  0
 35 36  1  0
 36 39  1  0
 37 36  1  0
 37 41  1  0
 38 37  2  0
 41 40  1  0
 41 43  1  0
 43 44  1  0
 43 42  1  0
 45 48  1  1
 45 46  1  0
 47 45  1  0
 49 50  1  0
 50 51  1  0
 52 55  1  0
 52 51  1  0
 53 52  1  0
 54 52  1  0
 56 57  1  0
 56 55  1  0
 58 66  1  0
 59 64  1  0
 60 59  1  0
 61 60  1  0
 62 61  1  0
 62 63  1  0
 63 64  1  0
 64 58  1  0
 65 58  2  0
 66 57  1  0
 67 66  1  0
 68 93  1  0
 68 71  1  0
 69 70  1  0
 69 68  2  0
 70 72  2  0
 71 62  1  0
 72 71  1  0
 73 70  1  0
 73 74  1  0
 75 74  2  0
 76 75  1  0
 77 78  1  0
 77 76  2  0
 78 73  2  0
 79 76  1  0
 79 80  1  0
 80 85  2  0
 80 81  1  0
 81 82  2  0
 82 83  1  0
 83 87  1  0
 84 83  2  0
 85 84  1  0
 86 85  1  0
 88 69  1  0
 88 89  1  0
 89 91  1  0
 90 88  2  0
 92 89  1  0
 94 93  1  0
 95 93  1  0
M  ISO  4   7 101   8 101  58 100  66 100
M  END
>  <TORSDO>  (64) 
F 27

>  <SCORE>  (64) 
4.970

>  <name>  (64) 
66

>  <ligand_id>  (64) 
66

>  <original_smiles>  (64) 
[H]c1c([H])c([H])c2c(c1[H])C([H])([H])C([H])([H])C([H])([H])C2([H])N([H])C(=O)C1([H])N(C(=O)C([H])(N([H])C(=O)C([H])(N([H])C([H])([H])[H])C([H])([H])[H])C(C([H])([H])[H])(C([H])([H])[H])C([H])([H])[H])C([H])([H])c2c([H])c(OC([H])([H])C([H])([H])C([H])([H])[N+]([H])([H])C([H])([H])C([H])([H])C([H])([H])C([H])([H])[N+]([H])([H])C([H])([H])C([H])([H])C([H])([H])N([H])C(=O)N3C([H])([H])C([H])([H])C([H])([H])C([H])(n4nc(-c5c([H])c([H])c(Oc6c([H])c([H])c(F)c([H])c6F)c([H])c5[H])c(C(=O)N([H])[H])c4N([H])[H])C3([H])[H])c([H])c([H])c2C1([H])[H]

>  <smiles>  (64) 
[H]c1c([H])c([H])c2c(c1[H])C([H])([H])C([H])([H])C([H])([H])C2([H])N([H])C(=O)C1([H])N(C(=O)C([H])(N([H])C(=O)C([H])(N([H])C([H])([H])[H])C([H])([H])[H])C(C([H])([H])[H])(C([H])([H])[H])C([H])([H])[H])C([H])([H])c2c([H])c(OC([H])([H])C([H])([H])C([H])([H])[N+]([H])([H])C([H])([H])C([H])([H])C([H])([H])C([H])([H])[N+]([H])([H])C([H])([H])C([H])([H])C([H])([H])N([H])C(=O)N3C([H])([H])C([H])([H])C([H])([H])C([H])(n4nc(-c5c([H])c([H])c(Oc6c([H])c([H])c(F)c([H])c6F)c([H])c5[H])c(C(=O)N([H])[H])c4N([H])[H])C3([H])[H])c([H])c([H])c2C1([H])[H]

$$$$
67:0:0
     RDKit          3D

104111  0  0  1  0  0  0  0  0999 V2000
  -23.5160  -21.0310   17.8180 C   0  0  0  0  0  2  0  0  0  0  0  0
  -24.4640  -22.0310   18.1870 O   0  0  0  0  0  0  0  0  0  0  0  0
  -25.5410  -21.5450   18.9850 C   0  0  0  0  0  2  0  0  0  0  0  0
  -26.2140  -22.7000   19.7440 C   0  0  0  0  0  2  0  0  0  0  0  0
  -27.7410  -21.2190   21.1530 C   0  0  0  0  0  0  0  0  0  0  0  0
  -26.8570  -22.2100   20.9580 N   0  0  0  0  0  0  0  0  0  0  0  0
  -28.0360  -20.9230   22.3110 O   0  0  0  0  0  0  0  0  0  0  0  0
  -26.5000  -22.6250   21.8080 H   0  0  0  0  0  0  0  0  0  0  0  0
  -28.4420  -20.4440   20.0140 C   0  0  0  0  0  2  0  0  0  0  0  0
  -27.5890  -20.1070   18.9200 O   0  0  0  0  0  0  0  0  0  0  0  0
  -28.0380  -18.9320   18.2380 C   0  0  0  0  0  2  0  0  0  0  0  0
  -27.5630  -18.8670   16.7710 C   0  0  0  0  0  2  0  0  0  0  0  0
  -28.5520  -19.3820   15.8710 O   0  0  0  0  0  0  0  0  0  0  0  0
  -33.7470  -24.2140   15.4980 C   0  0  0  0  0  0  0  0  0  0  0  0
  -28.8760  -20.7170   15.9350 C   0  0  0  0  0  0  0  0  0  0  0  0
  -31.5570  -25.0480   16.2920 C   0  0  0  0  0  3  0  0  0  0  0  0
  -29.5970  -23.4480   16.0100 C   0  0  0  0  0  0  0  0  0  0  0  0
  -31.6950  -23.0390   14.7140 C   0  0  0  0  0  2  0  0  0  0  0  0
  -30.4230  -22.5240   15.3570 C   0  0  0  0  0  0  0  0  0  0  0  0
  -30.0660  -21.1590   15.3130 C   0  0  0  0  0  3  0  0  0  0  0  0
  -28.0500  -21.6650   16.5810 C   0  0  0  0  0  3  0  0  0  0  0  0
  -28.4090  -23.0220   16.6280 C   0  0  0  0  0  3  0  0  0  0  0  0
  -30.0400  -24.8930   16.0090 C   0  0  0  0  0  2  0  0  0  0  0  0
  -32.3900  -24.0800   15.5080 N   0  0  0  0  0  0  0  0  0  0  0  0
  -34.3020  -25.1490   16.0920 O   0  0  0  0  0  0  0  0  0  0  0  0
  -31.7870  -24.9580   17.8200 C   0  0  0  0  0  0  0  0  0  0  0  0
  -31.5150  -26.0640   18.5300 N   0  0  0  0  0  0  0  0  0  0  0  0
  -32.1750  -23.9090   18.3390 O   0  0  0  0  0  0  0  0  0  0  0  0
  -31.2070  -26.8860   18.0280 H   0  0  0  0  0  0  0  0  0  0  0  0
  -31.1180  -28.3880   21.2660 C   0  0  0  0  0  0  0  0  0  0  0  0
  -31.6240  -26.1990   19.9830 C   0  0  0  0  0  3  0  0  0  0  0  0
  -30.3770  -25.6210   20.6920 C   0  0  0  0  0  2  0  0  0  0  0  0
  -29.2890  -26.6720   20.9390 C   0  0  0  0  0  2  0  0  0  0  0  0
  -29.8260  -27.8080   21.8150 C   0  0  0  0  0  2  0  0  0  0  0  0
  -31.9540  -27.6400   20.3940 C   0  0  0  0  0  0  0  0  0  0  0  0
  -33.1220  -28.2440   19.8820 C   0  0  0  0  0  3  0  0  0  0  0  0
  -33.4590  -29.5660   20.2240 C   0  0  0  0  0  3  0  0  0  0  0  0
  -32.6350  -30.2990   21.0950 C   0  0  0  0  0  3  0  0  0  0  0  0
  -31.4730  -29.7080   21.6200 C   0  0  0  0  0  3  0  0  0  0  0  0
  -34.6650  -23.2150   14.7240 C   0  0  0  0  0  3  0  0  0  0  0  0
  -35.3490  -22.1420   15.6590 C   0  0  1  0  0  0  0  0  0  0  0  0
  -36.0640  -22.7500   16.8890 C   0  0  0  0  0  1  0  0  0  0  0  0
  -34.3030  -21.1260   16.1780 C   0  0  0  0  0  1  0  0  0  0  0  0
  -36.3890  -21.3280   14.8510 C   0  0  0  0  0  1  0  0  0  0  0  0
  -35.6760  -24.0050   14.0120 N   0  0  0  0  0  0  0  0  0  0  0  0
  -35.6130  -24.3280   12.7110 C   0  0  0  0  0  0  0  0  0  0  0  0
  -34.7200  -23.9190   11.9630 O   0  0  0  0  0  0  0  0  0  0  0  0
  -36.4010  -24.4220   14.5780 H   0  0  0  0  0  0  0  0  0  0  0  0
  -36.1780  -26.6860   12.0410 C   0  0  0  0  0  1  0  0  0  0  0  0
  -36.7130  -25.2490   12.1520 C   0  0  0  0  0  3  0  0  0  0  0  0
  -37.9880  -23.5570   10.9100 C   0  0  0  0  0  1  0  0  0  0  0  0
  -37.2360  -24.8070   10.8390 N   0  0  0  0  0  0  0  0  0  0  0  0
  -37.8380  -25.5180   10.4340 H   0  0  0  0  0  0  0  0  0  0  0  0
  -22.5220  -20.7680   18.9680 C   0  0  0  0  0  2  0  0  0  0  0  0
  -22.7990  -19.5320   19.6250 O   0  0  0  0  0  0  0  0  0  0  0  0
  -22.0830  -18.3940   19.1460 C   0  0  0  0  0  2  0  0  0  0  0  0
  -21.3850  -18.6210   17.7900 C   0  0  0  0  0  2  0  0  0  0  0  0
  -22.0290  -19.6660   17.0630 O   0  0  0  0  0  0  0  0  0  0  0  0
  -21.2160  -20.1810   16.0060 C   0  0  0  0  0  2  0  0  0  0  0  0
  -21.4770  -21.6800   15.7750 C   0  0  0  0  0  0  0  0  0  0  0  0
  -20.4810  -22.4060   15.2360 N   0  0  0  0  0  0  0  0  0  0  0  0
  -22.5680  -22.1760   16.0750 O   0  0  0  0  0  0  0  0  0  0  0  0
  -19.6250  -21.9150   14.9960 H   0  0  0  0  0  0  0  0  0  0  0  0
  -20.5850  -23.8310   14.8980 C   0  0  0  0  0  2  0  0  0  0  0  0
  -19.3410  -24.6710   15.2760 C   0  0  0  0  0  2  0  0  0  0  0  0
  -18.2490  -24.7550   14.1910 C   0  0  0  0  0  2  0  0  0  0  0  0
  -15.7150  -24.6220   14.3670 C   0  0  0  0  0  0  0  0  0  0  0  0
  -13.9520  -24.4920   12.6370 C   0  0  0  0  0  2  0  0  0  0  0  0
  -14.0180  -23.1670   11.8500 C   0  0  0  0  0  2  0  0  0  0  0  0
  -15.0160  -23.2620   10.6800 C   0  0  0  0  0  2  0  0  0  0  0  0
  -16.3850  -23.8360   11.1280 C   0  0  0  0  0  3  0  0  0  0  0  0
  -16.1670  -25.1430   11.9200 C   0  0  0  0  0  2  0  0  0  0  0  0
  -15.3170  -24.8370   13.0810 N   0  0  0  0  0  0  0  0  0  0  0  0
  -14.9410  -24.2080   15.2340 O   0  0  0  0  0  0  0  0  0  0  0  0
  -16.9260  -25.0670   14.7540 N   0  0  0  0  0  0  0  0  0  0  0  0
  -16.9570  -25.2020   15.7540 H   0  0  0  0  0  0  0  0  0  0  0  0
  -18.5200  -23.4770    9.7410 C   0  0  0  0  0  0  0  0  0  0  0  0
  -18.9040  -23.9500    8.5130 C   0  0  0  0  0  0  0  0  0  0  0  0
  -17.8410  -24.7920    8.0650 C   0  0  0  0  0  0  0  0  0  0  0  0
  -17.2790  -24.0410    9.9910 N   0  0  0  0  0  0  0  0  0  0  0  0
  -16.8980  -24.8750    8.9940 N   0  0  0  0  0  0  0  0  0  0  0  0
  -17.6340  -25.4790    6.7840 C   0  0  0  0  0  0  0  0  0  0  0  0
  -17.1130  -26.7910    6.7250 C   0  0  0  0  0  3  0  0  0  0  0  0
  -16.9360  -27.4340    5.4810 C   0  0  0  0  0  3  0  0  0  0  0  0
  -17.2880  -26.7710    4.2820 C   0  0  0  0  0  0  0  0  0  0  0  0
  -17.7850  -25.4560    4.3450 C   0  0  0  0  0  3  0  0  0  0  0  0
  -17.9550  -24.8150    5.5840 C   0  0  0  0  0  3  0  0  0  0  0  0
  -17.1320  -27.3130    3.0290 O   0  0  0  0  0  0  0  0  0  0  0  0
  -16.8880  -28.6510    2.8490 C   0  0  0  0  0  0  0  0  0  0  0  0
  -17.7850  -29.6400    3.3090 C   0  0  0  0  0  3  0  0  0  0  0  0
  -17.5290  -31.0010    3.0430 C   0  0  0  0  0  3  0  0  0  0  0  0
  -16.3860  -31.3730    2.3110 C   0  0  0  0  0  0  0  0  0  0  0  0
  -15.4960  -30.3900    1.8470 C   0  0  0  0  0  3  0  0  0  0  0  0
  -15.7480  -29.0320    2.1140 C   0  0  0  0  0  0  0  0  0  0  0  0
  -14.8970  -28.0870    1.6470 F   0  0  0  0  0  0  0  0  0  0  0  0
  -16.1450  -32.6790    2.0470 F   0  0  0  0  0  0  0  0  0  0  0  0
  -20.1360  -23.5570    7.7500 C   0  0  0  0  0  0  0  0  0  0  0  0
  -20.6710  -24.4660    6.9400 N   0  0  0  0  0  0  0  0  0  0  0  0
  -20.6530  -22.4520    7.9010 O   0  0  0  0  0  0  0  0  0  0  0  0
  -20.2550  -25.3790    6.8320 H   0  0  0  0  0  0  0  0  0  0  0  0
  -21.5060  -24.2400    6.4200 H   0  0  0  0  0  0  0  0  0  0  0  0
  -19.0940  -22.6000   10.6510 N   0  0  0  0  0  0  0  0  0  0  0  0
  -19.8230  -22.0060   10.2740 H   0  0  0  0  0  0  0  0  0  0  0  0
  -18.4580  -22.0900   11.2530 H   0  0  0  0  0  0  0  0  0  0  0  0
  1  2  1  0
  1 54  1  0
  2  3  1  0
  3  4  1  0
  4  6  1  0
  5  7  2  0
  6  5  1  0
  6  8  1  0
  9  5  1  0
 10  9  1  0
 11 10  1  0
 12 11  1  0
 13 15  1  0
 13 12  1  0
 14 24  1  0
 14 25  2  0
 15 21  1  0
 16 26  1  0
 17 22  1  0
 18 19  1  0
 18 24  1  0
 19 17  2  0
 20 19  1  0
 20 15  2  0
 21 22  2  0
 23 17  1  0
 23 16  1  0
 24 16  1  0
 26 28  2  0
 26 27  1  0
 29 27  1  0
 30 39  1  0
 30 34  1  0
 31 27  1  0
 31 35  1  0
 31 32  1  0
 32 33  1  0
 33 34  1  0
 35 30  2  0
 36 37  2  0
 36 35  1  0
 37 38  1  0
 38 39  2  0
 40 14  1  0
 40 41  1  0
 41 43  1  1
 41 42  1  0
 44 41  1  0
 45 48  1  0
 45 40  1  0
 46 45  1  0
 47 46  2  0
 50 49  1  0
 50 46  1  0
 52 51  1  0
 52 50  1  0
 53 52  1  0
 54 55  1  0
 56 55  1  0
 57 56  1  0
 58 57  1  0
 59 58  1  0
 60 59  1  0
 60 62  2  0
 61 60  1  0
 63 61  1  0
 64 61  1  0
 64 65  1  0
 66 75  1  0
 66 65  1  0
 67 75  1  0
 67 74  2  0
 68 73  1  0
 69 68  1  0
 70 71  1  0
 70 69  1  0
 71 80  1  0
 71 72  1  0
 72 73  1  0
 73 67  1  0
 75 76  1  0
 77 80  1  0
 77102  1  0
 78 77  2  0
 79 78  1  0
 79 81  2  0
 81 80  1  0
 82 79  1  0
 83 82  1  0
 84 83  2  0
 85 86  2  0
 85 84  1  0
 86 87  1  0
 87 82  2  0
 88 85  1  0
 89 88  1  0
 89 90  1  0
 91 90  2  0
 92 91  1  0
 93 94  1  0
 93 92  2  0
 94 89  2  0
 95 94  1  0
 96 92  1  0
 97 99  2  0
 97 78  1  0
 98 97  1  0
100 98  1  0
101 98  1  0
102104  1  0
103102  1  0
M  ISO  4  12 101  13 101  67 100  75 100
M  END
>  <TORSDO>  (65) 
F 34

>  <SCORE>  (65) 
28.070

>  <name>  (65) 
67

>  <ligand_id>  (65) 
67

>  <original_smiles>  (65) 
[H]c1c([H])c([H])c2c(c1[H])C([H])([H])C([H])([H])C([H])([H])C2([H])N([H])C(=O)C1([H])N(C(=O)C([H])(N([H])C(=O)C([H])(N([H])C([H])([H])[H])C([H])([H])[H])C(C([H])([H])[H])(C([H])([H])[H])C([H])([H])[H])C([H])([H])c2c([H])c(OC([H])([H])C([H])([H])OC([H])([H])C(=O)N([H])C([H])([H])C([H])([H])OC([H])([H])C([H])([H])OC([H])([H])C([H])([H])OC([H])([H])C(=O)N([H])C([H])([H])C([H])([H])C([H])([H])N([H])C(=O)N3C([H])([H])C([H])([H])C([H])([H])C([H])(n4nc(-c5c([H])c([H])c(Oc6c([H])c([H])c(F)c([H])c6F)c([H])c5[H])c(C(=O)N([H])[H])c4N([H])[H])C3([H])[H])c([H])c([H])c2C1([H])[H]

>  <smiles>  (65) 
[H]c1c([H])c([H])c2c(c1[H])C([H])([H])C([H])([H])C([H])([H])C2([H])N([H])C(=O)C1([H])N(C(=O)C([H])(N([H])C(=O)C([H])(N([H])C([H])([H])[H])C([H])([H])[H])C(C([H])([H])[H])(C([H])([H])[H])C([H])([H])[H])C([H])([H])c2c([H])c(OC([H])([H])C([H])([H])OC([H])([H])C(=O)N([H])C([H])([H])C([H])([H])OC([H])([H])C([H])([H])OC([H])([H])C([H])([H])OC([H])([H])C(=O)N([H])C([H])([H])C([H])([H])C([H])([H])N([H])C(=O)N3C([H])([H])C([H])([H])C([H])([H])C([H])(n4nc(-c5c([H])c([H])c(Oc6c([H])c([H])c(F)c([H])c6F)c([H])c5[H])c(C(=O)N([H])[H])c4N([H])[H])C3([H])[H])c([H])c([H])c2C1([H])[H]

$$$$
68:0:0
     RDKit          3D

104109  0  0  1  0  0  0  0  0999 V2000
  -20.7890  -19.4970   20.1400 C   0  0  0  0  0  2  0  0  0  0  0  0
  -22.3540  -21.3300   19.4260 C   0  0  0  0  0  0  0  0  0  0  0  0
  -21.3520  -20.8480   20.1750 N   0  0  0  0  0  0  0  0  0  0  0  0
  -22.8860  -20.6770   18.5250 O   0  0  0  0  0  0  0  0  0  0  0  0
  -20.9900  -21.4620   20.8890 H   0  0  0  0  0  0  0  0  0  0  0  0
  -22.8530  -22.7480   19.7550 C   0  0  0  0  0  2  0  0  0  0  0  0
  -24.0810  -22.6380   20.4720 O   0  0  0  0  0  0  0  0  0  0  0  0
  -24.3750  -23.7580   21.2980 C   0  0  0  0  0  2  0  0  0  0  0  0
  -25.8820  -23.7640   21.6300 C   0  0  0  0  0  2  0  0  0  0  0  0
  -26.5640  -24.1000   20.4190 O   0  0  0  0  0  0  0  0  0  0  0  0
  -27.9790  -24.2620   20.4830 C   0  0  0  0  0  2  0  0  0  0  0  0
  -28.4630  -25.3680   19.5050 C   0  0  0  0  0  2  0  0  0  0  0  0
  -28.4160  -26.7050   20.0560 O   0  0  0  0  0  0  0  0  0  0  0  0
  -24.6230  -31.8660   23.2100 C   0  0  0  0  0  0  0  0  0  0  0  0
  -27.2310  -27.4180   20.0740 C   0  0  0  0  0  0  0  0  0  0  0  0
  -23.4130  -30.4990   21.5490 C   0  0  0  0  0  3  0  0  0  0  0  0
  -24.8540  -28.9610   20.1310 C   0  0  0  0  0  0  0  0  0  0  0  0
  -25.9450  -30.8380   21.3600 C   0  0  0  0  0  2  0  0  0  0  0  0
  -26.0210  -29.4710   20.7070 C   0  0  0  0  0  0  0  0  0  0  0  0
  -27.2150  -28.7080   20.6730 C   0  0  0  0  0  3  0  0  0  0  0  0
  -26.0290  -26.9320   19.5060 C   0  0  0  0  0  3  0  0  0  0  0  0
  -24.8510  -27.6970   19.5340 C   0  0  0  0  0  3  0  0  0  0  0  0
  -23.6280  -29.8380   20.1700 C   0  0  0  0  0  2  0  0  0  0  0  0
  -24.6790  -31.0870   22.0930 N   0  0  0  0  0  0  0  0  0  0  0  0
  -23.5410  -32.1280   23.7530 O   0  0  0  0  0  0  0  0  0  0  0  0
  -22.7460  -29.4710   22.4910 C   0  0  0  0  0  0  0  0  0  0  0  0
  -21.4190  -29.3110   22.3610 N   0  0  0  0  0  0  0  0  0  0  0  0
  -23.4190  -28.8250   23.2970 O   0  0  0  0  0  0  0  0  0  0  0  0
  -20.9390  -29.8730   21.6700 H   0  0  0  0  0  0  0  0  0  0  0  0
  -18.0270  -28.1400   22.8410 C   0  0  0  0  0  0  0  0  0  0  0  0
  -20.5850  -28.3840   23.1240 C   0  0  0  0  0  3  0  0  0  0  0  0
  -20.6840  -26.9520   22.5530 C   0  0  0  0  0  2  0  0  0  0  0  0
  -19.5860  -26.6380   21.5320 C   0  0  0  0  0  2  0  0  0  0  0  0
  -18.2020  -26.7880   22.1650 C   0  0  0  0  0  2  0  0  0  0  0  0
  -19.1480  -28.8940   23.2760 C   0  0  0  0  0  0  0  0  0  0  0  0
  -18.9410  -30.1500   23.8830 C   0  0  0  0  0  3  0  0  0  0  0  0
  -17.6410  -30.6610   24.0500 C   0  0  0  0  0  3  0  0  0  0  0  0
  -16.5310  -29.9080   23.6250 C   0  0  0  0  0  3  0  0  0  0  0  0
  -16.7260  -28.6490   23.0290 C   0  0  0  0  0  3  0  0  0  0  0  0
  -25.9110  -32.4830   23.8360 C   0  0  0  0  0  3  0  0  0  0  0  0
  -26.4560  -31.6540   25.0650 C   0  0  1  0  0  0  0  0  0  0  0  0
  -25.3800  -31.3550   26.1360 C   0  0  0  0  0  1  0  0  0  0  0  0
  -27.0410  -30.2970   24.6060 C   0  0  0  0  0  1  0  0  0  0  0  0
  -27.6210  -32.4200   25.7340 C   0  0  0  0  0  1  0  0  0  0  0  0
  -25.5920  -33.8610   24.2350 N   0  0  0  0  0  0  0  0  0  0  0  0
  -25.9080  -34.9500   23.5190 C   0  0  0  0  0  0  0  0  0  0  0  0
  -26.5630  -34.8940   22.4750 O   0  0  0  0  0  0  0  0  0  0  0  0
  -25.0070  -33.9660   25.0500 H   0  0  0  0  0  0  0  0  0  0  0  0
  -24.1530  -36.7310   23.2630 C   0  0  0  0  0  1  0  0  0  0  0  0
  -25.4160  -36.3170   24.0390 C   0  0  0  0  0  3  0  0  0  0  0  0
  -27.5610  -37.1870   24.8500 C   0  0  0  0  0  1  0  0  0  0  0  0
  -26.4360  -37.3840   23.9410 N   0  0  0  0  0  0  0  0  0  0  0  0
  -26.0300  -38.3000   24.1210 H   0  0  0  0  0  0  0  0  0  0  0  0
  -21.0340  -18.7490   21.4690 C   0  0  0  0  0  2  0  0  0  0  0  0
  -22.4430  -18.5280   21.6840 O   0  0  0  0  0  0  0  0  0  0  0  0
  -22.7020  -17.3170   22.4130 C   0  0  0  0  0  2  0  0  0  0  0  0
  -24.1940  -16.9780   22.7150 C   0  0  0  0  0  2  0  0  0  0  0  0
  -24.2960  -15.6280   23.2490 O   0  0  0  0  0  0  0  0  0  0  0  0
  -25.5960  -15.2140   23.7150 C   0  0  0  0  0  2  0  0  0  0  0  0
  -25.6920  -13.7910   24.3730 C   0  0  0  0  0  2  0  0  0  0  0  0
  -26.3300  -12.7830   23.5630 O   0  0  0  0  0  0  0  0  0  0  0  0
  -27.1200  -11.7870   24.2570 C   0  0  0  0  0  2  0  0  0  0  0  0
  -27.8080  -10.7260   23.3240 C   0  0  0  0  0  2  0  0  0  0  0  0
  -29.1480  -11.0910   22.9410 O   0  0  0  0  0  0  0  0  0  0  0  0
  -29.6330  -10.6870   21.6470 C   0  0  0  0  0  2  0  0  0  0  0  0
  -29.1220  -11.4720   20.3270 C   0  0  0  0  0  1  0  0  0  0  0  0
  -30.6720  -14.2700   20.4280 C   0  0  0  0  0  3  0  0  0  0  0  0
  -31.2100  -12.0020   19.3410 C   0  0  0  0  0  1  0  0  0  0  0  0
  -29.8420  -12.0020   17.9680 C   0  0  0  0  0  3  0  0  0  0  0  0
  -28.0840  -12.5600   18.3580 C   0  0  0  0  0  3  0  0  0  0  0  0
  -27.5010  -13.3450   19.9570 C   0  0  0  0  0  3  0  0  0  0  0  0
  -28.6220  -13.4910   21.4750 C   0  0  0  0  0  1  0  0  0  0  0  0
  -30.4490  -13.1300   20.8070 N   0  0  0  0  0  2  0  0  0  0  0  0
  -31.6320  -14.7900   19.8580 O   0  0  0  0  0  1  0  0  0  0  0  0
  -29.8270  -13.5310   19.7550 N   0  0  0  0  0  0  0  0  0  0  0  0
  -29.7050  -13.7700   18.7770 H   0  0  0  0  0  0  0  0  0  0  0  0
  -25.1430  -13.8250   20.5410 C   0  0  0  0  0  0  0  0  0  0  0  0
  -24.1070  -13.0370   20.9240 C   0  0  0  0  0  0  0  0  0  0  0  0
  -24.5760  -11.6920   20.8650 C   0  0  0  0  0  0  0  0  0  0  0  0
  -26.1810  -12.9680   20.3210 N   0  0  0  0  0  0  0  0  0  0  0  0
  -25.8460  -11.6730   20.5190 N   0  0  0  0  0  0  0  0  0  0  0  0
  -23.8650  -10.4280   21.0380 C   0  0  0  0  0  0  0  0  0  0  0  0
  -24.3520   -9.4100   21.8900 C   0  0  0  0  0  3  0  0  0  0  0  0
  -23.6340   -8.2070   22.0460 C   0  0  0  0  0  3  0  0  0  0  0  0
  -22.4230   -8.0190   21.3400 C   0  0  0  0  0  0  0  0  0  0  0  0
  -21.9610   -9.0180   20.4720 C   0  0  0  0  0  3  0  0  0  0  0  0
  -22.6770  -10.2150   20.3170 C   0  0  0  0  0  3  0  0  0  0  0  0
  -21.6630   -6.8780   21.4180 O   0  0  0  0  0  0  0  0  0  0  0  0
  -21.6870   -6.0690   22.5210 C   0  0  0  0  0  0  0  0  0  0  0  0
  -21.4020   -6.5630   23.8120 C   0  0  0  0  0  3  0  0  0  0  0  0
  -21.3680   -5.6830   24.9100 C   0  0  0  0  0  3  0  0  0  0  0  0
  -21.6100   -4.3080   24.7210 C   0  0  0  0  0  0  0  0  0  0  0  0
  -21.8830   -3.8110   23.4340 C   0  0  0  0  0  3  0  0  0  0  0  0
  -21.9200   -4.6910   22.3380 C   0  0  0  0  0  0  0  0  0  0  0  0
  -22.1690   -4.2030   21.0970 F   0  0  0  0  0  0  0  0  0  0  0  0
  -21.5700   -3.4630   25.7740 F   0  0  0  0  0  0  0  0  0  0  0  0
  -22.7220  -13.5020   21.1970 C   0  0  0  0  0  0  0  0  0  0  0  0
  -22.0220  -12.8260   22.1050 N   0  0  0  0  0  0  0  0  0  0  0  0
  -22.2540  -14.4790   20.6230 O   0  0  0  0  0  0  0  0  0  0  0  0
  -22.4390  -12.0540   22.6070 H   0  0  0  0  0  0  0  0  0  0  0  0
  -21.0790  -13.1050   22.3410 H   0  0  0  0  0  0  0  0  0  0  0  0
  -25.3060  -15.1900   20.3240 N   0  0  0  0  0  0  0  0  0  0  0  0
  -24.5480  -15.8410   20.4730 H   0  0  0  0  0  0  0  0  0  0  0  0
  -26.1450  -15.6050   19.9420 H   0  0  0  0  0  0  0  0  0  0  0  0
  1  3  1  0
  1 54  1  0
  2  6  1  0
  2  3  1  0
  3  5  1  0
  4  2  2  0
  6  7  1  0
  7  8  1  0
  8  9  1  0
 10 11  1  0
 10  9  1  0
 12 13  1  0
 12 11  1  0
 13 15  1  0
 14 25  2  0
 15 20  1  0
 16 24  1  0
 16 26  1  0
 17 23  1  0
 17 19  1  0
 18 24  1  0
 19 18  1  0
 20 19  2  0
 21 22  1  0
 21 15  2  0
 22 17  2  0
 23 16  1  0
 24 14  1  0
 26 28  2  0
 27 26  1  0
 29 27  1  0
 30 39  2  0
 30 35  1  0
 31 27  1  0
 31 35  1  0
 32 31  1  0
 33 34  1  0
 33 32  1  0
 34 30  1  0
 35 36  2  0
 36 37  1  0
 38 37  2  0
 39 38  1  0
 40 14  1  0
 40 45  1  0
 40 41  1  0
 41 44  1  1
 41 42  1  0
 43 41  1  0
 45 48  1  0
 46 50  1  0
 46 45  1  0
 47 46  2  0
 50 49  1  0
 52 50  1  0
 52 53  1  0
 52 51  1  0
 54 55  1  0
 55 56  1  0
 56 57  1  0
 57 58  1  0
 58 59  1  0
 59 60  1  0
 61 62  1  0
 61 60  1  0
 63 62  1  0
 64 63  1  0
 65 64  1  0
 66 65  1  0
 67 74  1  0
 67 73  1  0
 69 70  2  0
 69 68  1  0
 70 71  1  0
 71 80  1  0
 71 72  1  0
 75 67  1  0
 75 73  1  0
 76 75  1  0
 77 78  2  0
 78 97  1  0
 79 78  1  0
 79 82  1  0
 80 81  1  0
 80 77  1  0
 81 79  2  0
 82 83  1  0
 83 84  2  0
 85 88  1  0
 85 84  1  0
 86 85  2  0
 87 86  1  0
 87 82  2  0
 88 89  1  0
 89 90  1  0
 90 91  2  0
 92 91  1  0
 92 96  1  0
 93 92  2  0
 94 89  2  0
 94 93  1  0
 95 94  1  0
 97 98  1  0
 98101  1  0
 98100  1  0
 99 97  2  0
102103  1  0
102 77  1  0
104102  1  0
M  ISO  4  12 101  13 101  67 100  75 100
M  END
>  <TORSDO>  (66) 
F 37

>  <SCORE>  (66) 
38.736

>  <name>  (66) 
68

>  <ligand_id>  (66) 
68

>  <original_smiles>  (66) 
[H]c1c([H])c([H])c2c(c1[H])C([H])([H])C([H])([H])C([H])([H])C2([H])N([H])C(=O)C1([H])N(C(=O)C([H])(N([H])C(=O)C([H])(N([H])C([H])([H])[H])C([H])([H])[H])C(C([H])([H])[H])(C([H])([H])[H])C([H])([H])[H])C([H])([H])c2c([H])c(OC([H])([H])C([H])([H])OC([H])([H])C([H])([H])OC([H])([H])C(=O)N([H])C([H])([H])C([H])([H])OC([H])([H])C([H])([H])OC([H])([H])C([H])([H])OC([H])([H])C([H])([H])OC([H])([H])C([H])([H])N([H])C(=O)N3C([H])([H])C([H])([H])C([H])([H])C([H])(n4nc(-c5c([H])c([H])c(Oc6c([H])c([H])c(F)c([H])c6F)c([H])c5[H])c(C(=O)N([H])[H])c4N([H])[H])C3([H])[H])c([H])c([H])c2C1([H])[H]

>  <smiles>  (66) 
[H]c1c([H])c([H])c2c(c1[H])C([H])([H])C([H])([H])C([H])([H])C2([H])N([H])C(=O)C1([H])N(C(=O)C([H])(N([H])C(=O)C([H])(N([H])C([H])([H])[H])C([H])([H])[H])C(C([H])([H])[H])(C([H])([H])[H])C([H])([H])[H])C([H])([H])c2c([H])c(OC([H])([H])C([H])([H])OC([H])([H])C([H])([H])OC([H])([H])C(=O)N([H])C([H])([H])C([H])([H])OC([H])([H])C([H])([H])OC([H])([H])C([H])([H])OC([H])([H])C([H])([H])OC([H])([H])C([H])([H])N([H])C(=O)N3C([H])([H])C([H])([H])C([H])([H])C([H])(n4nc(-c5c([H])c([H])c(Oc6c([H])c([H])c(F)c([H])c6F)c([H])c5[H])c(C(=O)N([H])[H])c4N([H])[H])C3([H])[H])c([H])c([H])c2C1([H])[H]

$$$$
69:0:0
     RDKit          3D

101108  0  0  1  0  0  0  0  0999 V2000
  -32.6330  -28.9560   19.7160 C   0  0  0  0  0  2  0  0  0  0  0  0
  -32.7000  -28.5310   18.2470 C   0  0  0  0  0  0  0  0  0  0  0  0
  -31.8030  -27.6110   17.8820 N   0  0  0  0  0  0  0  0  0  0  0  0
  -33.5320  -29.0160   17.4760 O   0  0  0  0  0  0  0  0  0  0  0  0
  -31.1740  -27.2950   18.6100 H   0  0  0  0  0  0  0  0  0  0  0  0
  -31.6930  -26.9540   16.5890 C   0  0  0  0  0  2  0  0  0  0  0  0
  -31.3290  -25.4740   16.7860 C   0  0  0  0  0  2  0  0  0  0  0  0
  -29.9210  -25.2950   17.3900 C   0  0  0  0  0  2  0  0  0  0  0  0
  -29.8800  -25.1300   18.9250 C   0  0  0  0  0  2  0  0  0  0  0  0
  -28.4940  -25.4450   19.5120 C   0  0  0  0  0  2  0  0  0  0  0  0
  -28.4460  -26.7960   19.9880 O   0  0  0  0  0  0  0  0  0  0  0  0
  -24.6120  -31.8740   23.2090 C   0  0  0  0  0  0  0  0  0  0  0  0
  -27.2360  -27.4620   20.0530 C   0  0  0  0  0  0  0  0  0  0  0  0
  -23.3960  -30.4990   21.5560 C   0  0  0  0  0  3  0  0  0  0  0  0
  -24.8350  -28.9680   20.1230 C   0  0  0  0  0  0  0  0  0  0  0  0
  -25.9220  -30.8520   21.3480 C   0  0  0  0  0  2  0  0  0  0  0  0
  -26.0010  -29.4850   20.6990 C   0  0  0  0  0  0  0  0  0  0  0  0
  -27.2030  -28.7400   20.6590 C   0  0  0  0  0  3  0  0  0  0  0  0
  -26.0300  -26.9450   19.5160 C   0  0  0  0  0  3  0  0  0  0  0  0
  -24.8430  -27.6940   19.5380 C   0  0  0  0  0  3  0  0  0  0  0  0
  -23.5980  -29.8330   20.1720 C   0  0  0  0  0  2  0  0  0  0  0  0
  -24.6640  -31.0850   22.0990 N   0  0  0  0  0  0  0  0  0  0  0  0
  -23.5320  -32.1460   23.7520 O   0  0  0  0  0  0  0  0  0  0  0  0
  -22.7360  -29.4720   22.5030 C   0  0  0  0  0  0  0  0  0  0  0  0
  -21.4090  -29.3060   22.3720 N   0  0  0  0  0  0  0  0  0  0  0  0
  -23.4110  -28.8270   23.3070 O   0  0  0  0  0  0  0  0  0  0  0  0
  -20.9230  -29.8740   21.6930 H   0  0  0  0  0  0  0  0  0  0  0  0
  -18.0270  -28.1390   22.8490 C   0  0  0  0  0  0  0  0  0  0  0  0
  -20.5850  -28.3690   23.1330 C   0  0  0  0  0  3  0  0  0  0  0  0
  -20.6770  -26.9430   22.5430 C   0  0  0  0  0  2  0  0  0  0  0  0
  -19.5750  -26.6390   21.5230 C   0  0  0  0  0  2  0  0  0  0  0  0
  -18.1930  -26.7940   22.1630 C   0  0  0  0  0  2  0  0  0  0  0  0
  -19.1510  -28.8860   23.2910 C   0  0  0  0  0  0  0  0  0  0  0  0
  -18.9430  -30.1440   23.8950 C   0  0  0  0  0  3  0  0  0  0  0  0
  -17.6440  -30.6600   24.0570 C   0  0  0  0  0  3  0  0  0  0  0  0
  -16.5330  -29.9100   23.6320 C   0  0  0  0  0  3  0  0  0  0  0  0
  -16.7260  -28.6510   23.0350 C   0  0  0  0  0  3  0  0  0  0  0  0
  -25.9030  -32.4820   23.8380 C   0  0  0  0  0  3  0  0  0  0  0  0
  -25.5910  -33.8610   24.2380 N   0  0  0  0  0  0  0  0  0  0  0  0
  -25.9020  -34.9470   23.5160 C   0  0  0  0  0  0  0  0  0  0  0  0
  -26.5530  -34.8930   22.4700 O   0  0  0  0  0  0  0  0  0  0  0  0
  -25.0090  -33.9750   25.0540 H   0  0  0  0  0  0  0  0  0  0  0  0
  -24.1480  -36.7340   23.2660 C   0  0  0  0  0  1  0  0  0  0  0  0
  -25.4090  -36.3120   24.0370 C   0  0  0  0  0  3  0  0  0  0  0  0
  -27.5560  -37.1830   24.8500 C   0  0  0  0  0  1  0  0  0  0  0  0
  -26.4290  -37.3810   23.9440 N   0  0  0  0  0  0  0  0  0  0  0  0
  -26.0180  -38.2890   24.1480 H   0  0  0  0  0  0  0  0  0  0  0  0
  -26.4420  -31.6500   25.0680 C   0  0  1  0  0  0  0  0  0  0  0  0
  -25.3670  -31.3610   26.1410 C   0  0  0  0  0  1  0  0  0  0  0  0
  -27.0060  -30.2930   24.6020 C   0  0  0  0  0  1  0  0  0  0  0  0
  -27.6140  -32.4040   25.7380 C   0  0  0  0  0  1  0  0  0  0  0  0
  -32.5540  -27.7900   20.5340 O   0  0  0  0  0  0  0  0  0  0  0  0
  -32.1000  -28.0660   21.8520 C   0  0  0  0  0  2  0  0  0  0  0  0
  -32.3380  -26.8370   22.7430 C   0  0  0  0  0  2  0  0  0  0  0  0
  -31.4840  -25.7740   22.3400 O   0  0  0  0  0  0  0  0  0  0  0  0
  -31.7830  -24.5310   22.9710 C   0  0  0  0  0  2  0  0  0  0  0  0
  -30.7080  -23.5070   22.5700 C   0  0  0  0  0  2  0  0  0  0  0  0
  -31.0930  -22.1640   22.8730 O   0  0  0  0  0  0  0  0  0  0  0  0
  -30.0680  -21.2320   22.5220 C   0  0  0  0  0  2  0  0  0  0  0  0
  -30.5230  -19.7700   22.7270 C   0  0  0  0  0  2  0  0  0  0  0  0
  -29.4550  -18.8810   22.3980 O   0  0  0  0  0  0  0  0  0  0  0  0
  -29.7330  -17.4940   22.5890 C   0  0  0  0  0  2  0  0  0  0  0  0
  -30.3060  -16.8230   21.3230 C   0  0  0  0  0  2  0  0  0  0  0  0
  -30.7070  -14.4440   20.6230 C   0  0  0  0  0  0  0  0  0  0  0  0
  -30.4350  -12.3060   19.4190 C   0  0  0  0  0  2  0  0  0  0  0  0
  -29.5050  -12.5190   18.2070 C   0  0  0  0  0  2  0  0  0  0  0  0
  -28.0250  -12.3790   18.6200 C   0  0  0  0  0  2  0  0  0  0  0  0
  -27.6740  -13.2000   19.8890 C   0  0  0  0  0  3  0  0  0  0  0  0
  -28.7130  -12.9540   21.0080 C   0  0  0  0  0  2  0  0  0  0  0  0
  -30.0480  -13.2670   20.4640 N   0  0  0  0  0  0  0  0  0  0  0  0
  -31.7890  -14.6950   20.0850 O   0  0  0  0  0  0  0  0  0  0  0  0
  -30.0390  -15.3790   21.3140 N   0  0  0  0  0  0  0  0  0  0  0  0
  -29.1710  -15.0720   21.7240 H   0  0  0  0  0  0  0  0  0  0  0  0
  -25.2640  -13.8130   20.5640 C   0  0  0  0  0  0  0  0  0  0  0  0
  -24.1870  -13.0430   20.9100 C   0  0  0  0  0  0  0  0  0  0  0  0
  -24.6420  -11.6880   20.8710 C   0  0  0  0  0  0  0  0  0  0  0  0
  -26.3110  -12.9300   20.3410 N   0  0  0  0  0  0  0  0  0  0  0  0
  -25.9360  -11.6470   20.5760 N   0  0  0  0  0  0  0  0  0  0  0  0
  -23.9070  -10.4300   21.0410 C   0  0  0  0  0  0  0  0  0  0  0  0
  -24.3600   -9.4210   21.9200 C   0  0  0  0  0  3  0  0  0  0  0  0
  -23.6270   -8.2260   22.0780 C   0  0  0  0  0  3  0  0  0  0  0  0
  -22.4270   -8.0290   21.3560 C   0  0  0  0  0  0  0  0  0  0  0  0
  -21.9890   -9.0270   20.4680 C   0  0  0  0  0  3  0  0  0  0  0  0
  -22.7220  -10.2140   20.3080 C   0  0  0  0  0  3  0  0  0  0  0  0
  -21.6630   -6.8890   21.4260 O   0  0  0  0  0  0  0  0  0  0  0  0
  -21.6860   -6.0730   22.5270 C   0  0  0  0  0  0  0  0  0  0  0  0
  -21.4040   -6.5630   23.8210 C   0  0  0  0  0  3  0  0  0  0  0  0
  -21.3640   -5.6790   24.9160 C   0  0  0  0  0  3  0  0  0  0  0  0
  -21.6030   -4.3060   24.7220 C   0  0  0  0  0  0  0  0  0  0  0  0
  -21.8800   -3.8140   23.4360 C   0  0  0  0  0  3  0  0  0  0  0  0
  -21.9190   -4.6950   22.3400 C   0  0  0  0  0  0  0  0  0  0  0  0
  -22.1640   -4.2130   21.0990 F   0  0  0  0  0  0  0  0  0  0  0  0
  -21.5610   -3.4540   25.7740 F   0  0  0  0  0  0  0  0  0  0  0  0
  -22.7900  -13.5250   21.1750 C   0  0  0  0  0  0  0  0  0  0  0  0
  -22.0500  -12.8320   22.0330 N   0  0  0  0  0  0  0  0  0  0  0  0
  -22.3600  -14.5560   20.6580 O   0  0  0  0  0  0  0  0  0  0  0  0
  -22.4070  -12.0010   22.4810 H   0  0  0  0  0  0  0  0  0  0  0  0
  -21.1150  -13.1460   22.2510 H   0  0  0  0  0  0  0  0  0  0  0  0
  -25.4340  -15.1860   20.4030 N   0  0  0  0  0  0  0  0  0  0  0  0
  -24.6700  -15.8420   20.5240 H   0  0  0  0  0  0  0  0  0  0  0  0
  -26.2880  -15.6260   20.0830 H   0  0  0  0  0  0  0  0  0  0  0  0
  1 52  1  0
  2  1  1  0
  3  2  1  0
  3  5  1  0
  4  2  2  0
  6  7  1  0
  6  3  1  0
  7  8  1  0
  8  9  1  0
  9 10  1  0
 10 11  1  0
 11 13  1  0
 12 23  2  0
 13 18  1  0
 14 22  1  0
 14 24  1  0
 15 21  1  0
 15 17  1  0
 16 22  1  0
 17 16  1  0
 18 17  2  0
 19 20  1  0
 19 13  2  0
 20 15  2  0
 21 14  1  0
 22 12  1  0
 24 26  2  0
 25 24  1  0
 27 25  1  0
 28 37  2  0
 28 33  1  0
 29 25  1  0
 29 33  1  0
 30 29  1  0
 31 32  1  0
 31 30  1  0
 32 28  1  0
 33 34  2  0
 34 35  1  0
 36 35  2  0
 37 36  1  0
 38 12  1  0
 38 39  1  0
 38 48  1  0
 39 42  1  0
 40 44  1  0
 40 39  1  0
 41 40  2  0
 44 43  1  0
 46 44  1  0
 46 47  1  0
 46 45  1  0
 48 51  1  1
 48 49  1  0
 50 48  1  0
 52 53  1  0
 53 54  1  0
 55 54  1  0
 55 56  1  0
 57 58  1  0
 57 56  1  0
 59 60  1  0
 59 58  1  0
 61 62  1  0
 61 60  1  0
 63 62  1  0
 64 72  1  0
 65 70  1  0
 66 67  1  0
 66 65  1  0
 68 67  1  0
 68 77  1  0
 68 69  1  0
 70 64  1  0
 70 69  1  0
 71 64  2  0
 72 63  1  0
 72 73  1  0
 74 75  2  0
 75 94  1  0
 76 75  1  0
 76 79  1  0
 77 74  1  0
 77 78  1  0
 78 76  2  0
 79 80  1  0
 80 81  2  0
 82 85  1  0
 82 81  1  0
 83 82  2  0
 84 83  1  0
 84 79  2  0
 85 86  1  0
 86 87  1  0
 87 88  2  0
 89 88  1  0
 89 93  1  0
 90 89  2  0
 91 86  2  0
 91 90  1  0
 92 91  1  0
 94 95  1  0
 95 98  1  0
 95 97  1  0
 96 94  2  0
 99100  1  0
 99 74  1  0
101 99  1  0
M  ISO  4  10 101  11 101  64 100  72 100
M  END
>  <TORSDO>  (67) 
F 34

>  <SCORE>  (67) 
-3.877

>  <name>  (67) 
69

>  <ligand_id>  (67) 
69

>  <original_smiles>  (67) 
[H]c1c([H])c([H])c2c(c1[H])C([H])([H])C([H])([H])C([H])([H])C2([H])N([H])C(=O)C1([H])N(C(=O)C([H])(N([H])C(=O)C([H])(N([H])C([H])([H])[H])C([H])([H])[H])C(C([H])([H])[H])(C([H])([H])[H])C([H])([H])[H])C([H])([H])c2c([H])c(OC([H])([H])C([H])([H])C([H])([H])C([H])([H])C([H])([H])N([H])C(=O)C([H])([H])OC([H])([H])C([H])([H])OC([H])([H])C([H])([H])OC([H])([H])C([H])([H])OC([H])([H])C([H])([H])N([H])C(=O)N3C([H])([H])C([H])([H])C([H])([H])C([H])(n4nc(-c5c([H])c([H])c(Oc6c([H])c([H])c(F)c([H])c6F)c([H])c5[H])c(C(=O)N([H])[H])c4N([H])[H])C3([H])[H])c([H])c([H])c2C1([H])[H]

>  <smiles>  (67) 
[H]c1c([H])c([H])c2c(c1[H])C([H])([H])C([H])([H])C([H])([H])C2([H])N([H])C(=O)C1([H])N(C(=O)C([H])(N([H])C(=O)C([H])(N([H])C([H])([H])[H])C([H])([H])[H])C(C([H])([H])[H])(C([H])([H])[H])C([H])([H])[H])C([H])([H])c2c([H])c(OC([H])([H])C([H])([H])C([H])([H])C([H])([H])C([H])([H])N([H])C(=O)C([H])([H])OC([H])([H])C([H])([H])OC([H])([H])C([H])([H])OC([H])([H])C([H])([H])OC([H])([H])C([H])([H])N([H])C(=O)N3C([H])([H])C([H])([H])C([H])([H])C([H])(n4nc(-c5c([H])c([H])c(Oc6c([H])c([H])c(F)c([H])c6F)c([H])c5[H])c(C(=O)N([H])[H])c4N([H])[H])C3([H])[H])c([H])c([H])c2C1([H])[H]

$$$$
70:0:0
     RDKit          3D

 91 98  0  0  1  0  0  0  0  0999 V2000
  -31.5490  -23.0530   17.4200 C   0  0  0  0  0  2  0  0  0  0  0  0
  -31.6700  -21.9010   18.2500 O   0  0  0  0  0  0  0  0  0  0  0  0
  -31.9720  -22.1720   19.6160 C   0  0  0  0  0  2  0  0  0  0  0  0
  -31.1020  -21.2770   20.5060 C   0  0  0  0  0  2  0  0  0  0  0  0
  -31.5190  -19.9160   20.4120 O   0  0  0  0  0  0  0  0  0  0  0  0
  -30.5680  -19.0420   21.0070 C   0  0  0  0  0  2  0  0  0  0  0  0
  -31.0100  -17.5700   20.9260 C   0  0  0  0  0  2  0  0  0  0  0  0
  -29.8030  -16.6500   21.1940 C   0  0  0  0  0  2  0  0  0  0  0  0
  -30.6810  -14.3920   20.5050 C   0  0  0  0  0  0  0  0  0  0  0  0
  -30.3640  -12.3100   19.2230 C   0  0  0  0  0  2  0  0  0  0  0  0
  -29.3990  -12.5980   18.0540 C   0  0  0  0  0  2  0  0  0  0  0  0
  -27.9280  -12.4710   18.5020 C   0  0  0  0  0  2  0  0  0  0  0  0
  -27.6290  -13.2520   19.8090 C   0  0  0  0  0  3  0  0  0  0  0  0
  -28.6870  -12.9010   20.8800 C   0  0  0  0  0  2  0  0  0  0  0  0
  -30.0240  -13.2170   20.3300 N   0  0  0  0  0  0  0  0  0  0  0  0
  -31.7000  -14.7090   19.8820 O   0  0  0  0  0  0  0  0  0  0  0  0
  -30.0680  -15.2200   21.3590 N   0  0  0  0  0  0  0  0  0  0  0  0
  -29.3820  -14.7470   21.9270 H   0  0  0  0  0  0  0  0  0  0  0  0
  -25.2330  -13.8880   20.5210 C   0  0  0  0  0  0  0  0  0  0  0  0
  -24.1590  -13.1250   20.8930 C   0  0  0  0  0  0  0  0  0  0  0  0
  -24.6050  -11.7680   20.8490 C   0  0  0  0  0  0  0  0  0  0  0  0
  -26.2710  -12.9970   20.2830 N   0  0  0  0  0  0  0  0  0  0  0  0
  -25.8910  -11.7160   20.5300 N   0  0  0  0  0  0  0  0  0  0  0  0
  -23.8680  -10.5120   21.0370 C   0  0  0  0  0  0  0  0  0  0  0  0
  -24.3220   -9.5200   21.9330 C   0  0  0  0  0  3  0  0  0  0  0  0
  -23.5890   -8.3260   22.1100 C   0  0  0  0  0  3  0  0  0  0  0  0
  -22.3870   -8.1190   21.3910 C   0  0  0  0  0  0  0  0  0  0  0  0
  -21.9520   -9.1010   20.4830 C   0  0  0  0  0  3  0  0  0  0  0  0
  -22.6860  -10.2850   20.3050 C   0  0  0  0  0  3  0  0  0  0  0  0
  -21.6220   -6.9800   21.4790 O   0  0  0  0  0  0  0  0  0  0  0  0
  -21.6270   -6.1950   22.6040 C   0  0  0  0  0  0  0  0  0  0  0  0
  -21.3000   -6.7120   23.8760 C   0  0  0  0  0  3  0  0  0  0  0  0
  -21.2520   -5.8550   24.9930 C   0  0  0  0  0  3  0  0  0  0  0  0
  -21.5180   -4.4820   24.8400 C   0  0  0  0  0  0  0  0  0  0  0  0
  -21.8380   -3.9630   23.5720 C   0  0  0  0  0  3  0  0  0  0  0  0
  -21.8900   -4.8180   22.4580 C   0  0  0  0  0  0  0  0  0  0  0  0
  -22.1780   -4.3100   21.2350 F   0  0  0  0  0  0  0  0  0  0  0  0
  -21.4640   -3.6560   25.9120 F   0  0  0  0  0  0  0  0  0  0  0  0
  -22.7690  -13.6130   21.1840 C   0  0  0  0  0  0  0  0  0  0  0  0
  -22.0440  -12.9170   22.0530 N   0  0  0  0  0  0  0  0  0  0  0  0
  -22.3320  -14.6450   20.6760 O   0  0  0  0  0  0  0  0  0  0  0  0
  -22.4090  -12.0820   22.4880 H   0  0  0  0  0  0  0  0  0  0  0  0
  -21.1100  -13.2230   22.2880 H   0  0  0  0  0  0  0  0  0  0  0  0
  -25.4120  -15.2580   20.3500 N   0  0  0  0  0  0  0  0  0  0  0  0
  -24.6550  -15.9230   20.4680 H   0  0  0  0  0  0  0  0  0  0  0  0
  -26.2710  -15.6880   20.0320 H   0  0  0  0  0  0  0  0  0  0  0  0
  -30.1060  -23.5900   17.4430 C   0  0  0  0  0  2  0  0  0  0  0  0
  -29.8700  -24.3150   18.6410 O   0  0  0  0  0  0  0  0  0  0  0  0
  -28.5020  -24.6470   18.8320 C   0  0  0  0  0  2  0  0  0  0  0  0
  -28.3400  -25.3180   20.2060 C   0  0  0  0  0  2  0  0  0  0  0  0
  -28.4240  -26.7420   20.1230 O   0  0  0  0  0  0  0  0  0  0  0  0
  -24.6140  -31.8640   23.2190 C   0  0  0  0  0  0  0  0  0  0  0  0
  -27.2370  -27.4390   20.1150 C   0  0  0  0  0  0  0  0  0  0  0  0
  -23.3940  -30.4610   21.5870 C   0  0  0  0  0  3  0  0  0  0  0  0
  -24.8350  -28.9260   20.1490 C   0  0  0  0  0  0  0  0  0  0  0  0
  -25.9170  -30.8240   21.3690 C   0  0  0  0  0  2  0  0  0  0  0  0
  -25.9960  -29.4550   20.7280 C   0  0  0  0  0  0  0  0  0  0  0  0
  -27.1990  -28.7200   20.7050 C   0  0  0  0  0  3  0  0  0  0  0  0
  -26.0560  -26.9200   19.5320 C   0  0  0  0  0  3  0  0  0  0  0  0
  -24.8600  -27.6570   19.5480 C   0  0  0  0  0  3  0  0  0  0  0  0
  -23.5920  -29.7820   20.2060 C   0  0  0  0  0  2  0  0  0  0  0  0
  -24.6600  -31.0640   22.1160 N   0  0  0  0  0  0  0  0  0  0  0  0
  -23.5360  -32.1390   23.7660 O   0  0  0  0  0  0  0  0  0  0  0  0
  -22.7510  -29.4390   22.5520 C   0  0  0  0  0  0  0  0  0  0  0  0
  -21.4250  -29.2600   22.4330 N   0  0  0  0  0  0  0  0  0  0  0  0
  -23.4390  -28.8130   23.3610 O   0  0  0  0  0  0  0  0  0  0  0  0
  -20.9330  -29.8170   21.7490 H   0  0  0  0  0  0  0  0  0  0  0  0
  -18.0520  -28.0750   22.9450 C   0  0  0  0  0  0  0  0  0  0  0  0
  -20.6110  -28.3260   23.2080 C   0  0  0  0  0  3  0  0  0  0  0  0
  -20.7100  -26.8940   22.6350 C   0  0  0  0  0  2  0  0  0  0  0  0
  -19.6030  -26.5730   21.6250 C   0  0  0  0  0  2  0  0  0  0  0  0
  -18.2230  -26.7230   22.2730 C   0  0  0  0  0  2  0  0  0  0  0  0
  -19.1750  -28.8350   23.3710 C   0  0  0  0  0  0  0  0  0  0  0  0
  -18.9620  -30.1010   23.9580 C   0  0  0  0  0  3  0  0  0  0  0  0
  -17.6600  -30.6060   24.1280 C   0  0  0  0  0  3  0  0  0  0  0  0
  -16.5510  -29.8440   23.7180 C   0  0  0  0  0  3  0  0  0  0  0  0
  -16.7500  -28.5800   23.1340 C   0  0  0  0  0  3  0  0  0  0  0  0
  -25.9060  -32.4900   23.8300 C   0  0  0  0  0  3  0  0  0  0  0  0
  -26.4410  -31.7060   25.0900 C   0  0  1  0  0  0  0  0  0  0  0  0
  -25.3630  -31.4580   26.1700 C   0  0  0  0  0  1  0  0  0  0  0  0
  -27.0180  -30.3330   24.6730 C   0  0  0  0  0  1  0  0  0  0  0  0
  -27.6010  -32.4950   25.7430 C   0  0  0  0  0  1  0  0  0  0  0  0
  -25.6020  -33.8850   24.1730 N   0  0  0  0  0  0  0  0  0  0  0  0
  -25.9300  -34.9410   23.4170 C   0  0  0  0  0  0  0  0  0  0  0  0
  -26.5920  -34.8440   22.3800 O   0  0  0  0  0  0  0  0  0  0  0  0
  -25.0140  -34.0360   24.9790 H   0  0  0  0  0  0  0  0  0  0  0  0
  -24.1950  -36.7320   23.0880 C   0  0  0  0  0  1  0  0  0  0  0  0
  -25.4440  -36.3260   23.8860 C   0  0  0  0  0  3  0  0  0  0  0  0
  -27.5860  -37.2040   24.7020 C   0  0  0  0  0  1  0  0  0  0  0  0
  -26.4740  -37.3810   23.7710 N   0  0  0  0  0  0  0  0  0  0  0  0
  -26.0700  -38.2990   23.9320 H   0  0  0  0  0  0  0  0  0  0  0  0
  1 47  1  0
  1  2  1  0
  2  3  1  0
  3  4  1  0
  5  4  1  0
  5  6  1  0
  7  6  1  0
  7  8  1  0
  8 17  1  0
  9 17  1  0
 10 15  1  0
 11 12  1  0
 11 10  1  0
 13 12  1  0
 13 22  1  0
 13 14  1  0
 15  9  1  0
 15 14  1  0
 16  9  2  0
 17 18  1  0
 19 20  2  0
 20 39  1  0
 21 20  1  0
 21 24  1  0
 22 19  1  0
 22 23  1  0
 23 21  2  0
 24 25  1  0
 25 26  2  0
 27 30  1  0
 27 26  1  0
 28 27  2  0
 29 28  1  0
 29 24  2  0
 30 31  1  0
 31 32  1  0
 32 33  2  0
 34 33  1  0
 34 38  1  0
 35 34  2  0
 36 31  2  0
 36 35  1  0
 37 36  1  0
 39 40  1  0
 40 43  1  0
 40 42  1  0
 41 39  2  0
 44 45  1  0
 44 19  1  0
 46 44  1  0
 47 48  1  0
 48 49  1  0
 49 50  1  0
 51 50  1  0
 52 63  2  0
 53 51  1  0
 53 58  1  0
 54 62  1  0
 54 64  1  0
 55 61  1  0
 55 57  1  0
 56 62  1  0
 57 56  1  0
 58 57  2  0
 59 60  1  0
 59 53  2  0
 60 55  2  0
 61 54  1  0
 62 52  1  0
 64 66  2  0
 65 64  1  0
 67 65  1  0
 68 77  2  0
 68 73  1  0
 69 65  1  0
 69 73  1  0
 70 69  1  0
 71 72  1  0
 71 70  1  0
 72 68  1  0
 73 74  2  0
 74 75  1  0
 76 75  2  0
 77 76  1  0
 78 52  1  0
 78 83  1  0
 78 79  1  0
 79 82  1  1
 79 80  1  0
 81 79  1  0
 83 86  1  0
 84 88  1  0
 84 83  1  0
 85 84  2  0
 88 87  1  0
 90 88  1  0
 90 91  1  0
 90 89  1  0
M  ISO  4   9 100  17 100  50 101  51 101
M  END
>  <TORSDO>  (68) 
F 27

>  <SCORE>  (68) 
-11.534

>  <name>  (68) 
70

>  <ligand_id>  (68) 
70

>  <original_smiles>  (68) 
[H]c1c([H])c([H])c2c(c1[H])C([H])([H])C([H])([H])C([H])([H])C2([H])N([H])C(=O)C1([H])N(C(=O)C([H])(N([H])C(=O)C([H])(N([H])C([H])([H])[H])C([H])([H])[H])C(C([H])([H])[H])(C([H])([H])[H])C([H])([H])[H])C([H])([H])c2c([H])c(OC([H])([H])C([H])([H])OC([H])([H])C([H])([H])OC([H])([H])C([H])([H])OC([H])([H])C([H])([H])C([H])([H])N([H])C(=O)N3C([H])([H])C([H])([H])C([H])([H])C([H])(n4nc(-c5c([H])c([H])c(Oc6c([H])c([H])c(F)c([H])c6F)c([H])c5[H])c(C(=O)N([H])[H])c4N([H])[H])C3([H])[H])c([H])c([H])c2C1([H])[H]

>  <smiles>  (68) 
[H]c1c([H])c([H])c2c(c1[H])C([H])([H])C([H])([H])C([H])([H])C2([H])N([H])C(=O)C1([H])N(C(=O)C([H])(N([H])C(=O)C([H])(N([H])C([H])([H])[H])C([H])([H])[H])C(C([H])([H])[H])(C([H])([H])[H])C([H])([H])[H])C([H])([H])c2c([H])c(OC([H])([H])C([H])([H])OC([H])([H])C([H])([H])OC([H])([H])C([H])([H])OC([H])([H])C([H])([H])C([H])([H])N([H])C(=O)N3C([H])([H])C([H])([H])C([H])([H])C([H])(n4nc(-c5c([H])c([H])c(Oc6c([H])c([H])c(F)c([H])c6F)c([H])c5[H])c(C(=O)N([H])[H])c4N([H])[H])C3([H])[H])c([H])c([H])c2C1([H])[H]

$$$$
71:0:0
     RDKit          3D

 95 96  0  0  1  0  0  0  0  0999 V2000
  -20.8360  -29.6430   22.9170 C   0  0  0  0  0 15  0  0  0  0  0  0
  -19.9710  -29.0150   21.2430 C   0  0  0  0  0 15  0  0  0  0  0  0
  -21.4770  -26.8550   19.6470 C   0  0  0  0  0  1  0  0  0  0  0  0
  -23.0820  -26.8510   17.9820 C   0  0  0  0  0 15  0  0  0  0  0  0
  -23.9200  -26.6060   15.8740 C   0  0  0  0  0 15  0  0  0  0  0  0
  -29.1100  -26.3700    9.4260 C   0  0  0  0  0  0  0  0  0  0  0  0
  -29.8760  -26.0210    6.6850 C   0  0  0  0  0  2  0  0  0  0  0  0
  -28.8090  -26.1310    5.5250 C   0  0  0  0  0  2  0  0  0  0  0  0
  -27.8480  -24.9350    5.5470 C   0  0  0  0  0  2  0  0  0  0  0  0
  -27.6220  -24.5450    7.0150 C   0  0  0  0  0  3  0  0  0  0  0  0
  -28.8900  -24.2880    7.8180 C   0  0  0  0  0  2  0  0  0  0  0  0
  -29.2780  -25.6340    8.1120 N   0  0  0  0  0  0  0  0  0  0  0  0
  -30.0290  -27.2320    9.1550 O   0  0  0  0  0  0  0  0  0  0  0  0
  -27.3390  -27.4240   11.9470 C   0  0  0  0  0  2  0  0  0  0  0  0
  -27.3370  -25.4010   12.0340 C   0  0  0  0  0  2  0  0  0  0  0  0
  -25.9510  -27.5120   13.2700 C   0  0  0  0  0  2  0  0  0  0  0  0
  -25.9650  -25.4480   13.3830 C   0  0  0  0  0  2  0  0  0  0  0  0
  -27.9720  -26.3590   10.7650 N   0  0  0  0  0  0  0  0  0  0  0  0
  -25.4630  -26.5480   14.5680 N   0  0  0  0  0  0  0  0  0  0  0  0
  -26.2460  -26.5860   15.2020 H   0  0  0  0  0  0  0  0  0  0  0  0
  -25.9220  -23.3370    8.3400 C   0  0  0  0  0  0  0  0  0  0  0  0
  -25.3030  -22.1440    8.1590 C   0  0  0  0  0  0  0  0  0  0  0  0
  -25.8560  -21.5910    6.9610 C   0  0  0  0  0  0  0  0  0  0  0  0
  -26.7630  -23.4560    7.2610 N   0  0  0  0  0  0  0  0  0  0  0  0
  -26.8030  -22.3700    6.4700 N   0  0  0  0  0  0  0  0  0  0  0  0
  -25.4790  -20.4070    6.2040 C   0  0  0  0  0  0  0  0  0  0  0  0
  -26.4340  -19.4450    5.8160 C   0  0  0  0  0  3  0  0  0  0  0  0
  -26.0300  -18.3020    5.0960 C   0  0  0  0  0  3  0  0  0  0  0  0
  -24.6670  -18.1210    4.7650 C   0  0  0  0  0  0  0  0  0  0  0  0
  -23.7290  -19.1010    5.1320 C   0  0  0  0  0  3  0  0  0  0  0  0
  -24.1310  -20.2400    5.8420 C   0  0  0  0  0  3  0  0  0  0  0  0
  -24.1840  -17.0530    4.0530 O   0  0  0  0  0  0  0  0  0  0  0  0
  -24.8310  -15.8450    4.0500 C   0  0  0  0  0  0  0  0  0  0  0  0
  -25.1280  -15.1540    5.2460 C   0  0  0  0  0  3  0  0  0  0  0  0
  -25.7300  -13.8810    5.1910 C   0  0  0  0  0  3  0  0  0  0  0  0
  -26.0280  -13.2970    3.9460 C   0  0  0  0  0  0  0  0  0  0  0  0
  -25.7280  -13.9820    2.7550 C   0  0  0  0  0  3  0  0  0  0  0  0
  -25.1290  -15.2520    2.8080 C   0  0  0  0  0  0  0  0  0  0  0  0
  -24.8240  -15.9020    1.6590 F   0  0  0  0  0  0  0  0  0  0  0  0
  -26.5980  -12.0700    3.8910 F   0  0  0  0  0  0  0  0  0  0  0  0
  -24.1830  -21.6140    8.9920 C   0  0  0  0  0  0  0  0  0  0  0  0
  -24.0610  -20.2970    9.0770 N   0  0  0  0  0  0  0  0  0  0  0  0
  -23.4400  -22.3750    9.6110 O   0  0  0  0  0  0  0  0  0  0  0  0
  -24.6910  -19.6810    8.5840 H   0  0  0  0  0  0  0  0  0  0  0  0
  -23.3300  -19.8950    9.6470 H   0  0  0  0  0  0  0  0  0  0  0  0
  -25.8160  -24.3390    9.3030 N   0  0  0  0  0  0  0  0  0  0  0  0
  -25.0890  -24.2950   10.0080 H   0  0  0  0  0  0  0  0  0  0  0  0
  -26.2260  -25.2580    9.2170 H   0  0  0  0  0  0  0  0  0  0  0  0
  -22.2390  -28.6330   23.8990 C   0  0  0  0  0  1  0  0  0  0  0  0
  -24.3930  -26.6580   22.5500 C   0  0  0  0  0  0  0  0  0  0  0  0
  -23.4660  -27.4500   23.4710 N   0  0  0  0  0  0  0  0  0  0  0  0
  -24.9650  -25.7200   23.1100 O   0  0  0  0  0  0  0  0  0  0  0  0
  -23.8290  -28.2110   22.8700 H   0  0  0  0  0  0  0  0  0  0  0  0
  -24.7760  -26.7670   20.8020 C   0  0  0  0  0  2  0  0  0  0  0  0
  -26.1360  -26.9920   19.8740 O   0  0  0  0  0  0  0  0  0  0  0  0
  -24.4030  -31.5190   22.7930 C   0  0  0  0  0  0  0  0  0  0  0  0
  -26.1310  -27.9480   18.8600 C   0  0  0  0  0  0  0  0  0  0  0  0
  -23.0120  -30.8000   20.7940 C   0  0  0  0  0  3  0  0  0  0  0  0
  -24.2350  -29.8910   18.8040 C   0  0  0  0  0  0  0  0  0  0  0  0
  -25.5040  -31.2280   20.5500 C   0  0  0  0  0  2  0  0  0  0  0  0
  -25.4410  -30.1210   19.4960 C   0  0  0  0  0  0  0  0  0  0  0  0
  -26.4840  -29.1950   19.3830 C   0  0  0  0  0  3  0  0  0  0  0  0
  -25.1220  -27.8370   17.8820 C   0  0  0  0  0  3  0  0  0  0  0  0
  -24.0990  -28.7990   17.9210 C   0  0  0  0  0  3  0  0  0  0  0  0
  -23.0590  -30.7340   19.2540 C   0  0  0  0  0  2  0  0  0  0  0  0
  -24.3040  -31.3310   21.4230 N   0  0  0  0  0  0  0  0  0  0  0  0
  -23.3950  -31.5070   23.5160 O   0  0  0  0  0  0  0  0  0  0  0  0
  -22.9500  -29.3320   21.1710 C   0  0  0  0  0  0  0  0  0  0  0  0
  -22.0760  -28.3520   20.8310 N   0  0  0  0  0  0  0  0  0  0  0  0
  -23.8930  -29.0540   21.8120 O   0  0  0  0  0  0  0  0  0  0  0  0
  -21.5080  -28.7020   20.0770 H   0  0  0  0  0  0  0  0  0  0  0  0
  -17.9380  -26.8760   21.5000 C   0  0  0  0  0  0  0  0  0  0  0  0
  -21.2250  -27.0930   21.4400 C   0  0  0  0  0  2  0  0  0  0  0  0
  -21.1960  -27.0590   19.4530 C   0  0  0  0  0  1  0  0  0  0  0  0
  -19.4470  -26.7800   18.7500 C   0  0  0  0  0  2  0  0  0  0  0  0
  -18.0080  -26.5230   19.8490 C   0  0  0  0  0  2  0  0  0  0  0  0
  -19.2480  -27.0310   22.3800 C   0  0  0  0  0  3  0  0  0  0  0  0
  -18.6780  -27.9520   23.4740 C   0  0  0  0  0  3  0  0  0  0  0  0
  -17.5170  -28.8380   23.5190 C   0  0  0  0  0  3  0  0  0  0  0  0
  -16.4670  -28.6600   22.6330 C   0  0  0  0  0  3  0  0  0  0  0  0
  -16.6760  -27.6120   21.7180 C   0  0  0  0  0  3  0  0  0  0  0  0
  -25.7800  -31.7450   23.5130 C   0  0  0  0  0  3  0  0  0  0  0  0
  -25.6010  -32.9340   24.3470 N   0  0  0  0  0  0  0  0  0  0  0  0
  -25.9160  -34.1690   23.9460 C   0  0  0  0  0  0  0  0  0  0  0  0
  -26.4640  -34.3990   22.8650 O   0  0  0  0  0  0  0  0  0  0  0  0
  -25.1080  -32.8130   25.2210 H   0  0  0  0  0  0  0  0  0  0  0  0
  -24.2670  -36.0000   24.4150 C   0  0  0  0  0  1  0  0  0  0  0  0
  -25.5660  -35.3300   24.8910 C   0  0  0  0  0  3  0  0  0  0  0  0
  -27.8380  -35.8300   25.6700 C   0  0  0  0  0  1  0  0  0  0  0  0
  -26.6430  -36.3360   24.9990 N   0  0  0  0  0  0  0  0  0  0  0  0
  -26.3190  -37.1570   25.5040 H   0  0  0  0  0  0  0  0  0  0  0  0
  -26.3430  -30.5510   24.3960 C   0  0  1  0  0  0  0  0  0  0  0  0
  -25.3390  -29.9940   25.4290 C   0  0  0  0  0  1  0  0  0  0  0  0
  -26.8240  -29.3810   23.5080 C   0  0  0  0  0  1  0  0  0  0  0  0
  -27.5990  -31.0240   25.1720 C   0  0  0  0  0  1  0  0  0  0  0  0
  3 73  1  0
  6 18  1  0
  7 12  1  0
  8  9  1  0
  8  7  1  0
 10  9  1  0
 10 24  1  0
 10 11  1  0
 11 12  1  0
 12  6  1  0
 13  6  2  0
 14 16  1  0
 15 17  1  0
 16 19  1  0
 17 19  1  0
 18 14  1  0
 18 15  1  0
 19 20  1  0
 21 46  1  0
 22 21  2  0
 22 41  1  0
 23 22  1  0
 24 21  1  0
 25 23  2  0
 25 24  1  0
 26 23  1  0
 27 26  2  0
 28 27  1  0
 29 28  2  0
 29 30  1  0
 30 31  2  0
 31 26  1  0
 32 29  1  0
 33 32  1  0
 33 34  1  0
 35 34  2  0
 36 35  1  0
 37 38  1  0
 37 36  2  0
 38 33  2  0
 39 38  1  0
 40 36  1  0
 41 42  1  0
 41 43  2  0
 42 45  1  0
 44 42  1  0
 46 47  1  0
 48 46  1  0
 50 52  2  0
 50 51  1  0
 51 49  1  0
 53 51  1  0
 54 50  1  0
 55 54  1  0
 56 67  2  0
 57 62  1  0
 57 55  1  0
 58 68  1  0
 58 66  1  0
 59 65  1  0
 59 61  1  0
 60 66  1  0
 61 60  1  0
 62 61  2  0
 63 64  1  0
 63 57  2  0
 64 59  2  0
 65 58  1  0
 66 56  1  0
 68 70  2  0
 69 68  1  0
 69 73  1  0
 71 69  1  0
 72 81  2  0
 72 77  1  0
 75 74  1  0
 75 76  1  0
 76 72  1  0
 77 78  2  0
 78 79  1  0
 80 79  2  0
 81 80  1  0
 82 56  1  0
 82 83  1  0
 82 92  1  0
 83 86  1  0
 84 83  1  0
 84 88  1  0
 85 84  2  0
 88 87  1  0
 88 90  1  0
 90 91  1  0
 90 89  1  0
 92 95  1  1
 92 93  1  0
 94 92  1  0
M  ISO  4   6 100  18 100  54 101  55 101
M  END
>  <TORSDO>  (69) 
F 23

>  <SCORE>  (69) 
-1.884

>  <name>  (69) 
71

>  <ligand_id>  (69) 
71

>  <original_smiles>  (69) 
[H]c1c([H])c([H])c2c(c1[H])C([H])([H])C([H])([H])C([H])([H])C2([H])N([H])C(=O)C1([H])N(C(=O)C([H])(N([H])C(=O)C([H])(N([H])C([H])([H])[H])C([H])([H])[H])C(C([H])([H])[H])(C([H])([H])[H])C([H])([H])[H])C([H])([H])c2c([H])c(OC([H])([H])C(=O)N([H])C([H])([H])C([H])([H])C([H])([H])C([H])([H])C([H])([H])C([H])([H])[N+]3([H])C([H])([H])C([H])([H])N(C(=O)N4C([H])([H])C([H])([H])C([H])([H])C([H])(n5nc(-c6c([H])c([H])c(Oc7c([H])c([H])c(F)c([H])c7F)c([H])c6[H])c(C(=O)N([H])[H])c5N([H])[H])C4([H])[H])C([H])([H])C3([H])[H])c([H])c([H])c2C1([H])[H]

>  <smiles>  (69) 
[H]c1c([H])c([H])c2c(c1[H])C([H])([H])C([H])([H])C([H])([H])C2([H])N([H])C(=O)C1([H])N(C(=O)C([H])(N([H])C(=O)C([H])(N([H])C([H])([H])[H])C([H])([H])[H])C(C([H])([H])[H])(C([H])([H])[H])C([H])([H])[H])C([H])([H])c2c([H])c(OC([H])([H])C(=O)N([H])C([H])([H])C([H])([H])C([H])([H])C([H])([H])C([H])([H])C([H])([H])[N+]3([H])C([H])([H])C([H])([H])N(C(=O)N4C([H])([H])C([H])([H])C([H])([H])C([H])(n5nc(-c6c([H])c([H])c(Oc7c([H])c([H])c(F)c([H])c7F)c([H])c6[H])c(C(=O)N([H])[H])c5N([H])[H])C4([H])[H])C([H])([H])C3([H])[H])c([H])c([H])c2C1([H])[H]

$$$$
72:0:0
     RDKit          3D

105108  0  0  1  0  0  0  0  0999 V2000
  -20.2190  -17.2810   20.9460 C   0  0  0  0  0  2  0  0  0  0  0  0
  -21.0340  -18.3080   21.7760 C   0  0  0  0  0  2  0  0  0  0  0  0
  -21.9690  -19.1100   20.9390 N   0  0  0  0  0  4  0  0  0  0  0  0
  -22.6470  -18.4890   20.5290 H   0  0  0  0  0  0  0  0  0  0  0  0
  -21.4440  -19.5270   20.1870 H   0  0  0  0  0  0  0  0  0  0  0  0
  -22.6880  -20.1960   21.6590 C   0  0  0  0  0  2  0  0  0  0  0  0
  -23.7130  -20.9470   20.7670 C   0  0  0  0  0  2  0  0  0  0  0  0
  -24.4770  -22.0820   21.4930 C   0  0  0  0  0  2  0  0  0  0  0  0
  -25.6130  -22.6890   20.6340 C   0  0  0  0  0  2  0  0  0  0  0  0
  -26.3490  -23.8900   21.2670 C   0  0  0  0  0  2  0  0  0  0  0  0
  -27.6140  -24.3120   20.4790 C   0  0  0  0  0  2  0  0  0  0  0  0
  -28.3080  -25.5900   21.0180 C   0  0  0  0  0  2  0  0  0  0  0  0
  -28.3470  -26.6880   20.0970 O   0  0  0  0  0  0  0  0  0  0  0  0
  -24.6120  -31.8720   23.2150 C   0  0  0  0  0  0  0  0  0  0  0  0
  -27.2080  -27.4520   20.0950 C   0  0  0  0  0  0  0  0  0  0  0  0
  -23.3960  -30.4980   21.5550 C   0  0  0  0  0  3  0  0  0  0  0  0
  -24.8370  -28.9750   20.1080 C   0  0  0  0  0  0  0  0  0  0  0  0
  -25.9210  -30.8470   21.3580 C   0  0  0  0  0  2  0  0  0  0  0  0
  -25.9970  -29.4830   20.7090 C   0  0  0  0  0  0  0  0  0  0  0  0
  -27.1910  -28.7270   20.7040 C   0  0  0  0  0  3  0  0  0  0  0  0
  -26.0420  -26.9700   19.4680 C   0  0  0  0  0  3  0  0  0  0  0  0
  -24.8530  -27.7190   19.4810 C   0  0  0  0  0  3  0  0  0  0  0  0
  -23.5980  -29.8400   20.1650 C   0  0  0  0  0  2  0  0  0  0  0  0
  -24.6620  -31.0850   22.1020 N   0  0  0  0  0  0  0  0  0  0  0  0
  -23.5320  -32.1460   23.7570 O   0  0  0  0  0  0  0  0  0  0  0  0
  -22.7390  -29.4670   22.5000 C   0  0  0  0  0  0  0  0  0  0  0  0
  -21.4130  -29.3030   22.3750 N   0  0  0  0  0  0  0  0  0  0  0  0
  -23.4190  -28.8220   23.3030 O   0  0  0  0  0  0  0  0  0  0  0  0
  -20.9270  -29.8760   21.6990 H   0  0  0  0  0  0  0  0  0  0  0  0
  -18.0270  -28.1360   22.8490 C   0  0  0  0  0  0  0  0  0  0  0  0
  -20.5860  -28.3640   23.1330 C   0  0  0  0  0  3  0  0  0  0  0  0
  -20.6770  -26.9390   22.5400 C   0  0  0  0  0  2  0  0  0  0  0  0
  -19.5750  -26.6380   21.5200 C   0  0  0  0  0  2  0  0  0  0  0  0
  -18.1930  -26.7910   22.1620 C   0  0  0  0  0  2  0  0  0  0  0  0
  -19.1520  -28.8820   23.2910 C   0  0  0  0  0  0  0  0  0  0  0  0
  -18.9440  -30.1430   23.8910 C   0  0  0  0  0  3  0  0  0  0  0  0
  -17.6450  -30.6570   24.0560 C   0  0  0  0  0  3  0  0  0  0  0  0
  -16.5340  -29.9080   23.6320 C   0  0  0  0  0  3  0  0  0  0  0  0
  -16.7260  -28.6490   23.0350 C   0  0  0  0  0  3  0  0  0  0  0  0
  -25.9030  -32.4840   23.8430 C   0  0  0  0  0  3  0  0  0  0  0  0
  -25.5900  -33.8630   24.2370 N   0  0  0  0  0  0  0  0  0  0  0  0
  -25.9020  -34.9490   23.5160 C   0  0  0  0  0  0  0  0  0  0  0  0
  -26.5590  -34.8940   22.4720 O   0  0  0  0  0  0  0  0  0  0  0  0
  -25.0090  -33.9800   25.0550 H   0  0  0  0  0  0  0  0  0  0  0  0
  -24.1480  -36.7310   23.2650 C   0  0  0  0  0  1  0  0  0  0  0  0
  -25.4100  -36.3130   24.0350 C   0  0  0  0  0  3  0  0  0  0  0  0
  -27.5570  -37.1830   24.8490 C   0  0  0  0  0  1  0  0  0  0  0  0
  -26.4300  -37.3800   23.9400 N   0  0  0  0  0  0  0  0  0  0  0  0
  -26.0190  -38.2890   24.1350 H   0  0  0  0  0  0  0  0  0  0  0  0
  -26.4490  -31.6580   25.0710 C   0  0  1  0  0  0  0  0  0  0  0  0
  -25.3770  -31.3580   26.1450 C   0  0  0  0  0  1  0  0  0  0  0  0
  -27.0360  -30.3070   24.5970 C   0  0  0  0  0  1  0  0  0  0  0  0
  -27.6080  -32.4260   25.7480 C   0  0  0  0  0  1  0  0  0  0  0  0
  -19.0630  -16.5540   21.6880 C   0  0  0  0  0  2  0  0  0  0  0  0
  -18.9430  -14.0810   22.1590 C   0  0  0  0  0  0  0  0  0  0  0  0
  -19.4320  -15.3170   22.4030 N   0  0  0  0  0  0  0  0  0  0  0  0
  -18.2790  -13.8200   21.1530 O   0  0  0  0  0  0  0  0  0  0  0  0
  -19.9810  -15.4260   23.2460 H   0  0  0  0  0  0  0  0  0  0  0  0
  -19.2160  -12.9720   23.2060 C   0  0  0  0  0  2  0  0  0  0  0  0
  -19.7550  -11.7870   22.5920 O   0  0  0  0  0  0  0  0  0  0  0  0
  -20.2170  -10.8080   23.5410 C   0  0  0  0  0  2  0  0  0  0  0  0
  -21.0440   -9.6090   22.9580 C   0  0  0  0  0  2  0  0  0  0  0  0
  -22.2580  -10.0060   22.0480 C   0  0  0  0  0  1  0  0  0  0  0  0
  -24.2250   -8.6740   20.4700 O   0  0  0  0  0  1  0  0  0  0  0  0
  -25.6160   -8.9770   19.7770 C   0  0  0  0  0  2  0  0  0  0  0  0
  -27.0690   -9.4280   20.4530 C   0  0  0  0  0  2  0  0  0  0  0  0
  -28.1290  -10.4020   19.6350 C   0  0  0  0  0  2  0  0  0  0  0  0
  -29.8940  -12.9150   20.2670 C   0  0  2  0  0  0  0  0  0  0  0  0
  -30.9870  -12.1440   19.3920 C   0  0  0  0  0  1  0  0  0  0  0  0
  -29.7300  -12.3700   17.9800 C   0  0  0  0  0  1  0  0  0  0  0  0
  -28.1370  -13.0530   18.3690 C   0  0  0  0  0  2  0  0  0  0  0  0
  -27.6710  -13.6300   19.9740 C   0  0  0  0  0  2  0  0  0  0  0  0
  -28.8890  -13.4430   21.3940 C   0  0  0  0  0  1  0  0  0  0  0  0
  -30.4630  -12.6980   21.0260 N   0  0  0  0  0  1  0  0  0  0  0  0
  -30.2530  -14.1790   19.7580 O   0  0  0  0  0  1  0  0  0  0  0  0
  -29.0660  -11.4590   20.3410 N   0  0  0  0  0  2  0  0  0  0  0  0
  -29.4090  -11.0200   21.1830 H   0  0  0  0  0  0  0  0  0  0  0  0
  -25.2460  -14.0800   20.5580 C   0  0  0  0  0  0  0  0  0  0  0  0
  -24.2190  -13.2740   20.9190 C   0  0  0  0  0  0  0  0  0  0  0  0
  -24.7720  -11.9890   20.9030 C   0  0  0  0  0  0  0  0  0  0  0  0
  -26.3300  -13.2640   20.3590 N   0  0  0  0  0  0  0  0  0  0  0  0
  -26.0300  -11.9970   20.6150 N   0  0  0  0  0  0  0  0  0  0  0  0
  -24.1650  -10.7590   21.0400 C   0  0  0  0  0  0  0  0  0  0  0  0
  -24.5390   -9.6640   22.3610 C   0  0  0  0  0  3  0  0  0  0  0  0
  -23.6450   -8.1800   22.4970 C   0  0  0  0  0  3  0  0  0  0  0  0
  -22.4240   -7.7980   21.3230 C   0  0  0  0  0  0  0  0  0  0  0  0
  -22.0930   -8.8670   20.0220 C   0  0  0  0  0  3  0  0  0  0  0  0
  -22.9680  -10.3410   19.8550 C   0  0  0  0  0  3  0  0  0  0  0  0
  -21.5710   -6.7530   21.4390 O   0  0  0  0  0  0  0  0  0  0  0  0
  -21.6310   -5.9720   22.5500 C   0  0  0  0  0  0  0  0  0  0  0  0
  -21.2720   -6.4270   23.8370 C   0  0  0  0  0  3  0  0  0  0  0  0
  -21.3120   -5.5700   24.9410 C   0  0  0  0  0  3  0  0  0  0  0  0
  -21.6270   -4.2210   24.7420 C   0  0  0  0  0  0  0  0  0  0  0  0
  -21.9340   -3.7410   23.4560 C   0  0  0  0  0  3  0  0  0  0  0  0
  -21.9450   -4.6210   22.3610 C   0  0  0  0  0  0  0  0  0  0  0  0
  -22.2060   -4.1630   21.1130 F   0  0  0  0  0  0  0  0  0  0  0  0
  -21.5960   -3.3760   25.7950 F   0  0  0  0  0  0  0  0  0  0  0  0
  -22.8040  -13.6540   21.1570 C   0  0  0  0  0  0  0  0  0  0  0  0
  -22.1680  -13.0070   22.1090 N   0  0  0  0  0  0  0  0  0  0  0  0
  -22.2860  -14.5760   20.5460 O   0  0  0  0  0  0  0  0  0  0  0  0
  -22.6650  -12.3430   22.6790 H   0  0  0  0  0  0  0  0  0  0  0  0
  -21.1670  -13.0960   22.2110 H   0  0  0  0  0  0  0  0  0  0  0  0
  -25.3610  -15.4430   20.3820 N   0  0  0  0  0  0  0  0  0  0  0  0
  -24.5840  -16.0890   20.4370 H   0  0  0  0  0  0  0  0  0  0  0  0
  -26.2220  -15.8920   20.0950 H   0  0  0  0  0  0  0  0  0  0  0  0
  1 54  1  0
  1  2  1  0
  3  6  1  0
  3  2  1  0
  4  3  1  0
  5  3  1  0
  7  8  1  0
  7  6  1  0
  9 10  1  0
  9  8  1  0
 11 12  1  0
 11 10  1  0
 13 12  1  0
 14 25  2  0
 15 13  1  0
 15 20  1  0
 16 24  1  0
 16 26  1  0
 17 23  1  0
 17 19  1  0
 18 24  1  0
 19 18  1  0
 20 19  2  0
 21 22  1  0
 21 15  2  0
 22 17  2  0
 23 16  1  0
 24 14  1  0
 26 28  2  0
 27 26  1  0
 29 27  1  0
 30 39  2  0
 30 35  1  0
 31 27  1  0
 31 35  1  0
 32 31  1  0
 33 34  1  0
 33 32  1  0
 34 30  1  0
 35 36  2  0
 36 37  1  0
 38 37  2  0
 39 38  1  0
 40 14  1  0
 40 41  1  0
 40 50  1  0
 41 44  1  0
 42 46  1  0
 42 41  1  0
 43 42  2  0
 46 45  1  0
 48 46  1  0
 48 49  1  0
 48 47  1  0
 50 53  1  1
 50 51  1  0
 52 50  1  0
 54 56  1  0
 55 56  1  0
 55 59  1  0
 56 58  1  0
 57 55  2  0
 60 59  1  0
 60 61  1  0
 62 61  1  0
 63 62  1  0
 65 66  1  0
 65 64  1  0
 67 76  1  0
 67 66  1  0
 68 74  1  0
 68 73  1  1
 69 68  1  0
 70 71  1  0
 71 72  1  0
 72 81  1  0
 75 68  1  0
 76 77  1  0
 78 79  2  0
 79 98  1  0
 80 79  1  0
 80 83  1  0
 81 78  1  0
 81 82  1  0
 82 80  2  0
 83 84  1  0
 84 85  2  0
 86 89  1  0
 86 85  1  0
 87 86  2  0
 88 87  1  0
 88 83  2  0
 89 90  1  0
 90 91  1  0
 91 92  2  0
 93 92  1  0
 93 97  1  0
 94 93  2  0
 95 90  2  0
 95 94  1  0
 96 95  1  0
 98 99  1  0
 99102  1  0
 99101  1  0
100 98  2  0
103104  1  0
103 78  1  0
105103  1  0
M  ISO  4  12 101  13 101  68 100  76 100
M  END
>  <TORSDO>  (70) 
F 36

>  <SCORE>  (70) 
58.222

>  <name>  (70) 
72

>  <ligand_id>  (70) 
72

>  <original_smiles>  (70) 
[H]c1c([H])c([H])c2c(c1[H])C([H])([H])C([H])([H])C([H])([H])C2([H])N([H])C(=O)C1([H])N(C(=O)C([H])(N([H])C(=O)C([H])(N([H])C([H])([H])[H])C([H])([H])[H])C(C([H])([H])[H])(C([H])([H])[H])C([H])([H])[H])C([H])([H])c2c([H])c(OC([H])([H])C([H])([H])C([H])([H])C([H])([H])C([H])([H])C([H])([H])C([H])([H])[N+]([H])([H])C([H])([H])C([H])([H])C([H])([H])N([H])C(=O)C([H])([H])OC([H])([H])C([H])([H])C([H])([H])OC([H])([H])C([H])([H])C([H])([H])N([H])C(=O)N3C([H])([H])C([H])([H])C([H])([H])C([H])(n4nc(-c5c([H])c([H])c(Oc6c([H])c([H])c(F)c([H])c6F)c([H])c5[H])c(C(=O)N([H])[H])c4N([H])[H])C3([H])[H])c([H])c([H])c2C1([H])[H]

>  <smiles>  (70) 
[H]c1c([H])c([H])c2c(c1[H])C([H])([H])C([H])([H])C([H])([H])C2([H])N([H])C(=O)C1([H])N(C(=O)C([H])(N([H])C(=O)C([H])(N([H])C([H])([H])[H])C([H])([H])[H])C(C([H])([H])[H])(C([H])([H])[H])C([H])([H])[H])C([H])([H])c2c([H])c(OC([H])([H])C([H])([H])C([H])([H])C([H])([H])C([H])([H])C([H])([H])C([H])([H])[N+]([H])([H])C([H])([H])C([H])([H])C([H])([H])N([H])C(=O)C([H])([H])OC([H])([H])C([H])([H])C([H])([H])OC([H])([H])C([H])([H])C([H])([H])N([H])C(=O)N3C([H])([H])C([H])([H])C([H])([H])C([H])(n4nc(-c5c([H])c([H])c(Oc6c([H])c([H])c(F)c([H])c6F)c([H])c5[H])c(C(=O)N([H])[H])c4N([H])[H])C3([H])[H])c([H])c([H])c2C1([H])[H]

$$$$
73:0:0
     RDKit          3D

100109  0  0  1  0  0  0  0  0999 V2000
  -29.6600  -19.2130   19.8230 C   0  0  0  0  0  0  0  0  0  0  0  0
  -27.7300  -20.5800   19.1140 C   0  0  0  0  0  2  0  0  0  0  0  0
  -28.7040  -20.9750   21.3410 C   0  0  0  0  0  2  0  0  0  0  0  0
  -27.9140  -22.0560   18.7070 C   0  0  0  0  0  2  0  0  0  0  0  0
  -27.9980  -22.3430   21.1660 C   0  0  0  0  0  2  0  0  0  0  0  0
  -28.7550  -20.1890   20.0900 N   0  0  0  0  0  0  0  0  0  0  0  0
  -28.3110  -22.9440   19.8390 N   0  0  2  0  0  4  0  0  0  0  0  0
  -29.6310  -18.5620   18.7720 O   0  0  0  0  0  0  0  0  0  0  0  0
  -29.3200  -22.9930   19.7940 H   0  0  0  0  0  0  0  0  0  0  0  0
  -27.8010  -24.3310   19.6500 C   0  0  0  0  0  2  0  0  0  0  0  0
  -28.4510  -25.4120   20.5520 C   0  0  0  0  0  2  0  0  0  0  0  0
  -28.4130  -26.7450   20.0170 O   0  0  0  0  0  0  0  0  0  0  0  0
  -24.6120  -31.8700   23.2120 C   0  0  0  0  0  0  0  0  0  0  0  0
  -27.2290  -27.4440   20.0870 C   0  0  0  0  0  0  0  0  0  0  0  0
  -23.3980  -30.4940   21.5550 C   0  0  0  0  0  3  0  0  0  0  0  0
  -24.8440  -28.9610   20.1250 C   0  0  0  0  0  0  0  0  0  0  0  0
  -25.9290  -30.8340   21.3700 C   0  0  0  0  0  2  0  0  0  0  0  0
  -26.0050  -29.4680   20.7220 C   0  0  0  0  0  0  0  0  0  0  0  0
  -27.2010  -28.7160   20.7030 C   0  0  0  0  0  3  0  0  0  0  0  0
  -26.0530  -26.9640   19.4680 C   0  0  0  0  0  3  0  0  0  0  0  0
  -24.8620  -27.7060   19.4980 C   0  0  0  0  0  3  0  0  0  0  0  0
  -23.6070  -29.8280   20.1710 C   0  0  0  0  0  2  0  0  0  0  0  0
  -24.6630  -31.0800   22.1040 N   0  0  0  0  0  0  0  0  0  0  0  0
  -23.5300  -32.1460   23.7520 O   0  0  0  0  0  0  0  0  0  0  0  0
  -22.7400  -29.4650   22.5020 C   0  0  0  0  0  0  0  0  0  0  0  0
  -21.4130  -29.3020   22.3750 N   0  0  0  0  0  0  0  0  0  0  0  0
  -23.4190  -28.8180   23.3040 O   0  0  0  0  0  0  0  0  0  0  0  0
  -20.9300  -29.8750   21.6980 H   0  0  0  0  0  0  0  0  0  0  0  0
  -18.0270  -28.1360   22.8490 C   0  0  0  0  0  0  0  0  0  0  0  0
  -20.5850  -28.3650   23.1320 C   0  0  0  0  0  3  0  0  0  0  0  0
  -20.6760  -26.9400   22.5410 C   0  0  0  0  0  2  0  0  0  0  0  0
  -19.5750  -26.6390   21.5200 C   0  0  0  0  0  2  0  0  0  0  0  0
  -18.1920  -26.7900   22.1620 C   0  0  0  0  0  2  0  0  0  0  0  0
  -19.1510  -28.8830   23.2900 C   0  0  0  0  0  0  0  0  0  0  0  0
  -18.9440  -30.1430   23.8920 C   0  0  0  0  0  3  0  0  0  0  0  0
  -17.6440  -30.6580   24.0550 C   0  0  0  0  0  3  0  0  0  0  0  0
  -16.5340  -29.9080   23.6300 C   0  0  0  0  0  3  0  0  0  0  0  0
  -16.7250  -28.6490   23.0330 C   0  0  0  0  0  3  0  0  0  0  0  0
  -25.9010  -32.4840   23.8400 C   0  0  0  0  0  3  0  0  0  0  0  0
  -26.4460  -31.6590   25.0710 C   0  0  1  0  0  0  0  0  0  0  0  0
  -25.3740  -31.3690   26.1470 C   0  0  0  0  0  1  0  0  0  0  0  0
  -27.0270  -30.3020   24.6050 C   0  0  0  0  0  1  0  0  0  0  0  0
  -27.6060  -32.4280   25.7450 C   0  0  0  0  0  1  0  0  0  0  0  0
  -25.5900  -33.8640   24.2350 N   0  0  0  0  0  0  0  0  0  0  0  0
  -25.9040  -34.9480   23.5140 C   0  0  0  0  0  0  0  0  0  0  0  0
  -26.5600  -34.8900   22.4700 O   0  0  0  0  0  0  0  0  0  0  0  0
  -25.0030  -33.9830   25.0480 H   0  0  0  0  0  0  0  0  0  0  0  0
  -24.1500  -36.7300   23.2630 C   0  0  0  0  0  1  0  0  0  0  0  0
  -25.4110  -36.3100   24.0350 C   0  0  0  0  0  3  0  0  0  0  0  0
  -27.5580  -37.1800   24.8470 C   0  0  0  0  0  1  0  0  0  0  0  0
  -26.4290  -37.3780   23.9410 N   0  0  0  0  0  0  0  0  0  0  0  0
  -26.0180  -38.2870   24.1400 H   0  0  0  0  0  0  0  0  0  0  0  0
  -30.7790  -18.9240   20.8400 C   0  0  0  0  0  2  0  0  0  0  0  0
  -31.7360  -18.0190   20.2840 O   0  0  0  0  0  0  0  0  0  0  0  0
  -32.8390  -17.8140   21.1530 C   0  0  0  0  0  2  0  0  0  0  0  0
  -33.8770  -16.8930   20.5010 C   0  0  0  0  0  2  0  0  0  0  0  0
  -34.8990  -16.6740   21.4620 O   0  0  0  0  0  0  0  0  0  0  0  0
  -35.7120  -15.5240   21.2470 C   0  0  0  0  0  2  0  0  0  0  0  0
  -34.9340  -14.2080   21.4540 C   0  0  0  0  0  2  0  0  0  0  0  0
  -33.8980  -14.4040   22.4130 O   0  0  0  0  0  0  0  0  0  0  0  0
  -33.3280  -13.1960   22.8970 C   0  0  0  0  0  2  0  0  0  0  0  0
  -31.8440  -13.4430   23.2200 C   0  0  0  0  0  2  0  0  0  0  0  0
  -31.1410  -14.1110   20.9490 C   0  0  0  0  0  3  0  0  0  0  0  0
  -30.4310  -12.2630   19.3820 C   0  0  0  0  0  2  0  0  0  0  0  0
  -29.4930  -12.5190   18.1880 C   0  0  0  0  0  2  0  0  0  0  0  0
  -28.0240  -12.3690   18.6080 C   0  0  0  0  0  2  0  0  0  0  0  0
  -27.6790  -13.2330   19.8410 C   0  0  0  0  0  3  0  0  0  0  0  0
  -28.7310  -13.0770   20.9600 C   0  0  0  0  0  2  0  0  0  0  0  0
  -30.1610  -13.2290   20.4790 N   0  0  0  0  0  4  0  0  0  0  0  0
  -31.1380  -14.6910   19.8700 O   0  0  0  0  0  1  0  0  0  0  0  0
  -31.0060  -13.3410   22.0300 N   0  0  2  0  0  4  0  0  0  0  0  0
  -30.3720  -12.5620   21.9450 H   0  0  0  0  0  0  0  0  0  0  0  0
  -25.2680  -13.8200   20.5620 C   0  0  0  0  0  0  0  0  0  0  0  0
  -24.1920  -13.0460   20.9130 C   0  0  0  0  0  0  0  0  0  0  0  0
  -24.6500  -11.6940   20.8670 C   0  0  0  0  0  0  0  0  0  0  0  0
  -26.3170  -12.9460   20.3220 N   0  0  0  0  0  0  0  0  0  0  0  0
  -25.9450  -11.6590   20.5670 N   0  0  0  0  0  0  0  0  0  0  0  0
  -23.9120  -10.4320   21.0360 C   0  0  0  0  0  0  0  0  0  0  0  0
  -24.3660   -9.4220   21.9150 C   0  0  0  0  0  3  0  0  0  0  0  0
  -23.6320   -8.2260   22.0740 C   0  0  0  0  0  3  0  0  0  0  0  0
  -22.4300   -8.0310   21.3530 C   0  0  0  0  0  0  0  0  0  0  0  0
  -21.9930   -9.0280   20.4620 C   0  0  0  0  0  3  0  0  0  0  0  0
  -22.7270  -10.2160   20.3020 C   0  0  0  0  0  3  0  0  0  0  0  0
  -21.6660   -6.8900   21.4230 O   0  0  0  0  0  0  0  0  0  0  0  0
  -21.6880   -6.0750   22.5260 C   0  0  0  0  0  0  0  0  0  0  0  0
  -21.4030   -6.5650   23.8200 C   0  0  0  0  0  3  0  0  0  0  0  0
  -21.3660   -5.6800   24.9150 C   0  0  0  0  0  3  0  0  0  0  0  0
  -21.6040   -4.3060   24.7220 C   0  0  0  0  0  0  0  0  0  0  0  0
  -21.8810   -3.8150   23.4340 C   0  0  0  0  0  3  0  0  0  0  0  0
  -21.9200   -4.6970   22.3390 C   0  0  0  0  0  0  0  0  0  0  0  0
  -22.1660   -4.2150   21.0970 F   0  0  0  0  0  0  0  0  0  0  0  0
  -21.5620   -3.4540   25.7730 F   0  0  0  0  0  0  0  0  0  0  0  0
  -22.7930  -13.5240   21.1840 C   0  0  0  0  0  0  0  0  0  0  0  0
  -22.0590  -12.8190   22.0390 N   0  0  0  0  0  0  0  0  0  0  0  0
  -22.3570  -14.5540   20.6720 O   0  0  0  0  0  0  0  0  0  0  0  0
  -22.4280  -11.9860   22.4740 H   0  0  0  0  0  0  0  0  0  0  0  0
  -21.1210  -13.1190   22.2650 H   0  0  0  0  0  0  0  0  0  0  0  0
  -25.4350  -15.1930   20.4090 N   0  0  0  0  0  0  0  0  0  0  0  0
  -24.6750  -15.8540   20.5180 H   0  0  0  0  0  0  0  0  0  0  0  0
  -26.2990  -15.6290   20.1080 H   0  0  0  0  0  0  0  0  0  0  0  0
  1  6  1  0
  1 53  1  0
  2  6  1  0
  4  2  1  0
  4  7  1  0
  5  3  1  0
  6  3  1  0
  7  5  1  0
  8  1  2  0
  7  9  1  1
 10  7  1  0
 10 11  1  0
 12 14  1  0
 12 11  1  0
 13 24  2  0
 14 19  1  0
 15 23  1  0
 15 25  1  0
 16 22  1  0
 16 18  1  0
 17 23  1  0
 18 17  1  0
 19 18  2  0
 20 21  1  0
 20 14  2  0
 21 16  2  0
 22 15  1  0
 23 13  1  0
 25 27  2  0
 26 25  1  0
 28 26  1  0
 29 38  2  0
 29 34  1  0
 30 26  1  0
 30 34  1  0
 31 30  1  0
 32 33  1  0
 32 31  1  0
 33 29  1  0
 34 35  2  0
 35 36  1  0
 37 36  2  0
 38 37  1  0
 39 13  1  0
 39 44  1  0
 39 40  1  0
 40 43  1  1
 40 41  1  0
 42 40  1  0
 44 47  1  0
 45 49  1  0
 45 44  1  0
 46 45  2  0
 49 48  1  0
 51 49  1  0
 51 52  1  0
 51 50  1  0
 54 53  1  0
 54 55  1  0
 56 55  1  0
 56 57  1  0
 58 59  1  0
 58 57  1  0
 59 60  1  0
 60 61  1  0
 61 62  1  0
 63 70  1  0
 63 71  1  0
 65 66  1  0
 65 64  1  0
 67 66  1  0
 67 76  1  0
 67 68  1  0
 69 64  1  0
 69 63  1  0
 69 68  1  0
 69 71  1  0
 71 62  1  0
 71 72  1  1
 73 74  2  0
 74 93  1  0
 75 74  1  0
 75 78  1  0
 76 73  1  0
 76 77  1  0
 77 75  2  0
 78 79  1  0
 79 80  2  0
 81 84  1  0
 81 80  1  0
 82 81  2  0
 83 82  1  0
 83 78  2  0
 84 85  1  0
 85 86  1  0
 86 87  2  0
 88 87  1  0
 88 92  1  0
 89 88  2  0
 90 85  2  0
 90 89  1  0
 91 90  1  0
 93 94  1  0
 94 97  1  0
 94 96  1  0
 95 93  2  0
 98 99  1  0
 98 73  1  0
100 98  1  0
M  ISO  4  11 101  12 101  63 100  71 100
M  END
>  <TORSDO>  (71) 
F 28

>  <SCORE>  (71) 
2.084

>  <name>  (71) 
73

>  <ligand_id>  (71) 
73

>  <original_smiles>  (71) 
[H]c1c([H])c([H])c2c(c1[H])C([H])([H])C([H])([H])C([H])([H])C2([H])N([H])C(=O)C1([H])N(C(=O)C([H])(N([H])C(=O)C([H])(N([H])C([H])([H])[H])C([H])([H])[H])C(C([H])([H])[H])(C([H])([H])[H])C([H])([H])[H])C([H])([H])c2c([H])c(OC([H])([H])C([H])([H])[N+]3([H])C([H])([H])C([H])([H])N(C(=O)C([H])([H])OC([H])([H])C([H])([H])OC([H])([H])C([H])([H])OC([H])([H])C([H])([H])N([H])C(=O)N4C([H])([H])C([H])([H])C([H])([H])C([H])(n5nc(-c6c([H])c([H])c(Oc7c([H])c([H])c(F)c([H])c7F)c([H])c6[H])c(C(=O)N([H])[H])c5N([H])[H])C4([H])[H])C([H])([H])C3([H])[H])c([H])c([H])c2C1([H])[H]

>  <smiles>  (71) 
[H]c1c([H])c([H])c2c(c1[H])C([H])([H])C([H])([H])C([H])([H])C2([H])N([H])C(=O)C1([H])N(C(=O)C([H])(N([H])C(=O)C([H])(N([H])C([H])([H])[H])C([H])([H])[H])C(C([H])([H])[H])(C([H])([H])[H])C([H])([H])[H])C([H])([H])c2c([H])c(OC([H])([H])C([H])([H])[N+]3([H])C([H])([H])C([H])([H])N(C(=O)C([H])([H])OC([H])([H])C([H])([H])OC([H])([H])C([H])([H])OC([H])([H])C([H])([H])N([H])C(=O)N4C([H])([H])C([H])([H])C([H])([H])C([H])(n5nc(-c6c([H])c([H])c(Oc7c([H])c([H])c(F)c([H])c7F)c([H])c6[H])c(C(=O)N([H])[H])c5N([H])[H])C4([H])[H])C([H])([H])C3([H])[H])c([H])c([H])c2C1([H])[H]

$$$$
74:0:0
     RDKit          3D

110109  0  0  1  0  0  0  0  0999 V2000
  -21.9460  -22.7500   19.9210 C   0  0  0  0  0  2  0  0  0  0  0  0
  -22.2730  -21.4850   20.8970 C   0  0  0  0  0  2  0  0  0  0  0  0
  -23.3880  -20.5140   20.5240 N   0  0  0  0  0  4  0  0  0  0  0  0
  -23.7190  -20.1110   21.3840 H   0  0  0  0  0  0  0  0  0  0  0  0
  -24.1550  -21.0790   20.1860 H   0  0  0  0  0  0  0  0  0  0  0  0
  -23.1660  -19.3580   19.5370 C   0  0  0  0  0  3  0  0  0  0  0  0
  -23.6070  -19.5140   17.9780 C   0  0  0  0  0  3  0  0  0  0  0  0
  -23.6170  -18.3220   17.0570 O   0  0  0  0  0  0  0  0  0  0  0  0
  -24.0640  -18.2400   15.6050 C   0  0  0  0  0  2  0  0  0  0  0  0
  -24.8540  -19.5300   14.7930 C   0  0  0  0  0  1  0  0  0  0  0  0
  -25.7320  -21.6520   15.9750 O   0  0  0  0  0 15  0  0  0  0  0  0
  -27.6760  -22.1390   16.4330 C   0  0  0  0  0 15  0  0  0  0  0  0
  -29.8640  -22.4560   16.0770 C   0  0  0  0  0 15  0  0  0  0  0  0
  -32.9020  -24.3120   15.3670 C   0  0  0  0  0  2  0  0  0  0  0  0
  -31.5720  -23.5330   16.0810 N   0  0  0  0  0  2  0  0  0  0  0  0
  -32.7210  -24.3470   14.1580 O   0  0  0  0  0  1  0  0  0  0  0  0
  -31.9210  -23.4280   17.0240 H   0  0  0  0  0  0  0  0  0  0  0  0
  -34.7670  -25.1990   15.6480 C   0  0  0  0  0 15  0  0  0  0  0  0
  -37.9930  -26.5620   14.7360 C   0  0  0  0  0  0  0  0  0  0  0  0
  -40.3660  -27.9740   15.3350 C   0  0  0  0  0  2  0  0  0  0  0  0
  -40.8360  -28.1590   16.8260 C   0  0  0  0  0  2  0  0  0  0  0  0
  -39.9250  -29.1460   17.5710 C   0  0  0  0  0  2  0  0  0  0  0  0
  -38.4800  -28.9550   17.0760 C   0  0  0  0  0  3  0  0  0  0  0  0
  -38.2870  -28.9960   15.5690 C   0  0  0  0  0  2  0  0  0  0  0  0
  -38.8120  -27.7240   15.1730 N   0  0  0  0  0  0  0  0  0  0  0  0
  -38.9110  -25.9670   14.0640 O   0  0  0  0  0  0  0  0  0  0  0  0
  -36.3650  -26.1100   14.9020 N   0  0  0  0  0  2  0  0  0  0  0  0
  -36.2320  -25.7610   13.9580 H   0  0  0  0  0  0  0  0  0  0  0  0
  -36.2350  -29.4510   18.0150 C   0  0  0  0  0  0  0  0  0  0  0  0
  -35.6870  -30.5870   18.5160 C   0  0  0  0  0  0  0  0  0  0  0  0
  -36.6760  -31.6100   18.3600 C   0  0  0  0  0  0  0  0  0  0  0  0
  -37.5060  -29.8170   17.6360 N   0  0  0  0  0  0  0  0  0  0  0  0
  -37.7550  -31.1360   17.7600 N   0  0  0  0  0  0  0  0  0  0  0  0
  -36.6870  -32.9960   18.8150 C   0  0  0  0  0  0  0  0  0  0  0  0
  -36.2700  -34.0560   17.9810 C   0  0  0  0  0  3  0  0  0  0  0  0
  -36.2790  -35.3800   18.4650 C   0  0  0  0  0  3  0  0  0  0  0  0
  -36.7080  -35.6470   19.7870 C   0  0  0  0  0  0  0  0  0  0  0  0
  -37.1450  -34.5870   20.6000 C   0  0  0  0  0  3  0  0  0  0  0  0
  -37.1400  -33.2710   20.1170 C   0  0  0  0  0  3  0  0  0  0  0  0
  -36.7660  -36.9030   20.3390 O   0  0  0  0  0  0  0  0  0  0  0  0
  -35.6750  -37.7340   20.3520 C   0  0  0  0  0  0  0  0  0  0  0  0
  -34.5500  -37.4750   21.1640 C   0  0  0  0  0  3  0  0  0  0  0  0
  -33.4820  -38.3930   21.1970 C   0  0  0  0  0  3  0  0  0  0  0  0
  -33.5410  -39.5710   20.4300 C   0  0  0  0  0  0  0  0  0  0  0  0
  -34.6640  -39.8330   19.6250 C   0  0  0  0  0  3  0  0  0  0  0  0
  -35.7300  -38.9170   19.5880 C   0  0  0  0  0  0  0  0  0  0  0  0
  -36.8180  -39.1820   18.8260 F   0  0  0  0  0  0  0  0  0  0  0  0
  -32.5190  -40.4580   20.4690 F   0  0  0  0  0  0  0  0  0  0  0  0
  -34.3580  -30.6890   19.1930 C   0  0  0  0  0  0  0  0  0  0  0  0
  -33.6170  -31.7570   18.9270 N   0  0  0  0  0  0  0  0  0  0  0  0
  -33.9500  -29.7880   19.9250 O   0  0  0  0  0  0  0  0  0  0  0  0
  -33.9450  -32.4860   18.3100 H   0  0  0  0  0  0  0  0  0  0  0  0
  -32.7070  -31.8530   19.3540 H   0  0  0  0  0  0  0  0  0  0  0  0
  -35.7730  -28.1430   17.8700 N   0  0  0  0  0  0  0  0  0  0  0  0
  -34.8380  -27.8740   18.1570 H   0  0  0  0  0  0  0  0  0  0  0  0
  -36.2780  -27.3930   17.4150 H   0  0  0  0  0  0  0  0  0  0  0  0
  -20.5270  -23.4980   19.7070 C   0  0  0  0  0  2  0  0  0  0  0  0
  -19.4230  -23.4830   20.8540 C   0  0  0  0  0  2  0  0  0  0  0  0
  -18.1940  -22.6230   20.7230 N   0  0  0  0  0  4  0  0  0  0  0  0
  -17.8570  -22.4840   21.6610 H   0  0  0  0  0  0  0  0  0  0  0  0
  -18.4760  -21.7140   20.4020 H   0  0  0  0  0  0  0  0  0  0  0  0
  -17.0010  -23.0760   19.9370 C   0  0  0  0  0  2  0  0  0  0  0  0
  -15.6390  -22.9780   20.7220 C   0  0  0  0  0  3  0  0  0  0  0  0
  -14.4790  -23.9760   20.3470 C   0  0  0  0  0  2  0  0  0  0  0  0
  -13.4020  -23.3290   19.5400 N   0  0  0  0  0  4  0  0  0  0  0  0
  -13.2200  -22.4160   19.9340 H   0  0  0  0  0  0  0  0  0  0  0  0
  -13.7630  -23.2020   18.6100 H   0  0  0  0  0  0  0  0  0  0  0  0
  -12.0680  -23.9970   19.3680 C   0  0  0  0  0  2  0  0  0  0  0  0
  -10.9440  -23.0460   19.8840 C   0  0  0  0  0  2  0  0  0  0  0  0
  -11.2170  -22.0590   20.9270 O   0  0  0  0  0  0  0  0  0  0  0  0
  -15.8690  -25.8900   24.4930 C   0  0  0  0  0  0  0  0  0  0  0  0
  -11.3730  -22.7250   22.1240 C   0  0  0  0  0  0  0  0  0  0  0  0
  -14.2760  -24.5870   25.8190 C   0  0  0  0  0  3  0  0  0  0  0  0
  -12.2210  -23.6790   24.6320 C   0  0  0  0  0  0  0  0  0  0  0  0
  -13.5580  -25.5260   23.5830 C   0  0  0  0  0  2  0  0  0  0  0  0
  -12.6250  -24.3340   23.4600 C   0  0  0  0  0  0  0  0  0  0  0  0
  -12.1980  -23.8660   22.2000 C   0  0  0  0  0  3  0  0  0  0  0  0
  -10.9020  -22.1260   23.3140 C   0  0  0  0  0  3  0  0  0  0  0  0
  -11.3440  -22.5780   24.5690 C   0  0  0  0  0  3  0  0  0  0  0  0
  -12.7690  -24.2200   25.9260 C   0  0  0  0  0  2  0  0  0  0  0  0
  -14.6140  -25.3650   24.6040 N   0  0  0  0  0  0  0  0  0  0  0  0
  -16.7080  -25.7730   25.4020 O   0  0  0  0  0  0  0  0  0  0  0  0
  -15.0780  -23.2950   25.8250 C   0  0  0  0  0  0  0  0  0  0  0  0
  -14.6030  -22.3570   26.6110 N   0  0  0  0  0  0  0  0  0  0  0  0
  -16.0470  -23.1120   25.0890 O   0  0  0  0  0  0  0  0  0  0  0  0
  -13.8330  -22.5550   27.2290 H   0  0  0  0  0  0  0  0  0  0  0  0
  -13.6000  -18.7380   27.6480 C   0  0  0  0  0  0  0  0  0  0  0  0
  -14.9720  -21.0100   26.3320 C   0  0  0  0  0  2  0  0  0  0  0  0
  -14.6000  -20.5570   24.2940 C   0  0  0  0  0 15  0  0  0  0  0  0
  -13.6450  -18.4140   24.2740 C   0  0  0  0  0 15  0  0  0  0  0  0
  -13.4270  -17.7470   26.1500 C   0  0  0  0  0  1  0  0  0  0  0  0
  -14.2980  -20.1090   27.7320 C   0  0  0  0  0  0  0  0  0  0  0  0
  -14.1090  -20.8220   29.0040 C   0  0  0  0  0  3  0  0  0  0  0  0
  -13.2470  -20.4080   30.0600 C   0  0  0  0  0  3  0  0  0  0  0  0
  -12.4990  -19.2350   29.9070 C   0  0  0  0  0  3  0  0  0  0  0  0
  -12.6790  -18.4460   28.7390 C   0  0  0  0  0  3  0  0  0  0  0  0
  -16.2970  -26.6660   23.2210 C   0  0  0  0  0  3  0  0  0  0  0  0
  -15.6940  -26.0740   21.8910 C   0  0  1  0  0  0  0  0  0  0  0  0
  -15.8050  -24.5370   21.7750 C   0  0  0  0  0  2  0  0  0  0  0  0
  -14.2010  -26.4520   21.7560 C   0  0  0  0  0  1  0  0  0  0  0  0
  -16.4240  -26.6950   20.6770 C   0  0  0  0  0  1  0  0  0  0  0  0
  -17.7620  -26.6510   23.1860 N   0  0  0  0  0  0  0  0  0  0  0  0
  -18.5250  -27.7490   23.2190 C   0  0  0  0  0  0  0  0  0  0  0  0
  -18.0580  -28.8920   23.2090 O   0  0  0  0  0  0  0  0  0  0  0  0
  -18.2060  -25.7460   23.2420 H   0  0  0  0  0  0  0  0  0  0  0  0
  -20.5110  -27.4890   24.7410 C   0  0  0  0  0  1  0  0  0  0  0  0
  -20.0500  -27.5500   23.2750 C   0  0  0  0  0  3  0  0  0  0  0  0
  -20.5170  -28.6430   21.1270 C   0  0  0  0  0  1  0  0  0  0  0  0
  -20.8050  -28.6000   22.5590 N   0  0  0  0  0  0  0  0  0  0  0  0
  -21.8060  -28.4670   22.6760 H   0  0  0  0  0  0  0  0  0  0  0  0
  1  2  1  0
  3  2  1  0
  3  4  1  0
  5  3  1  0
  6  3  1  0
  7  6  2  0
  8  7  1  0
  9  8  1  0
 10  9  1  0
 14 15  1  0
 15 17  1  0
 16 14  1  0
 19 27  1  0
 19 25  1  0
 20 21  1  0
 21 22  1  0
 23 24  1  0
 23 22  1  0
 23 32  1  0
 25 20  1  0
 25 24  1  0
 26 19  2  0
 28 27  1  0
 29 30  2  0
 30 49  1  0
 31 30  1  0
 31 34  1  0
 32 33  1  0
 32 29  1  0
 33 31  2  0
 34 39  1  0
 35 36  1  0
 35 34  2  0
 36 37  2  0
 37 40  1  0
 37 38  1  0
 39 38  2  0
 40 41  1  0
 41 42  1  0
 42 43  2  0
 44 48  1  0
 44 43  1  0
 45 44  2  0
 46 45  1  0
 46 41  2  0
 47 46  1  0
 49 51  2  0
 50 49  1  0
 50 53  1  0
 52 50  1  0
 54 29  1  0
 54 55  1  0
 56 54  1  0
 57  1  1  0
 57 58  1  0
 59 58  1  0
 59 60  1  0
 61 59  1  0
 62 59  1  0
 63 62  1  0
 63 99  1  0
 64 63  1  0
 65 66  1  0
 65 64  1  0
 67 65  1  0
 68 65  1  0
 68 69  1  0
 69 70  1  0
 70 72  1  0
 71 81  1  0
 71 82  2  0
 72 77  2  0
 72 78  1  0
 73 83  1  0
 73 80  1  0
 74 80  1  0
 75 81  1  0
 76 75  1  0
 76 74  2  0
 77 76  1  0
 78 79  2  0
 79 74  1  0
 81 73  1  0
 83 84  1  0
 84 86  1  0
 85 83  2  0
 87 92  2  0
 87 96  1  0
 88 84  1  0
 88 92  1  0
 91 87  1  0
 92 93  1  0
 93 94  2  0
 95 94  1  0
 96 95  2  0
 97102  1  0
 97 71  1  0
 98 97  1  0
 99 98  1  0
 98100  1  6
101 98  1  0
102103  1  0
102105  1  0
103107  1  0
104103  2  0
107106  1  0
108109  1  0
109110  1  0
109107  1  0
M  ISO  4  19 100  27 100  69 101  70 101
M  END
>  <TORSDO>  (72) 
F 37

>  <SCORE>  (72) 
21.255

>  <name>  (72) 
74

>  <ligand_id>  (72) 
74

>  <original_smiles>  (72) 
[H]c1c([H])c([H])c2c(c1[H])C([H])([H])C([H])([H])C([H])([H])C2([H])N([H])C(=O)C1([H])N(C(=O)C([H])(N([H])C(=O)C([H])(N([H])C([H])([H])[H])C([H])([H])[H])C(C([H])([H])[H])(C([H])([H])[H])C([H])([H])[H])C([H])([H])c2c([H])c(OC([H])([H])C([H])([H])[N+]([H])([H])C([H])([H])C([H])([H])C([H])([H])[N+]([H])([H])C([H])([H])C([H])([H])C([H])([H])C([H])([H])[N+]([H])([H])C([H])([H])C([H])([H])OC([H])([H])C([H])([H])OC([H])([H])C([H])([H])N([H])C(=O)C([H])([H])N([H])C(=O)N3C([H])([H])C([H])([H])C([H])([H])C([H])(n4nc(-c5c([H])c([H])c(Oc6c([H])c([H])c(F)c([H])c6F)c([H])c5[H])c(C(=O)N([H])[H])c4N([H])[H])C3([H])[H])c([H])c([H])c2C1([H])[H]

>  <smiles>  (72) 
[H]c1c([H])c([H])c2c(c1[H])C([H])([H])C([H])([H])C([H])([H])C2([H])N([H])C(=O)C1([H])N(C(=O)C([H])(N([H])C(=O)C([H])(N([H])C([H])([H])[H])C([H])([H])[H])C(C([H])([H])[H])(C([H])([H])[H])C([H])([H])[H])C([H])([H])c2c([H])c(OC([H])([H])C([H])([H])[N+]([H])([H])C([H])([H])C([H])([H])C([H])([H])[N+]([H])([H])C([H])([H])C([H])([H])C([H])([H])C([H])([H])[N+]([H])([H])C([H])([H])C([H])([H])OC([H])([H])C([H])([H])OC([H])([H])C([H])([H])N([H])C(=O)C([H])([H])N([H])C(=O)N3C([H])([H])C([H])([H])C([H])([H])C([H])(n4nc(-c5c([H])c([H])c(Oc6c([H])c([H])c(F)c([H])c6F)c([H])c5[H])c(C(=O)N([H])[H])c4N([H])[H])C3([H])[H])c([H])c([H])c2C1([H])[H]

$$$$
75:0:0
     RDKit          3D

 94102  0  0  1  0  0  0  0  0999 V2000
  -31.3200  -22.4980   21.3520 C   0  0  0  0  0  0  0  0  0  0  0  0
  -32.0180  -21.6250   20.6080 N   0  0  0  0  0  0  0  0  0  0  0  0
  -30.5630  -22.1410   22.2570 O   0  0  0  0  0  0  0  0  0  0  0  0
  -32.5980  -22.0180   19.8770 H   0  0  0  0  0  0  0  0  0  0  0  0
  -31.5120  -23.9950   21.0770 C   0  0  0  0  0  2  0  0  0  0  0  0
  -30.2430  -24.6580   21.0880 O   0  0  0  0  0  0  0  0  0  0  0  0
  -30.3840  -26.0760   21.0960 C   0  0  0  0  0  2  0  0  0  0  0  0
  -29.0450  -26.7980   21.3020 C   0  0  0  0  0  2  0  0  0  0  0  0
  -28.2190  -26.7590   20.1350 O   0  0  0  0  0  0  0  0  0  0  0  0
  -24.4930  -31.9540   23.2820 C   0  0  0  0  0  0  0  0  0  0  0  0
  -27.0750  -27.5290   20.1770 C   0  0  0  0  0  0  0  0  0  0  0  0
  -23.2510  -30.5790   21.6370 C   0  0  0  0  0  3  0  0  0  0  0  0
  -24.6750  -29.0290   20.1950 C   0  0  0  0  0  0  0  0  0  0  0  0
  -25.7660  -30.9240   21.4080 C   0  0  0  0  0  2  0  0  0  0  0  0
  -25.8330  -29.5520   20.7770 C   0  0  0  0  0  0  0  0  0  0  0  0
  -27.0290  -28.8120   20.7700 C   0  0  0  0  0  3  0  0  0  0  0  0
  -25.9040  -27.0190   19.5780 C   0  0  0  0  0  3  0  0  0  0  0  0
  -24.7010  -27.7590   19.5910 C   0  0  0  0  0  3  0  0  0  0  0  0
  -23.4400  -29.9040   20.2510 C   0  0  0  0  0  2  0  0  0  0  0  0
  -24.5220  -31.1630   22.1720 N   0  0  0  0  0  0  0  0  0  0  0  0
  -23.4210  -32.2390   23.8340 O   0  0  0  0  0  0  0  0  0  0  0  0
  -22.5940  -29.5640   22.5980 C   0  0  0  0  0  0  0  0  0  0  0  0
  -21.2670  -29.3980   22.4680 N   0  0  0  0  0  0  0  0  0  0  0  0
  -23.2720  -28.9290   23.4100 O   0  0  0  0  0  0  0  0  0  0  0  0
  -20.7820  -29.9650   21.7880 H   0  0  0  0  0  0  0  0  0  0  0  0
  -17.8780  -28.2570   22.9600 C   0  0  0  0  0  0  0  0  0  0  0  0
  -20.4380  -28.4710   23.2380 C   0  0  0  0  0  3  0  0  0  0  0  0
  -20.5190  -27.0410   22.6560 C   0  0  0  0  0  2  0  0  0  0  0  0
  -19.4150  -26.7390   21.6380 C   0  0  0  0  0  2  0  0  0  0  0  0
  -18.0330  -26.9080   22.2780 C   0  0  0  0  0  2  0  0  0  0  0  0
  -19.0080  -28.9970   23.3950 C   0  0  0  0  0  0  0  0  0  0  0  0
  -18.8100  -30.2630   23.9890 C   0  0  0  0  0  3  0  0  0  0  0  0
  -17.5150  -30.7860   24.1570 C   0  0  0  0  0  3  0  0  0  0  0  0
  -16.3970  -30.0410   23.7390 C   0  0  0  0  0  3  0  0  0  0  0  0
  -16.5800  -28.7800   23.1450 C   0  0  0  0  0  3  0  0  0  0  0  0
  -25.7950  -32.5580   23.8950 C   0  0  0  0  0  3  0  0  0  0  0  0
  -25.5260  -33.9670   24.2090 N   0  0  0  0  0  0  0  0  0  0  0  0
  -25.8990  -35.0010   23.4430 C   0  0  0  0  0  0  0  0  0  0  0  0
  -26.5810  -34.8690   22.4220 O   0  0  0  0  0  0  0  0  0  0  0  0
  -24.9290  -34.1490   25.0020 H   0  0  0  0  0  0  0  0  0  0  0  0
  -24.2440  -36.8480   23.0280 C   0  0  0  0  0  1  0  0  0  0  0  0
  -25.4460  -36.4070   23.8790 C   0  0  0  0  0  3  0  0  0  0  0  0
  -27.5850  -37.2240   24.7700 C   0  0  0  0  0  1  0  0  0  0  0  0
  -26.5160  -37.4240   23.7930 N   0  0  0  0  0  0  0  0  0  0  0  0
  -26.1360  -38.3580   23.9280 H   0  0  0  0  0  0  0  0  0  0  0  0
  -26.2980  -31.7840   25.1750 C   0  0  1  0  0  0  0  0  0  0  0  0
  -25.2030  -31.5840   26.2490 C   0  0  0  0  0  1  0  0  0  0  0  0
  -26.8420  -30.3890   24.7860 C   0  0  0  0  0  1  0  0  0  0  0  0
  -27.4680  -32.5540   25.8290 C   0  0  0  0  0  1  0  0  0  0  0  0
  -32.0990  -20.1700   20.7940 C   0  0  0  0  0  2  0  0  0  0  0  0
  -30.7250  -19.4640   20.6950 C   0  0  0  0  0  2  0  0  0  0  0  0
  -30.6030  -14.4640   20.0400 C   0  0  0  0  0  0  0  0  0  0  0  0
  -30.2030  -12.3770   18.7780 C   0  0  0  0  0  2  0  0  0  0  0  0
  -29.1700  -12.5650   17.6500 C   0  0  0  0  0  2  0  0  0  0  0  0
  -27.7330  -12.3890   18.1800 C   0  0  0  0  0  2  0  0  0  0  0  0
  -27.4700  -13.2070   19.4710 C   0  0  0  0  0  3  0  0  0  0  0  0
  -28.6010  -12.9620   20.5020 C   0  0  0  0  0  2  0  0  0  0  0  0
  -29.8850  -13.3130   19.8690 N   0  0  0  0  0  0  0  0  0  0  0  0
  -31.5710  -14.7440   19.3260 O   0  0  0  0  0  0  0  0  0  0  0  0
  -29.1520  -16.0650   21.2460 C   0  0  0  0  0  2  0  0  0  0  0  0
  -31.4460  -15.8160   21.9180 C   0  0  0  0  0  2  0  0  0  0  0  0
  -29.3710  -17.4380   20.5830 C   0  0  0  0  0  2  0  0  0  0  0  0
  -31.5800  -17.3650   21.7800 C   0  0  0  0  0  2  0  0  0  0  0  0
  -30.3450  -15.2180   21.1380 N   0  0  0  0  0  0  0  0  0  0  0  0
  -30.7580  -17.9760   20.6940 N   0  0  2  0  0  4  0  0  0  0  0  0
  -31.2210  -17.7080   19.8370 H   0  0  0  0  0  0  0  0  0  0  0  0
  -25.0950  -13.7860   20.2910 C   0  0  0  0  0  0  0  0  0  0  0  0
  -24.0620  -13.0010   20.7340 C   0  0  0  0  0  0  0  0  0  0  0  0
  -24.5460  -11.6590   20.6950 C   0  0  0  0  0  0  0  0  0  0  0  0
  -26.1450  -12.9210   20.0230 N   0  0  0  0  0  0  0  0  0  0  0  0
  -25.8190  -11.6380   20.3210 N   0  0  0  0  0  0  0  0  0  0  0  0
  -23.8570  -10.3840   20.9420 C   0  0  0  0  0  0  0  0  0  0  0  0
  -24.3150   -9.4760   21.9210 C   0  0  0  0  0  3  0  0  0  0  0  0
  -23.6290   -8.2640   22.1510 C   0  0  0  0  0  3  0  0  0  0  0  0
  -22.4650   -7.9550   21.4070 C   0  0  0  0  0  0  0  0  0  0  0  0
  -22.0270   -8.8530   20.4180 C   0  0  0  0  0  3  0  0  0  0  0  0
  -22.7140  -10.0560   20.1850 C   0  0  0  0  0  3  0  0  0  0  0  0
  -21.7470   -6.7930   21.5480 O   0  0  0  0  0  0  0  0  0  0  0  0
  -21.6830   -6.1280   22.7460 C   0  0  0  0  0  0  0  0  0  0  0  0
  -21.1900   -6.7470   23.9170 C   0  0  0  0  0  3  0  0  0  0  0  0
  -21.0770   -6.0050   25.1080 C   0  0  0  0  0  3  0  0  0  0  0  0
  -21.4460   -4.6460   25.1330 C   0  0  0  0  0  0  0  0  0  0  0  0
  -21.9300   -4.0290   23.9670 C   0  0  0  0  0  3  0  0  0  0  0  0
  -22.0460   -4.7670   22.7760 C   0  0  0  0  0  0  0  0  0  0  0  0
  -22.4940   -4.1600   21.6500 F   0  0  0  0  0  0  0  0  0  0  0  0
  -21.3310   -3.9320   26.2750 F   0  0  0  0  0  0  0  0  0  0  0  0
  -22.6710  -13.4580   21.0750 C   0  0  0  0  0  0  0  0  0  0  0  0
  -22.0000  -12.7560   21.9820 N   0  0  0  0  0  0  0  0  0  0  0  0
  -22.1880  -14.4710   20.5730 O   0  0  0  0  0  0  0  0  0  0  0  0
  -22.4010  -11.9400   22.4180 H   0  0  0  0  0  0  0  0  0  0  0  0
  -21.0700  -13.0480   22.2470 H   0  0  0  0  0  0  0  0  0  0  0  0
  -25.2230  -15.1540   20.0770 N   0  0  0  0  0  0  0  0  0  0  0  0
  -24.4640  -15.8060   20.2310 H   0  0  0  0  0  0  0  0  0  0  0  0
  -26.0290  -15.5790   19.6390 H   0  0  0  0  0  0  0  0  0  0  0  0
  1  3  2  0
  2 50  1  0
  2  1  1  0
  4  2  1  0
  5  6  1  0
  5  1  1  0
  6  7  1  0
  7  8  1  0
  9 11  1  0
  9  8  1  0
 10 21  2  0
 11 16  1  0
 12 20  1  0
 12 22  1  0
 13 19  1  0
 13 15  1  0
 14 20  1  0
 15 14  1  0
 16 15  2  0
 17 18  1  0
 17 11  2  0
 18 13  2  0
 19 12  1  0
 20 10  1  0
 22 24  2  0
 23 22  1  0
 25 23  1  0
 26 35  2  0
 26 31  1  0
 27 23  1  0
 27 31  1  0
 28 27  1  0
 29 30  1  0
 29 28  1  0
 30 26  1  0
 31 32  2  0
 32 33  1  0
 34 33  2  0
 35 34  1  0
 36 10  1  0
 36 37  1  0
 36 46  1  0
 37 40  1  0
 38 42  1  0
 38 37  1  0
 39 38  2  0
 42 41  1  0
 44 42  1  0
 44 45  1  0
 44 43  1  0
 46 49  1  1
 46 47  1  0
 48 46  1  0
 51 50  1  0
 52 64  1  0
 53 58  1  0
 54 55  1  0
 54 53  1  0
 56 55  1  0
 56 70  1  0
 56 57  1  0
 58 52  1  0
 58 57  1  0
 59 52  2  0
 62 65  1  0
 62 60  1  0
 63 61  1  0
 64 60  1  0
 64 61  1  0
 65 51  1  0
 65 63  1  0
 65 66  1  6
 67 68  2  0
 68 87  1  0
 69 68  1  0
 69 72  1  0
 70 67  1  0
 70 71  1  0
 71 69  2  0
 72 73  1  0
 73 74  2  0
 75 78  1  0
 75 74  1  0
 76 75  2  0
 77 76  1  0
 77 72  2  0
 78 79  1  0
 79 84  2  0
 79 80  1  0
 80 81  2  0
 81 82  1  0
 82 86  1  0
 83 82  2  0
 84 83  1  0
 85 84  1  0
 87 88  1  0
 88 91  1  0
 88 90  1  0
 89 87  2  0
 92 93  1  0
 92 67  1  0
 94 92  1  0
M  ISO  4   8 101   9 101  52 100  64 100
M  END
>  <TORSDO>  (73) 
F 22

>  <SCORE>  (73) 
-11.997

>  <name>  (73) 
75

>  <ligand_id>  (73) 
75

>  <original_smiles>  (73) 
[H]c1c([H])c([H])c2c(c1[H])C([H])([H])C([H])([H])C([H])([H])C2([H])N([H])C(=O)C1([H])N(C(=O)C([H])(N([H])C(=O)C([H])(N([H])C([H])([H])[H])C([H])([H])[H])C(C([H])([H])[H])(C([H])([H])[H])C([H])([H])[H])C([H])([H])c2c([H])c(OC([H])([H])C([H])([H])OC([H])([H])C(=O)N([H])C([H])([H])C([H])([H])[N+]3([H])C([H])([H])C([H])([H])N(C(=O)N4C([H])([H])C([H])([H])C([H])([H])C([H])(n5nc(-c6c([H])c([H])c(Oc7c([H])c([H])c(F)c([H])c7F)c([H])c6[H])c(C(=O)N([H])[H])c5N([H])[H])C4([H])[H])C([H])([H])C3([H])[H])c([H])c([H])c2C1([H])[H]

>  <smiles>  (73) 
[H]c1c([H])c([H])c2c(c1[H])C([H])([H])C([H])([H])C([H])([H])C2([H])N([H])C(=O)C1([H])N(C(=O)C([H])(N([H])C(=O)C([H])(N([H])C([H])([H])[H])C([H])([H])[H])C(C([H])([H])[H])(C([H])([H])[H])C([H])([H])[H])C([H])([H])c2c([H])c(OC([H])([H])C([H])([H])OC([H])([H])C(=O)N([H])C([H])([H])C([H])([H])[N+]3([H])C([H])([H])C([H])([H])N(C(=O)N4C([H])([H])C([H])([H])C([H])([H])C([H])(n5nc(-c6c([H])c([H])c(Oc7c([H])c([H])c(F)c([H])c7F)c([H])c6[H])c(C(=O)N([H])[H])c5N([H])[H])C4([H])[H])C([H])([H])C3([H])[H])c([H])c([H])c2C1([H])[H]

$$$$
76:0:0
     RDKit          3D

107114  0  0  1  0  0  0  0  0999 V2000
  -29.4330  -20.5100   21.2940 C   0  0  0  0  0  3  0  0  0  0  0  0
  -30.3570  -21.7290   21.0970 C   0  0  0  0  0  0  0  0  0  0  0  0
  -30.0790  -22.8350   21.8030 N   0  0  0  0  0  0  0  0  0  0  0  0
  -31.3330  -21.6520   20.3460 O   0  0  0  0  0  0  0  0  0  0  0  0
  -29.2490  -22.8030   22.3830 H   0  0  0  0  0  0  0  0  0  0  0  0
  -30.9610  -23.9910   21.9790 C   0  0  0  0  0  2  0  0  0  0  0  0
  -30.7140  -25.1890   21.0320 C   0  0  0  0  0  2  0  0  0  0  0  0
  -29.3080  -25.8180   21.0880 C   0  0  0  0  0  2  0  0  0  0  0  0
  -29.3250  -27.0800   20.4140 O   0  0  0  0  0  0  0  0  0  0  0  0
  -24.8860  -31.8380   23.2830 C   0  0  0  0  0  0  0  0  0  0  0  0
  -28.1060  -27.7070   20.3510 C   0  0  0  0  0  0  0  0  0  0  0  0
  -23.9270  -30.3960   21.5160 C   0  0  0  0  0  3  0  0  0  0  0  0
  -25.6060  -29.0080   20.1900 C   0  0  0  0  0  0  0  0  0  0  0  0
  -26.4210  -30.9560   21.5300 C   0  0  0  0  0  2  0  0  0  0  0  0
  -26.6660  -29.6110   20.8790 C   0  0  0  0  0  0  0  0  0  0  0  0
  -27.9220  -28.9680   20.9570 C   0  0  0  0  0  3  0  0  0  0  0  0
  -27.0340  -27.1110   19.6530 C   0  0  0  0  0  3  0  0  0  0  0  0
  -25.7820  -27.7570   19.5730 C   0  0  0  0  0  3  0  0  0  0  0  0
  -24.2990  -29.7690   20.1460 C   0  0  0  0  0  2  0  0  0  0  0  0
  -25.0910  -31.0780   22.1710 N   0  0  0  0  0  0  0  0  0  0  0  0
  -23.7490  -32.0120   23.7400 O   0  0  0  0  0  0  0  0  0  0  0  0
  -23.2820  -29.3040   22.3980 C   0  0  0  0  0  0  0  0  0  0  0  0
  -21.9740  -29.0730   22.2050 N   0  0  0  0  0  0  0  0  0  0  0  0
  -23.9580  -28.6650   23.2100 O   0  0  0  0  0  0  0  0  0  0  0  0
  -21.4890  -29.6420   21.5240 H   0  0  0  0  0  0  0  0  0  0  0  0
  -18.6130  -27.8100   22.5970 C   0  0  0  0  0  0  0  0  0  0  0  0
  -21.1680  -28.0660   22.8930 C   0  0  0  0  0  3  0  0  0  0  0  0
  -21.2850  -26.6900   22.1980 C   0  0  0  0  0  2  0  0  0  0  0  0
  -20.1870  -26.4450   21.1580 C   0  0  0  0  0  2  0  0  0  0  0  0
  -18.8030  -26.5240   21.8100 C   0  0  0  0  0  2  0  0  0  0  0  0
  -19.7250  -28.5420   23.0920 C   0  0  0  0  0  0  0  0  0  0  0  0
  -19.4950  -29.7490   23.7860 C   0  0  0  0  0  3  0  0  0  0  0  0
  -18.1870  -30.2260   23.9910 C   0  0  0  0  0  3  0  0  0  0  0  0
  -17.0900  -29.4880   23.5130 C   0  0  0  0  0  3  0  0  0  0  0  0
  -17.3030  -28.2820   22.8230 C   0  0  0  0  0  3  0  0  0  0  0  0
  -26.0670  -32.5460   24.0210 C   0  0  0  0  0  3  0  0  0  0  0  0
  -25.6470  -33.9250   24.3030 N   0  0  0  0  0  0  0  0  0  0  0  0
  -25.9720  -34.9870   23.5520 C   0  0  0  0  0  0  0  0  0  0  0  0
  -26.7240  -34.9120   22.5770 O   0  0  0  0  0  0  0  0  0  0  0  0
  -24.9840  -34.0510   25.0530 H   0  0  0  0  0  0  0  0  0  0  0  0
  -24.1560  -36.6510   23.0480 C   0  0  0  0  0  1  0  0  0  0  0  0
  -25.3650  -36.3460   23.9460 C   0  0  0  0  0  3  0  0  0  0  0  0
  -27.3770  -37.3900   24.8910 C   0  0  0  0  0  1  0  0  0  0  0  0
  -26.3300  -37.4640   23.8760 N   0  0  0  0  0  0  0  0  0  0  0  0
  -25.8560  -38.3580   23.9730 H   0  0  0  0  0  0  0  0  0  0  0  0
  -26.5050  -31.8090   25.3460 C   0  0  1  0  0  0  0  0  0  0  0  0
  -25.3290  -31.4900   26.2970 C   0  0  0  0  0  1  0  0  0  0  0  0
  -27.2200  -30.4770   25.0170 C   0  0  0  0  0  1  0  0  0  0  0  0
  -27.5230  -32.6810   26.1180 C   0  0  0  0  0  1  0  0  0  0  0  0
  -30.0460  -18.0800   21.2460 C   0  0  0  0  0  0  0  0  0  0  0  0
  -30.0100  -19.3010   20.6940 N   0  0  0  0  0  0  0  0  0  0  0  0
  -29.3900  -17.7750   22.2430 O   0  0  0  0  0  0  0  0  0  0  0  0
  -30.5950  -19.4760   19.8850 H   0  0  0  0  0  0  0  0  0  0  0  0
  -30.9910  -17.0540   20.6170 C   0  0  0  0  0  2  0  0  0  0  0  0
  -31.2420  -14.6140   20.3740 C   0  0  0  0  0  0  0  0  0  0  0  0
  -30.9230  -12.4190   19.3140 C   0  0  0  0  0  2  0  0  0  0  0  0
  -30.0030  -12.5910   18.0880 C   0  0  0  0  0  2  0  0  0  0  0  0
  -28.5200  -12.4910   18.5000 C   0  0  0  0  0  2  0  0  0  0  0  0
  -28.1770  -13.3780   19.7280 C   0  0  0  0  0  3  0  0  0  0  0  0
  -29.2150  -13.1920   20.8590 C   0  0  0  0  0  2  0  0  0  0  0  0
  -30.5510  -13.4480   20.2970 N   0  0  0  0  0  0  0  0  0  0  0  0
  -32.3690  -14.7630   19.8930 O   0  0  0  0  0  0  0  0  0  0  0  0
  -30.5610  -15.6700   20.8370 N   0  0  0  0  0  0  0  0  0  0  0  0
  -29.6430  -15.5280   21.2320 H   0  0  0  0  0  0  0  0  0  0  0  0
  -25.7880  -14.0360   20.4250 C   0  0  0  0  0  0  0  0  0  0  0  0
  -24.7010  -13.2860   20.7860 C   0  0  0  0  0  0  0  0  0  0  0  0
  -25.1330  -11.9240   20.7570 C   0  0  0  0  0  0  0  0  0  0  0  0
  -26.8160  -13.1340   20.2000 N   0  0  0  0  0  0  0  0  0  0  0  0
  -26.4240  -11.8580   20.4560 N   0  0  0  0  0  0  0  0  0  0  0  0
  -24.3790  -10.6780   20.9420 C   0  0  0  0  0  0  0  0  0  0  0  0
  -24.7400   -9.7400   21.9350 C   0  0  0  0  0  3  0  0  0  0  0  0
  -23.9900   -8.5550   22.1070 C   0  0  0  0  0  3  0  0  0  0  0  0
  -22.8650   -8.3030   21.2870 C   0  0  0  0  0  0  0  0  0  0  0  0
  -22.5230   -9.2300   20.2860 C   0  0  0  0  0  3  0  0  0  0  0  0
  -23.2740  -10.4050   20.1130 C   0  0  0  0  0  3  0  0  0  0  0  0
  -22.0920   -7.1700   21.3650 O   0  0  0  0  0  0  0  0  0  0  0  0
  -21.8800   -6.5250   22.5570 C   0  0  0  0  0  0  0  0  0  0  0  0
  -21.2830   -7.1740   23.6600 C   0  0  0  0  0  3  0  0  0  0  0  0
  -21.0180   -6.4550   24.8420 C   0  0  0  0  0  3  0  0  0  0  0  0
  -21.3380   -5.0860   24.9200 C   0  0  0  0  0  0  0  0  0  0  0  0
  -21.9270   -4.4360   23.8210 C   0  0  0  0  0  3  0  0  0  0  0  0
  -22.1940   -5.1530   22.6420 C   0  0  0  0  0  0  0  0  0  0  0  0
  -22.7420   -4.5160   21.5790 F   0  0  0  0  0  0  0  0  0  0  0  0
  -21.0770   -4.3930   26.0530 F   0  0  0  0  0  0  0  0  0  0  0  0
  -23.3120  -13.7920   21.0520 C   0  0  0  0  0  0  0  0  0  0  0  0
  -22.5720  -13.1230   21.9290 N   0  0  0  0  0  0  0  0  0  0  0  0
  -22.8920  -14.8180   20.5180 O   0  0  0  0  0  0  0  0  0  0  0  0
  -22.9270  -12.2950   22.3850 H   0  0  0  0  0  0  0  0  0  0  0  0
  -21.6390  -13.4440   22.1480 H   0  0  0  0  0  0  0  0  0  0  0  0
  -25.9850  -15.4020   20.2480 N   0  0  0  0  0  0  0  0  0  0  0  0
  -25.2350  -16.0770   20.3590 H   0  0  0  0  0  0  0  0  0  0  0  0
  -26.8480  -15.8190   19.9250 H   0  0  0  0  0  0  0  0  0  0  0  0
  -27.9270  -20.6950   20.9680 C   0  0  0  0  0  2  0  0  0  0  0  0
  -27.5330  -21.4920   19.7030 C   0  0  0  0  0  2  0  0  0  0  0  0
  -27.6440  -23.0240   19.8750 C   0  0  0  0  0  2  0  0  0  0  0  0
  -26.4970  -23.8490   19.2500 C   0  0  0  0  0  2  0  0  0  0  0  0
  -26.6430  -24.1840   17.7640 C   0  0  0  0  0  0  0  0  0  0  0  0
  -25.2540  -25.0410   15.8740 C   0  0  0  0  0  0  0  0  0  0  0  0
  -24.0270  -25.3680   15.4530 N   0  0  0  0  0  0  0  0  0  0  0  0
  -25.4180  -24.5940   17.1390 N   0  0  0  0  0  0  0  0  0  0  0  0
  -26.2540  -25.1880   15.0000 N   0  0  0  0  0  4  0  0  0  0  0  0
  -27.7240  -24.1530   17.1630 O   0  0  0  0  0  0  0  0  0  0  0  0
  -23.2160  -25.2860   16.0530 H   0  0  0  0  0  0  0  0  0  0  0  0
  -23.8500  -25.7020   14.5170 H   0  0  0  0  0  0  0  0  0  0  0  0
  -24.5670  -24.5810   17.6760 H   0  0  0  0  0  0  0  0  0  0  0  0
  -26.1320  -25.5360   14.0600 H   0  0  0  0  0  0  0  0  0  0  0  0
  -27.1920  -24.9390   15.3010 H   0  0  0  0  0  0  0  0  0  0  0  0
  1 93  1  0
  2  1  1  0
  2  3  1  0
  3  6  1  0
  3  5  1  0
  4  2  2  0
  7  8  1  0
  7  6  1  0
  9  8  1  0
 10 21  2  0
 11  9  1  0
 11 16  1  0
 12 20  1  0
 12 22  1  0
 13 15  1  0
 14 20  1  0
 15 16  2  0
 15 14  1  0
 17 11  2  0
 18 17  1  0
 18 13  2  0
 19 13  1  0
 19 12  1  0
 20 10  1  0
 22 24  2  0
 23 22  1  0
 25 23  1  0
 26 35  2  0
 26 31  1  0
 27 23  1  0
 27 31  1  0
 28 27  1  0
 29 30  1  0
 29 28  1  0
 30 26  1  0
 31 32  2  0
 32 33  1  0
 34 33  2  0
 35 34  1  0
 36 10  1  0
 36 37  1  0
 36 46  1  0
 37 40  1  0
 38 42  1  0
 38 37  1  0
 39 38  2  0
 42 41  1  0
 44 42  1  0
 44 45  1  0
 44 43  1  0
 46 49  1  1
 46 47  1  0
 48 46  1  0
 50 52  2  0
 51 50  1  0
 51  1  1  0
 53 51  1  0
 54 63  1  0
 54 50  1  0
 55 63  1  0
 56 61  1  0
 57 58  1  0
 57 56  1  0
 59 58  1  0
 59 68  1  0
 59 60  1  0
 61 55  1  0
 61 60  1  0
 62 55  2  0
 63 64  1  0
 65 66  2  0
 66 85  1  0
 67 66  1  0
 67 70  1  0
 68 65  1  0
 68 69  1  0
 69 67  2  0
 70 71  1  0
 71 72  2  0
 73 76  1  0
 73 72  1  0
 74 73  2  0
 75 74  1  0
 75 70  2  0
 76 77  1  0
 77 82  2  0
 77 78  1  0
 78 79  2  0
 79 80  1  0
 80 84  1  0
 81 80  2  0
 82 81  1  0
 83 82  1  0
 85 86  1  0
 86 89  1  0
 86 88  1  0
 87 85  2  0
 90 91  1  0
 90 65  1  0
 92 90  1  0
 94 95  1  0
 94 93  1  0
 96 95  1  0
 97 96  1  0
 98100  1  0
 99 98  1  0
 99103  1  0
100105  1  0
100 97  1  0
101107  1  0
101 98  2  0
102 97  2  0
104 99  1  0
106101  1  0
M  ISO  4   8 101   9 101  55 100  63 100
M  END
>  <TORSDO>  (74) 
F 27

>  <SCORE>  (74) 
-9.768

>  <name>  (74) 
76

>  <ligand_id>  (74) 
76

>  <original_smiles>  (74) 
[H]c1c([H])c([H])c2c(c1[H])C([H])([H])C([H])([H])C([H])([H])C2([H])N([H])C(=O)C1([H])N(C(=O)C([H])(N([H])C(=O)C([H])(N([H])C([H])([H])[H])C([H])([H])[H])C(C([H])([H])[H])(C([H])([H])[H])C([H])([H])[H])C([H])([H])c2c([H])c(OC([H])([H])C([H])([H])C([H])([H])N([H])C(=O)C([H])(N([H])C(=O)C([H])([H])N([H])C(=O)N3C([H])([H])C([H])([H])C([H])([H])C([H])(n4nc(-c5c([H])c([H])c(Oc6c([H])c([H])c(F)c([H])c6F)c([H])c5[H])c(C(=O)N([H])[H])c4N([H])[H])C3([H])[H])C([H])([H])C([H])([H])C([H])([H])C([H])([H])C(=O)N([H])C(N([H])[H])=[N+]([H])[H])c([H])c([H])c2C1([H])[H]

>  <smiles>  (74) 
[H]c1c([H])c([H])c2c(c1[H])C([H])([H])C([H])([H])C([H])([H])C2([H])N([H])C(=O)C1([H])N(C(=O)C([H])(N([H])C(=O)C([H])(N([H])C([H])([H])[H])C([H])([H])[H])C(C([H])([H])[H])(C([H])([H])[H])C([H])([H])[H])C([H])([H])c2c([H])c(OC([H])([H])C([H])([H])C([H])([H])N([H])C(=O)C([H])(N([H])C(=O)C([H])([H])N([H])C(=O)N3C([H])([H])C([H])([H])C([H])([H])C([H])(n4nc(-c5c([H])c([H])c(Oc6c([H])c([H])c(F)c([H])c6F)c([H])c5[H])c(C(=O)N([H])[H])c4N([H])[H])C3([H])[H])C([H])([H])C([H])([H])C([H])([H])C([H])([H])C(=O)N([H])C(N([H])[H])=[N+]([H])[H])c([H])c([H])c2C1([H])[H]

$$$$
77:0:0
     RDKit          3D

106113  0  0  1  0  0  0  0  0999 V2000
  -34.4830  -21.3710   23.1670 C   0  0  0  0  0  2  0  0  0  0  0  0
  -35.2300  -20.9940   22.0210 O   0  0  0  0  0  0  0  0  0  0  0  0
  -35.8980  -19.7570   22.1600 C   0  0  0  0  0  2  0  0  0  0  0  0
  -36.3430  -19.3380   20.7640 C   0  0  0  0  0  2  0  0  0  0  0  0
  -35.1640  -18.9050   19.9850 N   0  0  0  0  0  4  0  0  0  0  0  0
  -34.5120  -18.4820   20.6280 H   0  0  0  0  0  0  0  0  0  0  0  0
  -34.7060  -19.7130   19.5860 H   0  0  0  0  0  0  0  0  0  0  0  0
  -35.4720  -17.9190   18.9400 C   0  0  0  0  0  2  0  0  0  0  0  0
  -34.1900  -17.4330   18.2440 C   0  0  0  0  0  2  0  0  0  0  0  0
  -34.3750  -16.0750   17.5570 C   0  0  0  0  0  2  0  0  0  0  0  0
  -34.6760  -15.1000   18.5520 O   0  0  0  0  0  0  0  0  0  0  0  0
  -34.0860  -13.8330   18.2960 C   0  0  0  0  0  2  0  0  0  0  0  0
  -34.5160  -12.8040   19.3570 C   0  0  0  0  0  2  0  0  0  0  0  0
  -33.5900  -12.7410   20.4510 O   0  0  0  0  0  0  0  0  0  0  0  0
  -33.7730  -13.7710   21.4190 C   0  0  0  0  0  2  0  0  0  0  0  0
  -32.6410  -13.7670   22.4890 C   0  0  0  0  0  2  0  0  0  0  0  0
  -30.8760  -14.2050   20.7650 C   0  0  0  0  0  0  0  0  0  0  0  0
  -30.3980  -12.4030   19.2370 C   0  0  0  0  0  2  0  0  0  0  0  0
  -29.4170  -12.6320   18.0930 C   0  0  0  0  0  2  0  0  0  0  0  0
  -27.9910  -12.3360   18.5810 C   0  0  0  0  0  2  0  0  0  0  0  0
  -27.6430  -13.1740   19.8370 C   0  0  0  0  0  3  0  0  0  0  0  0
  -28.7000  -12.9330   20.9330 C   0  0  0  0  0  2  0  0  0  0  0  0
  -30.0320  -13.2350   20.3740 N   0  0  0  0  0  0  0  0  0  0  0  0
  -31.5650  -14.9020   20.0170 O   0  0  0  0  0  0  0  0  0  0  0  0
  -31.2620  -13.9200   22.0020 N   0  0  0  0  0  0  0  0  0  0  0  0
  -30.5850  -13.3220   22.4540 H   0  0  0  0  0  0  0  0  0  0  0  0
  -25.2510  -13.8080   20.5510 C   0  0  0  0  0  0  0  0  0  0  0  0
  -24.1690  -13.0390   20.9130 C   0  0  0  0  0  0  0  0  0  0  0  0
  -24.6250  -11.6860   20.8760 C   0  0  0  0  0  0  0  0  0  0  0  0
  -26.2870  -12.9130   20.3170 N   0  0  0  0  0  0  0  0  0  0  0  0
  -25.9110  -11.6360   20.5570 N   0  0  0  0  0  0  0  0  0  0  0  0
  -23.8920  -10.4290   21.0500 C   0  0  0  0  0  0  0  0  0  0  0  0
  -24.3520   -9.4200   21.9250 C   0  0  0  0  0  3  0  0  0  0  0  0
  -23.6210   -8.2260   22.0840 C   0  0  0  0  0  3  0  0  0  0  0  0
  -22.4200   -8.0310   21.3630 C   0  0  0  0  0  0  0  0  0  0  0  0
  -21.9800   -9.0290   20.4740 C   0  0  0  0  0  3  0  0  0  0  0  0
  -22.7150  -10.2140   20.3140 C   0  0  0  0  0  3  0  0  0  0  0  0
  -21.6640   -6.8860   21.4290 O   0  0  0  0  0  0  0  0  0  0  0  0
  -21.6860   -6.0690   22.5310 C   0  0  0  0  0  0  0  0  0  0  0  0
  -21.3970   -6.5600   23.8220 C   0  0  0  0  0  3  0  0  0  0  0  0
  -21.3660   -5.6800   24.9210 C   0  0  0  0  0  3  0  0  0  0  0  0
  -21.6050   -4.3050   24.7280 C   0  0  0  0  0  0  0  0  0  0  0  0
  -21.8790   -3.8110   23.4400 C   0  0  0  0  0  3  0  0  0  0  0  0
  -21.9180   -4.6930   22.3450 C   0  0  0  0  0  0  0  0  0  0  0  0
  -22.1600   -4.2080   21.1030 F   0  0  0  0  0  0  0  0  0  0  0  0
  -21.5690   -3.4550   25.7790 F   0  0  0  0  0  0  0  0  0  0  0  0
  -22.7790  -13.5290   21.1930 C   0  0  0  0  0  0  0  0  0  0  0  0
  -22.0360  -12.8290   22.0480 N   0  0  0  0  0  0  0  0  0  0  0  0
  -22.3520  -14.5700   20.6960 O   0  0  0  0  0  0  0  0  0  0  0  0
  -22.3920  -11.9850   22.4710 H   0  0  0  0  0  0  0  0  0  0  0  0
  -21.1010  -13.1420   22.2770 H   0  0  0  0  0  0  0  0  0  0  0  0
  -25.4230  -15.1780   20.3800 N   0  0  0  0  0  0  0  0  0  0  0  0
  -24.6670  -15.8440   20.5080 H   0  0  0  0  0  0  0  0  0  0  0  0
  -26.3010  -15.6200   20.1340 H   0  0  0  0  0  0  0  0  0  0  0  0
  -34.1140  -22.8540   23.0430 C   0  0  0  0  0  2  0  0  0  0  0  0
  -33.4180  -23.0800   21.8240 O   0  0  0  0  0  0  0  0  0  0  0  0
  -34.2550  -23.4950   20.7460 C   0  0  0  0  0  2  0  0  0  0  0  0
  -33.4370  -23.4280   19.4610 C   0  0  0  0  0  0  0  0  0  0  0  0
  -33.0220  -24.5970   18.9660 N   0  0  0  0  0  0  0  0  0  0  0  0
  -33.1740  -22.3390   18.9410 O   0  0  0  0  0  0  0  0  0  0  0  0
  -33.2550  -25.4290   19.4960 H   0  0  0  0  0  0  0  0  0  0  0  0
  -32.2630  -24.7710   17.7340 C   0  0  0  0  0  2  0  0  0  0  0  0
  -30.7470  -24.6850   17.9830 C   0  0  0  0  0  2  0  0  0  0  0  0
  -30.2580  -25.7360   18.9930 C   0  0  0  0  0  2  0  0  0  0  0  0
  -28.7300  -25.8180   19.1210 C   0  0  0  0  0  2  0  0  0  0  0  0
  -28.4730  -26.8270   20.0870 O   0  0  0  0  0  0  0  0  0  0  0  0
  -24.6100  -31.8690   23.2100 C   0  0  0  0  0  0  0  0  0  0  0  0
  -27.2610  -27.4770   20.0800 C   0  0  0  0  0  0  0  0  0  0  0  0
  -23.3990  -30.4860   21.5480 C   0  0  0  0  0  3  0  0  0  0  0  0
  -24.8510  -28.9510   20.1180 C   0  0  0  0  0  0  0  0  0  0  0  0
  -25.9210  -30.8410   21.3630 C   0  0  0  0  0  2  0  0  0  0  0  0
  -26.0000  -29.4740   20.7190 C   0  0  0  0  0  0  0  0  0  0  0  0
  -27.2000  -28.7360   20.7090 C   0  0  0  0  0  3  0  0  0  0  0  0
  -26.0920  -26.9520   19.4850 C   0  0  0  0  0  3  0  0  0  0  0  0
  -24.8880  -27.6850   19.5030 C   0  0  0  0  0  3  0  0  0  0  0  0
  -23.6080  -29.8070   20.1660 C   0  0  0  0  0  2  0  0  0  0  0  0
  -24.6610  -31.0800   22.0990 N   0  0  0  0  0  0  0  0  0  0  0  0
  -23.5300  -32.1420   23.7510 O   0  0  0  0  0  0  0  0  0  0  0  0
  -22.7380  -29.4650   22.5010 C   0  0  0  0  0  0  0  0  0  0  0  0
  -21.4120  -29.3030   22.3750 N   0  0  0  0  0  0  0  0  0  0  0  0
  -23.4160  -28.8180   23.3040 O   0  0  0  0  0  0  0  0  0  0  0  0
  -20.9280  -29.8770   21.6980 H   0  0  0  0  0  0  0  0  0  0  0  0
  -18.0260  -28.1370   22.8510 C   0  0  0  0  0  0  0  0  0  0  0  0
  -20.5850  -28.3660   23.1330 C   0  0  0  0  0  3  0  0  0  0  0  0
  -20.6750  -26.9390   22.5410 C   0  0  0  0  0  2  0  0  0  0  0  0
  -19.5730  -26.6380   21.5200 C   0  0  0  0  0  2  0  0  0  0  0  0
  -18.1900  -26.7920   22.1610 C   0  0  0  0  0  2  0  0  0  0  0  0
  -19.1510  -28.8830   23.2910 C   0  0  0  0  0  0  0  0  0  0  0  0
  -18.9440  -30.1440   23.8910 C   0  0  0  0  0  3  0  0  0  0  0  0
  -17.6440  -30.6580   24.0570 C   0  0  0  0  0  3  0  0  0  0  0  0
  -16.5340  -29.9080   23.6330 C   0  0  0  0  0  3  0  0  0  0  0  0
  -16.7260  -28.6500   23.0370 C   0  0  0  0  0  3  0  0  0  0  0  0
  -25.9010  -32.4820   23.8400 C   0  0  0  0  0  3  0  0  0  0  0  0
  -26.4460  -31.6590   25.0710 C   0  0  1  0  0  0  0  0  0  0  0  0
  -25.3740  -31.3620   26.1440 C   0  0  0  0  0  1  0  0  0  0  0  0
  -27.0340  -30.3070   24.6040 C   0  0  0  0  0  1  0  0  0  0  0  0
  -27.6020  -32.4320   25.7500 C   0  0  0  0  0  1  0  0  0  0  0  0
  -25.5870  -33.8630   24.2340 N   0  0  0  0  0  0  0  0  0  0  0  0
  -25.9020  -34.9470   23.5130 C   0  0  0  0  0  0  0  0  0  0  0  0
  -26.5580  -34.8920   22.4700 O   0  0  0  0  0  0  0  0  0  0  0  0
  -25.0080  -33.9800   25.0520 H   0  0  0  0  0  0  0  0  0  0  0  0
  -24.1480  -36.7290   23.2640 C   0  0  0  0  0  1  0  0  0  0  0  0
  -25.4100  -36.3120   24.0350 C   0  0  0  0  0  3  0  0  0  0  0  0
  -27.5580  -37.1800   24.8460 C   0  0  0  0  0  1  0  0  0  0  0  0
  -26.4280  -37.3800   23.9420 N   0  0  0  0  0  0  0  0  0  0  0  0
  -26.0170  -38.2860   24.1460 H   0  0  0  0  0  0  0  0  0  0  0  0
  2  3  1  0
  2  1  1  0
  4  3  1  0
  5  6  1  0
  5  4  1  0
  7  5  1  0
  8  5  1  0
  9  8  1  0
 10  9  1  0
 10 11  1  0
 12 11  1  0
 12 13  1  0
 13 14  1  0
 14 15  1  0
 15 16  1  0
 17 25  1  0
 18 23  1  0
 19 20  1  0
 19 18  1  0
 21 20  1  0
 21 30  1  0
 21 22  1  0
 23 17  1  0
 23 22  1  0
 24 17  2  0
 25 26  1  0
 25 16  1  0
 27 28  2  0
 28 47  1  0
 29 28  1  0
 29 32  1  0
 30 27  1  0
 30 31  1  0
 31 29  2  0
 32 33  1  0
 33 34  2  0
 35 38  1  0
 35 34  1  0
 36 35  2  0
 37 36  1  0
 37 32  2  0
 38 39  1  0
 39 40  1  0
 40 41  2  0
 42 41  1  0
 42 46  1  0
 43 42  2  0
 44 39  2  0
 44 43  1  0
 45 44  1  0
 47 48  1  0
 48 51  1  0
 48 50  1  0
 49 47  2  0
 52 53  1  0
 52 27  1  0
 54 52  1  0
 55  1  1  0
 56 55  1  0
 57 56  1  0
 58 57  1  0
 59 58  1  0
 59 61  1  0
 60 58  2  0
 62 63  1  0
 62 59  1  0
 63 64  1  0
 64 65  1  0
 65 66  1  0
 67 78  2  0
 68 66  1  0
 68 73  1  0
 69 77  1  0
 69 79  1  0
 70 76  1  0
 70 72  1  0
 71 77  1  0
 72 71  1  0
 73 72  2  0
 74 75  1  0
 74 68  2  0
 75 70  2  0
 76 69  1  0
 77 67  1  0
 79 81  2  0
 80 79  1  0
 82 80  1  0
 83 92  2  0
 83 88  1  0
 84 80  1  0
 84 88  1  0
 85 84  1  0
 86 87  1  0
 86 85  1  0
 87 83  1  0
 88 89  2  0
 89 90  1  0
 91 90  2  0
 92 91  1  0
 93 67  1  0
 93 98  1  0
 93 94  1  0
 94 97  1  1
 94 95  1  0
 96 94  1  0
 98101  1  0
 99103  1  0
 99 98  1  0
100 99  2  0
103102  1  0
105103  1  0
105106  1  0
105104  1  0
M  ISO  4  17 100  25 100  65 101  66 101
M  END
>  <TORSDO>  (75) 
F 37

>  <SCORE>  (75) 
-2.609

>  <name>  (75) 
77

>  <ligand_id>  (75) 
77

>  <original_smiles>  (75) 
[H]c1c([H])c([H])c2c(c1[H])C([H])([H])C([H])([H])C([H])([H])C2([H])N([H])C(=O)C1([H])N(C(=O)C([H])(N([H])C(=O)C([H])(N([H])C([H])([H])[H])C([H])([H])[H])C(C([H])([H])[H])(C([H])([H])[H])C([H])([H])[H])C([H])([H])c2c([H])c(OC([H])([H])C([H])([H])C([H])([H])C([H])([H])N([H])C(=O)C([H])([H])OC([H])([H])C([H])([H])OC([H])([H])C([H])([H])[N+]([H])([H])C([H])([H])C([H])([H])C([H])([H])OC([H])([H])C([H])([H])OC([H])([H])C([H])([H])N([H])C(=O)N3C([H])([H])C([H])([H])C([H])([H])C([H])(n4nc(-c5c([H])c([H])c(Oc6c([H])c([H])c(F)c([H])c6F)c([H])c5[H])c(C(=O)N([H])[H])c4N([H])[H])C3([H])[H])c([H])c([H])c2C1([H])[H]

>  <smiles>  (75) 
[H]c1c([H])c([H])c2c(c1[H])C([H])([H])C([H])([H])C([H])([H])C2([H])N([H])C(=O)C1([H])N(C(=O)C([H])(N([H])C(=O)C([H])(N([H])C([H])([H])[H])C([H])([H])[H])C(C([H])([H])[H])(C([H])([H])[H])C([H])([H])[H])C([H])([H])c2c([H])c(OC([H])([H])C([H])([H])C([H])([H])C([H])([H])N([H])C(=O)C([H])([H])OC([H])([H])C([H])([H])OC([H])([H])C([H])([H])[N+]([H])([H])C([H])([H])C([H])([H])C([H])([H])OC([H])([H])C([H])([H])OC([H])([H])C([H])([H])N([H])C(=O)N3C([H])([H])C([H])([H])C([H])([H])C([H])(n4nc(-c5c([H])c([H])c(Oc6c([H])c([H])c(F)c([H])c6F)c([H])c5[H])c(C(=O)N([H])[H])c4N([H])[H])C3([H])[H])c([H])c([H])c2C1([H])[H]

$$$$
78:0:0
     RDKit          3D

108115  0  0  1  0  0  0  0  0999 V2000
  -27.8580  -20.9300   19.3880 C   0  0  0  0  0  0  0  0  0  0  0  0
  -28.9410  -21.2150   20.1180 N   0  0  0  0  0  0  0  0  0  0  0  0
  -27.8620  -20.0860   18.4890 O   0  0  0  0  0  0  0  0  0  0  0  0
  -28.8190  -21.8440   20.9020 H   0  0  0  0  0  0  0  0  0  0  0  0
  -30.2590  -20.6200   19.9410 C   0  0  0  0  0  2  0  0  0  0  0  0
  -31.0270  -21.2030   18.7340 C   0  0  0  0  0  2  0  0  0  0  0  0
  -31.2930  -22.7220   18.7950 C   0  0  0  0  0  2  0  0  0  0  0  0
  -30.2230  -23.5990   18.1070 C   0  0  0  0  0  2  0  0  0  0  0  0
  -30.3170  -25.0020   18.5590 N   0  0  0  0  0  4  0  0  0  0  0  0
  -31.2680  -25.3190   18.4540 H   0  0  0  0  0  0  0  0  0  0  0  0
  -30.0880  -25.0330   19.5420 H   0  0  0  0  0  0  0  0  0  0  0  0
  -29.4130  -25.9530   17.8800 C   0  0  0  0  0  2  0  0  0  0  0  0
  -29.1780  -27.1830   18.7690 C   0  0  0  0  0  2  0  0  0  0  0  0
  -28.4250  -26.7950   19.9280 O   0  0  0  0  0  0  0  0  0  0  0  0
  -24.6090  -31.8710   23.2100 C   0  0  0  0  0  0  0  0  0  0  0  0
  -27.2460  -27.4850   20.0540 C   0  0  0  0  0  0  0  0  0  0  0  0
  -23.3960  -30.4910   21.5550 C   0  0  0  0  0  3  0  0  0  0  0  0
  -24.8420  -28.9530   20.1270 C   0  0  0  0  0  0  0  0  0  0  0  0
  -25.9200  -30.8440   21.3610 C   0  0  0  0  0  2  0  0  0  0  0  0
  -26.0010  -29.4770   20.7180 C   0  0  0  0  0  0  0  0  0  0  0  0
  -27.2060  -28.7440   20.6890 C   0  0  0  0  0  3  0  0  0  0  0  0
  -26.0690  -26.9480   19.4990 C   0  0  0  0  0  3  0  0  0  0  0  0
  -24.8650  -27.6800   19.5300 C   0  0  0  0  0  3  0  0  0  0  0  0
  -23.6020  -29.8170   20.1730 C   0  0  0  0  0  2  0  0  0  0  0  0
  -24.6610  -31.0820   22.1010 N   0  0  0  0  0  0  0  0  0  0  0  0
  -23.5290  -32.1460   23.7530 O   0  0  0  0  0  0  0  0  0  0  0  0
  -22.7390  -29.4660   22.5050 C   0  0  0  0  0  0  0  0  0  0  0  0
  -21.4120  -29.3040   22.3760 N   0  0  0  0  0  0  0  0  0  0  0  0
  -23.4170  -28.8210   23.3080 O   0  0  0  0  0  0  0  0  0  0  0  0
  -20.9310  -29.8720   21.6930 H   0  0  0  0  0  0  0  0  0  0  0  0
  -18.0270  -28.1400   22.8480 C   0  0  0  0  0  0  0  0  0  0  0  0
  -20.5840  -28.3680   23.1330 C   0  0  0  0  0  3  0  0  0  0  0  0
  -20.6770  -26.9420   22.5440 C   0  0  0  0  0  2  0  0  0  0  0  0
  -19.5760  -26.6410   21.5230 C   0  0  0  0  0  2  0  0  0  0  0  0
  -18.1920  -26.7940   22.1620 C   0  0  0  0  0  2  0  0  0  0  0  0
  -19.1510  -28.8860   23.2890 C   0  0  0  0  0  0  0  0  0  0  0  0
  -18.9440  -30.1460   23.8920 C   0  0  0  0  0  3  0  0  0  0  0  0
  -17.6440  -30.6600   24.0570 C   0  0  0  0  0  3  0  0  0  0  0  0
  -16.5340  -29.9110   23.6310 C   0  0  0  0  0  3  0  0  0  0  0  0
  -16.7250  -28.6540   23.0330 C   0  0  0  0  0  3  0  0  0  0  0  0
  -25.9010  -32.4840   23.8390 C   0  0  0  0  0  3  0  0  0  0  0  0
  -26.4470  -31.6580   25.0670 C   0  0  1  0  0  0  0  0  0  0  0  0
  -25.3760  -31.3650   26.1460 C   0  0  0  0  0  1  0  0  0  0  0  0
  -27.0260  -30.3010   24.5980 C   0  0  0  0  0  1  0  0  0  0  0  0
  -27.6070  -32.4270   25.7430 C   0  0  0  0  0  1  0  0  0  0  0  0
  -25.5890  -33.8630   24.2350 N   0  0  0  0  0  0  0  0  0  0  0  0
  -25.9050  -34.9480   23.5160 C   0  0  0  0  0  0  0  0  0  0  0  0
  -26.5590  -34.8920   22.4710 O   0  0  0  0  0  0  0  0  0  0  0  0
  -24.9990  -33.9800   25.0460 H   0  0  0  0  0  0  0  0  0  0  0  0
  -24.1490  -36.7310   23.2640 C   0  0  0  0  0  1  0  0  0  0  0  0
  -25.4120  -36.3120   24.0350 C   0  0  0  0  0  3  0  0  0  0  0  0
  -27.5590  -37.1810   24.8470 C   0  0  0  0  0  1  0  0  0  0  0  0
  -26.4310  -37.3800   23.9410 N   0  0  0  0  0  0  0  0  0  0  0  0
  -26.0210  -38.2880   24.1400 H   0  0  0  0  0  0  0  0  0  0  0  0
  -26.5900  -21.7370   19.6850 C   0  0  0  0  0  2  0  0  0  0  0  0
  -25.4840  -20.8480   19.8120 O   0  0  0  0  0  0  0  0  0  0  0  0
  -24.2300  -21.5090   19.9490 C   0  0  0  0  0  2  0  0  0  0  0  0
  -24.0370  -22.0900   21.3590 C   0  0  0  0  0  2  0  0  0  0  0  0
  -24.5480  -23.4160   21.4160 O   0  0  0  0  0  0  0  0  0  0  0  0
  -24.6740  -23.9210   22.7410 C   0  0  0  0  0  2  0  0  0  0  0  0
  -26.1650  -23.9890   23.1000 C   0  0  0  0  0  2  0  0  0  0  0  0
  -26.6720  -22.6760   23.3240 O   0  0  0  0  0  0  0  0  0  0  0  0
  -28.0800  -22.6630   23.5370 C   0  0  0  0  0  2  0  0  0  0  0  0
  -28.5060  -21.3260   24.1690 C   0  0  0  0  0  2  0  0  0  0  0  0
  -28.4550  -20.2400   23.2410 O   0  0  0  0  0  0  0  0  0  0  0  0
  -28.8900  -19.0120   23.8330 C   0  0  0  0  0  2  0  0  0  0  0  0
  -28.5240  -17.7780   22.9780 C   0  0  0  0  0  2  0  0  0  0  0  0
  -29.1650  -17.6860   21.7050 O   0  0  0  0  0  0  0  0  0  0  0  0
  -30.5810  -17.4950   21.6820 C   0  0  0  0  0  2  0  0  0  0  0  0
  -31.0670  -16.2000   22.3600 C   0  0  0  0  0  2  0  0  0  0  0  0
  -30.7730  -14.3440   20.7240 C   0  0  0  0  0  0  0  0  0  0  0  0
  -30.4120  -12.3010   19.3870 C   0  0  0  0  0  2  0  0  0  0  0  0
  -29.4810  -12.5340   18.1850 C   0  0  0  0  0  2  0  0  0  0  0  0
  -28.0090  -12.3850   18.5990 C   0  0  0  0  0  2  0  0  0  0  0  0
  -27.6600  -13.2070   19.8700 C   0  0  0  0  0  3  0  0  0  0  0  0
  -28.6910  -12.9460   20.9870 C   0  0  0  0  0  2  0  0  0  0  0  0
  -30.0400  -13.2310   20.4620 N   0  0  0  0  0  0  0  0  0  0  0  0
  -31.7630  -14.6820   20.0700 O   0  0  0  0  0  0  0  0  0  0  0  0
  -30.3970  -15.0180   21.8180 N   0  0  0  0  0  0  0  0  0  0  0  0
  -29.5900  -14.6670   22.3160 H   0  0  0  0  0  0  0  0  0  0  0  0
  -25.2560  -13.8160   20.5650 C   0  0  0  0  0  0  0  0  0  0  0  0
  -24.1810  -13.0450   20.9160 C   0  0  0  0  0  0  0  0  0  0  0  0
  -24.6360  -11.6900   20.8700 C   0  0  0  0  0  0  0  0  0  0  0  0
  -26.2990  -12.9330   20.3280 N   0  0  0  0  0  0  0  0  0  0  0  0
  -25.9280  -11.6480   20.5670 N   0  0  0  0  0  0  0  0  0  0  0  0
  -23.9050  -10.4300   21.0390 C   0  0  0  0  0  0  0  0  0  0  0  0
  -24.3610   -9.4210   21.9180 C   0  0  0  0  0  3  0  0  0  0  0  0
  -23.6270   -8.2250   22.0760 C   0  0  0  0  0  3  0  0  0  0  0  0
  -22.4260   -8.0310   21.3550 C   0  0  0  0  0  0  0  0  0  0  0  0
  -21.9880   -9.0280   20.4660 C   0  0  0  0  0  3  0  0  0  0  0  0
  -22.7220  -10.2140   20.3060 C   0  0  0  0  0  3  0  0  0  0  0  0
  -21.6620   -6.8890   21.4250 O   0  0  0  0  0  0  0  0  0  0  0  0
  -21.6840   -6.0740   22.5280 C   0  0  0  0  0  0  0  0  0  0  0  0
  -21.4020   -6.5650   23.8220 C   0  0  0  0  0  3  0  0  0  0  0  0
  -21.3650   -5.6810   24.9190 C   0  0  0  0  0  3  0  0  0  0  0  0
  -21.6030   -4.3060   24.7230 C   0  0  0  0  0  0  0  0  0  0  0  0
  -21.8810   -3.8150   23.4350 C   0  0  0  0  0  3  0  0  0  0  0  0
  -21.9190   -4.6970   22.3410 C   0  0  0  0  0  0  0  0  0  0  0  0
  -22.1650   -4.2150   21.0980 F   0  0  0  0  0  0  0  0  0  0  0  0
  -21.5610   -3.4540   25.7730 F   0  0  0  0  0  0  0  0  0  0  0  0
  -22.7840  -13.5250   21.1830 C   0  0  0  0  0  0  0  0  0  0  0  0
  -22.0450  -12.8310   22.0400 N   0  0  0  0  0  0  0  0  0  0  0  0
  -22.3540  -14.5550   20.6660 O   0  0  0  0  0  0  0  0  0  0  0  0
  -22.4020  -12.0020   22.4910 H   0  0  0  0  0  0  0  0  0  0  0  0
  -21.1080  -13.1390   22.2560 H   0  0  0  0  0  0  0  0  0  0  0  0
  -25.4240  -15.1890   20.4120 N   0  0  0  0  0  0  0  0  0  0  0  0
  -24.6520  -15.8380   20.5260 H   0  0  0  0  0  0  0  0  0  0  0  0
  -26.2850  -15.6400   20.1280 H   0  0  0  0  0  0  0  0  0  0  0  0
  1 55  1  0
  1  2  1  0
  2  4  1  0
  3  1  2  0
  5  2  1  0
  6  7  1  0
  6  5  1  0
  8  9  1  0
  8  7  1  0
  9 11  1  0
 10  9  1  0
 12  9  1  0
 12 13  1  0
 13 14  1  0
 14 16  1  0
 15 26  2  0
 16 21  1  0
 17 25  1  0
 17 27  1  0
 18 24  1  0
 18 20  1  0
 19 25  1  0
 20 19  1  0
 21 20  2  0
 22 23  1  0
 22 16  2  0
 23 18  2  0
 24 17  1  0
 25 15  1  0
 27 29  2  0
 28 27  1  0
 30 28  1  0
 31 40  2  0
 31 36  1  0
 32 28  1  0
 32 36  1  0
 33 32  1  0
 34 35  1  0
 34 33  1  0
 35 31  1  0
 36 37  2  0
 37 38  1  0
 39 38  2  0
 40 39  1  0
 41 15  1  0
 41 46  1  0
 41 42  1  0
 42 45  1  1
 42 43  1  0
 44 42  1  0
 46 49  1  0
 47 51  1  0
 47 46  1  0
 48 47  2  0
 51 50  1  0
 53 51  1  0
 53 54  1  0
 53 52  1  0
 55 56  1  0
 56 57  1  0
 57 58  1  0
 58 59  1  0
 59 60  1  0
 60 61  1  0
 61 62  1  0
 62 63  1  0
 63 64  1  0
 65 66  1  0
 65 64  1  0
 67 66  1  0
 68 67  1  0
 69 68  1  0
 69 70  1  0
 71 79  1  0
 72 77  1  0
 73 74  1  0
 73 72  1  0
 75 74  1  0
 75 84  1  0
 75 76  1  0
 77 71  1  0
 77 76  1  0
 78 71  2  0
 79 80  1  0
 79 70  1  0
 81 82  2  0
 82101  1  0
 83 82  1  0
 83 86  1  0
 84 81  1  0
 84 85  1  0
 85 83  2  0
 86 87  1  0
 87 88  2  0
 89 92  1  0
 89 88  1  0
 90 89  2  0
 91 90  1  0
 91 86  2  0
 92 93  1  0
 93 94  1  0
 94 95  2  0
 96 95  1  0
 96100  1  0
 97 96  2  0
 98 93  2  0
 98 97  1  0
 99 98  1  0
101102  1  0
102105  1  0
102104  1  0
103101  2  0
106107  1  0
106 81  1  0
108106  1  0
M  ISO  4  13 101  14 101  71 100  79 100
M  END
>  <TORSDO>  (76) 
F 39

>  <SCORE>  (76) 
11.125

>  <name>  (76) 
78

>  <ligand_id>  (76) 
78

>  <original_smiles>  (76) 
[H]c1c([H])c([H])c2c(c1[H])C([H])([H])C([H])([H])C([H])([H])C2([H])N([H])C(=O)C1([H])N(C(=O)C([H])(N([H])C(=O)C([H])(N([H])C([H])([H])[H])C([H])([H])[H])C(C([H])([H])[H])(C([H])([H])[H])C([H])([H])[H])C([H])([H])c2c([H])c(OC([H])([H])C([H])([H])[N+]([H])([H])C([H])([H])C([H])([H])C([H])([H])C([H])([H])N([H])C(=O)C([H])([H])OC([H])([H])C([H])([H])OC([H])([H])C([H])([H])OC([H])([H])C([H])([H])OC([H])([H])C([H])([H])OC([H])([H])C([H])([H])N([H])C(=O)N3C([H])([H])C([H])([H])C([H])([H])C([H])(n4nc(-c5c([H])c([H])c(Oc6c([H])c([H])c(F)c([H])c6F)c([H])c5[H])c(C(=O)N([H])[H])c4N([H])[H])C3([H])[H])c([H])c([H])c2C1([H])[H]

>  <smiles>  (76) 
[H]c1c([H])c([H])c2c(c1[H])C([H])([H])C([H])([H])C([H])([H])C2([H])N([H])C(=O)C1([H])N(C(=O)C([H])(N([H])C(=O)C([H])(N([H])C([H])([H])[H])C([H])([H])[H])C(C([H])([H])[H])(C([H])([H])[H])C([H])([H])[H])C([H])([H])c2c([H])c(OC([H])([H])C([H])([H])[N+]([H])([H])C([H])([H])C([H])([H])C([H])([H])C([H])([H])N([H])C(=O)C([H])([H])OC([H])([H])C([H])([H])OC([H])([H])C([H])([H])OC([H])([H])C([H])([H])OC([H])([H])C([H])([H])OC([H])([H])C([H])([H])N([H])C(=O)N3C([H])([H])C([H])([H])C([H])([H])C([H])(n4nc(-c5c([H])c([H])c(Oc6c([H])c([H])c(F)c([H])c6F)c([H])c5[H])c(C(=O)N([H])[H])c4N([H])[H])C3([H])[H])c([H])c([H])c2C1([H])[H]

$$$$
79:0:0
     RDKit          3D

 99107  0  0  1  0  0  0  0  0999 V2000
  -26.7180  -24.1810   22.7960 C   0  0  0  0  0  2  0  0  0  0  0  0
  -26.3780  -24.5900   20.4700 C   0  0  0  0  0  2  0  0  0  0  0  0
  -25.2410  -24.5240   23.0950 C   0  0  0  0  0  2  0  0  0  0  0  0
  -24.9090  -24.9860   20.7250 C   0  0  0  0  0  2  0  0  0  0  0  0
  -27.1940  -24.9480   21.6360 N   0  0  0  0  0  0  0  0  0  0  0  0
  -24.3860  -24.2640   21.9080 N   0  0  2  0  0  4  0  0  0  0  0  0
  -24.4640  -23.2810   21.6860 H   0  0  0  0  0  0  0  0  0  0  0  0
  -22.9370  -24.4880   22.1420 C   0  0  0  0  0  2  0  0  0  0  0  0
  -22.1190  -23.3390   21.5430 C   0  0  0  0  0  2  0  0  0  0  0  0
  -22.3170  -23.3730   20.1340 O   0  0  0  0  0  0  0  0  0  0  0  0
  -21.7610  -22.2360   19.4870 C   0  0  0  0  0  2  0  0  0  0  0  0
  -21.6720  -22.4930   17.9780 C   0  0  0  0  0  2  0  0  0  0  0  0
  -22.9640  -22.7870   17.4540 O   0  0  0  0  0  0  0  0  0  0  0  0
  -22.8930  -23.2480   16.1090 C   0  0  0  0  0  2  0  0  0  0  0  0
  -24.2740  -23.6560   15.5730 C   0  0  0  0  0  2  0  0  0  0  0  0
  -24.5120  -25.0450   15.8030 O   0  0  0  0  0  0  0  0  0  0  0  0
  -25.5740  -25.6110   15.0350 C   0  0  0  0  0  2  0  0  0  0  0  0
  -25.1070  -25.8890   13.5950 C   0  0  0  0  0  2  0  0  0  0  0  0
  -25.7240  -27.7960   12.0560 C   0  0  0  0  0  0  0  0  0  0  0  0
  -24.4410  -28.7920   10.1930 C   0  0  0  0  0  2  0  0  0  0  0  0
  -23.1790  -29.5220   10.6960 C   0  0  0  0  0  2  0  0  0  0  0  0
  -21.9940  -28.5510   10.8610 C   0  0  0  0  0  2  0  0  0  0  0  0
  -22.3890  -27.2780   11.6500 C   0  0  0  0  0  3  0  0  0  0  0  0
  -23.6680  -26.6750   11.0300 C   0  0  0  0  0  2  0  0  0  0  0  0
  -24.7400  -27.6830   11.1180 N   0  0  0  0  0  0  0  0  0  0  0  0
  -26.4690  -28.7770   12.1140 O   0  0  0  0  0  0  0  0  0  0  0  0
  -26.0210  -26.7350   12.8260 N   0  0  0  0  0  0  0  0  0  0  0  0
  -26.9330  -26.8210   13.2510 H   0  0  0  0  0  0  0  0  0  0  0  0
  -20.7220  -25.6700   12.7830 C   0  0  0  0  0  0  0  0  0  0  0  0
  -19.6950  -24.9200   12.2780 C   0  0  0  0  0  0  0  0  0  0  0  0
  -19.6910  -25.1540   10.8690 C   0  0  0  0  0  0  0  0  0  0  0  0
  -21.2980  -26.3070   11.6930 N   0  0  0  0  0  0  0  0  0  0  0  0
  -20.6980  -25.9470   10.5310 N   0  0  0  0  0  0  0  0  0  0  0  0
  -18.7540  -24.7140    9.8290 C   0  0  0  0  0  0  0  0  0  0  0  0
  -19.2020  -24.0630    8.6610 C   0  0  0  0  0  3  0  0  0  0  0  0
  -18.2810  -23.6350    7.6810 C   0  0  0  0  0  3  0  0  0  0  0  0
  -16.8960  -23.8530    7.8680 C   0  0  0  0  0  0  0  0  0  0  0  0
  -16.4560  -24.5220    9.0240 C   0  0  0  0  0  3  0  0  0  0  0  0
  -17.3760  -24.9520    9.9950 C   0  0  0  0  0  3  0  0  0  0  0  0
  -15.9300  -23.4960    6.9580 O   0  0  0  0  0  0  0  0  0  0  0  0
  -16.1150  -22.4570    6.0830 C   0  0  0  0  0  0  0  0  0  0  0  0
  -16.4240  -21.1530    6.5290 C   0  0  0  0  0  3  0  0  0  0  0  0
  -16.5380  -20.1000    5.6010 C   0  0  0  0  0  3  0  0  0  0  0  0
  -16.3370  -20.3430    4.2300 C   0  0  0  0  0  0  0  0  0  0  0  0
  -16.0230  -21.6380    3.7830 C   0  0  0  0  0  3  0  0  0  0  0  0
  -15.9120  -22.6920    4.7080 C   0  0  0  0  0  0  0  0  0  0  0  0
  -15.5890  -23.9350    4.2750 F   0  0  0  0  0  0  0  0  0  0  0  0
  -16.4370  -19.3290    3.3390 F   0  0  0  0  0  0  0  0  0  0  0  0
  -18.7100  -24.1050   13.0660 C   0  0  0  0  0  0  0  0  0  0  0  0
  -18.2090  -23.0210   12.4870 N   0  0  0  0  0  0  0  0  0  0  0  0
  -18.4160  -24.4020   14.2230 O   0  0  0  0  0  0  0  0  0  0  0  0
  -18.4600  -22.7670   11.5430 H   0  0  0  0  0  0  0  0  0  0  0  0
  -17.5640  -22.4330   12.9980 H   0  0  0  0  0  0  0  0  0  0  0  0
  -21.1970  -25.8790   14.0740 N   0  0  0  0  0  0  0  0  0  0  0  0
  -20.7030  -25.5160   14.8810 H   0  0  0  0  0  0  0  0  0  0  0  0
  -21.9120  -26.5520   14.3220 H   0  0  0  0  0  0  0  0  0  0  0  0
  -28.6110  -24.6750   21.3650 C   0  0  0  0  0  2  0  0  0  0  0  0
  -29.5350  -25.8050   21.8760 C   0  0  0  0  0  2  0  0  0  0  0  0
  -29.7750  -26.7980   20.8790 O   0  0  0  0  0  0  0  0  0  0  0  0
  -24.5680  -31.4360   22.3200 C   0  0  0  0  0  0  0  0  0  0  0  0
  -28.6680  -27.4800   20.4440 C   0  0  0  0  0  0  0  0  0  0  0  0
  -24.3850  -30.2400   20.1630 C   0  0  0  0  0  3  0  0  0  0  0  0
  -26.4460  -28.9120   19.4630 C   0  0  0  0  0  0  0  0  0  0  0  0
  -26.6680  -30.6590   21.2370 C   0  0  0  0  0  2  0  0  0  0  0  0
  -27.1430  -29.3800   20.5840 C   0  0  0  0  0  0  0  0  0  0  0  0
  -28.2530  -28.6670   21.0830 C   0  0  0  0  0  3  0  0  0  0  0  0
  -27.9700  -27.0260   19.3090 C   0  0  0  0  0  3  0  0  0  0  0  0
  -26.8510  -27.7270   18.8230 C   0  0  0  0  0  3  0  0  0  0  0  0
  -25.2720  -29.7390   18.9920 C   0  0  0  0  0  2  0  0  0  0  0  0
  -25.1940  -30.7850   21.3010 N   0  0  0  0  0  0  0  0  0  0  0  0
  -23.3430  -31.6260   22.3020 O   0  0  0  0  0  0  0  0  0  0  0  0
  -23.4320  -29.0970   20.5820 C   0  0  0  0  0  0  0  0  0  0  0  0
  -22.6110  -28.6250   19.6310 N   0  0  0  0  0  0  0  0  0  0  0  0
  -23.4610  -28.6370   21.7270 O   0  0  0  0  0  0  0  0  0  0  0  0
  -22.6520  -29.0530   18.7170 H   0  0  0  0  0  0  0  0  0  0  0  0
  -20.4400  -26.3820   17.8180 C   0  0  0  0  0  0  0  0  0  0  0  0
  -21.6550  -27.5300   19.7900 C   0  0  0  0  0  3  0  0  0  0  0  0
  -22.3840  -26.1810   19.9950 C   0  0  0  0  0  2  0  0  0  0  0  0
  -22.6120  -25.4130   18.6900 C   0  0  0  0  0  2  0  0  0  0  0  0
  -21.2780  -25.1270   17.9940 C   0  0  0  0  0  2  0  0  0  0  0  0
  -20.6260  -27.5160   18.6530 C   0  0  0  0  0  0  0  0  0  0  0  0
  -19.8430  -28.6690   18.4260 C   0  0  0  0  0  3  0  0  0  0  0  0
  -18.8890  -28.6990   17.3920 C   0  0  0  0  0  3  0  0  0  0  0  0
  -18.6980  -27.5670   16.5790 C   0  0  0  0  0  3  0  0  0  0  0  0
  -19.4660  -26.4100   16.7980 C   0  0  0  0  0  3  0  0  0  0  0  0
  -25.3610  -31.9980   23.5440 C   0  0  0  0  0  3  0  0  0  0  0  0
  -24.9260  -33.3850   23.7520 N   0  0  0  0  0  0  0  0  0  0  0  0
  -25.5800  -34.4620   23.2950 C   0  0  0  0  0  0  0  0  0  0  0  0
  -26.6610  -34.3910   22.7080 O   0  0  0  0  0  0  0  0  0  0  0  0
  -24.0220  -33.5160   24.1800 H   0  0  0  0  0  0  0  0  0  0  0  0
  -24.1550  -36.2610   22.2650 C   0  0  0  0  0  1  0  0  0  0  0  0
  -24.9250  -35.8370   23.5260 C   0  0  0  0  0  3  0  0  0  0  0  0
  -26.5110  -36.6770   25.2020 C   0  0  0  0  0  1  0  0  0  0  0  0
  -25.8910  -36.8930   23.8970 N   0  0  0  0  0  0  0  0  0  0  0  0
  -25.4440  -37.8060   23.9030 H   0  0  0  0  0  0  0  0  0  0  0  0
  -25.1660  -31.1450   24.8580 C   0  0  1  0  0  0  0  0  0  0  0  0
  -23.6830  -30.8740   25.2030 C   0  0  0  0  0  1  0  0  0  0  0  0
  -25.8830  -29.7810   24.7370 C   0  0  0  0  0  1  0  0  0  0  0  0
  -25.8130  -31.8750   26.0590 C   0  0  0  0  0  1  0  0  0  0  0  0
  1  3  1  0
  2  4  1  0
  2  5  1  0
  4  6  1  0
  5  1  1  0
  6  8  1  0
  6  3  1  0
  6  7  1  6
  9  8  1  0
 10  9  1  0
 11 10  1  0
 12 11  1  0
 13 12  1  0
 14 13  1  0
 15 16  1  0
 15 14  1  0
 17 16  1  0
 18 17  1  0
 19 26  2  0
 19 27  1  0
 20 21  1  0
 20 25  1  0
 21 22  1  0
 23 22  1  0
 23 32  1  0
 24 25  1  0
 24 23  1  0
 25 19  1  0
 27 28  1  0
 27 18  1  0
 29 54  1  0
 30 29  2  0
 30 49  1  0
 31 30  1  0
 32 29  1  0
 33 31  2  0
 33 32  1  0
 34 39  1  0
 34 31  1  0
 35 34  2  0
 36 37  2  0
 36 35  1  0
 37 38  1  0
 38 39  2  0
 40 37  1  0
 41 42  1  0
 41 40  1  0
 43 42  2  0
 44 43  1  0
 45 44  2  0
 45 46  1  0
 46 41  2  0
 47 46  1  0
 48 44  1  0
 49 51  2  0
 50 53  1  0
 50 49  1  0
 52 50  1  0
 54 56  1  0
 54 55  1  0
 57  5  1  0
 57 58  1  0
 59 58  1  0
 61 59  1  0
 61 66  1  0
 62 72  1  0
 62 70  1  0
 63 65  1  0
 64 70  1  0
 65 66  2  0
 65 64  1  0
 67 61  2  0
 68 67  1  0
 68 63  2  0
 69 63  1  0
 69 62  1  0
 70 60  1  0
 71 60  2  0
 72 74  2  0
 73 72  1  0
 75 73  1  0
 76 80  1  0
 76 81  1  0
 77 73  1  0
 77 78  1  0
 79 78  1  0
 80 79  1  0
 81 77  1  0
 82 81  2  0
 83 82  1  0
 84 85  1  0
 84 83  2  0
 85 76  2  0
 86 60  1  0
 86 87  1  0
 86 96  1  0
 87 90  1  0
 88 92  1  0
 88 87  1  0
 89 88  2  0
 92 91  1  0
 92 94  1  0
 94 95  1  0
 94 93  1  0
 96 97  1  1
 96 99  1  0
 98 96  1  0
M  ISO  4  19 100  27 100  58 101  59 101
M  END
>  <TORSDO>  (77) 
F 29

>  <SCORE>  (77) 
-0.038

>  <name>  (77) 
79

>  <ligand_id>  (77) 
79

>  <original_smiles>  (77) 
[H]c1c([H])c([H])c2c(c1[H])C([H])([H])C([H])([H])C([H])([H])C2([H])N([H])C(=O)C1([H])N(C(=O)C([H])(N([H])C(=O)C([H])(N([H])C([H])([H])[H])C([H])([H])[H])C(C([H])([H])[H])(C([H])([H])[H])C([H])([H])[H])C([H])([H])c2c([H])c(OC([H])([H])C([H])([H])N3C([H])([H])C([H])([H])[N+]([H])(C([H])([H])C([H])([H])OC([H])([H])C([H])([H])OC([H])([H])C([H])([H])OC([H])([H])C([H])([H])N([H])C(=O)N4C([H])([H])C([H])([H])C([H])([H])C([H])(n5nc(-c6c([H])c([H])c(Oc7c([H])c([H])c(F)c([H])c7F)c([H])c6[H])c(C(=O)N([H])[H])c5N([H])[H])C4([H])[H])C([H])([H])C3([H])[H])c([H])c([H])c2C1([H])[H]

>  <smiles>  (77) 
[H]c1c([H])c([H])c2c(c1[H])C([H])([H])C([H])([H])C([H])([H])C2([H])N([H])C(=O)C1([H])N(C(=O)C([H])(N([H])C(=O)C([H])(N([H])C([H])([H])[H])C([H])([H])[H])C(C([H])([H])[H])(C([H])([H])[H])C([H])([H])[H])C([H])([H])c2c([H])c(OC([H])([H])C([H])([H])N3C([H])([H])C([H])([H])[N+]([H])(C([H])([H])C([H])([H])OC([H])([H])C([H])([H])OC([H])([H])C([H])([H])OC([H])([H])C([H])([H])N([H])C(=O)N4C([H])([H])C([H])([H])C([H])([H])C([H])(n5nc(-c6c([H])c([H])c(Oc7c([H])c([H])c(F)c([H])c7F)c([H])c6[H])c(C(=O)N([H])[H])c5N([H])[H])C4([H])[H])C([H])([H])C3([H])[H])c([H])c([H])c2C1([H])[H]

$$$$
80:0:0
     RDKit          3D

 87 95  0  0  1  0  0  0  0  0999 V2000
  -28.7880  -22.7700   20.7640 C   0  0  0  0  0  3  0  0  0  0  0  0
  -28.4590  -24.0950   19.9860 C   0  0  0  0  0  3  0  0  0  0  0  0
  -28.3510  -25.3800   20.8710 C   0  0  0  0  0  3  0  0  0  0  0  0
  -28.3990  -26.6540   20.1750 O   0  0  0  0  0  0  0  0  0  0  0  0
  -24.6170  -31.8980   23.2500 C   0  0  0  0  0  0  0  0  0  0  0  0
  -27.2460  -27.4180   20.1880 C   0  0  0  0  0  0  0  0  0  0  0  0
  -23.4090  -30.4950   21.6110 C   0  0  0  0  0  3  0  0  0  0  0  0
  -24.8600  -28.9490   20.1890 C   0  0  0  0  0  0  0  0  0  0  0  0
  -25.9380  -30.8460   21.4100 C   0  0  0  0  0  2  0  0  0  0  0  0
  -26.0220  -29.4700   20.7720 C   0  0  0  0  0  0  0  0  0  0  0  0
  -27.2210  -28.7150   20.7600 C   0  0  0  0  0  3  0  0  0  0  0  0
  -26.0680  -26.9150   19.6010 C   0  0  0  0  0  3  0  0  0  0  0  0
  -24.8790  -27.6730   19.5960 C   0  0  0  0  0  3  0  0  0  0  0  0
  -23.6180  -29.8120   20.2330 C   0  0  0  0  0  2  0  0  0  0  0  0
  -24.6730  -31.0960   22.1490 N   0  0  0  0  0  0  0  0  0  0  0  0
  -23.5370  -32.1730   23.7910 O   0  0  0  0  0  0  0  0  0  0  0  0
  -22.7560  -29.4780   22.5750 C   0  0  0  0  0  0  0  0  0  0  0  0
  -21.4300  -29.2990   22.4510 N   0  0  0  0  0  0  0  0  0  0  0  0
  -23.4380  -28.8530   23.3910 O   0  0  0  0  0  0  0  0  0  0  0  0
  -20.9400  -29.8560   21.7650 H   0  0  0  0  0  0  0  0  0  0  0  0
  -18.0560  -28.1070   22.9520 C   0  0  0  0  0  0  0  0  0  0  0  0
  -20.6130  -28.3630   23.2240 C   0  0  0  0  0  3  0  0  0  0  0  0
  -20.7140  -26.9310   22.6490 C   0  0  0  0  0  2  0  0  0  0  0  0
  -19.6120  -26.6080   21.6350 C   0  0  0  0  0  2  0  0  0  0  0  0
  -18.2300  -26.7550   22.2790 C   0  0  0  0  0  2  0  0  0  0  0  0
  -19.1750  -28.8680   23.3820 C   0  0  0  0  0  0  0  0  0  0  0  0
  -18.9570  -30.1320   23.9700 C   0  0  0  0  0  3  0  0  0  0  0  0
  -17.6520  -30.6360   24.1340 C   0  0  0  0  0  3  0  0  0  0  0  0
  -16.5480  -29.8710   23.7230 C   0  0  0  0  0  3  0  0  0  0  0  0
  -16.7500  -28.6080   23.1370 C   0  0  0  0  0  3  0  0  0  0  0  0
  -25.9040  -32.5300   23.8690 C   0  0  0  0  0  3  0  0  0  0  0  0
  -25.5950  -33.9270   24.2030 N   0  0  0  0  0  0  0  0  0  0  0  0
  -25.9240  -34.9810   23.4440 C   0  0  0  0  0  0  0  0  0  0  0  0
  -26.5900  -34.8800   22.4090 O   0  0  0  0  0  0  0  0  0  0  0  0
  -25.0040  -34.0790   25.0060 H   0  0  0  0  0  0  0  0  0  0  0  0
  -24.1900  -36.7710   23.1030 C   0  0  0  0  0  1  0  0  0  0  0  0
  -25.4370  -36.3680   23.9070 C   0  0  0  0  0  3  0  0  0  0  0  0
  -27.5770  -37.2530   24.7200 C   0  0  0  0  0  1  0  0  0  0  0  0
  -26.4660  -37.4240   23.7870 N   0  0  0  0  0  0  0  0  0  0  0  0
  -26.0590  -38.3420   23.9420 H   0  0  0  0  0  0  0  0  0  0  0  0
  -26.4280  -31.7550   25.1400 C   0  0  1  0  0  0  0  0  0  0  0  0
  -25.3420  -31.5140   26.2130 C   0  0  0  0  0  1  0  0  0  0  0  0
  -27.0100  -30.3790   24.7380 C   0  0  0  0  0  1  0  0  0  0  0  0
  -27.5820  -32.5470   25.7970 C   0  0  0  0  0  1  0  0  0  0  0  0
  -28.7110  -21.4480   19.9340 C   0  0  0  0  0  3  0  0  0  0  0  0
  -29.2540  -20.2750   20.5930 O   0  0  0  0  0  0  0  0  0  0  0  0
  -28.9340  -19.0310   19.9240 C   0  0  0  0  0  2  0  0  0  0  0  0
  -30.6250  -14.5780   20.3050 C   0  0  0  0  0  0  0  0  0  0  0  0
  -30.3600  -12.3630   19.2540 C   0  0  0  0  0  2  0  0  0  0  0  0
  -29.4030  -12.5320   18.0550 C   0  0  0  0  0  2  0  0  0  0  0  0
  -27.9340  -12.3920   18.5050 C   0  0  0  0  0  2  0  0  0  0  0  0
  -27.6020  -13.2500   19.7560 C   0  0  0  0  0  3  0  0  0  0  0  0
  -28.6760  -13.0850   20.8550 C   0  0  0  0  0  2  0  0  0  0  0  0
  -29.9820  -13.3780   20.2490 N   0  0  0  0  0  0  0  0  0  0  0  0
  -31.8130  -14.6990   19.9930 O   0  0  0  0  0  0  0  0  0  0  0  0
  -29.9240  -16.6950   19.1670 C   0  0  0  0  0  2  0  0  0  0  0  0
  -29.4390  -16.6640   21.2180 C   0  0  0  0  0  2  0  0  0  0  0  0
  -29.8320  -17.7910   20.2370 C   0  0  0  0  0  3  0  0  0  0  0  0
  -29.7920  -15.6520   20.2000 N   0  0  0  0  0  0  0  0  0  0  0  0
  -25.2200  -13.8590   20.5060 C   0  0  0  0  0  0  0  0  0  0  0  0
  -24.1560  -13.0890   20.8890 C   0  0  0  0  0  0  0  0  0  0  0  0
  -24.6150  -11.7370   20.8530 C   0  0  0  0  0  0  0  0  0  0  0  0
  -26.2600  -12.9760   20.2600 N   0  0  0  0  0  0  0  0  0  0  0  0
  -25.9020  -11.6940   20.5300 N   0  0  0  0  0  0  0  0  0  0  0  0
  -23.8910  -10.4750   21.0540 C   0  0  0  0  0  0  0  0  0  0  0  0
  -24.3480   -9.4970   21.9640 C   0  0  0  0  0  3  0  0  0  0  0  0
  -23.6230   -8.3010   22.1520 C   0  0  0  0  0  3  0  0  0  0  0  0
  -22.4270   -8.0740   21.4310 C   0  0  0  0  0  0  0  0  0  0  0  0
  -21.9880   -9.0410   20.5090 C   0  0  0  0  0  3  0  0  0  0  0  0
  -22.7140  -10.2290   20.3190 C   0  0  0  0  0  3  0  0  0  0  0  0
  -21.6720   -6.9310   21.5290 O   0  0  0  0  0  0  0  0  0  0  0  0
  -21.6690   -6.1670   22.6680 C   0  0  0  0  0  0  0  0  0  0  0  0
  -21.3130   -6.7030   23.9250 C   0  0  0  0  0  3  0  0  0  0  0  0
  -21.2570   -5.8670   25.0580 C   0  0  0  0  0  3  0  0  0  0  0  0
  -21.5460   -4.4940   24.9340 C   0  0  0  0  0  0  0  0  0  0  0  0
  -21.8950   -3.9570   23.6830 C   0  0  0  0  0  3  0  0  0  0  0  0
  -21.9530   -4.7920   22.5520 C   0  0  0  0  0  0  0  0  0  0  0  0
  -22.2700   -4.2650   21.3440 F   0  0  0  0  0  0  0  0  0  0  0  0
  -21.4850   -3.6880   26.0200 F   0  0  0  0  0  0  0  0  0  0  0  0
  -22.7630  -13.5680   21.1760 C   0  0  0  0  0  0  0  0  0  0  0  0
  -22.0480  -12.8760   22.0570 N   0  0  0  0  0  0  0  0  0  0  0  0
  -22.3170  -14.5910   20.6570 O   0  0  0  0  0  0  0  0  0  0  0  0
  -22.4200  -12.0490   22.4970 H   0  0  0  0  0  0  0  0  0  0  0  0
  -21.1120  -13.1790   22.2920 H   0  0  0  0  0  0  0  0  0  0  0  0
  -25.3870  -15.2290   20.3260 N   0  0  0  0  0  0  0  0  0  0  0  0
  -24.6300  -15.8920   20.4510 H   0  0  0  0  0  0  0  0  0  0  0  0
  -26.2460  -15.6610   20.0070 H   0  0  0  0  0  0  0  0  0  0  0  0
  2  1  1  0
  2  3  2  0
  4  6  1  0
  4  3  1  0
  5 16  2  0
  6 11  1  0
  7 15  1  0
  7 17  1  0
  8 14  1  0
  8 10  1  0
  9 15  1  0
 10  9  1  0
 11 10  2  0
 12  6  2  0
 13 12  1  0
 13  8  2  0
 14  7  1  0
 15  5  1  0
 17 19  2  0
 18 17  1  0
 20 18  1  0
 21 30  2  0
 21 26  1  0
 22 18  1  0
 22 26  1  0
 23 22  1  0
 24 25  1  0
 24 23  1  0
 25 21  1  0
 26 27  2  0
 27 28  1  0
 29 28  2  0
 30 29  1  0
 31  5  1  0
 31 32  1  0
 31 41  1  0
 32 35  1  0
 33 37  1  0
 33 32  1  0
 34 33  2  0
 37 36  1  0
 39 37  1  0
 39 40  1  0
 39 38  1  0
 41 44  1  1
 41 42  1  0
 43 41  1  0
 45 46  1  0
 45  1  2  0
 47 46  1  0
 49 54  1  0
 50 51  1  0
 50 49  1  0
 52 51  1  0
 52 63  1  0
 52 53  1  0
 54 48  1  0
 54 53  1  0
 55 48  2  0
 56 59  1  0
 56 58  1  0
 58 47  1  0
 58 57  1  0
 59 48  1  0
 59 57  1  0
 60 61  2  0
 61 80  1  0
 62 61  1  0
 62 65  1  0
 63 60  1  0
 63 64  1  0
 64 62  2  0
 65 66  1  0
 66 67  2  0
 68 71  1  0
 68 67  1  0
 69 68  2  0
 70 69  1  0
 70 65  2  0
 71 72  1  0
 72 73  1  0
 73 74  2  0
 75 74  1  0
 75 79  1  0
 76 75  2  0
 77 72  2  0
 77 76  1  0
 78 77  1  0
 80 81  1  0
 81 84  1  0
 81 83  1  0
 82 80  2  0
 85 86  1  0
 85 60  1  0
 87 85  1  0
M  ISO  4   3 101   4 101  48 100  59 100
M  END
>  <TORSDO>  (78) 
F 21

>  <SCORE>  (78) 
-13.393

>  <name>  (78) 
80

>  <ligand_id>  (78) 
80

>  <original_smiles>  (78) 
[H]c1c([H])c([H])c2c(c1[H])C([H])([H])C([H])([H])C([H])([H])C2([H])N([H])C(=O)C1([H])N(C(=O)C([H])(N([H])C(=O)C([H])(N([H])C([H])([H])[H])C([H])([H])[H])C(C([H])([H])[H])(C([H])([H])[H])C([H])([H])[H])C([H])([H])c2c([H])c(OC([H])([H])C([H])([H])C([H])([H])C([H])([H])OC([H])([H])C3([H])C([H])([H])N(C(=O)N4C([H])([H])C([H])([H])C([H])([H])C([H])(n5nc(-c6c([H])c([H])c(Oc7c([H])c([H])c(F)c([H])c7F)c([H])c6[H])c(C(=O)N([H])[H])c5N([H])[H])C4([H])[H])C3([H])[H])c([H])c([H])c2C1([H])[H]

>  <smiles>  (78) 
[H]c1c([H])c([H])c2c(c1[H])C([H])([H])C([H])([H])C([H])([H])C2([H])N([H])C(=O)C1([H])N(C(=O)C([H])(N([H])C(=O)C([H])(N([H])C([H])([H])[H])C([H])([H])[H])C(C([H])([H])[H])(C([H])([H])[H])C([H])([H])[H])C([H])([H])c2c([H])c(OC([H])([H])C([H])([H])C([H])([H])C([H])([H])OC([H])([H])C3([H])C([H])([H])N(C(=O)N4C([H])([H])C([H])([H])C([H])([H])C([H])(n5nc(-c6c([H])c([H])c(Oc7c([H])c([H])c(F)c([H])c7F)c([H])c6[H])c(C(=O)N([H])[H])c5N([H])[H])C4([H])[H])C3([H])[H])c([H])c([H])c2C1([H])[H]

$$$$
81:0:0
     RDKit          3D

104112  0  0  1  0  0  0  0  0999 V2000
  -29.1190  -21.0600   25.1010 C   0  0  0  0  0  2  0  0  0  0  0  0
  -30.2970  -21.1210   24.3080 O   0  0  0  0  0  0  0  0  0  0  0  0
  -31.3170  -20.2170   24.7010 C   0  0  0  0  0  2  0  0  0  0  0  0
  -32.5990  -20.7060   24.0170 C   0  0  0  0  0  2  0  0  0  0  0  0
  -30.9090  -22.2240   19.2860 C   0  0  0  0  0  0  0  0  0  0  0  0
  -31.9310  -19.2530   20.6230 C   0  0  0  0  0  2  0  0  0  0  0  0
  -32.2210  -20.1370   19.4000 C   0  0  0  0  0  2  0  0  0  0  0  0
  -33.1480  -22.1470   20.4540 C   0  0  0  0  0  2  0  0  0  0  0  0
  -32.8210  -19.5600   21.8420 C   0  0  0  0  0  2  0  0  0  0  0  0
  -33.0090  -22.0690   21.9950 C   0  0  0  0  0  2  0  0  0  0  0  0
  -32.0170  -21.5600   19.7140 N   0  0  0  0  0  0  0  0  0  0  0  0
  -32.4170  -20.8110   22.5440 N   0  0  2  0  0  4  0  0  0  0  0  0
  -30.0040  -21.6490   18.6720 O   0  0  0  0  0  0  0  0  0  0  0  0
  -31.4180  -20.8990   22.4220 H   0  0  0  0  0  0  0  0  0  0  0  0
  -30.7240  -23.7250   19.5810 C   0  0  0  0  0  2  0  0  0  0  0  0
  -29.6100  -24.5390   17.5110 C   0  0  0  0  0  0  0  0  0  0  0  0
  -28.3370  -25.4500   15.6050 C   0  0  0  0  0  2  0  0  0  0  0  0
  -28.3070  -26.9900   15.6540 C   0  0  0  0  0  2  0  0  0  0  0  0
  -27.1400  -27.4860   16.5290 C   0  0  0  0  0  2  0  0  0  0  0  0
  -27.0890  -26.7790   17.9090 C   0  0  0  0  0  3  0  0  0  0  0  0
  -27.1980  -25.2470   17.7440 C   0  0  0  0  0  2  0  0  0  0  0  0
  -28.4280  -24.9520   16.9850 N   0  0  0  0  0  0  0  0  0  0  0  0
  -30.6460  -24.4270   16.8500 O   0  0  0  0  0  0  0  0  0  0  0  0
  -29.5960  -24.2790   18.8240 N   0  0  0  0  0  0  0  0  0  0  0  0
  -28.7130  -24.3630   19.3030 H   0  0  0  0  0  0  0  0  0  0  0  0
  -25.7830  -27.8400   19.8600 C   0  0  0  0  0  0  0  0  0  0  0  0
  -24.4430  -27.9940   20.0840 C   0  0  0  0  0  0  0  0  0  0  0  0
  -23.7830  -27.3870   18.9720 C   0  0  0  0  0  0  0  0  0  0  0  0
  -25.8920  -27.1570   18.6570 N   0  0  0  0  0  0  0  0  0  0  0  0
  -24.6720  -26.8410   18.1530 N   0  0  0  0  0  0  0  0  0  0  0  0
  -22.3600  -27.3430   18.6100 C   0  0  0  0  0  0  0  0  0  0  0  0
  -21.6820  -26.1170   18.4310 C   0  0  0  0  0  3  0  0  0  0  0  0
  -20.3090  -26.1000   18.1010 C   0  0  0  0  0  3  0  0  0  0  0  0
  -19.6020  -27.3170   17.9490 C   0  0  0  0  0  0  0  0  0  0  0  0
  -20.2870  -28.5340   18.1070 C   0  0  0  0  0  3  0  0  0  0  0  0
  -21.6540  -28.5490   18.4310 C   0  0  0  0  0  3  0  0  0  0  0  0
  -18.2740  -27.3980   17.6040 O   0  0  0  0  0  0  0  0  0  0  0  0
  -17.3700  -26.4410   17.9910 C   0  0  0  0  0  0  0  0  0  0  0  0
  -17.1860  -26.0940   19.3470 C   0  0  0  0  0  3  0  0  0  0  0  0
  -16.1980  -25.1560   19.7050 C   0  0  0  0  0  3  0  0  0  0  0  0
  -15.3880  -24.5720   18.7140 C   0  0  0  0  0  0  0  0  0  0  0  0
  -15.5650  -24.9210   17.3630 C   0  0  0  0  0  3  0  0  0  0  0  0
  -16.5520  -25.8560   17.0030 C   0  0  0  0  0  0  0  0  0  0  0  0
  -16.7050  -26.2040   15.7030 F   0  0  0  0  0  0  0  0  0  0  0  0
  -14.4320  -23.6770   19.0580 F   0  0  0  0  0  0  0  0  0  0  0  0
  -23.8040  -28.7460   21.2170 C   0  0  0  0  0  0  0  0  0  0  0  0
  -22.6030  -28.3460   21.6190 N   0  0  0  0  0  0  0  0  0  0  0  0
  -24.3920  -29.6650   21.7860 O   0  0  0  0  0  0  0  0  0  0  0  0
  -22.1290  -27.5790   21.1660 H   0  0  0  0  0  0  0  0  0  0  0  0
  -22.1510  -28.8130   22.3920 H   0  0  0  0  0  0  0  0  0  0  0  0
  -26.9170  -28.2360   20.5640 N   0  0  0  0  0  0  0  0  0  0  0  0
  -26.8620  -28.7860   21.4140 H   0  0  0  0  0  0  0  0  0  0  0  0
  -27.8680  -28.0850   20.2510 H   0  0  0  0  0  0  0  0  0  0  0  0
  -28.1890  -22.1920   24.6480 C   0  0  0  0  0  2  0  0  0  0  0  0
  -28.5860  -22.6250   23.3540 O   0  0  0  0  0  0  0  0  0  0  0  0
  -28.0120  -23.8710   22.9720 C   0  0  0  0  0  2  0  0  0  0  0  0
  -28.7180  -24.3880   21.7050 C   0  0  0  0  0  2  0  0  0  0  0  0
  -29.6880  -25.3900   22.0050 O   0  0  0  0  0  0  0  0  0  0  0  0
  -30.9940  -24.8840   22.2700 C   0  0  0  0  0  2  0  0  0  0  0  0
  -31.9800  -26.0540   22.3680 C   0  0  0  0  0  2  0  0  0  0  0  0
  -31.8070  -26.6900   23.6290 O   0  0  0  0  0  0  0  0  0  0  0  0
  -32.2060  -28.0570   23.6510 C   0  0  0  0  0  2  0  0  0  0  0  0
  -31.0940  -28.9840   23.1270 C   0  0  0  0  0  2  0  0  0  0  0  0
  -31.3140  -30.3060   23.6200 O   0  0  0  0  0  0  0  0  0  0  0  0
  -30.5820  -34.0860   29.5710 C   0  0  0  0  0  0  0  0  0  0  0  0
  -30.4420  -30.7660   24.5760 C   0  0  0  0  0  0  0  0  0  0  0  0
  -28.6020  -32.7670   28.8910 C   0  0  0  0  0  3  0  0  0  0  0  0
  -28.6900  -31.7690   26.5480 C   0  0  0  0  0  0  0  0  0  0  0  0
  -30.2680  -33.6160   27.1450 C   0  0  0  0  0  2  0  0  0  0  0  0
  -29.9150  -32.4050   26.3100 C   0  0  0  0  0  0  0  0  0  0  0  0
  -30.7890  -31.9130   25.3180 C   0  0  0  0  0  3  0  0  0  0  0  0
  -29.2000  -30.1380   24.8200 C   0  0  0  0  0  3  0  0  0  0  0  0
  -28.3250  -30.6320   25.8060 C   0  0  0  0  0  3  0  0  0  0  0  0
  -27.8070  -32.3660   27.6190 C   0  0  0  0  0  2  0  0  0  0  0  0
  -29.8700  -33.4970   28.5680 N   0  0  0  0  0  0  0  0  0  0  0  0
  -30.1740  -34.0690   30.7400 O   0  0  0  0  0  0  0  0  0  0  0  0
  -28.8230  -31.5050   29.7550 C   0  0  0  0  0  0  0  0  0  0  0  0
  -27.8610  -31.2150   30.6460 N   0  0  0  0  0  0  0  0  0  0  0  0
  -29.8230  -30.7990   29.6000 O   0  0  0  0  0  0  0  0  0  0  0  0
  -27.0780  -31.8490   30.7180 H   0  0  0  0  0  0  0  0  0  0  0  0
  -26.0530  -29.6860   33.3750 C   0  0  0  0  0  0  0  0  0  0  0  0
  -27.8360  -30.0570   31.5400 C   0  0  0  0  0  3  0  0  0  0  0  0
  -27.2230  -28.8240   30.8370 C   0  0  0  0  0  2  0  0  0  0  0  0
  -25.7170  -28.6800   31.0770 C   0  0  0  0  0  2  0  0  0  0  0  0
  -25.4200  -28.5600   32.5750 C   0  0  0  0  0  2  0  0  0  0  0  0
  -27.1770  -30.4000   32.8810 C   0  0  0  0  0  0  0  0  0  0  0  0
  -27.7050  -31.4610   33.6470 C   0  0  0  0  0  3  0  0  0  0  0  0
  -27.1330  -31.8090   34.8850 C   0  0  0  0  0  3  0  0  0  0  0  0
  -26.0300  -31.0890   35.3770 C   0  0  0  0  0  3  0  0  0  0  0  0
  -25.4950  -30.0290   34.6240 C   0  0  0  0  0  3  0  0  0  0  0  0
  -31.9260  -34.8310   29.2930 C   0  0  0  0  0  3  0  0  0  0  0  0
  -32.0800  -35.8610   30.3280 N   0  0  0  0  0  0  0  0  0  0  0  0
  -31.7500  -37.1500   30.1720 C   0  0  0  0  0  0  0  0  0  0  0  0
  -31.3430  -37.6120   29.1020 O   0  0  0  0  0  0  0  0  0  0  0  0
  -32.3550  -35.5440   31.2460 H   0  0  0  0  0  0  0  0  0  0  0  0
  -30.5120  -38.2960   32.0360 C   0  0  0  0  0  1  0  0  0  0  0  0
  -31.8910  -38.0710   31.3980 C   0  0  0  0  0  3  0  0  0  0  0  0
  -33.9250  -39.2730   30.7280 C   0  0  0  0  0  1  0  0  0  0  0  0
  -32.5130  -39.3780   31.0830 N   0  0  0  0  0  0  0  0  0  0  0  0
  -32.4290  -40.0150   31.8710 H   0  0  0  0  0  0  0  0  0  0  0  0
  -33.1770  -33.8690   29.2690 C   0  0  1  0  0  0  0  0  0  0  0  0
  -33.3020  -32.9780   30.5260 C   0  0  0  0  0  1  0  0  0  0  0  0
  -33.1260  -32.9420   28.0310 C   0  0  0  0  0  1  0  0  0  0  0  0
  -34.4740  -34.7020   29.1450 C   0  0  0  0  0  1  0  0  0  0  0  0
  2  3  1  0
  2  1  1  0
  4  3  1  0
  5 15  1  0
  5 11  1  0
  6  9  1  0
  7 11  1  0
  7  6  1  0
  8 10  1  0
  9 12  1  0
 10 12  1  0
 11  8  1  0
 12  4  1  0
 13  5  2  0
 12 14  1  1
 16 24  1  0
 17 18  1  0
 17 22  1  0
 18 19  1  0
 20 19  1  0
 20 29  1  0
 21 20  1  0
 22 16  1  0
 22 21  1  0
 23 16  2  0
 24 25  1  0
 24 15  1  0
 26 27  2  0
 26 51  1  0
 27 46  1  0
 28 27  1  0
 29 26  1  0
 30 29  1  0
 30 28  2  0
 31 28  1  0
 32 31  1  0
 33 32  2  0
 34 33  1  0
 34 35  2  0
 35 36  1  0
 36 31  2  0
 37 34  1  0
 37 38  1  0
 38 39  1  0
 39 40  2  0
 41 45  1  0
 41 40  1  0
 42 41  2  0
 43 42  1  0
 43 38  2  0
 44 43  1  0
 46 47  1  0
 46 48  2  0
 47 50  1  0
 49 47  1  0
 51 52  1  0
 53 51  1  0
 54  1  1  0
 55 54  1  0
 56 55  1  0
 57 58  1  0
 57 56  1  0
 58 59  1  0
 59 60  1  0
 60 61  1  0
 61 62  1  0
 63 64  1  0
 63 62  1  0
 64 66  1  0
 65 76  2  0
 66 72  2  0
 66 71  1  0
 67 77  1  0
 68 74  1  0
 69 75  1  0
 70 68  1  0
 70 69  1  0
 71 70  2  0
 72 73  1  0
 73 68  2  0
 74 67  1  0
 75 67  1  0
 75 65  1  0
 77 78  1  0
 78 80  1  0
 79 77  2  0
 81 90  1  0
 82 78  1  0
 82 86  1  0
 83 84  1  0
 83 82  1  0
 84 85  1  0
 85 81  1  0
 86 81  2  0
 86 87  1  0
 87 88  2  0
 88 89  1  0
 90 89  2  0
 91 65  1  0
 91 92  1  0
 92 95  1  0
 93 92  1  0
 93 97  1  0
 94 93  2  0
 97 96  1  0
 98 99  1  0
 99 97  1  0
 99100  1  0
101 91  1  0
101102  1  1
103101  1  0
104101  1  0
M  ISO  4  16 100  24 100  63 101  64 101
M  END
>  <TORSDO>  (79) 
F 31

>  <SCORE>  (79) 
6.243

>  <name>  (79) 
81

>  <ligand_id>  (79) 
81

>  <original_smiles>  (79) 
[H]c1c([H])c([H])c2c(c1[H])C([H])([H])C([H])([H])C([H])([H])C2([H])N([H])C(=O)C1([H])N(C(=O)C([H])(N([H])C(=O)C([H])(N([H])C([H])([H])[H])C([H])([H])[H])C(C([H])([H])[H])(C([H])([H])[H])C([H])([H])[H])C([H])([H])c2c([H])c(OC([H])([H])C([H])([H])OC([H])([H])C([H])([H])OC([H])([H])C([H])([H])OC([H])([H])C([H])([H])OC([H])([H])C([H])([H])[N+]3([H])C([H])([H])C([H])([H])N(C(=O)C([H])([H])N([H])C(=O)N4C([H])([H])C([H])([H])C([H])([H])C([H])(n5nc(-c6c([H])c([H])c(Oc7c([H])c([H])c(F)c([H])c7F)c([H])c6[H])c(C(=O)N([H])[H])c5N([H])[H])C4([H])[H])C([H])([H])C([H])([H])C3([H])[H])c([H])c([H])c2C1([H])[H]

>  <smiles>  (79) 
[H]c1c([H])c([H])c2c(c1[H])C([H])([H])C([H])([H])C([H])([H])C2([H])N([H])C(=O)C1([H])N(C(=O)C([H])(N([H])C(=O)C([H])(N([H])C([H])([H])[H])C([H])([H])[H])C(C([H])([H])[H])(C([H])([H])[H])C([H])([H])[H])C([H])([H])c2c([H])c(OC([H])([H])C([H])([H])OC([H])([H])C([H])([H])OC([H])([H])C([H])([H])OC([H])([H])C([H])([H])OC([H])([H])C([H])([H])[N+]3([H])C([H])([H])C([H])([H])N(C(=O)C([H])([H])N([H])C(=O)N4C([H])([H])C([H])([H])C([H])([H])C([H])(n5nc(-c6c([H])c([H])c(Oc7c([H])c([H])c(F)c([H])c7F)c([H])c6[H])c(C(=O)N([H])[H])c5N([H])[H])C4([H])[H])C([H])([H])C([H])([H])C3([H])[H])c([H])c([H])c2C1([H])[H]

$$$$
82:0:0
     RDKit          3D

 94101  0  0  1  0  0  0  0  0999 V2000
  -30.0710  -22.0990   23.7850 C   0  0  0  0  0  2  0  0  0  0  0  0
  -30.6390  -20.8040   23.1670 C   0  0  0  0  0  2  0  0  0  0  0  0
  -30.5780  -19.6170   24.1540 C   0  0  0  0  0  2  0  0  0  0  0  0
  -31.3280  -18.3470   23.7000 C   0  0  0  0  0  2  0  0  0  0  0  0
  -30.8920  -17.7220   21.3280 C   0  0  0  0  0  0  0  0  0  0  0  0
  -30.6300  -17.6320   22.6360 N   0  0  0  0  0  0  0  0  0  0  0  0
  -31.7960  -18.4230   20.8740 O   0  0  0  0  0  0  0  0  0  0  0  0
  -29.8830  -17.0060   22.9100 H   0  0  0  0  0  0  0  0  0  0  0  0
  -30.0110  -16.9060   20.3860 C   0  0  0  0  0  2  0  0  0  0  0  0
  -30.5930  -14.5060   20.4020 C   0  0  0  0  0  0  0  0  0  0  0  0
  -30.3150  -12.3510   19.2600 C   0  0  0  0  0  2  0  0  0  0  0  0
  -29.3540  -12.5660   18.0710 C   0  0  0  0  0  2  0  0  0  0  0  0
  -27.8860  -12.4130   18.5180 C   0  0  0  0  0  2  0  0  0  0  0  0
  -27.5590  -13.2390   19.7910 C   0  0  0  0  0  3  0  0  0  0  0  0
  -28.6290  -13.0070   20.8840 C   0  0  0  0  0  2  0  0  0  0  0  0
  -29.9480  -13.3160   20.3060 N   0  0  0  0  0  0  0  0  0  0  0  0
  -31.7140  -14.7150   19.9320 O   0  0  0  0  0  0  0  0  0  0  0  0
  -29.8150  -15.5180   20.8100 N   0  0  0  0  0  0  0  0  0  0  0  0
  -28.9110  -15.2700   21.1810 H   0  0  0  0  0  0  0  0  0  0  0  0
  -25.1610  -13.8270   20.5270 C   0  0  0  0  0  0  0  0  0  0  0  0
  -24.1030  -13.0430   20.9060 C   0  0  0  0  0  0  0  0  0  0  0  0
  -24.5760  -11.6970   20.8630 C   0  0  0  0  0  0  0  0  0  0  0  0
  -26.2120  -12.9560   20.2810 N   0  0  0  0  0  0  0  0  0  0  0  0
  -25.8630  -11.6700   20.5400 N   0  0  0  0  0  0  0  0  0  0  0  0
  -23.8650  -10.4270   21.0560 C   0  0  0  0  0  0  0  0  0  0  0  0
  -24.3180   -9.4600   21.9810 C   0  0  0  0  0  3  0  0  0  0  0  0
  -23.6080   -8.2540   22.1610 C   0  0  0  0  0  3  0  0  0  0  0  0
  -22.4310   -8.0060   21.4160 C   0  0  0  0  0  0  0  0  0  0  0  0
  -21.9960   -8.9610   20.4810 C   0  0  0  0  0  3  0  0  0  0  0  0
  -22.7080  -10.1590   20.2980 C   0  0  0  0  0  3  0  0  0  0  0  0
  -21.6910   -6.8520   21.5050 O   0  0  0  0  0  0  0  0  0  0  0  0
  -21.6630   -6.1020   22.6550 C   0  0  0  0  0  0  0  0  0  0  0  0
  -21.2610   -6.6500   23.8920 C   0  0  0  0  0  3  0  0  0  0  0  0
  -21.1810   -5.8270   25.0330 C   0  0  0  0  0  3  0  0  0  0  0  0
  -21.4910   -4.4580   24.9370 C   0  0  0  0  0  0  0  0  0  0  0  0
  -21.8870   -3.9090   23.7040 C   0  0  0  0  0  3  0  0  0  0  0  0
  -21.9690   -4.7290   22.5660 C   0  0  0  0  0  0  0  0  0  0  0  0
  -22.3300   -4.1920   21.3760 F   0  0  0  0  0  0  0  0  0  0  0  0
  -21.4060   -3.6640   26.0300 F   0  0  0  0  0  0  0  0  0  0  0  0
  -22.7050  -13.5070   21.1970 C   0  0  0  0  0  0  0  0  0  0  0  0
  -21.9940  -12.7990   22.0670 N   0  0  0  0  0  0  0  0  0  0  0  0
  -22.2520  -14.5320   20.6900 O   0  0  0  0  0  0  0  0  0  0  0  0
  -22.3700  -11.9670   22.4980 H   0  0  0  0  0  0  0  0  0  0  0  0
  -21.0570  -13.0930   22.3070 H   0  0  0  0  0  0  0  0  0  0  0  0
  -25.3110  -15.2000   20.3530 N   0  0  0  0  0  0  0  0  0  0  0  0
  -24.5350  -15.8440   20.4610 H   0  0  0  0  0  0  0  0  0  0  0  0
  -26.1460  -15.6470   19.9950 H   0  0  0  0  0  0  0  0  0  0  0  0
  -30.3150  -23.3890   22.9690 C   0  0  0  0  0  2  0  0  0  0  0  0
  -29.2830  -23.6550   21.9400 N   0  0  0  0  0  4  0  0  0  0  0  0
  -28.3770  -23.5520   22.3720 H   0  0  0  0  0  0  0  0  0  0  0  0
  -29.3540  -22.9600   21.2120 H   0  0  0  0  0  0  0  0  0  0  0  0
  -29.3730  -25.0180   21.3530 C   0  0  0  0  0  2  0  0  0  0  0  0
  -28.2030  -25.3640   20.4150 C   0  0  0  0  0  2  0  0  0  0  0  0
  -28.2800  -26.7600   20.1040 O   0  0  0  0  0  0  0  0  0  0  0  0
  -24.5000  -31.8970   23.2140 C   0  0  0  0  0  0  0  0  0  0  0  0
  -27.0960  -27.4610   20.1100 C   0  0  0  0  0  0  0  0  0  0  0  0
  -23.2650  -30.4890   21.5970 C   0  0  0  0  0  3  0  0  0  0  0  0
  -24.6950  -28.9480   20.1540 C   0  0  0  0  0  0  0  0  0  0  0  0
  -25.7840  -30.8550   21.3520 C   0  0  0  0  0  2  0  0  0  0  0  0
  -25.8600  -29.4830   20.7160 C   0  0  0  0  0  0  0  0  0  0  0  0
  -27.0650  -28.7480   20.6860 C   0  0  0  0  0  3  0  0  0  0  0  0
  -25.9150  -26.9340   19.5410 C   0  0  0  0  0  3  0  0  0  0  0  0
  -24.7160  -27.6710   19.5640 C   0  0  0  0  0  3  0  0  0  0  0  0
  -23.4500  -29.8030   20.2160 C   0  0  0  0  0  2  0  0  0  0  0  0
  -24.5360  -31.0950   22.1130 N   0  0  0  0  0  0  0  0  0  0  0  0
  -23.4290  -32.1710   23.7730 O   0  0  0  0  0  0  0  0  0  0  0  0
  -22.6310  -29.4720   22.5710 C   0  0  0  0  0  0  0  0  0  0  0  0
  -21.3070  -29.2810   22.4590 N   0  0  0  0  0  0  0  0  0  0  0  0
  -23.3280  -28.8550   23.3830 O   0  0  0  0  0  0  0  0  0  0  0  0
  -20.8080  -29.8310   21.7740 H   0  0  0  0  0  0  0  0  0  0  0  0
  -17.9490  -28.0560   22.9740 C   0  0  0  0  0  0  0  0  0  0  0  0
  -20.5040  -28.3450   23.2430 C   0  0  0  0  0  3  0  0  0  0  0  0
  -20.6220  -26.9080   22.6850 C   0  0  0  0  0  2  0  0  0  0  0  0
  -19.5230  -26.5590   21.6760 C   0  0  0  0  0  2  0  0  0  0  0  0
  -18.1400  -26.6990   22.3190 C   0  0  0  0  0  2  0  0  0  0  0  0
  -19.0590  -28.8360   23.3940 C   0  0  0  0  0  0  0  0  0  0  0  0
  -18.8280  -30.1070   23.9640 C   0  0  0  0  0  3  0  0  0  0  0  0
  -17.5180  -30.5970   24.1220 C   0  0  0  0  0  3  0  0  0  0  0  0
  -16.4220  -29.8140   23.7220 C   0  0  0  0  0  3  0  0  0  0  0  0
  -16.6380  -28.5460   23.1530 C   0  0  0  0  0  3  0  0  0  0  0  0
  -25.7980  -32.5280   23.8100 C   0  0  0  0  0  3  0  0  0  0  0  0
  -26.3490  -31.7480   25.0660 C   0  0  1  0  0  0  0  0  0  0  0  0
  -25.2840  -31.4980   26.1580 C   0  0  0  0  0  1  0  0  0  0  0  0
  -26.9270  -30.3770   24.6440 C   0  0  0  0  0  1  0  0  0  0  0  0
  -27.5130  -32.5410   25.7060 C   0  0  0  0  0  1  0  0  0  0  0  0
  -25.4930  -33.9230   24.1550 N   0  0  0  0  0  0  0  0  0  0  0  0
  -25.8130  -34.9800   23.3990 C   0  0  0  0  0  0  0  0  0  0  0  0
  -26.4690  -34.8860   22.3580 O   0  0  0  0  0  0  0  0  0  0  0  0
  -24.9100  -34.0710   24.9670 H   0  0  0  0  0  0  0  0  0  0  0  0
  -24.0810  -36.7730   23.0760 C   0  0  0  0  0  1  0  0  0  0  0  0
  -25.3300  -36.3640   23.8720 C   0  0  0  0  0  3  0  0  0  0  0  0
  -27.4730  -37.2400   24.6860 C   0  0  0  0  0  1  0  0  0  0  0  0
  -26.3600  -37.4190   23.7590 N   0  0  0  0  0  0  0  0  0  0  0  0
  -25.9560  -38.3370   23.9220 H   0  0  0  0  0  0  0  0  0  0  0  0
  2  1  1  0
  2  3  1  0
  4  3  1  0
  5  6  1  0
  6  8  1  0
  6  4  1  0
  7  5  2  0
  9 18  1  0
  9  5  1  0
 10 18  1  0
 11 16  1  0
 12 13  1  0
 12 11  1  0
 14 13  1  0
 14 23  1  0
 14 15  1  0
 16 10  1  0
 16 15  1  0
 17 10  2  0
 18 19  1  0
 20 21  2  0
 21 40  1  0
 22 21  1  0
 22 25  1  0
 23 20  1  0
 23 24  1  0
 24 22  2  0
 25 26  1  0
 26 27  2  0
 28 31  1  0
 28 27  1  0
 29 28  2  0
 30 29  1  0
 30 25  2  0
 31 32  1  0
 32 33  1  0
 33 34  2  0
 35 34  1  0
 35 39  1  0
 36 35  2  0
 37 32  2  0
 37 36  1  0
 38 37  1  0
 40 41  1  0
 41 44  1  0
 41 43  1  0
 42 40  2  0
 45 46  1  0
 45 20  1  0
 47 45  1  0
 48  1  1  0
 49 50  1  0
 49 48  1  0
 51 49  1  0
 52 49  1  0
 53 52  1  0
 54 56  1  0
 54 53  1  0
 55 66  2  0
 56 61  1  0
 57 65  1  0
 57 67  1  0
 58 64  1  0
 58 60  1  0
 59 65  1  0
 60 59  1  0
 61 60  2  0
 62 63  1  0
 62 56  2  0
 63 58  2  0
 64 57  1  0
 65 55  1  0
 67 69  2  0
 68 67  1  0
 70 68  1  0
 71 80  2  0
 71 76  1  0
 72 68  1  0
 72 76  1  0
 73 72  1  0
 74 75  1  0
 74 73  1  0
 75 71  1  0
 76 77  2  0
 77 78  1  0
 79 78  2  0
 80 79  1  0
 81 55  1  0
 81 86  1  0
 81 82  1  0
 82 85  1  1
 82 83  1  0
 84 82  1  0
 86 89  1  0
 87 91  1  0
 87 86  1  0
 88 87  2  0
 91 90  1  0
 93 91  1  0
 93 94  1  0
 93 92  1  0
M  ISO  4  10 100  18 100  53 101  54 101
M  END
>  <TORSDO>  (80) 
F 25

>  <SCORE>  (80) 
-11.458

>  <name>  (80) 
82

>  <ligand_id>  (80) 
82

>  <original_smiles>  (80) 
[H]c1c([H])c([H])c2c(c1[H])C([H])([H])C([H])([H])C([H])([H])C2([H])N([H])C(=O)C1([H])N(C(=O)C([H])(N([H])C(=O)C([H])(N([H])C([H])([H])[H])C([H])([H])[H])C(C([H])([H])[H])(C([H])([H])[H])C([H])([H])[H])C([H])([H])c2c([H])c(OC([H])([H])C([H])([H])[N+]([H])([H])C([H])([H])C([H])([H])C([H])([H])C([H])([H])C([H])([H])N([H])C(=O)C([H])([H])N([H])C(=O)N3C([H])([H])C([H])([H])C([H])([H])C([H])(n4nc(-c5c([H])c([H])c(Oc6c([H])c([H])c(F)c([H])c6F)c([H])c5[H])c(C(=O)N([H])[H])c4N([H])[H])C3([H])[H])c([H])c([H])c2C1([H])[H]

>  <smiles>  (80) 
[H]c1c([H])c([H])c2c(c1[H])C([H])([H])C([H])([H])C([H])([H])C2([H])N([H])C(=O)C1([H])N(C(=O)C([H])(N([H])C(=O)C([H])(N([H])C([H])([H])[H])C([H])([H])[H])C(C([H])([H])[H])(C([H])([H])[H])C([H])([H])[H])C([H])([H])c2c([H])c(OC([H])([H])C([H])([H])[N+]([H])([H])C([H])([H])C([H])([H])C([H])([H])C([H])([H])C([H])([H])N([H])C(=O)C([H])([H])N([H])C(=O)N3C([H])([H])C([H])([H])C([H])([H])C([H])(n4nc(-c5c([H])c([H])c(Oc6c([H])c([H])c(F)c([H])c6F)c([H])c5[H])c(C(=O)N([H])[H])c4N([H])[H])C3([H])[H])c([H])c([H])c2C1([H])[H]

$$$$
83:0:0
     RDKit          3D

103111  0  0  1  0  0  0  0  0999 V2000
  -32.6950  -25.1140   16.7000 C   0  0  0  0  0  0  0  0  0  0  0  0
  -33.9980  -27.8150   18.3330 C   0  0  0  0  0  2  0  0  0  0  0  0
  -34.3210  -27.0040   17.0600 C   0  0  0  0  0  2  0  0  0  0  0  0
  -32.3360  -27.2900   15.6170 C   0  0  0  0  0  2  0  0  0  0  0  0
  -31.0070  -27.7370   16.2790 C   0  0  0  0  0  2  0  0  0  0  0  0
  -31.7860  -28.9840   18.3230 C   0  0  0  0  0  2  0  0  0  0  0  0
  -33.2160  -29.0090   18.0040 N   0  0  0  0  0  0  0  0  0  0  0  0
  -33.1180  -26.3870   16.4790 N   0  0  0  0  0  0  0  0  0  0  0  0
  -31.0530  -27.8080   17.7720 N   0  0  1  0  0  4  0  0  0  0  0  0
  -31.7610  -24.6290   16.0520 O   0  0  0  0  0  0  0  0  0  0  0  0
  -33.4130  -29.3690   17.0750 H   0  0  0  0  0  0  0  0  0  0  0  0
  -31.5510  -26.9840   18.0660 H   0  0  0  0  0  0  0  0  0  0  0  0
  -29.6930  -27.6640   18.3580 C   0  0  0  0  0  2  0  0  0  0  0  0
  -29.6870  -27.3130   19.8590 C   0  0  0  0  0  2  0  0  0  0  0  0
  -28.4500  -26.6780   20.1670 O   0  0  0  0  0  0  0  0  0  0  0  0
  -24.6490  -31.8680   23.2210 C   0  0  0  0  0  0  0  0  0  0  0  0
  -27.3150  -27.4510   20.1790 C   0  0  0  0  0  0  0  0  0  0  0  0
  -23.4410  -30.4570   21.5820 C   0  0  0  0  0  3  0  0  0  0  0  0
  -24.9030  -28.9150   20.1720 C   0  0  0  0  0  0  0  0  0  0  0  0
  -25.9560  -30.8370   21.3730 C   0  0  0  0  0  2  0  0  0  0  0  0
  -26.0510  -29.4590   20.7570 C   0  0  0  0  0  0  0  0  0  0  0  0
  -27.2590  -28.7330   20.7700 C   0  0  0  0  0  3  0  0  0  0  0  0
  -26.1480  -26.9050   19.6070 C   0  0  0  0  0  3  0  0  0  0  0  0
  -24.9420  -27.6320   19.5980 C   0  0  0  0  0  3  0  0  0  0  0  0
  -23.6570  -29.7670   20.2080 C   0  0  0  0  0  2  0  0  0  0  0  0
  -24.7000  -31.0660   22.1220 N   0  0  0  0  0  0  0  0  0  0  0  0
  -23.5680  -32.1410   23.7630 O   0  0  0  0  0  0  0  0  0  0  0  0
  -22.7880  -29.4410   22.5480 C   0  0  0  0  0  0  0  0  0  0  0  0
  -21.4620  -29.2650   22.4290 N   0  0  0  0  0  0  0  0  0  0  0  0
  -23.4710  -28.8140   23.3600 O   0  0  0  0  0  0  0  0  0  0  0  0
  -20.9690  -29.8150   21.7390 H   0  0  0  0  0  0  0  0  0  0  0  0
  -18.0830  -28.1040   22.9530 C   0  0  0  0  0  0  0  0  0  0  0  0
  -20.6460  -28.3340   23.2070 C   0  0  0  0  0  3  0  0  0  0  0  0
  -20.7350  -26.9050   22.6280 C   0  0  0  0  0  2  0  0  0  0  0  0
  -19.6240  -26.5930   21.6220 C   0  0  0  0  0  2  0  0  0  0  0  0
  -18.2460  -26.7540   22.2720 C   0  0  0  0  0  2  0  0  0  0  0  0
  -19.2130  -28.8530   23.3760 C   0  0  0  0  0  0  0  0  0  0  0  0
  -19.0130  -30.1180   23.9700 C   0  0  0  0  0  3  0  0  0  0  0  0
  -17.7170  -30.6390   24.1390 C   0  0  0  0  0  3  0  0  0  0  0  0
  -16.6010  -29.8860   23.7360 C   0  0  0  0  0  3  0  0  0  0  0  0
  -16.7840  -28.6200   23.1480 C   0  0  0  0  0  3  0  0  0  0  0  0
  -25.9360  -32.5020   23.8360 C   0  0  0  0  0  3  0  0  0  0  0  0
  -26.4730  -31.7180   25.0950 C   0  0  1  0  0  0  0  0  0  0  0  0
  -25.3920  -31.4550   26.1680 C   0  0  0  0  0  1  0  0  0  0  0  0
  -27.0600  -30.3520   24.6710 C   0  0  0  0  0  1  0  0  0  0  0  0
  -27.6310  -32.5060   25.7520 C   0  0  0  0  0  1  0  0  0  0  0  0
  -25.6260  -33.8970   24.1770 N   0  0  0  0  0  0  0  0  0  0  0  0
  -25.9480  -34.9530   23.4170 C   0  0  0  0  0  0  0  0  0  0  0  0
  -26.6120  -34.8580   22.3830 O   0  0  0  0  0  0  0  0  0  0  0  0
  -25.0430  -34.0460   24.9880 H   0  0  0  0  0  0  0  0  0  0  0  0
  -24.2080  -36.7350   23.0750 C   0  0  0  0  0  1  0  0  0  0  0  0
  -25.4540  -36.3370   23.8810 C   0  0  0  0  0  3  0  0  0  0  0  0
  -27.5890  -37.2230   24.7050 C   0  0  0  0  0  1  0  0  0  0  0  0
  -26.4800  -37.3980   23.7700 N   0  0  0  0  0  0  0  0  0  0  0  0
  -26.0690  -38.3120   23.9390 H   0  0  0  0  0  0  0  0  0  0  0  0
  -33.2560  -24.2960   17.8770 C   0  0  0  0  0  2  0  0  0  0  0  0
  -32.1510  -23.8750   18.6740 O   0  0  0  0  0  0  0  0  0  0  0  0
  -32.4950  -23.5030   20.0020 C   0  0  0  0  0  2  0  0  0  0  0  0
  -31.2350  -22.9870   20.7180 C   0  0  0  0  0  2  0  0  0  0  0  0
  -31.0760  -21.6100   20.4140 O   0  0  0  0  0  0  0  0  0  0  0  0
  -29.8670  -21.0460   20.9040 C   0  0  0  0  0  2  0  0  0  0  0  0
  -29.9340  -19.5220   20.7060 C   0  0  0  0  0  2  0  0  0  0  0  0
  -30.3600  -18.8690   21.9030 O   0  0  0  0  0  0  0  0  0  0  0  0
  -30.8070  -17.5130   21.7830 C   0  0  0  0  0  2  0  0  0  0  0  0
  -29.9670  -16.6440   20.8280 C   0  0  0  0  0  2  0  0  0  0  0  0
  -30.7120  -14.2880   20.4700 C   0  0  0  0  0  0  0  0  0  0  0  0
  -30.4030  -12.1610   19.2660 C   0  0  0  0  0  2  0  0  0  0  0  0
  -29.4520  -12.4100   18.0740 C   0  0  0  0  0  2  0  0  0  0  0  0
  -27.9730  -12.3150   18.5030 C   0  0  0  0  0  2  0  0  0  0  0  0
  -27.6670  -13.1340   19.7850 C   0  0  0  0  0  3  0  0  0  0  0  0
  -28.7110  -12.8210   20.8820 C   0  0  0  0  0  2  0  0  0  0  0  0
  -30.0510  -13.1080   20.3330 N   0  0  0  0  0  0  0  0  0  0  0  0
  -31.7860  -14.5450   19.9140 O   0  0  0  0  0  0  0  0  0  0  0  0
  -30.0150  -15.2150   21.1330 N   0  0  0  0  0  0  0  0  0  0  0  0
  -29.2120  -14.8620   21.6330 H   0  0  0  0  0  0  0  0  0  0  0  0
  -25.2770  -13.8160   20.4670 C   0  0  0  0  0  0  0  0  0  0  0  0
  -24.1920  -13.0720   20.8490 C   0  0  0  0  0  0  0  0  0  0  0  0
  -24.6220  -11.7110   20.8310 C   0  0  0  0  0  0  0  0  0  0  0  0
  -26.3030  -12.9050   20.2560 N   0  0  0  0  0  0  0  0  0  0  0  0
  -25.9090  -11.6360   20.5220 N   0  0  0  0  0  0  0  0  0  0  0  0
  -23.8660  -10.4690   21.0290 C   0  0  0  0  0  0  0  0  0  0  0  0
  -24.2860   -9.4940   21.9590 C   0  0  0  0  0  3  0  0  0  0  0  0
  -23.5320   -8.3150   22.1470 C   0  0  0  0  0  3  0  0  0  0  0  0
  -22.3480   -8.1030   21.4050 C   0  0  0  0  0  0  0  0  0  0  0  0
  -21.9480   -9.0670   20.4610 C   0  0  0  0  0  3  0  0  0  0  0  0
  -22.7000  -10.2380   20.2740 C   0  0  0  0  0  3  0  0  0  0  0  0
  -21.5650   -6.9790   21.5070 O   0  0  0  0  0  0  0  0  0  0  0  0
  -21.5230   -6.2320   22.6600 C   0  0  0  0  0  0  0  0  0  0  0  0
  -21.1550   -6.7940   23.9010 C   0  0  0  0  0  3  0  0  0  0  0  0
  -21.0580   -5.9730   25.0440 C   0  0  0  0  0  3  0  0  0  0  0  0
  -21.3160   -4.5930   24.9460 C   0  0  0  0  0  0  0  0  0  0  0  0
  -21.6710   -4.0320   23.7090 C   0  0  0  0  0  3  0  0  0  0  0  0
  -21.7730   -4.8480   22.5670 C   0  0  0  0  0  0  0  0  0  0  0  0
  -22.0970   -4.2960   21.3720 F   0  0  0  0  0  0  0  0  0  0  0  0
  -21.2170   -3.8040   26.0420 F   0  0  0  0  0  0  0  0  0  0  0  0
  -22.8060  -13.5850   21.1180 C   0  0  0  0  0  0  0  0  0  0  0  0
  -22.0620  -12.9130   21.9920 N   0  0  0  0  0  0  0  0  0  0  0  0
  -22.3900  -14.6140   20.5890 O   0  0  0  0  0  0  0  0  0  0  0  0
  -22.4050  -12.0790   22.4450 H   0  0  0  0  0  0  0  0  0  0  0  0
  -21.1280  -13.2360   22.2090 H   0  0  0  0  0  0  0  0  0  0  0  0
  -25.4700  -15.1780   20.2630 N   0  0  0  0  0  0  0  0  0  0  0  0
  -24.7120  -15.8470   20.3470 H   0  0  0  0  0  0  0  0  0  0  0  0
  -26.3250  -15.5930   19.9120 H   0  0  0  0  0  0  0  0  0  0  0  0
  1 56  1  0
  3  2  1  0
  4  5  1  0
  4  8  1  0
  5  9  1  0
  7  6  1  0
  7  2  1  0
  8  1  1  0
  8  3  1  0
  9 12  1  1
  9  6  1  0
  9 13  1  0
 10  1  2  0
 11  7  1  0
 13 14  1  0
 14 15  1  0
 15 17  1  0
 16 27  2  0
 17 22  1  0
 18 26  1  0
 18 28  1  0
 19 25  1  0
 19 21  1  0
 20 26  1  0
 21 22  2  0
 21 20  1  0
 23 17  2  0
 24 23  1  0
 24 19  2  0
 25 18  1  0
 26 16  1  0
 28 30  2  0
 29 28  1  0
 31 29  1  0
 32 41  2  0
 32 37  1  0
 33 29  1  0
 33 37  1  0
 34 33  1  0
 35 36  1  0
 35 34  1  0
 36 32  1  0
 37 38  2  0
 38 39  1  0
 40 39  2  0
 41 40  1  0
 42 16  1  0
 42 47  1  0
 42 43  1  0
 43 46  1  1
 43 44  1  0
 45 43  1  0
 47 50  1  0
 48 52  1  0
 48 47  1  0
 49 48  2  0
 52 51  1  0
 54 52  1  0
 54 55  1  0
 54 53  1  0
 56 57  1  0
 57 58  1  0
 58 59  1  0
 60 59  1  0
 60 61  1  0
 62 61  1  0
 62 63  1  0
 64 63  1  0
 65 74  1  0
 65 64  1  0
 66 74  1  0
 67 72  1  0
 68 69  1  0
 68 67  1  0
 70 69  1  0
 70 79  1  0
 70 71  1  0
 72 66  1  0
 72 71  1  0
 73 66  2  0
 74 75  1  0
 76 77  2  0
 77 96  1  0
 78 77  1  0
 78 81  1  0
 79 76  1  0
 79 80  1  0
 80 78  2  0
 81 82  1  0
 82 83  2  0
 84 87  1  0
 84 83  1  0
 85 84  2  0
 86 85  1  0
 86 81  2  0
 87 88  1  0
 88 89  1  0
 89 90  2  0
 91 90  1  0
 91 95  1  0
 92 91  2  0
 93 88  2  0
 93 92  1  0
 94 93  1  0
 96 97  1  0
 97100  1  0
 97 99  1  0
 98 96  2  0
101102  1  0
101 76  1  0
103101  1  0
M  ISO  4  14 101  15 101  66 100  74 100
M  END
>  <TORSDO>  (81) 
F 28

>  <SCORE>  (81) 
-11.276

>  <name>  (81) 
83

>  <ligand_id>  (81) 
83

>  <original_smiles>  (81) 
[H]c1c([H])c([H])c2c(c1[H])C([H])([H])C([H])([H])C([H])([H])C2([H])N([H])C(=O)C1([H])N(C(=O)C([H])(N([H])C(=O)C([H])(N([H])C([H])([H])[H])C([H])([H])[H])C(C([H])([H])[H])(C([H])([H])[H])C([H])([H])[H])C([H])([H])c2c([H])c(OC([H])([H])C([H])([H])[N+]3([H])C([H])([H])N([H])C([H])([H])C([H])([H])N(C(=O)C([H])([H])OC([H])([H])C([H])([H])OC([H])([H])C([H])([H])OC([H])([H])C([H])([H])N([H])C(=O)N4C([H])([H])C([H])([H])C([H])([H])C([H])(n5nc(-c6c([H])c([H])c(Oc7c([H])c([H])c(F)c([H])c7F)c([H])c6[H])c(C(=O)N([H])[H])c5N([H])[H])C4([H])[H])C([H])([H])C3([H])[H])c([H])c([H])c2C1([H])[H]

>  <smiles>  (81) 
[H]c1c([H])c([H])c2c(c1[H])C([H])([H])C([H])([H])C([H])([H])C2([H])N([H])C(=O)C1([H])N(C(=O)C([H])(N([H])C(=O)C([H])(N([H])C([H])([H])[H])C([H])([H])[H])C(C([H])([H])[H])(C([H])([H])[H])C([H])([H])[H])C([H])([H])c2c([H])c(OC([H])([H])C([H])([H])[N+]3([H])C([H])([H])N([H])C([H])([H])C([H])([H])N(C(=O)C([H])([H])OC([H])([H])C([H])([H])OC([H])([H])C([H])([H])OC([H])([H])C([H])([H])N([H])C(=O)N4C([H])([H])C([H])([H])C([H])([H])C([H])(n5nc(-c6c([H])c([H])c(Oc7c([H])c([H])c(F)c([H])c7F)c([H])c6[H])c(C(=O)N([H])[H])c5N([H])[H])C4([H])[H])C([H])([H])C3([H])[H])c([H])c([H])c2C1([H])[H]

$$$$
84:0:0
     RDKit          3D

104112  0  0  1  0  0  0  0  0999 V2000
  -29.2260  -20.3630   20.6710 N   0  0  0  0  0  0  0  0  0  0  0  0
  -32.4910  -18.5760   20.3250 C   0  0  0  0  0  3  0  0  0  0  0  0
  -32.0920  -17.2380   20.4750 C   0  0  0  0  0  3  0  0  0  0  0  0
  -31.5360  -19.6050   20.3830 C   0  0  0  0  0  3  0  0  0  0  0  0
  -29.7620  -17.9580   20.7300 C   0  0  0  0  0  0  0  0  0  0  0  0
  -30.7300  -16.9210   20.6680 C   0  0  0  0  0  0  0  0  0  0  0  0
  -30.1670  -19.3150   20.5910 C   0  0  0  0  0  0  0  0  0  0  0  0
  -28.2910  -17.5890   20.8960 C   0  0  0  0  0  1  0  0  0  0  0  0
  -30.9970  -14.4860   20.4230 C   0  0  0  0  0  0  0  0  0  0  0  0
  -30.7340  -12.1280   19.7540 C   0  0  0  0  0  2  0  0  0  0  0  0
  -29.9630  -12.0470   18.4210 C   0  0  0  0  0  2  0  0  0  0  0  0
  -28.4420  -12.0390   18.6680 C   0  0  0  0  0  2  0  0  0  0  0  0
  -27.9870  -13.1720   19.6250 C   0  0  0  0  0  3  0  0  0  0  0  0
  -28.8740  -13.2050   20.8900 C   0  0  0  0  0  2  0  0  0  0  0  0
  -30.2790  -13.3330   20.4610 N   0  0  0  0  0  0  0  0  0  0  0  0
  -32.1470  -14.5500   19.9760 O   0  0  0  0  0  0  0  0  0  0  0  0
  -30.3310  -15.5700   20.8460 N   0  0  0  0  0  0  0  0  0  0  0  0
  -29.3710  -15.4070   21.1030 H   0  0  0  0  0  0  0  0  0  0  0  0
  -25.5820  -14.0220   19.9830 C   0  0  0  0  0  0  0  0  0  0  0  0
  -24.4210  -13.3720   20.2970 C   0  0  0  0  0  0  0  0  0  0  0  0
  -24.7670  -11.9930   20.4390 C   0  0  0  0  0  0  0  0  0  0  0  0
  -26.5700  -13.0500   19.9590 N   0  0  0  0  0  0  0  0  0  0  0  0
  -26.0750  -11.8290   20.2870 N   0  0  0  0  0  0  0  0  0  0  0  0
  -23.9220  -10.8120   20.6540 C   0  0  0  0  0  0  0  0  0  0  0  0
  -24.1110   -9.9620   21.7650 C   0  0  0  0  0  3  0  0  0  0  0  0
  -23.2740   -8.8420   21.9590 C   0  0  0  0  0  3  0  0  0  0  0  0
  -22.2330   -8.5660   21.0400 C   0  0  0  0  0  0  0  0  0  0  0  0
  -22.0650   -9.4030   19.9230 C   0  0  0  0  0  3  0  0  0  0  0  0
  -22.9020  -10.5130   19.7280 C   0  0  0  0  0  3  0  0  0  0  0  0
  -21.3880   -7.4870   21.1340 O   0  0  0  0  0  0  0  0  0  0  0  0
  -21.0350   -6.9530   22.3480 C   0  0  0  0  0  0  0  0  0  0  0  0
  -20.4090   -7.7290   23.3480 C   0  0  0  0  0  3  0  0  0  0  0  0
  -19.9990   -7.1240   24.5540 C   0  0  0  0  0  3  0  0  0  0  0  0
  -20.2050   -5.7470   24.7580 C   0  0  0  0  0  0  0  0  0  0  0  0
  -20.8240   -4.9730   23.7600 C   0  0  0  0  0  3  0  0  0  0  0  0
  -21.2350   -5.5740   22.5580 C   0  0  0  0  0  0  0  0  0  0  0  0
  -21.8120   -4.8190   21.5910 F   0  0  0  0  0  0  0  0  0  0  0  0
  -19.8050   -5.1650   25.9120 F   0  0  0  0  0  0  0  0  0  0  0  0
  -23.0460  -13.9750   20.3640 C   0  0  0  0  0  0  0  0  0  0  0  0
  -22.1860  -13.4440   21.2260 N   0  0  0  0  0  0  0  0  0  0  0  0
  -22.7440  -14.9530   19.6830 O   0  0  0  0  0  0  0  0  0  0  0  0
  -22.4400  -12.6520   21.7950 H   0  0  0  0  0  0  0  0  0  0  0  0
  -21.2590  -13.8360   21.3150 H   0  0  0  0  0  0  0  0  0  0  0  0
  -25.8760  -15.3510   19.6960 N   0  0  0  0  0  0  0  0  0  0  0  0
  -25.1450  -16.0510   19.6190 H   0  0  0  0  0  0  0  0  0  0  0  0
  -26.7690  -15.6710   19.3510 H   0  0  0  0  0  0  0  0  0  0  0  0
  -29.3040  -21.4260   19.6670 C   0  0  0  0  0  2  0  0  0  0  0  0
  -28.8650  -20.9530   18.2670 C   0  0  0  0  0  2  0  0  0  0  0  0
  -28.6690  -22.1180   17.2910 C   0  0  0  0  0  2  0  0  0  0  0  0
  -27.7660  -23.0540   17.8640 O   0  0  0  0  0  0  0  0  0  0  0  0
  -27.6600  -24.2520   17.1100 C   0  0  0  0  0  2  0  0  0  0  0  0
  -27.2320  -25.3900   18.0420 C   0  0  0  0  0  2  0  0  0  0  0  0
  -28.2720  -25.6550   19.1480 C   0  0  0  0  0  2  0  0  0  0  0  0
  -28.2790  -27.0170   19.5530 O   0  0  0  0  0  0  0  0  0  0  0  0
  -27.7670  -32.0450   24.5000 C   0  0  0  0  0  0  0  0  0  0  0  0
  -27.5820  -27.4230   20.6680 C   0  0  0  0  0  0  0  0  0  0  0  0
  -26.3480  -30.0520   24.8690 C   0  0  0  0  0  3  0  0  0  0  0  0
  -26.1880  -28.4290   22.9110 C   0  0  0  0  0  0  0  0  0  0  0  0
  -27.0250  -30.7520   22.5060 C   0  0  0  0  0  2  0  0  0  0  0  0
  -26.9600  -29.2890   22.1230 C   0  0  0  0  0  0  0  0  0  0  0  0
  -27.6550  -28.7910   21.0040 C   0  0  0  0  0  3  0  0  0  0  0  0
  -26.8060  -26.5600   21.4780 C   0  0  0  0  0  3  0  0  0  0  0  0
  -26.1090  -27.0610   22.5950 C   0  0  0  0  0  3  0  0  0  0  0  0
  -25.4640  -29.0450   24.0850 C   0  0  0  0  0  2  0  0  0  0  0  0
  -27.1010  -30.9830   23.9670 N   0  0  0  0  0  0  0  0  0  0  0  0
  -27.7290  -32.2800   25.7150 O   0  0  0  0  0  0  0  0  0  0  0  0
  -27.2630  -29.2590   25.8300 C   0  0  0  0  0  0  0  0  0  0  0  0
  -26.7880  -29.0470   27.0670 N   0  0  0  0  0  0  0  0  0  0  0  0
  -28.3560  -28.8260   25.4510 O   0  0  0  0  0  0  0  0  0  0  0  0
  -25.8860  -29.4390   27.3010 H   0  0  0  0  0  0  0  0  0  0  0  0
  -26.6340  -28.2070   30.5760 C   0  0  0  0  0  0  0  0  0  0  0  0
  -27.4560  -28.2950   28.1280 C   0  0  0  0  0  3  0  0  0  0  0  0
  -27.0940  -26.7930   28.0570 C   0  0  0  0  0  2  0  0  0  0  0  0
  -25.8990  -26.4220   28.9410 C   0  0  0  0  0  2  0  0  0  0  0  0
  -26.1840  -26.7660   30.4060 C   0  0  0  0  0  2  0  0  0  0  0  0
  -27.2180  -28.9300   29.5020 C   0  0  0  0  0  0  0  0  0  0  0  0
  -27.5870  -30.2780   29.7050 C   0  0  0  0  0  3  0  0  0  0  0  0
  -27.3840  -30.9010   30.9500 C   0  0  0  0  0  3  0  0  0  0  0  0
  -26.8200  -30.1760   32.0140 C   0  0  0  0  0  3  0  0  0  0  0  0
  -26.4510  -28.8320   31.8270 C   0  0  0  0  0  3  0  0  0  0  0  0
  -28.5910  -33.0270   23.6080 C   0  0  0  0  0  3  0  0  0  0  0  0
  -28.2910  -34.3920   24.0600 N   0  0  0  0  0  0  0  0  0  0  0  0
  -27.5430  -35.2700   23.3790 C   0  0  0  0  0  0  0  0  0  0  0  0
  -27.0880  -35.0340   22.2570 O   0  0  0  0  0  0  0  0  0  0  0  0
  -28.5840  -34.6330   24.9960 H   0  0  0  0  0  0  0  0  0  0  0  0
  -25.7860  -36.6680   24.5100 C   0  0  0  0  0  1  0  0  0  0  0  0
  -27.2530  -36.6260   24.0510 C   0  0  0  0  0  3  0  0  0  0  0  0
  -28.9650  -37.9970   22.9490 C   0  0  0  0  0  1  0  0  0  0  0  0
  -27.5380  -37.7870   23.1800 N   0  0  0  0  0  0  0  0  0  0  0  0
  -27.1540  -38.6380   23.5790 H   0  0  0  0  0  0  0  0  0  0  0  0
  -30.1450  -32.7530   23.6500 C   0  0  1  0  0  0  0  0  0  0  0  0
  -30.7100  -32.6090   25.0810 C   0  0  0  0  0  1  0  0  0  0  0  0
  -30.4920  -31.4610   22.8730 C   0  0  0  0  0  1  0  0  0  0  0  0
  -30.9010  -33.9070   22.9500 C   0  0  0  0  0  1  0  0  0  0  0  0
  -28.8220  -20.7110   22.0320 C   0  0  0  0  0  2  0  0  0  0  0  0
  -29.9450  -21.3590   22.8670 C   0  0  0  0  0  2  0  0  0  0  0  0
  -30.1330  -20.7130   24.2540 C   0  0  0  0  0  2  0  0  0  0  0  0
  -30.2580  -19.2410   24.1690 N   0  0  0  0  0  4  0  0  0  0  0  0
  -30.9820  -18.9990   23.5070 H   0  0  0  0  0  0  0  0  0  0  0  0
  -29.3920  -18.8560   23.8250 H   0  0  0  0  0  0  0  0  0  0  0  0
  -30.5940  -18.5620   25.4390 C   0  0  0  0  0  2  0  0  0  0  0  0
  -30.8480  -17.0710   25.1880 C   0  0  0  0  0  2  0  0  0  0  0  0
  -31.8540  -15.6090   23.6300 C   0  0  0  0  0  1  0  0  0  0  0  0
  -31.6810  -16.9590   24.0380 O   0  0  0  0  0  0  0  0  0  0  0  0
  1 95  1  0
  2  4  2  0
  2  3  1  0
  3  6  2  0
  4  7  1  0
  5  8  1  0
  6  5  1  0
  6 17  1  0
  7  1  1  0
  7  5  2  0
  9 15  1  0
  9 17  1  0
 10 15  1  0
 11 12  1  0
 11 10  1  0
 13 12  1  0
 13 22  1  0
 13 14  1  0
 15 14  1  0
 16  9  2  0
 17 18  1  0
 19 20  2  0
 20 39  1  0
 20 21  1  0
 21 24  1  0
 22 19  1  0
 22 23  1  0
 23 21  2  0
 24 25  1  0
 25 26  2  0
 27 30  1  0
 27 26  1  0
 28 27  2  0
 29 28  1  0
 29 24  2  0
 30 31  1  0
 31 36  2  0
 31 32  1  0
 32 33  2  0
 33 34  1  0
 34 38  1  0
 35 34  2  0
 36 35  1  0
 37 36  1  0
 39 40  1  0
 40 43  1  0
 40 42  1  0
 41 39  2  0
 44 19  1  0
 45 44  1  0
 46 44  1  0
 47  1  1  0
 48 47  1  0
 49 50  1  0
 49 48  1  0
 51 50  1  0
 51 52  1  0
 52 53  1  0
 53 54  1  0
 54 56  1  0
 55 66  2  0
 56 61  2  0
 56 62  1  0
 57 67  1  0
 58 64  1  0
 59 65  1  0
 60 59  1  0
 60 58  2  0
 61 60  1  0
 62 63  2  0
 63 58  1  0
 64 57  1  0
 65 55  1  0
 65 57  1  0
 67 68  1  0
 68 70  1  0
 69 67  2  0
 71 80  1  0
 72 68  1  0
 72 76  1  0
 73 72  1  0
 73 74  1  0
 74 75  1  0
 75 71  1  0
 76 77  1  0
 76 71  2  0
 77 78  2  0
 78 79  1  0
 80 79  2  0
 81 91  1  0
 81 82  1  0
 81 55  1  0
 82 85  1  0
 83 87  1  0
 83 82  1  0
 84 83  2  0
 87 86  1  0
 88 89  1  0
 89 90  1  0
 89 87  1  0
 91 92  1  1
 93 91  1  0
 94 91  1  0
 95 96  1  0
 96 97  1  0
 98 97  1  0
 98101  1  0
 99 98  1  0
100 98  1  0
102101  1  0
103104  1  0
104102  1  0
M  ISO  4   9 100  17 100  53 101  54 101
M  END
>  <TORSDO>  (82) 
F 31

>  <SCORE>  (82) 
3.275

>  <name>  (82) 
84

>  <ligand_id>  (82) 
84

>  <original_smiles>  (82) 
[H]c1c([H])c(N([H])C(=O)N2C([H])([H])C([H])([H])C([H])([H])C([H])(n3nc(-c4c([H])c([H])c(Oc5c([H])c([H])c(F)c([H])c5F)c([H])c4[H])c(C(=O)N([H])[H])c3N([H])[H])C2([H])[H])c(C([H])([H])[H])c(N(C([H])([H])C([H])([H])C([H])([H])OC([H])([H])C([H])([H])C([H])([H])Oc2c([H])c([H])c3c(c2[H])C([H])([H])N(C(=O)C([H])(N([H])C(=O)C([H])(N([H])C([H])([H])[H])C([H])([H])[H])C(C([H])([H])[H])(C([H])([H])[H])C([H])([H])[H])C([H])(C(=O)N([H])C2([H])c4c([H])c([H])c([H])c([H])c4C([H])([H])C([H])([H])C2([H])[H])C3([H])[H])C([H])([H])C([H])([H])C([H])([H])[N+]([H])([H])C([H])([H])C([H])([H])OC([H])([H])[H])c1[H]

>  <smiles>  (82) 
[H]c1c([H])c(N([H])C(=O)N2C([H])([H])C([H])([H])C([H])([H])C([H])(n3nc(-c4c([H])c([H])c(Oc5c([H])c([H])c(F)c([H])c5F)c([H])c4[H])c(C(=O)N([H])[H])c3N([H])[H])C2([H])[H])c(C([H])([H])[H])c(N(C([H])([H])C([H])([H])C([H])([H])OC([H])([H])C([H])([H])C([H])([H])Oc2c([H])c([H])c3c(c2[H])C([H])([H])N(C(=O)C([H])(N([H])C(=O)C([H])(N([H])C([H])([H])[H])C([H])([H])[H])C(C([H])([H])[H])(C([H])([H])[H])C([H])([H])[H])C([H])(C(=O)N([H])C2([H])c4c([H])c([H])c([H])c([H])c4C([H])([H])C([H])([H])C2([H])[H])C3([H])[H])C([H])([H])C([H])([H])C([H])([H])[N+]([H])([H])C([H])([H])C([H])([H])OC([H])([H])[H])c1[H]

$$$$
85:0:0
     RDKit          3D

110117  0  0  1  0  0  0  0  0999 V2000
  -28.3710  -18.7650   18.2230 C   0  0  0  0  0  2  0  0  0  0  0  0
  -27.8870  -18.8830   16.7630 C   0  0  0  0  0  2  0  0  0  0  0  0
  -28.3600  -20.1320   16.1230 N   0  0  0  0  0  4  0  0  0  0  0  0
  -28.3490  -20.8610   16.8220 H   0  0  0  0  0  0  0  0  0  0  0  0
  -27.7030  -20.4030   15.4090 H   0  0  0  0  0  0  0  0  0  0  0  0
  -29.7280  -20.0920   15.5580 C   0  0  0  0  0  2  0  0  0  0  0  0
  -29.7360  -20.3010   14.0330 C   0  0  0  0  0  2  0  0  0  0  0  0
  -28.9770  -21.5660   13.5930 C   0  0  0  0  0  2  0  0  0  0  0  0
  -29.3210  -22.7320   14.3290 O   0  0  0  0  0  0  0  0  0  0  0  0
  -30.6810  -23.1430   14.2450 C   0  0  0  0  0  2  0  0  0  0  0  0
  -31.4890  -21.9840   13.6470 C   0  0  0  0  0  2  0  0  0  0  0  0
  -30.9760  -21.6450   12.3640 O   0  0  0  0  0  0  0  0  0  0  0  0
  -31.9710  -21.7480   11.3520 C   0  0  0  0  0  2  0  0  0  0  0  0
  -32.0620  -20.4490   10.5410 C   0  0  0  0  0  2  0  0  0  0  0  0
  -33.4360  -20.0790   10.4620 O   0  0  0  0  0  0  0  0  0  0  0  0
  -39.1650  -17.1610   13.6360 C   0  0  0  0  0  0  0  0  0  0  0  0
  -34.0030  -19.3170   11.4610 C   0  0  0  0  0  0  0  0  0  0  0  0
  -36.9510  -16.3700   14.4170 C   0  0  0  0  0  3  0  0  0  0  0  0
  -34.9480  -17.7150   13.5910 C   0  0  0  0  0  0  0  0  0  0  0  0
  -37.2340  -18.7170   13.4490 C   0  0  0  0  0  2  0  0  0  0  0  0
  -35.8090  -18.6180   12.9560 C   0  0  0  0  0  0  0  0  0  0  0  0
  -35.3490  -19.4130   11.8860 C   0  0  0  0  0  3  0  0  0  0  0  0
  -33.1510  -18.3930   12.1020 C   0  0  0  0  0  3  0  0  0  0  0  0
  -33.6150  -17.5900   13.1620 C   0  0  0  0  0  3  0  0  0  0  0  0
  -35.5270  -16.9060   14.7300 C   0  0  0  0  0  2  0  0  0  0  0  0
  -37.8350  -17.4100   13.7970 N   0  0  0  0  0  0  0  0  0  0  0  0
  -39.6690  -16.1020   14.0340 O   0  0  0  0  0  0  0  0  0  0  0  0
  -36.8180  -15.0920   13.5590 C   0  0  0  0  0  0  0  0  0  0  0  0
  -37.2980  -13.9590   14.0970 N   0  0  0  0  0  0  0  0  0  0  0  0
  -36.2700  -15.1260   12.4550 O   0  0  0  0  0  0  0  0  0  0  0  0
  -37.7390  -14.0170   15.0040 H   0  0  0  0  0  0  0  0  0  0  0  0
  -39.2300  -10.9720   13.4810 C   0  0  0  0  0  0  0  0  0  0  0  0
  -37.2480  -12.6320   13.4900 C   0  0  0  0  0  3  0  0  0  0  0  0
  -36.5370  -11.6210   14.4180 C   0  0  0  0  0  2  0  0  0  0  0  0
  -37.5030  -10.8540   15.3270 C   0  0  0  0  0  2  0  0  0  0  0  0
  -38.5280  -10.0820   14.4940 C   0  0  0  0  0  2  0  0  0  0  0  0
  -38.6350  -12.1770   13.0220 C   0  0  0  0  0  0  0  0  0  0  0  0
  -39.3440  -12.9870   12.1080 C   0  0  0  0  0  3  0  0  0  0  0  0
  -40.6210  -12.6090   11.6520 C   0  0  0  0  0  3  0  0  0  0  0  0
  -41.1980  -11.4070   12.0980 C   0  0  0  0  0  3  0  0  0  0  0  0
  -40.5010  -10.5910   13.0060 C   0  0  0  0  0  3  0  0  0  0  0  0
  -40.1190  -18.2010   12.9680 C   0  0  0  0  0  3  0  0  0  0  0  0
  -41.3800  -18.1900   13.7200 N   0  0  0  0  0  0  0  0  0  0  0  0
  -42.4860  -18.8530   13.3570 C   0  0  0  0  0  0  0  0  0  0  0  0
  -42.5710  -19.4890   12.3020 O   0  0  0  0  0  0  0  0  0  0  0  0
  -41.3670  -17.7350   14.6210 H   0  0  0  0  0  0  0  0  0  0  0  0
  -43.7270  -20.0910   15.1590 C   0  0  0  0  0  1  0  0  0  0  0  0
  -43.6880  -18.8050   14.3180 C   0  0  0  0  0  3  0  0  0  0  0  0
  -45.1300  -17.3030   13.0170 C   0  0  0  0  0  1  0  0  0  0  0  0
  -44.9850  -18.6200   13.6300 N   0  0  0  0  0  0  0  0  0  0  0  0
  -45.7580  -18.7560   14.2760 H   0  0  0  0  0  0  0  0  0  0  0  0
  -40.3750  -17.9180   11.4370 C   0  0  1  0  0  0  0  0  0  0  0  0
  -40.8640  -16.4800   11.1470 C   0  0  0  0  0  1  0  0  0  0  0  0
  -39.0870  -18.1550   10.6150 C   0  0  0  0  0  1  0  0  0  0  0  0
  -41.4360  -18.9030   10.8920 C   0  0  0  0  0  1  0  0  0  0  0  0
  -27.7740  -19.8580   19.1390 C   0  0  0  0  0  2  0  0  0  0  0  0
  -25.4770  -20.3280   18.1260 C   0  0  0  0  0  0  0  0  0  0  0  0
  -26.6960  -20.6770   18.5680 N   0  0  0  0  0  0  0  0  0  0  0  0
  -25.0740  -19.1660   18.0860 O   0  0  0  0  0  0  0  0  0  0  0  0
  -26.8950  -21.6690   18.5330 H   0  0  0  0  0  0  0  0  0  0  0  0
  -24.7210  -21.4880   17.6870 C   0  0  0  0  0  3  0  0  0  0  0  0
  -25.3390  -22.6500   17.4110 C   0  0  0  0  0  3  0  0  0  0  0  0
  -24.6320  -23.9130   16.9550 C   0  0  0  0  0  2  0  0  0  0  0  0
  -24.1470  -24.6770   18.0520 O   0  0  0  0  0  0  0  0  0  0  0  0
  -25.1460  -25.4280   18.7400 C   0  0  0  0  0  2  0  0  0  0  0  0
  -26.1290  -26.0280   17.7180 C   0  0  0  0  0  2  0  0  0  0  0  0
  -27.4050  -25.3880   17.7710 O   0  0  0  0  0  0  0  0  0  0  0  0
  -27.8310  -25.0060   19.0800 C   0  0  0  0  0  2  0  0  0  0  0  0
  -29.3220  -24.6280   19.1470 C   0  0  0  0  0  2  0  0  0  0  0  0
  -30.0760  -25.2210   18.0930 O   0  0  0  0  0  0  0  0  0  0  0  0
  -29.5510  -25.0410   16.7790 C   0  0  0  0  0  2  0  0  0  0  0  0
  -28.3280  -24.1060   16.6950 C   0  0  0  0  0  2  0  0  0  0  0  0
  -29.3970  -22.3710   18.2550 C   0  0  0  0  0  0  0  0  0  0  0  0
  -31.5000  -23.0450   19.3220 C   0  0  0  0  0  2  0  0  0  0  0  0
  -31.5880  -22.9650   20.8530 C   0  0  0  0  0  2  0  0  0  0  0  0
  -31.0560  -24.2570   21.4870 C   0  0  0  0  0  2  0  0  0  0  0  0
  -29.6460  -24.6190   20.9700 C   0  0  0  0  0  3  0  0  0  0  0  0
  -29.5840  -24.5910   19.4370 C   0  0  0  0  0  2  0  0  0  0  0  0
  -30.1190  -23.3230   18.9010 N   0  0  0  0  0  0  0  0  0  0  0  0
  -29.6270  -21.1660   18.3730 O   0  0  0  0  0  0  0  0  0  0  0  0
  -28.5760  -22.7740   17.2650 N   0  0  0  0  0  0  0  0  0  0  0  0
  -28.1380  -22.0100   16.7710 H   0  0  0  0  0  0  0  0  0  0  0  0
  -29.1500  -27.1480   20.8580 C   0  0  0  0  0  0  0  0  0  0  0  0
  -28.5880  -28.0110   21.7600 C   0  0  0  0  0  0  0  0  0  0  0  0
  -28.3130  -27.2380   22.9270 C   0  0  0  0  0  0  0  0  0  0  0  0
  -29.1990  -25.9150   21.4900 N   0  0  0  0  0  0  0  0  0  0  0  0
  -28.7420  -25.9930   22.7670 N   0  0  0  0  0  0  0  0  0  0  0  0
  -27.6120  -27.5950   24.1680 C   0  0  0  0  0  0  0  0  0  0  0  0
  -28.2640  -27.5660   25.4190 C   0  0  0  0  0  3  0  0  0  0  0  0
  -27.5770  -27.9310   26.5960 C   0  0  0  0  0  3  0  0  0  0  0  0
  -26.2200  -28.3300   26.5280 C   0  0  0  0  0  0  0  0  0  0  0  0
  -25.5670  -28.3360   25.2830 C   0  0  0  0  0  3  0  0  0  0  0  0
  -26.2550  -27.9670   24.1130 C   0  0  0  0  0  3  0  0  0  0  0  0
  -25.4640  -28.6730   27.6250 O   0  0  0  0  0  0  0  0  0  0  0  0
  -26.0320  -29.1990   28.7570 C   0  0  0  0  0  0  0  0  0  0  0  0
  -27.0570  -30.1680   28.6960 C   0  0  0  0  0  3  0  0  0  0  0  0
  -27.5640  -30.7340   29.8830 C   0  0  0  0  0  3  0  0  0  0  0  0
  -27.0390  -30.3420   31.1290 C   0  0  0  0  0  0  0  0  0  0  0  0
  -26.0190  -29.3780   31.1920 C   0  0  0  0  0  3  0  0  0  0  0  0
  -25.5110  -28.8140   30.0090 C   0  0  0  0  0  0  0  0  0  0  0  0
  -24.5110  -27.9030   30.0760 F   0  0  0  0  0  0  0  0  0  0  0  0
  -27.5210  -30.8900   32.2690 F   0  0  0  0  0  0  0  0  0  0  0  0
  -28.2380  -29.4520   21.5220 C   0  0  0  0  0  0  0  0  0  0  0  0
  -28.7270  -30.3490   22.3720 N   0  0  0  0  0  0  0  0  0  0  0  0
  -27.5700  -29.7940   20.5470 O   0  0  0  0  0  0  0  0  0  0  0  0
  -29.2950  -30.0640   23.1550 H   0  0  0  0  0  0  0  0  0  0  0  0
  -28.5230  -31.3300   22.2430 H   0  0  0  0  0  0  0  0  0  0  0  0
  -29.6060  -27.2970   19.5510 N   0  0  0  0  0  0  0  0  0  0  0  0
  -29.4960  -28.1620   19.0300 H   0  0  0  0  0  0  0  0  0  0  0  0
  -29.9390  -26.5290   18.9810 H   0  0  0  0  0  0  0  0  0  0  0  0
  1 56  1  0
  2  1  1  0
  3  2  1  0
  3  4  1  0
  5  3  1  0
  6  3  1  0
  7  6  1  0
  8  7  1  0
  8  9  1  0
 10  9  1  0
 11 10  1  0
 12 11  1  0
 13 12  1  0
 14 13  1  0
 15 14  1  0
 15 17  1  0
 16 26  1  0
 16 27  2  0
 17 22  2  0
 17 23  1  0
 18 28  1  0
 18 25  1  0
 19 25  1  0
 20 26  1  0
 21 20  1  0
 21 19  2  0
 22 21  1  0
 23 24  2  0
 24 19  1  0
 26 18  1  0
 28 29  1  0
 29 31  1  0
 30 28  2  0
 32 36  1  0
 33 29  1  0
 33 34  1  0
 34 35  1  0
 36 35  1  0
 37 32  1  0
 37 33  1  0
 38 37  2  0
 39 40  2  0
 39 38  1  0
 40 41  1  0
 41 32  2  0
 42 16  1  0
 42 43  1  0
 43 46  1  0
 44 43  1  0
 44 48  1  0
 45 44  2  0
 48 47  1  0
 49 50  1  0
 50 51  1  0
 50 48  1  0
 52 42  1  0
 52 53  1  1
 54 52  1  0
 55 52  1  0
 57 58  1  0
 58 56  1  0
 59 57  2  0
 60 58  1  0
 61 57  1  0
 62 61  2  0
 63 62  1  0
 63 64  1  0
 64 65  1  0
 66 67  1  0
 66 65  1  0
 67 68  1  0
 68 69  1  0
 70 69  1  0
 71 70  1  0
 72 71  1  0
 72 81  1  0
 73 80  2  0
 73 79  1  0
 74 75  1  0
 75 76  1  0
 77 78  1  0
 77 76  1  0
 77 86  1  0
 79 74  1  0
 79 78  1  0
 81 73  1  0
 82 81  1  0
 83 86  1  0
 83 84  2  0
 84 85  1  0
 85 88  1  0
 86 87  1  0
 87 85  2  0
 88 89  1  0
 89 90  2  0
 91 90  1  0
 91 94  1  0
 92 91  2  0
 93 88  2  0
 93 92  1  0
 94 95  1  0
 95100  1  0
 96 95  2  0
 96 97  1  0
 97 98  2  0
 98 99  1  0
 98102  1  0
100101  1  0
100 99  2  0
103 84  1  0
103104  1  0
104106  1  0
105103  2  0
107104  1  0
108 83  1  0
109108  1  0
110108  1  0
M  ISO  4  14 101  15 101  73 100  81 100
M  END
>  <TORSDO>  (83) 
F 40

>  <SCORE>  (83) 
0.301

>  <name>  (83) 
85

>  <ligand_id>  (83) 
85

>  <original_smiles>  (83) 
[H]C(C(=O)N([H])C([H])([H])C([H])([H])C([H])([H])[N+]([H])([H])C([H])([H])C([H])([H])C([H])([H])OC([H])([H])C([H])([H])OC([H])([H])C([H])([H])Oc1c([H])c([H])c2c(c1[H])C([H])([H])N(C(=O)C([H])(N([H])C(=O)C([H])(N([H])C([H])([H])[H])C([H])([H])[H])C(C([H])([H])[H])(C([H])([H])[H])C([H])([H])[H])C([H])(C(=O)N([H])C1([H])c3c([H])c([H])c([H])c([H])c3C([H])([H])C([H])([H])C1([H])[H])C2([H])[H])=C([H])C([H])([H])OC([H])([H])C([H])([H])OC([H])([H])C([H])([H])OC([H])([H])C([H])([H])N([H])C(=O)N1C([H])([H])C([H])([H])C([H])([H])C([H])(n2nc(-c3c([H])c([H])c(Oc4c([H])c([H])c(F)c([H])c4F)c([H])c3[H])c(C(=O)N([H])[H])c2N([H])[H])C1([H])[H]

>  <smiles>  (83) 
[H]C(C(=O)N([H])C([H])([H])C([H])([H])C([H])([H])[N+]([H])([H])C([H])([H])C([H])([H])C([H])([H])OC([H])([H])C([H])([H])OC([H])([H])C([H])([H])Oc1c([H])c([H])c2c(c1[H])C([H])([H])N(C(=O)C([H])(N([H])C(=O)C([H])(N([H])C([H])([H])[H])C([H])([H])[H])C(C([H])([H])[H])(C([H])([H])[H])C([H])([H])[H])C([H])(C(=O)N([H])C1([H])c3c([H])c([H])c([H])c([H])c3C([H])([H])C([H])([H])C1([H])[H])C2([H])[H])=C([H])C([H])([H])OC([H])([H])C([H])([H])OC([H])([H])C([H])([H])OC([H])([H])C([H])([H])N([H])C(=O)N1C([H])([H])C([H])([H])C([H])([H])C([H])(n2nc(-c3c([H])c([H])c(Oc4c([H])c([H])c(F)c([H])c4F)c([H])c3[H])c(C(=O)N([H])[H])c2N([H])[H])C1([H])[H]

$$$$
86:0:0
     RDKit          3D

111119  0  0  1  0  0  0  0  0999 V2000
  -29.8040  -23.9680   24.1310 C   0  0  0  0  0  2  0  0  0  0  0  0
  -28.8760  -24.2280   25.3370 C   0  0  0  0  0  2  0  0  0  0  0  0
  -27.6520  -26.2350   24.4330 C   0  0  0  0  0  0  0  0  0  0  0  0
  -27.6980  -25.0350   25.0260 N   0  0  0  0  0  0  0  0  0  0  0  0
  -28.6590  -26.8560   24.0820 O   0  0  0  0  0  0  0  0  0  0  0  0
  -26.8120  -24.6310   25.2960 H   0  0  0  0  0  0  0  0  0  0  0  0
  -26.2560  -26.8020   24.1490 C   0  0  0  0  0  2  0  0  0  0  0  0
  -26.2650  -28.1630   23.4170 C   0  0  0  0  0  2  0  0  0  0  0  0
  -26.5760  -28.1070   21.9000 C   0  0  0  0  0  2  0  0  0  0  0  0
  -27.7360  -29.0320   21.4910 C   0  0  0  0  0  2  0  0  0  0  0  0
  -29.0410  -28.5660   22.0320 N   0  0  0  0  0  4  0  0  0  0  0  0
  -29.6440  -28.3180   21.2630 H   0  0  0  0  0  0  0  0  0  0  0  0
  -28.8870  -27.7100   22.5680 H   0  0  0  0  0  0  0  0  0  0  0  0
  -29.7310  -29.5330   22.9210 C   0  0  0  0  0  2  0  0  0  0  0  0
  -31.2230  -29.7900   22.5390 C   0  0  0  0  0  2  0  0  0  0  0  0
  -32.0460  -30.2540   23.6290 O   0  0  0  0  0  0  0  0  0  0  0  0
  -28.1900  -32.0060   29.2210 C   0  0  0  0  0  0  0  0  0  0  0  0
  -31.4740  -31.3200   24.2710 C   0  0  0  0  0  0  0  0  0  0  0  0
  -28.1780  -33.6440   27.3660 C   0  0  0  0  0  3  0  0  0  0  0  0
  -29.9580  -33.2920   25.5700 C   0  0  0  0  0  0  0  0  0  0  0  0
  -30.2100  -32.1430   27.7820 C   0  0  0  0  0  2  0  0  0  0  0  0
  -30.5080  -32.2340   26.3040 C   0  0  0  0  0  0  0  0  0  0  0  0
  -31.2930  -31.2580   25.6650 C   0  0  0  0  0  3  0  0  0  0  0  0
  -30.9250  -32.3870   23.5310 C   0  0  0  0  0  3  0  0  0  0  0  0
  -30.1700  -33.3810   24.1820 C   0  0  0  0  0  3  0  0  0  0  0  0
  -29.1360  -34.3010   26.3350 C   0  0  0  0  0  2  0  0  0  0  0  0
  -28.8340  -32.5480   28.1510 N   0  0  0  0  0  0  0  0  0  0  0  0
  -27.0850  -32.4300   29.5860 O   0  0  0  0  0  0  0  0  0  0  0  0
  -26.9050  -33.1800   26.6230 C   0  0  0  0  0  0  0  0  0  0  0  0
  -26.3590  -34.0650   25.7730 N   0  0  0  0  0  0  0  0  0  0  0  0
  -26.4510  -32.0460   26.7950 O   0  0  0  0  0  0  0  0  0  0  0  0
  -26.7970  -34.9720   25.6930 H   0  0  0  0  0  0  0  0  0  0  0  0
  -24.8930  -34.8200   22.5570 C   0  0  0  0  0  0  0  0  0  0  0  0
  -25.1820  -33.8440   24.9350 C   0  0  0  0  0  3  0  0  0  0  0  0
  -25.2430  -32.4580   24.2510 C   0  0  0  0  0  2  0  0  0  0  0  0
  -25.8690  -32.5010   22.8550 C   0  0  0  0  0  2  0  0  0  0  0  0
  -25.0800  -33.4420   21.9400 C   0  0  0  0  0  2  0  0  0  0  0  0
  -24.9570  -35.0090   23.9640 C   0  0  0  0  0  0  0  0  0  0  0  0
  -24.8060  -36.3130   24.4850 C   0  0  0  0  0  3  0  0  0  0  0  0
  -24.5930  -37.4110   23.6310 C   0  0  0  0  0  3  0  0  0  0  0  0
  -24.5160  -37.2150   22.2410 C   0  0  0  0  0  3  0  0  0  0  0  0
  -24.6610  -35.9220   21.7070 C   0  0  0  0  0  3  0  0  0  0  0  0
  -28.8160  -30.8440   30.0530 C   0  0  0  0  0  3  0  0  0  0  0  0
  -28.2070  -29.4280   29.7090 C   0  0  1  0  0  0  0  0  0  0  0  0
  -26.7130  -29.4730   29.3090 C   0  0  0  0  0  1  0  0  0  0  0  0
  -28.9840  -28.7620   28.5500 C   0  0  0  0  0  1  0  0  0  0  0  0
  -28.3530  -28.4870   30.9260 C   0  0  0  0  0  1  0  0  0  0  0  0
  -28.6270  -31.1680   31.4740 N   0  0  0  0  0  0  0  0  0  0  0  0
  -29.4670  -31.9160   32.2020 C   0  0  0  0  0  0  0  0  0  0  0  0
  -30.5280  -32.3610   31.7580 O   0  0  0  0  0  0  0  0  0  0  0  0
  -27.7430  -30.9030   31.8870 H   0  0  0  0  0  0  0  0  0  0  0  0
  -28.6980  -33.7130   33.7840 C   0  0  0  0  0  1  0  0  0  0  0  0
  -29.0610  -32.2250   33.6550 C   0  0  0  0  0  3  0  0  0  0  0  0
  -30.3740  -30.4470   34.7220 C   0  0  0  0  0  1  0  0  0  0  0  0
  -30.1050  -31.8800   34.6450 N   0  0  0  0  0  0  0  0  0  0  0  0
  -29.8410  -32.2010   35.5720 H   0  0  0  0  0  0  0  0  0  0  0  0
  -29.0880  -23.6060   22.8170 C   0  0  0  0  0  2  0  0  0  0  0  0
  -29.5490  -24.5070   21.6580 C   0  0  0  0  0  2  0  0  0  0  0  0
  -28.5050  -24.6490   20.5370 C   0  0  0  0  0  2  0  0  0  0  0  0
  -28.5590  -26.0130   19.8200 C   0  0  0  0  0  2  0  0  0  0  0  0
  -29.8270  -25.9440   17.6820 C   0  0  0  0  0  0  0  0  0  0  0  0
  -29.7630  -26.1540   19.0020 N   0  0  0  0  0  0  0  0  0  0  0  0
  -28.8410  -25.6300   17.0100 O   0  0  0  0  0  0  0  0  0  0  0  0
  -30.6140  -26.4260   19.4780 H   0  0  0  0  0  0  0  0  0  0  0  0
  -31.1980  -26.0870   17.0040 C   0  0  0  0  0  3  0  0  0  0  0  0
  -31.5620  -26.8250   14.6310 C   0  0  0  0  0  0  0  0  0  0  0  0
  -31.1940  -27.8380   12.4160 C   0  0  0  0  0  2  0  0  0  0  0  0
  -30.0930  -28.9100   12.5170 C   0  0  0  0  0  2  0  0  0  0  0  0
  -28.6940  -28.2820   12.3590 C   0  0  0  0  0  2  0  0  0  0  0  0
  -28.4940  -27.0320   13.2590 C   0  0  0  0  0  3  0  0  0  0  0  0
  -29.6910  -26.0650   13.1200 C   0  0  0  0  0  2  0  0  0  0  0  0
  -30.9240  -26.8130   13.4320 N   0  0  0  0  0  0  0  0  0  0  0  0
  -32.5190  -27.5610   14.8890 O   0  0  0  0  0  0  0  0  0  0  0  0
  -31.0120  -26.0350   15.5580 N   0  0  0  0  0  0  0  0  0  0  0  0
  -30.2220  -25.4730   15.2710 H   0  0  0  0  0  0  0  0  0  0  0  0
  -26.2080  -26.0020   13.8490 C   0  0  0  0  0  0  0  0  0  0  0  0
  -25.2150  -25.4750   13.0710 C   0  0  0  0  0  0  0  0  0  0  0  0
  -25.6820  -25.5580   11.7230 C   0  0  0  0  0  0  0  0  0  0  0  0
  -27.2230  -26.3670   12.9770 N   0  0  0  0  0  0  0  0  0  0  0  0
  -26.9160  -26.0500   11.6930 N   0  0  0  0  0  0  0  0  0  0  0  0
  -25.0070  -25.2540   10.4550 C   0  0  0  0  0  0  0  0  0  0  0  0
  -25.4900  -24.2520    9.5830 C   0  0  0  0  0  3  0  0  0  0  0  0
  -24.8150  -23.9660    8.3770 C   0  0  0  0  0  3  0  0  0  0  0  0
  -23.6420  -24.6790    8.0330 C   0  0  0  0  0  0  0  0  0  0  0  0
  -23.1790  -25.6900    8.8930 C   0  0  0  0  0  3  0  0  0  0  0  0
  -23.8550  -25.9790   10.0900 C   0  0  0  0  0  3  0  0  0  0  0  0
  -22.9350  -24.4840    6.8720 O   0  0  0  0  0  0  0  0  0  0  0  0
  -22.8820  -23.2590    6.2580 C   0  0  0  0  0  0  0  0  0  0  0  0
  -22.2690  -22.1430    6.8700 C   0  0  0  0  0  3  0  0  0  0  0  0
  -22.1760  -20.9210    6.1750 C   0  0  0  0  0  3  0  0  0  0  0  0
  -22.6830  -20.8150    4.8660 C   0  0  0  0  0  0  0  0  0  0  0  0
  -23.2850  -21.9260    4.2500 C   0  0  0  0  0  3  0  0  0  0  0  0
  -23.3800  -23.1460    4.9440 C   0  0  0  0  0  0  0  0  0  0  0  0
  -23.9450  -24.2190    4.3400 F   0  0  0  0  0  0  0  0  0  0  0  0
  -22.5840  -19.6440    4.1930 F   0  0  0  0  0  0  0  0  0  0  0  0
  -23.8650  -25.0040   13.5330 C   0  0  0  0  0  0  0  0  0  0  0  0
  -23.3310  -23.9550   12.9200 N   0  0  0  0  0  0  0  0  0  0  0  0
  -23.2960  -25.5390   14.4850 O   0  0  0  0  0  0  0  0  0  0  0  0
  -23.8050  -23.4950   12.1540 H   0  0  0  0  0  0  0  0  0  0  0  0
  -22.4320  -23.6060   13.2190 H   0  0  0  0  0  0  0  0  0  0  0  0
  -26.3300  -26.2170   15.2200 N   0  0  0  0  0  0  0  0  0  0  0  0
  -25.5960  -25.9760   15.8780 H   0  0  0  0  0  0  0  0  0  0  0  0
  -27.1650  -26.5700   15.6700 H   0  0  0  0  0  0  0  0  0  0  0  0
  -32.2520  -25.0660   17.4900 C   0  0  0  0  0  2  0  0  0  0  0  0
  -31.8350  -23.5910   17.3280 C   0  0  0  0  0  2  0  0  0  0  0  0
  -32.5870  -21.3450   20.9590 C   0  0  0  0  0  3  0  0  0  0  0  0
  -33.5600  -21.3770   19.9400 C   0  0  0  0  0  3  0  0  0  0  0  0
  -31.3680  -22.0310   20.7920 C   0  0  0  0  0  3  0  0  0  0  0  0
  -33.3170  -22.0990   18.7550 C   0  0  0  0  0  3  0  0  0  0  0  0
  -31.1250  -22.7530   19.6080 C   0  0  0  0  0  3  0  0  0  0  0  0
  -32.0990  -22.7900   18.5880 C   0  0  0  0  0  0  0  0  0  0  0  0
  1  2  1  0
  3  4  1  0
  4  6  1  0
  4  2  1  0
  5  3  2  0
  7  3  1  0
  8  7  1  0
  9  8  1  0
 10  9  1  0
 10 11  1  0
 11 13  1  0
 11 14  1  0
 12 11  1  0
 15 14  1  0
 15 16  1  0
 16 18  1  0
 17 28  2  0
 18 23  1  0
 19 29  1  0
 19 27  1  0
 20 22  1  0
 20 26  1  0
 21 27  1  0
 22 21  1  0
 23 22  2  0
 24 25  1  0
 24 18  2  0
 25 20  2  0
 26 19  1  0
 27 17  1  0
 29 31  2  0
 30 29  1  0
 32 30  1  0
 33 38  1  0
 34 30  1  0
 35 34  1  0
 36 35  1  0
 37 33  1  0
 37 36  1  0
 38 39  2  0
 38 34  1  0
 40 39  1  0
 41 40  2  0
 42 41  1  0
 42 33  2  0
 43 17  1  0
 43 48  1  0
 44 43  1  0
 44 47  1  1
 45 44  1  0
 46 44  1  0
 48 51  1  0
 48 49  1  0
 49 53  1  0
 50 49  2  0
 53 52  1  0
 53 55  1  0
 55 54  1  0
 55 56  1  0
 57  1  1  0
 58 57  1  0
 59 58  1  0
 60 59  1  0
 61 62  1  0
 62 64  1  0
 62 60  1  0
 63 61  2  0
 65104  1  0
 65 61  1  0
 66 73  2  0
 66 74  1  0
 67 68  1  0
 67 72  1  0
 69 68  1  0
 70 69  1  0
 71 70  1  0
 71 72  1  0
 72 66  1  0
 74 65  1  0
 75 74  1  0
 76101  1  0
 77 96  1  0
 77 76  2  0
 78 77  1  0
 79 70  1  0
 79 76  1  0
 80 78  2  0
 80 79  1  0
 81 78  1  0
 82 81  2  0
 83 82  1  0
 84 83  2  0
 84 85  1  0
 85 86  2  0
 86 81  1  0
 87 84  1  0
 88 89  1  0
 88 87  1  0
 90 89  2  0
 91 90  1  0
 92 91  2  0
 92 93  1  0
 93 88  2  0
 94 93  1  0
 95 91  1  0
 96 98  2  0
 97100  1  0
 97 96  1  0
 99 97  1  0
101103  1  0
101102  1  0
105104  1  0
105111  1  0
107106  2  0
108106  1  0
109107  1  0
110108  2  0
111109  2  0
111110  1  0
M  ISO  4  15 101  16 101  66 100  74 100
M  END
>  <TORSDO>  (84) 
F 34

>  <SCORE>  (84) 
0.587

>  <name>  (84) 
86

>  <ligand_id>  (84) 
86

>  <original_smiles>  (84) 
[H]c1c([H])c([H])c(C([H])([H])C([H])([H])C([H])(C(=O)N([H])C([H])([H])C([H])([H])C([H])([H])C([H])([H])C([H])([H])C([H])([H])N([H])C(=O)C([H])([H])C([H])([H])C([H])([H])C([H])([H])[N+]([H])([H])C([H])([H])C([H])([H])Oc2c([H])c([H])c3c(c2[H])C([H])([H])N(C(=O)C([H])(N([H])C(=O)C([H])(N([H])C([H])([H])[H])C([H])([H])[H])C(C([H])([H])[H])(C([H])([H])[H])C([H])([H])[H])C([H])(C(=O)N([H])C2([H])c4c([H])c([H])c([H])c([H])c4C([H])([H])C([H])([H])C2([H])[H])C3([H])[H])N([H])C(=O)N2C([H])([H])C([H])([H])C([H])([H])C([H])(n3nc(-c4c([H])c([H])c(Oc5c([H])c([H])c(F)c([H])c5F)c([H])c4[H])c(C(=O)N([H])[H])c3N([H])[H])C2([H])[H])c([H])c1[H]

>  <smiles>  (84) 
[H]c1c([H])c([H])c(C([H])([H])C([H])([H])C([H])(C(=O)N([H])C([H])([H])C([H])([H])C([H])([H])C([H])([H])C([H])([H])C([H])([H])N([H])C(=O)C([H])([H])C([H])([H])C([H])([H])C([H])([H])[N+]([H])([H])C([H])([H])C([H])([H])Oc2c([H])c([H])c3c(c2[H])C([H])([H])N(C(=O)C([H])(N([H])C(=O)C([H])(N([H])C([H])([H])[H])C([H])([H])[H])C(C([H])([H])[H])(C([H])([H])[H])C([H])([H])[H])C([H])(C(=O)N([H])C2([H])c4c([H])c([H])c([H])c([H])c4C([H])([H])C([H])([H])C2([H])[H])C3([H])[H])N([H])C(=O)N2C([H])([H])C([H])([H])C([H])([H])C([H])(n3nc(-c4c([H])c([H])c(Oc5c([H])c([H])c(F)c([H])c5F)c([H])c4[H])c(C(=O)N([H])[H])c3N([H])[H])C2([H])[H])c([H])c1[H]

$$$$
87:0:0
     RDKit          3D

108116  0  0  1  0  0  0  0  0999 V2000
  -24.7310  -20.2950   20.4230 C   0  0  0  0  0  2  0  0  0  0  0  0
  -26.8190  -22.7010   18.3080 C   0  0  0  0  0  2  0  0  0  0  0  0
  -25.2180  -24.0160   19.4650 C   0  0  0  0  0  2  0  0  0  0  0  0
  -26.5190  -21.4850   19.1910 C   0  0  0  0  0  2  0  0  0  0  0  0
  -24.7680  -22.7760   20.2870 C   0  0  0  0  0  2  0  0  0  0  0  0
  -26.6280  -23.9560   19.0400 N   0  0  0  0  0  0  0  0  0  0  0  0
  -25.0880  -21.4880   19.6010 N   0  0  2  0  0  4  0  0  0  0  0  0
  -24.5210  -21.4600   18.7630 H   0  0  0  0  0  0  0  0  0  0  0  0
  -26.9990  -25.1180   18.2230 C   0  0  0  0  0  2  0  0  0  0  0  0
  -28.4270  -25.1150   17.6370 C   0  0  0  0  0  2  0  0  0  0  0  0
  -28.4890  -26.2380   16.7710 O   0  0  0  0  0  0  0  0  0  0  0  0
  -29.4930  -26.1580   15.7690 C   0  0  0  0  0  2  0  0  0  0  0  0
  -29.2990  -27.3570   14.8310 C   0  0  0  0  0  2  0  0  0  0  0  0
  -28.0560  -27.2310   14.1120 O   0  0  0  0  0  0  0  0  0  0  0  0
  -24.8650  -28.0860   20.3970 C   0  0  0  0  0  0  0  0  0  0  0  0
  -26.8940  -27.4920   14.8090 C   0  0  0  0  0  0  0  0  0  0  0  0
  -23.3430  -27.8310   18.4570 C   0  0  0  0  0  3  0  0  0  0  0  0
  -24.4540  -27.9730   16.1630 C   0  0  0  0  0  0  0  0  0  0  0  0
  -25.6550  -28.8660   18.1690 C   0  0  0  0  0  2  0  0  0  0  0  0
  -25.6720  -28.2860   16.7750 C   0  0  0  0  0  0  0  0  0  0  0  0
  -26.8850  -28.0610   16.1020 C   0  0  0  0  0  3  0  0  0  0  0  0
  -25.6570  -27.2030   14.1920 C   0  0  0  0  0  3  0  0  0  0  0  0
  -24.4350  -27.4290   14.8650 C   0  0  0  0  0  3  0  0  0  0  0  0
  -23.2060  -28.2570   16.9670 C   0  0  0  0  0  2  0  0  0  0  0  0
  -24.6570  -28.2320   19.0580 N   0  0  0  0  0  0  0  0  0  0  0  0
  -23.9660  -27.6690   21.1410 O   0  0  0  0  0  0  0  0  0  0  0  0
  -23.0670  -26.3150   18.5500 C   0  0  0  0  0  0  0  0  0  0  0  0
  -21.7940  -25.9330   18.3630 N   0  0  0  0  0  0  0  0  0  0  0  0
  -23.9800  -25.5130   18.7560 O   0  0  0  0  0  0  0  0  0  0  0  0
  -21.1020  -26.6520   18.2050 H   0  0  0  0  0  0  0  0  0  0  0  0
  -18.8480  -23.9050   17.8760 C   0  0  0  0  0  0  0  0  0  0  0  0
  -21.3010  -24.5590   18.3590 C   0  0  0  0  0  3  0  0  0  0  0  0
  -21.6440  -23.8460   17.0290 C   0  0  0  0  0  2  0  0  0  0  0  0
  -20.5300  -23.9450   15.9850 C   0  0  0  0  0  2  0  0  0  0  0  0
  -19.2330  -23.3320   16.5230 C   0  0  0  0  0  2  0  0  0  0  0  0
  -19.8160  -24.4960   18.7300 C   0  0  0  0  0  0  0  0  0  0  0  0
  -19.4000  -25.0460   19.9630 C   0  0  0  0  0  3  0  0  0  0  0  0
  -18.0460  -25.0090   20.3460 C   0  0  0  0  0  3  0  0  0  0  0  0
  -17.0950  -24.4090   19.5050 C   0  0  0  0  0  3  0  0  0  0  0  0
  -17.4960  -23.8550   18.2750 C   0  0  0  0  0  3  0  0  0  0  0  0
  -26.2280  -28.4510   21.0660 C   0  0  0  0  0  3  0  0  0  0  0  0
  -27.1160  -27.1900   21.4000 C   0  0  1  0  0  0  0  0  0  0  0  0
  -26.3530  -26.0770   22.1540 C   0  0  0  0  0  1  0  0  0  0  0  0
  -27.6910  -26.5790   20.1000 C   0  0  0  0  0  1  0  0  0  0  0  0
  -28.3260  -27.6130   22.2660 C   0  0  0  0  0  1  0  0  0  0  0  0
  -25.9340  -29.2190   22.2820 N   0  0  0  0  0  0  0  0  0  0  0  0
  -26.0490  -30.5500   22.3850 C   0  0  0  0  0  0  0  0  0  0  0  0
  -26.4880  -31.2580   21.4750 O   0  0  0  0  0  0  0  0  0  0  0  0
  -25.5140  -28.7120   23.0470 H   0  0  0  0  0  0  0  0  0  0  0  0
  -24.2020  -31.8090   23.5370 C   0  0  0  0  0  1  0  0  0  0  0  0
  -25.6030  -31.2000   23.7080 C   0  0  0  0  0  3  0  0  0  0  0  0
  -27.8270  -31.6930   24.6230 C   0  0  0  0  0  1  0  0  0  0  0  0
  -26.5390  -32.2350   24.2010 N   0  0  0  0  0  0  0  0  0  0  0  0
  -26.1340  -32.7440   24.9830 H   0  0  0  0  0  0  0  0  0  0  0  0
  -25.5040  -19.0110   20.0490 C   0  0  0  0  0  2  0  0  0  0  0  0
  -26.1960  -19.2210   18.8300 O   0  0  0  0  0  0  0  0  0  0  0  0
  -27.3430  -18.3890   18.6910 C   0  0  0  0  0  2  0  0  0  0  0  0
  -28.1170  -18.7870   17.4220 C   0  0  0  0  0  2  0  0  0  0  0  0
  -29.4910  -19.0490   17.6700 O   0  0  0  0  0  0  0  0  0  0  0  0
  -29.7850  -19.7580   18.8680 C   0  0  0  0  0  2  0  0  0  0  0  0
  -31.2930  -20.0590   18.8860 C   0  0  0  0  0  2  0  0  0  0  0  0
  -32.0620  -18.8980   19.2260 O   0  0  0  0  0  0  0  0  0  0  0  0
  -33.3420  -18.9000   18.5920 C   0  0  0  0  0  2  0  0  0  0  0  0
  -34.3800  -18.0090   19.3020 C   0  0  0  0  0  2  0  0  0  0  0  0
  -34.1480  -16.6020   19.1470 O   0  0  0  0  0  0  0  0  0  0  0  0
  -35.3750  -15.8630   19.1080 C   0  0  0  0  0  2  0  0  0  0  0  0
  -35.2130  -14.3400   19.3290 C   0  0  0  0  0  2  0  0  0  0  0  0
  -34.9160  -13.9560   20.6790 O   0  0  0  0  0  0  0  0  0  0  0  0
  -36.0310  -13.8680   21.5750 C   0  0  0  0  0  2  0  0  0  0  0  0
  -36.6540  -12.4590   21.6690 C   0  0  0  0  0  2  0  0  0  0  0  0
  -35.8930  -10.1350   22.1330 C   0  0  0  0  0  0  0  0  0  0  0  0
  -35.0620   -8.0140   21.2320 C   0  0  0  0  0  2  0  0  0  0  0  0
  -34.8870   -8.1730   19.7060 C   0  0  0  0  0  2  0  0  0  0  0  0
  -33.5080   -8.7700   19.3670 C   0  0  0  0  0  2  0  0  0  0  0  0
  -33.1790  -10.0270   20.2120 C   0  0  0  0  0  3  0  0  0  0  0  0
  -33.4420   -9.7760   21.7130 C   0  0  0  0  0  2  0  0  0  0  0  0
  -34.8400   -9.3270   21.8520 N   0  0  0  0  0  0  0  0  0  0  0  0
  -37.0450   -9.7210   22.2940 O   0  0  0  0  0  0  0  0  0  0  0  0
  -35.6450  -11.4440   21.9700 N   0  0  0  0  0  0  0  0  0  0  0  0
  -34.6820  -11.7180   21.8290 H   0  0  0  0  0  0  0  0  0  0  0  0
  -31.3670  -11.6020   19.3020 C   0  0  0  0  0  0  0  0  0  0  0  0
  -29.9970  -11.5160   19.3120 C   0  0  0  0  0  0  0  0  0  0  0  0
  -29.6810  -10.3150   20.0160 C   0  0  0  0  0  0  0  0  0  0  0  0
  -31.8160  -10.4800   19.9770 N   0  0  0  0  0  0  0  0  0  0  0  0
  -30.7890   -9.7330   20.4540 N   0  0  0  0  0  0  0  0  0  0  0  0
  -28.3950   -9.6490   20.2420 C   0  0  0  0  0  0  0  0  0  0  0  0
  -27.9780   -9.2690   21.5360 C   0  0  0  0  0  3  0  0  0  0  0  0
  -26.7270   -8.6440   21.7270 C   0  0  0  0  0  3  0  0  0  0  0  0
  -25.8810   -8.3990   20.6210 C   0  0  0  0  0  0  0  0  0  0  0  0
  -26.3120   -8.7610   19.3330 C   0  0  0  0  0  3  0  0  0  0  0  0
  -27.5600   -9.3760   19.1430 C   0  0  0  0  0  3  0  0  0  0  0  0
  -24.6540   -7.7840   20.7120 O   0  0  0  0  0  0  0  0  0  0  0  0
  -23.8970   -7.8460   21.8550 C   0  0  0  0  0  0  0  0  0  0  0  0
  -23.4240   -9.0750   22.3700 C   0  0  0  0  0  3  0  0  0  0  0  0
  -22.5920   -9.0880   23.5060 C   0  0  0  0  0  3  0  0  0  0  0  0
  -22.2200   -7.8790   24.1220 C   0  0  0  0  0  0  0  0  0  0  0  0
  -22.6810   -6.6550   23.6080 C   0  0  0  0  0  3  0  0  0  0  0  0
  -23.5150   -6.6390   22.4750 C   0  0  0  0  0  0  0  0  0  0  0  0
  -23.9400   -5.4540   21.9720 F   0  0  0  0  0  0  0  0  0  0  0  0
  -21.4160   -7.8950   25.2120 F   0  0  0  0  0  0  0  0  0  0  0  0
  -29.0350  -12.4370   18.6180 C   0  0  0  0  0  0  0  0  0  0  0  0
  -27.8270  -12.5760   19.1530 N   0  0  0  0  0  0  0  0  0  0  0  0
  -29.3660  -13.0710   17.6210 O   0  0  0  0  0  0  0  0  0  0  0  0
  -27.5710  -12.0810   19.9970 H   0  0  0  0  0  0  0  0  0  0  0  0
  -27.1480  -13.1770   18.7080 H   0  0  0  0  0  0  0  0  0  0  0  0
  -32.2570  -12.5230   18.7690 N   0  0  0  0  0  0  0  0  0  0  0  0
  -31.9150  -13.3890   18.3840 H   0  0  0  0  0  0  0  0  0  0  0  0
  -33.2680  -12.5070   18.8660 H   0  0  0  0  0  0  0  0  0  0  0  0
  2  6  1  0
  2  4  1  0
  3  5  1  0
  4  7  1  0
  6  3  1  0
  7  5  1  0
  7  1  1  0
  7  8  1  6
  9  6  1  0
 10  9  1  0
 11 10  1  0
 12 11  1  0
 13 12  1  0
 14 16  1  0
 14 13  1  0
 15 26  2  0
 16 21  1  0
 17 27  1  0
 17 25  1  0
 18 20  1  0
 18 24  1  0
 19 25  1  0
 20 19  1  0
 21 20  2  0
 22 16  2  0
 22 23  1  0
 23 18  2  0
 24 17  1  0
 25 15  1  0
 27 29  2  0
 28 27  1  0
 30 28  1  0
 31 40  2  0
 31 36  1  0
 32 28  1  0
 32 36  1  0
 33 32  1  0
 34 35  1  0
 34 33  1  0
 35 31  1  0
 36 37  2  0
 37 38  1  0
 39 38  2  0
 40 39  1  0
 41 15  1  0
 41 42  1  0
 41 46  1  0
 42 43  1  1
 42 45  1  0
 44 42  1  0
 46 47  1  0
 46 49  1  0
 47 51  1  0
 48 47  2  0
 51 50  1  0
 51 53  1  0
 53 52  1  0
 53 54  1  0
 55  1  1  0
 56 55  1  0
 57 56  1  0
 58 59  1  0
 58 57  1  0
 59 60  1  0
 60 61  1  0
 61 62  1  0
 63 62  1  0
 63 64  1  0
 65 64  1  0
 66 65  1  0
 66 67  1  0
 67 68  1  0
 68 69  1  0
 69 70  1  0
 70 79  1  0
 71 78  2  0
 72 77  1  0
 73 72  1  0
 74 73  1  0
 75 74  1  0
 75 76  1  0
 76 77  1  0
 77 71  1  0
 79 71  1  0
 80 79  1  0
 81 82  2  0
 81 84  1  0
 82 83  1  0
 83 86  1  0
 83 85  2  0
 84 75  1  0
 84 85  1  0
 86 87  1  0
 87 88  2  0
 89 92  1  0
 89 88  1  0
 90 89  2  0
 91 90  1  0
 91 86  2  0
 92 93  1  0
 93 94  2  0
 93 98  1  0
 94 95  1  0
 95 96  2  0
 96100  1  0
 97 96  1  0
 98 97  2  0
 99 98  1  0
101102  1  0
101 82  1  0
102104  1  0
103101  2  0
105102  1  0
106108  1  0
106 81  1  0
107106  1  0
M  ISO  4  13 101  14 101  71 100  79 100
M  END
>  <TORSDO>  (85) 
F 38

>  <SCORE>  (85) 
2.656

>  <name>  (85) 
87

>  <ligand_id>  (85) 
87

>  <original_smiles>  (85) 
[H]c1c([H])c([H])c2c(c1[H])C([H])([H])C([H])([H])C([H])([H])C2([H])N([H])C(=O)C1([H])N(C(=O)C([H])(N([H])C(=O)C([H])(N([H])C([H])([H])[H])C([H])([H])[H])C(C([H])([H])[H])(C([H])([H])[H])C([H])([H])[H])C([H])([H])c2c([H])c(OC([H])([H])C([H])([H])OC([H])([H])C([H])([H])N3C([H])([H])C([H])([H])[N+]([H])(C([H])([H])C([H])([H])OC([H])([H])C([H])([H])OC([H])([H])C([H])([H])OC([H])([H])C([H])([H])OC([H])([H])C([H])([H])OC([H])([H])C([H])([H])N([H])C(=O)N4C([H])([H])C([H])([H])C([H])([H])C([H])(n5nc(-c6c([H])c([H])c(Oc7c([H])c([H])c(F)c([H])c7F)c([H])c6[H])c(C(=O)N([H])[H])c5N([H])[H])C4([H])[H])C([H])([H])C3([H])[H])c([H])c([H])c2C1([H])[H]

>  <smiles>  (85) 
[H]c1c([H])c([H])c2c(c1[H])C([H])([H])C([H])([H])C([H])([H])C2([H])N([H])C(=O)C1([H])N(C(=O)C([H])(N([H])C(=O)C([H])(N([H])C([H])([H])[H])C([H])([H])[H])C(C([H])([H])[H])(C([H])([H])[H])C([H])([H])[H])C([H])([H])c2c([H])c(OC([H])([H])C([H])([H])OC([H])([H])C([H])([H])N3C([H])([H])C([H])([H])[N+]([H])(C([H])([H])C([H])([H])OC([H])([H])C([H])([H])OC([H])([H])C([H])([H])OC([H])([H])C([H])([H])OC([H])([H])C([H])([H])OC([H])([H])C([H])([H])N([H])C(=O)N4C([H])([H])C([H])([H])C([H])([H])C([H])(n5nc(-c6c([H])c([H])c(Oc7c([H])c([H])c(F)c([H])c7F)c([H])c6[H])c(C(=O)N([H])[H])c5N([H])[H])C4([H])[H])C([H])([H])C3([H])[H])c([H])c([H])c2C1([H])[H]

$$$$
88:0:0
     RDKit          3D

109116  0  0  1  0  0  0  0  0999 V2000
  -21.3820  -18.7090   21.5150 C   0  0  0  0  0  2  0  0  0  0  0  0
  -20.7780  -19.8900   20.7270 C   0  0  0  0  0  2  0  0  0  0  0  0
  -21.2430  -21.2460   21.2970 C   0  0  0  0  0  2  0  0  0  0  0  0
  -21.7670  -22.1800   20.2750 N   0  0  0  0  0  4  0  0  0  0  0  0
  -21.0180  -22.7860   19.9710 H   0  0  0  0  0  0  0  0  0  0  0  0
  -22.0590  -21.6480   19.4710 H   0  0  0  0  0  0  0  0  0  0  0  0
  -22.9070  -22.9920   20.7760 C   0  0  0  0  0  2  0  0  0  0  0  0
  -23.9930  -23.2710   19.7130 C   0  0  0  0  0  2  0  0  0  0  0  0
  -25.3820  -22.7310   20.1330 C   0  0  0  0  0  2  0  0  0  0  0  0
  -27.5310  -24.0080   20.0150 C   0  0  0  0  0  0  0  0  0  0  0  0
  -26.4700  -23.4260   19.4410 N   0  0  0  0  0  0  0  0  0  0  0  0
  -27.6940  -24.0250   21.2400 O   0  0  0  0  0  0  0  0  0  0  0  0
  -26.4470  -23.4080   18.4280 H   0  0  0  0  0  0  0  0  0  0  0  0
  -28.5680  -24.6710   19.0880 C   0  0  0  0  0  2  0  0  0  0  0  0
  -28.7770  -26.0360   19.4750 O   0  0  0  0  0  0  0  0  0  0  0  0
  -26.1540  -29.5350   25.0700 C   0  0  0  0  0  0  0  0  0  0  0  0
  -27.7290  -26.8020   19.9440 C   0  0  0  0  0  0  0  0  0  0  0  0
  -24.6400  -29.3540   23.1240 C   0  0  0  0  0  3  0  0  0  0  0  0
  -25.6960  -28.4810   20.9750 C   0  0  0  0  0  0  0  0  0  0  0  0
  -27.1780  -29.3230   22.8080 C   0  0  0  0  0  2  0  0  0  0  0  0
  -26.9520  -28.4460   21.5900 C   0  0  0  0  0  0  0  0  0  0  0  0
  -27.9670  -27.6110   21.0780 C   0  0  0  0  0  3  0  0  0  0  0  0
  -26.4490  -26.8380   19.3400 C   0  0  0  0  0  3  0  0  0  0  0  0
  -25.4410  -27.6800   19.8490 C   0  0  0  0  0  3  0  0  0  0  0  0
  -24.6670  -29.4130   21.5740 C   0  0  0  0  0  2  0  0  0  0  0  0
  -26.0140  -29.3810   23.7230 N   0  0  0  0  0  0  0  0  0  0  0  0
  -25.1700  -29.6830   25.8050 O   0  0  0  0  0  0  0  0  0  0  0  0
  -23.8120  -28.1230   23.5470 C   0  0  0  0  0  0  0  0  0  0  0  0
  -22.5870  -28.0110   23.0130 N   0  0  0  0  0  0  0  0  0  0  0  0
  -24.2750  -27.2850   24.3270 O   0  0  0  0  0  0  0  0  0  0  0  0
  -22.2680  -28.7450   22.3950 H   0  0  0  0  0  0  0  0  0  0  0  0
  -19.5840  -26.4620   21.7450 C   0  0  0  0  0  0  0  0  0  0  0  0
  -21.6440  -26.9180   23.2390 C   0  0  0  0  0  3  0  0  0  0  0  0
  -22.2020  -25.5800   22.7020 C   0  0  0  0  0  2  0  0  0  0  0  0
  -21.7640  -25.2760   21.2650 C   0  0  0  0  0  2  0  0  0  0  0  0
  -20.2380  -25.2190   21.1670 C   0  0  0  0  0  2  0  0  0  0  0  0
  -20.2500  -27.2680   22.7080 C   0  0  0  0  0  0  0  0  0  0  0  0
  -19.6080  -28.4310   23.1810 C   0  0  0  0  0  3  0  0  0  0  0  0
  -18.3260  -28.7870   22.7250 C   0  0  0  0  0  3  0  0  0  0  0  0
  -17.6650  -27.9760   21.7870 C   0  0  0  0  0  3  0  0  0  0  0  0
  -18.2940  -26.8160   21.3020 C   0  0  0  0  0  3  0  0  0  0  0  0
  -27.5620  -29.5400   25.7470 C   0  0  0  0  0  3  0  0  0  0  0  0
  -27.7010  -30.8140   26.4630 N   0  0  0  0  0  0  0  0  0  0  0  0
  -28.4000  -31.8640   26.0160 C   0  0  0  0  0  0  0  0  0  0  0  0
  -29.0670  -31.8320   24.9760 O   0  0  0  0  0  0  0  0  0  0  0  0
  -27.1470  -30.9300   27.2990 H   0  0  0  0  0  0  0  0  0  0  0  0
  -27.3960  -34.1600   26.1990 C   0  0  0  0  0  1  0  0  0  0  0  0
  -28.3550  -33.1540   26.8540 C   0  0  0  0  0  3  0  0  0  0  0  0
  -30.5730  -33.0010   27.8960 C   0  0  0  0  0  1  0  0  0  0  0  0
  -29.6780  -33.7840   27.0450 N   0  0  0  0  0  0  0  0  0  0  0  0
  -29.5790  -34.7080   27.4580 H   0  0  0  0  0  0  0  0  0  0  0  0
  -27.7880  -28.3260   26.7300 C   0  0  1  0  0  0  0  0  0  0  0  0
  -26.6490  -28.1320   27.7570 C   0  0  0  0  0  1  0  0  0  0  0  0
  -27.9450  -27.0080   25.9350 C   0  0  0  0  0  1  0  0  0  0  0  0
  -29.0980  -28.5300   27.5280 C   0  0  0  0  0  1  0  0  0  0  0  0
  -21.3210  -17.3670   20.7620 C   0  0  0  0  0  2  0  0  0  0  0  0
  -22.5700  -16.4680   20.9250 C   0  0  0  0  0  2  0  0  0  0  0  0
  -23.6520  -16.5800   19.8200 C   0  0  0  0  0  2  0  0  0  0  0  0
  -25.0360  -16.7760   20.3260 N   0  0  0  0  0  4  0  0  0  0  0  0
  -25.6150  -16.2040   19.7300 H   0  0  0  0  0  0  0  0  0  0  0  0
  -25.1190  -16.4200   21.2710 H   0  0  0  0  0  0  0  0  0  0  0  0
  -25.5580  -18.1640   20.2180 C   0  0  0  0  0  2  0  0  0  0  0  0
  -26.7300  -18.3310   19.2170 C   0  0  0  0  0  2  0  0  0  0  0  0
  -27.8290  -17.2400   19.1370 C   0  0  0  0  0  2  0  0  0  0  0  0
  -29.0440  -17.5510   19.9300 N   0  0  0  0  0  4  0  0  0  0  0  0
  -29.1990  -18.5480   19.9250 H   0  0  0  0  0  0  0  0  0  0  0  0
  -28.8700  -17.2740   20.8810 H   0  0  0  0  0  0  0  0  0  0  0  0
  -30.2870  -16.8800   19.4610 C   0  0  0  0  0  2  0  0  0  0  0  0
  -31.2600  -16.5360   20.6180 C   0  0  0  0  0  2  0  0  0  0  0  0
  -32.2840  -15.4140   20.2850 C   0  0  0  0  0  2  0  0  0  0  0  0
  -32.1600  -14.2230   21.2620 C   0  0  0  0  0  2  0  0  0  0  0  0
  -33.2940  -11.9830   20.6170 C   0  0  0  0  0  0  0  0  0  0  0  0
  -32.1310  -10.2660   19.2990 C   0  0  0  0  0  2  0  0  0  0  0  0
  -31.2600  -10.9390   18.2250 C   0  0  0  0  0  2  0  0  0  0  0  0
  -29.8460  -11.1600   18.7830 C   0  0  0  0  0  2  0  0  0  0  0  0
  -29.8620  -11.8570   20.1690 C   0  0  0  0  0  3  0  0  0  0  0  0
  -30.9030  -11.2390   21.1400 C   0  0  0  0  0  2  0  0  0  0  0  0
  -32.1940  -11.1950   20.4420 N   0  0  0  0  0  0  0  0  0  0  0  0
  -34.3960  -11.6700   20.1790 O   0  0  0  0  0  0  0  0  0  0  0  0
  -33.2220  -13.2240   21.1330 N   0  0  0  0  0  0  0  0  0  0  0  0
  -34.1450  -13.6410   21.1560 H   0  0  0  0  0  0  0  0  0  0  0  0
  -27.8630  -13.0100   21.3030 C   0  0  0  0  0  0  0  0  0  0  0  0
  -26.6040  -12.5900   21.5980 C   0  0  0  0  0  0  0  0  0  0  0  0
  -26.5730  -11.2070   21.2390 C   0  0  0  0  0  0  0  0  0  0  0  0
  -28.5270  -11.9250   20.7530 N   0  0  0  0  0  0  0  0  0  0  0  0
  -27.7530  -10.8120   20.7770 N   0  0  0  0  0  0  0  0  0  0  0  0
  -25.4730  -10.2440   21.2380 C   0  0  0  0  0  0  0  0  0  0  0  0
  -25.5380   -9.0410   21.9710 C   0  0  0  0  0  3  0  0  0  0  0  0
  -24.4590   -8.1340   21.9540 C   0  0  0  0  0  3  0  0  0  0  0  0
  -23.2960   -8.4320   21.2090 C   0  0  0  0  0  0  0  0  0  0  0  0
  -23.2460   -9.6230   20.4610 C   0  0  0  0  0  3  0  0  0  0  0  0
  -24.3260  -10.5230   20.4680 C   0  0  0  0  0  3  0  0  0  0  0  0
  -22.2070   -7.6020   21.1170 O   0  0  0  0  0  0  0  0  0  0  0  0
  -21.7790   -6.8580   22.1840 C   0  0  0  0  0  0  0  0  0  0  0  0
  -21.4900   -7.4480   23.4360 C   0  0  0  0  0  3  0  0  0  0  0  0
  -20.9910   -6.6620   24.4920 C   0  0  0  0  0  3  0  0  0  0  0  0
  -20.7620   -5.2870   24.2990 C   0  0  0  0  0  0  0  0  0  0  0  0
  -21.0460   -4.6950   23.0530 C   0  0  0  0  0  3  0  0  0  0  0  0
  -21.5470   -5.4780   21.9980 C   0  0  0  0  0  0  0  0  0  0  0  0
  -21.8030   -4.9050   20.8000 F   0  0  0  0  0  0  0  0  0  0  0  0
  -20.2740   -4.5310   25.3120 F   0  0  0  0  0  0  0  0  0  0  0  0
  -25.4720  -13.4420   22.1080 C   0  0  0  0  0  0  0  0  0  0  0  0
  -24.4490  -12.8220   22.6720 N   0  0  0  0  0  0  0  0  0  0  0  0
  -25.5180  -14.6740   22.0450 O   0  0  0  0  0  0  0  0  0  0  0  0
  -24.3950  -11.8140   22.6960 H   0  0  0  0  0  0  0  0  0  0  0  0
  -23.7280  -13.3600   23.1280 H   0  0  0  0  0  0  0  0  0  0  0  0
  -28.5030  -14.2310   21.4520 N   0  0  0  0  0  0  0  0  0  0  0  0
  -28.0870  -14.8220   22.1590 H   0  0  0  0  0  0  0  0  0  0  0  0
  -29.4980  -14.1240   21.5820 H   0  0  0  0  0  0  0  0  0  0  0  0
  2  3  1  0
  2  1  1  0
  4  7  1  0
  4  3  1  0
  5  4  1  0
  6  4  1  0
  8  9  1  0
  8  7  1  0
 10 12  2  0
 11 10  1  0
 11  9  1  0
 13 11  1  0
 14 15  1  0
 14 10  1  0
 15 17  1  0
 16 27  2  0
 17 22  1  0
 18 28  1  0
 18 26  1  0
 19 25  1  0
 19 21  1  0
 20 26  1  0
 21 20  1  0
 22 21  2  0
 23 24  1  0
 23 17  2  0
 24 19  2  0
 25 18  1  0
 26 16  1  0
 28 30  2  0
 29 28  1  0
 31 29  1  0
 32 37  1  0
 33 29  1  0
 34 33  1  0
 35 34  1  0
 36 35  1  0
 36 32  1  0
 37 38  2  0
 37 33  1  0
 39 38  1  0
 40 39  2  0
 41 32  2  0
 41 40  1  0
 42 16  1  0
 42 43  1  0
 42 52  1  0
 43 46  1  0
 44 43  1  0
 44 48  1  0
 45 44  2  0
 48 47  1  0
 48 50  1  0
 50 51  1  0
 50 49  1  0
 52 55  1  1
 52 53  1  0
 54 52  1  0
 56 57  1  0
 56  1  1  0
 58 59  1  0
 58 57  1  0
 59 61  1  0
 60 59  1  0
 62 59  1  0
 63 62  1  0
 64 63  1  0
 64 65  1  0
 65 67  1  0
 66 65  1  0
 68 65  1  0
 68 69  1  0
 70 69  1  0
 70 71  1  0
 72 80  1  0
 73 78  1  0
 74 75  1  0
 74 73  1  0
 76 75  1  0
 76 85  1  0
 76 77  1  0
 78 72  1  0
 78 77  1  0
 79 72  2  0
 80 81  1  0
 80 71  1  0
 82107  1  0
 82 83  2  0
 83102  1  0
 84 83  1  0
 85 86  1  0
 85 82  1  0
 86 84  2  0
 87 84  1  0
 87 88  1  0
 89 88  2  0
 90 89  1  0
 91 92  1  0
 91 90  2  0
 92 87  2  0
 93 90  1  0
 93 94  1  0
 94 95  1  0
 95 96  2  0
 97 96  1  0
 97101  1  0
 98 97  2  0
 99 94  2  0
 99 98  1  0
100 99  1  0
102103  1  0
103105  1  0
103106  1  0
104102  2  0
107109  1  0
107108  1  0
M  ISO  4  14 101  15 101  72 100  80 100
M  END
>  <TORSDO>  (86) 
F 36

>  <SCORE>  (86) 
17.487

>  <name>  (86) 
88

>  <ligand_id>  (86) 
88

>  <original_smiles>  (86) 
[H]c1c([H])c([H])c2c(c1[H])C([H])([H])C([H])([H])C([H])([H])C2([H])N([H])C(=O)C1([H])N(C(=O)C([H])(N([H])C(=O)C([H])(N([H])C([H])([H])[H])C([H])([H])[H])C(C([H])([H])[H])(C([H])([H])[H])C([H])([H])[H])C([H])([H])c2c([H])c(OC([H])([H])C(=O)N([H])C([H])([H])C([H])([H])C([H])([H])[N+]([H])([H])C([H])([H])C([H])([H])C([H])([H])C([H])([H])C([H])([H])C([H])([H])[N+]([H])([H])C([H])([H])C([H])([H])C([H])([H])[N+]([H])([H])C([H])([H])C([H])([H])C([H])([H])C([H])([H])N([H])C(=O)N3C([H])([H])C([H])([H])C([H])([H])C([H])(n4nc(-c5c([H])c([H])c(Oc6c([H])c([H])c(F)c([H])c6F)c([H])c5[H])c(C(=O)N([H])[H])c4N([H])[H])C3([H])[H])c([H])c([H])c2C1([H])[H]

>  <smiles>  (86) 
[H]c1c([H])c([H])c2c(c1[H])C([H])([H])C([H])([H])C([H])([H])C2([H])N([H])C(=O)C1([H])N(C(=O)C([H])(N([H])C(=O)C([H])(N([H])C([H])([H])[H])C([H])([H])[H])C(C([H])([H])[H])(C([H])([H])[H])C([H])([H])[H])C([H])([H])c2c([H])c(OC([H])([H])C(=O)N([H])C([H])([H])C([H])([H])C([H])([H])[N+]([H])([H])C([H])([H])C([H])([H])C([H])([H])C([H])([H])C([H])([H])C([H])([H])[N+]([H])([H])C([H])([H])C([H])([H])C([H])([H])[N+]([H])([H])C([H])([H])C([H])([H])C([H])([H])C([H])([H])N([H])C(=O)N3C([H])([H])C([H])([H])C([H])([H])C([H])(n4nc(-c5c([H])c([H])c(Oc6c([H])c([H])c(F)c([H])c6F)c([H])c5[H])c(C(=O)N([H])[H])c4N([H])[H])C3([H])[H])c([H])c([H])c2C1([H])[H]

$$$$
89:0:0
     RDKit          3D

 87 95  0  0  1  0  0  0  0  0999 V2000
  -28.6710  -21.0470   19.8780 N   0  0  0  0  0  4  0  0  0  0  0  0
  -27.6710  -20.9150   19.8860 H   0  0  0  0  0  0  0  0  0  0  0  0
  -28.9060  -21.1140   18.9000 H   0  0  0  0  0  0  0  0  0  0  0  0
  -30.4410  -15.3740   19.7820 C   0  0  0  0  0  0  0  0  0  0  0  0
  -30.3740  -12.9270   18.8570 C   0  0  0  0  0  2  0  0  0  0  0  0
  -29.3570  -12.7160   17.7050 C   0  0  0  0  0  2  0  0  0  0  0  0
  -27.9560  -12.4260   18.2670 C   0  0  0  0  0  2  0  0  0  0  0  0
  -27.6050  -13.3640   19.4510 C   0  0  0  0  0  3  0  0  0  0  0  0
  -28.7440  -13.4900   20.4850 C   0  0  0  0  0  2  0  0  0  0  0  0
  -29.8930  -14.0520   19.7580 N   0  0  0  0  0  0  0  0  0  0  0  0
  -31.6030  -15.3780   19.3340 O   0  0  0  0  0  0  0  0  0  0  0  0
  -28.2690  -18.5660   21.0860 C   0  0  0  0  0  2  0  0  0  0  0  0
  -28.8290  -17.0520   21.1440 C   0  0  0  0  0  2  0  0  0  0  0  0
  -29.8200  -18.1980   19.4350 C   0  0  0  0  0  2  0  0  0  0  0  0
  -29.2580  -19.5410   20.3700 C   0  0  0  0  0  3  0  0  0  0  0  0
  -29.7150  -16.6810   20.0000 N   0  0  0  0  0  0  0  0  0  0  0  0
  -25.3280  -13.9050   20.4490 C   0  0  0  0  0  0  0  0  0  0  0  0
  -24.2990  -13.1210   20.8850 C   0  0  0  0  0  0  0  0  0  0  0  0
  -24.7420  -11.7700   20.7430 C   0  0  0  0  0  0  0  0  0  0  0  0
  -26.3310  -13.0340   20.0650 N   0  0  0  0  0  0  0  0  0  0  0  0
  -25.9960  -11.7390   20.3040 N   0  0  0  0  0  0  0  0  0  0  0  0
  -24.0210  -10.5080   20.9430 C   0  0  0  0  0  0  0  0  0  0  0  0
  -24.4890   -9.5200   21.8380 C   0  0  0  0  0  3  0  0  0  0  0  0
  -23.7620   -8.3260   22.0280 C   0  0  0  0  0  3  0  0  0  0  0  0
  -22.5530   -8.1090   21.3240 C   0  0  0  0  0  0  0  0  0  0  0  0
  -22.1030   -9.0880   20.4200 C   0  0  0  0  0  3  0  0  0  0  0  0
  -22.8290  -10.2730   20.2270 C   0  0  0  0  0  3  0  0  0  0  0  0
  -21.7930   -6.9700   21.4280 O   0  0  0  0  0  0  0  0  0  0  0  0
  -21.7360   -6.2480   22.5930 C   0  0  0  0  0  0  0  0  0  0  0  0
  -21.2950   -6.8220   23.8060 C   0  0  0  0  0  3  0  0  0  0  0  0
  -21.1810   -6.0250   24.9610 C   0  0  0  0  0  3  0  0  0  0  0  0
  -21.5010   -4.6540   24.9040 C   0  0  0  0  0  0  0  0  0  0  0  0
  -21.9380   -4.0810   23.6980 C   0  0  0  0  0  3  0  0  0  0  0  0
  -22.0520   -4.8740   22.5440 C   0  0  0  0  0  0  0  0  0  0  0  0
  -22.4490   -4.3130   21.3770 F   0  0  0  0  0  0  0  0  0  0  0  0
  -21.3870   -3.8880   26.0140 F   0  0  0  0  0  0  0  0  0  0  0  0
  -22.9430  -13.6000   21.3070 C   0  0  0  0  0  0  0  0  0  0  0  0
  -22.2960  -12.8820   22.2160 N   0  0  0  0  0  0  0  0  0  0  0  0
  -22.4710  -14.6500   20.8710 O   0  0  0  0  0  0  0  0  0  0  0  0
  -22.6980  -12.0400   22.6020 H   0  0  0  0  0  0  0  0  0  0  0  0
  -21.3920  -13.1910   22.5470 H   0  0  0  0  0  0  0  0  0  0  0  0
  -25.4770  -15.2790   20.3100 N   0  0  0  0  0  0  0  0  0  0  0  0
  -24.7020  -15.9030   20.4950 H   0  0  0  0  0  0  0  0  0  0  0  0
  -26.2400  -15.7310   19.8220 H   0  0  0  0  0  0  0  0  0  0  0  0
  -28.8430  -22.6160   20.4690 C   0  0  0  0  0  3  0  0  0  0  0  0
  -27.9680  -24.1680   20.0560 C   0  0  0  0  0  3  0  0  0  0  0  0
  -28.1700  -25.8030   20.3440 O   0  0  0  0  0  0  0  0  0  0  0  0
  -24.6210  -31.8290   23.1980 C   0  0  0  0  0  0  0  0  0  0  0  0
  -27.1840  -26.9270   20.2240 C   0  0  0  0  0  0  0  0  0  0  0  0
  -23.4430  -30.4390   21.5400 C   0  0  0  0  0  3  0  0  0  0  0  0
  -24.9060  -28.8400   20.1230 C   0  0  0  0  0  0  0  0  0  0  0  0
  -26.0090  -30.6460   21.4260 C   0  0  0  0  0  2  0  0  0  0  0  0
  -26.0850  -29.2330   20.7720 C   0  0  0  0  0  0  0  0  0  0  0  0
  -27.2170  -28.2970   20.7970 C   0  0  0  0  0  3  0  0  0  0  0  0
  -25.9840  -26.6980   19.5170 C   0  0  0  0  0  3  0  0  0  0  0  0
  -24.8860  -27.5970   19.4720 C   0  0  0  0  0  3  0  0  0  0  0  0
  -23.6890  -29.7680   20.1600 C   0  0  0  0  0  2  0  0  0  0  0  0
  -24.7110  -31.0000   22.1090 N   0  0  0  0  0  0  0  0  0  0  0  0
  -23.5280  -32.1150   23.7140 O   0  0  0  0  0  0  0  0  0  0  0  0
  -22.7400  -29.4370   22.4950 C   0  0  0  0  0  0  0  0  0  0  0  0
  -21.4120  -29.2680   22.3560 N   0  0  0  0  0  0  0  0  0  0  0  0
  -23.4000  -28.8130   23.3300 O   0  0  0  0  0  0  0  0  0  0  0  0
  -20.9290  -29.8250   21.6640 H   0  0  0  0  0  0  0  0  0  0  0  0
  -18.0330  -28.0390   22.8250 C   0  0  0  0  0  0  0  0  0  0  0  0
  -20.5870  -28.3280   23.1210 C   0  0  0  0  0  3  0  0  0  0  0  0
  -20.7080  -26.8950   22.5520 C   0  0  0  0  0  2  0  0  0  0  0  0
  -19.6220  -26.5600   21.5240 C   0  0  0  0  0  2  0  0  0  0  0  0
  -18.2320  -26.6920   22.1500 C   0  0  0  0  0  2  0  0  0  0  0  0
  -19.1390  -28.8150   23.2670 C   0  0  0  0  0  0  0  0  0  0  0  0
  -18.8980  -30.0720   23.8630 C   0  0  0  0  0  3  0  0  0  0  0  0
  -17.5850  -30.5560   24.0160 C   0  0  0  0  0  3  0  0  0  0  0  0
  -16.4940  -29.7790   23.5880 C   0  0  0  0  0  3  0  0  0  0  0  0
  -16.7200  -28.5220   22.9990 C   0  0  0  0  0  3  0  0  0  0  0  0
  -25.8870  -32.4720   23.8400 C   0  0  0  0  0  3  0  0  0  0  0  0
  -25.5770  -33.8800   24.1460 N   0  0  0  0  0  0  0  0  0  0  0  0
  -25.9040  -34.9240   23.3740 C   0  0  0  0  0  0  0  0  0  0  0  0
  -26.5600  -34.8050   22.3360 O   0  0  0  0  0  0  0  0  0  0  0  0
  -24.9930  -34.0450   24.9520 H   0  0  0  0  0  0  0  0  0  0  0  0
  -24.1650  -36.7200   23.0450 C   0  0  0  0  0  1  0  0  0  0  0  0
  -25.4300  -36.3220   23.8230 C   0  0  0  0  0  3  0  0  0  0  0  0
  -27.5810  -37.2370   24.5800 C   0  0  0  0  0  1  0  0  0  0  0  0
  -26.4560  -37.3750   23.6600 N   0  0  0  0  0  0  0  0  0  0  0  0
  -26.0490  -38.2960   23.7930 H   0  0  0  0  0  0  0  0  0  0  0  0
  -26.3670  -31.7260   25.1470 C   0  0  1  0  0  0  0  0  0  0  0  0
  -25.2470  -31.5240   26.1940 C   0  0  0  0  0  1  0  0  0  0  0  0
  -26.9460  -30.3330   24.8110 C   0  0  0  0  0  1  0  0  0  0  0  0
  -27.5050  -32.5290   25.8250 C   0  0  0  0  0  1  0  0  0  0  0  0
  1  2  1  0
  1 45  1  0
  3  1  1  0
  4 16  1  0
  5 10  1  0
  6  7  1  0
  6  5  1  0
  8  7  1  0
  8 20  1  0
  8  9  1  0
 10  4  1  0
 10  9  1  0
 11  4  2  0
 12 13  1  0
 14 16  1  0
 14 15  1  0
 15  1  1  0
 15 12  1  0
 16 13  1  0
 17 18  2  0
 18 37  1  0
 19 18  1  0
 19 22  1  0
 20 21  1  0
 20 17  1  0
 21 19  2  0
 22 23  1  0
 23 24  2  0
 25 28  1  0
 25 24  1  0
 26 25  2  0
 27 26  1  0
 27 22  2  0
 28 29  1  0
 29 30  1  0
 30 31  2  0
 32 31  1  0
 32 36  1  0
 33 32  2  0
 34 29  2  0
 34 33  1  0
 35 34  1  0
 37 38  1  0
 38 41  1  0
 38 40  1  0
 39 37  2  0
 42 17  1  0
 42 43  1  0
 44 42  1  0
 46 47  1  0
 46 45  2  0
 48 59  2  0
 49 47  1  0
 49 54  1  0
 50 58  1  0
 50 60  1  0
 51 57  1  0
 51 53  1  0
 52 58  1  0
 53 54  2  0
 53 52  1  0
 55 49  2  0
 56 55  1  0
 56 51  2  0
 57 50  1  0
 58 48  1  0
 60 62  2  0
 61 60  1  0
 63 61  1  0
 64 73  2  0
 64 69  1  0
 65 61  1  0
 65 69  1  0
 66 65  1  0
 67 68  1  0
 67 66  1  0
 68 64  1  0
 69 70  2  0
 70 71  1  0
 72 71  2  0
 73 72  1  0
 74 48  1  0
 74 75  1  0
 74 84  1  0
 75 78  1  0
 76 80  1  0
 76 75  1  0
 77 76  2  0
 80 79  1  0
 82 83  1  0
 82 80  1  0
 82 81  1  0
 84 87  1  1
 84 85  1  0
 86 84  1  0
M  ISO  4   4 100  16 100  46 101  47 101
M  END
>  <TORSDO>  (87) 
F 18

>  <SCORE>  (87) 
-15.235

>  <name>  (87) 
89

>  <ligand_id>  (87) 
89

>  <original_smiles>  (87) 
[H]c1c([H])c([H])c2c(c1[H])C([H])([H])C([H])([H])C([H])([H])C2([H])N([H])C(=O)C1([H])N(C(=O)C([H])(N([H])C(=O)C([H])(N([H])C([H])([H])[H])C([H])([H])[H])C(C([H])([H])[H])(C([H])([H])[H])C([H])([H])[H])C([H])([H])c2c([H])c(OC([H])([H])C([H])([H])[N+]([H])([H])C3([H])C([H])([H])N(C(=O)N4C([H])([H])C([H])([H])C([H])([H])C([H])(n5nc(-c6c([H])c([H])c(Oc7c([H])c([H])c(F)c([H])c7F)c([H])c6[H])c(C(=O)N([H])[H])c5N([H])[H])C4([H])[H])C([H])([H])C3([H])[H])c([H])c([H])c2C1([H])[H]

>  <smiles>  (87) 
[H]c1c([H])c([H])c2c(c1[H])C([H])([H])C([H])([H])C([H])([H])C2([H])N([H])C(=O)C1([H])N(C(=O)C([H])(N([H])C(=O)C([H])(N([H])C([H])([H])[H])C([H])([H])[H])C(C([H])([H])[H])(C([H])([H])[H])C([H])([H])[H])C([H])([H])c2c([H])c(OC([H])([H])C([H])([H])[N+]([H])([H])C3([H])C([H])([H])N(C(=O)N4C([H])([H])C([H])([H])C([H])([H])C([H])(n5nc(-c6c([H])c([H])c(Oc7c([H])c([H])c(F)c([H])c7F)c([H])c6[H])c(C(=O)N([H])[H])c5N([H])[H])C4([H])[H])C([H])([H])C3([H])[H])c([H])c([H])c2C1([H])[H]

$$$$
90:0:0
     RDKit          3D

106113  0  0  1  0  0  0  0  0999 V2000
  -26.2170  -19.9400   26.9250 C   0  0  0  0  0  2  0  0  0  0  0  0
  -26.1090  -21.1590   27.8610 C   0  0  0  0  0  2  0  0  0  0  0  0
  -26.5800  -23.4280   26.9260 C   0  0  0  0  0  0  0  0  0  0  0  0
  -26.9770  -22.2460   27.4140 N   0  0  0  0  0  0  0  0  0  0  0  0
  -25.3940  -23.7520   26.8340 O   0  0  0  0  0  0  0  0  0  0  0  0
  -27.9770  -22.0890   27.4330 H   0  0  0  0  0  0  0  0  0  0  0  0
  -27.6910  -24.3740   26.4440 C   0  0  0  0  0  2  0  0  0  0  0  0
  -28.7270  -23.6520   25.7620 O   0  0  0  0  0  0  0  0  0  0  0  0
  -28.3100  -23.0900   24.5170 C   0  0  0  0  0  2  0  0  0  0  0  0
  -29.4930  -22.6410   23.6490 C   0  0  0  0  0  2  0  0  0  0  0  0
  -29.8630  -21.2990   23.9420 O   0  0  0  0  0  0  0  0  0  0  0  0
  -30.6980  -20.7440   22.9280 C   0  0  0  0  0  2  0  0  0  0  0  0
  -30.9770  -19.2600   23.2000 C   0  0  0  0  0  2  0  0  0  0  0  0
  -29.8080  -18.4930   22.9250 O   0  0  0  0  0  0  0  0  0  0  0  0
  -29.9280  -17.5740   21.8430 C   0  0  0  0  0  2  0  0  0  0  0  0
  -30.8060  -16.3590   22.2180 C   0  0  0  0  0  2  0  0  0  0  0  0
  -30.7470  -14.3640   20.6970 C   0  0  0  0  0  0  0  0  0  0  0  0
  -30.4190  -12.2960   19.3930 C   0  0  0  0  0  2  0  0  0  0  0  0
  -29.4770  -12.5140   18.1950 C   0  0  0  0  0  2  0  0  0  0  0  0
  -28.0090  -12.3450   18.6180 C   0  0  0  0  0  2  0  0  0  0  0  0
  -27.6610  -13.1840   19.8740 C   0  0  0  0  0  3  0  0  0  0  0  0
  -28.6920  -12.9300   20.9910 C   0  0  0  0  0  2  0  0  0  0  0  0
  -30.0370  -13.2310   20.4620 N   0  0  0  0  0  0  0  0  0  0  0  0
  -31.7720  -14.6750   20.0840 O   0  0  0  0  0  0  0  0  0  0  0  0
  -30.2610  -15.1140   21.6910 N   0  0  0  0  0  0  0  0  0  0  0  0
  -29.4190  -14.7660   22.1230 H   0  0  0  0  0  0  0  0  0  0  0  0
  -25.2580  -13.8140   20.5680 C   0  0  0  0  0  0  0  0  0  0  0  0
  -24.1810  -13.0420   20.9150 C   0  0  0  0  0  0  0  0  0  0  0  0
  -24.6320  -11.6880   20.8690 C   0  0  0  0  0  0  0  0  0  0  0  0
  -26.2970  -12.9250   20.3330 N   0  0  0  0  0  0  0  0  0  0  0  0
  -25.9220  -11.6430   20.5720 N   0  0  0  0  0  0  0  0  0  0  0  0
  -23.9010  -10.4280   21.0400 C   0  0  0  0  0  0  0  0  0  0  0  0
  -24.3580   -9.4200   21.9180 C   0  0  0  0  0  3  0  0  0  0  0  0
  -23.6280   -8.2230   22.0750 C   0  0  0  0  0  3  0  0  0  0  0  0
  -22.4260   -8.0260   21.3540 C   0  0  0  0  0  0  0  0  0  0  0  0
  -21.9890   -9.0230   20.4650 C   0  0  0  0  0  3  0  0  0  0  0  0
  -22.7190  -10.2110   20.3060 C   0  0  0  0  0  3  0  0  0  0  0  0
  -21.6620   -6.8870   21.4240 O   0  0  0  0  0  0  0  0  0  0  0  0
  -21.6840   -6.0750   22.5290 C   0  0  0  0  0  0  0  0  0  0  0  0
  -21.4010   -6.5660   23.8220 C   0  0  0  0  0  3  0  0  0  0  0  0
  -21.3650   -5.6800   24.9180 C   0  0  0  0  0  3  0  0  0  0  0  0
  -21.6030   -4.3070   24.7210 C   0  0  0  0  0  0  0  0  0  0  0  0
  -21.8810   -3.8170   23.4340 C   0  0  0  0  0  3  0  0  0  0  0  0
  -21.9180   -4.6990   22.3390 C   0  0  0  0  0  0  0  0  0  0  0  0
  -22.1660   -4.2170   21.0980 F   0  0  0  0  0  0  0  0  0  0  0  0
  -21.5590   -3.4550   25.7730 F   0  0  0  0  0  0  0  0  0  0  0  0
  -22.7860  -13.5250   21.1860 C   0  0  0  0  0  0  0  0  0  0  0  0
  -22.0520  -12.8220   22.0420 N   0  0  0  0  0  0  0  0  0  0  0  0
  -22.3550  -14.5590   20.6790 O   0  0  0  0  0  0  0  0  0  0  0  0
  -22.4160  -11.9840   22.4710 H   0  0  0  0  0  0  0  0  0  0  0  0
  -21.1150  -13.1260   22.2680 H   0  0  0  0  0  0  0  0  0  0  0  0
  -25.4380  -15.1850   20.4090 N   0  0  0  0  0  0  0  0  0  0  0  0
  -24.6830  -15.8520   20.5220 H   0  0  0  0  0  0  0  0  0  0  0  0
  -26.3060  -15.6170   20.1160 H   0  0  0  0  0  0  0  0  0  0  0  0
  -25.5480  -20.1390   25.5520 C   0  0  0  0  0  2  0  0  0  0  0  0
  -26.1190  -19.1980   24.4690 C   0  0  0  0  0  2  0  0  0  0  0  0
  -25.4330  -19.3050   23.0920 C   0  0  0  0  0  2  0  0  0  0  0  0
  -26.2940  -21.2350   21.7530 C   0  0  0  0  0  0  0  0  0  0  0  0
  -25.4260  -20.6840   22.6120 N   0  0  0  0  0  0  0  0  0  0  0  0
  -27.1490  -20.5820   21.1510 O   0  0  0  0  0  0  0  0  0  0  0  0
  -24.7330  -21.2960   23.0240 H   0  0  0  0  0  0  0  0  0  0  0  0
  -26.2010  -22.7580   21.5750 C   0  0  0  0  0  2  0  0  0  0  0  0
  -27.4270  -23.2800   21.0570 O   0  0  0  0  0  0  0  0  0  0  0  0
  -27.5320  -24.6970   21.1810 C   0  0  0  0  0  2  0  0  0  0  0  0
  -28.3390  -25.3110   20.0180 C   0  0  0  0  0  2  0  0  0  0  0  0
  -28.4060  -26.7390   20.1020 O   0  0  0  0  0  0  0  0  0  0  0  0
  -24.6130  -31.8700   23.2120 C   0  0  0  0  0  0  0  0  0  0  0  0
  -27.2300  -27.4560   20.0750 C   0  0  0  0  0  0  0  0  0  0  0  0
  -23.4010  -30.4970   21.5550 C   0  0  0  0  0  3  0  0  0  0  0  0
  -24.8420  -28.9700   20.1110 C   0  0  0  0  0  0  0  0  0  0  0  0
  -25.9300  -30.8450   21.3600 C   0  0  0  0  0  2  0  0  0  0  0  0
  -26.0040  -29.4820   20.7040 C   0  0  0  0  0  0  0  0  0  0  0  0
  -27.2000  -28.7310   20.6830 C   0  0  0  0  0  3  0  0  0  0  0  0
  -26.0490  -26.9600   19.4710 C   0  0  0  0  0  3  0  0  0  0  0  0
  -24.8600  -27.7060   19.4960 C   0  0  0  0  0  3  0  0  0  0  0  0
  -23.6030  -29.8350   20.1660 C   0  0  0  0  0  2  0  0  0  0  0  0
  -24.6670  -31.0840   22.1000 N   0  0  0  0  0  0  0  0  0  0  0  0
  -23.5310  -32.1440   23.7510 O   0  0  0  0  0  0  0  0  0  0  0  0
  -22.7390  -29.4670   22.5000 C   0  0  0  0  0  0  0  0  0  0  0  0
  -21.4130  -29.3060   22.3690 N   0  0  0  0  0  0  0  0  0  0  0  0
  -23.4130  -28.8210   23.3060 O   0  0  0  0  0  0  0  0  0  0  0  0
  -20.9320  -29.8770   21.6890 H   0  0  0  0  0  0  0  0  0  0  0  0
  -18.0270  -28.1380   22.8530 C   0  0  0  0  0  0  0  0  0  0  0  0
  -20.5860  -28.3690   23.1260 C   0  0  0  0  0  3  0  0  0  0  0  0
  -20.6800  -26.9450   22.5340 C   0  0  0  0  0  2  0  0  0  0  0  0
  -19.5730  -26.6400   21.5220 C   0  0  0  0  0  2  0  0  0  0  0  0
  -18.1930  -26.7920   22.1690 C   0  0  0  0  0  2  0  0  0  0  0  0
  -19.1530  -28.8870   23.2870 C   0  0  0  0  0  0  0  0  0  0  0  0
  -18.9470  -30.1480   23.8890 C   0  0  0  0  0  3  0  0  0  0  0  0
  -17.6460  -30.6620   24.0550 C   0  0  0  0  0  3  0  0  0  0  0  0
  -16.5350  -29.9110   23.6330 C   0  0  0  0  0  3  0  0  0  0  0  0
  -16.7260  -28.6520   23.0400 C   0  0  0  0  0  3  0  0  0  0  0  0
  -25.9020  -32.4820   23.8430 C   0  0  0  0  0  3  0  0  0  0  0  0
  -26.4440  -31.6580   25.0740 C   0  0  1  0  0  0  0  0  0  0  0  0
  -25.3730  -31.3750   26.1520 C   0  0  0  0  0  1  0  0  0  0  0  0
  -27.0200  -30.3010   24.6050 C   0  0  0  0  0  1  0  0  0  0  0  0
  -27.6060  -32.4250   25.7450 C   0  0  0  0  0  1  0  0  0  0  0  0
  -25.5890  -33.8620   24.2360 N   0  0  0  0  0  0  0  0  0  0  0  0
  -25.9030  -34.9470   23.5150 C   0  0  0  0  0  0  0  0  0  0  0  0
  -26.5610  -34.8940   22.4720 O   0  0  0  0  0  0  0  0  0  0  0  0
  -25.0070  -33.9810   25.0530 H   0  0  0  0  0  0  0  0  0  0  0  0
  -24.1510  -36.7300   23.2640 C   0  0  0  0  0  1  0  0  0  0  0  0
  -25.4110  -36.3110   24.0380 C   0  0  0  0  0  3  0  0  0  0  0  0
  -27.5590  -37.1820   24.8490 C   0  0  0  0  0  1  0  0  0  0  0  0
  -26.4300  -37.3800   23.9420 N   0  0  0  0  0  0  0  0  0  0  0  0
  -26.0180  -38.2880   24.1410 H   0  0  0  0  0  0  0  0  0  0  0  0
  1  2  1  0
  3  4  1  0
  4  6  1  0
  4  2  1  0
  5  3  2  0
  7  3  1  0
  8  7  1  0
  9  8  1  0
 10 11  1  0
 10  9  1  0
 12 13  1  0
 12 11  1  0
 14 13  1  0
 15 16  1  0
 15 14  1  0
 17 25  1  0
 18 23  1  0
 19 20  1  0
 19 18  1  0
 21 20  1  0
 21 30  1  0
 21 22  1  0
 23 17  1  0
 23 22  1  0
 24 17  2  0
 25 26  1  0
 25 16  1  0
 27 28  2  0
 28 47  1  0
 29 28  1  0
 29 32  1  0
 30 27  1  0
 30 31  1  0
 31 29  2  0
 32 33  1  0
 33 34  2  0
 35 38  1  0
 35 34  1  0
 36 35  2  0
 37 36  1  0
 37 32  2  0
 38 39  1  0
 39 40  1  0
 40 41  2  0
 42 41  1  0
 42 46  1  0
 43 42  2  0
 44 39  2  0
 44 43  1  0
 45 44  1  0
 47 48  1  0
 48 51  1  0
 48 50  1  0
 49 47  2  0
 52 53  1  0
 52 27  1  0
 54 52  1  0
 55  1  1  0
 56 55  1  0
 57 56  1  0
 58 59  1  0
 59 61  1  0
 59 57  1  0
 60 58  2  0
 62 58  1  0
 63 64  1  0
 63 62  1  0
 65 66  1  0
 65 64  1  0
 67 78  2  0
 68 66  1  0
 68 73  1  0
 69 77  1  0
 69 79  1  0
 70 76  1  0
 70 72  1  0
 71 77  1  0
 72 71  1  0
 73 72  2  0
 74 75  1  0
 74 68  2  0
 75 70  2  0
 76 69  1  0
 77 67  1  0
 79 81  2  0
 80 79  1  0
 82 80  1  0
 83 92  2  0
 83 88  1  0
 84 80  1  0
 84 88  1  0
 85 84  1  0
 86 87  1  0
 86 85  1  0
 87 83  1  0
 88 89  2  0
 89 90  1  0
 91 90  2  0
 92 91  1  0
 93 67  1  0
 93 98  1  0
 93 94  1  0
 94 97  1  1
 94 95  1  0
 96 94  1  0
 98101  1  0
 99103  1  0
 99 98  1  0
100 99  2  0
103102  1  0
105103  1  0
105106  1  0
105104  1  0
M  ISO  4  17 100  25 100  65 101  66 101
M  END
>  <TORSDO>  (88) 
F 36

>  <SCORE>  (88) 
41.027

>  <name>  (88) 
90

>  <ligand_id>  (88) 
90

>  <original_smiles>  (88) 
[H]c1c([H])c([H])c2c(c1[H])C([H])([H])C([H])([H])C([H])([H])C2([H])N([H])C(=O)C1([H])N(C(=O)C([H])(N([H])C(=O)C([H])(N([H])C([H])([H])[H])C([H])([H])[H])C(C([H])([H])[H])(C([H])([H])[H])C([H])([H])[H])C([H])([H])c2c([H])c(OC([H])([H])C([H])([H])OC([H])([H])C(=O)N([H])C([H])([H])C([H])([H])C([H])([H])C([H])([H])C([H])([H])N([H])C(=O)C([H])([H])OC([H])([H])C([H])([H])OC([H])([H])C([H])([H])OC([H])([H])C([H])([H])N([H])C(=O)N3C([H])([H])C([H])([H])C([H])([H])C([H])(n4nc(-c5c([H])c([H])c(Oc6c([H])c([H])c(F)c([H])c6F)c([H])c5[H])c(C(=O)N([H])[H])c4N([H])[H])C3([H])[H])c([H])c([H])c2C1([H])[H]

>  <smiles>  (88) 
[H]c1c([H])c([H])c2c(c1[H])C([H])([H])C([H])([H])C([H])([H])C2([H])N([H])C(=O)C1([H])N(C(=O)C([H])(N([H])C(=O)C([H])(N([H])C([H])([H])[H])C([H])([H])[H])C(C([H])([H])[H])(C([H])([H])[H])C([H])([H])[H])C([H])([H])c2c([H])c(OC([H])([H])C([H])([H])OC([H])([H])C(=O)N([H])C([H])([H])C([H])([H])C([H])([H])C([H])([H])C([H])([H])N([H])C(=O)C([H])([H])OC([H])([H])C([H])([H])OC([H])([H])C([H])([H])OC([H])([H])C([H])([H])N([H])C(=O)N3C([H])([H])C([H])([H])C([H])([H])C([H])(n4nc(-c5c([H])c([H])c(Oc6c([H])c([H])c(F)c([H])c6F)c([H])c5[H])c(C(=O)N([H])[H])c4N([H])[H])C3([H])[H])c([H])c([H])c2C1([H])[H]

$$$$
91:0:0
     RDKit          3D

103110  0  0  1  0  0  0  0  0999 V2000
  -28.7440  -18.7710   25.8670 C   0  0  0  0  0  0  0  0  0  0  0  0
  -29.7350  -18.9560   24.9840 N   0  0  0  0  0  0  0  0  0  0  0  0
  -28.3310  -19.6680   26.6060 O   0  0  0  0  0  0  0  0  0  0  0  0
  -30.0080  -18.1600   24.4230 H   0  0  0  0  0  0  0  0  0  0  0  0
  -30.4980  -20.1910   24.8100 C   0  0  0  0  0  2  0  0  0  0  0  0
  -29.9460  -21.0560   23.6610 C   0  0  0  0  0  2  0  0  0  0  0  0
  -30.2830  -22.5480   23.8610 C   0  0  0  0  0  2  0  0  0  0  0  0
  -29.6070  -23.4320   22.8840 N   0  0  0  0  0  4  0  0  0  0  0  0
  -30.0520  -23.3150   21.9880 H   0  0  0  0  0  0  0  0  0  0  0  0
  -28.6450  -23.1470   22.7930 H   0  0  0  0  0  0  0  0  0  0  0  0
  -29.6460  -24.8610   23.2670 C   0  0  0  0  0  2  0  0  0  0  0  0
  -28.9440  -25.7860   22.2520 C   0  0  0  0  0  2  0  0  0  0  0  0
  -29.7170  -25.9570   20.9310 C   0  0  0  0  0  2  0  0  0  0  0  0
  -29.1280  -27.0420   20.0150 C   0  0  0  0  0  2  0  0  0  0  0  0
  -27.8060  -26.6720   19.6310 O   0  0  0  0  0  0  0  0  0  0  0  0
  -24.4620  -31.8750   23.2720 C   0  0  0  0  0  0  0  0  0  0  0  0
  -26.7240  -27.5050   19.8340 C   0  0  0  0  0  0  0  0  0  0  0  0
  -23.0830  -30.5930   21.6620 C   0  0  0  0  0  3  0  0  0  0  0  0
  -24.3710  -29.0630   20.0800 C   0  0  0  0  0  0  0  0  0  0  0  0
  -25.5920  -30.8760   21.2930 C   0  0  0  0  0  2  0  0  0  0  0  0
  -25.5810  -29.5290   20.6070 C   0  0  0  0  0  0  0  0  0  0  0  0
  -26.7540  -28.7580   20.4950 C   0  0  0  0  0  3  0  0  0  0  0  0
  -25.4920  -27.0480   19.3160 C   0  0  0  0  0  3  0  0  0  0  0  0
  -24.3170  -27.8150   19.4370 C   0  0  0  0  0  3  0  0  0  0  0  0
  -23.1660  -29.9610   20.2470 C   0  0  0  0  0  2  0  0  0  0  0  0
  -24.4020  -31.1250   22.1350 N   0  0  0  0  0  0  0  0  0  0  0  0
  -23.4360  -32.1640   23.9000 O   0  0  0  0  0  0  0  0  0  0  0  0
  -22.4600  -29.5580   22.6260 C   0  0  0  0  0  0  0  0  0  0  0  0
  -21.1380  -29.3550   22.5090 N   0  0  0  0  0  0  0  0  0  0  0  0
  -23.1620  -28.9410   23.4310 O   0  0  0  0  0  0  0  0  0  0  0  0
  -20.6330  -29.9070   21.8300 H   0  0  0  0  0  0  0  0  0  0  0  0
  -17.8260  -27.9670   22.8870 C   0  0  0  0  0  0  0  0  0  0  0  0
  -20.3430  -28.4020   23.2800 C   0  0  0  0  0  3  0  0  0  0  0  0
  -20.5680  -26.9560   22.7810 C   0  0  0  0  0  2  0  0  0  0  0  0
  -19.5460  -26.5180   21.7270 C   0  0  0  0  0  2  0  0  0  0  0  0
  -18.1230  -26.6020   22.2900 C   0  0  0  0  0  2  0  0  0  0  0  0
  -18.8690  -28.8190   23.3370 C   0  0  0  0  0  0  0  0  0  0  0  0
  -18.5410  -30.0920   23.8510 C   0  0  0  0  0  3  0  0  0  0  0  0
  -17.2000  -30.5170   23.9210 C   0  0  0  0  0  3  0  0  0  0  0  0
  -16.1700  -29.6640   23.4880 C   0  0  0  0  0  3  0  0  0  0  0  0
  -16.4830  -28.3910   22.9760 C   0  0  0  0  0  3  0  0  0  0  0  0
  -25.8170  -32.4220   23.8210 C   0  0  0  0  0  3  0  0  0  0  0  0
  -25.6240  -33.8440   24.1360 N   0  0  0  0  0  0  0  0  0  0  0  0
  -26.0530  -34.8560   23.3700 C   0  0  0  0  0  0  0  0  0  0  0  0
  -26.7260  -34.6860   22.3490 O   0  0  0  0  0  0  0  0  0  0  0  0
  -25.0320  -34.0570   24.9260 H   0  0  0  0  0  0  0  0  0  0  0  0
  -24.5530  -36.8180   22.9050 C   0  0  0  0  0  1  0  0  0  0  0  0
  -25.6760  -36.2850   23.8060 C   0  0  0  0  0  3  0  0  0  0  0  0
  -27.8060  -36.9520   24.8300 C   0  0  0  0  0  1  0  0  0  0  0  0
  -26.8190  -37.2260   23.7890 N   0  0  0  0  0  0  0  0  0  0  0  0
  -26.4980  -38.1830   23.9010 H   0  0  0  0  0  0  0  0  0  0  0  0
  -26.3410  -31.6340   25.0840 C   0  0  1  0  0  0  0  0  0  0  0  0
  -25.2970  -31.5220   26.2190 C   0  0  0  0  0  1  0  0  0  0  0  0
  -26.7700  -30.2010   24.6920 C   0  0  0  0  0  1  0  0  0  0  0  0
  -27.5970  -32.3330   25.6540 C   0  0  0  0  0  1  0  0  0  0  0  0
  -28.1250  -17.3710   25.9380 C   0  0  0  0  0  2  0  0  0  0  0  0
  -26.7710  -17.4330   25.5040 O   0  0  0  0  0  0  0  0  0  0  0  0
  -26.1720  -16.1470   25.4180 C   0  0  0  0  0  2  0  0  0  0  0  0
  -24.9260  -16.2350   24.5220 C   0  0  0  0  0  2  0  0  0  0  0  0
  -25.2730  -16.3320   23.1440 O   0  0  0  0  0  0  0  0  0  0  0  0
  -25.9150  -15.1800   22.6050 C   0  0  0  0  0  2  0  0  0  0  0  0
  -26.6930  -15.5700   21.3420 C   0  0  0  0  0  2  0  0  0  0  0  0
  -27.8930  -16.2350   21.7190 O   0  0  0  0  0  0  0  0  0  0  0  0
  -28.5480  -16.9060   20.6490 C   0  0  0  0  0  2  0  0  0  0  0  0
  -29.2220  -15.9130   19.6900 C   0  0  0  0  0  2  0  0  0  0  0  0
  -30.6380  -13.9590   19.8020 C   0  0  0  0  0  0  0  0  0  0  0  0
  -30.5140  -11.5310   19.4060 C   0  0  0  0  0  2  0  0  0  0  0  0
  -29.6160  -11.2020   18.2000 C   0  0  0  0  0  2  0  0  0  0  0  0
  -28.1410  -11.0870   18.6290 C   0  0  0  0  0  2  0  0  0  0  0  0
  -27.6750  -12.2950   19.4820 C   0  0  0  0  0  3  0  0  0  0  0  0
  -28.6840  -12.5830   20.6180 C   0  0  0  0  0  2  0  0  0  0  0  0
  -30.0190  -12.7710   20.0210 N   0  0  0  0  0  0  0  0  0  0  0  0
  -31.6710  -14.0870   19.1440 O   0  0  0  0  0  0  0  0  0  0  0  0
  -30.1100  -15.0140   20.4220 N   0  0  0  0  0  0  0  0  0  0  0  0
  -30.8250  -15.5550   20.8880 H   0  0  0  0  0  0  0  0  0  0  0  0
  -25.2970  -13.0150   20.1630 C   0  0  0  0  0  0  0  0  0  0  0  0
  -24.2200  -12.2990   20.6110 C   0  0  0  0  0  0  0  0  0  0  0  0
  -24.6520  -10.9390   20.6830 C   0  0  0  0  0  0  0  0  0  0  0  0
  -26.3220  -12.0950   19.9960 N   0  0  0  0  0  0  0  0  0  0  0  0
  -25.9360  -10.8470   20.3620 N   0  0  0  0  0  0  0  0  0  0  0  0
  -23.9010   -9.7130   20.9800 C   0  0  0  0  0  0  0  0  0  0  0  0
  -24.3180   -8.8200   21.9920 C   0  0  0  0  0  3  0  0  0  0  0  0
  -23.5690   -7.6570   22.2720 C   0  0  0  0  0  3  0  0  0  0  0  0
  -22.3900   -7.3770   21.5400 C   0  0  0  0  0  0  0  0  0  0  0  0
  -21.9950   -8.2580   20.5180 C   0  0  0  0  0  3  0  0  0  0  0  0
  -22.7430   -9.4130   20.2380 C   0  0  0  0  0  3  0  0  0  0  0  0
  -21.6140   -6.2600   21.7260 O   0  0  0  0  0  0  0  0  0  0  0  0
  -21.6210   -5.5660   22.9110 C   0  0  0  0  0  0  0  0  0  0  0  0
  -21.0440   -6.0940   24.0870 C   0  0  0  0  0  3  0  0  0  0  0  0
  -21.0120   -5.3200   25.2640 C   0  0  0  0  0  3  0  0  0  0  0  0
  -21.5480   -4.0170   25.2660 C   0  0  0  0  0  0  0  0  0  0  0  0
  -22.1180   -3.4900   24.0940 C   0  0  0  0  0  3  0  0  0  0  0  0
  -22.1520   -4.2620   22.9190 C   0  0  0  0  0  0  0  0  0  0  0  0
  -22.6840   -3.7400   21.7870 F   0  0  0  0  0  0  0  0  0  0  0  0
  -21.5110   -3.2700   26.3920 F   0  0  0  0  0  0  0  0  0  0  0  0
  -22.8370  -12.8280   20.8640 C   0  0  0  0  0  0  0  0  0  0  0  0
  -22.1330  -12.2650   21.8390 N   0  0  0  0  0  0  0  0  0  0  0  0
  -22.3910  -13.7800   20.2250 O   0  0  0  0  0  0  0  0  0  0  0  0
  -22.5050  -11.4970   22.3780 H   0  0  0  0  0  0  0  0  0  0  0  0
  -21.2080  -12.6090   22.0480 H   0  0  0  0  0  0  0  0  0  0  0  0
  -25.4810  -14.3610   19.8650 N   0  0  0  0  0  0  0  0  0  0  0  0
  -24.7150  -15.0230   19.8990 H   0  0  0  0  0  0  0  0  0  0  0  0
  -26.3120  -14.7410   19.4280 H   0  0  0  0  0  0  0  0  0  0  0  0
  1 56  1  0
  1  3  2  0
  2  1  1  0
  4  2  1  0
  5  2  1  0
  6  7  1  0
  6  5  1  0
  8 11  1  0
  8  7  1  0
  9  8  1  0
 10  8  1  0
 12 11  1  0
 13 12  1  0
 14 13  1  0
 15 17  1  0
 15 14  1  0
 16 27  2  0
 17 22  1  0
 18 26  1  0
 18 28  1  0
 19 25  1  0
 19 21  1  0
 20 26  1  0
 21 20  1  0
 22 21  2  0
 23 24  1  0
 23 17  2  0
 24 19  2  0
 25 18  1  0
 26 16  1  0
 28 30  2  0
 29 28  1  0
 31 29  1  0
 32 41  2  0
 32 37  1  0
 33 29  1  0
 33 37  1  0
 34 33  1  0
 35 36  1  0
 35 34  1  0
 36 32  1  0
 37 38  2  0
 38 39  1  0
 40 39  2  0
 41 40  1  0
 42 16  1  0
 42 43  1  0
 42 52  1  0
 43 46  1  0
 44 48  1  0
 44 43  1  0
 45 44  2  0
 48 47  1  0
 50 48  1  0
 50 51  1  0
 50 49  1  0
 52 55  1  1
 52 53  1  0
 54 52  1  0
 57 56  1  0
 58 57  1  0
 59 58  1  0
 60 59  1  0
 61 60  1  0
 62 63  1  0
 62 61  1  0
 64 63  1  0
 65 74  1  0
 65 64  1  0
 66 72  1  0
 66 74  1  0
 67 72  1  0
 68 69  1  0
 68 67  1  0
 70 69  1  0
 70 79  1  0
 70 71  1  0
 72 71  1  0
 73 66  2  0
 74 75  1  0
 76 77  2  0
 77 78  1  0
 77 96  1  0
 78 81  1  0
 79 76  1  0
 79 80  1  0
 80 78  2  0
 81 82  1  0
 82 83  2  0
 84 87  1  0
 84 83  1  0
 85 84  2  0
 86 85  1  0
 86 81  2  0
 87 88  1  0
 88 93  2  0
 88 89  1  0
 89 90  2  0
 90 91  1  0
 91 95  1  0
 92 91  2  0
 93 92  1  0
 94 93  1  0
 96 97  1  0
 97100  1  0
 97 99  1  0
 98 96  2  0
101102  1  0
101 76  1  0
103101  1  0
M  ISO  4  14 101  15 101  66 100  74 100
M  END
>  <TORSDO>  (89) 
F 34

>  <SCORE>  (89) 
15.743

>  <name>  (89) 
91

>  <ligand_id>  (89) 
91

>  <original_smiles>  (89) 
[H]c1c([H])c([H])c2c(c1[H])C([H])([H])C([H])([H])C([H])([H])C2([H])N([H])C(=O)C1([H])N(C(=O)C([H])(N([H])C(=O)C([H])(N([H])C([H])([H])[H])C([H])([H])[H])C(C([H])([H])[H])(C([H])([H])[H])C([H])([H])[H])C([H])([H])c2c([H])c(OC([H])([H])C([H])([H])C([H])([H])C([H])([H])[N+]([H])([H])C([H])([H])C([H])([H])C([H])([H])N([H])C(=O)C([H])([H])OC([H])([H])C([H])([H])OC([H])([H])C([H])([H])OC([H])([H])C([H])([H])N([H])C(=O)N3C([H])([H])C([H])([H])C([H])([H])C([H])(n4nc(-c5c([H])c([H])c(Oc6c([H])c([H])c(F)c([H])c6F)c([H])c5[H])c(C(=O)N([H])[H])c4N([H])[H])C3([H])[H])c([H])c([H])c2C1([H])[H]

>  <smiles>  (89) 
[H]c1c([H])c([H])c2c(c1[H])C([H])([H])C([H])([H])C([H])([H])C2([H])N([H])C(=O)C1([H])N(C(=O)C([H])(N([H])C(=O)C([H])(N([H])C([H])([H])[H])C([H])([H])[H])C(C([H])([H])[H])(C([H])([H])[H])C([H])([H])[H])C([H])([H])c2c([H])c(OC([H])([H])C([H])([H])C([H])([H])C([H])([H])[N+]([H])([H])C([H])([H])C([H])([H])C([H])([H])N([H])C(=O)C([H])([H])OC([H])([H])C([H])([H])OC([H])([H])C([H])([H])OC([H])([H])C([H])([H])N([H])C(=O)N3C([H])([H])C([H])([H])C([H])([H])C([H])(n4nc(-c5c([H])c([H])c(Oc6c([H])c([H])c(F)c([H])c6F)c([H])c5[H])c(C(=O)N([H])[H])c4N([H])[H])C3([H])[H])c([H])c([H])c2C1([H])[H]

$$$$
94:0:0
     RDKit          3D

 98105  0  0  1  0  0  0  0  0999 V2000
  -31.9240  -21.8590   19.4790 C   0  0  0  0  0  2  0  0  0  0  0  0
  -30.8820  -20.9770   18.7740 C   0  0  0  0  0  2  0  0  0  0  0  0
  -29.5880  -21.3070   19.2710 O   0  0  0  0  0  0  0  0  0  0  0  0
  -28.5620  -20.3770   18.9210 C   0  0  0  0  0  2  0  0  0  0  0  0
  -28.1180  -19.6240   20.1860 C   0  0  0  0  0  2  0  0  0  0  0  0
  -29.7440  -17.7740   20.4780 C   0  0  0  0  0  0  0  0  0  0  0  0
  -29.2520  -18.9660   20.8280 N   0  0  0  0  0  0  0  0  0  0  0  0
  -29.1880  -17.0560   19.6470 O   0  0  0  0  0  0  0  0  0  0  0  0
  -29.7580  -19.5120   21.5140 H   0  0  0  0  0  0  0  0  0  0  0  0
  -31.0930  -17.3720   21.0950 C   0  0  0  0  0  2  0  0  0  0  0  0
  -31.1030  -16.0930   21.9730 C   0  0  0  0  0  2  0  0  0  0  0  0
  -30.7510  -14.2680   20.2790 C   0  0  0  0  0  0  0  0  0  0  0  0
  -30.2450  -12.2740   18.9130 C   0  0  0  0  0  2  0  0  0  0  0  0
  -29.2560  -12.5950   17.7800 C   0  0  0  0  0  2  0  0  0  0  0  0
  -27.8010  -12.4760   18.2740 C   0  0  0  0  0  2  0  0  0  0  0  0
  -27.5620  -13.2560   19.5930 C   0  0  0  0  0  3  0  0  0  0  0  0
  -28.6520  -12.9200   20.6340 C   0  0  0  0  0  2  0  0  0  0  0  0
  -29.9750  -13.1830   20.0350 N   0  0  0  0  0  0  0  0  0  0  0  0
  -31.7170  -14.5920   19.5780 O   0  0  0  0  0  0  0  0  0  0  0  0
  -30.4360  -14.9230   21.4020 N   0  0  0  0  0  0  0  0  0  0  0  0
  -29.6400  -14.5630   21.9070 H   0  0  0  0  0  0  0  0  0  0  0  0
  -25.1960  -13.9060   20.3760 C   0  0  0  0  0  0  0  0  0  0  0  0
  -24.1340  -13.1530   20.8010 C   0  0  0  0  0  0  0  0  0  0  0  0
  -24.5730  -11.7950   20.7600 C   0  0  0  0  0  0  0  0  0  0  0  0
  -26.2220  -13.0090   20.1210 N   0  0  0  0  0  0  0  0  0  0  0  0
  -25.8500  -11.7340   20.4040 N   0  0  0  0  0  0  0  0  0  0  0  0
  -23.8350  -10.5460   20.9870 C   0  0  0  0  0  0  0  0  0  0  0  0
  -24.2970   -9.5720   21.9010 C   0  0  0  0  0  3  0  0  0  0  0  0
  -23.5610   -8.3840   22.1120 C   0  0  0  0  0  3  0  0  0  0  0  0
  -22.3480   -8.1660   21.4150 C   0  0  0  0  0  0  0  0  0  0  0  0
  -21.9060   -9.1300   20.4900 C   0  0  0  0  0  3  0  0  0  0  0  0
  -22.6420  -10.3070   20.2760 C   0  0  0  0  0  3  0  0  0  0  0  0
  -21.5780   -7.0340   21.5400 O   0  0  0  0  0  0  0  0  0  0  0  0
  -21.5830   -6.2850   22.6890 C   0  0  0  0  0  0  0  0  0  0  0  0
  -21.2610   -6.8440   23.9460 C   0  0  0  0  0  3  0  0  0  0  0  0
  -21.2080   -6.0220   25.0890 C   0  0  0  0  0  3  0  0  0  0  0  0
  -21.4690   -4.6440   24.9790 C   0  0  0  0  0  0  0  0  0  0  0  0
  -21.7870   -4.0840   23.7280 C   0  0  0  0  0  3  0  0  0  0  0  0
  -21.8410   -4.9040   22.5880 C   0  0  0  0  0  0  0  0  0  0  0  0
  -22.1230   -4.3560   21.3800 F   0  0  0  0  0  0  0  0  0  0  0  0
  -21.4140   -3.8520   26.0770 F   0  0  0  0  0  0  0  0  0  0  0  0
  -22.7560  -13.6540   21.1300 C   0  0  0  0  0  0  0  0  0  0  0  0
  -22.0520  -12.9780   22.0320 N   0  0  0  0  0  0  0  0  0  0  0  0
  -22.3140  -14.6820   20.6190 O   0  0  0  0  0  0  0  0  0  0  0  0
  -22.4170  -12.1450   22.4720 H   0  0  0  0  0  0  0  0  0  0  0  0
  -21.1290  -13.2970   22.2880 H   0  0  0  0  0  0  0  0  0  0  0  0
  -25.3670  -15.2720   20.1660 N   0  0  0  0  0  0  0  0  0  0  0  0
  -24.5920  -15.9220   20.2440 H   0  0  0  0  0  0  0  0  0  0  0  0
  -26.2080  -15.6960   19.7930 H   0  0  0  0  0  0  0  0  0  0  0  0
  -31.7400  -23.2100   19.0800 O   0  0  0  0  0  0  0  0  0  0  0  0
  -32.5520  -24.1270   19.8140 C   0  0  0  0  0  2  0  0  0  0  0  0
  -32.1630  -25.5610   19.4410 C   0  0  0  0  0  0  0  0  0  0  0  0
  -30.9660  -25.7140   18.8620 N   0  0  0  0  0  0  0  0  0  0  0  0
  -32.9140  -26.5070   19.6810 O   0  0  0  0  0  0  0  0  0  0  0  0
  -30.4450  -24.8620   18.6980 H   0  0  0  0  0  0  0  0  0  0  0  0
  -30.3550  -26.9790   18.4760 C   0  0  0  0  0  2  0  0  0  0  0  0
  -29.6330  -27.6420   19.6560 C   0  0  0  0  0  2  0  0  0  0  0  0
  -28.5310  -26.8340   20.0810 O   0  0  0  0  0  0  0  0  0  0  0  0
  -24.6280  -31.9080   23.2470 C   0  0  0  0  0  0  0  0  0  0  0  0
  -27.3420  -27.5130   20.1980 C   0  0  0  0  0  0  0  0  0  0  0  0
  -23.4380  -30.4830   21.6080 C   0  0  0  0  0  3  0  0  0  0  0  0
  -24.9110  -28.9420   20.2120 C   0  0  0  0  0  0  0  0  0  0  0  0
  -25.9540  -30.8720   21.4200 C   0  0  0  0  0  2  0  0  0  0  0  0
  -26.0530  -29.4970   20.8010 C   0  0  0  0  0  0  0  0  0  0  0  0
  -27.2680  -28.7860   20.8060 C   0  0  0  0  0  3  0  0  0  0  0  0
  -26.1780  -26.9410   19.6490 C   0  0  0  0  0  3  0  0  0  0  0  0
  -24.9620  -27.6560   19.6440 C   0  0  0  0  0  3  0  0  0  0  0  0
  -23.6570  -29.7860   20.2380 C   0  0  0  0  0  2  0  0  0  0  0  0
  -24.6900  -31.1030   22.1500 N   0  0  0  0  0  0  0  0  0  0  0  0
  -23.5420  -32.1740   23.7820 O   0  0  0  0  0  0  0  0  0  0  0  0
  -22.7960  -29.4630   22.5760 C   0  0  0  0  0  0  0  0  0  0  0  0
  -21.4740  -29.2680   22.4400 N   0  0  0  0  0  0  0  0  0  0  0  0
  -23.4820  -28.8480   23.3970 O   0  0  0  0  0  0  0  0  0  0  0  0
  -20.9860  -29.8120   21.7420 H   0  0  0  0  0  0  0  0  0  0  0  0
  -18.1050  -28.0640   22.9190 C   0  0  0  0  0  0  0  0  0  0  0  0
  -20.6590  -28.3310   23.2110 C   0  0  0  0  0  3  0  0  0  0  0  0
  -20.7730  -26.8980   22.6410 C   0  0  0  0  0  2  0  0  0  0  0  0
  -19.6790  -26.5660   21.6220 C   0  0  0  0  0  2  0  0  0  0  0  0
  -18.2910  -26.7110   22.2540 C   0  0  0  0  0  2  0  0  0  0  0  0
  -19.2170  -28.8320   23.3540 C   0  0  0  0  0  0  0  0  0  0  0  0
  -18.9900  -30.0990   23.9320 C   0  0  0  0  0  3  0  0  0  0  0  0
  -17.6810  -30.5980   24.0840 C   0  0  0  0  0  3  0  0  0  0  0  0
  -16.5840  -29.8270   23.6680 C   0  0  0  0  0  3  0  0  0  0  0  0
  -16.7950  -28.5620   23.0910 C   0  0  0  0  0  3  0  0  0  0  0  0
  -25.9080  -32.5490   23.8660 C   0  0  0  0  0  3  0  0  0  0  0  0
  -25.5860  -33.9440   24.1970 N   0  0  0  0  0  0  0  0  0  0  0  0
  -25.9140  -34.9990   23.4390 C   0  0  0  0  0  0  0  0  0  0  0  0
  -26.5920  -34.9000   22.4110 O   0  0  0  0  0  0  0  0  0  0  0  0
  -24.9820  -34.0900   24.9910 H   0  0  0  0  0  0  0  0  0  0  0  0
  -24.1690  -36.7710   23.0690 C   0  0  0  0  0  1  0  0  0  0  0  0
  -25.4090  -36.3820   23.8890 C   0  0  0  0  0  3  0  0  0  0  0  0
  -27.5310  -37.2850   24.7290 C   0  0  0  0  0  1  0  0  0  0  0  0
  -26.4320  -37.4450   23.7840 N   0  0  0  0  0  0  0  0  0  0  0  0
  -26.0140  -38.3620   23.9320 H   0  0  0  0  0  0  0  0  0  0  0  0
  -26.4340  -31.7830   25.1410 C   0  0  1  0  0  0  0  0  0  0  0  0
  -25.3420  -31.5290   26.2050 C   0  0  0  0  0  1  0  0  0  0  0  0
  -27.0400  -30.4150   24.7460 C   0  0  0  0  0  1  0  0  0  0  0  0
  -27.5720  -32.5920   25.8070 C   0  0  0  0  0  1  0  0  0  0  0  0
  2  3  1  0
  2  1  1  0
  4  3  1  0
  4  5  1  0
  5  7  1  0
  6  7  1  0
  6 10  1  0
  7  9  1  0
  8  6  2  0
 10 11  1  0
 12 20  1  0
 13 18  1  0
 14 15  1  0
 14 13  1  0
 16 15  1  0
 16 25  1  0
 16 17  1  0
 18 12  1  0
 18 17  1  0
 19 12  2  0
 20 21  1  0
 20 11  1  0
 22 23  2  0
 23 42  1  0
 24 23  1  0
 24 27  1  0
 25 22  1  0
 25 26  1  0
 26 24  2  0
 27 28  1  0
 28 29  2  0
 30 33  1  0
 30 29  1  0
 31 30  2  0
 32 31  1  0
 32 27  2  0
 33 34  1  0
 34 35  1  0
 35 36  2  0
 37 36  1  0
 37 41  1  0
 38 37  2  0
 39 34  2  0
 39 38  1  0
 40 39  1  0
 42 43  1  0
 43 46  1  0
 43 45  1  0
 44 42  2  0
 47 48  1  0
 47 22  1  0
 49 47  1  0
 50  1  1  0
 50 51  1  0
 52 54  2  0
 52 51  1  0
 53 52  1  0
 55 53  1  0
 56 53  1  0
 56 57  1  0
 57 58  1  0
 58 60  1  0
 59 70  2  0
 60 65  1  0
 61 69  1  0
 61 71  1  0
 62 68  1  0
 62 64  1  0
 63 69  1  0
 64 65  2  0
 64 63  1  0
 66 60  2  0
 67 66  1  0
 67 62  2  0
 68 61  1  0
 69 59  1  0
 71 73  2  0
 72 71  1  0
 74 72  1  0
 75 84  2  0
 75 80  1  0
 76 72  1  0
 76 80  1  0
 77 76  1  0
 78 79  1  0
 78 77  1  0
 79 75  1  0
 80 81  2  0
 81 82  1  0
 83 82  2  0
 84 83  1  0
 85 59  1  0
 85 86  1  0
 85 95  1  0
 86 89  1  0
 87 91  1  0
 87 86  1  0
 88 87  2  0
 91 90  1  0
 93 91  1  0
 93 94  1  0
 93 92  1  0
 95 98  1  1
 95 96  1  0
 97 95  1  0
M  ISO  4  12 100  20 100  57 101  58 101
M  END
>  <TORSDO>  (90) 
F 28

>  <SCORE>  (90) 
-11.470

>  <name>  (90) 
94

>  <ligand_id>  (90) 
94

>  <original_smiles>  (90) 
[H]c1c([H])c([H])c2c(c1[H])C([H])([H])C([H])([H])C([H])([H])C2([H])N([H])C(=O)C1([H])N(C(=O)C([H])(N([H])C(=O)C([H])(N([H])C([H])([H])[H])C([H])([H])[H])C(C([H])([H])[H])(C([H])([H])[H])C([H])([H])[H])C([H])([H])c2c([H])c(OC([H])([H])C([H])([H])N([H])C(=O)C([H])([H])OC([H])([H])C([H])([H])OC([H])([H])C([H])([H])N([H])C(=O)C([H])([H])C([H])([H])N([H])C(=O)N3C([H])([H])C([H])([H])C([H])([H])C([H])(n4nc(-c5c([H])c([H])c(Oc6c([H])c([H])c(F)c([H])c6F)c([H])c5[H])c(C(=O)N([H])[H])c4N([H])[H])C3([H])[H])c([H])c([H])c2C1([H])[H]

>  <smiles>  (90) 
[H]c1c([H])c([H])c2c(c1[H])C([H])([H])C([H])([H])C([H])([H])C2([H])N([H])C(=O)C1([H])N(C(=O)C([H])(N([H])C(=O)C([H])(N([H])C([H])([H])[H])C([H])([H])[H])C(C([H])([H])[H])(C([H])([H])[H])C([H])([H])[H])C([H])([H])c2c([H])c(OC([H])([H])C([H])([H])N([H])C(=O)C([H])([H])OC([H])([H])C([H])([H])OC([H])([H])C([H])([H])N([H])C(=O)C([H])([H])C([H])([H])N([H])C(=O)N3C([H])([H])C([H])([H])C([H])([H])C([H])(n4nc(-c5c([H])c([H])c(Oc6c([H])c([H])c(F)c([H])c6F)c([H])c5[H])c(C(=O)N([H])[H])c4N([H])[H])C3([H])[H])c([H])c([H])c2C1([H])[H]

$$$$
95:0:0
     RDKit          3D

113120  0  0  1  0  0  0  0  0999 V2000
  -23.0620  -17.1820   17.0840 C   0  0  0  0  0  2  0  0  0  0  0  0
  -24.1750  -16.7730   18.0700 C   0  0  0  0  0  2  0  0  0  0  0  0
  -23.3780  -16.1400   20.3910 C   0  0  0  0  0  0  0  0  0  0  0  0
  -23.8120  -17.0570   19.4730 N   0  0  0  0  0  0  0  0  0  0  0  0
  -22.9870  -16.4730   21.5160 O   0  0  0  0  0  0  0  0  0  0  0  0
  -23.3950  -14.7400   19.9550 C   0  0  0  0  0  3  0  0  0  0  0  0
  -22.7670  -13.7650   20.6400 C   0  0  0  0  0  3  0  0  0  0  0  0
  -22.7900  -12.3130   20.2080 C   0  0  0  0  0  1  0  0  0  0  0  0
  -23.7780  -18.5030   19.7720 C   0  0  0  0  0  2  0  0  0  0  0  0
  -25.0060  -19.2860   19.2700 C   0  0  0  0  0  2  0  0  0  0  0  0
  -26.0300  -18.4310   18.7870 O   0  0  0  0  0  0  0  0  0  0  0  0
  -27.3280  -18.8930   19.1400 C   0  0  0  0  0  2  0  0  0  0  0  0
  -27.8050  -19.9630   18.1510 C   0  0  0  0  0  2  0  0  0  0  0  0
  -27.6610  -21.2290   18.7820 O   0  0  0  0  0  0  0  0  0  0  0  0
  -28.5310  -22.2180   18.2600 C   0  0  0  0  0  2  0  0  0  0  0  0
  -28.6220  -23.4000   19.2370 C   0  0  0  0  0  2  0  0  0  0  0  0
  -28.8590  -22.9480   20.5680 O   0  0  0  0  0  0  0  0  0  0  0  0
  -29.3110  -23.9740   21.4450 C   0  0  0  0  0  2  0  0  0  0  0  0
  -28.2010  -24.9970   21.7380 C   0  0  0  0  0  2  0  0  0  0  0  0
  -27.9620  -26.3060   23.8410 C   0  0  0  0  0  0  0  0  0  0  0  0
  -29.1840  -28.1700   24.8970 C   0  0  0  0  0  2  0  0  0  0  0  0
  -29.1470  -29.4290   24.0150 C   0  0  0  0  0  2  0  0  0  0  0  0
  -30.3110  -29.4110   23.0110 C   0  0  0  0  0  2  0  0  0  0  0  0
  -30.3900  -28.0750   22.2270 C   0  0  0  0  0  3  0  0  0  0  0  0
  -30.3510  -26.8830   23.2040 C   0  0  0  0  0  2  0  0  0  0  0  0
  -29.1260  -26.9890   24.0170 N   0  0  0  0  0  0  0  0  0  0  0  0
  -26.9160  -26.5950   24.4280 O   0  0  0  0  0  0  0  0  0  0  0  0
  -28.0220  -25.1430   23.1840 N   0  0  0  0  0  0  0  0  0  0  0  0
  -27.2950  -24.5270   23.5180 H   0  0  0  0  0  0  0  0  0  0  0  0
  -31.6370  -27.7920   19.9900 C   0  0  0  0  0  0  0  0  0  0  0  0
  -32.9650  -27.9030   19.6680 C   0  0  0  0  0  0  0  0  0  0  0  0
  -33.6360  -28.2520   20.8800 C   0  0  0  0  0  0  0  0  0  0  0  0
  -31.5630  -28.0280   21.3550 N   0  0  0  0  0  0  0  0  0  0  0  0
  -32.7850  -28.2590   21.8940 N   0  0  0  0  0  0  0  0  0  0  0  0
  -35.0350  -28.6210   21.1230 C   0  0  0  0  0  0  0  0  0  0  0  0
  -35.7950  -28.0020   22.1400 C   0  0  0  0  0  3  0  0  0  0  0  0
  -37.1460  -28.3640   22.3440 C   0  0  0  0  0  3  0  0  0  0  0  0
  -37.7470  -29.3510   21.5280 C   0  0  0  0  0  0  0  0  0  0  0  0
  -36.9770  -29.9790   20.5300 C   0  0  0  0  0  3  0  0  0  0  0  0
  -35.6330  -29.6190   20.3300 C   0  0  0  0  0  3  0  0  0  0  0  0
  -39.0430  -29.7890   21.6800 O   0  0  0  0  0  0  0  0  0  0  0  0
  -39.9920  -29.0230   22.3070 C   0  0  0  0  0  0  0  0  0  0  0  0
  -40.3270  -27.7280   21.8540 C   0  0  0  0  0  3  0  0  0  0  0  0
  -41.3630  -27.0090   22.4820 C   0  0  0  0  0  3  0  0  0  0  0  0
  -42.0660  -27.5790   23.5610 C   0  0  0  0  0  0  0  0  0  0  0  0
  -41.7330  -28.8680   24.0140 C   0  0  0  0  0  3  0  0  0  0  0  0
  -40.7030  -29.5890   23.3870 C   0  0  0  0  0  0  0  0  0  0  0  0
  -40.4030  -30.8430   23.8090 F   0  0  0  0  0  0  0  0  0  0  0  0
  -43.0640  -26.8930   24.1610 F   0  0  0  0  0  0  0  0  0  0  0  0
  -33.5600  -27.7920   18.2980 C   0  0  0  0  0  0  0  0  0  0  0  0
  -34.7840  -27.2910   18.1920 N   0  0  0  0  0  0  0  0  0  0  0  0
  -32.9200  -28.0960   17.2960 O   0  0  0  0  0  0  0  0  0  0  0  0
  -35.3140  -27.0270   19.0110 H   0  0  0  0  0  0  0  0  0  0  0  0
  -35.2070  -27.2090   17.2790 H   0  0  0  0  0  0  0  0  0  0  0  0
  -30.4960  -27.5260   19.2410 N   0  0  0  0  0  0  0  0  0  0  0  0
  -30.5620  -27.3080   18.2500 H   0  0  0  0  0  0  0  0  0  0  0  0
  -29.5870  -27.3170   19.6310 H   0  0  0  0  0  0  0  0  0  0  0  0
  -23.3870  -16.8440   15.6210 C   0  0  0  0  0  2  0  0  0  0  0  0
  -25.3510  -18.2760   15.0480 C   0  0  0  0  0  0  0  0  0  0  0  0
  -24.7850  -17.0830   15.2710 N   0  0  0  0  0  0  0  0  0  0  0  0
  -24.7300  -19.3330   15.1760 O   0  0  0  0  0  0  0  0  0  0  0  0
  -25.3710  -16.2680   15.1610 H   0  0  0  0  0  0  0  0  0  0  0  0
  -26.8210  -18.2730   14.6020 C   0  0  0  0  0  2  0  0  0  0  0  0
  -27.4790  -19.4550   15.0640 O   0  0  0  0  0  0  0  0  0  0  0  0
  -28.5960  -19.8160   14.2590 C   0  0  0  0  0  2  0  0  0  0  0  0
  -29.6400  -20.5710   15.1010 C   0  0  0  0  0  2  0  0  0  0  0  0
  -30.7300  -19.7290   15.4740 O   0  0  0  0  0  0  0  0  0  0  0  0
  -31.7900  -20.4740   16.0720 C   0  0  0  0  0  2  0  0  0  0  0  0
  -33.0350  -19.6040   16.3310 C   0  0  0  0  0  2  0  0  0  0  0  0
  -33.8290  -19.5130   15.1500 O   0  0  0  0  0  0  0  0  0  0  0  0
  -34.7890  -18.4600   15.1940 C   0  0  0  0  0  2  0  0  0  0  0  0
  -35.7070  -18.5700   13.9600 C   0  0  0  0  0  2  0  0  0  0  0  0
  -36.6330  -17.4880   13.8440 O   0  0  0  0  0  0  0  0  0  0  0  0
  -38.3840  -10.9090   11.8110 C   0  0  0  0  0  0  0  0  0  0  0  0
  -36.4040  -16.4800   12.9310 C   0  0  0  0  0  0  0  0  0  0  0  0
  -36.8930  -12.1400   10.2700 C   0  0  0  0  0  3  0  0  0  0  0  0
  -35.9240  -14.3160   11.1740 C   0  0  0  0  0  0  0  0  0  0  0  0
  -36.8960  -12.6640   12.7750 C   0  0  0  0  0  2  0  0  0  0  0  0
  -36.5230  -14.0860   12.4180 C   0  0  0  0  0  0  0  0  0  0  0  0
  -36.7600  -15.1640   13.2970 C   0  0  0  0  0  3  0  0  0  0  0  0
  -35.8230  -16.6940   11.6590 C   0  0  0  0  0  3  0  0  0  0  0  0
  -35.5780  -15.6200   10.7880 C   0  0  0  0  0  3  0  0  0  0  0  0
  -35.6800  -13.1080   10.3000 C   0  0  0  0  0  2  0  0  0  0  0  0
  -37.4490  -11.8870   11.6390 N   0  0  0  0  0  0  0  0  0  0  0  0
  -38.7500  -10.1990   10.8640 O   0  0  0  0  0  0  0  0  0  0  0  0
  -37.9400  -12.6880    9.2740 C   0  0  0  0  0  0  0  0  0  0  0  0
  -37.6790  -12.4950    7.9710 N   0  0  0  0  0  0  0  0  0  0  0  0
  -38.9400  -13.2910    9.6730 O   0  0  0  0  0  0  0  0  0  0  0  0
  -36.8420  -11.9880    7.7250 H   0  0  0  0  0  0  0  0  0  0  0  0
  -37.9390  -12.5180    4.3670 C   0  0  0  0  0  0  0  0  0  0  0  0
  -38.5050  -12.9510    6.8520 C   0  0  0  0  0  3  0  0  0  0  0  0
  -38.2490  -14.4450    6.5470 C   0  0  0  0  0  2  0  0  0  0  0  0
  -37.1800  -14.6650    5.4730 C   0  0  0  0  0  2  0  0  0  0  0  0
  -37.5830  -13.9800    4.1640 C   0  0  0  0  0  2  0  0  0  0  0  0
  -38.3580  -12.0310    5.6340 C   0  0  0  0  0  0  0  0  0  0  0  0
  -38.6420  -10.6550    5.7790 C   0  0  0  0  0  3  0  0  0  0  0  0
  -38.5210   -9.7760    4.6870 C   0  0  0  0  0  3  0  0  0  0  0  0
  -38.1200  -10.2680    3.4310 C   0  0  0  0  0  3  0  0  0  0  0  0
  -37.8330  -11.6350    3.2730 C   0  0  0  0  0  3  0  0  0  0  0  0
  -39.0170  -10.6230   13.2080 C   0  0  0  0  0  3  0  0  0  0  0  0
  -38.6790   -9.2420   13.5750 N   0  0  0  0  0  0  0  0  0  0  0  0
  -37.6500   -8.8940   14.3590 C   0  0  0  0  0  0  0  0  0  0  0  0
  -36.9240   -9.7200   14.9210 O   0  0  0  0  0  0  0  0  0  0  0  0
  -39.2040   -8.5130   13.1140 H   0  0  0  0  0  0  0  0  0  0  0  0
  -36.2270   -6.9510   13.6360 C   0  0  0  0  0  1  0  0  0  0  0  0
  -37.3820   -7.3880   14.5510 C   0  0  0  0  0  3  0  0  0  0  0  0
  -38.1680   -7.3030   16.8760 C   0  0  0  0  0  1  0  0  0  0  0  0
  -37.0750   -7.0200   15.9500 N   0  0  0  0  0  0  0  0  0  0  0  0
  -36.8490   -6.0320   16.0180 H   0  0  0  0  0  0  0  0  0  0  0  0
  -40.5790  -10.8430   13.2400 C   0  0  1  0  0  0  0  0  0  0  0  0
  -41.3300  -10.1240   12.0950 C   0  0  0  0  0  1  0  0  0  0  0  0
  -40.9150  -12.3520   13.1510 C   0  0  0  0  0  1  0  0  0  0  0  0
  -41.1580  -10.3340   14.5820 C   0  0  0  0  0  1  0  0  0  0  0  0
  1  2  1  0
  2  4  1  0
  3  5  2  0
  4  9  1  0
  4  3  1  0
  6  3  1  0
  6  7  2  0
  8  7  1  0
 10  9  1  0
 11 12  1  0
 11 10  1  0
 13 14  1  0
 13 12  1  0
 15 14  1  0
 15 16  1  0
 16 17  1  0
 17 18  1  0
 18 19  1  0
 19 28  1  0
 20 26  1  0
 20 27  2  0
 22 21  1  0
 23 22  1  0
 24 33  1  0
 24 23  1  0
 24 25  1  0
 25 26  1  0
 26 21  1  0
 28 29  1  0
 28 20  1  0
 30 33  1  0
 31 30  2  0
 31 32  1  0
 32 35  1  0
 32 34  2  0
 33 34  1  0
 35 36  1  0
 36 37  2  0
 38 41  1  0
 38 37  1  0
 39 38  2  0
 40 39  1  0
 40 35  2  0
 41 42  1  0
 42 47  1  0
 43 42  2  0
 43 44  1  0
 44 45  2  0
 45 46  1  0
 45 49  1  0
 47 48  1  0
 47 46  2  0
 50 31  1  0
 51 50  1  0
 51 53  1  0
 52 50  2  0
 54 51  1  0
 55 57  1  0
 55 30  1  0
 56 55  1  0
 58  1  1  0
 59 61  2  0
 59 60  1  0
 60 58  1  0
 62 60  1  0
 63 59  1  0
 63 64  1  0
 65 64  1  0
 65 66  1  0
 66 67  1  0
 67 68  1  0
 68 69  1  0
 70 71  1  0
 70 69  1  0
 72 71  1  0
 73 72  1  0
 75 80  1  0
 75 73  1  0
 76 86  1  0
 76 83  1  0
 76 84  1  0
 77 79  1  0
 79 78  1  0
 79 80  2  0
 81 75  2  0
 82 77  2  0
 82 81  1  0
 83 77  1  0
 84 74  1  0
 84 78  1  0
 85 74  2  0
 86 88  2  0
 87 86  1  0
 89 87  1  0
 90 95  1  0
 91 87  1  0
 92 91  1  0
 93 92  1  0
 94 90  1  0
 94 93  1  0
 95 96  2  0
 95 91  1  0
 97 96  1  0
 98 97  2  0
 99 98  1  0
 99 90  2  0
100 74  1  0
100110  1  0
100101  1  0
101102  1  0
102106  1  0
102103  2  0
104101  1  0
106105  1  0
106108  1  0
108109  1  0
108107  1  0
110113  1  1
111110  1  0
112110  1  0
M  ISO  4  20 100  28 100  72 101  73 101
M  END
>  <TORSDO>  (91) 
F 42

>  <SCORE>  (91) 
18.891

>  <name>  (91) 
95

>  <ligand_id>  (91) 
95

>  <original_smiles>  (91) 
[H]C(C(=O)N(C([H])([H])C([H])([H])OC([H])([H])C([H])([H])OC([H])([H])C([H])([H])OC([H])([H])C([H])([H])N([H])C(=O)N1C([H])([H])C([H])([H])C([H])([H])C([H])(n2nc(-c3c([H])c([H])c(Oc4c([H])c([H])c(F)c([H])c4F)c([H])c3[H])c(C(=O)N([H])[H])c2N([H])[H])C1([H])[H])C([H])([H])C([H])([H])C([H])([H])N([H])C(=O)C([H])([H])OC([H])([H])C([H])([H])OC([H])([H])C([H])([H])OC([H])([H])C([H])([H])Oc1c([H])c([H])c2c(c1[H])C([H])([H])N(C(=O)C([H])(N([H])C(=O)C([H])(N([H])C([H])([H])[H])C([H])([H])[H])C(C([H])([H])[H])(C([H])([H])[H])C([H])([H])[H])C([H])(C(=O)N([H])C1([H])c3c([H])c([H])c([H])c([H])c3C([H])([H])C([H])([H])C1([H])[H])C2([H])[H])=C([H])C([H])([H])[H]

>  <smiles>  (91) 
[H]C(C(=O)N(C([H])([H])C([H])([H])OC([H])([H])C([H])([H])OC([H])([H])C([H])([H])OC([H])([H])C([H])([H])N([H])C(=O)N1C([H])([H])C([H])([H])C([H])([H])C([H])(n2nc(-c3c([H])c([H])c(Oc4c([H])c([H])c(F)c([H])c4F)c([H])c3[H])c(C(=O)N([H])[H])c2N([H])[H])C1([H])[H])C([H])([H])C([H])([H])C([H])([H])N([H])C(=O)C([H])([H])OC([H])([H])C([H])([H])OC([H])([H])C([H])([H])OC([H])([H])C([H])([H])Oc1c([H])c([H])c2c(c1[H])C([H])([H])N(C(=O)C([H])(N([H])C(=O)C([H])(N([H])C([H])([H])[H])C([H])([H])[H])C(C([H])([H])[H])(C([H])([H])[H])C([H])([H])[H])C([H])(C(=O)N([H])C1([H])c3c([H])c([H])c([H])c([H])c3C([H])([H])C([H])([H])C1([H])[H])C2([H])[H])=C([H])C([H])([H])[H]

$$$$
96:0:0
     RDKit          3D

101110  0  0  1  0  0  0  0  0999 V2000
  -29.7380  -24.0670   16.9820 C   0  0  0  0  0  0  0  0  0  0  0  0
  -28.5800  -23.4560   17.2600 N   0  0  0  0  0  0  0  0  0  0  0  0
  -30.8270  -23.6470   17.3770 O   0  0  0  0  0  0  0  0  0  0  0  0
  -27.7380  -23.8580   16.8700 H   0  0  0  0  0  0  0  0  0  0  0  0
  -27.9720  -19.1830   18.5040 C   0  0  0  0  0  0  0  0  0  0  0  0
  -26.6330  -19.7820   18.9300 C   0  0  0  0  0  2  0  0  0  0  0  0
  -26.7860  -21.1130   19.6900 C   0  0  0  0  0  2  0  0  0  0  0  0
  -27.0770  -22.3160   18.7800 C   0  0  0  0  0  2  0  0  0  0  0  0
  -28.4930  -21.0170   17.0760 C   0  0  0  0  0  2  0  0  0  0  0  0
  -28.4190  -22.2300   18.0340 C   0  0  0  0  0  3  0  0  0  0  0  0
  -28.8160  -19.7700   17.7470 N   0  0  0  0  0  0  0  0  0  0  0  0
  -30.9170  -14.6770   20.4220 C   0  0  0  0  0  0  0  0  0  0  0  0
  -30.6660  -12.4860   19.3630 C   0  0  0  0  0  2  0  0  0  0  0  0
  -29.7440  -12.6740   18.1380 C   0  0  0  0  0  2  0  0  0  0  0  0
  -28.2580  -12.5470   18.5400 C   0  0  0  0  0  2  0  0  0  0  0  0
  -27.8930  -13.3930   19.7880 C   0  0  0  0  0  3  0  0  0  0  0  0
  -28.9360  -13.1940   20.9150 C   0  0  0  0  0  2  0  0  0  0  0  0
  -30.2630  -13.4880   20.3540 N   0  0  0  0  0  0  0  0  0  0  0  0
  -32.1280  -14.7770   20.1960 O   0  0  0  0  0  0  0  0  0  0  0  0
  -29.1400  -16.8970   18.1430 C   0  0  0  0  0  2  0  0  0  0  0  0
  -28.8410  -17.8530   20.5060 C   0  0  0  0  0  2  0  0  0  0  0  0
  -30.4380  -16.4400   18.8260 C   0  0  0  0  0  2  0  0  0  0  0  0
  -29.2980  -16.4700   21.0370 C   0  0  0  0  0  2  0  0  0  0  0  0
  -28.2620  -17.7840   19.0700 C   0  0  0  0  0  3  0  0  0  0  0  0
  -30.1290  -15.7220   20.0740 N   0  0  0  0  0  0  0  0  0  0  0  0
  -25.4810  -14.0010   20.4510 C   0  0  0  0  0  0  0  0  0  0  0  0
  -24.4080  -13.2260   20.7960 C   0  0  0  0  0  0  0  0  0  0  0  0
  -24.8760  -11.8780   20.7800 C   0  0  0  0  0  0  0  0  0  0  0  0
  -26.5340  -13.1230   20.2450 N   0  0  0  0  0  0  0  0  0  0  0  0
  -26.1720  -11.8400   20.5020 N   0  0  0  0  0  0  0  0  0  0  0  0
  -24.1530  -10.6140   20.9580 C   0  0  0  0  0  0  0  0  0  0  0  0
  -24.5330   -9.6830   21.9480 C   0  0  0  0  0  3  0  0  0  0  0  0
  -23.8120   -8.4810   22.1130 C   0  0  0  0  0  3  0  0  0  0  0  0
  -22.6950   -8.2040   21.2890 C   0  0  0  0  0  0  0  0  0  0  0  0
  -22.3360   -9.1260   20.2890 C   0  0  0  0  0  3  0  0  0  0  0  0
  -23.0580  -10.3180   20.1220 C   0  0  0  0  0  3  0  0  0  0  0  0
  -21.9510   -7.0530   21.3600 O   0  0  0  0  0  0  0  0  0  0  0  0
  -21.7670   -6.3870   22.5460 C   0  0  0  0  0  0  0  0  0  0  0  0
  -21.1220   -6.9900   23.6490 C   0  0  0  0  0  3  0  0  0  0  0  0
  -20.8930   -6.2450   24.8230 C   0  0  0  0  0  3  0  0  0  0  0  0
  -21.2980   -4.8990   24.8940 C   0  0  0  0  0  0  0  0  0  0  0  0
  -21.9330   -4.2970   23.7950 C   0  0  0  0  0  3  0  0  0  0  0  0
  -22.1640   -5.0370   22.6230 C   0  0  0  0  0  0  0  0  0  0  0  0
  -22.7580   -4.4460   21.5600 F   0  0  0  0  0  0  0  0  0  0  0  0
  -21.0700   -4.1790   26.0180 F   0  0  0  0  0  0  0  0  0  0  0  0
  -23.0030  -13.6980   21.0370 C   0  0  0  0  0  0  0  0  0  0  0  0
  -22.2650  -13.0070   21.8980 N   0  0  0  0  0  0  0  0  0  0  0  0
  -22.5700  -14.7150   20.4970 O   0  0  0  0  0  0  0  0  0  0  0  0
  -22.6310  -12.1860   22.3570 H   0  0  0  0  0  0  0  0  0  0  0  0
  -21.3220  -13.3060   22.1040 H   0  0  0  0  0  0  0  0  0  0  0  0
  -25.6440  -15.3700   20.2800 N   0  0  0  0  0  0  0  0  0  0  0  0
  -24.8810  -16.0270   20.4100 H   0  0  0  0  0  0  0  0  0  0  0  0
  -26.5160  -15.8110   20.0260 H   0  0  0  0  0  0  0  0  0  0  0  0
  -29.6530  -25.3340   16.1240 C   0  0  0  0  0  2  0  0  0  0  0  0
  -30.6730  -26.4420   16.4760 C   0  0  0  0  0  2  0  0  0  0  0  0
  -30.2520  -27.3020   17.6080 N   0  0  0  0  0  4  0  0  0  0  0  0
  -29.2520  -27.4190   17.5750 H   0  0  0  0  0  0  0  0  0  0  0  0
  -30.6570  -28.2140   17.4590 H   0  0  0  0  0  0  0  0  0  0  0  0
  -30.6570  -26.8470   18.9610 C   0  0  0  0  0  2  0  0  0  0  0  0
  -29.8120  -27.5250   20.0480 C   0  0  0  0  0  2  0  0  0  0  0  0
  -28.5460  -26.8690   20.0270 O   0  0  0  0  0  0  0  0  0  0  0  0
  -24.6020  -31.9120   23.2420 C   0  0  0  0  0  0  0  0  0  0  0  0
  -27.3950  -27.6160   20.1120 C   0  0  0  0  0  0  0  0  0  0  0  0
  -23.4460  -30.5190   21.5540 C   0  0  0  0  0  3  0  0  0  0  0  0
  -24.9530  -29.0340   20.1310 C   0  0  0  0  0  0  0  0  0  0  0  0
  -25.9620  -30.9380   21.4010 C   0  0  0  0  0  2  0  0  0  0  0  0
  -26.0870  -29.5800   20.7450 C   0  0  0  0  0  0  0  0  0  0  0  0
  -27.3090  -28.8780   20.7460 C   0  0  0  0  0  3  0  0  0  0  0  0
  -26.2390  -27.0630   19.5240 C   0  0  0  0  0  3  0  0  0  0  0  0
  -25.0190  -27.7670   19.5240 C   0  0  0  0  0  3  0  0  0  0  0  0
  -23.6900  -29.8630   20.1680 C   0  0  0  0  0  2  0  0  0  0  0  0
  -24.6870  -31.1360   22.1250 N   0  0  0  0  0  0  0  0  0  0  0  0
  -23.5080  -32.1570   23.7710 O   0  0  0  0  0  0  0  0  0  0  0  0
  -22.7990  -29.4710   22.4850 C   0  0  0  0  0  0  0  0  0  0  0  0
  -21.4770  -29.2840   22.3460 N   0  0  0  0  0  0  0  0  0  0  0  0
  -23.4830  -28.8270   23.2860 O   0  0  0  0  0  0  0  0  0  0  0  0
  -20.9870  -29.8570   21.6730 H   0  0  0  0  0  0  0  0  0  0  0  0
  -18.0960  -28.1150   22.8430 C   0  0  0  0  0  0  0  0  0  0  0  0
  -20.6600  -28.3240   23.0870 C   0  0  0  0  0  3  0  0  0  0  0  0
  -20.7340  -26.9190   22.4450 C   0  0  0  0  0  2  0  0  0  0  0  0
  -19.6130  -26.6580   21.4350 C   0  0  0  0  0  2  0  0  0  0  0  0
  -18.2430  -26.7940   22.1060 C   0  0  0  0  0  2  0  0  0  0  0  0
  -19.2320  -28.8410   23.2890 C   0  0  0  0  0  0  0  0  0  0  0  0
  -19.0410  -30.0810   23.9380 C   0  0  0  0  0  3  0  0  0  0  0  0
  -17.7470  -30.5930   24.1450 C   0  0  0  0  0  3  0  0  0  0  0  0
  -16.6260  -29.8630   23.7150 C   0  0  0  0  0  3  0  0  0  0  0  0
  -16.8000  -28.6250   23.0710 C   0  0  0  0  0  3  0  0  0  0  0  0
  -25.8690  -32.5500   23.8940 C   0  0  0  0  0  3  0  0  0  0  0  0
  -25.5500  -33.9500   24.2010 N   0  0  0  0  0  0  0  0  0  0  0  0
  -25.9080  -34.9960   23.4430 C   0  0  0  0  0  0  0  0  0  0  0  0
  -26.6130  -34.8830   22.4370 O   0  0  0  0  0  0  0  0  0  0  0  0
  -24.9290  -34.1130   24.9800 H   0  0  0  0  0  0  0  0  0  0  0  0
  -24.2080  -36.7930   22.9930 C   0  0  0  0  0  1  0  0  0  0  0  0
  -25.4030  -36.3870   23.8690 C   0  0  0  0  0  3  0  0  0  0  0  0
  -27.4890  -37.2720   24.8170 C   0  0  0  0  0  1  0  0  0  0  0  0
  -26.4450  -37.4360   23.8090 N   0  0  0  0  0  0  0  0  0  0  0  0
  -26.0340  -38.3580   23.9250 H   0  0  0  0  0  0  0  0  0  0  0  0
  -26.3550  -31.7890   25.1880 C   0  0  1  0  0  0  0  0  0  0  0  0
  -25.2350  -31.5520   26.2260 C   0  0  0  0  0  1  0  0  0  0  0  0
  -26.9560  -30.4130   24.8170 C   0  0  0  0  0  1  0  0  0  0  0  0
  -27.4830  -32.5930   25.8770 C   0  0  0  0  0  1  0  0  0  0  0  0
  1  2  1  0
  1  3  2  0
  4  2  1  0
  5  6  1  0
  6  7  1  0
  8  7  1  0
  9 11  1  0
  9 10  1  0
 10  2  1  0
 10  8  1  0
 11  5  2  0
 13 18  1  0
 14 15  1  0
 14 13  1  0
 16 15  1  0
 16 29  1  0
 16 17  1  0
 18 12  1  0
 18 17  1  0
 19 12  2  0
 20 22  1  0
 20 24  1  0
 21 23  1  0
 22 25  1  0
 24  5  1  0
 24 21  1  0
 25 12  1  0
 25 23  1  0
 26 27  2  0
 27 46  1  0
 28 27  1  0
 28 31  1  0
 29 26  1  0
 29 30  1  0
 30 28  2  0
 31 32  1  0
 32 33  2  0
 34 37  1  0
 34 33  1  0
 35 34  2  0
 36 35  1  0
 36 31  2  0
 37 38  1  0
 38 43  2  0
 38 39  1  0
 39 40  2  0
 40 41  1  0
 41 45  1  0
 42 41  2  0
 43 42  1  0
 44 43  1  0
 46 47  1  0
 47 50  1  0
 47 49  1  0
 48 46  2  0
 51 52  1  0
 51 26  1  0
 53 51  1  0
 54 55  1  0
 54  1  1  0
 55 56  1  0
 56 59  1  0
 57 56  1  0
 58 56  1  0
 59 60  1  0
 61 60  1  0
 61 63  1  0
 62 73  2  0
 63 68  1  0
 64 72  1  0
 64 74  1  0
 65 71  1  0
 65 67  1  0
 66 72  1  0
 67 68  2  0
 67 66  1  0
 69 70  1  0
 69 63  2  0
 70 65  2  0
 71 64  1  0
 72 62  1  0
 74 76  2  0
 75 74  1  0
 77 75  1  0
 78 87  2  0
 78 83  1  0
 79 75  1  0
 79 83  1  0
 80 79  1  0
 81 82  1  0
 81 80  1  0
 82 78  1  0
 83 84  2  0
 84 85  1  0
 86 85  2  0
 87 86  1  0
 88 62  1  0
 88 89  1  0
 88 98  1  0
 89 92  1  0
 90 94  1  0
 90 89  1  0
 91 90  2  0
 94 93  1  0
 96 94  1  0
 96 97  1  0
 96 95  1  0
 98101  1  1
 98 99  1  0
100 98  1  0
M  ISO  4  12 100  25 100  60 101  61 101
M  END
>  <TORSDO>  (92) 
F 22

>  <SCORE>  (92) 
-12.254

>  <name>  (92) 
96

>  <ligand_id>  (92) 
96

>  <original_smiles>  (92) 
[H]c1c([H])c([H])c2c(c1[H])C([H])([H])C([H])([H])C([H])([H])C2([H])N([H])C(=O)C1([H])N(C(=O)C([H])(N([H])C(=O)C([H])(N([H])C([H])([H])[H])C([H])([H])[H])C(C([H])([H])[H])(C([H])([H])[H])C([H])([H])[H])C([H])([H])c2c([H])c(OC([H])([H])C([H])([H])[N+]([H])([H])C([H])([H])C([H])([H])C(=O)N([H])C3([H])C([H])([H])N=C(C4([H])C([H])([H])C([H])([H])N(C(=O)N5C([H])([H])C([H])([H])C([H])([H])C([H])(n6nc(-c7c([H])c([H])c(Oc8c([H])c([H])c(F)c([H])c8F)c([H])c7[H])c(C(=O)N([H])[H])c6N([H])[H])C5([H])[H])C([H])([H])C4([H])[H])C([H])([H])C([H])([H])C3([H])[H])c([H])c([H])c2C1([H])[H]

>  <smiles>  (92) 
[H]c1c([H])c([H])c2c(c1[H])C([H])([H])C([H])([H])C([H])([H])C2([H])N([H])C(=O)C1([H])N(C(=O)C([H])(N([H])C(=O)C([H])(N([H])C([H])([H])[H])C([H])([H])[H])C(C([H])([H])[H])(C([H])([H])[H])C([H])([H])[H])C([H])([H])c2c([H])c(OC([H])([H])C([H])([H])[N+]([H])([H])C([H])([H])C([H])([H])C(=O)N([H])C3([H])C([H])([H])N=C(C4([H])C([H])([H])C([H])([H])N(C(=O)N5C([H])([H])C([H])([H])C([H])([H])C([H])(n6nc(-c7c([H])c([H])c(Oc8c([H])c([H])c(F)c([H])c8F)c([H])c7[H])c(C(=O)N([H])[H])c6N([H])[H])C5([H])[H])C([H])([H])C4([H])[H])C([H])([H])C([H])([H])C3([H])[H])c([H])c([H])c2C1([H])[H]

$$$$
97:0:0
     RDKit          3D

 99106  0  0  1  0  0  0  0  0999 V2000
  -24.4510  -22.9190   20.1080 O   0  0  0  0  0  0  0  0  0  0  0  0
  -23.9970  -23.2820   18.8110 C   0  0  0  0  0  2  0  0  0  0  0  0
  -23.9190  -22.0100   17.9510 C   0  0  0  0  0  2  0  0  0  0  0  0
  -25.1920  -21.3770   17.9590 O   0  0  0  0  0  0  0  0  0  0  0  0
  -25.2540  -20.1540   17.2330 C   0  0  0  0  0  2  0  0  0  0  0  0
  -25.8030  -19.0520   18.1510 C   0  0  0  0  0  2  0  0  0  0  0  0
  -27.0810  -19.4290   18.6600 O   0  0  0  0  0  0  0  0  0  0  0  0
  -27.6320  -18.4310   19.5070 C   0  0  0  0  0  2  0  0  0  0  0  0
  -28.9580  -18.8780   20.1330 C   0  0  0  0  0  2  0  0  0  0  0  0
  -29.3790  -17.8410   21.0100 O   0  0  0  0  0  0  0  0  0  0  0  0
  -30.7170  -17.9970   21.4560 C   0  0  0  0  0  2  0  0  0  0  0  0
  -31.0630  -16.8650   22.4390 C   0  0  0  0  0  2  0  0  0  0  0  0
  -31.0850  -14.8570   20.9560 C   0  0  0  0  0  0  0  0  0  0  0  0
  -30.7560  -12.8910   19.5030 C   0  0  0  0  0  2  0  0  0  0  0  0
  -29.8610  -13.2290   18.2960 C   0  0  0  0  0  2  0  0  0  0  0  0
  -28.3700  -13.0820   18.6570 C   0  0  0  0  0  2  0  0  0  0  0  0
  -28.0020  -13.8150   19.9740 C   0  0  0  0  0  3  0  0  0  0  0  0
  -28.9990  -13.4490   21.0950 C   0  0  0  0  0  2  0  0  0  0  0  0
  -30.3650  -13.7570   20.6240 N   0  0  0  0  0  0  0  0  0  0  0  0
  -32.1370  -15.1840   20.3970 O   0  0  0  0  0  0  0  0  0  0  0  0
  -30.5750  -15.5740   21.9590 N   0  0  0  0  0  0  0  0  0  0  0  0
  -29.7110  -15.2360   22.3570 H   0  0  0  0  0  0  0  0  0  0  0  0
  -25.5760  -14.4210   20.5940 C   0  0  0  0  0  0  0  0  0  0  0  0
  -24.4810  -13.6480   20.8680 C   0  0  0  0  0  0  0  0  0  0  0  0
  -24.9260  -12.2930   20.7900 C   0  0  0  0  0  0  0  0  0  0  0  0
  -26.6210  -13.5390   20.3700 N   0  0  0  0  0  0  0  0  0  0  0  0
  -26.2290  -12.2500   20.5420 N   0  0  0  0  0  0  0  0  0  0  0  0
  -24.1770  -11.0350   20.8820 C   0  0  0  0  0  0  0  0  0  0  0  0
  -24.5480  -10.0200   21.7920 C   0  0  0  0  0  3  0  0  0  0  0  0
  -23.8000   -8.8250   21.8740 C   0  0  0  0  0  3  0  0  0  0  0  0
  -22.6690   -8.6380   21.0460 C   0  0  0  0  0  0  0  0  0  0  0  0
  -22.3170   -9.6420   20.1270 C   0  0  0  0  0  3  0  0  0  0  0  0
  -23.0650  -10.8280   20.0420 C   0  0  0  0  0  3  0  0  0  0  0  0
  -21.8980   -7.5010   21.0390 O   0  0  0  0  0  0  0  0  0  0  0  0
  -21.7410   -6.7320   22.1640 C   0  0  0  0  0  0  0  0  0  0  0  0
  -21.2350   -7.2670   23.3690 C   0  0  0  0  0  3  0  0  0  0  0  0
  -21.0240   -6.4250   24.4790 C   0  0  0  0  0  3  0  0  0  0  0  0
  -21.3090   -5.0490   24.3850 C   0  0  0  0  0  0  0  0  0  0  0  0
  -21.8080   -4.5140   23.1850 C   0  0  0  0  0  3  0  0  0  0  0  0
  -22.0200   -5.3520   22.0770 C   0  0  0  0  0  0  0  0  0  0  0  0
  -22.4820   -4.8270   20.9160 F   0  0  0  0  0  0  0  0  0  0  0  0
  -21.0980   -4.2380   25.4490 F   0  0  0  0  0  0  0  0  0  0  0  0
  -23.0780  -14.1310   21.1020 C   0  0  0  0  0  0  0  0  0  0  0  0
  -22.3040  -13.4070   21.9010 N   0  0  0  0  0  0  0  0  0  0  0  0
  -22.6760  -15.1880   20.6140 O   0  0  0  0  0  0  0  0  0  0  0  0
  -22.6380  -12.5500   22.3180 H   0  0  0  0  0  0  0  0  0  0  0  0
  -21.3610  -13.7120   22.0980 H   0  0  0  0  0  0  0  0  0  0  0  0
  -25.7660  -15.7940   20.5040 N   0  0  0  0  0  0  0  0  0  0  0  0
  -25.0150  -16.4580   20.6570 H   0  0  0  0  0  0  0  0  0  0  0  0
  -26.6680  -16.2250   20.3550 H   0  0  0  0  0  0  0  0  0  0  0  0
  -24.5690  -24.0130   21.0100 C   0  0  0  0  0  2  0  0  0  0  0  0
  -25.3060  -23.5230   22.2710 C   0  0  0  0  0  0  0  0  0  0  0  0
  -26.6260  -23.2670   22.2180 N   0  0  0  0  0  0  0  0  0  0  0  0
  -24.6760  -23.3350   23.3110 O   0  0  0  0  0  0  0  0  0  0  0  0
  -27.0470  -22.8890   23.0570 H   0  0  0  0  0  0  0  0  0  0  0  0
  -27.5280  -23.5500   21.0990 C   0  0  0  0  0  2  0  0  0  0  0  0
  -28.0060  -25.0130   21.1380 C   0  0  0  0  0  2  0  0  0  0  0  0
  -28.4810  -25.5560   19.7770 C   0  0  0  0  0  2  0  0  0  0  0  0
  -28.4380  -26.9820   19.7820 O   0  0  0  0  0  0  0  0  0  0  0  0
  -24.6680  -31.9200   23.2200 C   0  0  0  0  0  0  0  0  0  0  0  0
  -27.2170  -27.6240   19.8680 C   0  0  0  0  0  0  0  0  0  0  0  0
  -23.3960  -30.5570   21.5930 C   0  0  0  0  0  3  0  0  0  0  0  0
  -24.7950  -29.0740   20.0580 C   0  0  0  0  0  0  0  0  0  0  0  0
  -25.9020  -30.9510   21.2840 C   0  0  0  0  0  2  0  0  0  0  0  0
  -25.9700  -29.5950   20.6100 C   0  0  0  0  0  0  0  0  0  0  0  0
  -27.1780  -28.8760   20.5200 C   0  0  0  0  0  3  0  0  0  0  0  0
  -26.0220  -27.1040   19.3190 C   0  0  0  0  0  3  0  0  0  0  0  0
  -24.8130  -27.8240   19.4120 C   0  0  0  0  0  3  0  0  0  0  0  0
  -23.5490  -29.9190   20.1860 C   0  0  0  0  0  2  0  0  0  0  0  0
  -24.6760  -31.1540   22.0920 N   0  0  0  0  0  0  0  0  0  0  0  0
  -23.6140  -32.1640   23.8230 O   0  0  0  0  0  0  0  0  0  0  0  0
  -22.7980  -29.5010   22.5510 C   0  0  0  0  0  0  0  0  0  0  0  0
  -21.4780  -29.2850   22.4520 N   0  0  0  0  0  0  0  0  0  0  0  0
  -23.5200  -28.8820   23.3380 O   0  0  0  0  0  0  0  0  0  0  0  0
  -20.9530  -29.8400   21.7910 H   0  0  0  0  0  0  0  0  0  0  0  0
  -18.1620  -27.9440   22.9600 C   0  0  0  0  0  0  0  0  0  0  0  0
  -20.7080  -28.3100   23.2240 C   0  0  0  0  0  3  0  0  0  0  0  0
  -20.8690  -26.8850   22.6450 C   0  0  0  0  0  2  0  0  0  0  0  0
  -19.7750  -26.5120   21.6380 C   0  0  0  0  0  2  0  0  0  0  0  0
  -18.3950  -26.5990   22.2950 C   0  0  0  0  0  2  0  0  0  0  0  0
  -19.2490  -28.7520   23.3900 C   0  0  0  0  0  0  0  0  0  0  0  0
  -18.9790  -30.0030   23.9860 C   0  0  0  0  0  3  0  0  0  0  0  0
  -17.6560  -30.4520   24.1500 C   0  0  0  0  0  3  0  0  0  0  0  0
  -16.5840  -29.6440   23.7330 C   0  0  0  0  0  3  0  0  0  0  0  0
  -16.8360  -28.3920   23.1440 C   0  0  0  0  0  3  0  0  0  0  0  0
  -25.9790  -32.5410   23.7940 C   0  0  0  0  0  3  0  0  0  0  0  0
  -26.5560  -31.7480   25.0300 C   0  0  1  0  0  0  0  0  0  0  0  0
  -25.5110  -31.4780   26.1380 C   0  0  0  0  0  1  0  0  0  0  0  0
  -27.1300  -30.3840   24.5790 C   0  0  0  0  0  1  0  0  0  0  0  0
  -27.7320  -32.5340   25.6590 C   0  0  0  0  0  1  0  0  0  0  0  0
  -25.6890  -33.9330   24.1610 N   0  0  0  0  0  0  0  0  0  0  0  0
  -25.9900  -34.9970   23.4000 C   0  0  0  0  0  0  0  0  0  0  0  0
  -26.6150  -34.9070   22.3400 O   0  0  0  0  0  0  0  0  0  0  0  0
  -25.1310  -34.0780   24.9890 H   0  0  0  0  0  0  0  0  0  0  0  0
  -24.2420  -36.7870   23.1420 C   0  0  0  0  0  1  0  0  0  0  0  0
  -25.5180  -36.3760   23.8950 C   0  0  0  0  0  3  0  0  0  0  0  0
  -27.6890  -37.2610   24.6320 C   0  0  0  0  0  1  0  0  0  0  0  0
  -26.5380  -37.4380   23.7520 N   0  0  0  0  0  0  0  0  0  0  0  0
  -26.1340  -38.3520   23.9380 H   0  0  0  0  0  0  0  0  0  0  0  0
  1 51  1  0
  2  1  1  0
  3  4  1  0
  3  2  1  0
  5  4  1  0
  5  6  1  0
  6  7  1  0
  7  8  1  0
  8  9  1  0
  9 10  1  0
 10 11  1  0
 11 12  1  0
 13 21  1  0
 14 19  1  0
 15 16  1  0
 15 14  1  0
 17 16  1  0
 17 26  1  0
 17 18  1  0
 19 13  1  0
 19 18  1  0
 20 13  2  0
 21 22  1  0
 21 12  1  0
 23 24  2  0
 24 43  1  0
 25 24  1  0
 25 28  1  0
 26 27  1  0
 26 23  1  0
 27 25  2  0
 28 29  1  0
 29 30  2  0
 31 30  1  0
 32 31  2  0
 33 32  1  0
 33 28  2  0
 34 31  1  0
 34 35  1  0
 35 36  1  0
 36 37  2  0
 38 37  1  0
 38 42  1  0
 39 38  2  0
 40 35  2  0
 40 39  1  0
 41 40  1  0
 43 44  1  0
 44 47  1  0
 44 46  1  0
 45 43  2  0
 48 23  1  0
 48 49  1  0
 50 48  1  0
 51 52  1  0
 52 54  2  0
 53 52  1  0
 53 55  1  0
 56 57  1  0
 56 53  1  0
 58 59  1  0
 58 57  1  0
 59 61  1  0
 60 71  2  0
 61 66  1  0
 62 70  1  0
 62 72  1  0
 63 69  1  0
 63 65  1  0
 64 70  1  0
 65 64  1  0
 66 65  2  0
 67 68  1  0
 67 61  2  0
 68 63  2  0
 69 62  1  0
 70 60  1  0
 72 74  2  0
 73 72  1  0
 75 73  1  0
 76 85  2  0
 76 81  1  0
 77 73  1  0
 77 81  1  0
 78 77  1  0
 79 80  1  0
 79 78  1  0
 80 76  1  0
 81 82  2  0
 82 83  1  0
 84 83  2  0
 85 84  1  0
 86 60  1  0
 86 91  1  0
 86 87  1  0
 87 90  1  1
 87 88  1  0
 89 87  1  0
 91 94  1  0
 92 96  1  0
 92 91  1  0
 93 92  2  0
 96 95  1  0
 98 96  1  0
 98 99  1  0
 98 97  1  0
M  ISO  4  13 100  21 100  58 101  59 101
M  END
>  <TORSDO>  (93) 
F 32

>  <SCORE>  (93) 
-9.047

>  <name>  (93) 
97

>  <ligand_id>  (93) 
97

>  <original_smiles>  (93) 
[H]c1c([H])c([H])c2c(c1[H])C([H])([H])C([H])([H])C([H])([H])C2([H])N([H])C(=O)C1([H])N(C(=O)C([H])(N([H])C(=O)C([H])(N([H])C([H])([H])[H])C([H])([H])[H])C(C([H])([H])[H])(C([H])([H])[H])C([H])([H])[H])C([H])([H])c2c([H])c(OC([H])([H])C([H])([H])C([H])([H])N([H])C(=O)C([H])([H])OC([H])([H])C([H])([H])OC([H])([H])C([H])([H])OC([H])([H])C([H])([H])OC([H])([H])C([H])([H])N([H])C(=O)N3C([H])([H])C([H])([H])C([H])([H])C([H])(n4nc(-c5c([H])c([H])c(Oc6c([H])c([H])c(F)c([H])c6F)c([H])c5[H])c(C(=O)N([H])[H])c4N([H])[H])C3([H])[H])c([H])c([H])c2C1([H])[H]

>  <smiles>  (93) 
[H]c1c([H])c([H])c2c(c1[H])C([H])([H])C([H])([H])C([H])([H])C2([H])N([H])C(=O)C1([H])N(C(=O)C([H])(N([H])C(=O)C([H])(N([H])C([H])([H])[H])C([H])([H])[H])C(C([H])([H])[H])(C([H])([H])[H])C([H])([H])[H])C([H])([H])c2c([H])c(OC([H])([H])C([H])([H])C([H])([H])N([H])C(=O)C([H])([H])OC([H])([H])C([H])([H])OC([H])([H])C([H])([H])OC([H])([H])C([H])([H])OC([H])([H])C([H])([H])N([H])C(=O)N3C([H])([H])C([H])([H])C([H])([H])C([H])(n4nc(-c5c([H])c([H])c(Oc6c([H])c([H])c(F)c([H])c6F)c([H])c5[H])c(C(=O)N([H])[H])c4N([H])[H])C3([H])[H])c([H])c([H])c2C1([H])[H]

$$$$
