0:0:0
     RDKit          3D

113121  0  0  1  0  0  0  0  0999 V2000
  -26.9670  -23.2230   19.6150 C   0  0  0  0  0  0  0  0  0  0  0  0
  -27.0170  -23.0560   18.2830 N   0  0  0  0  0  0  0  0  0  0  0  0
  -26.2050  -24.0330   20.1390 O   0  0  0  0  0  0  0  0  0  0  0  0
  -27.5930  -22.3020   17.9190 H   0  0  0  0  0  0  0  0  0  0  0  0
  -30.2310  -21.4780   20.9040 C   0  0  0  0  0  2  0  0  0  0  0  0
  -29.2860  -22.1320   19.8890 C   0  0  0  0  0  2  0  0  0  0  0  0
  -30.4170  -22.4190   22.1000 C   0  0  0  0  0  2  0  0  0  0  0  0
  -27.9090  -22.4210   20.5310 C   0  0  0  0  0  3  0  0  0  0  0  0
  -29.0680  -22.7870   22.7680 C   0  0  0  0  0  3  0  0  0  0  0  0
  -28.0650  -23.2170   21.7730 N   0  0  0  0  0  4  0  0  0  0  0  0
  -27.1530  -23.2560   22.2050 H   0  0  0  0  0  0  0  0  0  0  0  0
  -28.2780  -24.1590   21.4910 H   0  0  0  0  0  0  0  0  0  0  0  0
  -29.3030  -23.8180   23.9080 C   0  0  0  0  0  0  0  0  0  0  0  0
  -28.9960  -25.1320   23.8420 N   0  0  0  0  0  0  0  0  0  0  0  0
  -29.8080  -23.4040   24.9500 O   0  0  0  0  0  0  0  0  0  0  0  0
  -29.2340  -25.6240   24.6940 H   0  0  0  0  0  0  0  0  0  0  0  0
  -28.3690  -26.0010   22.8380 C   0  0  0  0  0  2  0  0  0  0  0  0
  -29.3650  -26.5920   21.8000 C   0  0  0  0  0  2  0  0  0  0  0  0
  -28.8070  -26.7520   20.4890 O   0  0  0  0  0  0  0  0  0  0  0  0
  -24.7190  -31.7840   23.3910 C   0  0  0  0  0  0  0  0  0  0  0  0
  -27.6730  -27.5220   20.3960 C   0  0  0  0  0  0  0  0  0  0  0  0
  -23.6460  -30.3730   21.6610 C   0  0  0  0  0  3  0  0  0  0  0  0
  -25.2300  -28.9220   20.2860 C   0  0  0  0  0  0  0  0  0  0  0  0
  -26.1560  -30.8320   21.6000 C   0  0  0  0  0  2  0  0  0  0  0  0
  -26.3270  -29.4750   20.9580 C   0  0  0  0  0  0  0  0  0  0  0  0
  -27.5470  -28.7760   21.0320 C   0  0  0  0  0  3  0  0  0  0  0  0
  -26.5840  -27.0090   19.6670 C   0  0  0  0  0  3  0  0  0  0  0  0
  -25.3510  -27.6830   19.6360 C   0  0  0  0  0  3  0  0  0  0  0  0
  -23.9520  -29.7280   20.2820 C   0  0  0  0  0  2  0  0  0  0  0  0
  -24.8550  -31.0070   22.2790 N   0  0  0  0  0  0  0  0  0  0  0  0
  -23.6020  -32.0050   23.8800 O   0  0  0  0  0  0  0  0  0  0  0  0
  -22.9840  -29.3090   22.5660 C   0  0  0  0  0  0  0  0  0  0  0  0
  -21.6770  -29.0830   22.3600 N   0  0  0  0  0  0  0  0  0  0  0  0
  -23.6440  -28.6930   23.4070 O   0  0  0  0  0  0  0  0  0  0  0  0
  -21.2000  -29.6360   21.6600 H   0  0  0  0  0  0  0  0  0  0  0  0
  -18.3340  -27.7440   22.6100 C   0  0  0  0  0  0  0  0  0  0  0  0
  -20.8510  -28.1060   23.0680 C   0  0  0  0  0  3  0  0  0  0  0  0
  -21.0580  -26.6850   22.4920 C   0  0  0  0  0  2  0  0  0  0  0  0
  -20.0460  -26.3250   21.4000 C   0  0  0  0  0  2  0  0  0  0  0  0
  -18.6190  -26.4090   21.9440 C   0  0  0  0  0  2  0  0  0  0  0  0
  -19.3850  -28.5490   23.1240 C   0  0  0  0  0  0  0  0  0  0  0  0
  -19.0720  -29.8010   23.6970 C   0  0  0  0  0  3  0  0  0  0  0  0
  -17.7370  -30.2430   23.7720 C   0  0  0  0  0  3  0  0  0  0  0  0
  -16.6990  -29.4330   23.2800 C   0  0  0  0  0  3  0  0  0  0  0  0
  -16.9990  -28.1890   22.7000 C   0  0  0  0  0  3  0  0  0  0  0  0
  -25.9510  -32.4410   24.0850 C   0  0  0  0  0  3  0  0  0  0  0  0
  -26.4080  -31.6760   25.3860 C   0  0  1  0  0  0  0  0  0  0  0  0
  -25.2630  -31.4210   26.3900 C   0  0  0  0  0  1  0  0  0  0  0  0
  -27.0320  -30.3080   25.0220 C   0  0  0  0  0  1  0  0  0  0  0  0
  -27.5070  -32.4860   26.1130 C   0  0  0  0  0  1  0  0  0  0  0  0
  -25.5970  -33.8320   24.3900 N   0  0  0  0  0  0  0  0  0  0  0  0
  -25.9330  -34.8840   23.6310 C   0  0  0  0  0  0  0  0  0  0  0  0
  -26.6450  -34.7860   22.6260 O   0  0  0  0  0  0  0  0  0  0  0  0
  -24.9640  -33.9810   25.1620 H   0  0  0  0  0  0  0  0  0  0  0  0
  -24.1650  -36.6170   23.1970 C   0  0  0  0  0  1  0  0  0  0  0  0
  -25.3920  -36.2640   24.0520 C   0  0  0  0  0  3  0  0  0  0  0  0
  -27.4740  -37.2270   24.9300 C   0  0  0  0  0  1  0  0  0  0  0  0
  -26.3960  -37.3450   23.9500 N   0  0  0  0  0  0  0  0  0  0  0  0
  -25.9590  -38.2550   24.0670 H   0  0  0  0  0  0  0  0  0  0  0  0
  -26.4530  -23.9890   17.2990 C   0  0  0  0  0  2  0  0  0  0  0  0
  -24.9310  -24.2410   17.4140 C   0  0  0  0  0  2  0  0  0  0  0  0
  -24.0310  -23.0650   16.9740 C   0  0  0  0  0  2  0  0  0  0  0  0
  -24.1620  -21.8400   17.8730 C   0  0  0  0  0  0  0  0  0  0  0  0
  -24.6310  -20.7240   17.3030 N   0  0  0  0  0  0  0  0  0  0  0  0
  -23.8810  -21.9090   19.0720 O   0  0  0  0  0  0  0  0  0  0  0  0
  -24.9460  -20.6630   16.3430 H   0  0  0  0  0  0  0  0  0  0  0  0
  -26.4960  -19.6200   18.2730 C   0  0  0  0  0  0  0  0  0  0  0  0
  -25.1720  -19.7030   18.1090 N   0  0  0  0  0  0  0  0  0  0  0  0
  -27.2890  -20.2810   17.5910 O   0  0  0  0  0  0  0  0  0  0  0  0
  -24.4760  -19.2450   18.6860 H   0  0  0  0  0  0  0  0  0  0  0  0
  -26.9920  -18.6960   19.3880 C   0  0  0  0  0  2  0  0  0  0  0  0
  -28.4080  -18.7960   19.5230 O   0  0  0  0  0  0  0  0  0  0  0  0
  -28.9060  -17.9460   20.5430 C   0  0  0  0  0  2  0  0  0  0  0  0
  -30.4400  -17.8760   20.4550 C   0  0  0  0  0  2  0  0  0  0  0  0
  -31.0770  -16.8370   21.4030 C   0  0  0  0  0  2  0  0  0  0  0  0
  -31.0390  -14.6910   20.1280 C   0  0  0  0  0  0  0  0  0  0  0  0
  -30.6460  -12.5840   18.9110 C   0  0  0  0  0  2  0  0  0  0  0  0
  -29.6630  -12.7880   17.7420 C   0  0  0  0  0  2  0  0  0  0  0  0
  -28.2060  -12.6490   18.2200 C   0  0  0  0  0  2  0  0  0  0  0  0
  -27.9110  -13.5080   19.4760 C   0  0  0  0  0  3  0  0  0  0  0  0
  -28.9910  -13.2820   20.5580 C   0  0  0  0  0  2  0  0  0  0  0  0
  -30.3170  -13.5540   19.9660 N   0  0  0  0  0  0  0  0  0  0  0  0
  -32.0110  -14.9920   19.4300 O   0  0  0  0  0  0  0  0  0  0  0  0
  -30.6220  -15.4770   21.1270 N   0  0  0  0  0  0  0  0  0  0  0  0
  -29.8730  -15.1140   21.6980 H   0  0  0  0  0  0  0  0  0  0  0  0
  -25.5420  -14.1430   20.2720 C   0  0  0  0  0  0  0  0  0  0  0  0
  -24.4760  -13.3810   20.6670 C   0  0  0  0  0  0  0  0  0  0  0  0
  -24.9170  -12.0240   20.5970 C   0  0  0  0  0  0  0  0  0  0  0  0
  -26.5670  -13.2510   19.9930 N   0  0  0  0  0  0  0  0  0  0  0  0
  -26.1930  -11.9700   20.2430 N   0  0  0  0  0  0  0  0  0  0  0  0
  -24.1810  -10.7690   20.7960 C   0  0  0  0  0  0  0  0  0  0  0  0
  -24.5970   -9.8090   21.7430 C   0  0  0  0  0  3  0  0  0  0  0  0
  -23.8630   -8.6170   21.9280 C   0  0  0  0  0  3  0  0  0  0  0  0
  -22.6970   -8.3780   21.1620 C   0  0  0  0  0  0  0  0  0  0  0  0
  -22.2990   -9.3270   20.2030 C   0  0  0  0  0  3  0  0  0  0  0  0
  -23.0350  -10.5090   20.0170 C   0  0  0  0  0  3  0  0  0  0  0  0
  -21.9340   -7.2400   21.2530 O   0  0  0  0  0  0  0  0  0  0  0  0
  -21.8080   -6.5510   22.4330 C   0  0  0  0  0  0  0  0  0  0  0  0
  -21.3060   -7.1630   23.6040 C   0  0  0  0  0  3  0  0  0  0  0  0
  -21.1260   -6.4000   24.7750 C   0  0  0  0  0  3  0  0  0  0  0  0
  -21.4410   -5.0280   24.7770 C   0  0  0  0  0  0  0  0  0  0  0  0
  -21.9360   -4.4160   23.6120 C   0  0  0  0  0  3  0  0  0  0  0  0
  -22.1170   -5.1760   22.4430 C   0  0  0  0  0  0  0  0  0  0  0  0
  -22.5730   -4.5770   21.3170 F   0  0  0  0  0  0  0  0  0  0  0  0
  -21.2620   -4.2930   25.9000 F   0  0  0  0  0  0  0  0  0  0  0  0
  -23.0980  -13.8740   20.9990 C   0  0  0  0  0  0  0  0  0  0  0  0
  -22.4010  -13.1840   21.8980 N   0  0  0  0  0  0  0  0  0  0  0  0
  -22.6480  -14.9030   20.4990 O   0  0  0  0  0  0  0  0  0  0  0  0
  -22.7770  -12.3510   22.3230 H   0  0  0  0  0  0  0  0  0  0  0  0
  -21.4780  -13.4960   22.1640 H   0  0  0  0  0  0  0  0  0  0  0  0
  -25.7220  -15.5130   20.1090 N   0  0  0  0  0  0  0  0  0  0  0  0
  -24.9750  -16.1790   20.2730 H   0  0  0  0  0  0  0  0  0  0  0  0
  -26.5850  -15.9350   19.8010 H   0  0  0  0  0  0  0  0  0  0  0  0
  1  3  2  0
  2  1  1  0
  4  2  1  0
  5  7  1  0
  6  8  1  0
  6  5  1  0
  7  9  1  0
  8  1  1  0
  8 10  1  0
  9 13  1  0
 10 11  1  0
 10  9  1  0
 12 10  1  0
 13 15  2  0
 14 13  1  0
 14 16  1  0
 17 14  1  0
 18 17  1  0
 19 18  1  0
 20 31  2  0
 21 19  1  0
 21 26  1  0
 22 30  1  0
 22 32  1  0
 23 25  1  0
 24 30  1  0
 25 26  2  0
 25 24  1  0
 27 21  2  0
 28 27  1  0
 28 23  2  0
 29 23  1  0
 29 22  1  0
 30 20  1  0
 32 34  2  0
 33 32  1  0
 35 33  1  0
 36 45  2  0
 36 41  1  0
 37 33  1  0
 37 41  1  0
 38 37  1  0
 39 40  1  0
 39 38  1  0
 40 36  1  0
 41 42  2  0
 42 43  1  0
 44 43  2  0
 45 44  1  0
 46 20  1  0
 46 51  1  0
 46 47  1  0
 47 50  1  1
 47 48  1  0
 49 47  1  0
 51 54  1  0
 52 56  1  0
 52 51  1  0
 53 52  2  0
 56 55  1  0
 58 56  1  0
 58 59  1  0
 58 57  1  0
 60 61  1  0
 60  2  1  0
 62 61  1  0
 62 63  1  0
 63 65  2  0
 64 63  1  0
 64 68  1  0
 66 64  1  0
 67 71  1  0
 68 67  1  0
 68 70  1  0
 69 67  2  0
 71 72  1  0
 72 73  1  0
 74 73  1  0
 74 75  1  0
 76 84  1  0
 77 82  1  0
 78 79  1  0
 78 77  1  0
 80 79  1  0
 80 89  1  0
 80 81  1  0
 82 76  1  0
 82 81  1  0
 83 76  2  0
 84 75  1  0
 84 85  1  0
 86 87  2  0
 87106  1  0
 88 87  1  0
 88 91  1  0
 89 90  1  0
 89 86  1  0
 90 88  2  0
 91 92  1  0
 92 93  2  0
 94 97  1  0
 94 93  1  0
 95 94  2  0
 96 95  1  0
 96 91  2  0
 97 98  1  0
 98103  2  0
 98 99  1  0
 99100  2  0
100101  1  0
101105  1  0
102101  2  0
103102  1  0
104103  1  0
106107  1  0
107110  1  0
107109  1  0
108106  2  0
111 86  1  0
111112  1  0
113111  1  0
M  ISO  4  18 101  19 101  76 100  84 100
M  END
>  <TORSDO>  (1) 
F 30

>  <SCORE>  (1) 
-10.529

>  <name>  (1) 
0

>  <ligand_id>  (1) 
0

>  <original_smiles>  (1) 
[H]c1c([H])c([H])c2c(c1[H])C([H])([H])C([H])([H])C([H])([H])C2([H])N([H])C(=O)C1([H])N(C(=O)C([H])(N([H])C(=O)C([H])(N([H])C([H])([H])[H])C([H])([H])[H])C(C([H])([H])[H])(C([H])([H])[H])C([H])([H])[H])C([H])([H])c2c([H])c(OC([H])([H])C([H])([H])N([H])C(=O)C3([H])C([H])([H])C([H])([H])C([H])([H])C([H])(C(=O)N([H])C([H])([H])C([H])([H])C([H])([H])C(=O)N([H])N([H])C(=O)C([H])([H])OC([H])([H])C([H])([H])C([H])([H])N([H])C(=O)N4C([H])([H])C([H])([H])C([H])([H])C([H])(n5nc(-c6c([H])c([H])c(Oc7c([H])c([H])c(F)c([H])c7F)c([H])c6[H])c(C(=O)N([H])[H])c5N([H])[H])C4([H])[H])[N+]3([H])[H])c([H])c([H])c2C1([H])[H]

>  <smiles>  (1) 
[H]c1c([H])c([H])c2c(c1[H])C([H])([H])C([H])([H])C([H])([H])C2([H])N([H])C(=O)C1([H])N(C(=O)C([H])(N([H])C(=O)C([H])(N([H])C([H])([H])[H])C([H])([H])[H])C(C([H])([H])[H])(C([H])([H])[H])C([H])([H])[H])C([H])([H])c2c([H])c(OC([H])([H])C([H])([H])N([H])C(=O)C3([H])C([H])([H])C([H])([H])C([H])([H])C([H])(C(=O)N([H])C([H])([H])C([H])([H])C([H])([H])C(=O)N([H])N([H])C(=O)C([H])([H])OC([H])([H])C([H])([H])C([H])([H])N([H])C(=O)N4C([H])([H])C([H])([H])C([H])([H])C([H])(n5nc(-c6c([H])c([H])c(Oc7c([H])c([H])c(F)c([H])c7F)c([H])c6[H])c(C(=O)N([H])[H])c5N([H])[H])C4([H])[H])[N+]3([H])[H])c([H])c([H])c2C1([H])[H]

$$$$
1:0:0
     RDKit          3D

106113  0  0  1  0  0  0  0  0999 V2000
  -23.9900  -21.7330   16.0340 C   0  0  0  0  0  2  0  0  0  0  0  0
  -24.2510  -22.0180   17.5130 C   0  0  0  0  0  0  0  0  0  0  0  0
  -25.5270  -22.0370   17.9220 N   0  0  0  0  0  0  0  0  0  0  0  0
  -23.3050  -22.2000   18.2810 O   0  0  0  0  0  0  0  0  0  0  0  0
  -26.2430  -21.9120   17.2200 H   0  0  0  0  0  0  0  0  0  0  0  0
  -25.9570  -22.2450   19.3030 C   0  0  0  0  0  2  0  0  0  0  0  0
  -25.9170  -20.9440   20.1350 C   0  0  0  0  0  2  0  0  0  0  0  0
  -26.9900  -19.9010   19.7630 C   0  0  0  0  0  2  0  0  0  0  0  0
  -28.2710  -20.1260   20.4700 N   0  0  0  0  0  4  0  0  0  0  0  0
  -28.5470  -21.0860   20.3360 H   0  0  0  0  0  0  0  0  0  0  0  0
  -28.1490  -19.9910   21.4630 H   0  0  0  0  0  0  0  0  0  0  0  0
  -29.3930  -19.2820   20.0070 C   0  0  0  0  0  2  0  0  0  0  0  0
  -29.5680  -18.0070   20.8590 C   0  0  0  0  0  2  0  0  0  0  0  0
  -30.9740  -17.3930   20.7070 C   0  0  0  0  0  2  0  0  0  0  0  0
  -31.3120  -16.3230   21.7640 C   0  0  0  0  0  2  0  0  0  0  0  0
  -31.3110  -14.0520   20.7210 C   0  0  0  0  0  0  0  0  0  0  0  0
  -30.9260  -11.8790   19.6180 C   0  0  0  0  0  2  0  0  0  0  0  0
  -30.0400  -12.0640   18.3720 C   0  0  0  0  0  2  0  0  0  0  0  0
  -28.5440  -12.0440   18.7470 C   0  0  0  0  0  2  0  0  0  0  0  0
  -28.2130  -12.9740   19.9440 C   0  0  0  0  0  3  0  0  0  0  0  0
  -29.2010  -12.7300   21.1050 C   0  0  0  0  0  2  0  0  0  0  0  0
  -30.5690  -12.9240   20.5870 N   0  0  0  0  0  0  0  0  0  0  0  0
  -32.4150  -14.2080   20.1870 O   0  0  0  0  0  0  0  0  0  0  0  0
  -30.7350  -15.0200   21.4480 N   0  0  0  0  0  0  0  0  0  0  0  0
  -29.8290  -14.8070   21.8360 H   0  0  0  0  0  0  0  0  0  0  0  0
  -25.8870  -13.7890   20.6900 C   0  0  0  0  0  0  0  0  0  0  0  0
  -24.7270  -13.1130   20.9650 C   0  0  0  0  0  0  0  0  0  0  0  0
  -25.0280  -11.7290   20.7900 C   0  0  0  0  0  0  0  0  0  0  0  0
  -26.8230  -12.8170   20.3740 N   0  0  0  0  0  0  0  0  0  0  0  0
  -26.3090  -11.5670   20.4890 N   0  0  0  0  0  0  0  0  0  0  0  0
  -24.1550  -10.5490   20.8380 C   0  0  0  0  0  0  0  0  0  0  0  0
  -24.4410   -9.4480   21.6780 C   0  0  0  0  0  3  0  0  0  0  0  0
  -23.5770   -8.3330   21.7170 C   0  0  0  0  0  3  0  0  0  0  0  0
  -22.4100   -8.3110   20.9170 C   0  0  0  0  0  0  0  0  0  0  0  0
  -22.1420   -9.3970   20.0650 C   0  0  0  0  0  3  0  0  0  0  0  0
  -23.0070  -10.5040   20.0230 C   0  0  0  0  0  3  0  0  0  0  0  0
  -21.5270   -7.2590   20.8720 O   0  0  0  0  0  0  0  0  0  0  0  0
  -21.3430   -6.4260   21.9470 C   0  0  0  0  0  0  0  0  0  0  0  0
  -20.9320   -6.9140   23.2060 C   0  0  0  0  0  3  0  0  0  0  0  0
  -20.6890   -6.0150   24.2640 C   0  0  0  0  0  3  0  0  0  0  0  0
  -20.8470   -4.6310   24.0630 C   0  0  0  0  0  0  0  0  0  0  0  0
  -21.2530   -4.1430   22.8080 C   0  0  0  0  0  3  0  0  0  0  0  0
  -21.4970   -5.0390   21.7520 C   0  0  0  0  0  0  0  0  0  0  0  0
  -21.8670   -4.5620   20.5390 F   0  0  0  0  0  0  0  0  0  0  0  0
  -20.6060   -3.7660   25.0750 F   0  0  0  0  0  0  0  0  0  0  0  0
  -23.3920  -13.7240   21.2780 C   0  0  0  0  0  0  0  0  0  0  0  0
  -22.5730  -13.0350   22.0680 N   0  0  0  0  0  0  0  0  0  0  0  0
  -23.0820  -14.8370   20.8590 O   0  0  0  0  0  0  0  0  0  0  0  0
  -22.8350  -12.1300   22.4300 H   0  0  0  0  0  0  0  0  0  0  0  0
  -21.6750  -13.4220   22.3170 H   0  0  0  0  0  0  0  0  0  0  0  0
  -26.2140  -15.1400   20.6600 N   0  0  0  0  0  0  0  0  0  0  0  0
  -25.5160  -15.8580   20.8130 H   0  0  0  0  0  0  0  0  0  0  0  0
  -27.1090  -15.4990   20.3570 H   0  0  0  0  0  0  0  0  0  0  0  0
  -24.1660  -20.2380   15.6760 C   0  0  0  0  0  2  0  0  0  0  0  0
  -26.6000  -19.6960   15.7910 C   0  0  0  0  0  0  0  0  0  0  0  0
  -25.3600  -19.6520   16.2970 N   0  0  0  0  0  0  0  0  0  0  0  0
  -26.8510  -20.1940   14.6930 O   0  0  0  0  0  0  0  0  0  0  0  0
  -25.2410  -19.1930   17.1910 H   0  0  0  0  0  0  0  0  0  0  0  0
  -27.7430  -19.1550   16.6680 C   0  0  0  0  0  2  0  0  0  0  0  0
  -28.6390  -20.2050   17.0330 O   0  0  0  0  0  0  0  0  0  0  0  0
  -28.1730  -21.0890   18.0440 C   0  0  0  0  0  2  0  0  0  0  0  0
  -28.8280  -22.4520   17.8110 C   0  0  0  0  0  2  0  0  0  0  0  0
  -28.5990  -23.2630   18.9470 O   0  0  0  0  0  0  0  0  0  0  0  0
  -28.7380  -24.6470   18.6720 C   0  0  0  0  0  2  0  0  0  0  0  0
  -28.6150  -25.3700   20.0150 C   0  0  0  0  0  2  0  0  0  0  0  0
  -28.6220  -26.7820   19.8500 O   0  0  0  0  0  0  0  0  0  0  0  0
  -24.7810  -31.8240   23.0140 C   0  0  0  0  0  0  0  0  0  0  0  0
  -27.4190  -27.4500   19.8500 C   0  0  0  0  0  0  0  0  0  0  0  0
  -23.5670  -30.4380   21.3630 C   0  0  0  0  0  3  0  0  0  0  0  0
  -25.0120  -28.9290   19.9070 C   0  0  0  0  0  0  0  0  0  0  0  0
  -26.0890  -30.8110   21.1510 C   0  0  0  0  0  2  0  0  0  0  0  0
  -26.1700  -29.4510   20.4920 C   0  0  0  0  0  0  0  0  0  0  0  0
  -27.3750  -28.7200   20.4590 C   0  0  0  0  0  3  0  0  0  0  0  0
  -26.2360  -26.9330   19.2660 C   0  0  0  0  0  3  0  0  0  0  0  0
  -25.0390  -27.6680   19.2880 C   0  0  0  0  0  3  0  0  0  0  0  0
  -23.7680  -29.7850   19.9710 C   0  0  0  0  0  2  0  0  0  0  0  0
  -24.8300  -31.0390   21.9020 N   0  0  0  0  0  0  0  0  0  0  0  0
  -23.7020  -32.0860   23.5650 O   0  0  0  0  0  0  0  0  0  0  0  0
  -22.9310  -29.3970   22.3130 C   0  0  0  0  0  0  0  0  0  0  0  0
  -21.5960  -29.2710   22.2480 N   0  0  0  0  0  0  0  0  0  0  0  0
  -23.6310  -28.7080   23.0620 O   0  0  0  0  0  0  0  0  0  0  0  0
  -21.0960  -29.8750   21.6100 H   0  0  0  0  0  0  0  0  0  0  0  0
  -18.1950  -28.3020   22.9970 C   0  0  0  0  0  0  0  0  0  0  0  0
  -20.7820  -28.3340   23.0190 C   0  0  0  0  0  3  0  0  0  0  0  0
  -20.7040  -26.9580   22.3190 C   0  0  0  0  0  2  0  0  0  0  0  0
  -19.4820  -26.8150   21.4050 C   0  0  0  0  0  2  0  0  0  0  0  0
  -18.1880  -27.0090   22.2000 C   0  0  0  0  0  2  0  0  0  0  0  0
  -19.4140  -28.9340   23.3660 C   0  0  0  0  0  0  0  0  0  0  0  0
  -19.3640  -30.1540   24.0750 C   0  0  0  0  0  3  0  0  0  0  0  0
  -18.1330  -30.7410   24.4150 C   0  0  0  0  0  3  0  0  0  0  0  0
  -16.9300  -30.1050   24.0610 C   0  0  0  0  0  3  0  0  0  0  0  0
  -16.9620  -28.8880   23.3550 C   0  0  0  0  0  3  0  0  0  0  0  0
  -26.0690  -32.4500   23.6340 C   0  0  0  0  0  3  0  0  0  0  0  0
  -26.7700  -31.5090   24.6890 C   0  0  1  0  0  0  0  0  0  0  0  0
  -25.8140  -30.9780   25.7830 C   0  0  0  0  0  1  0  0  0  0  0  0
  -27.4080  -30.2890   23.9880 C   0  0  0  0  0  1  0  0  0  0  0  0
  -27.9240  -32.2680   25.3840 C   0  0  0  0  0  1  0  0  0  0  0  0
  -25.6910  -33.7310   24.2480 N   0  0  0  0  0  0  0  0  0  0  0  0
  -25.8580  -34.9290   23.6730 C   0  0  0  0  0  0  0  0  0  0  0  0
  -26.4290  -35.0760   22.5880 O   0  0  0  0  0  0  0  0  0  0  0  0
  -25.1800  -33.6810   25.1180 H   0  0  0  0  0  0  0  0  0  0  0  0
  -23.9650  -36.5760   23.7960 C   0  0  0  0  0  1  0  0  0  0  0  0
  -25.3060  -36.1570   24.4190 C   0  0  0  0  0  3  0  0  0  0  0  0
  -27.4310  -37.0770   25.2290 C   0  0  0  0  0  1  0  0  0  0  0  0
  -26.2350  -37.3100   24.4260 N   0  0  0  0  0  0  0  0  0  0  0  0
  -25.7720  -38.1420   24.7790 H   0  0  0  0  0  0  0  0  0  0  0  0
  1  2  1  0
  2  3  1  0
  2  4  2  0
  3  6  1  0
  5  3  1  0
  6  7  1  0
  8  7  1  0
  8  9  1  0
  9 11  1  0
 10  9  1  0
 12  9  1  0
 12 13  1  0
 14 13  1  0
 14 15  1  0
 16 24  1  0
 17 22  1  0
 18 19  1  0
 18 17  1  0
 20 19  1  0
 20 29  1  0
 20 21  1  0
 22 16  1  0
 22 21  1  0
 23 16  2  0
 24 15  1  0
 24 25  1  0
 26 27  2  0
 27 46  1  0
 28 31  1  0
 28 27  1  0
 29 30  1  0
 29 26  1  0
 30 28  2  0
 31 32  1  0
 32 33  2  0
 34 33  1  0
 35 34  2  0
 36 35  1  0
 36 31  2  0
 37 34  1  0
 37 38  1  0
 38 39  1  0
 39 40  2  0
 41 40  1  0
 41 45  1  0
 42 41  2  0
 43 38  2  0
 43 42  1  0
 44 43  1  0
 46 47  1  0
 47 50  1  0
 47 49  1  0
 48 46  2  0
 51 26  1  0
 51 52  1  0
 53 51  1  0
 54  1  1  0
 54 56  1  0
 55 56  1  0
 55 59  1  0
 56 58  1  0
 57 55  2  0
 59 60  1  0
 60 61  1  0
 62 61  1  0
 62 63  1  0
 64 63  1  0
 64 65  1  0
 66 68  1  0
 66 65  1  0
 67 78  2  0
 68 73  1  0
 69 77  1  0
 69 79  1  0
 70 76  1  0
 70 72  1  0
 71 77  1  0
 72 71  1  0
 73 72  2  0
 74 75  1  0
 74 68  2  0
 75 70  2  0
 76 69  1  0
 77 67  1  0
 79 81  2  0
 80 79  1  0
 82 80  1  0
 83 92  2  0
 83 88  1  0
 84 80  1  0
 84 88  1  0
 85 84  1  0
 86 87  1  0
 86 85  1  0
 87 83  1  0
 88 89  2  0
 89 90  1  0
 91 90  2  0
 92 91  1  0
 93 67  1  0
 93 98  1  0
 93 94  1  0
 94 97  1  1
 94 95  1  0
 96 94  1  0
 98101  1  0
 99 98  1  0
 99103  1  0
100 99  2  0
103102  1  0
103105  1  0
105106  1  0
105104  1  0
M  ISO  4  16 100  24 100  65 101  66 101
M  END
>  <TORSDO>  (2) 
F 34

>  <SCORE>  (2) 
-2.944

>  <name>  (2) 
1

>  <ligand_id>  (2) 
1

>  <original_smiles>  (2) 
[H]c1c([H])c([H])c2c(c1[H])C([H])([H])C([H])([H])C([H])([H])C2([H])N([H])C(=O)C1([H])N(C(=O)C([H])(N([H])C(=O)C([H])(N([H])C([H])([H])[H])C([H])([H])[H])C(C([H])([H])[H])(C([H])([H])[H])C([H])([H])[H])C([H])([H])c2c([H])c(OC([H])([H])C([H])([H])OC([H])([H])C([H])([H])OC([H])([H])C(=O)N([H])C([H])([H])C([H])([H])C(=O)N([H])C([H])([H])C([H])([H])C([H])([H])[N+]([H])([H])C([H])([H])C([H])([H])C([H])([H])C([H])([H])N([H])C(=O)N3C([H])([H])C([H])([H])C([H])([H])C([H])(n4nc(-c5c([H])c([H])c(Oc6c([H])c([H])c(F)c([H])c6F)c([H])c5[H])c(C(=O)N([H])[H])c4N([H])[H])C3([H])[H])c([H])c([H])c2C1([H])[H]

>  <smiles>  (2) 
[H]c1c([H])c([H])c2c(c1[H])C([H])([H])C([H])([H])C([H])([H])C2([H])N([H])C(=O)C1([H])N(C(=O)C([H])(N([H])C(=O)C([H])(N([H])C([H])([H])[H])C([H])([H])[H])C(C([H])([H])[H])(C([H])([H])[H])C([H])([H])[H])C([H])([H])c2c([H])c(OC([H])([H])C([H])([H])OC([H])([H])C([H])([H])OC([H])([H])C(=O)N([H])C([H])([H])C([H])([H])C(=O)N([H])C([H])([H])C([H])([H])C([H])([H])[N+]([H])([H])C([H])([H])C([H])([H])C([H])([H])C([H])([H])N([H])C(=O)N3C([H])([H])C([H])([H])C([H])([H])C([H])(n4nc(-c5c([H])c([H])c(Oc6c([H])c([H])c(F)c([H])c6F)c([H])c5[H])c(C(=O)N([H])[H])c4N([H])[H])C3([H])[H])c([H])c([H])c2C1([H])[H]

$$$$
2:0:0
     RDKit          3D

103110  0  0  1  0  0  0  0  0999 V2000
  -32.3990  -17.8700   17.6920 C   0  0  0  0  0  0  0  0  0  0  0  0
  -32.3570  -19.1870   17.3430 N   0  0  0  0  0  0  0  0  0  0  0  0
  -31.6440  -17.4580   18.5700 O   0  0  0  0  0  0  0  0  0  0  0  0
  -33.0540  -19.4770   16.6680 H   0  0  0  0  0  0  0  0  0  0  0  0
  -34.8510  -17.3250   17.0900 C   0  0  0  0  0  2  0  0  0  0  0  0
  -34.6050  -15.1690   18.3400 C   0  0  0  0  0  2  0  0  0  0  0  0
  -33.3810  -16.8430   16.9880 C   0  0  0  0  0  3  0  0  0  0  0  0
  -33.3340  -15.4510   17.6130 N   0  0  1  0  0  4  0  0  0  0  0  0
  -35.3690  -16.7620   18.7230 S   0  0  0  0  0  0  0  0  0  0  0  0
  -32.6280  -15.6060   18.3240 H   0  0  0  0  0  0  0  0  0  0  0  0
  -32.8360  -14.2410   16.8180 C   0  0  0  0  0  2  0  0  0  0  0  0
  -31.1180  -10.9470   19.0530 C   0  0  0  0  0  3  0  0  0  0  0  0
  -32.0110  -11.7770   17.9850 C   0  0  0  0  0  3  0  0  0  0  0  0
  -29.9770  -11.7660   19.9190 C   0  0  0  0  0  1  0  0  0  0  0  0
  -30.8430  -14.2920   18.2890 C   0  0  0  0  0  3  0  0  0  0  0  0
  -31.8790  -13.3460   17.6520 C   0  0  0  0  0  0  0  0  0  0  0  0
  -29.8820  -13.7920   19.4100 C   0  0  0  0  0  2  0  0  0  0  0  0
  -30.7460  -14.7460   21.2270 C   0  0  0  0  0  3  0  0  0  0  0  0
  -31.6450  -12.8120   20.3100 C   0  0  0  0  0  1  0  0  0  0  0  0
  -29.6740  -12.3140   17.7810 C   0  0  0  0  0  1  0  0  0  0  0  0
  -27.9530  -12.5190   18.5230 C   0  0  0  0  0  2  0  0  0  0  0  0
  -27.6810  -13.1780   20.2380 C   0  0  0  0  0  3  0  0  0  0  0  0
  -28.8530  -13.2300   21.6940 C   0  0  0  0  0  2  0  0  0  0  0  0
  -30.5750  -13.4510   21.5440 N   0  0  0  0  0  0  0  0  0  0  0  0
  -31.8490  -15.2880   21.0810 O   0  0  0  0  0  1  0  0  0  0  0  0
  -29.8510  -14.9490   20.2660 N   0  0  0  0  0  0  0  0  0  0  0  0
  -28.9440  -15.1650   20.6430 H   0  0  0  0  0  0  0  0  0  0  0  0
  -25.3250  -13.9070   20.6770 C   0  0  0  0  0  0  0  0  0  0  0  0
  -24.2240  -13.1630   20.9500 C   0  0  0  0  0  0  0  0  0  0  0  0
  -24.6710  -11.8050   21.0220 C   0  0  0  0  0  0  0  0  0  0  0  0
  -26.3500  -12.9810   20.6190 N   0  0  0  0  0  0  0  0  0  0  0  0
  -25.9770  -11.7220   20.8590 N   0  0  0  0  0  0  0  0  0  0  0  0
  -23.9320  -10.5610   21.1730 C   0  0  0  0  0  0  0  0  0  0  0  0
  -24.3100   -9.6030   22.1360 C   0  0  0  0  0  3  0  0  0  0  0  0
  -23.5620   -8.4150   22.2810 C   0  0  0  0  0  3  0  0  0  0  0  0
  -22.4360   -8.1850   21.4550 C   0  0  0  0  0  0  0  0  0  0  0  0
  -22.0880   -9.1340   20.4790 C   0  0  0  0  0  3  0  0  0  0  0  0
  -22.8330  -10.3140   20.3320 C   0  0  0  0  0  3  0  0  0  0  0  0
  -21.6660   -7.0530   21.5060 O   0  0  0  0  0  0  0  0  0  0  0  0
  -21.5810   -6.3000   22.6500 C   0  0  0  0  0  0  0  0  0  0  0  0
  -21.1660   -6.8570   23.8790 C   0  0  0  0  0  3  0  0  0  0  0  0
  -21.0290   -6.0310   25.0100 C   0  0  0  0  0  3  0  0  0  0  0  0
  -21.2940   -4.6520   24.9150 C   0  0  0  0  0  0  0  0  0  0  0  0
  -21.7030   -4.0980   23.6900 C   0  0  0  0  0  3  0  0  0  0  0  0
  -21.8450   -4.9190   22.5590 C   0  0  0  0  0  0  0  0  0  0  0  0
  -22.2190   -4.3790   21.3740 F   0  0  0  0  0  0  0  0  0  0  0  0
  -21.1510   -3.8580   26.0020 F   0  0  0  0  0  0  0  0  0  0  0  0
  -22.8220  -13.6740   21.0350 C   0  0  0  0  0  0  0  0  0  0  0  0
  -21.9980  -13.0430   21.8600 N   0  0  0  0  0  0  0  0  0  0  0  0
  -22.4680  -14.6770   20.4160 O   0  0  0  0  0  0  0  0  0  0  0  0
  -22.3090  -12.2450   22.3960 H   0  0  0  0  0  0  0  0  0  0  0  0
  -21.0500  -13.3670   21.9720 H   0  0  0  0  0  0  0  0  0  0  0  0
  -25.5260  -15.2700   20.4540 N   0  0  0  0  0  0  0  0  0  0  0  0
  -24.7680  -15.9380   20.4590 H   0  0  0  0  0  0  0  0  0  0  0  0
  -26.4200  -15.6830   20.2110 H   0  0  0  0  0  0  0  0  0  0  0  0
  -31.2410  -20.1740   17.5300 C   0  0  0  0  0  2  0  0  0  0  0  0
  -31.1690  -21.1330   18.7880 C   0  0  0  0  0  2  0  0  0  0  0  0
  -30.8480  -22.5860   18.5100 N   0  0  0  0  0  0  0  0  0  0  0  0
  -31.6170  -23.1900   18.2090 H   0  0  0  0  0  0  0  0  0  0  0  0
  -29.6130  -24.4790   19.1750 C   0  0  0  0  0  3  0  0  0  0  0  0
  -29.6790  -23.1810   18.9910 N   0  0  0  0  0  0  0  0  0  0  0  0
  -28.2760  -25.2390   19.3920 C   0  0  0  0  0  2  0  0  0  0  0  0
  -28.3400  -26.6370   19.8490 O   0  0  0  0  0  0  0  0  0  0  0  0
  -24.5700  -31.8320   23.1750 C   0  0  0  0  0  0  0  0  0  0  0  0
  -27.1550  -27.3910   19.9190 C   0  0  0  0  0  0  0  0  0  0  0  0
  -23.3280  -30.4740   21.5250 C   0  0  0  0  0  3  0  0  0  0  0  0
  -24.7520  -28.9490   20.0460 C   0  0  0  0  0  0  0  0  0  0  0  0
  -25.8640  -30.7950   21.3050 C   0  0  0  0  0  2  0  0  0  0  0  0
  -25.9320  -29.4360   20.6230 C   0  0  0  0  0  0  0  0  0  0  0  0
  -27.1290  -28.6690   20.5540 C   0  0  0  0  0  3  0  0  0  0  0  0
  -25.9350  -26.9310   19.3600 C   0  0  0  0  0  3  0  0  0  0  0  0
  -24.7540  -27.6960   19.4150 C   0  0  0  0  0  3  0  0  0  0  0  0
  -23.5170  -29.8200   20.1300 C   0  0  0  0  0  2  0  0  0  0  0  0
  -24.6060  -31.0480   22.0590 N   0  0  0  0  0  0  0  0  0  0  0  0
  -23.4970  -32.1070   23.7330 O   0  0  0  0  0  0  0  0  0  0  0  0
  -22.6750  -29.4440   22.4750 C   0  0  0  0  0  0  0  0  0  0  0  0
  -21.3450  -29.2860   22.3710 N   0  0  0  0  0  0  0  0  0  0  0  0
  -23.3640  -28.7910   23.2640 O   0  0  0  0  0  0  0  0  0  0  0  0
  -20.8510  -29.8640   21.7070 H   0  0  0  0  0  0  0  0  0  0  0  0
  -17.9670  -28.1120   22.8910 C   0  0  0  0  0  0  0  0  0  0  0  0
  -20.5300  -28.3400   23.1330 C   0  0  0  0  0  3  0  0  0  0  0  0
  -20.6120  -26.9220   22.5220 C   0  0  0  0  0  2  0  0  0  0  0  0
  -19.4920  -26.6320   21.5170 C   0  0  0  0  0  2  0  0  0  0  0  0
  -18.1220  -26.7750   22.1850 C   0  0  0  0  0  2  0  0  0  0  0  0
  -19.0990  -28.8530   23.3220 C   0  0  0  0  0  0  0  0  0  0  0  0
  -18.9020  -30.1060   23.9440 C   0  0  0  0  0  3  0  0  0  0  0  0
  -17.6050  -30.6150   24.1410 C   0  0  0  0  0  3  0  0  0  0  0  0
  -16.4870  -29.8710   23.7280 C   0  0  0  0  0  3  0  0  0  0  0  0
  -16.6690  -28.6210   23.1080 C   0  0  0  0  0  3  0  0  0  0  0  0
  -25.8700  -32.4370   23.7900 C   0  0  0  0  0  3  0  0  0  0  0  0
  -25.5700  -33.8200   24.1870 N   0  0  0  0  0  0  0  0  0  0  0  0
  -25.8910  -34.9050   23.4720 C   0  0  0  0  0  0  0  0  0  0  0  0
  -26.5440  -34.8480   22.4260 O   0  0  0  0  0  0  0  0  0  0  0  0
  -24.9880  -33.9390   25.0040 H   0  0  0  0  0  0  0  0  0  0  0  0
  -24.1590  -36.7140   23.2360 C   0  0  0  0  0  1  0  0  0  0  0  0
  -25.4150  -36.2720   24.0020 C   0  0  0  0  0  3  0  0  0  0  0  0
  -27.5660  -37.1180   24.8310 C   0  0  0  0  0  1  0  0  0  0  0  0
  -26.4470  -37.3270   23.9160 N   0  0  0  0  0  0  0  0  0  0  0  0
  -26.0450  -38.2400   24.1100 H   0  0  0  0  0  0  0  0  0  0  0  0
  -26.4190  -31.6130   25.0190 C   0  0  1  0  0  0  0  0  0  0  0  0
  -25.3560  -31.3400   26.1080 C   0  0  0  0  0  1  0  0  0  0  0  0
  -26.9810  -30.2480   24.5560 C   0  0  0  0  0  1  0  0  0  0  0  0
  -27.5920  -32.3750   25.6810 C   0  0  0  0  0  1  0  0  0  0  0  0
  1  3  2  0
  2 56  1  0
  2  1  1  0
  4  2  1  0
  5  9  1  0
  6  9  1  0
  7  5  1  0
  7  8  1  0
  7  1  1  0
  8 10  1  1
  8  6  1  0
 11  8  1  0
 11 16  1  0
 12 14  1  0
 13 12  2  0
 15 17  1  0
 16 13  1  0
 16 15  2  0
 17 26  1  0
 18 25  1  0
 18 24  1  0
 19 24  1  0
 20 21  1  0
 22 21  1  0
 22 31  1  0
 22 23  1  0
 24 23  1  0
 26 27  1  0
 26 18  1  0
 28 29  2  0
 29 30  1  0
 29 48  1  0
 30 33  1  0
 31 28  1  0
 31 32  1  0
 32 30  2  0
 33 34  1  0
 34 35  2  0
 36 39  1  0
 36 35  1  0
 37 36  2  0
 38 37  1  0
 38 33  2  0
 39 40  1  0
 40 41  1  0
 41 42  2  0
 43 42  1  0
 43 47  1  0
 44 43  2  0
 45 40  2  0
 45 44  1  0
 46 45  1  0
 48 49  1  0
 49 52  1  0
 49 51  1  0
 50 48  2  0
 53 54  1  0
 53 28  1  0
 55 53  1  0
 56 57  1  0
 58 57  1  0
 58 61  1  0
 59 58  1  0
 60 62  1  0
 61 60  2  0
 62 63  1  0
 63 65  1  0
 64 75  2  0
 65 70  1  0
 66 74  1  0
 66 76  1  0
 67 73  1  0
 67 69  1  0
 68 74  1  0
 69 68  1  0
 70 69  2  0
 71 72  1  0
 71 65  2  0
 72 67  2  0
 73 66  1  0
 74 64  1  0
 76 78  2  0
 77 76  1  0
 79 77  1  0
 80 89  2  0
 80 85  1  0
 81 77  1  0
 81 85  1  0
 82 81  1  0
 83 84  1  0
 83 82  1  0
 84 80  1  0
 85 86  2  0
 86 87  1  0
 88 87  2  0
 89 88  1  0
 90 64  1  0
 90 91  1  0
 90100  1  0
 91 94  1  0
 92 96  1  0
 92 91  1  0
 93 92  2  0
 96 95  1  0
 98 96  1  0
 98 99  1  0
 98 97  1  0
100103  1  1
100101  1  0
102100  1  0
M  ISO  4  18 100  26 100  62 101  63 101
M  END
>  <TORSDO>  (3) 
F 24

>  <SCORE>  (3) 
-12.003

>  <name>  (3) 
2

>  <ligand_id>  (3) 
2

>  <original_smiles>  (3) 
[H]C(=NN([H])C([H])([H])C([H])([H])N([H])C(=O)C1([H])C([H])([H])SC([H])([H])[N+]1([H])C([H])([H])c1c([H])c([H])c([H])c(N([H])C(=O)N2C([H])([H])C([H])([H])C([H])([H])C([H])(n3nc(-c4c([H])c([H])c(Oc5c([H])c([H])c(F)c([H])c5F)c([H])c4[H])c(C(=O)N([H])[H])c3N([H])[H])C2([H])[H])c1[H])C([H])([H])Oc1c([H])c([H])c2c(c1[H])C([H])([H])N(C(=O)C([H])(N([H])C(=O)C([H])(N([H])C([H])([H])[H])C([H])([H])[H])C(C([H])([H])[H])(C([H])([H])[H])C([H])([H])[H])C([H])(C(=O)N([H])C1([H])c3c([H])c([H])c([H])c([H])c3C([H])([H])C([H])([H])C1([H])[H])C2([H])[H]

>  <smiles>  (3) 
[H]C(=NN([H])C([H])([H])C([H])([H])N([H])C(=O)C1([H])C([H])([H])SC([H])([H])[N+]1([H])C([H])([H])c1c([H])c([H])c([H])c(N([H])C(=O)N2C([H])([H])C([H])([H])C([H])([H])C([H])(n3nc(-c4c([H])c([H])c(Oc5c([H])c([H])c(F)c([H])c5F)c([H])c4[H])c(C(=O)N([H])[H])c3N([H])[H])C2([H])[H])c1[H])C([H])([H])Oc1c([H])c([H])c2c(c1[H])C([H])([H])N(C(=O)C([H])(N([H])C(=O)C([H])(N([H])C([H])([H])[H])C([H])([H])[H])C(C([H])([H])[H])(C([H])([H])[H])C([H])([H])[H])C([H])(C(=O)N([H])C1([H])c3c([H])c([H])c([H])c([H])c3C([H])([H])C([H])([H])C1([H])[H])C2([H])[H]

$$$$
3:0:0
     RDKit          3D

112121  0  0  1  0  0  0  0  0999 V2000
  -28.3610  -18.1510   23.7260 C   0  0  0  0  0  2  0  0  0  0  0  0
  -27.9820  -18.0280   22.2390 C   0  0  0  0  0  2  0  0  0  0  0  0
  -29.1870  -17.7270   21.3480 C   0  0  0  0  0  2  0  0  0  0  0  0
  -29.2840  -18.6310   20.1110 C   0  0  0  0  0  2  0  0  0  0  0  0
  -29.7930  -18.2480   17.7010 C   0  0  0  0  0  0  0  0  0  0  0  0
  -29.7900  -17.8680   18.9840 N   0  0  0  0  0  0  0  0  0  0  0  0
  -29.3480  -19.3330   17.3270 O   0  0  0  0  0  0  0  0  0  0  0  0
  -30.2180  -16.9810   19.2060 H   0  0  0  0  0  0  0  0  0  0  0  0
  -33.5760  -13.7090   20.5650 C   0  0  0  0  0  0  0  0  0  0  0  0
  -32.6570  -11.4980   20.1100 C   0  0  0  0  0  2  0  0  0  0  0  0
  -31.8940  -11.6170   18.7800 C   0  0  0  0  0  2  0  0  0  0  0  0
  -30.4280  -12.0270   19.0320 C   0  0  0  0  0  2  0  0  0  0  0  0
  -30.2640  -13.1970   20.0400 C   0  0  0  0  0  3  0  0  0  0  0  0
  -31.2250  -13.1030   21.2490 C   0  0  0  0  0  2  0  0  0  0  0  0
  -32.5740  -12.8120   20.7490 N   0  0  0  0  0  0  0  0  0  0  0  0
  -34.7660  -13.3970   20.6200 O   0  0  0  0  0  0  0  0  0  0  0  0
  -32.8110  -17.9360   16.9880 C   0  0  0  0  0  0  0  0  0  0  0  0
  -30.1230  -18.0290   14.4300 C   0  0  0  0  0  2  0  0  0  0  0  0
  -29.6080  -17.0060   15.4360 C   0  0  0  0  0  2  0  0  0  0  0  0
  -31.5840  -18.2790   14.8370 C   0  0  0  0  0  2  0  0  0  0  0  0
  -32.7970  -15.9820   20.1700 C   0  0  0  0  0  2  0  0  0  0  0  0
  -34.0490  -14.7330   18.4210 C   0  0  0  0  0  2  0  0  0  0  0  0
  -33.2930  -17.1610   19.2970 C   0  0  0  0  0  2  0  0  0  0  0  0
  -33.4200  -15.6400   17.3480 C   0  0  0  0  0  2  0  0  0  0  0  0
  -30.4330  -17.2520   16.7080 C   0  0  0  0  0  3  0  0  0  0  0  0
  -33.2610  -14.6790   19.6760 N   0  0  0  0  0  0  0  0  0  0  0  0
  -32.9750  -16.9340   17.8810 N   0  0  0  0  0  0  0  0  0  0  0  0
  -31.7110  -17.7900   16.2160 N   0  0  0  0  0  0  0  0  0  0  0  0
  -33.6180  -18.8570   16.8490 O   0  0  0  0  0  0  0  0  0  0  0  0
  -28.1460  -14.5290   20.6340 C   0  0  0  0  0  0  0  0  0  0  0  0
  -26.8620  -14.1600   20.9040 C   0  0  0  0  0  0  0  0  0  0  0  0
  -26.8570  -12.7310   20.8580 C   0  0  0  0  0  0  0  0  0  0  0  0
  -28.8650  -13.3630   20.4400 N   0  0  0  0  0  0  0  0  0  0  0  0
  -28.0840  -12.2690   20.6330 N   0  0  0  0  0  0  0  0  0  0  0  0
  -25.7440  -11.7820   20.9550 C   0  0  0  0  0  0  0  0  0  0  0  0
  -25.9630  -10.3930   21.0750 C   0  0  0  0  0  3  0  0  0  0  0  0
  -24.8730   -9.5040   21.1810 C   0  0  0  0  0  3  0  0  0  0  0  0
  -23.5480   -9.9990   21.1740 C   0  0  0  0  0  0  0  0  0  0  0  0
  -23.3340  -11.3820   21.0300 C   0  0  0  0  0  3  0  0  0  0  0  0
  -24.4210  -12.2650   20.9190 C   0  0  0  0  0  3  0  0  0  0  0  0
  -22.4280   -9.2070   21.2480 O   0  0  0  0  0  0  0  0  0  0  0  0
  -22.5160   -7.8390   21.2980 C   0  0  0  0  0  0  0  0  0  0  0  0
  -23.3940   -7.1780   22.1860 C   0  0  0  0  0  3  0  0  0  0  0  0
  -23.4090   -5.7690   22.2460 C   0  0  0  0  0  3  0  0  0  0  0  0
  -22.5360   -5.0210   21.4310 C   0  0  0  0  0  0  0  0  0  0  0  0
  -21.6530   -5.6790   20.5580 C   0  0  0  0  0  3  0  0  0  0  0  0
  -21.6420   -7.0820   20.4920 C   0  0  0  0  0  0  0  0  0  0  0  0
  -20.7780   -7.7120   19.6580 F   0  0  0  0  0  0  0  0  0  0  0  0
  -22.5410   -3.6680   21.4940 F   0  0  0  0  0  0  0  0  0  0  0  0
  -25.6840  -15.0720   21.1020 C   0  0  0  0  0  0  0  0  0  0  0  0
  -24.7240  -14.6660   21.9210 N   0  0  0  0  0  0  0  0  0  0  0  0
  -25.6360  -16.1800   20.5660 O   0  0  0  0  0  0  0  0  0  0  0  0
  -24.7750  -13.7680   22.3830 H   0  0  0  0  0  0  0  0  0  0  0  0
  -23.9340  -15.2680   22.1110 H   0  0  0  0  0  0  0  0  0  0  0  0
  -28.7620  -15.7610   20.4940 N   0  0  0  0  0  0  0  0  0  0  0  0
  -28.2800  -16.6390   20.6420 H   0  0  0  0  0  0  0  0  0  0  0  0
  -29.7280  -15.8690   20.2330 H   0  0  0  0  0  0  0  0  0  0  0  0
  -29.7230  -18.8050   24.0340 C   0  0  0  0  0  2  0  0  0  0  0  0
  -30.1720  -19.8950   23.0520 C   0  0  0  0  0  2  0  0  0  0  0  0
  -31.5700  -19.5880   22.4900 C   0  0  0  0  0  2  0  0  0  0  0  0
  -32.1800  -20.7120   21.6420 C   0  0  0  0  0  2  0  0  0  0  0  0
  -31.5160  -20.9170   20.2630 C   0  0  0  0  0  2  0  0  0  0  0  0
  -31.0000  -22.3500   20.0220 C   0  0  0  0  0  2  0  0  0  0  0  0
  -29.6430  -22.4080   19.2960 C   0  0  0  0  0  2  0  0  0  0  0  0
  -29.1290  -23.8400   19.0880 C   0  0  0  0  0  2  0  0  0  0  0  0
  -27.7920  -23.8890   18.3230 C   0  0  0  0  0  2  0  0  0  0  0  0
  -27.5460  -26.1170   17.2680 C   0  0  0  0  0  0  0  0  0  0  0  0
  -27.2910  -25.2570   18.2610 N   0  0  0  0  0  0  0  0  0  0  0  0
  -28.0840  -25.7710   16.2110 O   0  0  0  0  0  0  0  0  0  0  0  0
  -26.7720  -25.5980   19.0590 H   0  0  0  0  0  0  0  0  0  0  0  0
  -27.1710  -27.5810   17.4970 C   0  0  0  0  0  2  0  0  0  0  0  0
  -25.8600  -27.8070   16.9950 O   0  0  0  0  0  0  0  0  0  0  0  0
  -25.2730  -30.7810   23.4190 C   0  0  0  0  0  0  0  0  0  0  0  0
  -25.0520  -28.3860   17.9300 C   0  0  0  0  0  0  0  0  0  0  0  0
  -23.1460  -30.1720   22.3030 C   0  0  0  0  0  3  0  0  0  0  0  0
  -23.3360  -29.5210   19.8460 C   0  0  0  0  0  0  0  0  0  0  0  0
  -25.2200  -30.7610   20.9320 C   0  0  0  0  0  2  0  0  0  0  0  0
  -24.7040  -29.8220   19.8670 C   0  0  0  0  0  0  0  0  0  0  0  0
  -25.5720  -29.2540   18.9100 C   0  0  0  0  0  3  0  0  0  0  0  0
  -23.6780  -28.0840   17.9160 C   0  0  0  0  0  3  0  0  0  0  0  0
  -22.8150  -28.6480   18.8730 C   0  0  0  0  0  3  0  0  0  0  0  0
  -22.4790  -30.1800   20.9010 C   0  0  0  0  0  2  0  0  0  0  0  0
  -24.5950  -30.5570   22.2580 N   0  0  0  0  0  0  0  0  0  0  0  0
  -24.7020  -30.7100   24.5150 O   0  0  0  0  0  0  0  0  0  0  0  0
  -22.9090  -28.7890   22.9500 C   0  0  0  0  0  0  0  0  0  0  0  0
  -21.7500  -28.1800   22.6500 N   0  0  0  0  0  0  0  0  0  0  0  0
  -23.7630  -28.2730   23.6780 O   0  0  0  0  0  0  0  0  0  0  0  0
  -21.0960  -28.6740   22.0560 H   0  0  0  0  0  0  0  0  0  0  0  0
  -19.6670  -25.3470   21.8320 C   0  0  0  0  0  0  0  0  0  0  0  0
  -21.3290  -26.8590   23.1100 C   0  0  0  0  0  3  0  0  0  0  0  0
  -22.3940  -25.7860   22.7810 C   0  0  0  0  0  2  0  0  0  0  0  0
  -22.1510  -25.0820   21.4410 C   0  0  0  0  0  2  0  0  0  0  0  0
  -20.7820  -24.3970   21.4360 C   0  0  0  0  0  2  0  0  0  0  0  0
  -19.9240  -26.5120   22.6040 C   0  0  0  0  0  0  0  0  0  0  0  0
  -18.8520  -27.3800   22.9060 C   0  0  0  0  0  3  0  0  0  0  0  0
  -17.5460  -27.0960   22.4610 C   0  0  0  0  0  3  0  0  0  0  0  0
  -17.2970  -25.9360   21.7060 C   0  0  0  0  0  3  0  0  0  0  0  0
  -18.3550  -25.0650   21.3960 C   0  0  0  0  0  3  0  0  0  0  0  0
  -26.7900  -31.1540   23.4200 C   0  0  0  0  0  3  0  0  0  0  0  0
  -27.6820  -30.1260   24.2170 C   0  0  1  0  0  0  0  0  0  0  0  0
  -27.1500  -29.8040   25.6340 C   0  0  0  0  0  1  0  0  0  0  0  0
  -27.8030  -28.7970   23.4370 C   0  0  0  0  0  1  0  0  0  0  0  0
  -29.1170  -30.6850   24.3680 C   0  0  0  0  0  1  0  0  0  0  0  0
  -26.9110  -32.4950   24.0010 N   0  0  0  0  0  0  0  0  0  0  0  0
  -27.1730  -33.6070   23.2990 C   0  0  0  0  0  0  0  0  0  0  0  0
  -27.4090  -33.5920   22.0880 O   0  0  0  0  0  0  0  0  0  0  0  0
  -26.6790  -32.5860   24.9790 H   0  0  0  0  0  0  0  0  0  0  0  0
  -25.8550  -35.6940   23.7670 C   0  0  0  0  0  1  0  0  0  0  0  0
  -27.1670  -34.9460   24.0600 C   0  0  0  0  0  3  0  0  0  0  0  0
  -29.5900  -35.3000   24.2450 C   0  0  0  0  0  1  0  0  0  0  0  0
  -28.3210  -35.8130   23.7350 N   0  0  0  0  0  0  0  0  0  0  0  0
  -28.1830  -36.7500   24.1060 H   0  0  0  0  0  0  0  0  0  0  0  0
  1 58  1  0
  2  1  1  0
  3  2  1  0
  4  3  1  0
  5  6  1  0
  6  8  1  0
  6  4  1  0
  7  5  2  0
  9 16  2  0
  9 15  1  0
 10 15  1  0
 11 12  1  0
 11 10  1  0
 13 12  1  0
 13 33  1  0
 13 14  1  0
 15 14  1  0
 17 27  1  0
 18 20  1  0
 18 19  1  0
 19 25  1  0
 20 28  1  0
 22 26  1  0
 23 21  1  0
 24 27  1  0
 24 22  1  0
 25  5  1  0
 26 21  1  0
 26  9  1  0
 27 23  1  0
 28 25  1  0
 28 17  1  0
 29 17  2  0
 30 31  2  0
 31 50  1  0
 32 31  1  0
 32 35  1  0
 33 34  1  0
 33 30  1  0
 34 32  2  0
 35 36  1  0
 36 37  2  0
 38 37  1  0
 38 41  1  0
 39 38  2  0
 40 35  2  0
 40 39  1  0
 41 42  1  0
 42 43  1  0
 43 44  2  0
 45 49  1  0
 45 44  1  0
 46 45  2  0
 47 46  1  0
 47 42  2  0
 48 47  1  0
 50 51  1  0
 51 54  1  0
 51 53  1  0
 52 50  2  0
 55 30  1  0
 55 56  1  0
 57 55  1  0
 59 58  1  0
 60 59  1  0
 61 60  1  0
 62 61  1  0
 63 62  1  0
 64 63  1  0
 65 64  1  0
 66 65  1  0
 67 71  1  0
 67 68  1  0
 68 66  1  0
 68 70  1  0
 69 67  2  0
 72 71  1  0
 72 74  1  0
 73 84  2  0
 74 79  1  0
 75 85  1  0
 76 78  1  0
 76 82  1  0
 77 83  1  0
 78 77  1  0
 79 78  2  0
 80 74  2  0
 80 81  1  0
 81 76  2  0
 82 75  1  0
 83 75  1  0
 83 73  1  0
 85 87  2  0
 86 85  1  0
 88 86  1  0
 89 94  1  0
 90 86  1  0
 91 90  1  0
 92 91  1  0
 93 92  1  0
 93 89  1  0
 94 95  2  0
 94 90  1  0
 96 95  1  0
 97 96  2  0
 98 97  1  0
 98 89  2  0
 99 73  1  0
 99104  1  0
 99100  1  0
100103  1  1
100101  1  0
102100  1  0
104107  1  0
105104  1  0
105109  1  0
106105  2  0
109108  1  0
111109  1  0
111112  1  0
111110  1  0
M  ISO  4   9 100  26 100  71 101  72 101
M  END
>  <TORSDO>  (4) 
F 31

>  <SCORE>  (4) 
7.964

>  <name>  (4) 
3

>  <ligand_id>  (4) 
3

>  <original_smiles>  (4) 
[H]c1c([H])c([H])c2c(c1[H])C([H])([H])C([H])([H])C([H])([H])C2([H])N([H])C(=O)C1([H])N(C(=O)C([H])(N([H])C(=O)C([H])(N([H])C([H])([H])[H])C([H])([H])[H])C(C([H])([H])[H])(C([H])([H])[H])C([H])([H])[H])C([H])([H])c2c([H])c(OC([H])([H])C(=O)N([H])C([H])([H])C([H])([H])C([H])([H])C([H])([H])C([H])([H])C([H])([H])C([H])([H])C([H])([H])C([H])([H])C([H])([H])C([H])([H])C([H])([H])C([H])([H])N([H])C(=O)C3([H])N(C(=O)N4C([H])([H])C([H])([H])N(C(=O)N5C([H])([H])C([H])([H])C([H])([H])C([H])(n6nc(-c7c([H])c([H])c(Oc8c([H])c([H])c(F)c([H])c8F)c([H])c7[H])c(C(=O)N([H])[H])c6N([H])[H])C5([H])[H])C([H])([H])C4([H])[H])C([H])([H])C([H])([H])C3([H])[H])c([H])c([H])c2C1([H])[H]

>  <smiles>  (4) 
[H]c1c([H])c([H])c2c(c1[H])C([H])([H])C([H])([H])C([H])([H])C2([H])N([H])C(=O)C1([H])N(C(=O)C([H])(N([H])C(=O)C([H])(N([H])C([H])([H])[H])C([H])([H])[H])C(C([H])([H])[H])(C([H])([H])[H])C([H])([H])[H])C([H])([H])c2c([H])c(OC([H])([H])C(=O)N([H])C([H])([H])C([H])([H])C([H])([H])C([H])([H])C([H])([H])C([H])([H])C([H])([H])C([H])([H])C([H])([H])C([H])([H])C([H])([H])C([H])([H])C([H])([H])N([H])C(=O)C3([H])N(C(=O)N4C([H])([H])C([H])([H])N(C(=O)N5C([H])([H])C([H])([H])C([H])([H])C([H])(n6nc(-c7c([H])c([H])c(Oc8c([H])c([H])c(F)c([H])c8F)c([H])c7[H])c(C(=O)N([H])[H])c6N([H])[H])C5([H])[H])C([H])([H])C4([H])[H])C([H])([H])C([H])([H])C3([H])[H])c([H])c([H])c2C1([H])[H]

$$$$
4:0:0
     RDKit          3D

116123  0  0  1  0  0  0  0  0999 V2000
  -23.8800  -19.6690   21.7730 C   0  0  0  0  0  2  0  0  0  0  0  0
  -23.8280  -22.1180   22.2180 C   0  0  0  0  0  0  0  0  0  0  0  0
  -23.8540  -20.8510   22.6330 N   0  0  0  0  0  0  0  0  0  0  0  0
  -23.8550  -22.9880   23.2260 N   0  0  0  0  0  0  0  0  0  0  0  0
  -23.7880  -22.4530   21.0340 O   0  0  0  0  0  0  0  0  0  0  0  0
  -23.8600  -20.6780   23.6280 H   0  0  0  0  0  0  0  0  0  0  0  0
  -23.9050  -22.6330   24.1710 H   0  0  0  0  0  0  0  0  0  0  0  0
  -23.9070  -24.4400   23.0780 C   0  0  0  0  0  2  0  0  0  0  0  0
  -25.3310  -24.9240   22.7650 C   0  0  0  0  0  2  0  0  0  0  0  0
  -26.1910  -24.5370   23.8280 O   0  0  0  0  0  0  0  0  0  0  0  0
  -27.5110  -25.0380   23.6640 C   0  0  0  0  0  2  0  0  0  0  0  0
  -28.3440  -24.6950   24.9060 C   0  0  0  0  0  2  0  0  0  0  0  0
  -28.9190  -23.3960   24.8000 O   0  0  0  0  0  0  0  0  0  0  0  0
  -29.4910  -22.9670   26.0310 C   0  0  0  0  0  2  0  0  0  0  0  0
  -30.5390  -21.8650   25.8140 C   0  0  0  0  0  2  0  0  0  0  0  0
  -29.9260  -20.6080   25.5430 O   0  0  0  0  0  0  0  0  0  0  0  0
  -30.8030  -19.5210   25.8260 C   0  0  0  0  0  2  0  0  0  0  0  0
  -30.1940  -18.1860   25.3760 C   0  0  0  0  0  2  0  0  0  0  0  0
  -30.6400  -17.8800   24.0620 O   0  0  0  0  0  0  0  0  0  0  0  0
  -30.2230  -16.5950   23.6300 C   0  0  0  0  0  2  0  0  0  0  0  0
  -30.8310  -16.2880   22.2540 C   0  0  0  0  0  2  0  0  0  0  0  0
  -30.7540  -14.3340   20.7140 C   0  0  0  0  0  0  0  0  0  0  0  0
  -30.4190  -12.2890   19.3730 C   0  0  0  0  0  2  0  0  0  0  0  0
  -29.4760  -12.5260   18.1800 C   0  0  0  0  0  2  0  0  0  0  0  0
  -27.9990  -12.3910   18.5990 C   0  0  0  0  0  2  0  0  0  0  0  0
  -27.6640  -13.2000   19.8800 C   0  0  0  0  0  3  0  0  0  0  0  0
  -28.7000  -12.9050   20.9850 C   0  0  0  0  0  2  0  0  0  0  0  0
  -30.0440  -13.2080   20.4560 N   0  0  0  0  0  0  0  0  0  0  0  0
  -31.7620  -14.6760   20.0870 O   0  0  0  0  0  0  0  0  0  0  0  0
  -30.2900  -15.0390   21.7460 N   0  0  0  0  0  0  0  0  0  0  0  0
  -29.4740  -14.6680   22.2090 H   0  0  0  0  0  0  0  0  0  0  0  0
  -25.2590  -13.8160   20.5690 C   0  0  0  0  0  0  0  0  0  0  0  0
  -24.1840  -13.0430   20.9180 C   0  0  0  0  0  0  0  0  0  0  0  0
  -24.6390  -11.6910   20.8730 C   0  0  0  0  0  0  0  0  0  0  0  0
  -26.3020  -12.9330   20.3380 N   0  0  0  0  0  0  0  0  0  0  0  0
  -25.9300  -11.6490   20.5770 N   0  0  0  0  0  0  0  0  0  0  0  0
  -23.9060  -10.4280   21.0390 C   0  0  0  0  0  0  0  0  0  0  0  0
  -24.3620   -9.4210   21.9170 C   0  0  0  0  0  3  0  0  0  0  0  0
  -23.6300   -8.2240   22.0750 C   0  0  0  0  0  3  0  0  0  0  0  0
  -22.4280   -8.0270   21.3540 C   0  0  0  0  0  0  0  0  0  0  0  0
  -21.9900   -9.0240   20.4650 C   0  0  0  0  0  3  0  0  0  0  0  0
  -22.7230  -10.2130   20.3050 C   0  0  0  0  0  3  0  0  0  0  0  0
  -21.6640   -6.8870   21.4240 O   0  0  0  0  0  0  0  0  0  0  0  0
  -21.6850   -6.0730   22.5280 C   0  0  0  0  0  0  0  0  0  0  0  0
  -21.4010   -6.5630   23.8220 C   0  0  0  0  0  3  0  0  0  0  0  0
  -21.3660   -5.6780   24.9180 C   0  0  0  0  0  3  0  0  0  0  0  0
  -21.6050   -4.3040   24.7230 C   0  0  0  0  0  0  0  0  0  0  0  0
  -21.8820   -3.8140   23.4350 C   0  0  0  0  0  3  0  0  0  0  0  0
  -21.9190   -4.6960   22.3410 C   0  0  0  0  0  0  0  0  0  0  0  0
  -22.1650   -4.2150   21.0980 F   0  0  0  0  0  0  0  0  0  0  0  0
  -21.5640   -3.4530   25.7740 F   0  0  0  0  0  0  0  0  0  0  0  0
  -22.7860  -13.5210   21.1840 C   0  0  0  0  0  0  0  0  0  0  0  0
  -22.0490  -12.8260   22.0430 N   0  0  0  0  0  0  0  0  0  0  0  0
  -22.3550  -14.5500   20.6660 O   0  0  0  0  0  0  0  0  0  0  0  0
  -22.4050  -11.9940   22.4890 H   0  0  0  0  0  0  0  0  0  0  0  0
  -21.1100  -13.1310   22.2560 H   0  0  0  0  0  0  0  0  0  0  0  0
  -25.4290  -15.1890   20.4100 N   0  0  0  0  0  0  0  0  0  0  0  0
  -24.6600  -15.8410   20.5140 H   0  0  0  0  0  0  0  0  0  0  0  0
  -26.2830  -15.6280   20.0900 H   0  0  0  0  0  0  0  0  0  0  0  0
  -25.2900  -19.3540   21.2350 C   0  0  0  0  0  2  0  0  0  0  0  0
  -26.3770  -19.2770   22.3260 C   0  0  0  0  0  2  0  0  0  0  0  0
  -27.7390  -18.7720   21.8220 C   0  0  0  0  0  2  0  0  0  0  0  0
  -29.5200  -20.0020   20.5900 C   0  0  0  0  0  0  0  0  0  0  0  0
  -28.2510  -19.6020   20.7350 N   0  0  0  0  0  0  0  0  0  0  0  0
  -30.4250  -19.6540   21.3500 O   0  0  0  0  0  0  0  0  0  0  0  0
  -27.5810  -19.9390   20.0580 H   0  0  0  0  0  0  0  0  0  0  0  0
  -29.8320  -20.9530   19.4300 C   0  0  0  0  0  2  0  0  0  0  0  0
  -30.1250  -23.0930   20.6270 C   0  0  0  0  0  0  0  0  0  0  0  0
  -30.6300  -22.0710   19.9280 N   0  0  0  0  0  0  0  0  0  0  0  0
  -28.9110  -23.2810   20.7250 O   0  0  0  0  0  0  0  0  0  0  0  0
  -31.6350  -21.9640   19.8980 H   0  0  0  0  0  0  0  0  0  0  0  0
  -31.1240  -24.0180   21.3380 C   0  0  0  0  0  2  0  0  0  0  0  0
  -30.5610  -25.3110   21.5350 O   0  0  0  0  0  0  0  0  0  0  0  0
  -30.6850  -26.1730   20.4090 C   0  0  0  0  0  2  0  0  0  0  0  0
  -29.6150  -27.2610   20.5110 C   0  0  0  0  0  2  0  0  0  0  0  0
  -28.3900  -26.7140   20.0340 O   0  0  0  0  0  0  0  0  0  0  0  0
  -24.6080  -31.8710   23.2140 C   0  0  0  0  0  0  0  0  0  0  0  0
  -27.2550  -27.4890   20.0980 C   0  0  0  0  0  0  0  0  0  0  0  0
  -23.3930  -30.4920   21.5530 C   0  0  0  0  0  3  0  0  0  0  0  0
  -24.8430  -28.9610   20.1200 C   0  0  0  0  0  0  0  0  0  0  0  0
  -25.9120  -30.8580   21.3530 C   0  0  0  0  0  2  0  0  0  0  0  0
  -25.9950  -29.4920   20.7100 C   0  0  0  0  0  0  0  0  0  0  0  0
  -27.2020  -28.7680   20.7000 C   0  0  0  0  0  3  0  0  0  0  0  0
  -26.0840  -26.9590   19.5190 C   0  0  0  0  0  3  0  0  0  0  0  0
  -24.8780  -27.6870   19.5230 C   0  0  0  0  0  3  0  0  0  0  0  0
  -23.5990  -29.8180   20.1690 C   0  0  0  0  0  2  0  0  0  0  0  0
  -24.6560  -31.0860   22.1000 N   0  0  0  0  0  0  0  0  0  0  0  0
  -23.5290  -32.1420   23.7580 O   0  0  0  0  0  0  0  0  0  0  0  0
  -22.7380  -29.4650   22.5020 C   0  0  0  0  0  0  0  0  0  0  0  0
  -21.4110  -29.3020   22.3770 N   0  0  0  0  0  0  0  0  0  0  0  0
  -23.4190  -28.8170   23.3020 O   0  0  0  0  0  0  0  0  0  0  0  0
  -20.9250  -29.8750   21.7020 H   0  0  0  0  0  0  0  0  0  0  0  0
  -18.0270  -28.1370   22.8490 C   0  0  0  0  0  0  0  0  0  0  0  0
  -20.5850  -28.3640   23.1350 C   0  0  0  0  0  3  0  0  0  0  0  0
  -20.6770  -26.9380   22.5420 C   0  0  0  0  0  2  0  0  0  0  0  0
  -19.5750  -26.6370   21.5220 C   0  0  0  0  0  2  0  0  0  0  0  0
  -18.1930  -26.7910   22.1620 C   0  0  0  0  0  2  0  0  0  0  0  0
  -19.1520  -28.8820   23.2920 C   0  0  0  0  0  0  0  0  0  0  0  0
  -18.9440  -30.1420   23.8920 C   0  0  0  0  0  3  0  0  0  0  0  0
  -17.6450  -30.6570   24.0560 C   0  0  0  0  0  3  0  0  0  0  0  0
  -16.5340  -29.9080   23.6320 C   0  0  0  0  0  3  0  0  0  0  0  0
  -16.7260  -28.6500   23.0340 C   0  0  0  0  0  3  0  0  0  0  0  0
  -25.9000  -32.4830   23.8420 C   0  0  0  0  0  3  0  0  0  0  0  0
  -25.5870  -33.8630   24.2360 N   0  0  0  0  0  0  0  0  0  0  0  0
  -25.9010  -34.9480   23.5150 C   0  0  0  0  0  0  0  0  0  0  0  0
  -26.5580  -34.8920   22.4710 O   0  0  0  0  0  0  0  0  0  0  0  0
  -25.0040  -33.9790   25.0510 H   0  0  0  0  0  0  0  0  0  0  0  0
  -24.1480  -36.7330   23.2640 C   0  0  0  0  0  1  0  0  0  0  0  0
  -25.4090  -36.3120   24.0350 C   0  0  0  0  0  3  0  0  0  0  0  0
  -27.5580  -37.1810   24.8460 C   0  0  0  0  0  1  0  0  0  0  0  0
  -26.4290  -37.3800   23.9410 N   0  0  0  0  0  0  0  0  0  0  0  0
  -26.0180  -38.2880   24.1420 H   0  0  0  0  0  0  0  0  0  0  0  0
  -26.4470  -31.6590   25.0710 C   0  0  1  0  0  0  0  0  0  0  0  0
  -25.3770  -31.3680   26.1490 C   0  0  0  0  0  1  0  0  0  0  0  0
  -27.0290  -30.3040   24.6030 C   0  0  0  0  0  1  0  0  0  0  0  0
  -27.6060  -32.4310   25.7460 C   0  0  0  0  0  1  0  0  0  0  0  0
  1  3  1  0
  2  3  1  0
  2  4  1  0
  3  6  1  0
  4  7  1  0
  5  2  2  0
  8  4  1  0
  9  8  1  0
  9 10  1  0
 11 10  1  0
 11 12  1  0
 13 12  1  0
 13 14  1  0
 15 14  1  0
 16 15  1  0
 16 17  1  0
 18 17  1  0
 19 18  1  0
 20 19  1  0
 21 20  1  0
 22 30  1  0
 23 28  1  0
 24 25  1  0
 24 23  1  0
 26 25  1  0
 26 35  1  0
 26 27  1  0
 28 22  1  0
 28 27  1  0
 29 22  2  0
 30 31  1  0
 30 21  1  0
 32 33  2  0
 33 52  1  0
 34 33  1  0
 34 37  1  0
 35 32  1  0
 35 36  1  0
 36 34  2  0
 37 38  1  0
 38 39  2  0
 40 43  1  0
 40 39  1  0
 41 40  2  0
 42 41  1  0
 42 37  2  0
 43 44  1  0
 44 45  1  0
 45 46  2  0
 47 46  1  0
 47 51  1  0
 48 47  2  0
 49 44  2  0
 49 48  1  0
 50 49  1  0
 52 53  1  0
 53 56  1  0
 53 55  1  0
 54 52  2  0
 57 58  1  0
 57 32  1  0
 59 57  1  0
 60  1  1  0
 60 61  1  0
 62 61  1  0
 63 64  1  0
 63 65  2  0
 64 62  1  0
 66 64  1  0
 67 69  1  0
 67 63  1  0
 68 70  2  0
 68 72  1  0
 69 68  1  0
 71 69  1  0
 72 73  1  0
 74 75  1  0
 74 73  1  0
 76 78  1  0
 76 75  1  0
 77 88  2  0
 78 83  1  0
 79 87  1  0
 79 89  1  0
 80 86  1  0
 80 82  1  0
 81 87  1  0
 82 81  1  0
 83 82  2  0
 84 85  1  0
 84 78  2  0
 85 80  2  0
 86 79  1  0
 87 77  1  0
 89 91  2  0
 90 89  1  0
 92 90  1  0
 93102  2  0
 93 98  1  0
 94 90  1  0
 94 98  1  0
 95 94  1  0
 96 97  1  0
 96 95  1  0
 97 93  1  0
 98 99  2  0
 99100  1  0
101100  2  0
102101  1  0
103 77  1  0
103104  1  0
103113  1  0
104107  1  0
105109  1  0
105104  1  0
106105  2  0
109108  1  0
111109  1  0
111112  1  0
111110  1  0
113116  1  1
113114  1  0
115113  1  0
M  ISO  4  22 100  30 100  75 101  76 101
M  END
>  <TORSDO>  (5) 
F 41

>  <SCORE>  (5) 
29.740

>  <name>  (5) 
4

>  <ligand_id>  (5) 
4

>  <original_smiles>  (5) 
[H]c1c([H])c([H])c2c(c1[H])C([H])([H])C([H])([H])C([H])([H])C2([H])N([H])C(=O)C1([H])N(C(=O)C([H])(N([H])C(=O)C([H])(N([H])C([H])([H])[H])C([H])([H])[H])C(C([H])([H])[H])(C([H])([H])[H])C([H])([H])[H])C([H])([H])c2c([H])c(OC([H])([H])C([H])([H])OC([H])([H])C(=O)N([H])C([H])([H])C(=O)N([H])C([H])([H])C([H])([H])C([H])([H])C([H])([H])N([H])C(=O)N([H])C([H])([H])C([H])([H])OC([H])([H])C([H])([H])OC([H])([H])C([H])([H])OC([H])([H])C([H])([H])OC([H])([H])C([H])([H])N([H])C(=O)N3C([H])([H])C([H])([H])C([H])([H])C([H])(n4nc(-c5c([H])c([H])c(Oc6c([H])c([H])c(F)c([H])c6F)c([H])c5[H])c(C(=O)N([H])[H])c4N([H])[H])C3([H])[H])c([H])c([H])c2C1([H])[H]

>  <smiles>  (5) 
[H]c1c([H])c([H])c2c(c1[H])C([H])([H])C([H])([H])C([H])([H])C2([H])N([H])C(=O)C1([H])N(C(=O)C([H])(N([H])C(=O)C([H])(N([H])C([H])([H])[H])C([H])([H])[H])C(C([H])([H])[H])(C([H])([H])[H])C([H])([H])[H])C([H])([H])c2c([H])c(OC([H])([H])C([H])([H])OC([H])([H])C(=O)N([H])C([H])([H])C(=O)N([H])C([H])([H])C([H])([H])C([H])([H])C([H])([H])N([H])C(=O)N([H])C([H])([H])C([H])([H])OC([H])([H])C([H])([H])OC([H])([H])C([H])([H])OC([H])([H])C([H])([H])OC([H])([H])C([H])([H])N([H])C(=O)N3C([H])([H])C([H])([H])C([H])([H])C([H])(n4nc(-c5c([H])c([H])c(Oc6c([H])c([H])c(F)c([H])c6F)c([H])c5[H])c(C(=O)N([H])[H])c4N([H])[H])C3([H])[H])c([H])c([H])c2C1([H])[H]

$$$$
5:0:0
     RDKit          3D

118125  0  0  1  0  0  0  0  0999 V2000
  -28.3180  -11.4890   22.2010 C   0  0  0  0  0  0  0  0  0  0  0  0
  -29.2910  -10.6480   22.6210 N   0  0  0  0  0  0  0  0  0  0  0  0
  -27.2480  -11.0680   21.7590 O   0  0  0  0  0  0  0  0  0  0  0  0
  -30.1890  -11.0220   22.8890 H   0  0  0  0  0  0  0  0  0  0  0  0
  -29.0860   -9.2160   22.8690 C   0  0  0  0  0  3  0  0  0  0  0  0
  -30.2960   -8.2570   22.6470 C   0  0  0  0  0  3  0  0  0  0  0  0
  -31.6460   -8.7850   22.0850 C   0  0  0  0  0  2  0  0  0  0  0  0
  -32.3240   -7.9260   20.9560 C   0  0  0  0  0  2  0  0  0  0  0  0
  -33.7660   -7.9890   20.9650 O   0  0  0  0  0  0  0  0  0  0  0  0
  -34.4020   -8.5280   19.7890 C   0  0  0  0  0  2  0  0  0  0  0  0
  -35.9020   -8.0920   19.6460 C   0  0  0  0  0  2  0  0  0  0  0  0
  -36.7930   -9.0970   18.8400 C   0  0  0  0  0  2  0  0  0  0  0  0
  -39.1760   -8.2320   19.4050 C   0  0  0  0  0  0  0  0  0  0  0  0
  -38.2520   -8.8690   18.6560 N   0  0  0  0  0  0  0  0  0  0  0  0
  -40.3080   -8.9460   19.5330 N   0  0  0  0  0  0  0  0  0  0  0  0
  -38.9840   -7.2020   20.0510 O   0  0  0  0  0  0  0  0  0  0  0  0
  -38.6620   -9.5960   18.0870 H   0  0  0  0  0  0  0  0  0  0  0  0
  -40.4740   -9.8280   19.0660 H   0  0  0  0  0  0  0  0  0  0  0  0
  -41.4600  -10.0040   21.3910 C   0  0  0  0  0  0  0  0  0  0  0  0
  -41.0610   -8.8750   20.7570 N   0  0  0  0  0  0  0  0  0  0  0  0
  -41.5580  -11.0870   20.8060 O   0  0  0  0  0  0  0  0  0  0  0  0
  -40.9280   -7.9860   21.2350 H   0  0  0  0  0  0  0  0  0  0  0  0
  -41.7670   -9.9370   22.9110 C   0  0  0  0  0  2  0  0  0  0  0  0
  -40.5670  -10.8440   24.9070 C   0  0  0  0  0  0  0  0  0  0  0  0
  -38.7000   -9.2970   24.8800 C   0  0  0  0  0  2  0  0  0  0  0  0
  -38.5430   -8.7340   23.4650 C   0  0  0  0  0  2  0  0  0  0  0  0
  -37.8250   -9.7240   22.5430 C   0  0  0  0  0  2  0  0  0  0  0  0
  -38.2200  -11.1970   22.6190 C   0  0  0  0  0  3  0  0  0  0  0  0
  -38.3270  -11.5910   24.1060 C   0  0  0  0  0  2  0  0  0  0  0  0
  -39.2360  -10.6550   24.7670 N   0  0  0  0  0  0  0  0  0  0  0  0
  -41.2350  -10.3210   25.7990 O   0  0  0  0  0  0  0  0  0  0  0  0
  -41.1510  -11.0290   23.7060 N   0  0  0  0  0  0  0  0  0  0  0  0
  -41.3160  -11.9740   23.3950 H   0  0  0  0  0  0  0  0  0  0  0  0
  -37.5720  -13.2400   21.1660 C   0  0  0  0  0  0  0  0  0  0  0  0
  -36.4470  -13.5270   20.4480 C   0  0  0  0  0  0  0  0  0  0  0  0
  -35.5820  -12.4030   20.6170 C   0  0  0  0  0  0  0  0  0  0  0  0
  -37.3450  -12.0160   21.7770 N   0  0  0  0  0  0  0  0  0  0  0  0
  -36.1170  -11.5420   21.4580 N   0  0  0  0  0  0  0  0  0  0  0  0
  -34.3070  -12.0520   19.9790 C   0  0  0  0  0  0  0  0  0  0  0  0
  -33.1500  -11.7870   20.7390 C   0  0  0  0  0  3  0  0  0  0  0  0
  -31.9220  -11.4720   20.1180 C   0  0  0  0  0  3  0  0  0  0  0  0
  -31.8500  -11.4340   18.7030 C   0  0  0  0  0  0  0  0  0  0  0  0
  -33.0170  -11.6650   17.9510 C   0  0  0  0  0  3  0  0  0  0  0  0
  -34.2370  -11.9570   18.5810 C   0  0  0  0  0  3  0  0  0  0  0  0
  -30.7070  -11.1160   18.0080 O   0  0  0  0  0  0  0  0  0  0  0  0
  -29.5000  -11.7070   18.2900 C   0  0  0  0  0  0  0  0  0  0  0  0
  -29.2700  -13.0890   18.0830 C   0  0  0  0  0  3  0  0  0  0  0  0
  -27.9890  -13.6380   18.3170 C   0  0  0  0  0  3  0  0  0  0  0  0
  -26.9410  -12.8110   18.7640 C   0  0  0  0  0  0  0  0  0  0  0  0
  -27.1670  -11.4390   18.9790 C   0  0  0  0  0  3  0  0  0  0  0  0
  -28.4410  -10.8920   18.7410 C   0  0  0  0  0  0  0  0  0  0  0  0
  -28.6370   -9.5660   18.9350 F   0  0  0  0  0  0  0  0  0  0  0  0
  -25.7140  -13.3360   18.9890 F   0  0  0  0  0  0  0  0  0  0  0  0
  -36.2060  -14.7160   19.5620 C   0  0  0  0  0  0  0  0  0  0  0  0
  -34.9570  -15.1430   19.4310 N   0  0  0  0  0  0  0  0  0  0  0  0
  -37.1380  -15.2890   18.9980 O   0  0  0  0  0  0  0  0  0  0  0  0
  -34.1990  -14.7010   19.9350 H   0  0  0  0  0  0  0  0  0  0  0  0
  -34.7500  -15.9730   18.8910 H   0  0  0  0  0  0  0  0  0  0  0  0
  -38.7860  -13.9150   21.3650 N   0  0  0  0  0  0  0  0  0  0  0  0
  -38.9940  -14.8450   21.0280 H   0  0  0  0  0  0  0  0  0  0  0  0
  -39.5620  -13.5360   21.8970 H   0  0  0  0  0  0  0  0  0  0  0  0
  -28.4830  -13.0150   22.3530 C   0  0  0  0  0  3  0  0  0  0  0  0
  -28.8120  -13.7880   21.0290 C   0  0  0  0  0  3  0  0  0  0  0  0
  -29.1310  -15.3040   21.1860 C   0  0  0  0  0  2  0  0  0  0  0  0
  -29.9310  -15.9140   19.9970 C   0  0  0  0  0  2  0  0  0  0  0  0
  -29.9050  -17.4650   19.9000 C   0  0  0  0  0  2  0  0  0  0  0  0
  -32.0330  -18.3110   18.9000 C   0  0  0  0  0  0  0  0  0  0  0  0
  -30.7360  -17.9850   18.7940 N   0  0  0  0  0  0  0  0  0  0  0  0
  -32.5820  -18.7820   17.7730 N   0  0  0  0  0  0  0  0  0  0  0  0
  -32.6680  -18.1780   19.9450 O   0  0  0  0  0  0  0  0  0  0  0  0
  -30.2820  -18.1240   17.8990 H   0  0  0  0  0  0  0  0  0  0  0  0
  -32.0100  -18.8800   16.9440 H   0  0  0  0  0  0  0  0  0  0  0  0
  -34.0160  -19.0530   17.6050 C   0  0  0  0  0  2  0  0  0  0  0  0
  -34.4390  -20.4660   18.0570 C   0  0  0  0  0  2  0  0  0  0  0  0
  -34.3560  -21.4010   16.9840 O   0  0  0  0  0  0  0  0  0  0  0  0
  -34.9270  -22.6590   17.3460 C   0  0  0  0  0  2  0  0  0  0  0  0
  -35.3900  -23.4570   16.1170 C   0  0  0  0  0  2  0  0  0  0  0  0
  -34.3040  -24.1210   15.4760 O   0  0  0  0  0  0  0  0  0  0  0  0
  -30.7180  -25.8050    9.5940 C   0  0  0  0  0  0  0  0  0  0  0  0
  -33.9480  -23.7130   14.2110 C   0  0  0  0  0  0  0  0  0  0  0  0
  -31.5430  -23.4740    9.7090 C   0  0  0  0  0  3  0  0  0  0  0  0
  -33.1900  -22.9730   11.5920 C   0  0  0  0  0  0  0  0  0  0  0  0
  -32.7650  -25.3510   10.9410 C   0  0  0  0  0  2  0  0  0  0  0  0
  -33.1790  -24.3210   11.9690 C   0  0  0  0  0  0  0  0  0  0  0  0
  -33.5440  -24.6930   13.2800 C   0  0  0  0  0  3  0  0  0  0  0  0
  -33.9390  -22.3540   13.8220 C   0  0  0  0  0  3  0  0  0  0  0  0
  -33.5660  -21.9830   12.5160 C   0  0  0  0  0  3  0  0  0  0  0  0
  -32.7820  -22.6590   10.1710 C   0  0  0  0  0  2  0  0  0  0  0  0
  -31.6310  -24.9240   10.0890 N   0  0  0  0  0  0  0  0  0  0  0  0
  -29.8410  -25.4420    8.7990 O   0  0  0  0  0  0  0  0  0  0  0  0
  -30.2700  -22.7800   10.2410 C   0  0  0  0  0  0  0  0  0  0  0  0
  -29.8310  -21.7200    9.5430 N   0  0  0  0  0  0  0  0  0  0  0  0
  -29.7200  -23.1720   11.2740 O   0  0  0  0  0  0  0  0  0  0  0  0
  -30.3350  -21.4650    8.7050 H   0  0  0  0  0  0  0  0  0  0  0  0
  -27.8250  -18.9400    8.4070 C   0  0  0  0  0  0  0  0  0  0  0  0
  -28.6780  -20.8850    9.8780 C   0  0  0  0  0  3  0  0  0  0  0  0
  -29.0580  -19.8030   10.9130 C   0  0  0  0  0  2  0  0  0  0  0  0
  -29.4710  -18.4740   10.2720 C   0  0  0  0  0  2  0  0  0  0  0  0
  -28.3340  -17.9180    9.4100 C   0  0  0  0  0  2  0  0  0  0  0  0
  -28.0020  -20.3320    8.6190 C   0  0  0  0  0  0  0  0  0  0  0  0
  -27.5420  -21.2380    7.6380 C   0  0  0  0  0  3  0  0  0  0  0  0
  -26.9160  -20.7740    6.4670 C   0  0  0  0  0  3  0  0  0  0  0  0
  -26.7300  -19.3950    6.2690 C   0  0  0  0  0  3  0  0  0  0  0  0
  -27.1800  -18.4820    7.2400 C   0  0  0  0  0  3  0  0  0  0  0  0
  -30.7480  -27.3170    9.9840 C   0  0  0  0  0  3  0  0  0  0  0  0
  -30.6480  -28.0950    8.7430 N   0  0  0  0  0  0  0  0  0  0  0  0
  -31.6970  -28.5580    8.0490 C   0  0  0  0  0  0  0  0  0  0  0  0
  -32.8630  -28.4330    8.4350 O   0  0  0  0  0  0  0  0  0  0  0  0
  -29.7280  -28.1870    8.3370 H   0  0  0  0  0  0  0  0  0  0  0  0
  -31.6090  -28.2890    5.5510 C   0  0  0  0  0  1  0  0  0  0  0  0
  -31.4080  -29.2720    6.7160 C   0  0  0  0  0  3  0  0  0  0  0  0
  -31.9510  -31.5530    7.4440 C   0  0  0  0  0  1  0  0  0  0  0  0
  -32.2390  -30.4760    6.5000 N   0  0  0  0  0  0  0  0  0  0  0  0
  -32.1130  -30.8380    5.5580 H   0  0  0  0  0  0  0  0  0  0  0  0
  -29.6020  -27.7230   10.9910 C   0  0  1  0  0  0  0  0  0  0  0  0
  -28.1850  -27.3300   10.5100 C   0  0  0  0  0  1  0  0  0  0  0  0
  -29.8340  -27.0640   12.3700 C   0  0  0  0  0  1  0  0  0  0  0  0
  -29.6220  -29.2530   11.2210 C   0  0  0  0  0  1  0  0  0  0  0  0
  1 62  1  0
  1  2  1  0
  2  5  1  0
  2  4  1  0
  3  1  2  0
  6  5  2  0
  7  6  1  0
  8  9  1  0
  8  7  1  0
 10  9  1  0
 11 10  1  0
 12 11  1  0
 13 15  1  0
 13 16  2  0
 14 12  1  0
 14 13  1  0
 15 20  1  0
 17 14  1  0
 18 15  1  0
 19 23  1  0
 20 22  1  0
 20 19  1  0
 21 19  2  0
 23 32  1  0
 24 31  2  0
 26 25  1  0
 27 28  1  0
 27 26  1  0
 28 37  1  0
 28 29  1  0
 29 30  1  0
 30 25  1  0
 30 24  1  0
 32 24  1  0
 33 32  1  0
 34 59  1  0
 34 37  1  0
 35 36  1  0
 35 34  2  0
 36 38  2  0
 38 37  1  0
 39 36  1  0
 39 40  1  0
 41 40  2  0
 42 41  1  0
 43 44  1  0
 43 42  2  0
 44 39  2  0
 45 46  1  0
 45 42  1  0
 46 51  1  0
 47 46  2  0
 47 48  1  0
 48 49  2  0
 49 50  1  0
 49 53  1  0
 51 52  1  0
 51 50  2  0
 54 35  1  0
 55 54  1  0
 55 57  1  0
 56 54  2  0
 58 55  1  0
 59 61  1  0
 60 59  1  0
 63 64  1  0
 63 62  2  0
 65 64  1  0
 66 65  1  0
 67 70  2  0
 68 67  1  0
 68 66  1  0
 69 67  1  0
 71 68  1  0
 72 69  1  0
 73 69  1  0
 73 74  1  0
 75 76  1  0
 75 74  1  0
 77 76  1  0
 78 77  1  0
 79 89  1  0
 80 78  1  0
 81 89  1  0
 81 88  1  0
 81 91  1  0
 82 84  2  0
 82 87  1  0
 83 84  1  0
 84 85  1  0
 85 80  2  0
 86 80  1  0
 87 86  2  0
 88 82  1  0
 89 83  1  0
 90 79  2  0
 91 93  2  0
 92 91  1  0
 94 92  1  0
 95100  1  0
 95 99  1  0
 96 92  1  0
 96 97  1  0
 98 97  1  0
 99 98  1  0
100 96  1  0
101100  2  0
102101  1  0
103102  2  0
103104  1  0
104 95  2  0
105 79  1  0
105115  1  0
106105  1  0
107108  2  0
107106  1  0
109106  1  0
111110  1  0
111107  1  0
113111  1  0
113112  1  0
114113  1  0
115118  1  1
115117  1  0
116115  1  0
M  ISO  4  24 100  32 100  77 101  78 101
M  END
>  <TORSDO>  (6) 
F 38

>  <SCORE>  (6) 
-2.280

>  <name>  (6) 
5

>  <ligand_id>  (6) 
5

>  <original_smiles>  (6) 
[H]c1c([H])c([H])c2c(c1[H])C([H])([H])C([H])([H])C([H])([H])C2([H])N([H])C(=O)C1([H])N(C(=O)C([H])(N([H])C(=O)C([H])(N([H])C([H])([H])[H])C([H])([H])[H])C(C([H])([H])[H])(C([H])([H])[H])C([H])([H])[H])C([H])([H])c2c([H])c(OC([H])([H])C([H])([H])OC([H])([H])C([H])([H])N([H])C(=O)N([H])C([H])([H])C([H])([H])C([H])([H])C([H])([H])C([H])([H])C(=O)N([H])C([H])([H])C([H])([H])C([H])([H])C([H])([H])OC([H])([H])C([H])([H])C([H])([H])N([H])C(=O)N([H])N([H])C(=O)C([H])([H])N([H])C(=O)N3C([H])([H])C([H])([H])C([H])([H])C([H])(n4nc(-c5c([H])c([H])c(Oc6c([H])c([H])c(F)c([H])c6F)c([H])c5[H])c(C(=O)N([H])[H])c4N([H])[H])C3([H])[H])c([H])c([H])c2C1([H])[H]

>  <smiles>  (6) 
[H]c1c([H])c([H])c2c(c1[H])C([H])([H])C([H])([H])C([H])([H])C2([H])N([H])C(=O)C1([H])N(C(=O)C([H])(N([H])C(=O)C([H])(N([H])C([H])([H])[H])C([H])([H])[H])C(C([H])([H])[H])(C([H])([H])[H])C([H])([H])[H])C([H])([H])c2c([H])c(OC([H])([H])C([H])([H])OC([H])([H])C([H])([H])N([H])C(=O)N([H])C([H])([H])C([H])([H])C([H])([H])C([H])([H])C([H])([H])C(=O)N([H])C([H])([H])C([H])([H])C([H])([H])C([H])([H])OC([H])([H])C([H])([H])C([H])([H])N([H])C(=O)N([H])N([H])C(=O)C([H])([H])N([H])C(=O)N3C([H])([H])C([H])([H])C([H])([H])C([H])(n4nc(-c5c([H])c([H])c(Oc6c([H])c([H])c(F)c([H])c6F)c([H])c5[H])c(C(=O)N([H])[H])c4N([H])[H])C3([H])[H])c([H])c([H])c2C1([H])[H]

$$$$
8:0:0
     RDKit          3D

 98102  0  0  1  0  0  0  0  0999 V2000
  -25.1530  -15.8140   21.3410 C   0  0  0  0  0  2  0  0  0  0  0  0
  -27.0440  -16.9980   19.6600 C   0  0  0  0  0  0  0  0  0  0  0  0
  -26.4880  -16.6110   20.9320 N   0  0  0  0  0  0  0  0  0  0  0  0
  -26.4430  -16.6090   18.6560 O   0  0  0  0  0  0  0  0  0  0  0  0
  -27.0310  -16.9360   21.7220 H   0  0  0  0  0  0  0  0  0  0  0  0
  -28.4240  -17.9250   19.3540 C   0  0  0  0  0  2  0  0  0  0  0  0
  -28.5040  -19.0420   18.2420 O   0  0  0  0  0  0  0  0  0  0  0  0
  -29.6230  -20.1460   18.0580 C   0  0  0  0  0  3  0  0  0  0  0  0
  -29.4550  -21.6950   17.3240 C   0  0  0  0  0  3  0  0  0  0  0  0
  -30.2820  -23.0730   17.3220 O   0  0  0  0  0  0  0  0  0  0  0  0
  -25.0990  -26.7070   20.7590 C   0  0  0  0  0  0  0  0  0  0  0  0
  -29.5250  -24.2880   17.3450 C   0  0  0  0  0  0  0  0  0  0  0  0
  -25.0480  -26.5250   18.3060 C   0  0  0  0  0  3  0  0  0  0  0  0
  -27.2770  -26.0380   17.1490 C   0  0  0  0  0  0  0  0  0  0  0  0
  -27.3000  -26.7250   19.5320 C   0  0  0  0  0  2  0  0  0  0  0  0
  -27.9410  -25.9430   18.3790 C   0  0  0  0  0  0  0  0  0  0  0  0
  -29.0870  -25.0690   18.4880 C   0  0  0  0  0  3  0  0  0  0  0  0
  -28.9720  -24.6510   16.1090 C   0  0  0  0  0  3  0  0  0  0  0  0
  -27.8250  -25.4430   16.0110 C   0  0  0  0  0  3  0  0  0  0  0  0
  -25.9620  -26.7850   17.0810 C   0  0  0  0  0  2  0  0  0  0  0  0
  -25.8070  -26.6420   19.5920 N   0  0  0  0  0  0  0  0  0  0  0  0
  -23.8590  -26.6750   20.7670 O   0  0  0  0  0  0  0  0  0  0  0  0
  -24.3290  -25.1600   18.1500 C   0  0  0  0  0  0  0  0  0  0  0  0
  -23.3280  -25.0920   17.2540 N   0  0  0  0  0  0  0  0  0  0  0  0
  -24.6820  -24.1840   18.8180 O   0  0  0  0  0  0  0  0  0  0  0  0
  -23.0860  -25.9350   16.7520 H   0  0  0  0  0  0  0  0  0  0  0  0
  -20.7020  -23.8110   15.1130 C   0  0  0  0  0  0  0  0  0  0  0  0
  -22.5390  -23.8990   16.9330 C   0  0  0  0  0  3  0  0  0  0  0  0
  -23.3360  -22.9330   16.0270 C   0  0  0  0  0  2  0  0  0  0  0  0
  -23.0760  -23.1520   14.5330 C   0  0  0  0  0  2  0  0  0  0  0  0
  -21.5900  -22.9660   14.2140 C   0  0  0  0  0  2  0  0  0  0  0  0
  -21.1540  -24.2620   16.3820 C   0  0  0  0  0  0  0  0  0  0  0  0
  -20.3000  -25.0700   17.1640 C   0  0  0  0  0  3  0  0  0  0  0  0
  -19.0210  -25.4280   16.6990 C   0  0  0  0  0  3  0  0  0  0  0  0
  -18.5740  -24.9680   15.4480 C   0  0  0  0  0  3  0  0  0  0  0  0
  -19.4120  -24.1580   14.6610 C   0  0  0  0  0  3  0  0  0  0  0  0
  -25.8150  -26.8440   22.1350 C   0  0  0  0  0  3  0  0  0  0  0  0
  -24.9400  -27.6350   23.0130 N   0  0  0  0  0  0  0  0  0  0  0  0
  -25.1260  -28.9270   23.3150 C   0  0  0  0  0  0  0  0  0  0  0  0
  -26.1060  -29.5690   22.9280 O   0  0  0  0  0  0  0  0  0  0  0  0
  -24.0880  -27.1890   23.3200 H   0  0  0  0  0  0  0  0  0  0  0  0
  -23.1300  -30.4620   23.2920 C   0  0  0  0  0  1  0  0  0  0  0  0
  -24.0550  -29.6170   24.1830 C   0  0  0  0  0  3  0  0  0  0  0  0
  -25.2790  -29.6990   26.3100 C   0  0  0  0  0  1  0  0  0  0  0  0
  -24.6210  -30.4650   25.2550 N   0  0  0  0  0  0  0  0  0  0  0  0
  -23.8970  -31.0360   25.6830 H   0  0  0  0  0  0  0  0  0  0  0  0
  -26.1510  -25.4530   22.8000 C   0  0  1  0  0  0  0  0  0  0  0  0
  -24.9400  -24.4940   22.8840 C   0  0  0  0  0  1  0  0  0  0  0  0
  -27.2720  -24.7230   22.0250 C   0  0  0  0  0  1  0  0  0  0  0  0
  -26.6830  -25.6740   24.2360 C   0  0  0  0  0  1  0  0  0  0  0  0
  -24.9850  -14.3270   22.2300 C   0  0  0  0  0  2  0  0  0  0  0  0
  -24.0450  -12.8390   22.0050 C   0  0  0  0  0  2  0  0  0  0  0  0
  -24.2760  -11.1950   21.2890 C   0  0  0  0  0  2  0  0  0  0  0  0
  -24.7890  -10.4890   19.6710 C   0  0  0  0  0  2  0  0  0  0  0  0
  -26.4140  -10.1430   18.8510 C   0  0  0  0  0  2  0  0  0  0  0  0
  -28.7980  -10.3710   20.5280 C   0  0  0  0  0  3  0  0  0  0  0  0
  -27.9600   -9.8190   19.4290 N   0  0  0  0  0  0  0  0  0  0  0  0
  -27.8770  -12.0950   22.1860 O   0  0  0  0  0  0  0  0  0  0  0  0
  -28.4790   -9.2100   18.8080 H   0  0  0  0  0  0  0  0  0  0  0  0
  -30.6740  -10.2080   20.2960 C   0  0  0  0  0  3  0  0  0  0  0  0
  -33.1220  -10.9050   22.2420 C   0  0  0  0  0  0  0  0  0  0  0  0
  -33.1930   -8.8680   23.5120 C   0  0  0  0  0  2  0  0  0  0  0  0
  -32.4710   -8.1370   22.3770 C   0  0  0  0  0  2  0  0  0  0  0  0
  -30.9980   -8.5630   22.4830 C   0  0  0  0  0  2  0  0  0  0  0  0
  -30.7790  -10.0590   23.0660 C   0  0  0  0  0  0  0  0  0  0  0  0
  -31.5900  -10.5810   24.1110 C   0  0  0  0  0  2  0  0  0  0  0  0
  -32.7860  -10.2660   23.3970 N   0  0  0  0  0  0  0  0  0  0  0  0
  -34.2680  -11.3770   22.4190 O   0  0  0  0  0  0  0  0  0  0  0  0
  -32.2180  -10.7920   20.9900 N   0  0  0  0  0  0  0  0  0  0  0  0
  -32.7140  -11.2630   20.2490 H   0  0  0  0  0  0  0  0  0  0  0  0
  -29.1510  -12.4020   21.4280 C   0  0  0  0  0  3  0  0  0  0  0  0
  -27.4120  -11.9660   20.7240 C   0  0  0  0  0  3  0  0  0  0  0  0
  -26.8710   -9.9410   21.4840 C   0  0  0  0  0  1  0  0  0  0  0  0
  -29.7880  -10.6760   22.6680 N   0  0  0  0  0  2  0  0  0  0  0  0
  -28.3470   -9.2720   22.5720 N   0  0  0  0  0 15  0  0  0  0  0  0
  -25.8900   -8.9650   21.6730 C   0  0  0  0  0  0  0  0  0  0  0  0
  -25.4270   -8.7740   22.9810 C   0  0  0  0  0  3  0  0  0  0  0  0
  -24.3370   -7.9250   23.1590 C   0  0  0  0  0  3  0  0  0  0  0  0
  -23.7170   -7.3760   22.0070 C   0  0  0  0  0  0  0  0  0  0  0  0
  -24.2950   -7.4810   20.7490 C   0  0  0  0  0  3  0  0  0  0  0  0
  -25.4960   -8.1310   20.6400 C   0  0  0  0  0  3  0  0  0  0  0  0
  -22.5900   -6.6330   21.9990 O   0  0  0  0  0  0  0  0  0  0  0  0
  -21.8850   -6.4750   23.1420 C   0  0  0  0  0  0  0  0  0  0  0  0
  -21.2230   -7.5570   23.7580 C   0  0  0  0  0  3  0  0  0  0  0  0
  -20.4360   -7.3180   24.8970 C   0  0  0  0  0  3  0  0  0  0  0  0
  -20.3100   -6.0070   25.3920 C   0  0  0  0  0  0  0  0  0  0  0  0
  -20.9820   -4.9360   24.7760 C   0  0  0  0  0  3  0  0  0  0  0  0
  -21.7750   -5.1720   23.6460 C   0  0  0  0  0  0  0  0  0  0  0  0
  -22.4170   -4.1500   23.0270 F   0  0  0  0  0  0  0  0  0  0  0  0
  -19.5260   -5.7730   26.4680 F   0  0  0  0  0  0  0  0  0  0  0  0
  -26.9580  -12.7590   19.5000 C   0  0  0  0  0  0  0  0  0  0  0  0
  -25.7280  -13.0680   19.1350 N   0  0  0  0  0  0  0  0  0  0  0  0
  -27.7570  -13.0610   18.6750 O   0  0  0  0  0  0  0  0  0  0  0  0
  -24.9740  -12.7940   19.7500 H   0  0  0  0  0  0  0  0  0  0  0  0
  -25.5390  -13.5600   18.2740 H   0  0  0  0  0  0  0  0  0  0  0  0
  -30.0110  -13.2940   20.8620 N   0  0  0  0  0  0  0  0  0  0  0  0
  -29.6980  -14.0460   20.2600 H   0  0  0  0  0  0  0  0  0  0  0  0
  -30.9780  -13.3800   21.1490 H   0  0  0  0  0  0  0  0  0  0  0  0
  1 51  1  0
  2  3  1  0
  3  1  1  0
  3  5  1  0
  4  2  2  0
  6  2  1  0
  7  6  1  0
  8  7  1  0
  9  8  2  0
 10  9  1  0
 10 12  1  0
 11 22  2  0
 12 17  1  0
 13 23  1  0
 13 21  1  0
 14 16  1  0
 15 21  1  0
 16 17  2  0
 16 15  1  0
 18 12  2  0
 19 18  1  0
 19 14  2  0
 20 14  1  0
 20 13  1  0
 21 11  1  0
 23 25  2  0
 24 23  1  0
 26 24  1  0
 27 32  1  0
 28 24  1  0
 29 28  1  0
 30 29  1  0
 31 30  1  0
 31 27  1  0
 32 28  1  0
 32 33  2  0
 34 33  1  0
 35 34  2  0
 36 27  2  0
 36 35  1  0
 37 11  1  0
 37 47  1  0
 37 38  1  0
 38 39  1  0
 38 41  1  0
 39 43  1  0
 40 39  2  0
 43 42  1  0
 43 45  1  0
 45 46  1  0
 45 44  1  0
 47 48  1  1
 47 50  1  0
 49 47  1  0
 52 51  1  0
 53 52  1  0
 54 53  1  0
 55 57  1  0
 55 54  1  0
 57 56  1  0
 59 57  1  0
 60 56  2  0
 60 69  1  0
 61 68  2  0
 61 67  1  0
 63 64  1  0
 63 62  1  0
 64 65  1  0
 65 66  1  0
 67 62  1  0
 67 66  1  0
 69 61  1  0
 70 69  1  0
 71 96  1  0
 71 58  1  0
 72 91  1  0
 72 71  1  0
 72 58  1  0
 73 76  1  0
 74 65  2  0
 76 77  1  0
 77 78  2  0
 79 78  1  0
 80 79  2  0
 81 80  1  0
 81 76  2  0
 82 79  1  0
 82 83  1  0
 83 88  2  0
 83 84  1  0
 84 85  2  0
 85 86  1  0
 86 90  1  0
 87 86  2  0
 88 87  1  0
 89 88  1  0
 92 91  1  0
 92 94  1  0
 93 91  2  0
 95 92  1  0
 96 98  1  0
 97 96  1  0
M  ISO  4   9 101  10 101  61 100  69 100
M  END
>  <TORSDO>  (7) 
F 28

>  <SCORE>  (7) 
1.083

>  <name>  (7) 
8

>  <ligand_id>  (7) 
8

>  <original_smiles>  (7) 
[H]c1c([H])c([H])c2c(c1[H])C([H])([H])C([H])([H])C([H])([H])C2([H])N([H])C(=O)C1([H])N(C(=O)C([H])(N([H])C(=O)C([H])(N([H])C([H])([H])[H])C([H])([H])[H])C(C([H])([H])[H])(C([H])([H])[H])C([H])([H])[H])C([H])([H])c2c([H])c(OC([H])([H])C([H])([H])OC([H])([H])C(=O)N([H])C([H])([H])C([H])([H])C([H])([H])C([H])([H])C([H])([H])C([H])([H])N([H])C(=O)C([H])([H])N([H])C(=O)N3C([H])([H])C([H])([H])C([H])([H])C([H])(n4nc(-c5c([H])c([H])c(Oc6c([H])c([H])c(F)c([H])c6F)c([H])c5[H])c(C(=O)N([H])[H])c4N([H])[H])C3([H])[H])c([H])c([H])c2C1([H])[H]

>  <smiles>  (7) 
[H]c1c([H])c([H])c2c(c1[H])C([H])([H])C([H])([H])C([H])([H])C2([H])N([H])C(=O)C1([H])N(C(=O)C([H])(N([H])C(=O)C([H])(N([H])C([H])([H])[H])C([H])([H])[H])C(C([H])([H])[H])(C([H])([H])[H])C([H])([H])[H])C([H])([H])c2c([H])c(OC([H])([H])C([H])([H])OC([H])([H])C(=O)N([H])C([H])([H])C([H])([H])C([H])([H])C([H])([H])C([H])([H])C([H])([H])N([H])C(=O)C([H])([H])N([H])C(=O)N3C([H])([H])C([H])([H])C([H])([H])C([H])(n4nc(-c5c([H])c([H])c(Oc6c([H])c([H])c(F)c([H])c6F)c([H])c5[H])c(C(=O)N([H])[H])c4N([H])[H])C3([H])[H])c([H])c([H])c2C1([H])[H]

$$$$
9:0:0
     RDKit          3D

101108  0  0  1  0  0  0  0  0999 V2000
  -22.2020  -20.4560   23.8030 C   0  0  0  0  0  0  0  0  0  0  0  0
  -21.9050  -20.7930   22.5410 N   0  0  0  0  0  0  0  0  0  0  0  0
  -21.8730  -19.3540   24.2440 O   0  0  0  0  0  0  0  0  0  0  0  0
  -21.3810  -20.1070   22.0140 H   0  0  0  0  0  0  0  0  0  0  0  0
  -22.2340  -22.0330   21.8300 C   0  0  0  0  0  2  0  0  0  0  0  0
  -23.1940  -21.7840   20.6500 C   0  0  0  0  0  2  0  0  0  0  0  0
  -23.5790  -23.0440   19.8500 C   0  0  0  0  0  2  0  0  0  0  0  0
  -25.0880  -23.3100   19.7890 C   0  0  0  0  0  2  0  0  0  0  0  0
  -25.4620  -24.2860   18.6580 C   0  0  0  0  0  2  0  0  0  0  0  0
  -27.2080  -26.0300   18.2610 C   0  0  0  0  0  0  0  0  0  0  0  0
  -26.4420  -25.2600   19.1270 N   0  0  0  0  0  0  0  0  0  0  0  0
  -27.5890  -25.6760   17.1450 O   0  0  0  0  0  0  0  0  0  0  0  0
  -26.3370  -25.6470   20.0590 H   0  0  0  0  0  0  0  0  0  0  0  0
  -27.5080  -27.2570   18.7860 O   0  0  0  0  0  0  0  0  0  0  0  0
  -25.6180  -31.2140   24.4050 C   0  0  0  0  0  0  0  0  0  0  0  0
  -26.5680  -28.1210   19.3270 C   0  0  0  0  0  0  0  0  0  0  0  0
  -23.8840  -30.9070   22.6650 C   0  0  0  0  0  3  0  0  0  0  0  0
  -24.6890  -29.9030   20.4710 C   0  0  0  0  0  0  0  0  0  0  0  0
  -26.3750  -30.8140   22.0740 C   0  0  0  0  0  2  0  0  0  0  0  0
  -26.0100  -29.8710   20.9470 C   0  0  0  0  0  0  0  0  0  0  0  0
  -26.9460  -28.9790   20.3880 C   0  0  0  0  0  3  0  0  0  0  0  0
  -25.2430  -28.2270   18.8220 C   0  0  0  0  0  3  0  0  0  0  0  0
  -24.3010  -29.0790   19.4130 C   0  0  0  0  0  3  0  0  0  0  0  0
  -23.7250  -30.8540   21.1270 C   0  0  0  0  0  2  0  0  0  0  0  0
  -25.3180  -30.9680   23.1000 N   0  0  0  0  0  0  0  0  0  0  0  0
  -24.7270  -31.4310   25.2360 O   0  0  0  0  0  0  0  0  0  0  0  0
  -23.1110  -29.7160   23.2770 C   0  0  0  0  0  0  0  0  0  0  0  0
  -21.7840  -29.6970   23.0690 N   0  0  0  0  0  0  0  0  0  0  0  0
  -23.7000  -28.8250   23.8990 O   0  0  0  0  0  0  0  0  0  0  0  0
  -21.3770  -30.4520   22.5330 H   0  0  0  0  0  0  0  0  0  0  0  0
  -18.3810  -28.5110   22.7960 C   0  0  0  0  0  0  0  0  0  0  0  0
  -20.8560  -28.6600   23.5250 C   0  0  0  0  0  3  0  0  0  0  0  0
  -21.0630  -27.3430   22.7340 C   0  0  0  0  0  2  0  0  0  0  0  0
  -20.1430  -27.2240   21.5130 C   0  0  0  0  0  2  0  0  0  0  0  0
  -18.6750  -27.2940   21.9370 C   0  0  0  0  0  2  0  0  0  0  0  0
  -19.4070  -29.1590   23.5300 C   0  0  0  0  0  0  0  0  0  0  0  0
  -19.0850  -30.3100   24.2800 C   0  0  0  0  0  3  0  0  0  0  0  0
  -17.7680  -30.8050   24.3160 C   0  0  0  0  0  3  0  0  0  0  0  0
  -16.7520  -30.1440   23.6050 C   0  0  0  0  0  3  0  0  0  0  0  0
  -17.0590  -29.0010   22.8440 C   0  0  0  0  0  3  0  0  0  0  0  0
  -27.0900  -31.2550   24.9130 C   0  0  0  0  0  3  0  0  0  0  0  0
  -27.4700  -30.0250   25.8220 C   0  0  1  0  0  0  0  0  0  0  0  0
  -26.4610  -29.7830   26.9670 C   0  0  0  0  0  1  0  0  0  0  0  0
  -27.5510  -28.7240   24.9940 C   0  0  0  0  0  1  0  0  0  0  0  0
  -28.8760  -30.2420   26.4220 C   0  0  0  0  0  1  0  0  0  0  0  0
  -27.2640  -32.5210   25.6370 N   0  0  0  0  0  0  0  0  0  0  0  0
  -27.8410  -33.6150   25.1240 C   0  0  0  0  0  0  0  0  0  0  0  0
  -28.3480  -33.6390   23.9980 O   0  0  0  0  0  0  0  0  0  0  0  0
  -26.8030  -32.5980   26.5320 H   0  0  0  0  0  0  0  0  0  0  0  0
  -26.7430  -35.8330   25.5540 C   0  0  0  0  0  1  0  0  0  0  0  0
  -27.8680  -34.8840   25.9980 C   0  0  0  0  0  3  0  0  0  0  0  0
  -30.2420  -34.8610   26.6300 C   0  0  0  0  0  1  0  0  0  0  0  0
  -29.1670  -35.5920   25.9610 N   0  0  0  0  0  0  0  0  0  0  0  0
  -29.0950  -36.5120   26.3860 H   0  0  0  0  0  0  0  0  0  0  0  0
  -22.9830  -21.4120   24.7160 C   0  0  0  0  0  2  0  0  0  0  0  0
  -23.9170  -20.6300   25.4360 O   0  0  0  0  0  0  0  0  0  0  0  0
  -24.7300  -21.3730   26.3200 C   0  0  0  0  0  2  0  0  0  0  0  0
  -25.7090  -20.3630   26.9060 C   0  0  0  0  0  2  0  0  0  0  0  0
  -26.9870  -20.2960   26.0620 C   0  0  0  0  0  2  0  0  0  0  0  0
  -27.7140  -21.4930   26.3490 O   0  0  0  0  0  0  0  0  0  0  0  0
  -29.1290  -21.3860   26.2760 C   0  0  0  0  0  2  0  0  0  0  0  0
  -29.6110  -21.6150   24.8390 C   0  0  0  0  0  2  0  0  0  0  0  0
  -31.0700  -21.1690   24.6140 C   0  0  0  0  0  2  0  0  0  0  0  0
  -32.1300  -19.7440   22.8650 C   0  0  0  0  0  0  0  0  0  0  0  0
  -32.7490  -18.4680   20.8510 C   0  0  0  0  0  2  0  0  0  0  0  0
  -32.0620  -19.0570   19.6040 C   0  0  0  0  0  2  0  0  0  0  0  0
  -30.6420  -18.4900   19.4160 C   0  0  0  0  0  2  0  0  0  0  0  0
  -29.8020  -18.5310   20.7210 C   0  0  0  0  0  3  0  0  0  0  0  0
  -30.6200  -17.9590   21.9040 C   0  0  0  0  0  2  0  0  0  0  0  0
  -31.8780  -18.7230   22.0030 N   0  0  0  0  0  0  0  0  0  0  0  0
  -33.1640  -20.4130   22.8500 O   0  0  0  0  0  0  0  0  0  0  0  0
  -31.1230  -20.0340   23.6960 N   0  0  0  0  0  0  0  0  0  0  0  0
  -30.3050  -19.4460   23.6290 H   0  0  0  0  0  0  0  0  0  0  0  0
  -27.2800  -18.3540   20.2300 C   0  0  0  0  0  0  0  0  0  0  0  0
  -26.4370  -17.2740   20.1420 C   0  0  0  0  0  0  0  0  0  0  0  0
  -27.2410  -16.1240   20.4140 C   0  0  0  0  0  0  0  0  0  0  0  0
  -28.5250  -17.8360   20.5550 N   0  0  0  0  0  0  0  0  0  0  0  0
  -28.4830  -16.4870   20.7100 N   0  0  0  0  0  0  0  0  0  0  0  0
  -26.9140  -14.6970   20.3480 C   0  0  0  0  0  0  0  0  0  0  0  0
  -27.0320  -13.8590   21.4790 C   0  0  0  0  0  3  0  0  0  0  0  0
  -26.7010  -12.4900   21.3930 C   0  0  0  0  0  3  0  0  0  0  0  0
  -26.2390  -11.9440   20.1710 C   0  0  0  0  0  0  0  0  0  0  0  0
  -26.1510  -12.7750   19.0390 C   0  0  0  0  0  3  0  0  0  0  0  0
  -26.4880  -14.1370   19.1260 C   0  0  0  0  0  3  0  0  0  0  0  0
  -25.9160  -10.6200   19.9890 O   0  0  0  0  0  0  0  0  0  0  0  0
  -25.2540   -9.9060   20.9520 C   0  0  0  0  0  0  0  0  0  0  0  0
  -23.9920  -10.3090   21.4470 C   0  0  0  0  0  3  0  0  0  0  0  0
  -23.3170   -9.5020   22.3890 C   0  0  0  0  0  3  0  0  0  0  0  0
  -23.8950   -8.2950   22.8250 C   0  0  0  0  0  0  0  0  0  0  0  0
  -25.1450   -7.8900   22.3270 C   0  0  0  0  0  3  0  0  0  0  0  0
  -25.8210   -8.6920   21.3910 C   0  0  0  0  0  0  0  0  0  0  0  0
  -27.0170   -8.2870   20.9000 F   0  0  0  0  0  0  0  0  0  0  0  0
  -23.2390   -7.5180   23.7200 F   0  0  0  0  0  0  0  0  0  0  0  0
  -24.9920  -17.2960   19.7320 C   0  0  0  0  0  0  0  0  0  0  0  0
  -24.1980  -16.3570   20.2400 N   0  0  0  0  0  0  0  0  0  0  0  0
  -24.5480  -18.1720   18.9920 O   0  0  0  0  0  0  0  0  0  0  0  0
  -24.5550  -15.6480   20.8620 H   0  0  0  0  0  0  0  0  0  0  0  0
  -23.2160  -16.3420   20.0020 H   0  0  0  0  0  0  0  0  0  0  0  0
  -27.0960  -19.7200   20.0410 N   0  0  0  0  0  0  0  0  0  0  0  0
  -26.2180  -20.0940   19.6850 H   0  0  0  0  0  0  0  0  0  0  0  0
  -27.8430  -20.4050   20.0360 H   0  0  0  0  0  0  0  0  0  0  0  0
  1  3  2  0
  1 55  1  0
  2  1  1  0
  4  2  1  0
  5  2  1  0
  6  5  1  0
  7  6  1  0
  8  7  1  0
  9 11  1  0
  9  8  1  0
 10 14  1  0
 10 11  1  0
 11 13  1  0
 12 10  2  0
 14 16  1  0
 15 26  2  0
 16 21  1  0
 17 25  1  0
 17 27  1  0
 18 20  1  0
 18 24  1  0
 19 25  1  0
 20 19  1  0
 21 20  2  0
 22 16  2  0
 22 23  1  0
 23 18  2  0
 24 17  1  0
 25 15  1  0
 27 29  2  0
 28 27  1  0
 30 28  1  0
 31 40  2  0
 31 36  1  0
 32 28  1  0
 32 36  1  0
 33 32  1  0
 34 35  1  0
 34 33  1  0
 35 31  1  0
 36 37  2  0
 37 38  1  0
 39 38  2  0
 40 39  1  0
 41 15  1  0
 41 46  1  0
 41 42  1  0
 42 45  1  1
 42 43  1  0
 44 42  1  0
 46 49  1  0
 47 46  1  0
 47 51  1  0
 48 47  2  0
 51 50  1  0
 53 51  1  0
 53 54  1  0
 53 52  1  0
 55 56  1  0
 56 57  1  0
 57 58  1  0
 59 60  1  0
 59 58  1  0
 61 60  1  0
 62 61  1  0
 63 62  1  0
 64 72  1  0
 65 70  1  0
 66 65  1  0
 67 66  1  0
 68 67  1  0
 68 69  1  0
 69 70  1  0
 70 64  1  0
 71 64  2  0
 72 63  1  0
 73 72  1  0
 74 77  1  0
 75 74  2  0
 75 76  1  0
 76 78  2  0
 77 78  1  0
 77 68  1  0
 79 76  1  0
 79 80  1  0
 81 80  2  0
 82 81  1  0
 83 84  1  0
 83 82  2  0
 84 79  2  0
 85 82  1  0
 85 86  1  0
 86 91  2  0
 86 87  1  0
 87 88  2  0
 88 89  1  0
 89 93  1  0
 90 89  2  0
 91 90  1  0
 92 91  1  0
 94 75  1  0
 94 95  1  0
 95 97  1  0
 96 94  2  0
 98 95  1  0
 99 74  1  0
100 99  1  0
101 99  1  0
M  ISO  4  10 101  14 101  64 100  72 100
M  END
>  <TORSDO>  (8) 
F 31

>  <SCORE>  (8) 
39.386

>  <name>  (8) 
9

>  <ligand_id>  (8) 
9

>  <original_smiles>  (8) 
[H]c1c([H])c([H])c2c(c1[H])C([H])([H])C([H])([H])C([H])([H])C2([H])N([H])C(=O)C1([H])N(C(=O)C([H])(N([H])C(=O)C([H])(N([H])C([H])([H])[H])C([H])([H])[H])C(C([H])([H])[H])(C([H])([H])[H])C([H])([H])[H])C([H])([H])c2c([H])c(OC(=O)N([H])C([H])([H])C([H])([H])C([H])([H])C([H])([H])C([H])([H])N([H])C(=O)C([H])([H])OC([H])([H])C([H])([H])C([H])([H])OC([H])([H])C([H])([H])C([H])([H])N([H])C(=O)N3C([H])([H])C([H])([H])C([H])([H])C([H])(n4nc(-c5c([H])c([H])c(Oc6c([H])c([H])c(F)c([H])c6F)c([H])c5[H])c(C(=O)N([H])[H])c4N([H])[H])C3([H])[H])c([H])c([H])c2C1([H])[H]

>  <smiles>  (8) 
[H]c1c([H])c([H])c2c(c1[H])C([H])([H])C([H])([H])C([H])([H])C2([H])N([H])C(=O)C1([H])N(C(=O)C([H])(N([H])C(=O)C([H])(N([H])C([H])([H])[H])C([H])([H])[H])C(C([H])([H])[H])(C([H])([H])[H])C([H])([H])[H])C([H])([H])c2c([H])c(OC(=O)N([H])C([H])([H])C([H])([H])C([H])([H])C([H])([H])C([H])([H])N([H])C(=O)C([H])([H])OC([H])([H])C([H])([H])C([H])([H])OC([H])([H])C([H])([H])C([H])([H])N([H])C(=O)N3C([H])([H])C([H])([H])C([H])([H])C([H])(n4nc(-c5c([H])c([H])c(Oc6c([H])c([H])c(F)c([H])c6F)c([H])c5[H])c(C(=O)N([H])[H])c4N([H])[H])C3([H])[H])c([H])c([H])c2C1([H])[H]

$$$$
10:0:0
     RDKit          3D

 93100  0  0  1  0  0  0  0  0999 V2000
  -27.3650  -22.7200   20.8430 C   0  0  0  0  0  0  0  0  0  0  0  0
  -27.4500  -21.5570   20.1880 N   0  0  0  0  0  0  0  0  0  0  0  0
  -27.5980  -22.8210   22.0510 O   0  0  0  0  0  0  0  0  0  0  0  0
  -27.1960  -21.5580   19.2080 H   0  0  0  0  0  0  0  0  0  0  0  0
  -28.0200  -20.3220   20.7230 C   0  0  0  0  0  2  0  0  0  0  0  0
  -29.5350  -20.4590   20.9700 C   0  0  0  0  0  2  0  0  0  0  0  0
  -30.2720  -21.1460   19.8060 C   0  0  0  0  0  2  0  0  0  0  0  0
  -31.6170  -21.7690   20.2080 C   0  0  0  0  0  2  0  0  0  0  0  0
  -32.6600  -21.5400   19.1080 C   0  0  0  0  0  2  0  0  0  0  0  0
  -34.1160  -21.7120   19.5570 C   0  0  0  0  0  2  0  0  0  0  0  0
  -35.9650  -20.1000   19.1610 C   0  0  0  0  0  0  0  0  0  0  0  0
  -36.5430  -17.7280   19.4170 C   0  0  0  0  0  2  0  0  0  0  0  0
  -35.9930  -16.9410   18.2130 C   0  0  0  0  0  2  0  0  0  0  0  0
  -34.5400  -16.4920   18.4680 C   0  0  0  0  0  2  0  0  0  0  0  0
  -33.6370  -17.6490   18.9750 C   0  0  0  0  0  3  0  0  0  0  0  0
  -34.3270  -18.4230   20.1210 C   0  0  0  0  0  2  0  0  0  0  0  0
  -35.6460  -18.8700   19.6430 N   0  0  0  0  0  0  0  0  0  0  0  0
  -37.0950  -20.4080   18.7860 O   0  0  0  0  0  0  0  0  0  0  0  0
  -34.9490  -20.8500   18.7300 N   0  0  0  0  0  0  0  0  0  0  0  0
  -35.2410  -21.3460   17.9010 H   0  0  0  0  0  0  0  0  0  0  0  0
  -31.1960  -17.8780   19.7640 C   0  0  0  0  0  0  0  0  0  0  0  0
  -30.2040  -16.9530   19.9480 C   0  0  0  0  0  0  0  0  0  0  0  0
  -30.7840  -15.6860   19.6360 C   0  0  0  0  0  0  0  0  0  0  0  0
  -32.3160  -17.1630   19.3690 N   0  0  0  0  0  0  0  0  0  0  0  0
  -32.0700  -15.8270   19.3430 N   0  0  0  0  0  0  0  0  0  0  0  0
  -30.1720  -14.3510   19.5420 C   0  0  0  0  0  0  0  0  0  0  0  0
  -30.3980  -13.3650   20.5280 C   0  0  0  0  0  3  0  0  0  0  0  0
  -29.7830  -12.0980   20.4250 C   0  0  0  0  0  3  0  0  0  0  0  0
  -28.9320  -11.8070   19.3300 C   0  0  0  0  0  0  0  0  0  0  0  0
  -28.7320  -12.7850   18.3410 C   0  0  0  0  0  3  0  0  0  0  0  0
  -29.3470  -14.0450   18.4420 C   0  0  0  0  0  3  0  0  0  0  0  0
  -28.3140  -10.5970   19.1330 O   0  0  0  0  0  0  0  0  0  0  0  0
  -27.6930   -9.9310   20.1600 C   0  0  0  0  0  0  0  0  0  0  0  0
  -26.5910  -10.4840   20.8500 C   0  0  0  0  0  3  0  0  0  0  0  0
  -25.9380   -9.7380   21.8490 C   0  0  0  0  0  3  0  0  0  0  0  0
  -26.3810   -8.4370   22.1580 C   0  0  0  0  0  0  0  0  0  0  0  0
  -27.4750   -7.8830   21.4720 C   0  0  0  0  0  3  0  0  0  0  0  0
  -28.1270   -8.6280   20.4730 C   0  0  0  0  0  0  0  0  0  0  0  0
  -29.1660   -8.0810   19.7980 F   0  0  0  0  0  0  0  0  0  0  0  0
  -25.7500   -7.7160   23.1150 F   0  0  0  0  0  0  0  0  0  0  0  0
  -28.7720  -17.2350   20.3000 C   0  0  0  0  0  0  0  0  0  0  0  0
  -28.1240  -16.3200   21.0140 N   0  0  0  0  0  0  0  0  0  0  0  0
  -28.2330  -18.2960   19.9880 O   0  0  0  0  0  0  0  0  0  0  0  0
  -28.5700  -15.4550   21.2830 H   0  0  0  0  0  0  0  0  0  0  0  0
  -27.1680  -16.4840   21.2920 H   0  0  0  0  0  0  0  0  0  0  0  0
  -31.2250  -19.2640   19.8800 N   0  0  0  0  0  0  0  0  0  0  0  0
  -30.4050  -19.7990   20.1400 H   0  0  0  0  0  0  0  0  0  0  0  0
  -32.0350  -19.8410   19.6980 H   0  0  0  0  0  0  0  0  0  0  0  0
  -27.0080  -23.9550   20.0070 C   0  0  0  0  0  2  0  0  0  0  0  0
  -27.5930  -25.1230   20.5740 O   0  0  0  0  0  0  0  0  0  0  0  0
  -28.0630  -26.0210   19.5800 C   0  0  0  0  0  2  0  0  0  0  0  0
  -28.7450  -27.2290   20.2460 C   0  0  0  0  0  2  0  0  0  0  0  0
  -28.4770  -28.4300   19.5310 O   0  0  0  0  0  0  0  0  0  0  0  0
  -24.8420  -32.1770   24.3630 C   0  0  0  0  0  0  0  0  0  0  0  0
  -27.2980  -29.0330   19.8780 C   0  0  0  0  0  0  0  0  0  0  0  0
  -23.5190  -31.2550   22.4860 C   0  0  0  0  0  3  0  0  0  0  0  0
  -24.8690  -30.2950   20.5470 C   0  0  0  0  0  0  0  0  0  0  0  0
  -25.9980  -31.8050   22.1900 C   0  0  0  0  0  2  0  0  0  0  0  0
  -26.0590  -30.6910   21.1700 C   0  0  0  0  0  0  0  0  0  0  0  0
  -27.2770  -30.0610   20.8420 C   0  0  0  0  0  3  0  0  0  0  0  0
  -26.0980  -28.6520   19.2440 C   0  0  0  0  0  3  0  0  0  0  0  0
  -24.8780  -29.2730   19.5830 C   0  0  0  0  0  3  0  0  0  0  0  0
  -23.6100  -31.0240   20.9530 C   0  0  0  0  0  2  0  0  0  0  0  0
  -24.8100  -31.7430   23.0720 N   0  0  0  0  0  0  0  0  0  0  0  0
  -23.8130  -32.2150   25.0500 O   0  0  0  0  0  0  0  0  0  0  0  0
  -22.9990  -29.9590   23.1460 C   0  0  0  0  0  0  0  0  0  0  0  0
  -21.7510  -29.5830   22.8200 N   0  0  0  0  0  0  0  0  0  0  0  0
  -23.7150  -29.3040   23.9070 O   0  0  0  0  0  0  0  0  0  0  0  0
  -21.2250  -30.1810   22.2000 H   0  0  0  0  0  0  0  0  0  0  0  0
  -18.7750  -27.5840   22.3950 C   0  0  0  0  0  0  0  0  0  0  0  0
  -21.0670  -28.3780   23.2860 C   0  0  0  0  0  3  0  0  0  0  0  0
  -21.6510  -27.1110   22.6230 C   0  0  0  0  0  2  0  0  0  0  0  0
  -20.9030  -26.6960   21.3520 C   0  0  0  0  0  2  0  0  0  0  0  0
  -19.4280  -26.4250   21.6610 C   0  0  0  0  0  2  0  0  0  0  0  0
  -19.5460  -28.5110   23.1450 C   0  0  0  0  0  0  0  0  0  0  0  0
  -18.8920  -29.5920   23.7760 C   0  0  0  0  0  3  0  0  0  0  0  0
  -17.4980  -29.7520   23.6720 C   0  0  0  0  0  3  0  0  0  0  0  0
  -16.7380  -28.8220   22.9410 C   0  0  0  0  0  3  0  0  0  0  0  0
  -17.3760  -27.7400   22.3080 C   0  0  0  0  0  3  0  0  0  0  0  0
  -26.1660  -32.6660   25.0300 C   0  0  0  0  0  3  0  0  0  0  0  0
  -26.5840  -31.8070   26.2840 C   0  0  1  0  0  0  0  0  0  0  0  0
  -25.4320  -31.5730   27.2870 C   0  0  0  0  0  1  0  0  0  0  0  0
  -27.1150  -30.4230   25.8450 C   0  0  0  0  0  1  0  0  0  0  0  0
  -27.7400  -32.5060   27.0360 C   0  0  0  0  0  1  0  0  0  0  0  0
  -25.9800  -34.0750   25.3980 N   0  0  0  0  0  0  0  0  0  0  0  0
  -26.4250  -35.1130   24.6790 C   0  0  0  0  0  0  0  0  0  0  0  0
  -27.1060  -34.9790   23.6590 O   0  0  0  0  0  0  0  0  0  0  0  0
  -25.3850  -34.2610   26.1930 H   0  0  0  0  0  0  0  0  0  0  0  0
  -24.8720  -37.0620   24.3480 C   0  0  0  0  0  1  0  0  0  0  0  0
  -26.0540  -36.5250   25.1700 C   0  0  0  0  0  3  0  0  0  0  0  0
  -28.2380  -37.1930   26.0750 C   0  0  0  0  0  1  0  0  0  0  0  0
  -27.1800  -37.4830   25.1090 N   0  0  0  0  0  0  0  0  0  0  0  0
  -26.8550  -38.4330   25.2700 H   0  0  0  0  0  0  0  0  0  0  0  0
  1  3  2  0
  2  5  1  0
  2  1  1  0
  4  2  1  0
  5  6  1  0
  7  8  1  0
  7  6  1  0
  9 10  1  0
  9  8  1  0
 11 17  1  0
 12 17  1  0
 13 14  1  0
 13 12  1  0
 15 14  1  0
 15 24  1  0
 15 16  1  0
 17 16  1  0
 18 11  2  0
 19 11  1  0
 19 10  1  0
 20 19  1  0
 21 46  1  0
 21 22  2  0
 22 41  1  0
 23 22  1  0
 24 21  1  0
 25 24  1  0
 25 23  2  0
 26 23  1  0
 26 27  1  0
 28 27  2  0
 29 28  1  0
 30 31  1  0
 30 29  2  0
 31 26  2  0
 32 29  1  0
 32 33  1  0
 33 38  2  0
 33 34  1  0
 34 35  2  0
 35 36  1  0
 36 40  1  0
 37 36  2  0
 38 37  1  0
 39 38  1  0
 41 42  1  0
 42 44  1  0
 42 45  1  0
 43 41  2  0
 46 47  1  0
 48 46  1  0
 49 50  1  0
 49  1  1  0
 51 52  1  0
 51 50  1  0
 53 55  1  0
 53 52  1  0
 54 65  2  0
 55 60  1  0
 56 64  1  0
 56 66  1  0
 57 63  1  0
 57 59  1  0
 58 64  1  0
 59 58  1  0
 60 59  2  0
 61 62  1  0
 61 55  2  0
 62 57  2  0
 63 56  1  0
 64 54  1  0
 66 68  2  0
 67 66  1  0
 69 67  1  0
 70 75  1  0
 71 67  1  0
 72 71  1  0
 73 74  1  0
 73 72  1  0
 74 70  1  0
 75 71  1  0
 75 76  2  0
 77 76  1  0
 78 77  2  0
 79 70  2  0
 79 78  1  0
 80 54  1  0
 80 85  1  0
 80 81  1  0
 81 84  1  1
 81 82  1  0
 83 81  1  0
 85 88  1  0
 86 90  1  0
 86 85  1  0
 87 86  2  0
 90 89  1  0
 92 90  1  0
 92 93  1  0
 92 91  1  0
M  ISO  4  11 100  19 100  52 101  53 101
M  END
>  <TORSDO>  (9) 
F 26

>  <SCORE>  (9) 
-3.904

>  <name>  (9) 
10

>  <ligand_id>  (9) 
10

>  <original_smiles>  (9) 
[H]c1c([H])c([H])c2c(c1[H])C([H])([H])C([H])([H])C([H])([H])C2([H])N([H])C(=O)C1([H])N(C(=O)C([H])(N([H])C(=O)C([H])(N([H])C([H])([H])[H])C([H])([H])[H])C(C([H])([H])[H])(C([H])([H])[H])C([H])([H])[H])C([H])([H])c2c([H])c(OC([H])([H])C([H])([H])OC([H])([H])C(=O)N([H])C([H])([H])C([H])([H])C([H])([H])C([H])([H])C([H])([H])C([H])([H])N([H])C(=O)N3C([H])([H])C([H])([H])C([H])([H])C([H])(n4nc(-c5c([H])c([H])c(Oc6c([H])c([H])c(F)c([H])c6F)c([H])c5[H])c(C(=O)N([H])[H])c4N([H])[H])C3([H])[H])c([H])c([H])c2C1([H])[H]

>  <smiles>  (9) 
[H]c1c([H])c([H])c2c(c1[H])C([H])([H])C([H])([H])C([H])([H])C2([H])N([H])C(=O)C1([H])N(C(=O)C([H])(N([H])C(=O)C([H])(N([H])C([H])([H])[H])C([H])([H])[H])C(C([H])([H])[H])(C([H])([H])[H])C([H])([H])[H])C([H])([H])c2c([H])c(OC([H])([H])C([H])([H])OC([H])([H])C(=O)N([H])C([H])([H])C([H])([H])C([H])([H])C([H])([H])C([H])([H])C([H])([H])N([H])C(=O)N3C([H])([H])C([H])([H])C([H])([H])C([H])(n4nc(-c5c([H])c([H])c(Oc6c([H])c([H])c(F)c([H])c6F)c([H])c5[H])c(C(=O)N([H])[H])c4N([H])[H])C3([H])[H])c([H])c([H])c2C1([H])[H]

$$$$
11:0:0
     RDKit          3D

108116  0  0  1  0  0  0  0  0999 V2000
  -25.8590  -19.3450   20.4790 C   0  0  0  0  0  2  0  0  0  0  0  0
  -24.5160  -19.6400   19.7920 C   0  0  0  0  0  2  0  0  0  0  0  0
  -23.5950  -20.2100   20.7130 O   0  0  0  0  0  0  0  0  0  0  0  0
  -22.3220  -20.4770   20.1340 C   0  0  0  0  0  2  0  0  0  0  0  0
  -21.4470  -21.3350   21.0680 C   0  0  0  0  0  2  0  0  0  0  0  0
  -22.0830  -22.6880   21.4360 C   0  0  0  0  0  2  0  0  0  0  0  0
  -23.1170  -22.5900   22.5760 C   0  0  0  0  0  2  0  0  0  0  0  0
  -24.1060  -23.6100   22.5010 O   0  0  0  0  0  0  0  0  0  0  0  0
  -25.0870  -23.3700   21.4950 C   0  0  0  0  0  2  0  0  0  0  0  0
  -26.2890  -24.2830   21.7380 C   0  0  0  0  0  2  0  0  0  0  0  0
  -27.2480  -24.0760   20.7110 O   0  0  0  0  0  0  0  0  0  0  0  0
  -28.5590  -24.5310   21.0350 C   0  0  0  0  0  2  0  0  0  0  0  0
  -28.6770  -26.0520   21.2470 C   0  0  0  0  0  2  0  0  0  0  0  0
  -28.3970  -26.7540   20.0370 O   0  0  0  0  0  0  0  0  0  0  0  0
  -24.6090  -31.8720   23.2100 C   0  0  0  0  0  0  0  0  0  0  0  0
  -27.2360  -27.4770   20.0780 C   0  0  0  0  0  0  0  0  0  0  0  0
  -23.3900  -30.4980   21.5510 C   0  0  0  0  0  3  0  0  0  0  0  0
  -24.8400  -28.9610   20.1140 C   0  0  0  0  0  0  0  0  0  0  0  0
  -25.9140  -30.8450   21.3590 C   0  0  0  0  0  2  0  0  0  0  0  0
  -25.9940  -29.4790   20.7140 C   0  0  0  0  0  0  0  0  0  0  0  0
  -27.1930  -28.7390   20.7060 C   0  0  0  0  0  3  0  0  0  0  0  0
  -26.0760  -26.9630   19.4690 C   0  0  0  0  0  3  0  0  0  0  0  0
  -24.8720  -27.6980   19.4920 C   0  0  0  0  0  3  0  0  0  0  0  0
  -23.5990  -29.8230   20.1660 C   0  0  0  0  0  2  0  0  0  0  0  0
  -24.6550  -31.0870   22.0980 N   0  0  0  0  0  0  0  0  0  0  0  0
  -23.5310  -32.1450   23.7550 O   0  0  0  0  0  0  0  0  0  0  0  0
  -22.7370  -29.4700   22.5030 C   0  0  0  0  0  0  0  0  0  0  0  0
  -21.4120  -29.2980   22.3760 N   0  0  0  0  0  0  0  0  0  0  0  0
  -23.4200  -28.8290   23.3080 O   0  0  0  0  0  0  0  0  0  0  0  0
  -20.9270  -29.8580   21.6880 H   0  0  0  0  0  0  0  0  0  0  0  0
  -18.0270  -28.1360   22.8440 C   0  0  0  0  0  0  0  0  0  0  0  0
  -20.5860  -28.3600   23.1360 C   0  0  0  0  0  3  0  0  0  0  0  0
  -20.6720  -26.9340   22.5460 C   0  0  0  0  0  2  0  0  0  0  0  0
  -19.5800  -26.6520   21.5080 C   0  0  0  0  0  2  0  0  0  0  0  0
  -18.1950  -26.7980   22.1430 C   0  0  0  0  0  2  0  0  0  0  0  0
  -19.1510  -28.8780   23.2920 C   0  0  0  0  0  0  0  0  0  0  0  0
  -18.9470  -30.1370   23.8960 C   0  0  0  0  0  3  0  0  0  0  0  0
  -17.6490  -30.6530   24.0610 C   0  0  0  0  0  3  0  0  0  0  0  0
  -16.5370  -29.9070   23.6340 C   0  0  0  0  0  3  0  0  0  0  0  0
  -16.7250  -28.6500   23.0320 C   0  0  0  0  0  3  0  0  0  0  0  0
  -25.9030  -32.4820   23.8370 C   0  0  0  0  0  3  0  0  0  0  0  0
  -25.5890  -33.8610   24.2300 N   0  0  0  0  0  0  0  0  0  0  0  0
  -25.9030  -34.9470   23.5140 C   0  0  0  0  0  0  0  0  0  0  0  0
  -26.5610  -34.8940   22.4710 O   0  0  0  0  0  0  0  0  0  0  0  0
  -24.9990  -33.9760   25.0420 H   0  0  0  0  0  0  0  0  0  0  0  0
  -24.1490  -36.7340   23.2630 C   0  0  0  0  0  1  0  0  0  0  0  0
  -25.4100  -36.3100   24.0340 C   0  0  0  0  0  3  0  0  0  0  0  0
  -27.5580  -37.1810   24.8460 C   0  0  0  0  0  1  0  0  0  0  0  0
  -26.4270  -37.3800   23.9410 N   0  0  0  0  0  0  0  0  0  0  0  0
  -26.0180  -38.2890   24.1390 H   0  0  0  0  0  0  0  0  0  0  0  0
  -26.4490  -31.6560   25.0660 C   0  0  1  0  0  0  0  0  0  0  0  0
  -25.3790  -31.3640   26.1430 C   0  0  0  0  0  1  0  0  0  0  0  0
  -27.0290  -30.3010   24.6000 C   0  0  0  0  0  1  0  0  0  0  0  0
  -27.6040  -32.4280   25.7450 C   0  0  0  0  0  1  0  0  0  0  0  0
  -26.8670  -18.7130   19.5050 C   0  0  0  0  0  2  0  0  0  0  0  0
  -28.8160  -17.2120   19.8700 C   0  0  0  0  0  0  0  0  0  0  0  0
  -28.0980  -18.3000   20.1790 N   0  0  0  0  0  0  0  0  0  0  0  0
  -28.5050  -16.4840   18.9280 O   0  0  0  0  0  0  0  0  0  0  0  0
  -28.4220  -18.8650   20.9530 H   0  0  0  0  0  0  0  0  0  0  0  0
  -30.0590  -16.8560   20.7140 C   0  0  0  0  0  3  0  0  0  0  0  0
  -30.6900  -14.4490   20.5710 C   0  0  0  0  0  0  0  0  0  0  0  0
  -30.4270  -12.2910   19.4220 C   0  0  0  0  0  2  0  0  0  0  0  0
  -29.4960  -12.5030   18.2100 C   0  0  0  0  0  2  0  0  0  0  0  0
  -28.0170  -12.3590   18.6210 C   0  0  0  0  0  2  0  0  0  0  0  0
  -27.6650  -13.1890   19.8840 C   0  0  0  0  0  3  0  0  0  0  0  0
  -28.7060  -12.9580   21.0050 C   0  0  0  0  0  2  0  0  0  0  0  0
  -30.0420  -13.2620   20.4570 N   0  0  0  0  0  0  0  0  0  0  0  0
  -31.8040  -14.6630   20.0820 O   0  0  0  0  0  0  0  0  0  0  0  0
  -29.9490  -15.4400   21.0890 N   0  0  0  0  0  0  0  0  0  0  0  0
  -29.0490  -15.1540   21.4470 H   0  0  0  0  0  0  0  0  0  0  0  0
  -25.2610  -13.8110   20.5660 C   0  0  0  0  0  0  0  0  0  0  0  0
  -24.1850  -13.0440   20.9180 C   0  0  0  0  0  0  0  0  0  0  0  0
  -24.6370  -11.6890   20.8750 C   0  0  0  0  0  0  0  0  0  0  0  0
  -26.3030  -12.9250   20.3400 N   0  0  0  0  0  0  0  0  0  0  0  0
  -25.9290  -11.6430   20.5810 N   0  0  0  0  0  0  0  0  0  0  0  0
  -23.9030  -10.4290   21.0410 C   0  0  0  0  0  0  0  0  0  0  0  0
  -24.3590   -9.4200   21.9190 C   0  0  0  0  0  3  0  0  0  0  0  0
  -23.6270   -8.2240   22.0760 C   0  0  0  0  0  3  0  0  0  0  0  0
  -22.4260   -8.0270   21.3550 C   0  0  0  0  0  0  0  0  0  0  0  0
  -21.9890   -9.0240   20.4650 C   0  0  0  0  0  3  0  0  0  0  0  0
  -22.7210  -10.2130   20.3060 C   0  0  0  0  0  3  0  0  0  0  0  0
  -21.6630   -6.8860   21.4230 O   0  0  0  0  0  0  0  0  0  0  0  0
  -21.6840   -6.0720   22.5270 C   0  0  0  0  0  0  0  0  0  0  0  0
  -21.4010   -6.5630   23.8210 C   0  0  0  0  0  3  0  0  0  0  0  0
  -21.3670   -5.6790   24.9170 C   0  0  0  0  0  3  0  0  0  0  0  0
  -21.6050   -4.3050   24.7230 C   0  0  0  0  0  0  0  0  0  0  0  0
  -21.8820   -3.8140   23.4350 C   0  0  0  0  0  3  0  0  0  0  0  0
  -21.9190   -4.6950   22.3400 C   0  0  0  0  0  0  0  0  0  0  0  0
  -22.1660   -4.2130   21.0980 F   0  0  0  0  0  0  0  0  0  0  0  0
  -21.5640   -3.4540   25.7750 F   0  0  0  0  0  0  0  0  0  0  0  0
  -22.7870  -13.5250   21.1840 C   0  0  0  0  0  0  0  0  0  0  0  0
  -22.0510  -12.8260   22.0400 N   0  0  0  0  0  0  0  0  0  0  0  0
  -22.3560  -14.5560   20.6680 O   0  0  0  0  0  0  0  0  0  0  0  0
  -22.4110  -11.9910   22.4790 H   0  0  0  0  0  0  0  0  0  0  0  0
  -21.1130  -13.1280   22.2620 H   0  0  0  0  0  0  0  0  0  0  0  0
  -25.4400  -15.1830   20.3970 N   0  0  0  0  0  0  0  0  0  0  0  0
  -24.6650  -15.8320   20.4580 H   0  0  0  0  0  0  0  0  0  0  0  0
  -26.2810  -15.5950   20.0110 H   0  0  0  0  0  0  0  0  0  0  0  0
  -30.2740  -17.7570   21.9580 C   0  0  0  0  0  2  0  0  0  0  0  0
  -29.2130  -17.6480   23.0730 C   0  0  0  0  0  2  0  0  0  0  0  0
  -30.1320  -19.5080   24.5530 C   0  0  0  0  0  3  0  0  0  0  0  0
  -27.7760  -19.5460   23.9380 C   0  0  0  0  0  3  0  0  0  0  0  0
  -29.9410  -20.6700   25.3270 C   0  0  0  0  0  3  0  0  0  0  0  0
  -27.5850  -20.6960   24.7220 C   0  0  0  0  0  3  0  0  0  0  0  0
  -29.0430  -18.9330   23.8640 C   0  0  0  0  0  0  0  0  0  0  0  0
  -28.6680  -21.2650   25.4350 C   0  0  0  0  0  0  0  0  0  0  0  0
  -27.2330  -22.8210   26.5500 C   0  0  0  0  0  1  0  0  0  0  0  0
  -28.5500  -22.3720   26.2460 O   0  0  0  0  0  0  0  0  0  0  0  0
  2  1  1  0
  2  3  1  0
  4  3  1  0
  4  5  1  0
  5  6  1  0
  6  7  1  0
  8  7  1  0
  9 10  1  0
  9  8  1  0
 11 12  1  0
 11 10  1  0
 12 13  1  0
 14 16  1  0
 14 13  1  0
 15 26  2  0
 16 21  1  0
 17 25  1  0
 17 27  1  0
 18 24  1  0
 18 20  1  0
 19 25  1  0
 20 19  1  0
 21 20  2  0
 22 23  1  0
 22 16  2  0
 23 18  2  0
 24 17  1  0
 25 15  1  0
 27 29  2  0
 28 27  1  0
 30 28  1  0
 31 40  2  0
 31 36  1  0
 32 28  1  0
 32 36  1  0
 33 32  1  0
 34 35  1  0
 34 33  1  0
 35 31  1  0
 36 37  2  0
 37 38  1  0
 39 38  2  0
 40 39  1  0
 41 15  1  0
 41 42  1  0
 41 51  1  0
 42 45  1  0
 43 47  1  0
 43 42  1  0
 44 43  2  0
 47 46  1  0
 49 47  1  0
 49 50  1  0
 49 48  1  0
 51 54  1  1
 51 52  1  0
 53 51  1  0
 55 57  1  0
 55  1  1  0
 56 57  1  0
 56 60  1  0
 57 59  1  0
 58 56  2  0
 60 69  1  0
 60 99  1  0
 61 69  1  0
 62 67  1  0
 63 64  1  0
 63 62  1  0
 65 64  1  0
 65 74  1  0
 65 66  1  0
 67 61  1  0
 67 66  1  0
 68 61  2  0
 69 70  1  0
 71 72  2  0
 72 91  1  0
 73 72  1  0
 73 76  1  0
 74 71  1  0
 74 75  1  0
 75 73  2  0
 76 77  1  0
 77 78  2  0
 79 82  1  0
 79 78  1  0
 80 79  2  0
 81 80  1  0
 81 76  2  0
 82 83  1  0
 83 84  1  0
 84 85  2  0
 86 85  1  0
 86 90  1  0
 87 86  2  0
 88 83  2  0
 88 87  1  0
 89 88  1  0
 91 92  1  0
 92 95  1  0
 92 94  1  0
 93 91  2  0
 96 97  1  0
 96 71  1  0
 98 96  1  0
 99100  1  0
100105  1  0
101103  1  0
102104  2  0
103106  2  0
104106  1  0
105102  1  0
105101  2  0
106108  1  0
108107  1  0
M  ISO  4  13 101  14 101  61 100  69 100
M  END
>  <TORSDO>  (10) 
F 35

>  <SCORE>  (10) 
34.502

>  <name>  (10) 
11

>  <ligand_id>  (10) 
11

>  <original_smiles>  (10) 
[H]c1c([H])c([H])c2c(c1[H])C([H])([H])C([H])([H])C([H])([H])C2([H])N([H])C(=O)C1([H])N(C(=O)C([H])(N([H])C(=O)C([H])(N([H])C([H])([H])[H])C([H])([H])[H])C(C([H])([H])[H])(C([H])([H])[H])C([H])([H])[H])C([H])([H])c2c([H])c(OC([H])([H])C([H])([H])OC([H])([H])C([H])([H])OC([H])([H])C([H])([H])C([H])([H])C([H])([H])OC([H])([H])C([H])([H])C([H])([H])N([H])C(=O)C([H])(N([H])C(=O)N3C([H])([H])C([H])([H])C([H])([H])C([H])(n4nc(-c5c([H])c([H])c(Oc6c([H])c([H])c(F)c([H])c6F)c([H])c5[H])c(C(=O)N([H])[H])c4N([H])[H])C3([H])[H])C([H])([H])C([H])([H])c3c([H])c([H])c(OC([H])([H])[H])c([H])c3[H])c([H])c([H])c2C1([H])[H]

>  <smiles>  (10) 
[H]c1c([H])c([H])c2c(c1[H])C([H])([H])C([H])([H])C([H])([H])C2([H])N([H])C(=O)C1([H])N(C(=O)C([H])(N([H])C(=O)C([H])(N([H])C([H])([H])[H])C([H])([H])[H])C(C([H])([H])[H])(C([H])([H])[H])C([H])([H])[H])C([H])([H])c2c([H])c(OC([H])([H])C([H])([H])OC([H])([H])C([H])([H])OC([H])([H])C([H])([H])C([H])([H])C([H])([H])OC([H])([H])C([H])([H])C([H])([H])N([H])C(=O)C([H])(N([H])C(=O)N3C([H])([H])C([H])([H])C([H])([H])C([H])(n4nc(-c5c([H])c([H])c(Oc6c([H])c([H])c(F)c([H])c6F)c([H])c5[H])c(C(=O)N([H])[H])c4N([H])[H])C3([H])[H])C([H])([H])C([H])([H])c3c([H])c([H])c(OC([H])([H])[H])c([H])c3[H])c([H])c([H])c2C1([H])[H]

$$$$
12:0:0
     RDKit          3D

 91 98  0  0  1  0  0  0  0  0999 V2000
  -31.4660  -22.2740   20.4310 C   0  0  0  0  0  0  0  0  0  0  0  0
  -30.2450  -21.7710   20.1980 N   0  0  0  0  0  0  0  0  0  0  0  0
  -32.4780  -21.5660   20.4270 O   0  0  0  0  0  0  0  0  0  0  0  0
  -29.4890  -22.4460   20.2070 H   0  0  0  0  0  0  0  0  0  0  0  0
  -31.6100  -23.7870   20.6640 C   0  0  0  0  0  2  0  0  0  0  0  0
  -30.3460  -24.4480   20.8220 O   0  0  0  0  0  0  0  0  0  0  0  0
  -30.5350  -25.8670   20.8490 C   0  0  0  0  0  2  0  0  0  0  0  0
  -29.2690  -26.6740   21.1880 C   0  0  0  0  0  2  0  0  0  0  0  0
  -28.3820  -26.6860   20.0710 O   0  0  0  0  0  0  0  0  0  0  0  0
  -24.5830  -31.8670   23.2510 C   0  0  0  0  0  0  0  0  0  0  0  0
  -27.2410  -27.4530   20.1590 C   0  0  0  0  0  0  0  0  0  0  0  0
  -23.3740  -30.4660   21.6050 C   0  0  0  0  0  3  0  0  0  0  0  0
  -24.8290  -28.9320   20.1790 C   0  0  0  0  0  0  0  0  0  0  0  0
  -25.8920  -30.8380   21.3990 C   0  0  0  0  0  2  0  0  0  0  0  0
  -25.9810  -29.4620   20.7710 C   0  0  0  0  0  0  0  0  0  0  0  0
  -27.1880  -28.7300   20.7710 C   0  0  0  0  0  3  0  0  0  0  0  0
  -26.0750  -26.9380   19.5600 C   0  0  0  0  0  3  0  0  0  0  0  0
  -24.8660  -27.6630   19.5720 C   0  0  0  0  0  3  0  0  0  0  0  0
  -23.5860  -29.7910   20.2220 C   0  0  0  0  0  2  0  0  0  0  0  0
  -24.6340  -31.0700   22.1450 N   0  0  0  0  0  0  0  0  0  0  0  0
  -23.5030  -32.1350   23.7950 O   0  0  0  0  0  0  0  0  0  0  0  0
  -22.7270  -29.4420   22.5640 C   0  0  0  0  0  0  0  0  0  0  0  0
  -21.4030  -29.2590   22.4390 N   0  0  0  0  0  0  0  0  0  0  0  0
  -23.4140  -28.8150   23.3760 O   0  0  0  0  0  0  0  0  0  0  0  0
  -20.9130  -29.8150   21.7520 H   0  0  0  0  0  0  0  0  0  0  0  0
  -18.0300  -28.0690   22.9440 C   0  0  0  0  0  0  0  0  0  0  0  0
  -20.5890  -28.3210   23.2100 C   0  0  0  0  0  3  0  0  0  0  0  0
  -20.6870  -26.8910   22.6310 C   0  0  0  0  0  2  0  0  0  0  0  0
  -19.5820  -26.5730   21.6180 C   0  0  0  0  0  2  0  0  0  0  0  0
  -18.2020  -26.7200   22.2670 C   0  0  0  0  0  2  0  0  0  0  0  0
  -19.1500  -28.8270   23.3750 C   0  0  0  0  0  0  0  0  0  0  0  0
  -18.9370  -30.0890   23.9690 C   0  0  0  0  0  3  0  0  0  0  0  0
  -17.6330  -30.5930   24.1410 C   0  0  0  0  0  3  0  0  0  0  0  0
  -16.5260  -29.8310   23.7260 C   0  0  0  0  0  3  0  0  0  0  0  0
  -16.7260  -28.5710   23.1340 C   0  0  0  0  0  3  0  0  0  0  0  0
  -25.8710  -32.4950   23.8670 C   0  0  0  0  0  3  0  0  0  0  0  0
  -25.5650  -33.8930   24.1980 N   0  0  0  0  0  0  0  0  0  0  0  0
  -25.9010  -34.9440   23.4370 C   0  0  0  0  0  0  0  0  0  0  0  0
  -26.5710  -34.8380   22.4060 O   0  0  0  0  0  0  0  0  0  0  0  0
  -24.9660  -34.0500   24.9950 H   0  0  0  0  0  0  0  0  0  0  0  0
  -24.1780  -36.7390   23.0740 C   0  0  0  0  0  1  0  0  0  0  0  0
  -25.4160  -36.3340   23.8910 C   0  0  0  0  0  3  0  0  0  0  0  0
  -27.5510  -37.2090   24.7290 C   0  0  0  0  0  1  0  0  0  0  0  0
  -26.4530  -37.3840   23.7820 N   0  0  0  0  0  0  0  0  0  0  0  0
  -26.0500  -38.3050   23.9290 H   0  0  0  0  0  0  0  0  0  0  0  0
  -26.3960  -31.7200   25.1370 C   0  0  1  0  0  0  0  0  0  0  0  0
  -25.3100  -31.4770   26.2120 C   0  0  0  0  0  1  0  0  0  0  0  0
  -26.9740  -30.3440   24.7300 C   0  0  0  0  0  1  0  0  0  0  0  0
  -27.5500  -32.5100   25.7950 C   0  0  0  0  0  1  0  0  0  0  0  0
  -29.9460  -20.3950   19.7760 C   0  0  0  0  0  2  0  0  0  0  0  0
  -30.1550  -19.3390   20.8900 C   0  0  0  0  0  2  0  0  0  0  0  0
  -29.8330  -17.8870   20.4460 C   0  0  0  0  0  2  0  0  0  0  0  0
  -30.3400  -16.8250   21.4520 C   0  0  0  0  0  2  0  0  0  0  0  0
  -30.6320  -14.4900   20.5120 C   0  0  0  0  0  0  0  0  0  0  0  0
  -30.3600  -12.3430   19.3180 C   0  0  0  0  0  2  0  0  0  0  0  0
  -29.4140  -12.5610   18.1180 C   0  0  0  0  0  2  0  0  0  0  0  0
  -27.9360  -12.4310   18.5410 C   0  0  0  0  0  2  0  0  0  0  0  0
  -27.6000  -13.2370   19.8250 C   0  0  0  0  0  3  0  0  0  0  0  0
  -28.6570  -12.9800   20.9230 C   0  0  0  0  0  2  0  0  0  0  0  0
  -29.9790  -13.3070   20.3600 N   0  0  0  0  0  0  0  0  0  0  0  0
  -31.7450  -14.7140   20.0280 O   0  0  0  0  0  0  0  0  0  0  0  0
  -29.9230  -15.4510   21.1350 N   0  0  0  0  0  0  0  0  0  0  0  0
  -29.0100  -15.1720   21.4580 H   0  0  0  0  0  0  0  0  0  0  0  0
  -25.1980  -13.8280   20.5400 C   0  0  0  0  0  0  0  0  0  0  0  0
  -24.1360  -13.0480   20.9110 C   0  0  0  0  0  0  0  0  0  0  0  0
  -24.6050  -11.7000   20.8790 C   0  0  0  0  0  0  0  0  0  0  0  0
  -26.2500  -12.9540   20.3050 N   0  0  0  0  0  0  0  0  0  0  0  0
  -25.8960  -11.6690   20.5660 N   0  0  0  0  0  0  0  0  0  0  0  0
  -23.8890  -10.4330   21.0720 C   0  0  0  0  0  0  0  0  0  0  0  0
  -24.3410   -9.4610   21.9920 C   0  0  0  0  0  3  0  0  0  0  0  0
  -23.6250   -8.2580   22.1710 C   0  0  0  0  0  3  0  0  0  0  0  0
  -22.4430   -8.0200   21.4320 C   0  0  0  0  0  0  0  0  0  0  0  0
  -22.0110   -8.9800   20.5000 C   0  0  0  0  0  3  0  0  0  0  0  0
  -22.7280  -10.1720   20.3190 C   0  0  0  0  0  3  0  0  0  0  0  0
  -21.6960   -6.8700   21.5240 O   0  0  0  0  0  0  0  0  0  0  0  0
  -21.6820   -6.1080   22.6650 C   0  0  0  0  0  0  0  0  0  0  0  0
  -21.2910   -6.6420   23.9110 C   0  0  0  0  0  3  0  0  0  0  0  0
  -21.2200   -5.8050   25.0430 C   0  0  0  0  0  3  0  0  0  0  0  0
  -21.5360   -4.4380   24.9300 C   0  0  0  0  0  0  0  0  0  0  0  0
  -21.9220   -3.9050   23.6890 C   0  0  0  0  0  3  0  0  0  0  0  0
  -21.9930   -4.7370   22.5590 C   0  0  0  0  0  0  0  0  0  0  0  0
  -22.3440   -4.2120   21.3600 F   0  0  0  0  0  0  0  0  0  0  0  0
  -21.4620   -3.6360   26.0180 F   0  0  0  0  0  0  0  0  0  0  0  0
  -22.7350  -13.5160   21.1840 C   0  0  0  0  0  0  0  0  0  0  0  0
  -22.0080  -12.8190   22.0510 N   0  0  0  0  0  0  0  0  0  0  0  0
  -22.2900  -14.5380   20.6620 O   0  0  0  0  0  0  0  0  0  0  0  0
  -22.3760  -11.9950   22.5030 H   0  0  0  0  0  0  0  0  0  0  0  0
  -21.0690  -13.1170   22.2660 H   0  0  0  0  0  0  0  0  0  0  0  0
  -25.3510  -15.1990   20.3640 N   0  0  0  0  0  0  0  0  0  0  0  0
  -24.5800  -15.8470   20.4820 H   0  0  0  0  0  0  0  0  0  0  0  0
  -26.1960  -15.6460   20.0290 H   0  0  0  0  0  0  0  0  0  0  0  0
  1  5  1  0
  2  4  1  0
  2  1  1  0
  3  1  2  0
  5  6  1  0
  6  7  1  0
  7  8  1  0
  9 11  1  0
  9  8  1  0
 10 21  2  0
 11 16  1  0
 12 20  1  0
 12 22  1  0
 13 19  1  0
 13 15  1  0
 14 20  1  0
 15 16  2  0
 15 14  1  0
 17 18  1  0
 17 11  2  0
 18 13  2  0
 19 12  1  0
 20 10  1  0
 22 24  2  0
 23 22  1  0
 25 23  1  0
 26 35  2  0
 26 31  1  0
 27 23  1  0
 27 31  1  0
 28 27  1  0
 29 30  1  0
 29 28  1  0
 30 26  1  0
 31 32  2  0
 32 33  1  0
 34 33  2  0
 35 34  1  0
 36 10  1  0
 36 37  1  0
 36 46  1  0
 37 40  1  0
 38 42  1  0
 38 37  1  0
 39 38  2  0
 42 41  1  0
 44 42  1  0
 44 45  1  0
 44 43  1  0
 46 49  1  1
 46 47  1  0
 48 46  1  0
 50  2  1  0
 50 51  1  0
 52 51  1  0
 52 53  1  0
 54 62  1  0
 55 60  1  0
 56 57  1  0
 56 55  1  0
 58 57  1  0
 58 67  1  0
 58 59  1  0
 60 54  1  0
 60 59  1  0
 61 54  2  0
 62 53  1  0
 62 63  1  0
 64 65  2  0
 65 84  1  0
 66 65  1  0
 66 69  1  0
 67 64  1  0
 67 68  1  0
 68 66  2  0
 69 70  1  0
 70 71  2  0
 72 75  1  0
 72 71  1  0
 73 72  2  0
 74 73  1  0
 74 69  2  0
 75 76  1  0
 76 77  1  0
 77 78  2  0
 79 78  1  0
 79 83  1  0
 80 79  2  0
 81 76  2  0
 81 80  1  0
 82 81  1  0
 84 85  1  0
 85 88  1  0
 85 87  1  0
 86 84  2  0
 89 90  1  0
 89 64  1  0
 91 89  1  0
M  ISO  4   8 101   9 101  54 100  62 100
M  END
>  <TORSDO>  (11) 
F 24

>  <SCORE>  (11) 
-12.428

>  <name>  (11) 
12

>  <ligand_id>  (11) 
12

>  <original_smiles>  (11) 
[H]c1c([H])c([H])c2c(c1[H])C([H])([H])C([H])([H])C([H])([H])C2([H])N([H])C(=O)C1([H])N(C(=O)C([H])(N([H])C(=O)C([H])(N([H])C([H])([H])[H])C([H])([H])[H])C(C([H])([H])[H])(C([H])([H])[H])C([H])([H])[H])C([H])([H])c2c([H])c(OC([H])([H])C([H])([H])OC([H])([H])C(=O)N([H])C([H])([H])C([H])([H])C([H])([H])C([H])([H])N([H])C(=O)N3C([H])([H])C([H])([H])C([H])([H])C([H])(n4nc(-c5c([H])c([H])c(Oc6c([H])c([H])c(F)c([H])c6F)c([H])c5[H])c(C(=O)N([H])[H])c4N([H])[H])C3([H])[H])c([H])c([H])c2C1([H])[H]

>  <smiles>  (11) 
[H]c1c([H])c([H])c2c(c1[H])C([H])([H])C([H])([H])C([H])([H])C2([H])N([H])C(=O)C1([H])N(C(=O)C([H])(N([H])C(=O)C([H])(N([H])C([H])([H])[H])C([H])([H])[H])C(C([H])([H])[H])(C([H])([H])[H])C([H])([H])[H])C([H])([H])c2c([H])c(OC([H])([H])C([H])([H])OC([H])([H])C(=O)N([H])C([H])([H])C([H])([H])C([H])([H])C([H])([H])N([H])C(=O)N3C([H])([H])C([H])([H])C([H])([H])C([H])(n4nc(-c5c([H])c([H])c(Oc6c([H])c([H])c(F)c([H])c6F)c([H])c5[H])c(C(=O)N([H])[H])c4N([H])[H])C3([H])[H])c([H])c([H])c2C1([H])[H]

$$$$
13:0:0
     RDKit          3D

103109  0  0  1  0  0  0  0  0999 V2000
  -18.9610  -20.1260   23.4860 C   0  0  0  0  0  2  0  0  0  0  0  0
  -20.4410  -19.9230   23.8360 C   0  0  0  0  0  2  0  0  0  0  0  0
  -20.9130  -21.1600   24.6190 C   0  0  0  0  0  2  0  0  0  0  0  0
  -22.4700  -22.8130   23.6380 C   0  0  0  0  0  0  0  0  0  0  0  0
  -22.2390  -21.6450   24.2550 N   0  0  0  0  0  0  0  0  0  0  0  0
  -21.5920  -23.4190   23.0170 O   0  0  0  0  0  0  0  0  0  0  0  0
  -23.0260  -21.1990   24.7070 H   0  0  0  0  0  0  0  0  0  0  0  0
  -23.8550  -23.4480   23.8180 C   0  0  0  0  0  2  0  0  0  0  0  0
  -23.6640  -24.8080   24.2180 O   0  0  0  0  0  0  0  0  0  0  0  0
  -24.3320  -25.2000   25.4150 C   0  0  0  0  0  2  0  0  0  0  0  0
  -25.2050  -26.4390   25.1740 C   0  0  0  0  0  2  0  0  0  0  0  0
  -24.4930  -27.6830   25.2630 O   0  0  0  0  0  0  0  0  0  0  0  0
  -25.4340  -28.7510   25.2960 C   0  0  0  0  0  2  0  0  0  0  0  0
  -25.2220  -29.8930   26.3110 C   0  0  0  0  0  2  0  0  0  0  0  0
  -27.2290  -31.4130   25.9940 C   0  0  0  0  0  0  0  0  0  0  0  0
  -29.0950  -32.0110   24.4840 C   0  0  0  0  0  2  0  0  0  0  0  0
  -28.6350  -33.0970   23.4810 C   0  0  0  0  0  2  0  0  0  0  0  0
  -27.8690  -32.5040   22.2740 C   0  0  0  0  0  2  0  0  0  0  0  0
  -26.7880  -31.4790   22.7030 C   0  0  0  0  0  3  0  0  0  0  0  0
  -27.4630  -30.4730   23.6550 C   0  0  0  0  0  2  0  0  0  0  0  0
  -27.9220  -31.2020   24.8420 N   0  0  0  0  0  0  0  0  0  0  0  0
  -27.6740  -32.0960   26.9200 O   0  0  0  0  0  0  0  0  0  0  0  0
  -25.9110  -31.1470   25.9430 N   0  0  0  0  0  0  0  0  0  0  0  0
  -25.4270  -31.9150   26.3830 H   0  0  0  0  0  0  0  0  0  0  0  0
  -24.8300  -30.6320   21.2530 C   0  0  0  0  0  0  0  0  0  0  0  0
  -24.8040  -30.0160   20.0300 C   0  0  0  0  0  0  0  0  0  0  0  0
  -26.1690  -29.8640   19.6360 C   0  0  0  0  0  0  0  0  0  0  0  0
  -26.1730  -30.8170   21.5550 N   0  0  0  0  0  0  0  0  0  0  0  0
  -26.9770  -30.3040   20.5910 N   0  0  0  0  0  0  0  0  0  0  0  0
  -26.7540  -29.3780   18.3830 C   0  0  0  0  0  0  0  0  0  0  0  0
  -27.5820  -28.2340   18.3490 C   0  0  0  0  0  0  0  0  0  0  0  0
  -28.1210  -27.7770   17.1280 C   0  0  0  0  0  0  0  0  0  0  0  0
  -27.8300  -28.4610   15.9240 C   0  0  0  0  0  0  0  0  0  0  0  0
  -27.0260  -29.6150   15.9670 C   0  0  0  0  0  3  0  0  0  0  0  0
  -26.4960  -30.0720   17.1860 C   0  0  0  0  0  3  0  0  0  0  0  0
  -28.3300  -28.1060   14.6940 O   0  0  0  0  0  0  0  0  0  0  0  0
  -28.6200  -26.8000   14.3880 C   0  0  0  0  0  0  0  0  0  0  0  0
  -27.7920  -25.7340   14.8030 C   0  0  0  0  0  3  0  0  0  0  0  0
  -28.0910  -24.4150   14.4080 C   0  0  0  0  0  3  0  0  0  0  0  0
  -29.2090  -24.1610   13.5910 C   0  0  0  0  0  0  0  0  0  0  0  0
  -30.0310  -25.2210   13.1720 C   0  0  0  0  0  3  0  0  0  0  0  0
  -29.7360  -26.5380   13.5680 C   0  0  0  0  0  0  0  0  0  0  0  0
  -30.5190  -27.5590   13.1450 F   0  0  0  0  0  0  0  0  0  0  0  0
  -29.4940  -22.8960   13.2040 F   0  0  0  0  0  0  0  0  0  0  0  0
  -23.5840  -29.6770   19.2240 C   0  0  0  0  0  0  0  0  0  0  0  0
  -23.6380  -28.5900   18.4630 N   0  0  0  0  0  0  0  0  0  0  0  0
  -22.5620  -30.3560   19.2950 O   0  0  0  0  0  0  0  0  0  0  0  0
  -24.4770  -28.0300   18.4150 H   0  0  0  0  0  0  0  0  0  0  0  0
  -22.8330  -28.3210   17.9160 H   0  0  0  0  0  0  0  0  0  0  0  0
  -23.8250  -31.0600   22.1160 N   0  0  0  0  0  0  0  0  0  0  0  0
  -22.8450  -30.9370   21.8820 H   0  0  0  0  0  0  0  0  0  0  0  0
  -23.9680  -31.5220   23.0060 H   0  0  0  0  0  0  0  0  0  0  0  0
  -18.1370  -18.8910   23.0970 C   0  0  0  0  0  2  0  0  0  0  0  0
  -17.0590  -19.2110   22.0310 C   0  0  0  0  0  2  0  0  0  0  0  0
  -17.4180  -21.6950   22.0020 C   0  0  0  0  0  0  0  0  0  0  0  0
  -16.6240  -20.6110   21.9670 N   0  0  0  0  0  0  0  0  0  0  0  0
  -18.5890  -21.6570   22.3840 O   0  0  0  0  0  0  0  0  0  0  0  0
  -15.6710  -20.7690   21.6600 H   0  0  0  0  0  0  0  0  0  0  0  0
  -16.8400  -23.0000   21.4360 C   0  0  0  0  0  2  0  0  0  0  0  0
  -17.8490  -24.0370   21.4720 O   0  0  0  0  0  0  0  0  0  0  0  0
  -17.9250  -25.0400   20.3920 C   0  0  0  0  0  1  0  0  0  0  0  0
  -19.4150  -24.5790   17.7360 C   0  0  0  0  0  1  0  0  0  0  0  0
  -20.5440  -22.9170   17.2070 O   0  0  0  0  0  1  0  0  0  0  0  0
  -25.2190  -24.4340   19.1550 C   0  0  0  0  0  0  0  0  0  0  0  0
  -21.3930  -22.0290   16.2420 C   0  0  0  0  0  3  0  0  0  0  0  0
  -23.2950  -25.1150   17.8600 C   0  0  0  0  0  3  0  0  0  0  0  0
  -22.7580  -23.9440   15.6140 C   0  0  0  0  0  3  0  0  0  0  0  0
  -24.8050  -23.3300   16.9290 C   0  0  0  0  0  2  0  0  0  0  0  0
  -23.5510  -22.9360   16.1710 C   0  0  0  0  0  3  0  0  0  0  0  0
  -22.8190  -21.7620   16.4120 C   0  0  0  0  0  2  0  0  0  0  0  0
  -21.1600  -22.2660   14.9050 C   0  0  0  0  0  2  0  0  0  0  0  0
  -21.6400  -23.5740   14.8090 C   0  0  0  0  0  2  0  0  0  0  0  0
  -22.8010  -25.2390   16.3670 C   0  0  0  0  0  2  0  0  0  0  0  0
  -24.5240  -24.3180   17.9910 N   0  0  0  0  0  0  0  0  0  0  0  0
  -24.8970  -25.2540   20.0310 O   0  0  0  0  0  0  0  0  0  0  0  0
  -22.3310  -24.5100   18.8950 C   0  0  0  0  0  0  0  0  0  0  0  0
  -21.3200  -25.2380   19.2220 N   0  0  0  0  0  0  0  0  0  0  0  0
  -22.4790  -23.4320   19.4620 O   0  0  0  0  0  0  0  0  0  0  0  0
  -21.2330  -26.1700   18.8420 H   0  0  0  0  0  0  0  0  0  0  0  0
  -18.1340  -26.0820   18.2170 C   0  0  0  0  0  0  0  0  0  0  0  0
  -20.1500  -24.6680   19.8280 C   0  0  0  0  0  2  0  0  0  0  0  0
  -19.4510  -22.6280   19.6040 C   0  0  0  0  0 15  0  0  0  0  0  0
  -17.9850  -22.7520   17.9670 C   0  0  0  0  0  1  0  0  0  0  0  0
  -17.6100  -24.5850   17.4000 C   0  0  0  0  0  3  0  0  0  0  0  0
  -19.2790  -26.0900   19.2230 C   0  0  0  0  0  0  0  0  0  0  0  0
  -19.4780  -27.3020   19.9750 C   0  0  0  0  0  3  0  0  0  0  0  0
  -18.6120  -28.4200   19.9600 C   0  0  0  0  0  3  0  0  0  0  0  0
  -17.4150  -28.3370   19.2330 C   0  0  0  0  0  3  0  0  0  0  0  0
  -17.1870  -27.1920   18.4100 C   0  0  0  0  0  3  0  0  0  0  0  0
  -26.4560  -23.5530   19.4180 C   0  0  0  0  0  3  0  0  0  0  0  0
  -26.2870  -22.5810   20.6470 C   0  0  1  0  0  0  0  0  0  0  0  0
  -25.7760  -23.2660   21.9380 C   0  0  0  0  0  1  0  0  0  0  0  0
  -25.3070  -21.4310   20.3160 C   0  0  0  0  0  1  0  0  0  0  0  0
  -27.6530  -21.9270   20.9520 C   0  0  0  0  0  1  0  0  0  0  0  0
  -27.5630  -24.4870   19.6420 N   0  0  0  0  0  0  0  0  0  0  0  0
  -28.4840  -24.7880   18.7220 C   0  0  0  0  0  0  0  0  0  0  0  0
  -28.5530  -24.2150   17.6340 O   0  0  0  0  0  0  0  0  0  0  0  0
  -27.5340  -25.0280   20.4940 H   0  0  0  0  0  0  0  0  0  0  0  0
  -29.1510  -27.1840   18.3410 C   0  0  0  0  0  3  0  0  0  0  0  0
  -29.5050  -25.8860   19.0810 C   0  0  0  0  0  3  0  0  0  0  0  0
  -31.3920  -24.4150   19.6260 C   0  0  0  0  0  1  0  0  0  0  0  0
  -30.9000  -25.4990   18.7790 N   0  0  0  0  0  0  0  0  0  0  0  0
  -31.5240  -26.2950   18.8880 H   0  0  0  0  0  0  0  0  0  0  0  0
  1  2  1  0
  2  3  1  0
  4  8  1  0
  4  5  1  0
  5  3  1  0
  5  7  1  0
  6  4  2  0
  8  9  1  0
  9 10  1  0
 11 12  1  0
 11 10  1  0
 12 13  1  0
 13 14  1  0
 15 22  2  0
 16 21  1  0
 17 16  1  0
 18 19  1  0
 18 17  1  0
 19 28  1  0
 19 20  1  0
 20 21  1  0
 21 15  1  0
 23 15  1  0
 23 14  1  0
 23 24  1  0
 25 28  1  0
 25 50  1  0
 26 25  2  0
 27 26  1  0
 27 29  2  0
 29 28  1  0
 30 27  1  0
 31 30  1  0
 32 99  1  0
 32 31  2  0
 33 34  2  0
 33 32  1  0
 34 35  1  0
 35 30  2  0
 36 33  1  0
 37 36  1  0
 37 38  1  0
 39 38  2  0
 40 39  1  0
 41 42  1  0
 41 40  2  0
 42 37  2  0
 43 42  1  0
 44 40  1  0
 45 47  2  0
 45 26  1  0
 46 45  1  0
 48 46  1  0
 49 46  1  0
 50 52  1  0
 51 50  1  0
 53  1  1  0
 54 53  1  0
 55 57  2  0
 56 55  1  0
 56 54  1  0
 58 56  1  0
 59 60  1  0
 59 55  1  0
 61 60  1  0
 64 75  2  0
 65 70  1  0
 65 63  1  0
 66 74  1  0
 66 76  1  0
 67 72  1  0
 67 69  1  0
 67 73  1  0
 68 74  1  0
 69 70  1  0
 69 68  1  0
 71 65  1  0
 72 71  1  0
 73 66  1  0
 74 64  1  0
 76 77  1  0
 76 78  2  0
 77 81  1  0
 79 77  1  0
 80 89  2  0
 80 85  1  0
 84 62  1  0
 84 83  1  0
 84 80  1  0
 85 81  1  0
 85 86  2  0
 87 86  1  0
 88 87  2  0
 89 88  1  0
 90 64  1  0
 90 95  1  0
 90 91  1  0
 91 94  1  1
 91 92  1  0
 93 91  1  0
 95 98  1  0
 96 95  1  0
 97 96  2  0
 99 31  1  0
 99100  1  0
100 96  1  0
102103  1  0
102100  1  0
102101  1  0
M  ISO  4  15 100  23 100  62 101  63 101
M  END
>  <TORSDO>  (12) 
F 33

>  <SCORE>  (12) 
20.046

>  <name>  (12) 
13

>  <ligand_id>  (12) 
13

>  <original_smiles>  (12) 
[H]c1c([H])c([H])c2c(c1[H])C([H])([H])C([H])([H])C([H])([H])C2([H])N([H])C(=O)C1([H])N(C(=O)C([H])(N([H])C(=O)C([H])(N([H])C([H])([H])[H])C([H])([H])[H])C(C([H])([H])[H])(C([H])([H])[H])C([H])([H])[H])C([H])([H])c2c([H])c(OC([H])([H])C([H])([H])OC([H])([H])C(=O)N([H])C([H])([H])C([H])([H])C([H])([H])C([H])([H])C([H])([H])N([H])C(=O)C([H])([H])OC([H])([H])C([H])([H])OC([H])([H])C([H])([H])N([H])C(=O)N3C([H])([H])C([H])([H])C([H])([H])C([H])(n4nc(-c5c([H])c([H])c(Oc6c([H])c([H])c(F)c([H])c6F)c([H])c5[H])c(C(=O)N([H])[H])c4N([H])[H])C3([H])[H])c([H])c([H])c2C1([H])[H]

>  <smiles>  (12) 
[H]c1c([H])c([H])c2c(c1[H])C([H])([H])C([H])([H])C([H])([H])C2([H])N([H])C(=O)C1([H])N(C(=O)C([H])(N([H])C(=O)C([H])(N([H])C([H])([H])[H])C([H])([H])[H])C(C([H])([H])[H])(C([H])([H])[H])C([H])([H])[H])C([H])([H])c2c([H])c(OC([H])([H])C([H])([H])OC([H])([H])C(=O)N([H])C([H])([H])C([H])([H])C([H])([H])C([H])([H])C([H])([H])N([H])C(=O)C([H])([H])OC([H])([H])C([H])([H])OC([H])([H])C([H])([H])N([H])C(=O)N3C([H])([H])C([H])([H])C([H])([H])C([H])(n4nc(-c5c([H])c([H])c(Oc6c([H])c([H])c(F)c([H])c6F)c([H])c5[H])c(C(=O)N([H])[H])c4N([H])[H])C3([H])[H])c([H])c([H])c2C1([H])[H]

$$$$
14:0:0
     RDKit          3D

 95102  0  0  1  0  0  0  0  0999 V2000
  -31.5780  -23.8580   15.7390 C   0  0  0  0  0  2  0  0  0  0  0  0
  -30.6390  -22.8100   15.9330 O   0  0  0  0  0  0  0  0  0  0  0  0
  -30.4310  -22.0180   14.7750 C   0  0  0  0  0  2  0  0  0  0  0  0
  -29.3590  -20.9770   15.1070 C   0  0  0  0  0  2  0  0  0  0  0  0
  -29.8770  -20.0460   16.0500 O   0  0  0  0  0  0  0  0  0  0  0  0
  -28.8750  -19.1610   16.5280 C   0  0  0  0  0  2  0  0  0  0  0  0
  -29.5210  -17.9660   17.2420 C   0  0  0  0  0  2  0  0  0  0  0  0
  -29.7280  -18.2170   18.6330 O   0  0  0  0  0  0  0  0  0  0  0  0
  -30.2980  -17.0830   19.2740 C   0  0  0  0  0  2  0  0  0  0  0  0
  -30.1250  -17.1260   20.8130 C   0  0  0  0  0  2  0  0  0  0  0  0
  -30.7980  -14.7600   21.1780 C   0  0  0  0  0  0  0  0  0  0  0  0
  -30.6830  -12.5480   20.1280 C   0  0  0  0  0  2  0  0  0  0  0  0
  -29.8790  -12.7080   18.8190 C   0  0  0  0  0  2  0  0  0  0  0  0
  -28.3630  -12.5670   19.0830 C   0  0  0  0  0  2  0  0  0  0  0  0
  -27.8760  -13.4340   20.2740 C   0  0  0  0  0  3  0  0  0  0  0  0
  -28.8050  -13.2590   21.4970 C   0  0  0  0  0  2  0  0  0  0  0  0
  -30.1840  -13.5560   21.0720 N   0  0  0  0  0  0  0  0  0  0  0  0
  -31.9700  -14.9650   20.8580 O   0  0  0  0  0  0  0  0  0  0  0  0
  -29.9540  -15.7810   21.3730 N   0  0  0  0  0  0  0  0  0  0  0  0
  -29.0160  -15.5260   21.6410 H   0  0  0  0  0  0  0  0  0  0  0  0
  -25.4050  -14.0230   20.7070 C   0  0  0  0  0  0  0  0  0  0  0  0
  -24.3130  -13.2430   20.9800 C   0  0  0  0  0  0  0  0  0  0  0  0
  -24.7930  -11.8990   21.0240 C   0  0  0  0  0  0  0  0  0  0  0  0
  -26.4800  -13.1540   20.6090 N   0  0  0  0  0  0  0  0  0  0  0  0
  -26.1080  -11.8710   20.8520 N   0  0  0  0  0  0  0  0  0  0  0  0
  -24.0650  -10.6300   21.1610 C   0  0  0  0  0  0  0  0  0  0  0  0
  -24.4340   -9.6690   22.1290 C   0  0  0  0  0  3  0  0  0  0  0  0
  -23.7110   -8.4650   22.2540 C   0  0  0  0  0  3  0  0  0  0  0  0
  -22.6010   -8.2130   21.4130 C   0  0  0  0  0  0  0  0  0  0  0  0
  -22.2490   -9.1620   20.4390 C   0  0  0  0  0  3  0  0  0  0  0  0
  -22.9750  -10.3580   20.3100 C   0  0  0  0  0  3  0  0  0  0  0  0
  -21.8520   -7.0610   21.4470 O   0  0  0  0  0  0  0  0  0  0  0  0
  -21.7410   -6.3070   22.5890 C   0  0  0  0  0  0  0  0  0  0  0  0
  -21.2530   -6.8520   23.7960 C   0  0  0  0  0  3  0  0  0  0  0  0
  -21.0880   -6.0260   24.9270 C   0  0  0  0  0  3  0  0  0  0  0  0
  -21.4020   -4.6550   24.8480 C   0  0  0  0  0  0  0  0  0  0  0  0
  -21.8840   -4.1100   23.6450 C   0  0  0  0  0  3  0  0  0  0  0  0
  -22.0480   -4.9340   22.5180 C   0  0  0  0  0  0  0  0  0  0  0  0
  -22.4920   -4.4000   21.3540 F   0  0  0  0  0  0  0  0  0  0  0  0
  -21.2390   -3.8580   25.9300 F   0  0  0  0  0  0  0  0  0  0  0  0
  -22.8900  -13.7060   21.1000 C   0  0  0  0  0  0  0  0  0  0  0  0
  -22.0860  -13.0200   21.9060 N   0  0  0  0  0  0  0  0  0  0  0  0
  -22.4930  -14.7100   20.5110 O   0  0  0  0  0  0  0  0  0  0  0  0
  -22.4150  -12.2080   22.4070 H   0  0  0  0  0  0  0  0  0  0  0  0
  -21.1280  -13.3140   22.0270 H   0  0  0  0  0  0  0  0  0  0  0  0
  -25.5700  -15.3930   20.5150 N   0  0  0  0  0  0  0  0  0  0  0  0
  -24.7860  -16.0370   20.5110 H   0  0  0  0  0  0  0  0  0  0  0  0
  -26.4420  -15.8340   20.2540 H   0  0  0  0  0  0  0  0  0  0  0  0
  -31.7180  -24.6020   17.0710 C   0  0  0  0  0  2  0  0  0  0  0  0
  -30.1180  -25.6010   18.6960 C   0  0  0  0  0  0  0  0  0  0  0  0
  -30.3950  -24.9990   17.5370 N   0  0  0  0  0  0  0  0  0  0  0  0
  -30.9990  -25.9480   19.4880 O   0  0  0  0  0  0  0  0  0  0  0  0
  -29.6180  -24.7210   16.9510 H   0  0  0  0  0  0  0  0  0  0  0  0
  -28.6330  -25.8380   18.9910 C   0  0  0  0  0  2  0  0  0  0  0  0
  -28.4750  -26.8040   20.0330 O   0  0  0  0  0  0  0  0  0  0  0  0
  -24.6110  -31.8650   23.2160 C   0  0  0  0  0  0  0  0  0  0  0  0
  -27.2660  -27.4630   20.0900 C   0  0  0  0  0  0  0  0  0  0  0  0
  -23.4040  -30.4670   21.5730 C   0  0  0  0  0  3  0  0  0  0  0  0
  -24.8550  -28.9370   20.1450 C   0  0  0  0  0  0  0  0  0  0  0  0
  -25.9270  -30.8330   21.3700 C   0  0  0  0  0  2  0  0  0  0  0  0
  -26.0110  -29.4630   20.7320 C   0  0  0  0  0  0  0  0  0  0  0  0
  -27.2160  -28.7280   20.7150 C   0  0  0  0  0  3  0  0  0  0  0  0
  -26.0810  -26.9320   19.5290 C   0  0  0  0  0  3  0  0  0  0  0  0
  -24.8810  -27.6640   19.5510 C   0  0  0  0  0  3  0  0  0  0  0  0
  -23.6110  -29.7920   20.1910 C   0  0  0  0  0  2  0  0  0  0  0  0
  -24.6660  -31.0700   22.1110 N   0  0  0  0  0  0  0  0  0  0  0  0
  -23.5300  -32.1320   23.7590 O   0  0  0  0  0  0  0  0  0  0  0  0
  -22.7590  -29.4390   22.5280 C   0  0  0  0  0  0  0  0  0  0  0  0
  -21.4320  -29.2650   22.4110 N   0  0  0  0  0  0  0  0  0  0  0  0
  -23.4480  -28.8000   23.3290 O   0  0  0  0  0  0  0  0  0  0  0  0
  -20.9380  -29.8330   21.7390 H   0  0  0  0  0  0  0  0  0  0  0  0
  -18.0550  -28.0920   22.9290 C   0  0  0  0  0  0  0  0  0  0  0  0
  -20.6170  -28.3250   23.1810 C   0  0  0  0  0  3  0  0  0  0  0  0
  -20.7020  -26.8990   22.5900 C   0  0  0  0  0  2  0  0  0  0  0  0
  -19.5880  -26.5960   21.5820 C   0  0  0  0  0  2  0  0  0  0  0  0
  -18.2140  -26.7470   22.2400 C   0  0  0  0  0  2  0  0  0  0  0  0
  -19.1850  -28.8390   23.3570 C   0  0  0  0  0  0  0  0  0  0  0  0
  -18.9820  -30.1000   23.9600 C   0  0  0  0  0  3  0  0  0  0  0  0
  -17.6840  -30.6130   24.1400 C   0  0  0  0  0  3  0  0  0  0  0  0
  -16.5690  -29.8600   23.7300 C   0  0  0  0  0  3  0  0  0  0  0  0
  -16.7560  -28.6020   23.1310 C   0  0  0  0  0  3  0  0  0  0  0  0
  -25.8980  -32.4950   23.8350 C   0  0  0  0  0  3  0  0  0  0  0  0
  -26.4260  -31.7140   25.0990 C   0  0  1  0  0  0  0  0  0  0  0  0
  -25.3420  -31.4640   26.1740 C   0  0  0  0  0  1  0  0  0  0  0  0
  -27.0080  -30.3410   24.6880 C   0  0  0  0  0  1  0  0  0  0  0  0
  -27.5790  -32.5050   25.7610 C   0  0  0  0  0  1  0  0  0  0  0  0
  -25.5860  -33.8890   24.1760 N   0  0  0  0  0  0  0  0  0  0  0  0
  -25.9150  -34.9470   23.4250 C   0  0  0  0  0  0  0  0  0  0  0  0
  -26.5860  -34.8530   22.3940 O   0  0  0  0  0  0  0  0  0  0  0  0
  -24.9890  -34.0350   24.9770 H   0  0  0  0  0  0  0  0  0  0  0  0
  -24.1820  -36.7370   23.0800 C   0  0  0  0  0  1  0  0  0  0  0  0
  -25.4210  -36.3300   23.8910 C   0  0  0  0  0  3  0  0  0  0  0  0
  -27.5560  -37.2120   24.7280 C   0  0  0  0  0  1  0  0  0  0  0  0
  -26.4510  -37.3880   23.7900 N   0  0  0  0  0  0  0  0  0  0  0  0
  -26.0430  -38.3050   23.9470 H   0  0  0  0  0  0  0  0  0  0  0  0
  1  2  1  0
  1 49  1  0
  3  4  1  0
  3  2  1  0
  4  5  1  0
  5  6  1  0
  6  7  1  0
  7  8  1  0
  8  9  1  0
  9 10  1  0
 10 19  1  0
 11 19  1  0
 12 17  1  0
 13 14  1  0
 13 12  1  0
 15 14  1  0
 15 24  1  0
 15 16  1  0
 17 11  1  0
 17 16  1  0
 18 11  2  0
 19 20  1  0
 21 22  2  0
 22 23  1  0
 22 41  1  0
 23 26  1  0
 24 21  1  0
 24 25  1  0
 25 23  2  0
 26 27  1  0
 27 28  2  0
 29 32  1  0
 29 28  1  0
 30 29  2  0
 31 30  1  0
 31 26  2  0
 32 33  1  0
 33 34  1  0
 34 35  2  0
 36 35  1  0
 36 40  1  0
 37 36  2  0
 38 33  2  0
 38 37  1  0
 39 38  1  0
 41 42  1  0
 42 45  1  0
 42 44  1  0
 43 41  2  0
 46 21  1  0
 47 46  1  0
 48 46  1  0
 49 51  1  0
 50 54  1  0
 50 52  2  0
 51 50  1  0
 53 51  1  0
 54 55  1  0
 55 57  1  0
 56 67  2  0
 57 62  1  0
 58 66  1  0
 58 68  1  0
 59 65  1  0
 59 61  1  0
 60 66  1  0
 61 60  1  0
 62 61  2  0
 63 64  1  0
 63 57  2  0
 64 59  2  0
 65 58  1  0
 66 56  1  0
 68 70  2  0
 69 68  1  0
 71 69  1  0
 72 81  2  0
 72 77  1  0
 73 69  1  0
 73 77  1  0
 74 73  1  0
 75 76  1  0
 75 74  1  0
 76 72  1  0
 77 78  2  0
 78 79  1  0
 80 79  2  0
 81 80  1  0
 82 56  1  0
 82 87  1  0
 82 83  1  0
 83 86  1  1
 83 84  1  0
 85 83  1  0
 87 90  1  0
 88 92  1  0
 88 87  1  0
 89 88  2  0
 92 91  1  0
 94 92  1  0
 94 95  1  0
 94 93  1  0
M  ISO  4  11 100  19 100  54 101  55 101
M  END
>  <TORSDO>  (13) 
F 28

>  <SCORE>  (13) 
-10.541

>  <name>  (13) 
14

>  <ligand_id>  (13) 
14

>  <original_smiles>  (13) 
[H]c1c([H])c([H])c2c(c1[H])C([H])([H])C([H])([H])C([H])([H])C2([H])N([H])C(=O)C1([H])N(C(=O)C([H])(N([H])C(=O)C([H])(N([H])C([H])([H])[H])C([H])([H])[H])C(C([H])([H])[H])(C([H])([H])[H])C([H])([H])[H])C([H])([H])c2c([H])c(OC([H])([H])C(=O)N([H])C([H])([H])C([H])([H])OC([H])([H])C([H])([H])OC([H])([H])C([H])([H])OC([H])([H])C([H])([H])N([H])C(=O)N3C([H])([H])C([H])([H])C([H])([H])C([H])(n4nc(-c5c([H])c([H])c(Oc6c([H])c([H])c(F)c([H])c6F)c([H])c5[H])c(C(=O)N([H])[H])c4N([H])[H])C3([H])[H])c([H])c([H])c2C1([H])[H]

>  <smiles>  (13) 
[H]c1c([H])c([H])c2c(c1[H])C([H])([H])C([H])([H])C([H])([H])C2([H])N([H])C(=O)C1([H])N(C(=O)C([H])(N([H])C(=O)C([H])(N([H])C([H])([H])[H])C([H])([H])[H])C(C([H])([H])[H])(C([H])([H])[H])C([H])([H])[H])C([H])([H])c2c([H])c(OC([H])([H])C(=O)N([H])C([H])([H])C([H])([H])OC([H])([H])C([H])([H])OC([H])([H])C([H])([H])OC([H])([H])C([H])([H])N([H])C(=O)N3C([H])([H])C([H])([H])C([H])([H])C([H])(n4nc(-c5c([H])c([H])c(Oc6c([H])c([H])c(F)c([H])c6F)c([H])c5[H])c(C(=O)N([H])[H])c4N([H])[H])C3([H])[H])c([H])c([H])c2C1([H])[H]

$$$$
15:0:0
     RDKit          3D

105114  0  0  1  0  0  0  0  0999 V2000
  -33.4280  -20.7870   19.5740 C   0  0  0  0  0  3  0  0  0  0  0  0
  -33.6070  -23.0510   20.4620 C   0  0  0  0  0  3  0  0  0  0  0  0
  -32.6480  -21.2650   18.4980 C   0  0  0  0  0  3  0  0  0  0  0  0
  -32.8060  -23.5220   19.4120 C   0  0  0  0  0  3  0  0  0  0  0  0
  -33.9050  -21.6820   20.5570 C   0  0  0  0  0  0  0  0  0  0  0  0
  -32.3220  -22.6410   18.4290 C   0  0  0  0  0  0  0  0  0  0  0  0
  -34.7590  -21.2290   21.6590 C   0  0  0  0  0  3  0  0  0  0  0  0
  -34.3300  -20.6190   22.7800 C   0  0  0  0  0  3  0  0  0  0  0  0
  -32.9270  -20.3640   22.9910 C   0  0  0  0  0  0  0  0  0  0  0  0
  -32.6000  -19.1510   22.5490 N   0  0  0  0  0  0  0  0  0  0  0  0
  -32.1170  -21.1660   23.4610 O   0  0  0  0  0  0  0  0  0  0  0  0
  -33.3470  -18.5750   22.1860 H   0  0  0  0  0  0  0  0  0  0  0  0
  -31.2360  -18.7190   22.3180 C   0  0  0  0  0  2  0  0  0  0  0  0
  -31.1700  -17.2060   22.1110 C   0  0  0  0  0  2  0  0  0  0  0  0
  -29.9360  -16.8490   21.2770 C   0  0  0  0  0  2  0  0  0  0  0  0
  -30.4730  -14.5600   20.4260 C   0  0  0  0  0  0  0  0  0  0  0  0
  -30.2230  -12.4660   19.1570 C   0  0  0  0  0  2  0  0  0  0  0  0
  -29.2430  -12.7290   17.9960 C   0  0  0  0  0  2  0  0  0  0  0  0
  -27.7740  -12.5860   18.4470 C   0  0  0  0  0  2  0  0  0  0  0  0
  -27.4680  -13.3460   19.7640 C   0  0  0  0  0  3  0  0  0  0  0  0
  -28.5380  -13.0120   20.8260 C   0  0  0  0  0  2  0  0  0  0  0  0
  -29.8570  -13.3660   20.2560 N   0  0  0  0  0  0  0  0  0  0  0  0
  -31.5430  -14.8740   19.8870 O   0  0  0  0  0  0  0  0  0  0  0  0
  -29.7410  -15.4210   21.1370 N   0  0  0  0  0  0  0  0  0  0  0  0
  -28.8590  -15.0530   21.4660 H   0  0  0  0  0  0  0  0  0  0  0  0
  -25.0610  -13.9090   20.4810 C   0  0  0  0  0  0  0  0  0  0  0  0
  -24.0120  -13.1170   20.8580 C   0  0  0  0  0  0  0  0  0  0  0  0
  -24.5000  -11.7730   20.8160 C   0  0  0  0  0  0  0  0  0  0  0  0
  -26.1230  -13.0490   20.2430 N   0  0  0  0  0  0  0  0  0  0  0  0
  -25.7880  -11.7600   20.5010 N   0  0  0  0  0  0  0  0  0  0  0  0
  -23.8040  -10.4950   21.0060 C   0  0  0  0  0  0  0  0  0  0  0  0
  -24.2470   -9.5440   21.9540 C   0  0  0  0  0  3  0  0  0  0  0  0
  -23.5480   -8.3320   22.1320 C   0  0  0  0  0  3  0  0  0  0  0  0
  -22.3950   -8.0580   21.3610 C   0  0  0  0  0  0  0  0  0  0  0  0
  -21.9700   -8.9940   20.4040 C   0  0  0  0  0  3  0  0  0  0  0  0
  -22.6690  -10.1990   20.2220 C   0  0  0  0  0  3  0  0  0  0  0  0
  -21.6700   -6.8920   21.4470 O   0  0  0  0  0  0  0  0  0  0  0  0
  -21.6030   -6.1690   22.6110 C   0  0  0  0  0  0  0  0  0  0  0  0
  -21.1250   -6.7380   23.8110 C   0  0  0  0  0  3  0  0  0  0  0  0
  -21.0080   -5.9410   24.9680 C   0  0  0  0  0  3  0  0  0  0  0  0
  -21.3590   -4.5790   24.9240 C   0  0  0  0  0  0  0  0  0  0  0  0
  -21.8300   -4.0100   23.7270 C   0  0  0  0  0  3  0  0  0  0  0  0
  -21.9480   -4.8030   22.5720 C   0  0  0  0  0  0  0  0  0  0  0  0
  -22.3850   -4.2460   21.4150 F   0  0  0  0  0  0  0  0  0  0  0  0
  -21.2370   -3.8110   26.0310 F   0  0  0  0  0  0  0  0  0  0  0  0
  -22.6060  -13.5620   21.1480 C   0  0  0  0  0  0  0  0  0  0  0  0
  -21.9030  -12.8380   22.0110 N   0  0  0  0  0  0  0  0  0  0  0  0
  -22.1350  -14.5810   20.6430 O   0  0  0  0  0  0  0  0  0  0  0  0
  -22.2970  -12.0110   22.4360 H   0  0  0  0  0  0  0  0  0  0  0  0
  -20.9640  -13.1130   22.2610 H   0  0  0  0  0  0  0  0  0  0  0  0
  -25.2020  -15.2810   20.3010 N   0  0  0  0  0  0  0  0  0  0  0  0
  -24.4440  -15.9390   20.4410 H   0  0  0  0  0  0  0  0  0  0  0  0
  -26.0530  -15.7230   19.9790 H   0  0  0  0  0  0  0  0  0  0  0  0
  -31.5360  -23.2340   17.4380 N   0  0  0  0  0  0  0  0  0  0  0  0
  -31.5130  -24.2480   17.4150 H   0  0  0  0  0  0  0  0  0  0  0  0
  -28.5910  -24.4680   18.7740 C   0  0  0  0  0  0  0  0  0  0  0  0
  -29.9520  -23.6390   15.6430 C   0  0  0  0  0  2  0  0  0  0  0  0
  -29.6840  -21.5660   17.1330 C   0  0  0  0  0  2  0  0  0  0  0  0
  -28.6120  -24.1140   16.2640 C   0  0  0  0  0  2  0  0  0  0  0  0
  -28.4130  -22.2200   17.7330 C   0  0  0  0  0  2  0  0  0  0  0  0
  -30.6900  -22.5520   16.4720 C   0  0  0  0  0  3  0  0  0  0  0  0
  -28.4890  -23.6850   17.6680 N   0  0  0  0  0  0  0  0  0  0  0  0
  -28.5720  -23.9970   19.9180 O   0  0  0  0  0  0  0  0  0  0  0  0
  -28.7680  -25.9930   18.6120 C   0  0  0  0  0  2  0  0  0  0  0  0
  -28.4460  -26.7020   19.8220 O   0  0  0  0  0  0  0  0  0  0  0  0
  -24.4900  -31.6540   23.0760 C   0  0  0  0  0  0  0  0  0  0  0  0
  -27.2360  -27.3580   19.8690 C   0  0  0  0  0  0  0  0  0  0  0  0
  -23.3120  -30.2700   21.3980 C   0  0  0  0  0  3  0  0  0  0  0  0
  -24.7990  -28.7860   19.9430 C   0  0  0  0  0  0  0  0  0  0  0  0
  -25.8310  -30.6820   21.2150 C   0  0  0  0  0  2  0  0  0  0  0  0
  -25.9430  -29.3270   20.5430 C   0  0  0  0  0  0  0  0  0  0  0  0
  -27.1610  -28.6150   20.5090 C   0  0  0  0  0  3  0  0  0  0  0  0
  -26.0640  -26.8160   19.2940 C   0  0  0  0  0  3  0  0  0  0  0  0
  -24.8490  -27.5230   19.3320 C   0  0  0  0  0  3  0  0  0  0  0  0
  -23.5370  -29.6190   20.0050 C   0  0  0  0  0  2  0  0  0  0  0  0
  -24.5620  -30.8840   21.9540 N   0  0  0  0  0  0  0  0  0  0  0  0
  -23.4030  -31.8940   23.6190 O   0  0  0  0  0  0  0  0  0  0  0  0
  -22.6790  -29.2140   22.3340 C   0  0  0  0  0  0  0  0  0  0  0  0
  -21.3520  -29.0350   22.2190 N   0  0  0  0  0  0  0  0  0  0  0  0
  -23.3770  -28.5610   23.1130 O   0  0  0  0  0  0  0  0  0  0  0  0
  -20.8530  -29.6100   21.5550 H   0  0  0  0  0  0  0  0  0  0  0  0
  -17.9840  -27.8430   22.7470 C   0  0  0  0  0  0  0  0  0  0  0  0
  -20.5490  -28.0710   22.9690 C   0  0  0  0  0  3  0  0  0  0  0  0
  -20.6260  -26.6660   22.3260 C   0  0  0  0  0  2  0  0  0  0  0  0
  -19.4980  -26.3950   21.3260 C   0  0  0  0  0  2  0  0  0  0  0  0
  -18.1340  -26.5210   22.0100 C   0  0  0  0  0  2  0  0  0  0  0  0
  -19.1180  -28.5770   23.1840 C   0  0  0  0  0  0  0  0  0  0  0  0
  -18.9250  -29.8160   23.8340 C   0  0  0  0  0  3  0  0  0  0  0  0
  -17.6290  -30.3200   24.0500 C   0  0  0  0  0  3  0  0  0  0  0  0
  -16.5090  -29.5810   23.6320 C   0  0  0  0  0  3  0  0  0  0  0  0
  -16.6870  -28.3430   22.9880 C   0  0  0  0  0  3  0  0  0  0  0  0
  -25.7660  -32.2920   23.7110 C   0  0  0  0  0  3  0  0  0  0  0  0
  -25.4270  -33.6710   24.0860 N   0  0  0  0  0  0  0  0  0  0  0  0
  -25.7340  -34.7530   23.3580 C   0  0  0  0  0  0  0  0  0  0  0  0
  -26.4060  -34.6970   22.3240 O   0  0  0  0  0  0  0  0  0  0  0  0
  -24.8320  -33.7880   24.8920 H   0  0  0  0  0  0  0  0  0  0  0  0
  -23.9690  -36.5170   23.0560 C   0  0  0  0  0  1  0  0  0  0  0  0
  -25.2180  -36.1170   23.8580 C   0  0  0  0  0  3  0  0  0  0  0  0
  -27.3300  -37.0200   24.7210 C   0  0  0  0  0  1  0  0  0  0  0  0
  -26.2290  -37.1930   23.7780 N   0  0  0  0  0  0  0  0  0  0  0  0
  -25.8030  -38.1010   23.9510 H   0  0  0  0  0  0  0  0  0  0  0  0
  -26.3030  -31.4910   24.9600 C   0  0  1  0  0  0  0  0  0  0  0  0
  -25.2190  -31.2000   26.0230 C   0  0  0  0  0  1  0  0  0  0  0  0
  -26.9110  -30.1390   24.5180 C   0  0  0  0  0  1  0  0  0  0  0  0
  -27.4440  -32.2840   25.6400 C   0  0  0  0  0  1  0  0  0  0  0  0
  1  5  1  0
  2  5  2  0
  3  1  2  0
  4  2  1  0
  5  7  1  0
  6  3  1  0
  6  4  2  0
  7  8  2  0
  8  9  1  0
  9 11  2  0
 10  9  1  0
 12 10  1  0
 13 10  1  0
 14 13  1  0
 15 14  1  0
 16 24  1  0
 17 22  1  0
 18 19  1  0
 18 17  1  0
 20 19  1  0
 20 29  1  0
 20 21  1  0
 22 16  1  0
 22 21  1  0
 23 16  2  0
 24 15  1  0
 24 25  1  0
 26 27  2  0
 27 46  1  0
 28 27  1  0
 28 31  1  0
 29 26  1  0
 29 30  1  0
 30 28  2  0
 31 32  1  0
 32 33  2  0
 34 37  1  0
 34 33  1  0
 35 34  2  0
 36 35  1  0
 36 31  2  0
 37 38  1  0
 38 39  1  0
 39 40  2  0
 41 40  1  0
 41 45  1  0
 42 41  2  0
 43 38  2  0
 43 42  1  0
 44 43  1  0
 46 47  1  0
 47 50  1  0
 47 49  1  0
 48 46  2  0
 51 52  1  0
 51 26  1  0
 53 51  1  0
 54  6  1  0
 55 54  1  0
 56 63  2  0
 57 59  1  0
 57 61  1  0
 58 60  1  0
 59 62  1  0
 61 58  1  0
 61 54  1  0
 62 60  1  0
 62 56  1  0
 64 56  1  0
 64 65  1  0
 65 67  1  0
 66 77  2  0
 67 72  1  0
 68 76  1  0
 68 78  1  0
 69 75  1  0
 69 71  1  0
 70 76  1  0
 71 70  1  0
 72 71  2  0
 73 74  1  0
 73 67  2  0
 74 69  2  0
 75 68  1  0
 76 66  1  0
 78 80  2  0
 79 78  1  0
 81 79  1  0
 82 91  2  0
 82 87  1  0
 83 79  1  0
 83 87  1  0
 84 83  1  0
 85 86  1  0
 85 84  1  0
 86 82  1  0
 87 88  2  0
 88 89  1  0
 90 89  2  0
 91 90  1  0
 92 66  1  0
 92 93  1  0
 92102  1  0
 93 96  1  0
 94 98  1  0
 94 93  1  0
 95 94  2  0
 98 97  1  0
100 98  1  0
100101  1  0
100 99  1  0
102105  1  1
102103  1  0
104102  1  0
M  ISO  4  16 100  24 100  64 101  65 101
M  END
>  <TORSDO>  (14) 
F 24

>  <SCORE>  (14) 
-11.837

>  <name>  (14) 
15

>  <ligand_id>  (14) 
15

>  <original_smiles>  (14) 
[H]C(C(=O)N([H])C([H])([H])C([H])([H])C([H])([H])N([H])C(=O)N1C([H])([H])C([H])([H])C([H])([H])C([H])(n2nc(-c3c([H])c([H])c(Oc4c([H])c([H])c(F)c([H])c4F)c([H])c3[H])c(C(=O)N([H])[H])c2N([H])[H])C1([H])[H])=C([H])c1c([H])c([H])c(N([H])C2([H])C([H])([H])C([H])([H])N(C(=O)C([H])([H])Oc3c([H])c([H])c4c(c3[H])C([H])([H])N(C(=O)C([H])(N([H])C(=O)C([H])(N([H])C([H])([H])[H])C([H])([H])[H])C(C([H])([H])[H])(C([H])([H])[H])C([H])([H])[H])C([H])(C(=O)N([H])C3([H])c5c([H])c([H])c([H])c([H])c5C([H])([H])C([H])([H])C3([H])[H])C4([H])[H])C([H])([H])C2([H])[H])c([H])c1[H]

>  <smiles>  (14) 
[H]C(C(=O)N([H])C([H])([H])C([H])([H])C([H])([H])N([H])C(=O)N1C([H])([H])C([H])([H])C([H])([H])C([H])(n2nc(-c3c([H])c([H])c(Oc4c([H])c([H])c(F)c([H])c4F)c([H])c3[H])c(C(=O)N([H])[H])c2N([H])[H])C1([H])[H])=C([H])c1c([H])c([H])c(N([H])C2([H])C([H])([H])C([H])([H])N(C(=O)C([H])([H])Oc3c([H])c([H])c4c(c3[H])C([H])([H])N(C(=O)C([H])(N([H])C(=O)C([H])(N([H])C([H])([H])[H])C([H])([H])[H])C(C([H])([H])[H])(C([H])([H])[H])C([H])([H])[H])C([H])(C(=O)N([H])C3([H])c5c([H])c([H])c([H])c([H])c5C([H])([H])C([H])([H])C3([H])[H])C4([H])[H])C([H])([H])C2([H])[H])c([H])c1[H]

$$$$
16:0:0
     RDKit          3D

100108  0  0  1  0  0  0  0  0999 V2000
  -25.3340  -22.2970   19.7950 C   0  0  0  0  0  0  0  0  0  0  0  0
  -26.0920  -22.6670   18.7560 N   0  0  0  0  0  0  0  0  0  0  0  0
  -24.9560  -23.0870   20.6610 O   0  0  0  0  0  0  0  0  0  0  0  0
  -26.3650  -21.9290   18.1180 H   0  0  0  0  0  0  0  0  0  0  0  0
  -26.3020  -24.0520   18.3300 C   0  0  0  0  0  2  0  0  0  0  0  0
  -25.3840  -25.0860   19.0260 C   0  0  0  0  0  2  0  0  0  0  0  0
  -25.0670  -26.3560   18.2080 C   0  0  0  0  0  0  0  0  0  0  0  0
  -26.2140  -25.5600   14.6660 C   0  0  0  0  0  2  0  0  0  0  0  0
  -26.8820  -27.8770   15.5070 C   0  0  0  0  0  2  0  0  0  0  0  0
  -25.9320  -25.2500   16.1500 C   0  0  0  0  0  2  0  0  0  0  0  0
  -25.5120  -27.7110   16.1930 C   0  0  0  0  0  2  0  0  0  0  0  0
  -27.1760  -26.7540   14.4860 C   0  0  0  0  0  3  0  0  0  0  0  0
  -25.4640  -26.4260   16.9120 N   0  0  0  0  0  0  0  0  0  0  0  0
  -24.5320  -27.3130   18.7780 O   0  0  0  0  0  0  0  0  0  0  0  0
  -29.6720  -27.0040   14.4110 C   0  0  0  0  0  0  0  0  0  0  0  0
  -32.0750  -26.8720   13.8690 C   0  0  0  0  0  2  0  0  0  0  0  0
  -32.2500  -26.6200   12.3580 C   0  0  0  0  0  2  0  0  0  0  0  0
  -32.1990  -25.1120   12.0440 C   0  0  0  0  0  2  0  0  0  0  0  0
  -30.9820  -24.4060   12.7020 C   0  0  0  0  0  3  0  0  0  0  0  0
  -30.8630  -24.7920   14.1930 C   0  0  0  0  0  2  0  0  0  0  0  0
  -30.8040  -26.2640   14.2870 N   0  0  0  0  0  0  0  0  0  0  0  0
  -29.6470  -28.2340   14.3020 O   0  0  0  0  0  0  0  0  0  0  0  0
  -28.5570  -26.2870   14.6150 N   0  0  0  0  0  0  0  0  0  0  0  0
  -28.6940  -25.2970   14.7430 H   0  0  0  0  0  0  0  0  0  0  0  0
  -30.1290  -22.0950   11.9370 C   0  0  0  0  0  0  0  0  0  0  0  0
  -30.6990  -20.8510   11.9800 C   0  0  0  0  0  0  0  0  0  0  0  0
  -31.9740  -21.0220   12.6000 C   0  0  0  0  0  0  0  0  0  0  0  0
  -31.0470  -22.9550   12.5260 N   0  0  0  0  0  0  0  0  0  0  0  0
  -32.1410  -22.2850   12.9720 N   0  0  0  0  0  0  0  0  0  0  0  0
  -33.0710  -20.0670   12.8130 C   0  0  0  0  0  0  0  0  0  0  0  0
  -32.9760  -19.0340   13.7700 C   0  0  0  0  0  3  0  0  0  0  0  0
  -34.0350  -18.1170   13.9430 C   0  0  0  0  0  3  0  0  0  0  0  0
  -35.2020  -18.2240   13.1500 C   0  0  0  0  0  0  0  0  0  0  0  0
  -35.3010  -19.2680   12.2130 C   0  0  0  0  0  3  0  0  0  0  0  0
  -34.2480  -20.1830   12.0470 C   0  0  0  0  0  3  0  0  0  0  0  0
  -36.2910  -17.3970   13.2670 O   0  0  0  0  0  0  0  0  0  0  0  0
  -36.2060  -16.0520   13.0060 C   0  0  0  0  0  0  0  0  0  0  0  0
  -36.0580  -15.5540   11.6930 C   0  0  0  0  0  3  0  0  0  0  0  0
  -36.0440  -14.1630   11.4640 C   0  0  0  0  0  3  0  0  0  0  0  0
  -36.1850  -13.2710   12.5420 C   0  0  0  0  0  0  0  0  0  0  0  0
  -36.3380  -13.7640   13.8500 C   0  0  0  0  0  3  0  0  0  0  0  0
  -36.3510  -15.1500   14.0800 C   0  0  0  0  0  0  0  0  0  0  0  0
  -36.5200  -15.6200   15.3400 F   0  0  0  0  0  0  0  0  0  0  0  0
  -36.1790  -11.9350   12.3220 F   0  0  0  0  0  0  0  0  0  0  0  0
  -30.1370  -19.5880   11.3930 C   0  0  0  0  0  0  0  0  0  0  0  0
  -30.4460  -18.4440   11.9910 N   0  0  0  0  0  0  0  0  0  0  0  0
  -29.3780  -19.6160   10.4240 O   0  0  0  0  0  0  0  0  0  0  0  0
  -31.0500  -18.4220   12.7980 H   0  0  0  0  0  0  0  0  0  0  0  0
  -30.0650  -17.5770   11.6430 H   0  0  0  0  0  0  0  0  0  0  0  0
  -28.9200  -22.5700   11.4380 N   0  0  0  0  0  0  0  0  0  0  0  0
  -28.2610  -21.9650   10.9590 H   0  0  0  0  0  0  0  0  0  0  0  0
  -28.6640  -23.5480   11.4020 H   0  0  0  0  0  0  0  0  0  0  0  0
  -24.8790  -20.8330   19.8230 C   0  0  0  0  0  2  0  0  0  0  0  0
  -25.9380  -19.9360   19.4760 O   0  0  0  0  0  0  0  0  0  0  0  0
  -27.0240  -19.9080   20.4010 C   0  0  0  0  0  2  0  0  0  0  0  0
  -28.0030  -18.8000   19.9810 C   0  0  0  0  0  2  0  0  0  0  0  0
  -28.9830  -19.2080   19.0300 O   0  0  0  0  0  0  0  0  0  0  0  0
  -30.2010  -18.4600   19.0540 C   0  0  0  0  0  2  0  0  0  0  0  0
  -31.1760  -18.9710   17.9680 C   0  0  0  0  0  2  0  0  0  0  0  0
  -30.5780  -19.8820   17.0310 O   0  0  0  0  0  0  0  0  0  0  0  0
  -35.6280  -24.1180   19.6210 C   0  0  0  0  0  0  0  0  0  0  0  0
  -31.0290  -21.1650   17.1790 C   0  0  0  0  0  0  0  0  0  0  0  0
  -33.5010  -25.2220   19.0040 C   0  0  0  0  0  3  0  0  0  0  0  0
  -31.8780  -23.8070   17.6350 C   0  0  0  0  0  0  0  0  0  0  0  0
  -34.2740  -23.1160   17.7860 C   0  0  0  0  0  2  0  0  0  0  0  0
  -32.8160  -22.7680   17.5890 C   0  0  0  0  0  0  0  0  0  0  0  0
  -32.3980  -21.4400   17.3650 C   0  0  0  0  0  3  0  0  0  0  0  0
  -30.1040  -22.2260   17.1600 C   0  0  0  0  0  3  0  0  0  0  0  0
  -30.5150  -23.5450   17.4190 C   0  0  0  0  0  3  0  0  0  0  0  0
  -32.4080  -25.1970   17.9020 C   0  0  0  0  0  2  0  0  0  0  0  0
  -34.5070  -24.1210   18.8480 N   0  0  0  0  0  0  0  0  0  0  0  0
  -35.8530  -25.0320   20.4260 O   0  0  0  0  0  0  0  0  0  0  0  0
  -32.8010  -25.2170   20.3830 C   0  0  0  0  0  0  0  0  0  0  0  0
  -32.0320  -26.2810   20.6670 N   0  0  0  0  0  0  0  0  0  0  0  0
  -32.9310  -24.2600   21.1520 O   0  0  0  0  0  0  0  0  0  0  0  0
  -31.9910  -27.0280   19.9890 H   0  0  0  0  0  0  0  0  0  0  0  0
  -29.4880  -28.3390   22.1920 C   0  0  0  0  0  0  0  0  0  0  0  0
  -31.2520  -26.4740   21.8880 C   0  0  0  0  0  3  0  0  0  0  0  0
  -30.0650  -25.4850   21.9530 C   0  0  0  0  0  2  0  0  0  0  0  0
  -28.7690  -26.0560   21.3720 C   0  0  0  0  0  2  0  0  0  0  0  0
  -28.3580  -27.3260   22.1240 C   0  0  0  0  0  2  0  0  0  0  0  0
  -30.8460  -27.9410   22.0670 C   0  0  0  0  0  0  0  0  0  0  0  0
  -31.8570  -28.9260   22.1050 C   0  0  0  0  0  3  0  0  0  0  0  0
  -31.5310  -30.2860   22.2620 C   0  0  0  0  0  3  0  0  0  0  0  0
  -30.1870  -30.6740   22.3990 C   0  0  0  0  0  3  0  0  0  0  0  0
  -29.1700  -29.7020   22.3700 C   0  0  0  0  0  3  0  0  0  0  0  0
  -36.6940  -22.9830   19.5140 C   0  0  0  0  0  3  0  0  0  0  0  0
  -37.0390  -22.3310   20.9080 C   0  0  1  0  0  0  0  0  0  0  0  0
  -38.1830  -23.0440   21.6660 C   0  0  0  0  0  1  0  0  0  0  0  0
  -35.7950  -22.3240   21.8260 C   0  0  0  0  0  1  0  0  0  0  0  0
  -37.4490  -20.8510   20.7120 C   0  0  0  0  0  1  0  0  0  0  0  0
  -37.8940  -23.5590   18.8940 N   0  0  0  0  0  0  0  0  0  0  0  0
  -38.0750  -23.6960   17.5730 C   0  0  0  0  0  0  0  0  0  0  0  0
  -37.2660  -23.2760   16.7410 O   0  0  0  0  0  0  0  0  0  0  0  0
  -38.5720  -23.9690   19.5210 H   0  0  0  0  0  0  0  0  0  0  0  0
  -39.0170  -25.8580   16.7010 C   0  0  0  0  0  1  0  0  0  0  0  0
  -39.3550  -24.4120   17.0980 C   0  0  0  0  0  3  0  0  0  0  0  0
  -40.6640  -22.4740   16.3540 C   0  0  0  0  0  1  0  0  0  0  0  0
  -40.0260  -23.7310   15.9710 N   0  0  0  0  0  0  0  0  0  0  0  0
  -40.7320  -24.3290   15.5530 H   0  0  0  0  0  0  0  0  0  0  0  0
  1 53  1  0
  1  3  2  0
  2  1  1  0
  4  2  1  0
  5  2  1  0
  5  6  1  0
  7 14  2  0
  7  6  1  0
  8 10  1  0
  9 11  1  0
 10 13  1  0
 11 13  1  0
 12 23  1  0
 12  8  1  0
 12  9  1  0
 13  7  1  0
 15 23  1  0
 16 21  1  0
 17 16  1  0
 18 17  1  0
 19 18  1  0
 19 20  1  0
 20 21  1  0
 21 15  1  0
 22 15  2  0
 23 24  1  0
 25 26  2  0
 25 28  1  0
 26 27  1  0
 27 30  1  0
 27 29  2  0
 28 19  1  0
 28 29  1  0
 30 31  1  0
 31 32  2  0
 33 36  1  0
 33 32  1  0
 34 33  2  0
 35 34  1  0
 35 30  2  0
 37 36  1  0
 37 42  1  0
 38 37  2  0
 39 38  1  0
 39 40  2  0
 40 41  1  0
 41 42  2  0
 42 43  1  0
 44 40  1  0
 45 26  1  0
 45 46  1  0
 46 48  1  0
 47 45  2  0
 49 46  1  0
 50 25  1  0
 51 50  1  0
 52 50  1  0
 54 53  1  0
 54 55  1  0
 56 55  1  0
 57 58  1  0
 57 56  1  0
 59 58  1  0
 60 62  1  0
 60 59  1  0
 61 72  2  0
 62 67  1  0
 63 73  1  0
 64 70  1  0
 65 71  1  0
 66 64  1  0
 66 65  1  0
 67 66  2  0
 68 62  2  0
 68 69  1  0
 69 64  2  0
 70 63  1  0
 71 63  1  0
 71 61  1  0
 73 74  1  0
 73 75  2  0
 76 74  1  0
 77 86  1  0
 78 74  1  0
 78 79  1  0
 78 82  1  0
 80 79  1  0
 80 81  1  0
 81 77  1  0
 82 83  1  0
 82 77  2  0
 83 84  2  0
 84 85  1  0
 86 85  2  0
 87 61  1  0
 87 88  1  0
 88 89  1  1
 88 90  1  0
 91 88  1  0
 92 87  1  0
 92 95  1  0
 93 92  1  0
 94 93  2  0
 97 96  1  0
 97 93  1  0
 99 98  1  0
 99 97  1  0
100 99  1  0
M  ISO  4  15 100  23 100  59 101  60 101
M  END
>  <TORSDO>  (15) 
F 26

>  <SCORE>  (15) 
2.009

>  <name>  (15) 
16

>  <ligand_id>  (15) 
16

>  <original_smiles>  (15) 
[H]c1c([H])c([H])c2c(c1[H])C([H])([H])C([H])([H])C([H])([H])C2([H])N([H])C(=O)C1([H])N(C(=O)C([H])(N([H])C(=O)C([H])(N([H])C([H])([H])[H])C([H])([H])[H])C(C([H])([H])[H])(C([H])([H])[H])C([H])([H])[H])C([H])([H])c2c([H])c(OC([H])([H])C([H])([H])OC([H])([H])C([H])([H])OC([H])([H])C(=O)N([H])C([H])([H])C([H])([H])C(=O)N3C([H])([H])C([H])([H])C([H])(N([H])C(=O)N4C([H])([H])C([H])([H])C([H])([H])C([H])(n5nc(-c6c([H])c([H])c(Oc7c([H])c([H])c(F)c([H])c7F)c([H])c6[H])c(C(=O)N([H])[H])c5N([H])[H])C4([H])[H])C([H])([H])C3([H])[H])c([H])c([H])c2C1([H])[H]

>  <smiles>  (15) 
[H]c1c([H])c([H])c2c(c1[H])C([H])([H])C([H])([H])C([H])([H])C2([H])N([H])C(=O)C1([H])N(C(=O)C([H])(N([H])C(=O)C([H])(N([H])C([H])([H])[H])C([H])([H])[H])C(C([H])([H])[H])(C([H])([H])[H])C([H])([H])[H])C([H])([H])c2c([H])c(OC([H])([H])C([H])([H])OC([H])([H])C([H])([H])OC([H])([H])C(=O)N([H])C([H])([H])C([H])([H])C(=O)N3C([H])([H])C([H])([H])C([H])(N([H])C(=O)N4C([H])([H])C([H])([H])C([H])([H])C([H])(n5nc(-c6c([H])c([H])c(Oc7c([H])c([H])c(F)c([H])c7F)c([H])c6[H])c(C(=O)N([H])[H])c5N([H])[H])C4([H])[H])C([H])([H])C3([H])[H])c([H])c([H])c2C1([H])[H]

$$$$
17:0:0
     RDKit          3D

113120  0  0  1  0  0  0  0  0999 V2000
  -27.3950  -18.2320   18.3800 C   0  0  0  0  0  2  0  0  0  0  0  0
  -26.5680  -19.4430   18.1530 N   0  0  0  0  0  4  0  0  0  0  0  0
  -26.2080  -19.3950   17.2130 H   0  0  0  0  0  0  0  0  0  0  0  0
  -25.7690  -19.4340   18.7630 H   0  0  0  0  0  0  0  0  0  0  0  0
  -27.2660  -20.7400   18.2900 C   0  0  0  0  0  2  0  0  0  0  0  0
  -26.5740  -21.6480   19.3270 C   0  0  0  0  0  2  0  0  0  0  0  0
  -27.4050  -22.9020   19.6530 C   0  0  0  0  0  2  0  0  0  0  0  0
  -28.4600  -22.6100   20.7370 C   0  0  0  0  0  2  0  0  0  0  0  0
  -30.6070  -23.6790   20.0990 C   0  0  0  0  0  0  0  0  0  0  0  0
  -29.4790  -23.6450   20.8160 N   0  0  0  0  0  0  0  0  0  0  0  0
  -30.8570  -22.8700   19.2060 O   0  0  0  0  0  0  0  0  0  0  0  0
  -29.3480  -24.3820   21.5010 H   0  0  0  0  0  0  0  0  0  0  0  0
  -31.6060  -24.7980   20.4420 C   0  0  0  0  0  2  0  0  0  0  0  0
  -31.4340  -25.9580   19.6210 O   0  0  0  0  0  0  0  0  0  0  0  0
  -30.2500  -26.7410   19.8020 C   0  0  0  0  0  2  0  0  0  0  0  0
  -30.3160  -27.7220   20.9930 C   0  0  0  0  0  2  0  0  0  0  0  0
  -30.0720  -27.0040   22.2000 O   0  0  0  0  0  0  0  0  0  0  0  0
  -28.1090  -32.5540   26.2390 C   0  0  0  0  0  0  0  0  0  0  0  0
  -29.1690  -27.5700   23.0650 C   0  0  0  0  0  0  0  0  0  0  0  0
  -26.8290  -30.4610   26.5620 C   0  0  0  0  0  3  0  0  0  0  0  0
  -27.2500  -28.6320   24.8350 C   0  0  0  0  0  0  0  0  0  0  0  0
  -27.9360  -30.9830   24.3160 C   0  0  0  0  0  2  0  0  0  0  0  0
  -28.0900  -29.4910   24.1140 C   0  0  0  0  0  0  0  0  0  0  0  0
  -29.0500  -28.9670   23.2230 C   0  0  0  0  0  3  0  0  0  0  0  0
  -28.3430  -26.7140   23.8160 C   0  0  0  0  0  3  0  0  0  0  0  0
  -27.3740  -27.2380   24.6940 C   0  0  0  0  0  3  0  0  0  0  0  0
  -26.2340  -29.2790   25.7490 C   0  0  0  0  0  2  0  0  0  0  0  0
  -27.6730  -31.3730   25.7210 N   0  0  0  0  0  0  0  0  0  0  0  0
  -27.7870  -32.9120   27.3790 O   0  0  0  0  0  0  0  0  0  0  0  0
  -27.5790  -29.8880   27.7840 C   0  0  0  0  0  0  0  0  0  0  0  0
  -26.8500  -29.6880   28.8940 N   0  0  0  0  0  0  0  0  0  0  0  0
  -28.7790  -29.6050   27.7140 O   0  0  0  0  0  0  0  0  0  0  0  0
  -25.8740  -29.9520   28.8710 H   0  0  0  0  0  0  0  0  0  0  0  0
  -25.9490  -29.0430   32.3310 C   0  0  0  0  0  0  0  0  0  0  0  0
  -27.3340  -29.1200   30.1510 C   0  0  0  0  0  3  0  0  0  0  0  0
  -27.2210  -27.5780   30.1450 C   0  0  0  0  0  2  0  0  0  0  0  0
  -25.9110  -27.0670   30.7530 C   0  0  0  0  0  2  0  0  0  0  0  0
  -25.7710  -27.5400   32.2020 C   0  0  0  0  0  2  0  0  0  0  0  0
  -26.6700  -29.7870   31.3610 C   0  0  0  0  0  0  0  0  0  0  0  0
  -26.7770  -31.1860   31.5100 C   0  0  0  0  0  3  0  0  0  0  0  0
  -26.1820  -31.8410   32.6050 C   0  0  0  0  0  3  0  0  0  0  0  0
  -25.4820  -31.0980   33.5710 C   0  0  0  0  0  3  0  0  0  0  0  0
  -25.3720  -29.7030   33.4360 C   0  0  0  0  0  3  0  0  0  0  0  0
  -29.0170  -33.5220   25.4140 C   0  0  0  0  0  3  0  0  0  0  0  0
  -30.4980  -33.6000   25.9540 C   0  0  1  0  0  0  0  0  0  0  0  0
  -30.5930  -33.8370   27.4790 C   0  0  0  0  0  1  0  0  0  0  0  0
  -31.2640  -32.2960   25.6300 C   0  0  0  0  0  1  0  0  0  0  0  0
  -31.2560  -34.7460   25.2430 C   0  0  0  0  0  1  0  0  0  0  0  0
  -28.3850  -34.8470   25.4400 N   0  0  0  0  0  0  0  0  0  0  0  0
  -27.7560  -35.4080   24.3970 C   0  0  0  0  0  0  0  0  0  0  0  0
  -27.7110  -34.8850   23.2790 O   0  0  0  0  0  0  0  0  0  0  0  0
  -28.3320  -35.3090   26.3360 H   0  0  0  0  0  0  0  0  0  0  0  0
  -25.5450  -36.5620   24.7150 C   0  0  0  0  0  1  0  0  0  0  0  0
  -27.0660  -36.7660   24.6320 C   0  0  0  0  0  3  0  0  0  0  0  0
  -28.7700  -38.2180   23.6230 C   0  0  0  0  0  1  0  0  0  0  0  0
  -27.3790  -37.7730   23.5940 N   0  0  0  0  0  0  0  0  0  0  0  0
  -26.7830  -38.5900   23.6960 H   0  0  0  0  0  0  0  0  0  0  0  0
  -27.8420  -18.0370   19.8500 C   0  0  0  0  0  2  0  0  0  0  0  0
  -28.3490  -16.6110   20.1420 C   0  0  0  0  0  2  0  0  0  0  0  0
  -28.6130  -16.3410   21.6340 C   0  0  0  0  0  2  0  0  0  0  0  0
  -27.6930  -13.9490   22.0410 C   0  0  0  0  0  3  0  0  0  0  0  0
  -26.3640  -14.1630   22.0900 N   0  0  0  0  0  0  0  0  0  0  0  0
  -28.6570  -14.8920   21.9160 N   0  0  0  0  0  0  0  0  0  0  0  0
  -28.0770  -12.6620   22.1290 N   0  0  0  0  0  0  0  0  0  0  0  0
  -25.7800  -13.3400   22.0230 H   0  0  0  0  0  0  0  0  0  0  0  0
  -29.6040  -14.5550   22.0170 H   0  0  0  0  0  0  0  0  0  0  0  0
  -27.3820  -11.9570   22.3360 H   0  0  0  0  0  0  0  0  0  0  0  0
  -25.2780  -16.1260   20.9690 C   0  0  0  0  0  1  0  0  0  0  0  0
  -25.5730  -15.3890   22.2800 C   0  0  0  0  0  2  0  0  0  0  0  0
  -29.4660  -12.1790   22.0480 C   0  0  0  0  0  2  0  0  0  0  0  0
  -29.6230  -10.6660   22.2720 C   0  0  0  0  0  2  0  0  0  0  0  0
  -31.0880  -10.2320   22.4970 C   0  0  0  0  0  2  0  0  0  0  0  0
  -32.0350  -10.4180   21.2940 C   0  0  0  0  0  2  0  0  0  0  0  0
  -33.0280  -11.5940   21.4180 C   0  0  0  0  0  2  0  0  0  0  0  0
  -32.3960  -13.0020   21.4660 C   0  0  0  0  0  2  0  0  0  0  0  0
  -31.1920  -12.6620   19.3660 C   0  0  0  0  0  0  0  0  0  0  0  0
  -30.2790  -10.9600   17.8440 C   0  0  0  0  0  2  0  0  0  0  0  0
  -29.2700  -11.5840   16.8670 C   0  0  0  0  0  2  0  0  0  0  0  0
  -27.8590  -11.6130   17.4910 C   0  0  0  0  0  2  0  0  0  0  0  0
  -27.8480  -12.2020   18.9240 C   0  0  0  0  0  3  0  0  0  0  0  0
  -28.9580  -11.5780   19.7900 C   0  0  0  0  0  2  0  0  0  0  0  0
  -30.2420  -11.7500   19.0820 N   0  0  0  0  0  0  0  0  0  0  0  0
  -32.1240  -12.9570   18.6160 O   0  0  0  0  0  0  0  0  0  0  0  0
  -31.1870  -12.9940   20.6530 N   0  0  0  0  0  0  0  0  0  0  0  0
  -30.3630  -12.6740   21.1300 H   0  0  0  0  0  0  0  0  0  0  0  0
  -25.5760  -13.0340   19.7960 C   0  0  0  0  0  0  0  0  0  0  0  0
  -24.4990  -12.3800   20.3260 C   0  0  0  0  0  0  0  0  0  0  0  0
  -24.8550  -11.0000   20.3520 C   0  0  0  0  0  0  0  0  0  0  0  0
  -26.5330  -12.0610   19.5450 N   0  0  0  0  0  0  0  0  0  0  0  0
  -26.1020  -10.8320   19.9270 N   0  0  0  0  0  0  0  0  0  0  0  0
  -24.0580   -9.8210   20.7070 C   0  0  0  0  0  0  0  0  0  0  0  0
  -24.4990   -8.9070   21.6890 C   0  0  0  0  0  3  0  0  0  0  0  0
  -23.7090   -7.7890   22.0270 C   0  0  0  0  0  3  0  0  0  0  0  0
  -22.4650   -7.5800   21.3880 C   0  0  0  0  0  0  0  0  0  0  0  0
  -22.0420   -8.4790   20.3930 C   0  0  0  0  0  3  0  0  0  0  0  0
  -22.8310   -9.5890   20.0510 C   0  0  0  0  0  3  0  0  0  0  0  0
  -21.6390   -6.5100   21.6320 O   0  0  0  0  0  0  0  0  0  0  0  0
  -21.6470   -5.8570   22.8370 C   0  0  0  0  0  0  0  0  0  0  0  0
  -21.2840   -6.5040   24.0380 C   0  0  0  0  0  3  0  0  0  0  0  0
  -21.2400   -5.7770   25.2450 C   0  0  0  0  0  3  0  0  0  0  0  0
  -21.5490   -4.4040   25.2520 C   0  0  0  0  0  0  0  0  0  0  0  0
  -21.9100   -3.7560   24.0580 C   0  0  0  0  0  3  0  0  0  0  0  0
  -21.9560   -4.4810   22.8540 C   0  0  0  0  0  0  0  0  0  0  0  0
  -22.2810   -3.8490   21.7000 F   0  0  0  0  0  0  0  0  0  0  0  0
  -21.5030   -3.7020   26.4100 F   0  0  0  0  0  0  0  0  0  0  0  0
  -23.1810  -12.9960   20.6960 C   0  0  0  0  0  0  0  0  0  0  0  0
  -22.5220  -12.4600   21.7160 N   0  0  0  0  0  0  0  0  0  0  0  0
  -22.7520  -13.9900   20.1110 O   0  0  0  0  0  0  0  0  0  0  0  0
  -22.8930  -11.6570   22.2040 H   0  0  0  0  0  0  0  0  0  0  0  0
  -21.6390  -12.8560   22.0110 H   0  0  0  0  0  0  0  0  0  0  0  0
  -25.8190  -14.3610   19.4960 N   0  0  0  0  0  0  0  0  0  0  0  0
  -25.1260  -15.0770   19.6800 H   0  0  0  0  0  0  0  0  0  0  0  0
  -26.6980  -14.7090   19.1480 H   0  0  0  0  0  0  0  0  0  0  0  0
  1 58  1  0
  2  5  1  0
  2  1  1  0
  2  4  1  0
  3  2  1  0
  5  6  1  0
  6  7  1  0
  7  8  1  0
  8 10  1  0
  9 13  1  0
  9 10  1  0
 10 12  1  0
 11  9  2  0
 14 15  1  0
 14 13  1  0
 15 16  1  0
 16 17  1  0
 17 19  1  0
 18 29  2  0
 19 24  2  0
 19 25  1  0
 20 30  1  0
 21 27  1  0
 22 28  1  0
 23 22  1  0
 23 21  2  0
 24 23  1  0
 25 26  2  0
 26 21  1  0
 27 20  1  0
 28 18  1  0
 28 20  1  0
 30 31  1  0
 32 30  2  0
 33 31  1  0
 34 43  1  0
 35 31  1  0
 35 39  1  0
 36 35  1  0
 36 37  1  0
 37 38  1  0
 38 34  1  0
 39 40  1  0
 39 34  2  0
 40 41  2  0
 41 42  1  0
 43 42  2  0
 44 49  1  0
 44 45  1  0
 44 18  1  0
 45 46  1  1
 47 45  1  0
 48 45  1  0
 49 52  1  0
 50 54  1  0
 50 49  1  0
 51 50  2  0
 54 53  1  0
 56 55  1  0
 56 57  1  0
 56 54  1  0
 58 59  1  0
 59 60  1  0
 60 63  1  0
 61 63  1  0
 61 62  1  0
 61 64  1  0
 62 69  1  0
 63 66  1  0
 64 67  1  0
 65 62  1  0
 68 69  1  0
 70 64  1  0
 70 71  1  0
 71 72  1  0
 73 74  1  0
 73 72  1  0
 74 75  1  0
 76 84  1  0
 77 82  1  0
 78 79  1  0
 78 77  1  0
 80 79  1  0
 80 89  1  0
 80 81  1  0
 82 76  1  0
 82 81  1  0
 83 76  2  0
 84 85  1  0
 84 75  1  0
 86 87  2  0
 87 88  1  0
 87106  1  0
 88 91  1  0
 89 86  1  0
 89 90  1  0
 90 88  2  0
 91 92  1  0
 92 93  2  0
 94 97  1  0
 94 93  1  0
 95 94  2  0
 96 95  1  0
 96 91  2  0
 97 98  1  0
 98103  2  0
 98 99  1  0
 99100  2  0
100101  1  0
101105  1  0
102101  2  0
103102  1  0
104103  1  0
106107  1  0
107110  1  0
107109  1  0
108106  2  0
111112  1  0
111 86  1  0
113111  1  0
M  ISO  4  16 101  17 101  76 100  84 100
M  END
>  <TORSDO>  (16) 
F 37

>  <SCORE>  (16) 
-0.914

>  <name>  (16) 
17

>  <ligand_id>  (16) 
17

>  <original_smiles>  (16) 
[H]c1c([H])c([H])c2c(c1[H])C([H])([H])C([H])([H])C([H])([H])C2([H])N([H])C(=O)C1([H])N(C(=O)C([H])(N([H])C(=O)C([H])(N([H])C([H])([H])[H])C([H])([H])[H])C(C([H])([H])[H])(C([H])([H])[H])C([H])([H])[H])C([H])([H])c2c([H])c(OC([H])([H])C([H])([H])OC([H])([H])C(=O)N([H])C([H])([H])C([H])([H])C([H])([H])C([H])([H])[N+]([H])([H])C([H])([H])C([H])([H])C([H])([H])C([H])([H])N([H])C(N([H])C([H])([H])C([H])([H])[H])=[N+]([H])C([H])([H])C([H])([H])C([H])([H])C([H])([H])C([H])([H])C([H])([H])N([H])C(=O)N3C([H])([H])C([H])([H])C([H])([H])C([H])(n4nc(-c5c([H])c([H])c(Oc6c([H])c([H])c(F)c([H])c6F)c([H])c5[H])c(C(=O)N([H])[H])c4N([H])[H])C3([H])[H])c([H])c([H])c2C1([H])[H]

>  <smiles>  (16) 
[H]c1c([H])c([H])c2c(c1[H])C([H])([H])C([H])([H])C([H])([H])C2([H])N([H])C(=O)C1([H])N(C(=O)C([H])(N([H])C(=O)C([H])(N([H])C([H])([H])[H])C([H])([H])[H])C(C([H])([H])[H])(C([H])([H])[H])C([H])([H])[H])C([H])([H])c2c([H])c(OC([H])([H])C([H])([H])OC([H])([H])C(=O)N([H])C([H])([H])C([H])([H])C([H])([H])C([H])([H])[N+]([H])([H])C([H])([H])C([H])([H])C([H])([H])C([H])([H])N([H])C(N([H])C([H])([H])C([H])([H])[H])=[N+]([H])C([H])([H])C([H])([H])C([H])([H])C([H])([H])C([H])([H])C([H])([H])N([H])C(=O)N3C([H])([H])C([H])([H])C([H])([H])C([H])(n4nc(-c5c([H])c([H])c(Oc6c([H])c([H])c(F)c([H])c6F)c([H])c5[H])c(C(=O)N([H])[H])c4N([H])[H])C3([H])[H])c([H])c([H])c2C1([H])[H]

$$$$
18:0:0
     RDKit          3D

 99106  0  0  1  0  0  0  0  0999 V2000
  -29.9890  -23.2100   22.9340 C   0  0  0  0  0  2  0  0  0  0  0  0
  -29.1280  -25.3870   22.5130 C   0  0  0  0  0  0  0  0  0  0  0  0
  -30.1300  -24.5930   22.5160 N   0  0  0  0  0  0  0  0  0  0  0  0
  -27.6940  -25.0570   22.9490 C   0  0  0  0  0  2  0  0  0  0  0  0
  -25.7870  -26.0160   24.3070 C   0  0  0  0  0  1  0  0  0  0  0  0
  -28.1380  -26.6750   24.9590 C   0  0  0  0  0  1  0  0  0  0  0  0
  -27.2570  -25.5590   24.3550 C   0  0  0  0  0  3  0  0  0  0  0  0
  -29.3070  -26.8170   22.0190 C   0  0  0  0  0  2  0  0  0  0  0  0
  -28.4270  -27.1310   20.7930 C   0  0  0  0  0  2  0  0  0  0  0  0
  -28.1340  -28.5240   20.7340 O   0  0  0  0  0  0  0  0  0  0  0  0
  -28.3120  -32.2640   26.7730 C   0  0  0  0  0  0  0  0  0  0  0  0
  -27.4380  -29.0320   21.7990 C   0  0  0  0  0  0  0  0  0  0  0  0
  -26.1600  -31.1470   26.2600 C   0  0  0  0  0  3  0  0  0  0  0  0
  -25.9610  -30.1600   23.9170 C   0  0  0  0  0  0  0  0  0  0  0  0
  -27.7450  -31.8530   24.3830 C   0  0  0  0  0  2  0  0  0  0  0  0
  -27.2170  -30.6840   23.5820 C   0  0  0  0  0  0  0  0  0  0  0  0
  -27.9540  -30.1300   22.5170 C   0  0  0  0  0  3  0  0  0  0  0  0
  -26.1810  -28.5010   22.1510 C   0  0  0  0  0  3  0  0  0  0  0  0
  -25.4360  -29.0650   23.2070 C   0  0  0  0  0  3  0  0  0  0  0  0
  -25.2280  -30.8310   25.0580 C   0  0  0  0  0  2  0  0  0  0  0  0
  -27.4630  -31.7580   25.8340 N   0  0  0  0  0  0  0  0  0  0  0  0
  -28.0060  -32.2690   27.9740 O   0  0  0  0  0  0  0  0  0  0  0  0
  -26.3350  -29.8630   27.1000 C   0  0  0  0  0  0  0  0  0  0  0  0
  -25.5360  -29.7360   28.1690 N   0  0  0  0  0  0  0  0  0  0  0  0
  -27.1470  -28.9930   26.7680 O   0  0  0  0  0  0  0  0  0  0  0  0
  -24.9050  -30.4990   28.3790 H   0  0  0  0  0  0  0  0  0  0  0  0
  -24.2280  -28.5990   31.3380 C   0  0  0  0  0  0  0  0  0  0  0  0
  -25.4950  -28.5980   29.0850 C   0  0  0  0  0  3  0  0  0  0  0  0
  -24.4590  -27.5480   28.6190 C   0  0  0  0  0  2  0  0  0  0  0  0
  -23.0790  -27.7410   29.2520 C   0  0  0  0  0  2  0  0  0  0  0  0
  -23.1730  -27.6600   30.7790 C   0  0  0  0  0  2  0  0  0  0  0  0
  -25.3090  -29.0510   30.5380 C   0  0  0  0  0  0  0  0  0  0  0  0
  -26.2440  -29.9500   31.0950 C   0  0  0  0  0  3  0  0  0  0  0  0
  -26.1160  -30.3890   32.4250 C   0  0  0  0  0  3  0  0  0  0  0  0
  -25.0530  -29.9270   33.2190 C   0  0  0  0  0  3  0  0  0  0  0  0
  -24.1130  -29.0330   32.6750 C   0  0  0  0  0  3  0  0  0  0  0  0
  -29.6920  -32.8800   26.3840 C   0  0  0  0  0  3  0  0  0  0  0  0
  -29.6970  -34.2750   26.8460 N   0  0  0  0  0  0  0  0  0  0  0  0
  -29.5810  -35.3420   26.0430 C   0  0  0  0  0  0  0  0  0  0  0  0
  -29.5270  -35.2520   24.8140 O   0  0  0  0  0  0  0  0  0  0  0  0
  -29.6690  -34.4170   27.8450 H   0  0  0  0  0  0  0  0  0  0  0  0
  -28.0540  -37.2180   26.7380 C   0  0  0  0  0  1  0  0  0  0  0  0
  -29.5110  -36.7280   26.7120 C   0  0  0  0  0  3  0  0  0  0  0  0
  -31.7920  -37.4860   26.2120 C   0  0  0  0  0  1  0  0  0  0  0  0
  -30.3640  -37.7410   26.0520 N   0  0  0  0  0  0  0  0  0  0  0  0
  -30.1670  -38.6710   26.4140 H   0  0  0  0  0  0  0  0  0  0  0  0
  -30.9180  -32.0860   26.9800 C   0  0  1  0  0  0  0  0  0  0  0  0
  -30.7900  -31.7860   28.4920 C   0  0  0  0  0  1  0  0  0  0  0  0
  -31.1040  -30.7390   26.2420 C   0  0  0  0  0  1  0  0  0  0  0  0
  -32.2200  -32.8930   26.7650 C   0  0  0  0  0  1  0  0  0  0  0  0
  -31.2750  -22.4330   22.6060 C   0  0  0  0  0  2  0  0  0  0  0  0
  -30.9470  -21.3310   21.7680 O   0  0  0  0  0  0  0  0  0  0  0  0
  -32.0900  -20.6090   21.3370 C   0  0  0  0  0  2  0  0  0  0  0  0
  -31.8480  -19.9920   19.9490 C   0  0  0  0  0  2  0  0  0  0  0  0
  -30.8840  -18.7850   19.9340 C   0  0  0  0  0  2  0  0  0  0  0  0
  -29.4490  -19.1110   20.3800 C   0  0  0  0  0  2  0  0  0  0  0  0
  -28.9000  -20.0600   19.4790 O   0  0  0  0  0  0  0  0  0  0  0  0
  -27.6550  -20.5890   19.9010 C   0  0  0  0  0  2  0  0  0  0  0  0
  -27.1730  -21.5030   18.7720 C   0  0  0  0  0  2  0  0  0  0  0  0
  -25.8160  -22.1800   19.0260 C   0  0  0  0  0  2  0  0  0  0  0  0
  -25.2780  -22.7520   17.7080 C   0  0  0  0  0  2  0  0  0  0  0  0
  -23.1970  -23.4730   16.6380 C   0  0  0  0  0  0  0  0  0  0  0  0
  -21.0420  -23.2410   15.4780 C   0  0  0  0  0  2  0  0  0  0  0  0
  -20.3060  -24.5750   15.2820 C   0  0  0  0  0  2  0  0  0  0  0  0
  -19.4400  -24.8910   16.5120 C   0  0  0  0  0  2  0  0  0  0  0  0
  -20.2360  -24.7820   17.8380 C   0  0  0  0  0  3  0  0  0  0  0  0
  -21.0240  -23.4550   17.9130 C   0  0  0  0  0  2  0  0  0  0  0  0
  -21.8530  -23.3200   16.7010 N   0  0  0  0  0  0  0  0  0  0  0  0
  -23.8000  -23.7390   15.5930 O   0  0  0  0  0  0  0  0  0  0  0  0
  -23.8610  -23.0960   17.7380 N   0  0  0  0  0  0  0  0  0  0  0  0
  -23.3160  -22.8370   18.5480 H   0  0  0  0  0  0  0  0  0  0  0  0
  -18.9190  -26.1190   19.6050 C   0  0  0  0  0  0  0  0  0  0  0  0
  -18.0660  -25.7260   20.5990 C   0  0  0  0  0  0  0  0  0  0  0  0
  -18.0210  -24.3000   20.5410 C   0  0  0  0  0  0  0  0  0  0  0  0
  -19.3600  -24.9540   18.9960 N   0  0  0  0  0  0  0  0  0  0  0  0
  -18.8490  -23.8510   19.6060 N   0  0  0  0  0  0  0  0  0  0  0  0
  -17.1970  -23.3370   21.2840 C   0  0  0  0  0  0  0  0  0  0  0  0
  -17.7790  -22.3480   22.1080 C   0  0  0  0  0  3  0  0  0  0  0  0
  -16.9650  -21.4450   22.8260 C   0  0  0  0  0  3  0  0  0  0  0  0
  -15.5570  -21.5280   22.7290 C   0  0  0  0  0  0  0  0  0  0  0  0
  -14.9830  -22.5000   21.8920 C   0  0  0  0  0  3  0  0  0  0  0  0
  -15.7930  -23.3950   21.1730 C   0  0  0  0  0  3  0  0  0  0  0  0
  -14.6880  -20.6760   23.3690 O   0  0  0  0  0  0  0  0  0  0  0  0
  -14.9610  -20.1720   24.6160 C   0  0  0  0  0  0  0  0  0  0  0  0
  -15.1910  -21.0160   25.7250 C   0  0  0  0  0  3  0  0  0  0  0  0
  -15.3990  -20.4560   27.0020 C   0  0  0  0  0  3  0  0  0  0  0  0
  -15.3680  -19.0590   27.1740 C   0  0  0  0  0  0  0  0  0  0  0  0
  -15.1330  -18.2190   26.0710 C   0  0  0  0  0  3  0  0  0  0  0  0
  -14.9270  -18.7760   24.7970 C   0  0  0  0  0  0  0  0  0  0  0  0
  -14.6800  -17.9620   23.7400 F   0  0  0  0  0  0  0  0  0  0  0  0
  -15.5590  -18.5220   28.4010 F   0  0  0  0  0  0  0  0  0  0  0  0
  -17.2610  -26.6230   21.4960 C   0  0  0  0  0  0  0  0  0  0  0  0
  -16.9400  -26.1610   22.6990 N   0  0  0  0  0  0  0  0  0  0  0  0
  -16.9510  -27.7630   21.1490 O   0  0  0  0  0  0  0  0  0  0  0  0
  -17.2110  -25.2340   22.9920 H   0  0  0  0  0  0  0  0  0  0  0  0
  -16.4160  -26.7430   23.3370 H   0  0  0  0  0  0  0  0  0  0  0  0
  -19.3430  -27.3660   19.1550 N   0  0  0  0  0  0  0  0  0  0  0  0
  -18.9950  -28.2320   19.5510 H   0  0  0  0  0  0  0  0  0  0  0  0
  -19.9730  -27.5110   18.3750 H   0  0  0  0  0  0  0  0  0  0  0  0
  2  3  2  0
  2  4  1  0
  3  1  1  0
  4  7  1  0
  5  7  1  0
  7  6  1  0
  8  2  1  0
  9  8  1  0
 10  9  1  0
 10 12  1  0
 11 22  2  0
 12 18  2  0
 12 17  1  0
 13 23  1  0
 14 20  1  0
 15 21  1  0
 16 14  1  0
 16 15  1  0
 17 16  2  0
 18 19  1  0
 19 14  2  0
 20 13  1  0
 21 13  1  0
 21 11  1  0
 23 24  1  0
 24 26  1  0
 25 23  2  0
 27 36  1  0
 28 24  1  0
 28 32  1  0
 29 28  1  0
 29 30  1  0
 30 31  1  0
 31 27  1  0
 32 33  1  0
 32 27  2  0
 33 34  2  0
 34 35  1  0
 36 35  2  0
 37 11  1  0
 37 38  1  0
 37 47  1  0
 38 41  1  0
 39 43  1  0
 39 38  1  0
 40 39  2  0
 43 42  1  0
 45 44  1  0
 45 46  1  0
 45 43  1  0
 47 48  1  1
 49 47  1  0
 50 47  1  0
 51  1  1  0
 52 51  1  0
 53 52  1  0
 54 53  1  0
 55 54  1  0
 55 56  1  0
 57 58  1  0
 57 56  1  0
 59 60  1  0
 59 58  1  0
 61 70  1  0
 61 60  1  0
 62 68  1  0
 62 70  1  0
 63 68  1  0
 64 63  1  0
 64 65  1  0
 66 65  1  0
 66 67  1  0
 66 75  1  0
 68 67  1  0
 69 62  2  0
 70 71  1  0
 72 73  2  0
 73 92  1  0
 74 73  1  0
 74 77  1  0
 75 72  1  0
 75 76  1  0
 76 74  2  0
 77 78  1  0
 78 79  2  0
 80 79  1  0
 80 83  1  0
 81 80  2  0
 82 77  2  0
 82 81  1  0
 83 84  1  0
 84 89  2  0
 84 85  1  0
 85 86  2  0
 86 87  1  0
 87 91  1  0
 88 87  2  0
 89 88  1  0
 90 89  1  0
 92 93  1  0
 93 95  1  0
 93 96  1  0
 94 92  2  0
 97 98  1  0
 97 72  1  0
 99 97  1  0
M  ISO  4   9 101  10 101  62 100  70 100
M  END
>  <TORSDO>  (17) 
F 32

>  <SCORE>  (17) 
-5.247

>  <name>  (17) 
18

>  <ligand_id>  (17) 
18

>  <original_smiles>  (17) 
[H]c1c([H])c([H])c2c(c1[H])C([H])([H])C([H])([H])C([H])([H])C2([H])N([H])C(=O)C1([H])N(C(=O)C([H])(N([H])C(=O)C([H])(N([H])C([H])([H])[H])C([H])([H])[H])C(C([H])([H])[H])(C([H])([H])[H])C([H])([H])[H])C([H])([H])c2c([H])c(OC([H])([H])C([H])([H])C(=NC([H])([H])C([H])([H])OC([H])([H])C([H])([H])C([H])([H])C([H])([H])OC([H])([H])C([H])([H])C([H])([H])C([H])([H])N([H])C(=O)N3C([H])([H])C([H])([H])C([H])([H])C([H])(n4nc(-c5c([H])c([H])c(Oc6c([H])c([H])c(F)c([H])c6F)c([H])c5[H])c(C(=O)N([H])[H])c4N([H])[H])C3([H])[H])C([H])([H])C([H])(C([H])([H])[H])C([H])([H])[H])c([H])c([H])c2C1([H])[H]

>  <smiles>  (17) 
[H]c1c([H])c([H])c2c(c1[H])C([H])([H])C([H])([H])C([H])([H])C2([H])N([H])C(=O)C1([H])N(C(=O)C([H])(N([H])C(=O)C([H])(N([H])C([H])([H])[H])C([H])([H])[H])C(C([H])([H])[H])(C([H])([H])[H])C([H])([H])[H])C([H])([H])c2c([H])c(OC([H])([H])C([H])([H])C(=NC([H])([H])C([H])([H])OC([H])([H])C([H])([H])C([H])([H])C([H])([H])OC([H])([H])C([H])([H])C([H])([H])C([H])([H])N([H])C(=O)N3C([H])([H])C([H])([H])C([H])([H])C([H])(n4nc(-c5c([H])c([H])c(Oc6c([H])c([H])c(F)c([H])c6F)c([H])c5[H])c(C(=O)N([H])[H])c4N([H])[H])C3([H])[H])C([H])([H])C([H])(C([H])([H])[H])C([H])([H])[H])c([H])c([H])c2C1([H])[H]

$$$$
19:0:0
     RDKit          3D

 94101  0  0  1  0  0  0  0  0999 V2000
  -27.0780  -20.6510   17.8150 C   0  0  0  0  0  0  0  0  0  0  0  0
  -26.8790  -21.6710   18.6520 N   0  0  0  0  0  0  0  0  0  0  0  0
  -27.4020  -20.8060   16.6350 O   0  0  0  0  0  0  0  0  0  0  0  0
  -26.5950  -21.4250   19.5910 H   0  0  0  0  0  0  0  0  0  0  0  0
  -26.8820  -19.2510   18.4200 C   0  0  0  0  0  2  0  0  0  0  0  0
  -27.4940  -18.2660   17.5920 O   0  0  0  0  0  0  0  0  0  0  0  0
  -27.7010  -17.0240   18.2530 C   0  0  0  0  0  2  0  0  0  0  0  0
  -29.1470  -16.9480   18.7830 C   0  0  0  0  0  2  0  0  0  0  0  0
  -29.2290  -17.3710   20.1430 O   0  0  0  0  0  0  0  0  0  0  0  0
  -30.5470  -17.7400   20.5510 C   0  0  0  0  0  2  0  0  0  0  0  0
  -30.8510  -17.1250   21.9330 C   0  0  0  0  0  2  0  0  0  0  0  0
  -31.1290  -14.7590   21.3090 C   0  0  0  0  0  0  0  0  0  0  0  0
  -30.8180  -12.7730   19.8980 C   0  0  0  0  0  2  0  0  0  0  0  0
  -30.0290  -13.1650   18.6300 C   0  0  0  0  0  2  0  0  0  0  0  0
  -28.5110  -13.1220   18.8880 C   0  0  0  0  0  2  0  0  0  0  0  0
  -28.0840  -13.8310   20.2030 C   0  0  0  0  0  3  0  0  0  0  0  0
  -28.9980  -13.4180   21.3750 C   0  0  0  0  0  2  0  0  0  0  0  0
  -30.3960  -13.6670   20.9850 N   0  0  0  0  0  0  0  0  0  0  0  0
  -32.2800  -14.9560   20.9090 O   0  0  0  0  0  0  0  0  0  0  0  0
  -30.4650  -15.7160   21.9590 N   0  0  0  0  0  0  0  0  0  0  0  0
  -29.5290  -15.5010   22.2690 H   0  0  0  0  0  0  0  0  0  0  0  0
  -25.6320  -14.5040   20.6310 C   0  0  0  0  0  0  0  0  0  0  0  0
  -24.5080  -13.7600   20.8580 C   0  0  0  0  0  0  0  0  0  0  0  0
  -24.9350  -12.3960   20.8680 C   0  0  0  0  0  0  0  0  0  0  0  0
  -26.6730  -13.5970   20.5110 N   0  0  0  0  0  0  0  0  0  0  0  0
  -26.2500  -12.3220   20.7110 N   0  0  0  0  0  0  0  0  0  0  0  0
  -24.1600  -11.1530   20.9590 C   0  0  0  0  0  0  0  0  0  0  0  0
  -24.4650  -10.1600   21.9160 C   0  0  0  0  0  3  0  0  0  0  0  0
  -23.6960   -8.9790   21.9950 C   0  0  0  0  0  3  0  0  0  0  0  0
  -22.6030   -8.7850   21.1160 C   0  0  0  0  0  0  0  0  0  0  0  0
  -22.3200   -9.7650   20.1470 C   0  0  0  0  0  3  0  0  0  0  0  0
  -23.0920  -10.9350   20.0680 C   0  0  0  0  0  3  0  0  0  0  0  0
  -21.8150   -7.6580   21.1050 O   0  0  0  0  0  0  0  0  0  0  0  0
  -21.6040   -6.9130   22.2390 C   0  0  0  0  0  0  0  0  0  0  0  0
  -21.0580   -7.4800   23.4120 C   0  0  0  0  0  3  0  0  0  0  0  0
  -20.7940   -6.6630   24.5290 C   0  0  0  0  0  3  0  0  0  0  0  0
  -21.0650   -5.2820   24.4740 C   0  0  0  0  0  0  0  0  0  0  0  0
  -21.6040   -4.7160   23.3060 C   0  0  0  0  0  3  0  0  0  0  0  0
  -21.8680   -5.5300   22.1890 C   0  0  0  0  0  0  0  0  0  0  0  0
  -22.3640   -4.9750   21.0570 F   0  0  0  0  0  0  0  0  0  0  0  0
  -20.8060   -4.4970   25.5460 F   0  0  0  0  0  0  0  0  0  0  0  0
  -23.1000  -14.2680   20.9750 C   0  0  0  0  0  0  0  0  0  0  0  0
  -22.2690  -13.5960   21.7600 N   0  0  0  0  0  0  0  0  0  0  0  0
  -22.7420  -15.3000   20.4050 O   0  0  0  0  0  0  0  0  0  0  0  0
  -22.5630  -12.7550   22.2340 H   0  0  0  0  0  0  0  0  0  0  0  0
  -21.3200  -13.9190   21.8810 H   0  0  0  0  0  0  0  0  0  0  0  0
  -25.8640  -15.8710   20.5060 N   0  0  0  0  0  0  0  0  0  0  0  0
  -25.1260  -16.5570   20.5980 H   0  0  0  0  0  0  0  0  0  0  0  0
  -26.7810  -16.2790   20.3840 H   0  0  0  0  0  0  0  0  0  0  0  0
  -26.9510  -23.0940   18.3430 C   0  0  0  0  0  2  0  0  0  0  0  0
  -28.3970  -23.6220   18.2820 C   0  0  0  0  0  2  0  0  0  0  0  0
  -28.4570  -25.1550   18.4010 C   0  0  0  0  0  2  0  0  0  0  0  0
  -28.3720  -25.6370   19.8610 C   0  0  0  0  0  2  0  0  0  0  0  0
  -28.3870  -27.0600   19.9520 O   0  0  0  0  0  0  0  0  0  0  0  0
  -24.5550  -32.0130   23.2850 C   0  0  0  0  0  0  0  0  0  0  0  0
  -27.1810  -27.7250   19.9910 C   0  0  0  0  0  0  0  0  0  0  0  0
  -23.3250  -30.6580   21.6220 C   0  0  0  0  0  3  0  0  0  0  0  0
  -24.7600  -29.1790   20.1210 C   0  0  0  0  0  0  0  0  0  0  0  0
  -25.8400  -31.0530   21.3750 C   0  0  0  0  0  2  0  0  0  0  0  0
  -25.9240  -29.7040   20.6950 C   0  0  0  0  0  0  0  0  0  0  0  0
  -27.1350  -28.9850   20.6260 C   0  0  0  0  0  3  0  0  0  0  0  0
  -25.9960  -27.2070   19.4130 C   0  0  0  0  0  3  0  0  0  0  0  0
  -24.7900  -27.9260   19.4820 C   0  0  0  0  0  3  0  0  0  0  0  0
  -23.5070  -30.0170   20.2190 C   0  0  0  0  0  2  0  0  0  0  0  0
  -24.5940  -31.2550   22.1510 N   0  0  0  0  0  0  0  0  0  0  0  0
  -23.4820  -32.2510   23.8590 O   0  0  0  0  0  0  0  0  0  0  0  0
  -22.7070  -29.5980   22.5620 C   0  0  0  0  0  0  0  0  0  0  0  0
  -21.3950  -29.3520   22.4090 N   0  0  0  0  0  0  0  0  0  0  0  0
  -23.4090  -28.9930   23.3780 O   0  0  0  0  0  0  0  0  0  0  0  0
  -20.8890  -29.8960   21.7250 H   0  0  0  0  0  0  0  0  0  0  0  0
  -18.0910  -27.9440   22.7770 C   0  0  0  0  0  0  0  0  0  0  0  0
  -20.6130  -28.3670   23.1560 C   0  0  0  0  0  3  0  0  0  0  0  0
  -20.8310  -26.9450   22.5930 C   0  0  0  0  0  2  0  0  0  0  0  0
  -19.7970  -26.5420   21.5390 C   0  0  0  0  0  2  0  0  0  0  0  0
  -18.3820  -26.6040   22.1200 C   0  0  0  0  0  2  0  0  0  0  0  0
  -19.1390  -28.7790   23.2470 C   0  0  0  0  0  0  0  0  0  0  0  0
  -18.8130  -30.0310   23.8120 C   0  0  0  0  0  3  0  0  0  0  0  0
  -17.4730  -30.4470   23.9180 C   0  0  0  0  0  3  0  0  0  0  0  0
  -16.4400  -29.6090   23.4620 C   0  0  0  0  0  3  0  0  0  0  0  0
  -16.7480  -28.3590   22.9000 C   0  0  0  0  0  3  0  0  0  0  0  0
  -25.8480  -32.6340   23.9010 C   0  0  0  0  0  3  0  0  0  0  0  0
  -26.3640  -31.8640   25.1790 C   0  0  1  0  0  0  0  0  0  0  0  0
  -25.2700  -31.6390   26.2480 C   0  0  0  0  0  1  0  0  0  0  0  0
  -26.9330  -30.4830   24.7820 C   0  0  0  0  0  1  0  0  0  0  0  0
  -27.5250  -32.6520   25.8340 C   0  0  0  0  0  1  0  0  0  0  0  0
  -25.5550  -34.0370   24.2290 N   0  0  0  0  0  0  0  0  0  0  0  0
  -25.9080  -35.0840   23.4710 C   0  0  0  0  0  0  0  0  0  0  0  0
  -26.5870  -34.9700   22.4460 O   0  0  0  0  0  0  0  0  0  0  0  0
  -24.9700  -34.2040   25.0340 H   0  0  0  0  0  0  0  0  0  0  0  0
  -24.2110  -36.8950   23.0780 C   0  0  0  0  0  1  0  0  0  0  0  0
  -25.4300  -36.4790   23.9150 C   0  0  0  0  0  3  0  0  0  0  0  0
  -27.5600  -37.3330   24.7890 C   0  0  0  0  0  1  0  0  0  0  0  0
  -26.4800  -37.5180   23.8220 N   0  0  0  0  0  0  0  0  0  0  0  0
  -26.0820  -38.4430   23.9610 H   0  0  0  0  0  0  0  0  0  0  0  0
  1  5  1  0
  1  2  1  0
  2  4  1  0
  3  1  2  0
  6  7  1  0
  6  5  1  0
  7  8  1  0
  8  9  1  0
  9 10  1  0
 10 11  1  0
 11 20  1  0
 12 20  1  0
 13 18  1  0
 14 15  1  0
 14 13  1  0
 16 15  1  0
 16 25  1  0
 16 17  1  0
 18 12  1  0
 18 17  1  0
 19 12  2  0
 20 21  1  0
 22 23  2  0
 23 24  1  0
 23 42  1  0
 24 27  1  0
 25 22  1  0
 25 26  1  0
 26 24  2  0
 27 28  1  0
 28 29  2  0
 30 29  1  0
 31 30  2  0
 32 31  1  0
 32 27  2  0
 33 30  1  0
 33 34  1  0
 34 35  1  0
 35 36  2  0
 37 36  1  0
 37 41  1  0
 38 37  2  0
 39 34  2  0
 39 38  1  0
 40 39  1  0
 42 43  1  0
 43 46  1  0
 43 45  1  0
 44 42  2  0
 47 48  1  0
 47 22  1  0
 49 47  1  0
 50  2  1  0
 51 50  1  0
 51 52  1  0
 52 53  1  0
 53 54  1  0
 54 56  1  0
 55 66  2  0
 56 61  1  0
 57 65  1  0
 57 67  1  0
 58 64  1  0
 58 60  1  0
 59 65  1  0
 60 59  1  0
 61 60  2  0
 62 63  1  0
 62 56  2  0
 63 58  2  0
 64 57  1  0
 65 55  1  0
 67 69  2  0
 68 67  1  0
 70 68  1  0
 71 80  2  0
 71 76  1  0
 72 68  1  0
 72 76  1  0
 73 72  1  0
 74 75  1  0
 74 73  1  0
 75 71  1  0
 76 77  2  0
 77 78  1  0
 79 78  2  0
 80 79  1  0
 81 55  1  0
 81 86  1  0
 81 82  1  0
 82 85  1  1
 82 83  1  0
 84 82  1  0
 86 89  1  0
 87 91  1  0
 87 86  1  0
 88 87  2  0
 91 90  1  0
 93 91  1  0
 93 94  1  0
 93 92  1  0
M  ISO  4  12 100  20 100  53 101  54 101
M  END
>  <TORSDO>  (18) 
F 27

>  <SCORE>  (18) 
-9.920

>  <name>  (18) 
19

>  <ligand_id>  (18) 
19

>  <original_smiles>  (18) 
[H]c1c([H])c([H])c2c(c1[H])C([H])([H])C([H])([H])C([H])([H])C2([H])N([H])C(=O)C1([H])N(C(=O)C([H])(N([H])C(=O)C([H])(N([H])C([H])([H])[H])C([H])([H])[H])C(C([H])([H])[H])(C([H])([H])[H])C([H])([H])[H])C([H])([H])c2c([H])c(OC([H])([H])C([H])([H])C([H])([H])C([H])([H])N([H])C(=O)C([H])([H])OC([H])([H])C([H])([H])OC([H])([H])C([H])([H])N([H])C(=O)N3C([H])([H])C([H])([H])C([H])([H])C([H])(n4nc(-c5c([H])c([H])c(Oc6c([H])c([H])c(F)c([H])c6F)c([H])c5[H])c(C(=O)N([H])[H])c4N([H])[H])C3([H])[H])c([H])c([H])c2C1([H])[H]

>  <smiles>  (18) 
[H]c1c([H])c([H])c2c(c1[H])C([H])([H])C([H])([H])C([H])([H])C2([H])N([H])C(=O)C1([H])N(C(=O)C([H])(N([H])C(=O)C([H])(N([H])C([H])([H])[H])C([H])([H])[H])C(C([H])([H])[H])(C([H])([H])[H])C([H])([H])[H])C([H])([H])c2c([H])c(OC([H])([H])C([H])([H])C([H])([H])C([H])([H])N([H])C(=O)C([H])([H])OC([H])([H])C([H])([H])OC([H])([H])C([H])([H])N([H])C(=O)N3C([H])([H])C([H])([H])C([H])([H])C([H])(n4nc(-c5c([H])c([H])c(Oc6c([H])c([H])c(F)c([H])c6F)c([H])c5[H])c(C(=O)N([H])[H])c4N([H])[H])C3([H])[H])c([H])c([H])c2C1([H])[H]

$$$$
20:0:0
     RDKit          3D

 99106  0  0  1  0  0  0  0  0999 V2000
  -32.4850  -25.2390   18.5430 C   0  0  0  0  0  2  0  0  0  0  0  0
  -32.2080  -24.8560   20.0030 C   0  0  0  0  0  0  0  0  0  0  0  0
  -31.6850  -23.6440   20.2240 N   0  0  0  0  0  0  0  0  0  0  0  0
  -32.3930  -25.6770   20.9010 O   0  0  0  0  0  0  0  0  0  0  0  0
  -31.5990  -23.0590   19.4050 H   0  0  0  0  0  0  0  0  0  0  0  0
  -31.0370  -23.1850   21.4530 C   0  0  0  0  0  2  0  0  0  0  0  0
  -29.5070  -23.3470   21.3250 C   0  0  0  0  0  2  0  0  0  0  0  0
  -29.0620  -24.8180   21.4280 C   0  0  0  0  0  2  0  0  0  0  0  0
  -27.9210  -25.2120   20.5050 C   0  0  0  0  0  2  0  0  0  0  0  0
  -28.2030  -26.5190   19.9970 O   0  0  0  0  0  0  0  0  0  0  0  0
  -24.5160  -31.6740   23.0620 C   0  0  0  0  0  0  0  0  0  0  0  0
  -27.0880  -27.3010   19.8880 C   0  0  0  0  0  0  0  0  0  0  0  0
  -23.4530  -30.0510   21.5290 C   0  0  0  0  0  3  0  0  0  0  0  0
  -24.7490  -28.8380   19.8190 C   0  0  0  0  0  0  0  0  0  0  0  0
  -25.8350  -30.7240   21.1400 C   0  0  0  0  0  2  0  0  0  0  0  0
  -25.9190  -29.3740   20.4010 C   0  0  0  0  0  0  0  0  0  0  0  0
  -27.0960  -28.5990   20.4310 C   0  0  0  0  0  3  0  0  0  0  0  0
  -25.9240  -26.7960   19.2670 C   0  0  0  0  0  3  0  0  0  0  0  0
  -24.7440  -27.5510   19.2530 C   0  0  0  0  0  3  0  0  0  0  0  0
  -23.4640  -29.6110   20.0490 C   0  0  0  0  0  2  0  0  0  0  0  0
  -24.5700  -30.9430   21.9160 N   0  0  0  0  0  0  0  0  0  0  0  0
  -23.4350  -31.9130   23.6220 O   0  0  0  0  0  0  0  0  0  0  0  0
  -22.5700  -29.2650   22.5180 C   0  0  0  0  0  0  0  0  0  0  0  0
  -21.2680  -29.1220   22.2590 N   0  0  0  0  0  0  0  0  0  0  0  0
  -23.0880  -28.6740   23.4780 O   0  0  0  0  0  0  0  0  0  0  0  0
  -20.8560  -29.6110   21.4760 H   0  0  0  0  0  0  0  0  0  0  0  0
  -17.8750  -27.9910   22.7720 C   0  0  0  0  0  0  0  0  0  0  0  0
  -20.4260  -28.1870   23.0090 C   0  0  0  0  0  3  0  0  0  0  0  0
  -20.5040  -26.7660   22.4010 C   0  0  0  0  0  2  0  0  0  0  0  0
  -19.3840  -26.4830   21.4000 C   0  0  0  0  0  2  0  0  0  0  0  0
  -18.0190  -26.6460   22.0710 C   0  0  0  0  0  2  0  0  0  0  0  0
  -19.0120  -28.7190   23.1980 C   0  0  0  0  0  0  0  0  0  0  0  0
  -18.8420  -29.9720   23.8200 C   0  0  0  0  0  3  0  0  0  0  0  0
  -17.5530  -30.5010   24.0210 C   0  0  0  0  0  3  0  0  0  0  0  0
  -16.4250  -29.7680   23.6130 C   0  0  0  0  0  3  0  0  0  0  0  0
  -16.5860  -28.5150   22.9940 C   0  0  0  0  0  3  0  0  0  0  0  0
  -25.8040  -32.2920   23.6870 C   0  0  0  0  0  3  0  0  0  0  0  0
  -25.4990  -33.6760   24.0650 N   0  0  0  0  0  0  0  0  0  0  0  0
  -25.8300  -34.7490   23.3370 C   0  0  0  0  0  0  0  0  0  0  0  0
  -26.4960  -34.6710   22.2990 O   0  0  0  0  0  0  0  0  0  0  0  0
  -24.9090  -33.8070   24.8720 H   0  0  0  0  0  0  0  0  0  0  0  0
  -24.1070  -36.5550   23.0390 C   0  0  0  0  0  1  0  0  0  0  0  0
  -25.3480  -36.1240   23.8370 C   0  0  0  0  0  3  0  0  0  0  0  0
  -27.4890  -36.9670   24.6900 C   0  0  0  0  0  1  0  0  0  0  0  0
  -26.3860  -37.1750   23.7590 N   0  0  0  0  0  0  0  0  0  0  0  0
  -25.9860  -38.0920   23.9400 H   0  0  0  0  0  0  0  0  0  0  0  0
  -26.3430  -31.4730   24.9240 C   0  0  1  0  0  0  0  0  0  0  0  0
  -25.2720  -31.2040   26.0050 C   0  0  0  0  0  1  0  0  0  0  0  0
  -26.9070  -30.1080   24.4680 C   0  0  0  0  0  1  0  0  0  0  0  0
  -27.5100  -32.2370   25.5920 C   0  0  0  0  0  1  0  0  0  0  0  0
  -31.8750  -24.3160   17.6320 O   0  0  0  0  0  0  0  0  0  0  0  0
  -30.4620  -24.4640   17.4390 C   0  0  0  0  0  2  0  0  0  0  0  0
  -30.0430  -23.5640   16.2670 C   0  0  0  0  0  0  0  0  0  0  0  0
  -30.0230  -22.2270   16.4170 N   0  0  0  0  0  0  0  0  0  0  0  0
  -29.8210  -24.0630   15.1660 O   0  0  0  0  0  0  0  0  0  0  0  0
  -29.9770  -21.7680   15.5210 H   0  0  0  0  0  0  0  0  0  0  0  0
  -29.3370  -21.4770   17.4720 C   0  0  0  0  0  2  0  0  0  0  0  0
  -30.1300  -20.2920   18.0900 C   0  0  0  0  0  2  0  0  0  0  0  0
  -29.1730  -19.1870   18.6000 C   0  0  0  0  0  2  0  0  0  0  0  0
  -29.6270  -18.1880   19.7080 C   0  0  0  0  0  2  0  0  0  0  0  0
  -30.1870  -16.8410   19.1910 C   0  0  0  0  0  2  0  0  0  0  0  0
  -30.6840  -14.6440   20.2860 C   0  0  0  0  0  0  0  0  0  0  0  0
  -30.4110  -12.4020   19.3870 C   0  0  0  0  0  2  0  0  0  0  0  0
  -29.5080  -12.5710   18.1510 C   0  0  0  0  0  2  0  0  0  0  0  0
  -28.0190  -12.4590   18.5490 C   0  0  0  0  0  2  0  0  0  0  0  0
  -27.6480  -13.3310   19.7780 C   0  0  0  0  0  3  0  0  0  0  0  0
  -28.7000  -13.2070   20.9080 C   0  0  0  0  0  2  0  0  0  0  0  0
  -30.0330  -13.4550   20.3300 N   0  0  0  0  0  0  0  0  0  0  0  0
  -31.8930  -14.7540   20.0640 O   0  0  0  0  0  0  0  0  0  0  0  0
  -29.8790  -15.6950   20.0760 N   0  0  0  0  0  0  0  0  0  0  0  0
  -28.8980  -15.5270   20.2610 H   0  0  0  0  0  0  0  0  0  0  0  0
  -25.2330  -13.9240   20.4450 C   0  0  0  0  0  0  0  0  0  0  0  0
  -24.1720  -13.1480   20.8120 C   0  0  0  0  0  0  0  0  0  0  0  0
  -24.6450  -11.7980   20.8120 C   0  0  0  0  0  0  0  0  0  0  0  0
  -26.2930  -13.0500   20.2480 N   0  0  0  0  0  0  0  0  0  0  0  0
  -25.9390  -11.7680   20.5250 N   0  0  0  0  0  0  0  0  0  0  0  0
  -23.9290  -10.5340   21.0080 C   0  0  0  0  0  0  0  0  0  0  0  0
  -24.3640   -9.5800   21.9530 C   0  0  0  0  0  3  0  0  0  0  0  0
  -23.6500   -8.3770   22.1400 C   0  0  0  0  0  3  0  0  0  0  0  0
  -22.4860   -8.1180   21.3760 C   0  0  0  0  0  0  0  0  0  0  0  0
  -22.0690   -9.0600   20.4180 C   0  0  0  0  0  3  0  0  0  0  0  0
  -22.7850  -10.2550   20.2320 C   0  0  0  0  0  3  0  0  0  0  0  0
  -21.7460   -6.9650   21.4690 O   0  0  0  0  0  0  0  0  0  0  0  0
  -21.7010   -6.2280   22.6260 C   0  0  0  0  0  0  0  0  0  0  0  0
  -21.2800   -6.7870   23.8520 C   0  0  0  0  0  3  0  0  0  0  0  0
  -21.1850   -5.9770   24.9990 C   0  0  0  0  0  3  0  0  0  0  0  0
  -21.5020   -4.6080   24.9240 C   0  0  0  0  0  0  0  0  0  0  0  0
  -21.9200   -4.0470   23.7050 C   0  0  0  0  0  3  0  0  0  0  0  0
  -22.0160   -4.8550   22.5570 C   0  0  0  0  0  0  0  0  0  0  0  0
  -22.3960   -4.3070   21.3790 F   0  0  0  0  0  0  0  0  0  0  0  0
  -21.4040   -3.8260   26.0250 F   0  0  0  0  0  0  0  0  0  0  0  0
  -22.7650  -13.6140   21.0550 C   0  0  0  0  0  0  0  0  0  0  0  0
  -22.0270  -12.9220   21.9150 N   0  0  0  0  0  0  0  0  0  0  0  0
  -22.3220  -14.6270   20.5110 O   0  0  0  0  0  0  0  0  0  0  0  0
  -22.3910  -12.1000   22.3780 H   0  0  0  0  0  0  0  0  0  0  0  0
  -21.0820  -13.2200   22.1230 H   0  0  0  0  0  0  0  0  0  0  0  0
  -25.3890  -15.2960   20.2480 N   0  0  0  0  0  0  0  0  0  0  0  0
  -24.6150  -15.9450   20.3320 H   0  0  0  0  0  0  0  0  0  0  0  0
  -26.2340  -15.7330   19.9090 H   0  0  0  0  0  0  0  0  0  0  0  0
  1  2  1  0
  2  3  1  0
  2  4  2  0
  3  6  1  0
  5  3  1  0
  7  8  1  0
  7  6  1  0
  9  8  1  0
 10  9  1  0
 11 22  2  0
 12 10  1  0
 12 17  1  0
 13 21  1  0
 13 23  1  0
 14 20  1  0
 14 16  1  0
 15 21  1  0
 16 17  2  0
 16 15  1  0
 18 12  2  0
 19 18  1  0
 19 14  2  0
 20 13  1  0
 21 11  1  0
 23 25  2  0
 24 23  1  0
 26 24  1  0
 27 36  2  0
 27 32  1  0
 28 24  1  0
 28 32  1  0
 29 28  1  0
 30 31  1  0
 30 29  1  0
 31 27  1  0
 32 33  2  0
 33 34  1  0
 35 34  2  0
 36 35  1  0
 37 11  1  0
 37 38  1  0
 37 47  1  0
 38 41  1  0
 39 43  1  0
 39 38  1  0
 40 39  2  0
 43 42  1  0
 45 43  1  0
 45 46  1  0
 45 44  1  0
 47 50  1  1
 47 48  1  0
 49 47  1  0
 51  1  1  0
 52 51  1  0
 53 54  1  0
 53 52  1  0
 54 57  1  0
 55 53  2  0
 56 54  1  0
 57 58  1  0
 58 59  1  0
 59 60  1  0
 61 60  1  0
 61 70  1  0
 62 68  1  0
 63 68  1  0
 64 65  1  0
 64 63  1  0
 66 65  1  0
 66 75  1  0
 66 67  1  0
 68 67  1  0
 69 62  2  0
 70 71  1  0
 70 62  1  0
 72 73  2  0
 73 74  1  0
 73 92  1  0
 74 77  1  0
 75 72  1  0
 75 76  1  0
 76 74  2  0
 77 78  1  0
 78 79  2  0
 80 83  1  0
 80 79  1  0
 81 80  2  0
 82 81  1  0
 82 77  2  0
 83 84  1  0
 84 85  1  0
 85 86  2  0
 87 86  1  0
 87 91  1  0
 88 87  2  0
 89 84  2  0
 89 88  1  0
 90 89  1  0
 92 93  1  0
 93 96  1  0
 93 95  1  0
 94 92  2  0
 97 98  1  0
 97 72  1  0
 99 97  1  0
M  ISO  4   9 101  10 101  62 100  70 100
M  END
>  <TORSDO>  (19) 
F 29

>  <SCORE>  (19) 
-10.987

>  <name>  (19) 
20

>  <ligand_id>  (19) 
20

>  <original_smiles>  (19) 
[H]c1c([H])c([H])c2c(c1[H])C([H])([H])C([H])([H])C([H])([H])C2([H])N([H])C(=O)C1([H])N(C(=O)C([H])(N([H])C(=O)C([H])(N([H])C([H])([H])[H])C([H])([H])[H])C(C([H])([H])[H])(C([H])([H])[H])C([H])([H])[H])C([H])([H])c2c([H])c(OC([H])([H])C([H])([H])C([H])([H])C([H])([H])N([H])C(=O)C([H])([H])OC([H])([H])C(=O)N([H])C([H])([H])C([H])([H])C([H])([H])C([H])([H])C([H])([H])N([H])C(=O)N3C([H])([H])C([H])([H])C([H])([H])C([H])(n4nc(-c5c([H])c([H])c(Oc6c([H])c([H])c(F)c([H])c6F)c([H])c5[H])c(C(=O)N([H])[H])c4N([H])[H])C3([H])[H])c([H])c([H])c2C1([H])[H]

>  <smiles>  (19) 
[H]c1c([H])c([H])c2c(c1[H])C([H])([H])C([H])([H])C([H])([H])C2([H])N([H])C(=O)C1([H])N(C(=O)C([H])(N([H])C(=O)C([H])(N([H])C([H])([H])[H])C([H])([H])[H])C(C([H])([H])[H])(C([H])([H])[H])C([H])([H])[H])C([H])([H])c2c([H])c(OC([H])([H])C([H])([H])C([H])([H])C([H])([H])N([H])C(=O)C([H])([H])OC([H])([H])C(=O)N([H])C([H])([H])C([H])([H])C([H])([H])C([H])([H])C([H])([H])N([H])C(=O)N3C([H])([H])C([H])([H])C([H])([H])C([H])(n4nc(-c5c([H])c([H])c(Oc6c([H])c([H])c(F)c([H])c6F)c([H])c5[H])c(C(=O)N([H])[H])c4N([H])[H])C3([H])[H])c([H])c([H])c2C1([H])[H]

$$$$
21:0:0
     RDKit          3D

 94101  0  0  1  0  0  0  0  0999 V2000
  -31.3420  -23.5370   22.5460 C   0  0  0  0  0  2  0  0  0  0  0  0
  -31.2350  -24.1530   21.2660 O   0  0  0  0  0  0  0  0  0  0  0  0
  -30.3390  -25.2560   21.2660 C   0  0  0  0  0  2  0  0  0  0  0  0
  -30.4050  -25.9840   19.9130 C   0  0  0  0  0  2  0  0  0  0  0  0
  -29.5570  -27.9180   18.4930 C   0  0  0  0  0  1  0  0  0  0  0  0
  -29.3670  -27.1170   19.7930 C   0  0  0  0  0  3  0  0  0  0  0  0
  -28.0710  -26.5120   19.7960 O   0  0  0  0  0  0  0  0  0  0  0  0
  -24.4900  -31.7360   23.1320 C   0  0  0  0  0  0  0  0  0  0  0  0
  -26.9500  -27.3030   19.9190 C   0  0  0  0  0  0  0  0  0  0  0  0
  -23.1970  -30.3850   21.5080 C   0  0  0  0  0  3  0  0  0  0  0  0
  -24.5700  -28.8250   20.0290 C   0  0  0  0  0  0  0  0  0  0  0  0
  -25.7160  -30.6970   21.2320 C   0  0  0  0  0  2  0  0  0  0  0  0
  -25.7510  -29.3300   20.5840 C   0  0  0  0  0  0  0  0  0  0  0  0
  -26.9400  -28.5770   20.5330 C   0  0  0  0  0  3  0  0  0  0  0  0
  -25.7460  -26.7950   19.3880 C   0  0  0  0  0  3  0  0  0  0  0  0
  -24.5590  -27.5530   19.4310 C   0  0  0  0  0  3  0  0  0  0  0  0
  -23.3470  -29.7090   20.1170 C   0  0  0  0  0  2  0  0  0  0  0  0
  -24.4890  -30.9520   22.0160 N   0  0  0  0  0  0  0  0  0  0  0  0
  -23.4350  -32.0280   23.7090 O   0  0  0  0  0  0  0  0  0  0  0  0
  -22.5490  -29.3710   22.4770 C   0  0  0  0  0  0  0  0  0  0  0  0
  -21.2180  -29.2180   22.3770 N   0  0  0  0  0  0  0  0  0  0  0  0
  -23.2380  -28.7260   23.2720 O   0  0  0  0  0  0  0  0  0  0  0  0
  -20.7270  -29.7910   21.7040 H   0  0  0  0  0  0  0  0  0  0  0  0
  -17.8320  -28.0830   22.9170 C   0  0  0  0  0  0  0  0  0  0  0  0
  -20.3970  -28.2920   23.1550 C   0  0  0  0  0  3  0  0  0  0  0  0
  -20.4660  -26.8620   22.5740 C   0  0  0  0  0  2  0  0  0  0  0  0
  -19.3440  -26.5620   21.5750 C   0  0  0  0  0  2  0  0  0  0  0  0
  -17.9740  -26.7320   22.2380 C   0  0  0  0  0  2  0  0  0  0  0  0
  -18.9710  -28.8240   23.3340 C   0  0  0  0  0  0  0  0  0  0  0  0
  -18.7850  -30.0900   23.9290 C   0  0  0  0  0  3  0  0  0  0  0  0
  -17.4930  -30.6160   24.1120 C   0  0  0  0  0  3  0  0  0  0  0  0
  -16.3670  -29.8730   23.7120 C   0  0  0  0  0  3  0  0  0  0  0  0
  -16.5390  -28.6080   23.1220 C   0  0  0  0  0  3  0  0  0  0  0  0
  -25.8130  -32.3200   23.7190 C   0  0  0  0  0  3  0  0  0  0  0  0
  -26.3570  -31.5080   24.9570 C   0  0  1  0  0  0  0  0  0  0  0  0
  -25.2970  -31.2720   26.0590 C   0  0  0  0  0  1  0  0  0  0  0  0
  -26.8900  -30.1260   24.5090 C   0  0  0  0  0  1  0  0  0  0  0  0
  -27.5500  -32.2600   25.5940 C   0  0  0  0  0  1  0  0  0  0  0  0
  -25.5540  -33.7200   24.0830 N   0  0  0  0  0  0  0  0  0  0  0  0
  -25.9010  -34.7760   23.3350 C   0  0  0  0  0  0  0  0  0  0  0  0
  -26.5440  -34.6720   22.2880 O   0  0  0  0  0  0  0  0  0  0  0  0
  -24.9770  -33.8760   24.8980 H   0  0  0  0  0  0  0  0  0  0  0  0
  -24.2200  -36.6260   23.0480 C   0  0  0  0  0  1  0  0  0  0  0  0
  -25.4640  -36.1700   23.8280 C   0  0  0  0  0  3  0  0  0  0  0  0
  -27.6380  -36.9740   24.6350 C   0  0  0  0  0  1  0  0  0  0  0  0
  -26.5260  -37.1940   23.7150 N   0  0  0  0  0  0  0  0  0  0  0  0
  -26.1510  -38.1220   23.8880 H   0  0  0  0  0  0  0  0  0  0  0  0
  -32.1980  -22.2670   22.4210 C   0  0  0  0  0  2  0  0  0  0  0  0
  -31.4380  -21.2230   21.8170 O   0  0  0  0  0  0  0  0  0  0  0  0
  -32.1660  -20.5100   20.8240 C   0  0  0  0  0  2  0  0  0  0  0  0
  -31.3270  -19.3370   20.2980 C   0  0  0  0  0  2  0  0  0  0  0  0
  -30.5360  -17.1380   21.1210 C   0  0  0  0  0  0  0  0  0  0  0  0
  -31.3910  -18.1650   21.1700 N   0  0  0  0  0  0  0  0  0  0  0  0
  -29.5050  -17.1700   20.4440 O   0  0  0  0  0  0  0  0  0  0  0  0
  -32.1980  -18.0790   21.7720 H   0  0  0  0  0  0  0  0  0  0  0  0
  -30.8940  -15.8820   21.9330 C   0  0  0  0  0  2  0  0  0  0  0  0
  -30.4130  -14.0810   20.2740 C   0  0  0  0  0  0  0  0  0  0  0  0
  -29.9530  -12.0600   18.9380 C   0  0  0  0  0  2  0  0  0  0  0  0
  -28.9200  -12.3160   17.8310 C   0  0  0  0  0  2  0  0  0  0  0  0
  -27.4900  -12.1190   18.3680 C   0  0  0  0  0  2  0  0  0  0  0  0
  -27.2430  -12.8960   19.6890 C   0  0  0  0  0  3  0  0  0  0  0  0
  -28.3810  -12.6420   20.7050 C   0  0  0  0  0  2  0  0  0  0  0  0
  -29.6720  -12.9620   20.0630 N   0  0  0  0  0  0  0  0  0  0  0  0
  -31.3040  -14.4620   19.5100 O   0  0  0  0  0  0  0  0  0  0  0  0
  -30.2010  -14.6810   21.4510 N   0  0  0  0  0  0  0  0  0  0  0  0
  -29.4930  -14.2850   22.0470 H   0  0  0  0  0  0  0  0  0  0  0  0
  -24.8720  -13.4200   20.5510 C   0  0  0  0  0  0  0  0  0  0  0  0
  -23.8590  -12.6100   20.9930 C   0  0  0  0  0  0  0  0  0  0  0  0
  -24.3630  -11.2760   20.9250 C   0  0  0  0  0  0  0  0  0  0  0  0
  -25.9310  -12.5760   20.2530 N   0  0  0  0  0  0  0  0  0  0  0  0
  -25.6310  -11.2810   20.5310 N   0  0  0  0  0  0  0  0  0  0  0  0
  -23.6970   -9.9890   21.1610 C   0  0  0  0  0  0  0  0  0  0  0  0
  -24.2030   -9.0540   22.0910 C   0  0  0  0  0  3  0  0  0  0  0  0
  -23.5360   -7.8320   22.3150 C   0  0  0  0  0  3  0  0  0  0  0  0
  -22.3450   -7.5330   21.6080 C   0  0  0  0  0  0  0  0  0  0  0  0
  -21.8570   -8.4570   20.6680 C   0  0  0  0  0  3  0  0  0  0  0  0
  -22.5260   -9.6720   20.4430 C   0  0  0  0  0  3  0  0  0  0  0  0
  -21.6420   -6.3600   21.7400 O   0  0  0  0  0  0  0  0  0  0  0  0
  -21.6520   -5.6420   22.9100 C   0  0  0  0  0  0  0  0  0  0  0  0
  -21.2250   -6.2060   24.1320 C   0  0  0  0  0  3  0  0  0  0  0  0
  -21.1870   -5.4130   25.2970 C   0  0  0  0  0  3  0  0  0  0  0  0
  -21.5640   -4.0570   25.2390 C   0  0  0  0  0  0  0  0  0  0  0  0
  -21.9830   -3.4940   24.0200 C   0  0  0  0  0  3  0  0  0  0  0  0
  -22.0240   -4.2850   22.8590 C   0  0  0  0  0  0  0  0  0  0  0  0
  -22.4090   -3.7320   21.6830 F   0  0  0  0  0  0  0  0  0  0  0  0
  -21.5190   -3.2920   26.3540 F   0  0  0  0  0  0  0  0  0  0  0  0
  -22.4690  -13.0390   21.3660 C   0  0  0  0  0  0  0  0  0  0  0  0
  -21.8300  -12.3150   22.2770 N   0  0  0  0  0  0  0  0  0  0  0  0
  -21.9600  -14.0510   20.8850 O   0  0  0  0  0  0  0  0  0  0  0  0
  -22.2570  -11.5000   22.6910 H   0  0  0  0  0  0  0  0  0  0  0  0
  -20.9000  -12.5840   22.5640 H   0  0  0  0  0  0  0  0  0  0  0  0
  -24.9750  -14.7950   20.3630 N   0  0  0  0  0  0  0  0  0  0  0  0
  -24.2090  -15.4320   20.5540 H   0  0  0  0  0  0  0  0  0  0  0  0
  -25.8030  -15.2660   20.0180 H   0  0  0  0  0  0  0  0  0  0  0  0
  2  3  1  0
  2  1  1  0
  4  3  1  0
  6  5  1  0
  6  7  1  0
  6  4  1  0
  7  9  1  0
  8 19  2  0
  9 14  1  0
 10 18  1  0
 10 20  1  0
 11 17  1  0
 11 13  1  0
 12 18  1  0
 13 12  1  0
 14 13  2  0
 15 16  1  0
 15  9  2  0
 16 11  2  0
 17 10  1  0
 18  8  1  0
 20 22  2  0
 21 20  1  0
 23 21  1  0
 24 33  2  0
 24 29  1  0
 25 21  1  0
 25 29  1  0
 26 25  1  0
 27 28  1  0
 27 26  1  0
 28 24  1  0
 29 30  2  0
 30 31  1  0
 32 31  2  0
 33 32  1  0
 34  8  1  0
 34 39  1  0
 34 35  1  0
 35 38  1  1
 35 36  1  0
 37 35  1  0
 39 42  1  0
 40 44  1  0
 40 39  1  0
 41 40  2  0
 44 43  1  0
 46 44  1  0
 46 47  1  0
 46 45  1  0
 48  1  1  0
 49 48  1  0
 50 49  1  0
 51 50  1  0
 51 53  1  0
 52 53  1  0
 52 56  1  0
 53 55  1  0
 54 52  2  0
 57 65  1  0
 58 63  1  0
 59 60  1  0
 59 58  1  0
 61 60  1  0
 61 70  1  0
 61 62  1  0
 63 57  1  0
 63 62  1  0
 64 57  2  0
 65 56  1  0
 65 66  1  0
 67 68  2  0
 68 87  1  0
 69 68  1  0
 69 72  1  0
 70 71  1  0
 70 67  1  0
 71 69  2  0
 72 73  1  0
 73 74  2  0
 75 78  1  0
 75 74  1  0
 76 75  2  0
 77 76  1  0
 77 72  2  0
 78 79  1  0
 79 80  1  0
 80 81  2  0
 82 81  1  0
 82 86  1  0
 83 82  2  0
 84 79  2  0
 84 83  1  0
 85 84  1  0
 87 88  1  0
 88 91  1  0
 88 90  1  0
 89 87  2  0
 92 67  1  0
 92 93  1  0
 94 92  1  0
M  ISO  4   6 101   7 101  57 100  65 100
M  END
>  <TORSDO>  (20) 
F 26

>  <SCORE>  (20) 
-8.742

>  <name>  (20) 
21

>  <ligand_id>  (20) 
21

>  <original_smiles>  (20) 
[H]c1c([H])c([H])c2c(c1[H])C([H])([H])C([H])([H])C([H])([H])C2([H])N([H])C(=O)C1([H])N(C(=O)C([H])(N([H])C(=O)C([H])(N([H])C([H])([H])[H])C([H])([H])[H])C(C([H])([H])[H])(C([H])([H])[H])C([H])([H])[H])C([H])([H])c2c([H])c(OC([H])(C([H])([H])[H])C([H])([H])C([H])([H])OC([H])([H])C([H])([H])OC([H])([H])C([H])([H])N([H])C(=O)C([H])([H])N([H])C(=O)N3C([H])([H])C([H])([H])C([H])([H])C([H])(n4nc(-c5c([H])c([H])c(Oc6c([H])c([H])c(F)c([H])c6F)c([H])c5[H])c(C(=O)N([H])[H])c4N([H])[H])C3([H])[H])c([H])c([H])c2C1([H])[H]

>  <smiles>  (20) 
[H]c1c([H])c([H])c2c(c1[H])C([H])([H])C([H])([H])C([H])([H])C2([H])N([H])C(=O)C1([H])N(C(=O)C([H])(N([H])C(=O)C([H])(N([H])C([H])([H])[H])C([H])([H])[H])C(C([H])([H])[H])(C([H])([H])[H])C([H])([H])[H])C([H])([H])c2c([H])c(OC([H])(C([H])([H])[H])C([H])([H])C([H])([H])OC([H])([H])C([H])([H])OC([H])([H])C([H])([H])N([H])C(=O)C([H])([H])N([H])C(=O)N3C([H])([H])C([H])([H])C([H])([H])C([H])(n4nc(-c5c([H])c([H])c(Oc6c([H])c([H])c(F)c([H])c6F)c([H])c5[H])c(C(=O)N([H])[H])c4N([H])[H])C3([H])[H])c([H])c([H])c2C1([H])[H]

$$$$
22:0:0
     RDKit          3D

105113  0  0  1  0  0  0  0  0999 V2000
  -33.3450  -26.2830   19.7260 C   0  0  0  0  0  2  0  0  0  0  0  0
  -33.2190  -26.9640   21.0910 C   0  0  0  0  0  0  0  0  0  0  0  0
  -32.3590  -27.9840   21.1960 N   0  0  0  0  0  0  0  0  0  0  0  0
  -33.8730  -26.5440   22.0490 O   0  0  0  0  0  0  0  0  0  0  0  0
  -31.8730  -28.2650   20.3550 H   0  0  0  0  0  0  0  0  0  0  0  0
  -32.0190  -28.6920   22.4340 C   0  0  0  0  0  2  0  0  0  0  0  0
  -31.0410  -27.8830   23.3080 C   0  0  0  0  0  2  0  0  0  0  0  0
  -29.6500  -27.7090   22.6670 C   0  0  0  0  0  2  0  0  0  0  0  0
  -28.9760  -26.3710   23.0440 C   0  0  0  0  0  2  0  0  0  0  0  0
  -27.8060  -25.9760   22.1230 C   0  0  0  0  0  2  0  0  0  0  0  0
  -28.2690  -25.7590   20.6700 C   0  0  0  0  0  0  0  0  0  0  0  0
  -28.8730  -24.7330   20.3610 O   0  0  0  0  0  0  0  0  0  0  0  0
  -28.1080  -26.8130   19.8240 O   0  0  0  0  0  0  0  0  0  0  0  0
  -24.4790  -31.9440   23.1770 C   0  0  0  0  0  0  0  0  0  0  0  0
  -26.9650  -27.5680   19.9050 C   0  0  0  0  0  0  0  0  0  0  0  0
  -23.1970  -30.5790   21.5600 C   0  0  0  0  0  3  0  0  0  0  0  0
  -24.5840  -29.0640   20.0480 C   0  0  0  0  0  0  0  0  0  0  0  0
  -25.7150  -30.9350   21.2650 C   0  0  0  0  0  2  0  0  0  0  0  0
  -25.7680  -29.5810   20.5940 C   0  0  0  0  0  0  0  0  0  0  0  0
  -26.9680  -28.8410   20.5150 C   0  0  0  0  0  3  0  0  0  0  0  0
  -25.7700  -27.0620   19.3540 C   0  0  0  0  0  3  0  0  0  0  0  0
  -24.5790  -27.8040   19.4280 C   0  0  0  0  0  3  0  0  0  0  0  0
  -23.3460  -29.9230   20.1610 C   0  0  0  0  0  2  0  0  0  0  0  0
  -24.4840  -31.1650   22.0580 N   0  0  0  0  0  0  0  0  0  0  0  0
  -23.4230  -32.2140   23.7650 O   0  0  0  0  0  0  0  0  0  0  0  0
  -22.5830  -29.5420   22.5260 C   0  0  0  0  0  0  0  0  0  0  0  0
  -21.2590  -29.3420   22.4260 N   0  0  0  0  0  0  0  0  0  0  0  0
  -23.2950  -28.9210   23.3200 O   0  0  0  0  0  0  0  0  0  0  0  0
  -20.7460  -29.8950   21.7540 H   0  0  0  0  0  0  0  0  0  0  0  0
  -17.9190  -28.0870   22.9670 C   0  0  0  0  0  0  0  0  0  0  0  0
  -20.4740  -28.3910   23.2100 C   0  0  0  0  0  3  0  0  0  0  0  0
  -20.5960  -26.9610   22.6320 C   0  0  0  0  0  2  0  0  0  0  0  0
  -19.4890  -26.6160   21.6310 C   0  0  0  0  0  2  0  0  0  0  0  0
  -18.1130  -26.7390   22.2930 C   0  0  0  0  0  2  0  0  0  0  0  0
  -19.0270  -28.8700   23.3840 C   0  0  0  0  0  0  0  0  0  0  0  0
  -18.7930  -30.1310   23.9760 C   0  0  0  0  0  3  0  0  0  0  0  0
  -17.4800  -30.6090   24.1510 C   0  0  0  0  0  3  0  0  0  0  0  0
  -16.3860  -29.8230   23.7500 C   0  0  0  0  0  3  0  0  0  0  0  0
  -16.6070  -28.5640   23.1650 C   0  0  0  0  0  3  0  0  0  0  0  0
  -25.7930  -32.5560   23.7520 C   0  0  0  0  0  3  0  0  0  0  0  0
  -26.3550  -31.7630   24.9950 C   0  0  1  0  0  0  0  0  0  0  0  0
  -25.3000  -31.5160   26.1000 C   0  0  0  0  0  1  0  0  0  0  0  0
  -26.9140  -30.3890   24.5600 C   0  0  0  0  0  1  0  0  0  0  0  0
  -27.5360  -32.5410   25.6240 C   0  0  0  0  0  1  0  0  0  0  0  0
  -25.5100  -33.9520   24.1050 N   0  0  0  0  0  0  0  0  0  0  0  0
  -25.8540  -35.0110   23.3600 C   0  0  0  0  0  0  0  0  0  0  0  0
  -26.5120  -34.9130   22.3200 O   0  0  0  0  0  0  0  0  0  0  0  0
  -24.9150  -34.1040   24.9080 H   0  0  0  0  0  0  0  0  0  0  0  0
  -24.1610  -36.8420   23.0370 C   0  0  0  0  0  1  0  0  0  0  0  0
  -25.3930  -36.3990   23.8420 C   0  0  0  0  0  3  0  0  0  0  0  0
  -27.5420  -37.2270   24.6940 C   0  0  0  0  0  1  0  0  0  0  0  0
  -26.4470  -37.4340   23.7510 N   0  0  0  0  0  0  0  0  0  0  0  0
  -26.0570  -38.3580   23.9180 H   0  0  0  0  0  0  0  0  0  0  0  0
  -32.4160  -25.2050   19.6680 O   0  0  0  0  0  0  0  0  0  0  0  0
  -31.1530  -23.8260   18.1650 C   0  0  0  0  0  2  0  0  0  0  0  0
  -33.3540  -23.1710   18.7660 C   0  0  0  0  0  2  0  0  0  0  0  0
  -32.5190  -24.4270   18.4800 C   0  0  0  0  0  3  0  0  0  0  0  0
  -31.0400  -22.6650   19.1630 C   0  0  0  0  0  3  0  0  0  0  0  0
  -32.4250  -22.1920   19.3750 N   0  0  0  0  0  4  0  0  0  0  0  0
  -32.5920  -22.1220   20.3680 H   0  0  0  0  0  0  0  0  0  0  0  0
  -32.5610  -21.2750   18.9750 H   0  0  0  0  0  0  0  0  0  0  0  0
  -30.1000  -21.5350   18.7210 C   0  0  0  0  0  2  0  0  0  0  0  0
  -30.0760  -20.5500   19.7490 O   0  0  0  0  0  0  0  0  0  0  0  0
  -29.3570  -19.3820   19.3750 C   0  0  0  0  0  2  0  0  0  0  0  0
  -29.3230  -18.3910   20.5480 C   0  0  0  0  0  2  0  0  0  0  0  0
  -30.7260  -18.0100   21.0510 C   0  0  0  0  0  2  0  0  0  0  0  0
  -30.7380  -16.8740   22.0960 C   0  0  0  0  0  2  0  0  0  0  0  0
  -30.7580  -14.7900   20.7180 C   0  0  0  0  0  0  0  0  0  0  0  0
  -30.4780  -12.7520   19.3630 C   0  0  0  0  0  2  0  0  0  0  0  0
  -29.5620  -13.0200   18.1530 C   0  0  0  0  0  2  0  0  0  0  0  0
  -28.0810  -12.8350   18.5390 C   0  0  0  0  0  2  0  0  0  0  0  0
  -27.7010  -13.5920   19.8390 C   0  0  0  0  0  3  0  0  0  0  0  0
  -28.7280  -13.3060   20.9560 C   0  0  0  0  0  2  0  0  0  0  0  0
  -30.0690  -13.6520   20.4510 N   0  0  0  0  0  0  0  0  0  0  0  0
  -31.8290  -15.0770   20.1770 O   0  0  0  0  0  0  0  0  0  0  0  0
  -30.1820  -15.6130   21.6030 N   0  0  0  0  0  0  0  0  0  0  0  0
  -29.3080  -15.3050   22.0020 H   0  0  0  0  0  0  0  0  0  0  0  0
  -25.2470  -14.1120   20.4230 C   0  0  0  0  0  0  0  0  0  0  0  0
  -24.1960  -13.3040   20.7630 C   0  0  0  0  0  0  0  0  0  0  0  0
  -24.7150  -11.9710   20.7830 C   0  0  0  0  0  0  0  0  0  0  0  0
  -26.3400  -13.2720   20.2620 N   0  0  0  0  0  0  0  0  0  0  0  0
  -26.0180  -11.9820   20.5320 N   0  0  0  0  0  0  0  0  0  0  0  0
  -24.0350  -10.6830   20.9700 C   0  0  0  0  0  0  0  0  0  0  0  0
  -24.4310   -9.7790   21.9800 C   0  0  0  0  0  3  0  0  0  0  0  0
  -23.7510   -8.5540   22.1530 C   0  0  0  0  0  3  0  0  0  0  0  0
  -22.6600   -8.2260   21.3150 C   0  0  0  0  0  0  0  0  0  0  0  0
  -22.2830   -9.1190   20.2970 C   0  0  0  0  0  3  0  0  0  0  0  0
  -22.9640  -10.3350   20.1230 C   0  0  0  0  0  3  0  0  0  0  0  0
  -21.9570   -7.0480   21.3920 O   0  0  0  0  0  0  0  0  0  0  0  0
  -21.8090   -6.3740   22.5780 C   0  0  0  0  0  0  0  0  0  0  0  0
  -21.1920   -6.9700   23.7010 C   0  0  0  0  0  3  0  0  0  0  0  0
  -20.9980   -6.2190   24.8770 C   0  0  0  0  0  3  0  0  0  0  0  0
  -21.4070   -4.8730   24.9310 C   0  0  0  0  0  0  0  0  0  0  0  0
  -22.0160   -4.2770   23.8120 C   0  0  0  0  0  3  0  0  0  0  0  0
  -22.2120   -5.0260   22.6380 C   0  0  0  0  0  0  0  0  0  0  0  0
  -22.7790   -4.4410   21.5550 F   0  0  0  0  0  0  0  0  0  0  0  0
  -21.2140   -4.1490   26.0580 F   0  0  0  0  0  0  0  0  0  0  0  0
  -22.7700  -13.7260   20.9650 C   0  0  0  0  0  0  0  0  0  0  0  0
  -22.0330  -13.0120   21.8080 N   0  0  0  0  0  0  0  0  0  0  0  0
  -22.3130  -14.7240   20.4090 O   0  0  0  0  0  0  0  0  0  0  0  0
  -22.4130  -12.2040   22.2810 H   0  0  0  0  0  0  0  0  0  0  0  0
  -21.0750  -13.2760   21.9860 H   0  0  0  0  0  0  0  0  0  0  0  0
  -25.3630  -15.4840   20.2210 N   0  0  0  0  0  0  0  0  0  0  0  0
  -24.5700  -16.1130   20.2850 H   0  0  0  0  0  0  0  0  0  0  0  0
  -26.2150  -15.9500   19.9330 H   0  0  0  0  0  0  0  0  0  0  0  0
  1  2  1  0
  2  3  1  0
  2  4  2  0
  3  6  1  0
  5  3  1  0
  6  7  1  0
  8  9  1  0
  8  7  1  0
 10  9  1  0
 11 10  1  0
 12 11  2  0
 13 15  1  0
 13 11  1  0
 14 25  2  0
 15 20  1  0
 16 24  1  0
 16 26  1  0
 17 23  1  0
 17 19  1  0
 18 24  1  0
 19 18  1  0
 20 19  2  0
 21 22  1  0
 21 15  2  0
 22 17  2  0
 23 16  1  0
 24 14  1  0
 26 28  2  0
 27 26  1  0
 29 27  1  0
 30 39  2  0
 30 35  1  0
 31 27  1  0
 31 35  1  0
 32 31  1  0
 33 34  1  0
 33 32  1  0
 34 30  1  0
 35 36  2  0
 36 37  1  0
 38 37  2  0
 39 38  1  0
 40 14  1  0
 40 45  1  0
 40 41  1  0
 41 44  1  1
 41 42  1  0
 43 41  1  0
 45 48  1  0
 46 50  1  0
 46 45  1  0
 47 46  2  0
 50 49  1  0
 52 50  1  0
 52 53  1  0
 52 51  1  0
 54  1  1  0
 55 57  1  0
 55 58  1  0
 56 59  1  0
 57 56  1  0
 57 54  1  0
 58 62  1  0
 58 59  1  0
 59 60  1  0
 61 59  1  0
 62 63  1  0
 64 63  1  0
 64 65  1  0
 65 66  1  0
 66 67  1  0
 68 76  1  0
 69 74  1  0
 70 71  1  0
 70 69  1  0
 72 71  1  0
 72 81  1  0
 72 73  1  0
 74 68  1  0
 74 73  1  0
 75 68  2  0
 76 77  1  0
 76 67  1  0
 78 79  2  0
 79 80  1  0
 79 98  1  0
 80 83  1  0
 81 78  1  0
 81 82  1  0
 82 80  2  0
 83 84  1  0
 84 85  2  0
 86 89  1  0
 86 85  1  0
 87 86  2  0
 88 87  1  0
 88 83  2  0
 89 90  1  0
 90 95  2  0
 90 91  1  0
 91 92  2  0
 92 93  1  0
 93 97  1  0
 94 93  2  0
 95 94  1  0
 96 95  1  0
 98 99  1  0
 99102  1  0
 99101  1  0
100 98  2  0
103104  1  0
103 78  1  0
105103  1  0
M  ISO  4  11 101  13 101  68 100  76 100
M  END
>  <TORSDO>  (21) 
F 31

>  <SCORE>  (21) 
-10.751

>  <name>  (21) 
22

>  <ligand_id>  (21) 
22

>  <original_smiles>  (21) 
[H]c1c([H])c([H])c2c(c1[H])C([H])([H])C([H])([H])C([H])([H])C2([H])N([H])C(=O)C1([H])N(C(=O)C([H])(N([H])C(=O)C([H])(N([H])C([H])([H])[H])C([H])([H])[H])C(C([H])([H])[H])(C([H])([H])[H])C([H])([H])[H])C([H])([H])c2c([H])c(OC(=O)C([H])([H])C([H])([H])C([H])([H])C([H])([H])C([H])([H])N([H])C(=O)C([H])([H])OC3([H])C([H])([H])C([H])(C([H])([H])OC([H])([H])C([H])([H])C([H])([H])C([H])([H])N([H])C(=O)N4C([H])([H])C([H])([H])C([H])([H])C([H])(n5nc(-c6c([H])c([H])c(Oc7c([H])c([H])c(F)c([H])c7F)c([H])c6[H])c(C(=O)N([H])[H])c5N([H])[H])C4([H])[H])[N+]([H])([H])C3([H])[H])c([H])c([H])c2C1([H])[H]

>  <smiles>  (21) 
[H]c1c([H])c([H])c2c(c1[H])C([H])([H])C([H])([H])C([H])([H])C2([H])N([H])C(=O)C1([H])N(C(=O)C([H])(N([H])C(=O)C([H])(N([H])C([H])([H])[H])C([H])([H])[H])C(C([H])([H])[H])(C([H])([H])[H])C([H])([H])[H])C([H])([H])c2c([H])c(OC(=O)C([H])([H])C([H])([H])C([H])([H])C([H])([H])C([H])([H])N([H])C(=O)C([H])([H])OC3([H])C([H])([H])C([H])(C([H])([H])OC([H])([H])C([H])([H])C([H])([H])C([H])([H])N([H])C(=O)N4C([H])([H])C([H])([H])C([H])([H])C([H])(n5nc(-c6c([H])c([H])c(Oc7c([H])c([H])c(F)c([H])c7F)c([H])c6[H])c(C(=O)N([H])[H])c5N([H])[H])C4([H])[H])[N+]([H])([H])C3([H])[H])c([H])c([H])c2C1([H])[H]

$$$$
23:0:0
     RDKit          3D

 87 94  0  0  1  0  0  0  0  0999 V2000
  -28.3110  -23.2760   20.0920 C   0  0  0  0  0  0  0  0  0  0  0  0
  -29.0070  -22.1170   20.5630 N   0  0  0  0  0  0  0  0  0  0  0  0
  -27.5820  -23.1400   19.1070 O   0  0  0  0  0  0  0  0  0  0  0  0
  -29.6790  -22.3740   21.2750 H   0  0  0  0  0  0  0  0  0  0  0  0
  -28.2670  -24.7740   20.8440 C   0  0  0  0  0  2  0  0  0  0  0  0
  -28.2800  -26.1780   20.1540 O   0  0  0  0  0  0  0  0  0  0  0  0
  -24.6030  -31.8650   23.2170 C   0  0  0  0  0  0  0  0  0  0  0  0
  -27.2030  -27.1400   20.2120 C   0  0  0  0  0  0  0  0  0  0  0  0
  -23.4120  -30.4640   21.5750 C   0  0  0  0  0  3  0  0  0  0  0  0
  -24.8690  -28.8810   20.1670 C   0  0  0  0  0  0  0  0  0  0  0  0
  -25.9670  -30.7340   21.4180 C   0  0  0  0  0  2  0  0  0  0  0  0
  -26.0470  -29.3350   20.7740 C   0  0  0  0  0  0  0  0  0  0  0  0
  -27.2180  -28.4830   20.7720 C   0  0  0  0  0  3  0  0  0  0  0  0
  -25.9960  -26.7820   19.5800 C   0  0  0  0  0  3  0  0  0  0  0  0
  -24.8560  -27.6170   19.5540 C   0  0  0  0  0  3  0  0  0  0  0  0
  -23.6420  -29.7800   20.2010 C   0  0  0  0  0  2  0  0  0  0  0  0
  -24.6810  -31.0440   22.1250 N   0  0  0  0  0  0  0  0  0  0  0  0
  -23.5140  -32.1470   23.7420 O   0  0  0  0  0  0  0  0  0  0  0  0
  -22.7320  -29.4580   22.5380 C   0  0  0  0  0  0  0  0  0  0  0  0
  -21.4040  -29.2890   22.4100 N   0  0  0  0  0  0  0  0  0  0  0  0
  -23.4020  -28.8320   23.3630 O   0  0  0  0  0  0  0  0  0  0  0  0
  -20.9190  -29.8450   21.7190 H   0  0  0  0  0  0  0  0  0  0  0  0
  -18.0210  -28.0890   22.9130 C   0  0  0  0  0  0  0  0  0  0  0  0
  -20.5810  -28.3510   23.1790 C   0  0  0  0  0  3  0  0  0  0  0  0
  -20.6820  -26.9200   22.6030 C   0  0  0  0  0  2  0  0  0  0  0  0
  -19.5790  -26.5980   21.5870 C   0  0  0  0  0  2  0  0  0  0  0  0
  -18.1980  -26.7420   22.2320 C   0  0  0  0  0  2  0  0  0  0  0  0
  -19.1400  -28.8510   23.3430 C   0  0  0  0  0  0  0  0  0  0  0  0
  -18.9210  -30.1120   23.9400 C   0  0  0  0  0  3  0  0  0  0  0  0
  -17.6150  -30.6090   24.1110 C   0  0  0  0  0  3  0  0  0  0  0  0
  -16.5120  -29.8460   23.6950 C   0  0  0  0  0  3  0  0  0  0  0  0
  -16.7150  -28.5870   23.1020 C   0  0  0  0  0  3  0  0  0  0  0  0
  -25.8770  -32.5050   23.8490 C   0  0  0  0  0  3  0  0  0  0  0  0
  -26.3810  -31.7420   25.1360 C   0  0  1  0  0  0  0  0  0  0  0  0
  -25.2780  -31.5130   26.1960 C   0  0  0  0  0  1  0  0  0  0  0  0
  -26.9660  -30.3600   24.7630 C   0  0  0  0  0  1  0  0  0  0  0  0
  -27.5270  -32.5390   25.8030 C   0  0  0  0  0  1  0  0  0  0  0  0
  -25.5600  -33.9050   24.1770 N   0  0  0  0  0  0  0  0  0  0  0  0
  -25.9010  -34.9620   23.4280 C   0  0  0  0  0  0  0  0  0  0  0  0
  -26.5800  -34.8620   22.4040 O   0  0  0  0  0  0  0  0  0  0  0  0
  -24.9560  -34.0560   24.9720 H   0  0  0  0  0  0  0  0  0  0  0  0
  -24.1830  -36.7660   23.0620 C   0  0  0  0  0  1  0  0  0  0  0  0
  -25.4130  -36.3500   23.8870 C   0  0  0  0  0  3  0  0  0  0  0  0
  -27.5380  -37.2270   24.7520 C   0  0  0  0  0  1  0  0  0  0  0  0
  -26.4500  -37.4010   23.7940 N   0  0  0  0  0  0  0  0  0  0  0  0
  -26.0450  -38.3220   23.9380 H   0  0  0  0  0  0  0  0  0  0  0  0
  -28.6960  -20.5470   20.6100 C   0  0  0  0  0  2  0  0  0  0  0  0
  -29.5680  -19.2010   20.0200 C   0  0  0  0  0  2  0  0  0  0  0  0
  -29.8840  -17.7260   20.8270 C   0  0  0  0  0  2  0  0  0  0  0  0
  -30.4980  -15.0290   20.2720 C   0  0  0  0  0  0  0  0  0  0  0  0
  -30.3980  -12.6750   19.2990 C   0  0  0  0  0  2  0  0  0  0  0  0
  -29.4540  -12.6090   18.0760 C   0  0  0  0  0  2  0  0  0  0  0  0
  -27.9940  -12.3890   18.5200 C   0  0  0  0  0  2  0  0  0  0  0  0
  -27.5870  -13.3150   19.6960 C   0  0  0  0  0  3  0  0  0  0  0  0
  -28.6500  -13.3350   20.8120 C   0  0  0  0  0  2  0  0  0  0  0  0
  -29.9060  -13.7670   20.1860 N   0  0  0  0  0  0  0  0  0  0  0  0
  -31.7180  -15.0890   20.0840 O   0  0  0  0  0  0  0  0  0  0  0  0
  -29.6930  -16.2100   20.3600 N   0  0  0  0  0  0  0  0  0  0  0  0
  -28.7160  -15.9650   20.3060 H   0  0  0  0  0  0  0  0  0  0  0  0
  -25.2080  -13.8900   20.4400 C   0  0  0  0  0  0  0  0  0  0  0  0
  -24.1470  -13.1130   20.8160 C   0  0  0  0  0  0  0  0  0  0  0  0
  -24.6170  -11.7640   20.7940 C   0  0  0  0  0  0  0  0  0  0  0  0
  -26.2540  -13.0130   20.2030 N   0  0  0  0  0  0  0  0  0  0  0  0
  -25.9090  -11.7290   20.4840 N   0  0  0  0  0  0  0  0  0  0  0  0
  -23.8950  -10.5000   20.9900 C   0  0  0  0  0  0  0  0  0  0  0  0
  -24.3240   -9.5420   21.9360 C   0  0  0  0  0  3  0  0  0  0  0  0
  -23.6000   -8.3450   22.1200 C   0  0  0  0  0  3  0  0  0  0  0  0
  -22.4330   -8.0960   21.3600 C   0  0  0  0  0  0  0  0  0  0  0  0
  -22.0230   -9.0420   20.4040 C   0  0  0  0  0  3  0  0  0  0  0  0
  -22.7480  -10.2310   20.2170 C   0  0  0  0  0  3  0  0  0  0  0  0
  -21.6800   -6.9500   21.4530 O   0  0  0  0  0  0  0  0  0  0  0  0
  -21.6230   -6.2200   22.6130 C   0  0  0  0  0  0  0  0  0  0  0  0
  -21.1780   -6.7850   23.8280 C   0  0  0  0  0  3  0  0  0  0  0  0
  -21.0690   -5.9810   24.9790 C   0  0  0  0  0  3  0  0  0  0  0  0
  -21.3920   -4.6130   24.9180 C   0  0  0  0  0  0  0  0  0  0  0  0
  -21.8300   -4.0470   23.7070 C   0  0  0  0  0  3  0  0  0  0  0  0
  -21.9410   -4.8480   22.5570 C   0  0  0  0  0  0  0  0  0  0  0  0
  -22.3430   -4.2930   21.3880 F   0  0  0  0  0  0  0  0  0  0  0  0
  -21.2800   -3.8370   26.0210 F   0  0  0  0  0  0  0  0  0  0  0  0
  -22.7480  -13.5860   21.0790 C   0  0  0  0  0  0  0  0  0  0  0  0
  -22.0190  -12.8930   21.9460 N   0  0  0  0  0  0  0  0  0  0  0  0
  -22.3100  -14.6090   20.5520 O   0  0  0  0  0  0  0  0  0  0  0  0
  -22.3860  -12.0670   22.3940 H   0  0  0  0  0  0  0  0  0  0  0  0
  -21.0790  -13.1920   22.1650 H   0  0  0  0  0  0  0  0  0  0  0  0
  -25.3630  -15.2600   20.2520 N   0  0  0  0  0  0  0  0  0  0  0  0
  -24.5870  -15.9040   20.3560 H   0  0  0  0  0  0  0  0  0  0  0  0
  -26.1930  -15.7010   19.8800 H   0  0  0  0  0  0  0  0  0  0  0  0
  1  2  1  0
  1  5  1  0
  2 47  1  0
  2  4  1  0
  3  1  2  0
  6  8  1  0
  6  5  1  0
  7 18  2  0
  8 13  1  0
  9 17  1  0
  9 19  1  0
 10 16  1  0
 10 12  1  0
 11 17  1  0
 12 11  1  0
 13 12  2  0
 14  8  2  0
 15 14  1  0
 15 10  2  0
 16  9  1  0
 17  7  1  0
 19 21  2  0
 20 19  1  0
 22 20  1  0
 23 32  2  0
 23 28  1  0
 24 20  1  0
 24 28  1  0
 25 24  1  0
 26 27  1  0
 26 25  1  0
 27 23  1  0
 28 29  2  0
 29 30  1  0
 31 30  2  0
 32 31  1  0
 33  7  1  0
 33 38  1  0
 33 34  1  0
 34 37  1  1
 34 35  1  0
 36 34  1  0
 38 41  1  0
 39 43  1  0
 39 38  1  0
 40 39  2  0
 43 42  1  0
 45 43  1  0
 45 46  1  0
 45 44  1  0
 48 47  1  0
 48 49  1  0
 50 58  1  0
 51 56  1  0
 52 53  1  0
 52 51  1  0
 54 53  1  0
 54 63  1  0
 54 55  1  0
 56 50  1  0
 56 55  1  0
 57 50  2  0
 58 49  1  0
 59 58  1  0
 60 61  2  0
 61 80  1  0
 62 61  1  0
 62 65  1  0
 63 60  1  0
 63 64  1  0
 64 62  2  0
 65 66  1  0
 66 67  2  0
 68 71  1  0
 68 67  1  0
 69 68  2  0
 70 69  1  0
 70 65  2  0
 71 72  1  0
 72 73  1  0
 73 74  2  0
 75 74  1  0
 75 79  1  0
 76 75  2  0
 77 72  2  0
 77 76  1  0
 78 77  1  0
 80 81  1  0
 81 84  1  0
 81 83  1  0
 82 80  2  0
 85 86  1  0
 85 60  1  0
 87 85  1  0
M  ISO  4   5 101   6 101  50 100  58 100
M  END
>  <TORSDO>  (22) 
F 20

>  <SCORE>  (22) 
-14.819

>  <name>  (22) 
23

>  <ligand_id>  (22) 
23

>  <original_smiles>  (22) 
[H]c1c([H])c([H])c2c(c1[H])C([H])([H])C([H])([H])C([H])([H])C2([H])N([H])C(=O)C1([H])N(C(=O)C([H])(N([H])C(=O)C([H])(N([H])C([H])([H])[H])C([H])([H])[H])C(C([H])([H])[H])(C([H])([H])[H])C([H])([H])[H])C([H])([H])c2c([H])c(OC([H])([H])C(=O)N([H])C([H])([H])C([H])([H])C([H])([H])N([H])C(=O)N3C([H])([H])C([H])([H])C([H])([H])C([H])(n4nc(-c5c([H])c([H])c(Oc6c([H])c([H])c(F)c([H])c6F)c([H])c5[H])c(C(=O)N([H])[H])c4N([H])[H])C3([H])[H])c([H])c([H])c2C1([H])[H]

>  <smiles>  (22) 
[H]c1c([H])c([H])c2c(c1[H])C([H])([H])C([H])([H])C([H])([H])C2([H])N([H])C(=O)C1([H])N(C(=O)C([H])(N([H])C(=O)C([H])(N([H])C([H])([H])[H])C([H])([H])[H])C(C([H])([H])[H])(C([H])([H])[H])C([H])([H])[H])C([H])([H])c2c([H])c(OC([H])([H])C(=O)N([H])C([H])([H])C([H])([H])C([H])([H])N([H])C(=O)N3C([H])([H])C([H])([H])C([H])([H])C([H])(n4nc(-c5c([H])c([H])c(Oc6c([H])c([H])c(F)c([H])c6F)c([H])c5[H])c(C(=O)N([H])[H])c4N([H])[H])C3([H])[H])c([H])c([H])c2C1([H])[H]

$$$$
24:0:0
     RDKit          3D

 97104  0  0  1  0  0  0  0  0999 V2000
  -26.6330  -23.3270   20.7870 C   0  0  0  0  0  2  0  0  0  0  0  0
  -25.6490  -23.5270   19.6950 N   0  0  0  0  0  4  0  0  0  0  0  0
  -24.8150  -23.0110   19.9310 H   0  0  0  0  0  0  0  0  0  0  0  0
  -25.3820  -24.4950   19.6770 H   0  0  0  0  0  0  0  0  0  0  0  0
  -26.0670  -23.1080   18.3310 C   0  0  0  0  0  2  0  0  0  0  0  0
  -27.4390  -23.6570   17.8570 C   0  0  0  0  0  2  0  0  0  0  0  0
  -27.4880  -25.1670   17.5810 C   0  0  0  0  0  2  0  0  0  0  0  0
  -27.8420  -25.9890   18.8250 C   0  0  0  0  0  2  0  0  0  0  0  0
  -27.7810  -27.3780   18.5390 O   0  0  0  0  0  0  0  0  0  0  0  0
  -24.4120  -31.6170   23.0920 C   0  0  0  0  0  0  0  0  0  0  0  0
  -26.5960  -27.9980   18.8470 C   0  0  0  0  0  0  0  0  0  0  0  0
  -22.9740  -30.4870   21.4280 C   0  0  0  0  0  3  0  0  0  0  0  0
  -24.1980  -29.3200   19.5230 C   0  0  0  0  0  0  0  0  0  0  0  0
  -25.4140  -31.0220   20.8930 C   0  0  0  0  0  2  0  0  0  0  0  0
  -25.4230  -29.7960   20.0070 C   0  0  0  0  0  0  0  0  0  0  0  0
  -26.6260  -29.1440   19.6650 C   0  0  0  0  0  3  0  0  0  0  0  0
  -25.3570  -27.5360   18.3510 C   0  0  0  0  0  3  0  0  0  0  0  0
  -24.1580  -28.1890   18.6890 C   0  0  0  0  0  3  0  0  0  0  0  0
  -22.9600  -30.0860   19.9290 C   0  0  0  0  0  2  0  0  0  0  0  0
  -24.2960  -31.0420   21.8630 N   0  0  0  0  0  0  0  0  0  0  0  0
  -23.4310  -31.7310   23.8410 O   0  0  0  0  0  0  0  0  0  0  0  0
  -22.5140  -29.2730   22.2650 C   0  0  0  0  0  0  0  0  0  0  0  0
  -21.2160  -28.9460   22.1760 N   0  0  0  0  0  0  0  0  0  0  0  0
  -23.3160  -28.6340   22.9500 O   0  0  0  0  0  0  0  0  0  0  0  0
  -20.6240  -29.5230   21.5940 H   0  0  0  0  0  0  0  0  0  0  0  0
  -18.0850  -27.1710   22.5010 C   0  0  0  0  0  0  0  0  0  0  0  0
  -20.5620  -27.8210   22.8460 C   0  0  0  0  0  3  0  0  0  0  0  0
  -20.9010  -26.4790   22.1570 C   0  0  0  0  0  2  0  0  0  0  0  0
  -19.8770  -26.0670   21.0960 C   0  0  0  0  0  2  0  0  0  0  0  0
  -18.4860  -25.9320   21.7210 C   0  0  0  0  0  2  0  0  0  0  0  0
  -19.0580  -28.0650   23.0180 C   0  0  0  0  0  0  0  0  0  0  0  0
  -18.6310  -29.2200   23.7080 C   0  0  0  0  0  3  0  0  0  0  0  0
  -17.2590  -29.4840   23.8880 C   0  0  0  0  0  3  0  0  0  0  0  0
  -16.3000  -28.5860   23.3870 C   0  0  0  0  0  3  0  0  0  0  0  0
  -16.7130  -27.4320   22.7000 C   0  0  0  0  0  3  0  0  0  0  0  0
  -25.7730  -32.1830   23.6070 C   0  0  0  0  0  3  0  0  0  0  0  0
  -25.5350  -33.5570   24.0640 N   0  0  0  0  0  0  0  0  0  0  0  0
  -25.8600  -34.6540   23.3670 C   0  0  0  0  0  0  0  0  0  0  0  0
  -26.4630  -34.6110   22.2910 O   0  0  0  0  0  0  0  0  0  0  0  0
  -24.9950  -33.6670   24.9090 H   0  0  0  0  0  0  0  0  0  0  0  0
  -24.1900  -36.5300   23.2410 C   0  0  0  0  0  1  0  0  0  0  0  0
  -25.4490  -36.0160   23.9570 C   0  0  0  0  0  3  0  0  0  0  0  0
  -27.6550  -36.7480   24.7470 C   0  0  0  0  0  1  0  0  0  0  0  0
  -26.5160  -37.0360   23.8800 N   0  0  0  0  0  0  0  0  0  0  0  0
  -26.1570  -37.9570   24.1220 H   0  0  0  0  0  0  0  0  0  0  0  0
  -26.4130  -31.3130   24.7580 C   0  0  1  0  0  0  0  0  0  0  0  0
  -25.4430  -31.0200   25.9260 C   0  0  0  0  0  1  0  0  0  0  0  0
  -26.9030  -29.9580   24.1970 C   0  0  0  0  0  1  0  0  0  0  0  0
  -27.6550  -32.0360   25.3320 C   0  0  0  0  0  1  0  0  0  0  0  0
  -26.8450  -21.8370   21.1290 C   0  0  0  0  0  2  0  0  0  0  0  0
  -28.3250  -21.4090   21.2360 C   0  0  0  0  0  2  0  0  0  0  0  0
  -28.8030  -20.1730   19.1090 C   0  0  0  0  0  0  0  0  0  0  0  0
  -28.9830  -21.2030   19.9440 N   0  0  0  0  0  0  0  0  0  0  0  0
  -28.0100  -19.2580   19.3470 O   0  0  0  0  0  0  0  0  0  0  0  0
  -29.6620  -21.8980   19.6610 H   0  0  0  0  0  0  0  0  0  0  0  0
  -29.6200  -20.2080   17.8050 C   0  0  0  0  0  2  0  0  0  0  0  0
  -30.1690  -18.9350   17.4770 O   0  0  0  0  0  0  0  0  0  0  0  0
  -30.8310  -18.2960   18.5560 C   0  0  0  0  0  2  0  0  0  0  0  0
  -31.5850  -17.0940   18.0010 C   0  0  0  0  0  2  0  0  0  0  0  0
  -32.0540  -14.8140   18.7770 C   0  0  0  0  0  0  0  0  0  0  0  0
  -31.9830  -12.4040   19.2480 C   0  0  0  0  0  2  0  0  0  0  0  0
  -31.0380  -11.7190   18.2430 C   0  0  0  0  0  2  0  0  0  0  0  0
  -29.5840  -11.7570   18.7520 C   0  0  0  0  0  2  0  0  0  0  0  0
  -29.1460  -13.1700   19.2200 C   0  0  0  0  0  3  0  0  0  0  0  0
  -30.2070  -13.7910   20.1550 C   0  0  0  0  0  2  0  0  0  0  0  0
  -31.5070  -13.7760   19.4550 N   0  0  0  0  0  0  0  0  0  0  0  0
  -33.0600  -14.7300   18.0690 O   0  0  0  0  0  0  0  0  0  0  0  0
  -31.3760  -15.9530   18.8720 N   0  0  0  0  0  0  0  0  0  0  0  0
  -30.5700  -15.9610   19.4790 H   0  0  0  0  0  0  0  0  0  0  0  0
  -27.0390  -14.1870   20.2990 C   0  0  0  0  0  0  0  0  0  0  0  0
  -25.8690  -13.6210   20.7370 C   0  0  0  0  0  0  0  0  0  0  0  0
  -26.0060  -12.2160   20.5170 C   0  0  0  0  0  0  0  0  0  0  0  0
  -27.8240  -13.1370   19.8470 N   0  0  0  0  0  0  0  0  0  0  0  0
  -27.2100  -11.9400   20.0310 N   0  0  0  0  0  0  0  0  0  0  0  0
  -25.0420  -11.1220   20.6900 C   0  0  0  0  0  0  0  0  0  0  0  0
  -25.3030  -10.0390   21.5600 C   0  0  0  0  0  3  0  0  0  0  0  0
  -24.3550   -9.0060   21.7220 C   0  0  0  0  0  3  0  0  0  0  0  0
  -23.1310   -9.0500   21.0130 C   0  0  0  0  0  0  0  0  0  0  0  0
  -22.8840  -10.1200   20.1350 C   0  0  0  0  0  3  0  0  0  0  0  0
  -23.8300  -11.1450   19.9710 C   0  0  0  0  0  3  0  0  0  0  0  0
  -22.1610   -8.0770   21.0850 O   0  0  0  0  0  0  0  0  0  0  0  0
  -21.9170   -7.3910   22.2460 C   0  0  0  0  0  0  0  0  0  0  0  0
  -21.5330   -8.0510   23.4340 C   0  0  0  0  0  3  0  0  0  0  0  0
  -21.2230   -7.3030   24.5870 C   0  0  0  0  0  3  0  0  0  0  0  0
  -21.2850   -5.8970   24.5530 C   0  0  0  0  0  0  0  0  0  0  0  0
  -21.6590   -5.2370   23.3680 C   0  0  0  0  0  3  0  0  0  0  0  0
  -21.9700   -5.9830   22.2180 C   0  0  0  0  0  0  0  0  0  0  0  0
  -22.3110   -5.3420   21.0750 F   0  0  0  0  0  0  0  0  0  0  0  0
  -20.9790   -5.1770   25.6560 F   0  0  0  0  0  0  0  0  0  0  0  0
  -24.6570  -14.3480   21.2450 C   0  0  0  0  0  0  0  0  0  0  0  0
  -23.9060  -13.7270   22.1490 N   0  0  0  0  0  0  0  0  0  0  0  0
  -24.3970  -15.4920   20.8800 O   0  0  0  0  0  0  0  0  0  0  0  0
  -24.1320  -12.7960   22.4640 H   0  0  0  0  0  0  0  0  0  0  0  0
  -23.0970  -14.1940   22.5340 H   0  0  0  0  0  0  0  0  0  0  0  0
  -27.4930  -15.4990   20.2280 N   0  0  0  0  0  0  0  0  0  0  0  0
  -26.9260  -16.2910   20.5080 H   0  0  0  0  0  0  0  0  0  0  0  0
  -28.3930  -15.7690   19.8460 H   0  0  0  0  0  0  0  0  0  0  0  0
  1 50  1  0
  2  3  1  0
  2  1  1  0
  4  2  1  0
  5  2  1  0
  6  5  1  0
  7  6  1  0
  7  8  1  0
  9  8  1  0
  9 11  1  0
 10 21  2  0
 11 16  1  0
 12 20  1  0
 12 22  1  0
 13 19  1  0
 13 15  1  0
 14 20  1  0
 15 14  1  0
 16 15  2  0
 17 18  1  0
 17 11  2  0
 18 13  2  0
 19 12  1  0
 20 10  1  0
 22 24  2  0
 23 22  1  0
 25 23  1  0
 26 35  2  0
 26 31  1  0
 27 23  1  0
 27 31  1  0
 28 27  1  0
 29 30  1  0
 29 28  1  0
 30 26  1  0
 31 32  2  0
 32 33  1  0
 34 33  2  0
 35 34  1  0
 36 10  1  0
 36 37  1  0
 36 46  1  0
 37 40  1  0
 38 42  1  0
 38 37  1  0
 39 38  2  0
 42 41  1  0
 44 42  1  0
 44 45  1  0
 44 43  1  0
 46 49  1  1
 46 47  1  0
 48 46  1  0
 50 51  1  0
 52 54  2  0
 52 53  1  0
 53 51  1  0
 55 53  1  0
 56 52  1  0
 57 56  1  0
 57 58  1  0
 59 58  1  0
 59 68  1  0
 60 68  1  0
 60 66  1  0
 61 66  1  0
 62 63  1  0
 62 61  1  0
 64 63  1  0
 64 73  1  0
 64 65  1  0
 66 65  1  0
 67 60  2  0
 68 69  1  0
 70 71  2  0
 71 90  1  0
 72 75  1  0
 72 71  1  0
 73 74  1  0
 73 70  1  0
 74 72  2  0
 75 76  1  0
 76 77  2  0
 78 81  1  0
 78 77  1  0
 79 78  2  0
 80 79  1  0
 80 75  2  0
 81 82  1  0
 82 83  1  0
 83 84  2  0
 85 84  1  0
 85 89  1  0
 86 85  2  0
 87 82  2  0
 87 86  1  0
 88 87  1  0
 90 91  1  0
 91 93  1  0
 91 94  1  0
 92 90  2  0
 95 70  1  0
 95 96  1  0
 97 95  1  0
M  ISO  4   8 101   9 101  60 100  68 100
M  END
>  <TORSDO>  (23) 
F 28

>  <SCORE>  (23) 
-8.176

>  <name>  (23) 
24

>  <ligand_id>  (23) 
24

>  <original_smiles>  (23) 
[H]c1c([H])c([H])c2c(c1[H])C([H])([H])C([H])([H])C([H])([H])C2([H])N([H])C(=O)C1([H])N(C(=O)C([H])(N([H])C(=O)C([H])(N([H])C([H])([H])[H])C([H])([H])[H])C(C([H])([H])[H])(C([H])([H])[H])C([H])([H])[H])C([H])([H])c2c([H])c(OC([H])([H])C([H])([H])C([H])([H])C([H])([H])[N+]([H])([H])C([H])([H])C([H])([H])C([H])([H])N([H])C(=O)C([H])([H])OC([H])([H])C([H])([H])N([H])C(=O)N3C([H])([H])C([H])([H])C([H])([H])C([H])(n4nc(-c5c([H])c([H])c(Oc6c([H])c([H])c(F)c([H])c6F)c([H])c5[H])c(C(=O)N([H])[H])c4N([H])[H])C3([H])[H])c([H])c([H])c2C1([H])[H]

>  <smiles>  (23) 
[H]c1c([H])c([H])c2c(c1[H])C([H])([H])C([H])([H])C([H])([H])C2([H])N([H])C(=O)C1([H])N(C(=O)C([H])(N([H])C(=O)C([H])(N([H])C([H])([H])[H])C([H])([H])[H])C(C([H])([H])[H])(C([H])([H])[H])C([H])([H])[H])C([H])([H])c2c([H])c(OC([H])([H])C([H])([H])C([H])([H])C([H])([H])[N+]([H])([H])C([H])([H])C([H])([H])C([H])([H])N([H])C(=O)C([H])([H])OC([H])([H])C([H])([H])N([H])C(=O)N3C([H])([H])C([H])([H])C([H])([H])C([H])(n4nc(-c5c([H])c([H])c(Oc6c([H])c([H])c(F)c([H])c6F)c([H])c5[H])c(C(=O)N([H])[H])c4N([H])[H])C3([H])[H])c([H])c([H])c2C1([H])[H]

$$$$
25:0:0
     RDKit          3D

102109  0  0  1  0  0  0  0  0999 V2000
  -25.8630  -22.7260   17.0420 C   0  0  0  0  0  0  0  0  0  0  0  0
  -27.1610  -22.9050   17.3160 N   0  0  0  0  0  0  0  0  0  0  0  0
  -25.4060  -21.6550   16.6420 O   0  0  0  0  0  0  0  0  0  0  0  0
  -27.4450  -23.8230   17.6320 H   0  0  0  0  0  0  0  0  0  0  0  0
  -28.2080  -21.8930   17.1980 C   0  0  0  0  0  2  0  0  0  0  0  0
  -28.0630  -20.7600   18.2340 C   0  0  0  0  0  2  0  0  0  0  0  0
  -28.0920  -21.2460   19.6970 C   0  0  0  0  0  2  0  0  0  0  0  0
  -28.2350  -20.1120   20.7320 C   0  0  0  0  0  2  0  0  0  0  0  0
  -29.5530  -19.4450   20.6650 N   0  0  0  0  0  4  0  0  0  0  0  0
  -30.2580  -20.0960   20.9740 H   0  0  0  0  0  0  0  0  0  0  0  0
  -29.7520  -19.2050   19.7070 H   0  0  0  0  0  0  0  0  0  0  0  0
  -29.6550  -18.2160   21.4850 C   0  0  0  0  0  2  0  0  0  0  0  0
  -31.0840  -17.6350   21.4640 C   0  0  0  0  0  2  0  0  0  0  0  0
  -31.2450  -16.2980   22.2190 C   0  0  0  0  0  2  0  0  0  0  0  0
  -30.9960  -14.4950   20.5060 C   0  0  0  0  0  0  0  0  0  0  0  0
  -30.5400  -12.6330   18.9540 C   0  0  0  0  0  2  0  0  0  0  0  0
  -29.5500  -13.0550   17.8520 C   0  0  0  0  0  2  0  0  0  0  0  0
  -28.0940  -12.8750   18.3250 C   0  0  0  0  0  2  0  0  0  0  0  0
  -27.8380  -13.5050   19.7180 C   0  0  0  0  0  3  0  0  0  0  0  0
  -28.9260  -13.0680   20.7230 C   0  0  0  0  0  2  0  0  0  0  0  0
  -30.2440  -13.4180   20.1610 N   0  0  0  0  0  0  0  0  0  0  0  0
  -32.0120  -14.8400   19.8950 O   0  0  0  0  0  0  0  0  0  0  0  0
  -30.5620  -15.1720   21.5770 N   0  0  0  0  0  0  0  0  0  0  0  0
  -29.7370  -14.8070   22.0310 H   0  0  0  0  0  0  0  0  0  0  0  0
  -25.4310  -14.0400   20.4620 C   0  0  0  0  0  0  0  0  0  0  0  0
  -24.3870  -13.2350   20.8300 C   0  0  0  0  0  0  0  0  0  0  0  0
  -24.8820  -11.8960   20.7690 C   0  0  0  0  0  0  0  0  0  0  0  0
  -26.4960  -13.1910   20.2050 N   0  0  0  0  0  0  0  0  0  0  0  0
  -26.1690  -11.8950   20.4440 N   0  0  0  0  0  0  0  0  0  0  0  0
  -24.1920  -10.6120   20.9460 C   0  0  0  0  0  0  0  0  0  0  0  0
  -24.5850   -9.6930   21.9430 C   0  0  0  0  0  3  0  0  0  0  0  0
  -23.8950   -8.4730   22.1060 C   0  0  0  0  0  3  0  0  0  0  0  0
  -22.7970   -8.1620   21.2670 C   0  0  0  0  0  0  0  0  0  0  0  0
  -22.4240   -9.0710   20.2610 C   0  0  0  0  0  3  0  0  0  0  0  0
  -23.1160  -10.2820   20.0970 C   0  0  0  0  0  3  0  0  0  0  0  0
  -22.0840   -6.9900   21.3340 O   0  0  0  0  0  0  0  0  0  0  0  0
  -21.8840   -6.3360   22.5230 C   0  0  0  0  0  0  0  0  0  0  0  0
  -21.1890   -6.9340   23.5960 C   0  0  0  0  0  3  0  0  0  0  0  0
  -20.9470   -6.2000   24.7750 C   0  0  0  0  0  3  0  0  0  0  0  0
  -21.3880   -4.8690   24.8800 C   0  0  0  0  0  0  0  0  0  0  0  0
  -22.0760   -4.2690   23.8100 C   0  0  0  0  0  3  0  0  0  0  0  0
  -22.3210   -4.9990   22.6340 C   0  0  0  0  0  0  0  0  0  0  0  0
  -22.9650   -4.4100   21.5980 F   0  0  0  0  0  0  0  0  0  0  0  0
  -21.1490   -4.1600   26.0080 F   0  0  0  0  0  0  0  0  0  0  0  0
  -22.9820  -13.6710   21.1310 C   0  0  0  0  0  0  0  0  0  0  0  0
  -22.2840  -12.9380   21.9920 N   0  0  0  0  0  0  0  0  0  0  0  0
  -22.5110  -14.6950   20.6390 O   0  0  0  0  0  0  0  0  0  0  0  0
  -22.6780  -12.1080   22.4120 H   0  0  0  0  0  0  0  0  0  0  0  0
  -21.3420  -13.2110   22.2360 H   0  0  0  0  0  0  0  0  0  0  0  0
  -25.5590  -15.4180   20.3060 N   0  0  0  0  0  0  0  0  0  0  0  0
  -24.7760  -16.0500   20.4310 H   0  0  0  0  0  0  0  0  0  0  0  0
  -26.3920  -15.8780   19.9650 H   0  0  0  0  0  0  0  0  0  0  0  0
  -24.9390  -23.9280   17.2510 C   0  0  0  0  0  2  0  0  0  0  0  0
  -23.7250  -23.6230   18.1540 C   0  0  0  0  0  2  0  0  0  0  0  0
  -24.0860  -23.0970   19.5530 C   0  0  0  0  0  2  0  0  0  0  0  0
  -24.9510  -24.0280   20.1820 O   0  0  0  0  0  0  0  0  0  0  0  0
  -25.3760  -23.6020   21.4700 C   0  0  0  0  0  2  0  0  0  0  0  0
  -26.5010  -24.5250   21.9490 C   0  0  0  0  0  2  0  0  0  0  0  0
  -27.5490  -24.4860   20.9890 O   0  0  0  0  0  0  0  0  0  0  0  0
  -28.7350  -25.1500   21.4010 C   0  0  0  0  0  2  0  0  0  0  0  0
  -29.3050  -25.9410   20.2040 C   0  0  0  0  0  2  0  0  0  0  0  0
  -29.2490  -27.3530   20.4050 O   0  0  0  0  0  0  0  0  0  0  0  0
  -25.1540  -31.8990   23.9850 C   0  0  0  0  0  0  0  0  0  0  0  0
  -28.0260  -27.9910   20.4320 C   0  0  0  0  0  0  0  0  0  0  0  0
  -24.0390  -30.6980   22.1330 C   0  0  0  0  0  3  0  0  0  0  0  0
  -25.5770  -29.3990   20.5700 C   0  0  0  0  0  0  0  0  0  0  0  0
  -26.5560  -31.1440   22.0710 C   0  0  0  0  0  2  0  0  0  0  0  0
  -26.6990  -29.8760   21.2580 C   0  0  0  0  0  0  0  0  0  0  0  0
  -27.9240  -29.1770   21.1870 C   0  0  0  0  0  3  0  0  0  0  0  0
  -26.8840  -27.5210   19.7410 C   0  0  0  0  0  3  0  0  0  0  0  0
  -25.6620  -28.2180   19.8120 C   0  0  0  0  0  3  0  0  0  0  0  0
  -24.3070  -30.2110   20.6850 C   0  0  0  0  0  2  0  0  0  0  0  0
  -25.2650  -31.2550   22.7890 N   0  0  0  0  0  0  0  0  0  0  0  0
  -24.0500  -32.0720   24.5200 O   0  0  0  0  0  0  0  0  0  0  0  0
  -23.3900  -29.5420   22.9290 C   0  0  0  0  0  0  0  0  0  0  0  0
  -22.1210  -29.2390   22.6110 N   0  0  0  0  0  0  0  0  0  0  0  0
  -24.0290  -28.9260   23.7850 O   0  0  0  0  0  0  0  0  0  0  0  0
  -21.6650  -29.7950   21.9020 H   0  0  0  0  0  0  0  0  0  0  0  0
  -18.9110  -27.5900   22.4620 C   0  0  0  0  0  0  0  0  0  0  0  0
  -21.3200  -28.1660   23.2000 C   0  0  0  0  0  3  0  0  0  0  0  0
  -21.7200  -26.7910   22.6180 C   0  0  0  0  0  2  0  0  0  0  0  0
  -20.8690  -26.3750   21.4150 C   0  0  0  0  0  2  0  0  0  0  0  0
  -19.3880  -26.3080   21.8000 C   0  0  0  0  0  2  0  0  0  0  0  0
  -19.8200  -28.4700   23.1060 C   0  0  0  0  0  0  0  0  0  0  0  0
  -19.3300  -29.6660   23.6730 C   0  0  0  0  0  3  0  0  0  0  0  0
  -17.9610  -29.9860   23.6090 C   0  0  0  0  0  3  0  0  0  0  0  0
  -17.0620  -29.1020   22.9860 C   0  0  0  0  0  3  0  0  0  0  0  0
  -17.5370  -27.9060   22.4180 C   0  0  0  0  0  3  0  0  0  0  0  0
  -26.4040  -32.4720   24.7260 C   0  0  0  0  0  3  0  0  0  0  0  0
  -26.1320  -33.8840   25.0230 N   0  0  0  0  0  0  0  0  0  0  0  0
  -26.6040  -34.9150   24.3100 C   0  0  0  0  0  0  0  0  0  0  0  0
  -27.3840  -34.7750   23.3630 O   0  0  0  0  0  0  0  0  0  0  0  0
  -25.4580  -34.0710   25.7520 H   0  0  0  0  0  0  0  0  0  0  0  0
  -25.0450  -36.8030   23.7380 C   0  0  0  0  0  1  0  0  0  0  0  0
  -26.1360  -36.3270   24.7100 C   0  0  0  0  0  3  0  0  0  0  0  0
  -28.1750  -37.0930   25.8430 C   0  0  0  0  0  1  0  0  0  0  0  0
  -27.2320  -37.3200   24.7510 N   0  0  0  0  0  0  0  0  0  0  0  0
  -26.8610  -38.2620   24.8430 H   0  0  0  0  0  0  0  0  0  0  0  0
  -26.7630  -31.6830   26.0450 C   0  0  1  0  0  0  0  0  0  0  0  0
  -25.5590  -31.4780   26.9940 C   0  0  0  0  0  1  0  0  0  0  0  0
  -27.3400  -30.2880   25.7060 C   0  0  0  0  0  1  0  0  0  0  0  0
  -27.8630  -32.4390   26.8250 C   0  0  0  0  0  1  0  0  0  0  0  0
  1 53  1  0
  1  2  1  0
  2  4  1  0
  3  1  2  0
  5  2  1  0
  5  6  1  0
  6  7  1  0
  7  8  1  0
  9  8  1  0
  9 10  1  0
  9 12  1  0
 11  9  1  0
 13 12  1  0
 13 14  1  0
 15 23  1  0
 16 21  1  0
 17 18  1  0
 17 16  1  0
 19 18  1  0
 19 28  1  0
 19 20  1  0
 21 15  1  0
 21 20  1  0
 22 15  2  0
 23 24  1  0
 23 14  1  0
 25 26  2  0
 26 45  1  0
 27 26  1  0
 27 30  1  0
 28 29  1  0
 28 25  1  0
 29 27  2  0
 30 31  1  0
 31 32  2  0
 33 36  1  0
 33 32  1  0
 34 33  2  0
 35 34  1  0
 35 30  2  0
 36 37  1  0
 37 42  2  0
 37 38  1  0
 38 39  2  0
 39 40  1  0
 40 44  1  0
 41 40  2  0
 42 41  1  0
 43 42  1  0
 45 46  1  0
 46 49  1  0
 46 48  1  0
 47 45  2  0
 50 51  1  0
 50 25  1  0
 52 50  1  0
 53 54  1  0
 54 55  1  0
 55 56  1  0
 56 57  1  0
 57 58  1  0
 59 60  1  0
 59 58  1  0
 61 62  1  0
 61 60  1  0
 62 64  1  0
 63 74  2  0
 64 69  1  0
 65 73  1  0
 65 75  1  0
 66 72  1  0
 66 68  1  0
 67 73  1  0
 68 67  1  0
 69 68  2  0
 70 71  1  0
 70 64  2  0
 71 66  2  0
 72 65  1  0
 73 63  1  0
 75 77  2  0
 76 75  1  0
 78 76  1  0
 79 84  1  0
 80 76  1  0
 81 80  1  0
 82 83  1  0
 82 81  1  0
 83 79  1  0
 84 80  1  0
 84 85  2  0
 86 85  1  0
 87 86  2  0
 88 79  2  0
 88 87  1  0
 89 63  1  0
 89 90  1  0
 89 99  1  0
 90 93  1  0
 91 95  1  0
 91 90  1  0
 92 91  2  0
 95 94  1  0
 95 97  1  0
 97 98  1  0
 97 96  1  0
 99102  1  1
 99100  1  0
101 99  1  0
M  ISO  4  15 100  23 100  61 101  62 101
M  END
>  <TORSDO>  (24) 
F 33

>  <SCORE>  (24) 
-7.834

>  <name>  (24) 
25

>  <ligand_id>  (24) 
25

>  <original_smiles>  (24) 
[H]c1c([H])c([H])c2c(c1[H])C([H])([H])C([H])([H])C([H])([H])C2([H])N([H])C(=O)C1([H])N(C(=O)C([H])(N([H])C(=O)C([H])(N([H])C([H])([H])[H])C([H])([H])[H])C(C([H])([H])[H])(C([H])([H])[H])C([H])([H])[H])C([H])([H])c2c([H])c(OC([H])([H])C([H])([H])OC([H])([H])C([H])([H])OC([H])([H])C([H])([H])C([H])([H])C(=O)N([H])C([H])([H])C([H])([H])C([H])([H])C([H])([H])[N+]([H])([H])C([H])([H])C([H])([H])C([H])([H])N([H])C(=O)N3C([H])([H])C([H])([H])C([H])([H])C([H])(n4nc(-c5c([H])c([H])c(Oc6c([H])c([H])c(F)c([H])c6F)c([H])c5[H])c(C(=O)N([H])[H])c4N([H])[H])C3([H])[H])c([H])c([H])c2C1([H])[H]

>  <smiles>  (24) 
[H]c1c([H])c([H])c2c(c1[H])C([H])([H])C([H])([H])C([H])([H])C2([H])N([H])C(=O)C1([H])N(C(=O)C([H])(N([H])C(=O)C([H])(N([H])C([H])([H])[H])C([H])([H])[H])C(C([H])([H])[H])(C([H])([H])[H])C([H])([H])[H])C([H])([H])c2c([H])c(OC([H])([H])C([H])([H])OC([H])([H])C([H])([H])OC([H])([H])C([H])([H])C([H])([H])C(=O)N([H])C([H])([H])C([H])([H])C([H])([H])C([H])([H])[N+]([H])([H])C([H])([H])C([H])([H])C([H])([H])N([H])C(=O)N3C([H])([H])C([H])([H])C([H])([H])C([H])(n4nc(-c5c([H])c([H])c(Oc6c([H])c([H])c(F)c([H])c6F)c([H])c5[H])c(C(=O)N([H])[H])c4N([H])[H])C3([H])[H])c([H])c([H])c2C1([H])[H]

$$$$
26:0:0
     RDKit          3D

101108  0  0  1  0  0  0  0  0999 V2000
  -32.9370  -19.5010   22.3910 C   0  0  0  0  0  0  0  0  0  0  0  0
  -33.4780  -20.1920   21.3700 N   0  0  0  0  0  0  0  0  0  0  0  0
  -33.5980  -18.5640   22.8300 O   0  0  0  0  0  0  0  0  0  0  0  0
  -34.3720  -19.8150   21.0790 H   0  0  0  0  0  0  0  0  0  0  0  0
  -33.1590  -21.4570   20.7140 C   0  0  0  0  0  2  0  0  0  0  0  0
  -32.0980  -21.3960   19.6020 C   0  0  0  0  0  2  0  0  0  0  0  0
  -30.9540  -22.3980   19.8470 C   0  0  0  0  0  2  0  0  0  0  0  0
  -30.0700  -22.6910   18.6170 C   0  0  0  0  0  2  0  0  0  0  0  0
  -28.7400  -23.3860   18.9840 C   0  0  0  0  0  2  0  0  0  0  0  0
  -28.5440  -25.8820   19.0610 C   0  0  0  0  0  0  0  0  0  0  0  0
  -28.9040  -24.6800   19.6500 N   0  0  0  0  0  0  0  0  0  0  0  0
  -28.3450  -26.0610   17.8570 O   0  0  0  0  0  0  0  0  0  0  0  0
  -29.0360  -24.7070   20.6540 H   0  0  0  0  0  0  0  0  0  0  0  0
  -28.2960  -26.8010   20.0280 O   0  0  0  0  0  0  0  0  0  0  0  0
  -24.5430  -31.9250   23.2740 C   0  0  0  0  0  0  0  0  0  0  0  0
  -27.1310  -27.5480   20.0340 C   0  0  0  0  0  0  0  0  0  0  0  0
  -23.3100  -30.5570   21.6260 C   0  0  0  0  0  3  0  0  0  0  0  0
  -24.7350  -29.0560   20.1400 C   0  0  0  0  0  0  0  0  0  0  0  0
  -25.8360  -30.9160   21.3980 C   0  0  0  0  0  2  0  0  0  0  0  0
  -25.9040  -29.5640   20.7180 C   0  0  0  0  0  0  0  0  0  0  0  0
  -27.1040  -28.8150   20.6680 C   0  0  0  0  0  3  0  0  0  0  0  0
  -25.9290  -27.0550   19.4620 C   0  0  0  0  0  3  0  0  0  0  0  0
  -24.7390  -27.8030   19.5130 C   0  0  0  0  0  3  0  0  0  0  0  0
  -23.4930  -29.9160   20.2280 C   0  0  0  0  0  2  0  0  0  0  0  0
  -24.5820  -31.1430   22.1570 N   0  0  0  0  0  0  0  0  0  0  0  0
  -23.4670  -32.1870   23.8320 O   0  0  0  0  0  0  0  0  0  0  0  0
  -22.6680  -29.5150   22.5710 C   0  0  0  0  0  0  0  0  0  0  0  0
  -21.3440  -29.3290   22.4500 N   0  0  0  0  0  0  0  0  0  0  0  0
  -23.3620  -28.8860   23.3740 O   0  0  0  0  0  0  0  0  0  0  0  0
  -20.8470  -29.8960   21.7810 H   0  0  0  0  0  0  0  0  0  0  0  0
  -17.9880  -28.0870   22.9320 C   0  0  0  0  0  0  0  0  0  0  0  0
  -20.5400  -28.3730   23.2080 C   0  0  0  0  0  3  0  0  0  0  0  0
  -20.6600  -26.9480   22.6190 C   0  0  0  0  0  2  0  0  0  0  0  0
  -19.5620  -26.6220   21.6000 C   0  0  0  0  0  2  0  0  0  0  0  0
  -18.1790  -26.7460   22.2430 C   0  0  0  0  0  2  0  0  0  0  0  0
  -19.0970  -28.8570   23.3710 C   0  0  0  0  0  0  0  0  0  0  0  0
  -18.8580  -30.1130   23.9750 C   0  0  0  0  0  3  0  0  0  0  0  0
  -17.5490  -30.5960   24.1430 C   0  0  0  0  0  3  0  0  0  0  0  0
  -16.4530  -29.8210   23.7180 C   0  0  0  0  0  3  0  0  0  0  0  0
  -16.6750  -28.5680   23.1210 C   0  0  0  0  0  3  0  0  0  0  0  0
  -25.8370  -32.5390   23.8870 C   0  0  0  0  0  3  0  0  0  0  0  0
  -26.3530  -31.7670   25.1640 C   0  0  1  0  0  0  0  0  0  0  0  0
  -25.2600  -31.5460   26.2350 C   0  0  0  0  0  1  0  0  0  0  0  0
  -26.9180  -30.3820   24.7710 C   0  0  0  0  0  1  0  0  0  0  0  0
  -27.5200  -32.5520   25.8130 C   0  0  0  0  0  1  0  0  0  0  0  0
  -25.5510  -33.9450   24.2090 N   0  0  0  0  0  0  0  0  0  0  0  0
  -25.9000  -34.9870   23.4420 C   0  0  0  0  0  0  0  0  0  0  0  0
  -26.5660  -34.8630   22.4110 O   0  0  0  0  0  0  0  0  0  0  0  0
  -24.9550  -34.1160   25.0070 H   0  0  0  0  0  0  0  0  0  0  0  0
  -24.2030  -36.8070   23.0790 C   0  0  0  0  0  1  0  0  0  0  0  0
  -25.4370  -36.3880   23.8910 C   0  0  0  0  0  3  0  0  0  0  0  0
  -27.5840  -37.2430   24.7170 C   0  0  0  0  0  1  0  0  0  0  0  0
  -26.4890  -37.4200   23.7680 N   0  0  0  0  0  0  0  0  0  0  0  0
  -26.0990  -38.3480   23.8990 H   0  0  0  0  0  0  0  0  0  0  0  0
  -31.5080  -19.6990   22.9830 C   0  0  0  0  0  3  0  0  0  0  0  0
  -30.0330  -18.3320   21.4860 C   0  0  0  0  0  0  0  0  0  0  0  0
  -30.4630  -19.5230   21.9660 N   0  0  0  0  0  0  0  0  0  0  0  0
  -29.1560  -18.2730   20.6230 O   0  0  0  0  0  0  0  0  0  0  0  0
  -30.0420  -20.3650   21.6000 H   0  0  0  0  0  0  0  0  0  0  0  0
  -30.6180  -17.0260   22.0620 C   0  0  0  0  0  2  0  0  0  0  0  0
  -30.8210  -14.9840   20.6290 C   0  0  0  0  0  0  0  0  0  0  0  0
  -30.6320  -12.8900   19.3290 C   0  0  0  0  0  2  0  0  0  0  0  0
  -29.6990  -13.0960   18.1160 C   0  0  0  0  0  2  0  0  0  0  0  0
  -28.2310  -12.8700   18.5280 C   0  0  0  0  0  2  0  0  0  0  0  0
  -27.8470  -13.6700   19.7990 C   0  0  0  0  0  3  0  0  0  0  0  0
  -28.8770  -13.4070   20.9140 C   0  0  0  0  0  2  0  0  0  0  0  0
  -30.1940  -13.8040   20.3880 N   0  0  0  0  0  0  0  0  0  0  0  0
  -31.9160  -15.2850   20.1370 O   0  0  0  0  0  0  0  0  0  0  0  0
  -30.1350  -15.8050   21.4270 N   0  0  0  0  0  0  0  0  0  0  0  0
  -29.2110  -15.5030   21.6940 H   0  0  0  0  0  0  0  0  0  0  0  0
  -25.4160  -14.1950   20.4650 C   0  0  0  0  0  0  0  0  0  0  0  0
  -24.3700  -13.3860   20.8200 C   0  0  0  0  0  0  0  0  0  0  0  0
  -24.8810  -12.0510   20.7910 C   0  0  0  0  0  0  0  0  0  0  0  0
  -26.4940  -13.3530   20.2450 N   0  0  0  0  0  0  0  0  0  0  0  0
  -26.1740  -12.0600   20.5000 N   0  0  0  0  0  0  0  0  0  0  0  0
  -24.2020  -10.7640   20.9670 C   0  0  0  0  0  0  0  0  0  0  0  0
  -24.6040   -9.8500   21.9640 C   0  0  0  0  0  3  0  0  0  0  0  0
  -23.9270   -8.6230   22.1250 C   0  0  0  0  0  3  0  0  0  0  0  0
  -22.8370   -8.2990   21.2850 C   0  0  0  0  0  0  0  0  0  0  0  0
  -22.4560   -9.2030   20.2770 C   0  0  0  0  0  3  0  0  0  0  0  0
  -23.1340  -10.4230   20.1140 C   0  0  0  0  0  3  0  0  0  0  0  0
  -22.1380   -7.1200   21.3490 O   0  0  0  0  0  0  0  0  0  0  0  0
  -21.9550   -6.4550   22.5370 C   0  0  0  0  0  0  0  0  0  0  0  0
  -21.3250   -7.0640   23.6440 C   0  0  0  0  0  3  0  0  0  0  0  0
  -21.0960   -6.3240   24.8210 C   0  0  0  0  0  3  0  0  0  0  0  0
  -21.4880   -4.9740   24.8900 C   0  0  0  0  0  0  0  0  0  0  0  0
  -22.1130   -4.3630   23.7890 C   0  0  0  0  0  3  0  0  0  0  0  0
  -22.3440   -5.1020   22.6140 C   0  0  0  0  0  0  0  0  0  0  0  0
  -22.9270   -4.5030   21.5480 F   0  0  0  0  0  0  0  0  0  0  0  0
  -21.2630   -4.2610   26.0180 F   0  0  0  0  0  0  0  0  0  0  0  0
  -22.9540  -13.8070   21.0780 C   0  0  0  0  0  0  0  0  0  0  0  0
  -22.2430  -13.0810   21.9350 N   0  0  0  0  0  0  0  0  0  0  0  0
  -22.4800  -14.8150   20.5540 O   0  0  0  0  0  0  0  0  0  0  0  0
  -22.6420  -12.2680   22.3810 H   0  0  0  0  0  0  0  0  0  0  0  0
  -21.2910  -13.3430   22.1490 H   0  0  0  0  0  0  0  0  0  0  0  0
  -25.5350  -15.5730   20.2890 N   0  0  0  0  0  0  0  0  0  0  0  0
  -24.7410  -16.2030   20.3730 H   0  0  0  0  0  0  0  0  0  0  0  0
  -26.3690  -16.0290   19.9350 H   0  0  0  0  0  0  0  0  0  0  0  0
  -29.7720  -21.2330   24.1870 C   0  0  0  0  0  1  0  0  0  0  0  0
  -32.0520  -22.2110   23.7780 C   0  0  0  0  0  1  0  0  0  0  0  0
  -31.2640  -20.9080   23.9630 C   0  0  0  0  0  3  0  0  0  0  0  0
  1  3  2  0
  2  1  1  0
  4  2  1  0
  5  2  1  0
  6  7  1  0
  6  5  1  0
  8  9  1  0
  8  7  1  0
  9 11  1  0
 10 11  1  0
 10 14  1  0
 11 13  1  0
 12 10  2  0
 14 16  1  0
 15 26  2  0
 16 21  1  0
 17 25  1  0
 17 27  1  0
 18 24  1  0
 18 20  1  0
 19 25  1  0
 20 19  1  0
 21 20  2  0
 22 23  1  0
 22 16  2  0
 23 18  2  0
 24 17  1  0
 25 15  1  0
 27 29  2  0
 28 27  1  0
 30 28  1  0
 31 40  2  0
 31 36  1  0
 32 28  1  0
 32 36  1  0
 33 32  1  0
 34 35  1  0
 34 33  1  0
 35 31  1  0
 36 37  2  0
 37 38  1  0
 39 38  2  0
 40 39  1  0
 41 15  1  0
 41 46  1  0
 41 42  1  0
 42 45  1  1
 42 43  1  0
 44 42  1  0
 46 49  1  0
 47 51  1  0
 47 46  1  0
 48 47  2  0
 51 50  1  0
 53 51  1  0
 53 54  1  0
 53 52  1  0
 55  1  1  0
 55101  1  0
 56 57  1  0
 56 60  1  0
 57 55  1  0
 58 56  2  0
 59 57  1  0
 61 69  1  0
 62 67  1  0
 63 64  1  0
 63 62  1  0
 65 64  1  0
 65 74  1  0
 65 66  1  0
 67 61  1  0
 67 66  1  0
 68 61  2  0
 69 70  1  0
 69 60  1  0
 71 72  2  0
 72 91  1  0
 73 72  1  0
 73 76  1  0
 74 71  1  0
 74 75  1  0
 75 73  2  0
 76 77  1  0
 77 78  2  0
 79 82  1  0
 79 78  1  0
 80 79  2  0
 81 80  1  0
 81 76  2  0
 82 83  1  0
 83 88  2  0
 83 84  1  0
 84 85  2  0
 85 86  1  0
 86 90  1  0
 87 86  2  0
 88 87  1  0
 89 88  1  0
 91 92  1  0
 92 95  1  0
 92 94  1  0
 93 91  2  0
 96 97  1  0
 96 71  1  0
 98 96  1  0
100101  1  0
101 99  1  0
M  ISO  4  10 101  14 101  61 100  69 100
M  END
>  <TORSDO>  (25) 
F 26

>  <SCORE>  (25) 
-9.751

>  <name>  (25) 
26

>  <ligand_id>  (25) 
26

>  <original_smiles>  (25) 
[H]c1c([H])c([H])c2c(c1[H])C([H])([H])C([H])([H])C([H])([H])C2([H])N([H])C(=O)C1([H])N(C(=O)C([H])(N([H])C(=O)C([H])(N([H])C([H])([H])[H])C([H])([H])[H])C(C([H])([H])[H])(C([H])([H])[H])C([H])([H])[H])C([H])([H])c2c([H])c(OC(=O)N([H])C([H])([H])C([H])([H])C([H])([H])C([H])([H])C([H])([H])N([H])C(=O)C([H])(N([H])C(=O)C([H])([H])N([H])C(=O)N3C([H])([H])C([H])([H])C([H])([H])C([H])(n4nc(-c5c([H])c([H])c(Oc6c([H])c([H])c(F)c([H])c6F)c([H])c5[H])c(C(=O)N([H])[H])c4N([H])[H])C3([H])[H])C([H])(C([H])([H])[H])C([H])([H])[H])c([H])c([H])c2C1([H])[H]

>  <smiles>  (25) 
[H]c1c([H])c([H])c2c(c1[H])C([H])([H])C([H])([H])C([H])([H])C2([H])N([H])C(=O)C1([H])N(C(=O)C([H])(N([H])C(=O)C([H])(N([H])C([H])([H])[H])C([H])([H])[H])C(C([H])([H])[H])(C([H])([H])[H])C([H])([H])[H])C([H])([H])c2c([H])c(OC(=O)N([H])C([H])([H])C([H])([H])C([H])([H])C([H])([H])C([H])([H])N([H])C(=O)C([H])(N([H])C(=O)C([H])([H])N([H])C(=O)N3C([H])([H])C([H])([H])C([H])([H])C([H])(n4nc(-c5c([H])c([H])c(Oc6c([H])c([H])c(F)c([H])c6F)c([H])c5[H])c(C(=O)N([H])[H])c4N([H])[H])C3([H])[H])C([H])(C([H])([H])[H])C([H])([H])[H])c([H])c([H])c2C1([H])[H]

$$$$
27:0:0
     RDKit          3D

 91 98  0  0  1  0  0  0  0  0999 V2000
  -31.4660  -22.2740   20.4310 C   0  0  0  0  0  0  0  0  0  0  0  0
  -30.2450  -21.7710   20.1980 N   0  0  0  0  0  0  0  0  0  0  0  0
  -32.4780  -21.5660   20.4270 O   0  0  0  0  0  0  0  0  0  0  0  0
  -29.4890  -22.4460   20.2070 H   0  0  0  0  0  0  0  0  0  0  0  0
  -31.6100  -23.7870   20.6640 C   0  0  0  0  0  2  0  0  0  0  0  0
  -30.3460  -24.4480   20.8220 O   0  0  0  0  0  0  0  0  0  0  0  0
  -30.5350  -25.8670   20.8490 C   0  0  0  0  0  2  0  0  0  0  0  0
  -29.2690  -26.6740   21.1880 C   0  0  0  0  0  2  0  0  0  0  0  0
  -28.3820  -26.6860   20.0710 O   0  0  0  0  0  0  0  0  0  0  0  0
  -24.5830  -31.8670   23.2510 C   0  0  0  0  0  0  0  0  0  0  0  0
  -27.2410  -27.4530   20.1590 C   0  0  0  0  0  0  0  0  0  0  0  0
  -23.3740  -30.4660   21.6050 C   0  0  0  0  0  3  0  0  0  0  0  0
  -24.8290  -28.9320   20.1790 C   0  0  0  0  0  0  0  0  0  0  0  0
  -25.8920  -30.8380   21.3990 C   0  0  0  0  0  2  0  0  0  0  0  0
  -25.9810  -29.4620   20.7710 C   0  0  0  0  0  0  0  0  0  0  0  0
  -27.1880  -28.7300   20.7710 C   0  0  0  0  0  3  0  0  0  0  0  0
  -26.0750  -26.9380   19.5600 C   0  0  0  0  0  3  0  0  0  0  0  0
  -24.8660  -27.6630   19.5720 C   0  0  0  0  0  3  0  0  0  0  0  0
  -23.5860  -29.7910   20.2220 C   0  0  0  0  0  2  0  0  0  0  0  0
  -24.6340  -31.0700   22.1450 N   0  0  0  0  0  0  0  0  0  0  0  0
  -23.5030  -32.1350   23.7950 O   0  0  0  0  0  0  0  0  0  0  0  0
  -22.7270  -29.4420   22.5640 C   0  0  0  0  0  0  0  0  0  0  0  0
  -21.4030  -29.2590   22.4390 N   0  0  0  0  0  0  0  0  0  0  0  0
  -23.4140  -28.8150   23.3760 O   0  0  0  0  0  0  0  0  0  0  0  0
  -20.9130  -29.8150   21.7520 H   0  0  0  0  0  0  0  0  0  0  0  0
  -18.0300  -28.0690   22.9440 C   0  0  0  0  0  0  0  0  0  0  0  0
  -20.5890  -28.3210   23.2100 C   0  0  0  0  0  3  0  0  0  0  0  0
  -20.6870  -26.8910   22.6310 C   0  0  0  0  0  2  0  0  0  0  0  0
  -19.5820  -26.5730   21.6180 C   0  0  0  0  0  2  0  0  0  0  0  0
  -18.2020  -26.7200   22.2670 C   0  0  0  0  0  2  0  0  0  0  0  0
  -19.1500  -28.8270   23.3750 C   0  0  0  0  0  0  0  0  0  0  0  0
  -18.9370  -30.0890   23.9690 C   0  0  0  0  0  3  0  0  0  0  0  0
  -17.6330  -30.5930   24.1410 C   0  0  0  0  0  3  0  0  0  0  0  0
  -16.5260  -29.8310   23.7260 C   0  0  0  0  0  3  0  0  0  0  0  0
  -16.7260  -28.5710   23.1340 C   0  0  0  0  0  3  0  0  0  0  0  0
  -25.8710  -32.4950   23.8670 C   0  0  0  0  0  3  0  0  0  0  0  0
  -25.5650  -33.8930   24.1980 N   0  0  0  0  0  0  0  0  0  0  0  0
  -25.9010  -34.9440   23.4370 C   0  0  0  0  0  0  0  0  0  0  0  0
  -26.5710  -34.8380   22.4060 O   0  0  0  0  0  0  0  0  0  0  0  0
  -24.9660  -34.0500   24.9950 H   0  0  0  0  0  0  0  0  0  0  0  0
  -24.1780  -36.7390   23.0740 C   0  0  0  0  0  1  0  0  0  0  0  0
  -25.4160  -36.3340   23.8910 C   0  0  0  0  0  3  0  0  0  0  0  0
  -27.5510  -37.2090   24.7290 C   0  0  0  0  0  1  0  0  0  0  0  0
  -26.4530  -37.3840   23.7820 N   0  0  0  0  0  0  0  0  0  0  0  0
  -26.0500  -38.3050   23.9290 H   0  0  0  0  0  0  0  0  0  0  0  0
  -26.3960  -31.7200   25.1370 C   0  0  1  0  0  0  0  0  0  0  0  0
  -25.3100  -31.4770   26.2120 C   0  0  0  0  0  1  0  0  0  0  0  0
  -26.9740  -30.3440   24.7300 C   0  0  0  0  0  1  0  0  0  0  0  0
  -27.5500  -32.5100   25.7950 C   0  0  0  0  0  1  0  0  0  0  0  0
  -29.9460  -20.3950   19.7760 C   0  0  0  0  0  2  0  0  0  0  0  0
  -30.1550  -19.3390   20.8900 C   0  0  0  0  0  2  0  0  0  0  0  0
  -29.8330  -17.8870   20.4460 C   0  0  0  0  0  2  0  0  0  0  0  0
  -30.3400  -16.8250   21.4520 C   0  0  0  0  0  2  0  0  0  0  0  0
  -30.6320  -14.4900   20.5120 C   0  0  0  0  0  0  0  0  0  0  0  0
  -30.3600  -12.3430   19.3180 C   0  0  0  0  0  2  0  0  0  0  0  0
  -29.4140  -12.5610   18.1180 C   0  0  0  0  0  2  0  0  0  0  0  0
  -27.9360  -12.4310   18.5410 C   0  0  0  0  0  2  0  0  0  0  0  0
  -27.6000  -13.2370   19.8250 C   0  0  0  0  0  3  0  0  0  0  0  0
  -28.6570  -12.9800   20.9230 C   0  0  0  0  0  2  0  0  0  0  0  0
  -29.9790  -13.3070   20.3600 N   0  0  0  0  0  0  0  0  0  0  0  0
  -31.7450  -14.7140   20.0280 O   0  0  0  0  0  0  0  0  0  0  0  0
  -29.9230  -15.4510   21.1350 N   0  0  0  0  0  0  0  0  0  0  0  0
  -29.0100  -15.1720   21.4580 H   0  0  0  0  0  0  0  0  0  0  0  0
  -25.1980  -13.8280   20.5400 C   0  0  0  0  0  0  0  0  0  0  0  0
  -24.1360  -13.0480   20.9110 C   0  0  0  0  0  0  0  0  0  0  0  0
  -24.6050  -11.7000   20.8790 C   0  0  0  0  0  0  0  0  0  0  0  0
  -26.2500  -12.9540   20.3050 N   0  0  0  0  0  0  0  0  0  0  0  0
  -25.8960  -11.6690   20.5660 N   0  0  0  0  0  0  0  0  0  0  0  0
  -23.8890  -10.4330   21.0720 C   0  0  0  0  0  0  0  0  0  0  0  0
  -24.3410   -9.4610   21.9920 C   0  0  0  0  0  3  0  0  0  0  0  0
  -23.6250   -8.2580   22.1710 C   0  0  0  0  0  3  0  0  0  0  0  0
  -22.4430   -8.0200   21.4320 C   0  0  0  0  0  0  0  0  0  0  0  0
  -22.0110   -8.9800   20.5000 C   0  0  0  0  0  3  0  0  0  0  0  0
  -22.7280  -10.1720   20.3190 C   0  0  0  0  0  3  0  0  0  0  0  0
  -21.6960   -6.8700   21.5240 O   0  0  0  0  0  0  0  0  0  0  0  0
  -21.6820   -6.1080   22.6650 C   0  0  0  0  0  0  0  0  0  0  0  0
  -21.2910   -6.6420   23.9110 C   0  0  0  0  0  3  0  0  0  0  0  0
  -21.2200   -5.8050   25.0430 C   0  0  0  0  0  3  0  0  0  0  0  0
  -21.5360   -4.4380   24.9300 C   0  0  0  0  0  0  0  0  0  0  0  0
  -21.9220   -3.9050   23.6890 C   0  0  0  0  0  3  0  0  0  0  0  0
  -21.9930   -4.7370   22.5590 C   0  0  0  0  0  0  0  0  0  0  0  0
  -22.3440   -4.2120   21.3600 F   0  0  0  0  0  0  0  0  0  0  0  0
  -21.4620   -3.6360   26.0180 F   0  0  0  0  0  0  0  0  0  0  0  0
  -22.7350  -13.5160   21.1840 C   0  0  0  0  0  0  0  0  0  0  0  0
  -22.0080  -12.8190   22.0510 N   0  0  0  0  0  0  0  0  0  0  0  0
  -22.2900  -14.5380   20.6620 O   0  0  0  0  0  0  0  0  0  0  0  0
  -22.3760  -11.9950   22.5030 H   0  0  0  0  0  0  0  0  0  0  0  0
  -21.0690  -13.1170   22.2660 H   0  0  0  0  0  0  0  0  0  0  0  0
  -25.3510  -15.1990   20.3640 N   0  0  0  0  0  0  0  0  0  0  0  0
  -24.5800  -15.8470   20.4820 H   0  0  0  0  0  0  0  0  0  0  0  0
  -26.1960  -15.6460   20.0290 H   0  0  0  0  0  0  0  0  0  0  0  0
  1  5  1  0
  2  4  1  0
  2  1  1  0
  3  1  2  0
  5  6  1  0
  6  7  1  0
  7  8  1  0
  9 11  1  0
  9  8  1  0
 10 21  2  0
 11 16  1  0
 12 20  1  0
 12 22  1  0
 13 19  1  0
 13 15  1  0
 14 20  1  0
 15 16  2  0
 15 14  1  0
 17 18  1  0
 17 11  2  0
 18 13  2  0
 19 12  1  0
 20 10  1  0
 22 24  2  0
 23 22  1  0
 25 23  1  0
 26 35  2  0
 26 31  1  0
 27 23  1  0
 27 31  1  0
 28 27  1  0
 29 30  1  0
 29 28  1  0
 30 26  1  0
 31 32  2  0
 32 33  1  0
 34 33  2  0
 35 34  1  0
 36 10  1  0
 36 37  1  0
 36 46  1  0
 37 40  1  0
 38 42  1  0
 38 37  1  0
 39 38  2  0
 42 41  1  0
 44 42  1  0
 44 45  1  0
 44 43  1  0
 46 49  1  1
 46 47  1  0
 48 46  1  0
 50  2  1  0
 50 51  1  0
 52 51  1  0
 52 53  1  0
 54 62  1  0
 55 60  1  0
 56 57  1  0
 56 55  1  0
 58 57  1  0
 58 67  1  0
 58 59  1  0
 60 54  1  0
 60 59  1  0
 61 54  2  0
 62 53  1  0
 62 63  1  0
 64 65  2  0
 65 84  1  0
 66 65  1  0
 66 69  1  0
 67 64  1  0
 67 68  1  0
 68 66  2  0
 69 70  1  0
 70 71  2  0
 72 75  1  0
 72 71  1  0
 73 72  2  0
 74 73  1  0
 74 69  2  0
 75 76  1  0
 76 77  1  0
 77 78  2  0
 79 78  1  0
 79 83  1  0
 80 79  2  0
 81 76  2  0
 81 80  1  0
 82 81  1  0
 84 85  1  0
 85 88  1  0
 85 87  1  0
 86 84  2  0
 89 90  1  0
 89 64  1  0
 91 89  1  0
M  ISO  4   8 101   9 101  54 100  62 100
M  END
>  <TORSDO>  (26) 
F 24

>  <SCORE>  (26) 
-12.428

>  <name>  (26) 
27

>  <ligand_id>  (26) 
27

>  <original_smiles>  (26) 
[H]c1c([H])c([H])c2c(c1[H])C([H])([H])C([H])([H])C([H])([H])C2([H])N([H])C(=O)C1([H])N(C(=O)C([H])(N([H])C(=O)C([H])(N([H])C([H])([H])[H])C([H])([H])[H])C(C([H])([H])[H])(C([H])([H])[H])C([H])([H])[H])C([H])([H])c2c([H])c(OC([H])([H])C([H])([H])OC([H])([H])C(=O)N([H])C([H])([H])C([H])([H])C([H])([H])C([H])([H])N([H])C(=O)N3C([H])([H])C([H])([H])C([H])([H])C([H])(n4nc(-c5c([H])c([H])c(Oc6c([H])c([H])c(F)c([H])c6F)c([H])c5[H])c(C(=O)N([H])[H])c4N([H])[H])C3([H])[H])c([H])c([H])c2C1([H])[H]

>  <smiles>  (26) 
[H]c1c([H])c([H])c2c(c1[H])C([H])([H])C([H])([H])C([H])([H])C2([H])N([H])C(=O)C1([H])N(C(=O)C([H])(N([H])C(=O)C([H])(N([H])C([H])([H])[H])C([H])([H])[H])C(C([H])([H])[H])(C([H])([H])[H])C([H])([H])[H])C([H])([H])c2c([H])c(OC([H])([H])C([H])([H])OC([H])([H])C(=O)N([H])C([H])([H])C([H])([H])C([H])([H])C([H])([H])N([H])C(=O)N3C([H])([H])C([H])([H])C([H])([H])C([H])(n4nc(-c5c([H])c([H])c(Oc6c([H])c([H])c(F)c([H])c6F)c([H])c5[H])c(C(=O)N([H])[H])c4N([H])[H])C3([H])[H])c([H])c([H])c2C1([H])[H]

$$$$
28:0:0
     RDKit          3D

 88 95  0  0  1  0  0  0  0  0999 V2000
  -28.6030  -22.3210   20.8340 C   0  0  0  0  0  2  0  0  0  0  0  0
  -27.8520  -23.7220   20.4300 C   0  0  0  0  0  2  0  0  0  0  0  0
  -28.5010  -25.0460   19.7690 C   0  0  0  0  0  2  0  0  0  0  0  0
  -28.3500  -26.4480   20.2940 O   0  0  0  0  0  0  0  0  0  0  0  0
  -24.6330  -31.8920   23.2420 C   0  0  0  0  0  0  0  0  0  0  0  0
  -27.2160  -27.2820   20.1920 C   0  0  0  0  0  0  0  0  0  0  0  0
  -23.4170  -30.4900   21.6110 C   0  0  0  0  0  3  0  0  0  0  0  0
  -24.8550  -28.9200   20.1780 C   0  0  0  0  0  0  0  0  0  0  0  0
  -25.9550  -30.7920   21.4140 C   0  0  0  0  0  2  0  0  0  0  0  0
  -26.0250  -29.4070   20.7700 C   0  0  0  0  0  0  0  0  0  0  0  0
  -27.2030  -28.5980   20.7670 C   0  0  0  0  0  3  0  0  0  0  0  0
  -26.0250  -26.8520   19.5720 C   0  0  0  0  0  3  0  0  0  0  0  0
  -24.8590  -27.6510   19.5680 C   0  0  0  0  0  3  0  0  0  0  0  0
  -23.6210  -29.8030   20.2320 C   0  0  0  0  0  2  0  0  0  0  0  0
  -24.6880  -31.0780   22.1450 N   0  0  0  0  0  0  0  0  0  0  0  0
  -23.5530  -32.1750   23.7810 O   0  0  0  0  0  0  0  0  0  0  0  0
  -22.7540  -29.4840   22.5820 C   0  0  0  0  0  0  0  0  0  0  0  0
  -21.4270  -29.3090   22.4630 N   0  0  0  0  0  0  0  0  0  0  0  0
  -23.4340  -28.8620   23.4020 O   0  0  0  0  0  0  0  0  0  0  0  0
  -20.9370  -29.8620   21.7730 H   0  0  0  0  0  0  0  0  0  0  0  0
  -18.0530  -28.1050   22.9690 C   0  0  0  0  0  0  0  0  0  0  0  0
  -20.6100  -28.3760   23.2400 C   0  0  0  0  0  3  0  0  0  0  0  0
  -20.7170  -26.9390   22.6770 C   0  0  0  0  0  2  0  0  0  0  0  0
  -19.6180  -26.6040   21.6640 C   0  0  0  0  0  2  0  0  0  0  0  0
  -18.2350  -26.7510   22.3040 C   0  0  0  0  0  2  0  0  0  0  0  0
  -19.1680  -28.8750   23.3950 C   0  0  0  0  0  0  0  0  0  0  0  0
  -18.9430  -30.1420   23.9750 C   0  0  0  0  0  3  0  0  0  0  0  0
  -17.6360  -30.6400   24.1360 C   0  0  0  0  0  3  0  0  0  0  0  0
  -16.5350  -29.8670   23.7260 C   0  0  0  0  0  3  0  0  0  0  0  0
  -16.7440  -28.6020   23.1500 C   0  0  0  0  0  3  0  0  0  0  0  0
  -25.9210  -32.5240   23.8560 C   0  0  0  0  0  3  0  0  0  0  0  0
  -25.6150  -33.9230   24.1900 N   0  0  0  0  0  0  0  0  0  0  0  0
  -25.9450  -34.9770   23.4330 C   0  0  0  0  0  0  0  0  0  0  0  0
  -26.6070  -34.8750   22.3960 O   0  0  0  0  0  0  0  0  0  0  0  0
  -25.0270  -34.0760   24.9970 H   0  0  0  0  0  0  0  0  0  0  0  0
  -24.2160  -36.7750   23.1020 C   0  0  0  0  0  1  0  0  0  0  0  0
  -25.4660  -36.3670   23.8990 C   0  0  0  0  0  3  0  0  0  0  0  0
  -27.6130  -37.2460   24.7020 C   0  0  0  0  0  1  0  0  0  0  0  0
  -26.4980  -37.4180   23.7740 N   0  0  0  0  0  0  0  0  0  0  0  0
  -26.0960  -38.3390   23.9290 H   0  0  0  0  0  0  0  0  0  0  0  0
  -26.4440  -31.7540   25.1310 C   0  0  1  0  0  0  0  0  0  0  0  0
  -25.3590  -31.5230   26.2090 C   0  0  0  0  0  1  0  0  0  0  0  0
  -27.0180  -30.3720   24.7390 C   0  0  0  0  0  1  0  0  0  0  0  0
  -27.6030  -32.5440   25.7830 C   0  0  0  0  0  1  0  0  0  0  0  0
  -29.2130  -21.2180   19.8230 C   0  0  0  0  0  2  0  0  0  0  0  0
  -29.7670  -18.6570   20.4490 C   0  0  0  0  0  0  0  0  0  0  0  0
  -28.9880  -19.7030   19.9760 N   0  0  0  0  0  0  0  0  0  0  0  0
  -30.6640  -18.8620   21.2680 O   0  0  0  0  0  0  0  0  0  0  0  0
  -28.2300  -19.3730   19.3910 H   0  0  0  0  0  0  0  0  0  0  0  0
  -29.6140  -17.1830   19.8340 C   0  0  0  0  0  2  0  0  0  0  0  0
  -30.5370  -14.7620   20.3200 C   0  0  0  0  0  0  0  0  0  0  0  0
  -30.3620  -12.4730   19.3320 C   0  0  0  0  0  2  0  0  0  0  0  0
  -29.4140  -12.5590   18.1140 C   0  0  0  0  0  2  0  0  0  0  0  0
  -27.9460  -12.3870   18.5510 C   0  0  0  0  0  2  0  0  0  0  0  0
  -27.5860  -13.2620   19.7810 C   0  0  0  0  0  3  0  0  0  0  0  0
  -28.6530  -13.1550   20.8950 C   0  0  0  0  0  2  0  0  0  0  0  0
  -29.9480  -13.5150   20.3030 N   0  0  0  0  0  0  0  0  0  0  0  0
  -31.6860  -14.9040   19.8910 O   0  0  0  0  0  0  0  0  0  0  0  0
  -29.7300  -15.8550   20.5890 N   0  0  0  0  0  0  0  0  0  0  0  0
  -28.8850  -15.6090   21.0810 H   0  0  0  0  0  0  0  0  0  0  0  0
  -25.2020  -13.8500   20.5260 C   0  0  0  0  0  0  0  0  0  0  0  0
  -24.1410  -13.0750   20.9070 C   0  0  0  0  0  0  0  0  0  0  0  0
  -24.6050  -11.7250   20.8700 C   0  0  0  0  0  0  0  0  0  0  0  0
  -26.2440  -12.9720   20.2800 N   0  0  0  0  0  0  0  0  0  0  0  0
  -25.8920  -11.6890   20.5470 N   0  0  0  0  0  0  0  0  0  0  0  0
  -23.8820  -10.4610   21.0670 C   0  0  0  0  0  0  0  0  0  0  0  0
  -24.3390   -9.4810   21.9740 C   0  0  0  0  0  3  0  0  0  0  0  0
  -23.6160   -8.2830   22.1590 C   0  0  0  0  0  3  0  0  0  0  0  0
  -22.4190   -8.0570   21.4360 C   0  0  0  0  0  0  0  0  0  0  0  0
  -21.9810   -9.0260   20.5170 C   0  0  0  0  0  3  0  0  0  0  0  0
  -22.7060  -10.2140   20.3290 C   0  0  0  0  0  3  0  0  0  0  0  0
  -21.6650   -6.9130   21.5320 O   0  0  0  0  0  0  0  0  0  0  0  0
  -21.6680   -6.1430   22.6680 C   0  0  0  0  0  0  0  0  0  0  0  0
  -21.3140   -6.6720   23.9280 C   0  0  0  0  0  3  0  0  0  0  0  0
  -21.2610   -5.8300   25.0560 C   0  0  0  0  0  3  0  0  0  0  0  0
  -21.5510   -4.4580   24.9250 C   0  0  0  0  0  0  0  0  0  0  0  0
  -21.8980   -3.9280   23.6700 C   0  0  0  0  0  3  0  0  0  0  0  0
  -21.9520   -4.7670   22.5440 C   0  0  0  0  0  0  0  0  0  0  0  0
  -22.2660   -4.2480   21.3330 F   0  0  0  0  0  0  0  0  0  0  0  0
  -21.4940   -3.6470   26.0070 F   0  0  0  0  0  0  0  0  0  0  0  0
  -22.7460  -13.5510   21.1920 C   0  0  0  0  0  0  0  0  0  0  0  0
  -22.0270  -12.8540   22.0660 N   0  0  0  0  0  0  0  0  0  0  0  0
  -22.3010  -14.5750   20.6760 O   0  0  0  0  0  0  0  0  0  0  0  0
  -22.4000  -12.0260   22.5070 H   0  0  0  0  0  0  0  0  0  0  0  0
  -21.0920  -13.1540   22.3000 H   0  0  0  0  0  0  0  0  0  0  0  0
  -25.3630  -15.2210   20.3460 N   0  0  0  0  0  0  0  0  0  0  0  0
  -24.5930  -15.8730   20.4580 H   0  0  0  0  0  0  0  0  0  0  0  0
  -26.1970  -15.6570   19.9770 H   0  0  0  0  0  0  0  0  0  0  0  0
  2  1  1  0
  3  4  1  0
  3  2  1  0
  5 16  2  0
  6  4  1  0
  6 11  1  0
  7 15  1  0
  7 17  1  0
  8 14  1  0
  8 10  1  0
  9 15  1  0
 10  9  1  0
 11 10  2  0
 12  6  2  0
 13 12  1  0
 13  8  2  0
 14  7  1  0
 15  5  1  0
 17 19  2  0
 18 17  1  0
 20 18  1  0
 21 30  2  0
 21 26  1  0
 22 18  1  0
 22 26  1  0
 23 22  1  0
 24 25  1  0
 24 23  1  0
 25 21  1  0
 26 27  2  0
 27 28  1  0
 29 28  2  0
 30 29  1  0
 31  5  1  0
 31 32  1  0
 31 41  1  0
 32 35  1  0
 33 37  1  0
 33 32  1  0
 34 33  2  0
 37 36  1  0
 39 37  1  0
 39 40  1  0
 39 38  1  0
 41 44  1  1
 41 42  1  0
 43 41  1  0
 45 47  1  0
 45  1  1  0
 46 48  2  0
 47 46  1  0
 49 47  1  0
 50 46  1  0
 50 59  1  0
 51 59  1  0
 52 57  1  0
 53 54  1  0
 53 52  1  0
 55 54  1  0
 55 64  1  0
 55 56  1  0
 57 51  1  0
 57 56  1  0
 58 51  2  0
 59 60  1  0
 61 62  2  0
 62 81  1  0
 63 62  1  0
 63 66  1  0
 64 61  1  0
 64 65  1  0
 65 63  2  0
 66 67  1  0
 67 68  2  0
 69 72  1  0
 69 68  1  0
 70 69  2  0
 71 70  1  0
 71 66  2  0
 72 73  1  0
 73 74  1  0
 74 75  2  0
 76 75  1  0
 76 80  1  0
 77 76  2  0
 78 73  2  0
 78 77  1  0
 79 78  1  0
 81 82  1  0
 82 85  1  0
 82 84  1  0
 83 81  2  0
 86 87  1  0
 86 61  1  0
 88 86  1  0
M  ISO  4   3 101   4 101  51 100  59 100
M  END
>  <TORSDO>  (27) 
F 21

>  <SCORE>  (27) 
-13.301

>  <name>  (27) 
28

>  <ligand_id>  (27) 
28

>  <original_smiles>  (27) 
[H]c1c([H])c([H])c2c(c1[H])C([H])([H])C([H])([H])C([H])([H])C2([H])N([H])C(=O)C1([H])N(C(=O)C([H])(N([H])C(=O)C([H])(N([H])C([H])([H])[H])C([H])([H])[H])C(C([H])([H])[H])(C([H])([H])[H])C([H])([H])[H])C([H])([H])c2c([H])c(OC([H])([H])C([H])([H])C([H])([H])C([H])([H])N([H])C(=O)C([H])([H])N([H])C(=O)N3C([H])([H])C([H])([H])C([H])([H])C([H])(n4nc(-c5c([H])c([H])c(Oc6c([H])c([H])c(F)c([H])c6F)c([H])c5[H])c(C(=O)N([H])[H])c4N([H])[H])C3([H])[H])c([H])c([H])c2C1([H])[H]

>  <smiles>  (27) 
[H]c1c([H])c([H])c2c(c1[H])C([H])([H])C([H])([H])C([H])([H])C2([H])N([H])C(=O)C1([H])N(C(=O)C([H])(N([H])C(=O)C([H])(N([H])C([H])([H])[H])C([H])([H])[H])C(C([H])([H])[H])(C([H])([H])[H])C([H])([H])[H])C([H])([H])c2c([H])c(OC([H])([H])C([H])([H])C([H])([H])C([H])([H])N([H])C(=O)C([H])([H])N([H])C(=O)N3C([H])([H])C([H])([H])C([H])([H])C([H])(n4nc(-c5c([H])c([H])c(Oc6c([H])c([H])c(F)c([H])c6F)c([H])c5[H])c(C(=O)N([H])[H])c4N([H])[H])C3([H])[H])c([H])c([H])c2C1([H])[H]

$$$$
29:0:0
     RDKit          3D

 95103  0  0  1  0  0  0  0  0999 V2000
  -30.3100  -23.2020   22.7950 C   0  0  0  0  0  2  0  0  0  0  0  0
  -29.1030  -22.2480   22.7080 C   0  0  0  0  0  2  0  0  0  0  0  0
  -29.1110  -21.3130   21.4910 C   0  0  0  0  0  2  0  0  0  0  0  0
  -29.8730  -20.1420   21.7890 O   0  0  0  0  0  0  0  0  0  0  0  0
  -29.3330  -18.1060   18.7050 C   0  0  0  0  0  3  0  0  0  0  0  0
  -29.6950  -16.8350   19.1850 C   0  0  0  0  0  3  0  0  0  0  0  0
  -29.3760  -19.2210   19.5580 C   0  0  0  0  0  3  0  0  0  0  0  0
  -30.1520  -17.7980   21.3790 C   0  0  0  0  0  3  0  0  0  0  0  0
  -30.1120  -16.6710   20.5260 C   0  0  0  0  0  0  0  0  0  0  0  0
  -29.7930  -19.0830   20.9070 C   0  0  0  0  0  0  0  0  0  0  0  0
  -31.0350  -14.4230   20.3410 C   0  0  0  0  0  0  0  0  0  0  0  0
  -30.7090  -12.2770   19.1880 C   0  0  0  0  0  2  0  0  0  0  0  0
  -29.7660  -12.5110   17.9870 C   0  0  0  0  0  2  0  0  0  0  0  0
  -28.2860  -12.4230   18.4100 C   0  0  0  0  0  2  0  0  0  0  0  0
  -27.9770  -13.2500   19.6850 C   0  0  0  0  0  3  0  0  0  0  0  0
  -29.0200  -12.9750   20.7910 C   0  0  0  0  0  2  0  0  0  0  0  0
  -30.3600  -13.2480   20.2350 N   0  0  0  0  0  0  0  0  0  0  0  0
  -32.1130  -14.6460   19.7800 O   0  0  0  0  0  0  0  0  0  0  0  0
  -30.3990  -15.3760   21.0370 N   0  0  0  0  0  0  0  0  0  0  0  0
  -29.7030  -15.0190   21.6740 H   0  0  0  0  0  0  0  0  0  0  0  0
  -25.5910  -13.9290   20.3790 C   0  0  0  0  0  0  0  0  0  0  0  0
  -24.5010  -13.1880   20.7520 C   0  0  0  0  0  0  0  0  0  0  0  0
  -24.9250  -11.8240   20.7220 C   0  0  0  0  0  0  0  0  0  0  0  0
  -26.6130  -13.0180   20.1550 N   0  0  0  0  0  0  0  0  0  0  0  0
  -26.2130  -11.7480   20.4120 N   0  0  0  0  0  0  0  0  0  0  0  0
  -24.1650  -10.5850   20.9220 C   0  0  0  0  0  0  0  0  0  0  0  0
  -24.5570   -9.6280   21.8850 C   0  0  0  0  0  3  0  0  0  0  0  0
  -23.8030   -8.4500   22.0720 C   0  0  0  0  0  3  0  0  0  0  0  0
  -22.6420   -8.2200   21.2940 C   0  0  0  0  0  0  0  0  0  0  0  0
  -22.2700   -9.1650   20.3210 C   0  0  0  0  0  3  0  0  0  0  0  0
  -23.0250  -10.3350   20.1340 C   0  0  0  0  0  3  0  0  0  0  0  0
  -21.8610   -7.0920   21.3840 O   0  0  0  0  0  0  0  0  0  0  0  0
  -21.7360   -6.3960   22.5590 C   0  0  0  0  0  0  0  0  0  0  0  0
  -21.2690   -7.0070   23.7430 C   0  0  0  0  0  3  0  0  0  0  0  0
  -21.0890   -6.2360   24.9100 C   0  0  0  0  0  3  0  0  0  0  0  0
  -21.3690   -4.8560   24.8920 C   0  0  0  0  0  0  0  0  0  0  0  0
  -21.8300   -4.2460   23.7120 C   0  0  0  0  0  3  0  0  0  0  0  0
  -22.0110   -5.0140   22.5490 C   0  0  0  0  0  0  0  0  0  0  0  0
  -22.4330   -4.4160   21.4090 F   0  0  0  0  0  0  0  0  0  0  0  0
  -21.1900   -4.1150   26.0100 F   0  0  0  0  0  0  0  0  0  0  0  0
  -23.1200  -13.7040   21.0310 C   0  0  0  0  0  0  0  0  0  0  0  0
  -22.3830  -13.0340   21.9100 N   0  0  0  0  0  0  0  0  0  0  0  0
  -22.7040  -14.7390   20.5110 O   0  0  0  0  0  0  0  0  0  0  0  0
  -22.7350  -12.1980   22.3520 H   0  0  0  0  0  0  0  0  0  0  0  0
  -21.4570  -13.3610   22.1470 H   0  0  0  0  0  0  0  0  0  0  0  0
  -25.7930  -15.2920   20.1920 N   0  0  0  0  0  0  0  0  0  0  0  0
  -25.0440  -15.9680   20.2920 H   0  0  0  0  0  0  0  0  0  0  0  0
  -26.6560  -15.7050   19.8600 H   0  0  0  0  0  0  0  0  0  0  0  0
  -30.1130  -24.5360   22.0390 C   0  0  0  0  0  2  0  0  0  0  0  0
  -30.0350  -24.9960   19.5570 C   0  0  0  0  0  0  0  0  0  0  0  0
  -30.5870  -24.4640   20.6600 N   0  0  0  0  0  0  0  0  0  0  0  0
  -30.6780  -25.0090   18.5070 O   0  0  0  0  0  0  0  0  0  0  0  0
  -31.5140  -24.0840   20.5380 H   0  0  0  0  0  0  0  0  0  0  0  0
  -28.5980  -25.5460   19.5630 C   0  0  0  0  0  2  0  0  0  0  0  0
  -28.5700  -26.8880   20.0630 O   0  0  0  0  0  0  0  0  0  0  0  0
  -24.6280  -31.9080   23.2130 C   0  0  0  0  0  0  0  0  0  0  0  0
  -27.3580  -27.5550   20.0690 C   0  0  0  0  0  0  0  0  0  0  0  0
  -23.4450  -30.5070   21.5530 C   0  0  0  0  0  3  0  0  0  0  0  0
  -24.9250  -29.0130   20.1140 C   0  0  0  0  0  0  0  0  0  0  0  0
  -25.9640  -30.9130   21.3600 C   0  0  0  0  0  2  0  0  0  0  0  0
  -26.0740  -29.5510   20.7030 C   0  0  0  0  0  0  0  0  0  0  0  0
  -27.2920  -28.8310   20.6760 C   0  0  0  0  0  3  0  0  0  0  0  0
  -26.1780  -27.0250   19.4930 C   0  0  0  0  0  3  0  0  0  0  0  0
  -24.9710  -27.7470   19.5110 C   0  0  0  0  0  3  0  0  0  0  0  0
  -23.6640  -29.8490   20.1680 C   0  0  0  0  0  2  0  0  0  0  0  0
  -24.6970  -31.1230   22.1010 N   0  0  0  0  0  0  0  0  0  0  0  0
  -23.5410  -32.1570   23.7530 O   0  0  0  0  0  0  0  0  0  0  0  0
  -22.8090  -29.4630   22.4990 C   0  0  0  0  0  0  0  0  0  0  0  0
  -21.4840  -29.2790   22.3810 N   0  0  0  0  0  0  0  0  0  0  0  0
  -23.5060  -28.8220   23.2900 O   0  0  0  0  0  0  0  0  0  0  0  0
  -20.9800  -29.8560   21.7200 H   0  0  0  0  0  0  0  0  0  0  0  0
  -18.1180  -28.0680   22.8920 C   0  0  0  0  0  0  0  0  0  0  0  0
  -20.6790  -28.3200   23.1360 C   0  0  0  0  0  3  0  0  0  0  0  0
  -20.7780  -26.9050   22.5240 C   0  0  0  0  0  2  0  0  0  0  0  0
  -19.6590  -26.6010   21.5220 C   0  0  0  0  0  2  0  0  0  0  0  0
  -18.2850  -26.7320   22.1870 C   0  0  0  0  0  2  0  0  0  0  0  0
  -19.2420  -28.8200   23.3230 C   0  0  0  0  0  0  0  0  0  0  0  0
  -19.0340  -30.0690   23.9450 C   0  0  0  0  0  3  0  0  0  0  0  0
  -17.7320  -30.5650   24.1460 C   0  0  0  0  0  3  0  0  0  0  0  0
  -16.6220  -29.8110   23.7300 C   0  0  0  0  0  3  0  0  0  0  0  0
  -16.8160  -28.5650   23.1060 C   0  0  0  0  0  3  0  0  0  0  0  0
  -25.9040  -32.5480   23.8420 C   0  0  0  0  0  3  0  0  0  0  0  0
  -25.5830  -33.9440   24.1670 N   0  0  0  0  0  0  0  0  0  0  0  0
  -25.9190  -34.9970   23.4110 C   0  0  0  0  0  0  0  0  0  0  0  0
  -26.6070  -34.8970   22.3900 O   0  0  0  0  0  0  0  0  0  0  0  0
  -24.9750  -34.0980   24.9590 H   0  0  0  0  0  0  0  0  0  0  0  0
  -24.1870  -36.7790   23.0240 C   0  0  0  0  0  1  0  0  0  0  0  0
  -25.4140  -36.3830   23.8600 C   0  0  0  0  0  3  0  0  0  0  0  0
  -27.5240  -37.2770   24.7350 C   0  0  0  0  0  1  0  0  0  0  0  0
  -26.4410  -37.4440   23.7700 N   0  0  0  0  0  0  0  0  0  0  0  0
  -26.0260  -38.3600   23.9170 H   0  0  0  0  0  0  0  0  0  0  0  0
  -26.4230  -31.7810   25.1190 C   0  0  1  0  0  0  0  0  0  0  0  0
  -25.3240  -31.5340   26.1810 C   0  0  0  0  0  1  0  0  0  0  0  0
  -27.0240  -30.4100   24.7280 C   0  0  0  0  0  1  0  0  0  0  0  0
  -27.5590  -32.5870   25.7890 C   0  0  0  0  0  1  0  0  0  0  0  0
  2  1  1  0
  3  4  1  0
  3  2  1  0
  5  6  2  0
  5  7  1  0
  6  9  1  0
  7 10  2  0
  9 19  1  0
  9  8  2  0
 10  8  1  0
 10  4  1  0
 11 19  1  0
 12 17  1  0
 13 14  1  0
 13 12  1  0
 15 14  1  0
 15 24  1  0
 15 16  1  0
 17 11  1  0
 17 16  1  0
 18 11  2  0
 19 20  1  0
 21 22  2  0
 22 41  1  0
 23 22  1  0
 23 26  1  0
 24 21  1  0
 24 25  1  0
 25 23  2  0
 26 27  1  0
 27 28  2  0
 29 32  1  0
 29 28  1  0
 30 29  2  0
 31 30  1  0
 31 26  2  0
 32 33  1  0
 33 34  1  0
 34 35  2  0
 36 35  1  0
 36 40  1  0
 37 36  2  0
 38 33  2  0
 38 37  1  0
 39 38  1  0
 41 42  1  0
 42 45  1  0
 42 44  1  0
 43 41  2  0
 46 47  1  0
 46 21  1  0
 48 46  1  0
 49  1  1  0
 50 54  1  0
 50 51  1  0
 51 49  1  0
 52 50  2  0
 53 51  1  0
 54 55  1  0
 55 57  1  0
 56 67  2  0
 57 62  1  0
 58 66  1  0
 58 68  1  0
 59 65  1  0
 59 61  1  0
 60 66  1  0
 61 60  1  0
 62 61  2  0
 63 64  1  0
 63 57  2  0
 64 59  2  0
 65 58  1  0
 66 56  1  0
 68 70  2  0
 69 68  1  0
 71 69  1  0
 72 81  2  0
 72 77  1  0
 73 69  1  0
 73 77  1  0
 74 73  1  0
 75 76  1  0
 75 74  1  0
 76 72  1  0
 77 78  2  0
 78 79  1  0
 80 79  2  0
 81 80  1  0
 82 56  1  0
 82 83  1  0
 82 92  1  0
 83 86  1  0
 84 88  1  0
 84 83  1  0
 85 84  2  0
 88 87  1  0
 90 88  1  0
 90 91  1  0
 90 89  1  0
 92 95  1  1
 92 93  1  0
 94 92  1  0
M  ISO  4  11 100  19 100  54 101  55 101
M  END
>  <TORSDO>  (28) 
F 23

>  <SCORE>  (28) 
-12.727

>  <name>  (28) 
29

>  <ligand_id>  (28) 
29

>  <original_smiles>  (28) 
[H]c1c([H])c(OC([H])([H])C([H])([H])C([H])([H])C([H])([H])N([H])C(=O)C([H])([H])Oc2c([H])c([H])c3c(c2[H])C([H])([H])N(C(=O)C([H])(N([H])C(=O)C([H])(N([H])C([H])([H])[H])C([H])([H])[H])C(C([H])([H])[H])(C([H])([H])[H])C([H])([H])[H])C([H])(C(=O)N([H])C2([H])c4c([H])c([H])c([H])c([H])c4C([H])([H])C([H])([H])C2([H])[H])C3([H])[H])c([H])c(N([H])C(=O)N2C([H])([H])C([H])([H])C([H])([H])C([H])(n3nc(-c4c([H])c([H])c(Oc5c([H])c([H])c(F)c([H])c5F)c([H])c4[H])c(C(=O)N([H])[H])c3N([H])[H])C2([H])[H])c1[H]

>  <smiles>  (28) 
[H]c1c([H])c(OC([H])([H])C([H])([H])C([H])([H])C([H])([H])N([H])C(=O)C([H])([H])Oc2c([H])c([H])c3c(c2[H])C([H])([H])N(C(=O)C([H])(N([H])C(=O)C([H])(N([H])C([H])([H])[H])C([H])([H])[H])C(C([H])([H])[H])(C([H])([H])[H])C([H])([H])[H])C([H])(C(=O)N([H])C2([H])c4c([H])c([H])c([H])c([H])c4C([H])([H])C([H])([H])C2([H])[H])C3([H])[H])c([H])c(N([H])C(=O)N2C([H])([H])C([H])([H])C([H])([H])C([H])(n3nc(-c4c([H])c([H])c(Oc5c([H])c([H])c(F)c([H])c5F)c([H])c4[H])c(C(=O)N([H])[H])c3N([H])[H])C2([H])[H])c1[H]

$$$$
31:0:0
     RDKit          3D

 99106  0  0  1  0  0  0  0  0999 V2000
  -26.6520  -15.9460   20.6890 C   0  0  0  0  0  0  0  0  0  0  0  0
  -27.6690  -17.0020   20.9080 N   0  0  0  0  0  0  0  0  0  0  0  0
  -26.7400  -14.5230   21.0670 N   0  0  0  0  0  0  0  0  0  0  0  0
  -25.6220  -16.2890   20.1130 O   0  0  0  0  0  0  0  0  0  0  0  0
  -28.4190  -16.6770   21.5020 H   0  0  0  0  0  0  0  0  0  0  0  0
  -27.6100  -14.2180   21.4970 H   0  0  0  0  0  0  0  0  0  0  0  0
  -25.5900  -11.6680   20.7300 C   0  0  0  0  0  0  0  0  0  0  0  0
  -26.2420  -10.6610   19.7710 N   0  0  0  0  0  0  0  0  0  0  0  0
  -25.6760  -13.1690   20.9790 N   0  0  0  0  0  0  0  0  0  0  0  0
  -24.7040  -11.1470   21.4030 O   0  0  0  0  0  0  0  0  0  0  0  0
  -25.7450   -9.7970   19.9350 H   0  0  0  0  0  0  0  0  0  0  0  0
  -24.9030  -13.4520   21.5610 H   0  0  0  0  0  0  0  0  0  0  0  0
  -27.6070  -10.2860   18.6790 C   0  0  0  0  0  3  0  0  0  0  0  0
  -29.4400   -9.6850   18.9050 C   0  0  0  0  0  3  0  0  0  0  0  0
  -30.7020   -8.9630   20.1150 C   0  0  0  0  0  3  0  0  0  0  0  0
  -32.3550   -9.1710   21.0320 C   0  0  0  0  0  3  0  0  0  0  0  0
  -33.5710   -7.6480   23.6030 C   0  0  0  0  0  0  0  0  0  0  0  0
  -32.6770   -5.4050   23.6240 C   0  0  0  0  0  2  0  0  0  0  0  0
  -32.2500   -5.4510   22.1500 C   0  0  0  0  0  2  0  0  0  0  0  0
  -30.8630   -6.1580   22.0850 C   0  0  0  0  0  2  0  0  0  0  0  0
  -30.7940   -7.4260   22.9960 C   0  0  0  0  0  3  0  0  0  0  0  0
  -31.3430   -7.3080   24.3730 C   0  0  0  0  0  2  0  0  0  0  0  0
  -32.6270   -6.8040   24.0580 N   0  0  0  0  0  0  0  0  0  0  0  0
  -34.6450   -7.3850   24.2130 O   0  0  0  0  0  0  0  0  0  0  0  0
  -33.3160   -8.5740   22.4070 N   0  0  0  0  0  0  0  0  0  0  0  0
  -34.2170   -9.0240   22.3000 H   0  0  0  0  0  0  0  0  0  0  0  0
  -30.1840   -9.9010   22.7020 C   0  0  0  0  0  3  0  0  0  0  0  0
  -29.0810  -10.3910   22.1670 C   0  0  0  0  0  3  0  0  0  0  0  0
  -28.1110   -9.1720   22.2840 C   0  0  0  0  0  3  0  0  0  0  0  0
  -29.9570   -8.5320   22.8480 N   0  0  0  0  0  0  0  0  0  0  0  0
  -28.7340   -8.1340   22.7150 N   0  0  0  0  0  2  0  0  0  0  0  0
  -26.6860   -8.6200   22.0330 C   0  0  0  0  0  0  0  0  0  0  0  0
  -25.9530   -7.9670   23.0590 C   0  0  0  0  0  3  0  0  0  0  0  0
  -24.6050   -7.5590   22.8790 C   0  0  0  0  0  3  0  0  0  0  0  0
  -23.9120   -7.8760   21.6870 C   0  0  0  0  0  0  0  0  0  0  0  0
  -24.6490   -8.4030   20.6300 C   0  0  0  0  0  3  0  0  0  0  0  0
  -26.0300   -8.5760   20.7760 C   0  0  0  0  0  3  0  0  0  0  0  0
  -22.5880   -7.6180   21.4250 O   0  0  0  0  0  0  0  0  0  0  0  0
  -21.7430   -7.1400   22.3900 C   0  0  0  0  0  0  0  0  0  0  0  0
  -21.3590   -7.9370   23.4890 C   0  0  0  0  0  3  0  0  0  0  0  0
  -20.4530   -7.4310   24.4390 C   0  0  0  0  0  3  0  0  0  0  0  0
  -19.9130   -6.1410   24.2800 C   0  0  0  0  0  0  0  0  0  0  0  0
  -20.2810   -5.3530   23.1750 C   0  0  0  0  0  3  0  0  0  0  0  0
  -21.1950   -5.8500   22.2320 C   0  0  0  0  0  0  0  0  0  0  0  0
  -21.5360   -5.0970   21.1580 F   0  0  0  0  0  0  0  0  0  0  0  0
  -19.0350   -5.6570   25.1890 F   0  0  0  0  0  0  0  0  0  0  0  0
  -29.2790  -11.8360   21.3670 C   0  0  0  0  0  0  0  0  0  0  0  0
  -28.4150  -12.6910   20.7720 N   0  0  0  0  0  0  0  0  0  0  0  0
  -30.3340  -12.2710   21.0500 O   0  0  0  0  0  0  0  0  0  0  0  0
  -28.7560  -13.5380   20.3430 H   0  0  0  0  0  0  0  0  0  0  0  0
  -27.4610  -12.3890   20.6290 H   0  0  0  0  0  0  0  0  0  0  0  0
  -31.3870  -10.5740   22.8600 N   0  0  0  0  0  0  0  0  0  0  0  0
  -31.4810  -11.4070   22.2870 H   0  0  0  0  0  0  0  0  0  0  0  0
  -32.1850   -9.9550   22.7410 H   0  0  0  0  0  0  0  0  0  0  0  0
  -27.8990  -18.5820   20.3980 C   0  0  0  0  0  3  0  0  0  0  0  0
  -29.2140  -19.8010   20.6160 C   0  0  0  0  0  3  0  0  0  0  0  0
  -29.3690  -21.5600   20.2030 C   0  0  0  0  0  3  0  0  0  0  0  0
  -30.3470  -22.9240   20.8680 C   0  0  0  0  0  3  0  0  0  0  0  0
  -30.7330  -24.5370   20.7030 O   0  0  0  0  0  0  0  0  0  0  0  0
  -26.1900  -29.6450   23.4420 C   0  0  0  0  0  0  0  0  0  0  0  0
  -29.8840  -25.7040   20.5210 C   0  0  0  0  0  0  0  0  0  0  0  0
  -25.7260  -28.6060   21.2640 C   0  0  0  0  0  3  0  0  0  0  0  0
  -27.7120  -27.5410   20.0370 C   0  0  0  0  0  0  0  0  0  0  0  0
  -28.1630  -29.0270   21.9740 C   0  0  0  0  0  2  0  0  0  0  0  0
  -28.5810  -27.8190   21.1010 C   0  0  0  0  0  0  0  0  0  0  0  0
  -29.7060  -26.9230   21.3230 C   0  0  0  0  0  3  0  0  0  0  0  0
  -29.0940  -25.6400   19.3740 C   0  0  0  0  0  3  0  0  0  0  0  0
  -28.0150  -26.5080   19.1440 C   0  0  0  0  0  3  0  0  0  0  0  0
  -26.4280  -28.3420   19.9070 C   0  0  0  0  0  2  0  0  0  0  0  0
  -26.6960  -29.1100   22.2890 N   0  0  0  0  0  0  0  0  0  0  0  0
  -24.9670  -29.7110   23.6440 O   0  0  0  0  0  0  0  0  0  0  0  0
  -24.9720  -27.3320   21.7230 C   0  0  0  0  0  0  0  0  0  0  0  0
  -23.7300  -27.1430   21.2430 N   0  0  0  0  0  0  0  0  0  0  0  0
  -25.5100  -26.5280   22.4890 O   0  0  0  0  0  0  0  0  0  0  0  0
  -23.3500  -27.8470   20.6280 H   0  0  0  0  0  0  0  0  0  0  0  0
  -20.3810  -25.8240   20.8370 C   0  0  0  0  0  0  0  0  0  0  0  0
  -22.8690  -25.9930   21.5280 C   0  0  0  0  0  3  0  0  0  0  0  0
  -23.1150  -24.8460   20.5200 C   0  0  0  0  0  2  0  0  0  0  0  0
  -22.1710  -24.8890   19.3140 C   0  0  0  0  0  2  0  0  0  0  0  0
  -20.7120  -24.7950   19.7690 C   0  0  0  0  0  2  0  0  0  0  0  0
  -21.3950  -26.3970   21.6520 C   0  0  0  0  0  0  0  0  0  0  0  0
  -21.0300  -27.3720   22.6070 C   0  0  0  0  0  3  0  0  0  0  0  0
  -19.6890  -27.7760   22.7510 C   0  0  0  0  0  3  0  0  0  0  0  0
  -18.6910  -27.1990   21.9470 C   0  0  0  0  0  3  0  0  0  0  0  0
  -19.0370  -26.2200   20.9980 C   0  0  0  0  0  3  0  0  0  0  0  0
  -27.1190  -30.2160   24.5520 C   0  0  0  0  0  3  0  0  0  0  0  0
  -27.1830  -29.3000   25.8370 C   0  0  1  0  0  0  0  0  0  0  0  0
  -25.7940  -28.9310   26.4090 C   0  0  0  0  0  1  0  0  0  0  0  0
  -27.9290  -27.9800   25.5380 C   0  0  0  0  0  1  0  0  0  0  0  0
  -27.9820  -30.0170   26.9500 C   0  0  0  0  0  1  0  0  0  0  0  0
  -26.6210  -31.5550   24.9080 N   0  0  0  0  0  0  0  0  0  0  0  0
  -27.1070  -32.7070   24.4260 C   0  0  0  0  0  0  0  0  0  0  0  0
  -28.0830  -32.7540   23.6740 O   0  0  0  0  0  0  0  0  0  0  0  0
  -25.7850  -31.5870   25.4730 H   0  0  0  0  0  0  0  0  0  0  0  0
  -25.4690  -34.4840   23.7200 C   0  0  0  0  0  1  0  0  0  0  0  0
  -26.4020  -34.0130   24.8480 C   0  0  0  0  0  3  0  0  0  0  0  0
  -28.0610  -34.8570   26.4470 C   0  0  0  0  0  1  0  0  0  0  0  0
  -27.3400  -35.1000   25.2020 N   0  0  0  0  0  0  0  0  0  0  0  0
  -26.8480  -35.9850   25.2900 H   0  0  0  0  0  0  0  0  0  0  0  0
  1  2  1  0
  1  3  1  0
  2  5  1  0
  3  6  1  0
  4  1  2  0
  7  9  1  0
  7 10  2  0
  8 11  1  0
  8  7  1  0
  9  3  1  0
  9 12  1  0
 13 14  2  0
 13  8  1  0
 14 15  1  0
 15 16  2  0
 16 25  1  0
 17 23  1  0
 17 24  2  0
 18 23  1  0
 19 18  1  0
 20 19  1  0
 21 20  1  0
 21 22  1  0
 23 22  1  0
 25 17  1  0
 26 25  1  0
 27 30  1  0
 27 52  1  0
 28 47  1  0
 28 29  1  0
 28 27  1  0
 29 32  1  0
 29 31  1  0
 30 31  1  0
 30 21  1  0
 32 33  1  0
 34 33  2  0
 35 34  1  0
 36 37  1  0
 36 35  2  0
 37 32  2  0
 38 35  1  0
 38 39  1  0
 39 40  1  0
 40 41  2  0
 42 41  1  0
 42 46  1  0
 43 42  2  0
 44 39  2  0
 44 43  1  0
 45 44  1  0
 48 47  1  0
 49 47  2  0
 50 48  1  0
 51 48  1  0
 53 52  1  0
 54 52  1  0
 55 56  2  0
 55  2  1  0
 57 56  1  0
 57 58  2  0
 59 58  1  0
 60 71  2  0
 61 59  1  0
 61 66  1  0
 62 72  1  0
 62 70  1  0
 63 65  1  0
 64 70  1  0
 65 66  2  0
 65 64  1  0
 67 61  2  0
 68 67  1  0
 68 63  2  0
 69 63  1  0
 69 62  1  0
 70 60  1  0
 72 74  2  0
 73 72  1  0
 75 73  1  0
 76 85  2  0
 76 81  1  0
 77 73  1  0
 77 81  1  0
 78 77  1  0
 79 80  1  0
 79 78  1  0
 80 76  1  0
 81 82  2  0
 82 83  1  0
 84 83  2  0
 85 84  1  0
 86 60  1  0
 86 91  1  0
 86 87  1  0
 87 88  1  1
 87 90  1  0
 89 87  1  0
 91 94  1  0
 92 96  1  0
 92 91  1  0
 93 92  2  0
 96 95  1  0
 96 98  1  0
 98 99  1  0
 98 97  1  0
M  ISO  4  17 100  25 100  58 101  59 101
M  END
>  <TORSDO>  (29) 
F 25

>  <SCORE>  (29) 
-5.193

>  <name>  (29) 
31

>  <ligand_id>  (29) 
31

>  <original_smiles>  (29) 
[H]c1c([H])c([H])c2c(c1[H])C([H])([H])C([H])([H])C([H])([H])C2([H])N([H])C(=O)C1([H])N(C(=O)C([H])(N([H])C(=O)C([H])(N([H])C([H])([H])[H])C([H])([H])[H])C(C([H])([H])[H])(C([H])([H])[H])C([H])([H])[H])C([H])([H])c2c([H])c(OC([H])([H])C([H])([H])C([H])([H])C([H])([H])N([H])C(=O)N([H])N([H])C(=O)N([H])C([H])([H])C([H])([H])C([H])([H])C([H])([H])N([H])C(=O)N3C([H])([H])C([H])([H])C([H])([H])C([H])(n4nc(-c5c([H])c([H])c(Oc6c([H])c([H])c(F)c([H])c6F)c([H])c5[H])c(C(=O)N([H])[H])c4N([H])[H])C3([H])[H])c([H])c([H])c2C1([H])[H]

>  <smiles>  (29) 
[H]c1c([H])c([H])c2c(c1[H])C([H])([H])C([H])([H])C([H])([H])C2([H])N([H])C(=O)C1([H])N(C(=O)C([H])(N([H])C(=O)C([H])(N([H])C([H])([H])[H])C([H])([H])[H])C(C([H])([H])[H])(C([H])([H])[H])C([H])([H])[H])C([H])([H])c2c([H])c(OC([H])([H])C([H])([H])C([H])([H])C([H])([H])N([H])C(=O)N([H])N([H])C(=O)N([H])C([H])([H])C([H])([H])C([H])([H])C([H])([H])N([H])C(=O)N3C([H])([H])C([H])([H])C([H])([H])C([H])(n4nc(-c5c([H])c([H])c(Oc6c([H])c([H])c(F)c([H])c6F)c([H])c5[H])c(C(=O)N([H])[H])c4N([H])[H])C3([H])[H])c([H])c([H])c2C1([H])[H]

$$$$
32:0:0
     RDKit          3D

108116  0  0  1  0  0  0  0  0999 V2000
  -19.7600  -14.4200   24.6450 C   0  0  0  0  0  2  0  0  0  0  0  0
  -20.4420  -14.9210   23.4940 O   0  0  0  0  0  0  0  0  0  0  0  0
  -19.6140  -15.7270   22.6570 C   0  0  0  0  0  2  0  0  0  0  0  0
  -20.0610  -17.2000   22.6980 C   0  0  0  0  0  2  0  0  0  0  0  0
  -20.6550  -17.5730   21.4490 O   0  0  0  0  0  0  0  0  0  0  0  0
  -20.9220  -18.9690   21.3650 C   0  0  0  0  0  2  0  0  0  0  0  0
  -21.9910  -19.2940   20.3020 C   0  0  0  0  0  2  0  0  0  0  0  0
  -22.4450  -20.6190   20.5560 O   0  0  0  0  0  0  0  0  0  0  0  0
  -23.7580  -20.9090   20.0900 C   0  0  0  0  0  2  0  0  0  0  0  0
  -24.0680  -22.3980   20.3330 C   0  0  0  0  0  2  0  0  0  0  0  0
  -25.4790  -22.6140   20.2790 O   0  0  0  0  0  0  0  0  0  0  0  0
  -25.8210  -23.9960   20.2660 C   0  0  0  0  0  2  0  0  0  0  0  0
  -27.3590  -24.2630   20.2390 C   0  0  0  0  0  2  0  0  0  0  0  0
  -27.7770  -25.3880   21.0320 O   0  0  0  0  0  0  0  0  0  0  0  0
  -28.2330  -26.5510   20.1430 O   0  0  0  0  0  0  0  0  0  0  0  0
  -24.6250  -31.8730   23.2120 C   0  0  0  0  0  0  0  0  0  0  0  0
  -27.1930  -27.4360   20.0700 C   0  0  0  0  0  0  0  0  0  0  0  0
  -23.4080  -30.5050   21.5540 C   0  0  0  0  0  3  0  0  0  0  0  0
  -24.8430  -28.9700   20.1150 C   0  0  0  0  0  0  0  0  0  0  0  0
  -25.9430  -30.8190   21.3810 C   0  0  0  0  0  2  0  0  0  0  0  0
  -26.0060  -29.4560   20.7310 C   0  0  0  0  0  0  0  0  0  0  0  0
  -27.1890  -28.6790   20.7420 C   0  0  0  0  0  3  0  0  0  0  0  0
  -26.0520  -27.0240   19.3630 C   0  0  0  0  0  3  0  0  0  0  0  0
  -24.8510  -27.7410   19.4420 C   0  0  0  0  0  3  0  0  0  0  0  0
  -23.6210  -29.8550   20.1640 C   0  0  0  0  0  2  0  0  0  0  0  0
  -24.6790  -31.0800   22.1050 N   0  0  0  0  0  0  0  0  0  0  0  0
  -23.5460  -32.1450   23.7550 O   0  0  0  0  0  0  0  0  0  0  0  0
  -22.7450  -29.4710   22.4980 C   0  0  0  0  0  0  0  0  0  0  0  0
  -21.4160  -29.3040   22.3740 N   0  0  0  0  0  0  0  0  0  0  0  0
  -23.4210  -28.8280   23.3050 O   0  0  0  0  0  0  0  0  0  0  0  0
  -20.9220  -29.8880   21.7140 H   0  0  0  0  0  0  0  0  0  0  0  0
  -18.0270  -28.1300   22.8550 C   0  0  0  0  0  0  0  0  0  0  0  0
  -20.5890  -28.3620   23.1340 C   0  0  0  0  0  3  0  0  0  0  0  0
  -20.6760  -26.9360   22.5400 C   0  0  0  0  0  2  0  0  0  0  0  0
  -19.5710  -26.6350   21.5210 C   0  0  0  0  0  2  0  0  0  0  0  0
  -18.1900  -26.7860   22.1640 C   0  0  0  0  0  2  0  0  0  0  0  0
  -19.1510  -28.8770   23.2940 C   0  0  0  0  0  0  0  0  0  0  0  0
  -18.9430  -30.1400   23.8940 C   0  0  0  0  0  3  0  0  0  0  0  0
  -17.6440  -30.6560   24.0570 C   0  0  0  0  0  3  0  0  0  0  0  0
  -16.5350  -29.9050   23.6360 C   0  0  0  0  0  3  0  0  0  0  0  0
  -16.7260  -28.6430   23.0450 C   0  0  0  0  0  3  0  0  0  0  0  0
  -25.9150  -32.4880   23.8440 C   0  0  0  0  0  3  0  0  0  0  0  0
  -25.6010  -33.8680   24.2450 N   0  0  0  0  0  0  0  0  0  0  0  0
  -25.8980  -34.9550   23.5180 C   0  0  0  0  0  0  0  0  0  0  0  0
  -26.5480  -34.8990   22.4710 O   0  0  0  0  0  0  0  0  0  0  0  0
  -25.0420  -33.9800   25.0780 H   0  0  0  0  0  0  0  0  0  0  0  0
  -24.1460  -36.7310   23.2640 C   0  0  0  0  0  1  0  0  0  0  0  0
  -25.4070  -36.3170   24.0400 C   0  0  0  0  0  3  0  0  0  0  0  0
  -27.5580  -37.1800   24.8480 C   0  0  0  0  0  1  0  0  0  0  0  0
  -26.4270  -37.3890   23.9470 N   0  0  0  0  0  0  0  0  0  0  0  0
  -26.0180  -38.2980   24.1510 H   0  0  0  0  0  0  0  0  0  0  0  0
  -26.4510  -31.6650   25.0820 C   0  0  1  0  0  0  0  0  0  0  0  0
  -25.3810  -31.3810   26.1600 C   0  0  0  0  0  1  0  0  0  0  0  0
  -27.0350  -30.3140   24.6200 C   0  0  0  0  0  1  0  0  0  0  0  0
  -27.6050  -32.4390   25.7600 C   0  0  0  0  0  1  0  0  0  0  0  0
  -20.7580  -13.9260   25.7070 C   0  0  0  0  0  2  0  0  0  0  0  0
  -23.2380  -14.0510   25.8730 C   0  0  0  0  0  0  0  0  0  0  0  0
  -22.0630  -14.5320   25.4650 N   0  0  0  0  0  0  0  0  0  0  0  0
  -23.3250  -13.0660   26.6060 O   0  0  0  0  0  0  0  0  0  0  0  0
  -22.0530  -15.3170   24.8270 H   0  0  0  0  0  0  0  0  0  0  0  0
  -24.4920  -14.7730   25.3580 C   0  0  0  0  0  2  0  0  0  0  0  0
  -25.5240  -13.7970   24.7550 C   0  0  0  0  0  2  0  0  0  0  0  0
  -30.7560  -14.3450   20.6300 C   0  0  0  0  0  0  0  0  0  0  0  0
  -30.3850  -12.2680   19.3520 C   0  0  0  0  0  2  0  0  0  0  0  0
  -29.4600  -12.5940   18.1690 C   0  0  0  0  0  2  0  0  0  0  0  0
  -27.9860  -12.4210   18.5770 C   0  0  0  0  0  2  0  0  0  0  0  0
  -27.6660  -13.1810   19.8890 C   0  0  0  0  0  3  0  0  0  0  0  0
  -28.7230  -12.8850   20.9830 C   0  0  0  0  0  2  0  0  0  0  0  0
  -30.0550  -13.1930   20.4430 N   0  0  0  0  0  0  0  0  0  0  0  0
  -31.7780  -14.6360   20.0060 O   0  0  0  0  0  0  0  0  0  0  0  0
  -27.9590  -14.3150   24.4560 C   0  0  0  0  0  0  0  0  0  0  0  0
  -31.1700  -15.3110   22.8330 C   0  0  0  0  0  2  0  0  0  0  0  0
  -29.3240  -16.1310   21.5400 C   0  0  0  0  0  2  0  0  0  0  0  0
  -30.3000  -15.0140   24.0780 C   0  0  0  0  0  2  0  0  0  0  0  0
  -28.5070  -16.2060   22.8580 C   0  0  0  0  0  2  0  0  0  0  0  0
  -30.3430  -15.1030   21.6560 N   0  0  0  0  0  0  0  0  0  0  0  0
  -28.8450  -15.1240   23.8150 N   0  0  0  0  0  0  0  0  0  0  0  0
  -26.6650  -14.4920   24.1410 N   0  0  0  0  0  0  0  0  0  0  0  0
  -28.3150  -13.4540   25.2670 O   0  0  0  0  0  0  0  0  0  0  0  0
  -26.4510  -15.1300   23.3880 H   0  0  0  0  0  0  0  0  0  0  0  0
  -25.2780  -13.8170   20.5670 C   0  0  0  0  0  0  0  0  0  0  0  0
  -24.1990  -13.0540   20.9070 C   0  0  0  0  0  0  0  0  0  0  0  0
  -24.6370  -11.6910   20.8570 C   0  0  0  0  0  0  0  0  0  0  0  0
  -26.3100  -12.9220   20.3440 N   0  0  0  0  0  0  0  0  0  0  0  0
  -25.9280  -11.6400   20.5630 N   0  0  0  0  0  0  0  0  0  0  0  0
  -23.9090  -10.4310   21.0320 C   0  0  0  0  0  0  0  0  0  0  0  0
  -24.3910   -9.4020   21.8720 C   0  0  0  0  0  3  0  0  0  0  0  0
  -23.6590   -8.2040   22.0270 C   0  0  0  0  0  3  0  0  0  0  0  0
  -22.4380   -8.0240   21.3370 C   0  0  0  0  0  0  0  0  0  0  0  0
  -21.9780   -9.0370   20.4740 C   0  0  0  0  0  3  0  0  0  0  0  0
  -22.7060  -10.2260   20.3290 C   0  0  0  0  0  3  0  0  0  0  0  0
  -21.6680   -6.8890   21.4100 O   0  0  0  0  0  0  0  0  0  0  0  0
  -21.6900   -6.0740   22.5160 C   0  0  0  0  0  0  0  0  0  0  0  0
  -21.4050   -6.5590   23.8090 C   0  0  0  0  0  3  0  0  0  0  0  0
  -21.3690   -5.6730   24.9050 C   0  0  0  0  0  3  0  0  0  0  0  0
  -21.6060   -4.2980   24.7060 C   0  0  0  0  0  0  0  0  0  0  0  0
  -21.8810   -3.8090   23.4160 C   0  0  0  0  0  3  0  0  0  0  0  0
  -21.9220   -4.6980   22.3250 C   0  0  0  0  0  0  0  0  0  0  0  0
  -22.1740   -4.2180   21.0840 F   0  0  0  0  0  0  0  0  0  0  0  0
  -21.5750   -3.4430   25.7550 F   0  0  0  0  0  0  0  0  0  0  0  0
  -22.8120  -13.5400   21.2010 C   0  0  0  0  0  0  0  0  0  0  0  0
  -22.1200  -12.8410   22.0820 N   0  0  0  0  0  0  0  0  0  0  0  0
  -22.3670  -14.5730   20.6930 O   0  0  0  0  0  0  0  0  0  0  0  0
  -22.4910  -11.9760   22.4470 H   0  0  0  0  0  0  0  0  0  0  0  0
  -21.2690  -13.2270   22.4690 H   0  0  0  0  0  0  0  0  0  0  0  0
  -25.4650  -15.1940   20.4120 N   0  0  0  0  0  0  0  0  0  0  0  0
  -24.6840  -15.8370   20.4760 H   0  0  0  0  0  0  0  0  0  0  0  0
  -26.2920  -15.6360   20.0340 H   0  0  0  0  0  0  0  0  0  0  0  0
  1 56  1  0
  2  1  1  0
  3  4  1  0
  3  2  1  0
  5  4  1  0
  6  5  1  0
  7  8  1  0
  7  6  1  0
  9 10  1  0
  9  8  1  0
 11 10  1  0
 12 11  1  0
 13 12  1  0
 13 14  1  0
 15 14  1  0
 16 27  2  0
 17 15  1  0
 17 22  1  0
 18 26  1  0
 18 28  1  0
 19 25  1  0
 19 21  1  0
 20 26  1  0
 21 22  2  0
 21 20  1  0
 23 24  1  0
 23 17  2  0
 24 19  2  0
 25 18  1  0
 26 16  1  0
 28 30  2  0
 29 28  1  0
 31 29  1  0
 32 41  2  0
 32 37  1  0
 33 29  1  0
 33 37  1  0
 34 33  1  0
 35 36  1  0
 35 34  1  0
 36 32  1  0
 37 38  2  0
 38 39  1  0
 40 39  2  0
 41 40  1  0
 42 16  1  0
 42 43  1  0
 42 52  1  0
 43 46  1  0
 44 48  1  0
 44 43  1  0
 45 44  2  0
 48 47  1  0
 50 48  1  0
 50 51  1  0
 50 49  1  0
 52 55  1  1
 52 53  1  0
 54 52  1  0
 57 59  2  0
 58 56  1  0
 58 57  1  0
 60 58  1  0
 61 57  1  0
 62 61  1  0
 63 76  1  0
 64 69  1  0
 65 66  1  0
 65 64  1  0
 67 66  1  0
 67 84  1  0
 67 68  1  0
 69 63  1  0
 69 68  1  0
 70 63  2  0
 71 79  2  0
 72 74  1  0
 73 76  1  0
 73 75  1  0
 75 77  1  0
 76 72  1  0
 77 74  1  0
 77 71  1  0
 78 71  1  0
 78 62  1  0
 80 78  1  0
 81 82  2  0
 82101  1  0
 83 82  1  0
 83 86  1  0
 84 85  1  0
 84 81  1  0
 85 83  2  0
 86 87  1  0
 87 88  2  0
 89 92  1  0
 89 88  1  0
 90 89  2  0
 91 90  1  0
 91 86  2  0
 92 93  1  0
 93 94  1  0
 94 95  2  0
 96 95  1  0
 96100  1  0
 97 96  2  0
 98 93  2  0
 98 97  1  0
 99 98  1  0
101102  1  0
102104  1  0
102105  1  0
103101  2  0
106107  1  0
106 81  1  0
108106  1  0
M  ISO  4  14 101  15 101  63 100  76 100
M  END
>  <TORSDO>  (30) 
F 33

>  <SCORE>  (30) 
86.261

>  <name>  (30) 
32

>  <ligand_id>  (30) 
32

>  <original_smiles>  (30) 
[H]c1c([H])c([H])c2c(c1[H])C([H])([H])C([H])([H])C([H])([H])C2([H])N([H])C(=O)C1([H])N(C(=O)C([H])(N([H])C(=O)C([H])(N([H])C([H])([H])[H])C([H])([H])[H])C(C([H])([H])[H])(C([H])([H])[H])C([H])([H])[H])C([H])([H])c2c([H])c(OOC([H])([H])C([H])([H])OC([H])([H])C([H])([H])OC([H])([H])C([H])([H])OC([H])([H])C([H])([H])OC([H])([H])C([H])([H])N([H])C(=O)C([H])([H])C([H])([H])N([H])C(=O)N3C([H])([H])C([H])([H])N(C(=O)N4C([H])([H])C([H])([H])C([H])([H])C([H])(n5nc(-c6c([H])c([H])c(Oc7c([H])c([H])c(F)c([H])c7F)c([H])c6[H])c(C(=O)N([H])[H])c5N([H])[H])C4([H])[H])C([H])([H])C3([H])[H])c([H])c([H])c2C1([H])[H]

>  <smiles>  (30) 
[H]c1c([H])c([H])c2c(c1[H])C([H])([H])C([H])([H])C([H])([H])C2([H])N([H])C(=O)C1([H])N(C(=O)C([H])(N([H])C(=O)C([H])(N([H])C([H])([H])[H])C([H])([H])[H])C(C([H])([H])[H])(C([H])([H])[H])C([H])([H])[H])C([H])([H])c2c([H])c(OOC([H])([H])C([H])([H])OC([H])([H])C([H])([H])OC([H])([H])C([H])([H])OC([H])([H])C([H])([H])OC([H])([H])C([H])([H])N([H])C(=O)C([H])([H])C([H])([H])N([H])C(=O)N3C([H])([H])C([H])([H])N(C(=O)N4C([H])([H])C([H])([H])C([H])([H])C([H])(n5nc(-c6c([H])c([H])c(Oc7c([H])c([H])c(F)c([H])c7F)c([H])c6[H])c(C(=O)N([H])[H])c5N([H])[H])C4([H])[H])C([H])([H])C3([H])[H])c([H])c([H])c2C1([H])[H]

$$$$
33:0:0
     RDKit          3D

107114  0  0  1  0  0  0  0  0999 V2000
  -28.4740  -15.6840   25.0430 C   0  0  0  0  0  0  0  0  0  0  0  0
  -27.5010  -16.4780   24.5960 N   0  0  0  0  0  0  0  0  0  0  0  0
  -28.7920  -15.9340   26.3120 N   0  0  0  0  0  0  0  0  0  0  0  0
  -29.0400  -14.8390   24.3490 O   0  0  0  0  0  0  0  0  0  0  0  0
  -27.0540  -17.0910   25.2620 H   0  0  0  0  0  0  0  0  0  0  0  0
  -28.2530  -16.6290   26.8070 H   0  0  0  0  0  0  0  0  0  0  0  0
  -30.0290  -15.5150   26.9660 C   0  0  0  0  0  2  0  0  0  0  0  0
  -30.8460  -16.7530   27.3710 C   0  0  0  0  0  2  0  0  0  0  0  0
  -30.9630  -17.6190   26.2480 O   0  0  0  0  0  0  0  0  0  0  0  0
  -31.6400  -18.8370   26.5360 C   0  0  0  0  0  2  0  0  0  0  0  0
  -31.7360  -19.6560   25.2420 C   0  0  0  0  0  2  0  0  0  0  0  0
  -32.4390  -18.9130   24.2480 O   0  0  0  0  0  0  0  0  0  0  0  0
  -32.4140  -19.5540   22.9760 C   0  0  0  0  0  2  0  0  0  0  0  0
  -32.9420  -18.6200   21.8770 C   0  0  0  0  0  2  0  0  0  0  0  0
  -32.1230  -17.4560   21.8170 O   0  0  0  0  0  0  0  0  0  0  0  0
  -32.8150  -16.2850   22.2300 C   0  0  0  0  0  2  0  0  0  0  0  0
  -31.8460  -15.2570   22.8370 C   0  0  0  0  0  2  0  0  0  0  0  0
  -30.8650  -14.2800   20.7410 C   0  0  0  0  0  0  0  0  0  0  0  0
  -30.3960  -12.2860   19.3750 C   0  0  0  0  0  2  0  0  0  0  0  0
  -29.4640  -12.5410   18.1810 C   0  0  0  0  0  2  0  0  0  0  0  0
  -28.0000  -12.3680   18.6100 C   0  0  0  0  0  2  0  0  0  0  0  0
  -27.6640  -13.2060   19.8700 C   0  0  0  0  0  3  0  0  0  0  0  0
  -28.7040  -12.9870   20.9930 C   0  0  0  0  0  2  0  0  0  0  0  0
  -30.0550  -13.2280   20.4550 N   0  0  0  0  0  0  0  0  0  0  0  0
  -31.7910  -14.6250   20.0080 O   0  0  0  0  0  0  0  0  0  0  0  0
  -30.7560  -14.7530   21.9900 N   0  0  0  0  0  0  0  0  0  0  0  0
  -29.9340  -14.4760   22.5170 H   0  0  0  0  0  0  0  0  0  0  0  0
  -25.2610  -13.8170   20.5670 C   0  0  0  0  0  0  0  0  0  0  0  0
  -24.1880  -13.0460   20.9160 C   0  0  0  0  0  0  0  0  0  0  0  0
  -24.6420  -11.6920   20.8750 C   0  0  0  0  0  0  0  0  0  0  0  0
  -26.3050  -12.9350   20.3360 N   0  0  0  0  0  0  0  0  0  0  0  0
  -25.9340  -11.6500   20.5760 N   0  0  0  0  0  0  0  0  0  0  0  0
  -23.9100  -10.4300   21.0430 C   0  0  0  0  0  0  0  0  0  0  0  0
  -24.3640   -9.4200   21.9200 C   0  0  0  0  0  3  0  0  0  0  0  0
  -23.6300   -8.2240   22.0770 C   0  0  0  0  0  3  0  0  0  0  0  0
  -22.4280   -8.0300   21.3550 C   0  0  0  0  0  0  0  0  0  0  0  0
  -21.9930   -9.0270   20.4650 C   0  0  0  0  0  3  0  0  0  0  0  0
  -22.7280  -10.2140   20.3060 C   0  0  0  0  0  3  0  0  0  0  0  0
  -21.6640   -6.8900   21.4240 O   0  0  0  0  0  0  0  0  0  0  0  0
  -21.6850   -6.0750   22.5270 C   0  0  0  0  0  0  0  0  0  0  0  0
  -21.4010   -6.5650   23.8210 C   0  0  0  0  0  3  0  0  0  0  0  0
  -21.3660   -5.6800   24.9160 C   0  0  0  0  0  3  0  0  0  0  0  0
  -21.6040   -4.3060   24.7210 C   0  0  0  0  0  0  0  0  0  0  0  0
  -21.8820   -3.8160   23.4330 C   0  0  0  0  0  3  0  0  0  0  0  0
  -21.9190   -4.6970   22.3390 C   0  0  0  0  0  0  0  0  0  0  0  0
  -22.1660   -4.2170   21.0960 F   0  0  0  0  0  0  0  0  0  0  0  0
  -21.5620   -3.4540   25.7720 F   0  0  0  0  0  0  0  0  0  0  0  0
  -22.7890  -13.5250   21.1800 C   0  0  0  0  0  0  0  0  0  0  0  0
  -22.0520  -12.8240   22.0350 N   0  0  0  0  0  0  0  0  0  0  0  0
  -22.3570  -14.5530   20.6620 O   0  0  0  0  0  0  0  0  0  0  0  0
  -22.4120  -11.9910   22.4760 H   0  0  0  0  0  0  0  0  0  0  0  0
  -21.1110  -13.1240   22.2470 H   0  0  0  0  0  0  0  0  0  0  0  0
  -25.4320  -15.1900   20.4010 N   0  0  0  0  0  0  0  0  0  0  0  0
  -24.6620  -15.8420   20.4900 H   0  0  0  0  0  0  0  0  0  0  0  0
  -26.2870  -15.6280   20.0840 H   0  0  0  0  0  0  0  0  0  0  0  0
  -27.1060  -16.6540   23.2010 C   0  0  0  0  0  2  0  0  0  0  0  0
  -27.7420  -17.9140   22.5760 C   0  0  0  0  0  2  0  0  0  0  0  0
  -27.6120  -19.1750   23.4500 C   0  0  0  0  0  2  0  0  0  0  0  0
  -28.1170  -20.4590   22.7750 C   0  0  0  0  0  2  0  0  0  0  0  0
  -27.8280  -21.6900   23.6530 C   0  0  0  0  0  2  0  0  0  0  0  0
  -28.5250  -22.9850   23.2010 C   0  0  0  0  0  2  0  0  0  0  0  0
  -28.0210  -23.4840   21.9030 N   0  0  0  0  0  4  0  0  0  0  0  0
  -27.0250  -23.3230   21.8740 H   0  0  0  0  0  0  0  0  0  0  0  0
  -28.4410  -22.9330   21.1690 H   0  0  0  0  0  0  0  0  0  0  0  0
  -28.2880  -24.9290   21.6860 C   0  0  0  0  0  2  0  0  0  0  0  0
  -28.3780  -25.3160   20.1950 C   0  0  0  0  0  2  0  0  0  0  0  0
  -28.4160  -26.7430   20.0690 O   0  0  0  0  0  0  0  0  0  0  0  0
  -24.6140  -31.8680   23.2130 C   0  0  0  0  0  0  0  0  0  0  0  0
  -27.2270  -27.4390   20.0850 C   0  0  0  0  0  0  0  0  0  0  0  0
  -23.3990  -30.4970   21.5510 C   0  0  0  0  0  3  0  0  0  0  0  0
  -24.8410  -28.9620   20.1140 C   0  0  0  0  0  0  0  0  0  0  0  0
  -25.9310  -30.8230   21.3780 C   0  0  0  0  0  2  0  0  0  0  0  0
  -26.0020  -29.4660   20.7150 C   0  0  0  0  0  0  0  0  0  0  0  0
  -27.1950  -28.7110   20.6970 C   0  0  0  0  0  3  0  0  0  0  0  0
  -26.0480  -26.9520   19.4760 C   0  0  0  0  0  3  0  0  0  0  0  0
  -24.8600  -27.7030   19.4930 C   0  0  0  0  0  3  0  0  0  0  0  0
  -23.6070  -29.8360   20.1630 C   0  0  0  0  0  2  0  0  0  0  0  0
  -24.6640  -31.0800   22.1030 N   0  0  0  0  0  0  0  0  0  0  0  0
  -23.5360  -32.1430   23.7580 O   0  0  0  0  0  0  0  0  0  0  0  0
  -22.7410  -29.4680   22.4970 C   0  0  0  0  0  0  0  0  0  0  0  0
  -21.4140  -29.3020   22.3730 N   0  0  0  0  0  0  0  0  0  0  0  0
  -23.4210  -28.8210   23.2970 O   0  0  0  0  0  0  0  0  0  0  0  0
  -20.9260  -29.8770   21.6990 H   0  0  0  0  0  0  0  0  0  0  0  0
  -18.0290  -28.1380   22.8470 C   0  0  0  0  0  0  0  0  0  0  0  0
  -20.5890  -28.3640   23.1340 C   0  0  0  0  0  3  0  0  0  0  0  0
  -20.6810  -26.9370   22.5420 C   0  0  0  0  0  2  0  0  0  0  0  0
  -19.5770  -26.6390   21.5230 C   0  0  0  0  0  2  0  0  0  0  0  0
  -18.1930  -26.7920   22.1610 C   0  0  0  0  0  2  0  0  0  0  0  0
  -19.1550  -28.8810   23.2900 C   0  0  0  0  0  0  0  0  0  0  0  0
  -18.9480  -30.1420   23.8870 C   0  0  0  0  0  3  0  0  0  0  0  0
  -17.6490  -30.6550   24.0550 C   0  0  0  0  0  3  0  0  0  0  0  0
  -16.5360  -29.9050   23.6360 C   0  0  0  0  0  3  0  0  0  0  0  0
  -16.7290  -28.6510   23.0300 C   0  0  0  0  0  3  0  0  0  0  0  0
  -25.9070  -32.4800   23.8360 C   0  0  0  0  0  3  0  0  0  0  0  0
  -25.5980  -33.8600   24.2290 N   0  0  0  0  0  0  0  0  0  0  0  0
  -25.9070  -34.9460   23.5080 C   0  0  0  0  0  0  0  0  0  0  0  0
  -26.5580  -34.8900   22.4610 O   0  0  0  0  0  0  0  0  0  0  0  0
  -25.0270  -33.9740   25.0530 H   0  0  0  0  0  0  0  0  0  0  0  0
  -24.1520  -36.7300   23.2640 C   0  0  0  0  0  1  0  0  0  0  0  0
  -25.4130  -36.3070   24.0330 C   0  0  0  0  0  3  0  0  0  0  0  0
  -27.5570  -37.1830   24.8440 C   0  0  0  0  0  1  0  0  0  0  0  0
  -26.4290  -37.3760   23.9380 N   0  0  0  0  0  0  0  0  0  0  0  0
  -26.0170  -38.2840   24.1350 H   0  0  0  0  0  0  0  0  0  0  0  0
  -26.4480  -31.6620   25.0730 C   0  0  1  0  0  0  0  0  0  0  0  0
  -25.3770  -31.3810   26.1520 C   0  0  0  0  0  1  0  0  0  0  0  0
  -27.0340  -30.3040   24.6160 C   0  0  0  0  0  1  0  0  0  0  0  0
  -27.5990  -32.4390   25.7530 C   0  0  0  0  0  1  0  0  0  0  0  0
  1  3  1  0
  2  1  1  0
  2  5  1  0
  3  6  1  0
  3  7  1  0
  4  1  2  0
  7  8  1  0
  9 10  1  0
  9  8  1  0
 11 10  1  0
 12 11  1  0
 13 12  1  0
 14 13  1  0
 15 14  1  0
 15 16  1  0
 16 17  1  0
 18 26  1  0
 19 24  1  0
 20 21  1  0
 20 19  1  0
 22 21  1  0
 22 31  1  0
 22 23  1  0
 24 18  1  0
 24 23  1  0
 25 18  2  0
 26 27  1  0
 26 17  1  0
 28 29  2  0
 29 48  1  0
 30 29  1  0
 30 33  1  0
 31 28  1  0
 31 32  1  0
 32 30  2  0
 33 34  1  0
 34 35  2  0
 36 39  1  0
 36 35  1  0
 37 36  2  0
 38 37  1  0
 38 33  2  0
 39 40  1  0
 40 41  1  0
 41 42  2  0
 43 42  1  0
 43 47  1  0
 44 43  2  0
 45 40  2  0
 45 44  1  0
 46 45  1  0
 48 49  1  0
 49 52  1  0
 49 51  1  0
 50 48  2  0
 53 54  1  0
 53 28  1  0
 55 53  1  0
 56  2  1  0
 57 56  1  0
 57 58  1  0
 59 58  1  0
 59 60  1  0
 61 60  1  0
 62 61  1  0
 63 62  1  0
 64 62  1  0
 65 62  1  0
 66 65  1  0
 67 69  1  0
 67 66  1  0
 68 79  2  0
 69 74  1  0
 70 78  1  0
 70 80  1  0
 71 77  1  0
 71 73  1  0
 72 78  1  0
 73 72  1  0
 74 73  2  0
 75 76  1  0
 75 69  2  0
 76 71  2  0
 77 70  1  0
 78 68  1  0
 80 82  2  0
 81 80  1  0
 83 81  1  0
 84 93  2  0
 84 89  1  0
 85 81  1  0
 85 89  1  0
 86 85  1  0
 87 88  1  0
 87 86  1  0
 88 84  1  0
 89 90  2  0
 90 91  1  0
 92 91  2  0
 93 92  1  0
 94 68  1  0
 94 95  1  0
 94104  1  0
 95 98  1  0
 96100  1  0
 96 95  1  0
 97 96  2  0
100 99  1  0
102100  1  0
102103  1  0
102101  1  0
104107  1  1
104105  1  0
106104  1  0
M  ISO  4  18 100  26 100  66 101  67 101
M  END
>  <TORSDO>  (31) 
F 36

>  <SCORE>  (31) 
73.001

>  <name>  (31) 
33

>  <ligand_id>  (31) 
33

>  <original_smiles>  (31) 
[H]c1c([H])c([H])c2c(c1[H])C([H])([H])C([H])([H])C([H])([H])C2([H])N([H])C(=O)C1([H])N(C(=O)C([H])(N([H])C(=O)C([H])(N([H])C([H])([H])[H])C([H])([H])[H])C(C([H])([H])[H])(C([H])([H])[H])C([H])([H])[H])C([H])([H])c2c([H])c(OC([H])([H])C([H])([H])[N+]([H])([H])C([H])([H])C([H])([H])C([H])([H])C([H])([H])C([H])([H])C([H])([H])N([H])C(=O)N([H])C([H])([H])C([H])([H])OC([H])([H])C([H])([H])OC([H])([H])C([H])([H])OC([H])([H])C([H])([H])N([H])C(=O)N3C([H])([H])C([H])([H])C([H])([H])C([H])(n4nc(-c5c([H])c([H])c(Oc6c([H])c([H])c(F)c([H])c6F)c([H])c5[H])c(C(=O)N([H])[H])c4N([H])[H])C3([H])[H])c([H])c([H])c2C1([H])[H]

>  <smiles>  (31) 
[H]c1c([H])c([H])c2c(c1[H])C([H])([H])C([H])([H])C([H])([H])C2([H])N([H])C(=O)C1([H])N(C(=O)C([H])(N([H])C(=O)C([H])(N([H])C([H])([H])[H])C([H])([H])[H])C(C([H])([H])[H])(C([H])([H])[H])C([H])([H])[H])C([H])([H])c2c([H])c(OC([H])([H])C([H])([H])[N+]([H])([H])C([H])([H])C([H])([H])C([H])([H])C([H])([H])C([H])([H])C([H])([H])N([H])C(=O)N([H])C([H])([H])C([H])([H])OC([H])([H])C([H])([H])OC([H])([H])C([H])([H])OC([H])([H])C([H])([H])N([H])C(=O)N3C([H])([H])C([H])([H])C([H])([H])C([H])(n4nc(-c5c([H])c([H])c(Oc6c([H])c([H])c(F)c([H])c6F)c([H])c5[H])c(C(=O)N([H])[H])c4N([H])[H])C3([H])[H])c([H])c([H])c2C1([H])[H]

$$$$
34:0:0
     RDKit          3D

100107  0  0  1  0  0  0  0  0999 V2000
  -30.6420  -21.8020   18.3040 C   0  0  0  0  0  0  0  0  0  0  0  0
  -31.1330  -20.6080   17.9490 N   0  0  0  0  0  0  0  0  0  0  0  0
  -31.3460  -22.8100   18.4100 O   0  0  0  0  0  0  0  0  0  0  0  0
  -30.4840  -19.8370   17.8690 H   0  0  0  0  0  0  0  0  0  0  0  0
  -32.5560  -20.2900   17.8350 C   0  0  0  0  0  2  0  0  0  0  0  0
  -33.1030  -19.7780   19.1800 C   0  0  0  0  0  2  0  0  0  0  0  0
  -33.0530  -20.8270   20.1380 O   0  0  0  0  0  0  0  0  0  0  0  0
  -33.3210  -20.3960   21.4650 C   0  0  0  0  0  2  0  0  0  0  0  0
  -32.4070  -21.1730   22.4280 C   0  0  0  0  0  2  0  0  0  0  0  0
  -31.0250  -21.0440   22.0810 O   0  0  0  0  0  0  0  0  0  0  0  0
  -30.3740  -19.8810   22.5910 C   0  0  0  0  0  2  0  0  0  0  0  0
  -29.9550  -18.9290   21.4560 C   0  0  0  0  0  2  0  0  0  0  0  0
  -30.9260  -17.9000   21.3200 O   0  0  0  0  0  0  0  0  0  0  0  0
  -30.3710  -16.6310   21.0020 C   0  0  0  0  0  2  0  0  0  0  0  0
  -31.4640  -15.5600   21.1600 C   0  0  0  0  0  2  0  0  0  0  0  0
  -32.2110  -13.6450   19.7810 C   0  0  0  0  0  0  0  0  0  0  0  0
  -31.6020  -11.3030   19.3500 C   0  0  0  0  0  2  0  0  0  0  0  0
  -30.6440  -11.2440   18.1420 C   0  0  0  0  0  2  0  0  0  0  0  0
  -29.1810  -11.4000   18.6020 C   0  0  0  0  0  2  0  0  0  0  0  0
  -28.9860  -12.6270   19.5330 C   0  0  0  0  0  3  0  0  0  0  0  0
  -30.0520  -12.6400   20.6470 C   0  0  0  0  0  2  0  0  0  0  0  0
  -31.3860  -12.5920   20.0230 N   0  0  0  0  0  0  0  0  0  0  0  0
  -33.2860  -13.5430   19.1910 O   0  0  0  0  0  0  0  0  0  0  0  0
  -31.6870  -14.8650   19.8980 N   0  0  0  0  0  0  0  0  0  0  0  0
  -32.1230  -15.4810   19.2290 H   0  0  0  0  0  0  0  0  0  0  0  0
  -26.8650  -13.7630   20.4430 C   0  0  0  0  0  0  0  0  0  0  0  0
  -25.6580  -13.2570   20.8440 C   0  0  0  0  0  0  0  0  0  0  0  0
  -25.7580  -11.8410   20.7100 C   0  0  0  0  0  0  0  0  0  0  0  0
  -27.6370  -12.6690   20.0920 N   0  0  0  0  0  0  0  0  0  0  0  0
  -26.9770  -11.5010   20.3130 N   0  0  0  0  0  0  0  0  0  0  0  0
  -24.7470  -10.7890   20.8850 C   0  0  0  0  0  0  0  0  0  0  0  0
  -25.0050   -9.6460   21.6730 C   0  0  0  0  0  3  0  0  0  0  0  0
  -24.0120   -8.6560   21.8410 C   0  0  0  0  0  3  0  0  0  0  0  0
  -22.7480   -8.8080   21.2250 C   0  0  0  0  0  0  0  0  0  0  0  0
  -22.5060   -9.9370   20.4240 C   0  0  0  0  0  3  0  0  0  0  0  0
  -23.4950  -10.9200   20.2530 C   0  0  0  0  0  3  0  0  0  0  0  0
  -21.7300   -7.8880   21.3150 O   0  0  0  0  0  0  0  0  0  0  0  0
  -21.5690   -7.0940   22.4220 C   0  0  0  0  0  0  0  0  0  0  0  0
  -21.4410   -7.6400   23.7170 C   0  0  0  0  0  3  0  0  0  0  0  0
  -21.2030   -6.7940   24.8170 C   0  0  0  0  0  3  0  0  0  0  0  0
  -21.0830   -5.4050   24.6250 C   0  0  0  0  0  0  0  0  0  0  0  0
  -21.2040   -4.8590   23.3340 C   0  0  0  0  0  3  0  0  0  0  0  0
  -21.4410   -5.7050   22.2360 C   0  0  0  0  0  0  0  0  0  0  0  0
  -21.5310   -5.1740   20.9920 F   0  0  0  0  0  0  0  0  0  0  0  0
  -20.8470   -4.5930   25.6810 F   0  0  0  0  0  0  0  0  0  0  0  0
  -24.4450  -14.0490   21.2380 C   0  0  0  0  0  0  0  0  0  0  0  0
  -23.6250  -13.5120   22.1360 N   0  0  0  0  0  0  0  0  0  0  0  0
  -24.2380  -15.1720   20.7820 O   0  0  0  0  0  0  0  0  0  0  0  0
  -23.8060  -12.6000   22.5290 H   0  0  0  0  0  0  0  0  0  0  0  0
  -22.8080  -14.0230   22.4370 H   0  0  0  0  0  0  0  0  0  0  0  0
  -27.3590  -15.0610   20.3370 N   0  0  0  0  0  0  0  0  0  0  0  0
  -26.8070  -15.8740   20.5860 H   0  0  0  0  0  0  0  0  0  0  0  0
  -28.2880  -15.2960   20.0090 H   0  0  0  0  0  0  0  0  0  0  0  0
  -29.1420  -21.8690   18.6180 C   0  0  0  0  0  2  0  0  0  0  0  0
  -28.7600  -24.1640   19.4960 C   0  0  0  0  0  0  0  0  0  0  0  0
  -28.9260  -22.8510   19.6750 N   0  0  0  0  0  0  0  0  0  0  0  0
  -28.5520  -24.6690   18.3890 O   0  0  0  0  0  0  0  0  0  0  0  0
  -29.1040  -22.5320   20.6180 H   0  0  0  0  0  0  0  0  0  0  0  0
  -28.8750  -25.0260   20.7590 C   0  0  0  0  0  2  0  0  0  0  0  0
  -28.9310  -26.4110   20.4240 O   0  0  0  0  0  0  0  0  0  0  0  0
  -24.8790  -31.5160   23.1710 C   0  0  0  0  0  0  0  0  0  0  0  0
  -27.7320  -27.0750   20.3340 C   0  0  0  0  0  0  0  0  0  0  0  0
  -23.7750  -30.0710   21.4920 C   0  0  0  0  0  3  0  0  0  0  0  0
  -25.3180  -28.5230   20.1820 C   0  0  0  0  0  0  0  0  0  0  0  0
  -26.2980  -30.4670   21.4160 C   0  0  0  0  0  2  0  0  0  0  0  0
  -26.4330  -29.0860   20.8140 C   0  0  0  0  0  0  0  0  0  0  0  0
  -27.6460  -28.3700   20.8820 C   0  0  0  0  0  3  0  0  0  0  0  0
  -26.5990  -26.5120   19.7040 C   0  0  0  0  0  3  0  0  0  0  0  0
  -25.3940  -27.2340   19.6250 C   0  0  0  0  0  3  0  0  0  0  0  0
  -24.0640  -29.3640   20.1390 C   0  0  0  0  0  2  0  0  0  0  0  0
  -24.9990  -30.6990   22.0870 N   0  0  0  0  0  0  0  0  0  0  0  0
  -23.7690  -31.7890   23.6460 O   0  0  0  0  0  0  0  0  0  0  0  0
  -23.0840  -29.0630   22.4350 C   0  0  0  0  0  0  0  0  0  0  0  0
  -21.7620  -28.8960   22.2650 N   0  0  0  0  0  0  0  0  0  0  0  0
  -23.7320  -28.4320   23.2730 O   0  0  0  0  0  0  0  0  0  0  0  0
  -21.3030  -29.4550   21.5610 H   0  0  0  0  0  0  0  0  0  0  0  0
  -18.3500  -27.7930   22.6910 C   0  0  0  0  0  0  0  0  0  0  0  0
  -20.9090  -27.9730   23.0100 C   0  0  0  0  0  3  0  0  0  0  0  0
  -20.9800  -26.5470   22.4180 C   0  0  0  0  0  2  0  0  0  0  0  0
  -19.8880  -26.2690   21.3810 C   0  0  0  0  0  2  0  0  0  0  0  0
  -18.5000  -26.4460   22.0040 C   0  0  0  0  0  2  0  0  0  0  0  0
  -19.4820  -28.5170   23.1490 C   0  0  0  0  0  0  0  0  0  0  0  0
  -19.2920  -29.7810   23.7490 C   0  0  0  0  0  3  0  0  0  0  0  0
  -17.9990  -30.3200   23.8950 C   0  0  0  0  0  3  0  0  0  0  0  0
  -16.8810  -29.5920   23.4550 C   0  0  0  0  0  3  0  0  0  0  0  0
  -17.0560  -28.3300   22.8580 C   0  0  0  0  0  3  0  0  0  0  0  0
  -26.1260  -32.1690   23.8460 C   0  0  0  0  0  3  0  0  0  0  0  0
  -25.7610  -33.5440   24.2130 N   0  0  0  0  0  0  0  0  0  0  0  0
  -26.0680  -34.6290   23.4900 C   0  0  0  0  0  0  0  0  0  0  0  0
  -26.7600  -34.5800   22.4680 O   0  0  0  0  0  0  0  0  0  0  0  0
  -25.1490  -33.6540   25.0090 H   0  0  0  0  0  0  0  0  0  0  0  0
  -24.2760  -36.3600   23.1560 C   0  0  0  0  0  1  0  0  0  0  0  0
  -25.5200  -35.9840   23.9760 C   0  0  0  0  0  3  0  0  0  0  0  0
  -27.6060  -36.9310   24.8610 C   0  0  0  0  0  1  0  0  0  0  0  0
  -26.5120  -37.0790   23.9040 N   0  0  0  0  0  0  0  0  0  0  0  0
  -26.0670  -37.9790   24.0690 H   0  0  0  0  0  0  0  0  0  0  0  0
  -26.6400  -31.3700   25.1070 C   0  0  1  0  0  0  0  0  0  0  0  0
  -25.5280  -31.0420   26.1300 C   0  0  0  0  0  1  0  0  0  0  0  0
  -27.2940  -30.0360   24.6760 C   0  0  0  0  0  1  0  0  0  0  0  0
  -27.7350  -32.1850   25.8360 C   0  0  0  0  0  1  0  0  0  0  0  0
  1  3  2  0
  1 54  1  0
  2  1  1  0
  4  2  1  0
  5  2  1  0
  5  6  1  0
  6  7  1  0
  7  8  1  0
  8  9  1  0
 10  9  1  0
 10 11  1  0
 12 11  1  0
 13 12  1  0
 14 15  1  0
 14 13  1  0
 16 24  1  0
 16 22  1  0
 17 22  1  0
 18 19  1  0
 18 17  1  0
 20 19  1  0
 20 29  1  0
 20 21  1  0
 22 21  1  0
 23 16  2  0
 24 15  1  0
 25 24  1  0
 26 27  2  0
 27 46  1  0
 28 27  1  0
 28 31  1  0
 29 30  1  0
 29 26  1  0
 30 28  2  0
 31 32  1  0
 32 33  2  0
 34 37  1  0
 34 33  1  0
 35 34  2  0
 36 35  1  0
 36 31  2  0
 37 38  1  0
 38 39  1  0
 39 40  2  0
 41 40  1  0
 41 45  1  0
 42 41  2  0
 43 38  2  0
 43 42  1  0
 44 43  1  0
 46 47  1  0
 47 50  1  0
 47 49  1  0
 48 46  2  0
 51 26  1  0
 51 52  1  0
 53 51  1  0
 54 56  1  0
 55 56  1  0
 55 59  1  0
 56 58  1  0
 57 55  2  0
 60 59  1  0
 61 72  2  0
 62 60  1  0
 62 67  1  0
 63 71  1  0
 63 73  1  0
 64 66  1  0
 65 71  1  0
 66 67  2  0
 66 65  1  0
 68 62  2  0
 69 68  1  0
 69 64  2  0
 70 64  1  0
 70 63  1  0
 71 61  1  0
 73 75  2  0
 74 73  1  0
 76 74  1  0
 77 86  2  0
 77 82  1  0
 78 74  1  0
 78 82  1  0
 79 78  1  0
 80 81  1  0
 80 79  1  0
 81 77  1  0
 82 83  2  0
 83 84  1  0
 85 84  2  0
 86 85  1  0
 87 61  1  0
 87 88  1  0
 87 97  1  0
 88 91  1  0
 89 93  1  0
 89 88  1  0
 90 89  2  0
 93 92  1  0
 95 93  1  0
 95 96  1  0
 95 94  1  0
 97100  1  1
 97 98  1  0
 99 97  1  0
M  ISO  4  16 100  24 100  59 101  60 101
M  END
>  <TORSDO>  (32) 
F 30

>  <SCORE>  (32) 
-9.188

>  <name>  (32) 
34

>  <ligand_id>  (32) 
34

>  <original_smiles>  (32) 
[H]c1c([H])c([H])c2c(c1[H])C([H])([H])C([H])([H])C([H])([H])C2([H])N([H])C(=O)C1([H])N(C(=O)C([H])(N([H])C(=O)C([H])(N([H])C([H])([H])[H])C([H])([H])[H])C(C([H])([H])[H])(C([H])([H])[H])C([H])([H])[H])C([H])([H])c2c([H])c(OC([H])([H])C(=O)N([H])C([H])([H])C(=O)N([H])C([H])([H])C([H])([H])OC([H])([H])C([H])([H])OC([H])([H])C([H])([H])OC([H])([H])C([H])([H])N([H])C(=O)N3C([H])([H])C([H])([H])C([H])([H])C([H])(n4nc(-c5c([H])c([H])c(Oc6c([H])c([H])c(F)c([H])c6F)c([H])c5[H])c(C(=O)N([H])[H])c4N([H])[H])C3([H])[H])c([H])c([H])c2C1([H])[H]

>  <smiles>  (32) 
[H]c1c([H])c([H])c2c(c1[H])C([H])([H])C([H])([H])C([H])([H])C2([H])N([H])C(=O)C1([H])N(C(=O)C([H])(N([H])C(=O)C([H])(N([H])C([H])([H])[H])C([H])([H])[H])C(C([H])([H])[H])(C([H])([H])[H])C([H])([H])[H])C([H])([H])c2c([H])c(OC([H])([H])C(=O)N([H])C([H])([H])C(=O)N([H])C([H])([H])C([H])([H])OC([H])([H])C([H])([H])OC([H])([H])C([H])([H])OC([H])([H])C([H])([H])N([H])C(=O)N3C([H])([H])C([H])([H])C([H])([H])C([H])(n4nc(-c5c([H])c([H])c(Oc6c([H])c([H])c(F)c([H])c6F)c([H])c5[H])c(C(=O)N([H])[H])c4N([H])[H])C3([H])[H])c([H])c([H])c2C1([H])[H]

$$$$
35:0:0
     RDKit          3D

 88 95  0  0  1  0  0  0  0  0999 V2000
  -30.5360  -22.4340   20.8370 C   0  0  0  0  0  2  0  0  0  0  0  0
  -30.7560  -21.1380   20.0300 C   0  0  0  0  0  2  0  0  0  0  0  0
  -30.0460  -20.0080   20.5440 O   0  0  0  0  0  0  0  0  0  0  0  0
  -30.0950  -18.9170   19.6260 C   0  0  0  0  0  2  0  0  0  0  0  0
  -29.4910  -17.6060   20.1730 C   0  0  0  0  0  2  0  0  0  0  0  0
  -30.3670  -16.8330   21.1870 C   0  0  0  0  0  2  0  0  0  0  0  0
  -30.6640  -14.4330   20.5430 C   0  0  0  0  0  0  0  0  0  0  0  0
  -30.3310  -12.3090   19.3390 C   0  0  0  0  0  2  0  0  0  0  0  0
  -29.3820  -12.5460   18.1470 C   0  0  0  0  0  2  0  0  0  0  0  0
  -27.9090  -12.4200   18.5820 C   0  0  0  0  0  2  0  0  0  0  0  0
  -27.5910  -13.2410   19.8600 C   0  0  0  0  0  3  0  0  0  0  0  0
  -28.6470  -12.9760   20.9580 C   0  0  0  0  0  2  0  0  0  0  0  0
  -29.9770  -13.2690   20.3970 N   0  0  0  0  0  0  0  0  0  0  0  0
  -31.7530  -14.6440   20.0010 O   0  0  0  0  0  0  0  0  0  0  0  0
  -30.0160  -15.4050   21.2070 N   0  0  0  0  0  0  0  0  0  0  0  0
  -29.1390  -15.1490   21.6360 H   0  0  0  0  0  0  0  0  0  0  0  0
  -25.1960  -13.8710   20.5660 C   0  0  0  0  0  0  0  0  0  0  0  0
  -24.1220  -13.1070   20.9370 C   0  0  0  0  0  0  0  0  0  0  0  0
  -24.5720  -11.7510   20.9060 C   0  0  0  0  0  0  0  0  0  0  0  0
  -26.2350  -12.9810   20.3380 N   0  0  0  0  0  0  0  0  0  0  0  0
  -25.8610  -11.7020   20.5960 N   0  0  0  0  0  0  0  0  0  0  0  0
  -23.8360  -10.4960   21.0990 C   0  0  0  0  0  0  0  0  0  0  0  0
  -24.2860   -9.5120   22.0070 C   0  0  0  0  0  3  0  0  0  0  0  0
  -23.5540   -8.3190   22.1880 C   0  0  0  0  0  3  0  0  0  0  0  0
  -22.3580   -8.1030   21.4620 C   0  0  0  0  0  0  0  0  0  0  0  0
  -21.9280   -9.0750   20.5440 C   0  0  0  0  0  3  0  0  0  0  0  0
  -22.6590  -10.2600   20.3610 C   0  0  0  0  0  3  0  0  0  0  0  0
  -21.5940   -6.9650   21.5560 O   0  0  0  0  0  0  0  0  0  0  0  0
  -21.5920   -6.1890   22.6880 C   0  0  0  0  0  0  0  0  0  0  0  0
  -21.2570   -6.7180   23.9530 C   0  0  0  0  0  3  0  0  0  0  0  0
  -21.2000   -5.8700   25.0780 C   0  0  0  0  0  3  0  0  0  0  0  0
  -21.4670   -4.4960   24.9390 C   0  0  0  0  0  0  0  0  0  0  0  0
  -21.7940   -3.9660   23.6780 C   0  0  0  0  0  3  0  0  0  0  0  0
  -21.8540   -4.8100   22.5560 C   0  0  0  0  0  0  0  0  0  0  0  0
  -22.1490   -4.2910   21.3400 F   0  0  0  0  0  0  0  0  0  0  0  0
  -21.4030   -3.6800   26.0170 F   0  0  0  0  0  0  0  0  0  0  0  0
  -22.7290  -13.5950   21.2130 C   0  0  0  0  0  0  0  0  0  0  0  0
  -22.0000  -12.9070   22.0850 N   0  0  0  0  0  0  0  0  0  0  0  0
  -22.2960  -14.6210   20.6910 O   0  0  0  0  0  0  0  0  0  0  0  0
  -22.3640  -12.0790   22.5310 H   0  0  0  0  0  0  0  0  0  0  0  0
  -21.0640  -13.2150   22.3100 H   0  0  0  0  0  0  0  0  0  0  0  0
  -25.3730  -15.2390   20.3870 N   0  0  0  0  0  0  0  0  0  0  0  0
  -24.6120  -15.9010   20.4980 H   0  0  0  0  0  0  0  0  0  0  0  0
  -26.2300  -15.6710   20.0650 H   0  0  0  0  0  0  0  0  0  0  0  0
  -29.4510  -23.1800   20.2830 O   0  0  0  0  0  0  0  0  0  0  0  0
  -29.5270  -24.5820   20.5500 C   0  0  0  0  0  2  0  0  0  0  0  0
  -28.2780  -25.2910   19.9950 C   0  0  0  0  0  2  0  0  0  0  0  0
  -28.3690  -26.7110   20.1540 O   0  0  0  0  0  0  0  0  0  0  0  0
  -24.5800  -31.8770   23.2220 C   0  0  0  0  0  0  0  0  0  0  0  0
  -27.1870  -27.4270   20.1300 C   0  0  0  0  0  0  0  0  0  0  0  0
  -23.3530  -30.4720   21.5980 C   0  0  0  0  0  3  0  0  0  0  0  0
  -24.7890  -28.9330   20.1600 C   0  0  0  0  0  0  0  0  0  0  0  0
  -25.8780  -30.8290   21.3710 C   0  0  0  0  0  2  0  0  0  0  0  0
  -25.9540  -29.4570   20.7330 C   0  0  0  0  0  0  0  0  0  0  0  0
  -27.1540  -28.7130   20.7140 C   0  0  0  0  0  3  0  0  0  0  0  0
  -26.0040  -26.9180   19.5450 C   0  0  0  0  0  3  0  0  0  0  0  0
  -24.8090  -27.6610   19.5640 C   0  0  0  0  0  3  0  0  0  0  0  0
  -23.5460  -29.7910   20.2180 C   0  0  0  0  0  2  0  0  0  0  0  0
  -24.6220  -31.0740   22.1220 N   0  0  0  0  0  0  0  0  0  0  0  0
  -23.5050  -32.1510   23.7730 O   0  0  0  0  0  0  0  0  0  0  0  0
  -22.7140  -29.4520   22.5680 C   0  0  0  0  0  0  0  0  0  0  0  0
  -21.3880  -29.2690   22.4550 N   0  0  0  0  0  0  0  0  0  0  0  0
  -23.4060  -28.8290   23.3760 O   0  0  0  0  0  0  0  0  0  0  0  0
  -20.8910  -29.8250   21.7720 H   0  0  0  0  0  0  0  0  0  0  0  0
  -18.0190  -28.0700   22.9750 C   0  0  0  0  0  0  0  0  0  0  0  0
  -20.5770  -28.3350   23.2350 C   0  0  0  0  0  3  0  0  0  0  0  0
  -20.6820  -26.9000   22.6700 C   0  0  0  0  0  2  0  0  0  0  0  0
  -19.5780  -26.5670   21.6620 C   0  0  0  0  0  2  0  0  0  0  0  0
  -18.1970  -26.7150   22.3110 C   0  0  0  0  0  2  0  0  0  0  0  0
  -19.1380  -28.8380   23.3950 C   0  0  0  0  0  0  0  0  0  0  0  0
  -18.9210  -30.1060   23.9740 C   0  0  0  0  0  3  0  0  0  0  0  0
  -17.6160  -30.6080   24.1410 C   0  0  0  0  0  3  0  0  0  0  0  0
  -16.5110  -29.8380   23.7400 C   0  0  0  0  0  3  0  0  0  0  0  0
  -16.7130  -28.5710   23.1620 C   0  0  0  0  0  3  0  0  0  0  0  0
  -25.8730  -32.5100   23.8250 C   0  0  0  0  0  3  0  0  0  0  0  0
  -26.4160  -31.7300   25.0850 C   0  0  1  0  0  0  0  0  0  0  0  0
  -25.3460  -31.4820   26.1730 C   0  0  0  0  0  1  0  0  0  0  0  0
  -26.9950  -30.3580   24.6690 C   0  0  0  0  0  1  0  0  0  0  0  0
  -27.5760  -32.5240   25.7310 C   0  0  0  0  0  1  0  0  0  0  0  0
  -25.5650  -33.9030   24.1680 N   0  0  0  0  0  0  0  0  0  0  0  0
  -25.8810  -34.9600   23.4090 C   0  0  0  0  0  0  0  0  0  0  0  0
  -26.5340  -34.8640   22.3660 O   0  0  0  0  0  0  0  0  0  0  0  0
  -24.9850  -34.0520   24.9810 H   0  0  0  0  0  0  0  0  0  0  0  0
  -24.1340  -36.7440   23.0980 C   0  0  0  0  0  1  0  0  0  0  0  0
  -25.3950  -36.3440   23.8820 C   0  0  0  0  0  3  0  0  0  0  0  0
  -27.5430  -37.2340   24.6680 C   0  0  0  0  0  1  0  0  0  0  0  0
  -26.4180  -37.4040   23.7530 N   0  0  0  0  0  0  0  0  0  0  0  0
  -26.0100  -38.3200   23.9190 H   0  0  0  0  0  0  0  0  0  0  0  0
  2  3  1  0
  2  1  1  0
  4  5  1  0
  4  3  1  0
  5  6  1  0
  6 15  1  0
  7 15  1  0
  8 13  1  0
  9 10  1  0
  9  8  1  0
 11 10  1  0
 11 20  1  0
 11 12  1  0
 13  7  1  0
 13 12  1  0
 14  7  2  0
 15 16  1  0
 17 18  2  0
 18 37  1  0
 19 18  1  0
 19 22  1  0
 20 17  1  0
 20 21  1  0
 21 19  2  0
 22 23  1  0
 23 24  2  0
 25 28  1  0
 25 24  1  0
 26 25  2  0
 27 26  1  0
 27 22  2  0
 28 29  1  0
 29 30  1  0
 30 31  2  0
 32 31  1  0
 32 36  1  0
 33 32  2  0
 34 29  2  0
 34 33  1  0
 35 34  1  0
 37 38  1  0
 38 41  1  0
 38 40  1  0
 39 37  2  0
 42 43  1  0
 42 17  1  0
 44 42  1  0
 45 46  1  0
 45  1  1  0
 47 48  1  0
 47 46  1  0
 49 60  2  0
 50 48  1  0
 50 55  1  0
 51 59  1  0
 51 61  1  0
 52 58  1  0
 52 54  1  0
 53 59  1  0
 54 53  1  0
 55 54  2  0
 56 57  1  0
 56 50  2  0
 57 52  2  0
 58 51  1  0
 59 49  1  0
 61 63  2  0
 62 61  1  0
 64 62  1  0
 65 74  2  0
 65 70  1  0
 66 62  1  0
 66 70  1  0
 67 66  1  0
 68 69  1  0
 68 67  1  0
 69 65  1  0
 70 71  2  0
 71 72  1  0
 73 72  2  0
 74 73  1  0
 75 49  1  0
 75 80  1  0
 75 76  1  0
 76 79  1  1
 76 77  1  0
 78 76  1  0
 80 83  1  0
 81 85  1  0
 81 80  1  0
 82 81  2  0
 85 84  1  0
 87 85  1  0
 87 88  1  0
 87 86  1  0
M  ISO  4   7 100  15 100  47 101  48 101
M  END
>  <TORSDO>  (33) 
F 24

>  <SCORE>  (33) 
-12.331

>  <name>  (33) 
35

>  <ligand_id>  (33) 
35

>  <original_smiles>  (33) 
[H]c1c([H])c([H])c2c(c1[H])C([H])([H])C([H])([H])C([H])([H])C2([H])N([H])C(=O)C1([H])N(C(=O)C([H])(N([H])C(=O)C([H])(N([H])C([H])([H])[H])C([H])([H])[H])C(C([H])([H])[H])(C([H])([H])[H])C([H])([H])[H])C([H])([H])c2c([H])c(OC([H])([H])C([H])([H])OC([H])([H])C([H])([H])OC([H])([H])C([H])([H])C([H])([H])N([H])C(=O)N3C([H])([H])C([H])([H])C([H])([H])C([H])(n4nc(-c5c([H])c([H])c(Oc6c([H])c([H])c(F)c([H])c6F)c([H])c5[H])c(C(=O)N([H])[H])c4N([H])[H])C3([H])[H])c([H])c([H])c2C1([H])[H]

>  <smiles>  (33) 
[H]c1c([H])c([H])c2c(c1[H])C([H])([H])C([H])([H])C([H])([H])C2([H])N([H])C(=O)C1([H])N(C(=O)C([H])(N([H])C(=O)C([H])(N([H])C([H])([H])[H])C([H])([H])[H])C(C([H])([H])[H])(C([H])([H])[H])C([H])([H])[H])C([H])([H])c2c([H])c(OC([H])([H])C([H])([H])OC([H])([H])C([H])([H])OC([H])([H])C([H])([H])C([H])([H])N([H])C(=O)N3C([H])([H])C([H])([H])C([H])([H])C([H])(n4nc(-c5c([H])c([H])c(Oc6c([H])c([H])c(F)c([H])c6F)c([H])c5[H])c(C(=O)N([H])[H])c4N([H])[H])C3([H])[H])c([H])c([H])c2C1([H])[H]

$$$$
36:0:0
     RDKit          3D

107114  0  0  1  0  0  0  0  0999 V2000
  -19.3970  -20.0570   23.7210 C   0  0  0  0  0  2  0  0  0  0  0  0
  -18.4890  -21.1860   23.2110 C   0  0  0  0  0  2  0  0  0  0  0  0
  -19.1510  -23.2850   22.0920 C   0  0  0  0  0  0  0  0  0  0  0  0
  -19.1160  -21.9510   22.1350 N   0  0  0  0  0  0  0  0  0  0  0  0
  -19.7570  -23.7660   21.0060 N   0  0  0  0  0  0  0  0  0  0  0  0
  -18.6650  -24.0080   22.9590 O   0  0  0  0  0  0  0  0  0  0  0  0
  -19.5460  -21.4290   21.3850 H   0  0  0  0  0  0  0  0  0  0  0  0
  -20.1230  -23.1170   20.3230 H   0  0  0  0  0  0  0  0  0  0  0  0
  -19.8760  -25.1910   20.7080 C   0  0  0  0  0  2  0  0  0  0  0  0
  -20.8500  -25.4330   19.5410 C   0  0  0  0  0  2  0  0  0  0  0  0
  -22.0510  -26.0720   19.9710 O   0  0  0  0  0  0  0  0  0  0  0  0
  -21.8460  -27.4170   20.3840 C   0  0  0  0  0  2  0  0  0  0  0  0
  -23.1800  -28.1770   20.5570 C   0  0  0  0  0  2  0  0  0  0  0  0
  -23.0530  -29.5990   20.4320 O   0  0  0  0  0  0  0  0  0  0  0  0
  -28.2210  -31.9840   24.6880 C   0  0  0  0  0  0  0  0  0  0  0  0
  -23.3800  -30.2790   21.5780 C   0  0  0  0  0  0  0  0  0  0  0  0
  -25.9370  -31.9830   25.6410 C   0  0  0  0  0  3  0  0  0  0  0  0
  -24.0450  -31.5870   23.9800 C   0  0  0  0  0  0  0  0  0  0  0  0
  -26.3050  -32.2270   23.1220 C   0  0  0  0  0  2  0  0  0  0  0  0
  -24.9670  -31.5460   22.9240 C   0  0  0  0  0  0  0  0  0  0  0  0
  -24.6410  -30.8880   21.7180 C   0  0  0  0  0  3  0  0  0  0  0  0
  -22.4430  -30.3730   22.6270 C   0  0  0  0  0  3  0  0  0  0  0  0
  -22.7790  -30.9960   23.8400 C   0  0  0  0  0  3  0  0  0  0  0  0
  -24.4740  -32.3020   25.2380 C   0  0  0  0  0  2  0  0  0  0  0  0
  -26.8760  -32.0390   24.4740 N   0  0  0  0  0  0  0  0  0  0  0  0
  -28.6840  -31.9380   25.8340 O   0  0  0  0  0  0  0  0  0  0  0  0
  -25.9650  -30.6310   26.3840 C   0  0  0  0  0  0  0  0  0  0  0  0
  -26.1280  -30.6880   27.7150 N   0  0  0  0  0  0  0  0  0  0  0  0
  -25.8140  -29.5690   25.7750 O   0  0  0  0  0  0  0  0  0  0  0  0
  -26.2460  -31.6010   28.1340 H   0  0  0  0  0  0  0  0  0  0  0  0
  -26.6560  -29.7290   31.1580 C   0  0  0  0  0  0  0  0  0  0  0  0
  -26.1510  -29.5510   28.6310 C   0  0  0  0  0  3  0  0  0  0  0  0
  -24.7200  -29.1440   29.0480 C   0  0  0  0  0  2  0  0  0  0  0  0
  -24.2590  -29.8090   30.3500 C   0  0  0  0  0  2  0  0  0  0  0  0
  -25.2020  -29.4470   31.5010 C   0  0  0  0  0  2  0  0  0  0  0  0
  -27.0970  -29.7940   29.8110 C   0  0  0  0  0  0  0  0  0  0  0  0
  -28.4500  -30.0960   29.5470 C   0  0  0  0  0  3  0  0  0  0  0  0
  -29.3560  -30.3260   30.6000 C   0  0  0  0  0  3  0  0  0  0  0  0
  -28.9160  -30.2500   31.9330 C   0  0  0  0  0  3  0  0  0  0  0  0
  -27.5720  -29.9430   32.2100 C   0  0  0  0  0  3  0  0  0  0  0  0
  -29.2400  -32.0060   23.5050 C   0  0  0  0  0  3  0  0  0  0  0  0
  -30.1880  -33.0980   23.7610 N   0  0  0  0  0  0  0  0  0  0  0  0
  -30.0390  -34.3520   23.3150 C   0  0  0  0  0  0  0  0  0  0  0  0
  -29.1130  -34.6940   22.5730 O   0  0  0  0  0  0  0  0  0  0  0  0
  -30.9390  -32.9000   24.4050 H   0  0  0  0  0  0  0  0  0  0  0  0
  -30.5700  -36.1280   25.0140 C   0  0  0  0  0  1  0  0  0  0  0  0
  -31.0820  -35.3930   23.7650 C   0  0  0  0  0  3  0  0  0  0  0  0
  -32.1620  -35.7900   21.5970 C   0  0  0  0  0  1  0  0  0  0  0  0
  -31.4230  -36.3750   22.7130 N   0  0  0  0  0  0  0  0  0  0  0  0
  -31.9770  -37.1370   23.0950 H   0  0  0  0  0  0  0  0  0  0  0  0
  -30.0010  -30.6380   23.3130 C   0  0  1  0  0  0  0  0  0  0  0  0
  -30.7330  -30.1510   24.5870 C   0  0  0  0  0  1  0  0  0  0  0  0
  -29.0200  -29.5250   22.8780 C   0  0  0  0  0  1  0  0  0  0  0  0
  -31.0450  -30.7730   22.1790 C   0  0  0  0  0  1  0  0  0  0  0  0
  -18.9730  -19.5690   25.1220 C   0  0  0  0  0  2  0  0  0  0  0  0
  -19.8160  -18.3970   25.6520 C   0  0  0  0  0  2  0  0  0  0  0  0
  -21.3120  -18.5190   25.2970 C   0  0  0  0  0  2  0  0  0  0  0  0
  -22.0170  -17.1540   25.2260 C   0  0  0  0  0  2  0  0  0  0  0  0
  -23.4260  -17.2370   24.6270 C   0  0  0  0  0  2  0  0  0  0  0  0
  -23.9360  -15.8950   24.0790 C   0  0  0  0  0  2  0  0  0  0  0  0
  -24.9960  -16.1290   22.9890 C   0  0  0  0  0  2  0  0  0  0  0  0
  -25.3290  -14.9100   22.1130 C   0  0  0  0  0  2  0  0  0  0  0  0
  -24.3370  -13.7440   22.2830 C   0  0  0  0  0  2  0  0  0  0  0  0
  -24.0630  -12.9970   20.9630 C   0  0  0  0  0  2  0  0  0  0  0  0
  -21.9850  -11.8580   21.7300 C   0  0  0  0  0  0  0  0  0  0  0  0
  -23.1880  -11.8420   21.1400 N   0  0  0  0  0  0  0  0  0  0  0  0
  -21.5030  -12.8650   22.2450 O   0  0  0  0  0  0  0  0  0  0  0  0
  -23.5040  -10.9630   20.7470 H   0  0  0  0  0  0  0  0  0  0  0  0
  -21.1860  -10.5600   21.7160 C   0  0  0  0  0  2  0  0  0  0  0  0
  -21.6420   -8.3350   22.5630 C   0  0  0  0  0  0  0  0  0  0  0  0
  -22.6860   -6.5870   21.1720 C   0  0  0  0  0  2  0  0  0  0  0  0
  -23.6150   -5.6350   21.9450 C   0  0  0  0  0  2  0  0  0  0  0  0
  -25.0350   -6.2120   22.0560 C   0  0  0  0  0  2  0  0  0  0  0  0
  -25.0290   -7.6740   22.5660 C   0  0  0  0  0  3  0  0  0  0  0  0
  -24.0240   -8.5400   21.7790 C   0  0  0  0  0  2  0  0  0  0  0  0
  -22.6930   -7.9070   21.8170 N   0  0  0  0  0  0  0  0  0  0  0  0
  -20.7160   -7.6040   22.9210 O   0  0  0  0  0  0  0  0  0  0  0  0
  -21.5880   -9.6510   22.7920 N   0  0  0  0  0  0  0  0  0  0  0  0
  -21.1030   -9.8690   23.6490 H   0  0  0  0  0  0  0  0  0  0  0  0
  -26.7740   -9.5600   22.7440 C   0  0  0  0  0  0  0  0  0  0  0  0
  -28.1420   -9.5490   22.6830 C   0  0  0  0  0  0  0  0  0  0  0  0
  -28.5170   -8.1900   22.4500 C   0  0  0  0  0  0  0  0  0  0  0  0
  -26.3740   -8.2490   22.5390 N   0  0  0  0  0  0  0  0  0  0  0  0
  -27.4360   -7.4330   22.3130 N   0  0  0  0  0  0  0  0  0  0  0  0
  -29.8400   -7.5540   22.4050 C   0  0  0  0  0  0  0  0  0  0  0  0
  -30.6320   -7.5830   21.2360 C   0  0  0  0  0  3  0  0  0  0  0  0
  -31.9070   -6.9800   21.2200 C   0  0  0  0  0  3  0  0  0  0  0  0
  -32.4080   -6.3410   22.3760 C   0  0  0  0  0  0  0  0  0  0  0  0
  -31.6070   -6.2940   23.5310 C   0  0  0  0  0  3  0  0  0  0  0  0
  -30.3390   -6.8960   23.5470 C   0  0  0  0  0  3  0  0  0  0  0  0
  -33.6260   -5.7070   22.4440 O   0  0  0  0  0  0  0  0  0  0  0  0
  -34.7870   -6.3470   22.0920 C   0  0  0  0  0  0  0  0  0  0  0  0
  -35.0580   -7.6750   22.4890 C   0  0  0  0  0  3  0  0  0  0  0  0
  -36.2940   -8.2660   22.1620 C   0  0  0  0  0  3  0  0  0  0  0  0
  -37.2630   -7.5300   21.4560 C   0  0  0  0  0  0  0  0  0  0  0  0
  -37.0010   -6.2040   21.0700 C   0  0  0  0  0  3  0  0  0  0  0  0
  -35.7660   -5.6150   21.3890 C   0  0  0  0  0  0  0  0  0  0  0  0
  -35.5210   -4.3320   21.0300 F   0  0  0  0  0  0  0  0  0  0  0  0
  -38.4540   -8.0960   21.1490 F   0  0  0  0  0  0  0  0  0  0  0  0
  -29.0610  -10.7130   22.9310 C   0  0  0  0  0  0  0  0  0  0  0  0
  -30.1960  -10.7540   22.2450 N   0  0  0  0  0  0  0  0  0  0  0  0
  -28.7510  -11.6200   23.7040 O   0  0  0  0  0  0  0  0  0  0  0  0
  -30.4450  -10.0200   21.6010 H   0  0  0  0  0  0  0  0  0  0  0  0
  -30.8310  -11.5270   22.3740 H   0  0  0  0  0  0  0  0  0  0  0  0
  -25.8300  -10.5580   22.9760 N   0  0  0  0  0  0  0  0  0  0  0  0
  -26.0710  -11.5210   23.1910 H   0  0  0  0  0  0  0  0  0  0  0  0
  -24.8330  -10.3800   23.0090 H   0  0  0  0  0  0  0  0  0  0  0  0
  1 55  1  0
  2  1  1  0
  3  4  1  0
  3  6  2  0
  4  2  1  0
  5  3  1  0
  7  4  1  0
  8  5  1  0
  9  5  1  0
 10 11  1  0
 10  9  1  0
 11 12  1  0
 12 13  1  0
 14 13  1  0
 14 16  1  0
 15 26  2  0
 16 21  2  0
 16 22  1  0
 17 27  1  0
 18 24  1  0
 19 25  1  0
 20 19  1  0
 20 18  2  0
 21 20  1  0
 22 23  2  0
 23 18  1  0
 24 17  1  0
 25 15  1  0
 25 17  1  0
 27 28  1  0
 28 30  1  0
 29 27  2  0
 31 35  1  0
 31 40  1  0
 32 28  1  0
 32 33  1  0
 32 36  1  0
 33 34  1  0
 34 35  1  0
 36 31  2  0
 37 36  1  0
 37 38  2  0
 38 39  1  0
 39 40  2  0
 41 42  1  0
 41 15  1  0
 42 45  1  0
 43 42  1  0
 43 47  1  0
 44 43  2  0
 47 46  1  0
 48 49  1  0
 49 50  1  0
 49 47  1  0
 51 41  1  0
 51 52  1  1
 53 51  1  0
 54 51  1  0
 55 56  1  0
 57 56  1  0
 58 57  1  0
 59 58  1  0
 60 59  1  0
 61 60  1  0
 62 63  1  0
 62 61  1  0
 64 66  1  0
 64 63  1  0
 65 67  2  0
 66 65  1  0
 68 66  1  0
 69 65  1  0
 69 78  1  0
 70 78  1  0
 70 77  2  0
 71 76  1  0
 71 72  1  0
 72 73  1  0
 73 74  1  0
 74 75  1  0
 75 76  1  0
 76 70  1  0
 78 79  1  0
 80105  1  0
 81 80  2  0
 81100  1  0
 82 81  1  0
 83 74  1  0
 83 80  1  0
 84 82  2  0
 84 83  1  0
 85 82  1  0
 85 90  1  0
 86 85  2  0
 87 86  1  0
 87 88  2  0
 88 91  1  0
 88 89  1  0
 89 90  2  0
 92 91  1  0
 92 93  1  0
 94 93  2  0
 95 94  1  0
 96 97  1  0
 96 95  2  0
 97 92  2  0
 98 97  1  0
 99 95  1  0
100102  2  0
101104  1  0
101100  1  0
103101  1  0
105107  1  0
105106  1  0
M  ISO  4  13 101  14 101  70 100  78 100
M  END
>  <TORSDO>  (34) 
F 35

>  <SCORE>  (34) 
20.933

>  <name>  (34) 
36

>  <ligand_id>  (34) 
36

>  <original_smiles>  (34) 
[H]c1c([H])c([H])c2c(c1[H])C([H])([H])C([H])([H])C([H])([H])C2([H])N([H])C(=O)C1([H])N(C(=O)C([H])(N([H])C(=O)C([H])(N([H])C([H])([H])[H])C([H])([H])[H])C(C([H])([H])[H])(C([H])([H])[H])C([H])([H])[H])C([H])([H])c2c([H])c(OC([H])([H])C([H])([H])OC([H])([H])C([H])([H])N([H])C(=O)N([H])C([H])([H])C([H])([H])C([H])([H])C([H])([H])C([H])([H])C([H])([H])C([H])([H])C([H])([H])C([H])([H])C([H])([H])C([H])([H])C([H])([H])N([H])C(=O)C([H])([H])N([H])C(=O)N3C([H])([H])C([H])([H])C([H])([H])C([H])(n4nc(-c5c([H])c([H])c(Oc6c([H])c([H])c(F)c([H])c6F)c([H])c5[H])c(C(=O)N([H])[H])c4N([H])[H])C3([H])[H])c([H])c([H])c2C1([H])[H]

>  <smiles>  (34) 
[H]c1c([H])c([H])c2c(c1[H])C([H])([H])C([H])([H])C([H])([H])C2([H])N([H])C(=O)C1([H])N(C(=O)C([H])(N([H])C(=O)C([H])(N([H])C([H])([H])[H])C([H])([H])[H])C(C([H])([H])[H])(C([H])([H])[H])C([H])([H])[H])C([H])([H])c2c([H])c(OC([H])([H])C([H])([H])OC([H])([H])C([H])([H])N([H])C(=O)N([H])C([H])([H])C([H])([H])C([H])([H])C([H])([H])C([H])([H])C([H])([H])C([H])([H])C([H])([H])C([H])([H])C([H])([H])C([H])([H])C([H])([H])N([H])C(=O)C([H])([H])N([H])C(=O)N3C([H])([H])C([H])([H])C([H])([H])C([H])(n4nc(-c5c([H])c([H])c(Oc6c([H])c([H])c(F)c([H])c6F)c([H])c5[H])c(C(=O)N([H])[H])c4N([H])[H])C3([H])[H])c([H])c([H])c2C1([H])[H]

$$$$
37:0:0
     RDKit          3D

109115  0  0  1  0  0  0  0  0999 V2000
  -30.5800  -19.0560   21.5880 N   0  0  0  0  0  4  0  0  0  0  0  0
  -29.8630  -19.1870   20.8940 H   0  0  0  0  0  0  0  0  0  0  0  0
  -30.1060  -18.8970   22.4650 H   0  0  0  0  0  0  0  0  0  0  0  0
  -32.7930  -17.9380   21.2940 C   0  0  0  0  0  1  0  0  0  0  0  0
  -31.2590  -17.7680   21.3310 C   0  0  0  0  0  3  0  0  0  0  0  0
  -30.7020  -17.1820   20.0220 C   0  0  0  0  0  0  0  0  0  0  0  0
  -31.4870  -16.3590   19.3120 N   0  0  0  0  0  0  0  0  0  0  0  0
  -29.5530  -17.4700   19.6720 O   0  0  0  0  0  0  0  0  0  0  0  0
  -32.4010  -16.1470   19.6900 H   0  0  0  0  0  0  0  0  0  0  0  0
  -31.1220  -15.6870   18.0690 C   0  0  0  0  0  2  0  0  0  0  0  0
  -32.8670  -16.0630   16.3160 C   0  0  0  0  0  0  0  0  0  0  0  0
  -31.6930  -16.3460   16.8970 N   0  0  0  0  0  0  0  0  0  0  0  0
  -33.6370  -15.2000   16.7500 O   0  0  0  0  0  0  0  0  0  0  0  0
  -31.1210  -17.0470   16.4470 H   0  0  0  0  0  0  0  0  0  0  0  0
  -33.2210  -16.8740   15.0630 C   0  0  0  0  0  2  0  0  0  0  0  0
  -34.5490  -16.5600   14.6400 O   0  0  0  0  0  0  0  0  0  0  0  0
  -38.5150  -21.8290   12.0080 C   0  0  0  0  0  0  0  0  0  0  0  0
  -34.9960  -17.2090   13.5150 C   0  0  0  0  0  0  0  0  0  0  0  0
  -37.0950  -20.6350   10.3700 C   0  0  0  0  0  3  0  0  0  0  0  0
  -36.0000  -18.4920   11.2120 C   0  0  0  0  0  0  0  0  0  0  0  0
  -37.9340  -19.4530   12.4750 C   0  0  0  0  0  2  0  0  0  0  0  0
  -36.6750  -18.6150   12.4320 C   0  0  0  0  0  0  0  0  0  0  0  0
  -36.1810  -17.9690   13.5840 C   0  0  0  0  0  3  0  0  0  0  0  0
  -34.3240  -17.0900   12.2790 C   0  0  0  0  0  3  0  0  0  0  0  0
  -34.8210  -17.7300   11.1280 C   0  0  0  0  0  3  0  0  0  0  0  0
  -36.6060  -19.2030   10.0230 C   0  0  0  0  0  2  0  0  0  0  0  0
  -37.8580  -20.6860   11.6590 N   0  0  0  0  0  0  0  0  0  0  0  0
  -38.5290  -22.8140   11.2580 O   0  0  0  0  0  0  0  0  0  0  0  0
  -35.8800  -21.5880   10.3400 C   0  0  0  0  0  0  0  0  0  0  0  0
  -35.6730  -22.2550    9.1930 N   0  0  0  0  0  0  0  0  0  0  0  0
  -35.1340  -21.6940   11.3170 O   0  0  0  0  0  0  0  0  0  0  0  0
  -36.3330  -22.1180    8.4410 H   0  0  0  0  0  0  0  0  0  0  0  0
  -34.4170  -24.6630    6.8130 C   0  0  0  0  0  0  0  0  0  0  0  0
  -34.5710  -23.1760    8.9200 C   0  0  0  0  0  3  0  0  0  0  0  0
  -33.3440  -22.4240    8.3550 C   0  0  0  0  0  2  0  0  0  0  0  0
  -33.3120  -22.3870    6.8240 C   0  0  0  0  0  2  0  0  0  0  0  0
  -33.2930  -23.8080    6.2540 C   0  0  0  0  0  2  0  0  0  0  0  0
  -35.0270  -24.3570    8.0580 C   0  0  0  0  0  0  0  0  0  0  0  0
  -36.0920  -25.1640    8.5160 C   0  0  0  0  0  3  0  0  0  0  0  0
  -36.5440  -26.2590    7.7560 C   0  0  0  0  0  3  0  0  0  0  0  0
  -35.9260  -26.5670    6.5320 C   0  0  0  0  0  3  0  0  0  0  0  0
  -34.8630  -25.7740    6.0660 C   0  0  0  0  0  3  0  0  0  0  0  0
  -39.2980  -21.9440   13.3540 C   0  0  0  0  0  3  0  0  0  0  0  0
  -38.4600  -22.6240   14.5050 C   0  0  1  0  0  0  0  0  0  0  0  0
  -37.8270  -23.9750   14.0980 C   0  0  0  0  0  1  0  0  0  0  0  0
  -37.3210  -21.6900   14.9760 C   0  0  0  0  0  1  0  0  0  0  0  0
  -39.3650  -22.8740   15.7360 C   0  0  0  0  0  1  0  0  0  0  0  0
  -40.5260  -22.7020   13.0860 N   0  0  0  0  0  0  0  0  0  0  0  0
  -41.7310  -22.1500   12.8910 C   0  0  0  0  0  0  0  0  0  0  0  0
  -41.9380  -20.9380   12.9900 O   0  0  0  0  0  0  0  0  0  0  0  0
  -40.4220  -23.6950   12.9340 H   0  0  0  0  0  0  0  0  0  0  0  0
  -43.1660  -23.0170   11.0150 C   0  0  0  0  0  1  0  0  0  0  0  0
  -42.8930  -23.0940   12.5250 C   0  0  0  0  0  3  0  0  0  0  0  0
  -44.0370  -23.1020   14.6980 C   0  0  0  0  0  1  0  0  0  0  0  0
  -44.1390  -22.8100   13.2710 N   0  0  0  0  0  0  0  0  0  0  0  0
  -44.9150  -23.3440   12.8920 H   0  0  0  0  0  0  0  0  0  0  0  0
  -31.4540  -20.2500   21.6650 C   0  0  0  0  0  2  0  0  0  0  0  0
  -30.6990  -21.5570   21.3390 C   0  0  0  0  0  2  0  0  0  0  0  0
  -31.4900  -22.4820   20.3870 C   0  0  0  0  0  2  0  0  0  0  0  0
  -30.8000  -23.8080   19.9970 C   0  0  0  0  0  2  0  0  0  0  0  0
  -28.6340  -24.6060   19.0860 C   0  0  0  0  0  0  0  0  0  0  0  0
  -29.3910  -23.6490   19.6420 N   0  0  0  0  0  0  0  0  0  0  0  0
  -29.1170  -25.6140   18.5640 O   0  0  0  0  0  0  0  0  0  0  0  0
  -28.9070  -22.8410   20.0090 H   0  0  0  0  0  0  0  0  0  0  0  0
  -27.1120  -24.4480   19.2100 C   0  0  0  0  0  2  0  0  0  0  0  0
  -26.5430  -25.7370   19.4310 O   0  0  0  0  0  0  0  0  0  0  0  0
  -25.3100  -26.0170   18.7240 C   0  0  0  0  0  1  0  0  0  0  0  0
  -23.4860  -29.0230   19.4390 C   0  0  0  0  0  1  0  0  0  0  0  0
  -22.5030  -28.9520   20.6420 O   0  0  0  0  0  0  0  0  0  0  0  0
  -22.5130  -29.4940   22.0610 C   0  0  0  0  0  2  0  0  0  0  0  0
  -22.1080  -28.7970   23.5370 C   0  0  0  0  0  2  0  0  0  0  0  0
  -23.6940  -26.7000   24.4840 C   0  0  0  0  0  0  0  0  0  0  0  0
  -25.4020  -26.6000   22.8290 C   0  0  0  0  0  2  0  0  0  0  0  0
  -24.9950  -27.8160   21.9910 C   0  0  0  0  0  2  0  0  0  0  0  0
  -23.9480  -27.3260   20.9860 C   0  0  0  0  0  2  0  0  0  0  0  0
  -22.7840  -26.4720   21.6410 C   0  0  0  0  0  3  0  0  0  0  0  0
  -23.3260  -25.3600   22.4570 C   0  0  0  0  0  2  0  0  0  0  0  0
  -24.1650  -26.0710   23.3960 N   0  0  0  0  0  0  0  0  0  0  0  0
  -24.3030  -26.5910   25.5500 O   0  0  0  0  0  0  0  0  0  0  0  0
  -22.5840  -27.5310   24.3340 N   0  0  0  0  0  0  0  0  0  0  0  0
  -22.2170  -27.6410   25.2680 H   0  0  0  0  0  0  0  0  0  0  0  0
  -20.1030  -25.8690   20.9180 C   0  0  0  0  0  0  0  0  0  0  0  0
  -19.5380  -26.0240   19.4300 C   0  0  0  0  0  0  0  0  0  0  0  0
  -20.8200  -26.3480   18.4060 C   0  0  0  0  0  0  0  0  0  0  0  0
  -21.8100  -26.1000   20.7760 N   0  0  0  0  0  0  0  0  0  0  0  0
  -22.1680  -26.3870   19.2050 N   0  0  0  0  0  0  0  0  0  0  0  0
  -20.9510  -26.2870   16.9860 C   0  0  0  0  0  0  0  0  0  0  0  0
  -21.9200  -25.4570   16.3800 C   0  0  0  0  0  3  0  0  0  0  0  0
  -22.0290  -25.4290   14.9800 C   0  0  0  0  0  3  0  0  0  0  0  0
  -21.1630  -26.2400   14.2100 C   0  0  0  0  0  0  0  0  0  0  0  0
  -20.2070  -27.0550   14.8370 C   0  0  0  0  0  3  0  0  0  0  0  0
  -20.0910  -27.0750   16.2270 C   0  0  0  0  0  3  0  0  0  0  0  0
  -21.2150  -26.3400   12.8490 O   0  0  0  0  0  0  0  0  0  0  0  0
  -21.7510  -25.3430   12.0840 C   0  0  0  0  0  0  0  0  0  0  0  0
  -21.2490  -24.0240   12.1140 C   0  0  0  0  0  3  0  0  0  0  0  0
  -21.7790  -23.0560   11.2390 C   0  0  0  0  0  3  0  0  0  0  0  0
  -22.8000  -23.4070   10.3360 C   0  0  0  0  0  0  0  0  0  0  0  0
  -23.2990  -24.7220   10.3080 C   0  0  0  0  0  3  0  0  0  0  0  0
  -22.7720  -25.6890   11.1800 C   0  0  0  0  0  0  0  0  0  0  0  0
  -23.2370  -26.9610   11.1410 F   0  0  0  0  0  0  0  0  0  0  0  0
  -23.3000  -22.4810    9.4860 F   0  0  0  0  0  0  0  0  0  0  0  0
  -18.1490  -25.8290   18.9800 C   0  0  0  0  0  0  0  0  0  0  0  0
  -17.9830  -25.0930   17.8880 N   0  0  0  0  0  0  0  0  0  0  0  0
  -17.2180  -26.2960   19.6210 O   0  0  0  0  0  0  0  0  0  0  0  0
  -18.7680  -24.7000   17.3890 H   0  0  0  0  0  0  0  0  0  0  0  0
  -17.0510  -24.9170   17.5380 H   0  0  0  0  0  0  0  0  0  0  0  0
  -19.4740  -25.7630   22.1420 N   0  0  0  0  0  0  0  0  0  0  0  0
  -18.4660  -25.7800   22.2400 H   0  0  0  0  0  0  0  0  0  0  0  0
  -19.9590  -25.8470   23.0250 H   0  0  0  0  0  0  0  0  0  0  0  0
  1 57  1  0
  1  3  1  0
  2  1  1  0
  5  4  1  0
  5  1  1  0
  6  5  1  0
  7  9  1  0
  7  6  1  0
  8  6  2  0
 10  7  1  0
 11 13  2  0
 11 12  1  0
 12 10  1  0
 14 12  1  0
 15 11  1  0
 16 15  1  0
 18 23  1  0
 18 16  1  0
 19 29  1  0
 19 27  1  0
 20 22  1  0
 22 21  1  0
 22 23  2  0
 24 18  2  0
 25 20  2  0
 25 24  1  0
 26 19  1  0
 26 20  1  0
 27 17  1  0
 27 21  1  0
 28 17  2  0
 29 31  2  0
 30 29  1  0
 32 30  1  0
 33 38  1  0
 34 30  1  0
 35 34  1  0
 36 35  1  0
 37 33  1  0
 37 36  1  0
 38 39  2  0
 38 34  1  0
 40 39  1  0
 41 40  2  0
 42 41  1  0
 42 33  2  0
 43 17  1  0
 43 44  1  0
 44 46  1  1
 44 47  1  0
 45 44  1  0
 48 43  1  0
 49 50  2  0
 49 48  1  0
 51 48  1  0
 53 52  1  0
 53 49  1  0
 53 55  1  0
 55 54  1  0
 56 55  1  0
 58 57  1  0
 59 58  1  0
 60 59  1  0
 61 65  1  0
 61 62  1  0
 62 60  1  0
 62 64  1  0
 63 61  2  0
 65 66  1  0
 67 66  1  0
 68 69  1  0
 69 70  1  0
 70 71  1  0
 71 80  1  0
 72 79  2  0
 73 78  1  0
 74 73  1  0
 75 76  1  0
 75 74  1  0
 76 85  1  0
 76 77  1  0
 77 78  1  0
 78 72  1  0
 80 72  1  0
 80 81  1  0
 82107  1  0
 83 82  2  0
 84 86  2  0
 84 83  1  0
 85 82  1  0
 86 85  1  0
 87 84  1  0
 88 87  1  0
 89 88  2  0
 90 91  2  0
 90 89  1  0
 91 92  1  0
 92 87  2  0
 93 90  1  0
 94 95  1  0
 94 93  1  0
 96 95  2  0
 97 96  1  0
 98 97  2  0
 98 99  1  0
 99 94  2  0
100 99  1  0
101 97  1  0
102 83  1  0
102104  2  0
103102  1  0
105103  1  0
106103  1  0
107108  1  0
107109  1  0
M  ISO  4  15 101  16 101  72 100  80 100
M  END
>  <TORSDO>  (35) 
F 33

>  <SCORE>  (35) 
-3.229

>  <name>  (35) 
37

>  <ligand_id>  (35) 
37

>  <original_smiles>  (35) 
[H]c1c([H])c([H])c2c(c1[H])C([H])([H])C([H])([H])C([H])([H])C2([H])N([H])C(=O)C1([H])N(C(=O)C([H])(N([H])C(=O)C([H])(N([H])C([H])([H])[H])C([H])([H])[H])C(C([H])([H])[H])(C([H])([H])[H])C([H])([H])[H])C([H])([H])c2c([H])c(OC([H])([H])C(=O)N([H])C([H])([H])N([H])C(=O)C([H])(C([H])([H])[H])[N+]([H])([H])C([H])([H])C([H])([H])C([H])([H])C([H])([H])N([H])C(=O)C([H])([H])OC([H])([H])C([H])([H])OC([H])([H])C([H])([H])N([H])C(=O)N3C([H])([H])C([H])([H])C([H])([H])C([H])(n4nc(-c5c([H])c([H])c(Oc6c([H])c([H])c(F)c([H])c6F)c([H])c5[H])c(C(=O)N([H])[H])c4N([H])[H])C3([H])[H])c([H])c([H])c2C1([H])[H]

>  <smiles>  (35) 
[H]c1c([H])c([H])c2c(c1[H])C([H])([H])C([H])([H])C([H])([H])C2([H])N([H])C(=O)C1([H])N(C(=O)C([H])(N([H])C(=O)C([H])(N([H])C([H])([H])[H])C([H])([H])[H])C(C([H])([H])[H])(C([H])([H])[H])C([H])([H])[H])C([H])([H])c2c([H])c(OC([H])([H])C(=O)N([H])C([H])([H])N([H])C(=O)C([H])(C([H])([H])[H])[N+]([H])([H])C([H])([H])C([H])([H])C([H])([H])C([H])([H])N([H])C(=O)C([H])([H])OC([H])([H])C([H])([H])OC([H])([H])C([H])([H])N([H])C(=O)N3C([H])([H])C([H])([H])C([H])([H])C([H])(n4nc(-c5c([H])c([H])c(Oc6c([H])c([H])c(F)c([H])c6F)c([H])c5[H])c(C(=O)N([H])[H])c4N([H])[H])C3([H])[H])c([H])c([H])c2C1([H])[H]

$$$$
38:0:0
     RDKit          3D

 94102  0  0  1  0  0  0  0  0999 V2000
  -29.9520  -23.7660   19.5050 C   0  0  0  0  0  2  0  0  0  0  0  0
  -28.0710  -22.8400   18.3690 C   0  0  0  0  0  2  0  0  0  0  0  0
  -29.9880  -22.5590   20.4670 C   0  0  0  0  0  2  0  0  0  0  0  0
  -28.0790  -21.6110   19.3010 C   0  0  0  0  0  2  0  0  0  0  0  0
  -28.5740  -24.0310   19.0680 N   0  0  0  0  0  0  0  0  0  0  0  0
  -29.4500  -21.3440   19.8070 N   0  0  2  0  0  4  0  0  0  0  0  0
  -30.0400  -21.1940   19.0030 H   0  0  0  0  0  0  0  0  0  0  0  0
  -28.5120  -25.1730   18.1450 C   0  0  0  0  0  2  0  0  0  0  0  0
  -28.9340  -26.5250   18.7700 C   0  0  0  0  0  2  0  0  0  0  0  0
  -28.3950  -26.7750   20.0720 O   0  0  0  0  0  0  0  0  0  0  0  0
  -24.5720  -31.8830   23.2270 C   0  0  0  0  0  0  0  0  0  0  0  0
  -27.2160  -27.4760   20.1040 C   0  0  0  0  0  0  0  0  0  0  0  0
  -23.3610  -30.4830   21.5850 C   0  0  0  0  0  3  0  0  0  0  0  0
  -24.8110  -28.9500   20.1560 C   0  0  0  0  0  0  0  0  0  0  0  0
  -25.8850  -30.8470   21.3830 C   0  0  0  0  0  2  0  0  0  0  0  0
  -25.9680  -29.4790   20.7420 C   0  0  0  0  0  0  0  0  0  0  0  0
  -27.1720  -28.7410   20.7250 C   0  0  0  0  0  3  0  0  0  0  0  0
  -26.0360  -26.9420   19.5450 C   0  0  0  0  0  3  0  0  0  0  0  0
  -24.8380  -27.6760   19.5640 C   0  0  0  0  0  3  0  0  0  0  0  0
  -23.5660  -29.8050   20.2050 C   0  0  0  0  0  2  0  0  0  0  0  0
  -24.6250  -31.0860   22.1230 N   0  0  0  0  0  0  0  0  0  0  0  0
  -23.4920  -32.1510   23.7720 O   0  0  0  0  0  0  0  0  0  0  0  0
  -22.7160  -29.4580   22.5470 C   0  0  0  0  0  0  0  0  0  0  0  0
  -21.3910  -29.2740   22.4230 N   0  0  0  0  0  0  0  0  0  0  0  0
  -23.4040  -28.8310   23.3570 O   0  0  0  0  0  0  0  0  0  0  0  0
  -20.8960  -29.8360   21.7440 H   0  0  0  0  0  0  0  0  0  0  0  0
  -18.0200  -28.0800   22.9250 C   0  0  0  0  0  0  0  0  0  0  0  0
  -20.5780  -28.3330   23.1930 C   0  0  0  0  0  3  0  0  0  0  0  0
  -20.6770  -26.9030   22.6120 C   0  0  0  0  0  2  0  0  0  0  0  0
  -19.5740  -26.5850   21.5990 C   0  0  0  0  0  2  0  0  0  0  0  0
  -18.1930  -26.7300   22.2480 C   0  0  0  0  0  2  0  0  0  0  0  0
  -19.1410  -28.8380   23.3550 C   0  0  0  0  0  0  0  0  0  0  0  0
  -18.9260  -30.1010   23.9470 C   0  0  0  0  0  3  0  0  0  0  0  0
  -17.6220  -30.6040   24.1160 C   0  0  0  0  0  3  0  0  0  0  0  0
  -16.5160  -29.8430   23.7040 C   0  0  0  0  0  3  0  0  0  0  0  0
  -16.7150  -28.5820   23.1140 C   0  0  0  0  0  3  0  0  0  0  0  0
  -25.8600  -32.5130   23.8440 C   0  0  0  0  0  3  0  0  0  0  0  0
  -25.5500  -33.9080   24.1810 N   0  0  0  0  0  0  0  0  0  0  0  0
  -25.8840  -34.9630   23.4260 C   0  0  0  0  0  0  0  0  0  0  0  0
  -26.5560  -34.8650   22.3950 O   0  0  0  0  0  0  0  0  0  0  0  0
  -24.9510  -34.0590   24.9790 H   0  0  0  0  0  0  0  0  0  0  0  0
  -24.1550  -36.7540   23.0740 C   0  0  0  0  0  1  0  0  0  0  0  0
  -25.3940  -36.3490   23.8890 C   0  0  0  0  0  3  0  0  0  0  0  0
  -27.5270  -37.2270   24.7280 C   0  0  0  0  0  1  0  0  0  0  0  0
  -26.4260  -37.4030   23.7840 N   0  0  0  0  0  0  0  0  0  0  0  0
  -26.0200  -38.3220   23.9410 H   0  0  0  0  0  0  0  0  0  0  0  0
  -26.3880  -31.7340   25.1110 C   0  0  1  0  0  0  0  0  0  0  0  0
  -25.3050  -31.4900   26.1870 C   0  0  0  0  0  1  0  0  0  0  0  0
  -26.9670  -30.3600   24.7020 C   0  0  0  0  0  1  0  0  0  0  0  0
  -27.5420  -32.5260   25.7690 C   0  0  0  0  0  1  0  0  0  0  0  0
  -29.5360  -20.1200   20.6490 C   0  0  0  0  0  2  0  0  0  0  0  0
  -29.8250  -18.8550   19.8120 C   0  0  0  0  0  2  0  0  0  0  0  0
  -29.3970  -17.5590   20.5040 C   0  0  0  0  0  0  0  0  0  0  0  0
  -30.3620  -16.7200   20.9020 N   0  0  0  0  0  0  0  0  0  0  0  0
  -28.2000  -17.2850   20.6320 O   0  0  0  0  0  0  0  0  0  0  0  0
  -31.3510  -16.8380   20.7200 H   0  0  0  0  0  0  0  0  0  0  0  0
  -30.6850  -14.4160   20.4780 C   0  0  0  0  0  0  0  0  0  0  0  0
  -30.3610  -12.3100   19.2520 C   0  0  0  0  0  2  0  0  0  0  0  0
  -29.4140  -12.5620   18.0620 C   0  0  0  0  0  2  0  0  0  0  0  0
  -27.9420  -12.4230   18.4950 C   0  0  0  0  0  2  0  0  0  0  0  0
  -27.6180  -13.2320   19.7820 C   0  0  0  0  0  3  0  0  0  0  0  0
  -28.6730  -12.9590   20.8790 C   0  0  0  0  0  2  0  0  0  0  0  0
  -30.0030  -13.2540   20.3190 N   0  0  0  0  0  0  0  0  0  0  0  0
  -31.7750  -14.6510   19.9440 O   0  0  0  0  0  0  0  0  0  0  0  0
  -30.0360  -15.3710   21.1540 N   0  0  0  0  0  0  0  0  0  0  0  0
  -29.0870  -15.2700   21.4840 H   0  0  0  0  0  0  0  0  0  0  0  0
  -25.2170  -13.8460   20.4800 C   0  0  0  0  0  0  0  0  0  0  0  0
  -24.1460  -13.0730   20.8460 C   0  0  0  0  0  0  0  0  0  0  0  0
  -24.6090  -11.7230   20.8200 C   0  0  0  0  0  0  0  0  0  0  0  0
  -26.2640  -12.9640   20.2560 N   0  0  0  0  0  0  0  0  0  0  0  0
  -25.9000  -11.6820   20.5160 N   0  0  0  0  0  0  0  0  0  0  0  0
  -23.8850  -10.4590   21.0150 C   0  0  0  0  0  0  0  0  0  0  0  0
  -24.3260   -9.4890   21.9410 C   0  0  0  0  0  3  0  0  0  0  0  0
  -23.6020   -8.2910   22.1230 C   0  0  0  0  0  3  0  0  0  0  0  0
  -22.4220   -8.0550   21.3780 C   0  0  0  0  0  0  0  0  0  0  0  0
  -22.0010   -9.0150   20.4410 C   0  0  0  0  0  3  0  0  0  0  0  0
  -22.7250  -10.2040   20.2570 C   0  0  0  0  0  3  0  0  0  0  0  0
  -21.6700   -6.9100   21.4690 O   0  0  0  0  0  0  0  0  0  0  0  0
  -21.6420   -6.1560   22.6140 C   0  0  0  0  0  0  0  0  0  0  0  0
  -21.2470   -6.7000   23.8560 C   0  0  0  0  0  3  0  0  0  0  0  0
  -21.1670   -5.8730   24.9930 C   0  0  0  0  0  3  0  0  0  0  0  0
  -21.4690   -4.5010   24.8910 C   0  0  0  0  0  0  0  0  0  0  0  0
  -21.8540   -3.9570   23.6540 C   0  0  0  0  0  3  0  0  0  0  0  0
  -21.9380   -4.7810   22.5180 C   0  0  0  0  0  0  0  0  0  0  0  0
  -22.2910   -4.2460   21.3240 F   0  0  0  0  0  0  0  0  0  0  0  0
  -21.3840   -3.7040   25.9810 F   0  0  0  0  0  0  0  0  0  0  0  0
  -22.7490  -13.5500   21.1150 C   0  0  0  0  0  0  0  0  0  0  0  0
  -22.0220  -12.8560   21.9830 N   0  0  0  0  0  0  0  0  0  0  0  0
  -22.3100  -14.5740   20.5920 O   0  0  0  0  0  0  0  0  0  0  0  0
  -22.3890  -12.0280   22.4270 H   0  0  0  0  0  0  0  0  0  0  0  0
  -21.0850  -13.1580   22.2050 H   0  0  0  0  0  0  0  0  0  0  0  0
  -25.3800  -15.2160   20.3060 N   0  0  0  0  0  0  0  0  0  0  0  0
  -24.6160  -15.8670   20.4540 H   0  0  0  0  0  0  0  0  0  0  0  0
  -26.2530  -15.6830   20.0830 H   0  0  0  0  0  0  0  0  0  0  0  0
  1  3  1  0
  2  5  1  0
  2  4  1  0
  4  6  1  0
  5  1  1  0
  6  3  1  0
  6 51  1  0
  6  7  1  6
  8  9  1  0
  8  5  1  0
  9 10  1  0
 10 12  1  0
 11 22  2  0
 12 17  1  0
 13 21  1  0
 13 23  1  0
 14 20  1  0
 14 16  1  0
 15 21  1  0
 16 15  1  0
 17 16  2  0
 18 19  1  0
 18 12  2  0
 19 14  2  0
 20 13  1  0
 21 11  1  0
 23 25  2  0
 24 23  1  0
 26 24  1  0
 27 36  2  0
 27 32  1  0
 28 24  1  0
 28 32  1  0
 29 28  1  0
 30 31  1  0
 30 29  1  0
 31 27  1  0
 32 33  2  0
 33 34  1  0
 35 34  2  0
 36 35  1  0
 37 11  1  0
 37 38  1  0
 37 47  1  0
 38 41  1  0
 39 43  1  0
 39 38  1  0
 40 39  2  0
 43 42  1  0
 45 43  1  0
 45 46  1  0
 45 44  1  0
 47 50  1  1
 47 48  1  0
 49 47  1  0
 52 53  1  0
 52 51  1  0
 53 55  2  0
 53 54  1  0
 54 65  1  0
 56 54  1  0
 57 65  1  0
 58 63  1  0
 59 60  1  0
 59 58  1  0
 61 60  1  0
 61 70  1  0
 61 62  1  0
 63 57  1  0
 63 62  1  0
 64 57  2  0
 65 66  1  0
 67 68  2  0
 68 87  1  0
 69 68  1  0
 69 72  1  0
 70 67  1  0
 70 71  1  0
 71 69  2  0
 72 73  1  0
 73 74  2  0
 75 78  1  0
 75 74  1  0
 76 75  2  0
 77 76  1  0
 77 72  2  0
 78 79  1  0
 79 80  1  0
 80 81  2  0
 82 81  1  0
 82 86  1  0
 83 82  2  0
 84 79  2  0
 84 83  1  0
 85 84  1  0
 87 88  1  0
 88 91  1  0
 88 90  1  0
 89 87  2  0
 92 93  1  0
 92 67  1  0
 94 92  1  0
M  ISO  4   9 101  10 101  57 100  65 100
M  END
>  <TORSDO>  (36) 
F 21

>  <SCORE>  (36) 
-13.633

>  <name>  (36) 
38

>  <ligand_id>  (36) 
38

>  <original_smiles>  (36) 
[H]c1c([H])c([H])c2c(c1[H])C([H])([H])C([H])([H])C([H])([H])C2([H])N([H])C(=O)C1([H])N(C(=O)C([H])(N([H])C(=O)C([H])(N([H])C([H])([H])[H])C([H])([H])[H])C(C([H])([H])[H])(C([H])([H])[H])C([H])([H])[H])C([H])([H])c2c([H])c(OC([H])([H])C([H])([H])N3C([H])([H])C([H])([H])[N+]([H])(C([H])([H])C([H])([H])C(=O)N([H])N([H])C(=O)N4C([H])([H])C([H])([H])C([H])([H])C([H])(n5nc(-c6c([H])c([H])c(Oc7c([H])c([H])c(F)c([H])c7F)c([H])c6[H])c(C(=O)N([H])[H])c5N([H])[H])C4([H])[H])C([H])([H])C3([H])[H])c([H])c([H])c2C1([H])[H]

>  <smiles>  (36) 
[H]c1c([H])c([H])c2c(c1[H])C([H])([H])C([H])([H])C([H])([H])C2([H])N([H])C(=O)C1([H])N(C(=O)C([H])(N([H])C(=O)C([H])(N([H])C([H])([H])[H])C([H])([H])[H])C(C([H])([H])[H])(C([H])([H])[H])C([H])([H])[H])C([H])([H])c2c([H])c(OC([H])([H])C([H])([H])N3C([H])([H])C([H])([H])[N+]([H])(C([H])([H])C([H])([H])C(=O)N([H])N([H])C(=O)N4C([H])([H])C([H])([H])C([H])([H])C([H])(n5nc(-c6c([H])c([H])c(Oc7c([H])c([H])c(F)c([H])c7F)c([H])c6[H])c(C(=O)N([H])[H])c5N([H])[H])C4([H])[H])C([H])([H])C3([H])[H])c([H])c([H])c2C1([H])[H]

$$$$
39:0:0
     RDKit          3D

108115  0  0  1  0  0  0  0  0999 V2000
  -34.6090  -20.8230   22.7670 C   0  0  0  0  0  0  0  0  0  0  0  0
  -35.1360  -19.7150   22.2310 N   0  0  0  0  0  0  0  0  0  0  0  0
  -33.4510  -21.1870   22.5530 O   0  0  0  0  0  0  0  0  0  0  0  0
  -36.1050  -19.5280   22.4590 H   0  0  0  0  0  0  0  0  0  0  0  0
  -34.3860  -18.6230   21.6130 C   0  0  0  0  0  2  0  0  0  0  0  0
  -33.9060  -18.8990   20.1780 C   0  0  0  0  0  2  0  0  0  0  0  0
  -34.9810  -18.6900   19.0870 C   0  0  0  0  0  2  0  0  0  0  0  0
  -34.6820  -19.3750   17.7330 C   0  0  0  0  0  2  0  0  0  0  0  0
  -33.7290  -18.6170   16.7880 C   0  0  0  0  0  2  0  0  0  0  0  0
  -32.3590  -18.3540   17.4160 C   0  0  0  0  0  2  0  0  0  0  0  0
  -31.1960  -18.0790   16.4450 C   0  0  0  0  0  2  0  0  0  0  0  0
  -29.9020  -17.5790   17.1440 C   0  0  0  0  0  2  0  0  0  0  0  0
  -29.1800  -17.1860   19.5110 C   0  0  0  0  0  0  0  0  0  0  0  0
  -29.9740  -17.7440   18.5970 N   0  0  0  0  0  0  0  0  0  0  0  0
  -28.1280  -16.6150   19.2190 O   0  0  0  0  0  0  0  0  0  0  0  0
  -30.7970  -18.2180   18.9430 H   0  0  0  0  0  0  0  0  0  0  0  0
  -29.6740  -17.2660   20.9650 C   0  0  0  0  0  2  0  0  0  0  0  0
  -29.3860  -16.0110   21.8310 C   0  0  0  0  0  2  0  0  0  0  0  0
  -30.7780  -14.3270   20.6770 C   0  0  0  0  0  0  0  0  0  0  0  0
  -30.4060  -12.3070   19.3160 C   0  0  0  0  0  2  0  0  0  0  0  0
  -29.4340  -12.5690   18.1530 C   0  0  0  0  0  2  0  0  0  0  0  0
  -27.9720  -12.4130   18.6000 C   0  0  0  0  0  2  0  0  0  0  0  0
  -27.6700  -13.1850   19.9070 C   0  0  0  0  0  3  0  0  0  0  0  0
  -28.7330  -12.8720   20.9850 C   0  0  0  0  0  2  0  0  0  0  0  0
  -30.0550  -13.2070   20.4240 N   0  0  0  0  0  0  0  0  0  0  0  0
  -31.7940  -14.6370   20.0510 O   0  0  0  0  0  0  0  0  0  0  0  0
  -30.4550  -15.0030   21.7820 N   0  0  0  0  0  0  0  0  0  0  0  0
  -31.2900  -15.3280   22.2470 H   0  0  0  0  0  0  0  0  0  0  0  0
  -25.2680  -13.8140   20.5830 C   0  0  0  0  0  0  0  0  0  0  0  0
  -24.1890  -13.0460   20.9190 C   0  0  0  0  0  0  0  0  0  0  0  0
  -24.6370  -11.6890   20.8730 C   0  0  0  0  0  0  0  0  0  0  0  0
  -26.3090  -12.9250   20.3600 N   0  0  0  0  0  0  0  0  0  0  0  0
  -25.9290  -11.6420   20.5840 N   0  0  0  0  0  0  0  0  0  0  0  0
  -23.9050  -10.4290   21.0400 C   0  0  0  0  0  0  0  0  0  0  0  0
  -24.3650   -9.4220   21.9180 C   0  0  0  0  0  3  0  0  0  0  0  0
  -23.6340   -8.2260   22.0750 C   0  0  0  0  0  3  0  0  0  0  0  0
  -22.4310   -8.0290   21.3560 C   0  0  0  0  0  0  0  0  0  0  0  0
  -21.9940   -9.0260   20.4660 C   0  0  0  0  0  3  0  0  0  0  0  0
  -22.7240  -10.2130   20.3040 C   0  0  0  0  0  3  0  0  0  0  0  0
  -21.6720   -6.8860   21.4210 O   0  0  0  0  0  0  0  0  0  0  0  0
  -21.6880   -6.0750   22.5270 C   0  0  0  0  0  0  0  0  0  0  0  0
  -21.4010   -6.5660   23.8190 C   0  0  0  0  0  3  0  0  0  0  0  0
  -21.3620   -5.6830   24.9180 C   0  0  0  0  0  3  0  0  0  0  0  0
  -21.6040   -4.3090   24.7280 C   0  0  0  0  0  0  0  0  0  0  0  0
  -21.8820   -3.8170   23.4400 C   0  0  0  0  0  3  0  0  0  0  0  0
  -21.9200   -4.6970   22.3430 C   0  0  0  0  0  0  0  0  0  0  0  0
  -22.1660   -4.2130   21.1030 F   0  0  0  0  0  0  0  0  0  0  0  0
  -21.5660   -3.4580   25.7790 F   0  0  0  0  0  0  0  0  0  0  0  0
  -22.7900  -13.5230   21.1870 C   0  0  0  0  0  0  0  0  0  0  0  0
  -22.0610  -12.8180   22.0430 N   0  0  0  0  0  0  0  0  0  0  0  0
  -22.3570  -14.5520   20.6700 O   0  0  0  0  0  0  0  0  0  0  0  0
  -22.4380  -11.9830   22.4690 H   0  0  0  0  0  0  0  0  0  0  0  0
  -21.1200  -13.1090   22.2720 H   0  0  0  0  0  0  0  0  0  0  0  0
  -25.4590  -15.1860   20.4230 N   0  0  0  0  0  0  0  0  0  0  0  0
  -24.7220  -15.8730   20.5290 H   0  0  0  0  0  0  0  0  0  0  0  0
  -26.3350  -15.5820   20.0910 H   0  0  0  0  0  0  0  0  0  0  0  0
  -35.5180  -21.5800   23.7420 C   0  0  0  0  0  2  0  0  0  0  0  0
  -35.1270  -23.0350   24.0710 C   0  0  0  0  0  2  0  0  0  0  0  0
  -35.0140  -23.9950   22.8710 C   0  0  0  0  0  2  0  0  0  0  0  0
  -34.8810  -25.4600   23.3320 C   0  0  0  0  0  2  0  0  0  0  0  0
  -34.3130  -26.4190   22.2690 C   0  0  0  0  0  2  0  0  0  0  0  0
  -32.1440  -26.7850   21.1030 C   0  0  0  0  0  0  0  0  0  0  0  0
  -32.9110  -26.1120   21.9730 N   0  0  0  0  0  0  0  0  0  0  0  0
  -32.5460  -27.8060   20.5370 O   0  0  0  0  0  0  0  0  0  0  0  0
  -32.5110  -25.3030   22.4350 H   0  0  0  0  0  0  0  0  0  0  0  0
  -30.7570  -26.2070   20.7680 C   0  0  0  0  0  2  0  0  0  0  0  0
  -29.6020  -27.2320   20.8080 C   0  0  0  0  0  2  0  0  0  0  0  0
  -28.4450  -26.7320   20.1100 O   0  0  0  0  0  0  0  0  0  0  0  0
  -24.6070  -31.8690   23.2130 C   0  0  0  0  0  0  0  0  0  0  0  0
  -27.2890  -27.4890   20.1340 C   0  0  0  0  0  0  0  0  0  0  0  0
  -23.3980  -30.4820   21.5480 C   0  0  0  0  0  3  0  0  0  0  0  0
  -24.8610  -28.9530   20.1160 C   0  0  0  0  0  0  0  0  0  0  0  0
  -25.9120  -30.8610   21.3500 C   0  0  0  0  0  2  0  0  0  0  0  0
  -26.0040  -29.4900   20.7190 C   0  0  0  0  0  0  0  0  0  0  0  0
  -27.2080  -28.7660   20.7370 C   0  0  0  0  0  3  0  0  0  0  0  0
  -26.1290  -26.9580   19.5230 C   0  0  0  0  0  3  0  0  0  0  0  0
  -24.9180  -27.6830   19.5120 C   0  0  0  0  0  3  0  0  0  0  0  0
  -23.6100  -29.8020   20.1630 C   0  0  0  0  0  2  0  0  0  0  0  0
  -24.6570  -31.0850   22.0980 N   0  0  0  0  0  0  0  0  0  0  0  0
  -23.5270  -32.1380   23.7550 O   0  0  0  0  0  0  0  0  0  0  0  0
  -22.7390  -29.4630   22.5040 C   0  0  0  0  0  0  0  0  0  0  0  0
  -21.4140  -29.2990   22.3770 N   0  0  0  0  0  0  0  0  0  0  0  0
  -23.4190  -28.8200   23.3090 O   0  0  0  0  0  0  0  0  0  0  0  0
  -20.9330  -29.8660   21.6940 H   0  0  0  0  0  0  0  0  0  0  0  0
  -18.0250  -28.1380   22.8450 C   0  0  0  0  0  0  0  0  0  0  0  0
  -20.5850  -28.3640   23.1350 C   0  0  0  0  0  3  0  0  0  0  0  0
  -20.6760  -26.9370   22.5450 C   0  0  0  0  0  2  0  0  0  0  0  0
  -19.5760  -26.6380   21.5220 C   0  0  0  0  0  2  0  0  0  0  0  0
  -18.1910  -26.7930   22.1580 C   0  0  0  0  0  2  0  0  0  0  0  0
  -19.1500  -28.8830   23.2890 C   0  0  0  0  0  0  0  0  0  0  0  0
  -18.9430  -30.1430   23.8910 C   0  0  0  0  0  3  0  0  0  0  0  0
  -17.6440  -30.6580   24.0550 C   0  0  0  0  0  3  0  0  0  0  0  0
  -16.5330  -29.9090   23.6330 C   0  0  0  0  0  3  0  0  0  0  0  0
  -16.7240  -28.6510   23.0320 C   0  0  0  0  0  3  0  0  0  0  0  0
  -25.8970  -32.4850   23.8410 C   0  0  0  0  0  3  0  0  0  0  0  0
  -26.4460  -31.6570   25.0660 C   0  0  1  0  0  0  0  0  0  0  0  0
  -25.3790  -31.3640   26.1450 C   0  0  0  0  0  1  0  0  0  0  0  0
  -27.0250  -30.3030   24.5930 C   0  0  0  0  0  1  0  0  0  0  0  0
  -27.6050  -32.4290   25.7400 C   0  0  0  0  0  1  0  0  0  0  0  0
  -25.5850  -33.8630   24.2360 N   0  0  0  0  0  0  0  0  0  0  0  0
  -25.9010  -34.9480   23.5150 C   0  0  0  0  0  0  0  0  0  0  0  0
  -26.5560  -34.8930   22.4710 O   0  0  0  0  0  0  0  0  0  0  0  0
  -24.9970  -33.9790   25.0480 H   0  0  0  0  0  0  0  0  0  0  0  0
  -24.1480  -36.7330   23.2640 C   0  0  0  0  0  1  0  0  0  0  0  0
  -25.4100  -36.3130   24.0350 C   0  0  0  0  0  3  0  0  0  0  0  0
  -27.5590  -37.1800   24.8450 C   0  0  0  0  0  1  0  0  0  0  0  0
  -26.4280  -37.3810   23.9430 N   0  0  0  0  0  0  0  0  0  0  0  0
  -26.0190  -38.2870   24.1510 H   0  0  0  0  0  0  0  0  0  0  0  0
  1 57  1  0
  2  4  1  0
  2  1  1  0
  3  1  2  0
  5  2  1  0
  6  5  1  0
  7  6  1  0
  8  7  1  0
  9 10  1  0
  9  8  1  0
 11 12  1  0
 11 10  1  0
 12 14  1  0
 13 17  1  0
 14 16  1  0
 14 13  1  0
 15 13  2  0
 17 18  1  0
 19 27  1  0
 20 25  1  0
 21 22  1  0
 21 20  1  0
 23 22  1  0
 23 32  1  0
 23 24  1  0
 25 19  1  0
 25 24  1  0
 26 19  2  0
 27 18  1  0
 27 28  1  0
 29 30  2  0
 30 49  1  0
 31 30  1  0
 31 34  1  0
 32 29  1  0
 32 33  1  0
 33 31  2  0
 34 35  1  0
 35 36  2  0
 37 40  1  0
 37 36  1  0
 38 37  2  0
 39 38  1  0
 39 34  2  0
 40 41  1  0
 41 42  1  0
 42 43  2  0
 44 43  1  0
 44 48  1  0
 45 44  2  0
 46 41  2  0
 46 45  1  0
 47 46  1  0
 49 50  1  0
 50 53  1  0
 50 52  1  0
 51 49  2  0
 54 55  1  0
 54 29  1  0
 56 54  1  0
 57 58  1  0
 59 60  1  0
 59 58  1  0
 61 60  1  0
 62 63  1  0
 63 61  1  0
 63 65  1  0
 64 62  2  0
 66 67  1  0
 66 62  1  0
 68 70  1  0
 68 67  1  0
 69 80  2  0
 70 75  1  0
 71 79  1  0
 71 81  1  0
 72 78  1  0
 72 74  1  0
 73 79  1  0
 74 75  2  0
 74 73  1  0
 76 70  2  0
 77 76  1  0
 77 72  2  0
 78 71  1  0
 79 69  1  0
 81 83  2  0
 82 81  1  0
 84 82  1  0
 85 94  2  0
 85 90  1  0
 86 82  1  0
 86 90  1  0
 87 86  1  0
 88 89  1  0
 88 87  1  0
 89 85  1  0
 90 91  2  0
 91 92  1  0
 93 92  2  0
 94 93  1  0
 95 69  1  0
 95100  1  0
 95 96  1  0
 96 99  1  1
 96 97  1  0
 98 96  1  0
100103  1  0
101105  1  0
101100  1  0
102101  2  0
105104  1  0
107105  1  0
107108  1  0
107106  1  0
M  ISO  4  19 100  27 100  67 101  68 101
M  END
>  <TORSDO>  (37) 
F 35

>  <SCORE>  (37) 
1.028

>  <name>  (37) 
39

>  <ligand_id>  (37) 
39

>  <original_smiles>  (37) 
[H]c1c([H])c([H])c2c(c1[H])C([H])([H])C([H])([H])C([H])([H])C2([H])N([H])C(=O)C1([H])N(C(=O)C([H])(N([H])C(=O)C([H])(N([H])C([H])([H])[H])C([H])([H])[H])C(C([H])([H])[H])(C([H])([H])[H])C([H])([H])[H])C([H])([H])c2c([H])c(OC([H])([H])C([H])([H])C(=O)N([H])C([H])([H])C([H])([H])C([H])([H])C([H])([H])C([H])([H])C(=O)N([H])C([H])([H])C([H])([H])C([H])([H])C([H])([H])C([H])([H])C([H])([H])C([H])([H])C([H])([H])N([H])C(=O)C([H])([H])C([H])([H])N([H])C(=O)N3C([H])([H])C([H])([H])C([H])([H])C([H])(n4nc(-c5c([H])c([H])c(Oc6c([H])c([H])c(F)c([H])c6F)c([H])c5[H])c(C(=O)N([H])[H])c4N([H])[H])C3([H])[H])c([H])c([H])c2C1([H])[H]

>  <smiles>  (37) 
[H]c1c([H])c([H])c2c(c1[H])C([H])([H])C([H])([H])C([H])([H])C2([H])N([H])C(=O)C1([H])N(C(=O)C([H])(N([H])C(=O)C([H])(N([H])C([H])([H])[H])C([H])([H])[H])C(C([H])([H])[H])(C([H])([H])[H])C([H])([H])[H])C([H])([H])c2c([H])c(OC([H])([H])C([H])([H])C(=O)N([H])C([H])([H])C([H])([H])C([H])([H])C([H])([H])C([H])([H])C(=O)N([H])C([H])([H])C([H])([H])C([H])([H])C([H])([H])C([H])([H])C([H])([H])C([H])([H])C([H])([H])N([H])C(=O)C([H])([H])C([H])([H])N([H])C(=O)N3C([H])([H])C([H])([H])C([H])([H])C([H])(n4nc(-c5c([H])c([H])c(Oc6c([H])c([H])c(F)c([H])c6F)c([H])c5[H])c(C(=O)N([H])[H])c4N([H])[H])C3([H])[H])c([H])c([H])c2C1([H])[H]

$$$$
40:0:0
     RDKit          3D

 99108  0  0  1  0  0  0  0  0999 V2000
  -23.5850  -26.8280   24.8070 C   0  0  1  0  0  0  0  0  0  0  0  0
  -24.5590  -26.0740   23.5170 C   0  0  0  0  0  0  0  0  0  0  0  0
  -25.9450  -25.8380   22.9580 N   0  0  0  0  0  0  0  0  0  0  0  0
  -23.7950  -25.4370   22.8060 O   0  0  0  0  0  0  0  0  0  0  0  0
  -25.6960  -25.2240   22.1930 H   0  0  0  0  0  0  0  0  0  0  0  0
  -27.6280  -25.9000   22.7600 C   0  0  0  0  0  2  0  0  0  0  0  0
  -28.8680  -25.0990   21.7350 C   0  0  0  0  0  0  0  0  0  0  0  0
  -30.3010  -25.3470   21.3520 N   0  0  0  0  0  0  0  0  0  0  0  0
  -28.4290  -24.0660   21.2210 O   0  0  0  0  0  0  0  0  0  0  0  0
  -30.6430  -26.2050   21.7650 H   0  0  0  0  0  0  0  0  0  0  0  0
  -31.5010  -24.5600   20.4310 C   0  0  0  0  0  3  0  0  0  0  0  0
  -33.2190  -24.9450   19.8920 C   0  0  0  0  0  3  0  0  0  0  0  0
  -35.8450  -24.1330   18.5560 C   0  0  0  0  0  0  0  0  0  0  0  0
  -37.5620  -23.1880   16.7760 C   0  0  0  0  0  2  0  0  0  0  0  0
  -37.0220  -23.1780   15.3130 C   0  0  0  0  0  2  0  0  0  0  0  0
  -36.0600  -22.0000   15.0750 C   0  0  0  0  0  2  0  0  0  0  0  0
  -35.0980  -21.8260   16.2750 C   0  0  0  0  0  3  0  0  0  0  0  0
  -35.8420  -21.7810   17.6150 C   0  0  0  0  0  2  0  0  0  0  0  0
  -36.4150  -23.1010   17.7700 N   0  0  0  0  0  0  0  0  0  0  0  0
  -36.6280  -25.1040   18.6590 O   0  0  0  0  0  0  0  0  0  0  0  0
  -34.4290  -24.0650   19.0800 N   0  0  0  0  0  0  0  0  0  0  0  0
  -34.0550  -23.1590   18.8290 H   0  0  0  0  0  0  0  0  0  0  0  0
  -32.8500  -20.6610   16.1540 C   0  0  0  0  0  0  0  0  0  0  0  0
  -32.5090  -19.3510   15.9840 C   0  0  0  0  0  0  0  0  0  0  0  0
  -33.7370  -18.6250   15.9090 C   0  0  0  0  0  0  0  0  0  0  0  0
  -34.2310  -20.6800   16.1540 N   0  0  0  0  0  0  0  0  0  0  0  0
  -34.7680  -19.4410   16.0780 N   0  0  0  0  0  0  0  0  0  0  0  0
  -33.9940  -17.2110   15.6210 C   0  0  0  0  0  0  0  0  0  0  0  0
  -34.8590  -16.4380   16.4240 C   0  0  0  0  0  3  0  0  0  0  0  0
  -35.0730  -15.0740   16.1330 C   0  0  0  0  0  3  0  0  0  0  0  0
  -34.4140  -14.4730   15.0330 C   0  0  0  0  0  0  0  0  0  0  0  0
  -33.5750  -15.2560   14.2210 C   0  0  0  0  0  3  0  0  0  0  0  0
  -33.3680  -16.6150   14.5090 C   0  0  0  0  0  3  0  0  0  0  0  0
  -34.5800  -13.1630   14.6580 O   0  0  0  0  0  0  0  0  0  0  0  0
  -34.9840  -12.2050   15.5540 C   0  0  0  0  0  0  0  0  0  0  0  0
  -34.2720  -11.9540   16.7460 C   0  0  0  0  0  3  0  0  0  0  0  0
  -34.6810  -10.9140   17.6040 C   0  0  0  0  0  3  0  0  0  0  0  0
  -35.7930  -10.1190   17.2670 C   0  0  0  0  0  0  0  0  0  0  0  0
  -36.5000  -10.3650   16.0770 C   0  0  0  0  0  3  0  0  0  0  0  0
  -36.0940  -11.4040   15.2220 C   0  0  0  0  0  0  0  0  0  0  0  0
  -36.7650  -11.6250   14.0650 F   0  0  0  0  0  0  0  0  0  0  0  0
  -36.1830   -9.1130   18.0850 F   0  0  0  0  0  0  0  0  0  0  0  0
  -31.1200  -18.8190   15.8010 C   0  0  0  0  0  0  0  0  0  0  0  0
  -30.8790  -17.5840   16.2290 N   0  0  0  0  0  0  0  0  0  0  0  0
  -30.2280  -19.5140   15.3170 O   0  0  0  0  0  0  0  0  0  0  0  0
  -31.6100  -17.0240   16.6420 H   0  0  0  0  0  0  0  0  0  0  0  0
  -29.9510  -17.1940   16.1430 H   0  0  0  0  0  0  0  0  0  0  0  0
  -32.1120  -21.8350   16.2830 N   0  0  0  0  0  0  0  0  0  0  0  0
  -31.1010  -21.8340   16.2110 H   0  0  0  0  0  0  0  0  0  0  0  0
  -32.5080  -22.7670   16.2700 H   0  0  0  0  0  0  0  0  0  0  0  0
  -21.9680  -27.4650   24.8480 O   0  0  0  0  0  0  0  0  0  0  0  0
  -20.9460  -28.9070   24.7870 C   0  0  0  0  0  2  0  0  0  0  0  0
  -20.7950  -30.3910   23.5600 C   0  0  0  0  0  0  0  0  0  0  0  0
  -21.7620  -30.9190   22.4410 N   0  0  0  0  0  0  0  0  0  0  0  0
  -19.7890  -31.0880   23.7180 O   0  0  0  0  0  0  0  0  0  0  0  0
  -21.2740  -31.6430   21.9310 H   0  0  0  0  0  0  0  0  0  0  0  0
  -23.4560  -30.8240   21.8060 C   0  0  0  0  0  2  0  0  0  0  0  0
  -25.1160  -29.8950   22.1820 C   0  0  0  0  0  2  0  0  0  0  0  0
  -26.3330  -29.5640   23.3740 O   0  0  0  0  0  0  0  0  0  0  0  0
  -23.8260  -28.4300   28.1990 C   0  0  0  0  0  0  0  0  0  0  0  0
  -27.3380  -30.3280   23.9730 C   0  0  0  0  0  3  0  0  0  0  0  0
  -23.6030  -29.5570   26.0290 C   0  0  0  0  0  3  0  0  0  0  0  0
  -25.2660  -31.2200   25.2650 C   0  0  0  0  0  3  0  0  0  0  0  0
  -25.6820  -29.8520   27.3160 C   0  0  0  0  0  2  0  0  0  0  0  0
  -26.1510  -30.4190   25.9880 C   0  0  0  0  0  3  0  0  0  0  0  0
  -27.3530  -30.0710   25.3660 C   0  0  0  0  0  2  0  0  0  0  0  0
  -26.9380  -31.5690   23.5490 C   0  0  0  0  0  2  0  0  0  0  0  0
  -25.7120  -31.9450   24.1290 C   0  0  0  0  0  2  0  0  0  0  0  0
  -23.8720  -31.0780   25.7340 C   0  0  0  0  0  2  0  0  0  0  0  0
  -24.3570  -29.2180   27.2270 N   0  0  0  0  0  0  0  0  0  0  0  0
  -22.6400  -28.0660   28.2120 O   0  0  0  0  0  0  0  0  0  0  0  0
  -23.8260  -28.3630   24.8330 C   0  0  2  0  0  0  0  0  0  0  0  0
  -23.1790  -28.0560   23.4910 N   0  0  0  0  0  0  0  0  0  0  0  0
  -24.5550  -27.5070   25.2060 O   0  0  0  0  0  0  0  0  0  0  0  0
  -23.7810  -27.3460   23.1100 H   0  0  0  0  0  0  0  0  0  0  0  0
  -19.4060  -28.6200   21.4100 C   0  0  0  0  0  0  0  0  0  0  0  0
  -21.7820  -27.8690   22.5310 C   0  0  0  0  0  3  0  0  0  0  0  0
  -22.3090  -28.2420   21.1840 C   0  0  0  0  0  2  0  0  0  0  0  0
  -21.5890  -29.3870   20.5260 C   0  0  0  0  0  2  0  0  0  0  0  0
  -20.1930  -28.9420   20.1750 C   0  0  0  0  0  2  0  0  0  0  0  0
  -20.0690  -28.0980   22.5660 C   0  0  0  0  0  0  0  0  0  0  0  0
  -19.0590  -27.7530   23.5660 C   0  0  0  0  0  3  0  0  0  0  0  0
  -17.6840  -28.0830   23.5350 C   0  0  0  0  0  3  0  0  0  0  0  0
  -17.1360  -28.6210   22.3780 C   0  0  0  0  0  3  0  0  0  0  0  0
  -18.0060  -28.8440   21.3080 C   0  0  0  0  0  3  0  0  0  0  0  0
  -24.7240  -27.9610   29.3590 C   0  0  0  0  0  3  0  0  0  0  0  0
  -25.1440  -26.4520   29.2230 C   0  0  1  0  0  0  0  0  0  0  0  0
  -23.9520  -25.4850   29.0310 C   0  0  0  0  0  1  0  0  0  0  0  0
  -26.1120  -26.2290   28.0390 C   0  0  0  0  0  1  0  0  0  0  0  0
  -25.9250  -26.0360   30.4860 C   0  0  0  0  0  1  0  0  0  0  0  0
  -23.9820  -28.1920   30.6050 N   0  0  0  0  0  0  0  0  0  0  0  0
  -24.1890  -29.2350   31.4160 C   0  0  0  0  0  0  0  0  0  0  0  0
  -25.0810  -30.0660   31.2240 O   0  0  0  0  0  0  0  0  0  0  0  0
  -23.2070  -27.5770   30.7970 H   0  0  0  0  0  0  0  0  0  0  0  0
  -22.0590  -30.2330   32.2930 C   0  0  0  0  0  1  0  0  0  0  0  0
  -23.2760  -29.3630   32.6470 C   0  0  0  0  0  3  0  0  0  0  0  0
  -24.8940  -28.9690   34.4490 C   0  0  0  0  0  1  0  0  0  0  0  0
  -23.9680  -29.9160   33.8320 N   0  0  0  0  0  0  0  0  0  0  0  0
  -23.2950  -30.2050   34.5360 H   0  0  0  0  0  0  0  0  0  0  0  0
  1  2  1  6
  1 72  1  0
  1 51  1  0
  1 74  1  0
  3  2  1  0
  4  2  2  0
  5  3  1  0
  6  3  1  0
  7  6  1  0
  8  7  1  0
  8 10  1  0
  9  7  2  0
 11  8  1  0
 12 11  2  0
 13 20  2  0
 13 21  1  0
 14 19  1  0
 15 14  1  0
 16 15  1  0
 17 16  1  0
 17 18  1  0
 18 19  1  0
 19 13  1  0
 21 12  1  0
 22 21  1  0
 23 26  1  0
 23 48  1  0
 24 23  2  0
 25 24  1  0
 25 27  2  0
 26 17  1  0
 27 26  1  0
 28 25  1  0
 28 29  1  0
 30 29  2  0
 31 30  1  0
 32 33  1  0
 32 31  2  0
 33 28  2  0
 34 31  1  0
 34 35  1  0
 35 36  1  0
 36 37  2  0
 38 37  1  0
 38 42  1  0
 39 38  2  0
 40 35  2  0
 40 39  1  0
 41 40  1  0
 43 24  1  0
 43 44  1  0
 44 46  1  0
 45 43  2  0
 47 44  1  0
 49 48  1  0
 50 48  1  0
 52 51  1  0
 53 55  2  0
 53 52  1  0
 54 53  1  0
 56 54  1  0
 57 58  1  0
 57 54  1  0
 58 59  1  0
 59 61  1  0
 60 71  2  0
 61 67  1  0
 61 66  1  0
 62 69  1  0
 62 70  1  0
 63 68  1  0
 63 69  1  0
 63 65  1  0
 65 66  1  0
 65 64  1  0
 67 68  1  0
 70 64  1  0
 70 60  1  0
 72 73  1  6
 72 74  1  0
 72 62  1  0
 75 73  1  0
 76 81  1  0
 77 81  1  0
 77 73  1  0
 78 77  1  0
 79 78  1  0
 80 79  1  0
 80 76  1  0
 81 82  2  0
 83 82  1  0
 84 83  2  0
 85 76  2  0
 85 84  1  0
 86 60  1  0
 86 91  1  0
 87 86  1  0
 87 90  1  1
 88 87  1  0
 89 87  1  0
 91 94  1  0
 91 92  1  0
 92 96  1  0
 93 92  2  0
 96 95  1  0
 96 98  1  0
 98 97  1  0
 98 99  1  0
M  ISO  4  13 100  21 100  58 101  59 101
M  END
>  <TORSDO>  (38) 
F 26

>  <SCORE>  (38) 
6.799

>  <name>  (38) 
40

>  <ligand_id>  (38) 
40

>  <original_smiles>  (38) 
[H]c1c([H])c([H])c2c(c1[H])C([H])([H])C([H])([H])C([H])([H])C2([H])N([H])C(=O)C1([H])N(C(=O)C([H])(N([H])C(=O)C([H])(N([H])C([H])([H])[H])C([H])([H])[H])C(C([H])([H])[H])(C([H])([H])[H])C([H])([H])[H])C([H])([H])c2c([H])c(OC([H])([H])C([H])([H])N([H])C(=O)C([H])([H])OC([H])([H])C(=O)N([H])C([H])([H])C(=O)N([H])C([H])([H])C([H])([H])N([H])C(=O)N3C([H])([H])C([H])([H])C([H])([H])C([H])(n4nc(-c5c([H])c([H])c(Oc6c([H])c([H])c(F)c([H])c6F)c([H])c5[H])c(C(=O)N([H])[H])c4N([H])[H])C3([H])[H])c([H])c([H])c2C1([H])[H]

>  <smiles>  (38) 
[H]c1c([H])c([H])c2c(c1[H])C([H])([H])C([H])([H])C([H])([H])C2([H])N([H])C(=O)C1([H])N(C(=O)C([H])(N([H])C(=O)C([H])(N([H])C([H])([H])[H])C([H])([H])[H])C(C([H])([H])[H])(C([H])([H])[H])C([H])([H])[H])C([H])([H])c2c([H])c(OC([H])([H])C([H])([H])N([H])C(=O)C([H])([H])OC([H])([H])C(=O)N([H])C([H])([H])C(=O)N([H])C([H])([H])C([H])([H])N([H])C(=O)N3C([H])([H])C([H])([H])C([H])([H])C([H])(n4nc(-c5c([H])c([H])c(Oc6c([H])c([H])c(F)c([H])c6F)c([H])c5[H])c(C(=O)N([H])[H])c4N([H])[H])C3([H])[H])c([H])c([H])c2C1([H])[H]

$$$$
41:0:0
     RDKit          3D

116124  0  0  1  0  0  0  0  0999 V2000
  -32.6690  -24.7950   21.5730 C   0  0  0  0  0  2  0  0  0  0  0  0
  -32.4210  -22.5730   22.6280 C   0  0  0  0  0  0  0  0  0  0  0  0
  -32.2260  -23.9890   22.5630 N   0  0  0  0  0  0  0  0  0  0  0  0
  -33.3710  -24.4080   20.4890 N   0  0  0  0  0  0  0  0  0  0  0  0
  -33.1840  -21.9900   21.8470 O   0  0  0  0  0  0  0  0  0  0  0  0
  -31.6780  -24.4600   23.2630 H   0  0  0  0  0  0  0  0  0  0  0  0
  -33.6470  -23.4340   20.4240 H   0  0  0  0  0  0  0  0  0  0  0  0
  -31.5570  -21.8290   23.6620 C   0  0  0  0  0  2  0  0  0  0  0  0
  -29.2130  -22.4640   23.0610 C   0  0  0  0  0  0  0  0  0  0  0  0
  -30.2410  -22.4390   23.9250 N   0  0  0  0  0  0  0  0  0  0  0  0
  -29.2980  -21.9780   21.9320 O   0  0  0  0  0  0  0  0  0  0  0  0
  -30.1050  -22.8250   24.8510 H   0  0  0  0  0  0  0  0  0  0  0  0
  -27.9200  -23.1660   23.4860 C   0  0  0  0  0  2  0  0  0  0  0  0
  -27.1080  -23.6170   22.3240 N   0  0  0  0  0  4  0  0  0  0  0  0
  -26.1600  -23.7250   22.6500 H   0  0  0  0  0  0  0  0  0  0  0  0
  -27.1000  -22.8750   21.6440 H   0  0  0  0  0  0  0  0  0  0  0  0
  -27.5020  -24.9020   21.6760 C   0  0  0  0  0  2  0  0  0  0  0  0
  -28.6780  -24.7430   20.6760 C   0  0  0  0  0  2  0  0  0  0  0  0
  -29.2040  -26.0360   20.0160 C   0  0  0  0  0  2  0  0  0  0  0  0
  -28.6100  -26.2780   18.7470 O   0  0  0  0  0  0  0  0  0  0  0  0
  -23.6810  -30.4110   21.8510 C   0  0  0  0  0  0  0  0  0  0  0  0
  -27.4180  -26.9570   18.6880 C   0  0  0  0  0  0  0  0  0  0  0  0
  -23.0410  -29.3730   19.6930 C   0  0  0  0  0  3  0  0  0  0  0  0
  -24.9410  -28.2750   18.3950 C   0  0  0  0  0  0  0  0  0  0  0  0
  -25.4860  -29.8940   20.2180 C   0  0  0  0  0  2  0  0  0  0  0  0
  -25.8550  -28.7060   19.3640 C   0  0  0  0  0  0  0  0  0  0  0  0
  -27.0910  -28.0530   19.5200 C   0  0  0  0  0  3  0  0  0  0  0  0
  -26.4990  -26.5420   17.7040 C   0  0  0  0  0  3  0  0  0  0  0  0
  -25.2580  -27.1900   17.5560 C   0  0  0  0  0  3  0  0  0  0  0  0
  -23.6370  -29.0310   18.3000 C   0  0  0  0  0  2  0  0  0  0  0  0
  -24.0710  -29.8980   20.6510 N   0  0  0  0  0  0  0  0  0  0  0  0
  -22.4820  -30.5060   22.1440 O   0  0  0  0  0  0  0  0  0  0  0  0
  -22.2890  -28.1310   20.2160 C   0  0  0  0  0  0  0  0  0  0  0  0
  -21.0560  -27.9340   19.7210 N   0  0  0  0  0  0  0  0  0  0  0  0
  -22.8220  -27.3580   21.0170 O   0  0  0  0  0  0  0  0  0  0  0  0
  -20.6920  -28.6160   19.0710 H   0  0  0  0  0  0  0  0  0  0  0  0
  -17.7970  -26.5300   19.0720 C   0  0  0  0  0  0  0  0  0  0  0  0
  -20.1760  -26.8110   20.0350 C   0  0  0  0  0  3  0  0  0  0  0  0
  -20.5530  -25.5630   19.2020 C   0  0  0  0  0  2  0  0  0  0  0  0
  -19.7610  -25.4500   17.8950 C   0  0  0  0  0  2  0  0  0  0  0  0
  -18.2590  -25.3860   18.1830 C   0  0  0  0  0  2  0  0  0  0  0  0
  -18.7010  -27.2100   19.9280 C   0  0  0  0  0  0  0  0  0  0  0  0
  -18.2280  -28.2910   20.7010 C   0  0  0  0  0  3  0  0  0  0  0  0
  -16.8800  -28.6900   20.6330 C   0  0  0  0  0  3  0  0  0  0  0  0
  -15.9840  -28.0020   19.7970 C   0  0  0  0  0  3  0  0  0  0  0  0
  -16.4420  -26.9230   19.0210 C   0  0  0  0  0  3  0  0  0  0  0  0
  -24.7160  -30.9260   22.9010 C   0  0  0  0  0  3  0  0  0  0  0  0
  -24.2060  -32.1950   23.4300 N   0  0  0  0  0  0  0  0  0  0  0  0
  -24.6110  -33.4050   23.0230 C   0  0  0  0  0  0  0  0  0  0  0  0
  -25.5190  -33.5680   22.2010 O   0  0  0  0  0  0  0  0  0  0  0  0
  -23.4150  -32.1440   24.0560 H   0  0  0  0  0  0  0  0  0  0  0  0
  -22.8420  -35.1550   22.6400 C   0  0  0  0  0  1  0  0  0  0  0  0
  -23.8960  -34.6280   23.6270 C   0  0  0  0  0  3  0  0  0  0  0  0
  -25.6970  -35.3920   25.1130 C   0  0  0  0  0  1  0  0  0  0  0  0
  -24.8190  -35.7250   23.9940 N   0  0  0  0  0  0  0  0  0  0  0  0
  -24.2990  -36.5640   24.2360 H   0  0  0  0  0  0  0  0  0  0  0  0
  -24.9920  -29.8990   24.0660 C   0  0  1  0  0  0  0  0  0  0  0  0
  -23.7030  -29.3770   24.7420 C   0  0  0  0  0  1  0  0  0  0  0  0
  -25.7800  -28.6760   23.5440 C   0  0  0  0  0  1  0  0  0  0  0  0
  -25.8820  -30.5600   25.1450 C   0  0  0  0  0  1  0  0  0  0  0  0
  -33.6720  -25.2760   19.3460 C   0  0  0  0  0  2  0  0  0  0  0  0
  -32.8080  -24.8950   18.1330 C   0  0  0  0  0  2  0  0  0  0  0  0
  -33.4480  -23.7990   17.2610 C   0  0  0  0  0  2  0  0  0  0  0  0
  -32.6570  -23.4810   15.9920 C   0  0  0  0  0  0  0  0  0  0  0  0
  -33.3230  -22.8060   15.0510 N   0  0  0  0  0  0  0  0  0  0  0  0
  -31.4740  -23.8090   15.8760 O   0  0  0  0  0  0  0  0  0  0  0  0
  -34.2940  -22.5870   15.2360 H   0  0  0  0  0  0  0  0  0  0  0  0
  -32.7370  -22.2070   13.8590 C   0  0  0  0  0  2  0  0  0  0  0  0
  -31.7990  -18.4970   14.0410 C   0  0  0  0  0  3  0  0  0  0  0  0
  -33.0700  -17.8970   14.0930 C   0  0  0  0  0  3  0  0  0  0  0  0
  -31.6890  -19.8960   13.9470 C   0  0  0  0  0  3  0  0  0  0  0  0
  -34.1250  -20.0850   13.9530 C   0  0  0  0  0  3  0  0  0  0  0  0
  -34.2500  -18.6780   14.0380 C   0  0  0  0  0  0  0  0  0  0  0  0
  -32.8510  -20.6920   13.9170 C   0  0  0  0  0  0  0  0  0  0  0  0
  -35.5940  -17.9980   13.9610 C   0  0  0  0  0  0  0  0  0  0  0  0
  -36.6980  -18.7410   14.1330 N   0  0  0  0  0  0  0  0  0  0  0  0
  -35.6750  -16.7950   13.6960 O   0  0  0  0  0  0  0  0  0  0  0  0
  -36.7300  -19.7410   14.2940 H   0  0  0  0  0  0  0  0  0  0  0  0
  -38.5550  -19.0220   12.7310 C   0  0  0  0  0  0  0  0  0  0  0  0
  -39.4500  -19.2490   10.4390 C   0  0  0  0  0  2  0  0  0  0  0  0
  -38.4270  -19.9640    9.5360 C   0  0  0  0  0  2  0  0  0  0  0  0
  -37.4420  -18.9520    8.9230 C   0  0  0  0  0  2  0  0  0  0  0  0
  -36.8170  -18.0240    9.9950 C   0  0  0  0  0  3  0  0  0  0  0  0
  -37.9170  -17.4180   10.8990 C   0  0  0  0  0  2  0  0  0  0  0  0
  -38.7190  -18.5150   11.4820 N   0  0  0  0  0  0  0  0  0  0  0  0
  -38.9920  -20.1190   13.1000 O   0  0  0  0  0  0  0  0  0  0  0  0
  -37.8890  -18.2310   13.5730 N   0  0  0  0  0  0  0  0  0  0  0  0
  -37.6660  -17.3000   13.2470 H   0  0  0  0  0  0  0  0  0  0  0  0
  -34.6590  -16.6640    9.6140 C   0  0  0  0  0  0  0  0  0  0  0  0
  -34.3550  -15.6590    8.7340 C   0  0  0  0  0  0  0  0  0  0  0  0
  -35.5440  -15.4240    7.9770 C   0  0  0  0  0  0  0  0  0  0  0  0
  -35.9890  -16.9840    9.3830 N   0  0  0  0  0  0  0  0  0  0  0  0
  -36.5300  -16.1950    8.4190 N   0  0  0  0  0  0  0  0  0  0  0  0
  -35.7830  -14.5500    6.8210 C   0  0  0  0  0  0  0  0  0  0  0  0
  -36.8690  -13.6470    6.7880 C   0  0  0  0  0  3  0  0  0  0  0  0
  -37.0690  -12.8090    5.6710 C   0  0  0  0  0  3  0  0  0  0  0  0
  -36.1780  -12.8630    4.5740 C   0  0  0  0  0  0  0  0  0  0  0  0
  -35.1120  -13.7790    4.6000 C   0  0  0  0  0  3  0  0  0  0  0  0
  -34.9160  -14.6170    5.7110 C   0  0  0  0  0  3  0  0  0  0  0  0
  -36.3060  -12.1020    3.4360 O   0  0  0  0  0  0  0  0  0  0  0  0
  -36.9520  -10.8930    3.4480 C   0  0  0  0  0  0  0  0  0  0  0  0
  -36.5660   -9.8510    4.3200 C   0  0  0  0  0  3  0  0  0  0  0  0
  -37.2140   -8.6000    4.2490 C   0  0  0  0  0  3  0  0  0  0  0  0
  -38.2370   -8.3890    3.3060 C   0  0  0  0  0  0  0  0  0  0  0  0
  -38.6190   -9.4240    2.4340 C   0  0  0  0  0  3  0  0  0  0  0  0
  -37.9760  -10.6730    2.5050 C   0  0  0  0  0  0  0  0  0  0  0  0
  -38.3320  -11.6600    1.6480 F   0  0  0  0  0  0  0  0  0  0  0  0
  -38.8540   -7.1870    3.2350 F   0  0  0  0  0  0  0  0  0  0  0  0
  -33.0110  -15.0170    8.5380 C   0  0  0  0  0  0  0  0  0  0  0  0
  -32.9860  -13.7530    8.1350 N   0  0  0  0  0  0  0  0  0  0  0  0
  -31.9700  -15.6230    8.7900 O   0  0  0  0  0  0  0  0  0  0  0  0
  -33.8380  -13.2460    7.9440 H   0  0  0  0  0  0  0  0  0  0  0  0
  -32.1000  -13.2810    8.0180 H   0  0  0  0  0  0  0  0  0  0  0  0
  -33.9100  -17.3400   10.5710 N   0  0  0  0  0  0  0  0  0  0  0  0
  -32.9230  -17.1530   10.7120 H   0  0  0  0  0  0  0  0  0  0  0  0
  -34.2540  -18.0930   11.1510 H   0  0  0  0  0  0  0  0  0  0  0  0
  1  3  1  0
  2  8  1  0
  3  2  1  0
  3  6  1  0
  4  1  1  0
  5  2  2  0
  7  4  1  0
  8 10  1  0
  9 13  1  0
  9 10  1  0
 10 12  1  0
 11  9  2  0
 14 15  1  0
 14 13  1  0
 16 14  1  0
 17 14  1  0
 18 17  1  0
 19 18  1  0
 20 19  1  0
 21 32  2  0
 22 20  1  0
 22 27  1  0
 23 33  1  0
 23 31  1  0
 24 26  1  0
 25 31  1  0
 26 27  2  0
 26 25  1  0
 28 22  2  0
 29 28  1  0
 29 24  2  0
 30 24  1  0
 30 23  1  0
 31 21  1  0
 33 35  2  0
 34 33  1  0
 36 34  1  0
 37 42  1  0
 38 34  1  0
 39 38  1  0
 40 41  1  0
 40 39  1  0
 41 37  1  0
 42 38  1  0
 42 43  2  0
 44 43  1  0
 45 44  2  0
 46 37  2  0
 46 45  1  0
 47 21  1  0
 47 48  1  0
 47 57  1  0
 48 51  1  0
 49 48  1  0
 49 53  1  0
 50 49  2  0
 53 52  1  0
 53 55  1  0
 55 56  1  0
 55 54  1  0
 57 58  1  1
 57 60  1  0
 59 57  1  0
 61  4  1  0
 62 61  1  0
 63 62  1  0
 64 63  1  0
 65 67  1  0
 65 64  1  0
 66 64  2  0
 68 74  1  0
 68 65  1  0
 69 70  1  0
 71 69  2  0
 72 73  1  0
 73 70  2  0
 74 71  1  0
 74 72  2  0
 75 73  1  0
 75 76  1  0
 76 78  1  0
 77 75  2  0
 79 86  2  0
 79 87  1  0
 80 85  1  0
 81 80  1  0
 82 81  1  0
 83 82  1  0
 83 84  1  0
 84 85  1  0
 85 79  1  0
 87 76  1  0
 88 87  1  0
 89114  1  0
 90 89  2  0
 91 93  2  0
 91 90  1  0
 92 89  1  0
 92 83  1  0
 93 92  1  0
 94 91  1  0
 95 94  1  0
 96 95  2  0
 97 98  2  0
 97 96  1  0
 98 99  1  0
 99 94  2  0
100101  1  0
100 97  1  0
101102  1  0
103102  2  0
104103  1  0
105106  1  0
105104  2  0
106101  2  0
107106  1  0
108104  1  0
109 90  1  0
109111  2  0
110109  1  0
112110  1  0
113110  1  0
114115  1  0
114116  1  0
M  ISO  4  19 101  20 101  79 100  87 100
M  END
>  <TORSDO>  (39) 
F 30

>  <SCORE>  (39) 
9.885

>  <name>  (39) 
41

>  <ligand_id>  (39) 
41

>  <original_smiles>  (39) 
[H]C(N([H])C(=O)C([H])([H])N([H])C(=O)C([H])([H])[N+]([H])([H])C([H])([H])C([H])([H])C([H])([H])Oc1c([H])c([H])c2c(c1[H])C([H])([H])N(C(=O)C([H])(N([H])C(=O)C([H])(N([H])C([H])([H])[H])C([H])([H])[H])C(C([H])([H])[H])(C([H])([H])[H])C([H])([H])[H])C([H])(C(=O)N([H])C1([H])c3c([H])c([H])c([H])c([H])c3C([H])([H])C([H])([H])C1([H])[H])C2([H])[H])=[N+]([H])C([H])([H])C([H])([H])C([H])([H])C(=O)N([H])C([H])([H])c1c([H])c([H])c([H])c(C(=O)N([H])N([H])C(=O)N2C([H])([H])C([H])([H])C([H])([H])C([H])(n3nc(-c4c([H])c([H])c(Oc5c([H])c([H])c(F)c([H])c5F)c([H])c4[H])c(C(=O)N([H])[H])c3N([H])[H])C2([H])[H])c1[H]

>  <smiles>  (39) 
[H]C(N([H])C(=O)C([H])([H])N([H])C(=O)C([H])([H])[N+]([H])([H])C([H])([H])C([H])([H])C([H])([H])Oc1c([H])c([H])c2c(c1[H])C([H])([H])N(C(=O)C([H])(N([H])C(=O)C([H])(N([H])C([H])([H])[H])C([H])([H])[H])C(C([H])([H])[H])(C([H])([H])[H])C([H])([H])[H])C([H])(C(=O)N([H])C1([H])c3c([H])c([H])c([H])c([H])c3C([H])([H])C([H])([H])C1([H])[H])C2([H])[H])=[N+]([H])C([H])([H])C([H])([H])C([H])([H])C(=O)N([H])C([H])([H])c1c([H])c([H])c([H])c(C(=O)N([H])N([H])C(=O)N2C([H])([H])C([H])([H])C([H])([H])C([H])(n3nc(-c4c([H])c([H])c(Oc5c([H])c([H])c(F)c([H])c5F)c([H])c4[H])c(C(=O)N([H])[H])c3N([H])[H])C2([H])[H])c1[H]

$$$$
42:0:0
     RDKit          3D

110119  0  0  1  0  0  0  0  0999 V2000
  -30.1310  -20.4050   16.1480 N   0  0  0  0  0  0  0  0  0  0  0  0
  -30.2130  -21.1310   15.4420 H   0  0  0  0  0  0  0  0  0  0  0  0
  -32.0020  -20.1190   19.3830 C   0  0  0  0  0  3  0  0  0  0  0  0
  -31.9810  -21.4560   19.8120 C   0  0  0  0  0  3  0  0  0  0  0  0
  -31.3830  -19.7560   18.1750 C   0  0  0  0  0  3  0  0  0  0  0  0
  -31.3270  -22.4450   19.0430 C   0  0  0  0  0  0  0  0  0  0  0  0
  -30.7060  -22.0770   17.8220 C   0  0  0  0  0  0  0  0  0  0  0  0
  -30.7360  -20.7290   17.3750 C   0  0  0  0  0  0  0  0  0  0  0  0
  -31.3580  -23.8840   19.5040 C   0  0  0  0  0  0  0  0  0  0  0  0
  -30.0190  -23.1640   17.0030 C   0  0  0  0  0  2  0  0  0  0  0  0
  -29.5460  -24.3320   17.8790 C   0  0  0  0  0  2  0  0  0  0  0  0
  -30.5590  -24.7640   18.8500 N   0  0  0  0  0  0  0  0  0  0  0  0
  -32.1270  -24.2160   20.4120 O   0  0  0  0  0  0  0  0  0  0  0  0
  -30.7610  -26.2170   18.9690 C   0  0  0  0  0  2  0  0  0  0  0  0
  -29.4610  -27.0240   19.0840 C   0  0  0  0  0  2  0  0  0  0  0  0
  -28.7500  -26.7140   20.2760 O   0  0  0  0  0  0  0  0  0  0  0  0
  -24.6150  -31.6980   23.2380 C   0  0  0  0  0  0  0  0  0  0  0  0
  -27.5470  -27.3680   20.3050 C   0  0  0  0  0  0  0  0  0  0  0  0
  -23.5390  -30.2660   21.5300 C   0  0  0  0  0  3  0  0  0  0  0  0
  -25.1090  -28.7660   20.1970 C   0  0  0  0  0  0  0  0  0  0  0  0
  -26.0560  -30.7010   21.4690 C   0  0  0  0  0  2  0  0  0  0  0  0
  -26.2120  -29.3310   20.8480 C   0  0  0  0  0  0  0  0  0  0  0  0
  -27.4360  -28.6350   20.9100 C   0  0  0  0  0  3  0  0  0  0  0  0
  -26.4310  -26.7950   19.6660 C   0  0  0  0  0  3  0  0  0  0  0  0
  -25.2070  -27.4910   19.6090 C   0  0  0  0  0  3  0  0  0  0  0  0
  -23.8420  -29.5900   20.1660 C   0  0  0  0  0  2  0  0  0  0  0  0
  -24.7520  -30.9040   22.1390 N   0  0  0  0  0  0  0  0  0  0  0  0
  -23.5000  -31.9390   23.7190 O   0  0  0  0  0  0  0  0  0  0  0  0
  -22.8660  -29.2250   22.4540 C   0  0  0  0  0  0  0  0  0  0  0  0
  -21.5490  -29.0350   22.2770 N   0  0  0  0  0  0  0  0  0  0  0  0
  -23.5290  -28.5920   23.2820 O   0  0  0  0  0  0  0  0  0  0  0  0
  -21.0800  -29.5990   21.5840 H   0  0  0  0  0  0  0  0  0  0  0  0
  -18.1640  -27.8370   22.6590 C   0  0  0  0  0  0  0  0  0  0  0  0
  -20.7130  -28.0800   23.0050 C   0  0  0  0  0  3  0  0  0  0  0  0
  -20.8280  -26.6640   22.3980 C   0  0  0  0  0  2  0  0  0  0  0  0
  -19.7530  -26.3690   21.3480 C   0  0  0  0  0  2  0  0  0  0  0  0
  -18.3540  -26.5030   21.9580 C   0  0  0  0  0  2  0  0  0  0  0  0
  -19.2720  -28.5850   23.1370 C   0  0  0  0  0  0  0  0  0  0  0  0
  -19.0410  -29.8360   23.7510 C   0  0  0  0  0  3  0  0  0  0  0  0
  -17.7340  -30.3370   23.8930 C   0  0  0  0  0  3  0  0  0  0  0  0
  -16.6400  -29.5850   23.4320 C   0  0  0  0  0  3  0  0  0  0  0  0
  -16.8540  -28.3370   22.8220 C   0  0  0  0  0  3  0  0  0  0  0  0
  -25.8480  -32.3600   23.9270 C   0  0  0  0  0  3  0  0  0  0  0  0
  -25.4970  -33.7570   24.2110 N   0  0  0  0  0  0  0  0  0  0  0  0
  -25.8580  -34.8000   23.4510 C   0  0  0  0  0  0  0  0  0  0  0  0
  -26.5920  -34.6890   22.4650 O   0  0  0  0  0  0  0  0  0  0  0  0
  -24.8490  -33.9170   24.9680 H   0  0  0  0  0  0  0  0  0  0  0  0
  -24.1200  -36.5490   22.9550 C   0  0  0  0  0  1  0  0  0  0  0  0
  -25.3170  -36.1880   23.8480 C   0  0  0  0  0  3  0  0  0  0  0  0
  -27.3820  -37.1300   24.7840 C   0  0  0  0  0  1  0  0  0  0  0  0
  -26.3350  -37.2580   23.7750 N   0  0  0  0  0  0  0  0  0  0  0  0
  -25.9030  -38.1730   23.8790 H   0  0  0  0  0  0  0  0  0  0  0  0
  -26.2980  -31.6170   25.2450 C   0  0  1  0  0  0  0  0  0  0  0  0
  -25.1450  -31.3790   26.2490 C   0  0  0  0  0  1  0  0  0  0  0  0
  -26.9230  -30.2430   24.9090 C   0  0  0  0  0  1  0  0  0  0  0  0
  -27.3940  -32.4410   25.9630 C   0  0  0  0  0  1  0  0  0  0  0  0
  -30.1490  -19.0290   15.6400 C   0  0  0  0  0  2  0  0  0  0  0  0
  -28.8420  -18.6690   14.9230 C   0  0  0  0  0  2  0  0  0  0  0  0
  -27.7080  -19.2650   15.6470 N   0  0  0  0  0  4  0  0  0  0  0  0
  -27.8650  -20.2610   15.6720 H   0  0  0  0  0  0  0  0  0  0  0  0
  -27.7450  -18.9550   16.6070 H   0  0  0  0  0  0  0  0  0  0  0  0
  -26.3630  -18.9460   15.1240 C   0  0  0  0  0  2  0  0  0  0  0  0
  -25.3070  -19.6190   16.0030 C   0  0  0  0  0  2  0  0  0  0  0  0
  -25.6210  -19.2180   17.3280 O   0  0  0  0  0  0  0  0  0  0  0  0
  -25.1730  -20.1180   18.3310 C   0  0  0  0  0  2  0  0  0  0  0  0
  -25.6290  -19.5200   19.6650 C   0  0  0  0  0  2  0  0  0  0  0  0
  -27.0440  -19.3500   19.6140 O   0  0  0  0  0  0  0  0  0  0  0  0
  -27.4810  -18.2470   20.3960 C   0  0  0  0  0  2  0  0  0  0  0  0
  -29.0070  -18.2400   20.5770 C   0  0  0  0  0  2  0  0  0  0  0  0
  -29.4980  -16.9020   20.6990 O   0  0  0  0  0  0  0  0  0  0  0  0
  -30.5750  -16.7960   21.6300 C   0  0  0  0  0  2  0  0  0  0  0  0
  -31.6050  -15.7530   21.1720 C   0  0  0  0  0  2  0  0  0  0  0  0
  -31.4390  -13.5170   20.1160 C   0  0  0  0  0  0  0  0  0  0  0  0
  -30.7530  -11.6320   18.6940 C   0  0  0  0  0  2  0  0  0  0  0  0
  -29.8000  -12.1380   17.5920 C   0  0  0  0  0  2  0  0  0  0  0  0
  -28.3450  -12.1570   18.0980 C   0  0  0  0  0  2  0  0  0  0  0  0
  -28.1960  -12.8670   19.4740 C   0  0  0  0  0  3  0  0  0  0  0  0
  -29.2470  -12.3310   20.4730 C   0  0  0  0  0  2  0  0  0  0  0  0
  -30.5800  -12.4990   19.8680 N   0  0  0  0  0  0  0  0  0  0  0  0
  -32.5230  -13.6510   19.5410 O   0  0  0  0  0  0  0  0  0  0  0  0
  -30.9860  -14.4480   20.9610 N   0  0  0  0  0  0  0  0  0  0  0  0
  -30.0830  -14.2890   21.3810 H   0  0  0  0  0  0  0  0  0  0  0  0
  -25.8970  -13.7170   20.2560 C   0  0  0  0  0  0  0  0  0  0  0  0
  -24.7660  -13.0650   20.6640 C   0  0  0  0  0  0  0  0  0  0  0  0
  -25.0890  -11.6750   20.6330 C   0  0  0  0  0  0  0  0  0  0  0  0
  -26.8390  -12.7350   19.9990 N   0  0  0  0  0  0  0  0  0  0  0  0
  -26.3570  -11.5000   20.2840 N   0  0  0  0  0  0  0  0  0  0  0  0
  -24.2470  -10.4980   20.8720 C   0  0  0  0  0  0  0  0  0  0  0  0
  -24.6270   -9.4970   21.7930 C   0  0  0  0  0  3  0  0  0  0  0  0
  -23.7950   -8.3800   22.0160 C   0  0  0  0  0  3  0  0  0  0  0  0
  -22.5690   -8.2600   21.3230 C   0  0  0  0  0  0  0  0  0  0  0  0
  -22.2070   -9.2470   20.3910 C   0  0  0  0  0  3  0  0  0  0  0  0
  -23.0370  -10.3570   20.1660 C   0  0  0  0  0  3  0  0  0  0  0  0
  -21.7080   -7.1990   21.4550 O   0  0  0  0  0  0  0  0  0  0  0  0
  -21.6360   -6.4710   22.6160 C   0  0  0  0  0  0  0  0  0  0  0  0
  -21.3520   -7.0740   23.8590 C   0  0  0  0  0  3  0  0  0  0  0  0
  -21.2240   -6.2790   25.0150 C   0  0  0  0  0  3  0  0  0  0  0  0
  -21.3660   -4.8810   24.9280 C   0  0  0  0  0  0  0  0  0  0  0  0
  -21.6400   -4.2780   23.6890 C   0  0  0  0  0  3  0  0  0  0  0  0
  -21.7730   -5.0710   22.5360 C   0  0  0  0  0  0  0  0  0  0  0  0
  -22.0180   -4.4830   21.3410 F   0  0  0  0  0  0  0  0  0  0  0  0
  -21.2340   -4.1140   26.0360 F   0  0  0  0  0  0  0  0  0  0  0  0
  -23.4360  -13.6870   20.9730 C   0  0  0  0  0  0  0  0  0  0  0  0
  -22.6900  -13.1030   21.9040 N   0  0  0  0  0  0  0  0  0  0  0  0
  -23.0720  -14.7250   20.4250 O   0  0  0  0  0  0  0  0  0  0  0  0
  -22.9930  -12.2620   22.3740 H   0  0  0  0  0  0  0  0  0  0  0  0
  -21.7990  -13.5070   22.1510 H   0  0  0  0  0  0  0  0  0  0  0  0
  -26.1950  -15.0570   20.0720 N   0  0  0  0  0  0  0  0  0  0  0  0
  -25.5190  -15.7900   20.2540 H   0  0  0  0  0  0  0  0  0  0  0  0
  -27.1050  -15.3950   19.7850 H   0  0  0  0  0  0  0  0  0  0  0  0
  1  8  1  0
  2  1  1  0
  3  4  1  0
  5  3  2  0
  6  9  1  0
  6  4  2  0
  7  6  1  0
  8  7  2  0
  8  5  1  0
  9 13  2  0
 10  7  1  0
 10 11  1  0
 11 12  1  0
 12 14  1  0
 12  9  1  0
 14 15  1  0
 15 16  1  0
 16 18  1  0
 17 28  2  0
 18 23  1  0
 19 27  1  0
 19 29  1  0
 20 22  1  0
 21 27  1  0
 22 23  2  0
 22 21  1  0
 24 18  2  0
 25 24  1  0
 25 20  2  0
 26 20  1  0
 26 19  1  0
 27 17  1  0
 29 31  2  0
 30 29  1  0
 32 30  1  0
 33 42  2  0
 33 38  1  0
 34 30  1  0
 34 38  1  0
 35 34  1  0
 36 37  1  0
 36 35  1  0
 37 33  1  0
 38 39  2  0
 39 40  1  0
 41 40  2  0
 42 41  1  0
 43 17  1  0
 43 44  1  0
 43 53  1  0
 44 47  1  0
 45 49  1  0
 45 44  1  0
 46 45  2  0
 49 48  1  0
 51 49  1  0
 51 52  1  0
 51 50  1  0
 53 56  1  1
 53 54  1  0
 55 53  1  0
 57  1  1  0
 58 57  1  0
 58 59  1  0
 59 60  1  0
 59 61  1  0
 62 59  1  0
 62 63  1  0
 63 64  1  0
 64 65  1  0
 65 66  1  0
 67 66  1  0
 67 68  1  0
 68 69  1  0
 69 70  1  0
 70 71  1  0
 72 71  1  0
 73 81  1  0
 74 79  1  0
 75 76  1  0
 75 74  1  0
 77 76  1  0
 77 86  1  0
 77 78  1  0
 79 73  1  0
 79 78  1  0
 80 73  2  0
 81 72  1  0
 81 82  1  0
 83 84  2  0
 84103  1  0
 85 84  1  0
 85 88  1  0
 86 83  1  0
 86 87  1  0
 87 85  2  0
 88 89  1  0
 89 90  2  0
 91 94  1  0
 91 90  1  0
 92 91  2  0
 93 92  1  0
 93 88  2  0
 94 95  1  0
 95 96  1  0
 96 97  2  0
 98 97  1  0
 98102  1  0
 99 98  2  0
100 95  2  0
100 99  1  0
101100  1  0
103104  1  0
104107  1  0
104106  1  0
105103  2  0
108109  1  0
108 83  1  0
110108  1  0
M  ISO  4  15 101  16 101  73 100  81 100
M  END
>  <TORSDO>  (40) 
F 33

>  <SCORE>  (40) 
-6.250

>  <name>  (40) 
42

>  <ligand_id>  (40) 
42

>  <original_smiles>  (40) 
[H]c1c([H])c2c(c(N([H])C([H])([H])C([H])([H])[N+]([H])([H])C([H])([H])C([H])([H])OC([H])([H])C([H])([H])OC([H])([H])C([H])([H])OC([H])([H])C([H])([H])N([H])C(=O)N3C([H])([H])C([H])([H])C([H])([H])C([H])(n4nc(-c5c([H])c([H])c(Oc6c([H])c([H])c(F)c([H])c6F)c([H])c5[H])c(C(=O)N([H])[H])c4N([H])[H])C3([H])[H])c1[H])C([H])([H])C([H])([H])N(C([H])([H])C([H])([H])Oc1c([H])c([H])c3c(c1[H])C([H])([H])N(C(=O)C([H])(N([H])C(=O)C([H])(N([H])C([H])([H])[H])C([H])([H])[H])C(C([H])([H])[H])(C([H])([H])[H])C([H])([H])[H])C([H])(C(=O)N([H])C1([H])c4c([H])c([H])c([H])c([H])c4C([H])([H])C([H])([H])C1([H])[H])C3([H])[H])C2=O

>  <smiles>  (40) 
[H]c1c([H])c2c(c(N([H])C([H])([H])C([H])([H])[N+]([H])([H])C([H])([H])C([H])([H])OC([H])([H])C([H])([H])OC([H])([H])C([H])([H])OC([H])([H])C([H])([H])N([H])C(=O)N3C([H])([H])C([H])([H])C([H])([H])C([H])(n4nc(-c5c([H])c([H])c(Oc6c([H])c([H])c(F)c([H])c6F)c([H])c5[H])c(C(=O)N([H])[H])c4N([H])[H])C3([H])[H])c1[H])C([H])([H])C([H])([H])N(C([H])([H])C([H])([H])Oc1c([H])c([H])c3c(c1[H])C([H])([H])N(C(=O)C([H])(N([H])C(=O)C([H])(N([H])C([H])([H])[H])C([H])([H])[H])C(C([H])([H])[H])(C([H])([H])[H])C([H])([H])[H])C([H])(C(=O)N([H])C1([H])c4c([H])c([H])c([H])c([H])c4C([H])([H])C([H])([H])C1([H])[H])C3([H])[H])C2=O

$$$$
43:0:0
     RDKit          3D

111118  0  0  1  0  0  0  0  0999 V2000
  -29.1490  -17.3360   26.1990 C   0  0  0  0  0  2  0  0  0  0  0  0
  -28.9160  -15.9790   25.8300 O   0  0  0  0  0  0  0  0  0  0  0  0
  -28.0020  -15.3380   26.7170 C   0  0  0  0  0  2  0  0  0  0  0  0
  -27.6560  -13.9130   26.2400 C   0  0  0  0  0  2  0  0  0  0  0  0
  -28.7820  -12.8940   26.4860 C   0  0  0  0  0  2  0  0  0  0  0  0
  -28.5140  -11.5710   25.8740 N   0  0  0  0  0  4  0  0  0  0  0  0
  -28.2250  -11.6700   24.9150 H   0  0  0  0  0  0  0  0  0  0  0  0
  -27.7600  -11.1260   26.3780 H   0  0  0  0  0  0  0  0  0  0  0  0
  -29.6700  -10.6520   25.8780 C   0  0  0  0  0  2  0  0  0  0  0  0
  -30.6190  -10.9010   24.6910 C   0  0  0  0  0  2  0  0  0  0  0  0
  -30.4780  -11.1930   22.2570 C   0  0  0  0  0  0  0  0  0  0  0  0
  -30.7240  -12.5050   22.1360 N   0  0  0  0  0  0  0  0  0  0  0  0
  -29.9290  -10.7820   23.4070 N   0  0  0  0  0  0  0  0  0  0  0  0
  -30.7100  -10.4130   21.3420 O   0  0  0  0  0  0  0  0  0  0  0  0
  -31.1920  -12.7660   21.2800 H   0  0  0  0  0  0  0  0  0  0  0  0
  -29.5140   -9.8640   23.2940 H   0  0  0  0  0  0  0  0  0  0  0  0
  -30.1180  -13.6300   22.8550 C   0  0  0  0  0  2  0  0  0  0  0  0
  -30.1100  -14.9350   22.0270 C   0  0  0  0  0  2  0  0  0  0  0  0
  -30.3650  -14.4770   19.5130 C   0  0  0  0  0  0  0  0  0  0  0  0
  -29.7500  -12.4670   18.2540 C   0  0  0  0  0  2  0  0  0  0  0  0
  -28.6660  -12.7320   17.1950 C   0  0  0  0  0  2  0  0  0  0  0  0
  -27.2680  -12.5530   17.8110 C   0  0  0  0  0  2  0  0  0  0  0  0
  -27.0980  -13.3880   19.1050 C   0  0  0  0  0  3  0  0  0  0  0  0
  -28.2740  -13.1280   20.0710 C   0  0  0  0  0  2  0  0  0  0  0  0
  -29.5620  -13.3840   19.3910 N   0  0  0  0  0  0  0  0  0  0  0  0
  -31.0750  -14.8960   18.6020 O   0  0  0  0  0  0  0  0  0  0  0  0
  -30.7800  -14.8240   20.7370 N   0  0  0  0  0  0  0  0  0  0  0  0
  -31.6090  -15.3950   20.6800 H   0  0  0  0  0  0  0  0  0  0  0  0
  -24.8040  -14.0040   20.1110 C   0  0  0  0  0  0  0  0  0  0  0  0
  -23.7760  -13.2360   20.5860 C   0  0  0  0  0  0  0  0  0  0  0  0
  -24.2120  -11.8810   20.4730 C   0  0  0  0  0  0  0  0  0  0  0  0
  -25.8050  -13.1190   19.7370 N   0  0  0  0  0  0  0  0  0  0  0  0
  -25.4550  -11.8340   20.0120 N   0  0  0  0  0  0  0  0  0  0  0  0
  -23.5010  -10.6230   20.7220 C   0  0  0  0  0  0  0  0  0  0  0  0
  -24.0490   -9.6120   21.5410 C   0  0  0  0  0  3  0  0  0  0  0  0
  -23.3340   -8.4200   21.7840 C   0  0  0  0  0  3  0  0  0  0  0  0
  -22.0540   -8.2310   21.2090 C   0  0  0  0  0  0  0  0  0  0  0  0
  -21.5240   -9.2300   20.3740 C   0  0  0  0  0  3  0  0  0  0  0  0
  -22.2410  -10.4120   20.1300 C   0  0  0  0  0  3  0  0  0  0  0  0
  -21.2970   -7.0950   21.3690 O   0  0  0  0  0  0  0  0  0  0  0  0
  -21.4410   -6.2820   22.4650 C   0  0  0  0  0  0  0  0  0  0  0  0
  -21.2920   -6.7740   23.7820 C   0  0  0  0  0  3  0  0  0  0  0  0
  -21.3800   -5.8910   24.8770 C   0  0  0  0  0  3  0  0  0  0  0  0
  -21.6010   -4.5180   24.6610 C   0  0  0  0  0  0  0  0  0  0  0  0
  -21.7370   -4.0260   23.3510 C   0  0  0  0  0  3  0  0  0  0  0  0
  -21.6560   -4.9050   22.2580 C   0  0  0  0  0  0  0  0  0  0  0  0
  -21.7730   -4.4220   20.9960 F   0  0  0  0  0  0  0  0  0  0  0  0
  -21.6750   -3.6690   25.7120 F   0  0  0  0  0  0  0  0  0  0  0  0
  -22.4260  -13.7240   21.0300 C   0  0  0  0  0  0  0  0  0  0  0  0
  -21.7910  -13.0220   21.9600 N   0  0  0  0  0  0  0  0  0  0  0  0
  -21.9450  -14.7650   20.5810 O   0  0  0  0  0  0  0  0  0  0  0  0
  -22.1870  -12.1790   22.3480 H   0  0  0  0  0  0  0  0  0  0  0  0
  -20.8820  -13.3270   22.2770 H   0  0  0  0  0  0  0  0  0  0  0  0
  -24.9610  -15.3780   19.9460 N   0  0  0  0  0  0  0  0  0  0  0  0
  -24.2080  -16.0280   20.1490 H   0  0  0  0  0  0  0  0  0  0  0  0
  -25.7710  -15.8250   19.5350 H   0  0  0  0  0  0  0  0  0  0  0  0
  -30.1070  -18.0150   25.2110 C   0  0  0  0  0  2  0  0  0  0  0  0
  -30.6380  -19.3640   25.7270 C   0  0  0  0  0  2  0  0  0  0  0  0
  -31.4780  -20.1170   24.6790 C   0  0  0  0  0  2  0  0  0  0  0  0
  -30.3610  -22.1710   23.8420 C   0  0  0  0  0  0  0  0  0  0  0  0
  -30.6410  -20.8660   23.7410 N   0  0  0  0  0  0  0  0  0  0  0  0
  -30.7650  -22.8650   24.7800 O   0  0  0  0  0  0  0  0  0  0  0  0
  -30.2860  -20.3640   22.9370 H   0  0  0  0  0  0  0  0  0  0  0  0
  -29.5330  -22.8150   22.7330 C   0  0  0  0  0  2  0  0  0  0  0  0
  -29.2800  -24.2280   23.0740 N   0  0  0  0  0  4  0  0  0  0  0  0
  -30.1790  -24.5770   23.3740 H   0  0  0  0  0  0  0  0  0  0  0  0
  -28.6820  -24.2590   23.8830 H   0  0  0  0  0  0  0  0  0  0  0  0
  -28.7470  -25.0760   21.9850 C   0  0  0  0  0  2  0  0  0  0  0  0
  -28.7560  -26.5700   22.3710 C   0  0  0  0  0  2  0  0  0  0  0  0
  -27.6020  -27.0020   23.2940 C   0  0  0  0  0  2  0  0  0  0  0  0
  -27.9920  -28.2080   23.9430 O   0  0  0  0  0  0  0  0  0  0  0  0
  -27.9520  -31.9130   30.0030 C   0  0  0  0  0  0  0  0  0  0  0  0
  -27.2160  -28.7020   24.9690 C   0  0  0  0  0  0  0  0  0  0  0  0
  -25.8090  -30.8340   29.3990 C   0  0  0  0  0  3  0  0  0  0  0  0
  -25.6850  -29.8580   27.0480 C   0  0  0  0  0  0  0  0  0  0  0  0
  -27.4830  -31.5100   27.5890 C   0  0  0  0  0  2  0  0  0  0  0  0
  -26.9610  -30.3560   26.7600 C   0  0  0  0  0  0  0  0  0  0  0  0
  -27.7250  -29.7840   25.7200 C   0  0  0  0  0  3  0  0  0  0  0  0
  -25.9330  -28.1970   25.2870 C   0  0  0  0  0  3  0  0  0  0  0  0
  -25.1680  -28.7740   26.3180 C   0  0  0  0  0  3  0  0  0  0  0  0
  -24.9210  -30.5360   28.1630 C   0  0  0  0  0  2  0  0  0  0  0  0
  -27.1370  -31.4210   29.0260 N   0  0  0  0  0  0  0  0  0  0  0  0
  -27.5970  -31.9240   31.1890 O   0  0  0  0  0  0  0  0  0  0  0  0
  -25.9250  -29.5430   30.2410 C   0  0  0  0  0  0  0  0  0  0  0  0
  -24.9000  -29.2750   31.0670 N   0  0  0  0  0  0  0  0  0  0  0  0
  -26.9010  -28.7960   30.1250 O   0  0  0  0  0  0  0  0  0  0  0  0
  -24.1410  -29.9390   31.1090 H   0  0  0  0  0  0  0  0  0  0  0  0
  -22.8050  -27.7010   33.5530 C   0  0  0  0  0  0  0  0  0  0  0  0
  -24.7730  -28.0980   31.9260 C   0  0  0  0  0  3  0  0  0  0  0  0
  -24.2300  -26.8870   31.1330 C   0  0  0  0  0  2  0  0  0  0  0  0
  -22.7050  -26.7510   31.2090 C   0  0  0  0  0  2  0  0  0  0  0  0
  -22.2520  -26.6000   32.6640 C   0  0  0  0  0  2  0  0  0  0  0  0
  -23.9800  -28.4150   33.1980 C   0  0  0  0  0  0  0  0  0  0  0  0
  -24.4320  -29.4530   34.0410 C   0  0  0  0  0  3  0  0  0  0  0  0
  -23.7350  -29.7790   35.2190 C   0  0  0  0  0  3  0  0  0  0  0  0
  -22.5810  -29.0590   35.5740 C   0  0  0  0  0  3  0  0  0  0  0  0
  -22.1220  -28.0200   34.7450 C   0  0  0  0  0  3  0  0  0  0  0  0
  -29.3560  -32.5090   29.6720 C   0  0  0  0  0  3  0  0  0  0  0  0
  -30.5370  -31.4940   29.9290 C   0  0  1  0  0  0  0  0  0  0  0  0
  -30.5110  -30.8520   31.3360 C   0  0  0  0  0  1  0  0  0  0  0  0
  -30.5110  -30.3530   28.8860 C   0  0  0  0  0  1  0  0  0  0  0  0
  -31.8950  -32.2170   29.7590 C   0  0  0  0  0  1  0  0  0  0  0  0
  -29.5250  -33.7200   30.4860 N   0  0  0  0  0  0  0  0  0  0  0  0
  -29.3370  -34.9690   30.0380 C   0  0  0  0  0  0  0  0  0  0  0  0
  -29.0710  -35.2250   28.8610 O   0  0  0  0  0  0  0  0  0  0  0  0
  -29.6890  -33.5830   31.4730 H   0  0  0  0  0  0  0  0  0  0  0  0
  -28.0660  -36.5640   31.5070 C   0  0  0  0  0  1  0  0  0  0  0  0
  -29.4660  -36.1160   31.0590 C   0  0  0  0  0  3  0  0  0  0  0  0
  -31.6380  -36.9990   30.3340 C   0  0  0  0  0  1  0  0  0  0  0  0
  -30.2210  -37.2790   30.5440 N   0  0  0  0  0  0  0  0  0  0  0  0
  -30.1440  -38.0680   31.1800 H   0  0  0  0  0  0  0  0  0  0  0  0
  2  1  1  0
  2  3  1  0
  4  5  1  0
  4  3  1  0
  6  9  1  0
  6  8  1  0
  6  5  1  0
  7  6  1  0
 10  9  1  0
 11 13  1  0
 12 11  1  0
 12 17  1  0
 13 10  1  0
 14 11  2  0
 15 12  1  0
 16 13  1  0
 18 17  1  0
 19 27  1  0
 20 25  1  0
 21 22  1  0
 21 20  1  0
 23 22  1  0
 23 32  1  0
 23 24  1  0
 25 19  1  0
 25 24  1  0
 26 19  2  0
 27 18  1  0
 28 27  1  0
 29 30  2  0
 30 49  1  0
 31 30  1  0
 31 34  1  0
 32 33  1  0
 32 29  1  0
 33 31  2  0
 34 35  1  0
 35 36  2  0
 37 40  1  0
 37 36  1  0
 38 37  2  0
 39 38  1  0
 39 34  2  0
 40 41  1  0
 41 42  1  0
 42 43  2  0
 44 43  1  0
 44 48  1  0
 45 44  2  0
 46 41  2  0
 46 45  1  0
 47 46  1  0
 49 50  1  0
 50 53  1  0
 50 52  1  0
 51 49  2  0
 54 29  1  0
 54 55  1  0
 56 54  1  0
 57 58  1  0
 57  1  1  0
 59 58  1  0
 60 62  2  0
 61 60  1  0
 61 59  1  0
 63 61  1  0
 64 65  1  0
 64 60  1  0
 65 66  1  0
 65 67  1  0
 68 69  1  0
 68 65  1  0
 69 70  1  0
 70 71  1  0
 71 73  1  0
 72 83  2  0
 73 79  2  0
 73 78  1  0
 74 84  1  0
 75 81  1  0
 76 82  1  0
 77 75  1  0
 77 76  1  0
 78 77  2  0
 79 80  1  0
 80 75  2  0
 81 74  1  0
 82 74  1  0
 82 72  1  0
 84 85  1  0
 85 87  1  0
 86 84  2  0
 88 97  1  0
 89 85  1  0
 89 93  1  0
 90 91  1  0
 90 89  1  0
 91 92  1  0
 92 88  1  0
 93 88  2  0
 93 94  1  0
 94 95  2  0
 95 96  1  0
 97 96  2  0
 98 99  1  0
 98 72  1  0
 98103  1  0
 99100  1  1
101 99  1  0
102 99  1  0
103106  1  0
104103  1  0
104108  1  0
105104  2  0
108107  1  0
109110  1  0
110108  1  0
110111  1  0
M  ISO  4  19 100  27 100  70 101  71 101
M  END
>  <TORSDO>  (41) 
F 35

>  <SCORE>  (41) 
28.584

>  <name>  (41) 
43

>  <ligand_id>  (41) 
43

>  <original_smiles>  (41) 
[H]c1c([H])c([H])c2c(c1[H])C([H])([H])C([H])([H])C([H])([H])C2([H])N([H])C(=O)C1([H])N(C(=O)C([H])(N([H])C(=O)C([H])(N([H])C([H])([H])[H])C([H])([H])[H])C(C([H])([H])[H])(C([H])([H])[H])C([H])([H])[H])C([H])([H])c2c([H])c(OC([H])([H])C([H])([H])C([H])([H])[N+]([H])([H])C([H])([H])C(=O)N([H])C([H])([H])C([H])([H])C([H])([H])C([H])([H])OC([H])([H])C([H])([H])C([H])([H])[N+]([H])([H])C([H])([H])C([H])([H])N([H])C(=O)N([H])C([H])([H])C([H])([H])N([H])C(=O)N3C([H])([H])C([H])([H])C([H])([H])C([H])(n4nc(-c5c([H])c([H])c(Oc6c([H])c([H])c(F)c([H])c6F)c([H])c5[H])c(C(=O)N([H])[H])c4N([H])[H])C3([H])[H])c([H])c([H])c2C1([H])[H]

>  <smiles>  (41) 
[H]c1c([H])c([H])c2c(c1[H])C([H])([H])C([H])([H])C([H])([H])C2([H])N([H])C(=O)C1([H])N(C(=O)C([H])(N([H])C(=O)C([H])(N([H])C([H])([H])[H])C([H])([H])[H])C(C([H])([H])[H])(C([H])([H])[H])C([H])([H])[H])C([H])([H])c2c([H])c(OC([H])([H])C([H])([H])C([H])([H])[N+]([H])([H])C([H])([H])C(=O)N([H])C([H])([H])C([H])([H])C([H])([H])C([H])([H])OC([H])([H])C([H])([H])C([H])([H])[N+]([H])([H])C([H])([H])C([H])([H])N([H])C(=O)N([H])C([H])([H])C([H])([H])N([H])C(=O)N3C([H])([H])C([H])([H])C([H])([H])C([H])(n4nc(-c5c([H])c([H])c(Oc6c([H])c([H])c(F)c([H])c6F)c([H])c5[H])c(C(=O)N([H])[H])c4N([H])[H])C3([H])[H])c([H])c([H])c2C1([H])[H]

$$$$
44:0:0
     RDKit          3D

114121  0  0  1  0  0  0  0  0999 V2000
  -26.0350  -19.3600   18.2100 C   0  0  0  0  0  2  0  0  0  0  0  0
  -26.0320  -20.8530   17.8240 C   0  0  0  0  0  2  0  0  0  0  0  0
  -27.0120  -21.2080   16.6890 C   0  0  0  0  0  2  0  0  0  0  0  0
  -29.4260  -20.9740   17.2650 C   0  0  0  0  0  0  0  0  0  0  0  0
  -28.2660  -20.4740   16.8270 N   0  0  0  0  0  0  0  0  0  0  0  0
  -29.6140  -22.1800   17.4380 O   0  0  0  0  0  0  0  0  0  0  0  0
  -28.2230  -19.4770   16.6650 H   0  0  0  0  0  0  0  0  0  0  0  0
  -30.5260  -19.9600   17.5960 C   0  0  0  0  0  2  0  0  0  0  0  0
  -31.3670  -20.3500   18.8320 C   0  0  0  0  0  2  0  0  0  0  0  0
  -30.5420  -20.5690   20.1160 C   0  0  0  0  0  2  0  0  0  0  0  0
  -31.3900  -21.1200   21.2760 C   0  0  0  0  0  2  0  0  0  0  0  0
  -30.5670  -21.5660   22.4990 C   0  0  0  0  0  2  0  0  0  0  0  0
  -29.5390  -23.7590   21.8850 C   0  0  0  0  0  0  0  0  0  0  0  0
  -29.4630  -22.4430   22.1180 N   0  0  0  0  0  0  0  0  0  0  0  0
  -30.5790  -24.4080   22.0470 O   0  0  0  0  0  0  0  0  0  0  0  0
  -28.5640  -22.0020   21.9730 H   0  0  0  0  0  0  0  0  0  0  0  0
  -28.2590  -24.4330   21.3800 C   0  0  0  0  0  2  0  0  0  0  0  0
  -28.2560  -25.8180   21.7270 O   0  0  0  0  0  0  0  0  0  0  0  0
  -24.4110  -31.5470   23.4240 C   0  0  0  0  0  0  0  0  0  0  0  0
  -27.1110  -26.5420   21.4660 C   0  0  0  0  0  0  0  0  0  0  0  0
  -23.3160  -29.9380   21.8990 C   0  0  0  0  0  3  0  0  0  0  0  0
  -24.8220  -28.1190   20.9440 C   0  0  0  0  0  0  0  0  0  0  0  0
  -25.8650  -30.1480   21.9630 C   0  0  0  0  0  2  0  0  0  0  0  0
  -25.9350  -28.6870   21.5750 C   0  0  0  0  0  0  0  0  0  0  0  0
  -27.0790  -27.9040   21.8370 C   0  0  0  0  0  3  0  0  0  0  0  0
  -25.9720  -25.9830   20.8350 C   0  0  0  0  0  3  0  0  0  0  0  0
  -24.8350  -26.7650   20.5750 C   0  0  0  0  0  3  0  0  0  0  0  0
  -23.6380  -29.0220   20.6890 C   0  0  0  0  0  2  0  0  0  0  0  0
  -24.5430  -30.5670   22.4850 N   0  0  0  0  0  0  0  0  0  0  0  0
  -23.2940  -31.9540   23.7730 O   0  0  0  0  0  0  0  0  0  0  0  0
  -22.4950  -29.1240   22.9240 C   0  0  0  0  0  0  0  0  0  0  0  0
  -21.1830  -28.9900   22.6670 N   0  0  0  0  0  0  0  0  0  0  0  0
  -23.0400  -28.6090   23.9040 O   0  0  0  0  0  0  0  0  0  0  0  0
  -20.8120  -29.4510   21.8480 H   0  0  0  0  0  0  0  0  0  0  0  0
  -17.6850  -28.1450   22.9810 C   0  0  0  0  0  0  0  0  0  0  0  0
  -20.2220  -28.2370   23.4710 C   0  0  0  0  0  3  0  0  0  0  0  0
  -20.2440  -26.7350   23.1040 C   0  0  0  0  0  2  0  0  0  0  0  0
  -19.2120  -26.3590   22.0360 C   0  0  0  0  0  2  0  0  0  0  0  0
  -17.7960  -26.7030   22.5120 C   0  0  0  0  0  2  0  0  0  0  0  0
  -18.8270  -28.8690   23.4150 C   0  0  0  0  0  0  0  0  0  0  0  0
  -18.6750  -30.2180   23.8020 C   0  0  0  0  0  3  0  0  0  0  0  0
  -17.4140  -30.8410   23.7650 C   0  0  0  0  0  3  0  0  0  0  0  0
  -16.2840  -30.1130   23.3550 C   0  0  0  0  0  3  0  0  0  0  0  0
  -16.4200  -28.7680   22.9670 C   0  0  0  0  0  3  0  0  0  0  0  0
  -25.6540  -32.2170   24.0880 C   0  0  0  0  0  3  0  0  0  0  0  0
  -25.3690  -33.6520   24.2180 N   0  0  0  0  0  0  0  0  0  0  0  0
  -25.7930  -34.5930   23.3630 C   0  0  0  0  0  0  0  0  0  0  0  0
  -26.5400  -34.3460   22.4100 O   0  0  0  0  0  0  0  0  0  0  0  0
  -24.7200  -33.9190   24.9440 H   0  0  0  0  0  0  0  0  0  0  0  0
  -24.1390  -36.3500   22.6610 C   0  0  0  0  0  1  0  0  0  0  0  0
  -25.3130  -36.0370   23.6020 C   0  0  0  0  0  3  0  0  0  0  0  0
  -27.4140  -36.9790   24.4530 C   0  0  0  0  0  1  0  0  0  0  0  0
  -26.3780  -37.0500   23.4280 N   0  0  0  0  0  0  0  0  0  0  0  0
  -25.9860  -37.9890   23.4380 H   0  0  0  0  0  0  0  0  0  0  0  0
  -26.0230  -31.5920   25.4890 C   0  0  1  0  0  0  0  0  0  0  0  0
  -24.8240  -31.4840   26.4600 C   0  0  0  0  0  1  0  0  0  0  0  0
  -26.6150  -30.1730   25.3140 C   0  0  0  0  0  1  0  0  0  0  0  0
  -27.1180  -32.4430   26.1750 C   0  0  0  0  0  1  0  0  0  0  0  0
  -25.1400  -19.0500   19.4210 C   0  0  0  0  0  2  0  0  0  0  0  0
  -25.3890  -17.6510   20.0160 C   0  0  0  0  0  2  0  0  0  0  0  0
  -24.3220  -17.2670   21.0580 C   0  0  0  0  0  2  0  0  0  0  0  0
  -24.6280  -15.9680   21.8270 C   0  0  0  0  0  2  0  0  0  0  0  0
  -25.4570  -16.7230   24.0330 C   0  0  0  0  0  0  0  0  0  0  0  0
  -25.6570  -16.1380   22.8490 N   0  0  0  0  0  0  0  0  0  0  0  0
  -26.4960  -16.6060   24.8600 N   0  0  0  0  0  0  0  0  0  0  0  0
  -24.4100  -17.2900   24.3470 O   0  0  0  0  0  0  0  0  0  0  0  0
  -26.5420  -15.6860   22.6780 H   0  0  0  0  0  0  0  0  0  0  0  0
  -27.3450  -16.1740   24.5220 H   0  0  0  0  0  0  0  0  0  0  0  0
  -26.5530  -17.1650   26.2100 C   0  0  0  0  0  2  0  0  0  0  0  0
  -27.4710  -18.3910   26.2220 C   0  0  0  0  0  2  0  0  0  0  0  0
  -28.7020  -17.9990   25.6290 O   0  0  0  0  0  0  0  0  0  0  0  0
  -29.4390  -19.0860   25.0910 C   0  0  0  0  0  2  0  0  0  0  0  0
  -30.6280  -18.5240   24.3090 C   0  0  0  0  0  2  0  0  0  0  0  0
  -30.1330  -17.7140   23.2510 O   0  0  0  0  0  0  0  0  0  0  0  0
  -31.1430  -17.3490   22.3240 C   0  0  0  0  0  2  0  0  0  0  0  0
  -30.4870  -16.5760   21.1730 C   0  0  0  0  0  2  0  0  0  0  0  0
  -30.9690  -14.1570   21.3290 C   0  0  0  0  0  0  0  0  0  0  0  0
  -30.9090  -11.8880   20.3960 C   0  0  0  0  0  2  0  0  0  0  0  0
  -30.1560  -11.9670   19.0520 C   0  0  0  0  0  2  0  0  0  0  0  0
  -28.6380  -11.8030   19.2680 C   0  0  0  0  0  2  0  0  0  0  0  0
  -28.0880  -12.7180   20.3950 C   0  0  0  0  0  3  0  0  0  0  0  0
  -28.9790  -12.6430   21.6600 C   0  0  0  0  0  2  0  0  0  0  0  0
  -30.3630  -12.9440   21.2580 N   0  0  0  0  0  0  0  0  0  0  0  0
  -32.1460  -14.3520   21.0160 O   0  0  0  0  0  0  0  0  0  0  0  0
  -30.1530  -15.1940   21.5360 N   0  0  0  0  0  0  0  0  0  0  0  0
  -29.1940  -14.9960   21.7760 H   0  0  0  0  0  0  0  0  0  0  0  0
  -25.5900  -13.2610   20.7250 C   0  0  0  0  0  0  0  0  0  0  0  0
  -24.5090  -12.4650   20.9930 C   0  0  0  0  0  0  0  0  0  0  0  0
  -25.0160  -11.1340   21.1020 C   0  0  0  0  0  0  0  0  0  0  0  0
  -26.6890  -12.4130   20.6940 N   0  0  0  0  0  0  0  0  0  0  0  0
  -26.3370  -11.1320   20.9740 N   0  0  0  0  0  0  0  0  0  0  0  0
  -24.3130   -9.8560   21.2640 C   0  0  0  0  0  0  0  0  0  0  0  0
  -24.6590   -8.9490   22.2920 C   0  0  0  0  0  3  0  0  0  0  0  0
  -23.9590   -7.7330   22.4410 C   0  0  0  0  0  3  0  0  0  0  0  0
  -22.8960   -7.4150   21.5610 C   0  0  0  0  0  0  0  0  0  0  0  0
  -22.5710   -8.3080   20.5240 C   0  0  0  0  0  3  0  0  0  0  0  0
  -23.2740   -9.5160   20.3740 C   0  0  0  0  0  3  0  0  0  0  0  0
  -22.1730   -6.2460   21.6170 O   0  0  0  0  0  0  0  0  0  0  0  0
  -21.9830   -5.5720   22.7960 C   0  0  0  0  0  0  0  0  0  0  0  0
  -21.3840   -6.1850   23.9180 C   0  0  0  0  0  3  0  0  0  0  0  0
  -21.1470   -5.4340   25.0880 C   0  0  0  0  0  3  0  0  0  0  0  0
  -21.4980   -4.0730   25.1340 C   0  0  0  0  0  0  0  0  0  0  0  0
  -22.0870   -3.4580   24.0160 C   0  0  0  0  0  3  0  0  0  0  0  0
  -22.3280   -4.2040   22.8490 C   0  0  0  0  0  0  0  0  0  0  0  0
  -22.8770   -3.6030   21.7660 F   0  0  0  0  0  0  0  0  0  0  0  0
  -21.2620   -3.3500   26.2530 F   0  0  0  0  0  0  0  0  0  0  0  0
  -23.0720  -12.8980   21.0440 C   0  0  0  0  0  0  0  0  0  0  0  0
  -22.2590  -12.2370   21.8610 N   0  0  0  0  0  0  0  0  0  0  0  0
  -22.6700  -13.8590   20.3880 O   0  0  0  0  0  0  0  0  0  0  0  0
  -22.5890  -11.4540   22.4070 H   0  0  0  0  0  0  0  0  0  0  0  0
  -21.2910  -12.5120   21.9390 H   0  0  0  0  0  0  0  0  0  0  0  0
  -25.7270  -14.6230   20.4870 N   0  0  0  0  0  0  0  0  0  0  0  0
  -24.9170  -15.2220   20.3790 H   0  0  0  0  0  0  0  0  0  0  0  0
  -26.5870  -15.0660   20.1930 H   0  0  0  0  0  0  0  0  0  0  0  0
  1 59  1  0
  2  1  1  0
  3  5  1  0
  3  2  1  0
  4  6  2  0
  4  8  1  0
  5  4  1  0
  7  5  1  0
  8  9  1  0
  9 10  1  0
 10 11  1  0
 11 12  1  0
 13 15  2  0
 13 14  1  0
 14 12  1  0
 16 14  1  0
 17 18  1  0
 17 13  1  0
 19 30  2  0
 20 18  1  0
 20 25  1  0
 21 29  1  0
 21 31  1  0
 22 24  1  0
 23 29  1  0
 24 25  2  0
 24 23  1  0
 26 20  2  0
 27 26  1  0
 27 22  2  0
 28 22  1  0
 28 21  1  0
 29 19  1  0
 31 33  2  0
 32 31  1  0
 34 32  1  0
 35 40  1  0
 36 32  1  0
 37 36  1  0
 38 39  1  0
 38 37  1  0
 39 35  1  0
 40 36  1  0
 40 41  2  0
 42 41  1  0
 43 42  2  0
 44 35  2  0
 44 43  1  0
 45 19  1  0
 45 46  1  0
 45 55  1  0
 46 49  1  0
 47 51  1  0
 47 46  1  0
 48 47  2  0
 51 50  1  0
 53 54  1  0
 53 51  1  0
 53 52  1  0
 55 58  1  1
 55 56  1  0
 57 55  1  0
 59 60  1  0
 60 61  1  0
 61 62  1  0
 62 64  1  0
 63 66  2  0
 63 65  1  0
 64 63  1  0
 65 69  1  0
 67 64  1  0
 68 65  1  0
 69 70  1  0
 71 70  1  0
 72 71  1  0
 73 72  1  0
 74 73  1  0
 75 74  1  0
 76 85  1  0
 76 75  1  0
 77 85  1  0
 78 83  1  0
 79 80  1  0
 79 78  1  0
 81 80  1  0
 81 90  1  0
 81 82  1  0
 83 77  1  0
 83 82  1  0
 84 77  2  0
 85 86  1  0
 87 88  2  0
 88107  1  0
 88 89  1  0
 89 92  1  0
 90 87  1  0
 90 91  1  0
 91 89  2  0
 92 93  1  0
 93 94  2  0
 95 98  1  0
 95 94  1  0
 96 95  2  0
 97 96  1  0
 97 92  2  0
 98 99  1  0
 99104  2  0
 99100  1  0
100101  2  0
101102  1  0
102106  1  0
103102  2  0
104103  1  0
105104  1  0
107108  1  0
108111  1  0
108110  1  0
109107  2  0
112 87  1  0
113112  1  0
114112  1  0
M  ISO  4  17 101  18 101  77 100  85 100
M  END
>  <TORSDO>  (42) 
F 39

>  <SCORE>  (42) 
20.366

>  <name>  (42) 
44

>  <ligand_id>  (42) 
44

>  <original_smiles>  (42) 
[H]c1c([H])c([H])c2c(c1[H])C([H])([H])C([H])([H])C([H])([H])C2([H])N([H])C(=O)C1([H])N(C(=O)C([H])(N([H])C(=O)C([H])(N([H])C([H])([H])[H])C([H])([H])[H])C(C([H])([H])[H])(C([H])([H])[H])C([H])([H])[H])C([H])([H])c2c([H])c(OC([H])([H])C(=O)N([H])C([H])([H])C([H])([H])C([H])([H])C([H])([H])C([H])([H])C(=O)N([H])C([H])([H])C([H])([H])C([H])([H])C([H])([H])C([H])([H])C([H])([H])C([H])([H])N([H])C(=O)N([H])C([H])([H])C([H])([H])OC([H])([H])C([H])([H])OC([H])([H])C([H])([H])N([H])C(=O)N3C([H])([H])C([H])([H])C([H])([H])C([H])(n4nc(-c5c([H])c([H])c(Oc6c([H])c([H])c(F)c([H])c6F)c([H])c5[H])c(C(=O)N([H])[H])c4N([H])[H])C3([H])[H])c([H])c([H])c2C1([H])[H]

>  <smiles>  (42) 
[H]c1c([H])c([H])c2c(c1[H])C([H])([H])C([H])([H])C([H])([H])C2([H])N([H])C(=O)C1([H])N(C(=O)C([H])(N([H])C(=O)C([H])(N([H])C([H])([H])[H])C([H])([H])[H])C(C([H])([H])[H])(C([H])([H])[H])C([H])([H])[H])C([H])([H])c2c([H])c(OC([H])([H])C(=O)N([H])C([H])([H])C([H])([H])C([H])([H])C([H])([H])C([H])([H])C(=O)N([H])C([H])([H])C([H])([H])C([H])([H])C([H])([H])C([H])([H])C([H])([H])C([H])([H])N([H])C(=O)N([H])C([H])([H])C([H])([H])OC([H])([H])C([H])([H])OC([H])([H])C([H])([H])N([H])C(=O)N3C([H])([H])C([H])([H])C([H])([H])C([H])(n4nc(-c5c([H])c([H])c(Oc6c([H])c([H])c(F)c([H])c6F)c([H])c5[H])c(C(=O)N([H])[H])c4N([H])[H])C3([H])[H])c([H])c([H])c2C1([H])[H]

$$$$
46:0:0
     RDKit          3D

 94101  0  0  1  0  0  0  0  0999 V2000
  -32.9290  -22.9080   20.8360 C   0  0  0  0  0  2  0  0  0  0  0  0
  -32.3530  -21.7420   21.6490 C   0  0  0  0  0  0  0  0  0  0  0  0
  -31.1110  -21.3420   21.3440 N   0  0  0  0  0  0  0  0  0  0  0  0
  -33.0300  -21.2070   22.5310 O   0  0  0  0  0  0  0  0  0  0  0  0
  -30.6450  -21.8840   20.6270 H   0  0  0  0  0  0  0  0  0  0  0  0
  -30.3810  -20.2290   21.9480 C   0  0  0  0  0  2  0  0  0  0  0  0
  -30.9760  -18.8780   21.5210 C   0  0  0  0  0  2  0  0  0  0  0  0
  -30.2330  -17.6410   22.0640 C   0  0  0  0  0  2  0  0  0  0  0  0
  -30.9320  -16.3680   21.5310 C   0  0  0  0  0  2  0  0  0  0  0  0
  -30.6790  -14.2850   20.2120 C   0  0  0  0  0  0  0  0  0  0  0  0
  -30.2340  -12.2330   18.9310 C   0  0  0  0  0  2  0  0  0  0  0  0
  -29.2490  -12.5210   17.7830 C   0  0  0  0  0  2  0  0  0  0  0  0
  -27.7970  -12.3780   18.2790 C   0  0  0  0  0  2  0  0  0  0  0  0
  -27.5310  -13.1730   19.5870 C   0  0  0  0  0  3  0  0  0  0  0  0
  -28.6260  -12.8820   20.6380 C   0  0  0  0  0  2  0  0  0  0  0  0
  -29.9390  -13.1640   20.0300 N   0  0  0  0  0  0  0  0  0  0  0  0
  -31.6880  -14.5520   19.5510 O   0  0  0  0  0  0  0  0  0  0  0  0
  -30.2420  -15.1290   21.1620 N   0  0  0  0  0  0  0  0  0  0  0  0
  -29.4350  -14.8450   21.6970 H   0  0  0  0  0  0  0  0  0  0  0  0
  -25.1540  -13.7810   20.3770 C   0  0  0  0  0  0  0  0  0  0  0  0
  -24.1030  -13.0080   20.7910 C   0  0  0  0  0  0  0  0  0  0  0  0
  -24.5650  -11.6580   20.7480 C   0  0  0  0  0  0  0  0  0  0  0  0
  -26.1930  -12.9020   20.1130 N   0  0  0  0  0  0  0  0  0  0  0  0
  -25.8420  -11.6200   20.3910 N   0  0  0  0  0  0  0  0  0  0  0  0
  -23.8520  -10.3930   20.9700 C   0  0  0  0  0  0  0  0  0  0  0  0
  -24.3230   -9.4350   21.8950 C   0  0  0  0  0  3  0  0  0  0  0  0
  -23.6130   -8.2350   22.1050 C   0  0  0  0  0  3  0  0  0  0  0  0
  -22.4160   -7.9830   21.3920 C   0  0  0  0  0  0  0  0  0  0  0  0
  -21.9640   -8.9310   20.4560 C   0  0  0  0  0  3  0  0  0  0  0  0
  -22.6760  -10.1250   20.2430 C   0  0  0  0  0  3  0  0  0  0  0  0
  -21.6720   -6.8350   21.5120 O   0  0  0  0  0  0  0  0  0  0  0  0
  -21.6630   -6.1000   22.6710 C   0  0  0  0  0  0  0  0  0  0  0  0
  -21.2850   -6.6650   23.9080 C   0  0  0  0  0  3  0  0  0  0  0  0
  -21.2220   -5.8570   25.0620 C   0  0  0  0  0  3  0  0  0  0  0  0
  -21.5280   -4.4860   24.9780 C   0  0  0  0  0  0  0  0  0  0  0  0
  -21.8990   -3.9190   23.7460 C   0  0  0  0  0  3  0  0  0  0  0  0
  -21.9650   -4.7250   22.5950 C   0  0  0  0  0  0  0  0  0  0  0  0
  -22.3020   -4.1700   21.4050 F   0  0  0  0  0  0  0  0  0  0  0  0
  -21.4610   -3.7080   26.0840 F   0  0  0  0  0  0  0  0  0  0  0  0
  -22.7150  -13.4820   21.1160 C   0  0  0  0  0  0  0  0  0  0  0  0
  -22.0240  -12.7880   22.0130 N   0  0  0  0  0  0  0  0  0  0  0  0
  -22.2540  -14.5050   20.6100 O   0  0  0  0  0  0  0  0  0  0  0  0
  -22.4110  -11.9630   22.4490 H   0  0  0  0  0  0  0  0  0  0  0  0
  -21.0940  -13.0870   22.2670 H   0  0  0  0  0  0  0  0  0  0  0  0
  -25.3090  -15.1520   20.1860 N   0  0  0  0  0  0  0  0  0  0  0  0
  -24.5470  -15.8080   20.3160 H   0  0  0  0  0  0  0  0  0  0  0  0
  -26.1570  -15.5880   19.8430 H   0  0  0  0  0  0  0  0  0  0  0  0
  -31.8870  -23.6170   20.1630 O   0  0  0  0  0  0  0  0  0  0  0  0
  -31.9100  -23.4600   18.7490 C   0  0  0  0  0  2  0  0  0  0  0  0
  -30.8540  -24.3940   18.1460 C   0  0  0  0  0  2  0  0  0  0  0  0
  -29.5570  -23.8600   18.3880 O   0  0  0  0  0  0  0  0  0  0  0  0
  -28.5350  -24.8470   18.4920 C   0  0  0  0  0  2  0  0  0  0  0  0
  -28.4210  -25.3390   19.9510 C   0  0  0  0  0  2  0  0  0  0  0  0
  -28.4290  -26.7600   20.0780 O   0  0  0  0  0  0  0  0  0  0  0  0
  -24.6170  -31.8550   23.2440 C   0  0  0  0  0  0  0  0  0  0  0  0
  -27.2250  -27.4300   20.1070 C   0  0  0  0  0  0  0  0  0  0  0  0
  -23.3880  -30.4560   21.6120 C   0  0  0  0  0  3  0  0  0  0  0  0
  -24.8200  -28.9170   20.1710 C   0  0  0  0  0  0  0  0  0  0  0  0
  -25.9130  -30.8100   21.3900 C   0  0  0  0  0  2  0  0  0  0  0  0
  -25.9850  -29.4430   20.7440 C   0  0  0  0  0  0  0  0  0  0  0  0
  -27.1870  -28.7060   20.7070 C   0  0  0  0  0  3  0  0  0  0  0  0
  -26.0370  -26.9050   19.5440 C   0  0  0  0  0  3  0  0  0  0  0  0
  -24.8410  -27.6450   19.5730 C   0  0  0  0  0  3  0  0  0  0  0  0
  -23.5790  -29.7770   20.2310 C   0  0  0  0  0  2  0  0  0  0  0  0
  -24.6570  -31.0560   22.1400 N   0  0  0  0  0  0  0  0  0  0  0  0
  -23.5430  -32.1280   23.7960 O   0  0  0  0  0  0  0  0  0  0  0  0
  -22.7470  -29.4360   22.5780 C   0  0  0  0  0  0  0  0  0  0  0  0
  -21.4210  -29.2550   22.4570 N   0  0  0  0  0  0  0  0  0  0  0  0
  -23.4360  -28.8100   23.3870 O   0  0  0  0  0  0  0  0  0  0  0  0
  -20.9280  -29.8100   21.7730 H   0  0  0  0  0  0  0  0  0  0  0  0
  -18.0530  -28.0510   22.9600 C   0  0  0  0  0  0  0  0  0  0  0  0
  -20.6100  -28.3180   23.2320 C   0  0  0  0  0  3  0  0  0  0  0  0
  -20.7170  -26.8850   22.6620 C   0  0  0  0  0  2  0  0  0  0  0  0
  -19.6170  -26.5520   21.6490 C   0  0  0  0  0  2  0  0  0  0  0  0
  -18.2340  -26.6980   22.2930 C   0  0  0  0  0  2  0  0  0  0  0  0
  -19.1690  -28.8190   23.3860 C   0  0  0  0  0  0  0  0  0  0  0  0
  -18.9480  -30.0850   23.9680 C   0  0  0  0  0  3  0  0  0  0  0  0
  -17.6430  -30.5840   24.1310 C   0  0  0  0  0  3  0  0  0  0  0  0
  -16.5400  -29.8130   23.7230 C   0  0  0  0  0  3  0  0  0  0  0  0
  -16.7460  -28.5490   23.1430 C   0  0  0  0  0  3  0  0  0  0  0  0
  -25.9130  -32.4800   23.8500 C   0  0  0  0  0  3  0  0  0  0  0  0
  -26.4470  -31.7020   25.1140 C   0  0  1  0  0  0  0  0  0  0  0  0
  -25.3710  -31.4600   26.1980 C   0  0  0  0  0  1  0  0  0  0  0  0
  -27.0220  -30.3250   24.7060 C   0  0  0  0  0  1  0  0  0  0  0  0
  -27.6100  -32.4900   25.7610 C   0  0  0  0  0  1  0  0  0  0  0  0
  -25.6120  -33.8770   24.1870 N   0  0  0  0  0  0  0  0  0  0  0  0
  -25.9420  -34.9320   23.4290 C   0  0  0  0  0  0  0  0  0  0  0  0
  -26.6040  -34.8290   22.3910 O   0  0  0  0  0  0  0  0  0  0  0  0
  -25.0260  -34.0310   24.9940 H   0  0  0  0  0  0  0  0  0  0  0  0
  -24.2130  -36.7280   23.0910 C   0  0  0  0  0  1  0  0  0  0  0  0
  -25.4600  -36.3200   23.8920 C   0  0  0  0  0  3  0  0  0  0  0  0
  -27.6050  -37.1930   24.7080 C   0  0  0  0  0  1  0  0  0  0  0  0
  -26.4950  -37.3700   23.7750 N   0  0  0  0  0  0  0  0  0  0  0  0
  -26.0940  -38.2910   23.9320 H   0  0  0  0  0  0  0  0  0  0  0  0
  1  2  1  0
  2  4  2  0
  3  2  1  0
  3  6  1  0
  5  3  1  0
  7  6  1  0
  7  8  1  0
  9  8  1  0
 10 18  1  0
 11 16  1  0
 12 13  1  0
 12 11  1  0
 14 13  1  0
 14 23  1  0
 14 15  1  0
 16 10  1  0
 16 15  1  0
 17 10  2  0
 18  9  1  0
 18 19  1  0
 20 21  2  0
 21 40  1  0
 22 21  1  0
 22 25  1  0
 23 20  1  0
 23 24  1  0
 24 22  2  0
 25 26  1  0
 26 27  2  0
 28 31  1  0
 28 27  1  0
 29 28  2  0
 30 29  1  0
 30 25  2  0
 31 32  1  0
 32 33  1  0
 33 34  2  0
 35 34  1  0
 35 39  1  0
 36 35  2  0
 37 32  2  0
 37 36  1  0
 38 37  1  0
 40 41  1  0
 41 44  1  0
 41 43  1  0
 42 40  2  0
 45 46  1  0
 45 20  1  0
 47 45  1  0
 48  1  1  0
 49 48  1  0
 50 51  1  0
 50 49  1  0
 51 52  1  0
 52 53  1  0
 53 54  1  0
 54 56  1  0
 55 66  2  0
 56 61  1  0
 57 65  1  0
 57 67  1  0
 58 64  1  0
 58 60  1  0
 59 65  1  0
 60 59  1  0
 61 60  2  0
 62 63  1  0
 62 56  2  0
 63 58  2  0
 64 57  1  0
 65 55  1  0
 67 69  2  0
 68 67  1  0
 70 68  1  0
 71 80  2  0
 71 76  1  0
 72 68  1  0
 72 76  1  0
 73 72  1  0
 74 75  1  0
 74 73  1  0
 75 71  1  0
 76 77  2  0
 77 78  1  0
 79 78  2  0
 80 79  1  0
 81 55  1  0
 81 86  1  0
 81 82  1  0
 82 85  1  1
 82 83  1  0
 84 82  1  0
 86 89  1  0
 87 91  1  0
 87 86  1  0
 88 87  2  0
 91 90  1  0
 93 91  1  0
 93 94  1  0
 93 92  1  0
M  ISO  4  10 100  18 100  53 101  54 101
M  END
>  <TORSDO>  (43) 
F 27

>  <SCORE>  (43) 
-10.614

>  <name>  (43) 
46

>  <ligand_id>  (43) 
46

>  <original_smiles>  (43) 
[H]c1c([H])c([H])c2c(c1[H])C([H])([H])C([H])([H])C([H])([H])C2([H])N([H])C(=O)C1([H])N(C(=O)C([H])(N([H])C(=O)C([H])(N([H])C([H])([H])[H])C([H])([H])[H])C(C([H])([H])[H])(C([H])([H])[H])C([H])([H])[H])C([H])([H])c2c([H])c(OC([H])([H])C([H])([H])OC([H])([H])C([H])([H])OC([H])([H])C(=O)N([H])C([H])([H])C([H])([H])C([H])([H])C([H])([H])N([H])C(=O)N3C([H])([H])C([H])([H])C([H])([H])C([H])(n4nc(-c5c([H])c([H])c(Oc6c([H])c([H])c(F)c([H])c6F)c([H])c5[H])c(C(=O)N([H])[H])c4N([H])[H])C3([H])[H])c([H])c([H])c2C1([H])[H]

>  <smiles>  (43) 
[H]c1c([H])c([H])c2c(c1[H])C([H])([H])C([H])([H])C([H])([H])C2([H])N([H])C(=O)C1([H])N(C(=O)C([H])(N([H])C(=O)C([H])(N([H])C([H])([H])[H])C([H])([H])[H])C(C([H])([H])[H])(C([H])([H])[H])C([H])([H])[H])C([H])([H])c2c([H])c(OC([H])([H])C([H])([H])OC([H])([H])C([H])([H])OC([H])([H])C(=O)N([H])C([H])([H])C([H])([H])C([H])([H])C([H])([H])N([H])C(=O)N3C([H])([H])C([H])([H])C([H])([H])C([H])(n4nc(-c5c([H])c([H])c(Oc6c([H])c([H])c(F)c([H])c6F)c([H])c5[H])c(C(=O)N([H])[H])c4N([H])[H])C3([H])[H])c([H])c([H])c2C1([H])[H]

$$$$
47:0:0
     RDKit          3D

 90 97  0  0  1  0  0  0  0  0999 V2000
  -29.5020  -21.9800   20.2570 C   0  0  0  0  0  0  0  0  0  0  0  0
  -29.4270  -23.1060   20.9930 N   0  0  0  0  0  0  0  0  0  0  0  0
  -29.5340  -22.0140   19.0250 O   0  0  0  0  0  0  0  0  0  0  0  0
  -29.3860  -22.9840   21.9970 H   0  0  0  0  0  0  0  0  0  0  0  0
  -29.5920  -20.6300   21.0160 C   0  0  0  0  0  2  0  0  0  0  0  0
  -29.5770  -19.3450   20.1300 C   0  0  0  0  0  2  0  0  0  0  0  0
  -29.6710  -16.8420   20.4620 C   0  0  0  0  0  0  0  0  0  0  0  0
  -29.9410  -18.1080   20.8580 N   0  0  0  0  0  0  0  0  0  0  0  0
  -29.0160  -16.6200   19.4410 O   0  0  0  0  0  0  0  0  0  0  0  0
  -30.4720  -18.2200   21.7130 H   0  0  0  0  0  0  0  0  0  0  0  0
  -30.1600  -15.6790   21.3670 C   0  0  0  0  0  2  0  0  0  0  0  0
  -30.7030  -14.4970   20.5070 C   0  0  0  0  0  0  0  0  0  0  0  0
  -30.3750  -12.3590   19.2970 C   0  0  0  0  0  2  0  0  0  0  0  0
  -29.4330  -12.5820   18.0950 C   0  0  0  0  0  2  0  0  0  0  0  0
  -27.9590  -12.4410   18.5230 C   0  0  0  0  0  2  0  0  0  0  0  0
  -27.6290  -13.2650   19.7960 C   0  0  0  0  0  3  0  0  0  0  0  0
  -28.6830  -13.0170   20.8970 C   0  0  0  0  0  2  0  0  0  0  0  0
  -30.0080  -13.3330   20.3400 N   0  0  0  0  0  0  0  0  0  0  0  0
  -31.8000  -14.6630   19.9600 O   0  0  0  0  0  0  0  0  0  0  0  0
  -25.2330  -13.8880   20.4960 C   0  0  0  0  0  0  0  0  0  0  0  0
  -24.1600  -13.1230   20.8680 C   0  0  0  0  0  0  0  0  0  0  0  0
  -24.6140  -11.7690   20.8480 C   0  0  0  0  0  0  0  0  0  0  0  0
  -26.2730  -13.0000   20.2730 N   0  0  0  0  0  0  0  0  0  0  0  0
  -25.9050  -11.7200   20.5410 N   0  0  0  0  0  0  0  0  0  0  0  0
  -23.8820  -10.5120   21.0480 C   0  0  0  0  0  0  0  0  0  0  0  0
  -24.3230   -9.5370   21.9700 C   0  0  0  0  0  3  0  0  0  0  0  0
  -23.5910   -8.3450   22.1550 C   0  0  0  0  0  3  0  0  0  0  0  0
  -22.4050   -8.1170   21.4180 C   0  0  0  0  0  0  0  0  0  0  0  0
  -21.9830   -9.0810   20.4840 C   0  0  0  0  0  3  0  0  0  0  0  0
  -22.7150  -10.2650   20.2970 C   0  0  0  0  0  3  0  0  0  0  0  0
  -21.6420   -6.9790   21.5140 O   0  0  0  0  0  0  0  0  0  0  0  0
  -21.6220   -6.2210   22.6570 C   0  0  0  0  0  0  0  0  0  0  0  0
  -21.2580   -6.7670   23.9080 C   0  0  0  0  0  3  0  0  0  0  0  0
  -21.1830   -5.9370   25.0440 C   0  0  0  0  0  3  0  0  0  0  0  0
  -21.4620   -4.5620   24.9320 C   0  0  0  0  0  0  0  0  0  0  0  0
  -21.8190   -4.0150   23.6860 C   0  0  0  0  0  3  0  0  0  0  0  0
  -21.8960   -4.8430   22.5520 C   0  0  0  0  0  0  0  0  0  0  0  0
  -22.2200   -4.3060   21.3510 F   0  0  0  0  0  0  0  0  0  0  0  0
  -21.3810   -3.7630   26.0210 F   0  0  0  0  0  0  0  0  0  0  0  0
  -22.7640  -13.6090   21.1370 C   0  0  0  0  0  0  0  0  0  0  0  0
  -22.0340  -12.9240   22.0090 N   0  0  0  0  0  0  0  0  0  0  0  0
  -22.3300  -14.6320   20.6080 O   0  0  0  0  0  0  0  0  0  0  0  0
  -22.3990  -12.0980   22.4600 H   0  0  0  0  0  0  0  0  0  0  0  0
  -21.0980  -13.2300   22.2300 H   0  0  0  0  0  0  0  0  0  0  0  0
  -25.4050  -15.2570   20.3110 N   0  0  0  0  0  0  0  0  0  0  0  0
  -24.6380  -15.9150   20.4010 H   0  0  0  0  0  0  0  0  0  0  0  0
  -26.2620  -15.6880   19.9840 H   0  0  0  0  0  0  0  0  0  0  0  0
  -29.5540  -24.5000   20.5210 C   0  0  0  0  0  2  0  0  0  0  0  0
  -28.2020  -25.2260   20.3190 C   0  0  0  0  0  2  0  0  0  0  0  0
  -28.3570  -26.6570   20.1730 O   0  0  0  0  0  0  0  0  0  0  0  0
  -24.5790  -31.8850   23.2300 C   0  0  0  0  0  0  0  0  0  0  0  0
  -27.1940  -27.4070   20.1540 C   0  0  0  0  0  0  0  0  0  0  0  0
  -23.3630  -30.4800   21.6010 C   0  0  0  0  0  3  0  0  0  0  0  0
  -24.8050  -28.9390   20.1690 C   0  0  0  0  0  0  0  0  0  0  0  0
  -25.8900  -30.8300   21.3870 C   0  0  0  0  0  2  0  0  0  0  0  0
  -25.9700  -29.4570   20.7470 C   0  0  0  0  0  0  0  0  0  0  0  0
  -27.1690  -28.7030   20.7300 C   0  0  0  0  0  3  0  0  0  0  0  0
  -26.0060  -26.9130   19.5670 C   0  0  0  0  0  3  0  0  0  0  0  0
  -24.8190  -27.6660   19.5740 C   0  0  0  0  0  3  0  0  0  0  0  0
  -23.5610  -29.7970   20.2210 C   0  0  0  0  0  2  0  0  0  0  0  0
  -24.6290  -31.0800   22.1300 N   0  0  0  0  0  0  0  0  0  0  0  0
  -23.5000  -32.1610   23.7750 O   0  0  0  0  0  0  0  0  0  0  0  0
  -22.7150  -29.4620   22.5670 C   0  0  0  0  0  0  0  0  0  0  0  0
  -21.3900  -29.2760   22.4440 N   0  0  0  0  0  0  0  0  0  0  0  0
  -23.4020  -28.8400   23.3830 O   0  0  0  0  0  0  0  0  0  0  0  0
  -20.9000  -29.8290   21.7540 H   0  0  0  0  0  0  0  0  0  0  0  0
  -18.0210  -28.0720   22.9430 C   0  0  0  0  0  0  0  0  0  0  0  0
  -20.5760  -28.3420   23.2190 C   0  0  0  0  0  3  0  0  0  0  0  0
  -20.6870  -26.9070   22.6530 C   0  0  0  0  0  2  0  0  0  0  0  0
  -19.5880  -26.5730   21.6380 C   0  0  0  0  0  2  0  0  0  0  0  0
  -18.2040  -26.7180   22.2780 C   0  0  0  0  0  2  0  0  0  0  0  0
  -19.1350  -28.8410   23.3690 C   0  0  0  0  0  0  0  0  0  0  0  0
  -18.9110  -30.1090   23.9490 C   0  0  0  0  0  3  0  0  0  0  0  0
  -17.6040  -30.6070   24.1080 C   0  0  0  0  0  3  0  0  0  0  0  0
  -16.5030  -29.8340   23.6980 C   0  0  0  0  0  3  0  0  0  0  0  0
  -16.7130  -28.5680   23.1220 C   0  0  0  0  0  3  0  0  0  0  0  0
  -25.8690  -32.5160   23.8410 C   0  0  0  0  0  3  0  0  0  0  0  0
  -25.5610  -33.9110   24.1810 N   0  0  0  0  0  0  0  0  0  0  0  0
  -25.8840  -34.9670   23.4230 C   0  0  0  0  0  0  0  0  0  0  0  0
  -26.5450  -34.8700   22.3850 O   0  0  0  0  0  0  0  0  0  0  0  0
  -24.9730  -34.0610   24.9880 H   0  0  0  0  0  0  0  0  0  0  0  0
  -24.1450  -36.7540   23.0920 C   0  0  0  0  0  1  0  0  0  0  0  0
  -25.3960  -36.3530   23.8900 C   0  0  0  0  0  3  0  0  0  0  0  0
  -27.5380  -37.2380   24.7000 C   0  0  0  0  0  1  0  0  0  0  0  0
  -26.4240  -37.4090   23.7700 N   0  0  0  0  0  0  0  0  0  0  0  0
  -26.0180  -38.3270   23.9260 H   0  0  0  0  0  0  0  0  0  0  0  0
  -26.4020  -31.7390   25.1070 C   0  0  1  0  0  0  0  0  0  0  0  0
  -25.3190  -31.4940   26.1850 C   0  0  0  0  0  1  0  0  0  0  0  0
  -26.9820  -30.3650   24.7000 C   0  0  0  0  0  1  0  0  0  0  0  0
  -27.5580  -32.5320   25.7600 C   0  0  0  0  0  1  0  0  0  0  0  0
  1  2  1  0
  1  5  1  0
  2  4  1  0
  3  1  2  0
  6  8  1  0
  6  5  1  0
  7  8  1  0
  7 11  1  0
  8 10  1  0
  9  7  2  0
 12 11  1  0
 13 18  1  0
 14 15  1  0
 14 13  1  0
 16 15  1  0
 16 23  1  0
 16 17  1  0
 18 12  1  0
 18 17  1  0
 19 12  2  0
 20 21  2  0
 21 40  1  0
 22 21  1  0
 22 25  1  0
 23 20  1  0
 23 24  1  0
 24 22  2  0
 25 26  1  0
 26 27  2  0
 28 31  1  0
 28 27  1  0
 29 28  2  0
 30 29  1  0
 30 25  2  0
 31 32  1  0
 32 33  1  0
 33 34  2  0
 35 34  1  0
 35 39  1  0
 36 35  2  0
 37 32  2  0
 37 36  1  0
 38 37  1  0
 40 41  1  0
 41 44  1  0
 41 43  1  0
 42 40  2  0
 45 46  1  0
 45 20  1  0
 47 45  1  0
 48  2  1  0
 49 48  1  0
 50 49  1  0
 51 62  2  0
 52 50  1  0
 52 57  1  0
 53 61  1  0
 53 63  1  0
 54 60  1  0
 54 56  1  0
 55 61  1  0
 56 55  1  0
 57 56  2  0
 58 59  1  0
 58 52  2  0
 59 54  2  0
 60 53  1  0
 61 51  1  0
 63 65  2  0
 64 63  1  0
 66 64  1  0
 67 76  2  0
 67 72  1  0
 68 64  1  0
 68 72  1  0
 69 68  1  0
 70 71  1  0
 70 69  1  0
 71 67  1  0
 72 73  2  0
 73 74  1  0
 75 74  2  0
 76 75  1  0
 77 51  1  0
 77 78  1  0
 77 87  1  0
 78 81  1  0
 79 83  1  0
 79 78  1  0
 80 79  2  0
 83 82  1  0
 85 83  1  0
 85 86  1  0
 85 84  1  0
 87 90  1  1
 87 88  1  0
 89 87  1  0
M  ISO  4  11 100  12 100  49 101  50 101
M  END
>  <TORSDO>  (44) 
F 22

>  <SCORE>  (44) 
-13.177

>  <name>  (44) 
47

>  <ligand_id>  (44) 
47

>  <original_smiles>  (44) 
[H]c1c([H])c([H])c2c(c1[H])C([H])([H])C([H])([H])C([H])([H])C2([H])N([H])C(=O)C1([H])N(C(=O)C([H])(N([H])C(=O)C([H])(N([H])C([H])([H])[H])C([H])([H])[H])C(C([H])([H])[H])(C([H])([H])[H])C([H])([H])[H])C([H])([H])c2c([H])c(OC([H])([H])C([H])([H])N([H])C(=O)C([H])([H])C([H])([H])N([H])C(=O)C([H])([H])C(=O)N3C([H])([H])C([H])([H])C([H])([H])C([H])(n4nc(-c5c([H])c([H])c(Oc6c([H])c([H])c(F)c([H])c6F)c([H])c5[H])c(C(=O)N([H])[H])c4N([H])[H])C3([H])[H])c([H])c([H])c2C1([H])[H]

>  <smiles>  (44) 
[H]c1c([H])c([H])c2c(c1[H])C([H])([H])C([H])([H])C([H])([H])C2([H])N([H])C(=O)C1([H])N(C(=O)C([H])(N([H])C(=O)C([H])(N([H])C([H])([H])[H])C([H])([H])[H])C(C([H])([H])[H])(C([H])([H])[H])C([H])([H])[H])C([H])([H])c2c([H])c(OC([H])([H])C([H])([H])N([H])C(=O)C([H])([H])C([H])([H])N([H])C(=O)C([H])([H])C(=O)N3C([H])([H])C([H])([H])C([H])([H])C([H])(n4nc(-c5c([H])c([H])c(Oc6c([H])c([H])c(F)c([H])c6F)c([H])c5[H])c(C(=O)N([H])[H])c4N([H])[H])C3([H])[H])c([H])c([H])c2C1([H])[H]

$$$$
48:0:0
     RDKit          3D

123127  0  0  1  0  0  0  0  0999 V2000
  -15.8470  -26.0040   23.8940 C   0  0  0  0  0  0  0  0  0  0  0  0
  -16.7360  -24.9720   23.9970 N   0  0  0  0  0  0  0  0  0  0  0  0
  -14.8690  -25.9100   23.1370 O   0  0  0  0  0  0  0  0  0  0  0  0
  -17.3410  -25.0280   24.8100 H   0  0  0  0  0  0  0  0  0  0  0  0
  -16.0250  -27.3790   24.7750 C   0  0  0  0  0  0  0  0  0  0  0  0
  -16.8140  -28.5890   24.3360 N   0  0  0  0  0  0  0  0  0  0  0  0
  -15.4200  -27.4240   25.8480 O   0  0  0  0  0  0  0  0  0  0  0  0
  -16.9600  -29.1500   25.1510 H   0  0  0  0  0  0  0  0  0  0  0  0
  -17.8310  -29.7940   22.5320 C   0  0  0  0  0  3  0  0  0  0  0  0
  -17.5810  -29.1560   24.1790 C   0  0  0  0  0  2  0  0  0  0  0  0
  -19.1280  -29.4020   21.6170 C   0  0  0  0  0  1  0  0  0  0  0  0
  -20.9840  -28.5760   20.8590 C   0  0  0  0  0  1  0  0  0  0  0  0
  -24.5270  -25.1420   21.5410 C   0  0  0  0  0  3  0  0  0  0  0  0
  -25.6140  -27.0000   21.4200 C   0  0  0  0  0  3  0  0  0  0  0  0
  -23.0080  -26.0640   21.4980 C   0  0  0  0  0  3  0  0  0  0  0  0
  -24.1190  -28.0140   21.3430 C   0  0  0  0  0  3  0  0  0  0  0  0
  -25.9390  -25.4810   21.0200 N   0  0  0  0  0  0  0  0  0  0  0  0
  -22.6030  -27.5890   21.0780 N   0  0  2  0  0  4  0  0  0  0  0  0
  -22.6740  -27.4810   20.0690 H   0  0  0  0  0  0  0  0  0  0  0  0
  -27.3890  -22.9800   20.7990 C   0  0  0  0  0  3  0  0  0  0  0  0
  -28.7040  -24.6790   20.4000 C   0  0  0  0  0  3  0  0  0  0  0  0
  -28.5660  -22.0060   20.5480 C   0  0  0  0  0  3  0  0  0  0  0  0
  -29.8900  -23.7050   20.1440 C   0  0  0  0  0  3  0  0  0  0  0  0
  -27.2500  -24.4760   20.7690 C   0  0  0  0  0  0  0  0  0  0  0  0
  -30.0150  -22.1990   20.1710 C   0  0  0  0  0  0  0  0  0  0  0  0
  -32.7030  -20.3220   19.5320 C   0  0  0  0  0  0  0  0  0  0  0  0
  -34.0230  -18.2060   18.4420 C   0  0  0  0  0  2  0  0  0  0  0  0
  -33.3350  -17.5670   17.1900 C   0  0  0  0  0  2  0  0  0  0  0  0
  -32.1360  -16.6900   17.5960 C   0  0  0  0  0  2  0  0  0  0  0  0
  -31.3510  -17.3900   18.7300 C   0  0  0  0  0  3  0  0  0  0  0  0
  -32.2410  -17.8110   19.8910 C   0  0  0  0  0  2  0  0  0  0  0  0
  -32.9890  -18.9120   19.3390 N   0  0  0  0  0  0  0  0  0  0  0  0
  -33.7910  -20.9010   19.2390 O   0  0  0  0  0  0  0  0  0  0  0  0
  -31.3310  -21.0120   19.9690 N   0  0  0  0  0  0  0  0  0  0  0  0
  -31.9960  -21.7470   20.1340 H   0  0  0  0  0  0  0  0  0  0  0  0
  -29.0160  -17.1730   19.6070 C   0  0  0  0  0  0  0  0  0  0  0  0
  -28.2690  -16.0950   19.9680 C   0  0  0  0  0  0  0  0  0  0  0  0
  -29.1250  -14.9590   19.8290 C   0  0  0  0  0  0  0  0  0  0  0  0
  -30.2370  -16.6550   19.2410 N   0  0  0  0  0  0  0  0  0  0  0  0
  -30.3400  -15.3280   19.4510 N   0  0  0  0  0  0  0  0  0  0  0  0
  -28.8410  -13.5320   19.9570 C   0  0  0  0  0  0  0  0  0  0  0  0
  -29.6450  -12.6930   20.7580 C   0  0  0  0  0  3  0  0  0  0  0  0
  -29.3340  -11.3220   20.8780 C   0  0  0  0  0  3  0  0  0  0  0  0
  -28.2190  -10.7850   20.1940 C   0  0  0  0  0  0  0  0  0  0  0  0
  -27.4420  -11.6250   19.3800 C   0  0  0  0  0  3  0  0  0  0  0  0
  -27.7510  -12.9880   19.2530 C   0  0  0  0  0  3  0  0  0  0  0  0
  -27.8530   -9.4640   20.2340 O   0  0  0  0  0  0  0  0  0  0  0  0
  -28.1880   -8.6590   21.2920 C   0  0  0  0  0  0  0  0  0  0  0  0
  -27.8330   -8.9850   22.6210 C   0  0  0  0  0  3  0  0  0  0  0  0
  -28.1360   -8.0920   23.6650 C   0  0  0  0  0  3  0  0  0  0  0  0
  -28.7830   -6.8740   23.3880 C   0  0  0  0  0  0  0  0  0  0  0  0
  -29.1280   -6.5460   22.0660 C   0  0  0  0  0  3  0  0  0  0  0  0
  -28.8310   -7.4350   21.0200 C   0  0  0  0  0  0  0  0  0  0  0  0
  -29.1500   -7.1030   19.7460 F   0  0  0  0  0  0  0  0  0  0  0  0
  -29.0650   -6.0130   24.3950 F   0  0  0  0  0  0  0  0  0  0  0  0
  -26.8140  -16.1160   20.3220 C   0  0  0  0  0  0  0  0  0  0  0  0
  -26.3790  -15.1900   21.1650 N   0  0  0  0  0  0  0  0  0  0  0  0
  -26.0620  -16.9860   19.8830 O   0  0  0  0  0  0  0  0  0  0  0  0
  -27.0070  -14.4940   21.5360 H   0  0  0  0  0  0  0  0  0  0  0  0
  -25.4090  -15.1820   21.4410 H   0  0  0  0  0  0  0  0  0  0  0  0
  -28.7560  -18.5390   19.5330 N   0  0  0  0  0  0  0  0  0  0  0  0
  -27.8360  -18.9130   19.7250 H   0  0  0  0  0  0  0  0  0  0  0  0
  -29.4290  -19.2450   19.2670 H   0  0  0  0  0  0  0  0  0  0  0  0
  -16.8040  -23.7530   23.0970 C   0  0  0  0  0  2  0  0  0  0  0  0
  -18.1370  -22.8570   22.9970 C   0  0  0  0  0  2  0  0  0  0  0  0
  -19.1780  -23.1340   20.5010 C   0  0  0  0  0  0  0  0  0  0  0  0
  -19.0870  -22.7570   21.8140 N   0  0  0  0  0  0  0  0  0  0  0  0
  -18.3330  -23.8410   19.9610 O   0  0  0  0  0  0  0  0  0  0  0  0
  -19.8650  -22.1550   22.0520 H   0  0  0  0  0  0  0  0  0  0  0  0
  -22.4190  -23.4280   18.1720 C   0  0  0  0  0  0  0  0  0  0  0  0
  -19.6510  -21.4490   17.8260 C   0  0  0  0  0  2  0  0  0  0  0  0
  -20.2860  -21.1900   19.1710 C   0  0  0  0  0  2  0  0  0  0  0  0
  -20.3010  -22.7760   17.3530 C   0  0  0  0  0  2  0  0  0  0  0  0
  -20.4450  -22.6070   19.6680 C   0  0  0  0  0  3  0  0  0  0  0  0
  -21.0490  -23.3930   18.4840 N   0  0  0  0  0  0  0  0  0  0  0  0
  -23.0640  -22.3790   18.1190 O   0  0  0  0  0  0  0  0  0  0  0  0
  -23.2480  -24.7420   17.8380 C   0  0  0  0  0  2  0  0  0  0  0  0
  -24.7900  -24.7190   17.9840 N   0  0  0  0  0  4  0  0  0  0  0  0
  -25.1940  -24.1780   17.2360 H   0  0  0  0  0  0  0  0  0  0  0  0
  -24.9740  -24.1910   18.8470 H   0  0  0  0  0  0  0  0  0  0  0  0
  -25.4960  -26.0740   18.1100 C   0  0  0  0  0  2  0  0  0  0  0  0
  -27.0410  -26.3730   18.6530 C   0  0  0  0  0  2  0  0  0  0  0  0
  -27.6050  -27.6840   19.2610 O   0  0  0  0  0  0  0  0  0  0  0  0
  -24.4170  -32.5550   23.7070 C   0  0  0  0  0  0  0  0  0  0  0  0
  -26.7390  -28.7420   19.5290 C   0  0  0  0  0  0  0  0  0  0  0  0
  -23.1540  -31.3250   22.0160 C   0  0  0  0  0  3  0  0  0  0  0  0
  -24.4710  -30.3060   20.1250 C   0  0  0  0  0  0  0  0  0  0  0  0
  -25.6570  -31.8180   21.6690 C   0  0  0  0  0  2  0  0  0  0  0  0
  -25.6870  -30.6020   20.7560 C   0  0  0  0  0  0  0  0  0  0  0  0
  -26.8310  -29.7810   20.5070 C   0  0  0  0  0  3  0  0  0  0  0  0
  -25.6120  -28.7840   18.7250 C   0  0  0  0  0  3  0  0  0  0  0  0
  -24.4270  -29.3980   19.0830 C   0  0  0  0  0  3  0  0  0  0  0  0
  -23.2410  -31.0750   20.4970 C   0  0  0  0  0  2  0  0  0  0  0  0
  -24.4280  -31.9440   22.4990 N   0  0  0  0  0  0  0  0  0  0  0  0
  -23.3720  -32.6810   24.3580 O   0  0  0  0  0  0  0  0  0  0  0  0
  -22.8860  -30.0210   22.8040 C   0  0  0  0  0  0  0  0  0  0  0  0
  -21.6560  -29.6060   22.9840 N   0  0  0  0  0  0  0  0  0  0  0  0
  -23.7800  -29.3550   23.2990 O   0  0  0  0  0  0  0  0  0  0  0  0
  -20.9510  -30.2910   22.7790 H   0  0  0  0  0  0  0  0  0  0  0  0
  -18.2190  -27.5700   22.8570 C   0  0  0  0  0  1  0  0  0  0  0  0
  -21.1940  -28.3970   23.7380 C   0  0  0  0  0  3  0  0  0  0  0  0
  -20.8980  -26.9140   23.2990 C   0  0  0  0  0  2  0  0  0  0  0  0
  -19.7790  -26.1980   22.2910 C   0  0  0  0  0  2  0  0  0  0  0  0
  -18.4360  -26.6180   21.9090 C   0  0  0  0  0  2  0  0  0  0  0  0
  -19.8950  -28.6740   23.9090 C   0  0  0  0  0  1  0  0  0  0  0  0
  -19.5080  -30.6590   24.4350 C   0  0  0  0  0 15  0  0  0  0  0  0
  -17.5880  -31.3970   24.3200 C   0  0  0  0  0 15  0  0  0  0  0  0
  -16.1040  -30.4180   23.3660 C   0  0  0  0  0 15  0  0  0  0  0  0
  -16.4080  -28.5770   22.4250 C   0  0  0  0  0  1  0  0  0  0  0  0
  -25.7240  -33.1260   24.3210 C   0  0  0  0  0  3  0  0  0  0  0  0
  -25.3830  -34.4090   24.9440 N   0  0  0  0  0  0  0  0  0  0  0  0
  -25.5710  -35.6030   24.3670 C   0  0  0  0  0  0  0  0  0  0  0  0
  -26.1310  -35.7410   23.2740 O   0  0  0  0  0  0  0  0  0  0  0  0
  -24.8640  -34.3690   25.8070 H   0  0  0  0  0  0  0  0  0  0  0  0
  -23.7230  -37.3060   24.5260 C   0  0  0  0  0  1  0  0  0  0  0  0
  -25.0600  -36.8420   25.1250 C   0  0  0  0  0  3  0  0  0  0  0  0
  -27.2270  -37.6920   25.9040 C   0  0  0  0  0  1  0  0  0  0  0  0
  -26.0200  -37.9680   25.1290 N   0  0  0  0  0  0  0  0  0  0  0  0
  -25.5900  -38.8030   25.5170 H   0  0  0  0  0  0  0  0  0  0  0  0
  -26.3860  -32.1490   25.3680 C   0  0  1  0  0  0  0  0  0  0  0  0
  -25.4120  -31.6430   26.4570 C   0  0  0  0  0  1  0  0  0  0  0  0
  -26.9920  -30.9050   24.6760 C   0  0  0  0  0  1  0  0  0  0  0  0
  -27.5610  -32.8690   26.0730 C   0  0  0  0  0  1  0  0  0  0  0  0
  1  2  1  0
  1  5  1  0
  2  4  1  0
  3  1  2  0
  5  7  2  0
  6  5  1  0
  6  8  1  0
  9 10  1  0
 10  6  1  0
 11  9  1  0
 12 18  1  0
 15 13  2  0
 16 14  2  0
 17 14  1  0
 17 13  1  0
 18 16  1  0
 18 15  1  0
 18 19  1  6
 21 24  2  0
 22 20  2  0
 23 25  2  0
 23 21  1  0
 24 20  1  0
 24 17  1  0
 25 22  1  0
 26 34  1  0
 27 32  1  0
 28 29  1  0
 28 27  1  0
 30 29  1  0
 30 39  1  0
 30 31  1  0
 32 26  1  0
 32 31  1  0
 33 26  2  0
 34 35  1  0
 34 25  1  0
 36 37  2  0
 37 56  1  0
 38 41  1  0
 38 37  1  0
 39 40  1  0
 39 36  1  0
 40 38  2  0
 41 42  1  0
 42 43  2  0
 44 47  1  0
 44 43  1  0
 45 44  2  0
 46 45  1  0
 46 41  2  0
 47 48  1  0
 48 49  1  0
 49 50  2  0
 51 50  1  0
 51 55  1  0
 52 51  2  0
 53 48  2  0
 53 52  1  0
 54 53  1  0
 56 57  1  0
 57 60  1  0
 57 59  1  0
 58 56  2  0
 61 36  1  0
 61 62  1  0
 63 61  1  0
 64  2  1  0
 65 64  1  0
 66 67  1  0
 67 69  1  0
 67 65  1  0
 68 66  2  0
 70 75  1  0
 71 72  1  0
 72 74  1  0
 73 71  1  0
 73 75  1  0
 74 66  1  0
 75 74  1  0
 76 70  2  0
 77 78  1  0
 77 70  1  0
 78 81  1  0
 78 80  1  0
 79 78  1  0
 81 82  1  0
 82 83  1  0
 83 85  1  0
 84 95  2  0
 85 90  1  0
 86 94  1  0
 86 96  1  0
 87 93  1  0
 87 89  1  0
 88 94  1  0
 89 88  1  0
 90 89  2  0
 91 92  1  0
 91 85  2  0
 92 87  2  0
 93 86  1  0
 94 84  1  0
 96 97  1  0
 96 98  2  0
 97101  1  0
 99 97  1  0
101105  1  0
102101  1  0
103102  1  0
104103  1  0
104100  1  0
109  9  1  0
110 84  1  0
110111  1  0
110120  1  0
111114  1  0
112111  1  0
112116  1  0
113112  2  0
116115  1  0
116118  1  0
118119  1  0
118117  1  0
120123  1  1
120121  1  0
122120  1  0
M  ISO  4  26 100  34 100  82 101  83 101
M  END
>  <TORSDO>  (45) 
F 31

>  <SCORE>  (45) 
7.133

>  <name>  (45) 
48

>  <ligand_id>  (45) 
48

>  <original_smiles>  (45) 
[H]c1c([H])c([H])c2c(c1[H])C([H])([H])C([H])([H])C([H])([H])C2([H])N([H])C(=O)C1([H])N(C(=O)C([H])(N([H])C(=O)C([H])(N([H])C([H])([H])[H])C([H])([H])[H])C(C([H])([H])[H])(C([H])([H])[H])C([H])([H])[H])C([H])([H])c2c([H])c(OC([H])([H])C([H])([H])[N+]([H])([H])C([H])([H])C(=O)N3C([H])([H])C([H])([H])C([H])([H])C3([H])C(=O)N([H])C([H])([H])C([H])([H])N([H])C(=O)C(=O)N([H])C([H])([H])C([H])([H])C([H])([H])C([H])([H])[N+]3([H])C([H])([H])C([H])([H])N(c4c([H])c([H])c(N([H])C(=O)N5C([H])([H])C([H])([H])C([H])([H])C([H])(n6nc(-c7c([H])c([H])c(Oc8c([H])c([H])c(F)c([H])c8F)c([H])c7[H])c(C(=O)N([H])[H])c6N([H])[H])C5([H])[H])c([H])c4[H])C([H])([H])C3([H])[H])c([H])c([H])c2C1([H])[H]

>  <smiles>  (45) 
[H]c1c([H])c([H])c2c(c1[H])C([H])([H])C([H])([H])C([H])([H])C2([H])N([H])C(=O)C1([H])N(C(=O)C([H])(N([H])C(=O)C([H])(N([H])C([H])([H])[H])C([H])([H])[H])C(C([H])([H])[H])(C([H])([H])[H])C([H])([H])[H])C([H])([H])c2c([H])c(OC([H])([H])C([H])([H])[N+]([H])([H])C([H])([H])C(=O)N3C([H])([H])C([H])([H])C([H])([H])C3([H])C(=O)N([H])C([H])([H])C([H])([H])N([H])C(=O)C(=O)N([H])C([H])([H])C([H])([H])C([H])([H])C([H])([H])[N+]3([H])C([H])([H])C([H])([H])N(c4c([H])c([H])c(N([H])C(=O)N5C([H])([H])C([H])([H])C([H])([H])C([H])(n6nc(-c7c([H])c([H])c(Oc8c([H])c([H])c(F)c([H])c8F)c([H])c7[H])c(C(=O)N([H])[H])c6N([H])[H])C5([H])[H])c([H])c4[H])C([H])([H])C3([H])[H])c([H])c([H])c2C1([H])[H]

$$$$
49:0:0
     RDKit          3D

102109  0  0  1  0  0  0  0  0999 V2000
  -25.7150  -22.6980   17.0720 C   0  0  0  0  0  0  0  0  0  0  0  0
  -26.5390  -23.0220   16.0750 N   0  0  0  0  0  0  0  0  0  0  0  0
  -25.9210  -21.4520   17.5100 N   0  0  0  0  0  0  0  0  0  0  0  0
  -24.9260  -23.4870   17.5910 O   0  0  0  0  0  0  0  0  0  0  0  0
  -27.0750  -22.2850   15.6370 H   0  0  0  0  0  0  0  0  0  0  0  0
  -26.5800  -20.8690   17.0110 H   0  0  0  0  0  0  0  0  0  0  0  0
  -25.3640  -20.8830   18.7340 C   0  0  0  0  0  2  0  0  0  0  0  0
  -26.2530  -21.1620   19.9690 C   0  0  0  0  0  2  0  0  0  0  0  0
  -26.3150  -22.6310   20.4230 C   0  0  0  0  0  2  0  0  0  0  0  0
  -27.4230  -22.7780   21.3020 O   0  0  0  0  0  0  0  0  0  0  0  0
  -27.7250  -24.1260   21.6480 C   0  0  0  0  0  2  0  0  0  0  0  0
  -28.4680  -24.9210   20.5400 C   0  0  0  0  0  2  0  0  0  0  0  0
  -28.4500  -26.3300   20.7970 O   0  0  0  0  0  0  0  0  0  0  0  0
  -24.5300  -31.7000   23.2830 C   0  0  0  0  0  0  0  0  0  0  0  0
  -27.2650  -27.0260   20.6670 C   0  0  0  0  0  0  0  0  0  0  0  0
  -23.3870  -30.2100   21.6710 C   0  0  0  0  0  3  0  0  0  0  0  0
  -24.8940  -28.5590   20.4350 C   0  0  0  0  0  0  0  0  0  0  0  0
  -25.9260  -30.5140   21.6020 C   0  0  0  0  0  2  0  0  0  0  0  0
  -26.0240  -29.1050   21.0520 C   0  0  0  0  0  0  0  0  0  0  0  0
  -27.2090  -28.3480   21.1620 C   0  0  0  0  0  3  0  0  0  0  0  0
  -26.1110  -26.4840   20.0580 C   0  0  0  0  0  3  0  0  0  0  0  0
  -24.9310  -27.2440   19.9370 C   0  0  0  0  0  3  0  0  0  0  0  0
  -23.6670  -29.4440   20.3510 C   0  0  0  0  0  2  0  0  0  0  0  0
  -24.6280  -30.8230   22.2460 N   0  0  0  0  0  0  0  0  0  0  0  0
  -23.4270  -32.0270   23.7440 O   0  0  0  0  0  0  0  0  0  0  0  0
  -22.6650  -29.2620   22.6520 C   0  0  0  0  0  0  0  0  0  0  0  0
  -21.3400  -29.1260   22.4870 N   0  0  0  0  0  0  0  0  0  0  0  0
  -23.2940  -28.6550   23.5230 O   0  0  0  0  0  0  0  0  0  0  0  0
  -20.8900  -29.6710   21.7650 H   0  0  0  0  0  0  0  0  0  0  0  0
  -17.9000  -28.1330   22.9520 C   0  0  0  0  0  0  0  0  0  0  0  0
  -20.4610  -28.2590   23.2730 C   0  0  0  0  0  3  0  0  0  0  0  0
  -20.4960  -26.8050   22.7460 C   0  0  0  0  0  2  0  0  0  0  0  0
  -19.3970  -26.5060   21.7220 C   0  0  0  0  0  2  0  0  0  0  0  0
  -18.0150  -26.7510   22.3310 C   0  0  0  0  0  2  0  0  0  0  0  0
  -19.0500  -28.8480   23.3800 C   0  0  0  0  0  0  0  0  0  0  0  0
  -18.8920  -30.1420   23.9170 C   0  0  0  0  0  3  0  0  0  0  0  0
  -17.6170  -30.7220   24.0350 C   0  0  0  0  0  3  0  0  0  0  0  0
  -16.4780  -30.0050   23.6270 C   0  0  0  0  0  3  0  0  0  0  0  0
  -16.6220  -28.7120   23.0900 C   0  0  0  0  0  3  0  0  0  0  0  0
  -25.7980  -32.3440   23.9270 C   0  0  0  0  0  3  0  0  0  0  0  0
  -25.4950  -33.7570   24.1780 N   0  0  0  0  0  0  0  0  0  0  0  0
  -25.8540  -34.7690   23.3740 C   0  0  0  0  0  0  0  0  0  0  0  0
  -26.5500  -34.6110   22.3680 O   0  0  0  0  0  0  0  0  0  0  0  0
  -24.8800  -33.9600   24.9540 H   0  0  0  0  0  0  0  0  0  0  0  0
  -24.1310  -36.5370   22.8930 C   0  0  0  0  0  1  0  0  0  0  0  0
  -25.3590  -36.1800   23.7430 C   0  0  0  0  0  3  0  0  0  0  0  0
  -27.4770  -37.1140   24.5620 C   0  0  0  0  0  1  0  0  0  0  0  0
  -26.3940  -37.2250   23.5890 N   0  0  0  0  0  0  0  0  0  0  0  0
  -25.9840  -38.1520   23.6730 H   0  0  0  0  0  0  0  0  0  0  0  0
  -26.2550  -31.6290   25.2580 C   0  0  1  0  0  0  0  0  0  0  0  0
  -25.1110  -31.4310   26.2780 C   0  0  0  0  0  1  0  0  0  0  0  0
  -26.8580  -30.2390   24.9550 C   0  0  0  0  0  1  0  0  0  0  0  0
  -27.3660  -32.4540   25.9490 C   0  0  0  0  0  1  0  0  0  0  0  0
  -26.9150  -24.3860   15.7180 C   0  0  0  0  0  2  0  0  0  0  0  0
  -28.1610  -24.9150   16.4860 C   0  0  0  0  0  2  0  0  0  0  0  0
  -28.7260  -24.0830   17.6680 C   0  0  0  0  0  2  0  0  0  0  0  0
  -29.4220  -22.7470   17.2970 C   0  0  0  0  0  2  0  0  0  0  0  0
  -29.7680  -21.9030   18.5480 C   0  0  0  0  0  2  0  0  0  0  0  0
  -29.7880  -20.3690   18.3310 C   0  0  0  0  0  2  0  0  0  0  0  0
  -29.5630  -18.4460   19.9400 C   0  0  0  0  0  0  0  0  0  0  0  0
  -30.0740  -19.6380   19.5770 N   0  0  0  0  0  0  0  0  0  0  0  0
  -28.6640  -17.8780   19.3140 O   0  0  0  0  0  0  0  0  0  0  0  0
  -30.7690  -20.0310   20.1970 H   0  0  0  0  0  0  0  0  0  0  0  0
  -30.1530  -17.8030   21.2080 C   0  0  0  0  0  2  0  0  0  0  0  0
  -30.6730  -15.3870   20.8180 C   0  0  0  0  0  0  0  0  0  0  0  0
  -30.5410  -13.3030   19.5320 C   0  0  0  0  0  2  0  0  0  0  0  0
  -29.6730  -13.5740   18.2820 C   0  0  0  0  0  2  0  0  0  0  0  0
  -28.1860  -13.3270   18.6010 C   0  0  0  0  0  2  0  0  0  0  0  0
  -27.7320  -14.0790   19.8800 C   0  0  0  0  0  3  0  0  0  0  0  0
  -28.7100  -13.8190   21.0450 C   0  0  0  0  0  2  0  0  0  0  0  0
  -30.0620  -14.1900   20.5960 N   0  0  0  0  0  0  0  0  0  0  0  0
  -31.8240  -15.6340   20.4580 O   0  0  0  0  0  0  0  0  0  0  0  0
  -29.8740  -16.3580   21.2870 N   0  0  0  0  0  0  0  0  0  0  0  0
  -28.9330  -16.0980   21.5410 H   0  0  0  0  0  0  0  0  0  0  0  0
  -25.2540  -14.5440   20.3770 C   0  0  0  0  0  0  0  0  0  0  0  0
  -24.2120  -13.7080   20.6850 C   0  0  0  0  0  0  0  0  0  0  0  0
  -24.7630  -12.3930   20.7370 C   0  0  0  0  0  0  0  0  0  0  0  0
  -26.3670  -13.7280   20.2570 N   0  0  0  0  0  0  0  0  0  0  0  0
  -26.0720  -12.4330   20.5330 N   0  0  0  0  0  0  0  0  0  0  0  0
  -24.1140  -11.0890   20.9140 C   0  0  0  0  0  0  0  0  0  0  0  0
  -24.5250  -10.1900   21.9220 C   0  0  0  0  0  3  0  0  0  0  0  0
  -23.8740   -8.9480   22.0780 C   0  0  0  0  0  3  0  0  0  0  0  0
  -22.7990   -8.5990   21.2270 C   0  0  0  0  0  0  0  0  0  0  0  0
  -22.4130   -9.4890   20.2080 C   0  0  0  0  0  3  0  0  0  0  0  0
  -23.0640  -10.7230   20.0520 C   0  0  0  0  0  3  0  0  0  0  0  0
  -22.1210   -7.4060   21.2890 O   0  0  0  0  0  0  0  0  0  0  0  0
  -21.9670   -6.7280   22.4710 C   0  0  0  0  0  0  0  0  0  0  0  0
  -21.3460   -7.3190   23.5950 C   0  0  0  0  0  3  0  0  0  0  0  0
  -21.1470   -6.5620   24.7660 C   0  0  0  0  0  3  0  0  0  0  0  0
  -21.5580   -5.2160   24.8150 C   0  0  0  0  0  0  0  0  0  0  0  0
  -22.1700   -4.6260   23.6950 C   0  0  0  0  0  3  0  0  0  0  0  0
  -22.3720   -5.3800   22.5270 C   0  0  0  0  0  0  0  0  0  0  0  0
  -22.9460   -4.8020   21.4440 F   0  0  0  0  0  0  0  0  0  0  0  0
  -21.3570   -4.4860   25.9360 F   0  0  0  0  0  0  0  0  0  0  0  0
  -22.7700  -14.0960   20.8290 C   0  0  0  0  0  0  0  0  0  0  0  0
  -22.0280  -13.3830   21.6700 N   0  0  0  0  0  0  0  0  0  0  0  0
  -22.3060  -15.0650   20.2320 O   0  0  0  0  0  0  0  0  0  0  0  0
  -22.4190  -12.6040   22.1780 H   0  0  0  0  0  0  0  0  0  0  0  0
  -21.0540  -13.6150   21.8070 H   0  0  0  0  0  0  0  0  0  0  0  0
  -25.3410  -15.9160   20.1650 N   0  0  0  0  0  0  0  0  0  0  0  0
  -24.5190  -16.5100   20.1620 H   0  0  0  0  0  0  0  0  0  0  0  0
  -26.1830  -16.4040   19.8840 H   0  0  0  0  0  0  0  0  0  0  0  0
  1  3  1  0
  1  4  2  0
  2  1  1  0
  3  7  1  0
  5  2  1  0
  6  3  1  0
  7  8  1  0
  8  9  1  0
  9 10  1  0
 10 11  1  0
 12 13  1  0
 12 11  1  0
 14 25  2  0
 15 13  1  0
 15 20  1  0
 16 24  1  0
 16 26  1  0
 17 19  1  0
 18 24  1  0
 19 20  2  0
 19 18  1  0
 21 15  2  0
 22 21  1  0
 22 17  2  0
 23 17  1  0
 23 16  1  0
 24 14  1  0
 26 28  2  0
 27 26  1  0
 29 27  1  0
 30 39  2  0
 30 35  1  0
 31 27  1  0
 31 35  1  0
 32 31  1  0
 33 34  1  0
 33 32  1  0
 34 30  1  0
 35 36  2  0
 36 37  1  0
 38 37  2  0
 39 38  1  0
 40 14  1  0
 40 41  1  0
 40 50  1  0
 41 44  1  0
 42 46  1  0
 42 41  1  0
 43 42  2  0
 46 45  1  0
 48 49  1  0
 48 46  1  0
 48 47  1  0
 50 53  1  1
 50 51  1  0
 52 50  1  0
 54  2  1  0
 54 55  1  0
 55 56  1  0
 57 56  1  0
 57 58  1  0
 59 58  1  0
 59 61  1  0
 60 64  1  0
 61 60  1  0
 61 63  1  0
 62 60  2  0
 64 73  1  0
 65 73  1  0
 66 71  1  0
 67 68  1  0
 67 66  1  0
 69 68  1  0
 69 78  1  0
 69 70  1  0
 71 65  1  0
 71 70  1  0
 72 65  2  0
 73 74  1  0
 75 76  2  0
 76 77  1  0
 76 95  1  0
 77 80  1  0
 78 75  1  0
 78 79  1  0
 79 77  2  0
 80 81  1  0
 81 82  2  0
 83 86  1  0
 83 82  1  0
 84 83  2  0
 85 84  1  0
 85 80  2  0
 86 87  1  0
 87 92  2  0
 87 88  1  0
 88 89  2  0
 89 90  1  0
 90 94  1  0
 91 90  2  0
 92 91  1  0
 93 92  1  0
 95 96  1  0
 96 99  1  0
 96 98  1  0
 97 95  2  0
100 75  1  0
101100  1  0
102100  1  0
M  ISO  4  12 101  13 101  65 100  73 100
M  END
>  <TORSDO>  (46) 
F 30

>  <SCORE>  (46) 
-6.748

>  <name>  (46) 
49

>  <ligand_id>  (46) 
49

>  <original_smiles>  (46) 
[H]c1c([H])c([H])c2c(c1[H])C([H])([H])C([H])([H])C([H])([H])C2([H])N([H])C(=O)C1([H])N(C(=O)C([H])(N([H])C(=O)C([H])(N([H])C([H])([H])[H])C([H])([H])[H])C(C([H])([H])[H])(C([H])([H])[H])C([H])([H])[H])C([H])([H])c2c([H])c(OC([H])([H])C([H])([H])OC([H])([H])C([H])([H])C([H])([H])N([H])C(=O)N([H])C([H])([H])C([H])([H])C([H])([H])C([H])([H])C([H])([H])C([H])([H])N([H])C(=O)C([H])([H])N([H])C(=O)N3C([H])([H])C([H])([H])C([H])([H])C([H])(n4nc(-c5c([H])c([H])c(Oc6c([H])c([H])c(F)c([H])c6F)c([H])c5[H])c(C(=O)N([H])[H])c4N([H])[H])C3([H])[H])c([H])c([H])c2C1([H])[H]

>  <smiles>  (46) 
[H]c1c([H])c([H])c2c(c1[H])C([H])([H])C([H])([H])C([H])([H])C2([H])N([H])C(=O)C1([H])N(C(=O)C([H])(N([H])C(=O)C([H])(N([H])C([H])([H])[H])C([H])([H])[H])C(C([H])([H])[H])(C([H])([H])[H])C([H])([H])[H])C([H])([H])c2c([H])c(OC([H])([H])C([H])([H])OC([H])([H])C([H])([H])C([H])([H])N([H])C(=O)N([H])C([H])([H])C([H])([H])C([H])([H])C([H])([H])C([H])([H])C([H])([H])N([H])C(=O)C([H])([H])N([H])C(=O)N3C([H])([H])C([H])([H])C([H])([H])C([H])(n4nc(-c5c([H])c([H])c(Oc6c([H])c([H])c(F)c([H])c6F)c([H])c5[H])c(C(=O)N([H])[H])c4N([H])[H])C3([H])[H])c([H])c([H])c2C1([H])[H]

$$$$
50:0:0
     RDKit          3D

112121  0  0  1  0  0  0  0  0999 V2000
  -30.6060  -21.8040   19.2230 C   0  0  0  0  0  0  0  0  0  0  0  0
  -30.1190  -19.9990   16.0060 C   0  0  0  0  0  2  0  0  0  0  0  0
  -31.0240  -19.0610   16.7910 C   0  0  0  0  0  2  0  0  0  0  0  0
  -30.0910  -21.3010   16.8100 C   0  0  0  0  0  2  0  0  0  0  0  0
  -30.9460  -19.5470   18.2480 C   0  0  0  0  0  3  0  0  0  0  0  0
  -30.5380  -20.9590   18.1670 N   0  0  0  0  0  0  0  0  0  0  0  0
  -31.0880  -21.4560   20.3090 O   0  0  0  0  0  0  0  0  0  0  0  0
  -29.9290  -18.7020   19.0420 C   0  0  0  0  0  0  0  0  0  0  0  0
  -30.3560  -18.1770   20.1900 N   0  0  0  0  0  0  0  0  0  0  0  0
  -28.7940  -18.5040   18.6050 O   0  0  0  0  0  0  0  0  0  0  0  0
  -31.2870  -18.4040   20.5120 H   0  0  0  0  0  0  0  0  0  0  0  0
  -29.6280  -17.2280   21.0210 C   0  0  0  0  0  2  0  0  0  0  0  0
  -30.5770  -16.7820   22.1290 C   0  0  0  0  0  0  0  0  0  0  0  0
  -30.7930  -15.4690   22.2480 N   0  0  0  0  0  0  0  0  0  0  0  0
  -31.1540  -17.6260   22.8180 O   0  0  0  0  0  0  0  0  0  0  0  0
  -30.2810  -14.8660   21.6180 H   0  0  0  0  0  0  0  0  0  0  0  0
  -31.7850  -14.8420   23.1160 C   0  0  0  0  0  2  0  0  0  0  0  0
  -32.6090  -13.7810   22.3610 C   0  0  0  0  0  2  0  0  0  0  0  0
  -33.4030  -14.3170   21.1530 C   0  0  0  0  0  2  0  0  0  0  0  0
  -32.5920  -14.7150   19.9010 C   0  0  0  0  0  2  0  0  0  0  0  0
  -31.0050  -13.4080   18.5010 C   0  0  0  0  0  0  0  0  0  0  0  0
  -30.1330  -11.2770   17.6410 C   0  0  0  0  0  2  0  0  0  0  0  0
  -28.9010  -11.3720   16.7260 C   0  0  0  0  0  2  0  0  0  0  0  0
  -27.6140  -11.3750   17.5620 C   0  0  0  0  0  2  0  0  0  0  0  0
  -27.6470  -12.4400   18.6800 C   0  0  0  0  0  3  0  0  0  0  0  0
  -28.9580  -12.3650   19.5010 C   0  0  0  0  0  2  0  0  0  0  0  0
  -30.1220  -12.3900   18.5970 N   0  0  0  0  0  0  0  0  0  0  0  0
  -31.5960  -13.7110   17.4590 O   0  0  0  0  0  0  0  0  0  0  0  0
  -31.4170  -13.8630   19.6900 N   0  0  0  0  0  0  0  0  0  0  0  0
  -30.9530  -13.4820   20.5030 H   0  0  0  0  0  0  0  0  0  0  0  0
  -25.7180  -13.3350   20.1390 C   0  0  0  0  0  0  0  0  0  0  0  0
  -24.6790  -12.6980   20.7700 C   0  0  0  0  0  0  0  0  0  0  0  0
  -24.8520  -11.3040   20.5130 C   0  0  0  0  0  0  0  0  0  0  0  0
  -26.4660  -12.3350   19.5410 N   0  0  0  0  0  0  0  0  0  0  0  0
  -25.9670  -11.1010   19.8230 N   0  0  0  0  0  0  0  0  0  0  0  0
  -23.9950  -10.1560   20.8430 C   0  0  0  0  0  0  0  0  0  0  0  0
  -24.4320   -9.1530   21.7390 C   0  0  0  0  0  3  0  0  0  0  0  0
  -23.5900   -8.0630   22.0510 C   0  0  0  0  0  3  0  0  0  0  0  0
  -22.3020   -7.9750   21.4720 C   0  0  0  0  0  0  0  0  0  0  0  0
  -21.8830   -8.9630   20.5640 C   0  0  0  0  0  3  0  0  0  0  0  0
  -22.7210  -10.0450   20.2490 C   0  0  0  0  0  3  0  0  0  0  0  0
  -21.4270   -6.9390   21.6940 O   0  0  0  0  0  0  0  0  0  0  0  0
  -21.3550   -6.3010   22.9050 C   0  0  0  0  0  0  0  0  0  0  0  0
  -20.9870   -6.9810   24.0870 C   0  0  0  0  0  3  0  0  0  0  0  0
  -20.8660   -6.2730   25.2980 C   0  0  0  0  0  3  0  0  0  0  0  0
  -21.1020   -4.8870   25.3330 C   0  0  0  0  0  0  0  0  0  0  0  0
  -21.4640   -4.2060   24.1570 C   0  0  0  0  0  3  0  0  0  0  0  0
  -21.5870   -4.9120   22.9470 C   0  0  0  0  0  0  0  0  0  0  0  0
  -21.9210   -4.2500   21.8120 F   0  0  0  0  0  0  0  0  0  0  0  0
  -20.9770   -4.2030   26.4950 F   0  0  0  0  0  0  0  0  0  0  0  0
  -23.5350  -13.3530   21.4890 C   0  0  0  0  0  0  0  0  0  0  0  0
  -22.9980  -12.6920   22.5110 N   0  0  0  0  0  0  0  0  0  0  0  0
  -23.1370  -14.4720   21.1730 O   0  0  0  0  0  0  0  0  0  0  0  0
  -23.3400  -11.7810   22.7820 H   0  0  0  0  0  0  0  0  0  0  0  0
  -22.2440  -13.1090   23.0350 H   0  0  0  0  0  0  0  0  0  0  0  0
  -26.0810  -14.6720   20.0100 N   0  0  0  0  0  0  0  0  0  0  0  0
  -25.5230  -15.4280   20.3950 H   0  0  0  0  0  0  0  0  0  0  0  0
  -26.8800  -15.0010   19.4830 H   0  0  0  0  0  0  0  0  0  0  0  0
  -30.0220  -23.2220   19.1200 C   0  0  0  0  0  3  0  0  0  0  0  0
  -29.8540  -23.7600   20.4890 N   0  0  0  0  0  4  0  0  0  0  0  0
  -30.2440  -23.0320   21.0790 H   0  0  0  0  0  0  0  0  0  0  0  0
  -30.4250  -24.5860   20.5910 H   0  0  0  0  0  0  0  0  0  0  0  0
  -28.4550  -24.0620   20.8810 C   0  0  0  0  0  2  0  0  0  0  0  0
  -28.3640  -25.2850   21.8030 C   0  0  0  0  0  2  0  0  0  0  0  0
  -28.5480  -26.4810   21.0420 O   0  0  0  0  0  0  0  0  0  0  0  0
  -24.6200  -31.8890   23.3950 C   0  0  0  0  0  0  0  0  0  0  0  0
  -27.3970  -27.2110   20.8770 C   0  0  0  0  0  0  0  0  0  0  0  0
  -23.5020  -30.3710   21.7880 C   0  0  0  0  0  3  0  0  0  0  0  0
  -25.0240  -28.7030   20.6020 C   0  0  0  0  0  0  0  0  0  0  0  0
  -26.0340  -30.6950   21.7300 C   0  0  0  0  0  2  0  0  0  0  0  0
  -26.1440  -29.2740   21.2190 C   0  0  0  0  0  0  0  0  0  0  0  0
  -27.3370  -28.5350   21.3530 C   0  0  0  0  0  3  0  0  0  0  0  0
  -26.2700  -26.6410   20.2500 C   0  0  0  0  0  3  0  0  0  0  0  0
  -25.0800  -27.3830   20.1150 C   0  0  0  0  0  3  0  0  0  0  0  0
  -23.7940  -29.5710   20.4880 C   0  0  0  0  0  2  0  0  0  0  0  0
  -24.7340  -31.0030   22.3640 N   0  0  0  0  0  0  0  0  0  0  0  0
  -23.5110  -32.2170   23.8370 O   0  0  0  0  0  0  0  0  0  0  0  0
  -22.7690  -29.4430   22.7830 C   0  0  0  0  0  0  0  0  0  0  0  0
  -21.4520  -29.2710   22.5800 N   0  0  0  0  0  0  0  0  0  0  0  0
  -23.3860  -28.8760   23.6890 O   0  0  0  0  0  0  0  0  0  0  0  0
  -21.0170  -29.7810   21.8250 H   0  0  0  0  0  0  0  0  0  0  0  0
  -18.0210  -28.2370   22.9950 C   0  0  0  0  0  0  0  0  0  0  0  0
  -20.5710  -28.4100   23.3670 C   0  0  0  0  0  3  0  0  0  0  0  0
  -20.6380  -26.9450   22.8760 C   0  0  0  0  0  2  0  0  0  0  0  0
  -19.5680  -26.6090   21.8330 C   0  0  0  0  0  2  0  0  0  0  0  0
  -18.1690  -26.8450   22.4060 C   0  0  0  0  0  2  0  0  0  0  0  0
  -19.1510  -28.9770   23.4330 C   0  0  0  0  0  0  0  0  0  0  0  0
  -18.9600  -30.2820   23.9390 C   0  0  0  0  0  3  0  0  0  0  0  0
  -17.6700  -30.8430   24.0170 C   0  0  0  0  0  3  0  0  0  0  0  0
  -16.5540  -30.0980   23.5960 C   0  0  0  0  0  3  0  0  0  0  0  0
  -16.7300  -28.7990   23.0890 C   0  0  0  0  0  3  0  0  0  0  0  0
  -25.8760  -32.5470   24.0500 C   0  0  0  0  0  3  0  0  0  0  0  0
  -25.5350  -33.9420   24.3620 N   0  0  0  0  0  0  0  0  0  0  0  0
  -25.8490  -34.9900   23.5900 C   0  0  0  0  0  0  0  0  0  0  0  0
  -26.5360  -34.8890   22.5680 O   0  0  0  0  0  0  0  0  0  0  0  0
  -24.9370  -34.0950   25.1600 H   0  0  0  0  0  0  0  0  0  0  0  0
  -24.0770  -36.7240   23.1920 C   0  0  0  0  0  1  0  0  0  0  0  0
  -25.3240  -36.3740   24.0210 C   0  0  0  0  0  3  0  0  0  0  0  0
  -27.4350  -37.3280   24.8350 C   0  0  0  0  0  1  0  0  0  0  0  0
  -26.3280  -37.4530   23.8910 N   0  0  0  0  0  0  0  0  0  0  0  0
  -25.8960  -38.3640   24.0240 H   0  0  0  0  0  0  0  0  0  0  0  0
  -26.3730  -31.7920   25.3410 C   0  0  1  0  0  0  0  0  0  0  0  0
  -25.2440  -31.4710   26.3470 C   0  0  0  0  0  1  0  0  0  0  0  0
  -27.0610  -30.4600   24.9570 C   0  0  0  0  0  1  0  0  0  0  0  0
  -27.4320  -32.6480   26.0770 C   0  0  0  0  0  1  0  0  0  0  0  0
  -30.9090  -24.1790   18.2920 C   0  0  0  0  0  2  0  0  0  0  0  0
  -28.8450  -27.9530   17.6990 C   0  0  0  0  0  3  0  0  0  0  0  0
  -28.5740  -26.8560   16.8570 C   0  0  0  0  0  3  0  0  0  0  0  0
  -29.8270  -27.8450   18.7000 C   0  0  0  0  0  3  0  0  0  0  0  0
  -29.2800  -25.6490   17.0260 C   0  0  0  0  0  3  0  0  0  0  0  0
  -30.5190  -26.6320   18.8860 C   0  0  0  0  0  3  0  0  0  0  0  0
  -30.2390  -25.5240   18.0540 C   0  0  0  0  0  0  0  0  0  0  0  0
  1  7  2  0
  2  3  1  0
  2  4  1  0
  3  5  1  0
  4  6  1  0
  5  8  1  0
  6  5  1  0
  6  1  1  0
  8  9  1  0
  9 11  1  0
  9 12  1  0
 10  8  2  0
 12 13  1  0
 13 14  1  0
 13 15  2  0
 14 17  1  0
 16 14  1  0
 18 17  1  0
 19 18  1  0
 20 19  1  0
 21 27  1  0
 21 29  1  0
 22 27  1  0
 23 24  1  0
 23 22  1  0
 25 24  1  0
 25 26  1  0
 25 34  1  0
 27 26  1  0
 28 21  2  0
 29 20  1  0
 29 30  1  0
 31 32  2  0
 32 51  1  0
 33 32  1  0
 33 36  1  0
 34 35  1  0
 34 31  1  0
 35 33  2  0
 36 37  1  0
 37 38  2  0
 39 42  1  0
 39 38  1  0
 40 39  2  0
 41 40  1  0
 41 36  2  0
 42 43  1  0
 43 48  2  0
 43 44  1  0
 44 45  2  0
 45 46  1  0
 46 50  1  0
 47 46  2  0
 48 47  1  0
 49 48  1  0
 51 52  1  0
 52 54  1  0
 52 55  1  0
 53 51  2  0
 56 31  1  0
 56 57  1  0
 58 56  1  0
 59106  1  0
 59  1  1  0
 59 60  1  0
 60 62  1  0
 60 63  1  0
 60 61  1  0
 63 64  1  0
 65 64  1  0
 66 77  2  0
 67 65  1  0
 67 72  1  0
 68 76  1  0
 68 78  1  0
 69 71  1  0
 70 76  1  0
 71 72  2  0
 71 70  1  0
 73 67  2  0
 74 73  1  0
 74 69  2  0
 75 69  1  0
 75 68  1  0
 76 66  1  0
 78 80  2  0
 79 78  1  0
 81 79  1  0
 82 91  2  0
 82 87  1  0
 83 79  1  0
 83 87  1  0
 84 83  1  0
 85 86  1  0
 85 84  1  0
 86 82  1  0
 87 88  2  0
 88 89  1  0
 90 89  2  0
 91 90  1  0
 92 66  1  0
 92 93  1  0
 92102  1  0
 93 96  1  0
 94 98  1  0
 94 93  1  0
 95 94  2  0
 98 97  1  0
100 98  1  0
100101  1  0
100 99  1  0
102105  1  1
102103  1  0
104102  1  0
107109  1  0
108110  1  0
108107  2  0
109111  2  0
110112  2  0
112106  1  0
112111  1  0
M  ISO  4  21 100  29 100  64 101  65 101
M  END
>  <TORSDO>  (47) 
F 29

>  <SCORE>  (47) 
-3.439

>  <name>  (47) 
50

>  <ligand_id>  (47) 
50

>  <original_smiles>  (47) 
[H]c1c([H])c([H])c(C([H])([H])C([H])(C(=O)N2C([H])([H])C([H])([H])C([H])([H])C2([H])C(=O)N([H])C([H])([H])C(=O)N([H])C([H])([H])C([H])([H])C([H])([H])C([H])([H])N([H])C(=O)N2C([H])([H])C([H])([H])C([H])([H])C([H])(n3nc(-c4c([H])c([H])c(Oc5c([H])c([H])c(F)c([H])c5F)c([H])c4[H])c(C(=O)N([H])[H])c3N([H])[H])C2([H])[H])[N+]([H])([H])C([H])([H])C([H])([H])Oc2c([H])c([H])c3c(c2[H])C([H])([H])N(C(=O)C([H])(N([H])C(=O)C([H])(N([H])C([H])([H])[H])C([H])([H])[H])C(C([H])([H])[H])(C([H])([H])[H])C([H])([H])[H])C([H])(C(=O)N([H])C2([H])c4c([H])c([H])c([H])c([H])c4C([H])([H])C([H])([H])C2([H])[H])C3([H])[H])c([H])c1[H]

>  <smiles>  (47) 
[H]c1c([H])c([H])c(C([H])([H])C([H])(C(=O)N2C([H])([H])C([H])([H])C([H])([H])C2([H])C(=O)N([H])C([H])([H])C(=O)N([H])C([H])([H])C([H])([H])C([H])([H])C([H])([H])N([H])C(=O)N2C([H])([H])C([H])([H])C([H])([H])C([H])(n3nc(-c4c([H])c([H])c(Oc5c([H])c([H])c(F)c([H])c5F)c([H])c4[H])c(C(=O)N([H])[H])c3N([H])[H])C2([H])[H])[N+]([H])([H])C([H])([H])C([H])([H])Oc2c([H])c([H])c3c(c2[H])C([H])([H])N(C(=O)C([H])(N([H])C(=O)C([H])(N([H])C([H])([H])[H])C([H])([H])[H])C(C([H])([H])[H])(C([H])([H])[H])C([H])([H])[H])C([H])(C(=O)N([H])C2([H])c4c([H])c([H])c([H])c([H])c4C([H])([H])C([H])([H])C2([H])[H])C3([H])[H])c([H])c1[H]

$$$$
51:0:0
     RDKit          3D

 92 99  0  0  1  0  0  0  0  0999 V2000
  -27.2490  -22.8920   21.0200 C   0  0  0  0  0  2  0  0  0  0  0  0
  -28.3310  -25.0670   20.4500 C   0  0  0  0  0  0  0  0  0  0  0  0
  -27.8540  -24.1830   21.3380 N   0  0  0  0  0  0  0  0  0  0  0  0
  -28.4070  -24.8240   19.2430 O   0  0  0  0  0  0  0  0  0  0  0  0
  -27.8300  -24.4760   22.3070 H   0  0  0  0  0  0  0  0  0  0  0  0
  -28.7560  -26.4440   20.9830 C   0  0  0  0  0  2  0  0  0  0  0  0
  -28.1000  -27.4770   20.2440 O   0  0  0  0  0  0  0  0  0  0  0  0
  -24.5170  -28.4210   26.3170 C   0  0  0  0  0  0  0  0  0  0  0  0
  -27.0150  -28.0290   20.8770 C   0  0  0  0  0  0  0  0  0  0  0  0
  -23.3650  -29.1630   24.2550 C   0  0  0  0  0  3  0  0  0  0  0  0
  -24.8020  -29.2240   22.1480 C   0  0  0  0  0  0  0  0  0  0  0  0
  -25.9160  -29.1350   24.3850 C   0  0  0  0  0  2  0  0  0  0  0  0
  -25.9290  -28.8630   22.8970 C   0  0  0  0  0  0  0  0  0  0  0  0
  -27.0410  -28.2660   22.2670 C   0  0  0  0  0  3  0  0  0  0  0  0
  -25.8790  -28.3980   20.1280 C   0  0  0  0  0  3  0  0  0  0  0  0
  -24.7700  -28.9920   20.7600 C   0  0  0  0  0  3  0  0  0  0  0  0
  -23.6590  -29.8660   22.9030 C   0  0  0  0  0  2  0  0  0  0  0  0
  -24.6120  -28.8610   25.0310 N   0  0  0  0  0  0  0  0  0  0  0  0
  -23.4180  -28.3030   26.8750 O   0  0  0  0  0  0  0  0  0  0  0  0
  -22.5010  -27.9120   23.9820 C   0  0  0  0  0  0  0  0  0  0  0  0
  -21.3220  -28.1230   23.3740 N   0  0  0  0  0  0  0  0  0  0  0  0
  -22.9040  -26.7850   24.2850 O   0  0  0  0  0  0  0  0  0  0  0  0
  -21.0610  -29.0760   23.1660 H   0  0  0  0  0  0  0  0  0  0  0  0
  -18.3110  -27.5290   21.4700 C   0  0  0  0  0  0  0  0  0  0  0  0
  -20.3610  -27.0920   22.9810 C   0  0  0  0  0  3  0  0  0  0  0  0
  -20.9090  -26.2350   21.8170 C   0  0  0  0  0  2  0  0  0  0  0  0
  -20.4870  -26.7500   20.4380 C   0  0  0  0  0  2  0  0  0  0  0  0
  -18.9600  -26.7770   20.3190 C   0  0  0  0  0  2  0  0  0  0  0  0
  -18.9750  -27.6900   22.7140 C   0  0  0  0  0  0  0  0  0  0  0  0
  -18.3420  -28.4280   23.7380 C   0  0  0  0  0  3  0  0  0  0  0  0
  -17.0710  -28.9960   23.5370 C   0  0  0  0  0  3  0  0  0  0  0  0
  -16.4100  -28.8190   22.3080 C   0  0  0  0  0  3  0  0  0  0  0  0
  -17.0270  -28.0850   21.2800 C   0  0  0  0  0  3  0  0  0  0  0  0
  -25.7860  -28.0650   27.1570 C   0  0  0  0  0  3  0  0  0  0  0  0
  -26.4930  -26.7360   26.6840 C   0  0  1  0  0  0  0  0  0  0  0  0
  -25.5110  -25.5690   26.4270 C   0  0  0  0  0  1  0  0  0  0  0  0
  -27.2920  -26.9770   25.3810 C   0  0  0  0  0  1  0  0  0  0  0  0
  -27.5120  -26.2740   27.7520 C   0  0  0  0  0  1  0  0  0  0  0  0
  -25.3730  -27.9660   28.5620 N   0  0  0  0  0  0  0  0  0  0  0  0
  -25.6770  -28.8630   29.5090 C   0  0  0  0  0  0  0  0  0  0  0  0
  -26.4080  -29.8350   29.3020 O   0  0  0  0  0  0  0  0  0  0  0  0
  -24.7280  -27.2240   28.7920 H   0  0  0  0  0  0  0  0  0  0  0  0
  -23.8620  -29.5700   31.1010 C   0  0  0  0  0  1  0  0  0  0  0  0
  -25.0750  -28.6450   30.9100 C   0  0  0  0  0  3  0  0  0  0  0  0
  -27.0860  -27.8430   32.0710 C   0  0  0  0  0  1  0  0  0  0  0  0
  -26.0450  -28.8650   32.0070 N   0  0  0  0  0  0  0  0  0  0  0  0
  -25.5700  -28.8910   32.9060 H   0  0  0  0  0  0  0  0  0  0  0  0
  -28.2110  -21.7110   21.2540 C   0  0  0  0  0  2  0  0  0  0  0  0
  -27.9000  -20.5510   20.2920 C   0  0  0  0  0  2  0  0  0  0  0  0
  -28.9970  -19.4830   20.1780 C   0  0  0  0  0  2  0  0  0  0  0  0
  -30.1250  -19.9820   19.4650 O   0  0  0  0  0  0  0  0  0  0  0  0
  -31.3240  -19.2590   19.7460 C   0  0  0  0  0  2  0  0  0  0  0  0
  -31.6990  -18.4080   18.5220 C   0  0  0  0  0  2  0  0  0  0  0  0
  -32.5970  -19.1380   17.5000 C   0  0  0  0  0  2  0  0  0  0  0  0
  -34.0580  -18.0300   15.8170 C   0  0  0  0  0  0  0  0  0  0  0  0
  -35.3430  -15.9990   15.2930 C   0  0  0  0  0  2  0  0  0  0  0  0
  -34.3760  -14.9370   14.7270 C   0  0  0  0  0  2  0  0  0  0  0  0
  -33.7120  -14.1310   15.8620 C   0  0  0  0  0  2  0  0  0  0  0  0
  -33.1370  -15.0340   16.9870 C   0  0  0  0  0  3  0  0  0  0  0  0
  -34.1810  -16.0880   17.4190 C   0  0  0  0  0  2  0  0  0  0  0  0
  -34.5790  -16.8420   16.2220 N   0  0  0  0  0  0  0  0  0  0  0  0
  -34.4510  -18.6370   14.8180 O   0  0  0  0  0  0  0  0  0  0  0  0
  -32.8470  -18.3220   16.3110 N   0  0  0  0  0  0  0  0  0  0  0  0
  -32.2540  -18.6450   15.5580 H   0  0  0  0  0  0  0  0  0  0  0  0
  -31.5200  -14.4020   18.8900 C   0  0  0  0  0  0  0  0  0  0  0  0
  -31.5100  -13.3540   19.7690 C   0  0  0  0  0  0  0  0  0  0  0  0
  -32.6710  -12.5770   19.4710 C   0  0  0  0  0  0  0  0  0  0  0  0
  -32.6610  -14.2400   18.1190 N   0  0  0  0  0  0  0  0  0  0  0  0
  -33.3810  -13.1580   18.5120 N   0  0  0  0  0  0  0  0  0  0  0  0
  -33.1190  -11.2840   20.0040 C   0  0  0  0  0  0  0  0  0  0  0  0
  -34.4600  -11.0730   20.3920 C   0  0  0  0  0  3  0  0  0  0  0  0
  -34.8650   -9.8280   20.9180 C   0  0  0  0  0  3  0  0  0  0  0  0
  -33.9260   -8.7790   21.0630 C   0  0  0  0  0  0  0  0  0  0  0  0
  -32.5960   -8.9870   20.6550 C   0  0  0  0  0  3  0  0  0  0  0  0
  -32.1960  -10.2250   20.1270 C   0  0  0  0  0  3  0  0  0  0  0  0
  -34.2340   -7.5270   21.5380 O   0  0  0  0  0  0  0  0  0  0  0  0
  -35.3040   -7.3180   22.3710 C   0  0  0  0  0  0  0  0  0  0  0  0
  -35.4540   -8.0260   23.5840 C   0  0  0  0  0  3  0  0  0  0  0  0
  -36.5330   -7.7310   24.4430 C   0  0  0  0  0  3  0  0  0  0  0  0
  -37.4540   -6.7230   24.0970 C   0  0  0  0  0  0  0  0  0  0  0  0
  -37.3020   -6.0140   22.8920 C   0  0  0  0  0  3  0  0  0  0  0  0
  -36.2290   -6.3110   22.0340 C   0  0  0  0  0  0  0  0  0  0  0  0
  -36.0760   -5.6110   20.8840 F   0  0  0  0  0  0  0  0  0  0  0  0
  -38.4850   -6.4330   24.9240 F   0  0  0  0  0  0  0  0  0  0  0  0
  -30.4350  -13.0340   20.7670 C   0  0  0  0  0  0  0  0  0  0  0  0
  -30.8070  -12.4400   21.8960 N   0  0  0  0  0  0  0  0  0  0  0  0
  -29.2640  -13.3550   20.5730 O   0  0  0  0  0  0  0  0  0  0  0  0
  -31.7710  -12.1970   22.0620 H   0  0  0  0  0  0  0  0  0  0  0  0
  -30.1160  -12.2250   22.6020 H   0  0  0  0  0  0  0  0  0  0  0  0
  -30.6480  -15.4640   18.6700 N   0  0  0  0  0  0  0  0  0  0  0  0
  -29.7760  -15.5610   19.1790 H   0  0  0  0  0  0  0  0  0  0  0  0
  -30.7570  -16.1470   17.9320 H   0  0  0  0  0  0  0  0  0  0  0  0
  1 48  1  0
  1  3  1  0
  2  6  1  0
  2  3  1  0
  3  5  1  0
  4  2  2  0
  7  9  1  0
  7  6  1  0
  8 19  2  0
  9 14  1  0
 10 20  1  0
 10 18  1  0
 11 13  1  0
 11 17  1  0
 12 18  1  0
 13 12  1  0
 14 13  2  0
 15 16  1  0
 15  9  2  0
 16 11  2  0
 17 10  1  0
 18  8  1  0
 20 22  2  0
 21 20  1  0
 23 21  1  0
 24 29  1  0
 25 21  1  0
 26 25  1  0
 27 26  1  0
 28 27  1  0
 28 24  1  0
 29 25  1  0
 29 30  2  0
 31 30  1  0
 32 31  2  0
 33 24  2  0
 33 32  1  0
 34  8  1  0
 34 39  1  0
 35 34  1  0
 35 38  1  1
 36 35  1  0
 37 35  1  0
 39 42  1  0
 39 40  1  0
 40 44  1  0
 41 40  2  0
 44 43  1  0
 44 46  1  0
 46 45  1  0
 46 47  1  0
 49 48  1  0
 50 49  1  0
 51 52  1  0
 51 50  1  0
 53 52  1  0
 54 53  1  0
 55 61  1  0
 55 63  1  0
 56 61  1  0
 57 56  1  0
 57 58  1  0
 59 58  1  0
 59 60  1  0
 59 68  1  0
 61 60  1  0
 62 55  2  0
 63 54  1  0
 64 63  1  0
 65 66  2  0
 66 85  1  0
 67 66  1  0
 67 70  1  0
 68 69  1  0
 68 65  1  0
 69 67  2  0
 70 75  2  0
 70 71  1  0
 71 72  2  0
 72 73  1  0
 73 76  1  0
 74 73  2  0
 75 74  1  0
 76 77  1  0
 77 78  1  0
 78 79  2  0
 80 79  1  0
 80 84  1  0
 81 80  2  0
 82 77  2  0
 82 81  1  0
 83 82  1  0
 85 86  1  0
 86 88  1  0
 86 89  1  0
 87 85  2  0
 90 65  1  0
 90 91  1  0
 92 90  1  0
M  ISO  4   6 101   7 101  55 100  63 100
M  END
>  <TORSDO>  (48) 
F 25

>  <SCORE>  (48) 
-4.703

>  <name>  (48) 
51

>  <ligand_id>  (48) 
51

>  <original_smiles>  (48) 
[H]c1c([H])c([H])c2c(c1[H])C([H])([H])C([H])([H])C([H])([H])C2([H])N([H])C(=O)C1([H])N(C(=O)C([H])(N([H])C(=O)C([H])(N([H])C([H])([H])[H])C([H])([H])[H])C(C([H])([H])[H])(C([H])([H])[H])C([H])([H])[H])C([H])([H])c2c([H])c(OC([H])([H])C(=O)N([H])C([H])([H])C([H])([H])C([H])([H])C([H])([H])OC([H])([H])C([H])([H])C([H])([H])N([H])C(=O)N3C([H])([H])C([H])([H])C([H])([H])C([H])(n4nc(-c5c([H])c([H])c(Oc6c([H])c([H])c(F)c([H])c6F)c([H])c5[H])c(C(=O)N([H])[H])c4N([H])[H])C3([H])[H])c([H])c([H])c2C1([H])[H]

>  <smiles>  (48) 
[H]c1c([H])c([H])c2c(c1[H])C([H])([H])C([H])([H])C([H])([H])C2([H])N([H])C(=O)C1([H])N(C(=O)C([H])(N([H])C(=O)C([H])(N([H])C([H])([H])[H])C([H])([H])[H])C(C([H])([H])[H])(C([H])([H])[H])C([H])([H])[H])C([H])([H])c2c([H])c(OC([H])([H])C(=O)N([H])C([H])([H])C([H])([H])C([H])([H])C([H])([H])OC([H])([H])C([H])([H])C([H])([H])N([H])C(=O)N3C([H])([H])C([H])([H])C([H])([H])C([H])(n4nc(-c5c([H])c([H])c(Oc6c([H])c([H])c(F)c([H])c6F)c([H])c5[H])c(C(=O)N([H])[H])c4N([H])[H])C3([H])[H])c([H])c([H])c2C1([H])[H]

$$$$
52:0:0
     RDKit          3D

114121  0  0  1  0  0  0  0  0999 V2000
  -29.5690  -19.9190   21.7980 C   0  0  0  0  0  2  0  0  0  0  0  0
  -30.7990  -19.2880   22.4680 C   0  0  0  0  0  2  0  0  0  0  0  0
  -32.1220  -19.8310   21.9060 C   0  0  0  0  0  2  0  0  0  0  0  0
  -33.3530  -19.1650   22.5540 C   0  0  0  0  0  2  0  0  0  0  0  0
  -35.5970  -19.3310   21.5910 C   0  0  0  0  0  0  0  0  0  0  0  0
  -34.5810  -19.8960   22.2490 N   0  0  0  0  0  0  0  0  0  0  0  0
  -36.2000  -20.1890   20.7630 N   0  0  0  0  0  0  0  0  0  0  0  0
  -35.8230  -18.1200   21.5940 O   0  0  0  0  0  0  0  0  0  0  0  0
  -34.5050  -20.9030   22.2180 H   0  0  0  0  0  0  0  0  0  0  0  0
  -35.9680  -21.1670   20.8560 H   0  0  0  0  0  0  0  0  0  0  0  0
  -36.7340  -19.8020   19.4550 C   0  0  0  0  0  2  0  0  0  0  0  0
  -35.7180  -20.1430   18.3380 C   0  0  0  0  0  2  0  0  0  0  0  0
  -34.3900  -19.3280   18.3810 C   0  0  0  0  0  2  0  0  0  0  0  0
  -32.5470  -20.8290   19.0340 C   0  0  0  0  0  0  0  0  0  0  0  0
  -32.4880  -23.2480   18.8670 C   0  0  0  0  0  2  0  0  0  0  0  0
  -31.5580  -24.0330   19.7910 C   0  0  0  0  0  2  0  0  0  0  0  0
  -30.1690  -24.1680   19.1560 C   0  0  0  0  0  2  0  0  0  0  0  0
  -29.5890  -22.7980   18.7360 C   0  0  0  0  0  3  0  0  0  0  0  0
  -30.5970  -21.9680   17.9130 C   0  0  0  0  0  2  0  0  0  0  0  0
  -31.9170  -21.9320   18.5750 N   0  0  0  0  0  0  0  0  0  0  0  0
  -32.9540  -20.7400   20.1980 O   0  0  0  0  0  0  0  0  0  0  0  0
  -33.2010  -20.1370   18.0480 N   0  0  0  0  0  0  0  0  0  0  0  0
  -27.1320  -22.2650   18.1800 C   0  0  0  0  0  0  0  0  0  0  0  0
  -26.2300  -22.8660   17.3420 C   0  0  0  0  0  0  0  0  0  0  0  0
  -26.9300  -23.9320   16.7020 C   0  0  0  0  0  0  0  0  0  0  0  0
  -28.3180  -22.9660   18.0250 N   0  0  0  0  0  0  0  0  0  0  0  0
  -28.2020  -23.9430   17.0880 N   0  0  0  0  0  0  0  0  0  0  0  0
  -26.4490  -24.9800   15.7890 C   0  0  0  0  0  0  0  0  0  0  0  0
  -27.0450  -25.1970   14.5280 C   0  0  0  0  0  3  0  0  0  0  0  0
  -26.5500  -26.1990   13.6640 C   0  0  0  0  0  3  0  0  0  0  0  0
  -25.4450  -26.9910   14.0550 C   0  0  0  0  0  0  0  0  0  0  0  0
  -24.8720  -26.7870   15.3220 C   0  0  0  0  0  3  0  0  0  0  0  0
  -25.3660  -25.7940   16.1840 C   0  0  0  0  0  3  0  0  0  0  0  0
  -24.9110  -28.0010   13.2930 O   0  0  0  0  0  0  0  0  0  0  0  0
  -24.9760  -27.9780   11.9220 C   0  0  0  0  0  0  0  0  0  0  0  0
  -24.3920  -26.9410   11.1640 C   0  0  0  0  0  3  0  0  0  0  0  0
  -24.4270  -26.9920    9.7580 C   0  0  0  0  0  3  0  0  0  0  0  0
  -25.0270  -28.0850    9.1050 C   0  0  0  0  0  0  0  0  0  0  0  0
  -25.5980  -29.1270    9.8580 C   0  0  0  0  0  3  0  0  0  0  0  0
  -25.5730  -29.0730   11.2630 C   0  0  0  0  0  0  0  0  0  0  0  0
  -26.1100  -30.0860   11.9850 F   0  0  0  0  0  0  0  0  0  0  0  0
  -25.0510  -28.1420    7.7530 F   0  0  0  0  0  0  0  0  0  0  0  0
  -24.7730  -22.5240   17.2110 C   0  0  0  0  0  0  0  0  0  0  0  0
  -24.1970  -22.7470   16.0340 N   0  0  0  0  0  0  0  0  0  0  0  0
  -24.1500  -22.0130   18.1390 O   0  0  0  0  0  0  0  0  0  0  0  0
  -24.7110  -23.1620   15.2710 H   0  0  0  0  0  0  0  0  0  0  0  0
  -23.2260  -22.5020   15.9000 H   0  0  0  0  0  0  0  0  0  0  0  0
  -27.0430  -21.2040   19.0750 N   0  0  0  0  0  0  0  0  0  0  0  0
  -26.1710  -20.7230   19.2640 H   0  0  0  0  0  0  0  0  0  0  0  0
  -27.8090  -20.8750   19.6510 H   0  0  0  0  0  0  0  0  0  0  0  0
  -32.8430  -20.0990   16.6130 C   0  0  0  0  0  2  0  0  0  0  0  0
  -33.7090  -21.0800   15.7950 C   0  0  0  0  0  2  0  0  0  0  0  0
  -33.1830  -21.3470   14.3730 C   0  0  0  0  0  2  0  0  0  0  0  0
  -33.2420  -23.0440   12.5560 C   0  0  0  0  0  1  0  0  0  0  0  0
  -33.9160  -22.4600   13.7340 N   0  0  0  0  0  4  0  0  0  0  0  0
  -34.0290  -23.2020   14.4050 H   0  0  0  0  0  0  0  0  0  0  0  0
  -34.8390  -22.1460   13.4740 H   0  0  0  0  0  0  0  0  0  0  0  0
  -28.4800  -20.3340   22.8000 C   0  0  0  0  0  2  0  0  0  0  0  0
  -27.7340  -21.6010   22.3640 C   0  0  0  0  0  2  0  0  0  0  0  0
  -26.7470  -22.0950   23.4330 C   0  0  0  0  0  2  0  0  0  0  0  0
  -24.9100  -23.5550   22.5980 C   0  0  0  0  0  0  0  0  0  0  0  0
  -26.1550  -23.3720   23.0480 N   0  0  0  0  0  0  0  0  0  0  0  0
  -24.0860  -22.6410   22.5300 O   0  0  0  0  0  0  0  0  0  0  0  0
  -26.7540  -24.1860   23.1050 H   0  0  0  0  0  0  0  0  0  0  0  0
  -24.5330  -24.9740   22.1460 C   0  0  0  0  0  2  0  0  0  0  0  0
  -23.4070  -24.9340   21.2660 O   0  0  0  0  0  0  0  0  0  0  0  0
  -22.9310  -26.1980   20.7820 C   0  0  0  0  0  2  0  0  0  0  0  0
  -23.6390  -26.6560   19.4870 C   0  0  0  0  0  0  0  0  0  0  0  0
  -24.1550  -27.8920   19.4810 N   0  0  0  0  0  0  0  0  0  0  0  0
  -23.6960  -25.9130   18.5050 O   0  0  0  0  0  0  0  0  0  0  0  0
  -24.0860  -28.4380   20.3300 H   0  0  0  0  0  0  0  0  0  0  0  0
  -24.7520  -28.5560   18.3220 C   0  0  0  0  0  2  0  0  0  0  0  0
  -25.1480  -30.0160   18.6180 C   0  0  0  0  0  2  0  0  0  0  0  0
  -24.0350  -30.8430   18.9690 O   0  0  0  0  0  0  0  0  0  0  0  0
  -26.8790  -31.4140   25.4710 C   0  0  0  0  0  0  0  0  0  0  0  0
  -23.8370  -30.9890   20.3180 C   0  0  0  0  0  0  0  0  0  0  0  0
  -24.4510  -30.9420   25.3780 C   0  0  0  0  0  3  0  0  0  0  0  0
  -23.3600  -31.1990   23.0860 C   0  0  0  0  0  0  0  0  0  0  0  0
  -25.6000  -32.2290   23.4990 C   0  0  0  0  0  2  0  0  0  0  0  0
  -24.5760  -31.6420   22.5500 C   0  0  0  0  0  0  0  0  0  0  0  0
  -24.8270  -31.5310   21.1660 C   0  0  0  0  0  3  0  0  0  0  0  0
  -22.6030  -30.5830   20.8590 C   0  0  0  0  0  3  0  0  0  0  0  0
  -22.3670  -30.6650   22.2430 C   0  0  0  0  0  3  0  0  0  0  0  0
  -23.1800  -31.3380   24.5790 C   0  0  0  0  0  2  0  0  0  0  0  0
  -25.7050  -31.5050   24.7850 N   0  0  0  0  0  0  0  0  0  0  0  0
  -26.9200  -30.9060   26.6010 O   0  0  0  0  0  0  0  0  0  0  0  0
  -24.4800  -29.4060   25.5240 C   0  0  0  0  0  0  0  0  0  0  0  0
  -24.4900  -28.9260   26.7780 N   0  0  0  0  0  0  0  0  0  0  0  0
  -24.4570  -28.6740   24.5310 O   0  0  0  0  0  0  0  0  0  0  0  0
  -24.5230  -29.5910   27.5370 H   0  0  0  0  0  0  0  0  0  0  0  0
  -25.4230  -26.6020   29.3740 C   0  0  0  0  0  0  0  0  0  0  0  0
  -24.4650  -27.5160   27.1570 C   0  0  0  0  0  3  0  0  0  0  0  0
  -23.0760  -27.1220   27.7090 C   0  0  0  0  0  2  0  0  0  0  0  0
  -22.9800  -27.2470   29.2330 C   0  0  0  0  0  2  0  0  0  0  0  0
  -24.0250  -26.3570   29.9140 C   0  0  0  0  0  2  0  0  0  0  0  0
  -25.6300  -27.1670   28.0870 C   0  0  0  0  0  0  0  0  0  0  0  0
  -26.9480  -27.4190   27.6510 C   0  0  0  0  0  3  0  0  0  0  0  0
  -28.0490  -27.1110   28.4730 C   0  0  0  0  0  3  0  0  0  0  0  0
  -27.8400  -26.5370   29.7380 C   0  0  0  0  0  3  0  0  0  0  0  0
  -26.5300  -26.2780   30.1840 C   0  0  0  0  0  3  0  0  0  0  0  0
  -28.2170  -31.9530   24.8820 C   0  0  0  0  0  3  0  0  0  0  0  0
  -29.1570  -30.8150   24.3250 C   0  0  1  0  0  0  0  0  0  0  0  0
  -29.4110  -29.6750   25.3370 C   0  0  0  0  0  1  0  0  0  0  0  0
  -28.5540  -30.1920   23.0430 C   0  0  0  0  0  1  0  0  0  0  0  0
  -30.5270  -31.4130   23.9240 C   0  0  0  0  0  1  0  0  0  0  0  0
  -28.8930  -32.7130   25.9410 N   0  0  0  0  0  0  0  0  0  0  0  0
  -28.8650  -34.0480   26.0540 C   0  0  0  0  0  0  0  0  0  0  0  0
  -28.3230  -34.7800   25.2230 O   0  0  0  0  0  0  0  0  0  0  0  0
  -29.3150  -32.1780   26.6860 H   0  0  0  0  0  0  0  0  0  0  0  0
  -28.4770  -35.1120   28.3000 C   0  0  0  0  0  1  0  0  0  0  0  0
  -29.5460  -34.6680   27.2890 C   0  0  0  0  0  3  0  0  0  0  0  0
  -31.6480  -35.4180   26.2640 C   0  0  0  0  0  1  0  0  0  0  0  0
  -30.4270  -35.8100   26.9620 N   0  0  0  0  0  0  0  0  0  0  0  0
  -30.6910  -36.3140   27.8050 H   0  0  0  0  0  0  0  0  0  0  0  0
  1  2  1  0
  1 58  1  0
  3  2  1  0
  3  4  1  0
  5  8  2  0
  5  6  1  0
  6  4  1  0
  7 10  1  0
  7  5  1  0
  9  6  1  0
 11  7  1  0
 12 13  1  0
 12 11  1  0
 14 21  2  0
 15 16  1  0
 17 16  1  0
 18 19  1  0
 18 17  1  0
 19 20  1  0
 20 15  1  0
 20 14  1  0
 22 13  1  0
 22 14  1  0
 23 48  1  0
 24 23  2  0
 25 27  2  0
 25 24  1  0
 26 23  1  0
 26 18  1  0
 27 26  1  0
 28 33  1  0
 28 25  1  0
 29 28  2  0
 30 31  2  0
 30 29  1  0
 31 32  1  0
 32 33  2  0
 34 31  1  0
 35 34  1  0
 36 35  2  0
 37 36  1  0
 38 37  2  0
 38 39  1  0
 39 40  2  0
 40 35  1  0
 40 41  1  0
 42 38  1  0
 43 24  1  0
 43 45  2  0
 44 43  1  0
 46 44  1  0
 47 44  1  0
 48 49  1  0
 48 50  1  0
 51 22  1  0
 52 51  1  0
 53 52  1  0
 54 55  1  0
 55 53  1  0
 55 56  1  0
 57 55  1  0
 59 58  1  0
 59 60  1  0
 61 62  1  0
 62 64  1  0
 62 60  1  0
 63 61  2  0
 65 61  1  0
 66 65  1  0
 67 66  1  0
 68 67  1  0
 69 68  1  0
 69 71  1  0
 70 68  2  0
 72 73  1  0
 72 69  1  0
 73 74  1  0
 74 76  1  0
 75 86  2  0
 76 82  2  0
 76 81  1  0
 77 87  1  0
 78 84  1  0
 79 85  1  0
 80 78  1  0
 80 79  1  0
 81 80  2  0
 82 83  1  0
 83 78  2  0
 84 77  1  0
 85 77  1  0
 85 75  1  0
 87 88  1  0
 88 90  1  0
 89 87  2  0
 91 95  1  0
 91100  1  0
 92 88  1  0
 92 93  1  0
 92 96  1  0
 93 94  1  0
 94 95  1  0
 96 91  2  0
 97 96  1  0
 97 98  2  0
 98 99  1  0
 99100  2  0
101 75  1  0
101106  1  0
102101  1  0
102103  1  1
104102  1  0
105102  1  0
106107  1  0
106109  1  0
107111  1  0
108107  2  0
111110  1  0
112113  1  0
113111  1  0
113114  1  0
M  ISO  4  14 100  22 100  73 101  74 101
M  END
>  <TORSDO>  (49) 
F 37

>  <SCORE>  (49) 
8.636

>  <name>  (49) 
52

>  <ligand_id>  (49) 
52

>  <original_smiles>  (49) 
[H]c1c([H])c([H])c2c(c1[H])C([H])([H])C([H])([H])C([H])([H])C2([H])N([H])C(=O)C1([H])N(C(=O)C([H])(N([H])C(=O)C([H])(N([H])C([H])([H])[H])C([H])([H])[H])C(C([H])([H])[H])(C([H])([H])[H])C([H])([H])[H])C([H])([H])c2c([H])c(OC([H])([H])C([H])([H])N([H])C(=O)C([H])([H])OC([H])([H])C(=O)N([H])C([H])([H])C([H])([H])C([H])([H])C([H])([H])C([H])([H])C([H])([H])C([H])([H])N([H])C(=O)N([H])C([H])([H])C([H])([H])C([H])([H])N(C(=O)N3C([H])([H])C([H])([H])C([H])([H])C([H])(n4nc(-c5c([H])c([H])c(Oc6c([H])c([H])c(F)c([H])c6F)c([H])c5[H])c(C(=O)N([H])[H])c4N([H])[H])C3([H])[H])C([H])([H])C([H])([H])C([H])([H])[N+]([H])([H])C([H])([H])[H])c([H])c([H])c2C1([H])[H]

>  <smiles>  (49) 
[H]c1c([H])c([H])c2c(c1[H])C([H])([H])C([H])([H])C([H])([H])C2([H])N([H])C(=O)C1([H])N(C(=O)C([H])(N([H])C(=O)C([H])(N([H])C([H])([H])[H])C([H])([H])[H])C(C([H])([H])[H])(C([H])([H])[H])C([H])([H])[H])C([H])([H])c2c([H])c(OC([H])([H])C([H])([H])N([H])C(=O)C([H])([H])OC([H])([H])C(=O)N([H])C([H])([H])C([H])([H])C([H])([H])C([H])([H])C([H])([H])C([H])([H])C([H])([H])N([H])C(=O)N([H])C([H])([H])C([H])([H])C([H])([H])N(C(=O)N3C([H])([H])C([H])([H])C([H])([H])C([H])(n4nc(-c5c([H])c([H])c(Oc6c([H])c([H])c(F)c([H])c6F)c([H])c5[H])c(C(=O)N([H])[H])c4N([H])[H])C3([H])[H])C([H])([H])C([H])([H])C([H])([H])[N+]([H])([H])C([H])([H])[H])c([H])c([H])c2C1([H])[H]

$$$$
53:0:0
     RDKit          3D

106115  0  0  1  0  0  0  0  0999 V2000
  -20.3830  -21.9130   20.3720 C   0  0  0  0  0  2  0  0  0  0  0  0
  -20.6860  -23.3570   18.4250 C   0  0  0  0  0  0  0  0  0  0  0  0
  -20.8340  -23.1370   17.1170 N   0  0  0  0  0  0  0  0  0  0  0  0
  -20.0940  -22.3200   19.0050 N   0  0  0  0  0  0  0  0  0  0  0  0
  -21.1860  -24.2840   19.0630 O   0  0  0  0  0  0  0  0  0  0  0  0
  -20.3090  -22.3770   16.7050 H   0  0  0  0  0  0  0  0  0  0  0  0
  -19.6490  -21.6400   18.4040 H   0  0  0  0  0  0  0  0  0  0  0  0
  -21.8030  -23.7770   16.2330 C   0  0  0  0  0  2  0  0  0  0  0  0
  -23.2540  -23.6750   16.7390 C   0  0  0  0  0  3  0  0  0  0  0  0
  -24.2730  -24.0150   15.6560 C   0  0  0  0  0  2  0  0  0  0  0  0
  -25.5630  -23.8470   16.2260 O   0  0  0  0  0  0  0  0  0  0  0  0
  -26.6050  -23.6960   15.2710 C   0  0  0  0  0  2  0  0  0  0  0  0
  -27.0150  -25.0120   14.5850 C   0  0  0  0  0  2  0  0  0  0  0  0
  -28.3010  -25.4230   15.0390 O   0  0  0  0  0  0  0  0  0  0  0  0
  -32.7770  -27.8630   19.9680 C   0  0  0  0  0  0  0  0  0  0  0  0
  -28.4340  -26.2410   16.1430 C   0  0  0  0  0  0  0  0  0  0  0  0
  -30.4130  -28.5340   20.2660 C   0  0  0  0  0  3  0  0  0  0  0  0
  -28.8720  -28.0020   18.3140 C   0  0  0  0  0  0  0  0  0  0  0  0
  -31.3450  -27.9930   17.9410 C   0  0  0  0  0  2  0  0  0  0  0  0
  -29.9530  -27.5450   17.5530 C   0  0  0  0  0  0  0  0  0  0  0  0
  -29.7350  -26.6860   16.4590 C   0  0  0  0  0  3  0  0  0  0  0  0
  -27.3580  -26.6780   16.9520 C   0  0  0  0  0  3  0  0  0  0  0  0
  -27.5730  -27.5590   18.0310 C   0  0  0  0  0  3  0  0  0  0  0  0
  -29.1840  -28.9710   19.4300 C   0  0  0  0  0  2  0  0  0  0  0  0
  -31.5600  -28.0960   19.4040 N   0  0  0  0  0  0  0  0  0  0  0  0
  -32.9660  -28.0460   21.1780 O   0  0  0  0  0  0  0  0  0  0  0  0
  -29.9640  -27.4590   21.2840 C   0  0  0  0  0  0  0  0  0  0  0  0
  -29.4010  -27.9070   22.4160 N   0  0  0  0  0  0  0  0  0  0  0  0
  -30.0930  -26.2570   21.0320 O   0  0  0  0  0  0  0  0  0  0  0  0
  -29.3340  -28.9060   22.5480 H   0  0  0  0  0  0  0  0  0  0  0  0
  -27.7720  -28.0250   25.6380 C   0  0  0  0  0  0  0  0  0  0  0  0
  -28.8560  -27.0780   23.4920 C   0  0  0  0  0  3  0  0  0  0  0  0
  -27.4450  -26.5550   23.1340 C   0  0  0  0  0  2  0  0  0  0  0  0
  -26.3220  -27.4560   23.6510 C   0  0  0  0  0  2  0  0  0  0  0  0
  -26.3900  -27.5880   25.1740 C   0  0  0  0  0  2  0  0  0  0  0  0
  -28.9260  -27.7990   24.8430 C   0  0  0  0  0  0  0  0  0  0  0  0
  -30.1790  -28.2570   25.3030 C   0  0  0  0  0  3  0  0  0  0  0  0
  -30.2900  -28.9390   26.5310 C   0  0  0  0  0  3  0  0  0  0  0  0
  -29.1440  -29.1440   27.3220 C   0  0  0  0  0  3  0  0  0  0  0  0
  -27.8910  -28.6820   26.8790 C   0  0  0  0  0  3  0  0  0  0  0  0
  -33.9930  -27.3770   19.1160 C   0  0  0  0  0  3  0  0  0  0  0  0
  -35.1800  -28.0940   19.5980 N   0  0  0  0  0  0  0  0  0  0  0  0
  -35.7420  -29.1390   18.9730 C   0  0  0  0  0  0  0  0  0  0  0  0
  -35.3480  -29.5510   17.8780 O   0  0  0  0  0  0  0  0  0  0  0  0
  -35.5170  -27.8470   20.5180 H   0  0  0  0  0  0  0  0  0  0  0  0
  -36.4430  -31.1410   20.3210 C   0  0  0  0  0  1  0  0  0  0  0  0
  -36.9250  -29.8340   19.6690 C   0  0  0  0  0  3  0  0  0  0  0  0
  -38.7380  -28.9100   18.2980 C   0  0  0  0  0  1  0  0  0  0  0  0
  -38.0590  -30.1180   18.7610 N   0  0  0  0  0  0  0  0  0  0  0  0
  -38.7440  -30.7170   19.2130 H   0  0  0  0  0  0  0  0  0  0  0  0
  -34.2200  -25.8150   19.1890 C   0  0  1  0  0  0  0  0  0  0  0  0
  -34.2710  -25.2680   20.6330 C   0  0  0  0  0  1  0  0  0  0  0  0
  -33.1050  -25.0540   18.4360 C   0  0  0  0  0  1  0  0  0  0  0  0
  -35.5480  -25.4510   18.4850 C   0  0  0  0  0  1  0  0  0  0  0  0
  -21.9240  -21.8750   20.5500 C   0  0  0  0  0  2  0  0  0  0  0  0
  -22.6210  -22.0410   19.2410 N   0  0  0  0  0  4  0  0  0  0  0  0
  -22.8760  -21.1240   18.9080 H   0  0  0  0  0  0  0  0  0  0  0  0
  -21.9460  -22.4110   18.5890 H   0  0  0  0  0  0  0  0  0  0  0  0
  -23.7980  -22.9520   19.1880 C   0  0  0  0  0  2  0  0  0  0  0  0
  -23.6650  -23.9290   17.9850 C   0  0  0  0  0  3  0  0  0  0  0  0
  -24.4550  -25.2670   18.0200 C   0  0  0  0  0  2  0  0  0  0  0  0
  -23.6410  -26.2560   17.3710 O   0  0  0  0  0  0  0  0  0  0  0  0
  -25.8880  -29.1960   16.7850 C   0  0  0  0  0  3  0  0  0  0  0  0
  -25.2880  -29.7370   15.6270 C   0  0  0  0  0  3  0  0  0  0  0  0
  -25.3540  -28.0440   17.4100 C   0  0  0  0  0  3  0  0  0  0  0  0
  -23.5880  -28.0000   15.7450 C   0  0  0  0  0  3  0  0  0  0  0  0
  -24.1180  -29.1470   15.1070 C   0  0  0  0  0  0  0  0  0  0  0  0
  -24.2100  -27.4120   16.8690 C   0  0  0  0  0  0  0  0  0  0  0  0
  -23.9430  -30.2330   12.8460 C   0  0  0  0  0  0  0  0  0  0  0  0
  -23.0170  -30.0870   10.5660 C   0  0  0  0  0  2  0  0  0  0  0  0
  -21.5470  -29.6210   10.6560 C   0  0  0  0  0  2  0  0  0  0  0  0
  -21.4470  -28.0820   10.7660 C   0  0  0  0  0  2  0  0  0  0  0  0
  -22.4000  -27.4780   11.8300 C   0  0  0  0  0  3  0  0  0  0  0  0
  -23.8240  -28.0540   11.6490 C   0  0  0  0  0  2  0  0  0  0  0  0
  -23.7180  -29.5180   11.7200 N   0  0  0  0  0  0  0  0  0  0  0  0
  -24.1260  -31.4520   12.8670 O   0  0  0  0  0  0  0  0  0  0  0  0
  -23.4600  -29.5980   13.9310 N   0  0  0  0  0  0  0  0  0  0  0  0
  -22.6430  -29.0560   13.7040 H   0  0  0  0  0  0  0  0  0  0  0  0
  -22.2790  -25.1280   12.8730 C   0  0  0  0  0  0  0  0  0  0  0  0
  -22.2420  -23.8790   12.3060 C   0  0  0  0  0  0  0  0  0  0  0  0
  -22.3360  -24.0870   10.8990 C   0  0  0  0  0  0  0  0  0  0  0  0
  -22.3930  -26.0190   11.8140 N   0  0  0  0  0  0  0  0  0  0  0  0
  -22.4880  -25.3750   10.6260 N   0  0  0  0  0  0  0  0  0  0  0  0
  -22.2340  -23.1380    9.7830 C   0  0  0  0  0  0  0  0  0  0  0  0
  -23.2150  -23.0810    8.7700 C   0  0  0  0  0  3  0  0  0  0  0  0
  -23.0990  -22.1520    7.7140 C   0  0  0  0  0  3  0  0  0  0  0  0
  -21.9980  -21.2650    7.6680 C   0  0  0  0  0  0  0  0  0  0  0  0
  -21.0100  -21.3460    8.6640 C   0  0  0  0  0  3  0  0  0  0  0  0
  -21.1240  -22.2740    9.7120 C   0  0  0  0  0  3  0  0  0  0  0  0
  -21.7910  -20.3430    6.6690 O   0  0  0  0  0  0  0  0  0  0  0  0
  -22.8350  -19.8150    5.9540 C   0  0  0  0  0  0  0  0  0  0  0  0
  -23.9140  -19.1590    6.5860 C   0  0  0  0  0  3  0  0  0  0  0  0
  -24.9310  -18.5720    5.8110 C   0  0  0  0  0  3  0  0  0  0  0  0
  -24.8680  -18.6240    4.4050 C   0  0  0  0  0  0  0  0  0  0  0  0
  -23.7900  -19.2690    3.7740 C   0  0  0  0  0  3  0  0  0  0  0  0
  -22.7750  -19.8590    4.5460 C   0  0  0  0  0  0  0  0  0  0  0  0
  -21.7270  -20.4630    3.9340 F   0  0  0  0  0  0  0  0  0  0  0  0
  -25.8410  -18.0530    3.6580 F   0  0  0  0  0  0  0  0  0  0  0  0
  -22.0320  -22.5760   13.0250 C   0  0  0  0  0  0  0  0  0  0  0  0
  -22.5980  -21.4900   12.5020 N   0  0  0  0  0  0  0  0  0  0  0  0
  -21.4040  -22.5210   14.0780 O   0  0  0  0  0  0  0  0  0  0  0  0
  -23.1330  -21.5320   11.6490 H   0  0  0  0  0  0  0  0  0  0  0  0
  -22.4880  -20.6010   12.9710 H   0  0  0  0  0  0  0  0  0  0  0  0
  -22.1950  -25.5780   14.1830 N   0  0  0  0  0  0  0  0  0  0  0  0
  -22.0550  -24.9620   14.9750 H   0  0  0  0  0  0  0  0  0  0  0  0
  -22.1940  -26.5540   14.4430 H   0  0  0  0  0  0  0  0  0  0  0  0
  1 55  1  0
  2  4  1  0
  2  5  2  0
  3  2  1  0
  4  1  1  0
  6  3  1  0
  7  4  1  0
  8  9  1  0
  8  3  1  0
  9 10  1  0
  9 60  1  0
 10 11  1  0
 12 11  1  0
 13 14  1  0
 13 12  1  0
 14 16  1  0
 15 26  2  0
 16 21  2  0
 16 22  1  0
 17 27  1  0
 18 24  1  0
 19 25  1  0
 20 19  1  0
 20 18  2  0
 21 20  1  0
 22 23  2  0
 23 18  1  0
 24 17  1  0
 25 15  1  0
 25 17  1  0
 27 28  1  0
 28 30  1  0
 29 27  2  0
 31 40  1  0
 32 28  1  0
 32 36  1  0
 33 32  1  0
 33 34  1  0
 34 35  1  0
 35 31  1  0
 36 37  1  0
 36 31  2  0
 37 38  2  0
 38 39  1  0
 40 39  2  0
 41 51  1  0
 41 42  1  0
 41 15  1  0
 42 45  1  0
 43 42  1  0
 43 47  1  0
 44 43  2  0
 47 46  1  0
 48 49  1  0
 49 50  1  0
 49 47  1  0
 51 52  1  1
 53 51  1  0
 54 51  1  0
 56 55  1  0
 57 56  1  0
 58 56  1  0
 59 56  1  0
 60 61  1  0
 60 59  1  0
 62 61  1  0
 63 65  1  0
 64 63  2  0
 66 68  1  0
 67 64  1  0
 67 66  2  0
 68 62  1  0
 68 65  2  0
 69 76  2  0
 69 77  1  0
 70 71  1  0
 70 75  1  0
 71 72  1  0
 73 72  1  0
 74 75  1  0
 74 73  1  0
 75 69  1  0
 77 67  1  0
 78 77  1  0
 79104  1  0
 80 79  2  0
 80 99  1  0
 81 80  1  0
 82 73  1  0
 82 79  1  0
 83 81  2  0
 83 82  1  0
 84 81  1  0
 85 84  2  0
 86 85  1  0
 87 86  2  0
 87 88  1  0
 88 89  2  0
 89 84  1  0
 90 87  1  0
 91 92  1  0
 91 90  1  0
 93 92  2  0
 94 93  1  0
 95 94  2  0
 95 96  1  0
 96 91  2  0
 97 96  1  0
 98 94  1  0
 99101  2  0
100103  1  0
100 99  1  0
102100  1  0
104106  1  0
104105  1  0
M  ISO  4  13 101  14 101  69 100  77 100
M  END
>  <TORSDO>  (50) 
F 30

>  <SCORE>  (50) 
21.451

>  <name>  (50) 
53

>  <ligand_id>  (50) 
53

>  <original_smiles>  (50) 
[H]c1c([H])c(OC([H])([H])C([H])([H])C([H])([H])[N+]([H])([H])C([H])([H])C([H])([H])N([H])C(=O)N([H])C([H])([H])C([H])([H])C([H])([H])OC([H])([H])C([H])([H])Oc2c([H])c([H])c3c(c2[H])C([H])([H])N(C(=O)C([H])(N([H])C(=O)C([H])(N([H])C([H])([H])[H])C([H])([H])[H])C(C([H])([H])[H])(C([H])([H])[H])C([H])([H])[H])C([H])(C(=O)N([H])C2([H])c4c([H])c([H])c([H])c([H])c4C([H])([H])C([H])([H])C2([H])[H])C3([H])[H])c([H])c(N([H])C(=O)N2C([H])([H])C([H])([H])C([H])([H])C([H])(n3nc(-c4c([H])c([H])c(Oc5c([H])c([H])c(F)c([H])c5F)c([H])c4[H])c(C(=O)N([H])[H])c3N([H])[H])C2([H])[H])c1[H]

>  <smiles>  (50) 
[H]c1c([H])c(OC([H])([H])C([H])([H])C([H])([H])[N+]([H])([H])C([H])([H])C([H])([H])N([H])C(=O)N([H])C([H])([H])C([H])([H])C([H])([H])OC([H])([H])C([H])([H])Oc2c([H])c([H])c3c(c2[H])C([H])([H])N(C(=O)C([H])(N([H])C(=O)C([H])(N([H])C([H])([H])[H])C([H])([H])[H])C(C([H])([H])[H])(C([H])([H])[H])C([H])([H])[H])C([H])(C(=O)N([H])C2([H])c4c([H])c([H])c([H])c([H])c4C([H])([H])C([H])([H])C2([H])[H])C3([H])[H])c([H])c(N([H])C(=O)N2C([H])([H])C([H])([H])C([H])([H])C([H])(n3nc(-c4c([H])c([H])c(Oc5c([H])c([H])c(F)c([H])c5F)c([H])c4[H])c(C(=O)N([H])[H])c3N([H])[H])C2([H])[H])c1[H]

$$$$
54:0:0
     RDKit          3D

 96103  0  0  1  0  0  0  0  0999 V2000
  -31.8850  -25.1240   16.9410 C   0  0  0  0  0  2  0  0  0  0  0  0
  -31.0490  -23.8570   16.7210 C   0  0  0  0  0  2  0  0  0  0  0  0
  -31.3760  -22.9030   17.7220 O   0  0  0  0  0  0  0  0  0  0  0  0
  -30.5720  -21.7320   17.6470 C   0  0  0  0  0  2  0  0  0  0  0  0
  -30.9410  -20.8010   18.8110 C   0  0  0  0  0  2  0  0  0  0  0  0
  -30.0980  -19.5130   18.8360 C   0  0  0  0  0  2  0  0  0  0  0  0
  -29.8930  -17.4810   20.2350 C   0  0  0  0  0  0  0  0  0  0  0  0
  -30.4620  -18.6580   19.9610 N   0  0  0  0  0  0  0  0  0  0  0  0
  -28.9810  -17.0110   19.5470 O   0  0  0  0  0  0  0  0  0  0  0  0
  -31.1940  -18.9800   20.5830 H   0  0  0  0  0  0  0  0  0  0  0  0
  -30.4110  -16.7200   21.4630 C   0  0  0  0  0  2  0  0  0  0  0  0
  -30.6630  -14.4120   20.5940 C   0  0  0  0  0  0  0  0  0  0  0  0
  -30.3400  -12.3170   19.3410 C   0  0  0  0  0  2  0  0  0  0  0  0
  -29.3990  -12.5660   18.1450 C   0  0  0  0  0  2  0  0  0  0  0  0
  -27.9230  -12.4300   18.5700 C   0  0  0  0  0  2  0  0  0  0  0  0
  -27.5930  -13.2410   19.8520 C   0  0  0  0  0  3  0  0  0  0  0  0
  -28.6360  -12.9590   20.9550 C   0  0  0  0  0  2  0  0  0  0  0  0
  -29.9750  -13.2570   20.4090 N   0  0  0  0  0  0  0  0  0  0  0  0
  -31.7300  -14.6710   20.0240 O   0  0  0  0  0  0  0  0  0  0  0  0
  -30.0650  -15.3020   21.3920 N   0  0  0  0  0  0  0  0  0  0  0  0
  -29.1790  -15.0330   21.7900 H   0  0  0  0  0  0  0  0  0  0  0  0
  -25.1850  -13.8550   20.5350 C   0  0  0  0  0  0  0  0  0  0  0  0
  -24.1150  -13.0820   20.9040 C   0  0  0  0  0  0  0  0  0  0  0  0
  -24.5780  -11.7300   20.8840 C   0  0  0  0  0  0  0  0  0  0  0  0
  -26.2330  -12.9730   20.3170 N   0  0  0  0  0  0  0  0  0  0  0  0
  -25.8690  -11.6910   20.5810 N   0  0  0  0  0  0  0  0  0  0  0  0
  -23.8530  -10.4670   21.0800 C   0  0  0  0  0  0  0  0  0  0  0  0
  -24.2990   -9.4920   21.9980 C   0  0  0  0  0  3  0  0  0  0  0  0
  -23.5720   -8.2950   22.1800 C   0  0  0  0  0  3  0  0  0  0  0  0
  -22.3860   -8.0660   21.4420 C   0  0  0  0  0  0  0  0  0  0  0  0
  -21.9600   -9.0310   20.5130 C   0  0  0  0  0  3  0  0  0  0  0  0
  -22.6860  -10.2180   20.3290 C   0  0  0  0  0  3  0  0  0  0  0  0
  -21.6320   -6.9210   21.5330 O   0  0  0  0  0  0  0  0  0  0  0  0
  -21.6240   -6.1540   22.6700 C   0  0  0  0  0  0  0  0  0  0  0  0
  -21.2600   -6.6870   23.9260 C   0  0  0  0  0  3  0  0  0  0  0  0
  -21.1950   -5.8450   25.0560 C   0  0  0  0  0  3  0  0  0  0  0  0
  -21.4840   -4.4730   24.9300 C   0  0  0  0  0  0  0  0  0  0  0  0
  -21.8420   -3.9400   23.6790 C   0  0  0  0  0  3  0  0  0  0  0  0
  -21.9080   -4.7770   22.5520 C   0  0  0  0  0  0  0  0  0  0  0  0
  -22.2320   -4.2540   21.3440 F   0  0  0  0  0  0  0  0  0  0  0  0
  -21.4150   -3.6640   26.0130 F   0  0  0  0  0  0  0  0  0  0  0  0
  -22.7150  -13.5600   21.1680 C   0  0  0  0  0  0  0  0  0  0  0  0
  -21.9850  -12.8710   22.0370 N   0  0  0  0  0  0  0  0  0  0  0  0
  -22.2780  -14.5790   20.6370 O   0  0  0  0  0  0  0  0  0  0  0  0
  -22.3500  -12.0460   22.4900 H   0  0  0  0  0  0  0  0  0  0  0  0
  -21.0470  -13.1760   22.2550 H   0  0  0  0  0  0  0  0  0  0  0  0
  -25.3510  -15.2240   20.3500 N   0  0  0  0  0  0  0  0  0  0  0  0
  -24.5820  -15.8810   20.4340 H   0  0  0  0  0  0  0  0  0  0  0  0
  -26.2080  -15.6560   20.0250 H   0  0  0  0  0  0  0  0  0  0  0  0
  -31.4790  -26.2720   15.9980 C   0  0  0  0  0  2  0  0  0  0  0  0
  -32.0560  -27.6550   16.3580 C   0  0  0  0  0  2  0  0  0  0  0  0
  -31.2190  -28.3140   17.3030 O   0  0  0  0  0  0  0  0  0  0  0  0
  -31.6370  -28.2130   18.6590 C   0  0  0  0  0  2  0  0  0  0  0  0
  -30.3940  -28.1670   19.5590 C   0  0  0  0  0  2  0  0  0  0  0  0
  -29.4500  -27.0040   19.2000 C   0  0  0  0  0  2  0  0  0  0  0  0
  -28.5190  -26.7260   20.2330 O   0  0  0  0  0  0  0  0  0  0  0  0
  -24.6760  -31.8750   23.2370 C   0  0  0  0  0  0  0  0  0  0  0  0
  -27.3670  -27.4640   20.2030 C   0  0  0  0  0  0  0  0  0  0  0  0
  -23.4840  -30.4580   21.5920 C   0  0  0  0  0  3  0  0  0  0  0  0
  -24.9590  -28.9170   20.1900 C   0  0  0  0  0  0  0  0  0  0  0  0
  -26.0060  -30.8380   21.4070 C   0  0  0  0  0  2  0  0  0  0  0  0
  -26.1040  -29.4640   20.7840 C   0  0  0  0  0  0  0  0  0  0  0  0
  -27.3130  -28.7400   20.7980 C   0  0  0  0  0  3  0  0  0  0  0  0
  -26.2120  -26.9140   19.6150 C   0  0  0  0  0  3  0  0  0  0  0  0
  -25.0020  -27.6370   19.6080 C   0  0  0  0  0  3  0  0  0  0  0  0
  -23.7070  -29.7650   20.2190 C   0  0  0  0  0  2  0  0  0  0  0  0
  -24.7390  -31.0710   22.1380 N   0  0  0  0  0  0  0  0  0  0  0  0
  -23.5900  -32.1450   23.7690 O   0  0  0  0  0  0  0  0  0  0  0  0
  -22.8310  -29.4420   22.5560 C   0  0  0  0  0  0  0  0  0  0  0  0
  -21.5080  -29.2620   22.4260 N   0  0  0  0  0  0  0  0  0  0  0  0
  -23.5130  -28.8170   23.3730 O   0  0  0  0  0  0  0  0  0  0  0  0
  -21.0210  -29.8160   21.7360 H   0  0  0  0  0  0  0  0  0  0  0  0
  -18.1280  -28.0940   22.9300 C   0  0  0  0  0  0  0  0  0  0  0  0
  -20.6880  -28.3290   23.1970 C   0  0  0  0  0  3  0  0  0  0  0  0
  -20.7770  -26.8990   22.6180 C   0  0  0  0  0  2  0  0  0  0  0  0
  -19.6710  -26.5870   21.6050 C   0  0  0  0  0  2  0  0  0  0  0  0
  -18.2930  -26.7430   22.2520 C   0  0  0  0  0  2  0  0  0  0  0  0
  -19.2530  -28.8460   23.3590 C   0  0  0  0  0  0  0  0  0  0  0  0
  -19.0480  -30.1100   23.9520 C   0  0  0  0  0  3  0  0  0  0  0  0
  -17.7480  -30.6240   24.1200 C   0  0  0  0  0  3  0  0  0  0  0  0
  -16.6360  -29.8690   23.7070 C   0  0  0  0  0  3  0  0  0  0  0  0
  -16.8270  -28.6060   23.1180 C   0  0  0  0  0  3  0  0  0  0  0  0
  -25.9570  -32.5140   23.8600 C   0  0  0  0  0  3  0  0  0  0  0  0
  -25.6340  -33.9080   24.1910 N   0  0  0  0  0  0  0  0  0  0  0  0
  -25.9660  -34.9650   23.4380 C   0  0  0  0  0  0  0  0  0  0  0  0
  -26.6450  -34.8700   22.4120 O   0  0  0  0  0  0  0  0  0  0  0  0
  -25.0270  -34.0550   24.9850 H   0  0  0  0  0  0  0  0  0  0  0  0
  -24.2290  -36.7470   23.0750 C   0  0  0  0  0  1  0  0  0  0  0  0
  -25.4660  -36.3470   23.8960 C   0  0  0  0  0  3  0  0  0  0  0  0
  -27.5910  -37.2410   24.7400 C   0  0  0  0  0  1  0  0  0  0  0  0
  -26.4920  -37.4080   23.7930 N   0  0  0  0  0  0  0  0  0  0  0  0
  -26.0790  -38.3250   23.9410 H   0  0  0  0  0  0  0  0  0  0  0  0
  -26.4810  -31.7430   25.1320 C   0  0  1  0  0  0  0  0  0  0  0  0
  -25.3920  -31.4940   26.2010 C   0  0  0  0  0  1  0  0  0  0  0  0
  -27.0730  -30.3720   24.7330 C   0  0  0  0  0  1  0  0  0  0  0  0
  -27.6260  -32.5460   25.7940 C   0  0  0  0  0  1  0  0  0  0  0  0
  2  1  1  0
  2  3  1  0
  4  3  1  0
  4  5  1  0
  5  6  1  0
  6  8  1  0
  7 11  1  0
  8  7  1  0
  8 10  1  0
  9  7  2  0
 12 20  1  0
 13 18  1  0
 14 15  1  0
 14 13  1  0
 16 15  1  0
 16 25  1  0
 16 17  1  0
 18 12  1  0
 18 17  1  0
 19 12  2  0
 20 11  1  0
 20 21  1  0
 22 23  2  0
 23 42  1  0
 24 23  1  0
 24 27  1  0
 25 22  1  0
 25 26  1  0
 26 24  2  0
 27 28  1  0
 28 29  2  0
 30 33  1  0
 30 29  1  0
 31 30  2  0
 32 31  1  0
 32 27  2  0
 33 34  1  0
 34 35  1  0
 35 36  2  0
 37 36  1  0
 37 41  1  0
 38 37  2  0
 39 34  2  0
 39 38  1  0
 40 39  1  0
 42 43  1  0
 43 46  1  0
 43 45  1  0
 44 42  2  0
 47 48  1  0
 47 22  1  0
 49 47  1  0
 50 51  1  0
 50  1  1  0
 51 52  1  0
 52 53  1  0
 53 54  1  0
 55 54  1  0
 55 56  1  0
 57 68  2  0
 58 56  1  0
 58 63  1  0
 59 67  1  0
 59 69  1  0
 60 66  1  0
 60 62  1  0
 61 67  1  0
 62 63  2  0
 62 61  1  0
 64 58  2  0
 65 64  1  0
 65 60  2  0
 66 59  1  0
 67 57  1  0
 69 71  2  0
 70 69  1  0
 72 70  1  0
 73 82  2  0
 73 78  1  0
 74 70  1  0
 74 78  1  0
 75 74  1  0
 76 77  1  0
 76 75  1  0
 77 73  1  0
 78 79  2  0
 79 80  1  0
 81 80  2  0
 82 81  1  0
 83 57  1  0
 83 84  1  0
 83 93  1  0
 84 87  1  0
 85 89  1  0
 85 84  1  0
 86 85  2  0
 89 88  1  0
 91 89  1  0
 91 92  1  0
 91 90  1  0
 93 96  1  1
 93 94  1  0
 95 93  1  0
M  ISO  4  12 100  20 100  55 101  56 101
M  END
>  <TORSDO>  (51) 
F 29

>  <SCORE>  (51) 
-11.073

>  <name>  (51) 
54

>  <ligand_id>  (51) 
54

>  <original_smiles>  (51) 
[H]c1c([H])c([H])c2c(c1[H])C([H])([H])C([H])([H])C([H])([H])C2([H])N([H])C(=O)C1([H])N(C(=O)C([H])(N([H])C(=O)C([H])(N([H])C([H])([H])[H])C([H])([H])[H])C(C([H])([H])[H])(C([H])([H])[H])C([H])([H])[H])C([H])([H])c2c([H])c(OC([H])([H])C([H])([H])C([H])([H])OC([H])([H])C([H])([H])C([H])([H])C([H])([H])OC([H])([H])C([H])([H])C([H])([H])N([H])C(=O)C([H])([H])N([H])C(=O)N3C([H])([H])C([H])([H])C([H])([H])C([H])(n4nc(-c5c([H])c([H])c(Oc6c([H])c([H])c(F)c([H])c6F)c([H])c5[H])c(C(=O)N([H])[H])c4N([H])[H])C3([H])[H])c([H])c([H])c2C1([H])[H]

>  <smiles>  (51) 
[H]c1c([H])c([H])c2c(c1[H])C([H])([H])C([H])([H])C([H])([H])C2([H])N([H])C(=O)C1([H])N(C(=O)C([H])(N([H])C(=O)C([H])(N([H])C([H])([H])[H])C([H])([H])[H])C(C([H])([H])[H])(C([H])([H])[H])C([H])([H])[H])C([H])([H])c2c([H])c(OC([H])([H])C([H])([H])C([H])([H])OC([H])([H])C([H])([H])C([H])([H])C([H])([H])OC([H])([H])C([H])([H])C([H])([H])N([H])C(=O)C([H])([H])N([H])C(=O)N3C([H])([H])C([H])([H])C([H])([H])C([H])(n4nc(-c5c([H])c([H])c(Oc6c([H])c([H])c(F)c([H])c6F)c([H])c5[H])c(C(=O)N([H])[H])c4N([H])[H])C3([H])[H])c([H])c([H])c2C1([H])[H]

$$$$
55:0:0
     RDKit          3D

 91 99  0  0  1  0  0  0  0  0999 V2000
  -29.3970  -19.3770   20.6260 C   0  0  0  0  0  0  0  0  0  0  0  0
  -28.8190  -20.4340   20.0360 N   0  0  0  0  0  0  0  0  0  0  0  0
  -30.5320  -19.4220   21.1010 O   0  0  0  0  0  0  0  0  0  0  0  0
  -27.8920  -20.2860   19.6580 H   0  0  0  0  0  0  0  0  0  0  0  0
  -30.8480  -14.4730   20.0910 C   0  0  0  0  0  0  0  0  0  0  0  0
  -30.5050  -12.3400   18.9330 C   0  0  0  0  0  2  0  0  0  0  0  0
  -29.5310  -12.6100   17.7690 C   0  0  0  0  0  2  0  0  0  0  0  0
  -28.0680  -12.4630   18.2430 C   0  0  0  0  0  2  0  0  0  0  0  0
  -27.7750  -13.2490   19.5500 C   0  0  0  0  0  3  0  0  0  0  0  0
  -28.8710  -13.0050   20.6120 C   0  0  0  0  0  2  0  0  0  0  0  0
  -30.1730  -13.2980   19.9940 N   0  0  0  0  0  0  0  0  0  0  0  0
  -31.9950  -14.6360   19.6670 O   0  0  0  0  0  0  0  0  0  0  0  0
  -28.6200  -17.3190   19.3300 C   0  0  0  0  0  2  0  0  0  0  0  0
  -28.9160  -17.1250   21.8410 C   0  0  0  0  0  2  0  0  0  0  0  0
  -29.9050  -16.4850   19.1850 C   0  0  0  0  0  2  0  0  0  0  0  0
  -30.1710  -16.2610   21.5830 C   0  0  0  0  0  2  0  0  0  0  0  0
  -28.5580  -18.0800   20.6710 C   0  0  0  0  0  3  0  0  0  0  0  0
  -30.0580  -15.5490   20.3090 N   0  0  0  0  0  0  0  0  0  0  0  0
  -25.3910  -13.8210   20.3330 C   0  0  0  0  0  0  0  0  0  0  0  0
  -24.3440  -13.0330   20.7280 C   0  0  0  0  0  0  0  0  0  0  0  0
  -24.8270  -11.6890   20.6870 C   0  0  0  0  0  0  0  0  0  0  0  0
  -26.4420  -12.9560   20.0700 N   0  0  0  0  0  0  0  0  0  0  0  0
  -26.1070  -11.6680   20.3400 N   0  0  0  0  0  0  0  0  0  0  0  0
  -24.1270  -10.4160   20.9020 C   0  0  0  0  0  0  0  0  0  0  0  0
  -24.5630   -9.4880   21.8740 C   0  0  0  0  0  3  0  0  0  0  0  0
  -23.8620   -8.2790   22.0740 C   0  0  0  0  0  3  0  0  0  0  0  0
  -22.7120   -7.9890   21.3020 C   0  0  0  0  0  0  0  0  0  0  0  0
  -22.2950   -8.9070   20.3200 C   0  0  0  0  0  3  0  0  0  0  0  0
  -22.9980  -10.1070   20.1180 C   0  0  0  0  0  3  0  0  0  0  0  0
  -21.9850   -6.8280   21.4070 O   0  0  0  0  0  0  0  0  0  0  0  0
  -21.8770   -6.1520   22.5960 C   0  0  0  0  0  0  0  0  0  0  0  0
  -21.3620   -6.7670   23.7580 C   0  0  0  0  0  3  0  0  0  0  0  0
  -21.2030   -6.0170   24.9410 C   0  0  0  0  0  3  0  0  0  0  0  0
  -21.5490   -4.6530   24.9610 C   0  0  0  0  0  0  0  0  0  0  0  0
  -22.0590   -4.0380   23.8040 C   0  0  0  0  0  3  0  0  0  0  0  0
  -22.2200   -4.7860   22.6240 C   0  0  0  0  0  0  0  0  0  0  0  0
  -22.6900   -4.1830   21.5040 F   0  0  0  0  0  0  0  0  0  0  0  0
  -21.3910   -3.9300   26.0950 F   0  0  0  0  0  0  0  0  0  0  0  0
  -22.9470  -13.4890   21.0400 C   0  0  0  0  0  0  0  0  0  0  0  0
  -22.2560  -12.7870   21.9320 N   0  0  0  0  0  0  0  0  0  0  0  0
  -22.4760  -14.5040   20.5280 O   0  0  0  0  0  0  0  0  0  0  0  0
  -22.6490  -11.9690   22.3710 H   0  0  0  0  0  0  0  0  0  0  0  0
  -21.3200  -13.0730   22.1810 H   0  0  0  0  0  0  0  0  0  0  0  0
  -25.5330  -15.1940   20.1600 N   0  0  0  0  0  0  0  0  0  0  0  0
  -24.7750  -15.8480   20.3220 H   0  0  0  0  0  0  0  0  0  0  0  0
  -26.3970  -15.6440   19.8920 H   0  0  0  0  0  0  0  0  0  0  0  0
  -29.4240  -21.7440   19.7880 C   0  0  0  0  0  2  0  0  0  0  0  0
  -28.5830  -22.8780   20.4040 C   0  0  0  0  0  2  0  0  0  0  0  0
  -28.9920  -24.2880   19.9250 C   0  0  0  0  0  2  0  0  0  0  0  0
  -28.2880  -25.4010   20.7190 C   0  0  0  0  0  2  0  0  0  0  0  0
  -28.4630  -26.7000   20.1270 O   0  0  0  0  0  0  0  0  0  0  0  0
  -24.6420  -31.8490   23.2060 C   0  0  0  0  0  0  0  0  0  0  0  0
  -27.3140  -27.4560   20.0970 C   0  0  0  0  0  0  0  0  0  0  0  0
  -23.4490  -30.4550   21.5480 C   0  0  0  0  0  3  0  0  0  0  0  0
  -24.9160  -28.9450   20.1090 C   0  0  0  0  0  0  0  0  0  0  0  0
  -25.9720  -30.8340   21.3600 C   0  0  0  0  0  2  0  0  0  0  0  0
  -26.0680  -29.4710   20.7080 C   0  0  0  0  0  0  0  0  0  0  0  0
  -27.2740  -28.7330   20.7000 C   0  0  0  0  0  3  0  0  0  0  0  0
  -26.1520  -26.9520   19.4740 C   0  0  0  0  0  3  0  0  0  0  0  0
  -24.9520  -27.6850   19.4880 C   0  0  0  0  0  3  0  0  0  0  0  0
  -23.6670  -29.7940   20.1620 C   0  0  0  0  0  2  0  0  0  0  0  0
  -24.7050  -31.0590   22.0970 N   0  0  0  0  0  0  0  0  0  0  0  0
  -23.5580  -32.1100   23.7460 O   0  0  0  0  0  0  0  0  0  0  0  0
  -22.8030  -29.4190   22.4970 C   0  0  0  0  0  0  0  0  0  0  0  0
  -21.4790  -29.2370   22.3730 N   0  0  0  0  0  0  0  0  0  0  0  0
  -23.4910  -28.7820   23.3010 O   0  0  0  0  0  0  0  0  0  0  0  0
  -20.9840  -29.8020   21.6960 H   0  0  0  0  0  0  0  0  0  0  0  0
  -18.1070  -28.0370   22.8670 C   0  0  0  0  0  0  0  0  0  0  0  0
  -20.6650  -28.2900   23.1350 C   0  0  0  0  0  3  0  0  0  0  0  0
  -20.7650  -26.8660   22.5410 C   0  0  0  0  0  2  0  0  0  0  0  0
  -19.6600  -26.5570   21.5250 C   0  0  0  0  0  2  0  0  0  0  0  0
  -18.2810  -26.6960   22.1750 C   0  0  0  0  0  2  0  0  0  0  0  0
  -19.2280  -28.7930   23.3040 C   0  0  0  0  0  0  0  0  0  0  0  0
  -19.0120  -30.0480   23.9120 C   0  0  0  0  0  3  0  0  0  0  0  0
  -17.7080  -30.5500   24.0860 C   0  0  0  0  0  3  0  0  0  0  0  0
  -16.6020  -29.7910   23.6650 C   0  0  0  0  0  3  0  0  0  0  0  0
  -16.8010  -28.5370   23.0620 C   0  0  0  0  0  3  0  0  0  0  0  0
  -25.9230  -32.4830   23.8330 C   0  0  0  0  0  3  0  0  0  0  0  0
  -26.4450  -31.7030   25.1010 C   0  0  1  0  0  0  0  0  0  0  0  0
  -25.3530  -31.4490   26.1660 C   0  0  0  0  0  1  0  0  0  0  0  0
  -27.0360  -30.3330   24.6940 C   0  0  0  0  0  1  0  0  0  0  0  0
  -27.5910  -32.4980   25.7720 C   0  0  0  0  0  1  0  0  0  0  0  0
  -25.6060  -33.8760   24.1730 N   0  0  0  0  0  0  0  0  0  0  0  0
  -25.9310  -34.9350   23.4180 C   0  0  0  0  0  0  0  0  0  0  0  0
  -26.6000  -34.8430   22.3870 O   0  0  0  0  0  0  0  0  0  0  0  0
  -25.0130  -34.0230   24.9760 H   0  0  0  0  0  0  0  0  0  0  0  0
  -24.1880  -36.7140   23.0740 C   0  0  0  0  0  1  0  0  0  0  0  0
  -25.4330  -36.3170   23.8840 C   0  0  0  0  0  3  0  0  0  0  0  0
  -27.5630  -37.2120   24.7150 C   0  0  0  0  0  1  0  0  0  0  0  0
  -26.4570  -37.3780   23.7760 N   0  0  0  0  0  0  0  0  0  0  0  0
  -26.0430  -38.2940   23.9330 H   0  0  0  0  0  0  0  0  0  0  0  0
  1  3  2  0
  2  1  1  0
  4  2  1  0
  5 18  1  0
  6 11  1  0
  7  8  1  0
  7  6  1  0
  9  8  1  0
  9 22  1  0
  9 10  1  0
 11  5  1  0
 11 10  1  0
 12  5  2  0
 13 17  1  0
 15 13  1  0
 15 18  1  0
 16 14  1  0
 17  1  1  0
 17 14  1  0
 18 16  1  0
 19 20  2  0
 20 39  1  0
 21 20  1  0
 21 24  1  0
 22 19  1  0
 22 23  1  0
 23 21  2  0
 24 25  1  0
 25 26  2  0
 27 30  1  0
 27 26  1  0
 28 27  2  0
 29 28  1  0
 29 24  2  0
 30 31  1  0
 31 36  2  0
 31 32  1  0
 32 33  2  0
 33 34  1  0
 34 38  1  0
 35 34  2  0
 36 35  1  0
 37 36  1  0
 39 40  1  0
 40 43  1  0
 40 42  1  0
 41 39  2  0
 44 45  1  0
 44 19  1  0
 46 44  1  0
 47  2  1  0
 47 48  1  0
 49 48  1  0
 49 50  1  0
 51 50  1  0
 52 63  2  0
 53 51  1  0
 53 58  1  0
 54 62  1  0
 54 64  1  0
 55 61  1  0
 55 57  1  0
 56 62  1  0
 57 56  1  0
 58 57  2  0
 59 60  1  0
 59 53  2  0
 60 55  2  0
 61 54  1  0
 62 52  1  0
 64 66  2  0
 65 64  1  0
 67 65  1  0
 68 77  2  0
 68 73  1  0
 69 65  1  0
 69 73  1  0
 70 69  1  0
 71 72  1  0
 71 70  1  0
 72 68  1  0
 73 74  2  0
 74 75  1  0
 76 75  2  0
 77 76  1  0
 78 52  1  0
 78 83  1  0
 78 79  1  0
 79 82  1  1
 79 80  1  0
 81 79  1  0
 83 86  1  0
 84 88  1  0
 84 83  1  0
 85 84  2  0
 88 87  1  0
 90 88  1  0
 90 91  1  0
 90 89  1  0
M  ISO  4   5 100  18 100  50 101  51 101
M  END
>  <TORSDO>  (52) 
F 20

>  <SCORE>  (52) 
-12.504

>  <name>  (52) 
55

>  <ligand_id>  (52) 
55

>  <original_smiles>  (52) 
[H]c1c([H])c([H])c2c(c1[H])C([H])([H])C([H])([H])C([H])([H])C2([H])N([H])C(=O)C1([H])N(C(=O)C([H])(N([H])C(=O)C([H])(N([H])C([H])([H])[H])C([H])([H])[H])C(C([H])([H])[H])(C([H])([H])[H])C([H])([H])[H])C([H])([H])c2c([H])c(OC([H])([H])C([H])([H])C([H])([H])C([H])([H])N([H])C(=O)C3([H])C([H])([H])C([H])([H])N(C(=O)N4C([H])([H])C([H])([H])C([H])([H])C([H])(n5nc(-c6c([H])c([H])c(Oc7c([H])c([H])c(F)c([H])c7F)c([H])c6[H])c(C(=O)N([H])[H])c5N([H])[H])C4([H])[H])C([H])([H])C3([H])[H])c([H])c([H])c2C1([H])[H]

>  <smiles>  (52) 
[H]c1c([H])c([H])c2c(c1[H])C([H])([H])C([H])([H])C([H])([H])C2([H])N([H])C(=O)C1([H])N(C(=O)C([H])(N([H])C(=O)C([H])(N([H])C([H])([H])[H])C([H])([H])[H])C(C([H])([H])[H])(C([H])([H])[H])C([H])([H])[H])C([H])([H])c2c([H])c(OC([H])([H])C([H])([H])C([H])([H])C([H])([H])N([H])C(=O)C3([H])C([H])([H])C([H])([H])N(C(=O)N4C([H])([H])C([H])([H])C([H])([H])C([H])(n5nc(-c6c([H])c([H])c(Oc7c([H])c([H])c(F)c([H])c7F)c([H])c6[H])c(C(=O)N([H])[H])c5N([H])[H])C4([H])[H])C([H])([H])C3([H])[H])c([H])c([H])c2C1([H])[H]

$$$$
56:0:0
     RDKit          3D

 89 97  0  0  1  0  0  0  0  0999 V2000
  -29.3740  -19.0620   19.8740 C   0  0  0  0  0  0  0  0  0  0  0  0
  -29.3700  -20.3960   20.3880 N   0  0  0  0  0  0  0  0  0  0  0  0
  -28.7760  -18.8500   18.8180 O   0  0  0  0  0  0  0  0  0  0  0  0
  -29.9010  -20.4990   21.2440 H   0  0  0  0  0  0  0  0  0  0  0  0
  -30.5870  -15.0250   20.0100 C   0  0  0  0  0  0  0  0  0  0  0  0
  -30.4010  -12.7180   18.9380 C   0  0  0  0  0  2  0  0  0  0  0  0
  -29.3860  -12.7170   17.7700 C   0  0  0  0  0  2  0  0  0  0  0  0
  -27.9530  -12.4860   18.2840 C   0  0  0  0  0  2  0  0  0  0  0  0
  -27.6310  -13.3560   19.5260 C   0  0  0  0  0  3  0  0  0  0  0  0
  -28.7540  -13.2940   20.5790 C   0  0  0  0  0  2  0  0  0  0  0  0
  -29.9870  -13.7620   19.9240 N   0  0  0  0  0  0  0  0  0  0  0  0
  -31.6990  -15.1480   19.4830 O   0  0  0  0  0  0  0  0  0  0  0  0
  -30.6940  -17.1610   22.7470 C   0  0  0  0  0  2  0  0  0  0  0  0
  -31.1850  -18.0300   21.5920 C   0  0  0  0  0  2  0  0  0  0  0  0
  -30.0700  -15.9090   22.0780 C   0  0  0  0  0  2  0  0  0  0  0  0
  -30.0890  -17.7380   20.5840 C   0  0  0  0  0  3  0  0  0  0  0  0
  -29.9120  -16.1430   20.6010 N   0  0  0  0  0  0  0  0  0  0  0  0
  -25.3040  -13.9100   20.4350 C   0  0  0  0  0  0  0  0  0  0  0  0
  -24.2640  -13.1220   20.8470 C   0  0  0  0  0  0  0  0  0  0  0  0
  -24.7230  -11.7730   20.7420 C   0  0  0  0  0  0  0  0  0  0  0  0
  -26.3270  -13.0410   20.0970 N   0  0  0  0  0  0  0  0  0  0  0  0
  -25.9920  -11.7480   20.3460 N   0  0  0  0  0  0  0  0  0  0  0  0
  -24.0100  -10.5040   20.9390 C   0  0  0  0  0  0  0  0  0  0  0  0
  -24.4520   -9.5430   21.8740 C   0  0  0  0  0  3  0  0  0  0  0  0
  -23.7360   -8.3410   22.0570 C   0  0  0  0  0  3  0  0  0  0  0  0
  -22.5630   -8.0910   21.3050 C   0  0  0  0  0  0  0  0  0  0  0  0
  -22.1400   -9.0410   20.3600 C   0  0  0  0  0  3  0  0  0  0  0  0
  -22.8560  -10.2350   20.1740 C   0  0  0  0  0  3  0  0  0  0  0  0
  -21.8170   -6.9400   21.3980 O   0  0  0  0  0  0  0  0  0  0  0  0
  -21.7050   -6.2490   22.5780 C   0  0  0  0  0  0  0  0  0  0  0  0
  -21.1900   -6.8490   23.7470 C   0  0  0  0  0  3  0  0  0  0  0  0
  -21.0260   -6.0820   24.9180 C   0  0  0  0  0  3  0  0  0  0  0  0
  -21.3680   -4.7170   24.9200 C   0  0  0  0  0  0  0  0  0  0  0  0
  -21.8760   -4.1160   23.7550 C   0  0  0  0  0  3  0  0  0  0  0  0
  -22.0420   -4.8800   22.5870 C   0  0  0  0  0  0  0  0  0  0  0  0
  -22.5100   -4.2910   21.4610 F   0  0  0  0  0  0  0  0  0  0  0  0
  -21.2040   -3.9790   26.0440 F   0  0  0  0  0  0  0  0  0  0  0  0
  -22.8880  -13.5890   21.2240 C   0  0  0  0  0  0  0  0  0  0  0  0
  -22.2240  -12.8730   22.1250 N   0  0  0  0  0  0  0  0  0  0  0  0
  -22.4150  -14.6240   20.7570 O   0  0  0  0  0  0  0  0  0  0  0  0
  -22.6220  -12.0360   22.5240 H   0  0  0  0  0  0  0  0  0  0  0  0
  -21.3040  -13.1660   22.4190 H   0  0  0  0  0  0  0  0  0  0  0  0
  -25.4600  -15.2860   20.2970 N   0  0  0  0  0  0  0  0  0  0  0  0
  -24.7110  -15.9420   20.4890 H   0  0  0  0  0  0  0  0  0  0  0  0
  -26.3000  -15.7330   19.9510 H   0  0  0  0  0  0  0  0  0  0  0  0
  -28.6130  -21.7200   19.9410 C   0  0  0  0  0  2  0  0  0  0  0  0
  -28.8850  -23.3010   20.5000 C   0  0  0  0  0  3  0  0  0  0  0  0
  -27.9580  -24.6680   20.1000 C   0  0  0  0  0  3  0  0  0  0  0  0
  -28.1900  -26.1780   20.4450 O   0  0  0  0  0  0  0  0  0  0  0  0
  -24.5860  -31.9290   23.3480 C   0  0  0  0  0  0  0  0  0  0  0  0
  -27.1450  -27.1750   20.3520 C   0  0  0  0  0  0  0  0  0  0  0  0
  -23.3850  -30.5350   21.7090 C   0  0  0  0  0  3  0  0  0  0  0  0
  -24.8300  -28.9430   20.2980 C   0  0  0  0  0  0  0  0  0  0  0  0
  -25.9430  -30.7780   21.5600 C   0  0  0  0  0  2  0  0  0  0  0  0
  -26.0100  -29.3810   20.9130 C   0  0  0  0  0  0  0  0  0  0  0  0
  -27.1660  -28.5120   20.9240 C   0  0  0  0  0  3  0  0  0  0  0  0
  -25.9420  -26.8450   19.6900 C   0  0  0  0  0  3  0  0  0  0  0  0
  -24.8100  -27.6890   19.6710 C   0  0  0  0  0  3  0  0  0  0  0  0
  -23.6090  -29.8490   20.3340 C   0  0  0  0  0  2  0  0  0  0  0  0
  -24.6580  -31.1030   22.2600 N   0  0  0  0  0  0  0  0  0  0  0  0
  -23.4980  -32.2260   23.8670 O   0  0  0  0  0  0  0  0  0  0  0  0
  -22.6910  -29.5390   22.6710 C   0  0  0  0  0  0  0  0  0  0  0  0
  -21.3670  -29.3570   22.5180 N   0  0  0  0  0  0  0  0  0  0  0  0
  -23.3480  -28.9300   23.5200 O   0  0  0  0  0  0  0  0  0  0  0  0
  -20.8940  -29.8990   21.8080 H   0  0  0  0  0  0  0  0  0  0  0  0
  -17.9880  -28.1240   22.9450 C   0  0  0  0  0  0  0  0  0  0  0  0
  -20.5340  -28.4280   23.2850 C   0  0  0  0  0  3  0  0  0  0  0  0
  -20.6720  -26.9840   22.7490 C   0  0  0  0  0  2  0  0  0  0  0  0
  -19.6070  -26.6220   21.7090 C   0  0  0  0  0  2  0  0  0  0  0  0
  -18.2040  -26.7620   22.3060 C   0  0  0  0  0  2  0  0  0  0  0  0
  -19.0820  -28.9130   23.3910 C   0  0  0  0  0  0  0  0  0  0  0  0
  -18.8270  -30.1830   23.9480 C   0  0  0  0  0  3  0  0  0  0  0  0
  -17.5100  -30.6680   24.0650 C   0  0  0  0  0  3  0  0  0  0  0  0
  -16.4300  -29.8770   23.6350 C   0  0  0  0  0  3  0  0  0  0  0  0
  -16.6700  -28.6070   23.0810 C   0  0  0  0  0  3  0  0  0  0  0  0
  -25.8640  -32.5580   23.9810 C   0  0  0  0  0  3  0  0  0  0  0  0
  -26.3490  -31.8030   25.2810 C   0  0  1  0  0  0  0  0  0  0  0  0
  -25.2340  -31.5960   26.3320 C   0  0  0  0  0  1  0  0  0  0  0  0
  -26.9240  -30.4130   24.9270 C   0  0  0  0  0  1  0  0  0  0  0  0
  -27.4960  -32.5960   25.9500 C   0  0  0  0  0  1  0  0  0  0  0  0
  -25.5660  -33.9660   24.2890 N   0  0  0  0  0  0  0  0  0  0  0  0
  -25.9010  -35.0060   23.5130 C   0  0  0  0  0  0  0  0  0  0  0  0
  -26.5580  -34.8800   22.4770 O   0  0  0  0  0  0  0  0  0  0  0  0
  -24.9800  -34.1380   25.0920 H   0  0  0  0  0  0  0  0  0  0  0  0
  -24.1710  -36.8030   23.1720 C   0  0  0  0  0  1  0  0  0  0  0  0
  -25.4330  -36.4070   23.9560 C   0  0  0  0  0  3  0  0  0  0  0  0
  -27.5920  -37.3020   24.7110 C   0  0  0  0  0  1  0  0  0  0  0  0
  -26.4660  -37.4530   23.7920 N   0  0  0  0  0  0  0  0  0  0  0  0
  -26.0680  -38.3780   23.9280 H   0  0  0  0  0  0  0  0  0  0  0  0
  1  2  1  0
  2  4  1  0
  3  1  2  0
  5 17  1  0
  6 11  1  0
  7  8  1  0
  7  6  1  0
  9  8  1  0
  9 21  1  0
  9 10  1  0
 11  5  1  0
 11 10  1  0
 12  5  2  0
 14 13  1  0
 15 13  1  0
 16  1  1  0
 16 17  1  0
 16 14  1  0
 17 15  1  0
 18 19  2  0
 19 38  1  0
 20 19  1  0
 20 23  1  0
 21 22  1  0
 21 18  1  0
 22 20  2  0
 23 24  1  0
 24 25  2  0
 26 29  1  0
 26 25  1  0
 27 26  2  0
 28 27  1  0
 28 23  2  0
 29 30  1  0
 30 35  2  0
 30 31  1  0
 31 32  2  0
 32 33  1  0
 33 37  1  0
 34 33  2  0
 35 34  1  0
 36 35  1  0
 38 39  1  0
 39 42  1  0
 39 41  1  0
 40 38  2  0
 43 18  1  0
 43 44  1  0
 45 43  1  0
 46  2  1  0
 46 47  1  0
 48 49  1  0
 48 47  2  0
 50 61  2  0
 51 49  1  0
 51 56  1  0
 52 60  1  0
 52 62  1  0
 53 59  1  0
 53 55  1  0
 54 60  1  0
 55 56  2  0
 55 54  1  0
 57 51  2  0
 58 57  1  0
 58 53  2  0
 59 52  1  0
 60 50  1  0
 62 64  2  0
 63 62  1  0
 65 63  1  0
 66 75  2  0
 66 71  1  0
 67 63  1  0
 67 71  1  0
 68 67  1  0
 69 70  1  0
 69 68  1  0
 70 66  1  0
 71 72  2  0
 72 73  1  0
 74 73  2  0
 75 74  1  0
 76 50  1  0
 76 81  1  0
 76 77  1  0
 77 80  1  1
 77 78  1  0
 79 77  1  0
 81 84  1  0
 82 86  1  0
 82 81  1  0
 83 82  2  0
 86 85  1  0
 88 89  1  0
 88 86  1  0
 88 87  1  0
M  ISO  4   5 100  17 100  48 101  49 101
M  END
>  <TORSDO>  (53) 
F 19

>  <SCORE>  (53) 
-14.861

>  <name>  (53) 
56

>  <ligand_id>  (53) 
56

>  <original_smiles>  (53) 
[H]c1c([H])c([H])c2c(c1[H])C([H])([H])C([H])([H])C([H])([H])C2([H])N([H])C(=O)C1([H])N(C(=O)C([H])(N([H])C(=O)C([H])(N([H])C([H])([H])[H])C([H])([H])[H])C(C([H])([H])[H])(C([H])([H])[H])C([H])([H])[H])C([H])([H])c2c([H])c(OC([H])([H])C([H])([H])C([H])([H])N([H])C(=O)C3([H])N(C(=O)N4C([H])([H])C([H])([H])C([H])([H])C([H])(n5nc(-c6c([H])c([H])c(Oc7c([H])c([H])c(F)c([H])c7F)c([H])c6[H])c(C(=O)N([H])[H])c5N([H])[H])C4([H])[H])C([H])([H])C([H])([H])C3([H])[H])c([H])c([H])c2C1([H])[H]

>  <smiles>  (53) 
[H]c1c([H])c([H])c2c(c1[H])C([H])([H])C([H])([H])C([H])([H])C2([H])N([H])C(=O)C1([H])N(C(=O)C([H])(N([H])C(=O)C([H])(N([H])C([H])([H])[H])C([H])([H])[H])C(C([H])([H])[H])(C([H])([H])[H])C([H])([H])[H])C([H])([H])c2c([H])c(OC([H])([H])C([H])([H])C([H])([H])N([H])C(=O)C3([H])N(C(=O)N4C([H])([H])C([H])([H])C([H])([H])C([H])(n5nc(-c6c([H])c([H])c(Oc7c([H])c([H])c(F)c([H])c7F)c([H])c6[H])c(C(=O)N([H])[H])c5N([H])[H])C4([H])[H])C([H])([H])C([H])([H])C3([H])[H])c([H])c([H])c2C1([H])[H]

$$$$
57:0:0
     RDKit          3D

 99106  0  0  1  0  0  0  0  0999 V2000
  -34.6050  -25.9250   17.3510 C   0  0  0  0  0  2  0  0  0  0  0  0
  -33.0620  -24.2210   18.3270 C   0  0  0  0  0  0  0  0  0  0  0  0
  -34.2370  -24.8580   18.2770 N   0  0  0  0  0  0  0  0  0  0  0  0
  -32.1820  -24.3660   17.4730 O   0  0  0  0  0  0  0  0  0  0  0  0
  -34.9050  -24.6390   19.0060 H   0  0  0  0  0  0  0  0  0  0  0  0
  -32.8310  -23.3240   19.5450 C   0  0  0  0  0  2  0  0  0  0  0  0
  -32.1010  -22.1560   19.1780 O   0  0  0  0  0  0  0  0  0  0  0  0
  -31.8850  -21.3190   20.3040 C   0  0  0  0  0  2  0  0  0  0  0  0
  -31.1770  -20.0300   19.8780 C   0  0  0  0  0  2  0  0  0  0  0  0
  -31.1220  -19.0170   21.0320 C   0  0  0  0  0  2  0  0  0  0  0  0
  -30.4770  -17.6800   20.6460 C   0  0  0  0  0  2  0  0  0  0  0  0
  -30.6280  -16.6390   21.7720 C   0  0  0  0  0  2  0  0  0  0  0  0
  -30.6520  -14.4510   20.5880 C   0  0  0  0  0  0  0  0  0  0  0  0
  -30.3120  -12.3730   19.3220 C   0  0  0  0  0  2  0  0  0  0  0  0
  -29.3640  -12.6300   18.1360 C   0  0  0  0  0  2  0  0  0  0  0  0
  -27.8930  -12.4810   18.5690 C   0  0  0  0  0  2  0  0  0  0  0  0
  -27.5670  -13.2790   19.8600 C   0  0  0  0  0  3  0  0  0  0  0  0
  -28.6220  -13.0050   20.9540 C   0  0  0  0  0  2  0  0  0  0  0  0
  -29.9510  -13.3080   20.3960 N   0  0  0  0  0  0  0  0  0  0  0  0
  -31.7240  -14.6970   20.0280 O   0  0  0  0  0  0  0  0  0  0  0  0
  -30.0720  -15.3420   21.4020 N   0  0  0  0  0  0  0  0  0  0  0  0
  -29.1820  -15.0810   21.8010 H   0  0  0  0  0  0  0  0  0  0  0  0
  -25.1620  -13.8730   20.5610 C   0  0  0  0  0  0  0  0  0  0  0  0
  -24.0970  -13.0930   20.9270 C   0  0  0  0  0  0  0  0  0  0  0  0
  -24.5650  -11.7440   20.8920 C   0  0  0  0  0  0  0  0  0  0  0  0
  -26.2120  -12.9980   20.3320 N   0  0  0  0  0  0  0  0  0  0  0  0
  -25.8540  -11.7120   20.5830 N   0  0  0  0  0  0  0  0  0  0  0  0
  -23.8440  -10.4770   21.0760 C   0  0  0  0  0  0  0  0  0  0  0  0
  -24.2980   -9.4960   21.9840 C   0  0  0  0  0  3  0  0  0  0  0  0
  -23.5810   -8.2930   22.1560 C   0  0  0  0  0  3  0  0  0  0  0  0
  -22.3950   -8.0620   21.4200 C   0  0  0  0  0  0  0  0  0  0  0  0
  -21.9590   -9.0320   20.5000 C   0  0  0  0  0  3  0  0  0  0  0  0
  -22.6760  -10.2280   20.3250 C   0  0  0  0  0  3  0  0  0  0  0  0
  -21.6490   -6.9110   21.5010 O   0  0  0  0  0  0  0  0  0  0  0  0
  -21.6420   -6.1370   22.6340 C   0  0  0  0  0  0  0  0  0  0  0  0
  -21.2770   -6.6620   23.8930 C   0  0  0  0  0  3  0  0  0  0  0  0
  -21.2160   -5.8160   25.0180 C   0  0  0  0  0  3  0  0  0  0  0  0
  -21.5090   -4.4450   24.8870 C   0  0  0  0  0  0  0  0  0  0  0  0
  -21.8670   -3.9190   23.6320 C   0  0  0  0  0  3  0  0  0  0  0  0
  -21.9300   -4.7630   22.5090 C   0  0  0  0  0  0  0  0  0  0  0  0
  -22.2530   -4.2470   21.2990 F   0  0  0  0  0  0  0  0  0  0  0  0
  -21.4430   -3.6300   25.9650 F   0  0  0  0  0  0  0  0  0  0  0  0
  -22.6980  -13.5610   21.2040 C   0  0  0  0  0  0  0  0  0  0  0  0
  -21.9740  -12.8570   22.0690 N   0  0  0  0  0  0  0  0  0  0  0  0
  -22.2530  -14.5850   20.6880 O   0  0  0  0  0  0  0  0  0  0  0  0
  -22.3460  -12.0260   22.5050 H   0  0  0  0  0  0  0  0  0  0  0  0
  -21.0350  -13.1520   22.2940 H   0  0  0  0  0  0  0  0  0  0  0  0
  -25.3250  -15.2440   20.3900 N   0  0  0  0  0  0  0  0  0  0  0  0
  -24.5630  -15.9050   20.4970 H   0  0  0  0  0  0  0  0  0  0  0  0
  -26.1830  -15.6780   20.0740 H   0  0  0  0  0  0  0  0  0  0  0  0
  -33.8270  -27.2280   17.6280 C   0  0  0  0  0  2  0  0  0  0  0  0
  -33.9040  -27.7110   19.0950 C   0  0  0  0  0  2  0  0  0  0  0  0
  -32.9080  -28.8350   19.4410 C   0  0  0  0  0  2  0  0  0  0  0  0
  -30.7510  -27.6140   19.7970 C   0  0  0  0  0  0  0  0  0  0  0  0
  -31.5310  -28.4660   19.1180 N   0  0  0  0  0  0  0  0  0  0  0  0
  -31.0960  -27.0970   20.8640 O   0  0  0  0  0  0  0  0  0  0  0  0
  -31.1490  -28.8520   18.2640 H   0  0  0  0  0  0  0  0  0  0  0  0
  -29.3970  -27.2870   19.1550 C   0  0  0  0  0  2  0  0  0  0  0  0
  -28.4800  -26.7690   20.1240 O   0  0  0  0  0  0  0  0  0  0  0  0
  -24.6380  -31.8930   23.2370 C   0  0  0  0  0  0  0  0  0  0  0  0
  -27.3060  -27.4700   20.1910 C   0  0  0  0  0  0  0  0  0  0  0  0
  -23.4320  -30.4690   21.6090 C   0  0  0  0  0  3  0  0  0  0  0  0
  -24.8920  -28.9190   20.2060 C   0  0  0  0  0  0  0  0  0  0  0  0
  -25.9510  -30.8470   21.4000 C   0  0  0  0  0  2  0  0  0  0  0  0
  -26.0440  -29.4700   20.7830 C   0  0  0  0  0  0  0  0  0  0  0  0
  -27.2550  -28.7500   20.7780 C   0  0  0  0  0  3  0  0  0  0  0  0
  -26.1400  -26.9100   19.6360 C   0  0  0  0  0  3  0  0  0  0  0  0
  -24.9300  -27.6330   19.6350 C   0  0  0  0  0  3  0  0  0  0  0  0
  -23.6420  -29.7680   20.2390 C   0  0  0  0  0  2  0  0  0  0  0  0
  -24.6910  -31.0850   22.1420 N   0  0  0  0  0  0  0  0  0  0  0  0
  -23.5570  -32.1670   23.7790 O   0  0  0  0  0  0  0  0  0  0  0  0
  -22.7860  -29.4580   22.5830 C   0  0  0  0  0  0  0  0  0  0  0  0
  -21.4610  -29.2750   22.4600 N   0  0  0  0  0  0  0  0  0  0  0  0
  -23.4730  -28.8400   23.4000 O   0  0  0  0  0  0  0  0  0  0  0  0
  -20.9700  -29.8270   21.7700 H   0  0  0  0  0  0  0  0  0  0  0  0
  -18.0870  -28.0940   22.9750 C   0  0  0  0  0  0  0  0  0  0  0  0
  -20.6460  -28.3440   23.2380 C   0  0  0  0  0  3  0  0  0  0  0  0
  -20.7430  -26.9090   22.6700 C   0  0  0  0  0  2  0  0  0  0  0  0
  -19.6370  -26.5840   21.6610 C   0  0  0  0  0  2  0  0  0  0  0  0
  -18.2570  -26.7390   22.3080 C   0  0  0  0  0  2  0  0  0  0  0  0
  -19.2090  -28.8540   23.3970 C   0  0  0  0  0  0  0  0  0  0  0  0
  -18.9970  -30.1230   23.9790 C   0  0  0  0  0  3  0  0  0  0  0  0
  -17.6950  -30.6310   24.1420 C   0  0  0  0  0  3  0  0  0  0  0  0
  -16.5870  -29.8670   23.7370 C   0  0  0  0  0  3  0  0  0  0  0  0
  -16.7840  -28.5990   23.1600 C   0  0  0  0  0  3  0  0  0  0  0  0
  -25.9250  -32.5300   23.8490 C   0  0  0  0  0  3  0  0  0  0  0  0
  -25.6110  -33.9260   24.1850 N   0  0  0  0  0  0  0  0  0  0  0  0
  -25.9360  -34.9800   23.4260 C   0  0  0  0  0  0  0  0  0  0  0  0
  -26.6040  -34.8820   22.3930 O   0  0  0  0  0  0  0  0  0  0  0  0
  -25.0180  -34.0750   24.9890 H   0  0  0  0  0  0  0  0  0  0  0  0
  -24.1970  -36.7620   23.0760 C   0  0  0  0  0  1  0  0  0  0  0  0
  -25.4410  -36.3640   23.8870 C   0  0  0  0  0  3  0  0  0  0  0  0
  -27.5740  -37.2540   24.7150 C   0  0  0  0  0  1  0  0  0  0  0  0
  -26.4680  -37.4230   23.7770 N   0  0  0  0  0  0  0  0  0  0  0  0
  -26.0580  -38.3400   23.9310 H   0  0  0  0  0  0  0  0  0  0  0  0
  -26.4620  -31.7570   25.1160 C   0  0  1  0  0  0  0  0  0  0  0  0
  -25.3830  -31.5050   26.1950 C   0  0  0  0  0  1  0  0  0  0  0  0
  -27.0500  -30.3860   24.7070 C   0  0  0  0  0  1  0  0  0  0  0  0
  -27.6140  -32.5560   25.7690 C   0  0  0  0  0  1  0  0  0  0  0  0
  1 51  1  0
  1  3  1  0
  2  6  1  0
  3  2  1  0
  3  5  1  0
  4  2  2  0
  7  6  1  0
  7  8  1  0
  9  8  1  0
  9 10  1  0
 11 10  1  0
 11 12  1  0
 13 21  1  0
 14 19  1  0
 15 16  1  0
 15 14  1  0
 17 16  1  0
 17 26  1  0
 17 18  1  0
 19 13  1  0
 19 18  1  0
 20 13  2  0
 21 12  1  0
 21 22  1  0
 23 24  2  0
 24 43  1  0
 25 24  1  0
 25 28  1  0
 26 23  1  0
 26 27  1  0
 27 25  2  0
 28 29  1  0
 29 30  2  0
 31 34  1  0
 31 30  1  0
 32 31  2  0
 33 32  1  0
 33 28  2  0
 34 35  1  0
 35 36  1  0
 36 37  2  0
 38 37  1  0
 38 42  1  0
 39 38  2  0
 40 35  2  0
 40 39  1  0
 41 40  1  0
 43 44  1  0
 44 47  1  0
 44 46  1  0
 45 43  2  0
 48 49  1  0
 48 23  1  0
 50 48  1  0
 51 52  1  0
 52 53  1  0
 54 56  2  0
 55 53  1  0
 55 54  1  0
 57 55  1  0
 58 54  1  0
 58 59  1  0
 59 61  1  0
 60 71  2  0
 61 66  1  0
 62 70  1  0
 62 72  1  0
 63 69  1  0
 63 65  1  0
 64 70  1  0
 65 64  1  0
 66 65  2  0
 67 61  2  0
 68 67  1  0
 68 63  2  0
 69 62  1  0
 70 60  1  0
 72 74  2  0
 73 72  1  0
 75 73  1  0
 76 85  2  0
 76 81  1  0
 77 73  1  0
 77 81  1  0
 78 77  1  0
 79 80  1  0
 79 78  1  0
 80 76  1  0
 81 82  2  0
 82 83  1  0
 84 83  2  0
 85 84  1  0
 86 60  1  0
 86 87  1  0
 86 96  1  0
 87 90  1  0
 88 92  1  0
 88 87  1  0
 89 88  2  0
 92 91  1  0
 94 92  1  0
 94 95  1  0
 94 93  1  0
 96 99  1  1
 96 97  1  0
 98 96  1  0
M  ISO  4  13 100  21 100  58 101  59 101
M  END
>  <TORSDO>  (54) 
F 29

>  <SCORE>  (54) 
-11.214

>  <name>  (54) 
57

>  <ligand_id>  (54) 
57

>  <original_smiles>  (54) 
[H]c1c([H])c([H])c2c(c1[H])C([H])([H])C([H])([H])C([H])([H])C2([H])N([H])C(=O)C1([H])N(C(=O)C([H])(N([H])C(=O)C([H])(N([H])C([H])([H])[H])C([H])([H])[H])C(C([H])([H])[H])(C([H])([H])[H])C([H])([H])[H])C([H])([H])c2c([H])c(OC([H])([H])C(=O)N([H])C([H])([H])C([H])([H])C([H])([H])C([H])([H])N([H])C(=O)C([H])([H])OC([H])([H])C([H])([H])C([H])([H])C([H])([H])C([H])([H])N([H])C(=O)N3C([H])([H])C([H])([H])C([H])([H])C([H])(n4nc(-c5c([H])c([H])c(Oc6c([H])c([H])c(F)c([H])c6F)c([H])c5[H])c(C(=O)N([H])[H])c4N([H])[H])C3([H])[H])c([H])c([H])c2C1([H])[H]

>  <smiles>  (54) 
[H]c1c([H])c([H])c2c(c1[H])C([H])([H])C([H])([H])C([H])([H])C2([H])N([H])C(=O)C1([H])N(C(=O)C([H])(N([H])C(=O)C([H])(N([H])C([H])([H])[H])C([H])([H])[H])C(C([H])([H])[H])(C([H])([H])[H])C([H])([H])[H])C([H])([H])c2c([H])c(OC([H])([H])C(=O)N([H])C([H])([H])C([H])([H])C([H])([H])C([H])([H])N([H])C(=O)C([H])([H])OC([H])([H])C([H])([H])C([H])([H])C([H])([H])C([H])([H])N([H])C(=O)N3C([H])([H])C([H])([H])C([H])([H])C([H])(n4nc(-c5c([H])c([H])c(Oc6c([H])c([H])c(F)c([H])c6F)c([H])c5[H])c(C(=O)N([H])[H])c4N([H])[H])C3([H])[H])c([H])c([H])c2C1([H])[H]

$$$$
60:0:0
     RDKit          3D

110119  0  0  1  0  0  0  0  0999 V2000
  -27.3910  -19.4910   18.9800 C   0  0  0  0  0  3  0  0  0  0  0  0
  -28.1120  -20.0020   20.2540 C   0  0  0  0  0  0  0  0  0  0  0  0
  -29.0940  -21.7840   21.6250 C   0  0  0  0  0  2  0  0  0  0  0  0
  -28.3820  -22.2660   19.2450 C   0  0  0  0  0  2  0  0  0  0  0  0
  -30.0990  -22.9450   21.5100 C   0  0  0  0  0  2  0  0  0  0  0  0
  -29.4370  -23.3820   19.2210 C   0  0  0  0  0  2  0  0  0  0  0  0
  -28.5560  -21.2850   20.3360 N   0  0  0  0  0  0  0  0  0  0  0  0
  -29.6140  -23.9670   20.5650 N   0  0  2  0  0  4  0  0  0  0  0  0
  -28.2840  -19.2060   21.1790 O   0  0  0  0  0  0  0  0  0  0  0  0
  -28.6960  -24.2460   20.8870 H   0  0  0  0  0  0  0  0  0  0  0  0
  -30.3930  -25.2310   20.5860 C   0  0  0  0  0  2  0  0  0  0  0  0
  -29.4580  -26.4390   20.4510 C   0  0  0  0  0  2  0  0  0  0  0  0
  -28.5100  -26.3450   21.5120 O   0  0  0  0  0  0  0  0  0  0  0  0
  -24.4780  -31.9070   23.2870 C   0  0  0  0  0  0  0  0  0  0  0  0
  -27.3620  -27.0500   21.2840 C   0  0  0  0  0  0  0  0  0  0  0  0
  -23.4440  -30.2760   21.7370 C   0  0  0  0  0  3  0  0  0  0  0  0
  -25.0170  -28.5170   20.7730 C   0  0  0  0  0  0  0  0  0  0  0  0
  -25.9800  -30.5820   21.8120 C   0  0  0  0  0  2  0  0  0  0  0  0
  -26.1020  -29.1280   21.4150 C   0  0  0  0  0  0  0  0  0  0  0  0
  -27.2760  -28.3990   21.6790 C   0  0  0  0  0  3  0  0  0  0  0  0
  -26.2600  -26.4300   20.6590 C   0  0  0  0  0  3  0  0  0  0  0  0
  -25.0850  -27.1630   20.4000 C   0  0  0  0  0  3  0  0  0  0  0  0
  -23.8030  -29.3830   20.5190 C   0  0  0  0  0  2  0  0  0  0  0  0
  -24.6450  -30.9450   22.3360 N   0  0  0  0  0  0  0  0  0  0  0  0
  -23.3480  -32.2730   23.6360 O   0  0  0  0  0  0  0  0  0  0  0  0
  -22.6460  -29.4270   22.7510 C   0  0  0  0  0  0  0  0  0  0  0  0
  -21.3310  -29.2920   22.5130 N   0  0  0  0  0  0  0  0  0  0  0  0
  -23.2100  -28.8860   23.7050 O   0  0  0  0  0  0  0  0  0  0  0  0
  -20.9430  -29.7740   21.7130 H   0  0  0  0  0  0  0  0  0  0  0  0
  -17.8330  -28.5020   22.9310 C   0  0  0  0  0  0  0  0  0  0  0  0
  -20.3880  -28.5100   23.3110 C   0  0  0  0  0  3  0  0  0  0  0  0
  -20.3590  -27.0350   22.8490 C   0  0  0  0  0  2  0  0  0  0  0  0
  -19.2720  -26.7490   21.8080 C   0  0  0  0  0  2  0  0  0  0  0  0
  -17.8890  -27.0920   22.3700 C   0  0  0  0  0  2  0  0  0  0  0  0
  -19.0090  -29.1740   23.3580 C   0  0  0  0  0  0  0  0  0  0  0  0
  -18.9050  -30.4980   23.8380 C   0  0  0  0  0  3  0  0  0  0  0  0
  -17.6570  -31.1460   23.9000 C   0  0  0  0  0  3  0  0  0  0  0  0
  -16.4940  -30.4710   23.4910 C   0  0  0  0  0  3  0  0  0  0  0  0
  -16.5830  -29.1520   23.0120 C   0  0  0  0  0  3  0  0  0  0  0  0
  -25.6990  -32.6080   23.9630 C   0  0  0  0  0  3  0  0  0  0  0  0
  -25.3070  -33.9930   24.2530 N   0  0  0  0  0  0  0  0  0  0  0  0
  -25.6130  -35.0460   23.4840 C   0  0  0  0  0  0  0  0  0  0  0  0
  -26.3260  -34.9590   22.4790 O   0  0  0  0  0  0  0  0  0  0  0  0
  -24.6760  -34.1320   25.0290 H   0  0  0  0  0  0  0  0  0  0  0  0
  -23.8020  -36.7310   23.0290 C   0  0  0  0  0  1  0  0  0  0  0  0
  -25.0350  -36.4150   23.8910 C   0  0  0  0  0  3  0  0  0  0  0  0
  -27.0940  -37.4280   24.7670 C   0  0  0  0  0  1  0  0  0  0  0  0
  -26.0130  -37.5190   23.7880 N   0  0  0  0  0  0  0  0  0  0  0  0
  -25.5540  -38.4180   23.9090 H   0  0  0  0  0  0  0  0  0  0  0  0
  -26.1890  -31.8800   25.2730 C   0  0  1  0  0  0  0  0  0  0  0  0
  -25.0450  -31.5130   26.2460 C   0  0  0  0  0  1  0  0  0  0  0  0
  -26.9490  -30.5790   24.9230 C   0  0  0  0  0  1  0  0  0  0  0  0
  -27.1890  -32.7840   26.0320 C   0  0  0  0  0  1  0  0  0  0  0  0
  -28.4110  -19.3030   17.9250 N   0  0  0  0  0  4  0  0  0  0  0  0
  -28.9370  -20.1610   17.8620 H   0  0  0  0  0  0  0  0  0  0  0  0
  -29.0670  -18.5920   18.2300 H   0  0  0  0  0  0  0  0  0  0  0  0
  -27.9050  -18.9630   16.5710 C   0  0  0  0  0  2  0  0  0  0  0  0
  -29.0370  -18.4710   15.6550 C   0  0  0  0  0  2  0  0  0  0  0  0
  -29.6440  -17.3460   16.2810 O   0  0  0  0  0  0  0  0  0  0  0  0
  -30.9220  -17.6050   16.8590 C   0  0  0  0  0  2  0  0  0  0  0  0
  -31.3750  -16.3140   17.5420 C   0  0  0  0  0  2  0  0  0  0  0  0
  -30.7110  -16.1670   18.8030 O   0  0  0  0  0  0  0  0  0  0  0  0
  -30.9230  -14.8510   19.3040 C   0  0  0  0  0  2  0  0  0  0  0  0
  -30.8110  -14.7260   20.8430 C   0  0  0  0  0  2  0  0  0  0  0  0
  -31.3750  -12.3310   20.7660 C   0  0  0  0  0  0  0  0  0  0  0  0
  -30.9670  -10.6120   19.0750 C   0  0  0  0  0  2  0  0  0  0  0  0
  -30.1260  -11.2430   17.9440 C   0  0  0  0  0  2  0  0  0  0  0  0
  -28.6180  -11.2030   18.2720 C   0  0  0  0  0  2  0  0  0  0  0  0
  -28.2900  -11.6880   19.7100 C   0  0  0  0  0  3  0  0  0  0  0  0
  -29.2330  -11.0180   20.7380 C   0  0  0  0  0  2  0  0  0  0  0  0
  -30.6240  -11.2900   20.3300 N   0  0  0  0  0  0  0  0  0  0  0  0
  -32.5560  -12.5110   20.4610 O   0  0  0  0  0  0  0  0  0  0  0  0
  -30.6310  -13.3310   21.2410 N   0  0  0  0  0  0  0  0  0  0  0  0
  -29.6890  -13.0700   21.4940 H   0  0  0  0  0  0  0  0  0  0  0  0
  -25.8160  -12.3560   19.9620 C   0  0  0  0  0  0  0  0  0  0  0  0
  -24.7090  -11.6340   20.3260 C   0  0  0  0  0  0  0  0  0  0  0  0
  -25.1760  -10.3160   20.6150 C   0  0  0  0  0  0  0  0  0  0  0  0
  -26.8840  -11.4750   20.0430 N   0  0  0  0  0  0  0  0  0  0  0  0
  -26.4960  -10.2560   20.4930 N   0  0  0  0  0  0  0  0  0  0  0  0
  -24.4420   -9.0870   20.9430 C   0  0  0  0  0  0  0  0  0  0  0  0
  -24.8250   -8.2630   22.0250 C   0  0  0  0  0  3  0  0  0  0  0  0
  -24.0940   -7.0960   22.3310 C   0  0  0  0  0  3  0  0  0  0  0  0
  -22.9650   -6.7440   21.5550 C   0  0  0  0  0  0  0  0  0  0  0  0
  -22.6020   -7.5530   20.4640 C   0  0  0  0  0  3  0  0  0  0  0  0
  -23.3350   -8.7120   20.1560 C   0  0  0  0  0  3  0  0  0  0  0  0
  -22.2110   -5.6130   21.7610 O   0  0  0  0  0  0  0  0  0  0  0  0
  -21.9660   -5.1330   23.0240 C   0  0  0  0  0  0  0  0  0  0  0  0
  -21.4280   -5.9530   24.0400 C   0  0  0  0  0  3  0  0  0  0  0  0
  -21.1250   -5.4030   25.3020 C   0  0  0  0  0  3  0  0  0  0  0  0
  -21.3520   -4.0350   25.5460 C   0  0  0  0  0  0  0  0  0  0  0  0
  -21.8830   -3.2160   24.5350 C   0  0  0  0  0  3  0  0  0  0  0  0
  -22.1870   -3.7640   23.2760 C   0  0  0  0  0  0  0  0  0  0  0  0
  -22.6780   -2.9670   22.2960 F   0  0  0  0  0  0  0  0  0  0  0  0
  -21.0560   -3.5030   26.7550 F   0  0  0  0  0  0  0  0  0  0  0  0
  -23.2840  -12.1080   20.3130 C   0  0  0  0  0  0  0  0  0  0  0  0
  -22.4650  -11.6090   21.2330 N   0  0  0  0  0  0  0  0  0  0  0  0
  -22.8960  -12.9520   19.5080 O   0  0  0  0  0  0  0  0  0  0  0  0
  -22.7820  -10.9250   21.9050 H   0  0  0  0  0  0  0  0  0  0  0  0
  -21.5020  -11.9150   21.2620 H   0  0  0  0  0  0  0  0  0  0  0  0
  -26.0110  -13.6720   19.5550 N   0  0  0  0  0  0  0  0  0  0  0  0
  -25.3050  -14.3810   19.7190 H   0  0  0  0  0  0  0  0  0  0  0  0
  -26.9300  -14.0650   19.4210 H   0  0  0  0  0  0  0  0  0  0  0  0
  -26.6040  -18.1730   19.2240 C   0  0  0  0  0  2  0  0  0  0  0  0
  -25.5670  -18.2360   20.3610 C   0  0  0  0  0  2  0  0  0  0  0  0
  -23.7210  -14.3600   20.9640 C   0  0  0  0  0  3  0  0  0  0  0  0
  -23.0260  -15.3670   20.2640 C   0  0  0  0  0  3  0  0  0  0  0  0
  -25.0120  -14.6170   21.4690 C   0  0  0  0  0  3  0  0  0  0  0  0
  -23.6200  -16.6280   20.0690 C   0  0  0  0  0  3  0  0  0  0  0  0
  -25.6060  -15.8770   21.2730 C   0  0  0  0  0  3  0  0  0  0  0  0
  -24.9110  -16.8880   20.5760 C   0  0  0  0  0  0  0  0  0  0  0  0
  1103  1  0
  1  2  1  0
  2  7  1  0
  2  9  2  0
  4  7  1  0
  5  3  1  0
  6  4  1  0
  6  8  1  0
  7  3  1  0
  8 11  1  0
  8 10  1  1
  8  5  1  0
 12 11  1  0
 12 13  1  0
 14 25  2  0
 15 13  1  0
 15 20  1  0
 16 24  1  0
 16 26  1  0
 17 19  1  0
 18 24  1  0
 19 20  2  0
 19 18  1  0
 21 15  2  0
 22 21  1  0
 22 17  2  0
 23 17  1  0
 23 16  1  0
 24 14  1  0
 26 28  2  0
 27 26  1  0
 29 27  1  0
 30 39  2  0
 30 35  1  0
 31 27  1  0
 31 35  1  0
 32 31  1  0
 33 34  1  0
 33 32  1  0
 34 30  1  0
 35 36  2  0
 36 37  1  0
 38 37  2  0
 39 38  1  0
 40 14  1  0
 40 41  1  0
 40 50  1  0
 41 44  1  0
 42 46  1  0
 42 41  1  0
 43 42  2  0
 46 45  1  0
 48 46  1  0
 48 49  1  0
 48 47  1  0
 50 53  1  1
 50 51  1  0
 52 50  1  0
 54 56  1  0
 54  1  1  0
 55 54  1  0
 57 54  1  0
 58 59  1  0
 58 57  1  0
 59 60  1  0
 60 61  1  0
 61 62  1  0
 62 63  1  0
 63 64  1  0
 64 73  1  0
 65 73  1  0
 66 71  1  0
 67 68  1  0
 67 66  1  0
 69 68  1  0
 69 78  1  0
 69 70  1  0
 71 70  1  0
 71 65  1  0
 72 65  2  0
 73 74  1  0
 75 78  1  0
 75 76  2  0
 76 77  1  0
 77 80  1  0
 78 79  1  0
 79 77  2  0
 80 81  1  0
 81 82  2  0
 83 86  1  0
 83 82  1  0
 84 83  2  0
 85 84  1  0
 85 80  2  0
 86 87  1  0
 87 92  2  0
 87 88  1  0
 88 89  2  0
 89 90  1  0
 90 94  1  0
 91 90  2  0
 92 91  1  0
 93 92  1  0
 95 76  1  0
 95 96  1  0
 96 99  1  0
 96 98  1  0
 97 95  2  0
100101  1  0
100 75  1  0
102100  1  0
103104  1  0
104110  1  0
105107  1  0
106105  2  0
108106  1  0
108110  2  0
109107  2  0
110109  1  0
M  ISO  4  12 101  13 101  65 100  73 100
M  END
>  <TORSDO>  (55) 
F 31

>  <SCORE>  (55) 
-2.433

>  <name>  (55) 
60

>  <ligand_id>  (55) 
60

>  <original_smiles>  (55) 
[H]c1c([H])c([H])c(C([H])([H])C([H])([H])C([H])(C(=O)N2C([H])([H])C([H])([H])[N+]([H])(C([H])([H])C([H])([H])Oc3c([H])c([H])c4c(c3[H])C([H])([H])N(C(=O)C([H])(N([H])C(=O)C([H])(N([H])C([H])([H])[H])C([H])([H])[H])C(C([H])([H])[H])(C([H])([H])[H])C([H])([H])[H])C([H])(C(=O)N([H])C3([H])c5c([H])c([H])c([H])c([H])c5C([H])([H])C([H])([H])C3([H])[H])C4([H])[H])C([H])([H])C2([H])[H])[N+]([H])([H])C([H])([H])C([H])([H])OC([H])([H])C([H])([H])OC([H])([H])C([H])([H])N([H])C(=O)N2C([H])([H])C([H])([H])C([H])([H])C([H])(n3nc(-c4c([H])c([H])c(Oc5c([H])c([H])c(F)c([H])c5F)c([H])c4[H])c(C(=O)N([H])[H])c3N([H])[H])C2([H])[H])c([H])c1[H]

>  <smiles>  (55) 
[H]c1c([H])c([H])c(C([H])([H])C([H])([H])C([H])(C(=O)N2C([H])([H])C([H])([H])[N+]([H])(C([H])([H])C([H])([H])Oc3c([H])c([H])c4c(c3[H])C([H])([H])N(C(=O)C([H])(N([H])C(=O)C([H])(N([H])C([H])([H])[H])C([H])([H])[H])C(C([H])([H])[H])(C([H])([H])[H])C([H])([H])[H])C([H])(C(=O)N([H])C3([H])c5c([H])c([H])c([H])c([H])c5C([H])([H])C([H])([H])C3([H])[H])C4([H])[H])C([H])([H])C2([H])[H])[N+]([H])([H])C([H])([H])C([H])([H])OC([H])([H])C([H])([H])OC([H])([H])C([H])([H])N([H])C(=O)N2C([H])([H])C([H])([H])C([H])([H])C([H])(n3nc(-c4c([H])c([H])c(Oc5c([H])c([H])c(F)c([H])c5F)c([H])c4[H])c(C(=O)N([H])[H])c3N([H])[H])C2([H])[H])c([H])c1[H]

$$$$
61:0:0
     RDKit          3D

 96104  0  0  1  0  0  0  0  0999 V2000
  -31.9800  -22.8160   20.6240 C   0  0  0  0  0  2  0  0  0  0  0  0
  -31.8700  -21.5550   19.9830 O   0  0  0  0  0  0  0  0  0  0  0  0
  -31.7040  -20.4750   20.9000 C   0  0  0  0  0  2  0  0  0  0  0  0
  -31.1770  -19.2860   20.0850 C   0  0  0  0  0  2  0  0  0  0  0  0
  -30.7380  -14.4120   19.9020 C   0  0  0  0  0  0  0  0  0  0  0  0
  -30.2150  -12.4410   18.4940 C   0  0  0  0  0  2  0  0  0  0  0  0
  -29.1740  -12.7670   17.4050 C   0  0  0  0  0  2  0  0  0  0  0  0
  -27.7450  -12.5980   17.9530 C   0  0  0  0  0  2  0  0  0  0  0  0
  -27.5430  -13.3280   19.3020 C   0  0  0  0  0  3  0  0  0  0  0  0
  -28.6800  -12.9800   20.2920 C   0  0  0  0  0  2  0  0  0  0  0  0
  -29.9670  -13.3120   19.6580 N   0  0  0  0  0  0  0  0  0  0  0  0
  -31.7400  -14.6610   19.2200 O   0  0  0  0  0  0  0  0  0  0  0  0
  -31.5530  -15.7990   21.7380 C   0  0  0  0  0  2  0  0  0  0  0  0
  -31.9630  -17.1630   21.1210 C   0  0  0  0  0  2  0  0  0  0  0  0
  -29.6240  -17.4170   20.3120 C   0  0  0  0  0  2  0  0  0  0  0  0
  -29.2770  -16.0800   20.9960 C   0  0  0  0  0  3  0  0  0  0  0  0
  -28.6030  -16.2330   22.3780 C   0  0  0  0  0  1  0  0  0  0  0  0
  -30.4440  -15.1730   20.9950 N   0  0  0  0  0  0  0  0  0  0  0  0
  -30.8140  -18.0870   20.8960 N   0  0  2  0  0  4  0  0  0  0  0  0
  -30.5170  -18.4120   21.8060 H   0  0  0  0  0  0  0  0  0  0  0  0
  -25.2080  -13.9410   20.2010 C   0  0  0  0  0  0  0  0  0  0  0  0
  -24.1720  -13.1650   20.6490 C   0  0  0  0  0  0  0  0  0  0  0  0
  -24.6300  -11.8170   20.5710 C   0  0  0  0  0  0  0  0  0  0  0  0
  -26.2300  -13.0580   19.8810 N   0  0  0  0  0  0  0  0  0  0  0  0
  -25.8910  -11.7770   20.1630 N   0  0  0  0  0  0  0  0  0  0  0  0
  -23.9240  -10.5520   20.8070 C   0  0  0  0  0  0  0  0  0  0  0  0
  -24.4230   -9.5880   21.7080 C   0  0  0  0  0  3  0  0  0  0  0  0
  -23.7210   -8.3840   21.9310 C   0  0  0  0  0  3  0  0  0  0  0  0
  -22.5050   -8.1360   21.2520 C   0  0  0  0  0  0  0  0  0  0  0  0
  -22.0230   -9.0900   20.3390 C   0  0  0  0  0  3  0  0  0  0  0  0
  -22.7240  -10.2860   20.1150 C   0  0  0  0  0  3  0  0  0  0  0  0
  -21.7680   -6.9850   21.3860 O   0  0  0  0  0  0  0  0  0  0  0  0
  -21.8040   -6.2350   22.5340 C   0  0  0  0  0  0  0  0  0  0  0  0
  -21.4890   -6.7880   23.7940 C   0  0  0  0  0  3  0  0  0  0  0  0
  -21.4710   -5.9650   24.9380 C   0  0  0  0  0  3  0  0  0  0  0  0
  -21.7570   -4.5910   24.8230 C   0  0  0  0  0  0  0  0  0  0  0  0
  -22.0630   -4.0390   23.5670 C   0  0  0  0  0  3  0  0  0  0  0  0
  -22.0840   -4.8580   22.4260 C   0  0  0  0  0  0  0  0  0  0  0  0
  -22.3590   -4.3170   21.2150 F   0  0  0  0  0  0  0  0  0  0  0  0
  -21.7320   -3.7990   25.9200 F   0  0  0  0  0  0  0  0  0  0  0  0
  -22.7990  -13.6390   21.0300 C   0  0  0  0  0  0  0  0  0  0  0  0
  -22.1480  -12.9540   21.9640 N   0  0  0  0  0  0  0  0  0  0  0  0
  -22.3110  -14.6530   20.5320 O   0  0  0  0  0  0  0  0  0  0  0  0
  -22.5530  -12.1360   22.3950 H   0  0  0  0  0  0  0  0  0  0  0  0
  -21.2280  -13.2570   22.2540 H   0  0  0  0  0  0  0  0  0  0  0  0
  -25.3590  -15.3110   20.0190 N   0  0  0  0  0  0  0  0  0  0  0  0
  -24.6030  -15.9640   20.1960 H   0  0  0  0  0  0  0  0  0  0  0  0
  -26.1610  -15.7430   19.5800 H   0  0  0  0  0  0  0  0  0  0  0  0
  -32.3190  -23.9210   19.6130 C   0  0  0  0  0  2  0  0  0  0  0  0
  -32.3020  -25.1490   20.3250 O   0  0  0  0  0  0  0  0  0  0  0  0
  -32.8950  -26.2420   19.6400 C   0  0  0  0  0  2  0  0  0  0  0  0
  -32.9500  -27.4450   20.6040 C   0  0  0  0  0  2  0  0  0  0  0  0
  -31.7920  -28.2790   20.5420 O   0  0  0  0  0  0  0  0  0  0  0  0
  -30.5740  -27.6890   20.9910 C   0  0  0  0  0  2  0  0  0  0  0  0
  -29.6560  -27.4630   19.7780 C   0  0  0  0  0  2  0  0  0  0  0  0
  -28.4760  -26.7280   20.1030 O   0  0  0  0  0  0  0  0  0  0  0  0
  -24.6220  -31.8700   23.1900 C   0  0  0  0  0  0  0  0  0  0  0  0
  -27.3110  -27.4550   20.1620 C   0  0  0  0  0  0  0  0  0  0  0  0
  -23.4250  -30.4520   21.5500 C   0  0  0  0  0  3  0  0  0  0  0  0
  -24.8900  -28.9040   20.1550 C   0  0  0  0  0  0  0  0  0  0  0  0
  -25.9450  -30.8330   21.3570 C   0  0  0  0  0  2  0  0  0  0  0  0
  -26.0360  -29.4570   20.7360 C   0  0  0  0  0  0  0  0  0  0  0  0
  -27.2490  -28.7410   20.7400 C   0  0  0  0  0  3  0  0  0  0  0  0
  -26.1420  -26.8890   19.6140 C   0  0  0  0  0  3  0  0  0  0  0  0
  -24.9330  -27.6160   19.5970 C   0  0  0  0  0  3  0  0  0  0  0  0
  -23.6410  -29.7550   20.1780 C   0  0  0  0  0  2  0  0  0  0  0  0
  -24.6800  -31.0690   22.0900 N   0  0  0  0  0  0  0  0  0  0  0  0
  -23.5400  -32.1410   23.7270 O   0  0  0  0  0  0  0  0  0  0  0  0
  -22.7760  -29.4400   22.5170 C   0  0  0  0  0  0  0  0  0  0  0  0
  -21.4500  -29.2680   22.3950 N   0  0  0  0  0  0  0  0  0  0  0  0
  -23.4600  -28.8130   23.3300 O   0  0  0  0  0  0  0  0  0  0  0  0
  -20.9640  -29.8310   21.7110 H   0  0  0  0  0  0  0  0  0  0  0  0
  -18.0630  -28.1270   22.9190 C   0  0  0  0  0  0  0  0  0  0  0  0
  -20.6270  -28.3400   23.1690 C   0  0  0  0  0  3  0  0  0  0  0  0
  -20.7000  -26.9090   22.5870 C   0  0  0  0  0  2  0  0  0  0  0  0
  -19.5840  -26.6100   21.5820 C   0  0  0  0  0  2  0  0  0  0  0  0
  -18.2110  -26.7770   22.2390 C   0  0  0  0  0  2  0  0  0  0  0  0
  -19.1980  -28.8680   23.3430 C   0  0  0  0  0  0  0  0  0  0  0  0
  -19.0060  -30.1340   23.9370 C   0  0  0  0  0  3  0  0  0  0  0  0
  -17.7110  -30.6570   24.1140 C   0  0  0  0  0  3  0  0  0  0  0  0
  -16.5910  -29.9130   23.7070 C   0  0  0  0  0  3  0  0  0  0  0  0
  -16.7670  -28.6500   23.1140 C   0  0  0  0  0  3  0  0  0  0  0  0
  -25.9070  -32.5040   23.8090 C   0  0  0  0  0  3  0  0  0  0  0  0
  -26.4460  -31.7200   25.0680 C   0  0  1  0  0  0  0  0  0  0  0  0
  -25.3630  -31.4450   26.1360 C   0  0  0  0  0  1  0  0  0  0  0  0
  -27.0490  -30.3590   24.6460 C   0  0  0  0  0  1  0  0  0  0  0  0
  -27.5880  -32.5210   25.7380 C   0  0  0  0  0  1  0  0  0  0  0  0
  -25.5870  -33.8940   24.1540 N   0  0  0  0  0  0  0  0  0  0  0  0
  -25.9300  -34.9590   23.4140 C   0  0  0  0  0  0  0  0  0  0  0  0
  -26.6150  -34.8720   22.3900 O   0  0  0  0  0  0  0  0  0  0  0  0
  -24.9670  -34.0360   24.9380 H   0  0  0  0  0  0  0  0  0  0  0  0
  -24.2040  -36.7550   23.0550 C   0  0  0  0  0  1  0  0  0  0  0  0
  -25.4300  -36.3370   23.8840 C   0  0  0  0  0  3  0  0  0  0  0  0
  -27.5510  -37.2090   24.7630 C   0  0  0  0  0  1  0  0  0  0  0  0
  -26.4620  -37.3950   23.8080 N   0  0  0  0  0  0  0  0  0  0  0  0
  -26.0510  -38.3110   23.9680 H   0  0  0  0  0  0  0  0  0  0  0  0
  2  1  1  0
  2  3  1  0
  4 19  1  0
  4  3  1  0
  5 18  1  0
  6 11  1  0
  7  8  1  0
  7  6  1  0
  9  8  1  0
  9 24  1  0
  9 10  1  0
 11  5  1  0
 11 10  1  0
 12  5  2  0
 14 13  1  0
 15 19  1  0
 15 16  1  0
 16 17  1  0
 18 16  1  0
 18 13  1  0
 19 14  1  0
 19 20  1  1
 21 22  2  0
 22 41  1  0
 23 22  1  0
 23 26  1  0
 24 25  1  0
 24 21  1  0
 25 23  2  0
 26 27  1  0
 27 28  2  0
 29 32  1  0
 29 28  1  0
 30 29  2  0
 31 30  1  0
 31 26  2  0
 32 33  1  0
 33 34  1  0
 34 35  2  0
 36 35  1  0
 36 40  1  0
 37 36  2  0
 38 33  2  0
 38 37  1  0
 39 38  1  0
 41 42  1  0
 42 45  1  0
 42 44  1  0
 43 41  2  0
 46 47  1  0
 46 21  1  0
 48 46  1  0
 49 50  1  0
 49  1  1  0
 51 50  1  0
 51 52  1  0
 53 52  1  0
 53 54  1  0
 55 56  1  0
 55 54  1  0
 56 58  1  0
 57 68  2  0
 58 63  1  0
 59 67  1  0
 59 69  1  0
 60 66  1  0
 60 62  1  0
 61 67  1  0
 62 63  2  0
 62 61  1  0
 64 58  2  0
 65 64  1  0
 65 60  2  0
 66 59  1  0
 67 57  1  0
 69 71  2  0
 70 69  1  0
 72 70  1  0
 73 82  2  0
 73 78  1  0
 74 70  1  0
 74 78  1  0
 75 74  1  0
 76 77  1  0
 76 75  1  0
 77 73  1  0
 78 79  2  0
 79 80  1  0
 81 80  2  0
 82 81  1  0
 83 57  1  0
 83 88  1  0
 83 84  1  0
 84 87  1  1
 84 85  1  0
 86 84  1  0
 88 91  1  0
 89 93  1  0
 89 88  1  0
 90 89  2  0
 93 92  1  0
 95 93  1  0
 95 96  1  0
 95 94  1  0
M  ISO  4   5 100  18 100  55 101  56 101
M  END
>  <TORSDO>  (56) 
F 26

>  <SCORE>  (56) 
-8.301

>  <name>  (56) 
61

>  <ligand_id>  (56) 
61

>  <original_smiles>  (56) 
[H]c1c([H])c([H])c2c(c1[H])C([H])([H])C([H])([H])C([H])([H])C2([H])N([H])C(=O)C1([H])N(C(=O)C([H])(N([H])C(=O)C([H])(N([H])C([H])([H])[H])C([H])([H])[H])C(C([H])([H])[H])(C([H])([H])[H])C([H])([H])[H])C([H])([H])c2c([H])c(OC([H])([H])C([H])([H])OC([H])([H])C([H])([H])OC([H])([H])C([H])([H])OC([H])([H])C([H])([H])[N+]3([H])C([H])([H])C([H])([H])N(C(=O)N4C([H])([H])C([H])([H])C([H])([H])C([H])(n5nc(-c6c([H])c([H])c(Oc7c([H])c([H])c(F)c([H])c7F)c([H])c6[H])c(C(=O)N([H])[H])c5N([H])[H])C4([H])[H])C([H])(C([H])([H])[H])C3([H])[H])c([H])c([H])c2C1([H])[H]

>  <smiles>  (56) 
[H]c1c([H])c([H])c2c(c1[H])C([H])([H])C([H])([H])C([H])([H])C2([H])N([H])C(=O)C1([H])N(C(=O)C([H])(N([H])C(=O)C([H])(N([H])C([H])([H])[H])C([H])([H])[H])C(C([H])([H])[H])(C([H])([H])[H])C([H])([H])[H])C([H])([H])c2c([H])c(OC([H])([H])C([H])([H])OC([H])([H])C([H])([H])OC([H])([H])C([H])([H])OC([H])([H])C([H])([H])[N+]3([H])C([H])([H])C([H])([H])N(C(=O)N4C([H])([H])C([H])([H])C([H])([H])C([H])(n5nc(-c6c([H])c([H])c(Oc7c([H])c([H])c(F)c([H])c7F)c([H])c6[H])c(C(=O)N([H])[H])c5N([H])[H])C4([H])[H])C([H])(C([H])([H])[H])C3([H])[H])c([H])c([H])c2C1([H])[H]

$$$$
62:0:0
     RDKit          3D

101108  0  0  1  0  0  0  0  0999 V2000
  -26.5840  -20.1970   17.2850 C   0  0  0  0  0  2  0  0  0  0  0  0
  -25.9470  -21.0880   18.3750 C   0  0  0  0  0  2  0  0  0  0  0  0
  -27.5050  -21.7600   20.2000 C   0  0  0  0  0  0  0  0  0  0  0  0
  -26.6060  -20.9180   19.6730 N   0  0  0  0  0  0  0  0  0  0  0  0
  -27.7690  -22.8550   19.6990 O   0  0  0  0  0  0  0  0  0  0  0  0
  -26.4300  -20.0540   20.1710 H   0  0  0  0  0  0  0  0  0  0  0  0
  -28.2730  -21.2910   21.4390 C   0  0  0  0  0  2  0  0  0  0  0  0
  -29.5440  -20.8140   21.0020 O   0  0  0  0  0  0  0  0  0  0  0  0
  -30.3600  -20.2980   22.0460 C   0  0  0  0  0  2  0  0  0  0  0  0
  -31.7580  -20.0100   21.4700 C   0  0  0  0  0  2  0  0  0  0  0  0
  -31.7930  -18.9910   20.4680 O   0  0  0  0  0  0  0  0  0  0  0  0
  -31.3760  -17.6990   20.8920 C   0  0  0  0  0  2  0  0  0  0  0  0
  -32.2750  -16.6240   20.2560 C   0  0  0  0  0  2  0  0  0  0  0  0
  -32.2260  -14.1330   20.0390 C   0  0  0  0  0  0  0  0  0  0  0  0
  -31.7530  -11.7430   19.6400 C   0  0  0  0  0  2  0  0  0  0  0  0
  -30.8470  -11.5820   18.4040 C   0  0  0  0  0  2  0  0  0  0  0  0
  -29.3680  -11.6830   18.8010 C   0  0  0  0  0  2  0  0  0  0  0  0
  -29.0770  -12.9470   19.6530 C   0  0  0  0  0  3  0  0  0  0  0  0
  -30.0820  -13.0510   20.8220 C   0  0  0  0  0  2  0  0  0  0  0  0
  -31.4440  -13.0410   20.2600 N   0  0  0  0  0  0  0  0  0  0  0  0
  -33.3110  -14.0900   19.4560 O   0  0  0  0  0  0  0  0  0  0  0  0
  -31.7050  -15.2900   20.4590 N   0  0  0  0  0  0  0  0  0  0  0  0
  -30.8090  -15.2320   20.9180 H   0  0  0  0  0  0  0  0  0  0  0  0
  -26.8630  -14.0580   20.3610 C   0  0  0  0  0  0  0  0  0  0  0  0
  -25.6500  -13.5340   20.7180 C   0  0  0  0  0  0  0  0  0  0  0  0
  -25.8020  -12.1180   20.6630 C   0  0  0  0  0  0  0  0  0  0  0  0
  -27.6930  -12.9730   20.1220 N   0  0  0  0  0  0  0  0  0  0  0  0
  -27.0520  -11.7990   20.3520 N   0  0  0  0  0  0  0  0  0  0  0  0
  -24.8170  -11.0420   20.8420 C   0  0  0  0  0  0  0  0  0  0  0  0
  -25.0800   -9.9390   21.6830 C   0  0  0  0  0  3  0  0  0  0  0  0
  -24.1160   -8.9210   21.8470 C   0  0  0  0  0  3  0  0  0  0  0  0
  -22.8730   -9.0040   21.1730 C   0  0  0  0  0  0  0  0  0  0  0  0
  -22.6280  -10.0940   20.3200 C   0  0  0  0  0  3  0  0  0  0  0  0
  -23.5900  -11.1040   20.1530 C   0  0  0  0  0  3  0  0  0  0  0  0
  -21.8880   -8.0510   21.2490 O   0  0  0  0  0  0  0  0  0  0  0  0
  -21.7120   -7.2850   22.3740 C   0  0  0  0  0  0  0  0  0  0  0  0
  -21.5260   -7.8610   23.6490 C   0  0  0  0  0  3  0  0  0  0  0  0
  -21.2860   -7.0380   24.7660 C   0  0  0  0  0  3  0  0  0  0  0  0
  -21.2160   -5.6400   24.6070 C   0  0  0  0  0  0  0  0  0  0  0  0
  -21.3900   -5.0650   23.3370 C   0  0  0  0  0  3  0  0  0  0  0  0
  -21.6360   -5.8860   22.2240 C   0  0  0  0  0  0  0  0  0  0  0  0
  -21.7850   -5.3280   20.9970 F   0  0  0  0  0  0  0  0  0  0  0  0
  -20.9730   -4.8490   25.6780 F   0  0  0  0  0  0  0  0  0  0  0  0
  -24.3910  -14.3040   21.0050 C   0  0  0  0  0  0  0  0  0  0  0  0
  -23.5310  -13.7700   21.8640 N   0  0  0  0  0  0  0  0  0  0  0  0
  -24.1880  -15.4070   20.5000 O   0  0  0  0  0  0  0  0  0  0  0  0
  -23.7160  -12.8810   22.3030 H   0  0  0  0  0  0  0  0  0  0  0  0
  -22.6780  -14.2630   22.0870 H   0  0  0  0  0  0  0  0  0  0  0  0
  -27.3210  -15.3640   20.2040 N   0  0  0  0  0  0  0  0  0  0  0  0
  -26.7020  -16.1610   20.3050 H   0  0  0  0  0  0  0  0  0  0  0  0
  -28.2410  -15.6150   19.8660 H   0  0  0  0  0  0  0  0  0  0  0  0
  -28.1220  -20.0650   17.3590 C   0  0  0  0  0  2  0  0  0  0  0  0
  -28.8620  -21.4160   17.3160 C   0  0  0  0  0  2  0  0  0  0  0  0
  -30.2390  -21.3990   18.0100 C   0  0  0  0  0  2  0  0  0  0  0  0
  -31.0040  -22.7460   17.9660 C   0  0  0  0  0  2  0  0  0  0  0  0
  -29.7890  -24.6470   19.0680 C   0  0  0  0  0  0  0  0  0  0  0  0
  -30.0850  -23.8790   18.0130 N   0  0  0  0  0  0  0  0  0  0  0  0
  -30.4940  -24.7110   20.0780 O   0  0  0  0  0  0  0  0  0  0  0  0
  -29.4690  -23.9670   17.2170 H   0  0  0  0  0  0  0  0  0  0  0  0
  -28.4460  -25.3810   18.9750 C   0  0  0  0  0  2  0  0  0  0  0  0
  -28.4220  -26.5820   19.7570 O   0  0  0  0  0  0  0  0  0  0  0  0
  -24.6020  -31.5920   23.0750 C   0  0  0  0  0  0  0  0  0  0  0  0
  -27.2340  -27.2890   19.7810 C   0  0  0  0  0  0  0  0  0  0  0  0
  -23.3910  -30.2740   21.3710 C   0  0  0  0  0  3  0  0  0  0  0  0
  -24.8390  -28.8000   19.8780 C   0  0  0  0  0  0  0  0  0  0  0  0
  -25.9200  -30.6260   21.1970 C   0  0  0  0  0  2  0  0  0  0  0  0
  -25.9990  -29.2870   20.4930 C   0  0  0  0  0  0  0  0  0  0  0  0
  -27.1950  -28.5340   20.4510 C   0  0  0  0  0  3  0  0  0  0  0  0
  -26.0460  -26.8200   19.1630 C   0  0  0  0  0  3  0  0  0  0  0  0
  -24.8550  -27.5650   19.2180 C   0  0  0  0  0  3  0  0  0  0  0  0
  -23.6020  -29.6650   19.9600 C   0  0  0  0  0  2  0  0  0  0  0  0
  -24.6550  -30.8430   21.9400 N   0  0  0  0  0  0  0  0  0  0  0  0
  -23.5190  -31.8450   23.6240 O   0  0  0  0  0  0  0  0  0  0  0  0
  -22.7370  -29.2080   22.2790 C   0  0  0  0  0  0  0  0  0  0  0  0
  -21.4040  -29.0710   22.1760 N   0  0  0  0  0  0  0  0  0  0  0  0
  -23.4240  -28.5120   23.0310 O   0  0  0  0  0  0  0  0  0  0  0  0
  -20.9140  -29.6850   21.5400 H   0  0  0  0  0  0  0  0  0  0  0  0
  -18.0100  -27.9560   22.6960 C   0  0  0  0  0  0  0  0  0  0  0  0
  -20.5800  -28.1120   22.9100 C   0  0  0  0  0  3  0  0  0  0  0  0
  -20.6200  -26.7200   22.2390 C   0  0  0  0  0  2  0  0  0  0  0  0
  -19.4800  -26.4990   21.2390 C   0  0  0  0  0  2  0  0  0  0  0  0
  -18.1220  -26.6480   21.9300 C   0  0  0  0  0  2  0  0  0  0  0  0
  -19.1640  -28.6510   23.1420 C   0  0  0  0  0  0  0  0  0  0  0  0
  -19.0050  -29.8800   23.8170 C   0  0  0  0  0  3  0  0  0  0  0  0
  -17.7230  -30.4120   24.0530 C   0  0  0  0  0  3  0  0  0  0  0  0
  -16.5820  -29.7110   23.6240 C   0  0  0  0  0  3  0  0  0  0  0  0
  -16.7270  -28.4850   22.9500 C   0  0  0  0  0  3  0  0  0  0  0  0
  -25.8900  -32.1890   23.7220 C   0  0  0  0  0  3  0  0  0  0  0  0
  -26.3880  -31.3750   24.9780 C   0  0  1  0  0  0  0  0  0  0  0  0
  -25.2880  -31.1340   26.0380 C   0  0  0  0  0  1  0  0  0  0  0  0
  -26.9400  -29.9940   24.5520 C   0  0  0  0  0  1  0  0  0  0  0  0
  -27.5530  -32.1260   25.6630 C   0  0  0  0  0  1  0  0  0  0  0  0
  -25.5950  -33.5820   24.0870 N   0  0  0  0  0  0  0  0  0  0  0  0
  -25.9460  -34.6490   23.3560 C   0  0  0  0  0  0  0  0  0  0  0  0
  -26.6260  -34.5650   22.3300 O   0  0  0  0  0  0  0  0  0  0  0  0
  -24.9980  -33.7210   24.8890 H   0  0  0  0  0  0  0  0  0  0  0  0
  -24.2400  -36.4670   23.0300 C   0  0  0  0  0  1  0  0  0  0  0  0
  -25.4680  -36.0300   23.8440 C   0  0  0  0  0  3  0  0  0  0  0  0
  -27.6030  -36.8700   24.7190 C   0  0  0  0  0  1  0  0  0  0  0  0
  -26.5130  -37.0740   23.7700 N   0  0  0  0  0  0  0  0  0  0  0  0
  -26.1130  -37.9930   23.9390 H   0  0  0  0  0  0  0  0  0  0  0  0
  1 52  1  0
  1  2  1  0
  2  4  1  0
  3  7  1  0
  4  6  1  0
  4  3  1  0
  5  3  2  0
  8  7  1  0
  8  9  1  0
 10  9  1  0
 11 12  1  0
 11 10  1  0
 13 22  1  0
 13 12  1  0
 14 20  1  0
 14 22  1  0
 15 20  1  0
 16 17  1  0
 16 15  1  0
 18 17  1  0
 18 27  1  0
 18 19  1  0
 20 19  1  0
 21 14  2  0
 22 23  1  0
 24 25  2  0
 25 44  1  0
 26 25  1  0
 26 29  1  0
 27 28  1  0
 27 24  1  0
 28 26  2  0
 29 30  1  0
 30 31  2  0
 32 35  1  0
 32 31  1  0
 33 32  2  0
 34 33  1  0
 34 29  2  0
 35 36  1  0
 36 37  1  0
 37 38  2  0
 39 38  1  0
 39 43  1  0
 40 39  2  0
 41 36  2  0
 41 40  1  0
 42 41  1  0
 44 45  1  0
 45 48  1  0
 45 47  1  0
 46 44  2  0
 49 50  1  0
 49 24  1  0
 51 49  1  0
 53 52  1  0
 53 54  1  0
 55 54  1  0
 55 57  1  0
 56 58  2  0
 57 56  1  0
 59 57  1  0
 60 56  1  0
 60 61  1  0
 61 63  1  0
 62 73  2  0
 63 68  1  0
 64 72  1  0
 64 74  1  0
 65 71  1  0
 65 67  1  0
 66 72  1  0
 67 66  1  0
 68 67  2  0
 69 70  1  0
 69 63  2  0
 70 65  2  0
 71 64  1  0
 72 62  1  0
 74 76  2  0
 75 74  1  0
 77 75  1  0
 78 87  2  0
 78 83  1  0
 79 75  1  0
 79 83  1  0
 80 79  1  0
 81 82  1  0
 81 80  1  0
 82 78  1  0
 83 84  2  0
 84 85  1  0
 86 85  2  0
 87 86  1  0
 88 62  1  0
 88 93  1  0
 88 89  1  0
 89 92  1  1
 89 90  1  0
 91 89  1  0
 93 96  1  0
 94 98  1  0
 94 93  1  0
 95 94  2  0
 98 97  1  0
100 98  1  0
100101  1  0
100 99  1  0
M  ISO  4  14 100  22 100  60 101  61 101
M  END
>  <TORSDO>  (57) 
F 31

>  <SCORE>  (57) 
-9.482

>  <name>  (57) 
62

>  <ligand_id>  (57) 
62

>  <original_smiles>  (57) 
[H]c1c([H])c([H])c2c(c1[H])C([H])([H])C([H])([H])C([H])([H])C2([H])N([H])C(=O)C1([H])N(C(=O)C([H])(N([H])C(=O)C([H])(N([H])C([H])([H])[H])C([H])([H])[H])C(C([H])([H])[H])(C([H])([H])[H])C([H])([H])[H])C([H])([H])c2c([H])c(OC([H])([H])C(=O)N([H])C([H])([H])C([H])([H])C([H])([H])C([H])([H])C([H])([H])C([H])([H])N([H])C(=O)C([H])([H])OC([H])([H])C([H])([H])OC([H])([H])C([H])([H])N([H])C(=O)N3C([H])([H])C([H])([H])C([H])([H])C([H])(n4nc(-c5c([H])c([H])c(Oc6c([H])c([H])c(F)c([H])c6F)c([H])c5[H])c(C(=O)N([H])[H])c4N([H])[H])C3([H])[H])c([H])c([H])c2C1([H])[H]

>  <smiles>  (57) 
[H]c1c([H])c([H])c2c(c1[H])C([H])([H])C([H])([H])C([H])([H])C2([H])N([H])C(=O)C1([H])N(C(=O)C([H])(N([H])C(=O)C([H])(N([H])C([H])([H])[H])C([H])([H])[H])C(C([H])([H])[H])(C([H])([H])[H])C([H])([H])[H])C([H])([H])c2c([H])c(OC([H])([H])C(=O)N([H])C([H])([H])C([H])([H])C([H])([H])C([H])([H])C([H])([H])C([H])([H])N([H])C(=O)C([H])([H])OC([H])([H])C([H])([H])OC([H])([H])C([H])([H])N([H])C(=O)N3C([H])([H])C([H])([H])C([H])([H])C([H])(n4nc(-c5c([H])c([H])c(Oc6c([H])c([H])c(F)c([H])c6F)c([H])c5[H])c(C(=O)N([H])[H])c4N([H])[H])C3([H])[H])c([H])c([H])c2C1([H])[H]

$$$$
63:0:0
     RDKit          3D

 90 97  0  0  1  0  0  0  0  0999 V2000
  -29.0500  -21.5910   20.5630 C   0  0  0  0  0  2  0  0  0  0  0  0
  -28.9650  -22.8730   19.6750 C   0  0  0  0  0  2  0  0  0  0  0  0
  -28.4500  -24.1780   20.3620 C   0  0  0  0  0  2  0  0  0  0  0  0
  -28.5910  -25.4570   19.4810 C   0  0  0  0  0  2  0  0  0  0  0  0
  -28.4180  -26.7090   20.1820 O   0  0  0  0  0  0  0  0  0  0  0  0
  -24.5820  -31.8870   23.2410 C   0  0  0  0  0  0  0  0  0  0  0  0
  -27.2210  -27.4110   20.1620 C   0  0  0  0  0  0  0  0  0  0  0  0
  -23.3720  -30.4820   21.6040 C   0  0  0  0  0  3  0  0  0  0  0  0
  -24.8220  -28.9350   20.1810 C   0  0  0  0  0  0  0  0  0  0  0  0
  -25.9000  -30.8320   21.4010 C   0  0  0  0  0  2  0  0  0  0  0  0
  -25.9830  -29.4560   20.7650 C   0  0  0  0  0  0  0  0  0  0  0  0
  -27.1790  -28.7000   20.7520 C   0  0  0  0  0  3  0  0  0  0  0  0
  -26.0330  -26.9030   19.5880 C   0  0  0  0  0  3  0  0  0  0  0  0
  -24.8430  -27.6590   19.5910 C   0  0  0  0  0  3  0  0  0  0  0  0
  -23.5790  -29.7960   20.2270 C   0  0  0  0  0  2  0  0  0  0  0  0
  -24.6370  -31.0840   22.1410 N   0  0  0  0  0  0  0  0  0  0  0  0
  -23.5010  -32.1620   23.7820 O   0  0  0  0  0  0  0  0  0  0  0  0
  -22.7210  -29.4650   22.5700 C   0  0  0  0  0  0  0  0  0  0  0  0
  -21.3960  -29.2820   22.4440 N   0  0  0  0  0  0  0  0  0  0  0  0
  -23.4050  -28.8430   23.3860 O   0  0  0  0  0  0  0  0  0  0  0  0
  -20.9050  -29.8390   21.7580 H   0  0  0  0  0  0  0  0  0  0  0  0
  -18.0240  -28.0790   22.9330 C   0  0  0  0  0  0  0  0  0  0  0  0
  -20.5800  -28.3450   23.2140 C   0  0  0  0  0  3  0  0  0  0  0  0
  -20.6890  -26.9110   22.6460 C   0  0  0  0  0  2  0  0  0  0  0  0
  -19.5930  -26.5800   21.6280 C   0  0  0  0  0  2  0  0  0  0  0  0
  -18.2080  -26.7260   22.2640 C   0  0  0  0  0  2  0  0  0  0  0  0
  -19.1390  -28.8460   23.3640 C   0  0  0  0  0  0  0  0  0  0  0  0
  -18.9150  -30.1130   23.9450 C   0  0  0  0  0  3  0  0  0  0  0  0
  -17.6080  -30.6120   24.1030 C   0  0  0  0  0  3  0  0  0  0  0  0
  -16.5070  -29.8410   23.6900 C   0  0  0  0  0  3  0  0  0  0  0  0
  -16.7170  -28.5770   23.1100 C   0  0  0  0  0  3  0  0  0  0  0  0
  -25.8690  -32.5190   23.8590 C   0  0  0  0  0  3  0  0  0  0  0  0
  -25.5620  -33.9190   24.1850 N   0  0  0  0  0  0  0  0  0  0  0  0
  -25.8960  -34.9680   23.4220 C   0  0  0  0  0  0  0  0  0  0  0  0
  -26.5670  -34.8620   22.3910 O   0  0  0  0  0  0  0  0  0  0  0  0
  -24.9720  -34.0770   24.9880 H   0  0  0  0  0  0  0  0  0  0  0  0
  -24.1690  -36.7600   23.0620 C   0  0  0  0  0  1  0  0  0  0  0  0
  -25.4100  -36.3580   23.8750 C   0  0  0  0  0  3  0  0  0  0  0  0
  -27.5470  -37.2410   24.7000 C   0  0  0  0  0  1  0  0  0  0  0  0
  -26.4420  -37.4110   23.7600 N   0  0  0  0  0  0  0  0  0  0  0  0
  -26.0360  -38.3300   23.9110 H   0  0  0  0  0  0  0  0  0  0  0  0
  -26.3890  -31.7510   25.1350 C   0  0  1  0  0  0  0  0  0  0  0  0
  -25.2990  -31.5160   26.2080 C   0  0  0  0  0  1  0  0  0  0  0  0
  -26.9680  -30.3730   24.7420 C   0  0  0  0  0  1  0  0  0  0  0  0
  -27.5420  -32.5450   25.7920 C   0  0  0  0  0  1  0  0  0  0  0  0
  -29.7790  -20.3990   19.8510 C   0  0  0  0  0  2  0  0  0  0  0  0
  -29.7960  -17.9810   20.5900 C   0  0  0  0  0  0  0  0  0  0  0  0
  -30.2440  -19.2710   20.7110 N   0  0  0  0  0  0  0  0  0  0  0  0
  -28.8800  -17.6710   19.8210 O   0  0  0  0  0  0  0  0  0  0  0  0
  -32.7420  -19.4550   20.8430 C   0  0  0  0  0  1  0  0  0  0  0  0
  -31.3930  -19.6240   21.5660 C   0  0  0  0  0  2  0  0  0  0  0  0
  -30.4410  -16.8480   21.4420 C   0  0  0  0  0  2  0  0  0  0  0  0
  -30.6480  -14.5070   20.4930 C   0  0  0  0  0  0  0  0  0  0  0  0
  -30.3590  -12.3600   19.2940 C   0  0  0  0  0  2  0  0  0  0  0  0
  -29.4040  -12.5630   18.1000 C   0  0  0  0  0  2  0  0  0  0  0  0
  -27.9340  -12.4150   18.5410 C   0  0  0  0  0  2  0  0  0  0  0  0
  -27.6040  -13.2410   19.8120 C   0  0  0  0  0  3  0  0  0  0  0  0
  -28.6650  -13.0030   20.9080 C   0  0  0  0  0  2  0  0  0  0  0  0
  -29.9830  -13.3290   20.3370 N   0  0  0  0  0  0  0  0  0  0  0  0
  -31.7590  -14.7160   19.9970 O   0  0  0  0  0  0  0  0  0  0  0  0
  -29.9780  -15.4750   21.1490 N   0  0  0  0  0  0  0  0  0  0  0  0
  -29.0460  -15.2430   21.4590 H   0  0  0  0  0  0  0  0  0  0  0  0
  -25.2100  -13.8460   20.5310 C   0  0  0  0  0  0  0  0  0  0  0  0
  -24.1420  -13.0730   20.9020 C   0  0  0  0  0  0  0  0  0  0  0  0
  -24.6040  -11.7210   20.8690 C   0  0  0  0  0  0  0  0  0  0  0  0
  -26.2540  -12.9660   20.2950 N   0  0  0  0  0  0  0  0  0  0  0  0
  -25.8930  -11.6830   20.5560 N   0  0  0  0  0  0  0  0  0  0  0  0
  -23.8800  -10.4590   21.0610 C   0  0  0  0  0  0  0  0  0  0  0  0
  -24.3280   -9.4830   21.9780 C   0  0  0  0  0  3  0  0  0  0  0  0
  -23.6050   -8.2840   22.1590 C   0  0  0  0  0  3  0  0  0  0  0  0
  -22.4190   -8.0540   21.4210 C   0  0  0  0  0  0  0  0  0  0  0  0
  -21.9890   -9.0190   20.4930 C   0  0  0  0  0  3  0  0  0  0  0  0
  -22.7130  -10.2090   20.3110 C   0  0  0  0  0  3  0  0  0  0  0  0
  -21.6650   -6.9090   21.5110 O   0  0  0  0  0  0  0  0  0  0  0  0
  -21.6490   -6.1450   22.6510 C   0  0  0  0  0  0  0  0  0  0  0  0
  -21.2740   -6.6820   23.9020 C   0  0  0  0  0  3  0  0  0  0  0  0
  -21.2040   -5.8460   25.0350 C   0  0  0  0  0  3  0  0  0  0  0  0
  -21.4990   -4.4750   24.9160 C   0  0  0  0  0  0  0  0  0  0  0  0
  -21.8670   -3.9370   23.6710 C   0  0  0  0  0  3  0  0  0  0  0  0
  -21.9390   -4.7700   22.5410 C   0  0  0  0  0  0  0  0  0  0  0  0
  -22.2730   -4.2440   21.3380 F   0  0  0  0  0  0  0  0  0  0  0  0
  -21.4250   -3.6700   26.0030 F   0  0  0  0  0  0  0  0  0  0  0  0
  -22.7450  -13.5500   21.1800 C   0  0  0  0  0  0  0  0  0  0  0  0
  -22.0230  -12.8510   22.0490 N   0  0  0  0  0  0  0  0  0  0  0  0
  -22.3040  -14.5740   20.6630 O   0  0  0  0  0  0  0  0  0  0  0  0
  -22.3910  -12.0210   22.4880 H   0  0  0  0  0  0  0  0  0  0  0  0
  -21.0860  -13.1510   22.2790 H   0  0  0  0  0  0  0  0  0  0  0  0
  -25.3740  -15.2170   20.3540 N   0  0  0  0  0  0  0  0  0  0  0  0
  -24.6080  -15.8730   20.4630 H   0  0  0  0  0  0  0  0  0  0  0  0
  -26.2250  -15.6590   20.0260 H   0  0  0  0  0  0  0  0  0  0  0  0
  2  3  1  0
  2  1  1  0
  4  5  1  0
  4  3  1  0
  6 17  2  0
  7  5  1  0
  7 12  1  0
  8 16  1  0
  8 18  1  0
  9 15  1  0
  9 11  1  0
 10 16  1  0
 11 10  1  0
 12 11  2  0
 13 14  1  0
 13  7  2  0
 14  9  2  0
 15  8  1  0
 16  6  1  0
 18 20  2  0
 19 18  1  0
 21 19  1  0
 22 31  2  0
 22 27  1  0
 23 19  1  0
 23 27  1  0
 24 23  1  0
 25 26  1  0
 25 24  1  0
 26 22  1  0
 27 28  2  0
 28 29  1  0
 30 29  2  0
 31 30  1  0
 32  6  1  0
 32 33  1  0
 32 42  1  0
 33 36  1  0
 34 38  1  0
 34 33  1  0
 35 34  2  0
 38 37  1  0
 40 38  1  0
 40 41  1  0
 40 39  1  0
 42 45  1  1
 42 43  1  0
 44 42  1  0
 46  1  1  0
 46 48  1  0
 47 48  1  0
 47 52  1  0
 48 51  1  0
 49 47  2  0
 50 51  1  0
 53 61  1  0
 54 59  1  0
 55 56  1  0
 55 54  1  0
 57 56  1  0
 57 66  1  0
 57 58  1  0
 59 53  1  0
 59 58  1  0
 60 53  2  0
 61 52  1  0
 61 62  1  0
 63 64  2  0
 64 83  1  0
 65 64  1  0
 65 68  1  0
 66 63  1  0
 66 67  1  0
 67 65  2  0
 68 69  1  0
 69 70  2  0
 71 74  1  0
 71 70  1  0
 72 71  2  0
 73 72  1  0
 73 68  2  0
 74 75  1  0
 75 76  1  0
 76 77  2  0
 78 77  1  0
 78 82  1  0
 79 78  2  0
 80 75  2  0
 80 79  1  0
 81 80  1  0
 83 84  1  0
 84 87  1  0
 84 86  1  0
 85 83  2  0
 88 89  1  0
 88 63  1  0
 90 88  1  0
M  ISO  4   4 101   5 101  53 100  61 100
M  END
>  <TORSDO>  (58) 
F 23

>  <SCORE>  (58) 
-12.977

>  <name>  (58) 
63

>  <ligand_id>  (58) 
63

>  <original_smiles>  (58) 
[H]c1c([H])c([H])c2c(c1[H])C([H])([H])C([H])([H])C([H])([H])C2([H])N([H])C(=O)C1([H])N(C(=O)C([H])(N([H])C(=O)C([H])(N([H])C([H])([H])[H])C([H])([H])[H])C(C([H])([H])[H])(C([H])([H])[H])C([H])([H])[H])C([H])([H])c2c([H])c(OC([H])([H])C([H])([H])C([H])([H])C([H])([H])C([H])([H])N(C(=O)C([H])([H])N([H])C(=O)N3C([H])([H])C([H])([H])C([H])([H])C([H])(n4nc(-c5c([H])c([H])c(Oc6c([H])c([H])c(F)c([H])c6F)c([H])c5[H])c(C(=O)N([H])[H])c4N([H])[H])C3([H])[H])C([H])([H])C([H])([H])[H])c([H])c([H])c2C1([H])[H]

>  <smiles>  (58) 
[H]c1c([H])c([H])c2c(c1[H])C([H])([H])C([H])([H])C([H])([H])C2([H])N([H])C(=O)C1([H])N(C(=O)C([H])(N([H])C(=O)C([H])(N([H])C([H])([H])[H])C([H])([H])[H])C(C([H])([H])[H])(C([H])([H])[H])C([H])([H])[H])C([H])([H])c2c([H])c(OC([H])([H])C([H])([H])C([H])([H])C([H])([H])C([H])([H])N(C(=O)C([H])([H])N([H])C(=O)N3C([H])([H])C([H])([H])C([H])([H])C([H])(n4nc(-c5c([H])c([H])c(Oc6c([H])c([H])c(F)c([H])c6F)c([H])c5[H])c(C(=O)N([H])[H])c4N([H])[H])C3([H])[H])C([H])([H])C([H])([H])[H])c([H])c([H])c2C1([H])[H]

$$$$
64:0:0
     RDKit          3D

 96100  0  0  1  0  0  0  0  0999 V2000
  -21.6120  -31.0790   20.4050 C   0  0  0  0  0  3  0  0  0  0  0  0
  -20.2200  -29.4290   20.5910 C   0  0  0  0  0  2  0  0  0  0  0  0
  -21.5750  -31.4740   22.1030 C   0  0  0  0  0  3  0  0  0  0  0  0
  -19.9660  -30.2200   21.9910 C   0  0  0  0  0  2  0  0  0  0  0  0
  -21.5550  -29.5750   19.9590 N   0  0  0  0  0  0  0  0  0  0  0  0
  -21.1720  -30.3340   23.1010 N   0  0  0  0  0  0  0  0  0  0  0  0
  -21.5980  -29.5980   22.5350 H   0  0  0  0  0  0  0  0  0  0  0  0
  -22.0320  -29.2470   24.4300 C   0  0  0  0  0 15  0  0  0  0  0  0
  -22.9570  -27.3330   24.5420 C   0  0  0  0  0  1  0  0  0  0  0  0
  -23.6040  -25.9110   23.6000 O   0  0  0  0  0  0  0  0  0  0  0  0
  -24.7530  -24.5070   23.6360 C   0  0  0  0  0  1  0  0  0  0  0  0
  -25.2790  -22.7600   22.7820 C   0  0  0  0  0  1  0  0  0  0  0  0
  -26.5720  -21.4920   22.6150 O   0  0  0  0  0  0  0  0  0  0  0  0
  -26.9420  -19.8120   22.0260 C   0  0  0  0  0  1  0  0  0  0  0  0
  -28.4170  -18.4850   21.6650 C   0  0  0  0  0  1  0  0  0  0  0  0
  -29.8310  -15.6090   20.8030 C   0  0  0  0  0  0  0  0  0  0  0  0
  -30.3510  -13.1640   19.6990 C   0  0  0  0  0  2  0  0  0  0  0  0
  -29.5520  -12.7220   18.4220 C   0  0  0  0  0  2  0  0  0  0  0  0
  -28.1230  -12.2910   18.7890 C   0  0  0  0  0  2  0  0  0  0  0  0
  -27.5520  -13.2570   19.8480 C   0  0  0  0  0  3  0  0  0  0  0  0
  -28.4640  -13.4330   21.0640 C   0  0  0  0  0  2  0  0  0  0  0  0
  -29.5820  -14.1950   20.5610 N   0  0  0  0  0  0  0  0  0  0  0  0
  -31.0420  -15.7780   20.5140 O   0  0  0  0  0  0  0  0  0  0  0  0
  -28.7690  -16.7330   21.2340 N   0  0  0  0  0  0  0  0  0  0  0  0
  -27.8980  -16.2310   21.3380 H   0  0  0  0  0  0  0  0  0  0  0  0
  -25.2080  -13.8180   20.5630 C   0  0  0  0  0  0  0  0  0  0  0  0
  -24.1460  -13.0360   20.9260 C   0  0  0  0  0  0  0  0  0  0  0  0
  -24.6130  -11.6890   20.8780 C   0  0  0  0  0  0  0  0  0  0  0  0
  -26.2290  -12.9300   20.2920 N   0  0  0  0  0  0  0  0  0  0  0  0
  -25.8970  -11.6470   20.5560 N   0  0  0  0  0  0  0  0  0  0  0  0
  -23.8920  -10.4250   21.0460 C   0  0  0  0  0  0  0  0  0  0  0  0
  -24.3550   -9.4190   21.9220 C   0  0  0  0  0  3  0  0  0  0  0  0
  -23.6250   -8.2200   22.0760 C   0  0  0  0  0  3  0  0  0  0  0  0
  -22.4230   -8.0240   21.3560 C   0  0  0  0  0  0  0  0  0  0  0  0
  -21.9840   -9.0200   20.4660 C   0  0  0  0  0  3  0  0  0  0  0  0
  -22.7140  -10.2090   20.3080 C   0  0  0  0  0  3  0  0  0  0  0  0
  -21.6610   -6.8840   21.4240 O   0  0  0  0  0  0  0  0  0  0  0  0
  -21.6830   -6.0710   22.5290 C   0  0  0  0  0  0  0  0  0  0  0  0
  -21.4010   -6.5630   23.8220 C   0  0  0  0  0  3  0  0  0  0  0  0
  -21.3650   -5.6780   24.9180 C   0  0  0  0  0  3  0  0  0  0  0  0
  -21.6040   -4.3040   24.7240 C   0  0  0  0  0  0  0  0  0  0  0  0
  -21.8820   -3.8130   23.4360 C   0  0  0  0  0  3  0  0  0  0  0  0
  -21.9190   -4.6950   22.3410 C   0  0  0  0  0  0  0  0  0  0  0  0
  -22.1660   -4.2140   21.0990 F   0  0  0  0  0  0  0  0  0  0  0  0
  -21.5630   -3.4530   25.7750 F   0  0  0  0  0  0  0  0  0  0  0  0
  -22.7580  -13.5200   21.1960 C   0  0  0  0  0  0  0  0  0  0  0  0
  -22.0230  -12.8170   22.0540 N   0  0  0  0  0  0  0  0  0  0  0  0
  -22.3310  -14.5500   20.6810 O   0  0  0  0  0  0  0  0  0  0  0  0
  -22.3840  -11.9820   22.4900 H   0  0  0  0  0  0  0  0  0  0  0  0
  -21.0880  -13.1250   22.2790 H   0  0  0  0  0  0  0  0  0  0  0  0
  -25.3800  -15.1890   20.4110 N   0  0  0  0  0  0  0  0  0  0  0  0
  -24.5890  -15.8210   20.4860 H   0  0  0  0  0  0  0  0  0  0  0  0
  -26.1560  -15.5990   19.9060 H   0  0  0  0  0  0  0  0  0  0  0  0
  -22.5760  -28.3020   19.5050 C   0  0  0  0  0  2  0  0  0  0  0  0
  -23.8680  -27.0980   20.1790 C   0  0  0  0  0  2  0  0  0  0  0  0
  -25.5080  -26.9250   20.6490 O   0  0  0  0  0  0  0  0  0  0  0  0
  -24.8620  -31.7670   23.2650 C   0  0  0  0  0  0  0  0  0  0  0  0
  -26.7240  -27.2740   20.0770 C   0  0  0  0  0  3  0  0  0  0  0  0
  -23.9350  -30.3320   21.4140 C   0  0  0  0  0  3  0  0  0  0  0  0
  -25.3660  -29.4290   19.6500 C   0  0  0  0  0  3  0  0  0  0  0  0
  -26.3560  -30.7390   21.5390 C   0  0  0  0  0  2  0  0  0  0  0  0
  -26.3500  -29.5250   20.6230 C   0  0  0  0  0  3  0  0  0  0  0  0
  -27.2120  -28.4370   20.7250 C   0  0  0  0  0  2  0  0  0  0  0  0
  -26.2840  -27.3640   18.7910 C   0  0  0  0  0  2  0  0  0  0  0  0
  -25.4330  -28.4640   18.6120 C   0  0  0  0  0  2  0  0  0  0  0  0
  -24.2880  -30.3540   19.8870 C   0  0  0  0  0  2  0  0  0  0  0  0
  -25.0410  -30.9610   22.1630 N   0  0  0  0  0  0  0  0  0  0  0  0
  -23.7770  -31.9640   23.8240 O   0  0  0  0  0  0  0  0  0  0  0  0
  -23.3350  -29.0090   22.1780 C   0  0  0  0  0  0  0  0  0  0  0  0
  -22.0300  -28.2690   22.1370 N   0  0  0  0  0  0  0  0  0  0  0  0
  -24.1930  -28.6770   22.9540 O   0  0  0  0  0  0  0  0  0  0  0  0
  -22.2010  -27.5560   21.4380 H   0  0  0  0  0  0  0  0  0  0  0  0
  -17.9990  -27.8840   22.8670 C   0  0  0  0  0  0  0  0  0  0  0  0
  -20.6740  -27.6790   22.9660 C   0  0  0  0  0  3  0  0  0  0  0  0
  -20.5190  -26.3680   22.2630 C   0  0  0  0  0  2  0  0  0  0  0  0
  -19.2900  -26.2320   21.3910 C   0  0  0  0  0  2  0  0  0  0  0  0
  -18.0090  -26.5740   22.1300 C   0  0  0  0  0  2  0  0  0  0  0  0
  -19.1940  -28.3320   23.4940 C   0  0  0  0  0  0  0  0  0  0  0  0
  -18.9240  -29.4910   24.3710 C   0  0  0  0  0  3  0  0  0  0  0  0
  -17.7280  -30.2670   24.3270 C   0  0  0  0  0  3  0  0  0  0  0  0
  -16.6180  -29.7840   23.6320 C   0  0  0  0  0  3  0  0  0  0  0  0
  -16.7560  -28.5640   22.9540 C   0  0  0  0  0  3  0  0  0  0  0  0
  -26.0670  -32.4740   23.8940 C   0  0  0  0  0  3  0  0  0  0  0  0
  -26.5340  -31.6640   25.1570 C   0  0  1  0  0  0  0  0  0  0  0  0
  -25.4300  -31.3860   26.2080 C   0  0  0  0  0  1  0  0  0  0  0  0
  -27.1140  -30.2820   24.7720 C   0  0  0  0  0  1  0  0  0  0  0  0
  -27.6710  -32.4420   25.8480 C   0  0  0  0  0  1  0  0  0  0  0  0
  -25.6630  -33.8450   24.2610 N   0  0  0  0  0  0  0  0  0  0  0  0
  -25.9240  -34.9320   23.5230 C   0  0  0  0  0  0  0  0  0  0  0  0
  -26.5660  -34.8740   22.4730 O   0  0  0  0  0  0  0  0  0  0  0  0
  -25.0470  -33.9440   25.0530 H   0  0  0  0  0  0  0  0  0  0  0  0
  -24.1490  -36.7170   23.2610 C   0  0  0  0  0  1  0  0  0  0  0  0
  -25.4130  -36.2980   24.0300 C   0  0  0  0  0  3  0  0  0  0  0  0
  -27.5560  -37.1770   24.8480 C   0  0  0  0  0  1  0  0  0  0  0  0
  -26.4260  -37.3750   23.9430 N   0  0  0  0  0  0  0  0  0  0  0  0
  -26.0120  -38.2820   24.1400 H   0  0  0  0  0  0  0  0  0  0  0  0
  1  3  2  0
  2  4  1  0
  3  6  1  0
  4  6  1  0
  5  1  1  0
  5  2  1  0
  7  6  1  0
 10 11  1  0
 10  9  1  0
 13 12  1  0
 14 13  1  0
 16 24  1  0
 17 22  1  0
 18 19  1  0
 18 17  1  0
 20 19  1  0
 20 29  1  0
 20 21  1  0
 22 16  1  0
 22 21  1  0
 23 16  2  0
 24 25  1  0
 24 15  1  0
 26 27  2  0
 27 46  1  0
 28 27  1  0
 28 31  1  0
 29 30  1  0
 29 26  1  0
 30 28  2  0
 31 32  1  0
 32 33  2  0
 34 37  1  0
 34 33  1  0
 35 34  2  0
 36 35  1  0
 36 31  2  0
 37 38  1  0
 38 39  1  0
 39 40  2  0
 41 40  1  0
 41 45  1  0
 42 41  2  0
 43 38  2  0
 43 42  1  0
 44 43  1  0
 46 47  1  0
 47 50  1  0
 47 49  1  0
 48 46  2  0
 51 52  1  0
 51 26  1  0
 53 51  1  0
 54  5  1  0
 54 55  1  0
 55 56  1  0
 57 68  2  0
 58 56  1  0
 58 63  1  0
 59 67  1  0
 59 69  1  0
 60 65  1  0
 60 66  1  0
 60 62  1  0
 61 67  1  0
 62 63  1  0
 62 61  1  0
 64 58  1  0
 65 64  1  0
 66 59  1  0
 67 57  1  0
 69 71  2  0
 70 69  1  0
 72 70  1  0
 73 82  2  0
 73 78  1  0
 74 70  1  0
 74 78  1  0
 75 74  1  0
 76 77  1  0
 76 75  1  0
 77 73  1  0
 78 79  2  0
 80 79  1  0
 81 80  2  0
 82 81  1  0
 83 57  1  0
 83 88  1  0
 83 84  1  0
 84 87  1  1
 84 85  1  0
 86 84  1  0
 88 91  1  0
 89 93  1  0
 89 88  1  0
 90 89  2  0
 93 92  1  0
 95 93  1  0
 95 96  1  0
 95 94  1  0
M  ISO  4  16 100  24 100  55 101  56 101
M  END
>  <TORSDO>  (59) 
F 26

>  <SCORE>  (59) 
17.218

>  <name>  (59) 
64

>  <ligand_id>  (59) 
64

>  <original_smiles>  (59) 
[H]c1c([H])c([H])c2c(c1[H])C([H])([H])C([H])([H])C([H])([H])C2([H])N([H])C(=O)C1([H])N(C(=O)C([H])(N([H])C(=O)C([H])(N([H])C([H])([H])[H])C([H])([H])[H])C(C([H])([H])[H])(C([H])([H])[H])C([H])([H])[H])C([H])([H])c2c([H])c(OC([H])([H])C([H])([H])N3C([H])([H])C([H])([H])[N+]([H])(C([H])([H])C([H])([H])OC([H])([H])C([H])([H])OC([H])([H])C([H])([H])N([H])C(=O)N4C([H])([H])C([H])([H])C([H])([H])C([H])(n5nc(-c6c([H])c([H])c(Oc7c([H])c([H])c(F)c([H])c7F)c([H])c6[H])c(C(=O)N([H])[H])c5N([H])[H])C4([H])[H])C([H])([H])C3([H])[H])c([H])c([H])c2C1([H])[H]

>  <smiles>  (59) 
[H]c1c([H])c([H])c2c(c1[H])C([H])([H])C([H])([H])C([H])([H])C2([H])N([H])C(=O)C1([H])N(C(=O)C([H])(N([H])C(=O)C([H])(N([H])C([H])([H])[H])C([H])([H])[H])C(C([H])([H])[H])(C([H])([H])[H])C([H])([H])[H])C([H])([H])c2c([H])c(OC([H])([H])C([H])([H])N3C([H])([H])C([H])([H])[N+]([H])(C([H])([H])C([H])([H])OC([H])([H])C([H])([H])OC([H])([H])C([H])([H])N([H])C(=O)N4C([H])([H])C([H])([H])C([H])([H])C([H])(n5nc(-c6c([H])c([H])c(Oc7c([H])c([H])c(F)c([H])c7F)c([H])c6[H])c(C(=O)N([H])[H])c5N([H])[H])C4([H])[H])C([H])([H])C3([H])[H])c([H])c([H])c2C1([H])[H]

$$$$
65:0:0
     RDKit          3D

 96104  0  0  1  0  0  0  0  0999 V2000
  -28.6220  -20.1340   25.1880 C   0  0  0  0  0  2  0  0  0  0  0  0
  -30.8660  -20.3660   24.1220 C   0  0  0  0  0  0  0  0  0  0  0  0
  -29.7460  -19.6780   24.3760 N   0  0  0  0  0  0  0  0  0  0  0  0
  -31.0470  -21.5190   24.5260 O   0  0  0  0  0  0  0  0  0  0  0  0
  -29.6910  -18.7340   24.0130 H   0  0  0  0  0  0  0  0  0  0  0  0
  -31.9540  -19.6370   23.3230 C   0  0  0  0  0  2  0  0  0  0  0  0
  -32.3890  -19.9970   20.9100 C   0  0  0  0  0  3  0  0  0  0  0  0
  -32.4300  -20.4140   22.1780 N   0  0  0  0  0  0  0  0  0  0  0  0
  -31.9420  -18.8920   20.5930 O   0  0  0  0  0  0  0  0  0  0  0  0
  -32.7720  -21.3450   22.3700 H   0  0  0  0  0  0  0  0  0  0  0  0
  -32.9270  -20.9390   19.8300 C   0  0  0  0  0  2  0  0  0  0  0  0
  -34.5280  -19.1600   19.0940 C   0  0  0  0  0  0  0  0  0  0  0  0
  -34.7970  -16.7150   19.2560 C   0  0  0  0  0  2  0  0  0  0  0  0
  -34.2250  -16.0300   17.9980 C   0  0  0  0  0  2  0  0  0  0  0  0
  -32.7150  -15.7640   18.1520 C   0  0  0  0  0  2  0  0  0  0  0  0
  -31.9400  -17.0150   18.6430 C   0  0  0  0  0  3  0  0  0  0  0  0
  -32.6440  -17.6420   19.8610 C   0  0  0  0  0  3  0  0  0  0  0  0
  -34.0340  -17.9530   19.4860 N   0  0  0  0  0  0  0  0  0  0  0  0
  -35.6880  -19.3170   18.7070 O   0  0  0  0  0  0  0  0  0  0  0  0
  -33.6440  -20.1290   18.8490 N   0  0  0  0  0  0  0  0  0  0  0  0
  -33.9370  -20.7160   18.0820 H   0  0  0  0  0  0  0  0  0  0  0  0
  -29.4280  -17.5270   18.8890 C   0  0  0  0  0  0  0  0  0  0  0  0
  -28.3590  -16.7290   19.1960 C   0  0  0  0  0  0  0  0  0  0  0  0
  -28.8930  -15.4230   19.4220 C   0  0  0  0  0  0  0  0  0  0  0  0
  -30.5430  -16.7040   18.9400 N   0  0  0  0  0  0  0  0  0  0  0  0
  -30.2150  -15.4410   19.3180 N   0  0  0  0  0  0  0  0  0  0  0  0
  -28.2180  -14.1440   19.6740 C   0  0  0  0  0  0  0  0  0  0  0  0
  -28.0670  -13.6350   20.9840 C   0  0  0  0  0  3  0  0  0  0  0  0
  -27.3990  -12.4110   21.2030 C   0  0  0  0  0  3  0  0  0  0  0  0
  -26.8720  -11.6840   20.1100 C   0  0  0  0  0  0  0  0  0  0  0  0
  -27.0440  -12.1840   18.8060 C   0  0  0  0  0  3  0  0  0  0  0  0
  -27.7130  -13.4000   18.5890 C   0  0  0  0  0  3  0  0  0  0  0  0
  -26.2330  -10.4740   20.2240 O   0  0  0  0  0  0  0  0  0  0  0  0
  -25.1170  -10.3200   21.0080 C   0  0  0  0  0  0  0  0  0  0  0  0
  -23.9370  -11.0600   20.7760 C   0  0  0  0  0  3  0  0  0  0  0  0
  -22.7900  -10.8220   21.5620 C   0  0  0  0  0  3  0  0  0  0  0  0
  -22.8190   -9.8380   22.5690 C   0  0  0  0  0  0  0  0  0  0  0  0
  -23.9920   -9.0970   22.7960 C   0  0  0  0  0  3  0  0  0  0  0  0
  -25.1370   -9.3350   22.0160 C   0  0  0  0  0  0  0  0  0  0  0  0
  -26.2560   -8.6030   22.2240 F   0  0  0  0  0  0  0  0  0  0  0  0
  -21.7170   -9.6020   23.3190 F   0  0  0  0  0  0  0  0  0  0  0  0
  -26.9110  -17.1270   19.1850 C   0  0  0  0  0  0  0  0  0  0  0  0
  -26.0980  -16.5030   20.0290 N   0  0  0  0  0  0  0  0  0  0  0  0
  -26.5020  -18.0310   18.4590 O   0  0  0  0  0  0  0  0  0  0  0  0
  -26.4370  -15.7750   20.6410 H   0  0  0  0  0  0  0  0  0  0  0  0
  -25.1210  -16.7560   20.0610 H   0  0  0  0  0  0  0  0  0  0  0  0
  -29.5430  -18.8740   18.5550 N   0  0  0  0  0  0  0  0  0  0  0  0
  -28.7350  -19.4740   18.4380 H   0  0  0  0  0  0  0  0  0  0  0  0
  -30.4170  -19.3310   18.3280 H   0  0  0  0  0  0  0  0  0  0  0  0
  -28.5400  -21.6680   25.3030 C   0  0  0  0  0  2  0  0  0  0  0  0
  -29.3690  -22.4300   24.2510 C   0  0  0  0  0  2  0  0  0  0  0  0
  -29.5760  -23.9010   24.6370 C   0  0  0  0  0  2  0  0  0  0  0  0
  -30.4090  -24.5280   23.6730 O   0  0  0  0  0  0  0  0  0  0  0  0
  -30.4450  -25.9440   23.8170 C   0  0  0  0  0  2  0  0  0  0  0  0
  -31.3460  -26.5620   22.7320 C   0  0  0  0  0  2  0  0  0  0  0  0
  -31.0030  -27.9310   22.4970 O   0  0  0  0  0  0  0  0  0  0  0  0
  -25.2920  -31.9670   23.7180 C   0  0  0  0  0  0  0  0  0  0  0  0
  -29.7090  -28.2210   22.1260 C   0  0  0  0  0  0  0  0  0  0  0  0
  -24.9650  -30.1140   22.1110 C   0  0  0  0  0  3  0  0  0  0  0  0
  -27.0880  -28.9310   21.3430 C   0  0  0  0  0  0  0  0  0  0  0  0
  -27.2690  -31.1790   22.4250 C   0  0  0  0  0  2  0  0  0  0  0  0
  -27.8700  -29.8340   22.0710 C   0  0  0  0  0  0  0  0  0  0  0  0
  -29.1820  -29.4870   22.4570 C   0  0  0  0  0  3  0  0  0  0  0  0
  -28.9090  -27.3200   21.3860 C   0  0  0  0  0  3  0  0  0  0  0  0
  -27.6020  -27.6690   20.9980 C   0  0  0  0  0  3  0  0  0  0  0  0
  -25.7000  -29.3850   20.9550 C   0  0  0  0  0  2  0  0  0  0  0  0
  -25.8400  -31.1110   22.8080 N   0  0  0  0  0  0  0  0  0  0  0  0
  -24.0750  -31.9640   23.9470 O   0  0  0  0  0  0  0  0  0  0  0  0
  -24.3700  -29.0520   23.0610 C   0  0  0  0  0  0  0  0  0  0  0  0
  -23.2430  -28.4470   22.6500 N   0  0  0  0  0  0  0  0  0  0  0  0
  -24.9320  -28.7650   24.1210 O   0  0  0  0  0  0  0  0  0  0  0  0
  -22.8410  -28.7450   21.7720 H   0  0  0  0  0  0  0  0  0  0  0  0
  -20.2780  -26.3840   22.5720 C   0  0  0  0  0  0  0  0  0  0  0  0
  -22.5260  -27.3880   23.3600 C   0  0  0  0  0  3  0  0  0  0  0  0
  -23.1350  -26.0010   23.0560 C   0  0  0  0  0  2  0  0  0  0  0  0
  -22.4520  -25.2840   21.8880 C   0  0  0  0  0  2  0  0  0  0  0  0
  -20.9610  -25.0850   22.1780 C   0  0  0  0  0  2  0  0  0  0  0  0
  -21.0150  -27.4710   23.1120 C   0  0  0  0  0  0  0  0  0  0  0  0
  -20.3370  -28.6680   23.4270 C   0  0  0  0  0  3  0  0  0  0  0  0
  -18.9500  -28.7870   23.2170 C   0  0  0  0  0  3  0  0  0  0  0  0
  -18.2230  -27.7030   22.6960 C   0  0  0  0  0  3  0  0  0  0  0  0
  -18.8870  -26.5040   22.3780 C   0  0  0  0  0  3  0  0  0  0  0  0
  -26.1630  -33.0040   24.4930 C   0  0  0  0  0  3  0  0  0  0  0  0
  -26.2550  -32.7050   26.0400 C   0  0  1  0  0  0  0  0  0  0  0  0
  -24.8820  -32.4630   26.7090 C   0  0  0  0  0  1  0  0  0  0  0  0
  -27.1370  -31.4620   26.3040 C   0  0  0  0  0  1  0  0  0  0  0  0
  -26.9330  -33.8910   26.7640 C   0  0  0  0  0  1  0  0  0  0  0  0
  -25.5840  -34.3330   24.2550 N   0  0  0  0  0  0  0  0  0  0  0  0
  -26.0610  -35.2240   23.3760 C   0  0  0  0  0  0  0  0  0  0  0  0
  -27.0930  -35.0360   22.7250 O   0  0  0  0  0  0  0  0  0  0  0  0
  -24.7060  -34.5300   24.7110 H   0  0  0  0  0  0  0  0  0  0  0  0
  -24.4250  -36.4470   21.9080 C   0  0  0  0  0  1  0  0  0  0  0  0
  -25.2690  -36.5320   23.1910 C   0  0  0  0  0  3  0  0  0  0  0  0
  -26.7590  -38.0480   24.4200 C   0  0  0  0  0  1  0  0  0  0  0  0
  -26.1250  -37.7370   23.1410 N   0  0  0  0  0  0  0  0  0  0  0  0
  -25.5890  -38.5480   22.8470 H   0  0  0  0  0  0  0  0  0  0  0  0
  1 50  1  0
  2  3  1  0
  2  4  2  0
  3  1  1  0
  5  3  1  0
  6  2  1  0
  7  8  1  0
  8 10  1  0
  8  6  1  0
  9  7  1  0
 11  7  1  0
 12 18  1  0
 13 18  1  0
 14 15  1  0
 14 13  1  0
 16 15  1  0
 16 25  1  0
 16 17  1  0
 17  9  1  0
 18 17  1  0
 19 12  2  0
 20 12  1  0
 20 11  1  0
 21 20  1  0
 22 25  1  0
 22 23  2  0
 23 24  1  0
 24 27  1  0
 25 26  1  0
 26 24  2  0
 27 28  1  0
 28 29  2  0
 30 33  1  0
 30 29  1  0
 31 30  2  0
 32 31  1  0
 32 27  2  0
 33 34  1  0
 34 39  1  0
 35 34  2  0
 35 36  1  0
 36 37  2  0
 37 38  1  0
 37 41  1  0
 39 40  1  0
 39 38  2  0
 42 23  1  0
 42 43  1  0
 43 46  1  0
 43 45  1  0
 44 42  2  0
 47 22  1  0
 48 47  1  0
 49 47  1  0
 51 52  1  0
 51 50  1  0
 53 54  1  0
 53 52  1  0
 55 54  1  0
 56 55  1  0
 57 68  2  0
 58 63  1  0
 58 56  1  0
 59 67  1  0
 59 69  1  0
 60 62  1  0
 61 67  1  0
 62 61  1  0
 62 63  2  0
 64 58  2  0
 65 60  2  0
 65 64  1  0
 66 60  1  0
 66 59  1  0
 67 57  1  0
 69 71  2  0
 70 69  1  0
 72 70  1  0
 73 78  1  0
 74 70  1  0
 75 74  1  0
 76 77  1  0
 76 75  1  0
 77 73  1  0
 78 74  1  0
 78 79  2  0
 80 79  1  0
 81 80  2  0
 82 73  2  0
 82 81  1  0
 83 57  1  0
 83 84  1  0
 84 86  1  6
 84 85  1  0
 84 87  1  0
 88 83  1  0
 88 91  1  0
 89 88  1  0
 90 89  2  0
 93 92  1  0
 93 89  1  0
 95 93  1  0
 95 94  1  0
 96 95  1  0
M  ISO  4  12 100  20 100  55 101  56 101
M  END
>  <TORSDO>  (60) 
F 26

>  <SCORE>  (60) 
5.751

>  <name>  (60) 
65

>  <ligand_id>  (60) 
65

>  <original_smiles>  (60) 
[H]c1c([H])c([H])c2c(c1[H])C([H])([H])C([H])([H])C([H])([H])C2([H])N([H])C(=O)C1([H])N(C(=O)C([H])(N([H])C(=O)C([H])(N([H])C([H])([H])[H])C([H])([H])[H])C(C([H])([H])[H])(C([H])([H])[H])C([H])([H])[H])C([H])([H])c2c([H])c(OC([H])([H])C([H])([H])OC([H])([H])C([H])([H])C([H])([H])C([H])([H])N([H])C(=O)C([H])([H])N([H])C(=O)C([H])([H])N([H])C(=O)N3C([H])([H])C([H])([H])C([H])([H])C([H])(n4nc(-c5c([H])c([H])c(Oc6c([H])c([H])c(F)c([H])c6F)c([H])c5[H])c(C(=O)N([H])[H])c4N([H])[H])C3([H])[H])c([H])c([H])c2C1([H])[H]

>  <smiles>  (60) 
[H]c1c([H])c([H])c2c(c1[H])C([H])([H])C([H])([H])C([H])([H])C2([H])N([H])C(=O)C1([H])N(C(=O)C([H])(N([H])C(=O)C([H])(N([H])C([H])([H])[H])C([H])([H])[H])C(C([H])([H])[H])(C([H])([H])[H])C([H])([H])[H])C([H])([H])c2c([H])c(OC([H])([H])C([H])([H])OC([H])([H])C([H])([H])C([H])([H])C([H])([H])N([H])C(=O)C([H])([H])N([H])C(=O)C([H])([H])N([H])C(=O)N3C([H])([H])C([H])([H])C([H])([H])C([H])(n4nc(-c5c([H])c([H])c(Oc6c([H])c([H])c(F)c([H])c6F)c([H])c5[H])c(C(=O)N([H])[H])c4N([H])[H])C3([H])[H])c([H])c([H])c2C1([H])[H]

$$$$
66:0:0
     RDKit          3D

109116  0  0  1  0  0  0  0  0999 V2000
  -32.8970  -19.0480   16.5580 C   0  0  0  0  0  0  0  0  0  0  0  0
  -34.1530  -18.6540   16.3520 N   0  0  0  0  0  4  0  0  0  0  0  0
  -31.8880  -18.5400   15.8390 N   0  0  0  0  0  0  0  0  0  0  0  0
  -32.6390  -19.9750   17.4940 N   0  0  0  0  0  0  0  0  0  0  0  0
  -34.3840  -17.9550   15.6600 H   0  0  0  0  0  0  0  0  0  0  0  0
  -34.9260  -19.0310   16.8820 H   0  0  0  0  0  0  0  0  0  0  0  0
  -30.9390  -18.8130   16.0650 H   0  0  0  0  0  0  0  0  0  0  0  0
  -33.4010  -20.3690   18.0270 H   0  0  0  0  0  0  0  0  0  0  0  0
  -31.3030  -20.5430   17.7400 C   0  0  0  0  0  2  0  0  0  0  0  0
  -31.2270  -21.3920   19.0140 C   0  0  0  0  0  2  0  0  0  0  0  0
  -32.0710  -22.6770   18.9420 C   0  0  0  0  0  2  0  0  0  0  0  0
  -31.7820  -23.6680   20.0860 C   0  0  0  0  0  2  0  0  0  0  0  0
  -30.0270  -25.2040   19.2120 C   0  0  0  0  0  0  0  0  0  0  0  0
  -30.4260  -24.2120   20.0180 N   0  0  0  0  0  0  0  0  0  0  0  0
  -30.7980  -25.7840   18.4430 O   0  0  0  0  0  0  0  0  0  0  0  0
  -29.7350  -23.8170   20.6450 H   0  0  0  0  0  0  0  0  0  0  0  0
  -28.5530  -25.6130   19.2750 C   0  0  0  0  0  2  0  0  0  0  0  0
  -28.4420  -26.7950   20.0620 O   0  0  0  0  0  0  0  0  0  0  0  0
  -24.6120  -31.8710   23.2120 C   0  0  0  0  0  0  0  0  0  0  0  0
  -27.2380  -27.4640   20.0760 C   0  0  0  0  0  0  0  0  0  0  0  0
  -23.3970  -30.4950   21.5530 C   0  0  0  0  0  3  0  0  0  0  0  0
  -24.8410  -28.9620   20.1180 C   0  0  0  0  0  0  0  0  0  0  0  0
  -25.9230  -30.8420   21.3630 C   0  0  0  0  0  2  0  0  0  0  0  0
  -25.9980  -29.4760   20.7140 C   0  0  0  0  0  0  0  0  0  0  0  0
  -27.1950  -28.7290   20.6980 C   0  0  0  0  0  3  0  0  0  0  0  0
  -26.0550  -26.9500   19.4920 C   0  0  0  0  0  3  0  0  0  0  0  0
  -24.8620  -27.6950   19.5110 C   0  0  0  0  0  3  0  0  0  0  0  0
  -23.6030  -29.8280   20.1680 C   0  0  0  0  0  2  0  0  0  0  0  0
  -24.6620  -31.0830   22.1010 N   0  0  0  0  0  0  0  0  0  0  0  0
  -23.5320  -32.1450   23.7530 O   0  0  0  0  0  0  0  0  0  0  0  0
  -22.7390  -29.4670   22.5010 C   0  0  0  0  0  0  0  0  0  0  0  0
  -21.4120  -29.3030   22.3740 N   0  0  0  0  0  0  0  0  0  0  0  0
  -23.4180  -28.8220   23.3040 O   0  0  0  0  0  0  0  0  0  0  0  0
  -20.9280  -29.8750   21.6970 H   0  0  0  0  0  0  0  0  0  0  0  0
  -18.0270  -28.1380   22.8500 C   0  0  0  0  0  0  0  0  0  0  0  0
  -20.5850  -28.3660   23.1330 C   0  0  0  0  0  3  0  0  0  0  0  0
  -20.6760  -26.9400   22.5420 C   0  0  0  0  0  2  0  0  0  0  0  0
  -19.5750  -26.6390   21.5220 C   0  0  0  0  0  2  0  0  0  0  0  0
  -18.1920  -26.7930   22.1620 C   0  0  0  0  0  2  0  0  0  0  0  0
  -19.1520  -28.8840   23.2910 C   0  0  0  0  0  0  0  0  0  0  0  0
  -18.9450  -30.1440   23.8930 C   0  0  0  0  0  3  0  0  0  0  0  0
  -17.6450  -30.6590   24.0570 C   0  0  0  0  0  3  0  0  0  0  0  0
  -16.5340  -29.9100   23.6320 C   0  0  0  0  0  3  0  0  0  0  0  0
  -16.7260  -28.6510   23.0340 C   0  0  0  0  0  3  0  0  0  0  0  0
  -25.9020  -32.4840   23.8400 C   0  0  0  0  0  3  0  0  0  0  0  0
  -26.4460  -31.6600   25.0720 C   0  0  1  0  0  0  0  0  0  0  0  0
  -25.3730  -31.3700   26.1470 C   0  0  0  0  0  1  0  0  0  0  0  0
  -27.0280  -30.3060   24.6060 C   0  0  0  0  0  1  0  0  0  0  0  0
  -27.6050  -32.4310   25.7470 C   0  0  0  0  0  1  0  0  0  0  0  0
  -25.5890  -33.8640   24.2340 N   0  0  0  0  0  0  0  0  0  0  0  0
  -25.9030  -34.9490   23.5140 C   0  0  0  0  0  0  0  0  0  0  0  0
  -26.5590  -34.8930   22.4700 O   0  0  0  0  0  0  0  0  0  0  0  0
  -25.0050  -33.9810   25.0490 H   0  0  0  0  0  0  0  0  0  0  0  0
  -24.1490  -36.7320   23.2640 C   0  0  0  0  0  1  0  0  0  0  0  0
  -25.4110  -36.3130   24.0340 C   0  0  0  0  0  3  0  0  0  0  0  0
  -27.5580  -37.1820   24.8460 C   0  0  0  0  0  1  0  0  0  0  0  0
  -26.4300  -37.3800   23.9410 N   0  0  0  0  0  0  0  0  0  0  0  0
  -26.0200  -38.2890   24.1400 H   0  0  0  0  0  0  0  0  0  0  0  0
  -31.9080  -17.5870   14.7260 C   0  0  0  0  0  2  0  0  0  0  0  0
  -30.5010  -16.9920   14.5370 C   0  0  0  0  0  2  0  0  0  0  0  0
  -29.5190  -17.8920   15.0500 O   0  0  0  0  0  0  0  0  0  0  0  0
  -28.1830  -17.4640   14.8050 C   0  0  0  0  0  2  0  0  0  0  0  0
  -27.2670  -18.0530   15.8840 C   0  0  0  0  0  2  0  0  0  0  0  0
  -27.4340  -17.3300   17.1010 O   0  0  0  0  0  0  0  0  0  0  0  0
  -26.7820  -17.9440   18.2070 C   0  0  0  0  0  2  0  0  0  0  0  0
  -27.7680  -18.8110   19.0140 C   0  0  0  0  0  2  0  0  0  0  0  0
  -29.6580  -17.4040   19.8750 C   0  0  0  0  0  0  0  0  0  0  0  0
  -28.5010  -18.0530   20.0300 N   0  0  0  0  0  0  0  0  0  0  0  0
  -30.2290  -17.2950   18.7900 O   0  0  0  0  0  0  0  0  0  0  0  0
  -28.1100  -18.0620   20.9640 H   0  0  0  0  0  0  0  0  0  0  0  0
  -30.2730  -16.7940   21.1390 C   0  0  0  0  0  2  0  0  0  0  0  0
  -30.7090  -14.4100   20.5800 C   0  0  0  0  0  0  0  0  0  0  0  0
  -30.4270  -12.2680   19.4060 C   0  0  0  0  0  2  0  0  0  0  0  0
  -29.4910  -12.4810   18.1990 C   0  0  0  0  0  2  0  0  0  0  0  0
  -28.0100  -12.3640   18.6150 C   0  0  0  0  0  2  0  0  0  0  0  0
  -27.6680  -13.1950   19.8820 C   0  0  0  0  0  3  0  0  0  0  0  0
  -28.7120  -12.9330   20.9930 C   0  0  0  0  0  2  0  0  0  0  0  0
  -30.0460  -13.2360   20.4400 N   0  0  0  0  0  0  0  0  0  0  0  0
  -31.8180  -14.6360   20.0870 O   0  0  0  0  0  0  0  0  0  0  0  0
  -30.0010  -15.3640   21.1910 N   0  0  0  0  0  0  0  0  0  0  0  0
  -29.0970  -15.0900   21.5410 H   0  0  0  0  0  0  0  0  0  0  0  0
  -25.2620  -13.8100   20.5700 C   0  0  0  0  0  0  0  0  0  0  0  0
  -24.1860  -13.0410   20.9180 C   0  0  0  0  0  0  0  0  0  0  0  0
  -24.6400  -11.6870   20.8740 C   0  0  0  0  0  0  0  0  0  0  0  0
  -26.3060  -12.9270   20.3410 N   0  0  0  0  0  0  0  0  0  0  0  0
  -25.9320  -11.6440   20.5790 N   0  0  0  0  0  0  0  0  0  0  0  0
  -23.9060  -10.4270   21.0430 C   0  0  0  0  0  0  0  0  0  0  0  0
  -24.3600   -9.4190   21.9220 C   0  0  0  0  0  3  0  0  0  0  0  0
  -23.6270   -8.2230   22.0770 C   0  0  0  0  0  3  0  0  0  0  0  0
  -22.4250   -8.0280   21.3560 C   0  0  0  0  0  0  0  0  0  0  0  0
  -21.9890   -9.0260   20.4680 C   0  0  0  0  0  3  0  0  0  0  0  0
  -22.7230  -10.2130   20.3090 C   0  0  0  0  0  3  0  0  0  0  0  0
  -21.6630   -6.8870   21.4240 O   0  0  0  0  0  0  0  0  0  0  0  0
  -21.6850   -6.0730   22.5280 C   0  0  0  0  0  0  0  0  0  0  0  0
  -21.4010   -6.5630   23.8210 C   0  0  0  0  0  3  0  0  0  0  0  0
  -21.3640   -5.6780   24.9180 C   0  0  0  0  0  3  0  0  0  0  0  0
  -21.6040   -4.3050   24.7230 C   0  0  0  0  0  0  0  0  0  0  0  0
  -21.8830   -3.8130   23.4360 C   0  0  0  0  0  3  0  0  0  0  0  0
  -21.9180   -4.6950   22.3410 C   0  0  0  0  0  0  0  0  0  0  0  0
  -22.1640   -4.2130   21.0990 F   0  0  0  0  0  0  0  0  0  0  0  0
  -21.5640   -3.4530   25.7750 F   0  0  0  0  0  0  0  0  0  0  0  0
  -22.7870  -13.5230   21.1830 C   0  0  0  0  0  0  0  0  0  0  0  0
  -22.0500  -12.8260   22.0390 N   0  0  0  0  0  0  0  0  0  0  0  0
  -22.3570  -14.5540   20.6660 O   0  0  0  0  0  0  0  0  0  0  0  0
  -22.4050  -11.9880   22.4760 H   0  0  0  0  0  0  0  0  0  0  0  0
  -21.1150  -13.1350   22.2650 H   0  0  0  0  0  0  0  0  0  0  0  0
  -25.4350  -15.1810   20.4150 N   0  0  0  0  0  0  0  0  0  0  0  0
  -24.6660  -15.8320   20.5250 H   0  0  0  0  0  0  0  0  0  0  0  0
  -26.2850  -15.6100   20.0740 H   0  0  0  0  0  0  0  0  0  0  0  0
  1  4  1  0
  2  1  2  0
  2  6  1  0
  3  7  1  0
  3  1  1  0
  4  9  1  0
  4  8  1  0
  5  2  1  0
  9 10  1  0
 11 10  1  0
 11 12  1  0
 13 17  1  0
 13 14  1  0
 14 12  1  0
 14 16  1  0
 15 13  2  0
 17 18  1  0
 18 20  1  0
 19 30  2  0
 20 25  1  0
 21 29  1  0
 21 31  1  0
 22 28  1  0
 22 24  1  0
 23 29  1  0
 24 23  1  0
 25 24  2  0
 26 27  1  0
 26 20  2  0
 27 22  2  0
 28 21  1  0
 29 19  1  0
 31 33  2  0
 32 31  1  0
 34 32  1  0
 35 44  2  0
 35 40  1  0
 36 32  1  0
 36 40  1  0
 37 36  1  0
 38 39  1  0
 38 37  1  0
 39 35  1  0
 40 41  2  0
 41 42  1  0
 43 42  2  0
 44 43  1  0
 45 19  1  0
 45 50  1  0
 45 46  1  0
 46 49  1  1
 46 47  1  0
 48 46  1  0
 50 53  1  0
 51 55  1  0
 51 50  1  0
 52 51  2  0
 55 54  1  0
 57 55  1  0
 57 58  1  0
 57 56  1  0
 59  3  1  0
 60 59  1  0
 60 61  1  0
 62 61  1  0
 62 63  1  0
 63 64  1  0
 64 65  1  0
 65 66  1  0
 66 68  1  0
 67 68  1  0
 67 71  1  0
 68 70  1  0
 69 67  2  0
 71 80  1  0
 72 80  1  0
 73 78  1  0
 74 75  1  0
 74 73  1  0
 76 75  1  0
 76 85  1  0
 76 77  1  0
 78 72  1  0
 78 77  1  0
 79 72  2  0
 80 81  1  0
 82 83  2  0
 83102  1  0
 84 83  1  0
 84 87  1  0
 85 82  1  0
 85 86  1  0
 86 84  2  0
 87 88  1  0
 88 89  2  0
 90 93  1  0
 90 89  1  0
 91 90  2  0
 92 91  1  0
 92 87  2  0
 93 94  1  0
 94 95  1  0
 95 96  2  0
 97 96  1  0
 97101  1  0
 98 97  2  0
 99 94  2  0
 99 98  1  0
100 99  1  0
102103  1  0
103106  1  0
103105  1  0
104102  2  0
107108  1  0
107 82  1  0
109107  1  0
M  ISO  4  17 101  18 101  72 100  80 100
M  END
>  <TORSDO>  (61) 
F 32

>  <SCORE>  (61) 
-4.699

>  <name>  (61) 
66

>  <ligand_id>  (61) 
66

>  <original_smiles>  (61) 
[H]c1c([H])c([H])c2c(c1[H])C([H])([H])C([H])([H])C([H])([H])C2([H])N([H])C(=O)C1([H])N(C(=O)C([H])(N([H])C(=O)C([H])(N([H])C([H])([H])[H])C([H])([H])[H])C(C([H])([H])[H])(C([H])([H])[H])C([H])([H])[H])C([H])([H])c2c([H])c(OC([H])([H])C(=O)N([H])C([H])([H])C([H])([H])C([H])([H])C([H])([H])[N+]([H])=C(N([H])[H])N([H])C([H])([H])C([H])([H])OC([H])([H])C([H])([H])OC([H])([H])C([H])([H])N([H])C(=O)C([H])([H])N([H])C(=O)N3C([H])([H])C([H])([H])C([H])([H])C([H])(n4nc(-c5c([H])c([H])c(Oc6c([H])c([H])c(F)c([H])c6F)c([H])c5[H])c(C(=O)N([H])[H])c4N([H])[H])C3([H])[H])c([H])c([H])c2C1([H])[H]

>  <smiles>  (61) 
[H]c1c([H])c([H])c2c(c1[H])C([H])([H])C([H])([H])C([H])([H])C2([H])N([H])C(=O)C1([H])N(C(=O)C([H])(N([H])C(=O)C([H])(N([H])C([H])([H])[H])C([H])([H])[H])C(C([H])([H])[H])(C([H])([H])[H])C([H])([H])[H])C([H])([H])c2c([H])c(OC([H])([H])C(=O)N([H])C([H])([H])C([H])([H])C([H])([H])C([H])([H])[N+]([H])=C(N([H])[H])N([H])C([H])([H])C([H])([H])OC([H])([H])C([H])([H])OC([H])([H])C([H])([H])N([H])C(=O)C([H])([H])N([H])C(=O)N3C([H])([H])C([H])([H])C([H])([H])C([H])(n4nc(-c5c([H])c([H])c(Oc6c([H])c([H])c(F)c([H])c6F)c([H])c5[H])c(C(=O)N([H])[H])c4N([H])[H])C3([H])[H])c([H])c([H])c2C1([H])[H]

$$$$
67:0:0
     RDKit          3D

 95102  0  0  1  0  0  0  0  0999 V2000
  -25.0110  -22.6540   19.7720 C   0  0  0  0  0  2  0  0  0  0  0  0
  -25.8240  -21.7420   19.0580 O   0  0  0  0  0  0  0  0  0  0  0  0
  -25.1540  -21.1310   17.9630 C   0  0  0  0  0  2  0  0  0  0  0  0
  -26.1580  -20.1390   17.3800 C   0  0  0  0  0  2  0  0  0  0  0  0
  -26.3370  -19.1430   18.3780 O   0  0  0  0  0  0  0  0  0  0  0  0
  -27.6230  -18.5470   18.4090 C   0  0  0  0  0  2  0  0  0  0  0  0
  -28.0180  -18.3960   19.8810 C   0  0  0  0  0  2  0  0  0  0  0  0
  -29.1560  -17.5560   19.9910 O   0  0  0  0  0  0  0  0  0  0  0  0
  -29.7710  -17.6370   21.2710 C   0  0  0  0  0  2  0  0  0  0  0  0
  -31.0050  -16.7320   21.2630 C   0  0  0  0  0  2  0  0  0  0  0  0
  -31.1720  -14.3870   20.4510 C   0  0  0  0  0  0  0  0  0  0  0  0
  -30.7480  -12.2760   19.2570 C   0  0  0  0  0  2  0  0  0  0  0  0
  -29.8290  -12.5710   18.0580 C   0  0  0  0  0  2  0  0  0  0  0  0
  -28.3460  -12.5210   18.4790 C   0  0  0  0  0  2  0  0  0  0  0  0
  -28.0550  -13.3370   19.7690 C   0  0  0  0  0  3  0  0  0  0  0  0
  -29.0970  -13.0200   20.8690 C   0  0  0  0  0  2  0  0  0  0  0  0
  -30.4390  -13.2530   20.3070 N   0  0  0  0  0  0  0  0  0  0  0  0
  -32.2510  -14.5820   19.8880 O   0  0  0  0  0  0  0  0  0  0  0  0
  -30.5860  -15.3370   21.1830 N   0  0  0  0  0  0  0  0  0  0  0  0
  -29.6880  -15.1060   21.5810 H   0  0  0  0  0  0  0  0  0  0  0  0
  -25.6920  -14.0590   20.4970 C   0  0  0  0  0  0  0  0  0  0  0  0
  -24.5860  -13.3420   20.8600 C   0  0  0  0  0  0  0  0  0  0  0  0
  -24.9700  -11.9690   20.7940 C   0  0  0  0  0  0  0  0  0  0  0  0
  -26.6890  -13.1280   20.2420 N   0  0  0  0  0  0  0  0  0  0  0  0
  -26.2540  -11.8650   20.4770 N   0  0  0  0  0  0  0  0  0  0  0  0
  -24.1780  -10.7470   20.9660 C   0  0  0  0  0  0  0  0  0  0  0  0
  -24.5410   -9.7650   21.9150 C   0  0  0  0  0  3  0  0  0  0  0  0
  -23.7560   -8.6040   22.0790 C   0  0  0  0  0  3  0  0  0  0  0  0
  -22.5930   -8.4160   21.2930 C   0  0  0  0  0  0  0  0  0  0  0  0
  -22.2480   -9.3870   20.3360 C   0  0  0  0  0  3  0  0  0  0  0  0
  -23.0320  -10.5410   20.1730 C   0  0  0  0  0  3  0  0  0  0  0  0
  -21.7880   -7.3050   21.3620 O   0  0  0  0  0  0  0  0  0  0  0  0
  -21.6200   -6.6060   22.5310 C   0  0  0  0  0  0  0  0  0  0  0  0
  -21.1200   -7.2230   23.6980 C   0  0  0  0  0  3  0  0  0  0  0  0
  -20.8990   -6.4550   24.8600 C   0  0  0  0  0  3  0  0  0  0  0  0
  -21.1640   -5.0720   24.8510 C   0  0  0  0  0  0  0  0  0  0  0  0
  -21.6520   -4.4550   23.6850 C   0  0  0  0  0  3  0  0  0  0  0  0
  -21.8760   -5.2220   22.5260 C   0  0  0  0  0  0  0  0  0  0  0  0
  -22.3300   -4.6190   21.4010 F   0  0  0  0  0  0  0  0  0  0  0  0
  -20.9410   -4.3320   25.9620 F   0  0  0  0  0  0  0  0  0  0  0  0
  -23.2220  -13.8910   21.1580 C   0  0  0  0  0  0  0  0  0  0  0  0
  -22.4770  -13.2300   22.0360 N   0  0  0  0  0  0  0  0  0  0  0  0
  -22.8320  -14.9400   20.6490 O   0  0  0  0  0  0  0  0  0  0  0  0
  -22.8070  -12.3800   22.4700 H   0  0  0  0  0  0  0  0  0  0  0  0
  -21.5600  -13.5810   22.2760 H   0  0  0  0  0  0  0  0  0  0  0  0
  -25.9290  -15.4200   20.3470 N   0  0  0  0  0  0  0  0  0  0  0  0
  -25.1970  -16.1130   20.4710 H   0  0  0  0  0  0  0  0  0  0  0  0
  -26.8200  -15.8170   20.0830 H   0  0  0  0  0  0  0  0  0  0  0  0
  -25.9230  -23.3330   20.8000 C   0  0  0  0  0  2  0  0  0  0  0  0
  -27.1880  -23.7630   20.1650 N   0  0  0  0  0  4  0  0  0  0  0  0
  -27.6810  -22.9550   19.8070 H   0  0  0  0  0  0  0  0  0  0  0  0
  -26.9510  -24.3280   19.3660 H   0  0  0  0  0  0  0  0  0  0  0  0
  -28.0900  -24.5510   21.0360 C   0  0  0  0  0  2  0  0  0  0  0  0
  -28.9090  -25.5680   20.2140 C   0  0  0  0  0  2  0  0  0  0  0  0
  -28.7450  -26.9080   20.6810 O   0  0  0  0  0  0  0  0  0  0  0  0
  -24.7000  -32.0350   23.4290 C   0  0  0  0  0  0  0  0  0  0  0  0
  -27.5330  -27.5600   20.5780 C   0  0  0  0  0  0  0  0  0  0  0  0
  -23.5840  -30.5970   21.7510 C   0  0  0  0  0  3  0  0  0  0  0  0
  -25.1170  -29.0320   20.4420 C   0  0  0  0  0  0  0  0  0  0  0  0
  -26.1120  -30.9610   21.6830 C   0  0  0  0  0  2  0  0  0  0  0  0
  -26.2330  -29.5760   21.0860 C   0  0  0  0  0  0  0  0  0  0  0  0
  -27.4380  -28.8460   21.1560 C   0  0  0  0  0  3  0  0  0  0  0  0
  -26.3990  -27.0280   19.9190 C   0  0  0  0  0  3  0  0  0  0  0  0
  -25.1960  -27.7560   19.8540 C   0  0  0  0  0  3  0  0  0  0  0  0
  -23.8640  -29.8750   20.4020 C   0  0  0  0  0  2  0  0  0  0  0  0
  -24.8140  -31.2150   22.3460 N   0  0  0  0  0  0  0  0  0  0  0  0
  -23.5890  -32.3140   23.9030 O   0  0  0  0  0  0  0  0  0  0  0  0
  -22.8770  -29.6020   22.6950 C   0  0  0  0  0  0  0  0  0  0  0  0
  -21.5630  -29.4090   22.4910 N   0  0  0  0  0  0  0  0  0  0  0  0
  -23.5120  -28.9960   23.5620 O   0  0  0  0  0  0  0  0  0  0  0  0
  -21.1140  -29.9450   21.7620 H   0  0  0  0  0  0  0  0  0  0  0  0
  -18.1670  -28.2270   22.8300 C   0  0  0  0  0  0  0  0  0  0  0  0
  -20.7090  -28.4810   23.2300 C   0  0  0  0  0  3  0  0  0  0  0  0
  -20.8310  -27.0400   22.6780 C   0  0  0  0  0  2  0  0  0  0  0  0
  -19.7820  -26.7080   21.6120 C   0  0  0  0  0  2  0  0  0  0  0  0
  -18.3700  -26.8690   22.1820 C   0  0  0  0  0  2  0  0  0  0  0  0
  -19.2650  -28.9900   23.3100 C   0  0  0  0  0  0  0  0  0  0  0  0
  -19.0230  -30.2640   23.8680 C   0  0  0  0  0  3  0  0  0  0  0  0
  -17.7130  -30.7730   23.9560 C   0  0  0  0  0  3  0  0  0  0  0  0
  -16.6290  -30.0060   23.4970 C   0  0  0  0  0  3  0  0  0  0  0  0
  -16.8550  -28.7360   22.9380 C   0  0  0  0  0  3  0  0  0  0  0  0
  -25.9510  -32.6740   24.1090 C   0  0  0  0  0  3  0  0  0  0  0  0
  -26.3670  -31.9590   25.4530 C   0  0  1  0  0  0  0  0  0  0  0  0
  -25.1920  -31.7640   26.4390 C   0  0  0  0  0  1  0  0  0  0  0  0
  -26.9780  -30.5680   25.1650 C   0  0  0  0  0  1  0  0  0  0  0  0
  -27.4630  -32.7850   26.1680 C   0  0  0  0  0  1  0  0  0  0  0  0
  -25.6510  -34.0900   24.3430 N   0  0  0  0  0  0  0  0  0  0  0  0
  -26.0380  -35.0920   23.5410 C   0  0  0  0  0  0  0  0  0  0  0  0
  -26.7560  -34.9200   22.5530 O   0  0  0  0  0  0  0  0  0  0  0  0
  -25.0190  -34.2990   25.1030 H   0  0  0  0  0  0  0  0  0  0  0  0
  -24.3460  -36.8750   23.0080 C   0  0  0  0  0  1  0  0  0  0  0  0
  -25.5510  -36.5110   23.8900 C   0  0  0  0  0  3  0  0  0  0  0  0
  -27.6590  -37.4260   24.7500 C   0  0  0  0  0  1  0  0  0  0  0  0
  -26.6000  -37.5440   23.7530 N   0  0  0  0  0  0  0  0  0  0  0  0
  -26.1990  -38.4750   23.8260 H   0  0  0  0  0  0  0  0  0  0  0  0
  1 49  1  0
  2  1  1  0
  3  2  1  0
  4  3  1  0
  4  5  1  0
  5  6  1  0
  6  7  1  0
  7  8  1  0
  8  9  1  0
 10  9  1  0
 11 19  1  0
 12 17  1  0
 13 14  1  0
 13 12  1  0
 15 14  1  0
 15 24  1  0
 15 16  1  0
 17 11  1  0
 17 16  1  0
 18 11  2  0
 19 10  1  0
 19 20  1  0
 21 22  2  0
 22 41  1  0
 23 22  1  0
 23 26  1  0
 24 25  1  0
 24 21  1  0
 25 23  2  0
 26 27  1  0
 27 28  2  0
 29 32  1  0
 29 28  1  0
 30 29  2  0
 31 30  1  0
 31 26  2  0
 32 33  1  0
 33 34  1  0
 34 35  2  0
 36 35  1  0
 36 40  1  0
 37 36  2  0
 38 33  2  0
 38 37  1  0
 39 38  1  0
 41 42  1  0
 42 45  1  0
 42 44  1  0
 43 41  2  0
 46 47  1  0
 46 21  1  0
 48 46  1  0
 50 49  1  0
 50 53  1  0
 51 50  1  0
 52 50  1  0
 54 55  1  0
 54 53  1  0
 56 67  2  0
 57 55  1  0
 57 62  1  0
 58 66  1  0
 58 68  1  0
 59 61  1  0
 60 66  1  0
 61 62  2  0
 61 60  1  0
 63 57  2  0
 64 63  1  0
 64 59  2  0
 65 59  1  0
 65 58  1  0
 66 56  1  0
 68 70  2  0
 69 68  1  0
 71 69  1  0
 72 81  2  0
 72 77  1  0
 73 69  1  0
 73 77  1  0
 74 73  1  0
 75 76  1  0
 75 74  1  0
 76 72  1  0
 77 78  2  0
 78 79  1  0
 80 79  2  0
 81 80  1  0
 82 56  1  0
 82 87  1  0
 82 83  1  0
 83 86  1  1
 83 84  1  0
 85 83  1  0
 87 90  1  0
 88 92  1  0
 88 87  1  0
 89 88  2  0
 92 91  1  0
 94 95  1  0
 94 92  1  0
 94 93  1  0
M  ISO  4  11 100  19 100  54 101  55 101
M  END
>  <TORSDO>  (62) 
F 29

>  <SCORE>  (62) 
-10.282

>  <name>  (62) 
67

>  <ligand_id>  (62) 
67

>  <original_smiles>  (62) 
[H]c1c([H])c([H])c2c(c1[H])C([H])([H])C([H])([H])C([H])([H])C2([H])N([H])C(=O)C1([H])N(C(=O)C([H])(N([H])C(=O)C([H])(N([H])C([H])([H])[H])C([H])([H])[H])C(C([H])([H])[H])(C([H])([H])[H])C([H])([H])[H])C([H])([H])c2c([H])c(OC([H])([H])C([H])([H])[N+]([H])([H])C([H])([H])C([H])([H])OC([H])([H])C([H])([H])OC([H])([H])C([H])([H])OC([H])([H])C([H])([H])N([H])C(=O)N3C([H])([H])C([H])([H])C([H])([H])C([H])(n4nc(-c5c([H])c([H])c(Oc6c([H])c([H])c(F)c([H])c6F)c([H])c5[H])c(C(=O)N([H])[H])c4N([H])[H])C3([H])[H])c([H])c([H])c2C1([H])[H]

>  <smiles>  (62) 
[H]c1c([H])c([H])c2c(c1[H])C([H])([H])C([H])([H])C([H])([H])C2([H])N([H])C(=O)C1([H])N(C(=O)C([H])(N([H])C(=O)C([H])(N([H])C([H])([H])[H])C([H])([H])[H])C(C([H])([H])[H])(C([H])([H])[H])C([H])([H])[H])C([H])([H])c2c([H])c(OC([H])([H])C([H])([H])[N+]([H])([H])C([H])([H])C([H])([H])OC([H])([H])C([H])([H])OC([H])([H])C([H])([H])OC([H])([H])C([H])([H])N([H])C(=O)N3C([H])([H])C([H])([H])C([H])([H])C([H])(n4nc(-c5c([H])c([H])c(Oc6c([H])c([H])c(F)c([H])c6F)c([H])c5[H])c(C(=O)N([H])[H])c4N([H])[H])C3([H])[H])c([H])c([H])c2C1([H])[H]

$$$$
68:0:0
     RDKit          3D

103110  0  0  1  0  0  0  0  0999 V2000
  -23.7080  -23.0260   18.9270 C   0  0  0  0  0  0  0  0  0  0  0  0
  -24.3100  -21.8630   18.6560 N   0  0  0  0  0  0  0  0  0  0  0  0
  -23.2820  -23.7830   18.0520 O   0  0  0  0  0  0  0  0  0  0  0  0
  -24.6540  -21.3320   19.4430 H   0  0  0  0  0  0  0  0  0  0  0  0
  -24.5920  -21.3070   17.3370 C   0  0  0  0  0  2  0  0  0  0  0  0
  -26.0170  -20.7280   17.3220 C   0  0  0  0  0  2  0  0  0  0  0  0
  -26.1960  -20.0290   18.5520 O   0  0  0  0  0  0  0  0  0  0  0  0
  -27.5350  -19.6900   18.9130 C   0  0  0  0  0  2  0  0  0  0  0  0
  -28.4170  -20.9420   19.0710 C   0  0  0  0  0  2  0  0  0  0  0  0
  -29.2020  -21.1340   17.8990 O   0  0  0  0  0  0  0  0  0  0  0  0
  -30.1330  -22.2020   18.0210 C   0  0  0  0  0  2  0  0  0  0  0  0
  -30.9070  -22.4070   16.7040 C   0  0  0  0  0  2  0  0  0  0  0  0
  -31.9720  -21.4620   16.5570 O   0  0  0  0  0  0  0  0  0  0  0  0
  -32.9720  -21.9120   15.6420 C   0  0  0  0  0  2  0  0  0  0  0  0
  -34.0750  -20.8580   15.4260 C   0  0  0  0  0  2  0  0  0  0  0  0
  -34.3570  -18.9330   13.8950 C   0  0  0  0  0  0  0  0  0  0  0  0
  -34.1600  -16.5330   13.4130 C   0  0  0  0  0  2  0  0  0  0  0  0
  -32.6610  -16.1710   13.3540 C   0  0  0  0  0  2  0  0  0  0  0  0
  -32.1160  -15.8600   14.7620 C   0  0  0  0  0  2  0  0  0  0  0  0
  -32.5050  -16.9400   15.8100 C   0  0  0  0  0  3  0  0  0  0  0  0
  -34.0140  -17.2710   15.7330 C   0  0  0  0  0  2  0  0  0  0  0  0
  -34.3080  -17.6570   14.3450 N   0  0  0  0  0  0  0  0  0  0  0  0
  -34.7300  -19.2500   12.7640 O   0  0  0  0  0  0  0  0  0  0  0  0
  -33.5780  -19.7660   14.5980 N   0  0  0  0  0  0  0  0  0  0  0  0
  -32.7610  -20.0500   14.0820 H   0  0  0  0  0  0  0  0  0  0  0  0
  -31.4490  -17.3080   18.1200 C   0  0  0  0  0  0  0  0  0  0  0  0
  -31.2340  -16.4610   19.1750 C   0  0  0  0  0  0  0  0  0  0  0  0
  -31.7890  -15.2050   18.7850 C   0  0  0  0  0  0  0  0  0  0  0  0
  -32.1020  -16.5560   17.1570 N   0  0  0  0  0  0  0  0  0  0  0  0
  -32.3560  -15.2960   17.5870 N   0  0  0  0  0  0  0  0  0  0  0  0
  -31.7630  -13.9020   19.4570 C   0  0  0  0  0  0  0  0  0  0  0  0
  -32.9520  -13.1840   19.7040 C   0  0  0  0  0  3  0  0  0  0  0  0
  -32.9100  -11.9380   20.3620 C   0  0  0  0  0  3  0  0  0  0  0  0
  -31.6690  -11.4000   20.7800 C   0  0  0  0  0  0  0  0  0  0  0  0
  -30.4840  -12.1110   20.5160 C   0  0  0  0  0  3  0  0  0  0  0  0
  -30.5300  -13.3500   19.8570 C   0  0  0  0  0  3  0  0  0  0  0  0
  -31.5280  -10.1830   21.4030 O   0  0  0  0  0  0  0  0  0  0  0  0
  -32.5440   -9.6380   22.1480 C   0  0  0  0  0  0  0  0  0  0  0  0
  -33.0930  -10.3020   23.2660 C   0  0  0  0  0  3  0  0  0  0  0  0
  -34.0890   -9.6720   24.0410 C   0  0  0  0  0  3  0  0  0  0  0  0
  -34.5280   -8.3760   23.7070 C   0  0  0  0  0  0  0  0  0  0  0  0
  -33.9750   -7.7070   22.6010 C   0  0  0  0  0  3  0  0  0  0  0  0
  -32.9860   -8.3360   21.8220 C   0  0  0  0  0  0  0  0  0  0  0  0
  -32.4420   -7.6820   20.7680 F   0  0  0  0  0  0  0  0  0  0  0  0
  -35.4800   -7.7690   24.4540 F   0  0  0  0  0  0  0  0  0  0  0  0
  -30.4780  -16.7730   20.4360 C   0  0  0  0  0  0  0  0  0  0  0  0
  -30.9030  -16.2240   21.5700 N   0  0  0  0  0  0  0  0  0  0  0  0
  -29.5220  -17.5440   20.4310 O   0  0  0  0  0  0  0  0  0  0  0  0
  -31.6910  -15.5950   21.5900 H   0  0  0  0  0  0  0  0  0  0  0  0
  -30.4180  -16.4350   22.4300 H   0  0  0  0  0  0  0  0  0  0  0  0
  -31.1430  -18.6360   17.8790 N   0  0  0  0  0  0  0  0  0  0  0  0
  -30.5950  -19.2250   18.4960 H   0  0  0  0  0  0  0  0  0  0  0  0
  -31.4670  -19.1520   17.0680 H   0  0  0  0  0  0  0  0  0  0  0  0
  -23.5610  -23.3880   20.4130 C   0  0  0  0  0  2  0  0  0  0  0  0
  -25.8780  -23.6780   21.1940 C   0  0  0  0  0  0  0  0  0  0  0  0
  -24.6830  -24.1980   20.8840 N   0  0  0  0  0  0  0  0  0  0  0  0
  -26.1120  -22.4700   21.0980 O   0  0  0  0  0  0  0  0  0  0  0  0
  -24.5500  -25.2000   20.9450 H   0  0  0  0  0  0  0  0  0  0  0  0
  -26.9920  -24.6190   21.6480 C   0  0  0  0  0  2  0  0  0  0  0  0
  -28.0420  -24.5300   20.6940 O   0  0  0  0  0  0  0  0  0  0  0  0
  -29.3170  -24.8900   21.2070 C   0  0  0  0  0  2  0  0  0  0  0  0
  -29.4060  -26.3780   21.5800 C   0  0  0  0  0  2  0  0  0  0  0  0
  -29.0030  -27.1470   20.4610 O   0  0  0  0  0  0  0  0  0  0  0  0
  -24.7720  -32.0130   23.5150 C   0  0  0  0  0  0  0  0  0  0  0  0
  -27.7750  -27.7480   20.5480 C   0  0  0  0  0  0  0  0  0  0  0  0
  -23.7150  -30.5840   21.7930 C   0  0  0  0  0  3  0  0  0  0  0  0
  -25.3060  -29.1030   20.4670 C   0  0  0  0  0  0  0  0  0  0  0  0
  -26.2280  -31.0450   21.7510 C   0  0  0  0  0  2  0  0  0  0  0  0
  -26.4020  -29.6820   21.1190 C   0  0  0  0  0  0  0  0  0  0  0  0
  -27.6380  -29.0060   21.1660 C   0  0  0  0  0  3  0  0  0  0  0  0
  -26.6620  -27.1620   19.9130 C   0  0  0  0  0  3  0  0  0  0  0  0
  -25.4220  -27.8290   19.8800 C   0  0  0  0  0  3  0  0  0  0  0  0
  -24.0350  -29.9190   20.4300 C   0  0  0  0  0  2  0  0  0  0  0  0
  -24.9170  -31.2310   22.4110 N   0  0  0  0  0  0  0  0  0  0  0  0
  -23.6530  -32.2430   23.9950 O   0  0  0  0  0  0  0  0  0  0  0  0
  -23.0470  -29.5320   22.7070 C   0  0  0  0  0  0  0  0  0  0  0  0
  -21.7330  -29.3270   22.5190 N   0  0  0  0  0  0  0  0  0  0  0  0
  -23.7080  -28.9010   23.5360 O   0  0  0  0  0  0  0  0  0  0  0  0
  -21.2570  -29.8910   21.8280 H   0  0  0  0  0  0  0  0  0  0  0  0
  -18.3530  -28.1180   22.9060 C   0  0  0  0  0  0  0  0  0  0  0  0
  -20.9050  -28.3600   23.2350 C   0  0  0  0  0  3  0  0  0  0  0  0
  -21.0180  -26.9530   22.6010 C   0  0  0  0  0  2  0  0  0  0  0  0
  -19.9340  -26.6730   21.5550 C   0  0  0  0  0  2  0  0  0  0  0  0
  -18.5410  -26.7960   22.1780 C   0  0  0  0  0  2  0  0  0  0  0  0
  -19.4640  -28.8600   23.3880 C   0  0  0  0  0  0  0  0  0  0  0  0
  -19.2360  -30.0980   24.0270 C   0  0  0  0  0  3  0  0  0  0  0  0
  -17.9300  -30.5970   24.1850 C   0  0  0  0  0  3  0  0  0  0  0  0
  -16.8330  -29.8520   23.7170 C   0  0  0  0  0  3  0  0  0  0  0  0
  -17.0450  -28.6140   23.0850 C   0  0  0  0  0  3  0  0  0  0  0  0
  -26.0000  -32.6790   24.2150 C   0  0  0  0  0  3  0  0  0  0  0  0
  -26.4430  -31.9360   25.5340 C   0  0  1  0  0  0  0  0  0  0  0  0
  -25.2710  -31.6180   26.4890 C   0  0  0  0  0  1  0  0  0  0  0  0
  -27.1590  -30.6050   25.2030 C   0  0  0  0  0  1  0  0  0  0  0  0
  -27.4670  -32.8030   26.3050 C   0  0  0  0  0  1  0  0  0  0  0  0
  -25.6430  -34.0760   24.4940 N   0  0  0  0  0  0  0  0  0  0  0  0
  -25.9830  -35.1150   23.7210 C   0  0  0  0  0  0  0  0  0  0  0  0
  -26.7010  -35.0030   22.7230 O   0  0  0  0  0  0  0  0  0  0  0  0
  -25.0090  -34.2350   25.2640 H   0  0  0  0  0  0  0  0  0  0  0  0
  -24.2080  -36.8360   23.2610 C   0  0  0  0  0  1  0  0  0  0  0  0
  -25.4380  -36.5000   24.1190 C   0  0  0  0  0  3  0  0  0  0  0  0
  -27.5170  -37.4840   24.9790 C   0  0  0  0  0  1  0  0  0  0  0  0
  -26.4390  -37.5820   23.9970 N   0  0  0  0  0  0  0  0  0  0  0  0
  -25.9980  -38.4930   24.0970 H   0  0  0  0  0  0  0  0  0  0  0  0
  1 54  1  0
  2  1  1  0
  2  4  1  0
  3  1  2  0
  5  2  1  0
  6  5  1  0
  6  7  1  0
  7  8  1  0
  8  9  1  0
 10 11  1  0
 10  9  1  0
 12 11  1  0
 13 12  1  0
 14 13  1  0
 15 14  1  0
 16 22  1  0
 16 24  1  0
 17 22  1  0
 18 17  1  0
 18 19  1  0
 20 19  1  0
 20 29  1  0
 21 20  1  0
 22 21  1  0
 23 16  2  0
 24 15  1  0
 25 24  1  0
 26 27  2  0
 27 46  1  0
 28 27  1  0
 28 31  1  0
 29 30  1  0
 29 26  1  0
 30 28  2  0
 31 32  2  0
 31 36  1  0
 32 33  1  0
 33 34  2  0
 34 37  1  0
 35 34  1  0
 36 35  2  0
 37 38  1  0
 38 39  1  0
 39 40  2  0
 41 40  1  0
 41 45  1  0
 42 41  2  0
 43 38  2  0
 43 42  1  0
 44 43  1  0
 46 47  1  0
 47 49  1  0
 47 50  1  0
 48 46  2  0
 51 26  1  0
 51 52  1  0
 53 51  1  0
 54 56  1  0
 55 59  1  0
 56 58  1  0
 56 55  1  0
 57 55  2  0
 60 61  1  0
 60 59  1  0
 61 62  1  0
 63 65  1  0
 63 62  1  0
 64 75  2  0
 65 70  1  0
 66 74  1  0
 66 76  1  0
 67 69  1  0
 68 74  1  0
 69 70  2  0
 69 68  1  0
 71 65  2  0
 72 71  1  0
 72 67  2  0
 73 67  1  0
 73 66  1  0
 74 64  1  0
 76 78  2  0
 77 76  1  0
 79 77  1  0
 80 89  2  0
 80 85  1  0
 81 77  1  0
 81 85  1  0
 82 81  1  0
 83 84  1  0
 83 82  1  0
 84 80  1  0
 85 86  2  0
 86 87  1  0
 88 87  2  0
 89 88  1  0
 90 64  1  0
 90 95  1  0
 90 91  1  0
 91 94  1  1
 91 92  1  0
 93 91  1  0
 95 98  1  0
 96100  1  0
 96 95  1  0
 97 96  2  0
100 99  1  0
102103  1  0
102100  1  0
102101  1  0
M  ISO  4  16 100  24 100  62 101  63 101
M  END
>  <TORSDO>  (63) 
F 33

>  <SCORE>  (63) 
-7.032

>  <name>  (63) 
68

>  <ligand_id>  (63) 
68

>  <original_smiles>  (63) 
[H]c1c([H])c([H])c2c(c1[H])C([H])([H])C([H])([H])C([H])([H])C2([H])N([H])C(=O)C1([H])N(C(=O)C([H])(N([H])C(=O)C([H])(N([H])C([H])([H])[H])C([H])([H])[H])C(C([H])([H])[H])(C([H])([H])[H])C([H])([H])[H])C([H])([H])c2c([H])c(OC([H])([H])C([H])([H])OC([H])([H])C(=O)N([H])C([H])([H])C(=O)N([H])C([H])([H])C([H])([H])OC([H])([H])C([H])([H])OC([H])([H])C([H])([H])OC([H])([H])C([H])([H])N([H])C(=O)N3C([H])([H])C([H])([H])C([H])([H])C([H])(n4nc(-c5c([H])c([H])c(Oc6c([H])c([H])c(F)c([H])c6F)c([H])c5[H])c(C(=O)N([H])[H])c4N([H])[H])C3([H])[H])c([H])c([H])c2C1([H])[H]

>  <smiles>  (63) 
[H]c1c([H])c([H])c2c(c1[H])C([H])([H])C([H])([H])C([H])([H])C2([H])N([H])C(=O)C1([H])N(C(=O)C([H])(N([H])C(=O)C([H])(N([H])C([H])([H])[H])C([H])([H])[H])C(C([H])([H])[H])(C([H])([H])[H])C([H])([H])[H])C([H])([H])c2c([H])c(OC([H])([H])C([H])([H])OC([H])([H])C(=O)N([H])C([H])([H])C(=O)N([H])C([H])([H])C([H])([H])OC([H])([H])C([H])([H])OC([H])([H])C([H])([H])OC([H])([H])C([H])([H])N([H])C(=O)N3C([H])([H])C([H])([H])C([H])([H])C([H])(n4nc(-c5c([H])c([H])c(Oc6c([H])c([H])c(F)c([H])c6F)c([H])c5[H])c(C(=O)N([H])[H])c4N([H])[H])C3([H])[H])c([H])c([H])c2C1([H])[H]

$$$$
69:0:0
     RDKit          3D

 87 94  0  0  1  0  0  0  0  0999 V2000
  -29.1130  -22.7980   20.1480 O   0  0  0  0  0  0  0  0  0  0  0  0
  -29.2650  -24.1800   20.5710 C   0  0  0  0  0  2  0  0  0  0  0  0
  -28.1950  -25.1410   19.9510 C   0  0  0  0  0  2  0  0  0  0  0  0
  -28.3440  -26.5690   20.2300 O   0  0  0  0  0  0  0  0  0  0  0  0
  -24.6030  -31.8820   23.2540 C   0  0  0  0  0  0  0  0  0  0  0  0
  -27.2030  -27.3700   20.1730 C   0  0  0  0  0  0  0  0  0  0  0  0
  -23.3880  -30.4910   21.6140 C   0  0  0  0  0  3  0  0  0  0  0  0
  -24.8290  -28.9470   20.1790 C   0  0  0  0  0  0  0  0  0  0  0  0
  -25.9230  -30.8160   21.4190 C   0  0  0  0  0  2  0  0  0  0  0  0
  -25.9960  -29.4430   20.7740 C   0  0  0  0  0  0  0  0  0  0  0  0
  -27.1840  -28.6630   20.7670 C   0  0  0  0  0  3  0  0  0  0  0  0
  -26.0140  -26.9200   19.5460 C   0  0  0  0  0  3  0  0  0  0  0  0
  -24.8370  -27.6890   19.5590 C   0  0  0  0  0  3  0  0  0  0  0  0
  -23.5920  -29.8180   20.2320 C   0  0  0  0  0  2  0  0  0  0  0  0
  -24.6560  -31.0790   22.1530 N   0  0  0  0  0  0  0  0  0  0  0  0
  -23.5240  -32.1610   23.7950 O   0  0  0  0  0  0  0  0  0  0  0  0
  -22.7290  -29.4710   22.5730 C   0  0  0  0  0  0  0  0  0  0  0  0
  -21.4040  -29.2960   22.4460 N   0  0  0  0  0  0  0  0  0  0  0  0
  -23.4090  -28.8420   23.3890 O   0  0  0  0  0  0  0  0  0  0  0  0
  -20.9160  -29.8550   21.7610 H   0  0  0  0  0  0  0  0  0  0  0  0
  -18.0240  -28.1080   22.9390 C   0  0  0  0  0  0  0  0  0  0  0  0
  -20.5820  -28.3620   23.2170 C   0  0  0  0  0  3  0  0  0  0  0  0
  -20.6820  -26.9290   22.6440 C   0  0  0  0  0  2  0  0  0  0  0  0
  -19.5830  -26.6070   21.6270 C   0  0  0  0  0  2  0  0  0  0  0  0
  -18.2000  -26.7570   22.2670 C   0  0  0  0  0  2  0  0  0  0  0  0
  -19.1430  -28.8680   23.3700 C   0  0  0  0  0  0  0  0  0  0  0  0
  -18.9250  -30.1340   23.9590 C   0  0  0  0  0  3  0  0  0  0  0  0
  -17.6220  -30.6390   24.1180 C   0  0  0  0  0  3  0  0  0  0  0  0
  -16.5170  -29.8760   23.7040 C   0  0  0  0  0  3  0  0  0  0  0  0
  -16.7190  -28.6120   23.1200 C   0  0  0  0  0  3  0  0  0  0  0  0
  -25.8930  -32.5060   23.8720 C   0  0  0  0  0  3  0  0  0  0  0  0
  -26.4080  -31.7310   25.1470 C   0  0  1  0  0  0  0  0  0  0  0  0
  -25.3180  -31.5010   26.2190 C   0  0  0  0  0  1  0  0  0  0  0  0
  -26.9820  -30.3500   24.7520 C   0  0  0  0  0  1  0  0  0  0  0  0
  -27.5640  -32.5190   25.8080 C   0  0  0  0  0  1  0  0  0  0  0  0
  -25.5920  -33.9060   24.2030 N   0  0  0  0  0  0  0  0  0  0  0  0
  -25.9250  -34.9570   23.4410 C   0  0  0  0  0  0  0  0  0  0  0  0
  -26.5890  -34.8480   22.4060 O   0  0  0  0  0  0  0  0  0  0  0  0
  -25.0030  -34.0650   25.0080 H   0  0  0  0  0  0  0  0  0  0  0  0
  -24.2020  -36.7560   23.0930 C   0  0  0  0  0  1  0  0  0  0  0  0
  -25.4460  -36.3470   23.8980 C   0  0  0  0  0  3  0  0  0  0  0  0
  -27.5900  -37.2240   24.7140 C   0  0  0  0  0  1  0  0  0  0  0  0
  -26.4820  -37.3950   23.7780 N   0  0  0  0  0  0  0  0  0  0  0  0
  -26.0800  -38.3170   23.9270 H   0  0  0  0  0  0  0  0  0  0  0  0
  -29.8660  -21.8260   20.9130 C   0  0  0  0  0  2  0  0  0  0  0  0
  -29.9940  -20.3890   20.2800 C   0  0  0  0  0  2  0  0  0  0  0  0
  -29.6060  -19.3250   21.1790 O   0  0  0  0  0  0  0  0  0  0  0  0
  -30.3560  -18.0820   21.1900 C   0  0  0  0  0  2  0  0  0  0  0  0
  -29.9920  -17.0260   20.1000 C   0  0  0  0  0  2  0  0  0  0  0  0
  -30.6580  -14.5630   20.1340 C   0  0  0  0  0  0  0  0  0  0  0  0
  -30.3320  -12.3860   19.0110 C   0  0  0  0  0  2  0  0  0  0  0  0
  -29.3420  -12.5990   17.8440 C   0  0  0  0  0  2  0  0  0  0  0  0
  -27.8850  -12.4670   18.3310 C   0  0  0  0  0  2  0  0  0  0  0  0
  -27.6040  -13.2910   19.6150 C   0  0  0  0  0  3  0  0  0  0  0  0
  -28.7030  -13.0590   20.6790 C   0  0  0  0  0  2  0  0  0  0  0  0
  -30.0040  -13.3660   20.0610 N   0  0  0  0  0  0  0  0  0  0  0  0
  -31.7760  -14.7380   19.6440 O   0  0  0  0  0  0  0  0  0  0  0  0
  -29.9110  -15.6090   20.5580 N   0  0  0  0  0  0  0  0  0  0  0  0
  -29.0360  -15.3490   20.9880 H   0  0  0  0  0  0  0  0  0  0  0  0
  -25.2410  -13.9170   20.4180 C   0  0  0  0  0  0  0  0  0  0  0  0
  -24.1800  -13.1550   20.8240 C   0  0  0  0  0  0  0  0  0  0  0  0
  -24.6260  -11.7980   20.7700 C   0  0  0  0  0  0  0  0  0  0  0  0
  -26.2680  -13.0270   20.1440 N   0  0  0  0  0  0  0  0  0  0  0  0
  -25.9040  -11.7470   20.4140 N   0  0  0  0  0  0  0  0  0  0  0  0
  -23.8950  -10.5420   20.9820 C   0  0  0  0  0  0  0  0  0  0  0  0
  -24.3570   -9.5630   21.8880 C   0  0  0  0  0  3  0  0  0  0  0  0
  -23.6260   -8.3710   22.0880 C   0  0  0  0  0  3  0  0  0  0  0  0
  -22.4190   -8.1520   21.3830 C   0  0  0  0  0  0  0  0  0  0  0  0
  -21.9750   -9.1210   20.4660 C   0  0  0  0  0  3  0  0  0  0  0  0
  -22.7060  -10.3040   20.2640 C   0  0  0  0  0  3  0  0  0  0  0  0
  -21.6570   -7.0150   21.4950 O   0  0  0  0  0  0  0  0  0  0  0  0
  -21.6560   -6.2580   22.6390 C   0  0  0  0  0  0  0  0  0  0  0  0
  -21.3040   -6.8040   23.8930 C   0  0  0  0  0  3  0  0  0  0  0  0
  -21.2500   -5.9740   25.0310 C   0  0  0  0  0  3  0  0  0  0  0  0
  -21.5350   -4.6010   24.9170 C   0  0  0  0  0  0  0  0  0  0  0  0
  -21.8800   -4.0550   23.6680 C   0  0  0  0  0  3  0  0  0  0  0  0
  -21.9370   -4.8820   22.5310 C   0  0  0  0  0  0  0  0  0  0  0  0
  -22.2490   -4.3460   21.3260 F   0  0  0  0  0  0  0  0  0  0  0  0
  -21.4760   -3.8020   26.0080 F   0  0  0  0  0  0  0  0  0  0  0  0
  -22.7990  -13.6450   21.1510 C   0  0  0  0  0  0  0  0  0  0  0  0
  -22.0980  -12.9520   22.0420 N   0  0  0  0  0  0  0  0  0  0  0  0
  -22.3520  -14.6760   20.6520 O   0  0  0  0  0  0  0  0  0  0  0  0
  -22.4730  -12.1180   22.4680 H   0  0  0  0  0  0  0  0  0  0  0  0
  -21.1730  -13.2630   22.3040 H   0  0  0  0  0  0  0  0  0  0  0  0
  -25.4140  -15.2870   20.2390 N   0  0  0  0  0  0  0  0  0  0  0  0
  -24.6560  -15.9470   20.3780 H   0  0  0  0  0  0  0  0  0  0  0  0
  -26.2510  -15.7180   19.8670 H   0  0  0  0  0  0  0  0  0  0  0  0
  1  2  1  0
  1 45  1  0
  3  4  1  0
  3  2  1  0
  5 16  2  0
  6  4  1  0
  6 11  1  0
  7 15  1  0
  7 17  1  0
  8 14  1  0
  8 10  1  0
  9 15  1  0
 10  9  1  0
 11 10  2  0
 12 13  1  0
 12  6  2  0
 13  8  2  0
 14  7  1  0
 15  5  1  0
 17 19  2  0
 18 17  1  0
 20 18  1  0
 21 30  2  0
 21 26  1  0
 22 18  1  0
 22 26  1  0
 23 22  1  0
 24 25  1  0
 24 23  1  0
 25 21  1  0
 26 27  2  0
 27 28  1  0
 29 28  2  0
 30 29  1  0
 31  5  1  0
 31 36  1  0
 31 32  1  0
 32 35  1  1
 32 33  1  0
 34 32  1  0
 36 39  1  0
 37 41  1  0
 37 36  1  0
 38 37  2  0
 41 40  1  0
 43 41  1  0
 43 44  1  0
 43 42  1  0
 46 45  1  0
 46 47  1  0
 47 48  1  0
 49 58  1  0
 49 48  1  0
 50 58  1  0
 51 56  1  0
 52 53  1  0
 52 51  1  0
 54 53  1  0
 54 63  1  0
 54 55  1  0
 56 50  1  0
 56 55  1  0
 57 50  2  0
 58 59  1  0
 60 61  2  0
 61 80  1  0
 62 61  1  0
 62 65  1  0
 63 64  1  0
 63 60  1  0
 64 62  2  0
 65 66  1  0
 66 67  2  0
 68 71  1  0
 68 67  1  0
 69 68  2  0
 70 69  1  0
 70 65  2  0
 71 72  1  0
 72 73  1  0
 73 74  2  0
 75 74  1  0
 75 79  1  0
 76 75  2  0
 77 72  2  0
 77 76  1  0
 78 77  1  0
 80 81  1  0
 81 84  1  0
 81 83  1  0
 82 80  2  0
 85 86  1  0
 85 60  1  0
 87 85  1  0
M  ISO  4   3 101   4 101  50 100  58 100
M  END
>  <TORSDO>  (64) 
F 23

>  <SCORE>  (64) 
-12.462

>  <name>  (64) 
69

>  <ligand_id>  (64) 
69

>  <original_smiles>  (64) 
[H]c1c([H])c([H])c2c(c1[H])C([H])([H])C([H])([H])C([H])([H])C2([H])N([H])C(=O)C1([H])N(C(=O)C([H])(N([H])C(=O)C([H])(N([H])C([H])([H])[H])C([H])([H])[H])C(C([H])([H])[H])(C([H])([H])[H])C([H])([H])[H])C([H])([H])c2c([H])c(OC([H])([H])C([H])([H])OC([H])([H])C([H])([H])OC([H])([H])C([H])([H])N([H])C(=O)N3C([H])([H])C([H])([H])C([H])([H])C([H])(n4nc(-c5c([H])c([H])c(Oc6c([H])c([H])c(F)c([H])c6F)c([H])c5[H])c(C(=O)N([H])[H])c4N([H])[H])C3([H])[H])c([H])c([H])c2C1([H])[H]

>  <smiles>  (64) 
[H]c1c([H])c([H])c2c(c1[H])C([H])([H])C([H])([H])C([H])([H])C2([H])N([H])C(=O)C1([H])N(C(=O)C([H])(N([H])C(=O)C([H])(N([H])C([H])([H])[H])C([H])([H])[H])C(C([H])([H])[H])(C([H])([H])[H])C([H])([H])[H])C([H])([H])c2c([H])c(OC([H])([H])C([H])([H])OC([H])([H])C([H])([H])OC([H])([H])C([H])([H])N([H])C(=O)N3C([H])([H])C([H])([H])C([H])([H])C([H])(n4nc(-c5c([H])c([H])c(Oc6c([H])c([H])c(F)c([H])c6F)c([H])c5[H])c(C(=O)N([H])[H])c4N([H])[H])C3([H])[H])c([H])c([H])c2C1([H])[H]

$$$$
70:0:0
     RDKit          3D

107114  0  0  1  0  0  0  0  0999 V2000
  -24.0370  -20.2880   19.6810 C   0  0  0  0  0  0  0  0  0  0  0  0
  -24.6170  -21.3120   19.0480 N   0  0  0  0  0  0  0  0  0  0  0  0
  -24.6410  -19.1200   19.4450 N   0  0  0  0  0  0  0  0  0  0  0  0
  -23.0350  -20.4010   20.3880 O   0  0  0  0  0  0  0  0  0  0  0  0
  -25.4400  -21.1190   18.4940 H   0  0  0  0  0  0  0  0  0  0  0  0
  -25.4390  -19.1090   18.8260 H   0  0  0  0  0  0  0  0  0  0  0  0
  -24.2010  -17.8380   19.9970 C   0  0  0  0  0  2  0  0  0  0  0  0
  -25.1060  -16.6580   19.5880 C   0  0  0  0  0  2  0  0  0  0  0  0
  -26.5440  -16.7330   20.1300 C   0  0  0  0  0  2  0  0  0  0  0  0
  -26.9920  -15.4250   20.4540 O   0  0  0  0  0  0  0  0  0  0  0  0
  -28.3910  -15.3810   20.7110 C   0  0  0  0  0  2  0  0  0  0  0  0
  -28.7170  -14.2030   21.6460 C   0  0  0  0  0  2  0  0  0  0  0  0
  -28.2030  -12.9700   21.1400 O   0  0  0  0  0  0  0  0  0  0  0  0
  -28.9880  -11.8090   21.4090 C   0  0  0  0  0  2  0  0  0  0  0  0
  -30.4340  -11.9460   20.9170 C   0  0  0  0  0  2  0  0  0  0  0  0
  -31.3120  -11.8650   22.0300 O   0  0  0  0  0  0  0  0  0  0  0  0
  -32.5430  -11.2300   21.7320 C   0  0  0  0  0  2  0  0  0  0  0  0
  -32.3820   -9.7010   21.8150 C   0  0  0  0  0  2  0  0  0  0  0  0
  -34.3050   -8.3070   20.9250 C   0  0  0  0  0  0  0  0  0  0  0  0
  -35.2250   -8.0190   18.6590 C   0  0  0  0  0  2  0  0  0  0  0  0
  -36.5370   -8.8120   18.4770 C   0  0  0  0  0  2  0  0  0  0  0  0
  -36.2420  -10.2530   18.0270 C   0  0  0  0  0  2  0  0  0  0  0  0
  -35.1800  -10.9400   18.9230 C   0  0  0  0  0  3  0  0  0  0  0  0
  -33.9490  -10.0270   19.0670 C   0  0  0  0  0  2  0  0  0  0  0  0
  -34.3730   -8.7310   19.6300 N   0  0  0  0  0  0  0  0  0  0  0  0
  -34.9040   -7.3100   21.3300 O   0  0  0  0  0  0  0  0  0  0  0  0
  -33.6960   -9.0710   21.8430 N   0  0  0  0  0  0  0  0  0  0  0  0
  -33.9570   -8.7790   22.7750 H   0  0  0  0  0  0  0  0  0  0  0  0
  -34.2220  -13.3250   19.0670 C   0  0  0  0  0  0  0  0  0  0  0  0
  -34.1450  -14.3370   18.1460 C   0  0  0  0  0  0  0  0  0  0  0  0
  -34.7000  -13.8130   16.9390 C   0  0  0  0  0  0  0  0  0  0  0  0
  -34.8090  -12.2560   18.4090 N   0  0  0  0  0  0  0  0  0  0  0  0
  -35.0460  -12.5430   17.1040 N   0  0  0  0  0  0  0  0  0  0  0  0
  -34.9770  -14.4690   15.6540 C   0  0  0  0  0  0  0  0  0  0  0  0
  -34.2730  -14.1140   14.4820 C   0  0  0  0  0  3  0  0  0  0  0  0
  -34.5460  -14.7620   13.2580 C   0  0  0  0  0  3  0  0  0  0  0  0
  -35.5300  -15.7780   13.1980 C   0  0  0  0  0  0  0  0  0  0  0  0
  -36.2420  -16.1130   14.3630 C   0  0  0  0  0  3  0  0  0  0  0  0
  -35.9740  -15.4640   15.5790 C   0  0  0  0  0  3  0  0  0  0  0  0
  -35.8830  -16.4410   12.0490 O   0  0  0  0  0  0  0  0  0  0  0  0
  -34.9400  -16.9200   11.1740 C   0  0  0  0  0  0  0  0  0  0  0  0
  -33.8650  -17.7240   11.6100 C   0  0  0  0  0  3  0  0  0  0  0  0
  -32.9560  -18.2520   10.6720 C   0  0  0  0  0  3  0  0  0  0  0  0
  -33.1250  -17.9870    9.3000 C   0  0  0  0  0  0  0  0  0  0  0  0
  -34.1970  -17.1900    8.8630 C   0  0  0  0  0  3  0  0  0  0  0  0
  -35.1030  -16.6600    9.7980 C   0  0  0  0  0  0  0  0  0  0  0  0
  -36.1470  -15.9090    9.3720 F   0  0  0  0  0  0  0  0  0  0  0  0
  -32.2560  -18.5010    8.3970 F   0  0  0  0  0  0  0  0  0  0  0  0
  -33.6710  -15.7400   18.3950 C   0  0  0  0  0  0  0  0  0  0  0  0
  -33.0620  -16.3640   17.3930 N   0  0  0  0  0  0  0  0  0  0  0  0
  -33.7980  -16.2740   19.4940 O   0  0  0  0  0  0  0  0  0  0  0  0
  -32.9410  -15.9120   16.4990 H   0  0  0  0  0  0  0  0  0  0  0  0
  -32.7030  -17.2970   17.5290 H   0  0  0  0  0  0  0  0  0  0  0  0
  -33.8610  -13.2350   20.4060 N   0  0  0  0  0  0  0  0  0  0  0  0
  -33.4520  -14.0150   20.9060 H   0  0  0  0  0  0  0  0  0  0  0  0
  -34.0200  -12.4230   20.9910 H   0  0  0  0  0  0  0  0  0  0  0  0
  -24.0750  -22.6700   18.9510 C   0  0  0  0  0  2  0  0  0  0  0  0
  -25.0840  -23.7780   19.3290 C   0  0  0  0  0  2  0  0  0  0  0  0
  -26.4710  -23.5950   18.6820 C   0  0  0  0  0  2  0  0  0  0  0  0
  -27.1190  -24.8930   18.1570 C   0  0  0  0  0  2  0  0  0  0  0  0
  -28.2010  -24.6220   17.0900 C   0  0  0  0  0  2  0  0  0  0  0  0
  -29.6480  -24.6120   17.6230 C   0  0  0  0  0  2  0  0  0  0  0  0
  -30.6500  -25.8750   19.5530 C   0  0  0  0  0  0  0  0  0  0  0  0
  -29.9690  -25.8390   18.3490 N   0  0  0  0  0  0  0  0  0  0  0  0
  -31.0690  -24.9020   20.1820 O   0  0  0  0  0  0  0  0  0  0  0  0
  -29.6570  -26.7280   17.9830 H   0  0  0  0  0  0  0  0  0  0  0  0
  -30.7330  -27.1550   19.9830 O   0  0  0  0  0  0  0  0  0  0  0  0
  -27.4720  -30.6450   25.3090 C   0  0  0  0  0  0  0  0  0  0  0  0
  -29.6060  -27.8020   20.4490 C   0  0  0  0  0  0  0  0  0  0  0  0
  -26.0690  -30.0730   23.3570 C   0  0  0  0  0  3  0  0  0  0  0  0
  -27.3170  -29.2200   21.3110 C   0  0  0  0  0  0  0  0  0  0  0  0
  -28.5910  -30.4200   23.0910 C   0  0  0  0  0  2  0  0  0  0  0  0
  -28.5470  -29.4240   21.9510 C   0  0  0  0  0  0  0  0  0  0  0  0
  -29.6970  -28.7200   21.5220 C   0  0  0  0  0  3  0  0  0  0  0  0
  -28.3490  -27.6040   19.8270 C   0  0  0  0  0  3  0  0  0  0  0  0
  -27.2110  -28.3040   20.2540 C   0  0  0  0  0  3  0  0  0  0  0  0
  -26.1370  -30.0210   21.8100 C   0  0  0  0  0  2  0  0  0  0  0  0
  -27.4010  -30.3670   23.9780 N   0  0  0  0  0  0  0  0  0  0  0  0
  -26.4490  -30.6990   26.0070 O   0  0  0  0  0  0  0  0  0  0  0  0
  -25.4320  -28.7600   23.8680 C   0  0  0  0  0  0  0  0  0  0  0  0
  -24.3010  -28.3690   23.2570 N   0  0  0  0  0  0  0  0  0  0  0  0
  -25.9640  -28.1060   24.7690 O   0  0  0  0  0  0  0  0  0  0  0  0
  -23.9310  -28.9630   22.5290 H   0  0  0  0  0  0  0  0  0  0  0  0
  -21.5820  -26.2930   22.0960 C   0  0  0  0  0  0  0  0  0  0  0  0
  -23.5420  -27.1540   23.5440 C   0  0  0  0  0  3  0  0  0  0  0  0
  -24.3100  -25.8970   23.0740 C   0  0  0  0  0  2  0  0  0  0  0  0
  -23.9280  -25.4510   21.6590 C   0  0  0  0  0  2  0  0  0  0  0  0
  -22.4290  -25.1450   21.5750 C   0  0  0  0  0  2  0  0  0  0  0  0
  -22.1090  -27.2450   23.0080 C   0  0  0  0  0  0  0  0  0  0  0  0
  -21.2890  -28.3120   23.4340 C   0  0  0  0  0  3  0  0  0  0  0  0
  -19.9670  -28.4350   22.9680 C   0  0  0  0  0  3  0  0  0  0  0  0
  -19.4450  -27.4800   22.0770 C   0  0  0  0  0  3  0  0  0  0  0  0
  -20.2510  -26.4110   21.6450 C   0  0  0  0  0  3  0  0  0  0  0  0
  -28.8340  -30.9340   26.0140 C   0  0  0  0  0  3  0  0  0  0  0  0
  -28.7570  -32.2810   26.5920 N   0  0  0  0  0  0  0  0  0  0  0  0
  -29.2810  -33.3770   26.0270 C   0  0  0  0  0  0  0  0  0  0  0  0
  -29.9530  -33.3410   24.9930 O   0  0  0  0  0  0  0  0  0  0  0  0
  -28.1770  -32.3920   27.4100 H   0  0  0  0  0  0  0  0  0  0  0  0
  -27.9340  -35.4970   25.9560 C   0  0  0  0  0  1  0  0  0  0  0  0
  -29.0220  -34.7270   26.7220 C   0  0  0  0  0  3  0  0  0  0  0  0
  -31.2400  -34.9980   27.7370 C   0  0  0  0  0  1  0  0  0  0  0  0
  -30.2330  -35.5670   26.8450 N   0  0  0  0  0  0  0  0  0  0  0  0
  -29.9940  -36.4940   27.1870 H   0  0  0  0  0  0  0  0  0  0  0  0
  -29.1930  -29.8710   27.1240 C   0  0  1  0  0  0  0  0  0  0  0  0
  -28.0250  -29.5550   28.0880 C   0  0  0  0  0  1  0  0  0  0  0  0
  -29.6490  -28.5430   26.4750 C   0  0  0  0  0  1  0  0  0  0  0  0
  -30.3840  -30.3810   27.9690 C   0  0  0  0  0  1  0  0  0  0  0  0
  1  4  2  0
  2  1  1  0
  3  1  1  0
  3  7  1  0
  5  2  1  0
  6  3  1  0
  8  7  1  0
  8  9  1  0
  9 10  1  0
 10 11  1  0
 11 12  1  0
 13 14  1  0
 13 12  1  0
 15 14  1  0
 15 16  1  0
 17 18  1  0
 17 16  1  0
 18 27  1  0
 19 26  2  0
 19 27  1  0
 20 25  1  0
 21 20  1  0
 22 21  1  0
 23 22  1  0
 23 24  1  0
 24 25  1  0
 25 19  1  0
 27 28  1  0
 29 54  1  0
 30 49  1  0
 30 29  2  0
 31 33  2  0
 31 30  1  0
 32 23  1  0
 32 29  1  0
 33 32  1  0
 34 31  1  0
 35 34  2  0
 36 35  1  0
 37 36  2  0
 37 38  1  0
 38 39  2  0
 39 34  1  0
 40 37  1  0
 41 42  1  0
 41 40  1  0
 43 42  2  0
 44 43  1  0
 45 44  2  0
 45 46  1  0
 46 41  2  0
 47 46  1  0
 48 44  1  0
 49 51  2  0
 50 53  1  0
 50 49  1  0
 52 50  1  0
 54 55  1  0
 54 56  1  0
 57  2  1  0
 57 58  1  0
 59 58  1  0
 60 59  1  0
 61 62  1  0
 61 60  1  0
 62 64  1  0
 63 67  1  0
 63 65  2  0
 64 63  1  0
 66 64  1  0
 67 69  1  0
 68 79  2  0
 69 74  1  0
 70 80  1  0
 70 78  1  0
 71 77  1  0
 71 73  1  0
 72 78  1  0
 73 72  1  0
 74 73  2  0
 75 76  1  0
 75 69  2  0
 76 71  2  0
 77 70  1  0
 78 68  1  0
 80 82  2  0
 81 80  1  0
 83 81  1  0
 84 89  1  0
 85 81  1  0
 86 85  1  0
 87 86  1  0
 88 87  1  0
 88 84  1  0
 89 90  2  0
 89 85  1  0
 91 90  1  0
 92 91  2  0
 93 92  1  0
 93 84  2  0
 94 68  1  0
 94 95  1  0
 94104  1  0
 95 98  1  0
 96 95  1  0
 96100  1  0
 97 96  2  0
100 99  1  0
100102  1  0
102103  1  0
102101  1  0
104107  1  1
104105  1  0
106104  1  0
M  ISO  4  19 100  27 100  63 101  67 101
M  END
>  <TORSDO>  (65) 
F 35

>  <SCORE>  (65) 
1.237

>  <name>  (65) 
70

>  <ligand_id>  (65) 
70

>  <original_smiles>  (65) 
[H]c1c([H])c([H])c2c(c1[H])C([H])([H])C([H])([H])C([H])([H])C2([H])N([H])C(=O)C1([H])N(C(=O)C([H])(N([H])C(=O)C([H])(N([H])C([H])([H])[H])C([H])([H])[H])C(C([H])([H])[H])(C([H])([H])[H])C([H])([H])[H])C([H])([H])c2c([H])c(OC(=O)N([H])C([H])([H])C([H])([H])C([H])([H])C([H])([H])C([H])([H])C([H])([H])N([H])C(=O)N([H])C([H])([H])C([H])([H])C([H])([H])OC([H])([H])C([H])([H])OC([H])([H])C([H])([H])OC([H])([H])C([H])([H])N([H])C(=O)N3C([H])([H])C([H])([H])C([H])([H])C([H])(n4nc(-c5c([H])c([H])c(Oc6c([H])c([H])c(F)c([H])c6F)c([H])c5[H])c(C(=O)N([H])[H])c4N([H])[H])C3([H])[H])c([H])c([H])c2C1([H])[H]

>  <smiles>  (65) 
[H]c1c([H])c([H])c2c(c1[H])C([H])([H])C([H])([H])C([H])([H])C2([H])N([H])C(=O)C1([H])N(C(=O)C([H])(N([H])C(=O)C([H])(N([H])C([H])([H])[H])C([H])([H])[H])C(C([H])([H])[H])(C([H])([H])[H])C([H])([H])[H])C([H])([H])c2c([H])c(OC(=O)N([H])C([H])([H])C([H])([H])C([H])([H])C([H])([H])C([H])([H])C([H])([H])N([H])C(=O)N([H])C([H])([H])C([H])([H])C([H])([H])OC([H])([H])C([H])([H])OC([H])([H])C([H])([H])OC([H])([H])C([H])([H])N([H])C(=O)N3C([H])([H])C([H])([H])C([H])([H])C([H])(n4nc(-c5c([H])c([H])c(Oc6c([H])c([H])c(F)c([H])c6F)c([H])c5[H])c(C(=O)N([H])[H])c4N([H])[H])C3([H])[H])c([H])c([H])c2C1([H])[H]

$$$$
72:0:0
     RDKit          3D

105112  0  0  1  0  0  0  0  0999 V2000
  -32.7720  -20.1030   19.4040 C   0  0  0  0  0  2  0  0  0  0  0  0
  -31.8670  -19.0420   19.1310 O   0  0  0  0  0  0  0  0  0  0  0  0
  -31.8280  -18.6860   17.7560 C   0  0  0  0  0  2  0  0  0  0  0  0
  -30.9650  -17.4310   17.5870 C   0  0  0  0  0  2  0  0  0  0  0  0
  -29.6000  -17.7180   17.8650 O   0  0  0  0  0  0  0  0  0  0  0  0
  -28.8100  -16.5360   17.8780 C   0  0  0  0  0  2  0  0  0  0  0  0
  -27.3690  -16.8430   18.3050 C   0  0  0  0  0  2  0  0  0  0  0  0
  -27.2190  -16.8840   19.7230 O   0  0  0  0  0  0  0  0  0  0  0  0
  -27.5750  -18.1240   20.3380 C   0  0  0  0  0  2  0  0  0  0  0  0
  -28.9780  -18.0430   20.9450 C   0  0  0  0  0  0  0  0  0  0  0  0
  -29.2760  -16.9280   21.6230 N   0  0  0  0  0  0  0  0  0  0  0  0
  -29.7630  -18.9830   20.8270 O   0  0  0  0  0  0  0  0  0  0  0  0
  -28.5430  -16.2350   21.6980 H   0  0  0  0  0  0  0  0  0  0  0  0
  -30.5580  -16.6500   22.2640 C   0  0  0  0  0  2  0  0  0  0  0  0
  -31.4850  -15.8860   21.3100 C   0  0  0  0  0  2  0  0  0  0  0  0
  -31.3910  -13.6790   20.1720 C   0  0  0  0  0  0  0  0  0  0  0  0
  -30.7460  -11.7340   18.8050 C   0  0  0  0  0  2  0  0  0  0  0  0
  -29.7810  -12.1750   17.6890 C   0  0  0  0  0  2  0  0  0  0  0  0
  -28.3210  -12.2200   18.1940 C   0  0  0  0  0  2  0  0  0  0  0  0
  -28.1610  -12.9520   19.5540 C   0  0  0  0  0  3  0  0  0  0  0  0
  -29.2240  -12.4510   20.5560 C   0  0  0  0  0  2  0  0  0  0  0  0
  -30.5550  -12.6340   19.9480 N   0  0  0  0  0  0  0  0  0  0  0  0
  -32.4520  -13.8590   19.5670 O   0  0  0  0  0  0  0  0  0  0  0  0
  -30.9300  -14.5640   21.0540 N   0  0  0  0  0  0  0  0  0  0  0  0
  -30.0570  -14.3350   21.5010 H   0  0  0  0  0  0  0  0  0  0  0  0
  -25.8580  -13.7840   20.3580 C   0  0  0  0  0  0  0  0  0  0  0  0
  -24.7380  -13.1150   20.7740 C   0  0  0  0  0  0  0  0  0  0  0  0
  -25.0680  -11.7270   20.7270 C   0  0  0  0  0  0  0  0  0  0  0  0
  -26.8060  -12.8090   20.0830 N   0  0  0  0  0  0  0  0  0  0  0  0
  -26.3330  -11.5670   20.3630 N   0  0  0  0  0  0  0  0  0  0  0  0
  -24.2370  -10.5380   20.9480 C   0  0  0  0  0  0  0  0  0  0  0  0
  -24.6100   -9.5350   21.8710 C   0  0  0  0  0  3  0  0  0  0  0  0
  -23.7830   -8.4100   22.0800 C   0  0  0  0  0  3  0  0  0  0  0  0
  -22.5660   -8.2820   21.3690 C   0  0  0  0  0  0  0  0  0  0  0  0
  -22.2120   -9.2700   20.4340 C   0  0  0  0  0  3  0  0  0  0  0  0
  -23.0390  -10.3850   20.2220 C   0  0  0  0  0  3  0  0  0  0  0  0
  -21.7140   -7.2100   21.4890 O   0  0  0  0  0  0  0  0  0  0  0  0
  -21.6310   -6.4850   22.6490 C   0  0  0  0  0  0  0  0  0  0  0  0
  -21.3190   -7.0900   23.8870 C   0  0  0  0  0  3  0  0  0  0  0  0
  -21.1700   -6.2950   25.0420 C   0  0  0  0  0  3  0  0  0  0  0  0
  -21.3270   -4.8980   24.9600 C   0  0  0  0  0  0  0  0  0  0  0  0
  -21.6340   -4.2930   23.7270 C   0  0  0  0  0  3  0  0  0  0  0  0
  -21.7800   -5.0860   22.5760 C   0  0  0  0  0  0  0  0  0  0  0  0
  -22.0540   -4.4970   21.3860 F   0  0  0  0  0  0  0  0  0  0  0  0
  -21.1790   -4.1310   26.0650 F   0  0  0  0  0  0  0  0  0  0  0  0
  -23.4020  -13.7200   21.0980 C   0  0  0  0  0  0  0  0  0  0  0  0
  -22.6580  -13.1090   22.0140 N   0  0  0  0  0  0  0  0  0  0  0  0
  -23.0310  -14.7700   20.5750 O   0  0  0  0  0  0  0  0  0  0  0  0
  -22.9760  -12.2620   22.4620 H   0  0  0  0  0  0  0  0  0  0  0  0
  -21.7630  -13.4980   22.2720 H   0  0  0  0  0  0  0  0  0  0  0  0
  -26.1350  -15.1350   20.1710 N   0  0  0  0  0  0  0  0  0  0  0  0
  -25.3690  -15.7920   20.2580 H   0  0  0  0  0  0  0  0  0  0  0  0
  -26.8060  -15.4390   19.4680 H   0  0  0  0  0  0  0  0  0  0  0  0
  -32.6040  -20.5460   20.8650 C   0  0  0  0  0  2  0  0  0  0  0  0
  -30.8260  -21.9680   21.8690 C   0  0  0  0  0  0  0  0  0  0  0  0
  -31.2230  -20.9490   21.1030 N   0  0  0  0  0  0  0  0  0  0  0  0
  -31.6150  -22.6650   22.5110 O   0  0  0  0  0  0  0  0  0  0  0  0
  -30.5040  -20.4030   20.6250 H   0  0  0  0  0  0  0  0  0  0  0  0
  -29.3180  -22.2430   21.9360 C   0  0  0  0  0  2  0  0  0  0  0  0
  -29.0000  -24.5400   21.0590 C   0  0  0  0  0  0  0  0  0  0  0  0
  -29.0350  -23.6700   22.0750 N   0  0  0  0  0  0  0  0  0  0  0  0
  -29.1670  -24.1880   19.8880 O   0  0  0  0  0  0  0  0  0  0  0  0
  -28.9360  -24.0260   23.0160 H   0  0  0  0  0  0  0  0  0  0  0  0
  -28.7400  -26.0120   21.4060 C   0  0  0  0  0  2  0  0  0  0  0  0
  -28.4500  -26.7310   20.2080 O   0  0  0  0  0  0  0  0  0  0  0  0
  -24.5750  -31.8710   23.2420 C   0  0  0  0  0  0  0  0  0  0  0  0
  -27.2790  -27.4390   20.2380 C   0  0  0  0  0  0  0  0  0  0  0  0
  -23.3930  -30.4490   21.5920 C   0  0  0  0  0  3  0  0  0  0  0  0
  -24.8710  -28.9000   20.2080 C   0  0  0  0  0  0  0  0  0  0  0  0
  -25.9150  -30.8210   21.4260 C   0  0  0  0  0  2  0  0  0  0  0  0
  -26.0150  -29.4440   20.8090 C   0  0  0  0  0  0  0  0  0  0  0  0
  -27.2220  -28.7160   20.8310 C   0  0  0  0  0  3  0  0  0  0  0  0
  -26.1270  -26.8970   19.6340 C   0  0  0  0  0  3  0  0  0  0  0  0
  -24.9200  -27.6210   19.6210 C   0  0  0  0  0  3  0  0  0  0  0  0
  -23.6230  -29.7530   20.2250 C   0  0  0  0  0  2  0  0  0  0  0  0
  -24.6440  -31.0620   22.1460 N   0  0  0  0  0  0  0  0  0  0  0  0
  -23.4860  -32.1450   23.7640 O   0  0  0  0  0  0  0  0  0  0  0  0
  -22.7300  -29.4370   22.5540 C   0  0  0  0  0  0  0  0  0  0  0  0
  -21.4070  -29.2570   22.4130 N   0  0  0  0  0  0  0  0  0  0  0  0
  -23.4050  -28.8150   23.3790 O   0  0  0  0  0  0  0  0  0  0  0  0
  -20.9270  -29.8100   21.7170 H   0  0  0  0  0  0  0  0  0  0  0  0
  -18.0260  -28.0800   22.8780 C   0  0  0  0  0  0  0  0  0  0  0  0
  -20.5800  -28.3270   23.1800 C   0  0  0  0  0  3  0  0  0  0  0  0
  -20.6840  -26.8930   22.6110 C   0  0  0  0  0  2  0  0  0  0  0  0
  -19.5930  -26.5700   21.5870 C   0  0  0  0  0  2  0  0  0  0  0  0
  -18.2040  -26.7250   22.2130 C   0  0  0  0  0  2  0  0  0  0  0  0
  -19.1420  -28.8390   23.3170 C   0  0  0  0  0  0  0  0  0  0  0  0
  -18.9230  -30.1080   23.8960 C   0  0  0  0  0  3  0  0  0  0  0  0
  -17.6190  -30.6170   24.0420 C   0  0  0  0  0  3  0  0  0  0  0  0
  -16.5160  -29.8550   23.6190 C   0  0  0  0  0  3  0  0  0  0  0  0
  -16.7200  -28.5880   23.0440 C   0  0  0  0  0  3  0  0  0  0  0  0
  -25.8520  -32.5050   23.8740 C   0  0  0  0  0  3  0  0  0  0  0  0
  -26.3610  -31.7360   25.1550 C   0  0  1  0  0  0  0  0  0  0  0  0
  -25.2590  -31.4970   26.2130 C   0  0  0  0  0  1  0  0  0  0  0  0
  -26.9530  -30.3610   24.7670 C   0  0  0  0  0  1  0  0  0  0  0  0
  -27.5040  -32.5350   25.8250 C   0  0  0  0  0  1  0  0  0  0  0  0
  -25.5390  -33.9030   24.1940 N   0  0  0  0  0  0  0  0  0  0  0  0
  -25.8810  -34.9520   23.4350 C   0  0  0  0  0  0  0  0  0  0  0  0
  -26.5650  -34.8450   22.4130 O   0  0  0  0  0  0  0  0  0  0  0  0
  -24.9330  -34.0610   24.9870 H   0  0  0  0  0  0  0  0  0  0  0  0
  -24.1520  -36.7370   23.0470 C   0  0  0  0  0  1  0  0  0  0  0  0
  -25.3830  -36.3420   23.8780 C   0  0  0  0  0  3  0  0  0  0  0  0
  -27.5080  -37.2320   24.7280 C   0  0  0  0  0  1  0  0  0  0  0  0
  -26.4140  -37.3970   23.7730 N   0  0  0  0  0  0  0  0  0  0  0  0
  -26.0050  -38.3160   23.9150 H   0  0  0  0  0  0  0  0  0  0  0  0
  1 54  1  0
  2  1  1  0
  3  2  1  0
  4  3  1  0
  4  5  1  0
  5  6  1  0
  6  7  1  0
  7  8  1  0
  8  9  1  0
  9 10  1  0
 10 11  1  0
 11 13  1  0
 11 14  1  0
 12 10  2  0
 15 14  1  0
 16 24  1  0
 17 22  1  0
 18 19  1  0
 18 17  1  0
 20 19  1  0
 20 29  1  0
 20 21  1  0
 22 16  1  0
 22 21  1  0
 23 16  2  0
 24 15  1  0
 24 25  1  0
 26 27  2  0
 27 46  1  0
 28 27  1  0
 28 31  1  0
 29 26  1  0
 29 30  1  0
 30 28  2  0
 31 32  1  0
 32 33  2  0
 34 37  1  0
 34 33  1  0
 35 34  2  0
 36 35  1  0
 36 31  2  0
 37 38  1  0
 38 39  1  0
 39 40  2  0
 41 40  1  0
 41 45  1  0
 42 41  2  0
 43 38  2  0
 43 42  1  0
 44 43  1  0
 46 47  1  0
 47 50  1  0
 47 49  1  0
 48 46  2  0
 51 52  1  0
 51 26  1  0
 53 51  1  0
 54 56  1  0
 55 59  1  0
 55 57  2  0
 56 55  1  0
 58 56  1  0
 59 61  1  0
 60 64  1  0
 60 61  1  0
 61 63  1  0
 62 60  2  0
 65 67  1  0
 65 64  1  0
 66 77  2  0
 67 72  1  0
 68 76  1  0
 68 78  1  0
 69 75  1  0
 69 71  1  0
 70 76  1  0
 71 72  2  0
 71 70  1  0
 73 67  2  0
 74 73  1  0
 74 69  2  0
 75 68  1  0
 76 66  1  0
 78 80  2  0
 79 78  1  0
 81 79  1  0
 82 91  2  0
 82 87  1  0
 83 79  1  0
 83 87  1  0
 84 83  1  0
 85 86  1  0
 85 84  1  0
 86 82  1  0
 87 88  2  0
 88 89  1  0
 90 89  2  0
 91 90  1  0
 92 66  1  0
 92 97  1  0
 92 93  1  0
 93 96  1  1
 93 94  1  0
 95 93  1  0
 97100  1  0
 98102  1  0
 98 97  1  0
 99 98  2  0
102101  1  0
104102  1  0
104105  1  0
104103  1  0
M  ISO  4  16 100  24 100  64 101  65 101
M  END
>  <TORSDO>  (66) 
F 32

>  <SCORE>  (66) 
-8.778

>  <name>  (66) 
72

>  <ligand_id>  (66) 
72

>  <original_smiles>  (66) 
[H]c1c([H])c([H])c2c(c1[H])C([H])([H])C([H])([H])C([H])([H])C2([H])N([H])C(=O)C1([H])N(C(=O)C([H])(N([H])C(=O)C([H])(N([H])C([H])([H])[H])C([H])([H])[H])C(C([H])([H])[H])(C([H])([H])[H])C([H])([H])[H])C([H])([H])c2c([H])c(OC([H])([H])C(=O)N([H])C([H])([H])C(=O)N([H])C([H])([H])C([H])([H])OC([H])([H])C([H])([H])OC([H])([H])C([H])([H])OC([H])([H])C(=O)N([H])C([H])([H])C([H])([H])N([H])C(=O)N3C([H])([H])C([H])([H])C([H])([H])C([H])(n4nc(-c5c([H])c([H])c(Oc6c([H])c([H])c(F)c([H])c6F)c([H])c5[H])c(C(=O)N([H])[H])c4N([H])[H])C3([H])[H])c([H])c([H])c2C1([H])[H]

>  <smiles>  (66) 
[H]c1c([H])c([H])c2c(c1[H])C([H])([H])C([H])([H])C([H])([H])C2([H])N([H])C(=O)C1([H])N(C(=O)C([H])(N([H])C(=O)C([H])(N([H])C([H])([H])[H])C([H])([H])[H])C(C([H])([H])[H])(C([H])([H])[H])C([H])([H])[H])C([H])([H])c2c([H])c(OC([H])([H])C(=O)N([H])C([H])([H])C(=O)N([H])C([H])([H])C([H])([H])OC([H])([H])C([H])([H])OC([H])([H])C([H])([H])OC([H])([H])C(=O)N([H])C([H])([H])C([H])([H])N([H])C(=O)N3C([H])([H])C([H])([H])C([H])([H])C([H])(n4nc(-c5c([H])c([H])c(Oc6c([H])c([H])c(F)c([H])c6F)c([H])c5[H])c(C(=O)N([H])[H])c4N([H])[H])C3([H])[H])c([H])c([H])c2C1([H])[H]

$$$$
73:0:0
     RDKit          3D

 91 98  0  0  1  0  0  0  0  0999 V2000
  -27.5020  -21.6270   21.8090 N   0  0  0  0  0  4  0  0  0  0  0  0
  -27.4940  -21.2280   22.7350 H   0  0  0  0  0  0  0  0  0  0  0  0
  -26.7320  -21.2090   21.3140 H   0  0  0  0  0  0  0  0  0  0  0  0
  -27.2640  -23.1860   21.9480 C   0  0  0  0  0  2  0  0  0  0  0  0
  -27.5410  -23.7360   20.6970 O   0  0  0  0  0  0  0  0  0  0  0  0
  -27.6340  -25.1540   20.7410 C   0  0  0  0  0  2  0  0  0  0  0  0
  -28.2220  -25.6790   19.4110 C   0  0  0  0  0  2  0  0  0  0  0  0
  -28.2820  -27.1060   19.3870 O   0  0  0  0  0  0  0  0  0  0  0  0
  -24.6110  -31.8440   23.1570 C   0  0  0  0  0  0  0  0  0  0  0  0
  -27.0910  -27.7870   19.4980 C   0  0  0  0  0  0  0  0  0  0  0  0
  -23.3090  -30.5730   21.4800 C   0  0  0  0  0  3  0  0  0  0  0  0
  -24.6780  -29.2130   19.8180 C   0  0  0  0  0  0  0  0  0  0  0  0
  -25.8060  -31.0110   21.1410 C   0  0  0  0  0  2  0  0  0  0  0  0
  -25.8650  -29.7120   20.3680 C   0  0  0  0  0  0  0  0  0  0  0  0
  -27.0760  -29.0080   20.2020 C   0  0  0  0  0  3  0  0  0  0  0  0
  -25.8850  -27.2990   18.9410 C   0  0  0  0  0  3  0  0  0  0  0  0
  -24.6810  -28.0050   19.1020 C   0  0  0  0  0  3  0  0  0  0  0  0
  -23.4250  -30.0280   20.0320 C   0  0  0  0  0  2  0  0  0  0  0  0
  -24.5980  -31.1520   21.9830 N   0  0  0  0  0  0  0  0  0  0  0  0
  -23.5670  -32.0450   23.7940 O   0  0  0  0  0  0  0  0  0  0  0  0
  -22.7460  -29.4530   22.3840 C   0  0  0  0  0  0  0  0  0  0  0  0
  -21.4320  -29.2000   22.2690 N   0  0  0  0  0  0  0  0  0  0  0  0
  -23.4850  -28.8160   23.1390 O   0  0  0  0  0  0  0  0  0  0  0  0
  -20.8950  -29.7720   21.6320 H   0  0  0  0  0  0  0  0  0  0  0  0
  -18.1620  -27.7210   22.6730 C   0  0  0  0  0  0  0  0  0  0  0  0
  -20.6890  -28.1680   22.9910 C   0  0  0  0  0  3  0  0  0  0  0  0
  -20.9100  -26.7750   22.3590 C   0  0  0  0  0  2  0  0  0  0  0  0
  -19.8470  -26.4070   21.3180 C   0  0  0  0  0  2  0  0  0  0  0  0
  -18.4530  -26.4180   21.9490 C   0  0  0  0  0  2  0  0  0  0  0  0
  -19.2130  -28.5510   23.1470 C   0  0  0  0  0  0  0  0  0  0  0  0
  -18.8900  -29.7700   23.7810 C   0  0  0  0  0  3  0  0  0  0  0  0
  -17.5480  -30.1600   23.9490 C   0  0  0  0  0  3  0  0  0  0  0  0
  -16.5110  -29.3270   23.4940 C   0  0  0  0  0  3  0  0  0  0  0  0
  -16.8200  -28.1090   22.8620 C   0  0  0  0  0  3  0  0  0  0  0  0
  -25.9290  -32.4420   23.7410 C   0  0  0  0  0  3  0  0  0  0  0  0
  -26.5120  -31.6060   24.9450 C   0  0  1  0  0  0  0  0  0  0  0  0
  -25.4740  -31.2980   26.0500 C   0  0  0  0  0  1  0  0  0  0  0  0
  -27.0850  -30.2570   24.4480 C   0  0  0  0  0  1  0  0  0  0  0  0
  -27.6870  -32.3730   25.5960 C   0  0  0  0  0  1  0  0  0  0  0  0
  -25.6450  -33.8210   24.1550 N   0  0  0  0  0  0  0  0  0  0  0  0
  -25.9400  -34.9080   23.4290 C   0  0  0  0  0  0  0  0  0  0  0  0
  -26.5580  -34.8530   22.3620 O   0  0  0  0  0  0  0  0  0  0  0  0
  -25.0970  -33.9390   24.9950 H   0  0  0  0  0  0  0  0  0  0  0  0
  -24.1930  -36.7080   23.2540 C   0  0  0  0  0  1  0  0  0  0  0  0
  -25.4780  -36.2730   23.9750 C   0  0  0  0  0  3  0  0  0  0  0  0
  -27.6580  -37.1250   24.7190 C   0  0  0  0  0  1  0  0  0  0  0  0
  -26.5040  -37.3330   23.8490 N   0  0  0  0  0  0  0  0  0  0  0  0
  -26.1070  -38.2450   24.0600 H   0  0  0  0  0  0  0  0  0  0  0  0
  -28.7640  -21.2180   21.1470 C   0  0  0  0  0  2  0  0  0  0  0  0
  -28.8720  -19.6810   21.1470 C   0  0  0  0  0  2  0  0  0  0  0  0
  -30.2110  -19.0280   20.7260 C   0  0  0  0  0  2  0  0  0  0  0  0
  -30.3230  -17.6570   21.4520 C   0  0  0  0  0  2  0  0  0  0  0  0
  -31.6340  -16.8610   21.2870 C   0  0  0  0  0  2  0  0  0  0  0  0
  -32.3420  -15.1160   19.6670 C   0  0  0  0  0  0  0  0  0  0  0  0
  -31.8960  -12.8030   18.9350 C   0  0  0  0  0  2  0  0  0  0  0  0
  -30.9440  -12.8050   17.7230 C   0  0  0  0  0  2  0  0  0  0  0  0
  -29.4720  -12.8080   18.1870 C   0  0  0  0  0  2  0  0  0  0  0  0
  -29.1880  -13.8950   19.2600 C   0  0  0  0  0  3  0  0  0  0  0  0
  -30.2530  -13.8620   20.3770 C   0  0  0  0  0  2  0  0  0  0  0  0
  -31.5820  -13.9870   19.7550 N   0  0  0  0  0  0  0  0  0  0  0  0
  -33.4310  -15.1420   19.0930 O   0  0  0  0  0  0  0  0  0  0  0  0
  -31.7480  -16.2870   19.9480 N   0  0  0  0  0  0  0  0  0  0  0  0
  -32.1170  -16.9880   19.3250 H   0  0  0  0  0  0  0  0  0  0  0  0
  -26.9280  -14.7740   20.1240 C   0  0  0  0  0  0  0  0  0  0  0  0
  -25.7870  -14.1250   20.5250 C   0  0  0  0  0  0  0  0  0  0  0  0
  -26.0700  -12.7310   20.4260 C   0  0  0  0  0  0  0  0  0  0  0  0
  -27.8370  -13.7760   19.8050 N   0  0  0  0  0  0  0  0  0  0  0  0
  -27.3280  -12.5400   20.0450 N   0  0  0  0  0  0  0  0  0  0  0  0
  -25.2010  -11.5620   20.6150 C   0  0  0  0  0  0  0  0  0  0  0  0
  -25.4950  -10.5660   21.5710 C   0  0  0  0  0  3  0  0  0  0  0  0
  -24.6300   -9.4640   21.7460 C   0  0  0  0  0  3  0  0  0  0  0  0
  -23.4560   -9.3520   20.9660 C   0  0  0  0  0  0  0  0  0  0  0  0
  -23.1790  -10.3370   20.0000 C   0  0  0  0  0  3  0  0  0  0  0  0
  -24.0430  -11.4290   19.8240 C   0  0  0  0  0  3  0  0  0  0  0  0
  -22.5690   -8.3060   21.0500 O   0  0  0  0  0  0  0  0  0  0  0  0
  -22.3370   -7.6550   22.2350 C   0  0  0  0  0  0  0  0  0  0  0  0
  -21.8940   -8.3390   23.3890 C   0  0  0  0  0  3  0  0  0  0  0  0
  -21.5980   -7.6210   24.5640 C   0  0  0  0  0  3  0  0  0  0  0  0
  -21.7380   -6.2200   24.5870 C   0  0  0  0  0  0  0  0  0  0  0  0
  -22.1730   -5.5360   23.4390 C   0  0  0  0  0  3  0  0  0  0  0  0
  -22.4680   -6.2530   22.2650 C   0  0  0  0  0  0  0  0  0  0  0  0
  -22.8660   -5.5880   21.1550 F   0  0  0  0  0  0  0  0  0  0  0  0
  -21.4470   -5.5260   25.7130 F   0  0  0  0  0  0  0  0  0  0  0  0
  -24.4810  -14.7680   20.8920 C   0  0  0  0  0  0  0  0  0  0  0  0
  -23.7300  -14.1620   21.8070 N   0  0  0  0  0  0  0  0  0  0  0  0
  -24.1390  -15.8420   20.4000 O   0  0  0  0  0  0  0  0  0  0  0  0
  -24.0160  -13.2930   22.2340 H   0  0  0  0  0  0  0  0  0  0  0  0
  -22.8540  -14.5770   22.0880 H   0  0  0  0  0  0  0  0  0  0  0  0
  -27.2550  -16.1190   19.9920 N   0  0  0  0  0  0  0  0  0  0  0  0
  -26.5830  -16.8570   20.1650 H   0  0  0  0  0  0  0  0  0  0  0  0
  -28.1490  -16.4650   19.6660 H   0  0  0  0  0  0  0  0  0  0  0  0
  1  4  1  0
  1  2  1  0
  3  1  1  0
  5  6  1  0
  5  4  1  0
  7  6  1  0
  8  7  1  0
  8 10  1  0
  9 20  2  0
 10 15  1  0
 11 19  1  0
 11 21  1  0
 12 18  1  0
 12 14  1  0
 13 19  1  0
 14 13  1  0
 15 14  2  0
 16 17  1  0
 16 10  2  0
 17 12  2  0
 18 11  1  0
 19  9  1  0
 21 23  2  0
 22 21  1  0
 24 22  1  0
 25 34  2  0
 25 30  1  0
 26 22  1  0
 26 30  1  0
 27 26  1  0
 28 29  1  0
 28 27  1  0
 29 25  1  0
 30 31  2  0
 31 32  1  0
 33 32  2  0
 34 33  1  0
 35  9  1  0
 35 40  1  0
 35 36  1  0
 36 39  1  1
 36 37  1  0
 38 36  1  0
 40 43  1  0
 41 45  1  0
 41 40  1  0
 42 41  2  0
 45 44  1  0
 47 45  1  0
 47 48  1  0
 47 46  1  0
 49  1  1  0
 50 49  1  0
 51 50  1  0
 51 52  1  0
 53 52  1  0
 54 60  1  0
 54 62  1  0
 55 60  1  0
 56 57  1  0
 56 55  1  0
 58 57  1  0
 58 67  1  0
 58 59  1  0
 60 59  1  0
 61 54  2  0
 62 53  1  0
 63 62  1  0
 64 65  2  0
 65 84  1  0
 66 65  1  0
 66 69  1  0
 67 68  1  0
 67 64  1  0
 68 66  2  0
 69 70  1  0
 70 71  2  0
 72 75  1  0
 72 71  1  0
 73 72  2  0
 74 73  1  0
 74 69  2  0
 75 76  1  0
 76 81  2  0
 76 77  1  0
 77 78  2  0
 78 79  1  0
 79 83  1  0
 80 79  2  0
 81 80  1  0
 82 81  1  0
 84 85  1  0
 85 88  1  0
 85 87  1  0
 86 84  2  0
 89 64  1  0
 89 90  1  0
 91 89  1  0
M  ISO  4   7 101   8 101  54 100  62 100
M  END
>  <TORSDO>  (67) 
F 25

>  <SCORE>  (67) 
-9.021

>  <name>  (67) 
73

>  <ligand_id>  (67) 
73

>  <original_smiles>  (67) 
[H]c1c([H])c([H])c2c(c1[H])C([H])([H])C([H])([H])C([H])([H])C2([H])N([H])C(=O)C1([H])N(C(=O)C([H])(N([H])C(=O)C([H])(N([H])C([H])([H])[H])C([H])([H])[H])C(C([H])([H])[H])(C([H])([H])[H])C([H])([H])[H])C([H])([H])c2c([H])c(OC([H])([H])C([H])([H])OC([H])([H])[N+]([H])([H])C([H])([H])C([H])([H])C([H])([H])C([H])([H])C([H])([H])N([H])C(=O)N3C([H])([H])C([H])([H])C([H])([H])C([H])(n4nc(-c5c([H])c([H])c(Oc6c([H])c([H])c(F)c([H])c6F)c([H])c5[H])c(C(=O)N([H])[H])c4N([H])[H])C3([H])[H])c([H])c([H])c2C1([H])[H]

>  <smiles>  (67) 
[H]c1c([H])c([H])c2c(c1[H])C([H])([H])C([H])([H])C([H])([H])C2([H])N([H])C(=O)C1([H])N(C(=O)C([H])(N([H])C(=O)C([H])(N([H])C([H])([H])[H])C([H])([H])[H])C(C([H])([H])[H])(C([H])([H])[H])C([H])([H])[H])C([H])([H])c2c([H])c(OC([H])([H])C([H])([H])OC([H])([H])[N+]([H])([H])C([H])([H])C([H])([H])C([H])([H])C([H])([H])C([H])([H])N([H])C(=O)N3C([H])([H])C([H])([H])C([H])([H])C([H])(n4nc(-c5c([H])c([H])c(Oc6c([H])c([H])c(F)c([H])c6F)c([H])c5[H])c(C(=O)N([H])[H])c4N([H])[H])C3([H])[H])c([H])c([H])c2C1([H])[H]

$$$$
74:0:0
     RDKit          3D

107114  0  0  1  0  0  0  0  0999 V2000
  -27.5740  -12.9740   22.8840 C   0  0  0  0  0  3  0  0  0  0  0  0
  -28.0610  -14.4550   22.7570 C   0  0  0  0  0  2  0  0  0  0  0  0
  -28.8160  -15.9300   20.8200 C   0  0  0  0  0  0  0  0  0  0  0  0
  -28.1360  -14.8850   21.3410 N   0  0  0  0  0  0  0  0  0  0  0  0
  -29.4450  -16.7150   21.5370 O   0  0  0  0  0  0  0  0  0  0  0  0
  -27.6520  -14.3150   20.6600 H   0  0  0  0  0  0  0  0  0  0  0  0
  -28.7920  -16.1360   19.2780 C   0  0  0  0  0  2  0  0  0  0  0  0
  -29.6750  -17.2110   18.8570 O   0  0  0  0  0  0  0  0  0  0  0  0
  -29.0600  -18.3160   18.1390 C   0  0  0  0  0  2  0  0  0  0  0  0
  -30.0830  -19.2700   17.4130 C   0  0  0  0  0  2  0  0  0  0  0  0
  -29.6410  -20.6360   17.1210 O   0  0  0  0  0  0  0  0  0  0  0  0
  -30.6400  -21.4970   16.5000 C   0  0  0  0  0  2  0  0  0  0  0  0
  -30.5490  -23.0460   16.7730 C   0  0  0  0  0  2  0  0  0  0  0  0
  -30.4830  -23.9530   15.6220 O   0  0  0  0  0  0  0  0  0  0  0  0
  -25.7750  -27.0380   19.9040 C   0  0  0  0  0  0  0  0  0  0  0  0
  -29.4680  -24.8730   15.7240 C   0  0  0  0  0  0  0  0  0  0  0  0
  -25.2220  -27.0340   17.4930 C   0  0  0  0  0  3  0  0  0  0  0  0
  -27.1510  -26.4750   15.9140 C   0  0  0  0  0  0  0  0  0  0  0  0
  -27.6620  -27.1380   18.2690 C   0  0  0  0  0  2  0  0  0  0  0  0
  -28.0300  -26.3830   17.0060 C   0  0  0  0  0  0  0  0  0  0  0  0
  -29.1970  -25.5900   16.9140 C   0  0  0  0  0  3  0  0  0  0  0  0
  -28.6100  -25.0230   14.6190 C   0  0  0  0  0  3  0  0  0  0  0  0
  -27.4470  -25.8110   14.7110 C   0  0  0  0  0  3  0  0  0  0  0  0
  -25.8840  -27.2810   16.1100 C   0  0  0  0  0  2  0  0  0  0  0  0
  -26.2200  -27.0460   18.6170 N   0  0  0  0  0  0  0  0  0  0  0  0
  -24.5630  -27.0680   20.1710 O   0  0  0  0  0  0  0  0  0  0  0  0
  -24.3910  -25.7360   17.4290 C   0  0  0  0  0  0  0  0  0  0  0  0
  -23.2460  -25.7880   16.7260 N   0  0  0  0  0  0  0  0  0  0  0  0
  -24.7870  -24.7000   17.9730 O   0  0  0  0  0  0  0  0  0  0  0  0
  -22.9890  -26.6670   16.2950 H   0  0  0  0  0  0  0  0  0  0  0  0
  -20.1990  -24.8460   15.0390 C   0  0  0  0  0  0  0  0  0  0  0  0
  -22.3310  -24.6690   16.5030 C   0  0  0  0  0  3  0  0  0  0  0  0
  -22.8690  -23.7130   15.4170 C   0  0  0  0  0  2  0  0  0  0  0  0
  -22.3790  -24.0790   14.0100 C   0  0  0  0  0  2  0  0  0  0  0  0
  -20.8480  -24.0330   13.9290 C   0  0  0  0  0  2  0  0  0  0  0  0
  -20.9010  -25.1580   16.2340 C   0  0  0  0  0  0  0  0  0  0  0  0
  -20.2670  -25.9640   17.2070 C   0  0  0  0  0  3  0  0  0  0  0  0
  -18.9640  -26.4490   17.0020 C   0  0  0  0  0  3  0  0  0  0  0  0
  -18.2660  -26.1140   15.8270 C   0  0  0  0  0  3  0  0  0  0  0  0
  -18.8840  -25.3130   14.8510 C   0  0  0  0  0  3  0  0  0  0  0  0
  -26.7690  -27.0150   21.1090 C   0  0  0  0  0  3  0  0  0  0  0  0
  -27.1280  -25.5540   21.5940 C   0  0  1  0  0  0  0  0  0  0  0  0
  -25.8940  -24.6600   21.8370 C   0  0  0  0  0  1  0  0  0  0  0  0
  -28.0380  -24.8400   20.5650 C   0  0  0  0  0  1  0  0  0  0  0  0
  -27.9250  -25.6160   22.9180 C   0  0  0  0  0  1  0  0  0  0  0  0
  -26.1630  -27.7840   22.2070 N   0  0  0  0  0  0  0  0  0  0  0  0
  -26.5420  -29.0180   22.5650 C   0  0  0  0  0  0  0  0  0  0  0  0
  -27.5000  -29.5990   22.0520 O   0  0  0  0  0  0  0  0  0  0  0  0
  -25.3340  -27.3960   22.6290 H   0  0  0  0  0  0  0  0  0  0  0  0
  -24.7120  -30.6820   23.0290 C   0  0  0  0  0  1  0  0  0  0  0  0
  -25.7220  -29.7150   23.6630 C   0  0  0  0  0  3  0  0  0  0  0  0
  -27.3550  -29.5690   25.4920 C   0  0  0  0  0  1  0  0  0  0  0  0
  -26.5550  -30.4430   24.6410 N   0  0  0  0  0  0  0  0  0  0  0  0
  -25.9780  -31.0350   25.2340 H   0  0  0  0  0  0  0  0  0  0  0  0
  -28.0630  -12.0950   24.0970 C   0  0  0  0  0  3  0  0  0  0  0  0
  -27.7050  -10.5540   24.0520 C   0  0  0  0  0  2  0  0  0  0  0  0
  -28.8320   -9.4370   23.9340 C   0  0  0  0  0  2  0  0  0  0  0  0
  -28.6270   -8.0450   23.1700 C   0  0  0  0  0  2  0  0  0  0  0  0
  -28.3990   -7.0960   20.7410 C   0  0  0  0  0  0  0  0  0  0  0  0
  -28.4100   -8.0690   21.6960 N   0  0  0  0  0  0  0  0  0  0  0  0
  -28.5320   -5.9180   21.0850 O   0  0  0  0  0  0  0  0  0  0  0  0
  -28.0650   -8.9730   21.3550 H   0  0  0  0  0  0  0  0  0  0  0  0
  -28.3160   -7.4080   19.1720 C   0  0  0  0  0  2  0  0  0  0  0  0
  -27.8390   -8.7170   18.7230 O   0  0  0  0  0  0  0  0  0  0  0  0
  -28.2190   -9.1340   17.3590 C   0  0  0  0  0  2  0  0  0  0  0  0
  -28.3350  -10.6920   16.9810 C   0  0  0  0  0  2  0  0  0  0  0  0
  -29.1790  -11.6870   17.6820 O   0  0  0  0  0  0  0  0  0  0  0  0
  -30.6300  -11.8540   17.5110 C   0  0  0  0  0  2  0  0  0  0  0  0
  -31.3490  -12.9950   18.4210 C   0  0  0  0  0  2  0  0  0  0  0  0
  -32.2980  -12.6840   20.9640 C   0  0  0  0  0  0  0  0  0  0  0  0
  -31.9940  -10.3700   21.3970 C   0  0  0  0  0  2  0  0  0  0  0  0
  -31.4710   -9.8970   20.0620 C   0  0  0  0  0  2  0  0  0  0  0  0
  -29.9750  -10.2090   20.0020 C   0  0  0  0  0  2  0  0  0  0  0  0
  -29.3600  -11.5910   20.4590 C   0  0  0  0  0  3  0  0  0  0  0  0
  -30.0890  -11.8830   21.7560 C   0  0  0  0  0  2  0  0  0  0  0  0
  -31.5200  -11.7360   21.5140 N   0  0  0  0  0  0  0  0  0  0  0  0
  -33.3500  -13.0030   21.5110 O   0  0  0  0  0  0  0  0  0  0  0  0
  -32.2920  -12.6970   19.5840 N   0  0  0  0  0  0  0  0  0  0  0  0
  -33.2330  -12.9090   19.2960 H   0  0  0  0  0  0  0  0  0  0  0  0
  -26.9880  -12.6350   20.0850 C   0  0  0  0  0  0  0  0  0  0  0  0
  -25.7330  -12.1230   20.2680 C   0  0  0  0  0  0  0  0  0  0  0  0
  -25.9060  -10.8030   20.7670 C   0  0  0  0  0  0  0  0  0  0  0  0
  -27.8840  -11.6500   20.4860 N   0  0  0  0  0  0  0  0  0  0  0  0
  -27.1930  -10.6030   20.9580 N   0  0  0  0  0  0  0  0  0  0  0  0
  -24.9410   -9.7150   21.0490 C   0  0  0  0  0  0  0  0  0  0  0  0
  -25.0660   -8.8550   22.1650 C   0  0  0  0  0  3  0  0  0  0  0  0
  -24.1340   -7.8290   22.4180 C   0  0  0  0  0  3  0  0  0  0  0  0
  -23.0190   -7.6700   21.5680 C   0  0  0  0  0  0  0  0  0  0  0  0
  -22.8890   -8.5210   20.4530 C   0  0  0  0  0  3  0  0  0  0  0  0
  -23.8430   -9.5240   20.1930 C   0  0  0  0  0  3  0  0  0  0  0  0
  -22.0600   -6.6970   21.7440 O   0  0  0  0  0  0  0  0  0  0  0  0
  -21.9320   -6.0210   22.9300 C   0  0  0  0  0  0  0  0  0  0  0  0
  -21.6010   -6.6790   24.1380 C   0  0  0  0  0  3  0  0  0  0  0  0
  -21.4110   -5.9350   25.3220 C   0  0  0  0  0  3  0  0  0  0  0  0
  -21.5430   -4.5310   25.2960 C   0  0  0  0  0  0  0  0  0  0  0  0
  -21.8600   -3.8700   24.0960 C   0  0  0  0  0  3  0  0  0  0  0  0
  -22.0560   -4.6150   22.9180 C   0  0  0  0  0  0  0  0  0  0  0  0
  -22.3510   -3.9740   21.7630 F   0  0  0  0  0  0  0  0  0  0  0  0
  -21.3280   -3.8150   26.4200 F   0  0  0  0  0  0  0  0  0  0  0  0
  -24.4260  -12.7530   19.8940 C   0  0  0  0  0  0  0  0  0  0  0  0
  -23.3660  -12.4790   20.6320 N   0  0  0  0  0  0  0  0  0  0  0  0
  -24.3610  -13.5480   18.9540 O   0  0  0  0  0  0  0  0  0  0  0  0
  -23.3970  -11.8690   21.4340 H   0  0  0  0  0  0  0  0  0  0  0  0
  -22.4840  -12.9190   20.4210 H   0  0  0  0  0  0  0  0  0  0  0  0
  -27.4330  -13.8670   19.5970 N   0  0  0  0  0  0  0  0  0  0  0  0
  -26.7630  -14.5210   19.2060 H   0  0  0  0  0  0  0  0  0  0  0  0
  -28.3840  -14.0020   19.2780 H   0  0  0  0  0  0  0  0  0  0  0  0
  1 55  2  0
  2  1  1  0
  3  4  1  0
  3  5  2  0
  4  2  1  0
  6  4  1  0
  7  3  1  0
  8  7  1  0
  9  8  1  0
 10  9  1  0
 11 10  1  0
 12 13  1  0
 12 11  1  0
 14 16  1  0
 14 13  1  0
 15 26  2  0
 16 21  1  0
 17 27  1  0
 17 25  1  0
 18 24  1  0
 18 20  1  0
 19 25  1  0
 20 19  1  0
 21 20  2  0
 22 23  1  0
 22 16  2  0
 23 18  2  0
 24 17  1  0
 25 15  1  0
 27 29  2  0
 28 27  1  0
 30 28  1  0
 31 36  1  0
 32 28  1  0
 33 32  1  0
 34 33  1  0
 35 34  1  0
 35 31  1  0
 36 32  1  0
 36 37  2  0
 38 37  1  0
 39 38  2  0
 40 31  2  0
 40 39  1  0
 41 15  1  0
 41 42  1  0
 41 46  1  0
 42 43  1  1
 42 45  1  0
 44 42  1  0
 46 47  1  0
 46 49  1  0
 47 51  1  0
 48 47  2  0
 51 50  1  0
 51 53  1  0
 53 54  1  0
 53 52  1  0
 56 55  1  0
 57 56  1  0
 58 57  1  0
 59 61  2  0
 59 60  1  0
 60 58  1  0
 62 60  1  0
 63 59  1  0
 64 63  1  0
 65 64  1  0
 66 65  1  0
 66 67  1  0
 68 67  1  0
 68 69  1  0
 69 78  1  0
 70 77  2  0
 70 76  1  0
 71 76  1  0
 72 71  1  0
 73 72  1  0
 74 73  1  0
 74 83  1  0
 74 75  1  0
 76 75  1  0
 78 70  1  0
 79 78  1  0
 80 81  2  0
 80 83  1  0
 81 82  1  0
 82 84  2  0
 82 85  1  0
 83 84  1  0
 85 86  1  0
 86 87  2  0
 88 91  1  0
 88 87  1  0
 89 88  2  0
 90 89  1  0
 90 85  2  0
 91 92  1  0
 92 93  1  0
 93 94  2  0
 95 94  1  0
 95 99  1  0
 96 95  2  0
 97 92  2  0
 97 96  1  0
 98 97  1  0
100 81  1  0
100101  1  0
101103  1  0
102100  2  0
104101  1  0
105 80  1  0
106105  1  0
107105  1  0
M  ISO  4  13 101  14 101  70 100  78 100
M  END
>  <TORSDO>  (68) 
F 37

>  <SCORE>  (68) 
2.326

>  <name>  (68) 
74

>  <ligand_id>  (68) 
74

>  <original_smiles>  (68) 
[H]c1c([H])c([H])c2c(c1[H])C([H])([H])C([H])([H])C([H])([H])C2([H])N([H])C(=O)C1([H])N(C(=O)C([H])(N([H])C(=O)C([H])(N([H])C([H])([H])[H])C([H])([H])[H])C(C([H])([H])[H])(C([H])([H])[H])C([H])([H])[H])C([H])([H])c2c([H])c(OC([H])([H])C([H])([H])OC([H])([H])C([H])([H])OC([H])([H])C(=O)N([H])C([H])([H])C([H])([H])C([H])([H])C([H])([H])C([H])([H])C([H])([H])N([H])C(=O)C([H])([H])OC([H])([H])C([H])([H])OC([H])([H])C([H])([H])N([H])C(=O)N3C([H])([H])C([H])([H])C([H])([H])C([H])(n4nc(-c5c([H])c([H])c(Oc6c([H])c([H])c(F)c([H])c6F)c([H])c5[H])c(C(=O)N([H])[H])c4N([H])[H])C3([H])[H])c([H])c([H])c2C1([H])[H]

>  <smiles>  (68) 
[H]c1c([H])c([H])c2c(c1[H])C([H])([H])C([H])([H])C([H])([H])C2([H])N([H])C(=O)C1([H])N(C(=O)C([H])(N([H])C(=O)C([H])(N([H])C([H])([H])[H])C([H])([H])[H])C(C([H])([H])[H])(C([H])([H])[H])C([H])([H])[H])C([H])([H])c2c([H])c(OC([H])([H])C([H])([H])OC([H])([H])C([H])([H])OC([H])([H])C(=O)N([H])C([H])([H])C([H])([H])C([H])([H])C([H])([H])C([H])([H])C([H])([H])N([H])C(=O)C([H])([H])OC([H])([H])C([H])([H])OC([H])([H])C([H])([H])N([H])C(=O)N3C([H])([H])C([H])([H])C([H])([H])C([H])(n4nc(-c5c([H])c([H])c(Oc6c([H])c([H])c(F)c([H])c6F)c([H])c5[H])c(C(=O)N([H])[H])c4N([H])[H])C3([H])[H])c([H])c([H])c2C1([H])[H]

$$$$
75:0:0
     RDKit          3D

 97105  0  0  1  0  0  0  0  0999 V2000
  -28.2820  -24.4620   19.7960 C   0  0  0  0  0  0  0  0  0  0  0  0
  -27.2260  -21.1370   19.7860 C   0  0  0  0  0  2  0  0  0  0  0  0
  -27.1090  -21.8850   17.3490 C   0  0  0  0  0  2  0  0  0  0  0  0
  -26.6320  -22.5560   19.9370 C   0  0  0  0  0  2  0  0  0  0  0  0
  -27.4510  -23.3370   17.7630 C   0  0  0  0  0  2  0  0  0  0  0  0
  -27.7070  -20.8470   18.3320 C   0  0  0  0  0  3  0  0  0  0  0  0
  -27.4900  -23.5160   19.2280 N   0  0  0  0  0  0  0  0  0  0  0  0
  -28.9400  -25.2520   19.1120 O   0  0  0  0  0  0  0  0  0  0  0  0
  -27.3740  -19.4220   17.8600 C   0  0  0  0  0  0  0  0  0  0  0  0
  -28.3550  -18.7230   17.2720 N   0  0  0  0  0  0  0  0  0  0  0  0
  -26.2380  -18.9680   18.0060 O   0  0  0  0  0  0  0  0  0  0  0  0
  -29.2530  -19.1760   17.1610 H   0  0  0  0  0  0  0  0  0  0  0  0
  -28.2000  -17.4020   16.6650 C   0  0  0  0  0  2  0  0  0  0  0  0
  -29.4760  -16.5480   16.8010 C   0  0  0  0  0  2  0  0  0  0  0  0
  -30.7800  -17.3480   16.6460 C   0  0  0  0  0  2  0  0  0  0  0  0
  -32.0320  -16.4560   16.5210 C   0  0  0  0  0  2  0  0  0  0  0  0
  -33.3310  -17.1200   17.0270 C   0  0  0  0  0  2  0  0  0  0  0  0
  -34.6180  -19.1380   16.4960 C   0  0  0  0  0  0  0  0  0  0  0  0
  -36.3430  -19.9060   14.9180 C   0  0  0  0  0  2  0  0  0  0  0  0
  -35.8260  -21.0930   14.0850 C   0  0  0  0  0  2  0  0  0  0  0  0
  -35.0580  -20.6070   12.8420 C   0  0  0  0  0  2  0  0  0  0  0  0
  -33.9950  -19.5290   13.1800 C   0  0  0  0  0  3  0  0  0  0  0  0
  -34.6140  -18.4280   14.0700 C   0  0  0  0  0  2  0  0  0  0  0  0
  -35.1940  -19.0610   15.2690 N   0  0  0  0  0  0  0  0  0  0  0  0
  -35.0540  -19.8320   17.4160 O   0  0  0  0  0  0  0  0  0  0  0  0
  -33.4410  -18.5250   16.6400 N   0  0  0  0  0  0  0  0  0  0  0  0
  -32.8440  -19.0890   17.2260 H   0  0  0  0  0  0  0  0  0  0  0  0
  -32.0660  -18.9090   11.5880 C   0  0  0  0  0  0  0  0  0  0  0  0
  -32.0550  -18.3520   10.3370 C   0  0  0  0  0  0  0  0  0  0  0  0
  -33.4230  -18.1060   10.0040 C   0  0  0  0  0  0  0  0  0  0  0  0
  -33.3980  -18.9690   11.9660 N   0  0  0  0  0  0  0  0  0  0  0  0
  -34.2110  -18.4350   11.0180 N   0  0  0  0  0  0  0  0  0  0  0  0
  -34.0350  -17.6330    8.7550 C   0  0  0  0  0  0  0  0  0  0  0  0
  -34.9660  -16.5710    8.7440 C   0  0  0  0  0  3  0  0  0  0  0  0
  -35.5230  -16.1230    7.5260 C   0  0  0  0  0  3  0  0  0  0  0  0
  -35.1490  -16.7340    6.3060 C   0  0  0  0  0  0  0  0  0  0  0  0
  -34.2430  -17.8090    6.3250 C   0  0  0  0  0  3  0  0  0  0  0  0
  -33.6930  -18.2560    7.5380 C   0  0  0  0  0  3  0  0  0  0  0  0
  -35.6550  -16.3780    5.0800 O   0  0  0  0  0  0  0  0  0  0  0  0
  -36.1330  -15.1160    4.8350 C   0  0  0  0  0  0  0  0  0  0  0  0
  -35.3410  -13.9660    5.0420 C   0  0  0  0  0  3  0  0  0  0  0  0
  -35.8460  -12.6940    4.7090 C   0  0  0  0  0  3  0  0  0  0  0  0
  -37.1380  -12.5700    4.1660 C   0  0  0  0  0  0  0  0  0  0  0  0
  -37.9300  -13.7140    3.9590 C   0  0  0  0  0  3  0  0  0  0  0  0
  -37.4260  -14.9830    4.2890 C   0  0  0  0  0  0  0  0  0  0  0  0
  -38.1820  -16.0850    4.0640 F   0  0  0  0  0  0  0  0  0  0  0  0
  -37.6210  -11.3500    3.8390 F   0  0  0  0  0  0  0  0  0  0  0  0
  -30.8580  -18.1530    9.4540 C   0  0  0  0  0  0  0  0  0  0  0  0
  -30.8940  -17.1490    8.5840 N   0  0  0  0  0  0  0  0  0  0  0  0
  -29.8600  -18.8640    9.5600 O   0  0  0  0  0  0  0  0  0  0  0  0
  -31.7140  -16.5680    8.4900 H   0  0  0  0  0  0  0  0  0  0  0  0
  -30.1030  -16.9780    7.9810 H   0  0  0  0  0  0  0  0  0  0  0  0
  -31.0600  -19.3850   12.4220 N   0  0  0  0  0  0  0  0  0  0  0  0
  -30.0840  -19.4010   12.1430 H   0  0  0  0  0  0  0  0  0  0  0  0
  -31.2190  -19.7990   13.3310 H   0  0  0  0  0  0  0  0  0  0  0  0
  -28.3910  -24.5970   21.3300 C   0  0  0  0  0  2  0  0  0  0  0  0
  -28.7060  -25.9430   21.6920 O   0  0  0  0  0  0  0  0  0  0  0  0
  -24.2660  -27.9000   26.8780 C   0  0  0  0  0  0  0  0  0  0  0  0
  -27.6470  -26.7350   22.0620 C   0  0  0  0  0  0  0  0  0  0  0  0
  -23.7620  -28.8160   24.6330 C   0  0  0  0  0  3  0  0  0  0  0  0
  -25.5620  -28.4570   22.8660 C   0  0  0  0  0  0  0  0  0  0  0  0
  -26.1560  -28.1960   25.2830 C   0  0  0  0  0  2  0  0  0  0  0  0
  -26.4040  -27.8780   23.8250 C   0  0  0  0  0  0  0  0  0  0  0  0
  -27.4490  -27.0210   23.4270 C   0  0  0  0  0  3  0  0  0  0  0  0
  -26.7930  -27.3240   21.1020 C   0  0  0  0  0  3  0  0  0  0  0  0
  -25.7480  -28.1790   21.5010 C   0  0  0  0  0  3  0  0  0  0  0  0
  -24.4790  -29.3790   23.3760 C   0  0  0  0  0  2  0  0  0  0  0  0
  -24.7200  -28.2600   25.6440 N   0  0  0  0  0  0  0  0  0  0  0  0
  -23.0800  -28.0680   27.1960 O   0  0  0  0  0  0  0  0  0  0  0  0
  -22.7000  -27.7930   24.1700 C   0  0  0  0  0  0  0  0  0  0  0  0
  -21.5780  -28.2990   23.6340 N   0  0  0  0  0  0  0  0  0  0  0  0
  -22.9050  -26.5790   24.2690 O   0  0  0  0  0  0  0  0  0  0  0  0
  -21.4810  -29.3030   23.5980 H   0  0  0  0  0  0  0  0  0  0  0  0
  -18.3630  -28.5840   22.0170 C   0  0  0  0  0  0  0  0  0  0  0  0
  -20.4590  -27.5260   23.0970 C   0  0  0  0  0  3  0  0  0  0  0  0
  -20.7840  -26.9780   21.6890 C   0  0  0  0  0  2  0  0  0  0  0  0
  -20.3170  -27.9020   20.5600 C   0  0  0  0  0  2  0  0  0  0  0  0
  -18.8040  -28.1230   20.6380 C   0  0  0  0  0  2  0  0  0  0  0  0
  -19.1480  -28.3170   23.1690 C   0  0  0  0  0  0  0  0  0  0  0  0
  -18.7110  -28.8020   24.4210 C   0  0  0  0  0  3  0  0  0  0  0  0
  -17.5120  -29.5330   24.5320 C   0  0  0  0  0  3  0  0  0  0  0  0
  -16.7320  -29.7790   23.3890 C   0  0  0  0  0  3  0  0  0  0  0  0
  -17.1550  -29.3020   22.1380 C   0  0  0  0  0  3  0  0  0  0  0  0
  -25.2170  -27.2910   27.9550 C   0  0  0  0  0  3  0  0  0  0  0  0
  -24.7900  -27.8070   29.2630 N   0  0  0  0  0  0  0  0  0  0  0  0
  -25.3930  -28.8080   29.9210 C   0  0  0  0  0  0  0  0  0  0  0  0
  -26.4240  -29.3510   29.5130 O   0  0  0  0  0  0  0  0  0  0  0  0
  -23.9250  -27.4420   29.6330 H   0  0  0  0  0  0  0  0  0  0  0  0
  -23.9410  -30.5620   30.9850 C   0  0  0  0  0  1  0  0  0  0  0  0
  -24.7510  -29.2800   31.2390 C   0  0  0  0  0  3  0  0  0  0  0  0
  -26.3650  -28.2900   32.8000 C   0  0  0  0  0  1  0  0  0  0  0  0
  -25.7300  -29.5150   32.3210 N   0  0  0  0  0  0  0  0  0  0  0  0
  -25.2880  -29.9700   33.1150 H   0  0  0  0  0  0  0  0  0  0  0  0
  -25.2320  -25.7140   27.9510 C   0  0  1  0  0  0  0  0  0  0  0  0
  -23.8250  -25.0780   28.0280 C   0  0  0  0  0  1  0  0  0  0  0  0
  -25.9200  -25.1800   26.6740 C   0  0  0  0  0  1  0  0  0  0  0  0
  -26.0580  -25.1930   29.1510 C   0  0  0  0  0  1  0  0  0  0  0  0
  1 56  1  0
  2  4  1  0
  3  5  1  0
  3  6  1  0
  5  7  1  0
  6  9  1  0
  6  2  1  0
  7  1  1  0
  7  4  1  0
  8  1  2  0
  9 11  2  0
 10  9  1  0
 12 10  1  0
 13 14  1  0
 13 10  1  0
 15 14  1  0
 16 15  1  0
 16 17  1  0
 18 26  1  0
 18 25  2  0
 19 24  1  0
 20 19  1  0
 21 22  1  0
 21 20  1  0
 22 31  1  0
 22 23  1  0
 23 24  1  0
 24 18  1  0
 26 17  1  0
 26 27  1  0
 28 31  1  0
 28 53  1  0
 29 28  2  0
 30 29  1  0
 30 32  2  0
 32 31  1  0
 33 30  1  0
 34 33  1  0
 35 34  2  0
 36 37  2  0
 36 35  1  0
 37 38  1  0
 38 33  2  0
 39 36  1  0
 40 41  1  0
 40 39  1  0
 42 41  2  0
 43 42  1  0
 44 43  2  0
 44 45  1  0
 45 40  2  0
 46 45  1  0
 47 43  1  0
 48 50  2  0
 48 29  1  0
 49 48  1  0
 51 49  1  0
 52 49  1  0
 53 55  1  0
 54 53  1  0
 56 57  1  0
 57 59  1  0
 58 69  2  0
 59 64  1  0
 60 70  1  0
 60 68  1  0
 61 67  1  0
 61 63  1  0
 62 68  1  0
 63 62  1  0
 64 63  2  0
 65 66  1  0
 65 59  2  0
 66 61  2  0
 67 60  1  0
 68 58  1  0
 70 72  2  0
 71 70  1  0
 73 71  1  0
 74 83  2  0
 74 79  1  0
 75 79  1  0
 75 71  1  0
 76 75  1  0
 77 78  1  0
 77 76  1  0
 78 74  1  0
 79 80  2  0
 80 81  1  0
 82 81  2  0
 83 82  1  0
 84 58  1  0
 84 85  1  0
 85 88  1  0
 85 86  1  0
 86 90  1  0
 87 86  2  0
 90 89  1  0
 90 92  1  0
 92 91  1  0
 92 93  1  0
 94 84  1  0
 94 95  1  1
 94 97  1  0
 96 94  1  0
M  ISO  4  18 100  26 100  56 101  57 101
M  END
>  <TORSDO>  (69) 
F 23

>  <SCORE>  (69) 
8.227

>  <name>  (69) 
75

>  <ligand_id>  (69) 
75

>  <original_smiles>  (69) 
[H]c1c([H])c([H])c2c(c1[H])C([H])([H])C([H])([H])C([H])([H])C2([H])N([H])C(=O)C1([H])N(C(=O)C([H])(N([H])C(=O)C([H])(N([H])C([H])([H])[H])C([H])([H])[H])C(C([H])([H])[H])(C([H])([H])[H])C([H])([H])[H])C([H])([H])c2c([H])c(OC([H])([H])C(=O)N3C([H])([H])C([H])([H])C([H])(C(=O)N([H])C([H])([H])C([H])([H])C([H])([H])C([H])([H])C([H])([H])N([H])C(=O)N4C([H])([H])C([H])([H])C([H])([H])C([H])(n5nc(-c6c([H])c([H])c(Oc7c([H])c([H])c(F)c([H])c7F)c([H])c6[H])c(C(=O)N([H])[H])c5N([H])[H])C4([H])[H])C([H])([H])C3([H])[H])c([H])c([H])c2C1([H])[H]

>  <smiles>  (69) 
[H]c1c([H])c([H])c2c(c1[H])C([H])([H])C([H])([H])C([H])([H])C2([H])N([H])C(=O)C1([H])N(C(=O)C([H])(N([H])C(=O)C([H])(N([H])C([H])([H])[H])C([H])([H])[H])C(C([H])([H])[H])(C([H])([H])[H])C([H])([H])[H])C([H])([H])c2c([H])c(OC([H])([H])C(=O)N3C([H])([H])C([H])([H])C([H])(C(=O)N([H])C([H])([H])C([H])([H])C([H])([H])C([H])([H])C([H])([H])N([H])C(=O)N4C([H])([H])C([H])([H])C([H])([H])C([H])(n5nc(-c6c([H])c([H])c(Oc7c([H])c([H])c(F)c([H])c7F)c([H])c6[H])c(C(=O)N([H])[H])c5N([H])[H])C4([H])[H])C([H])([H])C3([H])[H])c([H])c([H])c2C1([H])[H]

$$$$
76:0:0
     RDKit          3D

 99107  0  0  1  0  0  0  0  0999 V2000
  -34.7310  -22.5390   20.1680 C   0  0  0  0  0  2  0  0  0  0  0  0
  -32.6340  -23.6020   19.2730 C   0  0  0  0  0  0  0  0  0  0  0  0
  -33.9560  -23.3920   19.2570 N   0  0  0  0  0  0  0  0  0  0  0  0
  -31.9020  -23.0320   20.0880 O   0  0  0  0  0  0  0  0  0  0  0  0
  -34.4870  -23.9070   18.5650 H   0  0  0  0  0  0  0  0  0  0  0  0
  -32.0620  -24.5250   18.1820 C   0  0  0  0  0  2  0  0  0  0  0  0
  -30.6420  -24.6790   18.2870 O   0  0  0  0  0  0  0  0  0  0  0  0
  -30.2350  -25.6470   19.2490 C   0  0  0  0  0  2  0  0  0  0  0  0
  -28.7070  -25.8080   19.2630 C   0  0  0  0  0  2  0  0  0  0  0  0
  -28.4420  -26.8500   20.1910 O   0  0  0  0  0  0  0  0  0  0  0  0
  -24.5700  -31.9050   23.2590 C   0  0  0  0  0  0  0  0  0  0  0  0
  -27.2310  -27.4980   20.1640 C   0  0  0  0  0  0  0  0  0  0  0  0
  -23.3610  -30.5000   21.6150 C   0  0  0  0  0  3  0  0  0  0  0  0
  -24.8160  -28.9610   20.1920 C   0  0  0  0  0  0  0  0  0  0  0  0
  -25.8810  -30.8700   21.4150 C   0  0  0  0  0  2  0  0  0  0  0  0
  -25.9670  -29.4990   20.7800 C   0  0  0  0  0  0  0  0  0  0  0  0
  -27.1690  -28.7670   20.7760 C   0  0  0  0  0  3  0  0  0  0  0  0
  -26.0640  -26.9620   19.5750 C   0  0  0  0  0  3  0  0  0  0  0  0
  -24.8560  -27.6880   19.5960 C   0  0  0  0  0  3  0  0  0  0  0  0
  -23.5680  -29.8130   20.2370 C   0  0  0  0  0  2  0  0  0  0  0  0
  -24.6210  -31.1070   22.1560 N   0  0  0  0  0  0  0  0  0  0  0  0
  -23.4900  -32.1760   23.8040 O   0  0  0  0  0  0  0  0  0  0  0  0
  -22.7150  -29.4800   22.5790 C   0  0  0  0  0  0  0  0  0  0  0  0
  -21.3940  -29.2860   22.4450 N   0  0  0  0  0  0  0  0  0  0  0  0
  -23.4010  -28.8640   23.4010 O   0  0  0  0  0  0  0  0  0  0  0  0
  -20.9010  -29.8400   21.7580 H   0  0  0  0  0  0  0  0  0  0  0  0
  -18.0300  -28.0550   22.9100 C   0  0  0  0  0  0  0  0  0  0  0  0
  -20.5790  -28.3460   23.2150 C   0  0  0  0  0  3  0  0  0  0  0  0
  -20.7070  -26.9100   22.6560 C   0  0  0  0  0  2  0  0  0  0  0  0
  -19.6250  -26.5640   21.6290 C   0  0  0  0  0  2  0  0  0  0  0  0
  -18.2320  -26.7000   22.2510 C   0  0  0  0  0  2  0  0  0  0  0  0
  -19.1330  -28.8350   23.3470 C   0  0  0  0  0  0  0  0  0  0  0  0
  -18.8920  -30.1020   23.9210 C   0  0  0  0  0  3  0  0  0  0  0  0
  -17.5790  -30.5910   24.0610 C   0  0  0  0  0  3  0  0  0  0  0  0
  -16.4890  -29.8080   23.6420 C   0  0  0  0  0  3  0  0  0  0  0  0
  -16.7160  -28.5410   23.0730 C   0  0  0  0  0  3  0  0  0  0  0  0
  -25.8580  -32.5370   23.8750 C   0  0  0  0  0  3  0  0  0  0  0  0
  -25.5550  -33.9380   24.1950 N   0  0  0  0  0  0  0  0  0  0  0  0
  -25.8920  -34.9850   23.4290 C   0  0  0  0  0  0  0  0  0  0  0  0
  -26.5650  -34.8720   22.3990 O   0  0  0  0  0  0  0  0  0  0  0  0
  -24.9670  -34.1010   24.9980 H   0  0  0  0  0  0  0  0  0  0  0  0
  -24.1710  -36.7820   23.0560 C   0  0  0  0  0  1  0  0  0  0  0  0
  -25.4070  -36.3760   23.8760 C   0  0  0  0  0  3  0  0  0  0  0  0
  -27.5400  -37.2590   24.7100 C   0  0  0  0  0  1  0  0  0  0  0  0
  -26.4410  -37.4270   23.7640 N   0  0  0  0  0  0  0  0  0  0  0  0
  -26.0350  -38.3460   23.9140 H   0  0  0  0  0  0  0  0  0  0  0  0
  -26.3810  -31.7750   25.1550 C   0  0  1  0  0  0  0  0  0  0  0  0
  -25.2920  -31.5460   26.2300 C   0  0  0  0  0  1  0  0  0  0  0  0
  -26.9590  -30.3930   24.7670 C   0  0  0  0  0  1  0  0  0  0  0  0
  -27.5320  -32.5730   25.8090 C   0  0  0  0  0  1  0  0  0  0  0  0
  -34.6050  -21.0320   19.8560 C   0  0  0  0  0  2  0  0  0  0  0  0
  -30.4160  -17.5760   20.2740 C   0  0  0  0  0  0  0  0  0  0  0  0
  -31.5140  -19.4670   21.5250 C   0  0  0  0  0  2  0  0  0  0  0  0
  -31.1070  -19.6580   19.1310 C   0  0  0  0  0  2  0  0  0  0  0  0
  -33.0080  -19.7930   21.3170 C   0  0  0  0  0  2  0  0  0  0  0  0
  -32.6060  -19.9040   18.8770 C   0  0  0  0  0  2  0  0  0  0  0  0
  -30.9620  -18.8160   20.3250 N   0  0  0  0  0  0  0  0  0  0  0  0
  -33.2150  -20.5600   20.0610 N   0  0  2  0  0  4  0  0  0  0  0  0
  -29.8990  -17.1300   19.2450 O   0  0  0  0  0  0  0  0  0  0  0  0
  -32.6880  -21.4260   20.1740 H   0  0  0  0  0  0  0  0  0  0  0  0
  -30.4370  -16.6960   21.5390 C   0  0  0  0  0  2  0  0  0  0  0  0
  -30.6830  -14.4140   20.5440 C   0  0  0  0  0  0  0  0  0  0  0  0
  -30.3560  -12.3410   19.2520 C   0  0  0  0  0  2  0  0  0  0  0  0
  -29.4020  -12.6150   18.0730 C   0  0  0  0  0  2  0  0  0  0  0  0
  -27.9290  -12.4760   18.5090 C   0  0  0  0  0  2  0  0  0  0  0  0
  -27.6150  -13.2600   19.8120 C   0  0  0  0  0  3  0  0  0  0  0  0
  -28.6710  -12.9430   20.8930 C   0  0  0  0  0  2  0  0  0  0  0  0
  -29.9990  -13.2600   20.3390 N   0  0  0  0  0  0  0  0  0  0  0  0
  -31.7680  -14.6710   20.0160 O   0  0  0  0  0  0  0  0  0  0  0  0
  -30.0380  -15.3070   21.3070 N   0  0  0  0  0  0  0  0  0  0  0  0
  -29.1450  -15.0200   21.6770 H   0  0  0  0  0  0  0  0  0  0  0  0
  -25.2100  -13.8670   20.5060 C   0  0  0  0  0  0  0  0  0  0  0  0
  -24.1440  -13.0920   20.8780 C   0  0  0  0  0  0  0  0  0  0  0  0
  -24.6100  -11.7410   20.8540 C   0  0  0  0  0  0  0  0  0  0  0  0
  -26.2600  -12.9880   20.2850 N   0  0  0  0  0  0  0  0  0  0  0  0
  -25.9010  -11.7070   20.5460 N   0  0  0  0  0  0  0  0  0  0  0  0
  -23.8900  -10.4770   21.0480 C   0  0  0  0  0  0  0  0  0  0  0  0
  -24.3340   -9.5100   21.9780 C   0  0  0  0  0  3  0  0  0  0  0  0
  -23.6160   -8.3080   22.1580 C   0  0  0  0  0  3  0  0  0  0  0  0
  -22.4390   -8.0660   21.4110 C   0  0  0  0  0  0  0  0  0  0  0  0
  -22.0150   -9.0200   20.4700 C   0  0  0  0  0  3  0  0  0  0  0  0
  -22.7350  -10.2130   20.2860 C   0  0  0  0  0  3  0  0  0  0  0  0
  -21.6890   -6.9190   21.5040 O   0  0  0  0  0  0  0  0  0  0  0  0
  -21.6570   -6.1690   22.6530 C   0  0  0  0  0  0  0  0  0  0  0  0
  -21.2550   -6.7180   23.8900 C   0  0  0  0  0  3  0  0  0  0  0  0
  -21.1740   -5.8950   25.0320 C   0  0  0  0  0  3  0  0  0  0  0  0
  -21.4840   -4.5250   24.9350 C   0  0  0  0  0  0  0  0  0  0  0  0
  -21.8780   -3.9760   23.7020 C   0  0  0  0  0  3  0  0  0  0  0  0
  -21.9610   -4.7960   22.5640 C   0  0  0  0  0  0  0  0  0  0  0  0
  -22.3220   -4.2590   21.3740 F   0  0  0  0  0  0  0  0  0  0  0  0
  -21.3970   -3.7310   26.0280 F   0  0  0  0  0  0  0  0  0  0  0  0
  -22.7440  -13.5620   21.1510 C   0  0  0  0  0  0  0  0  0  0  0  0
  -22.0210  -12.8640   22.0210 N   0  0  0  0  0  0  0  0  0  0  0  0
  -22.3000  -14.5830   20.6280 O   0  0  0  0  0  0  0  0  0  0  0  0
  -22.3910  -12.0360   22.4660 H   0  0  0  0  0  0  0  0  0  0  0  0
  -21.0800  -13.1600   22.2460 H   0  0  0  0  0  0  0  0  0  0  0  0
  -25.3720  -15.2370   20.3220 N   0  0  0  0  0  0  0  0  0  0  0  0
  -24.6070  -15.8940   20.4260 H   0  0  0  0  0  0  0  0  0  0  0  0
  -26.2280  -15.6700   19.9970 H   0  0  0  0  0  0  0  0  0  0  0  0
  2  4  2  0
  3  2  1  0
  3  1  1  0
  5  3  1  0
  6  7  1  0
  6  2  1  0
  7  8  1  0
  8  9  1  0
  9 10  1  0
 11 22  2  0
 12 10  1  0
 12 17  1  0
 13 21  1  0
 13 23  1  0
 14 20  1  0
 14 16  1  0
 15 21  1  0
 16 15  1  0
 17 16  2  0
 18 19  1  0
 18 12  2  0
 19 14  2  0
 20 13  1  0
 21 11  1  0
 23 25  2  0
 24 23  1  0
 26 24  1  0
 27 36  2  0
 27 32  1  0
 28 24  1  0
 28 32  1  0
 29 28  1  0
 30 31  1  0
 30 29  1  0
 31 27  1  0
 32 33  2  0
 33 34  1  0
 35 34  2  0
 36 35  1  0
 37 11  1  0
 37 38  1  0
 37 47  1  0
 38 41  1  0
 39 43  1  0
 39 38  1  0
 40 39  2  0
 43 42  1  0
 45 43  1  0
 45 46  1  0
 45 44  1  0
 47 50  1  1
 47 48  1  0
 49 47  1  0
 51 58  1  0
 51  1  1  0
 52 57  1  0
 52 61  1  0
 54 57  1  0
 55 53  1  0
 56 54  1  0
 56 58  1  0
 57 53  1  0
 58 60  1  1
 58 55  1  0
 59 52  2  0
 62 70  1  0
 63 68  1  0
 64 65  1  0
 64 63  1  0
 66 65  1  0
 66 75  1  0
 66 67  1  0
 68 62  1  0
 68 67  1  0
 69 62  2  0
 70 61  1  0
 70 71  1  0
 72 73  2  0
 73 92  1  0
 74 73  1  0
 74 77  1  0
 75 72  1  0
 75 76  1  0
 76 74  2  0
 77 78  1  0
 78 79  2  0
 80 83  1  0
 80 79  1  0
 81 80  2  0
 82 81  1  0
 82 77  2  0
 83 84  1  0
 84 85  1  0
 85 86  2  0
 87 86  1  0
 87 91  1  0
 88 87  2  0
 89 84  2  0
 89 88  1  0
 90 89  1  0
 92 93  1  0
 93 96  1  0
 93 95  1  0
 94 92  2  0
 97 98  1  0
 97 72  1  0
 99 97  1  0
M  ISO  4   9 101  10 101  62 100  70 100
M  END
>  <TORSDO>  (70) 
F 24

>  <SCORE>  (70) 
-12.711

>  <name>  (70) 
76

>  <ligand_id>  (70) 
76

>  <original_smiles>  (70) 
[H]c1c([H])c([H])c2c(c1[H])C([H])([H])C([H])([H])C([H])([H])C2([H])N([H])C(=O)C1([H])N(C(=O)C([H])(N([H])C(=O)C([H])(N([H])C([H])([H])[H])C([H])([H])[H])C(C([H])([H])[H])(C([H])([H])[H])C([H])([H])[H])C([H])([H])c2c([H])c(OC([H])([H])C([H])([H])OC([H])([H])C(=O)N([H])C([H])([H])C([H])([H])[N+]3([H])C([H])([H])C([H])([H])N(C(=O)C([H])([H])N([H])C(=O)N4C([H])([H])C([H])([H])C([H])([H])C([H])(n5nc(-c6c([H])c([H])c(Oc7c([H])c([H])c(F)c([H])c7F)c([H])c6[H])c(C(=O)N([H])[H])c5N([H])[H])C4([H])[H])C([H])([H])C3([H])[H])c([H])c([H])c2C1([H])[H]

>  <smiles>  (70) 
[H]c1c([H])c([H])c2c(c1[H])C([H])([H])C([H])([H])C([H])([H])C2([H])N([H])C(=O)C1([H])N(C(=O)C([H])(N([H])C(=O)C([H])(N([H])C([H])([H])[H])C([H])([H])[H])C(C([H])([H])[H])(C([H])([H])[H])C([H])([H])[H])C([H])([H])c2c([H])c(OC([H])([H])C([H])([H])OC([H])([H])C(=O)N([H])C([H])([H])C([H])([H])[N+]3([H])C([H])([H])C([H])([H])N(C(=O)C([H])([H])N([H])C(=O)N4C([H])([H])C([H])([H])C([H])([H])C([H])(n5nc(-c6c([H])c([H])c(Oc7c([H])c([H])c(F)c([H])c7F)c([H])c6[H])c(C(=O)N([H])[H])c5N([H])[H])C4([H])[H])C([H])([H])C3([H])[H])c([H])c([H])c2C1([H])[H]

$$$$
77:0:0
     RDKit          3D

108117  0  0  1  0  0  0  0  0999 V2000
  -31.2380  -22.6760   20.6870 C   0  0  0  0  0  0  0  0  0  0  0  0
  -32.5000  -23.0940   20.5190 N   0  0  0  0  0  0  0  0  0  0  0  0
  -30.2600  -23.2570   20.2070 O   0  0  0  0  0  0  0  0  0  0  0  0
  -33.2080  -22.5620   21.0090 H   0  0  0  0  0  0  0  0  0  0  0  0
  -29.3480  -20.1170   20.3340 C   0  0  0  0  0  0  0  0  0  0  0  0
  -29.7950  -21.9210   23.5490 C   0  0  0  0  0  2  0  0  0  0  0  0
  -31.2190  -21.7210   23.0530 C   0  0  0  0  0  2  0  0  0  0  0  0
  -28.9510  -21.0200   22.6460 C   0  0  0  0  0  2  0  0  0  0  0  0
  -31.0720  -21.4150   21.5540 C   0  0  0  0  0  3  0  0  0  0  0  0
  -29.7400  -20.8100   21.4270 N   0  0  0  0  0  0  0  0  0  0  0  0
  -30.0930  -19.9560   19.3620 O   0  0  0  0  0  0  0  0  0  0  0  0
  -28.5370  -17.2520   19.2850 C   0  0  0  0  0  0  0  0  0  0  0  0
  -26.8070  -21.1300   18.7160 C   0  0  0  0  0  2  0  0  0  0  0  0
  -26.7570  -20.0050   17.6690 C   0  0  0  0  0  2  0  0  0  0  0  0
  -26.8600  -20.5700   20.1460 C   0  0  0  0  0  2  0  0  0  0  0  0
  -26.7290  -18.5900   18.2860 C   0  0  0  0  0  2  0  0  0  0  0  0
  -27.9410  -19.4700   20.3180 C   0  0  0  0  0  3  0  0  0  0  0  0
  -27.8040  -18.4040   19.2870 N   0  0  0  0  0  0  0  0  0  0  0  0
  -28.3040  -16.3430   18.4820 O   0  0  0  0  0  0  0  0  0  0  0  0
  -29.6870  -17.0350   20.3050 C   0  0  0  0  0  2  0  0  0  0  0  0
  -30.5140  -14.7690   20.9300 C   0  0  0  0  0  0  0  0  0  0  0  0
  -30.5380  -12.3810   20.3640 C   0  0  0  0  0  2  0  0  0  0  0  0
  -29.7620  -12.2140   19.0400 C   0  0  0  0  0  2  0  0  0  0  0  0
  -28.2470  -12.0670   19.2970 C   0  0  0  0  0  2  0  0  0  0  0  0
  -27.6930  -13.1510   20.2580 C   0  0  0  0  0  3  0  0  0  0  0  0
  -28.5900  -13.2670   21.5150 C   0  0  0  0  0  2  0  0  0  0  0  0
  -29.9690  -13.5360   21.0680 N   0  0  0  0  0  0  0  0  0  0  0  0
  -31.6780  -14.9810   20.5740 O   0  0  0  0  0  0  0  0  0  0  0  0
  -29.6070  -15.7490   20.9940 N   0  0  0  0  0  0  0  0  0  0  0  0
  -28.6890  -15.4600   21.2930 H   0  0  0  0  0  0  0  0  0  0  0  0
  -25.2550  -13.7860   20.7970 C   0  0  0  0  0  0  0  0  0  0  0  0
  -24.1460  -13.0230   21.0510 C   0  0  0  0  0  0  0  0  0  0  0  0
  -24.5850  -11.6640   20.9970 C   0  0  0  0  0  0  0  0  0  0  0  0
  -26.2990  -12.8930   20.6120 N   0  0  0  0  0  0  0  0  0  0  0  0
  -25.8940  -11.6100   20.7880 N   0  0  0  0  0  0  0  0  0  0  0  0
  -23.8240  -10.4110   21.0750 C   0  0  0  0  0  0  0  0  0  0  0  0
  -24.0950   -9.4470   22.0710 C   0  0  0  0  0  3  0  0  0  0  0  0
  -23.3410   -8.2530   22.1350 C   0  0  0  0  0  3  0  0  0  0  0  0
  -22.3030   -8.0200   21.2020 C   0  0  0  0  0  0  0  0  0  0  0  0
  -22.0560   -8.9710   20.1960 C   0  0  0  0  0  3  0  0  0  0  0  0
  -22.8100  -10.1540   20.1300 C   0  0  0  0  0  3  0  0  0  0  0  0
  -21.5350   -6.8810   21.1720 O   0  0  0  0  0  0  0  0  0  0  0  0
  -21.1760   -6.2250   22.3230 C   0  0  0  0  0  0  0  0  0  0  0  0
  -20.3930   -6.8450   23.3220 C   0  0  0  0  0  3  0  0  0  0  0  0
  -19.9910   -6.1120   24.4550 C   0  0  0  0  0  3  0  0  0  0  0  0
  -20.3600   -4.7600   24.5880 C   0  0  0  0  0  0  0  0  0  0  0  0
  -21.1330   -4.1400   23.5920 C   0  0  0  0  0  3  0  0  0  0  0  0
  -21.5390   -4.8700   22.4600 C   0  0  0  0  0  0  0  0  0  0  0  0
  -22.2670   -4.2610   21.4950 F   0  0  0  0  0  0  0  0  0  0  0  0
  -19.9640   -4.0530   25.6730 F   0  0  0  0  0  0  0  0  0  0  0  0
  -22.7400  -13.5160   21.2350 C   0  0  0  0  0  0  0  0  0  0  0  0
  -21.9470  -12.8200   22.0420 N   0  0  0  0  0  0  0  0  0  0  0  0
  -22.3520  -14.5520   20.6990 O   0  0  0  0  0  0  0  0  0  0  0  0
  -22.2710  -11.9790   22.4980 H   0  0  0  0  0  0  0  0  0  0  0  0
  -20.9990  -13.1290   22.2070 H   0  0  0  0  0  0  0  0  0  0  0  0
  -25.4590  -15.1590   20.6890 N   0  0  0  0  0  0  0  0  0  0  0  0
  -24.6890  -15.8180   20.7400 H   0  0  0  0  0  0  0  0  0  0  0  0
  -26.3240  -15.5840   20.3880 H   0  0  0  0  0  0  0  0  0  0  0  0
  -33.0010  -24.1510   19.6400 C   0  0  0  0  0  2  0  0  0  0  0  0
  -31.9240  -24.8950   18.8290 C   0  0  0  0  0  2  0  0  0  0  0  0
  -30.6960  -25.3500   19.6420 C   0  0  0  0  0  2  0  0  0  0  0  0
  -29.7150  -26.2090   18.8250 C   0  0  0  0  0  2  0  0  0  0  0  0
  -28.9040  -25.3790   17.9040 N   0  0  0  0  0  4  0  0  0  0  0  0
  -28.0090  -25.2210   18.3410 H   0  0  0  0  0  0  0  0  0  0  0  0
  -29.3540  -24.4790   17.8220 H   0  0  0  0  0  0  0  0  0  0  0  0
  -28.6780  -25.9440   16.5500 C   0  0  0  0  0  2  0  0  0  0  0  0
  -27.6970  -25.0760   15.7420 C   0  0  0  0  0  2  0  0  0  0  0  0
  -26.8380  -25.8800   14.9380 O   0  0  0  0  0  0  0  0  0  0  0  0
  -23.9110  -28.1210   21.0160 C   0  0  0  0  0  0  0  0  0  0  0  0
  -25.7170  -26.3190   15.5930 C   0  0  0  0  0  0  0  0  0  0  0  0
  -22.3310  -27.6100   19.1800 C   0  0  0  0  0  3  0  0  0  0  0  0
  -23.3890  -27.2260   16.8900 C   0  0  0  0  0  0  0  0  0  0  0  0
  -24.7190  -28.3700   18.6740 C   0  0  0  0  0  2  0  0  0  0  0  0
  -24.6520  -27.5400   17.4130 C   0  0  0  0  0  0  0  0  0  0  0  0
  -25.8200  -27.0930   16.7660 C   0  0  0  0  0  3  0  0  0  0  0  0
  -24.4450  -26.0020   15.0720 C   0  0  0  0  0  3  0  0  0  0  0  0
  -23.2780  -26.4530   15.7190 C   0  0  0  0  0  3  0  0  0  0  0  0
  -22.1890  -27.7620   17.6390 C   0  0  0  0  0  2  0  0  0  0  0  0
  -23.6860  -28.0200   19.6760 N   0  0  0  0  0  0  0  0  0  0  0  0
  -23.0020  -27.9270   21.8330 O   0  0  0  0  0  0  0  0  0  0  0  0
  -21.9470  -26.1650   19.5690 C   0  0  0  0  0  0  0  0  0  0  0  0
  -20.6340  -25.8860   19.6030 N   0  0  0  0  0  0  0  0  0  0  0  0
  -22.8160  -25.3210   19.8000 O   0  0  0  0  0  0  0  0  0  0  0  0
  -19.9880  -26.6380   19.4050 H   0  0  0  0  0  0  0  0  0  0  0  0
  -17.4920  -24.1340   19.9060 C   0  0  0  0  0  0  0  0  0  0  0  0
  -20.0360  -24.5860   19.9030 C   0  0  0  0  0  3  0  0  0  0  0  0
  -20.1020  -23.6480   18.6750 C   0  0  0  0  0  2  0  0  0  0  0  0
  -18.8400  -23.7070   17.8080 C   0  0  0  0  0  2  0  0  0  0  0  0
  -17.6050  -23.3230   18.6260 C   0  0  0  0  0  2  0  0  0  0  0  0
  -18.6310  -24.7410   20.4970 C   0  0  0  0  0  0  0  0  0  0  0  0
  -18.4650  -25.5170   21.6650 C   0  0  0  0  0  3  0  0  0  0  0  0
  -17.1940  -25.6810   22.2450 C   0  0  0  0  0  3  0  0  0  0  0  0
  -16.0720  -25.0640   21.6650 C   0  0  0  0  0  3  0  0  0  0  0  0
  -16.2210  -24.2910   20.5000 C   0  0  0  0  0  3  0  0  0  0  0  0
  -25.3110  -28.5110   21.5840 C   0  0  0  0  0  3  0  0  0  0  0  0
  -26.1860  -27.2610   21.9870 C   0  0  1  0  0  0  0  0  0  0  0  0
  -25.4590  -26.2670   22.9230 C   0  0  0  0  0  1  0  0  0  0  0  0
  -26.6370  -26.4860   20.7270 C   0  0  0  0  0  1  0  0  0  0  0  0
  -27.4710  -27.7330   22.7040 C   0  0  0  0  0  1  0  0  0  0  0  0
  -25.0870  -29.3870   22.7400 N   0  0  0  0  0  0  0  0  0  0  0  0
  -25.2970  -30.7100   22.7420 C   0  0  0  0  0  0  0  0  0  0  0  0
  -25.7710  -31.3150   21.7770 O   0  0  0  0  0  0  0  0  0  0  0  0
  -24.6430  -28.9700   23.5450 H   0  0  0  0  0  0  0  0  0  0  0  0
  -23.5780  -32.2030   23.8140 C   0  0  0  0  0  1  0  0  0  0  0  0
  -24.9230  -31.4860   24.0200 C   0  0  0  0  0  3  0  0  0  0  0  0
  -27.1780  -31.8470   24.9200 C   0  0  0  0  0  1  0  0  0  0  0  0
  -25.9470  -32.4660   24.4380 N   0  0  0  0  0  0  0  0  0  0  0  0
  -25.5880  -33.0710   25.1720 H   0  0  0  0  0  0  0  0  0  0  0  0
  2  1  1  0
  2  4  1  0
  3  1  2  0
  5 10  1  0
  7  6  1  0
  8  6  1  0
  9  1  1  0
  9  7  1  0
 10  9  1  0
 10  8  1  0
 11  5  2  0
 12 18  1  0
 12 20  1  0
 13 15  1  0
 14 16  1  0
 14 13  1  0
 15 17  1  0
 16 18  1  0
 17  5  1  0
 18 17  1  0
 19 12  2  0
 20 29  1  0
 21 29  1  0
 21 27  1  0
 22 27  1  0
 23 24  1  0
 23 22  1  0
 25 24  1  0
 25 34  1  0
 25 26  1  0
 27 26  1  0
 28 21  2  0
 29 30  1  0
 31 32  2  0
 32 51  1  0
 33 32  1  0
 33 36  1  0
 34 35  1  0
 34 31  1  0
 35 33  2  0
 36 37  1  0
 37 38  2  0
 39 38  1  0
 40 39  2  0
 41 40  1  0
 41 36  2  0
 42 39  1  0
 42 43  1  0
 43 48  2  0
 43 44  1  0
 44 45  2  0
 45 46  1  0
 46 50  1  0
 47 46  2  0
 48 47  1  0
 49 48  1  0
 51 52  1  0
 52 55  1  0
 52 54  1  0
 53 51  2  0
 56 57  1  0
 56 31  1  0
 58 56  1  0
 59  2  1  0
 60 59  1  0
 60 61  1  0
 62 61  1  0
 63 64  1  0
 63 62  1  0
 65 63  1  0
 66 63  1  0
 67 66  1  0
 68 70  1  0
 68 67  1  0
 69 80  2  0
 70 75  1  0
 71 81  1  0
 71 79  1  0
 72 74  1  0
 72 78  1  0
 73 79  1  0
 74 73  1  0
 75 74  2  0
 76 70  2  0
 76 77  1  0
 77 72  2  0
 78 71  1  0
 79 69  1  0
 81 82  1  0
 81 83  2  0
 84 82  1  0
 85 90  2  0
 85 94  1  0
 86 82  1  0
 86 90  1  0
 87 86  1  0
 88 89  1  0
 88 87  1  0
 89 85  1  0
 90 91  1  0
 91 92  2  0
 93 92  1  0
 94 93  2  0
 95 69  1  0
 95 96  1  0
 95100  1  0
 96 99  1  1
 96 97  1  0
 98 96  1  0
100101  1  0
100103  1  0
101105  1  0
102101  2  0
105104  1  0
105107  1  0
107106  1  0
107108  1  0
M  ISO  4  21 100  29 100  67 101  68 101
M  END
>  <TORSDO>  (71) 
F 26

>  <SCORE>  (71) 
-7.021

>  <name>  (71) 
77

>  <ligand_id>  (71) 
77

>  <original_smiles>  (71) 
[H]c1c([H])c([H])c2c(c1[H])C([H])([H])C([H])([H])C([H])([H])C2([H])N([H])C(=O)C1([H])N(C(=O)C([H])(N([H])C(=O)C([H])(N([H])C([H])([H])[H])C([H])([H])[H])C(C([H])([H])[H])(C([H])([H])[H])C([H])([H])[H])C([H])([H])c2c([H])c(OC([H])([H])C([H])([H])[N+]([H])([H])C([H])([H])C([H])([H])C([H])([H])C([H])([H])N([H])C(=O)C3([H])N(C(=O)C4([H])N(C(=O)C([H])([H])N([H])C(=O)N5C([H])([H])C([H])([H])C([H])([H])C([H])(n6nc(-c7c([H])c([H])c(Oc8c([H])c([H])c(F)c([H])c8F)c([H])c7[H])c(C(=O)N([H])[H])c6N([H])[H])C5([H])[H])C([H])([H])C([H])([H])C([H])([H])C4([H])[H])C([H])([H])C([H])([H])C3([H])[H])c([H])c([H])c2C1([H])[H]

>  <smiles>  (71) 
[H]c1c([H])c([H])c2c(c1[H])C([H])([H])C([H])([H])C([H])([H])C2([H])N([H])C(=O)C1([H])N(C(=O)C([H])(N([H])C(=O)C([H])(N([H])C([H])([H])[H])C([H])([H])[H])C(C([H])([H])[H])(C([H])([H])[H])C([H])([H])[H])C([H])([H])c2c([H])c(OC([H])([H])C([H])([H])[N+]([H])([H])C([H])([H])C([H])([H])C([H])([H])C([H])([H])N([H])C(=O)C3([H])N(C(=O)C4([H])N(C(=O)C([H])([H])N([H])C(=O)N5C([H])([H])C([H])([H])C([H])([H])C([H])(n6nc(-c7c([H])c([H])c(Oc8c([H])c([H])c(F)c([H])c8F)c([H])c7[H])c(C(=O)N([H])[H])c6N([H])[H])C5([H])[H])C([H])([H])C([H])([H])C([H])([H])C4([H])[H])C([H])([H])C([H])([H])C3([H])[H])c([H])c([H])c2C1([H])[H]

$$$$
78:0:0
     RDKit          3D

 90 97  0  0  1  0  0  0  0  0999 V2000
  -28.7600  -24.4870   20.7740 C   0  0  0  0  0  0  0  0  0  0  0  0
  -28.8400  -23.1890   20.4400 N   0  0  0  0  0  0  0  0  0  0  0  0
  -28.9070  -24.8760   21.9360 O   0  0  0  0  0  0  0  0  0  0  0  0
  -28.6860  -22.9500   19.4690 H   0  0  0  0  0  0  0  0  0  0  0  0
  -28.5590  -25.4920   19.6270 C   0  0  0  0  0  2  0  0  0  0  0  0
  -28.4220  -26.8280   20.1370 O   0  0  0  0  0  0  0  0  0  0  0  0
  -24.5720  -31.9090   23.2700 C   0  0  0  0  0  0  0  0  0  0  0  0
  -27.2050  -27.4800   20.1550 C   0  0  0  0  0  0  0  0  0  0  0  0
  -23.3580  -30.5160   21.6250 C   0  0  0  0  0  3  0  0  0  0  0  0
  -24.8030  -28.9820   20.1940 C   0  0  0  0  0  0  0  0  0  0  0  0
  -25.8830  -30.8740   21.4190 C   0  0  0  0  0  2  0  0  0  0  0  0
  -25.9630  -29.5040   20.7770 C   0  0  0  0  0  0  0  0  0  0  0  0
  -27.1630  -28.7590   20.7570 C   0  0  0  0  0  3  0  0  0  0  0  0
  -26.0150  -26.9630   19.5850 C   0  0  0  0  0  3  0  0  0  0  0  0
  -24.8230  -27.7100   19.6000 C   0  0  0  0  0  3  0  0  0  0  0  0
  -23.5620  -29.8440   20.2420 C   0  0  0  0  0  2  0  0  0  0  0  0
  -24.6230  -31.1150   22.1630 N   0  0  0  0  0  0  0  0  0  0  0  0
  -23.4910  -32.1800   23.8140 O   0  0  0  0  0  0  0  0  0  0  0  0
  -22.7120  -29.4900   22.5830 C   0  0  0  0  0  0  0  0  0  0  0  0
  -21.3880  -29.3050   22.4550 N   0  0  0  0  0  0  0  0  0  0  0  0
  -23.3970  -28.8630   23.3960 O   0  0  0  0  0  0  0  0  0  0  0  0
  -20.8960  -29.8610   21.7710 H   0  0  0  0  0  0  0  0  0  0  0  0
  -18.0170  -28.0980   22.9390 C   0  0  0  0  0  0  0  0  0  0  0  0
  -20.5720  -28.3620   23.2220 C   0  0  0  0  0  3  0  0  0  0  0  0
  -20.6830  -26.9330   22.6450 C   0  0  0  0  0  2  0  0  0  0  0  0
  -19.5860  -26.6070   21.6260 C   0  0  0  0  0  2  0  0  0  0  0  0
  -18.2010  -26.7490   22.2650 C   0  0  0  0  0  2  0  0  0  0  0  0
  -19.1310  -28.8630   23.3740 C   0  0  0  0  0  0  0  0  0  0  0  0
  -18.9060  -30.1280   23.9610 C   0  0  0  0  0  3  0  0  0  0  0  0
  -17.6000  -30.6260   24.1200 C   0  0  0  0  0  3  0  0  0  0  0  0
  -16.5000  -29.8580   23.7010 C   0  0  0  0  0  3  0  0  0  0  0  0
  -16.7090  -28.5950   23.1160 C   0  0  0  0  0  3  0  0  0  0  0  0
  -25.8590  -32.5360   23.8890 C   0  0  0  0  0  3  0  0  0  0  0  0
  -25.5590  -33.9370   24.2110 N   0  0  0  0  0  0  0  0  0  0  0  0
  -25.8990  -34.9830   23.4480 C   0  0  0  0  0  0  0  0  0  0  0  0
  -26.5710  -34.8710   22.4180 O   0  0  0  0  0  0  0  0  0  0  0  0
  -24.9660  -34.1000   25.0120 H   0  0  0  0  0  0  0  0  0  0  0  0
  -24.1760  -36.7770   23.0820 C   0  0  0  0  0  1  0  0  0  0  0  0
  -25.4150  -36.3750   23.8960 C   0  0  0  0  0  3  0  0  0  0  0  0
  -27.5550  -37.2540   24.7210 C   0  0  0  0  0  1  0  0  0  0  0  0
  -26.4520  -37.4240   23.7790 N   0  0  0  0  0  0  0  0  0  0  0  0
  -26.0500  -38.3460   23.9230 H   0  0  0  0  0  0  0  0  0  0  0  0
  -26.3740  -31.7670   25.1650 C   0  0  1  0  0  0  0  0  0  0  0  0
  -25.2830  -31.5360   26.2360 C   0  0  0  0  0  1  0  0  0  0  0  0
  -26.9500  -30.3870   24.7720 C   0  0  0  0  0  1  0  0  0  0  0  0
  -27.5290  -32.5580   25.8250 C   0  0  0  0  0  1  0  0  0  0  0  0
  -29.3690  -22.1490   21.3200 C   0  0  0  0  0  2  0  0  0  0  0  0
  -29.1820  -20.7220   20.7580 C   0  0  0  0  0  2  0  0  0  0  0  0
  -30.2840  -19.7780   21.2770 C   0  0  0  0  0  2  0  0  0  0  0  0
  -30.0640  -18.2720   21.0230 C   0  0  0  0  0  2  0  0  0  0  0  0
  -31.3710  -17.4790   21.2410 C   0  0  0  0  0  2  0  0  0  0  0  0
  -31.2260  -16.1090   21.9340 C   0  0  0  0  0  2  0  0  0  0  0  0
  -30.7900  -14.3600   20.2000 C   0  0  0  0  0  0  0  0  0  0  0  0
  -30.3380  -12.2880   18.9310 C   0  0  0  0  0  2  0  0  0  0  0  0
  -29.3430  -12.5170   17.7800 C   0  0  0  0  0  2  0  0  0  0  0  0
  -27.8900  -12.3970   18.2800 C   0  0  0  0  0  2  0  0  0  0  0  0
  -27.6280  -13.2380   19.5570 C   0  0  0  0  0  3  0  0  0  0  0  0
  -28.7200  -12.9750   20.6150 C   0  0  0  0  0  2  0  0  0  0  0  0
  -30.0330  -13.2500   20.0010 N   0  0  0  0  0  0  0  0  0  0  0  0
  -31.8000  -14.6210   19.5400 O   0  0  0  0  0  0  0  0  0  0  0  0
  -30.4030  -15.1280   21.2290 N   0  0  0  0  0  0  0  0  0  0  0  0
  -29.5530  -14.8390   21.6890 H   0  0  0  0  0  0  0  0  0  0  0  0
  -25.2750  -13.8960   20.3720 C   0  0  0  0  0  0  0  0  0  0  0  0
  -24.2080  -13.1450   20.7870 C   0  0  0  0  0  0  0  0  0  0  0  0
  -24.6380  -11.7830   20.7310 C   0  0  0  0  0  0  0  0  0  0  0  0
  -26.2900  -12.9930   20.0930 N   0  0  0  0  0  0  0  0  0  0  0  0
  -25.9110  -11.7180   20.3640 N   0  0  0  0  0  0  0  0  0  0  0  0
  -23.8950  -10.5360   20.9490 C   0  0  0  0  0  0  0  0  0  0  0  0
  -24.3430   -9.5610   21.8670 C   0  0  0  0  0  3  0  0  0  0  0  0
  -23.6010   -8.3780   22.0720 C   0  0  0  0  0  3  0  0  0  0  0  0
  -22.3970   -8.1630   21.3620 C   0  0  0  0  0  0  0  0  0  0  0  0
  -21.9680   -9.1260   20.4310 C   0  0  0  0  0  3  0  0  0  0  0  0
  -22.7100  -10.3010   20.2240 C   0  0  0  0  0  3  0  0  0  0  0  0
  -21.6240   -7.0320   21.4770 O   0  0  0  0  0  0  0  0  0  0  0  0
  -21.5990   -6.2930   22.6330 C   0  0  0  0  0  0  0  0  0  0  0  0
  -21.2400   -6.8620   23.8740 C   0  0  0  0  0  3  0  0  0  0  0  0
  -21.1600   -6.0510   25.0240 C   0  0  0  0  0  3  0  0  0  0  0  0
  -21.4270   -4.6720   24.9330 C   0  0  0  0  0  0  0  0  0  0  0  0
  -21.7800   -4.1030   23.6970 C   0  0  0  0  0  3  0  0  0  0  0  0
  -21.8620   -4.9110   22.5500 C   0  0  0  0  0  0  0  0  0  0  0  0
  -22.1820   -4.3530   21.3570 F   0  0  0  0  0  0  0  0  0  0  0  0
  -21.3420   -3.8920   26.0350 F   0  0  0  0  0  0  0  0  0  0  0  0
  -22.8340  -13.6500   21.1220 C   0  0  0  0  0  0  0  0  0  0  0  0
  -22.1300  -12.9660   22.0170 N   0  0  0  0  0  0  0  0  0  0  0  0
  -22.3950  -14.6870   20.6260 O   0  0  0  0  0  0  0  0  0  0  0  0
  -22.4970  -12.1270   22.4410 H   0  0  0  0  0  0  0  0  0  0  0  0
  -21.2090  -13.2860   22.2820 H   0  0  0  0  0  0  0  0  0  0  0  0
  -25.4620  -15.2640   20.1920 N   0  0  0  0  0  0  0  0  0  0  0  0
  -24.7180  -15.9370   20.3440 H   0  0  0  0  0  0  0  0  0  0  0  0
  -26.3130  -15.6850   19.8390 H   0  0  0  0  0  0  0  0  0  0  0  0
  1  3  2  0
  2  1  1  0
  2 47  1  0
  4  2  1  0
  5  6  1  0
  5  1  1  0
  6  8  1  0
  7 18  2  0
  8 13  1  0
  9 17  1  0
  9 19  1  0
 10 16  1  0
 10 12  1  0
 11 17  1  0
 12 11  1  0
 13 12  2  0
 14 15  1  0
 14  8  2  0
 15 10  2  0
 16  9  1  0
 17  7  1  0
 19 21  2  0
 20 19  1  0
 22 20  1  0
 23 32  2  0
 23 28  1  0
 24 20  1  0
 24 28  1  0
 25 24  1  0
 26 27  1  0
 26 25  1  0
 27 23  1  0
 28 29  2  0
 29 30  1  0
 31 30  2  0
 32 31  1  0
 33  7  1  0
 33 34  1  0
 33 43  1  0
 34 37  1  0
 35 39  1  0
 35 34  1  0
 36 35  2  0
 39 38  1  0
 41 39  1  0
 41 42  1  0
 41 40  1  0
 43 46  1  1
 43 44  1  0
 45 43  1  0
 48 49  1  0
 48 47  1  0
 50 51  1  0
 50 49  1  0
 51 52  1  0
 53 61  1  0
 54 59  1  0
 55 56  1  0
 55 54  1  0
 57 56  1  0
 57 66  1  0
 57 58  1  0
 59 53  1  0
 59 58  1  0
 60 53  2  0
 61 62  1  0
 61 52  1  0
 63 64  2  0
 64 83  1  0
 65 64  1  0
 65 68  1  0
 66 67  1  0
 66 63  1  0
 67 65  2  0
 68 69  1  0
 69 70  2  0
 71 74  1  0
 71 70  1  0
 72 71  2  0
 73 72  1  0
 73 68  2  0
 74 75  1  0
 75 76  1  0
 76 77  2  0
 78 77  1  0
 78 82  1  0
 79 78  2  0
 80 75  2  0
 80 79  1  0
 81 80  1  0
 83 84  1  0
 84 87  1  0
 84 86  1  0
 85 83  2  0
 88 89  1  0
 88 63  1  0
 90 88  1  0
M  ISO  4   5 101   6 101  53 100  61 100
M  END
>  <TORSDO>  (72) 
F 23

>  <SCORE>  (72) 
-12.625

>  <name>  (72) 
78

>  <ligand_id>  (72) 
78

>  <original_smiles>  (72) 
[H]c1c([H])c([H])c2c(c1[H])C([H])([H])C([H])([H])C([H])([H])C2([H])N([H])C(=O)C1([H])N(C(=O)C([H])(N([H])C(=O)C([H])(N([H])C([H])([H])[H])C([H])([H])[H])C(C([H])([H])[H])(C([H])([H])[H])C([H])([H])[H])C([H])([H])c2c([H])c(OC([H])([H])C(=O)N([H])C([H])([H])C([H])([H])C([H])([H])C([H])([H])C([H])([H])C([H])([H])N([H])C(=O)N3C([H])([H])C([H])([H])C([H])([H])C([H])(n4nc(-c5c([H])c([H])c(Oc6c([H])c([H])c(F)c([H])c6F)c([H])c5[H])c(C(=O)N([H])[H])c4N([H])[H])C3([H])[H])c([H])c([H])c2C1([H])[H]

>  <smiles>  (72) 
[H]c1c([H])c([H])c2c(c1[H])C([H])([H])C([H])([H])C([H])([H])C2([H])N([H])C(=O)C1([H])N(C(=O)C([H])(N([H])C(=O)C([H])(N([H])C([H])([H])[H])C([H])([H])[H])C(C([H])([H])[H])(C([H])([H])[H])C([H])([H])[H])C([H])([H])c2c([H])c(OC([H])([H])C(=O)N([H])C([H])([H])C([H])([H])C([H])([H])C([H])([H])C([H])([H])C([H])([H])N([H])C(=O)N3C([H])([H])C([H])([H])C([H])([H])C([H])(n4nc(-c5c([H])c([H])c(Oc6c([H])c([H])c(F)c([H])c6F)c([H])c5[H])c(C(=O)N([H])[H])c4N([H])[H])C3([H])[H])c([H])c([H])c2C1([H])[H]

$$$$
79:0:0
     RDKit          3D

 96103  0  0  1  0  0  0  0  0999 V2000
  -29.1000  -21.4690   21.6310 C   0  0  0  0  0  0  0  0  0  0  0  0
  -29.2890  -22.8050   21.5990 N   0  0  0  0  0  0  0  0  0  0  0  0
  -28.0040  -20.9440   21.4270 O   0  0  0  0  0  0  0  0  0  0  0  0
  -30.2470  -23.1030   21.7210 H   0  0  0  0  0  0  0  0  0  0  0  0
  -30.2990  -20.6000   22.0810 C   0  0  0  0  0  2  0  0  0  0  0  0
  -30.4150  -18.1440   21.4780 C   0  0  0  0  0  0  0  0  0  0  0  0
  -30.6160  -19.4510   21.2240 N   0  0  0  0  0  0  0  0  0  0  0  0
  -29.8580  -17.7310   22.4960 O   0  0  0  0  0  0  0  0  0  0  0  0
  -31.1090  -19.6800   20.3740 H   0  0  0  0  0  0  0  0  0  0  0  0
  -30.2930  -17.4590   19.0250 C   0  0  0  0  0  1  0  0  0  0  0  0
  -30.9180  -17.1580   20.4010 C   0  0  0  0  0  3  0  0  0  0  0  0
  -31.3760  -14.7140   20.1560 C   0  0  0  0  0  0  0  0  0  0  0  0
  -31.0130  -12.5750   18.9860 C   0  0  0  0  0  2  0  0  0  0  0  0
  -30.0540  -12.8260   17.8030 C   0  0  0  0  0  2  0  0  0  0  0  0
  -28.5840  -12.7240   18.2530 C   0  0  0  0  0  2  0  0  0  0  0  0
  -28.2990  -13.5400   19.5450 C   0  0  0  0  0  3  0  0  0  0  0  0
  -29.3670  -13.2650   20.6290 C   0  0  0  0  0  2  0  0  0  0  0  0
  -30.6870  -13.5450   20.0440 N   0  0  0  0  0  0  0  0  0  0  0  0
  -32.4740  -14.8980   19.6200 O   0  0  0  0  0  0  0  0  0  0  0  0
  -30.6970  -15.7350   20.7170 N   0  0  0  0  0  0  0  0  0  0  0  0
  -29.8410  -15.5230   21.2070 H   0  0  0  0  0  0  0  0  0  0  0  0
  -25.9370  -14.2040   20.3200 C   0  0  0  0  0  0  0  0  0  0  0  0
  -24.8600  -13.4570   20.7110 C   0  0  0  0  0  0  0  0  0  0  0  0
  -25.2830  -12.0920   20.6530 C   0  0  0  0  0  0  0  0  0  0  0  0
  -26.9510  -13.2970   20.0490 N   0  0  0  0  0  0  0  0  0  0  0  0
  -26.5600  -12.0220   20.3020 N   0  0  0  0  0  0  0  0  0  0  0  0
  -24.5310  -10.8480   20.8530 C   0  0  0  0  0  0  0  0  0  0  0  0
  -24.8950   -9.9120   21.8470 C   0  0  0  0  0  3  0  0  0  0  0  0
  -24.1430   -8.7310   22.0270 C   0  0  0  0  0  3  0  0  0  0  0  0
  -23.0150   -8.4760   21.2080 C   0  0  0  0  0  0  0  0  0  0  0  0
  -22.6710   -9.4000   20.2070 C   0  0  0  0  0  3  0  0  0  0  0  0
  -23.4230  -10.5730   20.0270 C   0  0  0  0  0  3  0  0  0  0  0  0
  -22.2410   -7.3430   21.2960 O   0  0  0  0  0  0  0  0  0  0  0  0
  -22.0030   -6.7240   22.4960 C   0  0  0  0  0  0  0  0  0  0  0  0
  -21.3900   -7.3980   23.5750 C   0  0  0  0  0  3  0  0  0  0  0  0
  -21.1000   -6.7040   24.7660 C   0  0  0  0  0  3  0  0  0  0  0  0
  -21.4110   -5.3350   24.8770 C   0  0  0  0  0  0  0  0  0  0  0  0
  -22.0200   -4.6610   23.8040 C   0  0  0  0  0  3  0  0  0  0  0  0
  -22.3100   -5.3520   22.6150 C   0  0  0  0  0  0  0  0  0  0  0  0
  -22.8750   -4.6930   21.5740 F   0  0  0  0  0  0  0  0  0  0  0  0
  -21.1290   -4.6650   26.0180 F   0  0  0  0  0  0  0  0  0  0  0  0
  -23.4840  -13.9680   21.0380 C   0  0  0  0  0  0  0  0  0  0  0  0
  -22.7760  -13.2930   21.9360 N   0  0  0  0  0  0  0  0  0  0  0  0
  -23.0500  -15.0010   20.5320 O   0  0  0  0  0  0  0  0  0  0  0  0
  -23.1390  -12.4570   22.3680 H   0  0  0  0  0  0  0  0  0  0  0  0
  -21.8590  -13.6270   22.2010 H   0  0  0  0  0  0  0  0  0  0  0  0
  -26.1410  -15.5720   20.1520 N   0  0  0  0  0  0  0  0  0  0  0  0
  -25.4060  -16.2590   20.2830 H   0  0  0  0  0  0  0  0  0  0  0  0
  -27.0030  -15.9740   19.8100 H   0  0  0  0  0  0  0  0  0  0  0  0
  -28.2810  -23.8510   21.8670 C   0  0  0  0  0  2  0  0  0  0  0  0
  -27.6080  -24.6070   20.6770 C   0  0  0  0  0  3  0  0  0  0  0  0
  -28.5130  -25.4540   19.7240 C   0  0  0  0  0  2  0  0  0  0  0  0
  -28.4820  -26.8800   19.9310 O   0  0  0  0  0  0  0  0  0  0  0  0
  -24.5450  -31.7640   23.2360 C   0  0  0  0  0  0  0  0  0  0  0  0
  -27.2840  -27.5680   19.8980 C   0  0  0  0  0  0  0  0  0  0  0  0
  -23.3550  -30.4100   21.5400 C   0  0  0  0  0  3  0  0  0  0  0  0
  -24.8360  -28.9920   20.0160 C   0  0  0  0  0  0  0  0  0  0  0  0
  -25.8650  -30.8560   21.3250 C   0  0  0  0  0  2  0  0  0  0  0  0
  -25.9850  -29.5230   20.6160 C   0  0  0  0  0  0  0  0  0  0  0  0
  -27.2070  -28.8170   20.5550 C   0  0  0  0  0  3  0  0  0  0  0  0
  -26.1250  -27.0710   19.2580 C   0  0  0  0  0  3  0  0  0  0  0  0
  -24.9020  -27.7700   19.3280 C   0  0  0  0  0  3  0  0  0  0  0  0
  -23.5580  -29.7950   20.1290 C   0  0  0  0  0  2  0  0  0  0  0  0
  -24.6080  -31.0220   22.0940 N   0  0  0  0  0  0  0  0  0  0  0  0
  -23.4670  -31.9760   23.8090 O   0  0  0  0  0  0  0  0  0  0  0  0
  -22.7510  -29.3260   22.4570 C   0  0  0  0  0  0  0  0  0  0  0  0
  -21.4410  -29.0720   22.3050 N   0  0  0  0  0  0  0  0  0  0  0  0
  -23.4620  -28.7100   23.2570 O   0  0  0  0  0  0  0  0  0  0  0  0
  -20.9250  -29.6190   21.6270 H   0  0  0  0  0  0  0  0  0  0  0  0
  -18.1500  -27.6470   22.6760 C   0  0  0  0  0  0  0  0  0  0  0  0
  -20.6740  -28.0600   23.0300 C   0  0  0  0  0  3  0  0  0  0  0  0
  -20.8850  -26.6550   22.4190 C   0  0  0  0  0  2  0  0  0  0  0  0
  -19.8410  -26.3010   21.3570 C   0  0  0  0  0  2  0  0  0  0  0  0
  -18.4270  -26.3400   21.9490 C   0  0  0  0  0  2  0  0  0  0  0  0
  -19.2020  -28.4660   23.1640 C   0  0  0  0  0  0  0  0  0  0  0  0
  -18.8850  -29.6970   23.7820 C   0  0  0  0  0  3  0  0  0  0  0  0
  -17.5460  -30.1080   23.9180 C   0  0  0  0  0  3  0  0  0  0  0  0
  -16.5070  -29.2810   23.4520 C   0  0  0  0  0  3  0  0  0  0  0  0
  -16.8090  -28.0500   22.8400 C   0  0  0  0  0  3  0  0  0  0  0  0
  -25.8230  -32.4010   23.8700 C   0  0  0  0  0  3  0  0  0  0  0  0
  -26.3600  -31.6090   25.1260 C   0  0  1  0  0  0  0  0  0  0  0  0
  -25.2720  -31.3250   26.1870 C   0  0  0  0  0  1  0  0  0  0  0  0
  -26.9710  -30.2550   24.6970 C   0  0  0  0  0  1  0  0  0  0  0  0
  -27.5010  -32.4090   25.7990 C   0  0  0  0  0  1  0  0  0  0  0  0
  -25.4970  -33.7870   24.2270 N   0  0  0  0  0  0  0  0  0  0  0  0
  -25.8240  -34.8600   23.4900 C   0  0  0  0  0  0  0  0  0  0  0  0
  -26.5020  -34.7860   22.4630 O   0  0  0  0  0  0  0  0  0  0  0  0
  -24.8980  -33.9210   25.0300 H   0  0  0  0  0  0  0  0  0  0  0  0
  -24.0810  -36.6400   23.1490 C   0  0  0  0  0  1  0  0  0  0  0  0
  -25.3140  -36.2320   23.9700 C   0  0  0  0  0  3  0  0  0  0  0  0
  -27.4240  -37.1180   24.8600 C   0  0  0  0  0  1  0  0  0  0  0  0
  -26.3380  -37.2960   23.8990 N   0  0  0  0  0  0  0  0  0  0  0  0
  -25.9230  -38.2100   24.0560 H   0  0  0  0  0  0  0  0  0  0  0  0
  -26.8000  -23.7690   19.8540 O   0  0  0  0  0  0  0  0  0  0  0  0
  -24.6270  -23.0270   19.2210 C   0  0  0  0  0  1  0  0  0  0  0  0
  -25.5180  -23.4620   20.3860 C   0  0  0  0  0  2  0  0  0  0  0  0
  1  5  1  0
  2  1  1  0
  2  4  1  0
  2 50  1  0
  3  1  2  0
  6  8  2  0
  7  6  1  0
  7  5  1  0
  9  7  1  0
 11 10  1  0
 11 20  1  0
 11  6  1  0
 12 20  1  0
 13 18  1  0
 14 15  1  0
 14 13  1  0
 16 15  1  0
 16 25  1  0
 16 17  1  0
 18 12  1  0
 18 17  1  0
 19 12  2  0
 20 21  1  0
 22 23  2  0
 23 42  1  0
 24 23  1  0
 24 27  1  0
 25 26  1  0
 25 22  1  0
 26 24  2  0
 27 28  1  0
 28 29  2  0
 30 33  1  0
 30 29  1  0
 31 30  2  0
 32 31  1  0
 32 27  2  0
 33 34  1  0
 34 39  2  0
 34 35  1  0
 35 36  2  0
 36 37  1  0
 37 41  1  0
 38 37  2  0
 39 38  1  0
 40 39  1  0
 42 43  1  0
 43 46  1  0
 43 45  1  0
 44 42  2  0
 47 48  1  0
 47 22  1  0
 49 47  1  0
 51 52  1  0
 51 50  1  0
 52 53  1  0
 54 65  2  0
 55 53  1  0
 55 60  1  0
 56 64  1  0
 56 66  1  0
 57 63  1  0
 57 59  1  0
 58 64  1  0
 59 58  1  0
 60 59  2  0
 61 62  1  0
 61 55  2  0
 62 57  2  0
 63 56  1  0
 64 54  1  0
 66 68  2  0
 67 66  1  0
 69 67  1  0
 70 79  2  0
 70 75  1  0
 71 67  1  0
 71 75  1  0
 72 71  1  0
 73 74  1  0
 73 72  1  0
 74 70  1  0
 75 76  2  0
 76 77  1  0
 78 77  2  0
 79 78  1  0
 80 54  1  0
 80 85  1  0
 80 81  1  0
 81 84  1  1
 81 82  1  0
 83 81  1  0
 85 88  1  0
 86 90  1  0
 86 85  1  0
 87 86  2  0
 90 89  1  0
 92 90  1  0
 92 93  1  0
 92 91  1  0
 94 96  1  0
 94 51  1  0
 95 96  1  0
M  ISO  4  12 100  20 100  52 101  53 101
M  END
>  <TORSDO>  (73) 
F 24

>  <SCORE>  (73) 
-11.330

>  <name>  (73) 
79

>  <ligand_id>  (73) 
79

>  <original_smiles>  (73) 
[H]c1c([H])c([H])c2c(c1[H])C([H])([H])C([H])([H])C([H])([H])C2([H])N([H])C(=O)C1([H])N(C(=O)C([H])(N([H])C(=O)C([H])(N([H])C([H])([H])[H])C([H])([H])[H])C(C([H])([H])[H])(C([H])([H])[H])C([H])([H])[H])C([H])([H])c2c([H])c(OC([H])([H])C([H])(OC([H])([H])C([H])([H])[H])C([H])([H])N([H])C(=O)C([H])([H])N([H])C(=O)C([H])(N([H])C(=O)N3C([H])([H])C([H])([H])C([H])([H])C([H])(n4nc(-c5c([H])c([H])c(Oc6c([H])c([H])c(F)c([H])c6F)c([H])c5[H])c(C(=O)N([H])[H])c4N([H])[H])C3([H])[H])C([H])([H])[H])c([H])c([H])c2C1([H])[H]

>  <smiles>  (73) 
[H]c1c([H])c([H])c2c(c1[H])C([H])([H])C([H])([H])C([H])([H])C2([H])N([H])C(=O)C1([H])N(C(=O)C([H])(N([H])C(=O)C([H])(N([H])C([H])([H])[H])C([H])([H])[H])C(C([H])([H])[H])(C([H])([H])[H])C([H])([H])[H])C([H])([H])c2c([H])c(OC([H])([H])C([H])(OC([H])([H])C([H])([H])[H])C([H])([H])N([H])C(=O)C([H])([H])N([H])C(=O)C([H])(N([H])C(=O)N3C([H])([H])C([H])([H])C([H])([H])C([H])(n4nc(-c5c([H])c([H])c(Oc6c([H])c([H])c(F)c([H])c6F)c([H])c5[H])c(C(=O)N([H])[H])c4N([H])[H])C3([H])[H])C([H])([H])[H])c([H])c([H])c2C1([H])[H]

$$$$
80:0:0
     RDKit          3D

 99104  0  0  1  0  0  0  0  0999 V2000
  -24.9850  -15.1220   22.7210 C   0  0  0  0  0  0  0  0  0  0  0  0
  -26.0090  -15.2150   21.8330 N   0  0  0  0  0  0  0  0  0  0  0  0
  -24.5900  -16.1260   23.3190 O   0  0  0  0  0  0  0  0  0  0  0  0
  -26.3520  -14.3620   21.4190 H   0  0  0  0  0  0  0  0  0  0  0  0
  -26.5570  -16.4910   21.2830 C   0  0  0  0  0  2  0  0  0  0  0  0
  -27.2000  -16.4490   19.8570 C   0  0  0  0  0  2  0  0  0  0  0  0
  -26.8480  -17.6360   18.8970 C   0  0  0  0  0  2  0  0  0  0  0  0
  -28.0090  -18.3860   18.4770 O   0  0  0  0  0  0  0  0  0  0  0  0
  -27.7260  -19.6060   17.7610 C   0  0  0  0  0  2  0  0  0  0  0  0
  -28.7870  -20.7110   18.0430 C   0  0  0  0  0  2  0  0  0  0  0  0
  -28.7890  -21.8970   17.0310 C   0  0  0  0  0  3  0  0  0  0  0  0
  -29.9150  -22.9590   17.2420 C   0  0  0  0  0  3  0  0  0  0  0  0
  -29.9820  -24.0460   16.2790 O   0  0  0  0  0  0  0  0  0  0  0  0
  -25.4160  -26.5060   21.1090 C   0  0  0  0  0  0  0  0  0  0  0  0
  -29.0820  -25.0370   16.5860 C   0  0  0  0  0  0  0  0  0  0  0  0
  -25.0250  -27.1990   18.7700 C   0  0  0  0  0  3  0  0  0  0  0  0
  -26.9560  -26.7990   17.1520 C   0  0  0  0  0  0  0  0  0  0  0  0
  -27.3960  -26.7260   19.6090 C   0  0  0  0  0  2  0  0  0  0  0  0
  -27.7450  -26.2980   18.1960 C   0  0  0  0  0  0  0  0  0  0  0  0
  -28.8130  -25.4130   17.9210 C   0  0  0  0  0  3  0  0  0  0  0  0
  -28.3270  -25.6080   15.5420 C   0  0  0  0  0  3  0  0  0  0  0  0
  -27.2500  -26.4660   15.8200 C   0  0  0  0  0  3  0  0  0  0  0  0
  -25.8010  -27.7000   17.5240 C   0  0  0  0  0  2  0  0  0  0  0  0
  -25.9380  -26.7690   19.8780 N   0  0  0  0  0  0  0  0  0  0  0  0
  -24.2070  -26.6490   21.3370 O   0  0  0  0  0  0  0  0  0  0  0  0
  -24.0380  -26.0940   18.3280 C   0  0  0  0  0  0  0  0  0  0  0  0
  -22.9200  -26.5050   17.7090 N   0  0  0  0  0  0  0  0  0  0  0  0
  -24.2940  -24.9030   18.5230 O   0  0  0  0  0  0  0  0  0  0  0  0
  -22.7800  -27.4990   17.5980 H   0  0  0  0  0  0  0  0  0  0  0  0
  -19.7450  -26.5200   15.9810 C   0  0  0  0  0  0  0  0  0  0  0  0
  -21.8630  -25.6450   17.1780 C   0  0  0  0  0  3  0  0  0  0  0  0
  -22.2650  -25.0470   15.8090 C   0  0  0  0  0  2  0  0  0  0  0  0
  -21.7800  -25.8810   14.6210 C   0  0  0  0  0  2  0  0  0  0  0  0
  -20.2550  -26.0160   14.6420 C   0  0  0  0  0  2  0  0  0  0  0  0
  -20.5070  -26.3600   17.1680 C   0  0  0  0  0  0  0  0  0  0  0  0
  -20.0010  -26.8780   18.3810 C   0  0  0  0  0  3  0  0  0  0  0  0
  -18.7610  -27.5420   18.4190 C   0  0  0  0  0  3  0  0  0  0  0  0
  -18.0040  -27.6830   17.2430 C   0  0  0  0  0  3  0  0  0  0  0  0
  -18.4940  -27.1700   16.0290 C   0  0  0  0  0  3  0  0  0  0  0  0
  -26.3140  -26.0360   22.2950 C   0  0  0  0  0  3  0  0  0  0  0  0
  -25.6960  -26.5160   23.5380 N   0  0  0  0  0  0  0  0  0  0  0  0
  -26.1530  -27.5410   24.2700 C   0  0  0  0  0  0  0  0  0  0  0  0
  -27.1980  -28.1420   24.0000 O   0  0  0  0  0  0  0  0  0  0  0  0
  -24.8100  -26.1020   23.7910 H   0  0  0  0  0  0  0  0  0  0  0  0
  -24.4640  -29.1930   25.1320 C   0  0  0  0  0  1  0  0  0  0  0  0
  -25.3210  -27.9680   25.4940 C   0  0  0  0  0  3  0  0  0  0  0  0
  -26.7460  -27.0820   27.2860 C   0  0  0  0  0  1  0  0  0  0  0  0
  -26.1410  -28.2690   26.6870 N   0  0  0  0  0  0  0  0  0  0  0  0
  -25.5860  -28.7360   27.3990 H   0  0  0  0  0  0  0  0  0  0  0  0
  -26.5140  -24.4720   22.3390 C   0  0  1  0  0  0  0  0  0  0  0  0
  -25.1900  -23.6760   22.2620 C   0  0  0  0  0  1  0  0  0  0  0  0
  -27.4190  -24.0080   21.1750 C   0  0  0  0  0  1  0  0  0  0  0  0
  -27.2370  -24.0700   23.6470 C   0  0  0  0  0  1  0  0  0  0  0  0
  -24.1970  -13.7610   22.8880 C   0  0  0  0  0  3  0  0  0  0  0  0
  -25.5350  -11.5570   22.1720 C   0  0  0  0  0  3  0  0  0  0  0  0
  -24.9450  -12.8040   22.0770 N   0  0  0  0  0  0  0  0  0  0  0  0
  -25.2450  -10.9090   23.1930 O   0  0  0  0  0  0  0  0  0  0  0  0
  -25.2130  -13.2950   21.2290 H   0  0  0  0  0  0  0  0  0  0  0  0
  -28.2970  -10.7630   19.9610 C   0  0  0  0  0  1  0  0  0  0  0  0
  -31.0410  -11.7390   21.4930 C   0  0  0  0  0  0  0  0  0  0  0  0
  -32.0000   -9.6720   22.1280 C   0  0  0  0  0  2  0  0  0  0  0  0
  -31.3160   -9.0540   20.9180 C   0  0  0  0  0  2  0  0  0  0  0  0
  -29.8220   -8.9790   21.3380 C   0  0  0  0  0  2  0  0  0  0  0  0
  -29.1410  -10.1190   22.4050 C   0  0  0  0  0  3  0  0  0  0  0  0
  -30.0920  -10.5790   23.3880 C   0  0  0  0  0  2  0  0  0  0  0  0
  -31.1710  -10.8250   22.4770 N   0  0  0  0  0  0  0  0  0  0  0  0
  -32.0800  -12.4500   21.6430 O   0  0  0  0  0  0  0  0  0  0  0  0
  -29.9110  -11.5780   20.3880 N   0  0  0  0  0  0  0  0  0  0  0  0
  -30.1050  -12.2610   19.6670 H   0  0  0  0  0  0  0  0  0  0  0  0
  -27.0790  -12.0800   20.9570 C   0  0  0  0  0  2  0  0  0  0  0  0
  -25.9270  -11.1580   20.2050 C   0  0  0  0  0  3  0  0  0  0  0  0
  -26.0350   -9.5850   20.7100 C   0  0  0  0  0  3  0  0  0  0  0  0
  -27.9340  -10.7340   22.0750 N   0  0  0  0  0  2  0  0  0  0  0  0
  -27.1580   -9.3590   21.6880 N   0  0  0  0  0  2  0  0  0  0  0  0
  -24.9680   -8.5350   20.9970 C   0  0  0  0  0  0  0  0  0  0  0  0
  -24.8850   -7.8370   22.2550 C   0  0  0  0  0  3  0  0  0  0  0  0
  -23.9210   -6.8240   22.4990 C   0  0  0  0  0  3  0  0  0  0  0  0
  -22.9840   -6.5100   21.4920 C   0  0  0  0  0  0  0  0  0  0  0  0
  -23.0300   -7.2270   20.2810 C   0  0  0  0  0  3  0  0  0  0  0  0
  -23.9970   -8.2220   20.0400 C   0  0  0  0  0  3  0  0  0  0  0  0
  -22.0580   -5.4980   21.5700 O   0  0  0  0  0  0  0  0  0  0  0  0
  -21.5130   -5.0850   22.7650 C   0  0  0  0  0  0  0  0  0  0  0  0
  -20.8090   -5.9700   23.6050 C   0  0  0  0  0  3  0  0  0  0  0  0
  -20.1870   -5.4860   24.7740 C   0  0  0  0  0  3  0  0  0  0  0  0
  -20.2580   -4.1170   25.1060 C   0  0  0  0  0  0  0  0  0  0  0  0
  -20.9640   -3.2370   24.2650 C   0  0  0  0  0  3  0  0  0  0  0  0
  -21.5820   -3.7200   23.1010 C   0  0  0  0  0  0  0  0  0  0  0  0
  -22.2320   -2.8540   22.2850 F   0  0  0  0  0  0  0  0  0  0  0  0
  -19.6590   -3.6540   26.2260 F   0  0  0  0  0  0  0  0  0  0  0  0
  -24.5880  -11.6710   19.6870 C   0  0  0  0  0  0  0  0  0  0  0  0
  -23.4710  -11.2370   20.2830 N   0  0  0  0  0  0  0  0  0  0  0  0
  -24.5300  -12.5530   18.8520 O   0  0  0  0  0  0  0  0  0  0  0  0
  -23.5070  -10.5280   21.0040 H   0  0  0  0  0  0  0  0  0  0  0  0
  -22.5790  -11.5870   19.9650 H   0  0  0  0  0  0  0  0  0  0  0  0
  -27.5620  -13.2950   20.5570 N   0  0  0  0  0  0  0  0  0  0  0  0
  -27.1660  -13.8420   19.8000 H   0  0  0  0  0  0  0  0  0  0  0  0
  -28.4180  -13.6910   20.9350 H   0  0  0  0  0  0  0  0  0  0  0  0
  -21.9260  -12.5140   22.4820 C   0  0  0  0  0  1  0  0  0  0  0  0
  -22.7150  -13.8300   22.4120 C   0  0  0  0  0  2  0  0  0  0  0  0
  1 54  1  0
  1  3  2  0
  2  1  1  0
  4  2  1  0
  5  2  1  0
  6  5  1  0
  7  6  1  0
  8  7  1  0
  9 10  1  0
  9  8  1  0
 11 12  2  0
 11 10  1  0
 13 15  1  0
 13 12  1  0
 14 25  2  0
 15 20  1  0
 16 26  1  0
 16 24  1  0
 17 23  1  0
 17 19  1  0
 18 24  1  0
 19 18  1  0
 20 19  2  0
 21 22  1  0
 21 15  2  0
 22 17  2  0
 23 16  1  0
 24 14  1  0
 26 28  2  0
 27 26  1  0
 29 27  1  0
 30 39  2  0
 30 35  1  0
 31 27  1  0
 32 31  1  0
 33 34  1  0
 33 32  1  0
 34 30  1  0
 35 31  1  0
 35 36  2  0
 36 37  1  0
 38 37  2  0
 39 38  1  0
 40 14  1  0
 40 50  1  0
 40 41  1  0
 41 44  1  0
 41 42  1  0
 42 46  1  0
 43 42  2  0
 46 45  1  0
 46 48  1  0
 48 47  1  0
 48 49  1  0
 50 53  1  1
 51 50  1  0
 52 50  1  0
 54 99  1  0
 55 57  2  0
 56 55  1  0
 56 54  1  0
 58 56  1  0
 59 68  1  0
 60 67  2  0
 60 66  1  0
 61 66  1  0
 62 63  1  0
 62 61  1  0
 63 64  1  0
 64 73  1  0
 64 65  1  0
 66 65  1  0
 68 60  1  0
 69 68  1  0
 71 72  1  0
 71 70  1  0
 72 75  1  0
 72 74  1  0
 74 73  1  0
 75 76  1  0
 76 77  2  0
 78 81  1  0
 78 77  1  0
 79 78  2  0
 80 79  1  0
 80 75  2  0
 81 82  1  0
 82 87  2  0
 82 83  1  0
 83 84  2  0
 84 85  1  0
 85 89  1  0
 86 85  2  0
 87 86  1  0
 88 87  1  0
 90 71  1  0
 90 91  1  0
 91 93  1  0
 92 90  2  0
 94 91  1  0
 95 97  1  0
 95 70  1  0
 96 95  1  0
 99 98  1  0
M  ISO  4  12 101  13 101  60 100  68 100
M  END
>  <TORSDO>  (74) 
F 28

>  <SCORE>  (74) 
11.040

>  <name>  (74) 
80

>  <ligand_id>  (74) 
80

>  <original_smiles>  (74) 
[H]c1c([H])c([H])c2c(c1[H])C([H])([H])C([H])([H])C([H])([H])C2([H])N([H])C(=O)C1([H])N(C(=O)C([H])(N([H])C(=O)C([H])(N([H])C([H])([H])[H])C([H])([H])[H])C(C([H])([H])[H])(C([H])([H])[H])C([H])([H])[H])C([H])([H])c2c([H])c(OC([H])([H])C([H])([H])C([H])([H])C([H])([H])OC([H])([H])C([H])([H])C([H])([H])N([H])C(=O)C([H])(N([H])C(=O)C([H])([H])N([H])C(=O)N3C([H])([H])C([H])([H])C([H])([H])C([H])(n4nc(-c5c([H])c([H])c(Oc6c([H])c([H])c(F)c([H])c6F)c([H])c5[H])c(C(=O)N([H])[H])c4N([H])[H])C3([H])[H])C([H])([H])C([H])([H])[H])c([H])c([H])c2C1([H])[H]

>  <smiles>  (74) 
[H]c1c([H])c([H])c2c(c1[H])C([H])([H])C([H])([H])C([H])([H])C2([H])N([H])C(=O)C1([H])N(C(=O)C([H])(N([H])C(=O)C([H])(N([H])C([H])([H])[H])C([H])([H])[H])C(C([H])([H])[H])(C([H])([H])[H])C([H])([H])[H])C([H])([H])c2c([H])c(OC([H])([H])C([H])([H])C([H])([H])C([H])([H])OC([H])([H])C([H])([H])C([H])([H])N([H])C(=O)C([H])(N([H])C(=O)C([H])([H])N([H])C(=O)N3C([H])([H])C([H])([H])C([H])([H])C([H])(n4nc(-c5c([H])c([H])c(Oc6c([H])c([H])c(F)c([H])c6F)c([H])c5[H])c(C(=O)N([H])[H])c4N([H])[H])C3([H])[H])C([H])([H])C([H])([H])[H])c([H])c([H])c2C1([H])[H]

$$$$
81:0:0
     RDKit          3D

111118  0  0  1  0  0  0  0  0999 V2000
  -28.7040  -19.4150   12.7770 C   0  0  0  0  0  0  0  0  0  0  0  0
  -27.9030  -19.5290   11.7110 N   0  0  0  0  0  0  0  0  0  0  0  0
  -29.0580  -18.3240   13.2240 O   0  0  0  0  0  0  0  0  0  0  0  0
  -27.7190  -20.4690   11.3840 H   0  0  0  0  0  0  0  0  0  0  0  0
  -27.1740  -18.4570   11.0260 C   0  0  0  0  0  2  0  0  0  0  0  0
  -26.1940  -17.6960   11.9490 C   0  0  0  0  0  2  0  0  0  0  0  0
  -26.9040  -16.7060   12.7890 N   0  0  0  0  0  4  0  0  0  0  0  0
  -27.1030  -15.9140   12.1980 H   0  0  0  0  0  0  0  0  0  0  0  0
  -27.7930  -17.1170   13.0610 H   0  0  0  0  0  0  0  0  0  0  0  0
  -26.1860  -16.2090   13.9840 C   0  0  0  0  0  2  0  0  0  0  0  0
  -25.9980  -17.2550   15.1170 C   0  0  0  0  0  2  0  0  0  0  0  0
  -27.1560  -17.3080   16.1540 C   0  0  0  0  0  2  0  0  0  0  0  0
  -26.6810  -17.1660   17.6320 C   0  0  0  0  0  2  0  0  0  0  0  0
  -28.8880  -16.6200   18.8130 C   0  0  0  0  0  0  0  0  0  0  0  0
  -27.6930  -17.2260   18.7120 N   0  0  0  0  0  0  0  0  0  0  0  0
  -29.3830  -15.9840   17.8880 O   0  0  0  0  0  0  0  0  0  0  0  0
  -27.3790  -17.6940   19.5530 H   0  0  0  0  0  0  0  0  0  0  0  0
  -29.6500  -16.7290   20.1560 C   0  0  0  0  0  2  0  0  0  0  0  0
  -30.6340  -14.4530   20.4990 C   0  0  0  0  0  0  0  0  0  0  0  0
  -30.4500  -12.2620   19.4240 C   0  0  0  0  0  2  0  0  0  0  0  0
  -29.5170  -12.4600   18.2110 C   0  0  0  0  0  2  0  0  0  0  0  0
  -28.0330  -12.3290   18.6240 C   0  0  0  0  0  2  0  0  0  0  0  0
  -27.6720  -13.1660   19.8810 C   0  0  0  0  0  3  0  0  0  0  0  0
  -28.7170  -12.9160   20.9970 C   0  0  0  0  0  2  0  0  0  0  0  0
  -30.0490  -13.2330   20.4480 N   0  0  0  0  0  0  0  0  0  0  0  0
  -31.7690  -14.6960   20.0750 O   0  0  0  0  0  0  0  0  0  0  0  0
  -29.7670  -15.4240   20.8140 N   0  0  0  0  0  0  0  0  0  0  0  0
  -28.9250  -15.0850   21.2530 H   0  0  0  0  0  0  0  0  0  0  0  0
  -25.2660  -13.8020   20.5620 C   0  0  0  0  0  0  0  0  0  0  0  0
  -24.1850  -13.0340   20.9160 C   0  0  0  0  0  0  0  0  0  0  0  0
  -24.6410  -11.6800   20.8800 C   0  0  0  0  0  0  0  0  0  0  0  0
  -26.3070  -12.9110   20.3370 N   0  0  0  0  0  0  0  0  0  0  0  0
  -25.9320  -11.6320   20.5800 N   0  0  0  0  0  0  0  0  0  0  0  0
  -23.9050  -10.4200   21.0470 C   0  0  0  0  0  0  0  0  0  0  0  0
  -24.3590   -9.4080   21.9210 C   0  0  0  0  0  3  0  0  0  0  0  0
  -23.6230   -8.2150   22.0780 C   0  0  0  0  0  3  0  0  0  0  0  0
  -22.4220   -8.0230   21.3590 C   0  0  0  0  0  0  0  0  0  0  0  0
  -21.9870   -9.0190   20.4690 C   0  0  0  0  0  3  0  0  0  0  0  0
  -22.7240  -10.2050   20.3080 C   0  0  0  0  0  3  0  0  0  0  0  0
  -21.6580   -6.8830   21.4260 O   0  0  0  0  0  0  0  0  0  0  0  0
  -21.6790   -6.0670   22.5300 C   0  0  0  0  0  0  0  0  0  0  0  0
  -21.3960   -6.5580   23.8240 C   0  0  0  0  0  3  0  0  0  0  0  0
  -21.3660   -5.6730   24.9220 C   0  0  0  0  0  3  0  0  0  0  0  0
  -21.6070   -4.2990   24.7270 C   0  0  0  0  0  0  0  0  0  0  0  0
  -21.8820   -3.8100   23.4380 C   0  0  0  0  0  3  0  0  0  0  0  0
  -21.9160   -4.6910   22.3440 C   0  0  0  0  0  0  0  0  0  0  0  0
  -22.1610   -4.2110   21.1000 F   0  0  0  0  0  0  0  0  0  0  0  0
  -21.5740   -3.4460   25.7780 F   0  0  0  0  0  0  0  0  0  0  0  0
  -22.7880  -13.5170   21.1810 C   0  0  0  0  0  0  0  0  0  0  0  0
  -22.0460  -12.8190   22.0400 N   0  0  0  0  0  0  0  0  0  0  0  0
  -22.3550  -14.5480   20.6700 O   0  0  0  0  0  0  0  0  0  0  0  0
  -22.3950  -11.9800   22.4820 H   0  0  0  0  0  0  0  0  0  0  0  0
  -21.1160  -13.1410   22.2690 H   0  0  0  0  0  0  0  0  0  0  0  0
  -25.4440  -15.1720   20.4040 N   0  0  0  0  0  0  0  0  0  0  0  0
  -24.7020  -15.8390   20.5800 H   0  0  0  0  0  0  0  0  0  0  0  0
  -26.2780  -15.5930   20.0190 H   0  0  0  0  0  0  0  0  0  0  0  0
  -29.0920  -20.7050   13.4970 C   0  0  0  0  0  2  0  0  0  0  0  0
  -28.1730  -20.9700   14.7140 C   0  0  0  0  0  2  0  0  0  0  0  0
  -28.9300  -20.9910   16.0570 C   0  0  0  0  0  2  0  0  0  0  0  0
  -28.0150  -20.9690   17.2960 C   0  0  0  0  0  2  0  0  0  0  0  0
  -28.2930  -21.6690   19.6620 C   0  0  0  0  0  0  0  0  0  0  0  0
  -28.7920  -21.2130   18.5070 N   0  0  0  0  0  0  0  0  0  0  0  0
  -27.0820  -21.8000   19.8590 O   0  0  0  0  0  0  0  0  0  0  0  0
  -29.7960  -21.1140   18.4450 H   0  0  0  0  0  0  0  0  0  0  0  0
  -29.3000  -22.0740   20.7520 C   0  0  0  0  0  2  0  0  0  0  0  0
  -29.1910  -24.5470   20.6450 C   0  0  0  0  0  0  0  0  0  0  0  0
  -28.9390  -23.3920   21.2760 N   0  0  0  0  0  0  0  0  0  0  0  0
  -29.9350  -24.6080   19.6630 O   0  0  0  0  0  0  0  0  0  0  0  0
  -28.3070  -23.4100   22.0640 H   0  0  0  0  0  0  0  0  0  0  0  0
  -28.4750  -25.8050   21.1570 C   0  0  0  0  0  2  0  0  0  0  0  0
  -28.3930  -26.7560   20.0930 O   0  0  0  0  0  0  0  0  0  0  0  0
  -24.6100  -31.8710   23.2150 C   0  0  0  0  0  0  0  0  0  0  0  0
  -27.2360  -27.4810   20.1040 C   0  0  0  0  0  0  0  0  0  0  0  0
  -23.3950  -30.4940   21.5530 C   0  0  0  0  0  3  0  0  0  0  0  0
  -24.8450  -28.9650   20.1170 C   0  0  0  0  0  0  0  0  0  0  0  0
  -25.9180  -30.8520   21.3600 C   0  0  0  0  0  2  0  0  0  0  0  0
  -26.0000  -29.4890   20.7110 C   0  0  0  0  0  0  0  0  0  0  0  0
  -27.2020  -28.7530   20.7050 C   0  0  0  0  0  3  0  0  0  0  0  0
  -26.0720  -26.9550   19.5070 C   0  0  0  0  0  3  0  0  0  0  0  0
  -24.8740  -27.6930   19.5120 C   0  0  0  0  0  3  0  0  0  0  0  0
  -23.6020  -29.8240   20.1680 C   0  0  0  0  0  2  0  0  0  0  0  0
  -24.6580  -31.0850   22.1030 N   0  0  0  0  0  0  0  0  0  0  0  0
  -23.5300  -32.1450   23.7570 O   0  0  0  0  0  0  0  0  0  0  0  0
  -22.7390  -29.4680   22.5030 C   0  0  0  0  0  0  0  0  0  0  0  0
  -21.4110  -29.3040   22.3770 N   0  0  0  0  0  0  0  0  0  0  0  0
  -23.4170  -28.8210   23.3060 O   0  0  0  0  0  0  0  0  0  0  0  0
  -20.9250  -29.8790   21.7020 H   0  0  0  0  0  0  0  0  0  0  0  0
  -18.0250  -28.1370   22.8510 C   0  0  0  0  0  0  0  0  0  0  0  0
  -20.5840  -28.3650   23.1330 C   0  0  0  0  0  3  0  0  0  0  0  0
  -20.6750  -26.9390   22.5430 C   0  0  0  0  0  2  0  0  0  0  0  0
  -19.5730  -26.6380   21.5220 C   0  0  0  0  0  2  0  0  0  0  0  0
  -18.1900  -26.7920   22.1630 C   0  0  0  0  0  2  0  0  0  0  0  0
  -19.1500  -28.8830   23.2910 C   0  0  0  0  0  0  0  0  0  0  0  0
  -18.9450  -30.1430   23.8920 C   0  0  0  0  0  3  0  0  0  0  0  0
  -17.6450  -30.6590   24.0570 C   0  0  0  0  0  3  0  0  0  0  0  0
  -16.5340  -29.9090   23.6330 C   0  0  0  0  0  3  0  0  0  0  0  0
  -16.7250  -28.6500   23.0350 C   0  0  0  0  0  3  0  0  0  0  0  0
  -25.9010  -32.4850   23.8430 C   0  0  0  0  0  3  0  0  0  0  0  0
  -26.4460  -31.6620   25.0740 C   0  0  1  0  0  0  0  0  0  0  0  0
  -25.3750  -31.3720   26.1510 C   0  0  0  0  0  1  0  0  0  0  0  0
  -27.0290  -30.3070   24.6090 C   0  0  0  0  0  1  0  0  0  0  0  0
  -27.6040  -32.4340   25.7490 C   0  0  0  0  0  1  0  0  0  0  0  0
  -25.5890  -33.8650   24.2360 N   0  0  0  0  0  0  0  0  0  0  0  0
  -25.9020  -34.9490   23.5140 C   0  0  0  0  0  0  0  0  0  0  0  0
  -26.5570  -34.8930   22.4700 O   0  0  0  0  0  0  0  0  0  0  0  0
  -25.0110  -33.9830   25.0550 H   0  0  0  0  0  0  0  0  0  0  0  0
  -24.1490  -36.7320   23.2640 C   0  0  0  0  0  1  0  0  0  0  0  0
  -25.4110  -36.3130   24.0340 C   0  0  0  0  0  3  0  0  0  0  0  0
  -27.5590  -37.1820   24.8470 C   0  0  0  0  0  1  0  0  0  0  0  0
  -26.4310  -37.3810   23.9410 N   0  0  0  0  0  0  0  0  0  0  0  0
  -26.0200  -38.2890   24.1390 H   0  0  0  0  0  0  0  0  0  0  0  0
  1  3  2  0
  1 57  1  0
  2  1  1  0
  4  2  1  0
  5  2  1  0
  5  6  1  0
  6  7  1  0
  7  9  1  0
  7 10  1  0
  8  7  1  0
 10 11  1  0
 11 12  1  0
 12 13  1  0
 13 15  1  0
 14 18  1  0
 15 14  1  0
 15 17  1  0
 16 14  2  0
 18 27  1  0
 19 27  1  0
 20 25  1  0
 21 22  1  0
 21 20  1  0
 23 22  1  0
 23 32  1  0
 23 24  1  0
 25 19  1  0
 25 24  1  0
 26 19  2  0
 27 28  1  0
 29 30  2  0
 30 49  1  0
 31 30  1  0
 31 34  1  0
 32 29  1  0
 32 33  1  0
 33 31  2  0
 34 35  1  0
 35 36  2  0
 37 40  1  0
 37 36  1  0
 38 37  2  0
 39 38  1  0
 39 34  2  0
 40 41  1  0
 41 42  1  0
 42 43  2  0
 44 43  1  0
 44 48  1  0
 45 44  2  0
 46 41  2  0
 46 45  1  0
 47 46  1  0
 49 50  1  0
 50 53  1  0
 50 52  1  0
 51 49  2  0
 54 29  1  0
 54 55  1  0
 56 54  1  0
 57 58  1  0
 58 59  1  0
 59 60  1  0
 60 62  1  0
 61 63  2  0
 61 65  1  0
 62 61  1  0
 64 62  1  0
 65 67  1  0
 66 70  1  0
 66 67  1  0
 67 69  1  0
 68 66  2  0
 71 73  1  0
 71 70  1  0
 72 83  2  0
 73 78  1  0
 74 82  1  0
 74 84  1  0
 75 81  1  0
 75 77  1  0
 76 82  1  0
 77 76  1  0
 78 77  2  0
 79 80  1  0
 79 73  2  0
 80 75  2  0
 81 74  1  0
 82 72  1  0
 84 86  2  0
 85 84  1  0
 87 85  1  0
 88 97  2  0
 88 93  1  0
 89 85  1  0
 89 93  1  0
 90 89  1  0
 91 92  1  0
 91 90  1  0
 92 88  1  0
 93 94  2  0
 94 95  1  0
 96 95  2  0
 97 96  1  0
 98 72  1  0
 98103  1  0
 98 99  1  0
 99102  1  1
 99100  1  0
101 99  1  0
103106  1  0
104108  1  0
104103  1  0
105104  2  0
108107  1  0
110108  1  0
110111  1  0
110109  1  0
M  ISO  4  19 100  27 100  70 101  71 101
M  END
>  <TORSDO>  (75) 
F 33

>  <SCORE>  (75) 
25.456

>  <name>  (75) 
81

>  <ligand_id>  (75) 
81

>  <original_smiles>  (75) 
[H]c1c([H])c([H])c2c(c1[H])C([H])([H])C([H])([H])C([H])([H])C2([H])N([H])C(=O)C1([H])N(C(=O)C([H])(N([H])C(=O)C([H])(N([H])C([H])([H])[H])C([H])([H])[H])C(C([H])([H])[H])(C([H])([H])[H])C([H])([H])[H])C([H])([H])c2c([H])c(OC([H])([H])C(=O)N([H])C([H])([H])C(=O)N([H])C([H])([H])C([H])([H])C([H])([H])C([H])([H])C(=O)N([H])C([H])([H])C([H])([H])[N+]([H])([H])C([H])([H])C([H])([H])C([H])([H])C([H])([H])N([H])C(=O)C([H])([H])N([H])C(=O)N3C([H])([H])C([H])([H])C([H])([H])C([H])(n4nc(-c5c([H])c([H])c(Oc6c([H])c([H])c(F)c([H])c6F)c([H])c5[H])c(C(=O)N([H])[H])c4N([H])[H])C3([H])[H])c([H])c([H])c2C1([H])[H]

>  <smiles>  (75) 
[H]c1c([H])c([H])c2c(c1[H])C([H])([H])C([H])([H])C([H])([H])C2([H])N([H])C(=O)C1([H])N(C(=O)C([H])(N([H])C(=O)C([H])(N([H])C([H])([H])[H])C([H])([H])[H])C(C([H])([H])[H])(C([H])([H])[H])C([H])([H])[H])C([H])([H])c2c([H])c(OC([H])([H])C(=O)N([H])C([H])([H])C(=O)N([H])C([H])([H])C([H])([H])C([H])([H])C([H])([H])C(=O)N([H])C([H])([H])C([H])([H])[N+]([H])([H])C([H])([H])C([H])([H])C([H])([H])C([H])([H])N([H])C(=O)C([H])([H])N([H])C(=O)N3C([H])([H])C([H])([H])C([H])([H])C([H])(n4nc(-c5c([H])c([H])c(Oc6c([H])c([H])c(F)c([H])c6F)c([H])c5[H])c(C(=O)N([H])[H])c4N([H])[H])C3([H])[H])c([H])c([H])c2C1([H])[H]

$$$$
82:0:0
     RDKit          3D

 91 98  0  0  1  0  0  0  0  0999 V2000
  -31.4660  -22.2740   20.4310 C   0  0  0  0  0  0  0  0  0  0  0  0
  -30.2450  -21.7710   20.1980 N   0  0  0  0  0  0  0  0  0  0  0  0
  -32.4780  -21.5660   20.4270 O   0  0  0  0  0  0  0  0  0  0  0  0
  -29.4890  -22.4460   20.2070 H   0  0  0  0  0  0  0  0  0  0  0  0
  -31.6100  -23.7870   20.6640 C   0  0  0  0  0  2  0  0  0  0  0  0
  -30.3460  -24.4480   20.8220 O   0  0  0  0  0  0  0  0  0  0  0  0
  -30.5350  -25.8670   20.8490 C   0  0  0  0  0  2  0  0  0  0  0  0
  -29.2690  -26.6740   21.1880 C   0  0  0  0  0  2  0  0  0  0  0  0
  -28.3820  -26.6860   20.0710 O   0  0  0  0  0  0  0  0  0  0  0  0
  -24.5830  -31.8670   23.2510 C   0  0  0  0  0  0  0  0  0  0  0  0
  -27.2410  -27.4530   20.1590 C   0  0  0  0  0  0  0  0  0  0  0  0
  -23.3740  -30.4660   21.6050 C   0  0  0  0  0  3  0  0  0  0  0  0
  -24.8290  -28.9320   20.1790 C   0  0  0  0  0  0  0  0  0  0  0  0
  -25.8920  -30.8380   21.3990 C   0  0  0  0  0  2  0  0  0  0  0  0
  -25.9810  -29.4620   20.7710 C   0  0  0  0  0  0  0  0  0  0  0  0
  -27.1880  -28.7300   20.7710 C   0  0  0  0  0  3  0  0  0  0  0  0
  -26.0750  -26.9380   19.5600 C   0  0  0  0  0  3  0  0  0  0  0  0
  -24.8660  -27.6630   19.5720 C   0  0  0  0  0  3  0  0  0  0  0  0
  -23.5860  -29.7910   20.2220 C   0  0  0  0  0  2  0  0  0  0  0  0
  -24.6340  -31.0700   22.1450 N   0  0  0  0  0  0  0  0  0  0  0  0
  -23.5030  -32.1350   23.7950 O   0  0  0  0  0  0  0  0  0  0  0  0
  -22.7270  -29.4420   22.5640 C   0  0  0  0  0  0  0  0  0  0  0  0
  -21.4030  -29.2590   22.4390 N   0  0  0  0  0  0  0  0  0  0  0  0
  -23.4140  -28.8150   23.3760 O   0  0  0  0  0  0  0  0  0  0  0  0
  -20.9130  -29.8150   21.7520 H   0  0  0  0  0  0  0  0  0  0  0  0
  -18.0300  -28.0690   22.9440 C   0  0  0  0  0  0  0  0  0  0  0  0
  -20.5890  -28.3210   23.2100 C   0  0  0  0  0  3  0  0  0  0  0  0
  -20.6870  -26.8910   22.6310 C   0  0  0  0  0  2  0  0  0  0  0  0
  -19.5820  -26.5730   21.6180 C   0  0  0  0  0  2  0  0  0  0  0  0
  -18.2020  -26.7200   22.2670 C   0  0  0  0  0  2  0  0  0  0  0  0
  -19.1500  -28.8270   23.3750 C   0  0  0  0  0  0  0  0  0  0  0  0
  -18.9370  -30.0890   23.9690 C   0  0  0  0  0  3  0  0  0  0  0  0
  -17.6330  -30.5930   24.1410 C   0  0  0  0  0  3  0  0  0  0  0  0
  -16.5260  -29.8310   23.7260 C   0  0  0  0  0  3  0  0  0  0  0  0
  -16.7260  -28.5710   23.1340 C   0  0  0  0  0  3  0  0  0  0  0  0
  -25.8710  -32.4950   23.8670 C   0  0  0  0  0  3  0  0  0  0  0  0
  -25.5650  -33.8930   24.1980 N   0  0  0  0  0  0  0  0  0  0  0  0
  -25.9010  -34.9440   23.4370 C   0  0  0  0  0  0  0  0  0  0  0  0
  -26.5710  -34.8380   22.4060 O   0  0  0  0  0  0  0  0  0  0  0  0
  -24.9660  -34.0500   24.9950 H   0  0  0  0  0  0  0  0  0  0  0  0
  -24.1780  -36.7390   23.0740 C   0  0  0  0  0  1  0  0  0  0  0  0
  -25.4160  -36.3340   23.8910 C   0  0  0  0  0  3  0  0  0  0  0  0
  -27.5510  -37.2090   24.7290 C   0  0  0  0  0  1  0  0  0  0  0  0
  -26.4530  -37.3840   23.7820 N   0  0  0  0  0  0  0  0  0  0  0  0
  -26.0500  -38.3050   23.9290 H   0  0  0  0  0  0  0  0  0  0  0  0
  -26.3960  -31.7200   25.1370 C   0  0  1  0  0  0  0  0  0  0  0  0
  -25.3100  -31.4770   26.2120 C   0  0  0  0  0  1  0  0  0  0  0  0
  -26.9740  -30.3440   24.7300 C   0  0  0  0  0  1  0  0  0  0  0  0
  -27.5500  -32.5100   25.7950 C   0  0  0  0  0  1  0  0  0  0  0  0
  -29.9460  -20.3950   19.7760 C   0  0  0  0  0  2  0  0  0  0  0  0
  -30.1550  -19.3390   20.8900 C   0  0  0  0  0  2  0  0  0  0  0  0
  -29.8330  -17.8870   20.4460 C   0  0  0  0  0  2  0  0  0  0  0  0
  -30.3400  -16.8250   21.4520 C   0  0  0  0  0  2  0  0  0  0  0  0
  -30.6320  -14.4900   20.5120 C   0  0  0  0  0  0  0  0  0  0  0  0
  -30.3600  -12.3430   19.3180 C   0  0  0  0  0  2  0  0  0  0  0  0
  -29.4140  -12.5610   18.1180 C   0  0  0  0  0  2  0  0  0  0  0  0
  -27.9360  -12.4310   18.5410 C   0  0  0  0  0  2  0  0  0  0  0  0
  -27.6000  -13.2370   19.8250 C   0  0  0  0  0  3  0  0  0  0  0  0
  -28.6570  -12.9800   20.9230 C   0  0  0  0  0  2  0  0  0  0  0  0
  -29.9790  -13.3070   20.3600 N   0  0  0  0  0  0  0  0  0  0  0  0
  -31.7450  -14.7140   20.0280 O   0  0  0  0  0  0  0  0  0  0  0  0
  -29.9230  -15.4510   21.1350 N   0  0  0  0  0  0  0  0  0  0  0  0
  -29.0100  -15.1720   21.4580 H   0  0  0  0  0  0  0  0  0  0  0  0
  -25.1980  -13.8280   20.5400 C   0  0  0  0  0  0  0  0  0  0  0  0
  -24.1360  -13.0480   20.9110 C   0  0  0  0  0  0  0  0  0  0  0  0
  -24.6050  -11.7000   20.8790 C   0  0  0  0  0  0  0  0  0  0  0  0
  -26.2500  -12.9540   20.3050 N   0  0  0  0  0  0  0  0  0  0  0  0
  -25.8960  -11.6690   20.5660 N   0  0  0  0  0  0  0  0  0  0  0  0
  -23.8890  -10.4330   21.0720 C   0  0  0  0  0  0  0  0  0  0  0  0
  -24.3410   -9.4610   21.9920 C   0  0  0  0  0  3  0  0  0  0  0  0
  -23.6250   -8.2580   22.1710 C   0  0  0  0  0  3  0  0  0  0  0  0
  -22.4430   -8.0200   21.4320 C   0  0  0  0  0  0  0  0  0  0  0  0
  -22.0110   -8.9800   20.5000 C   0  0  0  0  0  3  0  0  0  0  0  0
  -22.7280  -10.1720   20.3190 C   0  0  0  0  0  3  0  0  0  0  0  0
  -21.6960   -6.8700   21.5240 O   0  0  0  0  0  0  0  0  0  0  0  0
  -21.6820   -6.1080   22.6650 C   0  0  0  0  0  0  0  0  0  0  0  0
  -21.2910   -6.6420   23.9110 C   0  0  0  0  0  3  0  0  0  0  0  0
  -21.2200   -5.8050   25.0430 C   0  0  0  0  0  3  0  0  0  0  0  0
  -21.5360   -4.4380   24.9300 C   0  0  0  0  0  0  0  0  0  0  0  0
  -21.9220   -3.9050   23.6890 C   0  0  0  0  0  3  0  0  0  0  0  0
  -21.9930   -4.7370   22.5590 C   0  0  0  0  0  0  0  0  0  0  0  0
  -22.3440   -4.2120   21.3600 F   0  0  0  0  0  0  0  0  0  0  0  0
  -21.4620   -3.6360   26.0180 F   0  0  0  0  0  0  0  0  0  0  0  0
  -22.7350  -13.5160   21.1840 C   0  0  0  0  0  0  0  0  0  0  0  0
  -22.0080  -12.8190   22.0510 N   0  0  0  0  0  0  0  0  0  0  0  0
  -22.2900  -14.5380   20.6620 O   0  0  0  0  0  0  0  0  0  0  0  0
  -22.3760  -11.9950   22.5030 H   0  0  0  0  0  0  0  0  0  0  0  0
  -21.0690  -13.1170   22.2660 H   0  0  0  0  0  0  0  0  0  0  0  0
  -25.3510  -15.1990   20.3640 N   0  0  0  0  0  0  0  0  0  0  0  0
  -24.5800  -15.8470   20.4820 H   0  0  0  0  0  0  0  0  0  0  0  0
  -26.1960  -15.6460   20.0290 H   0  0  0  0  0  0  0  0  0  0  0  0
  1  5  1  0
  2  4  1  0
  2  1  1  0
  3  1  2  0
  5  6  1  0
  6  7  1  0
  7  8  1  0
  9 11  1  0
  9  8  1  0
 10 21  2  0
 11 16  1  0
 12 20  1  0
 12 22  1  0
 13 19  1  0
 13 15  1  0
 14 20  1  0
 15 16  2  0
 15 14  1  0
 17 18  1  0
 17 11  2  0
 18 13  2  0
 19 12  1  0
 20 10  1  0
 22 24  2  0
 23 22  1  0
 25 23  1  0
 26 35  2  0
 26 31  1  0
 27 23  1  0
 27 31  1  0
 28 27  1  0
 29 30  1  0
 29 28  1  0
 30 26  1  0
 31 32  2  0
 32 33  1  0
 34 33  2  0
 35 34  1  0
 36 10  1  0
 36 37  1  0
 36 46  1  0
 37 40  1  0
 38 42  1  0
 38 37  1  0
 39 38  2  0
 42 41  1  0
 44 42  1  0
 44 45  1  0
 44 43  1  0
 46 49  1  1
 46 47  1  0
 48 46  1  0
 50  2  1  0
 50 51  1  0
 52 51  1  0
 52 53  1  0
 54 62  1  0
 55 60  1  0
 56 57  1  0
 56 55  1  0
 58 57  1  0
 58 67  1  0
 58 59  1  0
 60 54  1  0
 60 59  1  0
 61 54  2  0
 62 53  1  0
 62 63  1  0
 64 65  2  0
 65 84  1  0
 66 65  1  0
 66 69  1  0
 67 64  1  0
 67 68  1  0
 68 66  2  0
 69 70  1  0
 70 71  2  0
 72 75  1  0
 72 71  1  0
 73 72  2  0
 74 73  1  0
 74 69  2  0
 75 76  1  0
 76 77  1  0
 77 78  2  0
 79 78  1  0
 79 83  1  0
 80 79  2  0
 81 76  2  0
 81 80  1  0
 82 81  1  0
 84 85  1  0
 85 88  1  0
 85 87  1  0
 86 84  2  0
 89 90  1  0
 89 64  1  0
 91 89  1  0
M  ISO  4   8 101   9 101  54 100  62 100
M  END
>  <TORSDO>  (76) 
F 24

>  <SCORE>  (76) 
-12.428

>  <name>  (76) 
82

>  <ligand_id>  (76) 
82

>  <original_smiles>  (76) 
[H]c1c([H])c([H])c2c(c1[H])C([H])([H])C([H])([H])C([H])([H])C2([H])N([H])C(=O)C1([H])N(C(=O)C([H])(N([H])C(=O)C([H])(N([H])C([H])([H])[H])C([H])([H])[H])C(C([H])([H])[H])(C([H])([H])[H])C([H])([H])[H])C([H])([H])c2c([H])c(OC([H])([H])C([H])([H])OC([H])([H])C(=O)N([H])C([H])([H])C([H])([H])C([H])([H])C([H])([H])N([H])C(=O)N3C([H])([H])C([H])([H])C([H])([H])C([H])(n4nc(-c5c([H])c([H])c(Oc6c([H])c([H])c(F)c([H])c6F)c([H])c5[H])c(C(=O)N([H])[H])c4N([H])[H])C3([H])[H])c([H])c([H])c2C1([H])[H]

>  <smiles>  (76) 
[H]c1c([H])c([H])c2c(c1[H])C([H])([H])C([H])([H])C([H])([H])C2([H])N([H])C(=O)C1([H])N(C(=O)C([H])(N([H])C(=O)C([H])(N([H])C([H])([H])[H])C([H])([H])[H])C(C([H])([H])[H])(C([H])([H])[H])C([H])([H])[H])C([H])([H])c2c([H])c(OC([H])([H])C([H])([H])OC([H])([H])C(=O)N([H])C([H])([H])C([H])([H])C([H])([H])C([H])([H])N([H])C(=O)N3C([H])([H])C([H])([H])C([H])([H])C([H])(n4nc(-c5c([H])c([H])c(Oc6c([H])c([H])c(F)c([H])c6F)c([H])c5[H])c(C(=O)N([H])[H])c4N([H])[H])C3([H])[H])c([H])c([H])c2C1([H])[H]

$$$$
83:0:0
     RDKit          3D

104111  0  0  1  0  0  0  0  0999 V2000
  -23.2130  -20.7030   19.9980 N   0  0  0  0  0  4  0  0  0  0  0  0
  -22.2270  -20.7190   19.7910 H   0  0  0  0  0  0  0  0  0  0  0  0
  -23.2950  -20.3350   20.9310 H   0  0  0  0  0  0  0  0  0  0  0  0
  -23.8460  -19.7860   19.0180 C   0  0  0  0  0  2  0  0  0  0  0  0
  -24.8390  -18.8110   19.6820 C   0  0  0  0  0  2  0  0  0  0  0  0
  -25.7160  -18.0180   18.6750 C   0  0  0  0  0  2  0  0  0  0  0  0
  -27.1600  -18.3620   18.7110 N   0  0  0  0  0  4  0  0  0  0  0  0
  -27.2780  -19.3200   19.0000 H   0  0  0  0  0  0  0  0  0  0  0  0
  -27.5130  -18.2900   17.7690 H   0  0  0  0  0  0  0  0  0  0  0  0
  -27.9730  -17.4800   19.5780 C   0  0  0  0  0  2  0  0  0  0  0  0
  -29.4930  -17.6940   19.4670 C   0  0  0  0  0  2  0  0  0  0  0  0
  -30.8480  -16.9640   21.4410 C   0  0  0  0  0  0  0  0  0  0  0  0
  -30.1940  -16.7090   20.2960 N   0  0  0  0  0  0  0  0  0  0  0  0
  -31.0090  -18.1110   21.8590 O   0  0  0  0  0  0  0  0  0  0  0  0
  -30.1300  -15.7420   20.0180 H   0  0  0  0  0  0  0  0  0  0  0  0
  -31.3740  -15.7790   22.2760 C   0  0  0  0  0  2  0  0  0  0  0  0
  -31.3320  -13.6860   20.9110 C   0  0  0  0  0  0  0  0  0  0  0  0
  -30.7080  -12.1740   19.0760 C   0  0  0  0  0  2  0  0  0  0  0  0
  -29.8960  -12.9280   17.9970 C   0  0  0  0  0  2  0  0  0  0  0  0
  -28.4730  -13.3320   18.4530 C   0  0  0  0  0  2  0  0  0  0  0  0
  -28.0770  -12.6980   19.7840 C   0  0  0  0  0  3  0  0  0  0  0  0
  -29.1000  -12.5560   20.9110 C   0  0  0  0  0  2  0  0  0  0  0  0
  -30.4600  -12.7890   20.3910 N   0  0  0  0  0  0  0  0  0  0  0  0
  -32.4600  -13.8810   20.4570 O   0  0  0  0  0  0  0  0  0  0  0  0
  -30.8310  -14.4840   21.8620 N   0  0  0  0  0  0  0  0  0  0  0  0
  -29.9220  -14.2330   22.2260 H   0  0  0  0  0  0  0  0  0  0  0  0
  -25.7040  -13.7720   20.3570 C   0  0  0  0  0  0  0  0  0  0  0  0
  -24.5650  -13.0960   20.7160 C   0  0  0  0  0  0  0  0  0  0  0  0
  -24.9230  -11.7190   20.7330 C   0  0  0  0  0  0  0  0  0  0  0  0
  -26.6760  -12.7800   20.1760 N   0  0  0  0  0  0  0  0  0  0  0  0
  -26.1810  -11.5660   20.4420 N   0  0  0  0  0  0  0  0  0  0  0  0
  -24.1700  -10.4990   20.9500 C   0  0  0  0  0  0  0  0  0  0  0  0
  -24.6170   -9.5260   21.8720 C   0  0  0  0  0  3  0  0  0  0  0  0
  -23.8780   -8.3450   22.0630 C   0  0  0  0  0  3  0  0  0  0  0  0
  -22.6910   -8.1320   21.3220 C   0  0  0  0  0  0  0  0  0  0  0  0
  -22.2800   -9.0890   20.3770 C   0  0  0  0  0  3  0  0  0  0  0  0
  -23.0100  -10.2690   20.1940 C   0  0  0  0  0  3  0  0  0  0  0  0
  -21.9110   -7.0110   21.4300 O   0  0  0  0  0  0  0  0  0  0  0  0
  -21.8240   -6.3140   22.6070 C   0  0  0  0  0  0  0  0  0  0  0  0
  -21.4460   -6.9360   23.8190 C   0  0  0  0  0  3  0  0  0  0  0  0
  -21.2970   -6.1640   24.9880 C   0  0  0  0  0  3  0  0  0  0  0  0
  -21.5130   -4.7740   24.9460 C   0  0  0  0  0  0  0  0  0  0  0  0
  -21.8840   -4.1530   23.7410 C   0  0  0  0  0  3  0  0  0  0  0  0
  -22.0360   -4.9220   22.5750 C   0  0  0  0  0  0  0  0  0  0  0  0
  -22.3690   -4.3200   21.4090 F   0  0  0  0  0  0  0  0  0  0  0  0
  -21.3550   -4.0300   26.0660 F   0  0  0  0  0  0  0  0  0  0  0  0
  -23.1960  -13.6500   20.9860 C   0  0  0  0  0  0  0  0  0  0  0  0
  -22.4560  -13.0200   21.8950 N   0  0  0  0  0  0  0  0  0  0  0  0
  -22.7910  -14.6650   20.4220 O   0  0  0  0  0  0  0  0  0  0  0  0
  -22.7960  -12.2020   22.3790 H   0  0  0  0  0  0  0  0  0  0  0  0
  -21.5360  -13.3730   22.1170 H   0  0  0  0  0  0  0  0  0  0  0  0
  -25.9730  -15.1260   20.1960 N   0  0  0  0  0  0  0  0  0  0  0  0
  -25.2780  -15.7720   20.5490 H   0  0  0  0  0  0  0  0  0  0  0  0
  -26.9160  -15.4200   20.4050 H   0  0  0  0  0  0  0  0  0  0  0  0
  -23.6760  -22.1070   19.9700 C   0  0  0  0  0  2  0  0  0  0  0  0
  -25.2070  -22.2420   20.1020 C   0  0  0  0  0  2  0  0  0  0  0  0
  -25.6900  -23.7060   20.0530 C   0  0  0  0  0  2  0  0  0  0  0  0
  -27.2060  -23.8070   19.8150 C   0  0  0  0  0  2  0  0  0  0  0  0
  -28.9520  -25.5620   19.7940 C   0  0  0  0  0  0  0  0  0  0  0  0
  -27.6830  -25.1780   19.9730 N   0  0  0  0  0  0  0  0  0  0  0  0
  -29.8580  -24.7530   19.5720 O   0  0  0  0  0  0  0  0  0  0  0  0
  -27.0050  -25.9010   20.1650 H   0  0  0  0  0  0  0  0  0  0  0  0
  -29.2530  -27.0670   19.8510 C   0  0  0  0  0  2  0  0  0  0  0  0
  -28.6170  -27.7310   18.7560 O   0  0  0  0  0  0  0  0  0  0  0  0
  -24.4530  -31.4510   23.1840 C   0  0  0  0  0  0  0  0  0  0  0  0
  -27.3780  -28.2520   19.0310 C   0  0  0  0  0  0  0  0  0  0  0  0
  -23.3020  -30.2700   21.3390 C   0  0  0  0  0  3  0  0  0  0  0  0
  -24.8150  -29.3200   19.5180 C   0  0  0  0  0  0  0  0  0  0  0  0
  -25.7220  -31.0510   21.0770 C   0  0  0  0  0  2  0  0  0  0  0  0
  -25.9360  -29.8760   20.1480 C   0  0  0  0  0  0  0  0  0  0  0  0
  -27.2220  -29.3440   19.9120 C   0  0  0  0  0  3  0  0  0  0  0  0
  -26.2470  -27.7080   18.3910 C   0  0  0  0  0  3  0  0  0  0  0  0
  -24.9630  -28.2300   18.6420 C   0  0  0  0  0  3  0  0  0  0  0  0
  -23.4740  -29.9440   19.8300 C   0  0  0  0  0  2  0  0  0  0  0  0
  -24.5140  -30.9290   21.9270 N   0  0  0  0  0  0  0  0  0  0  0  0
  -23.3990  -31.4310   23.8350 O   0  0  0  0  0  0  0  0  0  0  0  0
  -22.8870  -28.9780   22.0770 C   0  0  0  0  0  0  0  0  0  0  0  0
  -21.6250  -28.5610   21.8880 N   0  0  0  0  0  0  0  0  0  0  0  0
  -23.6950  -28.3620   22.7760 O   0  0  0  0  0  0  0  0  0  0  0  0
  -21.0210  -29.1260   21.3080 H   0  0  0  0  0  0  0  0  0  0  0  0
  -18.6220  -26.5540   21.9380 C   0  0  0  0  0  0  0  0  0  0  0  0
  -21.0260  -27.3510   22.4500 C   0  0  0  0  0  3  0  0  0  0  0  0
  -21.4990  -26.0910   21.6860 C   0  0  0  0  0  2  0  0  0  0  0  0
  -20.5530  -25.6840   20.5520 C   0  0  0  0  0  2  0  0  0  0  0  0
  -19.1490  -25.4040   21.0970 C   0  0  0  0  0  2  0  0  0  0  0  0
  -19.5040  -27.4760   22.5610 C   0  0  0  0  0  0  0  0  0  0  0  0
  -18.9620  -28.5470   23.3050 C   0  0  0  0  0  3  0  0  0  0  0  0
  -17.5690  -28.7020   23.4310 C   0  0  0  0  0  3  0  0  0  0  0  0
  -16.7010  -27.7760   22.8280 C   0  0  0  0  0  3  0  0  0  0  0  0
  -17.2270  -26.7030   22.0870 C   0  0  0  0  0  3  0  0  0  0  0  0
  -25.6950  -32.1210   23.8530 C   0  0  0  0  0  3  0  0  0  0  0  0
  -25.3010  -33.4780   24.2550 N   0  0  0  0  0  0  0  0  0  0  0  0
  -25.6180  -34.5920   23.5820 C   0  0  0  0  0  0  0  0  0  0  0  0
  -26.3420  -34.5880   22.5820 O   0  0  0  0  0  0  0  0  0  0  0  0
  -24.6650  -33.5540   25.0330 H   0  0  0  0  0  0  0  0  0  0  0  0
  -23.8340  -36.3310   23.2370 C   0  0  0  0  0  1  0  0  0  0  0  0
  -25.0390  -35.9220   24.0990 C   0  0  0  0  0  3  0  0  0  0  0  0
  -27.0800  -36.8290   25.1180 C   0  0  0  0  0  1  0  0  0  0  0  0
  -26.0260  -37.0230   24.1270 N   0  0  0  0  0  0  0  0  0  0  0  0
  -25.5700  -37.9110   24.3180 H   0  0  0  0  0  0  0  0  0  0  0  0
  -26.2480  -31.3110   25.0880 C   0  0  1  0  0  0  0  0  0  0  0  0
  -25.1610  -30.9350   26.1230 C   0  0  0  0  0  1  0  0  0  0  0  0
  -26.9290  -30.0030   24.6190 C   0  0  0  0  0  1  0  0  0  0  0  0
  -27.3350  -32.1390   25.8140 C   0  0  0  0  0  1  0  0  0  0  0  0
  1  3  1  0
  2  1  1  0
  4  5  1  0
  4  1  1  0
  6  7  1  0
  6  5  1  0
  7  8  1  0
  7 10  1  0
  9  7  1  0
 11 10  1  0
 11 13  1  0
 12 14  2  0
 12 16  1  0
 13 12  1  0
 15 13  1  0
 17 25  1  0
 18 23  1  0
 19 20  1  0
 19 18  1  0
 21 20  1  0
 21 30  1  0
 21 22  1  0
 23 17  1  0
 23 22  1  0
 24 17  2  0
 25 26  1  0
 25 16  1  0
 27 28  2  0
 28 29  1  0
 28 47  1  0
 29 32  1  0
 30 27  1  0
 30 31  1  0
 31 29  2  0
 32 33  1  0
 33 34  2  0
 35 38  1  0
 35 34  1  0
 36 35  2  0
 37 36  1  0
 37 32  2  0
 38 39  1  0
 39 40  1  0
 40 41  2  0
 42 41  1  0
 42 46  1  0
 43 42  2  0
 44 39  2  0
 44 43  1  0
 45 44  1  0
 47 48  1  0
 48 51  1  0
 48 50  1  0
 49 47  2  0
 52 27  1  0
 52 54  1  0
 52 53  1  0
 55  1  1  0
 55 56  1  0
 57 56  1  0
 58 60  1  0
 58 57  1  0
 59 63  1  0
 59 60  1  0
 60 62  1  0
 61 59  2  0
 64 66  1  0
 64 63  1  0
 65 76  2  0
 66 71  1  0
 67 75  1  0
 67 77  1  0
 68 74  1  0
 68 70  1  0
 69 75  1  0
 70 69  1  0
 71 70  2  0
 72 73  1  0
 72 66  2  0
 73 68  2  0
 74 67  1  0
 75 65  1  0
 77 79  2  0
 78 77  1  0
 80 78  1  0
 81 90  2  0
 81 86  1  0
 82 78  1  0
 82 86  1  0
 83 82  1  0
 84 85  1  0
 84 83  1  0
 85 81  1  0
 86 87  2  0
 87 88  1  0
 89 88  2  0
 90 89  1  0
 91 65  1  0
 91 92  1  0
 91101  1  0
 92 95  1  0
 93 97  1  0
 93 92  1  0
 94 93  2  0
 97 96  1  0
 97 99  1  0
 99100  1  0
 99 98  1  0
101104  1  1
101102  1  0
103101  1  0
M  ISO  4  17 100  25 100  63 101  64 101
M  END
>  <TORSDO>  (77) 
F 30

>  <SCORE>  (77) 
-1.445

>  <name>  (77) 
83

>  <ligand_id>  (77) 
83

>  <original_smiles>  (77) 
[H]c1c([H])c([H])c2c(c1[H])C([H])([H])C([H])([H])C([H])([H])C2([H])N([H])C(=O)C1([H])N(C(=O)C([H])(N([H])C(=O)C([H])(N([H])C([H])([H])[H])C([H])([H])[H])C(C([H])([H])[H])(C([H])([H])[H])C([H])([H])[H])C([H])([H])c2c([H])c(OC([H])([H])C(=O)N([H])C([H])([H])C([H])([H])C([H])([H])C([H])([H])[N+]([H])([H])C([H])([H])C([H])([H])C([H])([H])[N+]([H])([H])C([H])([H])C([H])([H])N([H])C(=O)C([H])([H])N([H])C(=O)N3C([H])([H])C([H])([H])C([H])([H])C([H])(n4nc(-c5c([H])c([H])c(Oc6c([H])c([H])c(F)c([H])c6F)c([H])c5[H])c(C(=O)N([H])[H])c4N([H])[H])C3([H])[H])c([H])c([H])c2C1([H])[H]

>  <smiles>  (77) 
[H]c1c([H])c([H])c2c(c1[H])C([H])([H])C([H])([H])C([H])([H])C2([H])N([H])C(=O)C1([H])N(C(=O)C([H])(N([H])C(=O)C([H])(N([H])C([H])([H])[H])C([H])([H])[H])C(C([H])([H])[H])(C([H])([H])[H])C([H])([H])[H])C([H])([H])c2c([H])c(OC([H])([H])C(=O)N([H])C([H])([H])C([H])([H])C([H])([H])C([H])([H])[N+]([H])([H])C([H])([H])C([H])([H])C([H])([H])[N+]([H])([H])C([H])([H])C([H])([H])N([H])C(=O)C([H])([H])N([H])C(=O)N3C([H])([H])C([H])([H])C([H])([H])C([H])(n4nc(-c5c([H])c([H])c(Oc6c([H])c([H])c(F)c([H])c6F)c([H])c5[H])c(C(=O)N([H])[H])c4N([H])[H])C3([H])[H])c([H])c([H])c2C1([H])[H]

$$$$
84:0:0
     RDKit          3D

 89 96  0  0  1  0  0  0  0  0999 V2000
  -29.3200  -24.3400   20.4390 C   0  0  0  0  0  0  0  0  0  0  0  0
  -29.1230  -23.0090   20.3400 N   0  0  0  0  0  0  0  0  0  0  0  0
  -30.3230  -24.8240   20.9690 O   0  0  0  0  0  0  0  0  0  0  0  0
  -28.2690  -22.7160   19.8820 H   0  0  0  0  0  0  0  0  0  0  0  0
  -28.2060  -25.2360   19.8610 C   0  0  0  0  0  2  0  0  0  0  0  0
  -28.3570  -26.6420   20.1770 O   0  0  0  0  0  0  0  0  0  0  0  0
  -24.5850  -31.8720   23.2400 C   0  0  0  0  0  0  0  0  0  0  0  0
  -27.2010  -27.4110   20.1340 C   0  0  0  0  0  0  0  0  0  0  0  0
  -23.3710  -30.4790   21.6010 C   0  0  0  0  0  3  0  0  0  0  0  0
  -24.8140  -28.9490   20.1600 C   0  0  0  0  0  0  0  0  0  0  0  0
  -25.9000  -30.8250   21.3970 C   0  0  0  0  0  2  0  0  0  0  0  0
  -25.9790  -29.4560   20.7500 C   0  0  0  0  0  0  0  0  0  0  0  0
  -27.1740  -28.6940   20.7360 C   0  0  0  0  0  3  0  0  0  0  0  0
  -26.0140  -26.9420   19.5160 C   0  0  0  0  0  3  0  0  0  0  0  0
  -24.8290  -27.6920   19.5390 C   0  0  0  0  0  3  0  0  0  0  0  0
  -23.5720  -29.8110   20.2170 C   0  0  0  0  0  2  0  0  0  0  0  0
  -24.6380  -31.0730   22.1370 N   0  0  0  0  0  0  0  0  0  0  0  0
  -23.5070  -32.1460   23.7840 O   0  0  0  0  0  0  0  0  0  0  0  0
  -22.7230  -29.4530   22.5590 C   0  0  0  0  0  0  0  0  0  0  0  0
  -21.3980  -29.2720   22.4380 N   0  0  0  0  0  0  0  0  0  0  0  0
  -23.4090  -28.8240   23.3700 O   0  0  0  0  0  0  0  0  0  0  0  0
  -20.9040  -29.8330   21.7560 H   0  0  0  0  0  0  0  0  0  0  0  0
  -18.0250  -28.0790   22.9450 C   0  0  0  0  0  0  0  0  0  0  0  0
  -20.5830  -28.3340   23.2100 C   0  0  0  0  0  3  0  0  0  0  0  0
  -20.6830  -26.9040   22.6300 C   0  0  0  0  0  2  0  0  0  0  0  0
  -19.5760  -26.5840   21.6200 C   0  0  0  0  0  2  0  0  0  0  0  0
  -18.1970  -26.7290   22.2690 C   0  0  0  0  0  2  0  0  0  0  0  0
  -19.1450  -28.8390   23.3740 C   0  0  0  0  0  0  0  0  0  0  0  0
  -18.9290  -30.1020   23.9660 C   0  0  0  0  0  3  0  0  0  0  0  0
  -17.6260  -30.6050   24.1360 C   0  0  0  0  0  3  0  0  0  0  0  0
  -16.5200  -29.8420   23.7250 C   0  0  0  0  0  3  0  0  0  0  0  0
  -16.7200  -28.5800   23.1350 C   0  0  0  0  0  3  0  0  0  0  0  0
  -25.8750  -32.5020   23.8540 C   0  0  0  0  0  3  0  0  0  0  0  0
  -25.5660  -33.8960   24.1960 N   0  0  0  0  0  0  0  0  0  0  0  0
  -25.8800  -34.9530   23.4350 C   0  0  0  0  0  0  0  0  0  0  0  0
  -26.5330  -34.8580   22.3930 O   0  0  0  0  0  0  0  0  0  0  0  0
  -24.9840  -34.0440   25.0080 H   0  0  0  0  0  0  0  0  0  0  0  0
  -24.1310  -36.7340   23.1260 C   0  0  0  0  0  1  0  0  0  0  0  0
  -25.3940  -36.3370   23.9060 C   0  0  0  0  0  3  0  0  0  0  0  0
  -27.5420  -37.2340   24.6870 C   0  0  0  0  0  1  0  0  0  0  0  0
  -26.4160  -37.3970   23.7710 N   0  0  0  0  0  0  0  0  0  0  0  0
  -26.0060  -38.3140   23.9320 H   0  0  0  0  0  0  0  0  0  0  0  0
  -26.4050  -31.7210   25.1180 C   0  0  1  0  0  0  0  0  0  0  0  0
  -25.3220  -31.4720   26.1940 C   0  0  0  0  0  1  0  0  0  0  0  0
  -26.9880  -30.3480   24.7080 C   0  0  0  0  0  1  0  0  0  0  0  0
  -27.5590  -32.5120   25.7770 C   0  0  0  0  0  1  0  0  0  0  0  0
  -29.9950  -21.9430   20.8530 C   0  0  0  0  0  2  0  0  0  0  0  0
  -29.4380  -20.5280   20.5370 C   0  0  0  0  0  2  0  0  0  0  0  0
  -30.2930  -19.3630   21.1000 C   0  0  0  0  0  2  0  0  0  0  0  0
  -29.7520  -17.9420   20.7850 C   0  0  0  0  0  2  0  0  0  0  0  0
  -30.6310  -16.8070   21.3730 C   0  0  0  0  0  2  0  0  0  0  0  0
  -30.7320  -14.4520   20.4810 C   0  0  0  0  0  0  0  0  0  0  0  0
  -30.4070  -12.2920   19.3300 C   0  0  0  0  0  2  0  0  0  0  0  0
  -29.4830  -12.4860   18.1110 C   0  0  0  0  0  2  0  0  0  0  0  0
  -28.0030  -12.3710   18.5250 C   0  0  0  0  0  2  0  0  0  0  0  0
  -27.6580  -13.2300   19.7700 C   0  0  0  0  0  3  0  0  0  0  0  0
  -28.6960  -13.0140   20.8950 C   0  0  0  0  0  2  0  0  0  0  0  0
  -30.0310  -13.2930   20.3410 N   0  0  0  0  0  0  0  0  0  0  0  0
  -31.8450  -14.6220   19.9770 O   0  0  0  0  0  0  0  0  0  0  0  0
  -30.1000  -15.4530   21.1210 N   0  0  0  0  0  0  0  0  0  0  0  0
  -29.1820  -15.2400   21.4860 H   0  0  0  0  0  0  0  0  0  0  0  0
  -25.2550  -13.8710   20.4340 C   0  0  0  0  0  0  0  0  0  0  0  0
  -24.1740  -13.1140   20.7990 C   0  0  0  0  0  0  0  0  0  0  0  0
  -24.6230  -11.7580   20.7970 C   0  0  0  0  0  0  0  0  0  0  0  0
  -26.2950  -12.9760   20.2330 N   0  0  0  0  0  0  0  0  0  0  0  0
  -25.9170  -11.7010   20.5080 N   0  0  0  0  0  0  0  0  0  0  0  0
  -23.8800  -10.5070   20.9960 C   0  0  0  0  0  0  0  0  0  0  0  0
  -24.2990   -9.5420   21.9390 C   0  0  0  0  0  3  0  0  0  0  0  0
  -23.5610   -8.3540   22.1260 C   0  0  0  0  0  3  0  0  0  0  0  0
  -22.3870   -8.1230   21.3700 C   0  0  0  0  0  0  0  0  0  0  0  0
  -21.9870   -9.0760   20.4160 C   0  0  0  0  0  3  0  0  0  0  0  0
  -22.7280  -10.2550   20.2280 C   0  0  0  0  0  3  0  0  0  0  0  0
  -21.6190   -6.9870   21.4650 O   0  0  0  0  0  0  0  0  0  0  0  0
  -21.5660   -6.2480   22.6200 C   0  0  0  0  0  0  0  0  0  0  0  0
  -21.1660   -6.8150   23.8490 C   0  0  0  0  0  3  0  0  0  0  0  0
  -21.0600   -6.0040   24.9960 C   0  0  0  0  0  3  0  0  0  0  0  0
  -21.3440   -4.6270   24.9150 C   0  0  0  0  0  0  0  0  0  0  0  0
  -21.7370   -4.0600   23.6900 C   0  0  0  0  0  3  0  0  0  0  0  0
  -21.8450   -4.8680   22.5460 C   0  0  0  0  0  0  0  0  0  0  0  0
  -22.2050   -4.3130   21.3630 F   0  0  0  0  0  0  0  0  0  0  0  0
  -21.2330   -3.8470   26.0160 F   0  0  0  0  0  0  0  0  0  0  0  0
  -22.7780  -13.6100   21.0450 C   0  0  0  0  0  0  0  0  0  0  0  0
  -22.0320  -12.9360   21.9140 N   0  0  0  0  0  0  0  0  0  0  0  0
  -22.3560  -14.6310   20.5020 O   0  0  0  0  0  0  0  0  0  0  0  0
  -22.3860  -12.1120   22.3770 H   0  0  0  0  0  0  0  0  0  0  0  0
  -21.0950  -13.2500   22.1220 H   0  0  0  0  0  0  0  0  0  0  0  0
  -25.4370  -15.2370   20.2370 N   0  0  0  0  0  0  0  0  0  0  0  0
  -24.6790  -15.9040   20.3290 H   0  0  0  0  0  0  0  0  0  0  0  0
  -26.3010  -15.6600   19.9230 H   0  0  0  0  0  0  0  0  0  0  0  0
  1  3  2  0
  2  1  1  0
  2 47  1  0
  4  2  1  0
  5  6  1  0
  5  1  1  0
  7 18  2  0
  8  6  1  0
  8 13  1  0
  9 17  1  0
  9 19  1  0
 10 16  1  0
 10 12  1  0
 11 17  1  0
 12 11  1  0
 13 12  2  0
 14 15  1  0
 14  8  2  0
 15 10  2  0
 16  9  1  0
 17  7  1  0
 19 21  2  0
 20 19  1  0
 22 20  1  0
 23 32  2  0
 23 28  1  0
 24 20  1  0
 24 28  1  0
 25 24  1  0
 26 27  1  0
 26 25  1  0
 27 23  1  0
 28 29  2  0
 29 30  1  0
 31 30  2  0
 32 31  1  0
 33  7  1  0
 33 34  1  0
 33 43  1  0
 34 37  1  0
 35 39  1  0
 35 34  1  0
 36 35  2  0
 39 38  1  0
 41 39  1  0
 41 42  1  0
 41 40  1  0
 43 46  1  1
 43 44  1  0
 45 43  1  0
 48 47  1  0
 48 49  1  0
 50 49  1  0
 50 51  1  0
 52 60  1  0
 53 58  1  0
 54 55  1  0
 54 53  1  0
 56 55  1  0
 56 65  1  0
 56 57  1  0
 58 52  1  0
 58 57  1  0
 59 52  2  0
 60 51  1  0
 60 61  1  0
 62 63  2  0
 63 82  1  0
 64 63  1  0
 64 67  1  0
 65 62  1  0
 65 66  1  0
 66 64  2  0
 67 68  1  0
 68 69  2  0
 70 73  1  0
 70 69  1  0
 71 70  2  0
 72 71  1  0
 72 67  2  0
 73 74  1  0
 74 75  1  0
 75 76  2  0
 77 76  1  0
 77 81  1  0
 78 77  2  0
 79 74  2  0
 79 78  1  0
 80 79  1  0
 82 83  1  0
 83 86  1  0
 83 85  1  0
 84 82  2  0
 87 88  1  0
 87 62  1  0
 89 87  1  0
M  ISO  4   5 101   6 101  52 100  60 100
M  END
>  <TORSDO>  (78) 
F 22

>  <SCORE>  (78) 
-13.006

>  <name>  (78) 
84

>  <ligand_id>  (78) 
84

>  <original_smiles>  (78) 
[H]c1c([H])c([H])c2c(c1[H])C([H])([H])C([H])([H])C([H])([H])C2([H])N([H])C(=O)C1([H])N(C(=O)C([H])(N([H])C(=O)C([H])(N([H])C([H])([H])[H])C([H])([H])[H])C(C([H])([H])[H])(C([H])([H])[H])C([H])([H])[H])C([H])([H])c2c([H])c(OC([H])([H])C(=O)N([H])C([H])([H])C([H])([H])C([H])([H])C([H])([H])C([H])([H])N([H])C(=O)N3C([H])([H])C([H])([H])C([H])([H])C([H])(n4nc(-c5c([H])c([H])c(Oc6c([H])c([H])c(F)c([H])c6F)c([H])c5[H])c(C(=O)N([H])[H])c4N([H])[H])C3([H])[H])c([H])c([H])c2C1([H])[H]

>  <smiles>  (78) 
[H]c1c([H])c([H])c2c(c1[H])C([H])([H])C([H])([H])C([H])([H])C2([H])N([H])C(=O)C1([H])N(C(=O)C([H])(N([H])C(=O)C([H])(N([H])C([H])([H])[H])C([H])([H])[H])C(C([H])([H])[H])(C([H])([H])[H])C([H])([H])[H])C([H])([H])c2c([H])c(OC([H])([H])C(=O)N([H])C([H])([H])C([H])([H])C([H])([H])C([H])([H])C([H])([H])N([H])C(=O)N3C([H])([H])C([H])([H])C([H])([H])C([H])(n4nc(-c5c([H])c([H])c(Oc6c([H])c([H])c(F)c([H])c6F)c([H])c5[H])c(C(=O)N([H])[H])c4N([H])[H])C3([H])[H])c([H])c([H])c2C1([H])[H]

$$$$
85:0:0
     RDKit          3D

 99106  0  0  1  0  0  0  0  0999 V2000
  -34.7150  -24.1050   18.3020 C   0  0  0  0  0  2  0  0  0  0  0  0
  -33.9170  -24.8680   17.2220 C   0  0  0  0  0  2  0  0  0  0  0  0
  -31.5060  -24.8360   17.7930 C   0  0  0  0  0  0  0  0  0  0  0  0
  -32.6960  -25.4470   17.7810 N   0  0  0  0  0  0  0  0  0  0  0  0
  -31.2820  -23.8010   17.1610 O   0  0  0  0  0  0  0  0  0  0  0  0
  -32.7890  -26.3050   18.3070 H   0  0  0  0  0  0  0  0  0  0  0  0
  -30.5550  -25.5110   18.6510 C   0  0  0  0  0  3  0  0  0  0  0  0
  -29.5400  -24.8140   19.2010 C   0  0  0  0  0  3  0  0  0  0  0  0
  -28.4640  -25.3790   20.1040 C   0  0  0  0  0  2  0  0  0  0  0  0
  -28.4480  -26.8050   20.0620 O   0  0  0  0  0  0  0  0  0  0  0  0
  -24.6100  -31.8690   23.2130 C   0  0  0  0  0  0  0  0  0  0  0  0
  -27.2410  -27.4680   20.0850 C   0  0  0  0  0  0  0  0  0  0  0  0
  -23.3920  -30.4990   21.5470 C   0  0  0  0  0  3  0  0  0  0  0  0
  -24.8410  -28.9630   20.1160 C   0  0  0  0  0  0  0  0  0  0  0  0
  -25.9160  -30.8460   21.3560 C   0  0  0  0  0  2  0  0  0  0  0  0
  -25.9970  -29.4810   20.7120 C   0  0  0  0  0  0  0  0  0  0  0  0
  -27.1960  -28.7380   20.6980 C   0  0  0  0  0  3  0  0  0  0  0  0
  -26.0670  -26.9630   19.4750 C   0  0  0  0  0  3  0  0  0  0  0  0
  -24.8700  -27.7010   19.5010 C   0  0  0  0  0  3  0  0  0  0  0  0
  -23.6010  -29.8280   20.1610 C   0  0  0  0  0  2  0  0  0  0  0  0
  -24.6580  -31.0850   22.0990 N   0  0  0  0  0  0  0  0  0  0  0  0
  -23.5330  -32.1450   23.7570 O   0  0  0  0  0  0  0  0  0  0  0  0
  -22.7370  -29.4690   22.4940 C   0  0  0  0  0  0  0  0  0  0  0  0
  -21.4100  -29.3050   22.3720 N   0  0  0  0  0  0  0  0  0  0  0  0
  -23.4170  -28.8220   23.2950 O   0  0  0  0  0  0  0  0  0  0  0  0
  -20.9200  -29.8840   21.7010 H   0  0  0  0  0  0  0  0  0  0  0  0
  -18.0290  -28.1370   22.8470 C   0  0  0  0  0  0  0  0  0  0  0  0
  -20.5860  -28.3660   23.1320 C   0  0  0  0  0  3  0  0  0  0  0  0
  -20.6770  -26.9390   22.5440 C   0  0  0  0  0  2  0  0  0  0  0  0
  -19.5760  -26.6380   21.5220 C   0  0  0  0  0  2  0  0  0  0  0  0
  -18.1930  -26.7920   22.1600 C   0  0  0  0  0  2  0  0  0  0  0  0
  -19.1520  -28.8840   23.2890 C   0  0  0  0  0  0  0  0  0  0  0  0
  -18.9470  -30.1440   23.8900 C   0  0  0  0  0  3  0  0  0  0  0  0
  -17.6470  -30.6580   24.0580 C   0  0  0  0  0  3  0  0  0  0  0  0
  -16.5370  -29.9090   23.6310 C   0  0  0  0  0  3  0  0  0  0  0  0
  -16.7280  -28.6510   23.0310 C   0  0  0  0  0  3  0  0  0  0  0  0
  -25.9030  -32.4820   23.8390 C   0  0  0  0  0  3  0  0  0  0  0  0
  -25.5890  -33.8620   24.2310 N   0  0  0  0  0  0  0  0  0  0  0  0
  -25.9030  -34.9480   23.5120 C   0  0  0  0  0  0  0  0  0  0  0  0
  -26.5570  -34.8930   22.4670 O   0  0  0  0  0  0  0  0  0  0  0  0
  -25.0110  -33.9830   25.0490 H   0  0  0  0  0  0  0  0  0  0  0  0
  -24.1480  -36.7320   23.2630 C   0  0  0  0  0  1  0  0  0  0  0  0
  -25.4100  -36.3110   24.0320 C   0  0  0  0  0  3  0  0  0  0  0  0
  -27.5580  -37.1800   24.8450 C   0  0  0  0  0  1  0  0  0  0  0  0
  -26.4280  -37.3810   23.9410 N   0  0  0  0  0  0  0  0  0  0  0  0
  -26.0150  -38.2860   24.1490 H   0  0  0  0  0  0  0  0  0  0  0  0
  -26.4480  -31.6610   25.0710 C   0  0  1  0  0  0  0  0  0  0  0  0
  -25.3770  -31.3750   26.1480 C   0  0  0  0  0  1  0  0  0  0  0  0
  -27.0280  -30.3060   24.6040 C   0  0  0  0  0  1  0  0  0  0  0  0
  -27.6060  -32.4330   25.7460 C   0  0  0  0  0  1  0  0  0  0  0  0
  -33.8580  -23.2620   19.0810 O   0  0  0  0  0  0  0  0  0  0  0  0
  -33.9530  -23.5080   20.4820 C   0  0  0  0  0  2  0  0  0  0  0  0
  -32.8750  -22.7470   21.2850 C   0  0  0  0  0  2  0  0  0  0  0  0
  -33.2370  -21.3910   21.5410 O   0  0  0  0  0  0  0  0  0  0  0  0
  -32.5570  -20.8530   22.6770 C   0  0  0  0  0  2  0  0  0  0  0  0
  -32.7430  -19.3250   22.7790 C   0  0  0  0  0  2  0  0  0  0  0  0
  -31.5170  -17.3090   21.9980 C   0  0  0  0  0  0  0  0  0  0  0  0
  -31.8030  -18.6160   21.9170 N   0  0  0  0  0  0  0  0  0  0  0  0
  -32.1480  -16.5320   22.7160 O   0  0  0  0  0  0  0  0  0  0  0  0
  -31.2570  -19.1780   21.2780 H   0  0  0  0  0  0  0  0  0  0  0  0
  -30.3040  -16.8260   21.1900 C   0  0  0  0  0  2  0  0  0  0  0  0
  -30.7200  -14.4330   20.6130 C   0  0  0  0  0  0  0  0  0  0  0  0
  -30.4300  -12.3000   19.4230 C   0  0  0  0  0  2  0  0  0  0  0  0
  -29.5020  -12.5230   18.2100 C   0  0  0  0  0  2  0  0  0  0  0  0
  -28.0160  -12.3860   18.6120 C   0  0  0  0  0  2  0  0  0  0  0  0
  -27.6680  -13.2070   19.8830 C   0  0  0  0  0  3  0  0  0  0  0  0
  -28.7060  -12.9610   21.0020 C   0  0  0  0  0  2  0  0  0  0  0  0
  -30.0490  -13.2610   20.4640 N   0  0  0  0  0  0  0  0  0  0  0  0
  -31.8040  -14.6660   20.0720 O   0  0  0  0  0  0  0  0  0  0  0  0
  -30.0410  -15.3850   21.2630 N   0  0  0  0  0  0  0  0  0  0  0  0
  -29.1640  -15.1050   21.6760 H   0  0  0  0  0  0  0  0  0  0  0  0
  -25.2590  -13.8180   20.5670 C   0  0  0  0  0  0  0  0  0  0  0  0
  -24.1810  -13.0450   20.9150 C   0  0  0  0  0  0  0  0  0  0  0  0
  -24.6360  -11.6920   20.8720 C   0  0  0  0  0  0  0  0  0  0  0  0
  -26.3040  -12.9340   20.3390 N   0  0  0  0  0  0  0  0  0  0  0  0
  -25.9290  -11.6490   20.5720 N   0  0  0  0  0  0  0  0  0  0  0  0
  -23.9020  -10.4310   21.0400 C   0  0  0  0  0  0  0  0  0  0  0  0
  -24.3600   -9.4230   21.9180 C   0  0  0  0  0  3  0  0  0  0  0  0
  -23.6300   -8.2240   22.0730 C   0  0  0  0  0  3  0  0  0  0  0  0
  -22.4280   -8.0270   21.3520 C   0  0  0  0  0  0  0  0  0  0  0  0
  -21.9900   -9.0250   20.4640 C   0  0  0  0  0  3  0  0  0  0  0  0
  -22.7200  -10.2150   20.3050 C   0  0  0  0  0  3  0  0  0  0  0  0
  -21.6630   -6.8880   21.4240 O   0  0  0  0  0  0  0  0  0  0  0  0
  -21.6860   -6.0740   22.5280 C   0  0  0  0  0  0  0  0  0  0  0  0
  -21.4030   -6.5640   23.8220 C   0  0  0  0  0  3  0  0  0  0  0  0
  -21.3670   -5.6780   24.9170 C   0  0  0  0  0  3  0  0  0  0  0  0
  -21.6030   -4.3030   24.7240 C   0  0  0  0  0  0  0  0  0  0  0  0
  -21.8820   -3.8140   23.4360 C   0  0  0  0  0  3  0  0  0  0  0  0
  -21.9200   -4.6960   22.3410 C   0  0  0  0  0  0  0  0  0  0  0  0
  -22.1660   -4.2140   21.0980 F   0  0  0  0  0  0  0  0  0  0  0  0
  -21.5630   -3.4520   25.7760 F   0  0  0  0  0  0  0  0  0  0  0  0
  -22.7840  -13.5270   21.1840 C   0  0  0  0  0  0  0  0  0  0  0  0
  -22.0470  -12.8260   22.0420 N   0  0  0  0  0  0  0  0  0  0  0  0
  -22.3490  -14.5570   20.6710 O   0  0  0  0  0  0  0  0  0  0  0  0
  -22.4110  -11.9990   22.4890 H   0  0  0  0  0  0  0  0  0  0  0  0
  -21.1060  -13.1240   22.2570 H   0  0  0  0  0  0  0  0  0  0  0  0
  -25.4330  -15.1890   20.4090 N   0  0  0  0  0  0  0  0  0  0  0  0
  -24.6690  -15.8490   20.5180 H   0  0  0  0  0  0  0  0  0  0  0  0
  -26.2960  -15.6230   20.1020 H   0  0  0  0  0  0  0  0  0  0  0  0
  1 51  1  0
  2  4  1  0
  2  1  1  0
  3  7  1  0
  4  3  1  0
  4  6  1  0
  5  3  2  0
  7  8  2  0
  8  9  1  0
 10 12  1  0
 10  9  1  0
 11 22  2  0
 12 17  1  0
 13 21  1  0
 13 23  1  0
 14 20  1  0
 14 16  1  0
 15 21  1  0
 16 15  1  0
 17 16  2  0
 18 19  1  0
 18 12  2  0
 19 14  2  0
 20 13  1  0
 21 11  1  0
 23 25  2  0
 24 23  1  0
 26 24  1  0
 27 36  2  0
 27 32  1  0
 28 24  1  0
 28 32  1  0
 29 28  1  0
 30 31  1  0
 30 29  1  0
 31 27  1  0
 32 33  2  0
 33 34  1  0
 35 34  2  0
 36 35  1  0
 37 11  1  0
 37 38  1  0
 37 47  1  0
 38 41  1  0
 39 43  1  0
 39 38  1  0
 40 39  2  0
 43 42  1  0
 45 43  1  0
 45 46  1  0
 45 44  1  0
 47 50  1  1
 47 48  1  0
 49 47  1  0
 51 52  1  0
 52 53  1  0
 53 54  1  0
 54 55  1  0
 55 56  1  0
 57 59  2  0
 58 57  1  0
 58 56  1  0
 60 58  1  0
 61 70  1  0
 61 57  1  0
 62 70  1  0
 63 68  1  0
 64 65  1  0
 64 63  1  0
 66 65  1  0
 66 75  1  0
 66 67  1  0
 68 62  1  0
 68 67  1  0
 69 62  2  0
 70 71  1  0
 72 73  2  0
 73 92  1  0
 74 73  1  0
 74 77  1  0
 75 72  1  0
 75 76  1  0
 76 74  2  0
 77 78  1  0
 78 79  2  0
 80 83  1  0
 80 79  1  0
 81 80  2  0
 82 81  1  0
 82 77  2  0
 83 84  1  0
 84 85  1  0
 85 86  2  0
 87 86  1  0
 87 91  1  0
 88 87  2  0
 89 84  2  0
 89 88  1  0
 90 89  1  0
 92 93  1  0
 93 96  1  0
 93 95  1  0
 94 92  2  0
 97 98  1  0
 97 72  1  0
 99 97  1  0
M  ISO  4   9 101  10 101  62 100  70 100
M  END
>  <TORSDO>  (79) 
F 28

>  <SCORE>  (79) 
-8.131

>  <name>  (79) 
85

>  <ligand_id>  (79) 
85

>  <original_smiles>  (79) 
[H]C(C(=O)N([H])C([H])([H])C([H])([H])OC([H])([H])C([H])([H])OC([H])([H])C([H])([H])N([H])C(=O)C([H])([H])N([H])C(=O)N1C([H])([H])C([H])([H])C([H])([H])C([H])(n2nc(-c3c([H])c([H])c(Oc4c([H])c([H])c(F)c([H])c4F)c([H])c3[H])c(C(=O)N([H])[H])c2N([H])[H])C1([H])[H])=C([H])C([H])([H])Oc1c([H])c([H])c2c(c1[H])C([H])([H])N(C(=O)C([H])(N([H])C(=O)C([H])(N([H])C([H])([H])[H])C([H])([H])[H])C(C([H])([H])[H])(C([H])([H])[H])C([H])([H])[H])C([H])(C(=O)N([H])C1([H])c3c([H])c([H])c([H])c([H])c3C([H])([H])C([H])([H])C1([H])[H])C2([H])[H]

>  <smiles>  (79) 
[H]C(C(=O)N([H])C([H])([H])C([H])([H])OC([H])([H])C([H])([H])OC([H])([H])C([H])([H])N([H])C(=O)C([H])([H])N([H])C(=O)N1C([H])([H])C([H])([H])C([H])([H])C([H])(n2nc(-c3c([H])c([H])c(Oc4c([H])c([H])c(F)c([H])c4F)c([H])c3[H])c(C(=O)N([H])[H])c2N([H])[H])C1([H])[H])=C([H])C([H])([H])Oc1c([H])c([H])c2c(c1[H])C([H])([H])N(C(=O)C([H])(N([H])C(=O)C([H])(N([H])C([H])([H])[H])C([H])([H])[H])C(C([H])([H])[H])(C([H])([H])[H])C([H])([H])[H])C([H])(C(=O)N([H])C1([H])c3c([H])c([H])c([H])c([H])c3C([H])([H])C([H])([H])C1([H])[H])C2([H])[H]

$$$$
86:0:0
     RDKit          3D

105112  0  0  1  0  0  0  0  0999 V2000
  -31.0920  -18.2930   20.0580 C   0  0  0  0  0  0  0  0  0  0  0  0
  -30.6550  -18.9320   18.9640 N   0  0  0  0  0  0  0  0  0  0  0  0
  -32.2700  -18.3340   20.4250 O   0  0  0  0  0  0  0  0  0  0  0  0
  -29.6870  -18.7840   18.7030 H   0  0  0  0  0  0  0  0  0  0  0  0
  -31.4710  -19.7770   18.0880 C   0  0  0  0  0  2  0  0  0  0  0  0
  -31.8440  -21.1290   18.7330 C   0  0  0  0  0  2  0  0  0  0  0  0
  -30.8730  -22.2700   18.3670 C   0  0  0  0  0  2  0  0  0  0  0  0
  -31.2750  -23.5640   18.9620 N   0  0  0  0  0  4  0  0  0  0  0  0
  -32.1890  -23.8140   18.6180 H   0  0  0  0  0  0  0  0  0  0  0  0
  -31.3490  -23.4280   19.9570 H   0  0  0  0  0  0  0  0  0  0  0  0
  -30.3290  -24.6710   18.6950 C   0  0  0  0  0  2  0  0  0  0  0  0
  -30.4700  -25.8410   19.6940 C   0  0  0  0  0  2  0  0  0  0  0  0
  -30.2350  -25.4340   21.1630 C   0  0  0  0  0  2  0  0  0  0  0  0
  -29.9710  -26.5700   21.9810 O   0  0  0  0  0  0  0  0  0  0  0  0
  -24.6440  -27.8600   26.4870 C   0  0  0  0  0  0  0  0  0  0  0  0
  -28.6890  -27.0680   22.1010 C   0  0  0  0  0  0  0  0  0  0  0  0
  -24.1080  -28.1770   24.0940 C   0  0  0  0  0  3  0  0  0  0  0  0
  -26.0970  -28.1360   22.4980 C   0  0  0  0  0  0  0  0  0  0  0  0
  -26.5030  -28.4670   24.9450 C   0  0  0  0  0  2  0  0  0  0  0  0
  -26.9760  -28.0130   23.5800 C   0  0  0  0  0  0  0  0  0  0  0  0
  -28.2680  -27.4800   23.3840 C   0  0  0  0  0  3  0  0  0  0  0  0
  -27.7860  -27.1960   21.0180 C   0  0  0  0  0  3  0  0  0  0  0  0
  -26.4960  -27.7240   21.2140 C   0  0  0  0  0  3  0  0  0  0  0  0
  -24.7370  -28.7290   22.7860 C   0  0  0  0  0  2  0  0  0  0  0  0
  -25.0880  -28.1340   25.2290 N   0  0  0  0  0  0  0  0  0  0  0  0
  -23.4400  -27.6870   26.7210 O   0  0  0  0  0  0  0  0  0  0  0  0
  -23.4630  -26.8070   23.7890 C   0  0  0  0  0  0  0  0  0  0  0  0
  -22.6210  -26.7620   22.7440 N   0  0  0  0  0  0  0  0  0  0  0  0
  -23.7420  -25.8130   24.4630 O   0  0  0  0  0  0  0  0  0  0  0  0
  -22.4400  -27.6230   22.2470 H   0  0  0  0  0  0  0  0  0  0  0  0
  -20.5800  -25.5030   20.0440 C   0  0  0  0  0  0  0  0  0  0  0  0
  -21.9270  -25.5750   22.2480 C   0  0  0  0  0  3  0  0  0  0  0  0
  -22.9130  -24.6030   21.5600 C   0  0  0  0  0  2  0  0  0  0  0  0
  -23.0160  -24.8210   20.0470 C   0  0  0  0  0  2  0  0  0  0  0  0
  -21.6470  -24.6460   19.3830 C   0  0  0  0  0  2  0  0  0  0  0  0
  -20.7190  -25.9510   21.3840 C   0  0  0  0  0  0  0  0  0  0  0  0
  -19.7140  -26.7740   21.9380 C   0  0  0  0  0  3  0  0  0  0  0  0
  -18.5860  -27.1440   21.1810 C   0  0  0  0  0  3  0  0  0  0  0  0
  -18.4460  -26.6830   19.8610 C   0  0  0  0  0  3  0  0  0  0  0  0
  -19.4380  -25.8620   19.2960 C   0  0  0  0  0  3  0  0  0  0  0  0
  -25.6250  -27.7730   27.6990 C   0  0  0  0  0  3  0  0  0  0  0  0
  -24.8260  -27.9030   28.9250 N   0  0  0  0  0  0  0  0  0  0  0  0
  -24.7510  -29.0130   29.6710 C   0  0  0  0  0  0  0  0  0  0  0  0
  -25.4150  -30.0250   29.4330 O   0  0  0  0  0  0  0  0  0  0  0  0
  -24.2140  -27.1320   29.1490 H   0  0  0  0  0  0  0  0  0  0  0  0
  -22.4210  -29.5550   30.4420 C   0  0  0  0  0  1  0  0  0  0  0  0
  -23.7870  -28.9980   30.8720 C   0  0  0  0  0  3  0  0  0  0  0  0
  -25.4550  -29.1400   32.6670 C   0  0  0  0  0  1  0  0  0  0  0  0
  -24.2880  -29.7540   32.0390 N   0  0  0  0  0  0  0  0  0  0  0  0
  -23.5620  -29.8500   32.7450 H   0  0  0  0  0  0  0  0  0  0  0  0
  -26.4710  -26.4410   27.7230 C   0  0  1  0  0  0  0  0  0  0  0  0
  -25.6100  -25.1590   27.7930 C   0  0  0  0  0  1  0  0  0  0  0  0
  -27.3650  -26.3410   26.4640 C   0  0  0  0  0  1  0  0  0  0  0  0
  -27.4240  -26.4460   28.9410 C   0  0  0  0  0  1  0  0  0  0  0  0
  -30.0430  -17.5170   20.8640 C   0  0  0  0  0  2  0  0  0  0  0  0
  -30.6870  -16.4870   21.6070 O   0  0  0  0  0  0  0  0  0  0  0  0
  -29.7850  -15.6430   22.3220 C   0  0  0  0  0  2  0  0  0  0  0  0
  -29.7060  -14.2270   21.7170 C   0  0  0  0  0  2  0  0  0  0  0  0
  -29.4290  -13.3030   22.7680 O   0  0  0  0  0  0  0  0  0  0  0  0
  -28.4550  -12.3000   22.4870 C   0  0  0  0  0  2  0  0  0  0  0  0
  -29.0250  -10.8730   22.3620 C   0  0  0  0  0  2  0  0  0  0  0  0
  -28.9100  -10.3790   21.0300 O   0  0  0  0  0  0  0  0  0  0  0  0
  -28.6030   -8.9860   21.0170 C   0  0  0  0  0  2  0  0  0  0  0  0
  -29.4380   -8.2890   19.9420 C   0  0  0  0  0  2  0  0  0  0  0  0
  -30.7600   -8.1900   20.4660 O   0  0  0  0  0  0  0  0  0  0  0  0
  -31.7210   -9.0400   19.8530 C   0  0  0  0  0  2  0  0  0  0  0  0
  -31.6060  -10.4510   20.4480 C   0  0  0  0  0  2  0  0  0  0  0  0
  -30.4300  -12.4450   19.5930 C   0  0  0  0  0  0  0  0  0  0  0  0
  -29.4360  -14.1460   18.1230 C   0  0  0  0  0  2  0  0  0  0  0  0
  -28.6390  -15.2000   18.9050 C   0  0  0  0  0  2  0  0  0  0  0  0
  -27.1870  -14.7400   19.1070 C   0  0  0  0  0  2  0  0  0  0  0  0
  -27.0930  -13.2910   19.6570 C   0  0  0  0  0  3  0  0  0  0  0  0
  -28.0080  -12.3180   18.8740 C   0  0  0  0  0  2  0  0  0  0  0  0
  -29.3760  -12.8670   18.8450 N   0  0  0  0  0  0  0  0  0  0  0  0
  -31.4150  -13.1490   19.8220 O   0  0  0  0  0  0  0  0  0  0  0  0
  -30.4260  -11.1540   19.9300 N   0  0  0  0  0  0  0  0  0  0  0  0
  -29.6420  -10.5860   19.6430 H   0  0  0  0  0  0  0  0  0  0  0  0
  -25.0400  -12.1070   20.6590 C   0  0  0  0  0  0  0  0  0  0  0  0
  -23.7450  -11.9940   20.2290 C   0  0  0  0  0  0  0  0  0  0  0  0
  -23.6750  -12.7010   18.9880 C   0  0  0  0  0  0  0  0  0  0  0  0
  -25.7030  -12.8350   19.6860 N   0  0  0  0  0  0  0  0  0  0  0  0
  -24.8780  -13.1500   18.6520 N   0  0  0  0  0  0  0  0  0  0  0  0
  -22.5250  -13.0260   18.1330 C   0  0  0  0  0  0  0  0  0  0  0  0
  -22.1300  -12.1800   17.0740 C   0  0  0  0  0  3  0  0  0  0  0  0
  -21.0100  -12.5050   16.2790 C   0  0  0  0  0  3  0  0  0  0  0  0
  -20.2710  -13.6810   16.5410 C   0  0  0  0  0  0  0  0  0  0  0  0
  -20.6810  -14.5310   17.5820 C   0  0  0  0  0  3  0  0  0  0  0  0
  -21.7990  -14.2100   18.3690 C   0  0  0  0  0  3  0  0  0  0  0  0
  -19.1840  -14.0870   15.8070 O   0  0  0  0  0  0  0  0  0  0  0  0
  -18.1590  -13.2260   15.5040 C   0  0  0  0  0  0  0  0  0  0  0  0
  -17.6500  -12.3100   16.4510 C   0  0  0  0  0  3  0  0  0  0  0  0
  -16.5510  -11.4930   16.1190 C   0  0  0  0  0  3  0  0  0  0  0  0
  -15.9540  -11.5940   14.8490 C   0  0  0  0  0  0  0  0  0  0  0  0
  -16.4550  -12.5100   13.9070 C   0  0  0  0  0  3  0  0  0  0  0  0
  -17.5540  -13.3260   14.2360 C   0  0  0  0  0  0  0  0  0  0  0  0
  -18.0200  -14.2200   13.3310 F   0  0  0  0  0  0  0  0  0  0  0  0
  -14.8920  -10.8160   14.5340 F   0  0  0  0  0  0  0  0  0  0  0  0
  -22.6060  -11.3620   20.9760 C   0  0  0  0  0  0  0  0  0  0  0  0
  -21.6470  -10.7860   20.2610 N   0  0  0  0  0  0  0  0  0  0  0  0
  -22.5870  -11.3330   22.2070 O   0  0  0  0  0  0  0  0  0  0  0  0
  -21.6760  -10.7850   19.2510 H   0  0  0  0  0  0  0  0  0  0  0  0
  -20.8790  -10.3290   20.7330 H   0  0  0  0  0  0  0  0  0  0  0  0
  -25.7060  -11.6770   21.8060 N   0  0  0  0  0  0  0  0  0  0  0  0
  -25.1750  -11.3150   22.5920 H   0  0  0  0  0  0  0  0  0  0  0  0
  -26.5680  -12.1210   22.0920 H   0  0  0  0  0  0  0  0  0  0  0  0
  1  3  2  0
  1 55  1  0
  2  1  1  0
  4  2  1  0
  5  6  1  0
  5  2  1  0
  7  6  1  0
  7  8  1  0
  8 10  1  0
  9  8  1  0
 11  8  1  0
 11 12  1  0
 12 13  1  0
 13 14  1  0
 14 16  1  0
 15 26  2  0
 16 21  1  0
 17 27  1  0
 17 25  1  0
 18 24  1  0
 18 20  1  0
 19 25  1  0
 20 19  1  0
 21 20  2  0
 22 23  1  0
 22 16  2  0
 23 18  2  0
 24 17  1  0
 25 15  1  0
 27 29  2  0
 28 27  1  0
 30 28  1  0
 31 36  1  0
 32 28  1  0
 33 32  1  0
 34 33  1  0
 35 31  1  0
 35 34  1  0
 36 37  2  0
 36 32  1  0
 38 37  1  0
 39 38  2  0
 40 39  1  0
 40 31  2  0
 41 15  1  0
 41 51  1  0
 41 42  1  0
 42 45  1  0
 42 43  1  0
 43 47  1  0
 44 43  2  0
 47 46  1  0
 47 49  1  0
 49 48  1  0
 49 50  1  0
 51 52  1  1
 51 54  1  0
 53 51  1  0
 55 56  1  0
 56 57  1  0
 58 57  1  0
 58 59  1  0
 60 59  1  0
 61 60  1  0
 62 61  1  0
 63 62  1  0
 64 65  1  0
 64 63  1  0
 66 67  1  0
 66 65  1  0
 68 75  2  0
 68 76  1  0
 69 74  1  0
 69 70  1  0
 70 71  1  0
 71 72  1  0
 72 73  1  0
 72 81  1  0
 74 73  1  0
 74 68  1  0
 76 67  1  0
 77 76  1  0
 78103  1  0
 79 78  2  0
 79 98  1  0
 80 79  1  0
 81 78  1  0
 82 80  2  0
 82 81  1  0
 83 88  1  0
 83 80  1  0
 84 83  2  0
 85 86  2  0
 85 84  1  0
 86 87  1  0
 87 88  2  0
 89 86  1  0
 90 89  1  0
 90 91  1  0
 92 91  2  0
 93 92  1  0
 94 95  1  0
 94 93  2  0
 95 90  2  0
 96 95  1  0
 97 93  1  0
 98100  2  0
 99102  1  0
 99 98  1  0
101 99  1  0
103105  1  0
103104  1  0
M  ISO  4  13 101  14 101  68 100  76 100
M  END
>  <TORSDO>  (80) 
F 36

>  <SCORE>  (80) 
33.230

>  <name>  (80) 
86

>  <ligand_id>  (80) 
86

>  <original_smiles>  (80) 
[H]c1c([H])c([H])c2c(c1[H])C([H])([H])C([H])([H])C([H])([H])C2([H])N([H])C(=O)C1([H])N(C(=O)C([H])(N([H])C(=O)C([H])(N([H])C([H])([H])[H])C([H])([H])[H])C(C([H])([H])[H])(C([H])([H])[H])C([H])([H])[H])C([H])([H])c2c([H])c(OC([H])([H])C([H])([H])C([H])([H])[N+]([H])([H])C([H])([H])C([H])([H])C([H])([H])N([H])C(=O)C([H])([H])OC([H])([H])C([H])([H])OC([H])([H])C([H])([H])OC([H])([H])C([H])([H])OC([H])([H])C([H])([H])N([H])C(=O)N3C([H])([H])C([H])([H])C([H])([H])C([H])(n4nc(-c5c([H])c([H])c(Oc6c([H])c([H])c(F)c([H])c6F)c([H])c5[H])c(C(=O)N([H])[H])c4N([H])[H])C3([H])[H])c([H])c([H])c2C1([H])[H]

>  <smiles>  (80) 
[H]c1c([H])c([H])c2c(c1[H])C([H])([H])C([H])([H])C([H])([H])C2([H])N([H])C(=O)C1([H])N(C(=O)C([H])(N([H])C(=O)C([H])(N([H])C([H])([H])[H])C([H])([H])[H])C(C([H])([H])[H])(C([H])([H])[H])C([H])([H])[H])C([H])([H])c2c([H])c(OC([H])([H])C([H])([H])C([H])([H])[N+]([H])([H])C([H])([H])C([H])([H])C([H])([H])N([H])C(=O)C([H])([H])OC([H])([H])C([H])([H])OC([H])([H])C([H])([H])OC([H])([H])C([H])([H])OC([H])([H])C([H])([H])N([H])C(=O)N3C([H])([H])C([H])([H])C([H])([H])C([H])(n4nc(-c5c([H])c([H])c(Oc6c([H])c([H])c(F)c([H])c6F)c([H])c5[H])c(C(=O)N([H])[H])c4N([H])[H])C3([H])[H])c([H])c([H])c2C1([H])[H]

$$$$
87:0:0
     RDKit          3D

 94101  0  0  1  0  0  0  0  0999 V2000
  -30.4670  -22.8210   24.6700 C   0  0  0  0  0  2  0  0  0  0  0  0
  -30.1270  -21.9960   23.5140 N   0  0  0  0  0  0  0  0  0  0  0  0
  -30.0760  -22.5740   22.6770 H   0  0  0  0  0  0  0  0  0  0  0  0
  -31.0980  -20.9210   23.3410 C   0  0  0  0  0  2  0  0  0  0  0  0
  -30.6220  -19.9130   22.2770 C   0  0  0  0  0  2  0  0  0  0  0  0
  -31.3760  -18.6450   22.3550 N   0  0  0  0  0  4  0  0  0  0  0  0
  -32.3320  -18.8160   22.0850 H   0  0  0  0  0  0  0  0  0  0  0  0
  -31.3750  -18.3420   23.3140 H   0  0  0  0  0  0  0  0  0  0  0  0
  -30.8140  -17.5590   21.5220 C   0  0  0  0  0  2  0  0  0  0  0  0
  -31.4780  -16.2000   21.8130 C   0  0  0  0  0  2  0  0  0  0  0  0
  -30.9890  -14.4370   20.1010 C   0  0  0  0  0  0  0  0  0  0  0  0
  -30.5240  -12.3700   18.8390 C   0  0  0  0  0  2  0  0  0  0  0  0
  -29.5230  -12.5810   17.6890 C   0  0  0  0  0  2  0  0  0  0  0  0
  -28.0710  -12.4630   18.1940 C   0  0  0  0  0  2  0  0  0  0  0  0
  -27.8110  -13.3230   19.4590 C   0  0  0  0  0  3  0  0  0  0  0  0
  -28.9070  -13.0760   20.5160 C   0  0  0  0  0  2  0  0  0  0  0  0
  -30.2250  -13.3330   19.9050 N   0  0  0  0  0  0  0  0  0  0  0  0
  -31.9280  -14.7650   19.3680 O   0  0  0  0  0  0  0  0  0  0  0  0
  -30.7180  -15.0950   21.2320 N   0  0  0  0  0  0  0  0  0  0  0  0
  -29.9410  -14.7400   21.7680 H   0  0  0  0  0  0  0  0  0  0  0  0
  -25.4600  -13.9880   20.2810 C   0  0  0  0  0  0  0  0  0  0  0  0
  -24.3940  -13.2410   20.7060 C   0  0  0  0  0  0  0  0  0  0  0  0
  -24.8260  -11.8790   20.6580 C   0  0  0  0  0  0  0  0  0  0  0  0
  -26.4740  -13.0840   20.0030 N   0  0  0  0  0  0  0  0  0  0  0  0
  -26.0970  -11.8110   20.2840 N   0  0  0  0  0  0  0  0  0  0  0  0
  -24.0820  -10.6330   20.8890 C   0  0  0  0  0  0  0  0  0  0  0  0
  -24.4970   -9.6970   21.8630 C   0  0  0  0  0  3  0  0  0  0  0  0
  -23.7570   -8.5140   22.0790 C   0  0  0  0  0  3  0  0  0  0  0  0
  -22.5880   -8.2580   21.3230 C   0  0  0  0  0  0  0  0  0  0  0  0
  -22.1940   -9.1820   20.3380 C   0  0  0  0  0  3  0  0  0  0  0  0
  -22.9340  -10.3570   20.1210 C   0  0  0  0  0  3  0  0  0  0  0  0
  -21.8220   -7.1250   21.4460 O   0  0  0  0  0  0  0  0  0  0  0  0
  -21.6990   -6.4650   22.6430 C   0  0  0  0  0  0  0  0  0  0  0  0
  -21.2020   -7.1060   23.7990 C   0  0  0  0  0  3  0  0  0  0  0  0
  -21.0250   -6.3730   24.9900 C   0  0  0  0  0  3  0  0  0  0  0  0
  -21.3350   -5.0010   25.0250 C   0  0  0  0  0  0  0  0  0  0  0  0
  -21.8250   -4.3600   23.8730 C   0  0  0  0  0  3  0  0  0  0  0  0
  -22.0040   -5.0890   22.6850 C   0  0  0  0  0  0  0  0  0  0  0  0
  -22.4560   -4.4630   21.5720 F   0  0  0  0  0  0  0  0  0  0  0  0
  -21.1580   -4.2940   26.1650 F   0  0  0  0  0  0  0  0  0  0  0  0
  -23.0220  -13.7480   21.0470 C   0  0  0  0  0  0  0  0  0  0  0  0
  -22.3220  -13.0700   21.9500 N   0  0  0  0  0  0  0  0  0  0  0  0
  -22.5790  -14.7790   20.5420 O   0  0  0  0  0  0  0  0  0  0  0  0
  -22.6920  -12.2380   22.3820 H   0  0  0  0  0  0  0  0  0  0  0  0
  -21.4010  -13.3920   22.2130 H   0  0  0  0  0  0  0  0  0  0  0  0
  -25.6440  -15.3530   20.0900 N   0  0  0  0  0  0  0  0  0  0  0  0
  -24.8990  -16.0260   20.2360 H   0  0  0  0  0  0  0  0  0  0  0  0
  -26.4880  -15.7700   19.7170 H   0  0  0  0  0  0  0  0  0  0  0  0
  -30.0810  -24.3000   24.4680 C   0  0  0  0  0  2  0  0  0  0  0  0
  -28.6340  -24.5550   23.9940 C   0  0  0  0  0  2  0  0  0  0  0  0
  -28.5410  -24.5120   22.5710 O   0  0  0  0  0  0  0  0  0  0  0  0
  -28.7460  -25.7770   21.9460 C   0  0  0  0  0  2  0  0  0  0  0  0
  -28.6170  -25.6380   20.4170 C   0  0  0  0  0  2  0  0  0  0  0  0
  -28.6070  -26.9180   19.7830 O   0  0  0  0  0  0  0  0  0  0  0  0
  -24.6650  -31.7780   23.1230 C   0  0  0  0  0  0  0  0  0  0  0  0
  -27.4080  -27.5860   19.8330 C   0  0  0  0  0  0  0  0  0  0  0  0
  -23.4840  -30.4280   21.4170 C   0  0  0  0  0  3  0  0  0  0  0  0
  -24.9700  -28.9980   19.9170 C   0  0  0  0  0  0  0  0  0  0  0  0
  -25.9950  -30.8700   21.2240 C   0  0  0  0  0  2  0  0  0  0  0  0
  -26.1120  -29.5360   20.5230 C   0  0  0  0  0  0  0  0  0  0  0  0
  -27.3380  -28.8400   20.4740 C   0  0  0  0  0  3  0  0  0  0  0  0
  -26.2540  -27.0520   19.2230 C   0  0  0  0  0  3  0  0  0  0  0  0
  -25.0330  -27.7540   19.2620 C   0  0  0  0  0  3  0  0  0  0  0  0
  -23.7020  -29.8160   20.0060 C   0  0  0  0  0  2  0  0  0  0  0  0
  -24.7330  -31.0370   21.9800 N   0  0  0  0  0  0  0  0  0  0  0  0
  -23.5810  -31.9970   23.6800 O   0  0  0  0  0  0  0  0  0  0  0  0
  -22.8640  -29.3460   22.3290 C   0  0  0  0  0  0  0  0  0  0  0  0
  -21.5440  -29.1400   22.1980 N   0  0  0  0  0  0  0  0  0  0  0  0
  -23.5670  -28.6990   23.1110 O   0  0  0  0  0  0  0  0  0  0  0  0
  -21.0400  -29.7180   21.5400 H   0  0  0  0  0  0  0  0  0  0  0  0
  -18.1990  -27.8570   22.6510 C   0  0  0  0  0  0  0  0  0  0  0  0
  -20.7520  -28.1480   22.9230 C   0  0  0  0  0  3  0  0  0  0  0  0
  -20.8800  -26.7520   22.2710 C   0  0  0  0  0  2  0  0  0  0  0  0
  -19.7770  -26.4620   21.2480 C   0  0  0  0  0  2  0  0  0  0  0  0
  -18.3960  -26.5480   21.9050 C   0  0  0  0  0  2  0  0  0  0  0  0
  -19.3060  -28.6160   23.1160 C   0  0  0  0  0  0  0  0  0  0  0  0
  -19.0680  -29.8430   23.7720 C   0  0  0  0  0  3  0  0  0  0  0  0
  -17.7560  -30.3100   23.9720 C   0  0  0  0  0  3  0  0  0  0  0  0
  -16.6630  -29.5480   23.5240 C   0  0  0  0  0  3  0  0  0  0  0  0
  -16.8850  -28.3230   22.8700 C   0  0  0  0  0  3  0  0  0  0  0  0
  -25.9400  -32.4060   23.7690 C   0  0  0  0  0  3  0  0  0  0  0  0
  -26.4600  -31.6060   25.0260 C   0  0  1  0  0  0  0  0  0  0  0  0
  -25.3650  -31.3260   26.0790 C   0  0  0  0  0  1  0  0  0  0  0  0
  -27.0650  -30.2490   24.5970 C   0  0  0  0  0  1  0  0  0  0  0  0
  -27.5940  -32.4000   25.7170 C   0  0  0  0  0  1  0  0  0  0  0  0
  -25.6130  -33.7920   24.1310 N   0  0  0  0  0  0  0  0  0  0  0  0
  -25.9560  -34.8680   23.4100 C   0  0  0  0  0  0  0  0  0  0  0  0
  -26.6510  -34.7980   22.3920 O   0  0  0  0  0  0  0  0  0  0  0  0
  -24.9980  -33.9210   24.9210 H   0  0  0  0  0  0  0  0  0  0  0  0
  -24.2270  -36.6600   23.0580 C   0  0  0  0  0  1  0  0  0  0  0  0
  -25.4470  -36.2380   23.8940 C   0  0  0  0  0  3  0  0  0  0  0  0
  -27.5470  -37.1080   24.8190 C   0  0  0  0  0  1  0  0  0  0  0  0
  -26.4760  -37.2990   23.8450 N   0  0  0  0  0  0  0  0  0  0  0  0
  -26.0600  -38.2120   24.0070 H   0  0  0  0  0  0  0  0  0  0  0  0
  2  1  1  0
  3  2  1  0
  4  2  1  0
  5  6  1  0
  5  4  1  0
  6  8  1  0
  7  6  1  0
  9 10  1  0
  9  6  1  0
 11 19  1  0
 12 17  1  0
 13 14  1  0
 13 12  1  0
 15 14  1  0
 15 24  1  0
 15 16  1  0
 17 11  1  0
 17 16  1  0
 18 11  2  0
 19 20  1  0
 19 10  1  0
 21 22  2  0
 22 41  1  0
 23 22  1  0
 23 26  1  0
 24 21  1  0
 24 25  1  0
 25 23  2  0
 26 27  1  0
 27 28  2  0
 29 32  1  0
 29 28  1  0
 30 29  2  0
 31 30  1  0
 31 26  2  0
 32 33  1  0
 33 38  2  0
 33 34  1  0
 34 35  2  0
 35 36  1  0
 36 40  1  0
 37 36  2  0
 38 37  1  0
 39 38  1  0
 41 42  1  0
 42 45  1  0
 42 44  1  0
 43 41  2  0
 46 47  1  0
 46 21  1  0
 48 46  1  0
 49  1  1  0
 50 49  1  0
 51 50  1  0
 52 51  1  0
 53 52  1  0
 54 56  1  0
 54 53  1  0
 55 66  2  0
 56 61  1  0
 57 65  1  0
 57 67  1  0
 58 64  1  0
 58 60  1  0
 59 65  1  0
 60 59  1  0
 61 60  2  0
 62 63  1  0
 62 56  2  0
 63 58  2  0
 64 57  1  0
 65 55  1  0
 67 69  2  0
 68 67  1  0
 70 68  1  0
 71 80  2  0
 71 76  1  0
 72 68  1  0
 72 76  1  0
 73 72  1  0
 74 75  1  0
 74 73  1  0
 75 71  1  0
 76 77  2  0
 77 78  1  0
 79 78  2  0
 80 79  1  0
 81 55  1  0
 81 86  1  0
 81 82  1  0
 82 85  1  1
 82 83  1  0
 84 82  1  0
 86 89  1  0
 87 91  1  0
 87 86  1  0
 88 87  2  0
 91 90  1  0
 93 91  1  0
 93 94  1  0
 93 92  1  0
M  ISO  4  11 100  19 100  53 101  54 101
M  END
>  <TORSDO>  (81) 
F 27

>  <SCORE>  (81) 
-8.992

>  <name>  (81) 
87

>  <ligand_id>  (81) 
87

>  <original_smiles>  (81) 
[H]c1c([H])c([H])c2c(c1[H])C([H])([H])C([H])([H])C([H])([H])C2([H])N([H])C(=O)C1([H])N(C(=O)C([H])(N([H])C(=O)C([H])(N([H])C([H])([H])[H])C([H])([H])[H])C(C([H])([H])[H])(C([H])([H])[H])C([H])([H])[H])C([H])([H])c2c([H])c(OC([H])([H])C([H])([H])OC([H])([H])C([H])([H])C([H])([H])N([H])C([H])([H])C([H])([H])[N+]([H])([H])C([H])([H])C([H])([H])N([H])C(=O)N3C([H])([H])C([H])([H])C([H])([H])C([H])(n4nc(-c5c([H])c([H])c(Oc6c([H])c([H])c(F)c([H])c6F)c([H])c5[H])c(C(=O)N([H])[H])c4N([H])[H])C3([H])[H])c([H])c([H])c2C1([H])[H]

>  <smiles>  (81) 
[H]c1c([H])c([H])c2c(c1[H])C([H])([H])C([H])([H])C([H])([H])C2([H])N([H])C(=O)C1([H])N(C(=O)C([H])(N([H])C(=O)C([H])(N([H])C([H])([H])[H])C([H])([H])[H])C(C([H])([H])[H])(C([H])([H])[H])C([H])([H])[H])C([H])([H])c2c([H])c(OC([H])([H])C([H])([H])OC([H])([H])C([H])([H])C([H])([H])N([H])C([H])([H])C([H])([H])[N+]([H])([H])C([H])([H])C([H])([H])N([H])C(=O)N3C([H])([H])C([H])([H])C([H])([H])C([H])(n4nc(-c5c([H])c([H])c(Oc6c([H])c([H])c(F)c([H])c6F)c([H])c5[H])c(C(=O)N([H])[H])c4N([H])[H])C3([H])[H])c([H])c([H])c2C1([H])[H]

$$$$
88:0:0
     RDKit          3D

 96103  0  0  1  0  0  0  0  0999 V2000
  -26.7010  -23.3490   20.8060 C   0  0  0  0  0  0  0  0  0  0  0  0
  -26.1680  -24.3590   20.1070 N   0  0  0  0  0  0  0  0  0  0  0  0
  -26.3700  -22.1730   20.6310 O   0  0  0  0  0  0  0  0  0  0  0  0
  -26.5040  -25.2910   20.3070 H   0  0  0  0  0  0  0  0  0  0  0  0
  -25.1110  -24.2250   19.1070 C   0  0  0  0  0  2  0  0  0  0  0  0
  -24.4800  -25.5820   18.7430 C   0  0  0  0  0  2  0  0  0  0  0  0
  -23.6900  -26.2320   19.8960 C   0  0  0  0  0  2  0  0  0  0  0  0
  -22.2550  -25.6900   20.0500 C   0  0  0  0  0  2  0  0  0  0  0  0
  -21.5440  -23.7030   18.7320 C   0  0  0  0  0  0  0  0  0  0  0  0
  -21.7910  -25.0130   18.8410 N   0  0  0  0  0  0  0  0  0  0  0  0
  -21.6660  -22.9140   19.6700 O   0  0  0  0  0  0  0  0  0  0  0  0
  -21.6260  -25.5960   18.0260 H   0  0  0  0  0  0  0  0  0  0  0  0
  -21.1180  -23.1890   17.3590 C   0  0  0  0  0  2  0  0  0  0  0  0
  -19.6190  -23.9150   15.5560 C   0  0  0  0  0  0  0  0  0  0  0  0
  -20.0010  -24.5760   13.2070 C   0  0  0  0  0  2  0  0  0  0  0  0
  -20.9190  -23.5740   12.4800 C   0  0  0  0  0  2  0  0  0  0  0  0
  -22.3970  -23.9490   12.6870 C   0  0  0  0  0  2  0  0  0  0  0  0
  -22.7380  -24.1820   14.1790 C   0  0  0  0  0  3  0  0  0  0  0  0
  -21.7130  -25.1380   14.8340 C   0  0  0  0  0  2  0  0  0  0  0  0
  -20.3650  -24.5790   14.6330 N   0  0  0  0  0  0  0  0  0  0  0  0
  -18.5530  -23.3590   15.2860 O   0  0  0  0  0  0  0  0  0  0  0  0
  -20.0140  -23.9910   16.8290 N   0  0  0  0  0  0  0  0  0  0  0  0
  -19.2390  -23.9730   17.4740 H   0  0  0  0  0  0  0  0  0  0  0  0
  -25.1680  -24.0650   15.0190 C   0  0  0  0  0  0  0  0  0  0  0  0
  -26.2400  -24.8950   14.8240 C   0  0  0  0  0  0  0  0  0  0  0  0
  -25.7580  -25.9860   14.0360 C   0  0  0  0  0  0  0  0  0  0  0  0
  -24.1050  -24.6600   14.3560 N   0  0  0  0  0  0  0  0  0  0  0  0
  -24.4570  -25.8530   13.8140 N   0  0  0  0  0  0  0  0  0  0  0  0
  -26.4690  -27.1190   13.4300 C   0  0  0  0  0  0  0  0  0  0  0  0
  -26.2870  -28.4380   13.9000 C   0  0  0  0  0  3  0  0  0  0  0  0
  -26.9920  -29.5090   13.3110 C   0  0  0  0  0  3  0  0  0  0  0  0
  -27.8910  -29.2660   12.2450 C   0  0  0  0  0  0  0  0  0  0  0  0
  -28.0500  -27.9540   11.7660 C   0  0  0  0  0  3  0  0  0  0  0  0
  -27.3430  -26.8890   12.3500 C   0  0  0  0  0  3  0  0  0  0  0  0
  -28.6000  -30.2480   11.5970 O   0  0  0  0  0  0  0  0  0  0  0  0
  -29.2480  -31.2430   12.2850 C   0  0  0  0  0  0  0  0  0  0  0  0
  -30.2790  -30.9610   13.2070 C   0  0  0  0  0  3  0  0  0  0  0  0
  -30.9650  -32.0160   13.8410 C   0  0  0  0  0  3  0  0  0  0  0  0
  -30.6280  -33.3510   13.5480 C   0  0  0  0  0  0  0  0  0  0  0  0
  -29.6040  -33.6340   12.6260 C   0  0  0  0  0  3  0  0  0  0  0  0
  -28.9190  -32.5810   11.9960 C   0  0  0  0  0  0  0  0  0  0  0  0
  -27.9470  -32.8580   11.0920 F   0  0  0  0  0  0  0  0  0  0  0  0
  -31.2910  -34.3670   14.1500 F   0  0  0  0  0  0  0  0  0  0  0  0
  -27.6560  -24.6460   15.2540 C   0  0  0  0  0  0  0  0  0  0  0  0
  -28.4070  -25.7050   15.5380 N   0  0  0  0  0  0  0  0  0  0  0  0
  -28.0930  -23.5030   15.3870 O   0  0  0  0  0  0  0  0  0  0  0  0
  -28.0450  -26.6420   15.4460 H   0  0  0  0  0  0  0  0  0  0  0  0
  -29.3590  -25.5760   15.8490 H   0  0  0  0  0  0  0  0  0  0  0  0
  -25.0130  -22.8450   15.6750 N   0  0  0  0  0  0  0  0  0  0  0  0
  -25.8520  -22.3460   15.9550 H   0  0  0  0  0  0  0  0  0  0  0  0
  -24.2650  -22.2170   15.4100 H   0  0  0  0  0  0  0  0  0  0  0  0
  -27.7430  -23.7120   21.8710 C   0  0  0  0  0  2  0  0  0  0  0  0
  -27.5530  -22.9070   23.0380 O   0  0  0  0  0  0  0  0  0  0  0  0
  -28.2350  -23.4470   24.1650 C   0  0  0  0  0  2  0  0  0  0  0  0
  -28.3510  -22.4430   25.3280 C   0  0  0  0  0  2  0  0  0  0  0  0
  -29.5820  -21.7190   25.2760 O   0  0  0  0  0  0  0  0  0  0  0  0
  -34.7640  -18.4000   21.7540 C   0  0  0  0  0  0  0  0  0  0  0  0
  -29.8700  -20.8480   24.2460 C   0  0  0  0  0  0  0  0  0  0  0  0
  -32.4990  -18.1440   20.7930 C   0  0  0  0  0  3  0  0  0  0  0  0
  -30.5790  -18.9640   22.2560 C   0  0  0  0  0  0  0  0  0  0  0  0
  -32.8140  -18.5520   23.2990 C   0  0  0  0  0  2  0  0  0  0  0  0
  -31.4740  -19.2570   23.2890 C   0  0  0  0  0  0  0  0  0  0  0  0
  -31.1200  -20.1920   24.2850 C   0  0  0  0  0  3  0  0  0  0  0  0
  -28.9840  -20.5540   23.1820 C   0  0  0  0  0  3  0  0  0  0  0  0
  -29.3330  -19.6130   22.1950 C   0  0  0  0  0  3  0  0  0  0  0  0
  -31.0240  -17.9420   21.2350 C   0  0  0  0  0  2  0  0  0  0  0  0
  -33.4150  -18.3940   21.9530 N   0  0  0  0  0  0  0  0  0  0  0  0
  -35.2480  -18.1610   20.6400 O   0  0  0  0  0  0  0  0  0  0  0  0
  -32.5430  -19.2590   19.7260 C   0  0  0  0  0  0  0  0  0  0  0  0
  -32.2060  -18.9030   18.4760 N   0  0  0  0  0  0  0  0  0  0  0  0
  -32.8460  -20.4160   20.0320 O   0  0  0  0  0  0  0  0  0  0  0  0
  -31.9790  -17.9340   18.3040 H   0  0  0  0  0  0  0  0  0  0  0  0
  -31.6580  -18.9930   14.9070 C   0  0  0  0  0  0  0  0  0  0  0  0
  -32.1390  -19.7910   17.3160 C   0  0  0  0  0  3  0  0  0  0  0  0
  -30.7720  -20.5100   17.2450 C   0  0  0  0  0  2  0  0  0  0  0  0
  -29.7490  -19.7710   16.3760 C   0  0  0  0  0  2  0  0  0  0  0  0
  -30.2720  -19.6160   14.9440 C   0  0  0  0  0  2  0  0  0  0  0  0
  -32.5290  -19.0620   16.0260 C   0  0  0  0  0  0  0  0  0  0  0  0
  -33.7910  -18.4330   15.9520 C   0  0  0  0  0  3  0  0  0  0  0  0
  -34.1880  -17.7510   14.7860 C   0  0  0  0  0  3  0  0  0  0  0  0
  -33.3280  -17.7000   13.6750 C   0  0  0  0  0  3  0  0  0  0  0  0
  -32.0690  -18.3240   13.7350 C   0  0  0  0  0  3  0  0  0  0  0  0
  -35.7630  -18.6850   22.9200 C   0  0  0  0  0  3  0  0  0  0  0  0
  -36.5320  -20.0530   22.7610 C   0  0  1  0  0  0  0  0  0  0  0  0
  -37.1970  -20.2360   21.3770 C   0  0  0  0  0  1  0  0  0  0  0  0
  -35.5740  -21.2450   22.9880 C   0  0  0  0  0  1  0  0  0  0  0  0
  -37.6390  -20.1630   23.8370 C   0  0  0  0  0  1  0  0  0  0  0  0
  -36.7080  -17.5620   22.9750 N   0  0  0  0  0  0  0  0  0  0  0  0
  -36.6190  -16.5350   23.8290 C   0  0  0  0  0  0  0  0  0  0  0  0
  -35.7600  -16.4700   24.7130 O   0  0  0  0  0  0  0  0  0  0  0  0
  -37.4050  -17.5220   22.2460 H   0  0  0  0  0  0  0  0  0  0  0  0
  -37.0100  -14.2240   22.9190 C   0  0  0  0  0  1  0  0  0  0  0  0
  -37.6480  -15.3980   23.6810 C   0  0  0  0  0  3  0  0  0  0  0  0
  -39.0480  -15.8950   25.6350 C   0  0  0  0  0  1  0  0  0  0  0  0
  -38.1880  -14.9190   24.9710 N   0  0  0  0  0  0  0  0  0  0  0  0
  -38.7200  -14.0620   24.8440 H   0  0  0  0  0  0  0  0  0  0  0  0
  1 52  1  0
  2  4  1  0
  2  1  1  0
  3  1  2  0
  5  2  1  0
  6  5  1  0
  6  7  1  0
  7  8  1  0
  9 10  1  0
  9 11  2  0
 10  8  1  0
 12 10  1  0
 13  9  1  0
 14 22  1  0
 15 20  1  0
 16 17  1  0
 16 15  1  0
 18 17  1  0
 18 27  1  0
 18 19  1  0
 20 19  1  0
 20 14  1  0
 21 14  2  0
 22 13  1  0
 22 23  1  0
 24 49  1  0
 25 24  2  0
 25 44  1  0
 26 25  1  0
 27 24  1  0
 28 26  2  0
 28 27  1  0
 29 30  1  0
 29 26  1  0
 31 30  2  0
 32 31  1  0
 33 32  2  0
 33 34  1  0
 34 29  2  0
 35 32  1  0
 35 36  1  0
 36 37  1  0
 37 38  2  0
 39 38  1  0
 39 43  1  0
 40 39  2  0
 41 36  2  0
 41 40  1  0
 42 41  1  0
 44 46  2  0
 44 45  1  0
 45 48  1  0
 47 45  1  0
 49 50  1  0
 51 49  1  0
 52 53  1  0
 53 54  1  0
 54 55  1  0
 56 55  1  0
 57 67  1  0
 58 63  1  0
 58 56  1  0
 59 69  1  0
 59 66  1  0
 59 67  1  0
 60 62  1  0
 62 61  1  0
 62 63  2  0
 64 58  2  0
 65 60  2  0
 65 64  1  0
 66 60  1  0
 67 61  1  0
 68 57  2  0
 69 71  2  0
 70 69  1  0
 72 70  1  0
 73 77  1  0
 73 78  1  0
 74 70  1  0
 75 74  1  0
 76 75  1  0
 77 76  1  0
 78 74  1  0
 79 78  2  0
 80 79  1  0
 81 82  1  0
 81 80  2  0
 82 73  2  0
 83 57  1  0
 83 88  1  0
 84 83  1  0
 84 86  1  1
 84 87  1  0
 85 84  1  0
 88 89  1  0
 89 90  2  0
 91 88  1  0
 93 92  1  0
 93 89  1  0
 93 95  1  0
 95 94  1  0
 96 95  1  0
M  ISO  4  14 100  22 100  55 101  56 101
M  END
>  <TORSDO>  (82) 
F 26

>  <SCORE>  (82) 
40.134

>  <name>  (82) 
88

>  <ligand_id>  (82) 
88

>  <original_smiles>  (82) 
[H]c1c([H])c([H])c2c(c1[H])C([H])([H])C([H])([H])C([H])([H])C2([H])N([H])C(=O)C1([H])N(C(=O)C([H])(N([H])C(=O)C([H])(N([H])C([H])([H])[H])C([H])([H])[H])C(C([H])([H])[H])(C([H])([H])[H])C([H])([H])[H])C([H])([H])c2c([H])c(OC([H])([H])C([H])([H])OC([H])([H])C(=O)N([H])C([H])([H])C([H])([H])C([H])([H])C([H])([H])N([H])C(=O)C([H])([H])N([H])C(=O)N3C([H])([H])C([H])([H])C([H])([H])C([H])(n4nc(-c5c([H])c([H])c(Oc6c([H])c([H])c(F)c([H])c6F)c([H])c5[H])c(C(=O)N([H])[H])c4N([H])[H])C3([H])[H])c([H])c([H])c2C1([H])[H]

>  <smiles>  (82) 
[H]c1c([H])c([H])c2c(c1[H])C([H])([H])C([H])([H])C([H])([H])C2([H])N([H])C(=O)C1([H])N(C(=O)C([H])(N([H])C(=O)C([H])(N([H])C([H])([H])[H])C([H])([H])[H])C(C([H])([H])[H])(C([H])([H])[H])C([H])([H])[H])C([H])([H])c2c([H])c(OC([H])([H])C([H])([H])OC([H])([H])C(=O)N([H])C([H])([H])C([H])([H])C([H])([H])C([H])([H])N([H])C(=O)C([H])([H])N([H])C(=O)N3C([H])([H])C([H])([H])C([H])([H])C([H])(n4nc(-c5c([H])c([H])c(Oc6c([H])c([H])c(F)c([H])c6F)c([H])c5[H])c(C(=O)N([H])[H])c4N([H])[H])C3([H])[H])c([H])c([H])c2C1([H])[H]

$$$$
89:0:0
     RDKit          3D

 94102  0  0  1  0  0  0  0  0999 V2000
  -29.7120  -23.0310   24.3980 C   0  0  0  0  0  2  0  0  0  0  0  0
  -30.1550  -23.1430   22.0640 C   0  0  0  0  0  2  0  0  0  0  0  0
  -29.5220  -21.5010   24.3130 C   0  0  0  0  0  2  0  0  0  0  0  0
  -29.9690  -21.6190   21.9280 C   0  0  0  0  0  2  0  0  0  0  0  0
  -29.2930  -23.6580   23.1400 N   0  0  0  0  0  0  0  0  0  0  0  0
  -30.3200  -20.9380   23.1980 N   0  0  2  0  0  4  0  0  0  0  0  0
  -31.2810  -21.1640   23.4020 H   0  0  0  0  0  0  0  0  0  0  0  0
  -29.4130  -25.1160   23.2380 C   0  0  0  0  0  2  0  0  0  0  0  0
  -28.6890  -25.8140   22.0680 C   0  0  0  0  0  2  0  0  0  0  0  0
  -29.6150  -26.6980   21.2080 C   0  0  0  0  0  2  0  0  0  0  0  0
  -28.9970  -27.0130   19.9610 O   0  0  0  0  0  0  0  0  0  0  0  0
  -24.8750  -31.6990   23.4010 C   0  0  0  0  0  0  0  0  0  0  0  0
  -27.8020  -27.6830   20.0430 C   0  0  0  0  0  0  0  0  0  0  0  0
  -23.7580  -30.3340   21.6620 C   0  0  0  0  0  3  0  0  0  0  0  0
  -25.3060  -28.9860   20.1470 C   0  0  0  0  0  0  0  0  0  0  0  0
  -26.2480  -30.8740   21.4970 C   0  0  0  0  0  2  0  0  0  0  0  0
  -26.4210  -29.5570   20.7730 C   0  0  0  0  0  0  0  0  0  0  0  0
  -27.6720  -28.9120   20.7250 C   0  0  0  0  0  3  0  0  0  0  0  0
  -26.6800  -27.1170   19.4100 C   0  0  0  0  0  3  0  0  0  0  0  0
  -25.4270  -27.7600   19.4640 C   0  0  0  0  0  3  0  0  0  0  0  0
  -24.0050  -29.7490   20.2430 C   0  0  0  0  0  2  0  0  0  0  0  0
  -24.9770  -30.9810   22.2470 N   0  0  0  0  0  0  0  0  0  0  0  0
  -23.7820  -31.8660   23.9580 O   0  0  0  0  0  0  0  0  0  0  0  0
  -23.1730  -29.2150   22.5530 C   0  0  0  0  0  0  0  0  0  0  0  0
  -21.8770  -28.9240   22.3650 N   0  0  0  0  0  0  0  0  0  0  0  0
  -23.8830  -28.6140   23.3630 O   0  0  0  0  0  0  0  0  0  0  0  0
  -21.3640  -29.4760   21.6920 H   0  0  0  0  0  0  0  0  0  0  0  0
  -18.6160  -27.3890   22.6490 C   0  0  0  0  0  0  0  0  0  0  0  0
  -21.1200  -27.8830   23.0570 C   0  0  0  0  0  3  0  0  0  0  0  0
  -21.3890  -26.4930   22.4360 C   0  0  0  0  0  2  0  0  0  0  0  0
  -20.3760  -26.1020   21.3570 C   0  0  0  0  0  2  0  0  0  0  0  0
  -18.9570  -26.0880   21.9380 C   0  0  0  0  0  2  0  0  0  0  0  0
  -19.6330  -28.2400   23.1580 C   0  0  0  0  0  0  0  0  0  0  0  0
  -19.2660  -29.4530   23.7800 C   0  0  0  0  0  3  0  0  0  0  0  0
  -17.9130  -29.8230   23.8960 C   0  0  0  0  0  3  0  0  0  0  0  0
  -16.9100  -28.9710   23.4050 C   0  0  0  0  0  3  0  0  0  0  0  0
  -17.2600  -27.7530   22.7920 C   0  0  0  0  0  3  0  0  0  0  0  0
  -26.1220  -32.3690   24.0620 C   0  0  0  0  0  3  0  0  0  0  0  0
  -25.7700  -33.7610   24.3680 N   0  0  0  0  0  0  0  0  0  0  0  0
  -26.1340  -34.8160   23.6250 C   0  0  0  0  0  0  0  0  0  0  0  0
  -26.8730  -34.7210   22.6410 O   0  0  0  0  0  0  0  0  0  0  0  0
  -25.1250  -33.9080   25.1310 H   0  0  0  0  0  0  0  0  0  0  0  0
  -24.4070  -36.5800   23.1450 C   0  0  0  0  0  1  0  0  0  0  0  0
  -25.5960  -36.1980   24.0410 C   0  0  0  0  0  3  0  0  0  0  0  0
  -27.6540  -37.1160   25.0180 C   0  0  0  0  0  1  0  0  0  0  0  0
  -26.6170  -37.2670   23.9980 N   0  0  0  0  0  0  0  0  0  0  0  0
  -26.1870  -38.1790   24.1190 H   0  0  0  0  0  0  0  0  0  0  0  0
  -26.6160  -31.6200   25.3590 C   0  0  1  0  0  0  0  0  0  0  0  0
  -25.4900  -31.3310   26.3770 C   0  0  0  0  0  1  0  0  0  0  0  0
  -27.2740  -30.2700   24.9960 C   0  0  0  0  0  1  0  0  0  0  0  0
  -27.6980  -32.4610   26.0740 C   0  0  0  0  0  1  0  0  0  0  0  0
  -30.2420  -19.4590   23.1200 C   0  0  0  0  0  2  0  0  0  0  0  0
  -31.0860  -18.9010   21.9590 C   0  0  0  0  0  2  0  0  0  0  0  0
  -30.9810  -17.3790   21.8290 C   0  0  0  0  0  2  0  0  0  0  0  0
  -31.8700  -16.8380   20.7000 C   0  0  0  0  0  2  0  0  0  0  0  0
  -32.0440  -15.3130   20.7440 C   0  0  0  0  0  2  0  0  0  0  0  0
  -30.6230  -14.1350   19.0660 C   0  0  0  0  0  0  0  0  0  0  0  0
  -30.0670  -11.9450   18.1060 C   0  0  0  0  0  2  0  0  0  0  0  0
  -28.8920  -11.9120   17.1170 C   0  0  0  0  0  2  0  0  0  0  0  0
  -27.5650  -11.7480   17.8720 C   0  0  0  0  0  2  0  0  0  0  0  0
  -27.4030  -12.7870   19.0090 C   0  0  0  0  0  3  0  0  0  0  0  0
  -28.6550  -12.8280   19.9120 C   0  0  0  0  0  2  0  0  0  0  0  0
  -29.8510  -13.0280   19.0730 N   0  0  0  0  0  0  0  0  0  0  0  0
  -31.2940  -14.5090   18.0990 O   0  0  0  0  0  0  0  0  0  0  0  0
  -30.8550  -14.5870   20.3030 N   0  0  0  0  0  0  0  0  0  0  0  0
  -30.2900  -14.1670   21.0270 H   0  0  0  0  0  0  0  0  0  0  0  0
  -25.2710  -13.4420   20.3010 C   0  0  0  0  0  0  0  0  0  0  0  0
  -24.2780  -12.6860   20.8670 C   0  0  0  0  0  0  0  0  0  0  0  0
  -24.6470  -11.3230   20.6500 C   0  0  0  0  0  0  0  0  0  0  0  0
  -26.1860  -12.5390   19.7810 N   0  0  0  0  0  0  0  0  0  0  0  0
  -25.8250  -11.2550   20.0430 N   0  0  0  0  0  0  0  0  0  0  0  0
  -23.9190  -10.0780   20.9300 C   0  0  0  0  0  0  0  0  0  0  0  0
  -24.4420   -9.0990   21.8050 C   0  0  0  0  0  3  0  0  0  0  0  0
  -23.7140   -7.9200   22.0730 C   0  0  0  0  0  3  0  0  0  0  0  0
  -22.4510   -7.7110   21.4690 C   0  0  0  0  0  0  0  0  0  0  0  0
  -21.9480   -8.6790   20.5820 C   0  0  0  0  0  3  0  0  0  0  0  0
  -22.6750   -9.8500   20.3120 C   0  0  0  0  0  3  0  0  0  0  0  0
  -21.6850   -6.5850   21.6520 O   0  0  0  0  0  0  0  0  0  0  0  0
  -21.6800   -5.9020   22.8420 C   0  0  0  0  0  0  0  0  0  0  0  0
  -21.3160   -6.5240   24.0570 C   0  0  0  0  0  3  0  0  0  0  0  0
  -21.2580   -5.7690   25.2460 C   0  0  0  0  0  3  0  0  0  0  0  0
  -21.5540   -4.3940   25.2210 C   0  0  0  0  0  0  0  0  0  0  0  0
  -21.9110   -3.7700   24.0120 C   0  0  0  0  0  3  0  0  0  0  0  0
  -21.9700   -4.5220   22.8250 C   0  0  0  0  0  0  0  0  0  0  0  0
  -22.2950   -3.9130   21.6590 F   0  0  0  0  0  0  0  0  0  0  0  0
  -21.4900   -3.6670   26.3610 F   0  0  0  0  0  0  0  0  0  0  0  0
  -23.0110  -13.1950   21.4890 C   0  0  0  0  0  0  0  0  0  0  0  0
  -22.4940  -12.4890   22.4900 N   0  0  0  0  0  0  0  0  0  0  0  0
  -22.4980  -14.2500   21.1200 O   0  0  0  0  0  0  0  0  0  0  0  0
  -22.9240  -11.6320   22.8020 H   0  0  0  0  0  0  0  0  0  0  0  0
  -21.6570  -12.8140   22.9510 H   0  0  0  0  0  0  0  0  0  0  0  0
  -25.4630  -14.8130   20.1700 N   0  0  0  0  0  0  0  0  0  0  0  0
  -24.7840  -15.4930   20.4970 H   0  0  0  0  0  0  0  0  0  0  0  0
  -26.2440  -15.2350   19.6810 H   0  0  0  0  0  0  0  0  0  0  0  0
  2  5  1  0
  3  1  1  0
  4  2  1  0
  4  6  1  0
  5  8  1  0
  5  1  1  0
  6  7  1  1
  6  3  1  0
  9  8  1  0
 10  9  1  0
 11 13  1  0
 11 10  1  0
 12 23  2  0
 13 18  1  0
 14 22  1  0
 14 24  1  0
 15 21  1  0
 15 17  1  0
 16 22  1  0
 17 16  1  0
 18 17  2  0
 19 20  1  0
 19 13  2  0
 20 15  2  0
 21 14  1  0
 22 12  1  0
 24 26  2  0
 25 24  1  0
 27 25  1  0
 28 37  2  0
 28 33  1  0
 29 25  1  0
 29 33  1  0
 30 29  1  0
 31 32  1  0
 31 30  1  0
 32 28  1  0
 33 34  2  0
 34 35  1  0
 36 35  2  0
 37 36  1  0
 38 12  1  0
 38 39  1  0
 38 48  1  0
 39 42  1  0
 40 44  1  0
 40 39  1  0
 41 40  2  0
 44 43  1  0
 46 44  1  0
 46 47  1  0
 46 45  1  0
 48 51  1  1
 48 49  1  0
 50 48  1  0
 52  6  1  0
 53 52  1  0
 54 53  1  0
 55 56  1  0
 55 54  1  0
 57 63  1  0
 57 65  1  0
 58 63  1  0
 59 60  1  0
 59 58  1  0
 61 60  1  0
 61 70  1  0
 61 62  1  0
 63 62  1  0
 64 57  2  0
 65 56  1  0
 65 66  1  0
 67 68  2  0
 68 87  1  0
 69 68  1  0
 69 72  1  0
 70 71  1  0
 70 67  1  0
 71 69  2  0
 72 73  1  0
 73 74  2  0
 75 78  1  0
 75 74  1  0
 76 75  2  0
 77 76  1  0
 77 72  2  0
 78 79  1  0
 79 80  1  0
 80 81  2  0
 82 81  1  0
 82 86  1  0
 83 82  2  0
 84 79  2  0
 84 83  1  0
 85 84  1  0
 87 88  1  0
 88 90  1  0
 88 91  1  0
 89 87  2  0
 92 67  1  0
 92 93  1  0
 94 92  1  0
M  ISO  4  10 101  11 101  57 100  65 100
M  END
>  <TORSDO>  (83) 
F 24

>  <SCORE>  (83) 
-8.511

>  <name>  (83) 
89

>  <ligand_id>  (83) 
89

>  <original_smiles>  (83) 
[H]c1c([H])c([H])c2c(c1[H])C([H])([H])C([H])([H])C([H])([H])C2([H])N([H])C(=O)C1([H])N(C(=O)C([H])(N([H])C(=O)C([H])(N([H])C([H])([H])[H])C([H])([H])[H])C(C([H])([H])[H])(C([H])([H])[H])C([H])([H])[H])C([H])([H])c2c([H])c(OC([H])([H])C([H])([H])C([H])([H])N3C([H])([H])C([H])([H])[N+]([H])(C([H])([H])C([H])([H])C([H])([H])C([H])([H])C([H])([H])N([H])C(=O)N4C([H])([H])C([H])([H])C([H])([H])C([H])(n5nc(-c6c([H])c([H])c(Oc7c([H])c([H])c(F)c([H])c7F)c([H])c6[H])c(C(=O)N([H])[H])c5N([H])[H])C4([H])[H])C([H])([H])C3([H])[H])c([H])c([H])c2C1([H])[H]

>  <smiles>  (83) 
[H]c1c([H])c([H])c2c(c1[H])C([H])([H])C([H])([H])C([H])([H])C2([H])N([H])C(=O)C1([H])N(C(=O)C([H])(N([H])C(=O)C([H])(N([H])C([H])([H])[H])C([H])([H])[H])C(C([H])([H])[H])(C([H])([H])[H])C([H])([H])[H])C([H])([H])c2c([H])c(OC([H])([H])C([H])([H])C([H])([H])N3C([H])([H])C([H])([H])[N+]([H])(C([H])([H])C([H])([H])C([H])([H])C([H])([H])C([H])([H])N([H])C(=O)N4C([H])([H])C([H])([H])C([H])([H])C([H])(n5nc(-c6c([H])c([H])c(Oc7c([H])c([H])c(F)c([H])c7F)c([H])c6[H])c(C(=O)N([H])[H])c5N([H])[H])C4([H])[H])C([H])([H])C3([H])[H])c([H])c([H])c2C1([H])[H]

$$$$
90:0:0
     RDKit          3D

 93101  0  0  1  0  0  0  0  0999 V2000
  -28.0430  -21.2520   19.8620 C   0  0  0  0  0  2  0  0  0  0  0  0
  -29.3390  -21.1030   20.6960 C   0  0  0  0  0  2  0  0  0  0  0  0
  -30.2150  -19.8560   20.4020 C   0  0  0  0  0  2  0  0  0  0  0  0
  -31.6960  -13.7140   19.3870 C   0  0  0  0  0  0  0  0  0  0  0  0
  -31.0320  -11.5040   18.5230 C   0  0  0  0  0  2  0  0  0  0  0  0
  -29.9520  -11.6090   17.4300 C   0  0  0  0  0  2  0  0  0  0  0  0
  -28.5510  -11.6220   18.0630 C   0  0  0  0  0  2  0  0  0  0  0  0
  -28.4190  -12.6700   19.1990 C   0  0  0  0  0  3  0  0  0  0  0  0
  -29.5940  -12.5370   20.1910 C   0  0  0  0  0  2  0  0  0  0  0  0
  -30.8640  -12.6390   19.4470 N   0  0  0  0  0  0  0  0  0  0  0  0
  -32.6980  -13.7430   18.6660 O   0  0  0  0  0  0  0  0  0  0  0  0
  -29.9430  -18.6290   21.3000 C   0  0  0  0  0  0  0  0  0  0  0  0
  -30.4610  -16.2790   21.8590 C   0  0  0  0  0  2  0  0  0  0  0  0
  -30.2430  -16.9800   19.4710 C   0  0  0  0  0  2  0  0  0  0  0  0
  -31.3880  -15.1200   21.3780 C   0  0  0  0  0  2  0  0  0  0  0  0
  -31.4490  -16.0990   19.1990 C   0  0  0  0  0  2  0  0  0  0  0  0
  -30.2700  -17.3820   20.8820 N   0  0  0  0  0  0  0  0  0  0  0  0
  -31.2480  -14.8590   19.9420 N   0  0  0  0  0  0  0  0  0  0  0  0
  -29.5220  -18.8320   22.4420 O   0  0  0  0  0  0  0  0  0  0  0  0
  -26.2970  -13.5540   20.3670 C   0  0  0  0  0  0  0  0  0  0  0  0
  -25.1870  -12.9160   20.8490 C   0  0  0  0  0  0  0  0  0  0  0  0
  -25.4030  -11.5200   20.6180 C   0  0  0  0  0  0  0  0  0  0  0  0
  -27.1300  -12.5580   19.8830 N   0  0  0  0  0  0  0  0  0  0  0  0
  -26.6040  -11.3240   20.0910 N   0  0  0  0  0  0  0  0  0  0  0  0
  -24.5160  -10.3680   20.8180 C   0  0  0  0  0  0  0  0  0  0  0  0
  -24.7930   -9.3850   21.7930 C   0  0  0  0  0  3  0  0  0  0  0  0
  -23.9210   -8.2910   21.9770 C   0  0  0  0  0  3  0  0  0  0  0  0
  -22.7550   -8.1710   21.1830 C   0  0  0  0  0  0  0  0  0  0  0  0
  -22.4980   -9.1380   20.1960 C   0  0  0  0  0  3  0  0  0  0  0  0
  -23.3690  -10.2250   20.0110 C   0  0  0  0  0  3  0  0  0  0  0  0
  -21.8650   -7.1290   21.2710 O   0  0  0  0  0  0  0  0  0  0  0  0
  -21.5150   -6.5800   22.4790 C   0  0  0  0  0  0  0  0  0  0  0  0
  -20.9550   -7.3570   23.5170 C   0  0  0  0  0  3  0  0  0  0  0  0
  -20.5470   -6.7400   24.7170 C   0  0  0  0  0  3  0  0  0  0  0  0
  -20.6890   -5.3490   24.8770 C   0  0  0  0  0  0  0  0  0  0  0  0
  -21.2410   -4.5730   23.8440 C   0  0  0  0  0  3  0  0  0  0  0  0
  -21.6520   -5.1870   22.6480 C   0  0  0  0  0  0  0  0  0  0  0  0
  -22.1610   -4.4300   21.6470 F   0  0  0  0  0  0  0  0  0  0  0  0
  -20.2910   -4.7540   26.0270 F   0  0  0  0  0  0  0  0  0  0  0  0
  -23.9490  -13.5560   21.4070 C   0  0  0  0  0  0  0  0  0  0  0  0
  -23.2750  -12.8900   22.3340 N   0  0  0  0  0  0  0  0  0  0  0  0
  -23.5940  -14.6800   21.0470 O   0  0  0  0  0  0  0  0  0  0  0  0
  -23.5720  -11.9740   22.6350 H   0  0  0  0  0  0  0  0  0  0  0  0
  -22.4440  -13.2970   22.7390 H   0  0  0  0  0  0  0  0  0  0  0  0
  -26.6670  -14.8950   20.2790 N   0  0  0  0  0  0  0  0  0  0  0  0
  -26.0620  -15.6540   20.5660 H   0  0  0  0  0  0  0  0  0  0  0  0
  -27.5280  -15.2120   19.8520 H   0  0  0  0  0  0  0  0  0  0  0  0
  -27.9470  -22.5520   19.0310 C   0  0  0  0  0  2  0  0  0  0  0  0
  -29.0130  -22.6570   17.9290 C   0  0  0  0  0  2  0  0  0  0  0  0
  -28.8460  -23.8440   17.1470 O   0  0  0  0  0  0  0  0  0  0  0  0
  -29.2920  -25.0610   17.7610 C   0  0  0  0  0  2  0  0  0  0  0  0
  -28.2340  -26.1740   17.6590 C   0  0  0  0  0  2  0  0  0  0  0  0
  -28.0380  -26.7520   18.9520 O   0  0  0  0  0  0  0  0  0  0  0  0
  -24.7780  -31.4380   23.1840 C   0  0  0  0  0  0  0  0  0  0  0  0
  -26.8990  -27.4920   19.1700 C   0  0  0  0  0  0  0  0  0  0  0  0
  -23.3600  -30.3900   21.4480 C   0  0  0  0  0  3  0  0  0  0  0  0
  -24.6000  -29.0600   19.6640 C   0  0  0  0  0  0  0  0  0  0  0  0
  -25.8790  -30.6670   21.0900 C   0  0  0  0  0  2  0  0  0  0  0  0
  -25.8300  -29.4250   20.2260 C   0  0  0  0  0  0  0  0  0  0  0  0
  -26.9780  -28.6380   19.9920 C   0  0  0  0  0  3  0  0  0  0  0  0
  -25.6430  -27.1190   18.6390 C   0  0  0  0  0  3  0  0  0  0  0  0
  -24.5000  -27.9020   18.8750 C   0  0  0  0  0  3  0  0  0  0  0  0
  -23.4140  -29.9480   19.9620 C   0  0  0  0  0  2  0  0  0  0  0  0
  -24.6950  -30.8380   21.9650 N   0  0  0  0  0  0  0  0  0  0  0  0
  -23.7620  -31.6630   23.8570 O   0  0  0  0  0  0  0  0  0  0  0  0
  -22.7320  -29.2490   22.2820 C   0  0  0  0  0  0  0  0  0  0  0  0
  -21.4010  -29.1000   22.1830 N   0  0  0  0  0  0  0  0  0  0  0  0
  -23.4390  -28.5080   22.9720 O   0  0  0  0  0  0  0  0  0  0  0  0
  -20.8940  -29.7530   21.6020 H   0  0  0  0  0  0  0  0  0  0  0  0
  -18.0460  -27.8040   22.5390 C   0  0  0  0  0  0  0  0  0  0  0  0
  -20.5990  -28.0730   22.8460 C   0  0  0  0  0  3  0  0  0  0  0  0
  -20.7280  -26.7130   22.1240 C   0  0  0  0  0  2  0  0  0  0  0  0
  -19.6340  -26.4770   21.0780 C   0  0  0  0  0  2  0  0  0  0  0  0
  -18.2480  -26.5350   21.7270 C   0  0  0  0  0  2  0  0  0  0  0  0
  -19.1520  -28.5350   23.0510 C   0  0  0  0  0  0  0  0  0  0  0  0
  -18.9120  -29.7270   23.7690 C   0  0  0  0  0  3  0  0  0  0  0  0
  -17.5990  -30.1890   23.9810 C   0  0  0  0  0  3  0  0  0  0  0  0
  -16.5080  -29.4510   23.4850 C   0  0  0  0  0  3  0  0  0  0  0  0
  -16.7330  -28.2610   22.7720 C   0  0  0  0  0  3  0  0  0  0  0  0
  -26.1480  -31.8950   23.7800 C   0  0  0  0  0  3  0  0  0  0  0  0
  -26.6800  -30.9470   24.9240 C   0  0  1  0  0  0  0  0  0  0  0  0
  -25.6460  -30.6880   26.0440 C   0  0  0  0  0  1  0  0  0  0  0  0
  -27.1020  -29.5750   24.3480 C   0  0  0  0  0  1  0  0  0  0  0  0
  -27.9440  -31.5610   25.5690 C   0  0  0  0  0  1  0  0  0  0  0  0
  -25.9750  -33.2670   24.2750 N   0  0  0  0  0  0  0  0  0  0  0  0
  -26.3640  -34.3660   23.6160 C   0  0  0  0  0  0  0  0  0  0  0  0
  -26.9750  -34.3230   22.5440 O   0  0  0  0  0  0  0  0  0  0  0  0
  -25.4400  -33.3810   25.1230 H   0  0  0  0  0  0  0  0  0  0  0  0
  -24.7900  -36.3230   23.5440 C   0  0  0  0  0  1  0  0  0  0  0  0
  -26.0200  -35.7290   24.2460 C   0  0  0  0  0  3  0  0  0  0  0  0
  -28.2500  -36.3370   25.0750 C   0  0  0  0  0  1  0  0  0  0  0  0
  -27.1380  -36.6970   24.1990 N   0  0  0  0  0  0  0  0  0  0  0  0
  -26.8210  -37.6290   24.4520 H   0  0  0  0  0  0  0  0  0  0  0  0
  1  2  1  0
  3  2  1  0
  3 12  1  0
  4 10  1  0
  4 18  1  0
  5 10  1  0
  6  7  1  0
  6  5  1  0
  8  7  1  0
  8 23  1  0
  8  9  1  0
 10  9  1  0
 11  4  2  0
 12 19  2  0
 14 17  1  0
 15 13  1  0
 16 14  1  0
 16 18  1  0
 17 12  1  0
 17 13  1  0
 18 15  1  0
 20 21  2  0
 21 40  1  0
 22 25  1  0
 22 21  1  0
 23 24  1  0
 23 20  1  0
 24 22  2  0
 25 26  1  0
 26 27  2  0
 28 31  1  0
 28 27  1  0
 29 28  2  0
 30 29  1  0
 30 25  2  0
 31 32  1  0
 32 37  2  0
 32 33  1  0
 33 34  2  0
 34 35  1  0
 35 39  1  0
 36 35  2  0
 37 36  1  0
 38 37  1  0
 40 41  1  0
 41 43  1  0
 41 44  1  0
 42 40  2  0
 45 20  1  0
 45 46  1  0
 47 45  1  0
 48  1  1  0
 49 48  1  0
 50 51  1  0
 50 49  1  0
 52 51  1  0
 52 53  1  0
 53 55  1  0
 54 65  2  0
 55 60  1  0
 56 64  1  0
 56 66  1  0
 57 63  1  0
 57 59  1  0
 58 64  1  0
 59 58  1  0
 60 59  2  0
 61 62  1  0
 61 55  2  0
 62 57  2  0
 63 56  1  0
 64 54  1  0
 66 68  2  0
 67 66  1  0
 69 67  1  0
 70 79  2  0
 70 75  1  0
 71 67  1  0
 71 75  1  0
 72 71  1  0
 73 74  1  0
 73 72  1  0
 74 70  1  0
 75 76  2  0
 76 77  1  0
 78 77  2  0
 79 78  1  0
 80 54  1  0
 80 85  1  0
 80 81  1  0
 81 84  1  1
 81 82  1  0
 83 81  1  0
 85 88  1  0
 86 90  1  0
 86 85  1  0
 87 86  2  0
 90 89  1  0
 92 90  1  0
 92 93  1  0
 92 91  1  0
M  ISO  4   4 100  18 100  52 101  53 101
M  END
>  <TORSDO>  (84) 
F 23

>  <SCORE>  (84) 
-8.883

>  <name>  (84) 
90

>  <ligand_id>  (84) 
90

>  <original_smiles>  (84) 
[H]c1c([H])c([H])c2c(c1[H])C([H])([H])C([H])([H])C([H])([H])C2([H])N([H])C(=O)C1([H])N(C(=O)C([H])(N([H])C(=O)C([H])(N([H])C([H])([H])[H])C([H])([H])[H])C(C([H])([H])[H])(C([H])([H])[H])C([H])([H])[H])C([H])([H])c2c([H])c(OC([H])([H])C([H])([H])OC([H])([H])C([H])([H])C([H])([H])C([H])([H])C([H])([H])C(=O)N3C([H])([H])C([H])([H])N(C(=O)N4C([H])([H])C([H])([H])C([H])([H])C([H])(n5nc(-c6c([H])c([H])c(Oc7c([H])c([H])c(F)c([H])c7F)c([H])c6[H])c(C(=O)N([H])[H])c5N([H])[H])C4([H])[H])C([H])([H])C3([H])[H])c([H])c([H])c2C1([H])[H]

>  <smiles>  (84) 
[H]c1c([H])c([H])c2c(c1[H])C([H])([H])C([H])([H])C([H])([H])C2([H])N([H])C(=O)C1([H])N(C(=O)C([H])(N([H])C(=O)C([H])(N([H])C([H])([H])[H])C([H])([H])[H])C(C([H])([H])[H])(C([H])([H])[H])C([H])([H])[H])C([H])([H])c2c([H])c(OC([H])([H])C([H])([H])OC([H])([H])C([H])([H])C([H])([H])C([H])([H])C([H])([H])C(=O)N3C([H])([H])C([H])([H])N(C(=O)N4C([H])([H])C([H])([H])C([H])([H])C([H])(n5nc(-c6c([H])c([H])c(Oc7c([H])c([H])c(F)c([H])c7F)c([H])c6[H])c(C(=O)N([H])[H])c5N([H])[H])C4([H])[H])C([H])([H])C3([H])[H])c([H])c([H])c2C1([H])[H]

$$$$
91:0:0
     RDKit          3D

 87 94  0  0  1  0  0  0  0  0999 V2000
  -29.1130  -22.7980   20.1480 O   0  0  0  0  0  0  0  0  0  0  0  0
  -29.2650  -24.1800   20.5710 C   0  0  0  0  0  2  0  0  0  0  0  0
  -28.1950  -25.1410   19.9510 C   0  0  0  0  0  2  0  0  0  0  0  0
  -28.3440  -26.5690   20.2300 O   0  0  0  0  0  0  0  0  0  0  0  0
  -24.6030  -31.8820   23.2540 C   0  0  0  0  0  0  0  0  0  0  0  0
  -27.2030  -27.3700   20.1730 C   0  0  0  0  0  0  0  0  0  0  0  0
  -23.3880  -30.4910   21.6140 C   0  0  0  0  0  3  0  0  0  0  0  0
  -24.8290  -28.9470   20.1790 C   0  0  0  0  0  0  0  0  0  0  0  0
  -25.9230  -30.8160   21.4190 C   0  0  0  0  0  2  0  0  0  0  0  0
  -25.9960  -29.4430   20.7740 C   0  0  0  0  0  0  0  0  0  0  0  0
  -27.1840  -28.6630   20.7670 C   0  0  0  0  0  3  0  0  0  0  0  0
  -26.0140  -26.9200   19.5460 C   0  0  0  0  0  3  0  0  0  0  0  0
  -24.8370  -27.6890   19.5590 C   0  0  0  0  0  3  0  0  0  0  0  0
  -23.5920  -29.8180   20.2320 C   0  0  0  0  0  2  0  0  0  0  0  0
  -24.6560  -31.0790   22.1530 N   0  0  0  0  0  0  0  0  0  0  0  0
  -23.5240  -32.1610   23.7950 O   0  0  0  0  0  0  0  0  0  0  0  0
  -22.7290  -29.4710   22.5730 C   0  0  0  0  0  0  0  0  0  0  0  0
  -21.4040  -29.2960   22.4460 N   0  0  0  0  0  0  0  0  0  0  0  0
  -23.4090  -28.8420   23.3890 O   0  0  0  0  0  0  0  0  0  0  0  0
  -20.9160  -29.8550   21.7610 H   0  0  0  0  0  0  0  0  0  0  0  0
  -18.0240  -28.1080   22.9390 C   0  0  0  0  0  0  0  0  0  0  0  0
  -20.5820  -28.3620   23.2170 C   0  0  0  0  0  3  0  0  0  0  0  0
  -20.6820  -26.9290   22.6440 C   0  0  0  0  0  2  0  0  0  0  0  0
  -19.5830  -26.6070   21.6270 C   0  0  0  0  0  2  0  0  0  0  0  0
  -18.2000  -26.7570   22.2670 C   0  0  0  0  0  2  0  0  0  0  0  0
  -19.1430  -28.8680   23.3700 C   0  0  0  0  0  0  0  0  0  0  0  0
  -18.9250  -30.1340   23.9590 C   0  0  0  0  0  3  0  0  0  0  0  0
  -17.6220  -30.6390   24.1180 C   0  0  0  0  0  3  0  0  0  0  0  0
  -16.5170  -29.8760   23.7040 C   0  0  0  0  0  3  0  0  0  0  0  0
  -16.7190  -28.6120   23.1200 C   0  0  0  0  0  3  0  0  0  0  0  0
  -25.8930  -32.5060   23.8720 C   0  0  0  0  0  3  0  0  0  0  0  0
  -26.4080  -31.7310   25.1470 C   0  0  1  0  0  0  0  0  0  0  0  0
  -25.3180  -31.5010   26.2190 C   0  0  0  0  0  1  0  0  0  0  0  0
  -26.9820  -30.3500   24.7520 C   0  0  0  0  0  1  0  0  0  0  0  0
  -27.5640  -32.5190   25.8080 C   0  0  0  0  0  1  0  0  0  0  0  0
  -25.5920  -33.9060   24.2030 N   0  0  0  0  0  0  0  0  0  0  0  0
  -25.9250  -34.9570   23.4410 C   0  0  0  0  0  0  0  0  0  0  0  0
  -26.5890  -34.8480   22.4060 O   0  0  0  0  0  0  0  0  0  0  0  0
  -25.0030  -34.0650   25.0080 H   0  0  0  0  0  0  0  0  0  0  0  0
  -24.2020  -36.7560   23.0930 C   0  0  0  0  0  1  0  0  0  0  0  0
  -25.4460  -36.3470   23.8980 C   0  0  0  0  0  3  0  0  0  0  0  0
  -27.5900  -37.2240   24.7140 C   0  0  0  0  0  1  0  0  0  0  0  0
  -26.4820  -37.3950   23.7780 N   0  0  0  0  0  0  0  0  0  0  0  0
  -26.0800  -38.3170   23.9270 H   0  0  0  0  0  0  0  0  0  0  0  0
  -29.8660  -21.8260   20.9130 C   0  0  0  0  0  2  0  0  0  0  0  0
  -29.9940  -20.3890   20.2800 C   0  0  0  0  0  2  0  0  0  0  0  0
  -29.6060  -19.3250   21.1790 O   0  0  0  0  0  0  0  0  0  0  0  0
  -30.3560  -18.0820   21.1900 C   0  0  0  0  0  2  0  0  0  0  0  0
  -29.9920  -17.0260   20.1000 C   0  0  0  0  0  2  0  0  0  0  0  0
  -30.6580  -14.5630   20.1340 C   0  0  0  0  0  0  0  0  0  0  0  0
  -30.3320  -12.3860   19.0110 C   0  0  0  0  0  2  0  0  0  0  0  0
  -29.3420  -12.5990   17.8440 C   0  0  0  0  0  2  0  0  0  0  0  0
  -27.8850  -12.4670   18.3310 C   0  0  0  0  0  2  0  0  0  0  0  0
  -27.6040  -13.2910   19.6150 C   0  0  0  0  0  3  0  0  0  0  0  0
  -28.7030  -13.0590   20.6790 C   0  0  0  0  0  2  0  0  0  0  0  0
  -30.0040  -13.3660   20.0610 N   0  0  0  0  0  0  0  0  0  0  0  0
  -31.7760  -14.7380   19.6440 O   0  0  0  0  0  0  0  0  0  0  0  0
  -29.9110  -15.6090   20.5580 N   0  0  0  0  0  0  0  0  0  0  0  0
  -29.0360  -15.3490   20.9880 H   0  0  0  0  0  0  0  0  0  0  0  0
  -25.2410  -13.9170   20.4180 C   0  0  0  0  0  0  0  0  0  0  0  0
  -24.1800  -13.1550   20.8240 C   0  0  0  0  0  0  0  0  0  0  0  0
  -24.6260  -11.7980   20.7700 C   0  0  0  0  0  0  0  0  0  0  0  0
  -26.2680  -13.0270   20.1440 N   0  0  0  0  0  0  0  0  0  0  0  0
  -25.9040  -11.7470   20.4140 N   0  0  0  0  0  0  0  0  0  0  0  0
  -23.8950  -10.5420   20.9820 C   0  0  0  0  0  0  0  0  0  0  0  0
  -24.3570   -9.5630   21.8880 C   0  0  0  0  0  3  0  0  0  0  0  0
  -23.6260   -8.3710   22.0880 C   0  0  0  0  0  3  0  0  0  0  0  0
  -22.4190   -8.1520   21.3830 C   0  0  0  0  0  0  0  0  0  0  0  0
  -21.9750   -9.1210   20.4660 C   0  0  0  0  0  3  0  0  0  0  0  0
  -22.7060  -10.3040   20.2640 C   0  0  0  0  0  3  0  0  0  0  0  0
  -21.6570   -7.0150   21.4950 O   0  0  0  0  0  0  0  0  0  0  0  0
  -21.6560   -6.2580   22.6390 C   0  0  0  0  0  0  0  0  0  0  0  0
  -21.3040   -6.8040   23.8930 C   0  0  0  0  0  3  0  0  0  0  0  0
  -21.2500   -5.9740   25.0310 C   0  0  0  0  0  3  0  0  0  0  0  0
  -21.5350   -4.6010   24.9170 C   0  0  0  0  0  0  0  0  0  0  0  0
  -21.8800   -4.0550   23.6680 C   0  0  0  0  0  3  0  0  0  0  0  0
  -21.9370   -4.8820   22.5310 C   0  0  0  0  0  0  0  0  0  0  0  0
  -22.2490   -4.3460   21.3260 F   0  0  0  0  0  0  0  0  0  0  0  0
  -21.4760   -3.8020   26.0080 F   0  0  0  0  0  0  0  0  0  0  0  0
  -22.7990  -13.6450   21.1510 C   0  0  0  0  0  0  0  0  0  0  0  0
  -22.0980  -12.9520   22.0420 N   0  0  0  0  0  0  0  0  0  0  0  0
  -22.3520  -14.6760   20.6520 O   0  0  0  0  0  0  0  0  0  0  0  0
  -22.4730  -12.1180   22.4680 H   0  0  0  0  0  0  0  0  0  0  0  0
  -21.1730  -13.2630   22.3040 H   0  0  0  0  0  0  0  0  0  0  0  0
  -25.4140  -15.2870   20.2390 N   0  0  0  0  0  0  0  0  0  0  0  0
  -24.6560  -15.9470   20.3780 H   0  0  0  0  0  0  0  0  0  0  0  0
  -26.2510  -15.7180   19.8670 H   0  0  0  0  0  0  0  0  0  0  0  0
  1  2  1  0
  1 45  1  0
  3  4  1  0
  3  2  1  0
  5 16  2  0
  6  4  1  0
  6 11  1  0
  7 15  1  0
  7 17  1  0
  8 14  1  0
  8 10  1  0
  9 15  1  0
 10  9  1  0
 11 10  2  0
 12 13  1  0
 12  6  2  0
 13  8  2  0
 14  7  1  0
 15  5  1  0
 17 19  2  0
 18 17  1  0
 20 18  1  0
 21 30  2  0
 21 26  1  0
 22 18  1  0
 22 26  1  0
 23 22  1  0
 24 25  1  0
 24 23  1  0
 25 21  1  0
 26 27  2  0
 27 28  1  0
 29 28  2  0
 30 29  1  0
 31  5  1  0
 31 36  1  0
 31 32  1  0
 32 35  1  1
 32 33  1  0
 34 32  1  0
 36 39  1  0
 37 41  1  0
 37 36  1  0
 38 37  2  0
 41 40  1  0
 43 41  1  0
 43 44  1  0
 43 42  1  0
 46 45  1  0
 46 47  1  0
 47 48  1  0
 49 58  1  0
 49 48  1  0
 50 58  1  0
 51 56  1  0
 52 53  1  0
 52 51  1  0
 54 53  1  0
 54 63  1  0
 54 55  1  0
 56 50  1  0
 56 55  1  0
 57 50  2  0
 58 59  1  0
 60 61  2  0
 61 80  1  0
 62 61  1  0
 62 65  1  0
 63 64  1  0
 63 60  1  0
 64 62  2  0
 65 66  1  0
 66 67  2  0
 68 71  1  0
 68 67  1  0
 69 68  2  0
 70 69  1  0
 70 65  2  0
 71 72  1  0
 72 73  1  0
 73 74  2  0
 75 74  1  0
 75 79  1  0
 76 75  2  0
 77 72  2  0
 77 76  1  0
 78 77  1  0
 80 81  1  0
 81 84  1  0
 81 83  1  0
 82 80  2  0
 85 86  1  0
 85 60  1  0
 87 85  1  0
M  ISO  4   3 101   4 101  50 100  58 100
M  END
>  <TORSDO>  (85) 
F 23

>  <SCORE>  (85) 
-12.462

>  <name>  (85) 
91

>  <ligand_id>  (85) 
91

>  <original_smiles>  (85) 
[H]c1c([H])c([H])c2c(c1[H])C([H])([H])C([H])([H])C([H])([H])C2([H])N([H])C(=O)C1([H])N(C(=O)C([H])(N([H])C(=O)C([H])(N([H])C([H])([H])[H])C([H])([H])[H])C(C([H])([H])[H])(C([H])([H])[H])C([H])([H])[H])C([H])([H])c2c([H])c(OC([H])([H])C([H])([H])OC([H])([H])C([H])([H])OC([H])([H])C([H])([H])N([H])C(=O)N3C([H])([H])C([H])([H])C([H])([H])C([H])(n4nc(-c5c([H])c([H])c(Oc6c([H])c([H])c(F)c([H])c6F)c([H])c5[H])c(C(=O)N([H])[H])c4N([H])[H])C3([H])[H])c([H])c([H])c2C1([H])[H]

>  <smiles>  (85) 
[H]c1c([H])c([H])c2c(c1[H])C([H])([H])C([H])([H])C([H])([H])C2([H])N([H])C(=O)C1([H])N(C(=O)C([H])(N([H])C(=O)C([H])(N([H])C([H])([H])[H])C([H])([H])[H])C(C([H])([H])[H])(C([H])([H])[H])C([H])([H])[H])C([H])([H])c2c([H])c(OC([H])([H])C([H])([H])OC([H])([H])C([H])([H])OC([H])([H])C([H])([H])N([H])C(=O)N3C([H])([H])C([H])([H])C([H])([H])C([H])(n4nc(-c5c([H])c([H])c(Oc6c([H])c([H])c(F)c([H])c6F)c([H])c5[H])c(C(=O)N([H])[H])c4N([H])[H])C3([H])[H])c([H])c([H])c2C1([H])[H]

$$$$
92:0:0
     RDKit          3D

 97101  0  0  1  0  0  0  0  0999 V2000
  -22.8100  -27.9780   24.6330 C   0  0  0  0  0  0  0  0  0  0  0  0
  -21.9980  -30.8490   23.0910 C   0  0  0  0  0  3  0  0  0  0  0  0
  -20.6510  -30.0500   23.3160 C   0  0  0  0  0  3  0  0  0  0  0  0
  -21.4200  -31.2210   21.4130 C   0  0  0  0  0  2  0  0  0  0  0  0
  -20.0540  -29.8000   21.6540 C   0  0  0  0  0  2  0  0  0  0  0  0
  -22.0180  -29.4330   24.0860 N   0  0  0  0  0  0  0  0  0  0  0  0
  -23.4760  -26.4260   24.1800 N   0  0  0  0  0  2  0  0  0  0  0  0
  -21.0180  -30.0410   20.5460 N   0  0  2  0  0  4  0  0  0  0  0  0
  -22.8350  -28.0530   25.8560 O   0  0  0  0  0  0  0  0  0  0  0  0
  -23.4290  -26.0720   25.1160 H   0  0  0  0  0  0  0  0  0  0  0  0
  -20.4620  -30.4310   19.8020 H   0  0  0  0  0  0  0  0  0  0  0  0
  -24.4350  -24.9140   23.2460 C   0  0  0  0  0 15  0  0  0  0  0  0
  -25.3830  -22.8650   23.2280 C   0  0  0  0  0 15  0  0  0  0  0  0
  -26.5170  -21.1900   22.2140 C   0  0  0  0  0 15  0  0  0  0  0  0
  -27.5290  -19.1410   22.1340 C   0  0  0  0  0 15  0  0  0  0  0  0
  -29.4540  -16.1940   20.9070 C   0  0  0  0  0  0  0  0  0  0  0  0
  -30.2360  -13.6710   19.7590 C   0  0  0  0  0  2  0  0  0  0  0  0
  -29.5630  -12.9260   18.5260 C   0  0  0  0  0  2  0  0  0  0  0  0
  -28.1850  -12.3520   18.8820 C   0  0  0  0  0  2  0  0  0  0  0  0
  -27.5090  -13.3250   19.8560 C   0  0  0  0  0  3  0  0  0  0  0  0
  -28.3580  -13.7460   21.0670 C   0  0  0  0  0  2  0  0  0  0  0  0
  -29.3030  -14.7230   20.5240 N   0  0  0  0  0  0  0  0  0  0  0  0
  -30.7200  -16.2290   20.8190 O   0  0  0  0  0  0  0  0  0  0  0  0
  -28.3520  -17.5310   21.1810 N   0  0  0  0  0  2  0  0  0  0  0  0
  -27.7150  -17.3630   20.3990 H   0  0  0  0  0  0  0  0  0  0  0  0
  -25.1820  -13.8290   20.5680 C   0  0  0  0  0  0  0  0  0  0  0  0
  -24.1320  -13.0280   20.9310 C   0  0  0  0  0  0  0  0  0  0  0  0
  -24.6110  -11.6870   20.8740 C   0  0  0  0  0  0  0  0  0  0  0  0
  -26.2100  -12.9490   20.3080 N   0  0  0  0  0  0  0  0  0  0  0  0
  -25.9000  -11.6580   20.5610 N   0  0  0  0  0  0  0  0  0  0  0  0
  -23.8950  -10.4190   21.0440 C   0  0  0  0  0  0  0  0  0  0  0  0
  -24.3590   -9.4170   21.9190 C   0  0  0  0  0  3  0  0  0  0  0  0
  -23.6280   -8.2200   22.0750 C   0  0  0  0  0  3  0  0  0  0  0  0
  -22.4300   -8.0220   21.3520 C   0  0  0  0  0  0  0  0  0  0  0  0
  -21.9880   -9.0180   20.4650 C   0  0  0  0  0  3  0  0  0  0  0  0
  -22.7180  -10.2060   20.3060 C   0  0  0  0  0  3  0  0  0  0  0  0
  -21.6630   -6.8860   21.4250 O   0  0  0  0  0  0  0  0  0  0  0  0
  -21.6830   -6.0730   22.5300 C   0  0  0  0  0  0  0  0  0  0  0  0
  -21.4000   -6.5630   23.8230 C   0  0  0  0  0  3  0  0  0  0  0  0
  -21.3670   -5.6780   24.9190 C   0  0  0  0  0  3  0  0  0  0  0  0
  -21.6030   -4.3040   24.7220 C   0  0  0  0  0  0  0  0  0  0  0  0
  -21.8840   -3.8150   23.4350 C   0  0  0  0  0  3  0  0  0  0  0  0
  -21.9180   -4.6970   22.3410 C   0  0  0  0  0  0  0  0  0  0  0  0
  -22.1660   -4.2140   21.0990 F   0  0  0  0  0  0  0  0  0  0  0  0
  -21.5630   -3.4540   25.7740 F   0  0  0  0  0  0  0  0  0  0  0  0
  -22.7430  -13.5120   21.1970 C   0  0  0  0  0  0  0  0  0  0  0  0
  -22.0150  -12.8030   22.0590 N   0  0  0  0  0  0  0  0  0  0  0  0
  -22.3090  -14.5360   20.6840 O   0  0  0  0  0  0  0  0  0  0  0  0
  -22.3810  -11.9700   22.4930 H   0  0  0  0  0  0  0  0  0  0  0  0
  -21.0790  -13.1010   22.2900 H   0  0  0  0  0  0  0  0  0  0  0  0
  -25.3420  -15.2020   20.4300 N   0  0  0  0  0  0  0  0  0  0  0  0
  -24.5700  -15.8490   20.5540 H   0  0  0  0  0  0  0  0  0  0  0  0
  -26.1880  -15.6510   20.1000 H   0  0  0  0  0  0  0  0  0  0  0  0
  -21.7580  -28.9230   19.5060 C   0  0  0  0  0  2  0  0  0  0  0  0
  -22.9070  -27.4850   19.5580 C   0  0  0  0  0  2  0  0  0  0  0  0
  -24.3050  -26.6980   20.3850 C   0  0  0  0  0  2  0  0  0  0  0  0
  -25.9170  -26.6320   20.6910 O   0  0  0  0  0  0  0  0  0  0  0  0
  -24.9830  -31.7770   23.2610 C   0  0  0  0  0  0  0  0  0  0  0  0
  -26.9240  -27.3060   20.0860 C   0  0  0  0  0  3  0  0  0  0  0  0
  -23.9000  -30.2790   21.3630 C   0  0  0  0  0  3  0  0  0  0  0  0
  -25.3270  -29.3740   19.6800 C   0  0  0  0  0  3  0  0  0  0  0  0
  -26.2940  -30.7610   21.4800 C   0  0  0  0  0  2  0  0  0  0  0  0
  -26.3280  -29.5130   20.6440 C   0  0  0  0  0  3  0  0  0  0  0  0
  -27.2270  -28.4700   20.8160 C   0  0  0  0  0  2  0  0  0  0  0  0
  -26.3460  -27.3840   18.8450 C   0  0  0  0  0  3  0  0  0  0  0  0
  -25.3920  -28.4020   18.6810 C   0  0  0  0  0  3  0  0  0  0  0  0
  -24.2370  -30.3290   19.8690 C   0  0  0  0  0  2  0  0  0  0  0  0
  -25.0160  -30.9140   22.1600 N   0  0  0  0  0  0  0  0  0  0  0  0
  -24.0330  -32.1150   23.9310 O   0  0  0  0  0  0  0  0  0  0  0  0
  -23.3320  -28.8450   21.9650 C   0  0  0  0  0  0  0  0  0  0  0  0
  -21.9860  -28.1300   21.9900 N   0  0  0  0  0  0  0  0  0  0  0  0
  -24.2560  -28.4620   22.6550 O   0  0  0  0  0  0  0  0  0  0  0  0
  -21.9410  -27.5900   21.1050 H   0  0  0  0  0  0  0  0  0  0  0  0
  -17.9240  -27.8320   22.7080 C   0  0  0  0  0  0  0  0  0  0  0  0
  -20.6520  -27.5120   22.9300 C   0  0  0  0  0  3  0  0  0  0  0  0
  -20.4270  -26.2660   22.2230 C   0  0  0  0  0  2  0  0  0  0  0  0
  -19.3510  -26.4210   21.1750 C   0  0  0  0  0  2  0  0  0  0  0  0
  -17.9850  -26.6320   21.8200 C   0  0  0  0  0  2  0  0  0  0  0  0
  -19.0950  -28.1040   23.4490 C   0  0  0  0  0  0  0  0  0  0  0  0
  -18.7370  -29.0180   24.5440 C   0  0  0  0  0  3  0  0  0  0  0  0
  -17.6580  -29.9590   24.4980 C   0  0  0  0  0  3  0  0  0  0  0  0
  -16.6140  -29.7210   23.6160 C   0  0  0  0  0  3  0  0  0  0  0  0
  -16.7110  -28.5540   22.8270 C   0  0  0  0  0  3  0  0  0  0  0  0
  -26.1930  -32.4660   23.8700 C   0  0  0  0  0  3  0  0  0  0  0  0
  -25.7910  -33.8480   24.2620 N   0  0  0  0  0  0  0  0  0  0  0  0
  -25.9510  -34.9390   23.4980 C   0  0  0  0  0  0  0  0  0  0  0  0
  -26.5570  -34.9080   22.4220 O   0  0  0  0  0  0  0  0  0  0  0  0
  -25.1940  -33.9090   25.0760 H   0  0  0  0  0  0  0  0  0  0  0  0
  -24.1540  -36.6970   23.2580 C   0  0  0  0  0  1  0  0  0  0  0  0
  -25.4190  -36.2910   24.0270 C   0  0  0  0  0  3  0  0  0  0  0  0
  -27.5570  -37.1760   24.8450 C   0  0  0  0  0  1  0  0  0  0  0  0
  -26.4280  -37.3710   23.9330 N   0  0  0  0  0  0  0  0  0  0  0  0
  -26.0000  -38.2670   24.1470 H   0  0  0  0  0  0  0  0  0  0  0  0
  -26.6090  -31.6600   25.1600 C   0  0  1  0  0  0  0  0  0  0  0  0
  -25.5160  -31.4180   26.2490 C   0  0  0  0  0  1  0  0  0  0  0  0
  -27.1720  -30.2760   24.7570 C   0  0  0  0  0  1  0  0  0  0  0  0
  -27.7380  -32.4370   25.8580 C   0  0  0  0  0  1  0  0  0  0  0  0
  1  9  2  0
  2  4  1  0
  2  3  1  0
  2  6  1  0
  3  5  1  0
  3  6  1  0
  6  1  1  0
  7  1  1  0
  7 10  1  0
  8  4  1  0
  8  5  1  0
  8 11  1  6
 16 24  1  0
 17 22  1  0
 18 19  1  0
 18 17  1  0
 20 19  1  0
 20 29  1  0
 20 21  1  0
 22 16  1  0
 22 21  1  0
 23 16  2  0
 25 24  1  0
 26 27  2  0
 27 46  1  0
 28 27  1  0
 28 31  1  0
 29 30  1  0
 29 26  1  0
 30 28  2  0
 31 32  1  0
 32 33  2  0
 34 37  1  0
 34 33  1  0
 35 34  2  0
 36 35  1  0
 36 31  2  0
 37 38  1  0
 38 39  1  0
 39 40  2  0
 41 40  1  0
 41 45  1  0
 42 41  2  0
 43 38  2  0
 43 42  1  0
 44 43  1  0
 46 47  1  0
 47 50  1  0
 47 49  1  0
 48 46  2  0
 51 52  1  0
 51 26  1  0
 53 51  1  0
 54 55  1  0
 54  8  1  0
 55 56  1  0
 56 57  1  0
 58 69  2  0
 59 57  1  0
 59 64  1  0
 60 70  1  0
 60 68  1  0
 61 66  1  0
 61 67  1  0
 61 63  1  0
 62 68  1  0
 63 64  1  0
 63 62  1  0
 65 59  1  0
 66 65  2  0
 67 60  1  0
 68 58  1  0
 70 71  1  0
 70 72  2  0
 73 71  1  0
 74 83  2  0
 74 79  1  0
 75 71  1  0
 75 79  1  0
 76 75  1  0
 77 78  1  0
 77 76  1  0
 78 74  1  0
 79 80  2  0
 81 80  1  0
 82 81  2  0
 83 82  1  0
 84 58  1  0
 84 85  1  0
 84 94  1  0
 85 88  1  0
 86 90  1  0
 86 85  1  0
 87 86  2  0
 90 89  1  0
 92 90  1  0
 92 93  1  0
 92 91  1  0
 94 97  1  1
 94 95  1  0
 96 94  1  0
M  ISO  4  16 100  24 100  56 101  57 101
M  END
>  <TORSDO>  (86) 
F 23

>  <SCORE>  (86) 
12.456

>  <name>  (86) 
92

>  <ligand_id>  (86) 
92

>  <original_smiles>  (86) 
[H]c1c([H])c([H])c2c(c1[H])C([H])([H])C([H])([H])C([H])([H])C2([H])N([H])C(=O)C1([H])N(C(=O)C([H])(N([H])C(=O)C([H])(N([H])C([H])([H])[H])C([H])([H])[H])C(C([H])([H])[H])(C([H])([H])[H])C([H])([H])[H])C([H])([H])c2c([H])c(OC([H])([H])C([H])([H])C([H])([H])[N+]3([H])C([H])([H])C([H])([H])N(C(=O)N([H])C([H])([H])C([H])([H])C([H])([H])C([H])([H])N([H])C(=O)N4C([H])([H])C([H])([H])C([H])([H])C([H])(n5nc(-c6c([H])c([H])c(Oc7c([H])c([H])c(F)c([H])c7F)c([H])c6[H])c(C(=O)N([H])[H])c5N([H])[H])C4([H])[H])C([H])([H])C3([H])[H])c([H])c([H])c2C1([H])[H]

>  <smiles>  (86) 
[H]c1c([H])c([H])c2c(c1[H])C([H])([H])C([H])([H])C([H])([H])C2([H])N([H])C(=O)C1([H])N(C(=O)C([H])(N([H])C(=O)C([H])(N([H])C([H])([H])[H])C([H])([H])[H])C(C([H])([H])[H])(C([H])([H])[H])C([H])([H])[H])C([H])([H])c2c([H])c(OC([H])([H])C([H])([H])C([H])([H])[N+]3([H])C([H])([H])C([H])([H])N(C(=O)N([H])C([H])([H])C([H])([H])C([H])([H])C([H])([H])N([H])C(=O)N4C([H])([H])C([H])([H])C([H])([H])C([H])(n5nc(-c6c([H])c([H])c(Oc7c([H])c([H])c(F)c([H])c7F)c([H])c6[H])c(C(=O)N([H])[H])c5N([H])[H])C4([H])[H])C([H])([H])C3([H])[H])c([H])c([H])c2C1([H])[H]

$$$$
93:0:0
     RDKit          3D

 86 93  0  0  1  0  0  0  0  0999 V2000
  -28.6720  -23.7700   19.9440 C   0  0  0  0  0  3  0  0  0  0  0  0
  -28.2190  -25.0910   20.7410 C   0  0  0  0  0  2  0  0  0  0  0  0
  -28.3430  -26.4570   20.1560 O   0  0  0  0  0  0  0  0  0  0  0  0
  -24.6310  -31.8710   23.2290 C   0  0  0  0  0  0  0  0  0  0  0  0
  -27.2220  -27.3030   20.1680 C   0  0  0  0  0  0  0  0  0  0  0  0
  -23.4160  -30.4700   21.5970 C   0  0  0  0  0  3  0  0  0  0  0  0
  -24.8570  -28.9120   20.1660 C   0  0  0  0  0  0  0  0  0  0  0  0
  -25.9520  -30.7900   21.3930 C   0  0  0  0  0  2  0  0  0  0  0  0
  -26.0300  -29.4080   20.7510 C   0  0  0  0  0  0  0  0  0  0  0  0
  -27.2190  -28.6170   20.7360 C   0  0  0  0  0  3  0  0  0  0  0  0
  -26.0280  -26.8560   19.5680 C   0  0  0  0  0  3  0  0  0  0  0  0
  -24.8580  -27.6420   19.5660 C   0  0  0  0  0  3  0  0  0  0  0  0
  -23.6210  -29.7890   20.2180 C   0  0  0  0  0  2  0  0  0  0  0  0
  -24.6860  -31.0620   22.1300 N   0  0  0  0  0  0  0  0  0  0  0  0
  -23.5520  -32.1480   23.7710 O   0  0  0  0  0  0  0  0  0  0  0  0
  -22.7600  -29.4560   22.5650 C   0  0  0  0  0  0  0  0  0  0  0  0
  -21.4320  -29.2780   22.4470 N   0  0  0  0  0  0  0  0  0  0  0  0
  -23.4430  -28.8320   23.3800 O   0  0  0  0  0  0  0  0  0  0  0  0
  -20.9390  -29.8330   21.7620 H   0  0  0  0  0  0  0  0  0  0  0  0
  -18.0610  -28.0720   22.9610 C   0  0  0  0  0  0  0  0  0  0  0  0
  -20.6180  -28.3420   23.2240 C   0  0  0  0  0  3  0  0  0  0  0  0
  -20.7260  -26.9080   22.6560 C   0  0  0  0  0  2  0  0  0  0  0  0
  -19.6230  -26.5770   21.6450 C   0  0  0  0  0  2  0  0  0  0  0  0
  -18.2420  -26.7200   22.2920 C   0  0  0  0  0  2  0  0  0  0  0  0
  -19.1780  -28.8410   23.3840 C   0  0  0  0  0  0  0  0  0  0  0  0
  -18.9550  -30.1060   23.9700 C   0  0  0  0  0  3  0  0  0  0  0  0
  -17.6480  -30.6030   24.1360 C   0  0  0  0  0  3  0  0  0  0  0  0
  -16.5460  -29.8320   23.7280 C   0  0  0  0  0  3  0  0  0  0  0  0
  -16.7530  -28.5680   23.1460 C   0  0  0  0  0  3  0  0  0  0  0  0
  -25.9190  -32.5040   23.8420 C   0  0  0  0  0  3  0  0  0  0  0  0
  -26.4500  -31.7270   25.1080 C   0  0  1  0  0  0  0  0  0  0  0  0
  -25.3700  -31.4840   26.1880 C   0  0  0  0  0  1  0  0  0  0  0  0
  -27.0290  -30.3510   24.7030 C   0  0  0  0  0  1  0  0  0  0  0  0
  -27.6090  -32.5180   25.7610 C   0  0  0  0  0  1  0  0  0  0  0  0
  -25.6080  -33.8990   24.1840 N   0  0  0  0  0  0  0  0  0  0  0  0
  -25.9280  -34.9580   23.4280 C   0  0  0  0  0  0  0  0  0  0  0  0
  -26.5840  -34.8640   22.3870 O   0  0  0  0  0  0  0  0  0  0  0  0
  -25.0250  -34.0460   24.9950 H   0  0  0  0  0  0  0  0  0  0  0  0
  -24.1860  -36.7460   23.1160 C   0  0  0  0  0  1  0  0  0  0  0  0
  -25.4440  -36.3430   23.9020 C   0  0  0  0  0  3  0  0  0  0  0  0
  -27.5920  -37.2310   24.6940 C   0  0  0  0  0  1  0  0  0  0  0  0
  -26.4690  -37.4000   23.7750 N   0  0  0  0  0  0  0  0  0  0  0  0
  -26.0630  -38.3180   23.9370 H   0  0  0  0  0  0  0  0  0  0  0  0
  -28.8900  -22.4000   20.7680 C   0  0  0  0  0  3  0  0  0  0  0  0
  -29.0280  -21.1070   20.0540 O   0  0  0  0  0  0  0  0  0  0  0  0
  -29.5860  -19.9460   20.7910 C   0  0  0  0  0  3  0  0  0  0  0  0
  -29.3710  -18.4490   20.2310 C   0  0  0  0  0  3  0  0  0  0  0  0
  -30.2390  -17.2470   20.8600 C   0  0  0  0  0  2  0  0  0  0  0  0
  -30.5850  -14.6890   20.3700 C   0  0  0  0  0  0  0  0  0  0  0  0
  -30.3560  -12.4350   19.3300 C   0  0  0  0  0  2  0  0  0  0  0  0
  -29.4000  -12.5300   18.1210 C   0  0  0  0  0  2  0  0  0  0  0  0
  -27.9350  -12.3670   18.5710 C   0  0  0  0  0  2  0  0  0  0  0  0
  -27.5820  -13.2470   19.8010 C   0  0  0  0  0  3  0  0  0  0  0  0
  -28.6560  -13.1330   20.9060 C   0  0  0  0  0  2  0  0  0  0  0  0
  -29.9470  -13.4750   20.2960 N   0  0  0  0  0  0  0  0  0  0  0  0
  -31.7640  -14.8020   20.0280 O   0  0  0  0  0  0  0  0  0  0  0  0
  -29.8180  -15.8000   20.6520 N   0  0  0  0  0  0  0  0  0  0  0  0
  -28.8500  -15.5990   20.8480 H   0  0  0  0  0  0  0  0  0  0  0  0
  -25.2040  -13.8450   20.5600 C   0  0  0  0  0  0  0  0  0  0  0  0
  -24.1410  -13.0720   20.9420 C   0  0  0  0  0  0  0  0  0  0  0  0
  -24.6010  -11.7200   20.9010 C   0  0  0  0  0  0  0  0  0  0  0  0
  -26.2430  -12.9630   20.3080 N   0  0  0  0  0  0  0  0  0  0  0  0
  -25.8880  -11.6800   20.5760 N   0  0  0  0  0  0  0  0  0  0  0  0
  -23.8750  -10.4580   21.0970 C   0  0  0  0  0  0  0  0  0  0  0  0
  -24.3340   -9.4730   21.9980 C   0  0  0  0  0  3  0  0  0  0  0  0
  -23.6070   -8.2760   22.1820 C   0  0  0  0  0  3  0  0  0  0  0  0
  -22.4070   -8.0570   21.4650 C   0  0  0  0  0  0  0  0  0  0  0  0
  -21.9670   -9.0320   20.5520 C   0  0  0  0  0  3  0  0  0  0  0  0
  -22.6940  -10.2200   20.3650 C   0  0  0  0  0  3  0  0  0  0  0  0
  -21.6490   -6.9150   21.5600 O   0  0  0  0  0  0  0  0  0  0  0  0
  -21.6580   -6.1390   22.6910 C   0  0  0  0  0  0  0  0  0  0  0  0
  -21.3230   -6.6630   23.9590 C   0  0  0  0  0  3  0  0  0  0  0  0
  -21.2750   -5.8140   25.0820 C   0  0  0  0  0  3  0  0  0  0  0  0
  -21.5540   -4.4410   24.9400 C   0  0  0  0  0  0  0  0  0  0  0  0
  -21.8830   -3.9170   23.6780 C   0  0  0  0  0  3  0  0  0  0  0  0
  -21.9310   -4.7620   22.5560 C   0  0  0  0  0  0  0  0  0  0  0  0
  -22.2270   -4.2470   21.3390 F   0  0  0  0  0  0  0  0  0  0  0  0
  -21.5020   -3.6230   26.0180 F   0  0  0  0  0  0  0  0  0  0  0  0
  -22.7480  -13.5510   21.2300 C   0  0  0  0  0  0  0  0  0  0  0  0
  -22.0290  -12.8560   22.1060 N   0  0  0  0  0  0  0  0  0  0  0  0
  -22.3050  -14.5760   20.7150 O   0  0  0  0  0  0  0  0  0  0  0  0
  -22.4020  -12.0270   22.5460 H   0  0  0  0  0  0  0  0  0  0  0  0
  -21.0950  -13.1600   22.3420 H   0  0  0  0  0  0  0  0  0  0  0  0
  -25.3670  -15.2150   20.3830 N   0  0  0  0  0  0  0  0  0  0  0  0
  -24.6000  -15.8680   20.5010 H   0  0  0  0  0  0  0  0  0  0  0  0
  -26.2040  -15.6530   20.0200 H   0  0  0  0  0  0  0  0  0  0  0  0
  1  2  1  0
  1 44  2  0
  3  5  1  0
  3  2  1  0
  4 15  2  0
  5 10  1  0
  6 14  1  0
  6 16  1  0
  7 13  1  0
  7  9  1  0
  8 14  1  0
  9  8  1  0
 10  9  2  0
 11  5  2  0
 12 11  1  0
 12  7  2  0
 13  6  1  0
 14  4  1  0
 16 18  2  0
 17 16  1  0
 19 17  1  0
 20 29  2  0
 20 25  1  0
 21 17  1  0
 21 25  1  0
 22 21  1  0
 23 24  1  0
 23 22  1  0
 24 20  1  0
 25 26  2  0
 26 27  1  0
 28 27  2  0
 29 28  1  0
 30  4  1  0
 30 35  1  0
 30 31  1  0
 31 34  1  1
 31 32  1  0
 33 31  1  0
 35 38  1  0
 36 40  1  0
 36 35  1  0
 37 36  2  0
 40 39  1  0
 42 40  1  0
 42 43  1  0
 42 41  1  0
 45 44  1  0
 45 46  1  0
 47 46  2  0
 47 48  1  0
 49 57  1  0
 50 55  1  0
 51 52  1  0
 51 50  1  0
 53 52  1  0
 53 62  1  0
 53 54  1  0
 55 49  1  0
 55 54  1  0
 56 49  2  0
 57 58  1  0
 57 48  1  0
 59 60  2  0
 60 79  1  0
 61 60  1  0
 61 64  1  0
 62 59  1  0
 62 63  1  0
 63 61  2  0
 64 65  1  0
 65 66  2  0
 67 70  1  0
 67 66  1  0
 68 67  2  0
 69 68  1  0
 69 64  2  0
 70 71  1  0
 71 72  1  0
 72 73  2  0
 74 73  1  0
 74 78  1  0
 75 74  2  0
 76 71  2  0
 76 75  1  0
 77 76  1  0
 79 80  1  0
 80 83  1  0
 80 82  1  0
 81 79  2  0
 84 85  1  0
 84 59  1  0
 86 84  1  0
M  ISO  4   2 101   3 101  49 100  57 100
M  END
>  <TORSDO>  (87) 
F 22

>  <SCORE>  (87) 
-12.830

>  <name>  (87) 
93

>  <ligand_id>  (87) 
93

>  <original_smiles>  (87) 
[H]c1c([H])c([H])c2c(c1[H])C([H])([H])C([H])([H])C([H])([H])C2([H])N([H])C(=O)C1([H])N(C(=O)C([H])(N([H])C(=O)C([H])(N([H])C([H])([H])[H])C([H])([H])[H])C(C([H])([H])[H])(C([H])([H])[H])C([H])([H])[H])C([H])([H])c2c([H])c(OC([H])([H])C([H])([H])C([H])([H])OC([H])([H])C([H])([H])C([H])([H])N([H])C(=O)N3C([H])([H])C([H])([H])C([H])([H])C([H])(n4nc(-c5c([H])c([H])c(Oc6c([H])c([H])c(F)c([H])c6F)c([H])c5[H])c(C(=O)N([H])[H])c4N([H])[H])C3([H])[H])c([H])c([H])c2C1([H])[H]

>  <smiles>  (87) 
[H]c1c([H])c([H])c2c(c1[H])C([H])([H])C([H])([H])C([H])([H])C2([H])N([H])C(=O)C1([H])N(C(=O)C([H])(N([H])C(=O)C([H])(N([H])C([H])([H])[H])C([H])([H])[H])C(C([H])([H])[H])(C([H])([H])[H])C([H])([H])[H])C([H])([H])c2c([H])c(OC([H])([H])C([H])([H])C([H])([H])OC([H])([H])C([H])([H])C([H])([H])N([H])C(=O)N3C([H])([H])C([H])([H])C([H])([H])C([H])(n4nc(-c5c([H])c([H])c(Oc6c([H])c([H])c(F)c([H])c6F)c([H])c5[H])c(C(=O)N([H])[H])c4N([H])[H])C3([H])[H])c([H])c([H])c2C1([H])[H]

$$$$
94:0:0
     RDKit          3D

 89 96  0  0  1  0  0  0  0  0999 V2000
  -29.2990  -22.9750   20.3770 N   0  0  0  0  0  4  0  0  0  0  0  0
  -30.2740  -23.2340   20.4390 H   0  0  0  0  0  0  0  0  0  0  0  0
  -29.1200  -22.7500   19.4100 H   0  0  0  0  0  0  0  0  0  0  0  0
  -28.4730  -24.1840   20.7410 C   0  0  0  0  0  2  0  0  0  0  0  0
  -28.6410  -25.3860   19.7480 C   0  0  0  0  0  2  0  0  0  0  0  0
  -28.4280  -26.7170   20.2840 O   0  0  0  0  0  0  0  0  0  0  0  0
  -24.5410  -31.8740   23.2580 C   0  0  0  0  0  0  0  0  0  0  0  0
  -27.2230  -27.4040   20.2160 C   0  0  0  0  0  0  0  0  0  0  0  0
  -23.3450  -30.4710   21.6050 C   0  0  0  0  0  3  0  0  0  0  0  0
  -24.8140  -28.9160   20.2010 C   0  0  0  0  0  0  0  0  0  0  0  0
  -25.8700  -30.8350   21.4190 C   0  0  0  0  0  2  0  0  0  0  0  0
  -25.9680  -29.4550   20.7840 C   0  0  0  0  0  0  0  0  0  0  0  0
  -27.1690  -28.7070   20.7770 C   0  0  0  0  0  3  0  0  0  0  0  0
  -26.0450  -26.8790   19.6370 C   0  0  0  0  0  3  0  0  0  0  0  0
  -24.8500  -27.6330   19.6260 C   0  0  0  0  0  3  0  0  0  0  0  0
  -23.5650  -29.7700   20.2350 C   0  0  0  0  0  2  0  0  0  0  0  0
  -24.6030  -31.0750   22.1560 N   0  0  0  0  0  0  0  0  0  0  0  0
  -23.4560  -32.1450   23.7930 O   0  0  0  0  0  0  0  0  0  0  0  0
  -22.6800  -29.4600   22.5690 C   0  0  0  0  0  0  0  0  0  0  0  0
  -21.3550  -29.2850   22.4360 N   0  0  0  0  0  0  0  0  0  0  0  0
  -23.3560  -28.8280   23.3830 O   0  0  0  0  0  0  0  0  0  0  0  0
  -20.8670  -29.8570   21.7620 H   0  0  0  0  0  0  0  0  0  0  0  0
  -17.9740  -28.0890   22.9000 C   0  0  0  0  0  0  0  0  0  0  0  0
  -20.5300  -28.3440   23.1970 C   0  0  0  0  0  3  0  0  0  0  0  0
  -20.6330  -26.9120   22.6210 C   0  0  0  0  0  2  0  0  0  0  0  0
  -19.5420  -26.5920   21.5950 C   0  0  0  0  0  2  0  0  0  0  0  0
  -18.1550  -26.7380   22.2280 C   0  0  0  0  0  2  0  0  0  0  0  0
  -19.0890  -28.8490   23.3410 C   0  0  0  0  0  0  0  0  0  0  0  0
  -18.8670  -30.1120   23.9310 C   0  0  0  0  0  3  0  0  0  0  0  0
  -17.5610  -30.6190   24.0770 C   0  0  0  0  0  3  0  0  0  0  0  0
  -16.4590  -29.8560   23.6520 C   0  0  0  0  0  3  0  0  0  0  0  0
  -16.6670  -28.5920   23.0700 C   0  0  0  0  0  3  0  0  0  0  0  0
  -25.8210  -32.5060   23.8880 C   0  0  0  0  0  3  0  0  0  0  0  0
  -25.5230  -33.9100   24.1990 N   0  0  0  0  0  0  0  0  0  0  0  0
  -25.8810  -34.9470   23.4320 C   0  0  0  0  0  0  0  0  0  0  0  0
  -26.5660  -34.8250   22.4120 O   0  0  0  0  0  0  0  0  0  0  0  0
  -24.9260  -34.0880   24.9940 H   0  0  0  0  0  0  0  0  0  0  0  0
  -24.1860  -36.7560   23.0240 C   0  0  0  0  0  1  0  0  0  0  0  0
  -25.4040  -36.3450   23.8660 C   0  0  0  0  0  3  0  0  0  0  0  0
  -27.5280  -37.2200   24.7330 C   0  0  0  0  0  1  0  0  0  0  0  0
  -26.4520  -37.3830   23.7600 N   0  0  0  0  0  0  0  0  0  0  0  0
  -26.0540  -38.3120   23.8790 H   0  0  0  0  0  0  0  0  0  0  0  0
  -26.3200  -31.7430   25.1750 C   0  0  1  0  0  0  0  0  0  0  0  0
  -25.2160  -31.5290   26.2360 C   0  0  0  0  0  1  0  0  0  0  0  0
  -26.8920  -30.3550   24.7990 C   0  0  0  0  0  1  0  0  0  0  0  0
  -27.4690  -32.5360   25.8400 C   0  0  0  0  0  1  0  0  0  0  0  0
  -29.0800  -21.7190   21.1760 C   0  0  0  0  0  2  0  0  0  0  0  0
  -29.9660  -20.4830   20.7640 C   0  0  0  0  0  2  0  0  0  0  0  0
  -29.4780  -19.2560   21.3620 O   0  0  0  0  0  0  0  0  0  0  0  0
  -30.3060  -18.0630   21.3480 C   0  0  0  0  0  2  0  0  0  0  0  0
  -29.9670  -17.0150   20.2370 C   0  0  0  0  0  2  0  0  0  0  0  0
  -30.6990  -14.5570   20.1600 C   0  0  0  0  0  0  0  0  0  0  0  0
  -30.4030  -12.3780   19.0240 C   0  0  0  0  0  2  0  0  0  0  0  0
  -29.4200  -12.5790   17.8490 C   0  0  0  0  0  2  0  0  0  0  0  0
  -27.9630  -12.4320   18.3270 C   0  0  0  0  0  2  0  0  0  0  0  0
  -27.6680  -13.2600   19.6060 C   0  0  0  0  0  3  0  0  0  0  0  0
  -28.7560  -13.0300   20.6810 C   0  0  0  0  0  2  0  0  0  0  0  0
  -30.0590  -13.3540   20.0750 N   0  0  0  0  0  0  0  0  0  0  0  0
  -31.8060  -14.7560   19.6550 O   0  0  0  0  0  0  0  0  0  0  0  0
  -29.9460  -15.5780   20.6400 N   0  0  0  0  0  0  0  0  0  0  0  0
  -29.0810  -15.2720   21.0630 H   0  0  0  0  0  0  0  0  0  0  0  0
  -25.2950  -13.8880   20.3800 C   0  0  0  0  0  0  0  0  0  0  0  0
  -24.2320  -13.1260   20.7780 C   0  0  0  0  0  0  0  0  0  0  0  0
  -24.6800  -11.7700   20.7330 C   0  0  0  0  0  0  0  0  0  0  0  0
  -26.3260  -12.9980   20.1190 N   0  0  0  0  0  0  0  0  0  0  0  0
  -25.9600  -11.7190   20.3880 N   0  0  0  0  0  0  0  0  0  0  0  0
  -23.9500  -10.5140   20.9450 C   0  0  0  0  0  0  0  0  0  0  0  0
  -24.3950   -9.5500   21.8770 C   0  0  0  0  0  3  0  0  0  0  0  0
  -23.6670   -8.3570   22.0750 C   0  0  0  0  0  3  0  0  0  0  0  0
  -22.4800   -8.1200   21.3420 C   0  0  0  0  0  0  0  0  0  0  0  0
  -22.0540   -9.0720   20.3990 C   0  0  0  0  0  3  0  0  0  0  0  0
  -22.7830  -10.2570   20.2000 C   0  0  0  0  0  3  0  0  0  0  0  0
  -21.7230   -6.9790   21.4470 O   0  0  0  0  0  0  0  0  0  0  0  0
  -21.6820   -6.2470   22.6080 C   0  0  0  0  0  0  0  0  0  0  0  0
  -21.2680   -6.8160   23.8320 C   0  0  0  0  0  3  0  0  0  0  0  0
  -21.1750   -6.0130   24.9850 C   0  0  0  0  0  3  0  0  0  0  0  0
  -21.4830   -4.6410   24.9160 C   0  0  0  0  0  0  0  0  0  0  0  0
  -21.8910   -4.0720   23.6970 C   0  0  0  0  0  3  0  0  0  0  0  0
  -21.9850   -4.8720   22.5450 C   0  0  0  0  0  0  0  0  0  0  0  0
  -22.3560   -4.3140   21.3680 F   0  0  0  0  0  0  0  0  0  0  0  0
  -21.3870   -3.8670   26.0220 F   0  0  0  0  0  0  0  0  0  0  0  0
  -22.8460  -13.6130   21.0960 C   0  0  0  0  0  0  0  0  0  0  0  0
  -22.1410  -12.9180   21.9810 N   0  0  0  0  0  0  0  0  0  0  0  0
  -22.4010  -14.6440   20.5930 O   0  0  0  0  0  0  0  0  0  0  0  0
  -22.5160  -12.0790   22.4020 H   0  0  0  0  0  0  0  0  0  0  0  0
  -21.2150  -13.2250   22.2410 H   0  0  0  0  0  0  0  0  0  0  0  0
  -25.4670  -15.2600   20.1980 N   0  0  0  0  0  0  0  0  0  0  0  0
  -24.7160  -15.9230   20.3390 H   0  0  0  0  0  0  0  0  0  0  0  0
  -26.3070  -15.6870   19.8300 H   0  0  0  0  0  0  0  0  0  0  0  0
  1  2  1  0
  1  4  1  0
  1 47  1  0
  3  1  1  0
  5  6  1  0
  5  4  1  0
  7 18  2  0
  8  6  1  0
  8 13  1  0
  9 17  1  0
  9 19  1  0
 10 16  1  0
 10 12  1  0
 11 17  1  0
 12 11  1  0
 13 12  2  0
 14  8  2  0
 15 14  1  0
 15 10  2  0
 16  9  1  0
 17  7  1  0
 19 21  2  0
 20 19  1  0
 22 20  1  0
 23 32  2  0
 23 28  1  0
 24 20  1  0
 24 28  1  0
 25 24  1  0
 26 27  1  0
 26 25  1  0
 27 23  1  0
 28 29  2  0
 29 30  1  0
 31 30  2  0
 32 31  1  0
 33  7  1  0
 33 34  1  0
 33 43  1  0
 34 37  1  0
 35 39  1  0
 35 34  1  0
 36 35  2  0
 39 38  1  0
 41 39  1  0
 41 42  1  0
 41 40  1  0
 43 46  1  1
 43 44  1  0
 45 43  1  0
 48 47  1  0
 48 49  1  0
 50 49  1  0
 51 60  1  0
 51 50  1  0
 52 60  1  0
 53 58  1  0
 54 55  1  0
 54 53  1  0
 56 55  1  0
 56 65  1  0
 56 57  1  0
 58 52  1  0
 58 57  1  0
 59 52  2  0
 60 61  1  0
 62 63  2  0
 63 82  1  0
 64 63  1  0
 64 67  1  0
 65 62  1  0
 65 66  1  0
 66 64  2  0
 67 68  1  0
 68 69  2  0
 70 73  1  0
 70 69  1  0
 71 70  2  0
 72 71  1  0
 72 67  2  0
 73 74  1  0
 74 75  1  0
 75 76  2  0
 77 76  1  0
 77 81  1  0
 78 77  2  0
 79 74  2  0
 79 78  1  0
 80 79  1  0
 82 83  1  0
 83 86  1  0
 83 85  1  0
 84 82  2  0
 87 88  1  0
 87 62  1  0
 89 87  1  0
M  ISO  4   5 101   6 101  52 100  60 100
M  END
>  <TORSDO>  (88) 
F 23

>  <SCORE>  (88) 
-12.390

>  <name>  (88) 
94

>  <ligand_id>  (88) 
94

>  <original_smiles>  (88) 
[H]c1c([H])c([H])c2c(c1[H])C([H])([H])C([H])([H])C([H])([H])C2([H])N([H])C(=O)C1([H])N(C(=O)C([H])(N([H])C(=O)C([H])(N([H])C([H])([H])[H])C([H])([H])[H])C(C([H])([H])[H])(C([H])([H])[H])C([H])([H])[H])C([H])([H])c2c([H])c(OC([H])([H])C([H])([H])[N+]([H])([H])C([H])([H])C([H])([H])OC([H])([H])C([H])([H])N([H])C(=O)N3C([H])([H])C([H])([H])C([H])([H])C([H])(n4nc(-c5c([H])c([H])c(Oc6c([H])c([H])c(F)c([H])c6F)c([H])c5[H])c(C(=O)N([H])[H])c4N([H])[H])C3([H])[H])c([H])c([H])c2C1([H])[H]

>  <smiles>  (88) 
[H]c1c([H])c([H])c2c(c1[H])C([H])([H])C([H])([H])C([H])([H])C2([H])N([H])C(=O)C1([H])N(C(=O)C([H])(N([H])C(=O)C([H])(N([H])C([H])([H])[H])C([H])([H])[H])C(C([H])([H])[H])(C([H])([H])[H])C([H])([H])[H])C([H])([H])c2c([H])c(OC([H])([H])C([H])([H])[N+]([H])([H])C([H])([H])C([H])([H])OC([H])([H])C([H])([H])N([H])C(=O)N3C([H])([H])C([H])([H])C([H])([H])C([H])(n4nc(-c5c([H])c([H])c(Oc6c([H])c([H])c(F)c([H])c6F)c([H])c5[H])c(C(=O)N([H])[H])c4N([H])[H])C3([H])[H])c([H])c([H])c2C1([H])[H]

$$$$
95:0:0
     RDKit          3D

108116  0  0  1  0  0  0  0  0999 V2000
  -29.6540  -29.6840   22.6430 C   0  0  0  0  0  3  0  0  0  0  0  0
  -30.2870  -28.7140   21.8470 C   0  0  0  0  0  3  0  0  0  0  0  0
  -29.9510  -29.7740   24.0170 C   0  0  0  0  0  3  0  0  0  0  0  0
  -31.4940  -27.9020   23.8070 C   0  0  0  0  0  3  0  0  0  0  0  0
  -31.2210  -27.8280   22.4250 C   0  0  0  0  0  0  0  0  0  0  0  0
  -30.8590  -28.8760   24.6150 C   0  0  0  0  0  0  0  0  0  0  0  0
  -31.0760  -29.0170   25.9670 O   0  0  0  0  0  0  0  0  0  0  0  0
  -30.1180  -29.7500   26.7230 C   0  0  0  0  0  2  0  0  0  0  0  0
  -30.7590  -31.0710   27.1660 C   0  0  0  0  0  2  0  0  0  0  0  0
  -29.7130  -32.1740   27.3960 C   0  0  0  0  0  2  0  0  0  0  0  0
  -28.4740  -31.9310   26.6280 N   0  0  0  0  0  4  0  0  0  0  0  0
  -28.7190  -31.4790   25.7630 H   0  0  0  0  0  0  0  0  0  0  0  0
  -27.8790  -31.3050   27.1470 H   0  0  0  0  0  0  0  0  0  0  0  0
  -27.7160  -33.1640   26.3340 C   0  0  0  0  0  2  0  0  0  0  0  0
  -28.6320  -34.3110   25.8680 C   0  0  0  0  0  2  0  0  0  0  0  0
  -28.5030  -34.6560   24.3700 C   0  0  0  0  0  2  0  0  0  0  0  0
  -29.9400  -35.6340   22.5850 C   0  0  0  0  0  0  0  0  0  0  0  0
  -31.2270  -35.7910   22.2700 N   0  0  0  0  0  0  0  0  0  0  0  0
  -29.7770  -35.0600   23.7790 N   0  0  0  0  0  0  0  0  0  0  0  0
  -29.0080  -35.9670   21.8540 O   0  0  0  0  0  0  0  0  0  0  0  0
  -31.9210  -35.4470   22.9200 H   0  0  0  0  0  0  0  0  0  0  0  0
  -30.6040  -34.8860   24.3340 H   0  0  0  0  0  0  0  0  0  0  0  0
  -31.7350  -36.4460   21.0640 C   0  0  0  0  0  2  0  0  0  0  0  0
  -33.1970  -36.0320   20.8030 C   0  0  0  0  0  2  0  0  0  0  0  0
  -33.8700  -36.7520   19.6230 C   0  0  0  0  0  0  0  0  0  0  0  0
  -35.0940  -36.5810   17.4790 C   0  0  0  0  0  2  0  0  0  0  0  0
  -34.1360  -36.4860   16.2780 C   0  0  0  0  0  2  0  0  0  0  0  0
  -33.7020  -35.0280   16.0350 C   0  0  0  0  0  2  0  0  0  0  0  0
  -33.2040  -34.3340   17.3290 C   0  0  0  0  0  3  0  0  0  0  0  0
  -34.2130  -34.5440   18.4780 C   0  0  0  0  0  2  0  0  0  0  0  0
  -34.4250  -35.9920   18.6450 N   0  0  0  0  0  0  0  0  0  0  0  0
  -33.9030  -37.9880   19.6050 O   0  0  0  0  0  0  0  0  0  0  0  0
  -31.7890  -32.3050   16.6070 C   0  0  0  0  0  0  0  0  0  0  0  0
  -32.0800  -30.9690   16.5280 C   0  0  0  0  0  0  0  0  0  0  0  0
  -33.4250  -30.8320   16.9860 C   0  0  0  0  0  0  0  0  0  0  0  0
  -32.9290  -32.9150   17.1030 N   0  0  0  0  0  0  0  0  0  0  0  0
  -33.9010  -32.0080   17.3770 N   0  0  0  0  0  0  0  0  0  0  0  0
  -34.3110  -29.6590   17.0210 C   0  0  0  0  0  0  0  0  0  0  0  0
  -34.6440  -29.0230   18.2370 C   0  0  0  0  0  3  0  0  0  0  0  0
  -35.4810  -27.8870   18.2430 C   0  0  0  0  0  3  0  0  0  0  0  0
  -35.9920  -27.3750   17.0270 C   0  0  0  0  0  0  0  0  0  0  0  0
  -35.6740  -28.0260   15.8210 C   0  0  0  0  0  3  0  0  0  0  0  0
  -34.8450  -29.1600   15.8170 C   0  0  0  0  0  3  0  0  0  0  0  0
  -36.8330  -26.2930   16.9380 O   0  0  0  0  0  0  0  0  0  0  0  0
  -36.4450  -25.0440   17.3550 C   0  0  0  0  0  0  0  0  0  0  0  0
  -35.1120  -24.5970   17.2290 C   0  0  0  0  0  3  0  0  0  0  0  0
  -34.7720  -23.2830   17.6050 C   0  0  0  0  0  3  0  0  0  0  0  0
  -35.7620  -22.4110   18.0990 C   0  0  0  0  0  0  0  0  0  0  0  0
  -37.0910  -22.8540   18.2190 C   0  0  0  0  0  3  0  0  0  0  0  0
  -37.4320  -24.1650   17.8450 C   0  0  0  0  0  0  0  0  0  0  0  0
  -38.7180  -24.5790   17.9440 F   0  0  0  0  0  0  0  0  0  0  0  0
  -35.4370  -21.1460   18.4520 F   0  0  0  0  0  0  0  0  0  0  0  0
  -31.1960  -29.8890   15.9730 C   0  0  0  0  0  0  0  0  0  0  0  0
  -31.1020  -28.7590   16.6640 N   0  0  0  0  0  0  0  0  0  0  0  0
  -30.5450  -30.0620   14.9430 O   0  0  0  0  0  0  0  0  0  0  0  0
  -31.6220  -28.6230   17.5180 H   0  0  0  0  0  0  0  0  0  0  0  0
  -30.5020  -28.0160   16.3320 H   0  0  0  0  0  0  0  0  0  0  0  0
  -30.6590  -33.0510   16.2830 N   0  0  0  0  0  0  0  0  0  0  0  0
  -29.8320  -32.6340   15.8700 H   0  0  0  0  0  0  0  0  0  0  0  0
  -30.5970  -34.0580   16.3630 H   0  0  0  0  0  0  0  0  0  0  0  0
  -31.9260  -26.7900   21.5700 C   0  0  0  0  0  2  0  0  0  0  0  0
  -33.2530  -27.2900   21.1690 N   0  0  0  0  0  4  0  0  0  0  0  0
  -33.1130  -28.1490   20.6590 H   0  0  0  0  0  0  0  0  0  0  0  0
  -33.6370  -26.6120   20.5290 H   0  0  0  0  0  0  0  0  0  0  0  0
  -34.1890  -27.5080   22.2950 C   0  0  0  0  0  2  0  0  0  0  0  0
  -35.4820  -28.2440   21.8880 C   0  0  0  0  0  2  0  0  0  0  0  0
  -36.7210  -27.8080   22.6870 C   0  0  0  0  0  2  0  0  0  0  0  0
  -37.4840  -26.8570   21.9490 O   0  0  0  0  0  0  0  0  0  0  0  0
  -40.1370  -20.7330   24.5350 C   0  0  0  0  0  0  0  0  0  0  0  0
  -37.3510  -25.5110   22.2070 C   0  0  0  0  0  0  0  0  0  0  0  0
  -38.1060  -20.5490   23.1250 C   0  0  0  0  0  3  0  0  0  0  0  0
  -36.9210  -22.7430   22.5970 C   0  0  0  0  0  0  0  0  0  0  0  0
  -38.5720  -22.6650   24.4760 C   0  0  0  0  0  2  0  0  0  0  0  0
  -37.8400  -23.4330   23.3980 C   0  0  0  0  0  0  0  0  0  0  0  0
  -38.0650  -24.8110   23.2060 C   0  0  0  0  0  3  0  0  0  0  0  0
  -36.4210  -24.8060   21.4150 C   0  0  0  0  0  3  0  0  0  0  0  0
  -36.2020  -23.4270   21.6010 C   0  0  0  0  0  3  0  0  0  0  0  0
  -36.7520  -21.2660   22.8750 C   0  0  0  0  0  2  0  0  0  0  0  0
  -39.0020  -21.3130   24.0530 N   0  0  0  0  0  0  0  0  0  0  0  0
  -40.4220  -19.5630   24.2530 O   0  0  0  0  0  0  0  0  0  0  0  0
  -38.7650  -20.2310   21.7630 C   0  0  0  0  0  0  0  0  0  0  0  0
  -38.5170  -19.0140   21.2510 N   0  0  0  0  0  0  0  0  0  0  0  0
  -39.4560  -21.0730   21.1840 O   0  0  0  0  0  0  0  0  0  0  0  0
  -37.9500  -18.3800   21.7980 H   0  0  0  0  0  0  0  0  0  0  0  0
  -38.6460  -16.0830   19.1450 C   0  0  0  0  0  0  0  0  0  0  0  0
  -38.9960  -18.5090   19.9660 C   0  0  0  0  0  3  0  0  0  0  0  0
  -38.0540  -18.9260   18.8150 C   0  0  0  0  0  2  0  0  0  0  0  0
  -36.9800  -17.8790   18.5040 C   0  0  0  0  0  2  0  0  0  0  0  0
  -37.6300  -16.5480   18.1130 C   0  0  0  0  0  2  0  0  0  0  0  0
  -39.2760  -17.0030   20.0250 C   0  0  0  0  0  0  0  0  0  0  0  0
  -40.1870  -16.5140   20.9880 C   0  0  0  0  0  3  0  0  0  0  0  0
  -40.4700  -15.1380   21.0800 C   0  0  0  0  0  3  0  0  0  0  0  0
  -39.8580  -14.2340   20.1970 C   0  0  0  0  0  3  0  0  0  0  0  0
  -38.9530  -14.7080   19.2300 C   0  0  0  0  0  3  0  0  0  0  0  0
  -41.1170  -21.5000   25.4750 C   0  0  0  0  0  3  0  0  0  0  0  0
  -41.7320  -20.5140   26.3750 N   0  0  0  0  0  0  0  0  0  0  0  0
  -41.9690  -20.7180   27.6770 C   0  0  0  0  0  0  0  0  0  0  0  0
  -41.7620  -21.8000   28.2340 O   0  0  0  0  0  0  0  0  0  0  0  0
  -41.8870  -19.5910   25.9980 H   0  0  0  0  0  0  0  0  0  0  0  0
  -41.4920  -19.0960   29.5380 C   0  0  0  0  0  1  0  0  0  0  0  0
  -42.5290  -19.5350   28.4920 C   0  0  0  0  0  3  0  0  0  0  0  0
  -44.9300  -19.9780   28.2340 C   0  0  0  0  0  1  0  0  0  0  0  0
  -43.8120  -19.8360   29.1620 N   0  0  0  0  0  0  0  0  0  0  0  0
  -44.0460  -19.1060   29.8290 H   0  0  0  0  0  0  0  0  0  0  0  0
  -42.2220  -22.3130   24.6930 C   0  0  1  0  0  0  0  0  0  0  0  0
  -41.8930  -22.5290   23.1980 C   0  0  0  0  0  1  0  0  0  0  0  0
  -42.4170  -23.7060   25.3390 C   0  0  0  0  0  1  0  0  0  0  0  0
  -43.5800  -21.5800   24.7800 C   0  0  0  0  0  1  0  0  0  0  0  0
  1  3  1  0
  2  5  1  0
  2  1  2  0
  3  6  2  0
  4  6  1  0
  5  4  2  0
  6  7  1  0
  7  8  1  0
  8  9  1  0
  9 10  1  0
 11 13  1  0
 11 10  1  0
 12 11  1  0
 14 11  1  0
 15 14  1  0
 16 15  1  0
 17 19  1  0
 18 17  1  0
 18 21  1  0
 19 22  1  0
 19 16  1  0
 20 17  2  0
 23 18  1  0
 24 23  1  0
 25 24  1  0
 26 31  1  0
 27 26  1  0
 28 27  1  0
 29 28  1  0
 29 30  1  0
 30 31  1  0
 31 25  1  0
 32 25  2  0
 33 36  1  0
 34 33  2  0
 34 35  1  0
 35 38  1  0
 35 37  2  0
 36 29  1  0
 36 37  1  0
 38 39  1  0
 39 40  2  0
 41 40  1  0
 42 41  2  0
 43 42  1  0
 43 38  2  0
 44 41  1  0
 44 45  1  0
 45 50  1  0
 46 45  2  0
 46 47  1  0
 47 48  2  0
 48 49  1  0
 48 52  1  0
 50 51  1  0
 50 49  2  0
 53 34  1  0
 53 54  1  0
 54 56  1  0
 55 53  2  0
 57 54  1  0
 58 60  1  0
 58 33  1  0
 59 58  1  0
 61  5  1  0
 62 61  1  0
 62 65  1  0
 63 62  1  0
 64 62  1  0
 66 65  1  0
 66 67  1  0
 68 70  1  0
 68 67  1  0
 70 75  1  0
 71 81  1  0
 71 79  1  0
 72 78  1  0
 72 74  1  0
 74 73  1  0
 75 74  2  0
 76 77  1  0
 76 70  2  0
 77 72  2  0
 78 71  1  0
 79 73  1  0
 79 69  1  0
 80 69  2  0
 82 81  1  0
 82 84  1  0
 83 81  2  0
 85 94  2  0
 85 90  1  0
 86 90  1  0
 86 82  1  0
 87 86  1  0
 88 87  1  0
 89 88  1  0
 89 85  1  0
 90 91  2  0
 91 92  1  0
 93 92  2  0
 94 93  1  0
 95 69  1  0
 95 96  1  0
 96 97  1  0
 97 98  2  0
 97101  1  0
 99 96  1  0
101103  1  0
101100  1  0
102103  1  0
103104  1  0
105108  1  6
105107  1  0
105 95  1  0
106105  1  0
M  ISO  4  24 100  25 100  67 101  68 101
M  END
>  <TORSDO>  (89) 
F 32

>  <SCORE>  (89) 
-4.667

>  <name>  (89) 
95

>  <ligand_id>  (89) 
95

>  <original_smiles>  (89) 
[H]c1c([H])c([H])c2c(c1[H])C([H])([H])C([H])([H])C([H])([H])C2([H])N([H])C(=O)C1([H])N(C(=O)C([H])(N([H])C(=O)C([H])(N([H])C([H])([H])[H])C([H])([H])[H])C(C([H])([H])[H])(C([H])([H])[H])C([H])([H])[H])C([H])([H])c2c([H])c(OC([H])([H])C([H])([H])C([H])([H])[N+]([H])([H])C([H])([H])c3c([H])c([H])c([H])c(OC([H])([H])C([H])([H])C([H])([H])[N+]([H])([H])C([H])([H])C([H])([H])C([H])([H])N([H])C(=O)N([H])C([H])([H])C([H])([H])C(=O)N4C([H])([H])C([H])([H])C([H])([H])C([H])(n5nc(-c6c([H])c([H])c(Oc7c([H])c([H])c(F)c([H])c7F)c([H])c6[H])c(C(=O)N([H])[H])c5N([H])[H])C4([H])[H])c3[H])c([H])c([H])c2C1([H])[H]

>  <smiles>  (89) 
[H]c1c([H])c([H])c2c(c1[H])C([H])([H])C([H])([H])C([H])([H])C2([H])N([H])C(=O)C1([H])N(C(=O)C([H])(N([H])C(=O)C([H])(N([H])C([H])([H])[H])C([H])([H])[H])C(C([H])([H])[H])(C([H])([H])[H])C([H])([H])[H])C([H])([H])c2c([H])c(OC([H])([H])C([H])([H])C([H])([H])[N+]([H])([H])C([H])([H])c3c([H])c([H])c([H])c(OC([H])([H])C([H])([H])C([H])([H])[N+]([H])([H])C([H])([H])C([H])([H])C([H])([H])N([H])C(=O)N([H])C([H])([H])C([H])([H])C(=O)N4C([H])([H])C([H])([H])C([H])([H])C([H])(n5nc(-c6c([H])c([H])c(Oc7c([H])c([H])c(F)c([H])c7F)c([H])c6[H])c(C(=O)N([H])[H])c5N([H])[H])C4([H])[H])c3[H])c([H])c([H])c2C1([H])[H]

$$$$
96:0:0
     RDKit          3D

 92100  0  0  1  0  0  0  0  0999 V2000
  -29.7460  -17.6580   20.4100 C   0  0  0  0  0  0  0  0  0  0  0  0
  -29.4880  -19.8620   19.2910 C   0  0  0  0  0  2  0  0  0  0  0  0
  -30.9480  -19.7070   21.2440 C   0  0  0  0  0  2  0  0  0  0  0  0
  -28.8350  -21.1430   19.8610 C   0  0  0  0  0  2  0  0  0  0  0  0
  -30.3010  -20.9850   21.8260 C   0  0  0  0  0  2  0  0  0  0  0  0
  -30.0200  -18.9910   20.3540 N   0  0  0  0  0  0  0  0  0  0  0  0
  -29.7440  -21.8830   20.7760 N   0  0  2  0  0  4  0  0  0  0  0  0
  -28.9500  -17.1230   19.6310 O   0  0  0  0  0  0  0  0  0  0  0  0
  -30.5350  -22.1870   20.2280 H   0  0  0  0  0  0  0  0  0  0  0  0
  -30.4330  -16.7670   21.4700 C   0  0  0  0  0  2  0  0  0  0  0  0
  -30.6810  -14.4420   20.5660 C   0  0  0  0  0  0  0  0  0  0  0  0
  -30.3610  -12.3390   19.3150 C   0  0  0  0  0  2  0  0  0  0  0  0
  -29.4170  -12.5850   18.1210 C   0  0  0  0  0  2  0  0  0  0  0  0
  -27.9430  -12.4500   18.5460 C   0  0  0  0  0  2  0  0  0  0  0  0
  -27.6150  -13.2550   19.8310 C   0  0  0  0  0  3  0  0  0  0  0  0
  -28.6630  -12.9740   20.9310 C   0  0  0  0  0  2  0  0  0  0  0  0
  -29.9970  -13.2820   20.3820 N   0  0  0  0  0  0  0  0  0  0  0  0
  -31.7530  -14.6930   20.0080 O   0  0  0  0  0  0  0  0  0  0  0  0
  -30.0700  -15.3470   21.3440 N   0  0  0  0  0  0  0  0  0  0  0  0
  -29.1850  -15.0710   21.7400 H   0  0  0  0  0  0  0  0  0  0  0  0
  -25.2110  -13.8720   20.5160 C   0  0  0  0  0  0  0  0  0  0  0  0
  -24.1390  -13.1030   20.8820 C   0  0  0  0  0  0  0  0  0  0  0  0
  -24.5970  -11.7510   20.8610 C   0  0  0  0  0  0  0  0  0  0  0  0
  -26.2560  -12.9880   20.2990 N   0  0  0  0  0  0  0  0  0  0  0  0
  -25.8890  -11.7070   20.5600 N   0  0  0  0  0  0  0  0  0  0  0  0
  -23.8680  -10.4890   21.0540 C   0  0  0  0  0  0  0  0  0  0  0  0
  -24.3040   -9.5190   21.9830 C   0  0  0  0  0  3  0  0  0  0  0  0
  -23.5770   -8.3240   22.1630 C   0  0  0  0  0  3  0  0  0  0  0  0
  -22.4000   -8.0890   21.4130 C   0  0  0  0  0  0  0  0  0  0  0  0
  -21.9840   -9.0470   20.4730 C   0  0  0  0  0  3  0  0  0  0  0  0
  -22.7120  -10.2350   20.2910 C   0  0  0  0  0  3  0  0  0  0  0  0
  -21.6440   -6.9440   21.5020 O   0  0  0  0  0  0  0  0  0  0  0  0
  -21.6080   -6.1930   22.6490 C   0  0  0  0  0  0  0  0  0  0  0  0
  -21.2120   -6.7420   23.8880 C   0  0  0  0  0  3  0  0  0  0  0  0
  -21.1230   -5.9180   25.0270 C   0  0  0  0  0  3  0  0  0  0  0  0
  -21.4190   -4.5450   24.9290 C   0  0  0  0  0  0  0  0  0  0  0  0
  -21.8080   -3.9950   23.6950 C   0  0  0  0  0  3  0  0  0  0  0  0
  -21.8990   -4.8170   22.5580 C   0  0  0  0  0  0  0  0  0  0  0  0
  -22.2540   -4.2780   21.3660 F   0  0  0  0  0  0  0  0  0  0  0  0
  -21.3260   -3.7500   26.0210 F   0  0  0  0  0  0  0  0  0  0  0  0
  -22.7400  -13.5830   21.1460 C   0  0  0  0  0  0  0  0  0  0  0  0
  -22.0070  -12.8910   22.0120 N   0  0  0  0  0  0  0  0  0  0  0  0
  -22.3050  -14.6070   20.6200 O   0  0  0  0  0  0  0  0  0  0  0  0
  -22.3710  -12.0640   22.4600 H   0  0  0  0  0  0  0  0  0  0  0  0
  -21.0690  -13.1950   22.2310 H   0  0  0  0  0  0  0  0  0  0  0  0
  -25.3800  -15.2420   20.3330 N   0  0  0  0  0  0  0  0  0  0  0  0
  -24.6150  -15.9000   20.4310 H   0  0  0  0  0  0  0  0  0  0  0  0
  -26.2390  -15.6740   20.0130 H   0  0  0  0  0  0  0  0  0  0  0  0
  -29.1340  -23.1190   21.3560 C   0  0  0  0  0  2  0  0  0  0  0  0
  -29.0680  -24.3330   20.3920 C   0  0  0  0  0  2  0  0  0  0  0  0
  -28.4450  -25.5790   21.0650 C   0  0  0  0  0  2  0  0  0  0  0  0
  -28.4820  -26.7380   20.2200 O   0  0  0  0  0  0  0  0  0  0  0  0
  -24.6160  -31.9010   23.2470 C   0  0  0  0  0  0  0  0  0  0  0  0
  -27.3190  -27.4710   20.2170 C   0  0  0  0  0  0  0  0  0  0  0  0
  -23.4350  -30.4860   21.5970 C   0  0  0  0  0  3  0  0  0  0  0  0
  -24.9130  -28.9490   20.1960 C   0  0  0  0  0  0  0  0  0  0  0  0
  -25.9590  -30.8630   21.4210 C   0  0  0  0  0  2  0  0  0  0  0  0
  -26.0610  -29.4890   20.7910 C   0  0  0  0  0  0  0  0  0  0  0  0
  -27.2700  -28.7580   20.7970 C   0  0  0  0  0  3  0  0  0  0  0  0
  -26.1580  -26.9390   19.6190 C   0  0  0  0  0  3  0  0  0  0  0  0
  -24.9550  -27.6720   19.6070 C   0  0  0  0  0  3  0  0  0  0  0  0
  -23.6620  -29.7990   20.2240 C   0  0  0  0  0  2  0  0  0  0  0  0
  -24.6870  -31.0990   22.1470 N   0  0  0  0  0  0  0  0  0  0  0  0
  -23.5290  -32.1700   23.7740 O   0  0  0  0  0  0  0  0  0  0  0  0
  -22.7790  -29.4670   22.5560 C   0  0  0  0  0  0  0  0  0  0  0  0
  -21.4560  -29.2780   22.4140 N   0  0  0  0  0  0  0  0  0  0  0  0
  -23.4560  -28.8470   23.3810 O   0  0  0  0  0  0  0  0  0  0  0  0
  -20.9710  -29.8290   21.7210 H   0  0  0  0  0  0  0  0  0  0  0  0
  -18.0830  -28.0680   22.8730 C   0  0  0  0  0  0  0  0  0  0  0  0
  -20.6350  -28.3400   23.1790 C   0  0  0  0  0  3  0  0  0  0  0  0
  -20.7530  -26.9070   22.6120 C   0  0  0  0  0  2  0  0  0  0  0  0
  -19.6670  -26.5730   21.5840 C   0  0  0  0  0  2  0  0  0  0  0  0
  -18.2760  -26.7160   22.2080 C   0  0  0  0  0  2  0  0  0  0  0  0
  -19.1920  -28.8380   23.3150 C   0  0  0  0  0  0  0  0  0  0  0  0
  -18.9590  -30.1040   23.8940 C   0  0  0  0  0  3  0  0  0  0  0  0
  -17.6500  -30.6000   24.0380 C   0  0  0  0  0  3  0  0  0  0  0  0
  -16.5550  -29.8280   23.6130 C   0  0  0  0  0  3  0  0  0  0  0  0
  -16.7730  -28.5630   23.0370 C   0  0  0  0  0  3  0  0  0  0  0  0
  -25.8930  -32.5410   23.8780 C   0  0  0  0  0  3  0  0  0  0  0  0
  -26.4030  -31.7750   25.1600 C   0  0  1  0  0  0  0  0  0  0  0  0
  -25.3040  -31.5370   26.2200 C   0  0  0  0  0  1  0  0  0  0  0  0
  -26.9940  -30.3990   24.7740 C   0  0  0  0  0  1  0  0  0  0  0  0
  -27.5460  -32.5750   25.8280 C   0  0  0  0  0  1  0  0  0  0  0  0
  -25.5760  -33.9380   24.1980 N   0  0  0  0  0  0  0  0  0  0  0  0
  -25.9130  -34.9880   23.4350 C   0  0  0  0  0  0  0  0  0  0  0  0
  -26.5940  -34.8810   22.4130 O   0  0  0  0  0  0  0  0  0  0  0  0
  -24.9730  -34.0950   24.9920 H   0  0  0  0  0  0  0  0  0  0  0  0
  -24.1790  -36.7690   23.0520 C   0  0  0  0  0  1  0  0  0  0  0  0
  -25.4140  -36.3760   23.8800 C   0  0  0  0  0  3  0  0  0  0  0  0
  -27.5390  -37.2730   24.7240 C   0  0  0  0  0  1  0  0  0  0  0  0
  -26.4420  -37.4340   23.7720 N   0  0  0  0  0  0  0  0  0  0  0  0
  -26.0300  -38.3520   23.9160 H   0  0  0  0  0  0  0  0  0  0  0  0
  1 10  1  0
  2  4  1  0
  2  6  1  0
  3  5  1  0
  4  7  1  0
  6  1  1  0
  6  3  1  0
  7 49  1  0
  7  5  1  0
  8  1  2  0
  7  9  1  6
 11 19  1  0
 12 17  1  0
 13 14  1  0
 13 12  1  0
 15 14  1  0
 15 24  1  0
 15 16  1  0
 17 11  1  0
 17 16  1  0
 18 11  2  0
 19 10  1  0
 19 20  1  0
 21 22  2  0
 22 41  1  0
 23 22  1  0
 23 26  1  0
 24 21  1  0
 24 25  1  0
 25 23  2  0
 26 27  1  0
 27 28  2  0
 29 32  1  0
 29 28  1  0
 30 29  2  0
 31 30  1  0
 31 26  2  0
 32 33  1  0
 33 34  1  0
 34 35  2  0
 36 35  1  0
 36 40  1  0
 37 36  2  0
 38 33  2  0
 38 37  1  0
 39 38  1  0
 41 42  1  0
 42 45  1  0
 42 44  1  0
 43 41  2  0
 46 47  1  0
 46 21  1  0
 48 46  1  0
 50 51  1  0
 50 49  1  0
 52 51  1  0
 53 64  2  0
 54 52  1  0
 54 59  1  0
 55 63  1  0
 55 65  1  0
 56 62  1  0
 56 58  1  0
 57 63  1  0
 58 59  2  0
 58 57  1  0
 60 54  2  0
 61 60  1  0
 61 56  2  0
 62 55  1  0
 63 53  1  0
 65 67  2  0
 66 65  1  0
 68 66  1  0
 69 78  2  0
 69 74  1  0
 70 66  1  0
 70 74  1  0
 71 70  1  0
 72 73  1  0
 72 71  1  0
 73 69  1  0
 74 75  2  0
 75 76  1  0
 77 76  2  0
 78 77  1  0
 79 53  1  0
 79 84  1  0
 79 80  1  0
 80 83  1  1
 80 81  1  0
 82 80  1  0
 84 87  1  0
 85 89  1  0
 85 84  1  0
 86 85  2  0
 89 88  1  0
 91 89  1  0
 91 92  1  0
 91 90  1  0
M  ISO  4  11 100  19 100  51 101  52 101
M  END
>  <TORSDO>  (90) 
F 20

>  <SCORE>  (90) 
-14.142

>  <name>  (90) 
96

>  <ligand_id>  (90) 
96

>  <original_smiles>  (90) 
[H]c1c([H])c([H])c2c(c1[H])C([H])([H])C([H])([H])C([H])([H])C2([H])N([H])C(=O)C1([H])N(C(=O)C([H])(N([H])C(=O)C([H])(N([H])C([H])([H])[H])C([H])([H])[H])C(C([H])([H])[H])(C([H])([H])[H])C([H])([H])[H])C([H])([H])c2c([H])c(OC([H])([H])C([H])([H])C([H])([H])[N+]3([H])C([H])([H])C([H])([H])N(C(=O)C([H])([H])N([H])C(=O)N4C([H])([H])C([H])([H])C([H])([H])C([H])(n5nc(-c6c([H])c([H])c(Oc7c([H])c([H])c(F)c([H])c7F)c([H])c6[H])c(C(=O)N([H])[H])c5N([H])[H])C4([H])[H])C([H])([H])C3([H])[H])c([H])c([H])c2C1([H])[H]

>  <smiles>  (90) 
[H]c1c([H])c([H])c2c(c1[H])C([H])([H])C([H])([H])C([H])([H])C2([H])N([H])C(=O)C1([H])N(C(=O)C([H])(N([H])C(=O)C([H])(N([H])C([H])([H])[H])C([H])([H])[H])C(C([H])([H])[H])(C([H])([H])[H])C([H])([H])[H])C([H])([H])c2c([H])c(OC([H])([H])C([H])([H])C([H])([H])[N+]3([H])C([H])([H])C([H])([H])N(C(=O)C([H])([H])N([H])C(=O)N4C([H])([H])C([H])([H])C([H])([H])C([H])(n5nc(-c6c([H])c([H])c(Oc7c([H])c([H])c(F)c([H])c7F)c([H])c6[H])c(C(=O)N([H])[H])c5N([H])[H])C4([H])[H])C([H])([H])C3([H])[H])c([H])c([H])c2C1([H])[H]

$$$$
97:0:0
     RDKit          3D

 83 90  0  0  1  0  0  0  0  0999 V2000
  -27.9490  -23.9120   20.2000 C   0  0  0  0  0  3  0  0  0  0  0  0
  -28.1500  -25.6420   20.2980 O   0  0  0  0  0  0  0  0  0  0  0  0
  -24.6720  -31.8880   23.2420 C   0  0  0  0  0  0  0  0  0  0  0  0
  -27.1710  -26.8340   20.2470 C   0  0  0  0  0  0  0  0  0  0  0  0
  -23.4710  -30.4970   21.6080 C   0  0  0  0  0  3  0  0  0  0  0  0
  -24.9060  -28.8480   20.1930 C   0  0  0  0  0  0  0  0  0  0  0  0
  -26.0490  -30.6390   21.4750 C   0  0  0  0  0  2  0  0  0  0  0  0
  -26.1040  -29.2100   20.8200 C   0  0  0  0  0  0  0  0  0  0  0  0
  -27.2230  -28.2300   20.8150 C   0  0  0  0  0  3  0  0  0  0  0  0
  -25.9390  -26.6690   19.5680 C   0  0  0  0  0  3  0  0  0  0  0  0
  -24.8600  -27.6020   19.5430 C   0  0  0  0  0  3  0  0  0  0  0  0
  -23.7020  -29.8000   20.2370 C   0  0  0  0  0  2  0  0  0  0  0  0
  -24.7550  -31.0400   22.1610 N   0  0  0  0  0  0  0  0  0  0  0  0
  -23.5830  -32.1920   23.7560 O   0  0  0  0  0  0  0  0  0  0  0  0
  -22.7560  -29.5220   22.5800 C   0  0  0  0  0  0  0  0  0  0  0  0
  -21.4230  -29.3690   22.4550 N   0  0  0  0  0  0  0  0  0  0  0  0
  -23.4110  -28.8980   23.4200 O   0  0  0  0  0  0  0  0  0  0  0  0
  -20.9460  -29.9220   21.7570 H   0  0  0  0  0  0  0  0  0  0  0  0
  -18.0330  -28.1690   22.9680 C   0  0  0  0  0  0  0  0  0  0  0  0
  -20.5930  -28.4390   23.2300 C   0  0  0  0  0  3  0  0  0  0  0  0
  -20.6940  -27.0020   22.6640 C   0  0  0  0  0  2  0  0  0  0  0  0
  -19.5940  -26.6750   21.6500 C   0  0  0  0  0  2  0  0  0  0  0  0
  -18.2110  -26.8200   22.2910 C   0  0  0  0  0  2  0  0  0  0  0  0
  -19.1500  -28.9350   23.3940 C   0  0  0  0  0  0  0  0  0  0  0  0
  -18.9270  -30.1950   23.9910 C   0  0  0  0  0  3  0  0  0  0  0  0
  -17.6200  -30.6890   24.1620 C   0  0  0  0  0  3  0  0  0  0  0  0
  -16.5170  -29.9210   23.7490 C   0  0  0  0  0  3  0  0  0  0  0  0
  -16.7250  -28.6620   23.1580 C   0  0  0  0  0  3  0  0  0  0  0  0
  -25.9420  -32.5310   23.8780 C   0  0  0  0  0  3  0  0  0  0  0  0
  -26.4400  -31.7670   25.1680 C   0  0  1  0  0  0  0  0  0  0  0  0
  -25.3350  -31.5460   26.2290 C   0  0  0  0  0  1  0  0  0  0  0  0
  -27.0170  -30.3800   24.8050 C   0  0  0  0  0  1  0  0  0  0  0  0
  -27.5910  -32.5580   25.8350 C   0  0  0  0  0  1  0  0  0  0  0  0
  -25.6270  -33.9320   24.2180 N   0  0  0  0  0  0  0  0  0  0  0  0
  -25.9330  -34.9970   23.4640 C   0  0  0  0  0  0  0  0  0  0  0  0
  -26.5690  -34.9020   22.4100 O   0  0  0  0  0  0  0  0  0  0  0  0
  -25.0570  -34.0770   25.0370 H   0  0  0  0  0  0  0  0  0  0  0  0
  -24.1800  -36.7890   23.2110 C   0  0  0  0  0  1  0  0  0  0  0  0
  -25.4650  -36.3850   23.9520 C   0  0  0  0  0  3  0  0  0  0  0  0
  -27.6320  -37.2910   24.6730 C   0  0  0  0  0  1  0  0  0  0  0  0
  -26.4840  -37.4450   23.7830 N   0  0  0  0  0  0  0  0  0  0  0  0
  -26.0790  -38.3630   23.9460 H   0  0  0  0  0  0  0  0  0  0  0  0
  -28.9470  -22.2690   20.2790 C   0  0  0  0  0  3  0  0  0  0  0  0
  -28.7110  -20.3580   20.2370 C   0  0  0  0  0  3  0  0  0  0  0  0
  -29.7530  -18.7430   20.2450 C   0  0  0  0  0  3  0  0  0  0  0  0
  -30.2820  -15.6460   20.1480 C   0  0  0  0  0  0  0  0  0  0  0  0
  -30.3500  -13.1330   19.2860 C   0  0  0  0  0  2  0  0  0  0  0  0
  -29.4300  -12.7740   18.0850 C   0  0  0  0  0  2  0  0  0  0  0  0
  -28.0130  -12.4240   18.5630 C   0  0  0  0  0  2  0  0  0  0  0  0
  -27.5300  -13.4030   19.6600 C   0  0  0  0  0  3  0  0  0  0  0  0
  -28.5860  -13.6800   20.7550 C   0  0  0  0  0  2  0  0  0  0  0  0
  -29.7510  -14.2930   20.0790 N   0  0  0  0  0  0  0  0  0  0  0  0
  -31.5110  -15.5990   19.9480 O   0  0  0  0  0  0  0  0  0  0  0  0
  -29.5270  -16.9940   20.2480 N   0  0  0  0  0  0  0  0  0  0  0  0
  -28.5450  -16.7820   20.3500 H   0  0  0  0  0  0  0  0  0  0  0  0
  -25.1770  -13.9060   20.4730 C   0  0  0  0  0  0  0  0  0  0  0  0
  -24.1340  -13.1120   20.8550 C   0  0  0  0  0  0  0  0  0  0  0  0
  -24.6200  -11.7680   20.8040 C   0  0  0  0  0  0  0  0  0  0  0  0
  -26.2270  -13.0500   20.2020 N   0  0  0  0  0  0  0  0  0  0  0  0
  -25.9070  -11.7560   20.4690 N   0  0  0  0  0  0  0  0  0  0  0  0
  -23.9110  -10.4960   20.9970 C   0  0  0  0  0  0  0  0  0  0  0  0
  -24.3510   -9.5380   21.9370 C   0  0  0  0  0  3  0  0  0  0  0  0
  -23.6360   -8.3340   22.1190 C   0  0  0  0  0  3  0  0  0  0  0  0
  -22.4690   -8.0770   21.3610 C   0  0  0  0  0  0  0  0  0  0  0  0
  -22.0480   -9.0240   20.4100 C   0  0  0  0  0  3  0  0  0  0  0  0
  -22.7630  -10.2200   20.2260 C   0  0  0  0  0  3  0  0  0  0  0  0
  -21.7270   -6.9240   21.4530 O   0  0  0  0  0  0  0  0  0  0  0  0
  -21.6590   -6.2030   22.6170 C   0  0  0  0  0  0  0  0  0  0  0  0
  -21.1670   -6.7650   23.8150 C   0  0  0  0  0  3  0  0  0  0  0  0
  -21.0490   -5.9670   24.9700 C   0  0  0  0  0  3  0  0  0  0  0  0
  -21.4130   -4.6090   24.9290 C   0  0  0  0  0  0  0  0  0  0  0  0
  -21.8990   -4.0450   23.7360 C   0  0  0  0  0  3  0  0  0  0  0  0
  -22.0180   -4.8400   22.5820 C   0  0  0  0  0  0  0  0  0  0  0  0
  -22.4660   -4.2870   21.4300 F   0  0  0  0  0  0  0  0  0  0  0  0
  -21.2940   -3.8400   26.0380 F   0  0  0  0  0  0  0  0  0  0  0  0
  -22.7360  -13.5700   21.1460 C   0  0  0  0  0  0  0  0  0  0  0  0
  -22.0320  -12.8660   22.0240 N   0  0  0  0  0  0  0  0  0  0  0  0
  -22.2780  -14.5880   20.6300 O   0  0  0  0  0  0  0  0  0  0  0  0
  -22.4170  -12.0420   22.4630 H   0  0  0  0  0  0  0  0  0  0  0  0
  -21.0930  -13.1550   22.2630 H   0  0  0  0  0  0  0  0  0  0  0  0
  -25.3150  -15.2810   20.3020 N   0  0  0  0  0  0  0  0  0  0  0  0
  -24.5370  -15.9190   20.4270 H   0  0  0  0  0  0  0  0  0  0  0  0
  -26.1390  -15.7310   19.9280 H   0  0  0  0  0  0  0  0  0  0  0  0
  1 43  2  0
  1  2  1  0
  3 14  2  0
  4  2  1  0
  4  9  1  0
  5 13  1  0
  5 15  1  0
  6 12  1  0
  6  8  1  0
  7 13  1  0
  8  7  1  0
  9  8  2  0
 10  4  2  0
 11 10  1  0
 11  6  2  0
 12  5  1  0
 13  3  1  0
 15 17  2  0
 16 15  1  0
 18 16  1  0
 19 28  2  0
 19 24  1  0
 20 16  1  0
 20 24  1  0
 21 20  1  0
 22 23  1  0
 22 21  1  0
 23 19  1  0
 24 25  2  0
 25 26  1  0
 27 26  2  0
 28 27  1  0
 29  3  1  0
 29 34  1  0
 29 30  1  0
 30 33  1  1
 30 31  1  0
 32 30  1  0
 34 37  1  0
 35 39  1  0
 35 34  1  0
 36 35  2  0
 39 38  1  0
 41 42  1  0
 41 39  1  0
 41 40  1  0
 44 45  2  0
 44 43  1  0
 45 54  1  0
 46 54  1  0
 47 52  1  0
 48 49  1  0
 48 47  1  0
 50 49  1  0
 50 59  1  0
 50 51  1  0
 52 46  1  0
 52 51  1  0
 53 46  2  0
 54 55  1  0
 56 57  2  0
 57 76  1  0
 58 57  1  0
 58 61  1  0
 59 60  1  0
 59 56  1  0
 60 58  2  0
 61 62  1  0
 62 63  2  0
 64 67  1  0
 64 63  1  0
 65 64  2  0
 66 65  1  0
 66 61  2  0
 67 68  1  0
 68 69  1  0
 69 70  2  0
 71 70  1  0
 71 75  1  0
 72 71  2  0
 73 68  2  0
 73 72  1  0
 74 73  1  0
 76 77  1  0
 77 80  1  0
 77 79  1  0
 78 76  2  0
 81 82  1  0
 81 56  1  0
 83 81  1  0
M  ISO  4   1 101   2 101  46 100  54 100
M  END
>  <TORSDO>  (91) 
F 19

>  <SCORE>  (91) 
-16.287

>  <name>  (91) 
97

>  <ligand_id>  (91) 
97

>  <original_smiles>  (91) 
[H]c1c([H])c([H])c2c(c1[H])C([H])([H])C([H])([H])C([H])([H])C2([H])N([H])C(=O)C1([H])N(C(=O)C([H])(N([H])C(=O)C([H])(N([H])C([H])([H])[H])C([H])([H])[H])C(C([H])([H])[H])(C([H])([H])[H])C([H])([H])[H])C([H])([H])c2c([H])c(OC([H])([H])C([H])([H])C([H])([H])C([H])([H])N([H])C(=O)N3C([H])([H])C([H])([H])C([H])([H])C([H])(n4nc(-c5c([H])c([H])c(Oc6c([H])c([H])c(F)c([H])c6F)c([H])c5[H])c(C(=O)N([H])[H])c4N([H])[H])C3([H])[H])c([H])c([H])c2C1([H])[H]

>  <smiles>  (91) 
[H]c1c([H])c([H])c2c(c1[H])C([H])([H])C([H])([H])C([H])([H])C2([H])N([H])C(=O)C1([H])N(C(=O)C([H])(N([H])C(=O)C([H])(N([H])C([H])([H])[H])C([H])([H])[H])C(C([H])([H])[H])(C([H])([H])[H])C([H])([H])[H])C([H])([H])c2c([H])c(OC([H])([H])C([H])([H])C([H])([H])C([H])([H])N([H])C(=O)N3C([H])([H])C([H])([H])C([H])([H])C([H])(n4nc(-c5c([H])c([H])c(Oc6c([H])c([H])c(F)c([H])c6F)c([H])c5[H])c(C(=O)N([H])[H])c4N([H])[H])C3([H])[H])c([H])c([H])c2C1([H])[H]

$$$$
98:0:0
     RDKit          3D

 84 91  0  0  1  0  0  0  0  0999 V2000
  -28.0360  -24.2690   20.5090 C   0  0  0  0  0  2  0  0  0  0  0  0
  -28.2220  -25.8810   20.2090 O   0  0  0  0  0  0  0  0  0  0  0  0
  -24.6160  -31.8370   23.1800 C   0  0  0  0  0  0  0  0  0  0  0  0
  -27.1870  -26.9520   20.2070 C   0  0  0  0  0  0  0  0  0  0  0  0
  -23.4240  -30.4230   21.5540 C   0  0  0  0  0  3  0  0  0  0  0  0
  -24.8760  -28.8110   20.1480 C   0  0  0  0  0  0  0  0  0  0  0  0
  -25.9900  -30.6480   21.3990 C   0  0  0  0  0  2  0  0  0  0  0  0
  -26.0650  -29.2330   20.7580 C   0  0  0  0  0  0  0  0  0  0  0  0
  -27.2180  -28.3250   20.7560 C   0  0  0  0  0  3  0  0  0  0  0  0
  -25.9650  -26.6750   19.5560 C   0  0  0  0  0  3  0  0  0  0  0  0
  -24.8500  -27.5530   19.5260 C   0  0  0  0  0  3  0  0  0  0  0  0
  -23.6540  -29.7270   20.1840 C   0  0  0  0  0  2  0  0  0  0  0  0
  -24.6980  -30.9970   22.0980 N   0  0  0  0  0  0  0  0  0  0  0  0
  -23.5260  -32.1260   23.7010 O   0  0  0  0  0  0  0  0  0  0  0  0
  -22.7360  -29.4330   22.5290 C   0  0  0  0  0  0  0  0  0  0  0  0
  -21.4040  -29.2710   22.4160 N   0  0  0  0  0  0  0  0  0  0  0  0
  -23.4070  -28.8080   23.3540 O   0  0  0  0  0  0  0  0  0  0  0  0
  -20.9170  -29.8260   21.7270 H   0  0  0  0  0  0  0  0  0  0  0  0
  -18.0230  -28.0690   22.9520 C   0  0  0  0  0  0  0  0  0  0  0  0
  -20.5850  -28.3390   23.1970 C   0  0  0  0  0  3  0  0  0  0  0  0
  -20.6840  -26.9040   22.6300 C   0  0  0  0  0  2  0  0  0  0  0  0
  -19.5750  -26.5740   21.6240 C   0  0  0  0  0  2  0  0  0  0  0  0
  -18.1970  -26.7180   22.2770 C   0  0  0  0  0  2  0  0  0  0  0  0
  -19.1440  -28.8370   23.3690 C   0  0  0  0  0  0  0  0  0  0  0  0
  -18.9240  -30.0980   23.9630 C   0  0  0  0  0  3  0  0  0  0  0  0
  -17.6200  -30.5940   24.1420 C   0  0  0  0  0  3  0  0  0  0  0  0
  -16.5140  -29.8250   23.7380 C   0  0  0  0  0  3  0  0  0  0  0  0
  -16.7170  -28.5640   23.1490 C   0  0  0  0  0  3  0  0  0  0  0  0
  -25.8860  -32.4890   23.8060 C   0  0  0  0  0  3  0  0  0  0  0  0
  -26.4090  -31.7230   25.0840 C   0  0  1  0  0  0  0  0  0  0  0  0
  -25.3200  -31.4800   26.1550 C   0  0  0  0  0  1  0  0  0  0  0  0
  -27.0000  -30.3470   24.6990 C   0  0  0  0  0  1  0  0  0  0  0  0
  -27.5570  -32.5240   25.7410 C   0  0  0  0  0  1  0  0  0  0  0  0
  -25.5550  -33.8830   24.1530 N   0  0  0  0  0  0  0  0  0  0  0  0
  -25.8660  -34.9530   23.4100 C   0  0  0  0  0  0  0  0  0  0  0  0
  -26.5250  -34.8730   22.3700 O   0  0  0  0  0  0  0  0  0  0  0  0
  -24.9660  -34.0180   24.9610 H   0  0  0  0  0  0  0  0  0  0  0  0
  -24.1090  -36.7340   23.1180 C   0  0  0  0  0  1  0  0  0  0  0  0
  -25.3720  -36.3320   23.8960 C   0  0  0  0  0  3  0  0  0  0  0  0
  -27.5150  -37.2360   24.6870 C   0  0  0  0  0  1  0  0  0  0  0  0
  -26.3890  -37.4000   23.7720 N   0  0  0  0  0  0  0  0  0  0  0  0
  -25.9750  -38.3130   23.9390 H   0  0  0  0  0  0  0  0  0  0  0  0
  -28.7190  -22.6990   19.9240 C   0  0  0  0  0  2  0  0  0  0  0  0
  -28.9900  -21.2170   20.5850 O   0  0  0  0  0  0  0  0  0  0  0  0
  -29.0780  -19.6810   19.9990 C   0  0  0  0  0  2  0  0  0  0  0  0
  -29.8810  -18.1670   20.5600 C   0  0  0  0  0  2  0  0  0  0  0  0
  -30.3820  -15.2640   20.2540 C   0  0  0  0  0  0  0  0  0  0  0  0
  -30.3490  -12.8260   19.3660 C   0  0  0  0  0  2  0  0  0  0  0  0
  -29.4210  -12.6110   18.1440 C   0  0  0  0  0  2  0  0  0  0  0  0
  -27.9740  -12.3490   18.5940 C   0  0  0  0  0  2  0  0  0  0  0  0
  -27.5290  -13.3180   19.7180 C   0  0  0  0  0  3  0  0  0  0  0  0
  -28.5830  -13.4670   20.8330 C   0  0  0  0  0  2  0  0  0  0  0  0
  -29.8060  -13.9670   20.1860 N   0  0  0  0  0  0  0  0  0  0  0  0
  -31.6080  -15.2630   20.0800 O   0  0  0  0  0  0  0  0  0  0  0  0
  -29.6180  -16.5330   20.3180 N   0  0  0  0  0  0  0  0  0  0  0  0
  -28.6290  -16.3280   20.3210 H   0  0  0  0  0  0  0  0  0  0  0  0
  -25.1610  -13.8840   20.4750 C   0  0  0  0  0  0  0  0  0  0  0  0
  -24.0990  -13.1090   20.8510 C   0  0  0  0  0  0  0  0  0  0  0  0
  -24.5680  -11.7590   20.8280 C   0  0  0  0  0  0  0  0  0  0  0  0
  -26.2030  -13.0060   20.2350 N   0  0  0  0  0  0  0  0  0  0  0  0
  -25.8590  -11.7220   20.5170 N   0  0  0  0  0  0  0  0  0  0  0  0
  -23.8400  -10.4970   21.0260 C   0  0  0  0  0  0  0  0  0  0  0  0
  -24.2820   -9.5240   21.9500 C   0  0  0  0  0  3  0  0  0  0  0  0
  -23.5520   -8.3310   22.1370 C   0  0  0  0  0  3  0  0  0  0  0  0
  -22.3660   -8.1010   21.4000 C   0  0  0  0  0  0  0  0  0  0  0  0
  -21.9430   -9.0620   20.4650 C   0  0  0  0  0  3  0  0  0  0  0  0
  -22.6730  -10.2470   20.2760 C   0  0  0  0  0  3  0  0  0  0  0  0
  -21.6060   -6.9600   21.4960 O   0  0  0  0  0  0  0  0  0  0  0  0
  -21.5890   -6.2020   22.6400 C   0  0  0  0  0  0  0  0  0  0  0  0
  -21.2240   -6.7480   23.8900 C   0  0  0  0  0  3  0  0  0  0  0  0
  -21.1520   -5.9180   25.0260 C   0  0  0  0  0  3  0  0  0  0  0  0
  -21.4340   -4.5440   24.9150 C   0  0  0  0  0  0  0  0  0  0  0  0
  -21.7920   -3.9970   23.6700 C   0  0  0  0  0  3  0  0  0  0  0  0
  -21.8660   -4.8250   22.5350 C   0  0  0  0  0  0  0  0  0  0  0  0
  -22.1910   -4.2890   21.3340 F   0  0  0  0  0  0  0  0  0  0  0  0
  -21.3580   -3.7440   26.0040 F   0  0  0  0  0  0  0  0  0  0  0  0
  -22.7020  -13.5880   21.1150 C   0  0  0  0  0  0  0  0  0  0  0  0
  -21.9740  -12.9020   21.9880 N   0  0  0  0  0  0  0  0  0  0  0  0
  -22.2660  -14.6070   20.5800 O   0  0  0  0  0  0  0  0  0  0  0  0
  -22.3410  -12.0790   22.4420 H   0  0  0  0  0  0  0  0  0  0  0  0
  -21.0360  -13.2060   22.2080 H   0  0  0  0  0  0  0  0  0  0  0  0
  -25.3200  -15.2530   20.2870 N   0  0  0  0  0  0  0  0  0  0  0  0
  -24.5470  -15.9020   20.3920 H   0  0  0  0  0  0  0  0  0  0  0  0
  -26.1550  -15.6900   19.9190 H   0  0  0  0  0  0  0  0  0  0  0  0
  2  1  1  0
  3 14  2  0
  4  2  1  0
  4  9  1  0
  5 13  1  0
  5 15  1  0
  6 12  1  0
  6  8  1  0
  7 13  1  0
  8  7  1  0
  9  8  2  0
 10  4  2  0
 11 10  1  0
 11  6  2  0
 12  5  1  0
 13  3  1  0
 15 17  2  0
 16 15  1  0
 18 16  1  0
 19 28  2  0
 19 24  1  0
 20 16  1  0
 20 24  1  0
 21 20  1  0
 22 23  1  0
 22 21  1  0
 23 19  1  0
 24 25  2  0
 25 26  1  0
 27 26  2  0
 28 27  1  0
 29  3  1  0
 29 34  1  0
 29 30  1  0
 30 33  1  1
 30 31  1  0
 32 30  1  0
 34 37  1  0
 35 39  1  0
 35 34  1  0
 36 35  2  0
 39 38  1  0
 41 39  1  0
 41 42  1  0
 41 40  1  0
 43  1  1  0
 43 44  1  0
 45 46  1  0
 45 44  1  0
 47 55  1  0
 48 53  1  0
 49 50  1  0
 49 48  1  0
 51 50  1  0
 51 60  1  0
 51 52  1  0
 53 47  1  0
 53 52  1  0
 54 47  2  0
 55 56  1  0
 55 46  1  0
 57 58  2  0
 58 77  1  0
 59 58  1  0
 59 62  1  0
 60 57  1  0
 60 61  1  0
 61 59  2  0
 62 63  1  0
 63 64  2  0
 65 68  1  0
 65 64  1  0
 66 65  2  0
 67 66  1  0
 67 62  2  0
 68 69  1  0
 69 70  1  0
 70 71  2  0
 72 71  1  0
 72 76  1  0
 73 72  2  0
 74 69  2  0
 74 73  1  0
 75 74  1  0
 77 78  1  0
 78 81  1  0
 78 80  1  0
 79 77  2  0
 82 83  1  0
 82 57  1  0
 84 82  1  0
M  ISO  4   1 101   2 101  47 100  55 100
M  END
>  <TORSDO>  (92) 
F 20

>  <SCORE>  (92) 
-15.761

>  <name>  (92) 
98

>  <ligand_id>  (92) 
98

>  <original_smiles>  (92) 
[H]c1c([H])c([H])c2c(c1[H])C([H])([H])C([H])([H])C([H])([H])C2([H])N([H])C(=O)C1([H])N(C(=O)C([H])(N([H])C(=O)C([H])(N([H])C([H])([H])[H])C([H])([H])[H])C(C([H])([H])[H])(C([H])([H])[H])C([H])([H])[H])C([H])([H])c2c([H])c(OC([H])([H])C([H])([H])OC([H])([H])C([H])([H])N([H])C(=O)N3C([H])([H])C([H])([H])C([H])([H])C([H])(n4nc(-c5c([H])c([H])c(Oc6c([H])c([H])c(F)c([H])c6F)c([H])c5[H])c(C(=O)N([H])[H])c4N([H])[H])C3([H])[H])c([H])c([H])c2C1([H])[H]

>  <smiles>  (92) 
[H]c1c([H])c([H])c2c(c1[H])C([H])([H])C([H])([H])C([H])([H])C2([H])N([H])C(=O)C1([H])N(C(=O)C([H])(N([H])C(=O)C([H])(N([H])C([H])([H])[H])C([H])([H])[H])C(C([H])([H])[H])(C([H])([H])[H])C([H])([H])[H])C([H])([H])c2c([H])c(OC([H])([H])C([H])([H])OC([H])([H])C([H])([H])N([H])C(=O)N3C([H])([H])C([H])([H])C([H])([H])C([H])(n4nc(-c5c([H])c([H])c(Oc6c([H])c([H])c(F)c([H])c6F)c([H])c5[H])c(C(=O)N([H])[H])c4N([H])[H])C3([H])[H])c([H])c([H])c2C1([H])[H]

$$$$
