0:0:0
     RDKit          3D

103110  0  0  1  0  0  0  0  0999 V2000
  -31.0640  -17.6530   22.9060 C   0  0  0  0  0  2  0  0  0  0  0  0
  -32.1810  -17.2190   21.9830 O   0  0  0  0  0  0  0  0  0  0  0  0
  -33.3330  -17.9530   21.3640 C   0  0  0  0  0  2  0  0  0  0  0  0
  -33.6960  -17.9310   19.7440 C   0  0  0  0  0  2  0  0  0  0  0  0
  -32.7940  -17.8000   18.5460 O   0  0  0  0  0  0  0  0  0  0  0  0
  -32.0840  -18.8220   17.6830 C   0  0  0  0  0  2  0  0  0  0  0  0
  -30.5180  -19.4830   17.8620 C   0  0  0  0  0  2  0  0  0  0  0  0
  -29.7580  -20.4400   18.9470 O   0  0  0  0  0  0  0  0  0  0  0  0
  -29.5730  -21.8270   19.7780 C   0  0  0  0  0  3  0  0  0  0  0  0
  -29.2120  -23.4360   19.3850 C   0  0  0  0  0  3  0  0  0  0  0  0
  -28.7000  -24.4940   20.3200 O   0  0  0  0  0  0  0  0  0  0  0  0
  -28.8650  -26.0250   19.7820 O   0  0  0  0  0  0  0  0  0  0  0  0
  -24.7730  -31.2330   22.9030 C   0  0  0  0  0  0  0  0  0  0  0  0
  -27.7020  -26.8340   19.8210 C   0  0  0  0  0  0  0  0  0  0  0  0
  -23.6960  -29.8200   21.1890 C   0  0  0  0  0  3  0  0  0  0  0  0
  -25.2690  -28.3730   19.7710 C   0  0  0  0  0  0  0  0  0  0  0  0
  -26.2240  -30.2560   21.0980 C   0  0  0  0  0  2  0  0  0  0  0  0
  -26.3960  -28.8900   20.4240 C   0  0  0  0  0  0  0  0  0  0  0  0
  -27.6130  -28.1310   20.4410 C   0  0  0  0  0  3  0  0  0  0  0  0
  -26.5550  -26.3850   19.1420 C   0  0  0  0  0  3  0  0  0  0  0  0
  -25.3540  -27.1300   19.1210 C   0  0  0  0  0  3  0  0  0  0  0  0
  -23.9900  -29.1920   19.7990 C   0  0  0  0  0  2  0  0  0  0  0  0
  -24.9150  -30.4570   21.7860 N   0  0  0  0  0  0  0  0  0  0  0  0
  -23.6610  -31.4370   23.4110 O   0  0  0  0  0  0  0  0  0  0  0  0
  -23.0590  -28.7450   22.1040 C   0  0  0  0  0  0  0  0  0  0  0  0
  -21.7360  -28.5440   21.9750 N   0  0  0  0  0  0  0  0  0  0  0  0
  -23.7550  -28.0960   22.8890 O   0  0  0  0  0  0  0  0  0  0  0  0
  -21.2300  -29.1230   21.3190 H   0  0  0  0  0  0  0  0  0  0  0  0
  -18.3850  -27.2650   22.4610 C   0  0  0  0  0  0  0  0  0  0  0  0
  -20.9440  -27.5490   22.7010 C   0  0  0  0  0  3  0  0  0  0  0  0
  -21.0570  -26.1560   22.0370 C   0  0  0  0  0  2  0  0  0  0  0  0
  -19.9410  -25.8790   21.0240 C   0  0  0  0  0  2  0  0  0  0  0  0
  -18.5690  -25.9630   21.7010 C   0  0  0  0  0  2  0  0  0  0  0  0
  -19.4990  -28.0170   22.9170 C   0  0  0  0  0  0  0  0  0  0  0  0
  -19.2730  -29.2380   23.5900 C   0  0  0  0  0  3  0  0  0  0  0  0
  -17.9640  -29.7060   23.8100 C   0  0  0  0  0  3  0  0  0  0  0  0
  -16.8640  -28.9490   23.3690 C   0  0  0  0  0  3  0  0  0  0  0  0
  -17.0760  -27.7310   22.7000 C   0  0  0  0  0  3  0  0  0  0  0  0
  -25.9990  -31.9190   23.5810 C   0  0  0  0  0  3  0  0  0  0  0  0
  -26.5400  -31.1230   24.8320 C   0  0  1  0  0  0  0  0  0  0  0  0
  -25.4480  -30.7750   25.8710 C   0  0  0  0  0  1  0  0  0  0  0  0
  -27.2090  -29.8000   24.3940 C   0  0  0  0  0  1  0  0  0  0  0  0
  -27.6320  -31.9530   25.5490 C   0  0  0  0  0  1  0  0  0  0  0  0
  -25.5910  -33.2760   23.9740 N   0  0  0  0  0  0  0  0  0  0  0  0
  -25.8690  -34.3880   23.2800 C   0  0  0  0  0  0  0  0  0  0  0  0
  -26.5640  -34.3820   22.2610 O   0  0  0  0  0  0  0  0  0  0  0  0
  -24.9720  -33.3490   24.7680 H   0  0  0  0  0  0  0  0  0  0  0  0
  -24.0310  -36.0810   22.9880 C   0  0  0  0  0  1  0  0  0  0  0  0
  -25.2850  -35.7170   23.7990 C   0  0  0  0  0  3  0  0  0  0  0  0
  -27.3470  -36.6950   24.7060 C   0  0  0  0  0  1  0  0  0  0  0  0
  -26.2470  -36.8400   23.7550 N   0  0  0  0  0  0  0  0  0  0  0  0
  -25.7800  -37.7220   23.9440 H   0  0  0  0  0  0  0  0  0  0  0  0
  -29.5900  -18.3400   22.5730 C   0  0  0  0  0  2  0  0  0  0  0  0
  -28.7040  -18.0100   21.4160 O   0  0  0  0  0  0  0  0  0  0  0  0
  -27.8040  -19.0250   20.7760 C   0  0  0  0  0  2  0  0  0  0  0  0
  -27.4090  -18.9010   19.1940 C   0  0  0  0  0  2  0  0  0  0  0  0
  -27.2570  -20.0960   18.3010 O   0  0  0  0  0  0  0  0  0  0  0  0
  -27.7280  -20.0860   16.8720 C   0  0  0  0  0  2  0  0  0  0  0  0
  -28.7840  -21.1520   16.1300 C   0  0  0  0  0  2  0  0  0  0  0  0
  -30.0390  -21.9210   16.5800 O   0  0  0  0  0  0  0  0  0  0  0  0
  -31.4690  -21.6570   17.0600 C   0  0  0  0  0  2  0  0  0  0  0  0
  -32.0400  -21.2810   18.6170 C   0  0  0  0  0  2  0  0  0  0  0  0
  -31.9690  -20.0110   19.5210 O   0  0  0  0  0  0  0  0  0  0  0  0
  -30.9260  -19.0390   20.1720 C   0  0  0  0  0  2  0  0  0  0  0  0
  -30.2930  -17.4260   19.7290 C   0  0  0  0  0  2  0  0  0  0  0  0
  -31.1290  -14.7920   19.8670 C   0  0  0  0  0  0  0  0  0  0  0  0
  -30.8260  -12.4770   18.9360 C   0  0  0  0  0  2  0  0  0  0  0  0
  -29.8450  -12.5720   17.7440 C   0  0  0  0  0  2  0  0  0  0  0  0
  -28.3880  -12.4560   18.2340 C   0  0  0  0  0  2  0  0  0  0  0  0
  -28.1010  -13.3710   19.4550 C   0  0  0  0  0  3  0  0  0  0  0  0
  -29.2030  -13.2550   20.5360 C   0  0  0  0  0  2  0  0  0  0  0  0
  -30.4860  -13.5650   19.8930 N   0  0  0  0  0  0  0  0  0  0  0  0
  -32.2530  -14.8400   19.3640 O   0  0  0  0  0  0  0  0  0  0  0  0
  -30.4210  -15.9420   20.2480 N   0  0  0  0  0  0  0  0  0  0  0  0
  -29.6240  -15.6870   20.8100 H   0  0  0  0  0  0  0  0  0  0  0  0
  -25.7990  -14.0750   20.3350 C   0  0  0  0  0  0  0  0  0  0  0  0
  -24.7080  -13.3580   20.7350 C   0  0  0  0  0  0  0  0  0  0  0  0
  -25.0770  -11.9800   20.6240 C   0  0  0  0  0  0  0  0  0  0  0  0
  -26.7690  -13.1430   20.0050 N   0  0  0  0  0  0  0  0  0  0  0  0
  -26.3450  -11.8730   20.2420 N   0  0  0  0  0  0  0  0  0  0  0  0
  -24.2800  -10.7600   20.8070 C   0  0  0  0  0  0  0  0  0  0  0  0
  -24.7060   -9.7170   21.6600 C   0  0  0  0  0  3  0  0  0  0  0  0
  -23.9110   -8.5640   21.8350 C   0  0  0  0  0  3  0  0  0  0  0  0
  -22.6730   -8.4460   21.1580 C   0  0  0  0  0  0  0  0  0  0  0  0
  -22.2640   -9.4760   20.2930 C   0  0  0  0  0  3  0  0  0  0  0  0
  -23.0590  -10.6210   20.1160 C   0  0  0  0  0  3  0  0  0  0  0  0
  -21.8480   -7.3510   21.2460 O   0  0  0  0  0  0  0  0  0  0  0  0
  -21.8320   -6.5500   22.3610 C   0  0  0  0  0  0  0  0  0  0  0  0
  -21.5770   -7.0700   23.6480 C   0  0  0  0  0  3  0  0  0  0  0  0
  -21.5000   -6.2010   24.7560 C   0  0  0  0  0  3  0  0  0  0  0  0
  -21.6680   -4.8150   24.5770 C   0  0  0  0  0  0  0  0  0  0  0  0
  -21.9170   -4.2950   23.2940 C   0  0  0  0  0  3  0  0  0  0  0  0
  -21.9950   -5.1610   22.1900 C   0  0  0  0  0  0  0  0  0  0  0  0
  -22.2130   -4.6520   20.9530 F   0  0  0  0  0  0  0  0  0  0  0  0
  -21.5870   -3.9790   25.6390 F   0  0  0  0  0  0  0  0  0  0  0  0
  -23.3600  -13.9100   21.1030 C   0  0  0  0  0  0  0  0  0  0  0  0
  -22.6470  -13.2390   21.9990 N   0  0  0  0  0  0  0  0  0  0  0  0
  -22.9550  -14.9700   20.6280 O   0  0  0  0  0  0  0  0  0  0  0  0
  -22.9860  -12.3780   22.4010 H   0  0  0  0  0  0  0  0  0  0  0  0
  -21.7440  -13.5890   22.2890 H   0  0  0  0  0  0  0  0  0  0  0  0
  -26.0420  -15.4410   20.2020 N   0  0  0  0  0  0  0  0  0  0  0  0
  -25.3210  -16.1300   20.3890 H   0  0  0  0  0  0  0  0  0  0  0  0
  -26.8950  -15.8430   19.8400 H   0  0  0  0  0  0  0  0  0  0  0  0
  2  1  1  0
  3  2  1  0
  4  3  1  0
  5  4  1  0
  6  7  1  0
  6  5  1  0
  7  8  1  0
  8  9  1  0
 10  9  2  0
 10 11  1  0
 12 14  1  0
 12 11  1  0
 13 24  2  0
 14 19  1  0
 15 23  1  0
 15 25  1  0
 16 22  1  0
 16 18  1  0
 17 23  1  0
 18 19  2  0
 18 17  1  0
 20 14  2  0
 21 20  1  0
 21 16  2  0
 22 15  1  0
 23 13  1  0
 25 27  2  0
 26 25  1  0
 28 26  1  0
 29 38  2  0
 29 34  1  0
 30 26  1  0
 30 34  1  0
 31 30  1  0
 32 33  1  0
 32 31  1  0
 33 29  1  0
 34 35  2  0
 35 36  1  0
 37 36  2  0
 38 37  1  0
 39 13  1  0
 39 44  1  0
 39 40  1  0
 40 43  1  1
 40 41  1  0
 42 40  1  0
 44 47  1  0
 45 49  1  0
 45 44  1  0
 46 45  2  0
 49 48  1  0
 51 49  1  0
 51 52  1  0
 51 50  1  0
 53  1  1  0
 54 53  1  0
 55 54  1  0
 56 55  1  0
 57 56  1  0
 58 57  1  0
 59 60  1  0
 59 58  1  0
 60 61  1  0
 61 62  1  0
 62 63  1  0
 63 64  1  0
 65 64  1  0
 65 74  1  0
 66 72  1  0
 66 74  1  0
 67 72  1  0
 68 69  1  0
 68 67  1  0
 70 69  1  0
 70 79  1  0
 70 71  1  0
 72 71  1  0
 73 66  2  0
 74 75  1  0
 76 77  2  0
 77 96  1  0
 78 77  1  0
 78 81  1  0
 79 80  1  0
 79 76  1  0
 80 78  2  0
 81 82  1  0
 82 83  2  0
 84 87  1  0
 84 83  1  0
 85 84  2  0
 86 85  1  0
 86 81  2  0
 87 88  1  0
 88 89  1  0
 89 90  2  0
 91 90  1  0
 91 95  1  0
 92 91  2  0
 93 88  2  0
 93 92  1  0
 94 93  1  0
 96 97  1  0
 97100  1  0
 97 99  1  0
 98 96  2  0
101 76  1  0
101102  1  0
103101  1  0
M  ISO  4  11 101  12 101  66 100  74 100
M  END
>  <TORSDO>  (1) 
F 39

>  <SCORE>  (1) 
-6.086

>  <name>  (1) 
0

>  <ligand_id>  (1) 
0

>  <original_smiles>  (1) 
[H]c1c([H])c([H])c2c(c1[H])C([H])([H])C([H])([H])C([H])([H])C2([H])N([H])C(=O)C1([H])N(C(=O)C([H])(N([H])C(=O)C([H])(N([H])C([H])([H])[H])C([H])([H])[H])C(C([H])([H])[H])(C([H])([H])[H])C([H])([H])[H])C([H])([H])c2c([H])c(OOC([H])([H])C([H])([H])OC([H])([H])C([H])([H])OC([H])([H])C([H])([H])OC([H])([H])C([H])([H])OC([H])([H])C([H])([H])OC([H])([H])C([H])([H])OC([H])([H])C([H])([H])OC([H])([H])C([H])([H])N([H])C(=O)N3C([H])([H])C([H])([H])C([H])([H])C([H])(n4nc(-c5c([H])c([H])c(Oc6c([H])c([H])c(F)c([H])c6F)c([H])c5[H])c(C(=O)N([H])[H])c4N([H])[H])C3([H])[H])c([H])c([H])c2C1([H])[H]

>  <smiles>  (1) 
[H]c1c([H])c([H])c2c(c1[H])C([H])([H])C([H])([H])C([H])([H])C2([H])N([H])C(=O)C1([H])N(C(=O)C([H])(N([H])C(=O)C([H])(N([H])C([H])([H])[H])C([H])([H])[H])C(C([H])([H])[H])(C([H])([H])[H])C([H])([H])[H])C([H])([H])c2c([H])c(OOC([H])([H])C([H])([H])OC([H])([H])C([H])([H])OC([H])([H])C([H])([H])OC([H])([H])C([H])([H])OC([H])([H])C([H])([H])OC([H])([H])C([H])([H])OC([H])([H])C([H])([H])OC([H])([H])C([H])([H])N([H])C(=O)N3C([H])([H])C([H])([H])C([H])([H])C([H])(n4nc(-c5c([H])c([H])c(Oc6c([H])c([H])c(F)c([H])c6F)c([H])c5[H])c(C(=O)N([H])[H])c4N([H])[H])C3([H])[H])c([H])c([H])c2C1([H])[H]

$$$$
1:0:0
     RDKit          3D

104111  0  0  1  0  0  0  0  0999 V2000
  -29.8720  -20.9470   20.3870 C   0  0  0  0  0  2  0  0  0  0  0  0
  -30.5920  -20.2540   19.3810 O   0  0  0  0  0  0  0  0  0  0  0  0
  -31.9790  -20.1210   19.6550 C   0  0  0  0  0  2  0  0  0  0  0  0
  -32.6530  -19.2240   18.6020 C   0  0  0  0  0  2  0  0  0  0  0  0
  -32.4620  -19.7070   17.1550 C   0  0  0  0  0  2  0  0  0  0  0  0
  -31.1510  -19.3520   16.7530 O   0  0  0  0  0  0  0  0  0  0  0  0
  -30.6300  -20.1100   15.6770 C   0  0  0  0  0  2  0  0  0  0  0  0
  -29.1230  -19.8210   15.5340 C   0  0  0  0  0  2  0  0  0  0  0  0
  -28.5400  -19.5260   16.8050 O   0  0  0  0  0  0  0  0  0  0  0  0
  -28.3140  -18.1360   17.0300 C   0  0  0  0  0  2  0  0  0  0  0  0
  -28.1600  -17.8560   18.5310 C   0  0  0  0  0  2  0  0  0  0  0  0
  -29.4360  -17.5630   19.1030 O   0  0  0  0  0  0  0  0  0  0  0  0
  -29.3600  -17.2480   20.4880 C   0  0  0  0  0  2  0  0  0  0  0  0
  -30.6650  -16.6100   21.0280 C   0  0  0  0  0  2  0  0  0  0  0  0
  -31.2440  -14.1690   21.0590 C   0  0  0  0  0  0  0  0  0  0  0  0
  -30.9900  -12.0110   19.9270 C   0  0  0  0  0  2  0  0  0  0  0  0
  -30.1800  -12.2910   18.6450 C   0  0  0  0  0  2  0  0  0  0  0  0
  -28.6610  -12.2510   18.9240 C   0  0  0  0  0  2  0  0  0  0  0  0
  -28.2560  -13.1170   20.1500 C   0  0  0  0  0  3  0  0  0  0  0  0
  -29.1680  -12.7940   21.3510 C   0  0  0  0  0  2  0  0  0  0  0  0
  -30.5720  -13.0000   20.9310 N   0  0  0  0  0  0  0  0  0  0  0  0
  -32.4200  -14.3350   20.7090 O   0  0  0  0  0  0  0  0  0  0  0  0
  -30.4510  -15.1990   21.3780 N   0  0  0  0  0  0  0  0  0  0  0  0
  -29.5110  -14.9420   21.6460 H   0  0  0  0  0  0  0  0  0  0  0  0
  -25.8540  -13.8980   20.6610 C   0  0  0  0  0  0  0  0  0  0  0  0
  -24.7090  -13.2040   20.9280 C   0  0  0  0  0  0  0  0  0  0  0  0
  -25.0740  -11.8220   20.9210 C   0  0  0  0  0  0  0  0  0  0  0  0
  -26.8470  -12.9430   20.4980 N   0  0  0  0  0  0  0  0  0  0  0  0
  -26.3770  -11.6920   20.7160 N   0  0  0  0  0  0  0  0  0  0  0  0
  -24.2520  -10.6180   21.0350 C   0  0  0  0  0  0  0  0  0  0  0  0
  -24.5500   -9.6110   21.9800 C   0  0  0  0  0  3  0  0  0  0  0  0
  -23.7360   -8.4630   22.0800 C   0  0  0  0  0  3  0  0  0  0  0  0
  -22.6090   -8.3180   21.2360 C   0  0  0  0  0  0  0  0  0  0  0  0
  -22.3270   -9.3170   20.2860 C   0  0  0  0  0  3  0  0  0  0  0  0
  -23.1410  -10.4570   20.1860 C   0  0  0  0  0  3  0  0  0  0  0  0
  -21.7770   -7.2270   21.2430 O   0  0  0  0  0  0  0  0  0  0  0  0
  -21.5970   -6.4650   22.3680 C   0  0  0  0  0  0  0  0  0  0  0  0
  -21.1430   -7.0270   23.5830 C   0  0  0  0  0  3  0  0  0  0  0  0
  -20.9080   -6.1960   24.6960 C   0  0  0  0  0  3  0  0  0  0  0  0
  -21.1130   -4.8080   24.5960 C   0  0  0  0  0  0  0  0  0  0  0  0
  -21.5580   -4.2460   23.3870 C   0  0  0  0  0  3  0  0  0  0  0  0
  -21.7960   -5.0730   22.2750 C   0  0  0  0  0  0  0  0  0  0  0  0
  -22.2060   -4.5260   21.1060 F   0  0  0  0  0  0  0  0  0  0  0  0
  -20.8790   -4.0080   25.6630 F   0  0  0  0  0  0  0  0  0  0  0  0
  -23.3300  -13.7770   21.0920 C   0  0  0  0  0  0  0  0  0  0  0  0
  -22.4890  -13.1340   21.8910 N   0  0  0  0  0  0  0  0  0  0  0  0
  -23.0100  -14.8330   20.5450 O   0  0  0  0  0  0  0  0  0  0  0  0
  -22.7620  -12.2820   22.3600 H   0  0  0  0  0  0  0  0  0  0  0  0
  -21.5580  -13.4910   22.0390 H   0  0  0  0  0  0  0  0  0  0  0  0
  -26.1210  -15.2570   20.5240 N   0  0  0  0  0  0  0  0  0  0  0  0
  -25.3720  -15.9370   20.5740 H   0  0  0  0  0  0  0  0  0  0  0  0
  -27.0110  -15.6480   20.2530 H   0  0  0  0  0  0  0  0  0  0  0  0
  -28.4390  -21.2520   19.8990 C   0  0  0  0  0  2  0  0  0  0  0  0
  -28.3470  -22.5420   19.2950 O   0  0  0  0  0  0  0  0  0  0  0  0
  -28.7130  -22.5880   17.9210 C   0  0  0  0  0  2  0  0  0  0  0  0
  -29.0810  -24.0270   17.4940 C   0  0  0  0  0  2  0  0  0  0  0  0
  -30.4730  -24.2850   17.3070 O   0  0  0  0  0  0  0  0  0  0  0  0
  -31.3660  -23.9640   18.3720 C   0  0  0  0  0  2  0  0  0  0  0  0
  -31.2800  -24.8420   19.6390 C   0  0  0  0  0  2  0  0  0  0  0  0
  -30.2740  -24.3570   20.5230 O   0  0  0  0  0  0  0  0  0  0  0  0
  -30.3040  -24.9610   21.8160 C   0  0  0  0  0  2  0  0  0  0  0  0
  -29.2980  -26.1260   21.9800 C   0  0  0  0  0  2  0  0  0  0  0  0
  -29.3270  -27.0540   20.9150 O   0  0  0  0  0  0  0  0  0  0  0  0
  -28.2770  -26.6390   19.9330 O   0  0  0  0  0  0  0  0  0  0  0  0
  -24.4910  -31.7970   23.1680 C   0  0  0  0  0  0  0  0  0  0  0  0
  -27.1190  -27.3680   20.0690 C   0  0  0  0  0  0  0  0  0  0  0  0
  -23.2690  -30.4060   21.5250 C   0  0  0  0  0  3  0  0  0  0  0  0
  -24.7110  -28.8450   20.1200 C   0  0  0  0  0  0  0  0  0  0  0  0
  -25.7970  -30.7400   21.3340 C   0  0  0  0  0  2  0  0  0  0  0  0
  -25.8750  -29.3720   20.7000 C   0  0  0  0  0  0  0  0  0  0  0  0
  -27.0830  -28.6450   20.6720 C   0  0  0  0  0  3  0  0  0  0  0  0
  -25.9380  -26.8350   19.5160 C   0  0  0  0  0  3  0  0  0  0  0  0
  -24.7330  -27.5670   19.5360 C   0  0  0  0  0  3  0  0  0  0  0  0
  -23.4750  -29.7160   20.1510 C   0  0  0  0  0  2  0  0  0  0  0  0
  -24.5360  -30.9960   22.0660 N   0  0  0  0  0  0  0  0  0  0  0  0
  -23.4090  -32.0850   23.7020 O   0  0  0  0  0  0  0  0  0  0  0  0
  -22.6070  -29.3960   22.4860 C   0  0  0  0  0  0  0  0  0  0  0  0
  -21.2770  -29.2460   22.3710 N   0  0  0  0  0  0  0  0  0  0  0  0
  -23.2820  -28.7440   23.2940 O   0  0  0  0  0  0  0  0  0  0  0  0
  -20.8000  -29.8230   21.6910 H   0  0  0  0  0  0  0  0  0  0  0  0
  -17.8720  -28.1580   22.9110 C   0  0  0  0  0  0  0  0  0  0  0  0
  -20.4420  -28.3240   23.1370 C   0  0  0  0  0  3  0  0  0  0  0  0
  -20.4870  -26.9000   22.5380 C   0  0  0  0  0  2  0  0  0  0  0  0
  -19.3560  -26.6330   21.5410 C   0  0  0  0  0  2  0  0  0  0  0  0
  -17.9900  -26.8130   22.2110 C   0  0  0  0  0  2  0  0  0  0  0  0
  -19.0230  -28.8740   23.3300 C   0  0  0  0  0  0  0  0  0  0  0  0
  -18.8600  -30.1340   23.9440 C   0  0  0  0  0  3  0  0  0  0  0  0
  -17.5760  -30.6770   24.1430 C   0  0  0  0  0  3  0  0  0  0  0  0
  -16.4380  -29.9550   23.7390 C   0  0  0  0  0  3  0  0  0  0  0  0
  -16.5870  -28.6950   23.1280 C   0  0  0  0  0  3  0  0  0  0  0  0
  -25.7860  -32.4060   23.7940 C   0  0  0  0  0  3  0  0  0  0  0  0
  -26.3090  -31.6060   25.0500 C   0  0  1  0  0  0  0  0  0  0  0  0
  -25.2180  -31.3420   26.1140 C   0  0  0  0  0  1  0  0  0  0  0  0
  -26.8990  -30.2380   24.6260 C   0  0  0  0  0  1  0  0  0  0  0  0
  -27.4610  -32.3870   25.7250 C   0  0  0  0  0  1  0  0  0  0  0  0
  -25.4880  -33.7990   24.1510 N   0  0  0  0  0  0  0  0  0  0  0  0
  -25.8220  -34.8610   23.4060 C   0  0  0  0  0  0  0  0  0  0  0  0
  -26.4860  -34.7670   22.3690 O   0  0  0  0  0  0  0  0  0  0  0  0
  -24.9110  -33.9490   24.9650 H   0  0  0  0  0  0  0  0  0  0  0  0
  -24.1010  -36.6640   23.0790 C   0  0  0  0  0  1  0  0  0  0  0  0
  -25.3420  -36.2440   23.8820 C   0  0  0  0  0  3  0  0  0  0  0  0
  -27.4820  -37.1050   24.7210 C   0  0  0  0  0  1  0  0  0  0  0  0
  -26.3780  -37.2930   23.7850 N   0  0  0  0  0  0  0  0  0  0  0  0
  -25.9790  -38.2140   23.9400 H   0  0  0  0  0  0  0  0  0  0  0  0
  2  3  1  0
  2  1  1  0
  4  3  1  0
  5  4  1  0
  6  5  1  0
  7  6  1  0
  8  7  1  0
  8  9  1  0
  9 10  1  0
 10 11  1  0
 11 12  1  0
 12 13  1  0
 13 14  1  0
 14 23  1  0
 15 23  1  0
 16 21  1  0
 17 18  1  0
 17 16  1  0
 19 18  1  0
 19 28  1  0
 19 20  1  0
 21 15  1  0
 21 20  1  0
 22 15  2  0
 23 24  1  0
 25 26  2  0
 26 45  1  0
 27 26  1  0
 27 30  1  0
 28 25  1  0
 28 29  1  0
 29 27  2  0
 30 31  1  0
 31 32  2  0
 33 36  1  0
 33 32  1  0
 34 33  2  0
 35 34  1  0
 35 30  2  0
 36 37  1  0
 37 38  1  0
 38 39  2  0
 40 39  1  0
 40 44  1  0
 41 40  2  0
 42 37  2  0
 42 41  1  0
 43 42  1  0
 45 46  1  0
 46 49  1  0
 46 48  1  0
 47 45  2  0
 50 51  1  0
 50 25  1  0
 52 50  1  0
 53  1  1  0
 54 53  1  0
 55 54  1  0
 56 55  1  0
 57 56  1  0
 57 58  1  0
 58 59  1  0
 59 60  1  0
 60 61  1  0
 61 62  1  0
 63 62  1  0
 64 66  1  0
 64 63  1  0
 65 76  2  0
 66 71  1  0
 67 75  1  0
 67 77  1  0
 68 74  1  0
 68 70  1  0
 69 75  1  0
 70 69  1  0
 71 70  2  0
 72 73  1  0
 72 66  2  0
 73 68  2  0
 74 67  1  0
 75 65  1  0
 77 79  2  0
 78 77  1  0
 80 78  1  0
 81 90  2  0
 81 86  1  0
 82 78  1  0
 82 86  1  0
 83 82  1  0
 84 85  1  0
 84 83  1  0
 85 81  1  0
 86 87  2  0
 87 88  1  0
 89 88  2  0
 90 89  1  0
 91 65  1  0
 91 96  1  0
 91 92  1  0
 92 95  1  1
 92 93  1  0
 94 92  1  0
 96 99  1  0
 97101  1  0
 97 96  1  0
 98 97  2  0
101100  1  0
103101  1  0
103104  1  0
103102  1  0
M  ISO  4  15 100  23 100  63 101  64 101
M  END
>  <TORSDO>  (2) 
F 40

>  <SCORE>  (2) 
-8.778

>  <name>  (2) 
1

>  <ligand_id>  (2) 
1

>  <original_smiles>  (2) 
[H]c1c([H])c([H])c2c(c1[H])C([H])([H])C([H])([H])C([H])([H])C2([H])N([H])C(=O)C1([H])N(C(=O)C([H])(N([H])C(=O)C([H])(N([H])C([H])([H])[H])C([H])([H])[H])C(C([H])([H])[H])(C([H])([H])[H])C([H])([H])[H])C([H])([H])c2c([H])c(OOC([H])([H])C([H])([H])OC([H])([H])C([H])([H])OC([H])([H])C([H])([H])OC([H])([H])C([H])([H])OC([H])([H])C([H])([H])C([H])([H])OC([H])([H])C([H])([H])OC([H])([H])C([H])([H])OC([H])([H])C([H])([H])N([H])C(=O)N3C([H])([H])C([H])([H])C([H])([H])C([H])(n4nc(-c5c([H])c([H])c(Oc6c([H])c([H])c(F)c([H])c6F)c([H])c5[H])c(C(=O)N([H])[H])c4N([H])[H])C3([H])[H])c([H])c([H])c2C1([H])[H]

>  <smiles>  (2) 
[H]c1c([H])c([H])c2c(c1[H])C([H])([H])C([H])([H])C([H])([H])C2([H])N([H])C(=O)C1([H])N(C(=O)C([H])(N([H])C(=O)C([H])(N([H])C([H])([H])[H])C([H])([H])[H])C(C([H])([H])[H])(C([H])([H])[H])C([H])([H])[H])C([H])([H])c2c([H])c(OOC([H])([H])C([H])([H])OC([H])([H])C([H])([H])OC([H])([H])C([H])([H])OC([H])([H])C([H])([H])OC([H])([H])C([H])([H])C([H])([H])OC([H])([H])C([H])([H])OC([H])([H])C([H])([H])OC([H])([H])C([H])([H])N([H])C(=O)N3C([H])([H])C([H])([H])C([H])([H])C([H])(n4nc(-c5c([H])c([H])c(Oc6c([H])c([H])c(F)c([H])c6F)c([H])c5[H])c(C(=O)N([H])[H])c4N([H])[H])C3([H])[H])c([H])c([H])c2C1([H])[H]

$$$$
2:0:0
     RDKit          3D

118126  0  0  1  0  0  0  0  0999 V2000
  -32.2780  -16.8150   25.9090 C   0  0  0  0  0  2  0  0  0  0  0  0
  -32.2840  -15.6250   25.1250 O   0  0  0  0  0  0  0  0  0  0  0  0
  -32.3420  -14.4080   25.8600 C   0  0  0  0  0  2  0  0  0  0  0  0
  -31.3430  -14.3280   27.0340 C   0  0  0  0  0  2  0  0  0  0  0  0
  -29.9900  -14.5060   26.6260 O   0  0  0  0  0  0  0  0  0  0  0  0
  -29.6800  -15.8360   26.2480 C   0  0  0  0  0  2  0  0  0  0  0  0
  -28.1520  -15.9840   26.1560 C   0  0  0  0  0  2  0  0  0  0  0  0
  -27.7940  -17.3080   25.7750 O   0  0  0  0  0  0  0  0  0  0  0  0
  -27.8360  -18.2790   26.8220 C   0  0  0  0  0  2  0  0  0  0  0  0
  -29.1530  -19.0740   26.7820 C   0  0  0  0  0  2  0  0  0  0  0  0
  -29.2780  -19.7580   25.5410 O   0  0  0  0  0  0  0  0  0  0  0  0
  -30.4570  -20.5550   25.4480 C   0  0  0  0  0  2  0  0  0  0  0  0
  -30.5230  -21.1530   24.0280 C   0  0  0  0  0  2  0  0  0  0  0  0
  -31.5730  -22.1880   23.8720 N   0  0  0  0  0  4  0  0  0  0  0  0
  -32.4400  -21.8670   24.2760 H   0  0  0  0  0  0  0  0  0  0  0  0
  -31.3010  -23.0230   24.3740 H   0  0  0  0  0  0  0  0  0  0  0  0
  -31.8350  -22.5570   22.4610 C   0  0  0  0  0  3  0  0  0  0  0  0
  -32.5260  -23.9270   22.3500 C   0  0  0  0  0  2  0  0  0  0  0  0
  -32.6580  -24.2730   20.9820 O   0  0  0  0  0  0  0  0  0  0  0  0
  -32.9200  -25.7510   20.8850 O   0  0  0  0  0  0  0  0  0  0  0  0
  -29.2230  -30.9000   24.1000 C   0  0  0  0  0  0  0  0  0  0  0  0
  -31.7420  -26.4510   20.9510 C   0  0  0  0  0  0  0  0  0  0  0  0
  -27.9490  -29.4760   22.5260 C   0  0  0  0  0  3  0  0  0  0  0  0
  -29.3430  -27.9250   21.0590 C   0  0  0  0  0  0  0  0  0  0  0  0
  -30.4610  -29.8420   22.2170 C   0  0  0  0  0  2  0  0  0  0  0  0
  -30.5200  -28.4640   21.5940 C   0  0  0  0  0  0  0  0  0  0  0  0
  -31.7220  -27.7280   21.5450 C   0  0  0  0  0  3  0  0  0  0  0  0
  -30.5470  -25.9190   20.4160 C   0  0  0  0  0  3  0  0  0  0  0  0
  -29.3470  -26.6480   20.4740 C   0  0  0  0  0  3  0  0  0  0  0  0
  -28.1010  -28.7790   21.1460 C   0  0  0  0  0  2  0  0  0  0  0  0
  -29.2300  -30.0890   23.0040 N   0  0  0  0  0  0  0  0  0  0  0  0
  -28.1660  -31.1780   24.6830 O   0  0  0  0  0  0  0  0  0  0  0  0
  -27.3410  -28.4640   23.5270 C   0  0  0  0  0  0  0  0  0  0  0  0
  -26.0330  -28.2000   23.3910 N   0  0  0  0  0  0  0  0  0  0  0  0
  -28.0450  -27.9180   24.3810 O   0  0  0  0  0  0  0  0  0  0  0  0
  -25.5230  -28.6990   22.6780 H   0  0  0  0  0  0  0  0  0  0  0  0
  -22.7300  -26.8160   23.8710 C   0  0  0  0  0  0  0  0  0  0  0  0
  -25.2570  -27.2550   24.1940 C   0  0  0  0  0  3  0  0  0  0  0  0
  -25.4660  -25.8020   23.7050 C   0  0  0  0  0  2  0  0  0  0  0  0
  -24.4160  -25.3540   22.6840 C   0  0  0  0  0  2  0  0  0  0  0  0
  -23.0110  -25.4450   23.2830 C   0  0  0  0  0  2  0  0  0  0  0  0
  -23.7840  -27.6730   24.2840 C   0  0  0  0  0  0  0  0  0  0  0  0
  -23.4670  -28.9530   24.7880 C   0  0  0  0  0  3  0  0  0  0  0  0
  -22.1280  -29.3760   24.8890 C   0  0  0  0  0  3  0  0  0  0  0  0
  -21.0880  -28.5190   24.4900 C   0  0  0  0  0  3  0  0  0  0  0  0
  -21.3900  -27.2410   23.9870 C   0  0  0  0  0  3  0  0  0  0  0  0
  -30.5350  -31.5360   24.6560 C   0  0  0  0  0  3  0  0  0  0  0  0
  -30.2320  -32.9250   25.0240 N   0  0  0  0  0  0  0  0  0  0  0  0
  -30.5070  -33.9890   24.2570 C   0  0  0  0  0  0  0  0  0  0  0  0
  -31.1150  -33.9040   23.1850 O   0  0  0  0  0  0  0  0  0  0  0  0
  -29.6820  -33.0630   25.8590 H   0  0  0  0  0  0  0  0  0  0  0  0
  -28.7340  -35.7590   24.0310 C   0  0  0  0  0  1  0  0  0  0  0  0
  -30.0300  -35.3660   24.7590 C   0  0  0  0  0  3  0  0  0  0  0  0
  -32.2070  -36.2700   25.4500 C   0  0  0  0  0  1  0  0  0  0  0  0
  -31.0400  -36.4340   24.5860 N   0  0  0  0  0  0  0  0  0  0  0  0
  -30.6340  -37.3470   24.7720 H   0  0  0  0  0  0  0  0  0  0  0  0
  -31.1360  -30.7510   25.8850 C   0  0  1  0  0  0  0  0  0  0  0  0
  -30.1160  -30.4910   27.0190 C   0  0  0  0  0  1  0  0  0  0  0  0
  -31.7000  -29.3830   25.4350 C   0  0  0  0  0  1  0  0  0  0  0  0
  -32.3220  -31.5430   26.4830 C   0  0  0  0  0  1  0  0  0  0  0  0
  -32.6870  -17.9930   25.0120 C   0  0  0  0  0  2  0  0  0  0  0  0
  -32.1470  -17.8520   23.7010 O   0  0  0  0  0  0  0  0  0  0  0  0
  -30.7510  -18.0720   23.5860 C   0  0  0  0  0  2  0  0  0  0  0  0
  -30.3200  -17.5180   22.2240 C   0  0  0  0  0  2  0  0  0  0  0  0
  -28.8360  -17.7330   21.9330 C   0  0  0  0  0  2  0  0  0  0  0  0
  -28.4940  -17.2170   20.6550 O   0  0  0  0  0  0  0  0  0  0  0  0
  -27.1210  -17.4130   20.3480 C   0  0  0  0  0  2  0  0  0  0  0  0
  -26.8100  -16.9520   18.9180 C   0  0  0  0  0  2  0  0  0  0  0  0
  -27.1400  -17.9870   18.0060 O   0  0  0  0  0  0  0  0  0  0  0  0
  -26.5030  -17.8760   16.7440 C   0  0  0  0  0  2  0  0  0  0  0  0
  -26.9530  -19.0440   15.8430 C   0  0  0  0  0  2  0  0  0  0  0  0
  -26.6790  -20.3360   16.3920 O   0  0  0  0  0  0  0  0  0  0  0  0
  -25.2970  -20.6420   16.5460 C   0  0  0  0  0  2  0  0  0  0  0  0
  -24.9550  -20.8000   18.0390 C   0  0  0  0  0  2  0  0  0  0  0  0
  -25.1930  -22.1400   18.4570 O   0  0  0  0  0  0  0  0  0  0  0  0
  -25.7320  -22.2660   19.7710 C   0  0  0  0  0  2  0  0  0  0  0  0
  -27.2290  -22.6200   19.7090 C   0  0  0  0  0  2  0  0  0  0  0  0
  -28.0310  -21.4530   19.5670 O   0  0  0  0  0  0  0  0  0  0  0  0
  -29.3960  -21.7640   19.3060 C   0  0  0  0  0  2  0  0  0  0  0  0
  -30.2410  -20.4900   19.1180 C   0  0  0  0  0  2  0  0  0  0  0  0
  -31.7010  -20.3590   21.0720 C   0  0  0  0  0  3  0  0  0  0  0  0
  -33.8120  -19.6740   20.1480 C   0  0  0  0  0  2  0  0  0  0  0  0
  -33.4870  -18.7340   18.9690 C   0  0  0  0  0  2  0  0  0  0  0  0
  -33.3650  -17.2760   19.4500 C   0  0  0  0  0  2  0  0  0  0  0  0
  -32.4700  -17.1010   20.7080 C   0  0  0  0  0  3  0  0  0  0  0  0
  -32.7620  -18.1810   21.7770 C   0  0  0  0  0  2  0  0  0  0  0  0
  -32.7440  -19.5020   21.1340 N   0  0  0  0  0  0  0  0  0  0  0  0
  -31.8100  -21.5790   21.0390 O   0  0  0  0  0  0  0  0  0  0  0  0
  -30.7070  -19.8400   20.3510 N   0  0  0  0  0  0  0  0  0  0  0  0
  -30.6040  -18.8380   20.3770 H   0  0  0  0  0  0  0  0  0  0  0  0
  -31.5960  -14.7690   21.3730 C   0  0  0  0  0  0  0  0  0  0  0  0
  -32.2370  -13.6440   21.8290 C   0  0  0  0  0  0  0  0  0  0  0  0
  -33.6110  -14.0010   21.9600 C   0  0  0  0  0  0  0  0  0  0  0  0
  -32.5760  -15.7420   21.2450 N   0  0  0  0  0  0  0  0  0  0  0  0
  -33.7870  -15.2830   21.6580 N   0  0  0  0  0  0  0  0  0  0  0  0
  -34.7810  -13.1810   22.3030 C   0  0  0  0  0  0  0  0  0  0  0  0
  -35.6790  -13.5660   23.3230 C   0  0  0  0  0  3  0  0  0  0  0  0
  -36.7850  -12.7500   23.6470 C   0  0  0  0  0  3  0  0  0  0  0  0
  -36.9970  -11.5350   22.9560 C   0  0  0  0  0  0  0  0  0  0  0  0
  -36.1120  -11.1660   21.9280 C   0  0  0  0  0  3  0  0  0  0  0  0
  -35.0160  -11.9820   21.6010 C   0  0  0  0  0  3  0  0  0  0  0  0
  -38.0560  -10.6900   23.1880 O   0  0  0  0  0  0  0  0  0  0  0  0
  -38.6840  -10.6420   24.4050 C   0  0  0  0  0  0  0  0  0  0  0  0
  -37.9790  -10.3660   25.5980 C   0  0  0  0  0  3  0  0  0  0  0  0
  -38.6770  -10.2560   26.8180 C   0  0  0  0  0  3  0  0  0  0  0  0
  -40.0750  -10.4130   26.8480 C   0  0  0  0  0  0  0  0  0  0  0  0
  -40.7770  -10.6810   25.6590 C   0  0  0  0  0  3  0  0  0  0  0  0
  -40.0840  -10.7930   24.4430 C   0  0  0  0  0  0  0  0  0  0  0  0
  -40.7700  -11.0330   23.2980 F   0  0  0  0  0  0  0  0  0  0  0  0
  -40.7470  -10.3020   28.0180 F   0  0  0  0  0  0  0  0  0  0  0  0
  -31.6210  -12.2920   22.0460 C   0  0  0  0  0  0  0  0  0  0  0  0
  -32.1360  -11.5280   23.0030 N   0  0  0  0  0  0  0  0  0  0  0  0
  -30.6400  -11.9230   21.4020 O   0  0  0  0  0  0  0  0  0  0  0  0
  -32.9230  -11.8390   23.5570 H   0  0  0  0  0  0  0  0  0  0  0  0
  -31.7330  -10.6210   23.1850 H   0  0  0  0  0  0  0  0  0  0  0  0
  -30.2750  -15.0320   21.0450 N   0  0  0  0  0  0  0  0  0  0  0  0
  -29.5570  -14.3230   21.1400 H   0  0  0  0  0  0  0  0  0  0  0  0
  -29.9050  -15.9570   20.8660 H   0  0  0  0  0  0  0  0  0  0  0  0
  2  3  1  0
  2  1  1  0
  3  4  1  0
  5  4  1  0
  6  5  1  0
  7  6  1  0
  8  7  1  0
  8  9  1  0
 10  9  1  0
 11 10  1  0
 12 11  1  0
 13 12  1  0
 14 13  1  0
 14 15  1  0
 14 16  1  0
 17 18  1  0
 17 14  1  0
 19 18  1  0
 20 22  1  0
 20 19  1  0
 21 32  2  0
 22 27  1  0
 23 31  1  0
 23 33  1  0
 24 30  1  0
 24 26  1  0
 25 31  1  0
 26 25  1  0
 27 26  2  0
 28 29  1  0
 28 22  2  0
 29 24  2  0
 30 23  1  0
 31 21  1  0
 33 35  2  0
 34 33  1  0
 36 34  1  0
 37 46  2  0
 37 42  1  0
 38 34  1  0
 38 42  1  0
 39 38  1  0
 40 41  1  0
 40 39  1  0
 41 37  1  0
 42 43  2  0
 43 44  1  0
 45 44  2  0
 46 45  1  0
 47 21  1  0
 47 48  1  0
 47 57  1  0
 48 51  1  0
 49 53  1  0
 49 48  1  0
 50 49  2  0
 53 52  1  0
 55 53  1  0
 55 56  1  0
 55 54  1  0
 57 60  1  1
 57 58  1  0
 59 57  1  0
 61  1  1  0
 62 61  1  0
 63 62  1  0
 64 63  1  0
 65 64  1  0
 66 65  1  0
 67 66  1  0
 68 67  1  0
 69 68  1  0
 70 69  1  0
 71 72  1  0
 71 70  1  0
 72 73  1  0
 73 74  1  0
 74 75  1  0
 75 76  1  0
 77 76  1  0
 78 77  1  0
 79 78  1  0
 80 79  1  0
 80 89  1  0
 81 88  1  0
 81 87  1  0
 83 84  1  0
 83 82  1  0
 85 84  1  0
 85 94  1  0
 85 86  1  0
 87 82  1  0
 87 86  1  0
 88 17  1  0
 89 90  1  0
 89 81  1  0
 91 92  2  0
 92 93  1  0
 92111  1  0
 93 96  1  0
 94 91  1  0
 94 95  1  0
 95 93  2  0
 96 97  1  0
 97 98  2  0
 99102  1  0
 99 98  1  0
100 99  2  0
101100  1  0
101 96  2  0
102103  1  0
103108  2  0
103104  1  0
104105  2  0
105106  1  0
106110  1  0
107106  2  0
108107  1  0
109108  1  0
111112  1  0
112115  1  0
112114  1  0
113111  2  0
116117  1  0
116 91  1  0
118116  1  0
M  ISO  4  19 101  20 101  81 100  89 100
M  END
>  <TORSDO>  (3) 
F 52

>  <SCORE>  (3) 
51.332

>  <name>  (3) 
2

>  <ligand_id>  (3) 
2

>  <original_smiles>  (3) 
[H]c1c([H])c([H])c2c(c1[H])C([H])([H])C([H])([H])C([H])([H])C2([H])N([H])C(=O)C1([H])N(C(=O)C([H])(N([H])C(=O)C([H])(N([H])C([H])([H])[H])C([H])([H])[H])C(C([H])([H])[H])(C([H])([H])[H])C([H])([H])[H])C([H])([H])c2c([H])c(OOC([H])([H])C([H])([H])[N+]([H])([H])C([H])([H])C([H])([H])OC([H])([H])C([H])([H])OC([H])([H])C([H])([H])OC([H])([H])C([H])([H])OC([H])([H])C([H])([H])OC([H])([H])C([H])([H])C([H])([H])OC([H])([H])C([H])([H])OC([H])([H])C([H])([H])OC([H])([H])C([H])([H])OC([H])([H])C([H])([H])OC([H])([H])C([H])([H])N([H])C(=O)N3C([H])([H])C([H])([H])C([H])([H])C([H])(n4nc(-c5c([H])c([H])c(Oc6c([H])c([H])c(F)c([H])c6F)c([H])c5[H])c(C(=O)N([H])[H])c4N([H])[H])C3([H])[H])c([H])c([H])c2C1([H])[H]

>  <smiles>  (3) 
[H]c1c([H])c([H])c2c(c1[H])C([H])([H])C([H])([H])C([H])([H])C2([H])N([H])C(=O)C1([H])N(C(=O)C([H])(N([H])C(=O)C([H])(N([H])C([H])([H])[H])C([H])([H])[H])C(C([H])([H])[H])(C([H])([H])[H])C([H])([H])[H])C([H])([H])c2c([H])c(OOC([H])([H])C([H])([H])[N+]([H])([H])C([H])([H])C([H])([H])OC([H])([H])C([H])([H])OC([H])([H])C([H])([H])OC([H])([H])C([H])([H])OC([H])([H])C([H])([H])OC([H])([H])C([H])([H])C([H])([H])OC([H])([H])C([H])([H])OC([H])([H])C([H])([H])OC([H])([H])C([H])([H])OC([H])([H])C([H])([H])OC([H])([H])C([H])([H])N([H])C(=O)N3C([H])([H])C([H])([H])C([H])([H])C([H])(n4nc(-c5c([H])c([H])c(Oc6c([H])c([H])c(F)c([H])c6F)c([H])c5[H])c(C(=O)N([H])[H])c4N([H])[H])C3([H])[H])c([H])c([H])c2C1([H])[H]

$$$$
3:0:0
     RDKit          3D

109116  0  0  1  0  0  0  0  0999 V2000
  -29.7560  -27.1690   23.2700 O   0  0  0  0  0  0  0  0  0  0  0  0
  -31.1480  -26.8970   23.2940 C   0  0  0  0  0  2  0  0  0  0  0  0
  -31.8640  -27.8880   22.3690 C   0  0  0  0  0  2  0  0  0  0  0  0
  -31.3740  -27.7220   21.0460 O   0  0  0  0  0  0  0  0  0  0  0  0
  -32.0030  -28.5930   20.1130 C   0  0  0  0  0  2  0  0  0  0  0  0
  -31.2540  -28.4350   18.7850 C   0  0  0  0  0  2  0  0  0  0  0  0
  -31.1160  -27.0010   18.4630 N   0  0  0  0  0  4  0  0  0  0  0  0
  -32.0330  -26.5980   18.3250 H   0  0  0  0  0  0  0  0  0  0  0  0
  -30.7190  -26.5890   19.2960 H   0  0  0  0  0  0  0  0  0  0  0  0
  -30.2390  -26.6870   17.3120 C   0  0  0  0  0  2  0  0  0  0  0  0
  -29.9010  -25.1830   17.2370 C   0  0  0  0  0  2  0  0  0  0  0  0
  -28.8580  -24.8450   18.1510 O   0  0  0  0  0  0  0  0  0  0  0  0
  -29.2820  -24.5950   19.4880 C   0  0  0  0  0  2  0  0  0  0  0  0
  -28.4130  -25.3950   20.4640 C   0  0  0  0  0  2  0  0  0  0  0  0
  -28.5130  -26.7960   20.1810 O   0  0  0  0  0  0  0  0  0  0  0  0
  -24.6210  -31.8880   23.2630 C   0  0  0  0  0  0  0  0  0  0  0  0
  -27.3320  -27.5050   20.1640 C   0  0  0  0  0  0  0  0  0  0  0  0
  -23.4440  -30.4960   21.5890 C   0  0  0  0  0  3  0  0  0  0  0  0
  -24.9240  -28.9840   20.1640 C   0  0  0  0  0  0  0  0  0  0  0  0
  -25.9680  -30.8730   21.4270 C   0  0  0  0  0  2  0  0  0  0  0  0
  -26.0690  -29.5100   20.7740 C   0  0  0  0  0  0  0  0  0  0  0  0
  -27.2750  -28.7770   20.7720 C   0  0  0  0  0  3  0  0  0  0  0  0
  -26.1770  -27.0030   19.5260 C   0  0  0  0  0  3  0  0  0  0  0  0
  -24.9700  -27.7280   19.5400 C   0  0  0  0  0  3  0  0  0  0  0  0
  -23.6730  -29.8310   20.2050 C   0  0  0  0  0  2  0  0  0  0  0  0
  -24.6960  -31.1000   22.1520 N   0  0  0  0  0  0  0  0  0  0  0  0
  -23.5310  -32.1510   23.7920 O   0  0  0  0  0  0  0  0  0  0  0  0
  -22.7880  -29.4620   22.5300 C   0  0  0  0  0  0  0  0  0  0  0  0
  -21.4640  -29.2850   22.3930 N   0  0  0  0  0  0  0  0  0  0  0  0
  -23.4670  -28.8190   23.3350 O   0  0  0  0  0  0  0  0  0  0  0  0
  -20.9790  -29.8550   21.7130 H   0  0  0  0  0  0  0  0  0  0  0  0
  -18.0810  -28.1140   22.8750 C   0  0  0  0  0  0  0  0  0  0  0  0
  -20.6410  -28.3350   23.1430 C   0  0  0  0  0  3  0  0  0  0  0  0
  -20.7280  -26.9180   22.5300 C   0  0  0  0  0  2  0  0  0  0  0  0
  -19.6170  -26.6330   21.5130 C   0  0  0  0  0  2  0  0  0  0  0  0
  -18.2400  -26.7790   22.1660 C   0  0  0  0  0  2  0  0  0  0  0  0
  -19.2100  -28.8520   23.3190 C   0  0  0  0  0  0  0  0  0  0  0  0
  -19.0070  -30.1030   23.9400 C   0  0  0  0  0  3  0  0  0  0  0  0
  -17.7080  -30.6140   24.1250 C   0  0  0  0  0  3  0  0  0  0  0  0
  -16.5950  -29.8730   23.6970 C   0  0  0  0  0  3  0  0  0  0  0  0
  -16.7810  -28.6240   23.0770 C   0  0  0  0  0  3  0  0  0  0  0  0
  -25.8960  -32.5190   23.9030 C   0  0  0  0  0  3  0  0  0  0  0  0
  -26.3980  -31.7410   25.1790 C   0  0  1  0  0  0  0  0  0  0  0  0
  -25.2930  -31.4870   26.2310 C   0  0  0  0  0  1  0  0  0  0  0  0
  -26.9910  -30.3730   24.7780 C   0  0  0  0  0  1  0  0  0  0  0  0
  -27.5380  -32.5350   25.8610 C   0  0  0  0  0  1  0  0  0  0  0  0
  -25.5790  -33.9140   24.2370 N   0  0  0  0  0  0  0  0  0  0  0  0
  -25.9160  -34.9700   23.4870 C   0  0  0  0  0  0  0  0  0  0  0  0
  -26.5980  -34.8730   22.4620 O   0  0  0  0  0  0  0  0  0  0  0  0
  -24.9750  -34.0610   25.0320 H   0  0  0  0  0  0  0  0  0  0  0  0
  -24.1850  -36.7560   23.1200 C   0  0  0  0  0  1  0  0  0  0  0  0
  -25.4170  -36.3550   23.9450 C   0  0  0  0  0  3  0  0  0  0  0  0
  -27.5370  -37.2430   24.8080 C   0  0  0  0  0  1  0  0  0  0  0  0
  -26.4470  -37.4110   23.8500 N   0  0  0  0  0  0  0  0  0  0  0  0
  -26.0350  -38.3300   23.9960 H   0  0  0  0  0  0  0  0  0  0  0  0
  -29.0370  -26.4500   24.2600 C   0  0  0  0  0  2  0  0  0  0  0  0
  -27.5330  -26.6840   24.0640 C   0  0  0  0  0  2  0  0  0  0  0  0
  -26.9520  -25.6560   23.2710 O   0  0  0  0  0  0  0  0  0  0  0  0
  -25.5830  -25.9250   22.9900 C   0  0  0  0  0  2  0  0  0  0  0  0
  -24.8850  -24.6860   22.4140 C   0  0  0  0  0  2  0  0  0  0  0  0
  -25.2380  -24.4910   21.0530 O   0  0  0  0  0  0  0  0  0  0  0  0
  -24.3940  -23.5410   20.4150 C   0  0  0  0  0  2  0  0  0  0  0  0
  -24.8980  -23.2890   18.9910 C   0  0  0  0  0  2  0  0  0  0  0  0
  -25.9490  -22.3430   19.0560 O   0  0  0  0  0  0  0  0  0  0  0  0
  -26.6940  -22.2460   17.8530 C   0  0  0  0  0  2  0  0  0  0  0  0
  -27.6700  -21.0610   17.9390 C   0  0  0  0  0  2  0  0  0  0  0  0
  -28.5010  -21.1110   19.0990 O   0  0  0  0  0  0  0  0  0  0  0  0
  -27.9940  -20.3850   20.2190 C   0  0  0  0  0  2  0  0  0  0  0  0
  -28.1200  -18.8660   20.0220 C   0  0  0  0  0  2  0  0  0  0  0  0
  -29.3720  -18.3970   20.5070 O   0  0  0  0  0  0  0  0  0  0  0  0
  -29.4970  -16.9950   20.3200 C   0  0  0  0  0  2  0  0  0  0  0  0
  -30.5820  -16.4180   21.2350 C   0  0  0  0  0  2  0  0  0  0  0  0
  -30.3580  -15.0170   21.3280 O   0  0  0  0  0  0  0  0  0  0  0  0
  -30.9470  -14.1880   20.4550 C   0  0  0  0  0  0  0  0  0  0  0  0
  -30.5150  -12.0790   19.2190 C   0  0  0  0  0  2  0  0  0  0  0  0
  -29.5750  -12.3520   18.0300 C   0  0  0  0  0  2  0  0  0  0  0  0
  -28.0980  -12.2630   18.4670 C   0  0  0  0  0  2  0  0  0  0  0  0
  -27.8000  -13.1060   19.7380 C   0  0  0  0  0  3  0  0  0  0  0  0
  -28.8400  -12.8180   20.8440 C   0  0  0  0  0  2  0  0  0  0  0  0
  -30.1830  -13.0290   20.2800 N   0  0  0  0  0  0  0  0  0  0  0  0
  -31.9790  -14.4660   19.8440 O   0  0  0  0  0  0  0  0  0  0  0  0
  -25.4230  -13.8060   20.4360 C   0  0  0  0  0  0  0  0  0  0  0  0
  -24.3280  -13.0750   20.8110 C   0  0  0  0  0  0  0  0  0  0  0  0
  -24.7400  -11.7060   20.7910 C   0  0  0  0  0  0  0  0  0  0  0  0
  -26.4360  -12.8860   20.2130 N   0  0  0  0  0  0  0  0  0  0  0  0
  -26.0270  -11.6190   20.4800 N   0  0  0  0  0  0  0  0  0  0  0  0
  -23.9730  -10.4730   20.9910 C   0  0  0  0  0  0  0  0  0  0  0  0
  -24.3820   -9.4940   21.9220 C   0  0  0  0  0  3  0  0  0  0  0  0
  -23.6200   -8.3210   22.1060 C   0  0  0  0  0  3  0  0  0  0  0  0
  -22.4340   -8.1190   21.3590 C   0  0  0  0  0  0  0  0  0  0  0  0
  -22.0460   -9.0870   20.4160 C   0  0  0  0  0  3  0  0  0  0  0  0
  -22.8070  -10.2520   20.2290 C   0  0  0  0  0  3  0  0  0  0  0  0
  -21.6410   -7.0020   21.4570 O   0  0  0  0  0  0  0  0  0  0  0  0
  -21.5710   -6.2710   22.6150 C   0  0  0  0  0  0  0  0  0  0  0  0
  -21.1720   -6.8490   23.8420 C   0  0  0  0  0  3  0  0  0  0  0  0
  -21.0460   -6.0430   24.9920 C   0  0  0  0  0  3  0  0  0  0  0  0
  -21.3060   -4.6630   24.9180 C   0  0  0  0  0  0  0  0  0  0  0  0
  -21.6960   -4.0840   23.6980 C   0  0  0  0  0  3  0  0  0  0  0  0
  -21.8260   -4.8850   22.5500 C   0  0  0  0  0  0  0  0  0  0  0  0
  -22.1820   -4.3200   21.3730 F   0  0  0  0  0  0  0  0  0  0  0  0
  -21.1780   -3.8870   26.0210 F   0  0  0  0  0  0  0  0  0  0  0  0
  -22.9490  -13.6020   21.0830 C   0  0  0  0  0  0  0  0  0  0  0  0
  -22.2070  -12.9560   21.9750 N   0  0  0  0  0  0  0  0  0  0  0  0
  -22.5370  -14.6250   20.5370 O   0  0  0  0  0  0  0  0  0  0  0  0
  -22.5460  -12.1290   22.4450 H   0  0  0  0  0  0  0  0  0  0  0  0
  -21.2800  -13.2960   22.1920 H   0  0  0  0  0  0  0  0  0  0  0  0
  -25.6350  -15.1690   20.2490 N   0  0  0  0  0  0  0  0  0  0  0  0
  -24.8860  -15.8470   20.3360 H   0  0  0  0  0  0  0  0  0  0  0  0
  -26.4890  -15.5610   19.8790 H   0  0  0  0  0  0  0  0  0  0  0  0
  1  2  1  0
  1 56  1  0
  3  2  1  0
  4  3  1  0
  5  4  1  0
  6  5  1  0
  7  6  1  0
  7  9  1  0
  8  7  1  0
 10  7  1  0
 11 10  1  0
 11 12  1  0
 12 13  1  0
 13 14  1  0
 15 14  1  0
 16 27  2  0
 17 15  1  0
 17 22  1  0
 18 26  1  0
 18 28  1  0
 19 25  1  0
 19 21  1  0
 20 26  1  0
 21 20  1  0
 22 21  2  0
 23 24  1  0
 23 17  2  0
 24 19  2  0
 25 18  1  0
 26 16  1  0
 28 30  2  0
 29 28  1  0
 31 29  1  0
 32 41  2  0
 32 37  1  0
 33 29  1  0
 33 37  1  0
 34 33  1  0
 35 36  1  0
 35 34  1  0
 36 32  1  0
 37 38  2  0
 38 39  1  0
 40 39  2  0
 41 40  1  0
 42 16  1  0
 42 47  1  0
 42 43  1  0
 43 46  1  1
 43 44  1  0
 45 43  1  0
 47 50  1  0
 48 52  1  0
 48 47  1  0
 49 48  2  0
 52 51  1  0
 54 52  1  0
 54 55  1  0
 54 53  1  0
 57 56  1  0
 58 57  1  0
 59 58  1  0
 60 59  1  0
 61 60  1  0
 62 61  1  0
 63 64  1  0
 63 62  1  0
 65 66  1  0
 65 64  1  0
 66 67  1  0
 67 68  1  0
 69 68  1  0
 69 70  1  0
 71 70  1  0
 71 72  1  0
 72 73  1  0
 74 73  1  0
 75 80  1  0
 76 77  1  0
 76 75  1  0
 78 77  1  0
 78 85  1  0
 78 79  1  0
 80 74  1  0
 80 79  1  0
 81 74  2  0
 82 83  2  0
 83102  1  0
 84 83  1  0
 84 87  1  0
 85 82  1  0
 85 86  1  0
 86 84  2  0
 87 88  1  0
 88 89  2  0
 90 93  1  0
 90 89  1  0
 91 90  2  0
 92 91  1  0
 92 87  2  0
 93 94  1  0
 94 95  1  0
 95 96  2  0
 97 96  1  0
 97101  1  0
 98 97  2  0
 99 94  2  0
 99 98  1  0
100 99  1  0
102103  1  0
103106  1  0
103105  1  0
104102  2  0
107108  1  0
107 82  1  0
109107  1  0
M  ISO  4  14 101  15 101  73 100  74 100
M  END
>  <TORSDO>  (4) 
F 45

>  <SCORE>  (4) 
-8.544

>  <name>  (4) 
3

>  <ligand_id>  (4) 
3

>  <original_smiles>  (4) 
[H]c1c([H])c([H])c2c(c1[H])C([H])([H])C([H])([H])C([H])([H])C2([H])N([H])C(=O)C1([H])N(C(=O)C([H])(N([H])C(=O)C([H])(N([H])C([H])([H])[H])C([H])([H])[H])C(C([H])([H])[H])(C([H])([H])[H])C([H])([H])[H])C([H])([H])c2c([H])c(OC([H])([H])C([H])([H])OC([H])([H])C([H])([H])[N+]([H])([H])C([H])([H])C([H])([H])OC([H])([H])C([H])([H])OC([H])([H])C([H])([H])OC([H])([H])C([H])([H])OC([H])([H])C([H])([H])OC([H])([H])C([H])([H])OC([H])([H])C([H])([H])OC([H])([H])C([H])([H])OC(=O)N3C([H])([H])C([H])([H])C([H])([H])C([H])(n4nc(-c5c([H])c([H])c(Oc6c([H])c([H])c(F)c([H])c6F)c([H])c5[H])c(C(=O)N([H])[H])c4N([H])[H])C3([H])[H])c([H])c([H])c2C1([H])[H]

>  <smiles>  (4) 
[H]c1c([H])c([H])c2c(c1[H])C([H])([H])C([H])([H])C([H])([H])C2([H])N([H])C(=O)C1([H])N(C(=O)C([H])(N([H])C(=O)C([H])(N([H])C([H])([H])[H])C([H])([H])[H])C(C([H])([H])[H])(C([H])([H])[H])C([H])([H])[H])C([H])([H])c2c([H])c(OC([H])([H])C([H])([H])OC([H])([H])C([H])([H])[N+]([H])([H])C([H])([H])C([H])([H])OC([H])([H])C([H])([H])OC([H])([H])C([H])([H])OC([H])([H])C([H])([H])OC([H])([H])C([H])([H])OC([H])([H])C([H])([H])OC([H])([H])C([H])([H])OC([H])([H])C([H])([H])OC(=O)N3C([H])([H])C([H])([H])C([H])([H])C([H])(n4nc(-c5c([H])c([H])c(Oc6c([H])c([H])c(F)c([H])c6F)c([H])c5[H])c(C(=O)N([H])[H])c4N([H])[H])C3([H])[H])c([H])c([H])c2C1([H])[H]

$$$$
4:0:0
     RDKit          3D

112119  0  0  1  0  0  0  0  0999 V2000
  -29.1470  -20.6390   24.6060 C   0  0  0  0  0  2  0  0  0  0  0  0
  -30.5600  -20.6040   24.7440 O   0  0  0  0  0  0  0  0  0  0  0  0
  -31.1750  -21.8850   24.6810 C   0  0  0  0  0  2  0  0  0  0  0  0
  -32.6460  -21.7200   24.2300 C   0  0  0  0  0  2  0  0  0  0  0  0
  -32.9220  -22.1820   22.9090 O   0  0  0  0  0  0  0  0  0  0  0  0
  -32.3830  -21.4070   21.8400 C   0  0  0  0  0  2  0  0  0  0  0  0
  -33.3640  -21.2910   20.6650 C   0  0  0  0  0  2  0  0  0  0  0  0
  -34.6150  -20.6580   20.9460 O   0  0  0  0  0  0  0  0  0  0  0  0
  -34.5760  -19.4610   21.7190 C   0  0  0  0  0  2  0  0  0  0  0  0
  -35.7640  -18.5640   21.3320 C   0  0  0  0  0  2  0  0  0  0  0  0
  -36.7770  -19.3490   20.7070 O   0  0  0  0  0  0  0  0  0  0  0  0
  -37.8840  -18.6230   20.1690 C   0  0  0  0  0  2  0  0  0  0  0  0
  -37.4480  -17.4720   19.2310 C   0  0  0  0  0  2  0  0  0  0  0  0
  -36.2430  -17.8180   18.5380 O   0  0  0  0  0  0  0  0  0  0  0  0
  -35.6560  -16.7870   17.7390 C   0  0  0  0  0  2  0  0  0  0  0  0
  -34.9160  -15.7100   18.5610 C   0  0  0  0  0  2  0  0  0  0  0  0
  -33.5020  -15.8460   18.4370 O   0  0  0  0  0  0  0  0  0  0  0  0
  -32.7640  -14.6710   18.7870 C   0  0  0  0  0  2  0  0  0  0  0  0
  -32.2790  -14.7350   20.2620 C   0  0  0  0  0  2  0  0  0  0  0  0
  -32.3210  -12.3780   21.1490 C   0  0  0  0  0  0  0  0  0  0  0  0
  -31.8460   -9.9820   21.1460 C   0  0  0  0  0  2  0  0  0  0  0  0
  -31.0850   -9.6730   19.8430 C   0  0  0  0  0  2  0  0  0  0  0  0
  -29.5650   -9.8400   20.0440 C   0  0  0  0  0  2  0  0  0  0  0  0
  -29.1940  -11.1880   20.7190 C   0  0  0  0  0  3  0  0  0  0  0  0
  -30.1000  -11.4820   21.9390 C   0  0  0  0  0  2  0  0  0  0  0  0
  -31.5070  -11.3600   21.5180 N   0  0  0  0  0  0  0  0  0  0  0  0
  -33.5150  -12.2340   20.8930 O   0  0  0  0  0  0  0  0  0  0  0  0
  -31.6970  -13.5220   20.8490 N   0  0  0  0  0  0  0  0  0  0  0  0
  -30.7100  -13.5490   21.0640 H   0  0  0  0  0  0  0  0  0  0  0  0
  -26.9800  -12.3530   21.3060 C   0  0  0  0  0  0  0  0  0  0  0  0
  -25.7200  -11.8600   21.5220 C   0  0  0  0  0  0  0  0  0  0  0  0
  -25.8150  -10.4450   21.3950 C   0  0  0  0  0  0  0  0  0  0  0  0
  -27.7760  -11.2460   21.0650 N   0  0  0  0  0  0  0  0  0  0  0  0
  -27.0740  -10.0880   21.1780 N   0  0  0  0  0  0  0  0  0  0  0  0
  -24.7700   -9.4110   21.4100 C   0  0  0  0  0  0  0  0  0  0  0  0
  -24.7980   -8.3410   22.3330 C   0  0  0  0  0  3  0  0  0  0  0  0
  -23.7700   -7.3740   22.3370 C   0  0  0  0  0  3  0  0  0  0  0  0
  -22.6990   -7.4720   21.4170 C   0  0  0  0  0  0  0  0  0  0  0  0
  -22.6860   -8.5250   20.4870 C   0  0  0  0  0  3  0  0  0  0  0  0
  -23.7140   -9.4830   20.4800 C   0  0  0  0  0  3  0  0  0  0  0  0
  -21.6700   -6.5650   21.3300 O   0  0  0  0  0  0  0  0  0  0  0  0
  -21.1020   -6.0120   22.4480 C   0  0  0  0  0  0  0  0  0  0  0  0
  -20.6040   -6.8070   23.5040 C   0  0  0  0  0  3  0  0  0  0  0  0
  -19.9610   -6.2000   24.6010 C   0  0  0  0  0  3  0  0  0  0  0  0
  -19.8150   -4.7990   24.6430 C   0  0  0  0  0  0  0  0  0  0  0  0
  -20.3100   -4.0040   23.5950 C   0  0  0  0  0  3  0  0  0  0  0  0
  -20.9500   -4.6100   22.4990 C   0  0  0  0  0  0  0  0  0  0  0  0
  -21.4040   -3.8410   21.4790 F   0  0  0  0  0  0  0  0  0  0  0  0
  -19.1940   -4.2170   25.6950 F   0  0  0  0  0  0  0  0  0  0  0  0
  -24.4770  -12.6780   21.7280 C   0  0  0  0  0  0  0  0  0  0  0  0
  -23.5110  -12.1450   22.4700 N   0  0  0  0  0  0  0  0  0  0  0  0
  -24.3770  -13.8130   21.2740 O   0  0  0  0  0  0  0  0  0  0  0  0
  -23.6050  -11.2250   22.8700 H   0  0  0  0  0  0  0  0  0  0  0  0
  -22.6700  -12.6780   22.6430 H   0  0  0  0  0  0  0  0  0  0  0  0
  -27.4990  -13.6420   21.2800 N   0  0  0  0  0  0  0  0  0  0  0  0
  -26.8950  -14.4490   21.4120 H   0  0  0  0  0  0  0  0  0  0  0  0
  -28.4430  -13.8870   21.0030 H   0  0  0  0  0  0  0  0  0  0  0  0
  -28.8020  -21.2850   23.2490 C   0  0  0  0  0  2  0  0  0  0  0  0
  -29.8790  -20.9850   22.3640 O   0  0  0  0  0  0  0  0  0  0  0  0
  -30.1950  -21.9460   21.3500 C   0  0  0  0  0  2  0  0  0  0  0  0
  -29.1180  -22.0460   20.2520 C   0  0  0  0  0  0  0  0  0  0  0  0
  -29.0500  -23.1880   19.5480 N   0  0  0  0  0  0  0  0  0  0  0  0
  -28.3670  -21.0920   20.0410 O   0  0  0  0  0  0  0  0  0  0  0  0
  -29.7420  -23.9040   19.7380 H   0  0  0  0  0  0  0  0  0  0  0  0
  -28.1060  -23.4760   18.4610 C   0  0  0  0  0  2  0  0  0  0  0  0
  -27.1370  -24.6430   18.7430 C   0  0  0  0  0  2  0  0  0  0  0  0
  -27.7880  -26.0050   19.0540 C   0  0  0  0  0  2  0  0  0  0  0  0
  -27.8360  -26.3250   20.5610 C   0  0  0  0  0  2  0  0  0  0  0  0
  -28.5550  -27.6540   20.8590 C   0  0  0  0  0  2  0  0  0  0  0  0
  -28.6420  -28.0040   22.3600 C   0  0  0  0  0  2  0  0  0  0  0  0
  -29.2430  -29.4050   22.6020 C   0  0  0  0  0  2  0  0  0  0  0  0
  -28.4020  -30.4230   22.0720 O   0  0  0  0  0  0  0  0  0  0  0  0
  -23.7870  -28.6290   27.2100 C   0  0  0  0  0  0  0  0  0  0  0  0
  -27.1110  -30.4120   22.5380 C   0  0  0  0  0  0  0  0  0  0  0  0
  -22.8050  -29.4570   25.0940 C   0  0  0  0  0  3  0  0  0  0  0  0
  -24.4450  -30.4810   23.4420 C   0  0  0  0  0  0  0  0  0  0  0  0
  -25.1520  -30.1730   25.8210 C   0  0  0  0  0  2  0  0  0  0  0  0
  -25.4930  -30.3080   24.3560 C   0  0  0  0  0  0  0  0  0  0  0  0
  -26.8290  -30.2610   23.9120 C   0  0  0  0  0  3  0  0  0  0  0  0
  -26.0510  -30.5890   21.6260 C   0  0  0  0  0  3  0  0  0  0  0  0
  -24.7150  -30.6050   22.0690 C   0  0  0  0  0  3  0  0  0  0  0  0
  -23.0500  -30.5430   24.0150 C   0  0  0  0  0  2  0  0  0  0  0  0
  -23.9310  -29.3740   26.0800 N   0  0  0  0  0  0  0  0  0  0  0  0
  -22.7240  -28.0390   27.4570 O   0  0  0  0  0  0  0  0  0  0  0  0
  -22.4970  -28.1130   24.3970 C   0  0  0  0  0  0  0  0  0  0  0  0
  -21.5700  -28.1420   23.4240 N   0  0  0  0  0  0  0  0  0  0  0  0
  -23.0950  -27.0830   24.7170 O   0  0  0  0  0  0  0  0  0  0  0  0
  -21.1250  -29.0270   23.2240 H   0  0  0  0  0  0  0  0  0  0  0  0
  -19.8940  -27.2290   20.3590 C   0  0  0  0  0  0  0  0  0  0  0  0
  -21.1390  -27.0030   22.6120 C   0  0  0  0  0  3  0  0  0  0  0  0
  -22.3180  -26.4350   21.7920 C   0  0  0  0  0  2  0  0  0  0  0  0
  -22.4200  -27.0350   20.3880 C   0  0  0  0  0  2  0  0  0  0  0  0
  -21.1320  -26.7790   19.6000 C   0  0  0  0  0  2  0  0  0  0  0  0
  -19.9040  -27.3480   21.7740 C   0  0  0  0  0  0  0  0  0  0  0  0
  -18.7400  -27.8000   22.4310 C   0  0  0  0  0  3  0  0  0  0  0  0
  -17.5870  -28.1370   21.7020 C   0  0  0  0  0  3  0  0  0  0  0  0
  -17.5720  -27.9960   20.3040 C   0  0  0  0  0  3  0  0  0  0  0  0
  -18.7210  -27.5340   19.6380 C   0  0  0  0  0  3  0  0  0  0  0  0
  -24.9460  -28.4900   28.2480 C   0  0  0  0  0  3  0  0  0  0  0  0
  -24.3580  -28.0280   29.5110 N   0  0  0  0  0  0  0  0  0  0  0  0
  -24.2480  -28.7790   30.6170 C   0  0  0  0  0  0  0  0  0  0  0  0
  -24.7050  -29.9230   30.6980 O   0  0  0  0  0  0  0  0  0  0  0  0
  -23.9150  -27.1210   29.4990 H   0  0  0  0  0  0  0  0  0  0  0  0
  -22.0860  -28.7370   31.8940 C   0  0  0  0  0  1  0  0  0  0  0  0
  -23.5110  -28.1660   31.8210 C   0  0  0  0  0  3  0  0  0  0  0  0
  -25.4580  -27.6450   33.2220 C   0  0  0  0  0  1  0  0  0  0  0  0
  -24.2050  -28.3870   33.1090 N   0  0  0  0  0  0  0  0  0  0  0  0
  -23.6100  -28.1260   33.8910 H   0  0  0  0  0  0  0  0  0  0  0  0
  -26.0930  -27.5160   27.7760 C   0  0  1  0  0  0  0  0  0  0  0  0
  -25.5850  -26.1020   27.4150 C   0  0  0  0  0  1  0  0  0  0  0  0
  -26.8260  -28.0830   26.5410 C   0  0  0  0  0  1  0  0  0  0  0  0
  -27.1600  -27.3830   28.8870 C   0  0  0  0  0  1  0  0  0  0  0  0
  1  2  1  0
  3  2  1  0
  4  3  1  0
  5  4  1  0
  6  5  1  0
  7  8  1  0
  7  6  1  0
  8  9  1  0
 10  9  1  0
 11 10  1  0
 12 11  1  0
 13 12  1  0
 14 13  1  0
 15 14  1  0
 15 16  1  0
 17 16  1  0
 17 18  1  0
 18 19  1  0
 19 28  1  0
 20 26  1  0
 21 26  1  0
 22 23  1  0
 22 21  1  0
 24 23  1  0
 24 33  1  0
 24 25  1  0
 26 25  1  0
 27 20  2  0
 28 29  1  0
 28 20  1  0
 30 31  2  0
 31 50  1  0
 32 35  1  0
 32 31  1  0
 33 34  1  0
 33 30  1  0
 34 32  2  0
 35 36  1  0
 36 37  2  0
 38 37  1  0
 39 38  2  0
 40 39  1  0
 40 35  2  0
 41 38  1  0
 41 42  1  0
 42 47  2  0
 42 43  1  0
 43 44  2  0
 44 45  1  0
 45 49  1  0
 46 45  2  0
 47 46  1  0
 48 47  1  0
 50 51  1  0
 51 54  1  0
 51 53  1  0
 52 50  2  0
 55 30  1  0
 55 56  1  0
 57 55  1  0
 58  1  1  0
 59 58  1  0
 60 59  1  0
 61 60  1  0
 62 64  1  0
 62 61  1  0
 63 61  2  0
 65 66  1  0
 65 62  1  0
 66 67  1  0
 67 68  1  0
 68 69  1  0
 69 70  1  0
 70 71  1  0
 72 74  1  0
 72 71  1  0
 73 84  2  0
 74 79  1  0
 75 85  1  0
 75 83  1  0
 76 82  1  0
 76 78  1  0
 77 83  1  0
 78 77  1  0
 79 78  2  0
 80 81  1  0
 80 74  2  0
 81 76  2  0
 82 75  1  0
 83 73  1  0
 85 87  2  0
 86 85  1  0
 88 86  1  0
 89 94  1  0
 90 86  1  0
 91 90  1  0
 92 91  1  0
 93 89  1  0
 93 92  1  0
 94 95  2  0
 94 90  1  0
 96 95  1  0
 97 96  2  0
 98 97  1  0
 98 89  2  0
 99 73  1  0
 99100  1  0
100101  1  0
101102  2  0
101105  1  0
103100  1  0
105104  1  0
105107  1  0
107106  1  0
107108  1  0
109 99  1  0
109112  1  1
110109  1  0
111109  1  0
M  ISO  4  20 100  28 100  71 101  72 101
M  END
>  <TORSDO>  (5) 
F 45

>  <SCORE>  (5) 
-0.362

>  <name>  (5) 
4

>  <ligand_id>  (5) 
4

>  <original_smiles>  (5) 
[H]c1c([H])c([H])c2c(c1[H])C([H])([H])C([H])([H])C([H])([H])C2([H])N([H])C(=O)C1([H])N(C(=O)C([H])(N([H])C(=O)C([H])(N([H])C([H])([H])[H])C([H])([H])[H])C(C([H])([H])[H])(C([H])([H])[H])C([H])([H])[H])C([H])([H])c2c([H])c(OC([H])([H])C([H])([H])C([H])([H])C([H])([H])C([H])([H])C([H])([H])C([H])([H])N([H])C(=O)C([H])([H])OC([H])([H])C([H])([H])OC([H])([H])C([H])([H])OC([H])([H])C([H])([H])OC([H])([H])C([H])([H])OC([H])([H])C([H])([H])OC([H])([H])C([H])([H])OC([H])([H])C([H])([H])N([H])C(=O)N3C([H])([H])C([H])([H])C([H])([H])C([H])(n4nc(-c5c([H])c([H])c(Oc6c([H])c([H])c(F)c([H])c6F)c([H])c5[H])c(C(=O)N([H])[H])c4N([H])[H])C3([H])[H])c([H])c([H])c2C1([H])[H]

>  <smiles>  (5) 
[H]c1c([H])c([H])c2c(c1[H])C([H])([H])C([H])([H])C([H])([H])C2([H])N([H])C(=O)C1([H])N(C(=O)C([H])(N([H])C(=O)C([H])(N([H])C([H])([H])[H])C([H])([H])[H])C(C([H])([H])[H])(C([H])([H])[H])C([H])([H])[H])C([H])([H])c2c([H])c(OC([H])([H])C([H])([H])C([H])([H])C([H])([H])C([H])([H])C([H])([H])C([H])([H])N([H])C(=O)C([H])([H])OC([H])([H])C([H])([H])OC([H])([H])C([H])([H])OC([H])([H])C([H])([H])OC([H])([H])C([H])([H])OC([H])([H])C([H])([H])OC([H])([H])C([H])([H])OC([H])([H])C([H])([H])N([H])C(=O)N3C([H])([H])C([H])([H])C([H])([H])C([H])(n4nc(-c5c([H])c([H])c(Oc6c([H])c([H])c(F)c([H])c6F)c([H])c5[H])c(C(=O)N([H])[H])c4N([H])[H])C3([H])[H])c([H])c([H])c2C1([H])[H]

$$$$
5:0:0
     RDKit          3D

104107  0  0  1  0  0  0  0  0999 V2000
  -20.8300  -20.0960   24.9040 C   0  0  0  0  0  2  0  0  0  0  0  0
  -20.1130  -20.0450   23.6790 O   0  0  0  0  0  0  0  0  0  0  0  0
  -19.9170  -21.3230   23.1030 C   0  0  0  0  0  2  0  0  0  0  0  0
  -19.3580  -21.1570   21.6870 C   0  0  0  0  0  2  0  0  0  0  0  0
  -19.5650  -22.3800   21.0030 O   0  0  0  0  0  0  0  0  0  0  0  0
  -18.9100  -22.4530   19.7440 C   0  0  0  0  0  2  0  0  0  0  0  0
  -19.0170  -23.9370   19.0980 C   0  0  0  0  0  1  0  0  0  0  0  0
  -22.0490  -25.4470   17.2050 C   0  0  0  0  0  0  0  0  0  0  0  0
  -20.5280  -25.0660   17.4290 N   0  0  0  0  0  2  0  0  0  0  0  0
  -22.1820  -25.7760   16.0290 O   0  0  0  0  0  0  0  0  0  0  0  0
  -19.9780  -25.3930   16.6470 H   0  0  0  0  0  0  0  0  0  0  0  0
  -23.7170  -25.3630   18.0420 C   0  0  0  0  0  2  0  0  0  0  0  0
  -25.0130  -26.3910   18.6510 O   0  0  0  0  0  0  0  0  0  0  0  0
  -24.5710  -30.3950   22.5060 C   0  0  0  0  0  0  0  0  0  0  0  0
  -26.2410  -26.9140   18.1640 C   0  0  0  0  0  3  0  0  0  0  0  0
  -23.4800  -29.9230   20.3920 C   0  0  0  0  0  3  0  0  0  0  0  0
  -24.8760  -29.1230   18.4150 C   0  0  0  0  0  0  0  0  0  0  0  0
  -26.0100  -29.8870   20.5130 C   0  0  0  0  0  2  0  0  0  0  0  0
  -25.9260  -28.9430   19.3260 C   0  0  0  0  0  3  0  0  0  0  0  0
  -26.7800  -27.8420   19.1040 C   0  0  0  0  0  2  0  0  0  0  0  0
  -25.8650  -27.4400   16.9570 C   0  0  0  0  0  2  0  0  0  0  0  0
  -24.9290  -28.4730   17.1530 C   0  0  0  0  0  3  0  0  0  0  0  0
  -23.7660  -30.0250   18.8660 C   0  0  0  0  0  2  0  0  0  0  0  0
  -24.7090  -30.1080   21.1850 N   0  0  0  0  0  0  0  0  0  0  0  0
  -23.4570  -30.5660   23.0260 O   0  0  0  0  0  0  0  0  0  0  0  0
  -22.8350  -28.6110   20.8820 C   0  0  0  0  0  0  0  0  0  0  0  0
  -21.6040  -28.7070   21.2840 N   0  0  0  0  0  0  0  0  0  0  0  0
  -23.4230  -27.5380   20.9790 O   0  0  0  0  0  0  0  0  0  0  0  0
  -21.1330  -29.5900   21.1530 H   0  0  0  0  0  0  0  0  0  0  0  0
  -17.8820  -28.8400   21.6920 C   0  0  0  0  0  0  0  0  0  0  0  0
  -20.7640  -27.5790   21.6440 C   0  0  0  0  0  2  0  0  0  0  0  0
  -20.3020  -26.1250   20.1030 C   0  0  0  0  0 15  0  0  0  0  0  0
  -18.3010  -26.4190   19.2490 C   0  0  0  0  0 15  0  0  0  0  0  0
  -17.1790  -27.8770   20.2180 C   0  0  0  0  0  1  0  0  0  0  0  0
  -19.4040  -28.7130   22.2760 C   0  0  0  0  0  0  0  0  0  0  0  0
  -19.6510  -29.2020   23.5770 C   0  0  0  0  0  3  0  0  0  0  0  0
  -18.6290  -29.6650   24.4150 C   0  0  0  0  0  3  0  0  0  0  0  0
  -17.2890  -29.6100   24.0110 C   0  0  0  0  0  3  0  0  0  0  0  0
  -16.9300  -29.1990   22.7020 C   0  0  0  0  0  3  0  0  0  0  0  0
  -25.8130  -30.5470   23.4090 C   0  0  0  0  0  3  0  0  0  0  0  0
  -26.0490  -29.3100   24.3550 C   0  0  1  0  0  0  0  0  0  0  0  0
  -24.8050  -28.8940   25.1730 C   0  0  0  0  0  1  0  0  0  0  0  0
  -26.5170  -28.0730   23.5530 C   0  0  0  0  0  1  0  0  0  0  0  0
  -27.1900  -29.6440   25.3430 C   0  0  0  0  0  1  0  0  0  0  0  0
  -25.6090  -31.7750   24.1830 N   0  0  0  0  0  0  0  0  0  0  0  0
  -26.1550  -32.9570   23.8720 C   0  0  0  0  0  0  0  0  0  0  0  0
  -26.9590  -33.0990   22.9480 O   0  0  0  0  0  0  0  0  0  0  0  0
  -24.9220  -31.7380   24.9210 H   0  0  0  0  0  0  0  0  0  0  0  0
  -24.7380  -35.0330   23.9550 C   0  0  0  0  0  1  0  0  0  0  0  0
  -25.7480  -34.1690   24.7270 C   0  0  0  0  0  3  0  0  0  0  0  0
  -27.7790  -34.3250   26.0980 C   0  0  0  0  0  1  0  0  0  0  0  0
  -26.8970  -34.9980   25.1470 N   0  0  0  0  0  0  0  0  0  0  0  0
  -26.5800  -35.8680   25.5670 H   0  0  0  0  0  0  0  0  0  0  0  0
  -21.6810  -18.8280   24.9900 C   0  0  0  0  0  2  0  0  0  0  0  0
  -22.7510  -18.9440   24.0610 O   0  0  0  0  0  0  0  0  0  0  0  0
  -23.4510  -17.7220   23.8980 C   0  0  0  0  0  2  0  0  0  0  0  0
  -24.6100  -17.8920   22.9060 C   0  0  0  0  0  2  0  0  0  0  0  0
  -24.1050  -18.0500   21.5810 O   0  0  0  0  0  0  0  0  0  0  0  0
  -24.6920  -17.1640   20.6280 C   0  0  0  0  0  2  0  0  0  0  0  0
  -25.9660  -17.7100   19.9520 C   0  0  0  0  0  2  0  0  0  0  0  0
  -27.1610  -17.1400   20.4860 O   0  0  0  0  0  0  0  0  0  0  0  0
  -28.2400  -17.1230   19.5450 C   0  0  0  0  0  2  0  0  0  0  0  0
  -29.6100  -17.1820   20.2530 C   0  0  0  0  0  2  0  0  0  0  0  0
  -30.4390  -16.0450   19.9740 O   0  0  0  0  0  0  0  0  0  0  0  0
  -31.7280  -16.1810   20.5800 C   0  0  0  0  0  2  0  0  0  0  0  0
  -32.7190  -15.0620   20.1860 C   0  0  0  0  0  2  0  0  0  0  0  0
  -32.7900  -12.5670   20.2280 C   0  0  0  0  0  0  0  0  0  0  0  0
  -32.0440  -10.4430   19.2460 C   0  0  0  0  0  2  0  0  0  0  0  0
  -31.1220  -10.7990   18.0560 C   0  0  0  0  0  2  0  0  0  0  0  0
  -29.6670  -11.0240   18.5190 C   0  0  0  0  0  2  0  0  0  0  0  0
  -29.5700  -11.9710   19.7450 C   0  0  0  0  0  3  0  0  0  0  0  0
  -30.5780  -11.5490   20.8370 C   0  0  0  0  0  2  0  0  0  0  0  0
  -31.9180  -11.5280   20.2290 N   0  0  0  0  0  0  0  0  0  0  0  0
  -33.9280  -12.5080   19.7560 O   0  0  0  0  0  0  0  0  0  0  0  0
  -32.2250  -13.7380   20.5610 N   0  0  0  0  0  0  0  0  0  0  0  0
  -31.2890  -13.6980   20.9340 H   0  0  0  0  0  0  0  0  0  0  0  0
  -27.4350  -13.1470   20.5720 C   0  0  0  0  0  0  0  0  0  0  0  0
  -26.2110  -12.6610   20.9480 C   0  0  0  0  0  0  0  0  0  0  0  0
  -26.3090  -11.2380   20.8520 C   0  0  0  0  0  0  0  0  0  0  0  0
  -28.2070  -12.0370   20.2660 N   0  0  0  0  0  0  0  0  0  0  0  0
  -27.5350  -10.8800   20.4940 N   0  0  0  0  0  0  0  0  0  0  0  0
  -25.2890  -10.1990   21.0260 C   0  0  0  0  0  0  0  0  0  0  0  0
  -25.4940   -9.1040   21.8940 C   0  0  0  0  0  3  0  0  0  0  0  0
  -24.4910   -8.1240   22.0590 C   0  0  0  0  0  3  0  0  0  0  0  0
  -23.2670   -8.2370   21.3570 C   0  0  0  0  0  0  0  0  0  0  0  0
  -23.0780   -9.3160   20.4770 C   0  0  0  0  0  3  0  0  0  0  0  0
  -24.0790  -10.2880   20.3090 C   0  0  0  0  0  3  0  0  0  0  0  0
  -22.2470   -7.3220   21.4360 O   0  0  0  0  0  0  0  0  0  0  0  0
  -22.0280   -6.5860   22.5720 C   0  0  0  0  0  0  0  0  0  0  0  0
  -21.7570   -7.1970   23.8170 C   0  0  0  0  0  3  0  0  0  0  0  0
  -21.4680   -6.4010   24.9430 C   0  0  0  0  0  3  0  0  0  0  0  0
  -21.4410   -4.9980   24.8270 C   0  0  0  0  0  0  0  0  0  0  0  0
  -21.7050   -4.3890   23.5880 C   0  0  0  0  0  3  0  0  0  0  0  0
  -21.9940   -5.1810   22.4630 C   0  0  0  0  0  0  0  0  0  0  0  0
  -22.2280   -4.5890   21.2670 F   0  0  0  0  0  0  0  0  0  0  0  0
  -21.1540   -4.2340   25.9070 F   0  0  0  0  0  0  0  0  0  0  0  0
  -24.9920  -13.4660   21.2890 C   0  0  0  0  0  0  0  0  0  0  0  0
  -24.1640  -12.9640   22.2000 N   0  0  0  0  0  0  0  0  0  0  0  0
  -24.7880  -14.5640   20.7760 O   0  0  0  0  0  0  0  0  0  0  0  0
  -24.3470  -12.0710   22.6370 H   0  0  0  0  0  0  0  0  0  0  0  0
  -23.3360  -13.4790   22.4660 H   0  0  0  0  0  0  0  0  0  0  0  0
  -27.9440  -14.4330   20.4470 N   0  0  0  0  0  0  0  0  0  0  0  0
  -27.3770  -15.2630   20.5960 H   0  0  0  0  0  0  0  0  0  0  0  0
  -28.8860  -14.6590   20.1510 H   0  0  0  0  0  0  0  0  0  0  0  0
  1 54  1  0
  2  1  1  0
  3  2  1  0
  4  3  1  0
  5  4  1  0
  6  5  1  0
  7  6  1  0
  8  9  1  0
  8 12  1  0
 10  8  2  0
 11  9  1  0
 12 13  1  0
 14 25  2  0
 15 13  1  0
 15 20  1  0
 16 26  1  0
 16 24  1  0
 17 23  1  0
 17 19  1  0
 18 24  1  0
 19 20  1  0
 19 18  1  0
 21 22  1  0
 21 15  1  0
 22 17  2  0
 23 16  1  0
 24 14  1  0
 26 28  2  0
 26 27  1  0
 27 31  1  0
 29 27  1  0
 30 35  2  0
 30 39  1  0
 31 35  1  0
 34 30  1  0
 35 36  1  0
 36 37  2  0
 38 37  1  0
 39 38  2  0
 40 14  1  0
 40 45  1  0
 40 41  1  0
 41 42  1  1
 41 44  1  0
 43 41  1  0
 45 48  1  0
 46 45  1  0
 46 50  1  0
 47 46  2  0
 50 49  1  0
 50 52  1  0
 52 53  1  0
 52 51  1  0
 55 54  1  0
 56 55  1  0
 57 56  1  0
 58 57  1  0
 59 58  1  0
 60 61  1  0
 60 59  1  0
 62 63  1  0
 62 61  1  0
 64 63  1  0
 64 65  1  0
 66 75  1  0
 66 65  1  0
 67 73  1  0
 67 75  1  0
 68 73  1  0
 69 70  1  0
 69 68  1  0
 71 70  1  0
 71 80  1  0
 71 72  1  0
 73 72  1  0
 74 67  2  0
 75 76  1  0
 77 78  2  0
 78 97  1  0
 79 78  1  0
 79 82  1  0
 80 81  1  0
 80 77  1  0
 81 79  2  0
 82 83  1  0
 83 84  2  0
 85 88  1  0
 85 84  1  0
 86 85  2  0
 87 86  1  0
 87 82  2  0
 88 89  1  0
 89 90  1  0
 90 91  2  0
 92 91  1  0
 92 96  1  0
 93 92  2  0
 94 89  2  0
 94 93  1  0
 95 94  1  0
 97 98  1  0
 98101  1  0
 98100  1  0
 99 97  2  0
102 77  1  0
102103  1  0
104102  1  0
M  ISO  4  12 101  13 101  67 100  75 100
M  END
>  <TORSDO>  (6) 
F 37

>  <SCORE>  (6) 
23.709

>  <name>  (6) 
5

>  <ligand_id>  (6) 
5

>  <original_smiles>  (6) 
[H]c1c([H])c([H])c2c(c1[H])C([H])([H])C([H])([H])C([H])([H])C2([H])N([H])C(=O)C1([H])N(C(=O)C([H])(N([H])C(=O)C([H])(N([H])C([H])([H])[H])C([H])([H])[H])C(C([H])([H])[H])(C([H])([H])[H])C([H])([H])[H])C([H])([H])c2c([H])c(OC([H])([H])C(=O)N([H])C([H])([H])C([H])([H])OC([H])([H])C([H])([H])OC([H])([H])C([H])([H])OC([H])([H])C([H])([H])OC([H])([H])C([H])([H])OC([H])([H])C([H])([H])OC([H])([H])C([H])([H])N([H])C(=O)N3C([H])([H])C([H])([H])C([H])([H])C([H])(n4nc(-c5c([H])c([H])c(Oc6c([H])c([H])c(F)c([H])c6F)c([H])c5[H])c(C(=O)N([H])[H])c4N([H])[H])C3([H])[H])c([H])c([H])c2C1([H])[H]

>  <smiles>  (6) 
[H]c1c([H])c([H])c2c(c1[H])C([H])([H])C([H])([H])C([H])([H])C2([H])N([H])C(=O)C1([H])N(C(=O)C([H])(N([H])C(=O)C([H])(N([H])C([H])([H])[H])C([H])([H])[H])C(C([H])([H])[H])(C([H])([H])[H])C([H])([H])[H])C([H])([H])c2c([H])c(OC([H])([H])C(=O)N([H])C([H])([H])C([H])([H])OC([H])([H])C([H])([H])OC([H])([H])C([H])([H])OC([H])([H])C([H])([H])OC([H])([H])C([H])([H])OC([H])([H])C([H])([H])OC([H])([H])C([H])([H])N([H])C(=O)N3C([H])([H])C([H])([H])C([H])([H])C([H])(n4nc(-c5c([H])c([H])c(Oc6c([H])c([H])c(F)c([H])c6F)c([H])c5[H])c(C(=O)N([H])[H])c4N([H])[H])C3([H])[H])c([H])c([H])c2C1([H])[H]

$$$$
6:0:0
     RDKit          3D

106114  0  0  1  0  0  0  0  0999 V2000
  -31.8370  -20.9000   15.3710 C   0  0  0  0  0  2  0  0  0  0  0  0
  -32.7380  -21.6120   16.2050 O   0  0  0  0  0  0  0  0  0  0  0  0
  -32.2590  -21.7490   17.5350 C   0  0  0  0  0  2  0  0  0  0  0  0
  -33.4430  -22.1010   18.4360 C   0  0  0  0  0  2  0  0  0  0  0  0
  -34.1210  -23.2050   17.8600 O   0  0  0  0  0  0  0  0  0  0  0  0
  -35.5180  -23.1930   18.1010 C   0  0  0  0  0  2  0  0  0  0  0  0
  -35.9900  -24.6490   18.2190 C   0  0  0  0  0  2  0  0  0  0  0  0
  -37.3760  -24.7320   18.5380 O   0  0  0  0  0  0  0  0  0  0  0  0
  -37.6740  -25.0110   19.9040 C   0  0  0  0  0  2  0  0  0  0  0  0
  -38.0870  -23.7660   20.7120 C   0  0  0  0  0  2  0  0  0  0  0  0
  -36.9600  -23.1980   21.3660 O   0  0  0  0  0  0  0  0  0  0  0  0
  -37.2550  -21.9600   22.0060 C   0  0  0  0  0  2  0  0  0  0  0  0
  -36.0420  -21.5140   22.8400 C   0  0  0  0  0  2  0  0  0  0  0  0
  -34.9220  -21.1210   22.0520 O   0  0  0  0  0  0  0  0  0  0  0  0
  -34.5590  -19.7480   22.1790 C   0  0  0  0  0  2  0  0  0  0  0  0
  -33.5070  -19.4390   21.1080 C   0  0  0  0  0  2  0  0  0  0  0  0
  -31.1120  -20.0630   20.9020 C   0  0  0  0  0  0  0  0  0  0  0  0
  -28.8030  -20.9240   20.7550 C   0  0  0  0  0  2  0  0  0  0  0  0
  -28.6310  -21.8400   19.5280 C   0  0  0  0  0  2  0  0  0  0  0  0
  -29.0440  -23.2880   19.8650 C   0  0  0  0  0  2  0  0  0  0  0  0
  -30.4320  -23.3680   20.5600 C   0  0  0  0  0  3  0  0  0  0  0  0
  -30.4990  -22.3660   21.7310 C   0  0  0  0  0  2  0  0  0  0  0  0
  -30.2000  -21.0210   21.2030 N   0  0  0  0  0  0  0  0  0  0  0  0
  -30.8280  -19.0050   20.3330 O   0  0  0  0  0  0  0  0  0  0  0  0
  -32.3680  -20.3400   21.2590 N   0  0  0  0  0  0  0  0  0  0  0  0
  -32.5650  -21.2570   21.6310 H   0  0  0  0  0  0  0  0  0  0  0  0
  -31.8250  -25.5320   20.7040 C   0  0  0  0  0  0  0  0  0  0  0  0
  -31.5850  -26.7320   21.3130 C   0  0  0  0  0  0  0  0  0  0  0  0
  -30.3240  -26.5970   21.9710 C   0  0  0  0  0  0  0  0  0  0  0  0
  -30.7370  -24.7280   21.0030 N   0  0  0  0  0  0  0  0  0  0  0  0
  -29.8550  -25.3650   21.8170 N   0  0  0  0  0  0  0  0  0  0  0  0
  -29.5130  -27.5830   22.6940 C   0  0  0  0  0  0  0  0  0  0  0  0
  -29.5800  -27.7040   24.1000 C   0  0  0  0  0  3  0  0  0  0  0  0
  -28.8010  -28.6690   24.7740 C   0  0  0  0  0  3  0  0  0  0  0  0
  -27.9470  -29.5300   24.0400 C   0  0  0  0  0  0  0  0  0  0  0  0
  -27.8690  -29.3910   22.6430 C   0  0  0  0  0  3  0  0  0  0  0  0
  -28.6410  -28.4260   21.9760 C   0  0  0  0  0  3  0  0  0  0  0  0
  -27.1350  -30.4790   24.6110 O   0  0  0  0  0  0  0  0  0  0  0  0
  -27.6310  -31.4290   25.4670 C   0  0  0  0  0  0  0  0  0  0  0  0
  -28.3760  -32.5340   25.0030 C   0  0  0  0  0  3  0  0  0  0  0  0
  -28.8050  -33.5260   25.9080 C   0  0  0  0  0  3  0  0  0  0  0  0
  -28.4840  -33.4190   27.2740 C   0  0  0  0  0  0  0  0  0  0  0  0
  -27.7350  -32.3230   27.7370 C   0  0  0  0  0  3  0  0  0  0  0  0
  -27.3080  -31.3320   26.8360 C   0  0  0  0  0  0  0  0  0  0  0  0
  -26.5690  -30.2870   27.2840 F   0  0  0  0  0  0  0  0  0  0  0  0
  -28.8880  -34.3740   28.1440 F   0  0  0  0  0  0  0  0  0  0  0  0
  -32.4290  -27.9720   21.2140 C   0  0  0  0  0  0  0  0  0  0  0  0
  -32.8950  -28.4900   22.3450 N   0  0  0  0  0  0  0  0  0  0  0  0
  -32.7220  -28.4590   20.1230 O   0  0  0  0  0  0  0  0  0  0  0  0
  -32.6780  -28.0740   23.2380 H   0  0  0  0  0  0  0  0  0  0  0  0
  -33.4760  -29.3150   22.3120 H   0  0  0  0  0  0  0  0  0  0  0  0
  -32.8680  -25.0670   19.9090 N   0  0  0  0  0  0  0  0  0  0  0  0
  -33.6630  -25.6530   19.6750 H   0  0  0  0  0  0  0  0  0  0  0  0
  -32.9320  -24.1320   19.5250 H   0  0  0  0  0  0  0  0  0  0  0  0
  -31.9520  -21.4590   13.9480 C   0  0  0  0  0  2  0  0  0  0  0  0
  -31.4620  -22.7960   13.9220 O   0  0  0  0  0  0  0  0  0  0  0  0
  -31.7470  -23.4460   12.6910 C   0  0  0  0  0  2  0  0  0  0  0  0
  -31.3640  -24.9300   12.7880 C   0  0  0  0  0  2  0  0  0  0  0  0
  -33.6770  -27.4130   14.6080 C   0  0  0  0  0  2  0  0  0  0  0  0
  -31.9510  -26.7800   16.1040 C   0  0  0  0  0  2  0  0  0  0  0  0
  -32.9440  -26.7380   13.4290 C   0  0  0  0  0  2  0  0  0  0  0  0
  -31.1610  -26.1010   14.9690 C   0  0  0  0  0  2  0  0  0  0  0  0
  -32.6870  -27.9200   15.5590 N   0  0  0  0  0  0  0  0  0  0  0  0
  -32.0770  -25.6230   13.8980 N   0  0  1  0  0  4  0  0  0  0  0  0
  -32.6900  -24.9400   14.3220 H   0  0  0  0  0  0  0  0  0  0  0  0
  -33.4380  -28.4530   16.6650 O   0  0  0  0  0  0  0  0  0  0  0  0
  -36.3590  -34.7710   18.1370 C   0  0  0  0  0  0  0  0  0  0  0  0
  -33.2840  -29.8150   16.7140 C   0  0  0  0  0  0  0  0  0  0  0  0
  -33.9200  -34.7790   17.7180 C   0  0  0  0  0  3  0  0  0  0  0  0
  -32.9540  -32.6140   16.7820 C   0  0  0  0  0  0  0  0  0  0  0  0
  -35.4220  -33.0030   16.6550 C   0  0  0  0  0  2  0  0  0  0  0  0
  -34.2390  -32.0610   16.7030 C   0  0  0  0  0  0  0  0  0  0  0  0
  -34.4100  -30.6610   16.6670 C   0  0  0  0  0  3  0  0  0  0  0  0
  -31.9960  -30.3800   16.8190 C   0  0  0  0  0  3  0  0  0  0  0  0
  -31.8260  -31.7770   16.8470 C   0  0  0  0  0  3  0  0  0  0  0  0
  -32.8590  -34.1220   16.7960 C   0  0  0  0  0  2  0  0  0  0  0  0
  -35.2830  -34.1810   17.5440 N   0  0  0  0  0  0  0  0  0  0  0  0
  -36.2370  -35.8190   18.7850 O   0  0  0  0  0  0  0  0  0  0  0  0
  -33.4080  -34.7180   19.1760 C   0  0  0  0  0  0  0  0  0  0  0  0
  -32.9410  -35.8660   19.6920 N   0  0  0  0  0  0  0  0  0  0  0  0
  -33.4100  -33.6560   19.8020 O   0  0  0  0  0  0  0  0  0  0  0  0
  -32.9830  -36.6960   19.1160 H   0  0  0  0  0  0  0  0  0  0  0  0
  -32.1010  -38.3300   22.1960 C   0  0  0  0  0  0  0  0  0  0  0  0
  -32.3750  -36.0400   21.0290 C   0  0  0  0  0  3  0  0  0  0  0  0
  -30.8300  -35.9910   20.9880 C   0  0  0  0  0  2  0  0  0  0  0  0
  -30.1850  -37.3730   20.8480 C   0  0  0  0  0  2  0  0  0  0  0  0
  -30.5940  -38.2780   22.0150 C   0  0  0  0  0  2  0  0  0  0  0  0
  -32.9390  -37.2880   21.7180 C   0  0  0  0  0  0  0  0  0  0  0  0
  -34.3360  -37.4040   21.8820 C   0  0  0  0  0  3  0  0  0  0  0  0
  -34.8980  -38.5310   22.5100 C   0  0  0  0  0  3  0  0  0  0  0  0
  -34.0620  -39.5530   22.9940 C   0  0  0  0  0  3  0  0  0  0  0  0
  -32.6690  -39.4490   22.8410 C   0  0  0  0  0  3  0  0  0  0  0  0
  -37.7940  -34.1730   18.0100 C   0  0  0  0  0  3  0  0  0  0  0  0
  -38.7220  -35.2900   17.7920 N   0  0  0  0  0  0  0  0  0  0  0  0
  -39.1220  -35.7220   16.5890 C   0  0  0  0  0  0  0  0  0  0  0  0
  -38.7990  -35.1660   15.5360 O   0  0  0  0  0  0  0  0  0  0  0  0
  -38.9830  -35.8260   18.6070 H   0  0  0  0  0  0  0  0  0  0  0  0
  -39.1800  -38.2030   16.1890 C   0  0  0  0  0  1  0  0  0  0  0  0
  -40.0240  -36.9700   16.5480 C   0  0  0  0  0  3  0  0  0  0  0  0
  -42.2140  -35.9630   16.0810 C   0  0  0  0  0  1  0  0  0  0  0  0
  -41.1550  -36.8470   15.6030 N   0  0  0  0  0  0  0  0  0  0  0  0
  -41.5650  -37.7590   15.4110 H   0  0  0  0  0  0  0  0  0  0  0  0
  -38.2280  -33.3220   19.2670 C   0  0  1  0  0  0  0  0  0  0  0  0
  -38.2090  -34.1200   20.5920 C   0  0  0  0  0  1  0  0  0  0  0  0
  -37.3010  -32.0960   19.4400 C   0  0  0  0  0  1  0  0  0  0  0  0
  -39.6580  -32.7710   19.0600 C   0  0  0  0  0  1  0  0  0  0  0  0
  1  2  1  0
  2  3  1  0
  3  4  1  0
  5  6  1  0
  5  4  1  0
  6  7  1  0
  7  8  1  0
  8  9  1  0
  9 10  1  0
 10 11  1  0
 11 12  1  0
 12 13  1  0
 14 15  1  0
 14 13  1  0
 16 25  1  0
 16 15  1  0
 17 23  1  0
 17 25  1  0
 18 23  1  0
 19 20  1  0
 19 18  1  0
 21 20  1  0
 21 30  1  0
 21 22  1  0
 23 22  1  0
 24 17  2  0
 25 26  1  0
 27 30  1  0
 27 28  2  0
 28 29  1  0
 29 32  1  0
 30 31  1  0
 31 29  2  0
 32 33  1  0
 33 34  2  0
 35 38  1  0
 35 34  1  0
 36 35  2  0
 37 36  1  0
 37 32  2  0
 38 39  1  0
 39 44  1  0
 40 39  2  0
 40 41  1  0
 41 42  2  0
 42 43  1  0
 42 46  1  0
 44 45  1  0
 44 43  2  0
 47 28  1  0
 47 48  1  0
 48 50  1  0
 49 47  2  0
 51 48  1  0
 52 27  1  0
 53 52  1  0
 54 52  1  0
 55  1  1  0
 56 55  1  0
 57 58  1  0
 57 56  1  0
 58 64  1  0
 59 63  1  0
 61 64  1  0
 61 59  1  0
 62 60  1  0
 63 60  1  0
 63 66  1  0
 64 65  1  1
 64 62  1  0
 66 68  1  0
 67 78  2  0
 68 74  1  0
 69 79  1  0
 70 76  1  0
 70 75  1  0
 71 72  1  0
 71 77  1  0
 72 70  2  0
 73 72  1  0
 73 68  2  0
 74 75  2  0
 76 69  1  0
 77 69  1  0
 77 67  1  0
 79 80  1  0
 79 81  2  0
 82 80  1  0
 83 92  1  0
 84 80  1  0
 84 88  1  0
 85 84  1  0
 86 85  1  0
 86 87  1  0
 87 83  1  0
 88 89  1  0
 88 83  2  0
 89 90  2  0
 90 91  1  0
 92 91  2  0
 93 67  1  0
 93103  1  0
 94 93  1  0
 94 97  1  0
 95 94  1  0
 96 95  2  0
 99 98  1  0
 99 95  1  0
101100  1  0
101 99  1  0
102101  1  0
103105  1  1
103104  1  0
106103  1  0
M  ISO  4  17 100  25 100  63 101  66 101
M  END
>  <TORSDO>  (7) 
F 36

>  <SCORE>  (7) 
-3.856

>  <name>  (7) 
6

>  <ligand_id>  (7) 
6

>  <original_smiles>  (7) 
[H]c1c([H])c([H])c2c(c1[H])C([H])([H])C([H])([H])C([H])([H])C2([H])N([H])C(=O)C1([H])N(C(=O)C([H])(N([H])C(=O)C([H])(N([H])C([H])([H])[H])C([H])([H])[H])C(C([H])([H])[H])(C([H])([H])[H])C([H])([H])[H])C([H])([H])c2c([H])c(ON3C([H])([H])C([H])([H])[N+]([H])(C([H])([H])C([H])([H])OC([H])([H])C([H])([H])OC([H])([H])C([H])([H])OC([H])([H])C([H])([H])OC([H])([H])C([H])([H])OC([H])([H])C([H])([H])OC([H])([H])C([H])([H])N([H])C(=O)N4C([H])([H])C([H])([H])C([H])([H])C([H])(n5nc(-c6c([H])c([H])c(Oc7c([H])c([H])c(F)c([H])c7F)c([H])c6[H])c(C(=O)N([H])[H])c5N([H])[H])C4([H])[H])C([H])([H])C3([H])[H])c([H])c([H])c2C1([H])[H]

>  <smiles>  (7) 
[H]c1c([H])c([H])c2c(c1[H])C([H])([H])C([H])([H])C([H])([H])C2([H])N([H])C(=O)C1([H])N(C(=O)C([H])(N([H])C(=O)C([H])(N([H])C([H])([H])[H])C([H])([H])[H])C(C([H])([H])[H])(C([H])([H])[H])C([H])([H])[H])C([H])([H])c2c([H])c(ON3C([H])([H])C([H])([H])[N+]([H])(C([H])([H])C([H])([H])OC([H])([H])C([H])([H])OC([H])([H])C([H])([H])OC([H])([H])C([H])([H])OC([H])([H])C([H])([H])OC([H])([H])C([H])([H])OC([H])([H])C([H])([H])N([H])C(=O)N4C([H])([H])C([H])([H])C([H])([H])C([H])(n5nc(-c6c([H])c([H])c(Oc7c([H])c([H])c(F)c([H])c7F)c([H])c6[H])c(C(=O)N([H])[H])c5N([H])[H])C4([H])[H])C([H])([H])C3([H])[H])c([H])c([H])c2C1([H])[H]

$$$$
7:0:0
     RDKit          3D

107111  0  0  1  0  0  0  0  0999 V2000
  -27.8520  -18.3370   16.9050 C   0  0  0  0  0  2  0  0  0  0  0  0
  -29.0590  -17.6220   17.1450 O   0  0  0  0  0  0  0  0  0  0  0  0
  -29.2890  -17.4200   18.5360 C   0  0  0  0  0  2  0  0  0  0  0  0
  -30.2880  -16.2770   18.7650 C   0  0  0  0  0  2  0  0  0  0  0  0
  -31.5710  -16.5990   18.2420 O   0  0  0  0  0  0  0  0  0  0  0  0
  -32.5200  -15.5730   18.5170 C   0  0  0  0  0  2  0  0  0  0  0  0
  -33.8960  -15.9060   17.9250 C   0  0  0  0  0  2  0  0  0  0  0  0
  -34.5210  -16.9310   18.6990 O   0  0  0  0  0  0  0  0  0  0  0  0
  -35.9030  -16.6860   18.9390 C   0  0  0  0  0  2  0  0  0  0  0  0
  -36.5850  -17.9020   19.5900 C   0  0  0  0  0  2  0  0  0  0  0  0
  -36.0070  -18.1780   20.8620 O   0  0  0  0  0  0  0  0  0  0  0  0
  -36.6030  -19.2980   21.5100 C   0  0  0  0  0  2  0  0  0  0  0  0
  -35.8700  -19.5930   22.8290 C   0  0  0  0  0  2  0  0  0  0  0  0
  -34.5080  -19.9350   22.5900 O   0  0  0  0  0  0  0  0  0  0  0  0
  -34.2600  -21.3120   22.3380 C   0  0  0  0  0  2  0  0  0  0  0  0
  -32.8570  -21.4890   21.7190 C   0  0  0  0  0  2  0  0  0  0  0  0
  -32.4890  -20.3670   18.9580 C   0  0  2  0  0  0  0  0  0  0  0  0
  -33.5440  -19.3010   19.5630 C   0  0  0  0  0  1  0  0  0  0  0  0
  -32.1030  -18.8240   20.7110 C   0  0  0  0  0  1  0  0  0  0  0  0
  -30.6430  -19.8230   20.7400 C   0  0  0  0  0  2  0  0  0  0  0  0
  -30.3310  -21.1290   19.6200 C   0  0  0  0  0  2  0  0  0  0  0  0
  -31.6600  -21.6510   18.4080 C   0  0  0  0  0  1  0  0  0  0  0  0
  -33.2230  -20.7470   18.4780 N   0  0  0  0  0  1  0  0  0  0  0  0
  -31.8430  -19.4030   18.1960 O   0  0  0  0  0  1  0  0  0  0  0  0
  -32.8680  -21.3010   20.2460 N   0  0  0  0  0  2  0  0  0  0  0  0
  -33.5240  -21.9670   19.8700 H   0  0  0  0  0  0  0  0  0  0  0  0
  -28.1710  -22.4000   20.0990 C   0  0  0  0  0  0  0  0  0  0  0  0
  -27.8520  -23.5140   20.8220 C   0  0  0  0  0  0  0  0  0  0  0  0
  -29.0740  -23.9750   21.4020 C   0  0  0  0  0  0  0  0  0  0  0  0
  -29.5380  -22.2240   20.2120 N   0  0  0  0  0  0  0  0  0  0  0  0
  -30.0900  -23.2030   20.9930 N   0  0  0  0  0  0  0  0  0  0  0  0
  -29.3000  -25.0830   22.3550 C   0  0  0  0  0  0  0  0  0  0  0  0
  -30.1480  -26.1720   22.0460 C   0  0  0  0  0  3  0  0  0  0  0  0
  -30.3170  -27.2380   22.9600 C   0  0  0  0  0  3  0  0  0  0  0  0
  -29.6300  -27.2330   24.1970 C   0  0  0  0  0  0  0  0  0  0  0  0
  -28.7980  -26.1430   24.5080 C   0  0  0  0  0  3  0  0  0  0  0  0
  -28.6350  -25.0810   23.6000 C   0  0  0  0  0  3  0  0  0  0  0  0
  -29.7600  -28.2100   25.1580 O   0  0  0  0  0  0  0  0  0  0  0  0
  -30.0210  -29.5170   24.8320 C   0  0  0  0  0  0  0  0  0  0  0  0
  -29.2680  -30.2030   23.8530 C   0  0  0  0  0  3  0  0  0  0  0  0
  -29.5200  -31.5660   23.5970 C   0  0  0  0  0  3  0  0  0  0  0  0
  -30.5170  -32.2470   24.3220 C   0  0  0  0  0  0  0  0  0  0  0  0
  -31.2640  -31.5670   25.3010 C   0  0  0  0  0  3  0  0  0  0  0  0
  -31.0130  -30.2080   25.5580 C   0  0  0  0  0  0  0  0  0  0  0  0
  -31.7210  -29.5660   26.5180 F   0  0  0  0  0  0  0  0  0  0  0  0
  -30.7550  -33.5560   24.0790 F   0  0  0  0  0  0  0  0  0  0  0  0
  -26.4680  -24.0610   21.0300 C   0  0  0  0  0  0  0  0  0  0  0  0
  -26.3240  -25.3790   21.0750 N   0  0  0  0  0  0  0  0  0  0  0  0
  -25.4910  -23.3140   21.0880 O   0  0  0  0  0  0  0  0  0  0  0  0
  -27.1190  -25.9950   20.9960 H   0  0  0  0  0  0  0  0  0  0  0  0
  -25.4040  -25.7780   21.1930 H   0  0  0  0  0  0  0  0  0  0  0  0
  -27.3960  -21.5120   19.3580 N   0  0  0  0  0  0  0  0  0  0  0  0
  -26.3900  -21.6190   19.2810 H   0  0  0  0  0  0  0  0  0  0  0  0
  -27.7470  -20.6980   18.8670 H   0  0  0  0  0  0  0  0  0  0  0  0
  -27.8820  -18.9440   15.4950 C   0  0  0  0  0  2  0  0  0  0  0  0
  -29.3420  -20.9370   15.7480 C   0  0  0  0  0  0  0  0  0  0  0  0
  -29.1010  -19.7130   15.2640 N   0  0  0  0  0  0  0  0  0  0  0  0
  -28.5300  -21.5370   16.4580 O   0  0  0  0  0  0  0  0  0  0  0  0
  -29.8190  -19.2770   14.7000 H   0  0  0  0  0  0  0  0  0  0  0  0
  -30.6870  -21.5760   15.3790 C   0  0  0  0  0  2  0  0  0  0  0  0
  -30.8280  -22.8290   16.0430 O   0  0  0  0  0  0  0  0  0  0  0  0
  -31.9580  -23.5680   15.5980 C   0  0  0  0  0  2  0  0  0  0  0  0
  -32.3330  -24.5950   16.6720 C   0  0  0  0  0  2  0  0  0  0  0  0
  -31.2330  -25.4680   16.9000 O   0  0  0  0  0  0  0  0  0  0  0  0
  -31.1630  -25.9140   18.2490 C   0  0  0  0  0  2  0  0  0  0  0  0
  -30.1300  -27.0400   18.3860 C   0  0  0  0  0  2  0  0  0  0  0  0
  -28.9730  -26.6630   17.6480 O   0  0  0  0  0  0  0  0  0  0  0  0
  -23.9220  -28.5230   22.3650 C   0  0  0  0  0  0  0  0  0  0  0  0
  -27.7570  -27.2450   17.9320 C   0  0  0  0  0  0  0  0  0  0  0  0
  -23.2810  -28.6110   19.9750 C   0  0  0  0  0  3  0  0  0  0  0  0
  -25.1980  -28.3860   18.3100 C   0  0  0  0  0  0  0  0  0  0  0  0
  -25.7090  -28.9660   20.6880 C   0  0  0  0  0  2  0  0  0  0  0  0
  -26.1220  -28.3700   19.3620 C   0  0  0  0  0  0  0  0  0  0  0  0
  -27.4030  -27.8090   19.1800 C   0  0  0  0  0  3  0  0  0  0  0  0
  -26.8150  -27.2660   16.8840 C   0  0  0  0  0  3  0  0  0  0  0  0
  -25.5390  -27.8330   17.0630 C   0  0  0  0  0  3  0  0  0  0  0  0
  -23.8560  -29.0200   18.5910 C   0  0  0  0  0  2  0  0  0  0  0  0
  -24.3080  -28.6690   21.0650 N   0  0  0  0  0  0  0  0  0  0  0  0
  -22.7290  -28.3870   22.6670 O   0  0  0  0  0  0  0  0  0  0  0  0
  -22.6110  -27.2260   19.8370 C   0  0  0  0  0  0  0  0  0  0  0  0
  -21.2770  -27.2210   19.6890 N   0  0  0  0  0  0  0  0  0  0  0  0
  -23.2870  -26.1930   19.8360 O   0  0  0  0  0  0  0  0  0  0  0  0
  -20.7950  -28.1090   19.7080 H   0  0  0  0  0  0  0  0  0  0  0  0
  -17.8600  -26.0510   19.7000 C   0  0  0  0  0  0  0  0  0  0  0  0
  -20.4370  -26.0380   19.5050 C   0  0  0  0  0  3  0  0  0  0  0  0
  -20.2200  -25.7400   18.0030 C   0  0  0  0  0  2  0  0  0  0  0  0
  -18.9470  -26.3790   17.4390 C   0  0  0  0  0  2  0  0  0  0  0  0
  -17.7140  -25.8800   18.1970 C   0  0  0  0  0  2  0  0  0  0  0  0
  -19.1370  -26.1420   20.3110 C   0  0  0  0  0  0  0  0  0  0  0  0
  -19.2170  -26.3360   21.7080 C   0  0  0  0  0  3  0  0  0  0  0  0
  -18.0500  -26.4360   22.4880 C   0  0  0  0  0  3  0  0  0  0  0  0
  -16.7870  -26.3310   21.8800 C   0  0  0  0  0  3  0  0  0  0  0  0
  -16.6940  -26.1360   20.4900 C   0  0  0  0  0  3  0  0  0  0  0  0
  -24.9570  -28.5430   23.5330 C   0  0  0  0  0  3  0  0  0  0  0  0
  -24.7320  -27.3890   24.5850 C   0  0  1  0  0  0  0  0  0  0  0  0
  -23.2840  -27.3150   25.1240 C   0  0  0  0  0  1  0  0  0  0  0  0
  -25.0790  -26.0140   23.9670 C   0  0  0  0  0  1  0  0  0  0  0  0
  -25.6810  -27.5860   25.7910 C   0  0  0  0  0  1  0  0  0  0  0  0
  -24.8700  -29.8600   24.1770 N   0  0  0  0  0  0  0  0  0  0  0  0
  -25.7700  -30.8410   24.0220 C   0  0  0  0  0  0  0  0  0  0  0  0
  -26.8080  -30.7010   23.3700 O   0  0  0  0  0  0  0  0  0  0  0  0
  -24.0190  -30.0630   24.6800 H   0  0  0  0  0  0  0  0  0  0  0  0
  -25.0060  -33.2060   23.6380 C   0  0  0  0  0  1  0  0  0  0  0  0
  -25.4690  -32.1920   24.6970 C   0  0  0  0  0  3  0  0  0  0  0  0
  -26.8910  -32.0340   26.6920 C   0  0  0  0  0  1  0  0  0  0  0  0
  -26.6180  -32.7440   25.4460 N   0  0  0  0  0  0  0  0  0  0  0  0
  -26.4680  -33.7260   25.6660 H   0  0  0  0  0  0  0  0  0  0  0  0
  1  2  1  0
  2  3  1  0
  3  4  1  0
  5  6  1  0
  5  4  1  0
  7  6  1  0
  7  8  1  0
  8  9  1  0
  9 10  1  0
 10 11  1  0
 11 12  1  0
 12 13  1  0
 14 13  1  0
 15 14  1  0
 16 15  1  0
 17 18  1  1
 19 20  1  0
 21 30  1  0
 21 20  1  0
 22 17  1  0
 23 17  1  0
 24 17  1  0
 25 16  1  0
 26 25  1  0
 27 30  1  0
 27 28  2  0
 28 47  1  0
 28 29  1  0
 29 32  1  0
 30 31  1  0
 31 29  2  0
 32 37  1  0
 33 32  2  0
 33 34  1  0
 34 35  2  0
 35 36  1  0
 35 38  1  0
 37 36  2  0
 39 38  1  0
 39 44  1  0
 40 39  2  0
 41 40  1  0
 41 42  2  0
 42 43  1  0
 43 44  2  0
 44 45  1  0
 46 42  1  0
 47 48  1  0
 47 49  2  0
 48 51  1  0
 50 48  1  0
 52 27  1  0
 53 52  1  0
 54 52  1  0
 55  1  1  0
 56 58  2  0
 57 55  1  0
 57 56  1  0
 59 57  1  0
 60 56  1  0
 60 61  1  0
 62 61  1  0
 62 63  1  0
 63 64  1  0
 64 65  1  0
 65 66  1  0
 67 69  1  0
 67 66  1  0
 68 79  2  0
 69 74  1  0
 70 80  1  0
 70 78  1  0
 71 77  1  0
 71 73  1  0
 72 78  1  0
 73 72  1  0
 74 73  2  0
 75 76  1  0
 75 69  2  0
 76 71  2  0
 77 70  1  0
 78 68  1  0
 81 83  1  0
 81 80  1  0
 82 80  2  0
 84 89  2  0
 84 93  1  0
 85 81  1  0
 85 89  1  0
 86 85  1  0
 87 86  1  0
 87 88  1  0
 88 84  1  0
 89 90  1  0
 90 91  2  0
 92 91  1  0
 93 92  2  0
 94 68  1  0
 94 99  1  0
 94 95  1  0
 95 96  1  1
 95 98  1  0
 97 95  1  0
 99102  1  0
100 99  1  0
100104  1  0
101100  2  0
104103  1  0
104106  1  0
106107  1  0
106105  1  0
M  ISO  4  17 100  25 100  66 101  67 101
M  END
>  <TORSDO>  (8) 
F 40

>  <SCORE>  (8) 
-3.373

>  <name>  (8) 
7

>  <ligand_id>  (8) 
7

>  <original_smiles>  (8) 
[H]c1c([H])c([H])c2c(c1[H])C([H])([H])C([H])([H])C([H])([H])C2([H])N([H])C(=O)C1([H])N(C(=O)C([H])(N([H])C(=O)C([H])(N([H])C([H])([H])[H])C([H])([H])[H])C(C([H])([H])[H])(C([H])([H])[H])C([H])([H])[H])C([H])([H])c2c([H])c(OC([H])([H])C([H])([H])OC([H])([H])C([H])([H])OC([H])([H])C(=O)N([H])C([H])([H])C([H])([H])OC([H])([H])C([H])([H])OC([H])([H])C([H])([H])OC([H])([H])C([H])([H])OC([H])([H])C([H])([H])OC([H])([H])C([H])([H])N([H])C(=O)N3C([H])([H])C([H])([H])C([H])([H])C([H])(n4nc(-c5c([H])c([H])c(Oc6c([H])c([H])c(F)c([H])c6F)c([H])c5[H])c(C(=O)N([H])[H])c4N([H])[H])C3([H])[H])c([H])c([H])c2C1([H])[H]

>  <smiles>  (8) 
[H]c1c([H])c([H])c2c(c1[H])C([H])([H])C([H])([H])C([H])([H])C2([H])N([H])C(=O)C1([H])N(C(=O)C([H])(N([H])C(=O)C([H])(N([H])C([H])([H])[H])C([H])([H])[H])C(C([H])([H])[H])(C([H])([H])[H])C([H])([H])[H])C([H])([H])c2c([H])c(OC([H])([H])C([H])([H])OC([H])([H])C([H])([H])OC([H])([H])C(=O)N([H])C([H])([H])C([H])([H])OC([H])([H])C([H])([H])OC([H])([H])C([H])([H])OC([H])([H])C([H])([H])OC([H])([H])C([H])([H])OC([H])([H])C([H])([H])N([H])C(=O)N3C([H])([H])C([H])([H])C([H])([H])C([H])(n4nc(-c5c([H])c([H])c(Oc6c([H])c([H])c(F)c([H])c6F)c([H])c5[H])c(C(=O)N([H])[H])c4N([H])[H])C3([H])[H])c([H])c([H])c2C1([H])[H]

$$$$
8:0:0
     RDKit          3D

116123  0  0  1  0  0  0  0  0999 V2000
  -32.5630  -21.7090   18.1590 C   0  0  0  0  0  2  0  0  0  0  0  0
  -32.9230  -20.8700   19.2400 O   0  0  0  0  0  0  0  0  0  0  0  0
  -34.2420  -20.3410   19.1950 C   0  0  0  0  0  2  0  0  0  0  0  0
  -34.7090  -20.0790   20.6400 C   0  0  0  0  0  2  0  0  0  0  0  0
  -33.5850  -20.0920   21.5260 O   0  0  0  0  0  0  0  0  0  0  0  0
  -33.8800  -20.1170   22.9230 C   0  0  0  0  0  2  0  0  0  0  0  0
  -34.4980  -21.4590   23.3530 C   0  0  0  0  0  0  0  0  0  0  0  0
  -34.1000  -22.5550   22.6950 N   0  0  0  0  0  0  0  0  0  0  0  0
  -35.3340  -21.4970   24.2580 O   0  0  0  0  0  0  0  0  0  0  0  0
  -33.4170  -22.4350   21.9590 H   0  0  0  0  0  0  0  0  0  0  0  0
  -34.6360  -23.8970   22.9030 C   0  0  0  0  0  2  0  0  0  0  0  0
  -34.4120  -24.7700   21.6580 C   0  0  0  0  0  2  0  0  0  0  0  0
  -33.0260  -25.0100   21.4360 O   0  0  0  0  0  0  0  0  0  0  0  0
  -32.5330  -26.1560   22.1220 C   0  0  0  0  0  2  0  0  0  0  0  0
  -31.0760  -26.4110   21.7230 C   0  0  0  0  0  2  0  0  0  0  0  0
  -30.2340  -25.4540   22.3550 O   0  0  0  0  0  0  0  0  0  0  0  0
  -28.8430  -25.6940   22.1640 C   0  0  0  0  0  2  0  0  0  0  0  0
  -28.4160  -25.5260   20.6920 C   0  0  0  0  0  2  0  0  0  0  0  0
  -28.4190  -26.7860   20.0330 O   0  0  0  0  0  0  0  0  0  0  0  0
  -24.6110  -31.8700   23.2130 C   0  0  0  0  0  0  0  0  0  0  0  0
  -27.2360  -27.4770   20.0830 C   0  0  0  0  0  0  0  0  0  0  0  0
  -23.3960  -30.4940   21.5550 C   0  0  0  0  0  3  0  0  0  0  0  0
  -24.8410  -28.9610   20.1200 C   0  0  0  0  0  0  0  0  0  0  0  0
  -25.9220  -30.8480   21.3580 C   0  0  0  0  0  2  0  0  0  0  0  0
  -26.0000  -29.4850   20.7080 C   0  0  0  0  0  0  0  0  0  0  0  0
  -27.2040  -28.7520   20.6810 C   0  0  0  0  0  3  0  0  0  0  0  0
  -26.0630  -26.9520   19.5000 C   0  0  0  0  0  3  0  0  0  0  0  0
  -24.8650  -27.6910   19.5160 C   0  0  0  0  0  3  0  0  0  0  0  0
  -23.6000  -29.8240   20.1710 C   0  0  0  0  0  2  0  0  0  0  0  0
  -24.6620  -31.0840   22.1020 N   0  0  0  0  0  0  0  0  0  0  0  0
  -23.5330  -32.1450   23.7550 O   0  0  0  0  0  0  0  0  0  0  0  0
  -22.7390  -29.4680   22.5040 C   0  0  0  0  0  0  0  0  0  0  0  0
  -21.4120  -29.3010   22.3770 N   0  0  0  0  0  0  0  0  0  0  0  0
  -23.4180  -28.8220   23.3080 O   0  0  0  0  0  0  0  0  0  0  0  0
  -20.9280  -29.8750   21.7010 H   0  0  0  0  0  0  0  0  0  0  0  0
  -18.0260  -28.1360   22.8490 C   0  0  0  0  0  0  0  0  0  0  0  0
  -20.5840  -28.3630   23.1340 C   0  0  0  0  0  3  0  0  0  0  0  0
  -20.6740  -26.9380   22.5420 C   0  0  0  0  0  2  0  0  0  0  0  0
  -19.5730  -26.6380   21.5200 C   0  0  0  0  0  2  0  0  0  0  0  0
  -18.1910  -26.7910   22.1620 C   0  0  0  0  0  2  0  0  0  0  0  0
  -19.1500  -28.8820   23.2910 C   0  0  0  0  0  0  0  0  0  0  0  0
  -18.9440  -30.1420   23.8920 C   0  0  0  0  0  3  0  0  0  0  0  0
  -17.6440  -30.6570   24.0560 C   0  0  0  0  0  3  0  0  0  0  0  0
  -16.5330  -29.9070   23.6320 C   0  0  0  0  0  3  0  0  0  0  0  0
  -16.7250  -28.6480   23.0350 C   0  0  0  0  0  3  0  0  0  0  0  0
  -25.9030  -32.4830   23.8410 C   0  0  0  0  0  3  0  0  0  0  0  0
  -26.4480  -31.6600   25.0730 C   0  0  1  0  0  0  0  0  0  0  0  0
  -25.3770  -31.3690   26.1490 C   0  0  0  0  0  1  0  0  0  0  0  0
  -27.0290  -30.3050   24.6070 C   0  0  0  0  0  1  0  0  0  0  0  0
  -27.6060  -32.4330   25.7480 C   0  0  0  0  0  1  0  0  0  0  0  0
  -25.5900  -33.8640   24.2350 N   0  0  0  0  0  0  0  0  0  0  0  0
  -25.9030  -34.9490   23.5140 C   0  0  0  0  0  0  0  0  0  0  0  0
  -26.5590  -34.8930   22.4700 O   0  0  0  0  0  0  0  0  0  0  0  0
  -25.0050  -33.9810   25.0490 H   0  0  0  0  0  0  0  0  0  0  0  0
  -24.1490  -36.7320   23.2640 C   0  0  0  0  0  1  0  0  0  0  0  0
  -25.4110  -36.3120   24.0340 C   0  0  0  0  0  3  0  0  0  0  0  0
  -27.5570  -37.1820   24.8470 C   0  0  0  0  0  1  0  0  0  0  0  0
  -26.4290  -37.3800   23.9410 N   0  0  0  0  0  0  0  0  0  0  0  0
  -26.0190  -38.2880   24.1390 H   0  0  0  0  0  0  0  0  0  0  0  0
  -31.0810  -22.0860   18.3210 C   0  0  0  0  0  2  0  0  0  0  0  0
  -30.8780  -22.7920   19.5450 O   0  0  0  0  0  0  0  0  0  0  0  0
  -30.5580  -21.9710   20.6660 C   0  0  0  0  0  2  0  0  0  0  0  0
  -29.0950  -22.2170   21.0690 C   0  0  0  0  0  2  0  0  0  0  0  0
  -28.4340  -21.0360   21.4910 O   0  0  0  0  0  0  0  0  0  0  0  0
  -27.9220  -20.2570   20.4200 C   0  0  0  0  0  2  0  0  0  0  0  0
  -27.0610  -19.1470   21.0250 C   0  0  0  0  0  2  0  0  0  0  0  0
  -25.8650  -19.7180   21.5430 O   0  0  0  0  0  0  0  0  0  0  0  0
  -24.8650  -18.7630   21.8930 C   0  0  0  0  0  2  0  0  0  0  0  0
  -25.2990  -17.7840   22.9980 C   0  0  0  0  0  2  0  0  0  0  0  0
  -25.6750  -18.4960   24.1720 O   0  0  0  0  0  0  0  0  0  0  0  0
  -25.9100  -17.6560   25.3010 C   0  0  0  0  0  2  0  0  0  0  0  0
  -27.2660  -16.9360   25.2540 C   0  0  0  0  0  2  0  0  0  0  0  0
  -28.3220  -17.8860   25.3730 O   0  0  0  0  0  0  0  0  0  0  0  0
  -29.5880  -17.3140   25.7000 C   0  0  0  0  0  2  0  0  0  0  0  0
  -30.2430  -16.6080   24.5020 C   0  0  0  0  0  2  0  0  0  0  0  0
  -30.7580  -17.6000   23.6260 O   0  0  0  0  0  0  0  0  0  0  0  0
  -31.4470  -17.0840   22.4960 C   0  0  0  0  0  2  0  0  0  0  0  0
  -30.4800  -16.7690   21.3430 C   0  0  0  0  0  2  0  0  0  0  0  0
  -30.7300  -14.4110   20.6160 C   0  0  0  0  0  0  0  0  0  0  0  0
  -30.4220  -12.2920   19.4030 C   0  0  0  0  0  2  0  0  0  0  0  0
  -29.4890  -12.5100   18.1950 C   0  0  0  0  0  2  0  0  0  0  0  0
  -28.0110  -12.3730   18.6110 C   0  0  0  0  0  2  0  0  0  0  0  0
  -27.6650  -13.2010   19.8780 C   0  0  0  0  0  3  0  0  0  0  0  0
  -28.7060  -12.9540   20.9950 C   0  0  0  0  0  2  0  0  0  0  0  0
  -30.0420  -13.2520   20.4480 N   0  0  0  0  0  0  0  0  0  0  0  0
  -31.8200  -14.6380   20.0870 O   0  0  0  0  0  0  0  0  0  0  0  0
  -30.0830  -15.3610   21.3000 N   0  0  0  0  0  0  0  0  0  0  0  0
  -29.1830  -15.1120   21.6830 H   0  0  0  0  0  0  0  0  0  0  0  0
  -25.2620  -13.8170   20.5670 C   0  0  0  0  0  0  0  0  0  0  0  0
  -24.1850  -13.0440   20.9160 C   0  0  0  0  0  0  0  0  0  0  0  0
  -24.6400  -11.6910   20.8730 C   0  0  0  0  0  0  0  0  0  0  0  0
  -26.3040  -12.9330   20.3380 N   0  0  0  0  0  0  0  0  0  0  0  0
  -25.9320  -11.6500   20.5760 N   0  0  0  0  0  0  0  0  0  0  0  0
  -23.9050  -10.4300   21.0390 C   0  0  0  0  0  0  0  0  0  0  0  0
  -24.3610   -9.4230   21.9170 C   0  0  0  0  0  3  0  0  0  0  0  0
  -23.6300   -8.2240   22.0750 C   0  0  0  0  0  3  0  0  0  0  0  0
  -22.4270   -8.0280   21.3550 C   0  0  0  0  0  0  0  0  0  0  0  0
  -21.9900   -9.0240   20.4650 C   0  0  0  0  0  3  0  0  0  0  0  0
  -22.7210  -10.2130   20.3050 C   0  0  0  0  0  3  0  0  0  0  0  0
  -21.6640   -6.8870   21.4250 O   0  0  0  0  0  0  0  0  0  0  0  0
  -21.6860   -6.0730   22.5280 C   0  0  0  0  0  0  0  0  0  0  0  0
  -21.4010   -6.5640   23.8210 C   0  0  0  0  0  3  0  0  0  0  0  0
  -21.3660   -5.6790   24.9170 C   0  0  0  0  0  3  0  0  0  0  0  0
  -21.6050   -4.3050   24.7220 C   0  0  0  0  0  0  0  0  0  0  0  0
  -21.8810   -3.8140   23.4340 C   0  0  0  0  0  3  0  0  0  0  0  0
  -21.9190   -4.6960   22.3400 C   0  0  0  0  0  0  0  0  0  0  0  0
  -22.1660   -4.2150   21.0970 F   0  0  0  0  0  0  0  0  0  0  0  0
  -21.5630   -3.4540   25.7730 F   0  0  0  0  0  0  0  0  0  0  0  0
  -22.7890  -13.5270   21.1820 C   0  0  0  0  0  0  0  0  0  0  0  0
  -22.0520  -12.8260   22.0380 N   0  0  0  0  0  0  0  0  0  0  0  0
  -22.3580  -14.5550   20.6640 O   0  0  0  0  0  0  0  0  0  0  0  0
  -22.4120  -11.9920   22.4770 H   0  0  0  0  0  0  0  0  0  0  0  0
  -21.1130  -13.1300   22.2560 H   0  0  0  0  0  0  0  0  0  0  0  0
  -25.4330  -15.1880   20.4040 N   0  0  0  0  0  0  0  0  0  0  0  0
  -24.6370  -15.8120   20.4100 H   0  0  0  0  0  0  0  0  0  0  0  0
  -26.2570  -15.5980   19.9840 H   0  0  0  0  0  0  0  0  0  0  0  0
  1 60  1  0
  1  2  1  0
  3  2  1  0
  3  4  1  0
  4  5  1  0
  5  6  1  0
  6  7  1  0
  7  9  2  0
  8 11  1  0
  8  7  1  0
 10  8  1  0
 12 11  1  0
 13 12  1  0
 13 14  1  0
 15 14  1  0
 15 16  1  0
 17 16  1  0
 18 17  1  0
 19 21  1  0
 19 18  1  0
 20 31  2  0
 21 26  1  0
 22 30  1  0
 22 32  1  0
 23 29  1  0
 23 25  1  0
 24 30  1  0
 25 24  1  0
 26 25  2  0
 27 28  1  0
 27 21  2  0
 28 23  2  0
 29 22  1  0
 30 20  1  0
 32 34  2  0
 33 32  1  0
 35 33  1  0
 36 45  2  0
 36 41  1  0
 37 33  1  0
 37 41  1  0
 38 37  1  0
 39 40  1  0
 39 38  1  0
 40 36  1  0
 41 42  2  0
 42 43  1  0
 44 43  2  0
 45 44  1  0
 46 20  1  0
 46 51  1  0
 46 47  1  0
 47 50  1  1
 47 48  1  0
 49 47  1  0
 51 54  1  0
 52 56  1  0
 52 51  1  0
 53 52  2  0
 56 55  1  0
 58 56  1  0
 58 59  1  0
 58 57  1  0
 60 61  1  0
 61 62  1  0
 62 63  1  0
 63 64  1  0
 65 66  1  0
 65 64  1  0
 66 67  1  0
 67 68  1  0
 68 69  1  0
 69 70  1  0
 70 71  1  0
 72 71  1  0
 72 73  1  0
 73 74  1  0
 75 74  1  0
 76 75  1  0
 77 76  1  0
 78 77  1  0
 79 87  1  0
 80 85  1  0
 81 82  1  0
 81 80  1  0
 83 82  1  0
 83 92  1  0
 83 84  1  0
 85 79  1  0
 85 84  1  0
 86 79  2  0
 87 78  1  0
 87 88  1  0
 89 90  2  0
 90109  1  0
 91 90  1  0
 91 94  1  0
 92 89  1  0
 92 93  1  0
 93 91  2  0
 94 95  1  0
 95 96  2  0
 97100  1  0
 97 96  1  0
 98 97  2  0
 99 98  1  0
 99 94  2  0
100101  1  0
101102  1  0
102103  2  0
104103  1  0
104108  1  0
105104  2  0
106101  2  0
106105  1  0
107106  1  0
109110  1  0
110113  1  0
110112  1  0
111109  2  0
114115  1  0
114 89  1  0
116114  1  0
M  ISO  4  18 101  19 101  79 100  87 100
M  END
>  <TORSDO>  (9) 
F 49

>  <SCORE>  (9) 
31.911

>  <name>  (9) 
8

>  <ligand_id>  (9) 
8

>  <original_smiles>  (9) 
[H]c1c([H])c([H])c2c(c1[H])C([H])([H])C([H])([H])C([H])([H])C2([H])N([H])C(=O)C1([H])N(C(=O)C([H])(N([H])C(=O)C([H])(N([H])C([H])([H])[H])C([H])([H])[H])C(C([H])([H])[H])(C([H])([H])[H])C([H])([H])[H])C([H])([H])c2c([H])c(OC([H])([H])C([H])([H])OC([H])([H])C([H])([H])OC([H])([H])C([H])([H])N([H])C(=O)C([H])([H])OC([H])([H])C([H])([H])OC([H])([H])C([H])([H])OC([H])([H])C([H])([H])OC([H])([H])C([H])([H])OC([H])([H])C([H])([H])OC([H])([H])C([H])([H])OC([H])([H])C([H])([H])OC([H])([H])C([H])([H])N([H])C(=O)N3C([H])([H])C([H])([H])C([H])([H])C([H])(n4nc(-c5c([H])c([H])c(Oc6c([H])c([H])c(F)c([H])c6F)c([H])c5[H])c(C(=O)N([H])[H])c4N([H])[H])C3([H])[H])c([H])c([H])c2C1([H])[H]

>  <smiles>  (9) 
[H]c1c([H])c([H])c2c(c1[H])C([H])([H])C([H])([H])C([H])([H])C2([H])N([H])C(=O)C1([H])N(C(=O)C([H])(N([H])C(=O)C([H])(N([H])C([H])([H])[H])C([H])([H])[H])C(C([H])([H])[H])(C([H])([H])[H])C([H])([H])[H])C([H])([H])c2c([H])c(OC([H])([H])C([H])([H])OC([H])([H])C([H])([H])OC([H])([H])C([H])([H])N([H])C(=O)C([H])([H])OC([H])([H])C([H])([H])OC([H])([H])C([H])([H])OC([H])([H])C([H])([H])OC([H])([H])C([H])([H])OC([H])([H])C([H])([H])OC([H])([H])C([H])([H])OC([H])([H])C([H])([H])OC([H])([H])C([H])([H])N([H])C(=O)N3C([H])([H])C([H])([H])C([H])([H])C([H])(n4nc(-c5c([H])c([H])c(Oc6c([H])c([H])c(F)c([H])c6F)c([H])c5[H])c(C(=O)N([H])[H])c4N([H])[H])C3([H])[H])c([H])c([H])c2C1([H])[H]

$$$$
9:0:0
     RDKit          3D

116123  0  0  1  0  0  0  0  0999 V2000
  -26.9180  -16.3100   21.6330 C   0  0  0  0  0  0  0  0  0  0  0  0
  -27.0430  -14.9960   21.8240 N   0  0  0  0  0  0  0  0  0  0  0  0
  -26.2980  -17.0510   22.3730 O   0  0  0  0  0  0  0  0  0  0  0  0
  -27.6080  -14.5010   21.1510 H   0  0  0  0  0  0  0  0  0  0  0  0
  -27.4980  -16.8530   20.3460 C   0  0  0  0  0  2  0  0  0  0  0  0
  -28.8970  -17.0690   20.4710 O   0  0  0  0  0  0  0  0  0  0  0  0
  -29.7410  -15.9260   20.5700 C   0  0  0  0  0  2  0  0  0  0  0  0
  -30.9000  -16.1150   19.5800 C   0  0  0  0  0  2  0  0  0  0  0  0
  -30.9220  -17.4320   19.0250 O   0  0  0  0  0  0  0  0  0  0  0  0
  -30.6410  -18.4910   19.9390 C   0  0  0  0  0  2  0  0  0  0  0  0
  -31.1420  -19.8430   19.3860 C   0  0  0  0  0  2  0  0  0  0  0  0
  -31.1560  -19.8840   17.9620 O   0  0  0  0  0  0  0  0  0  0  0  0
  -32.4150  -19.4710   17.4540 C   0  0  0  0  0  2  0  0  0  0  0  0
  -32.7160  -18.5980   16.2270 C   0  0  0  0  0  2  0  0  0  0  0  0
  -33.3990  -17.4170   16.6360 O   0  0  0  0  0  0  0  0  0  0  0  0
  -33.4420  -16.4910   15.5760 C   0  0  0  0  0  2  0  0  0  0  0  0
  -34.0470  -15.1570   16.0060 C   0  0  0  0  0  2  0  0  0  0  0  0
  -33.7860  -14.1500   15.0280 O   0  0  0  0  0  0  0  0  0  0  0  0
  -33.2780  -12.8840   15.4690 C   0  0  0  0  0  2  0  0  0  0  0  0
  -33.9880  -12.3190   16.7080 C   0  0  0  0  0  2  0  0  0  0  0  0
  -33.1730  -12.5550   17.8530 O   0  0  0  0  0  0  0  0  0  0  0  0
  -33.8430  -13.2020   18.9240 C   0  0  0  0  0  2  0  0  0  0  0  0
  -33.9550  -12.2650   20.1060 C   0  0  0  0  0  2  0  0  0  0  0  0
  -32.8690  -12.2410   21.0530 O   0  0  0  0  0  0  0  0  0  0  0  0
  -33.0880  -11.4460   22.1010 C   0  0  0  0  0  0  0  0  0  0  0  0
  -32.0670   -9.4450   23.0460 C   0  0  0  0  0  2  0  0  0  0  0  0
  -31.5710   -8.5850   21.8660 C   0  0  0  0  0  2  0  0  0  0  0  0
  -30.1000   -8.9470   21.5720 C   0  0  0  0  0  2  0  0  0  0  0  0
  -29.8330  -10.4810   21.4150 C   0  0  0  0  0  3  0  0  0  0  0  0
  -30.5540  -11.2810   22.5350 C   0  0  0  0  0  2  0  0  0  0  0  0
  -31.9440  -10.8350   22.6370 N   0  0  0  0  0  0  0  0  0  0  0  0
  -34.2340  -11.1370   22.3860 O   0  0  0  0  0  0  0  0  0  0  0  0
  -27.7470  -11.9510   21.0460 C   0  0  0  0  0  0  0  0  0  0  0  0
  -26.4050  -11.6650   21.0250 C   0  0  0  0  0  0  0  0  0  0  0  0
  -26.3200  -10.2740   21.3210 C   0  0  0  0  0  0  0  0  0  0  0  0
  -28.4110  -10.7680   21.3250 N   0  0  0  0  0  0  0  0  0  0  0  0
  -27.5240   -9.7720   21.5400 N   0  0  0  0  0  0  0  0  0  0  0  0
  -25.1580   -9.3730   21.3500 C   0  0  0  0  0  0  0  0  0  0  0  0
  -24.9780   -8.3880   22.3380 C   0  0  0  0  0  3  0  0  0  0  0  0
  -23.8400   -7.5570   22.3350 C   0  0  0  0  0  3  0  0  0  0  0  0
  -22.8530   -7.6940   21.3290 C   0  0  0  0  0  0  0  0  0  0  0  0
  -23.0700   -8.6410   20.3110 C   0  0  0  0  0  3  0  0  0  0  0  0
  -24.2030   -9.4720   20.3190 C   0  0  0  0  0  3  0  0  0  0  0  0
  -21.7170   -6.9360   21.2290 O   0  0  0  0  0  0  0  0  0  0  0  0
  -21.2530   -6.1970   22.2800 C   0  0  0  0  0  0  0  0  0  0  0  0
  -20.8810   -6.8060   23.4960 C   0  0  0  0  0  3  0  0  0  0  0  0
  -20.3180   -6.0150   24.5220 C   0  0  0  0  0  3  0  0  0  0  0  0
  -20.1310   -4.6330   24.3250 C   0  0  0  0  0  0  0  0  0  0  0  0
  -20.5110   -4.0320   23.1110 C   0  0  0  0  0  3  0  0  0  0  0  0
  -21.0730   -4.8170   22.0900 C   0  0  0  0  0  0  0  0  0  0  0  0
  -21.4050   -4.2500   20.9070 F   0  0  0  0  0  0  0  0  0  0  0  0
  -19.5930   -3.8720   25.3050 F   0  0  0  0  0  0  0  0  0  0  0  0
  -25.2560  -12.5680   20.7160 C   0  0  0  0  0  0  0  0  0  0  0  0
  -24.0870  -12.2810   21.2970 N   0  0  0  0  0  0  0  0  0  0  0  0
  -25.4000  -13.5570   19.9980 O   0  0  0  0  0  0  0  0  0  0  0  0
  -23.2640  -12.8350   21.1470 H   0  0  0  0  0  0  0  0  0  0  0  0
  -23.9980  -11.4000   21.7880 H   0  0  0  0  0  0  0  0  0  0  0  0
  -28.5090  -13.0850   20.8740 N   0  0  0  0  0  0  0  0  0  0  0  0
  -29.5160  -13.1180   20.8490 H   0  0  0  0  0  0  0  0  0  0  0  0
  -28.0440  -13.9760   20.7500 H   0  0  0  0  0  0  0  0  0  0  0  0
  -26.1780  -14.2030   22.6610 C   0  0  0  0  0  2  0  0  0  0  0  0
  -26.4050  -14.4320   24.1690 C   0  0  0  0  0  2  0  0  0  0  0  0
  -25.5070  -15.4530   24.6410 O   0  0  0  0  0  0  0  0  0  0  0  0
  -24.1010  -15.2800   24.3870 C   0  0  0  0  0  2  0  0  0  0  0  0
  -23.2770  -16.4950   24.9200 C   0  0  0  0  0  2  0  0  0  0  0  0
  -23.6930  -17.7980   24.4660 O   0  0  0  0  0  0  0  0  0  0  0  0
  -23.2850  -18.8600   25.3600 C   0  0  0  0  0  2  0  0  0  0  0  0
  -23.0800  -20.3270   24.7950 C   0  0  0  0  0  2  0  0  0  0  0  0
  -24.2040  -21.1930   24.3880 O   0  0  0  0  0  0  0  0  0  0  0  0
  -23.9360  -22.6510   24.4050 C   0  0  0  0  0  2  0  0  0  0  0  0
  -23.8830  -23.5540   23.0710 C   0  0  0  0  0  2  0  0  0  0  0  0
  -25.1490  -24.1590   22.6170 O   0  0  0  0  0  0  0  0  0  0  0  0
  -25.1170  -25.0900   21.4830 C   0  0  0  0  0  2  0  0  0  0  0  0
  -26.0460  -24.7910   20.2310 C   0  0  0  0  0  2  0  0  0  0  0  0
  -27.2140  -25.6360   20.0050 O   0  0  0  0  0  0  0  0  0  0  0  0
  -27.1340  -26.4590   18.6770 O   0  0  0  0  0  0  0  0  0  0  0  0
  -25.5760  -30.8990   23.8960 C   0  0  0  0  0  0  0  0  0  0  0  0
  -26.4340  -27.5980   18.9810 C   0  0  0  0  0  0  0  0  0  0  0  0
  -23.8560  -30.5810   22.1610 C   0  0  0  0  0  3  0  0  0  0  0  0
  -24.6570  -29.5330   19.9720 C   0  0  0  0  0  0  0  0  0  0  0  0
  -26.3500  -30.4670   21.5560 C   0  0  0  0  0  2  0  0  0  0  0  0
  -25.9610  -29.4960   20.4550 C   0  0  0  0  0  0  0  0  0  0  0  0
  -26.8770  -28.5210   19.9580 C   0  0  0  0  0  3  0  0  0  0  0  0
  -25.1420  -27.7040   18.4540 C   0  0  0  0  0  3  0  0  0  0  0  0
  -24.2360  -28.6560   18.9510 C   0  0  0  0  0  3  0  0  0  0  0  0
  -23.7050  -30.5200   20.6120 C   0  0  0  0  0  2  0  0  0  0  0  0
  -25.2900  -30.6360   22.5900 N   0  0  0  0  0  0  0  0  0  0  0  0
  -24.6780  -31.1310   24.7200 O   0  0  0  0  0  0  0  0  0  0  0  0
  -23.0750  -29.3970   22.7780 C   0  0  0  0  0  0  0  0  0  0  0  0
  -21.7440  -29.3950   22.5920 N   0  0  0  0  0  0  0  0  0  0  0  0
  -23.6620  -28.4990   23.3850 O   0  0  0  0  0  0  0  0  0  0  0  0
  -21.3330  -30.1680   22.0860 H   0  0  0  0  0  0  0  0  0  0  0  0
  -18.2990  -28.3120   22.4570 C   0  0  0  0  0  0  0  0  0  0  0  0
  -20.8110  -28.3680   23.0610 C   0  0  0  0  0  3  0  0  0  0  0  0
  -20.9390  -27.0790   22.2170 C   0  0  0  0  0  2  0  0  0  0  0  0
  -19.9580  -27.0290   21.0420 C   0  0  0  0  0  2  0  0  0  0  0  0
  -18.5130  -27.1180   21.5440 C   0  0  0  0  0  2  0  0  0  0  0  0
  -19.3780  -28.9100   23.1570 C   0  0  0  0  0  0  0  0  0  0  0  0
  -19.1310  -30.0400   23.9670 C   0  0  0  0  0  3  0  0  0  0  0  0
  -17.8320  -30.5690   24.0840 C   0  0  0  0  0  3  0  0  0  0  0  0
  -16.7620  -29.9660   23.4000 C   0  0  0  0  0  3  0  0  0  0  0  0
  -16.9960  -28.8380   22.5940 C   0  0  0  0  0  3  0  0  0  0  0  0
  -27.0490  -30.9520   24.4140 C   0  0  0  0  0  3  0  0  0  0  0  0
  -27.4310  -29.7190   25.3230 C   0  0  1  0  0  0  0  0  0  0  0  0
  -26.4030  -29.4290   26.4420 C   0  0  0  0  0  1  0  0  0  0  0  0
  -27.5700  -28.4380   24.4710 C   0  0  0  0  0  1  0  0  0  0  0  0
  -28.8080  -29.9600   25.9840 C   0  0  0  0  0  1  0  0  0  0  0  0
  -27.2150  -32.2130   25.1530 N   0  0  0  0  0  0  0  0  0  0  0  0
  -27.8530  -33.2910   24.6810 C   0  0  0  0  0  0  0  0  0  0  0  0
  -28.4330  -33.3010   23.5930 O   0  0  0  0  0  0  0  0  0  0  0  0
  -26.7170  -32.2920   26.0280 H   0  0  0  0  0  0  0  0  0  0  0  0
  -26.8370  -35.5680   24.9930 C   0  0  0  0  0  1  0  0  0  0  0  0
  -27.8510  -34.5600   25.5560 C   0  0  0  0  0  3  0  0  0  0  0  0
  -30.1530  -34.3870   26.3880 C   0  0  0  0  0  1  0  0  0  0  0  0
  -29.1770  -35.2020   25.6680 N   0  0  0  0  0  0  0  0  0  0  0  0
  -29.1080  -36.1000   26.1360 H   0  0  0  0  0  0  0  0  0  0  0  0
  1  2  1  0
  1  3  2  0
  2 61  1  0
  4  2  1  0
  5  6  1  0
  5  1  1  0
  6  7  1  0
  8  7  1  0
  9  8  1  0
  9 10  1  0
 11 10  1  0
 12 11  1  0
 13 12  1  0
 14 15  1  0
 14 13  1  0
 16 17  1  0
 16 15  1  0
 18 19  1  0
 18 17  1  0
 19 20  1  0
 20 21  1  0
 21 22  1  0
 22 23  1  0
 23 24  1  0
 24 25  1  0
 25 32  2  0
 25 31  1  0
 27 26  1  0
 28 27  1  0
 29 36  1  0
 29 28  1  0
 29 30  1  0
 30 31  1  0
 31 26  1  0
 33 36  1  0
 34 33  2  0
 34 35  1  0
 35 38  1  0
 35 37  2  0
 36 37  1  0
 38 39  1  0
 40 39  2  0
 41 40  1  0
 42 43  1  0
 42 41  2  0
 43 38  2  0
 44 41  1  0
 44 45  1  0
 45 46  1  0
 46 47  2  0
 48 47  1  0
 48 52  1  0
 49 48  2  0
 50 45  2  0
 50 49  1  0
 51 50  1  0
 53 34  1  0
 53 54  1  0
 54 57  1  0
 55 53  2  0
 56 54  1  0
 58 33  1  0
 59 58  1  0
 60 58  1  0
 61 62  1  0
 62 63  1  0
 64 63  1  0
 64 65  1  0
 66 65  1  0
 66 67  1  0
 68 67  1  0
 69 70  1  0
 69 68  1  0
 71 70  1  0
 72 71  1  0
 73 72  1  0
 74 73  1  0
 75 74  1  0
 76 78  1  0
 76 75  1  0
 77 88  2  0
 78 83  1  0
 79 87  1  0
 79 89  1  0
 80 82  1  0
 80 86  1  0
 81 87  1  0
 82 81  1  0
 83 82  2  0
 84 85  1  0
 84 78  2  0
 85 80  2  0
 86 79  1  0
 87 77  1  0
 89 91  2  0
 90 89  1  0
 92 90  1  0
 93102  2  0
 93 98  1  0
 94 90  1  0
 94 98  1  0
 95 94  1  0
 96 97  1  0
 96 95  1  0
 97 93  1  0
 98 99  2  0
 99100  1  0
101100  2  0
102101  1  0
103 77  1  0
103108  1  0
103104  1  0
104107  1  1
104105  1  0
106104  1  0
108111  1  0
109108  1  0
109113  1  0
110109  2  0
113112  1  0
113115  1  0
115116  1  0
115114  1  0
M  ISO  4  24 100  25 100  75 101  76 101
M  END
>  <TORSDO>  (10) 
F 51

>  <SCORE>  (10) 
20.026

>  <name>  (10) 
9

>  <ligand_id>  (10) 
9

>  <original_smiles>  (10) 
[H]c1c([H])c([H])c2c(c1[H])C([H])([H])C([H])([H])C([H])([H])C2([H])N([H])C(=O)C1([H])N(C(=O)C([H])(N([H])C(=O)C([H])(N([H])C([H])([H])[H])C([H])([H])[H])C(C([H])([H])[H])(C([H])([H])[H])C([H])([H])[H])C([H])([H])c2c([H])c(OOC([H])([H])C([H])([H])OC([H])([H])C([H])([H])OC([H])([H])C([H])([H])OC([H])([H])C([H])([H])OC([H])([H])C([H])([H])N([H])C(=O)C([H])([H])OC([H])([H])C([H])([H])OC([H])([H])C([H])([H])OC([H])([H])C([H])([H])OC([H])([H])C([H])([H])OC([H])([H])C([H])([H])OC([H])([H])C([H])([H])OC(=O)N3C([H])([H])C([H])([H])C([H])([H])C([H])(n4nc(-c5c([H])c([H])c(Oc6c([H])c([H])c(F)c([H])c6F)c([H])c5[H])c(C(=O)N([H])[H])c4N([H])[H])C3([H])[H])c([H])c([H])c2C1([H])[H]

>  <smiles>  (10) 
[H]c1c([H])c([H])c2c(c1[H])C([H])([H])C([H])([H])C([H])([H])C2([H])N([H])C(=O)C1([H])N(C(=O)C([H])(N([H])C(=O)C([H])(N([H])C([H])([H])[H])C([H])([H])[H])C(C([H])([H])[H])(C([H])([H])[H])C([H])([H])[H])C([H])([H])c2c([H])c(OOC([H])([H])C([H])([H])OC([H])([H])C([H])([H])OC([H])([H])C([H])([H])OC([H])([H])C([H])([H])OC([H])([H])C([H])([H])N([H])C(=O)C([H])([H])OC([H])([H])C([H])([H])OC([H])([H])C([H])([H])OC([H])([H])C([H])([H])OC([H])([H])C([H])([H])OC([H])([H])C([H])([H])OC([H])([H])C([H])([H])OC(=O)N3C([H])([H])C([H])([H])C([H])([H])C([H])(n4nc(-c5c([H])c([H])c(Oc6c([H])c([H])c(F)c([H])c6F)c([H])c5[H])c(C(=O)N([H])[H])c4N([H])[H])C3([H])[H])c([H])c([H])c2C1([H])[H]

$$$$
11:0:0
     RDKit          3D

118125  0  0  1  0  0  0  0  0999 V2000
  -28.7550  -23.1390   17.4890 C   0  0  0  0  0  2  0  0  0  0  0  0
  -29.1830  -22.9970   18.8370 O   0  0  0  0  0  0  0  0  0  0  0  0
  -28.4510  -22.0280   19.5800 C   0  0  0  0  0  2  0  0  0  0  0  0
  -28.7340  -20.6290   19.0150 C   0  0  0  0  0  2  0  0  0  0  0  0
  -29.8400  -20.6600   18.1230 O   0  0  0  0  0  0  0  0  0  0  0  0
  -30.2040  -19.3600   17.6710 C   0  0  0  0  0  2  0  0  0  0  0  0
  -31.1400  -19.4790   16.4560 C   0  0  0  0  0  2  0  0  0  0  0  0
  -30.6220  -18.7320   15.3600 O   0  0  0  0  0  0  0  0  0  0  0  0
  -31.6550  -18.1660   14.5580 C   0  0  0  0  0  2  0  0  0  0  0  0
  -31.0360  -17.1510   13.5800 C   0  0  0  0  0  2  0  0  0  0  0  0
  -30.5120  -17.8040   12.3600 N   0  0  0  0  0  4  0  0  0  0  0  0
  -29.7320  -17.2670   12.0110 H   0  0  0  0  0  0  0  0  0  0  0  0
  -30.1510  -18.7080   12.6390 H   0  0  0  0  0  0  0  0  0  0  0  0
  -31.4870  -17.9940   11.2660 C   0  0  0  0  0  2  0  0  0  0  0  0
  -30.7790  -18.5070   10.0030 C   0  0  0  0  0  2  0  0  0  0  0  0
  -30.0510  -19.7140   10.2360 O   0  0  0  0  0  0  0  0  0  0  0  0
  -30.7390  -20.7890   10.8790 C   0  0  0  0  0  2  0  0  0  0  0  0
  -32.1940  -20.9910   10.4240 C   0  0  0  0  0  2  0  0  0  0  0  0
  -32.2640  -21.1090    9.0080 O   0  0  0  0  0  0  0  0  0  0  0  0
  -35.5460  -14.9160    7.7190 C   0  0  0  0  0  0  0  0  0  0  0  0
  -33.3020  -20.4350    8.4200 C   0  0  0  0  0  0  0  0  0  0  0  0
  -36.7730  -16.9600    7.0370 C   0  0  0  0  0  3  0  0  0  0  0  0
  -35.4330  -19.1300    7.1200 C   0  0  0  0  0  0  0  0  0  0  0  0
  -34.2230  -16.9410    7.1260 C   0  0  0  0  0  2  0  0  0  0  0  0
  -34.2860  -18.4110    7.4780 C   0  0  0  0  0  0  0  0  0  0  0  0
  -33.2170  -19.0570    8.1320 C   0  0  0  0  0  3  0  0  0  0  0  0
  -34.4560  -21.1500    8.0490 C   0  0  0  0  0  3  0  0  0  0  0  0
  -35.5250  -20.5060    7.4010 C   0  0  0  0  0  3  0  0  0  0  0  0
  -36.5260  -18.3630    6.4140 C   0  0  0  0  0  2  0  0  0  0  0  0
  -35.4990  -16.2240    7.3330 N   0  0  0  0  0  0  0  0  0  0  0  0
  -36.6220  -14.3070    7.7840 O   0  0  0  0  0  0  0  0  0  0  0  0
  -37.6800  -17.1320    8.2730 C   0  0  0  0  0  0  0  0  0  0  0  0
  -38.9950  -17.2510    8.0300 N   0  0  0  0  0  0  0  0  0  0  0  0
  -37.2000  -17.1960    9.4090 O   0  0  0  0  0  0  0  0  0  0  0  0
  -39.3050  -17.1840    7.0710 H   0  0  0  0  0  0  0  0  0  0  0  0
  -42.5580  -17.6190    8.4890 C   0  0  0  0  0  0  0  0  0  0  0  0
  -40.0370  -17.4680    9.0340 C   0  0  0  0  0  3  0  0  0  0  0  0
  -40.1360  -18.9620    9.4250 C   0  0  0  0  0  2  0  0  0  0  0  0
  -41.1720  -19.7340    8.6000 C   0  0  0  0  0  2  0  0  0  0  0  0
  -42.5600  -19.1130    8.7720 C   0  0  0  0  0  2  0  0  0  0  0  0
  -41.3700  -16.8510    8.6010 C   0  0  0  0  0  0  0  0  0  0  0  0
  -41.4130  -15.4730    8.2990 C   0  0  0  0  0  3  0  0  0  0  0  0
  -42.6150  -14.8610    7.8980 C   0  0  0  0  0  3  0  0  0  0  0  0
  -43.7930  -15.6210    7.8070 C   0  0  0  0  0  3  0  0  0  0  0  0
  -43.7640  -16.9950    8.1030 C   0  0  0  0  0  3  0  0  0  0  0  0
  -34.2530  -14.1160    8.0790 C   0  0  0  0  0  3  0  0  0  0  0  0
  -34.3490  -12.7960    7.4420 N   0  0  0  0  0  0  0  0  0  0  0  0
  -33.7380  -12.4650    6.2960 C   0  0  0  0  0  0  0  0  0  0  0  0
  -32.9720  -13.2310    5.7050 O   0  0  0  0  0  0  0  0  0  0  0  0
  -34.9970  -12.1410    7.8520 H   0  0  0  0  0  0  0  0  0  0  0  0
  -35.0460  -11.1910    4.5730 C   0  0  0  0  0  1  0  0  0  0  0  0
  -34.0240  -11.0680    5.7150 C   0  0  0  0  0  3  0  0  0  0  0  0
  -31.9340   -9.9440    6.3230 C   0  0  0  0  0  1  0  0  0  0  0  0
  -32.8130  -10.3690    5.2350 N   0  0  0  0  0  0  0  0  0  0  0  0
  -33.0570   -9.5480    4.6900 H   0  0  0  0  0  0  0  0  0  0  0  0
  -34.0280  -13.9700    9.6330 C   0  0  1  0  0  0  0  0  0  0  0  0
  -35.2490  -13.3830   10.3780 C   0  0  0  0  0  1  0  0  0  0  0  0
  -33.7090  -15.3480   10.2520 C   0  0  0  0  0  1  0  0  0  0  0  0
  -32.8010  -13.0660    9.9120 C   0  0  0  0  0  1  0  0  0  0  0  0
  -28.1850  -24.5540   17.3000 C   0  0  0  0  0  2  0  0  0  0  0  0
  -28.9010  -25.2370   16.2820 O   0  0  0  0  0  0  0  0  0  0  0  0
  -28.1240  -26.2310   15.6260 C   0  0  0  0  0  2  0  0  0  0  0  0
  -28.9990  -27.4770   15.4300 C   0  0  0  0  0  2  0  0  0  0  0  0
  -28.3330  -28.4020   14.5880 O   0  0  0  0  0  0  0  0  0  0  0  0
  -28.7080  -29.7540   14.8330 C   0  0  0  0  0  2  0  0  0  0  0  0
  -28.9540  -30.4150   13.4760 C   0  0  0  0  0  2  0  0  0  0  0  0
  -30.2700  -30.0340   13.1090 O   0  0  0  0  0  0  0  0  0  0  0  0
  -30.5400  -30.1320   11.7240 C   0  0  0  0  0  2  0  0  0  0  0  0
  -31.9960  -29.6940   11.5270 C   0  0  0  0  0  2  0  0  0  0  0  0
  -32.2420  -28.5160   12.2930 O   0  0  0  0  0  0  0  0  0  0  0  0
  -33.5890  -28.4330   12.7490 C   0  0  0  0  0  2  0  0  0  0  0  0
  -33.7570  -27.2390   13.7020 C   0  0  0  0  0  2  0  0  0  0  0  0
  -33.0110  -27.4520   14.8960 O   0  0  0  0  0  0  0  0  0  0  0  0
  -32.7640  -26.2520   15.6210 C   0  0  0  0  0  2  0  0  0  0  0  0
  -32.2580  -26.5920   17.0310 C   0  0  0  0  0  2  0  0  0  0  0  0
  -31.9630  -25.3860   17.7260 O   0  0  0  0  0  0  0  0  0  0  0  0
  -31.7180  -25.5980   19.1100 C   0  0  0  0  0  2  0  0  0  0  0  0
  -31.3160  -24.2780   19.7930 C   0  0  0  0  0  2  0  0  0  0  0  0
  -32.4710  -23.4600   19.9800 O   0  0  0  0  0  0  0  0  0  0  0  0
  -32.3440  -22.4940   21.0230 C   0  0  0  0  0  2  0  0  0  0  0  0
  -32.2310  -21.0470   20.4820 C   0  0  0  0  0  2  0  0  0  0  0  0
  -33.4880  -20.4630   20.1400 O   0  0  0  0  0  0  0  0  0  0  0  0
  -34.3410  -20.0460   21.1030 C   0  0  0  0  0  0  0  0  0  0  0  0
  -36.7700  -19.6060   21.1910 C   0  0  0  0  0  2  0  0  0  0  0  0
  -37.4530  -20.8450   20.5720 C   0  0  0  0  0  2  0  0  0  0  0  0
  -37.5760  -20.6950   19.0400 C   0  0  0  0  0  2  0  0  0  0  0  0
  -36.2410  -20.2820   18.3640 C   0  0  0  0  0  3  0  0  0  0  0  0
  -35.5860  -19.1000   19.1100 C   0  0  0  0  0  2  0  0  0  0  0  0
  -35.4730  -19.4570   20.5310 N   0  0  0  0  0  0  0  0  0  0  0  0
  -34.2040  -20.3200   22.2980 O   0  0  0  0  0  0  0  0  0  0  0  0
  -35.8310  -20.5590   15.8390 C   0  0  0  0  0  0  0  0  0  0  0  0
  -36.4010  -19.9530   14.7470 C   0  0  0  0  0  0  0  0  0  0  0  0
  -37.3410  -19.0130   15.2640 C   0  0  0  0  0  0  0  0  0  0  0  0
  -36.4280  -19.9770   16.9480 N   0  0  0  0  0  0  0  0  0  0  0  0
  -37.3030  -19.0040   16.5910 N   0  0  0  0  0  0  0  0  0  0  0  0
  -38.3160  -18.1550   14.5750 C   0  0  0  0  0  0  0  0  0  0  0  0
  -38.3030  -16.7510   14.7250 C   0  0  0  0  0  3  0  0  0  0  0  0
  -39.2420  -15.9500   14.0400 C   0  0  0  0  0  3  0  0  0  0  0  0
  -40.2040  -16.5500   13.1940 C   0  0  0  0  0  0  0  0  0  0  0  0
  -40.2250  -17.9500   13.0630 C   0  0  0  0  0  3  0  0  0  0  0  0
  -39.2930  -18.7460   13.7490 C   0  0  0  0  0  3  0  0  0  0  0  0
  -41.1730  -15.8550   12.5130 O   0  0  0  0  0  0  0  0  0  0  0  0
  -40.9530  -14.5830   12.0470 C   0  0  0  0  0  0  0  0  0  0  0  0
  -39.9240  -14.2930   11.1270 C   0  0  0  0  0  3  0  0  0  0  0  0
  -39.7800  -12.9850   10.6210 C   0  0  0  0  0  3  0  0  0  0  0  0
  -40.6630  -11.9700   11.0310 C   0  0  0  0  0  0  0  0  0  0  0  0
  -41.6890  -12.2560   11.9480 C   0  0  0  0  0  3  0  0  0  0  0  0
  -41.8340  -13.5610   12.4540 C   0  0  0  0  0  0  0  0  0  0  0  0
  -42.8390  -13.8390   13.3190 F   0  0  0  0  0  0  0  0  0  0  0  0
  -40.5280  -10.7140   10.5430 F   0  0  0  0  0  0  0  0  0  0  0  0
  -36.1560  -20.2980   13.3070 C   0  0  0  0  0  0  0  0  0  0  0  0
  -36.2430  -19.3120   12.4180 N   0  0  0  0  0  0  0  0  0  0  0  0
  -35.8370  -21.4350   12.9650 O   0  0  0  0  0  0  0  0  0  0  0  0
  -36.4790  -18.3740   12.7010 H   0  0  0  0  0  0  0  0  0  0  0  0
  -36.0630  -19.5030   11.4430 H   0  0  0  0  0  0  0  0  0  0  0  0
  -34.8780  -21.5610   15.9840 N   0  0  0  0  0  0  0  0  0  0  0  0
  -34.4600  -22.0400   15.1940 H   0  0  0  0  0  0  0  0  0  0  0  0
  -34.5800  -21.9310   16.8800 H   0  0  0  0  0  0  0  0  0  0  0  0
  1  2  1  0
  2  3  1  0
  4  3  1  0
  5  4  1  0
  6  5  1  0
  7  6  1  0
  8  7  1  0
  9  8  1  0
 10  9  1  0
 11 13  1  0
 11 10  1  0
 12 11  1  0
 14 11  1  0
 15 16  1  0
 15 14  1  0
 16 17  1  0
 18 17  1  0
 19 18  1  0
 20 31  2  0
 21 19  1  0
 22 30  1  0
 22 32  1  0
 23 28  2  0
 23 25  1  0
 24 30  1  0
 24 25  1  0
 25 26  2  0
 26 21  1  0
 27 21  2  0
 28 27  1  0
 29 22  1  0
 29 23  1  0
 30 20  1  0
 32 34  2  0
 33 32  1  0
 35 33  1  0
 36 41  1  0
 36 40  1  0
 37 33  1  0
 37 38  1  0
 39 40  1  0
 39 38  1  0
 41 37  1  0
 42 41  2  0
 43 42  1  0
 44 43  2  0
 44 45  1  0
 45 36  2  0
 46 20  1  0
 46 56  1  0
 47 50  1  0
 47 46  1  0
 48 47  1  0
 49 48  2  0
 52 51  1  0
 52 48  1  0
 54 52  1  0
 54 53  1  0
 55 54  1  0
 56 59  1  6
 56 58  1  0
 56 57  1  0
 60  1  1  0
 61 60  1  0
 62 61  1  0
 63 62  1  0
 64 65  1  0
 64 63  1  0
 66 65  1  0
 67 66  1  0
 68 67  1  0
 69 68  1  0
 69 70  1  0
 70 71  1  0
 71 72  1  0
 72 73  1  0
 73 74  1  0
 74 75  1  0
 75 76  1  0
 76 77  1  0
 77 78  1  0
 78 79  1  0
 79 80  1  0
 81 80  1  0
 82 81  1  0
 82 83  1  0
 83 90  2  0
 85 84  1  0
 86 85  1  0
 87 94  1  0
 87 86  1  0
 87 88  1  0
 88 89  1  0
 89 83  1  0
 89 84  1  0
 91116  1  0
 91 94  1  0
 92 93  1  0
 92 91  2  0
 93 95  2  0
 95 94  1  0
 96 97  1  0
 96 93  1  0
 98 97  2  0
 99 98  1  0
100 99  2  0
100101  1  0
101 96  2  0
102 99  1  0
103108  1  0
103102  1  0
104103  2  0
105106  2  0
105104  1  0
106107  1  0
107108  2  0
108109  1  0
110106  1  0
111 92  1  0
112114  1  0
112111  1  0
113111  2  0
115112  1  0
116118  1  0
117116  1  0
M  ISO  4  18 101  19 101  82 100  83 100
M  END
>  <TORSDO>  (11) 
F 54

>  <SCORE>  (11) 
-1.140

>  <name>  (11) 
11

>  <ligand_id>  (11) 
11

>  <original_smiles>  (11) 
[H]c1c([H])c([H])c2c(c1[H])C([H])([H])C([H])([H])C([H])([H])C2([H])N([H])C(=O)C1([H])N(C(=O)C([H])(N([H])C(=O)C([H])(N([H])C([H])([H])[H])C([H])([H])[H])C(C([H])([H])[H])(C([H])([H])[H])C([H])([H])[H])C([H])([H])c2c([H])c(OC([H])([H])C([H])([H])OC([H])([H])C([H])([H])[N+]([H])([H])C([H])([H])C([H])([H])OC([H])([H])C([H])([H])OC([H])([H])C([H])([H])OC([H])([H])C([H])([H])OC([H])([H])C([H])([H])OC([H])([H])C([H])([H])OC([H])([H])C([H])([H])OC([H])([H])C([H])([H])OC([H])([H])C([H])([H])OC([H])([H])C([H])([H])OC([H])([H])C([H])([H])OC(=O)N3C([H])([H])C([H])([H])C([H])([H])C([H])(n4nc(-c5c([H])c([H])c(Oc6c([H])c([H])c(F)c([H])c6F)c([H])c5[H])c(C(=O)N([H])[H])c4N([H])[H])C3([H])[H])c([H])c([H])c2C1([H])[H]

>  <smiles>  (11) 
[H]c1c([H])c([H])c2c(c1[H])C([H])([H])C([H])([H])C([H])([H])C2([H])N([H])C(=O)C1([H])N(C(=O)C([H])(N([H])C(=O)C([H])(N([H])C([H])([H])[H])C([H])([H])[H])C(C([H])([H])[H])(C([H])([H])[H])C([H])([H])[H])C([H])([H])c2c([H])c(OC([H])([H])C([H])([H])OC([H])([H])C([H])([H])[N+]([H])([H])C([H])([H])C([H])([H])OC([H])([H])C([H])([H])OC([H])([H])C([H])([H])OC([H])([H])C([H])([H])OC([H])([H])C([H])([H])OC([H])([H])C([H])([H])OC([H])([H])C([H])([H])OC([H])([H])C([H])([H])OC([H])([H])C([H])([H])OC([H])([H])C([H])([H])OC([H])([H])C([H])([H])OC(=O)N3C([H])([H])C([H])([H])C([H])([H])C([H])(n4nc(-c5c([H])c([H])c(Oc6c([H])c([H])c(F)c([H])c6F)c([H])c5[H])c(C(=O)N([H])[H])c4N([H])[H])C3([H])[H])c([H])c([H])c2C1([H])[H]

$$$$
12:0:0
     RDKit          3D

117127  0  0  1  0  0  0  0  0999 V2000
  -29.1910  -11.8510   20.3530 O   0  0  0  0  0  0  0  0  0  0  0  0
  -30.2460  -11.7110   21.3090 C   0  0  0  0  0  2  0  0  0  0  0  0
  -31.3190  -12.8290   21.2580 C   0  0  0  0  0  2  0  0  0  0  0  0
  -30.9130  -13.7490   20.2560 O   0  0  0  0  0  0  0  0  0  0  0  0
  -30.7720  -15.0890   20.7150 C   0  0  0  0  0  2  0  0  0  0  0  0
  -29.3260  -15.1830   21.1900 C   0  0  0  0  0  2  0  0  0  0  0  0
  -28.4620  -15.6390   20.0710 N   0  0  0  0  0  4  0  0  0  0  0  0
  -27.9590  -14.8700   19.6460 H   0  0  0  0  0  0  0  0  0  0  0  0
  -29.0940  -16.0060   19.3710 H   0  0  0  0  0  0  0  0  0  0  0  0
  -27.5310  -16.7130   20.4670 C   0  0  0  0  0  2  0  0  0  0  0  0
  -28.2320  -17.9120   21.1320 C   0  0  0  0  0  2  0  0  0  0  0  0
  -27.7510  -19.1240   20.5660 O   0  0  0  0  0  0  0  0  0  0  0  0
  -26.4590  -19.0120   19.9840 C   0  0  0  0  0  2  0  0  0  0  0  0
  -25.7130  -17.8200   20.5810 C   0  0  1  0  0  0  0  0  0  0  0  0
  -24.4570  -18.2750   21.0560 O   0  0  0  0  0  0  0  0  0  0  0  0
  -23.3710  -17.7650   20.2980 C   0  0  0  0  0  3  0  0  0  0  0  0
  -22.7460  -18.8680   19.4340 C   0  0  0  0  0  2  0  0  0  0  0  0
  -23.5470  -19.0040   18.2680 O   0  0  0  0  0  0  0  0  0  0  0  0
  -23.9620  -17.6410   17.7800 O   0  0  0  0  0  0  0  0  0  0  0  0
  -24.2360  -11.3100   20.9490 C   0  0  0  0  0  0  0  0  0  0  0  0
  -24.5480  -16.8970   18.7740 C   0  0  0  0  0  0  0  0  0  0  0  0
  -25.4960  -13.1230   22.0750 C   0  0  0  0  0  3  0  0  0  0  0  0
  -25.7630  -15.2780   20.7410 C   0  0  0  0  0  0  0  0  0  0  0  0
  -25.0960  -13.1780   19.5510 C   0  0  0  0  0  3  0  0  0  0  0  0
  -25.1220  -14.6870   19.6460 C   0  0  0  0  0  0  0  0  0  0  0  0
  -24.5070  -15.4930   18.6650 C   0  0  0  0  0  3  0  0  0  0  0  0
  -25.1980  -17.4830   19.8810 C   0  0  0  0  0  3  0  0  0  0  0  0
  -25.7990  -16.6800   20.8720 C   0  0  0  0  0  2  0  0  0  0  0  0
  -26.3980  -14.3430   21.7410 C   0  0  0  0  0  2  0  0  0  0  0  0
  -24.8930  -12.5010   20.8520 N   0  0  0  0  0  0  0  0  0  0  0  0
  -24.1610  -10.7080   22.0290 O   0  0  0  0  0  0  0  0  0  0  0  0
  -24.4380  -13.5560   23.1200 C   0  0  0  0  0  0  0  0  0  0  0  0
  -24.0030  -12.6030   23.9580 N   0  0  0  0  0  0  0  0  0  0  0  0
  -24.0500  -14.7250   23.1810 O   0  0  0  0  0  0  0  0  0  0  0  0
  -24.3780  -11.6720   23.8480 H   0  0  0  0  0  0  0  0  0  0  0  0
  -20.8790  -11.3950   25.3050 C   0  0  0  0  0  0  0  0  0  0  0  0
  -23.0430  -12.7820   25.0450 C   0  0  0  0  0  3  0  0  0  0  0  0
  -23.5330  -12.0830   26.3330 C   0  0  0  0  0  2  0  0  0  0  0  0
  -22.9980  -10.6570   26.4830 C   0  0  0  0  0  2  0  0  0  0  0  0
  -21.4650  -10.6550   26.4980 C   0  0  0  0  0  2  0  0  0  0  0  0
  -21.6280  -12.3820   24.6150 C   0  0  0  0  0  0  0  0  0  0  0  0
  -21.0510  -13.0170   23.4930 C   0  0  0  0  0  3  0  0  0  0  0  0
  -19.7520  -12.6880   23.0650 C   0  0  0  0  0  3  0  0  0  0  0  0
  -19.0060  -11.7240   23.7670 C   0  0  0  0  0  3  0  0  0  0  0  0
  -19.5680  -11.0800   24.8830 C   0  0  0  0  0  3  0  0  0  0  0  0
  -23.5690  -10.6380   19.7060 C   0  0  0  0  0  3  0  0  0  0  0  0
  -22.1890  -10.2940   20.0740 N   0  0  0  0  0  0  0  0  0  0  0  0
  -21.7890   -9.0770   20.4620 C   0  0  0  0  0  0  0  0  0  0  0  0
  -22.5400   -8.0980   20.4770 O   0  0  0  0  0  0  0  0  0  0  0  0
  -21.5320  -11.0570   20.1300 H   0  0  0  0  0  0  0  0  0  0  0  0
  -20.2230   -7.8250   21.9780 C   0  0  0  0  0  1  0  0  0  0  0  0
  -20.3230   -8.9220   20.9070 C   0  0  0  0  0  3  0  0  0  0  0  0
  -19.2060   -9.7390   18.8820 C   0  0  0  0  0  1  0  0  0  0  0  0
  -19.3980   -8.6180   19.7960 N   0  0  0  0  0  0  0  0  0  0  0  0
  -18.4870   -8.3410   20.1510 H   0  0  0  0  0  0  0  0  0  0  0  0
  -23.5890  -11.5520   18.4190 C   0  0  1  0  0  0  0  0  0  0  0  0
  -22.3950  -12.5320   18.3280 C   0  0  0  0  0  1  0  0  0  0  0  0
  -24.8890  -12.3890   18.3630 C   0  0  0  0  0  2  0  0  0  0  0  0
  -23.5850  -10.6690   17.1500 C   0  0  0  0  0  1  0  0  0  0  0  0
  -27.9120  -11.3590   20.7550 C   0  0  0  0  0  2  0  0  0  0  0  0
  -27.4650  -11.8560   22.1370 C   0  0  0  0  0  2  0  0  0  0  0  0
  -26.5900  -10.8900   22.7130 O   0  0  0  0  0  0  0  0  0  0  0  0
  -26.8090   -9.5570   22.2710 C   0  0  0  0  0  2  0  0  0  0  0  0
  -25.5380   -8.7430   22.5630 C   0  0  0  0  0  2  0  0  0  0  0  0
  -25.7990   -7.3400   22.6950 O   0  0  0  0  0  0  0  0  0  0  0  0
  -26.8600   -6.9250   21.8310 C   0  0  0  0  0  2  0  0  0  0  0  0
  -28.2340   -7.4640   22.2590 C   0  0  0  0  0  2  0  0  0  0  0  0
  -28.8050   -8.3350   21.2840 O   0  0  0  0  0  0  0  0  0  0  0  0
  -30.0380   -8.8850   21.7490 C   0  0  0  0  0  2  0  0  0  0  0  0
  -31.0170   -9.1660   20.6000 C   0  0  0  0  0  2  0  0  0  0  0  0
  -32.3380   -9.3160   21.1090 O   0  0  0  0  0  0  0  0  0  0  0  0
  -33.2140   -9.9740   20.1970 C   0  0  0  0  0  2  0  0  0  0  0  0
  -33.2610  -11.5000   20.4370 C   0  0  0  0  0  2  0  0  0  0  0  0
  -34.5700  -12.0690   20.3920 O   0  0  0  0  0  0  0  0  0  0  0  0
  -34.6180  -13.4370   20.7850 C   0  0  0  0  0  2  0  0  0  0  0  0
  -36.0020  -14.0430   20.4750 C   0  0  0  0  0  2  0  0  0  0  0  0
  -36.8130  -13.0790   19.8120 O   0  0  0  0  0  0  0  0  0  0  0  0
  -37.8720  -12.5320   20.5910 C   0  0  0  0  0  1  0  0  0  0  0  0
  -39.0800  -12.3610   19.6560 C   0  0  0  0  0  2  0  0  0  0  0  0
  -37.9430  -13.8940   18.0740 C   0  0  0  0  0  3  0  0  0  0  0  0
  -36.8630  -14.7540   16.0370 C   0  0  0  0  0  2  0  0  0  0  0  0
  -36.6010  -13.5760   15.0760 C   0  0  0  0  0  2  0  0  0  0  0  0
  -37.8390  -13.2830   14.2030 C   0  0  0  0  0  2  0  0  0  0  0  0
  -39.1510  -13.1920   15.0240 C   0  0  0  0  0  3  0  0  0  0  0  0
  -39.2690  -14.3890   15.9930 C   0  0  0  0  0  2  0  0  0  0  0  0
  -38.0540  -14.4240   16.8310 N   0  0  0  0  0  0  0  0  0  0  0  0
  -36.8940  -13.8760   18.7240 O   0  0  0  0  0  0  0  0  0  0  0  0
  -39.0330  -13.2660   18.5140 N   0  0  0  0  0  0  0  0  0  0  0  0
  -39.8520  -13.3270   17.9260 H   0  0  0  0  0  0  0  0  0  0  0  0
  -41.4910  -13.8180   14.1500 C   0  0  0  0  0  0  0  0  0  0  0  0
  -42.2830  -13.2660   13.1740 C   0  0  0  0  0  0  0  0  0  0  0  0
  -41.5300  -12.1860   12.6250 C   0  0  0  0  0  0  0  0  0  0  0  0
  -40.3180  -13.0820   14.1480 N   0  0  0  0  0  0  0  0  0  0  0  0
  -40.3280  -12.1280   13.1840 N   0  0  0  0  0  0  0  0  0  0  0  0
  -41.9020  -11.1730   11.6290 C   0  0  0  0  0  0  0  0  0  0  0  0
  -42.8240  -10.1490   11.9300 C   0  0  0  0  0  3  0  0  0  0  0  0
  -43.1570   -9.1780   10.9610 C   0  0  0  0  0  3  0  0  0  0  0  0
  -42.5570   -9.2210    9.6790 C   0  0  0  0  0  0  0  0  0  0  0  0
  -41.6530  -10.2560    9.3790 C   0  0  0  0  0  3  0  0  0  0  0  0
  -41.3290  -11.2240   10.3420 C   0  0  0  0  0  3  0  0  0  0  0  0
  -42.8350   -8.3330    8.6680 O   0  0  0  0  0  0  0  0  0  0  0  0
  -42.8740   -8.7250    7.3530 C   0  0  0  0  0  0  0  0  0  0  0  0
  -43.7030   -9.7810    6.9160 C   0  0  0  0  0  3  0  0  0  0  0  0
  -43.7620  -10.1040    5.5450 C   0  0  0  0  0  3  0  0  0  0  0  0
  -43.0060   -9.3700    4.6140 C   0  0  0  0  0  0  0  0  0  0  0  0
  -42.1840   -8.3160    5.0490 C   0  0  0  0  0  3  0  0  0  0  0  0
  -42.1210   -7.9920    6.4150 C   0  0  0  0  0  0  0  0  0  0  0  0
  -41.3430   -6.9610    6.8260 F   0  0  0  0  0  0  0  0  0  0  0  0
  -43.0710   -9.6760    3.2970 F   0  0  0  0  0  0  0  0  0  0  0  0
  -43.6950  -13.6540   12.8440 C   0  0  0  0  0  0  0  0  0  0  0  0
  -43.9290  -14.1330   11.6250 N   0  0  0  0  0  0  0  0  0  0  0  0
  -44.5940  -13.5760   13.6780 O   0  0  0  0  0  0  0  0  0  0  0  0
  -43.2000  -14.1790   10.9310 H   0  0  0  0  0  0  0  0  0  0  0  0
  -44.8690  -14.4020   11.3650 H   0  0  0  0  0  0  0  0  0  0  0  0
  -41.6740  -14.8670   15.0430 N   0  0  0  0  0  0  0  0  0  0  0  0
  -42.5500  -15.3710   15.1220 H   0  0  0  0  0  0  0  0  0  0  0  0
  -41.0110  -15.1040   15.7710 H   0  0  0  0  0  0  0  0  0  0  0  0
  1 60  1  0
  1  2  1  0
  3  2  1  0
  4  5  1  0
  4  3  1  0
  5  6  1  0
  7 10  1  0
  7  6  1  0
  8  7  1  0
  9  7  1  0
 10 11  1  0
 12 11  1  0
 13 12  1  0
 14 13  1  6
 14 28  1  0
 14 15  1  0
 16 17  1  0
 16 15  1  0
 18 17  1  0
 19 18  1  0
 19 21  1  0
 20 31  2  0
 22 32  1  0
 23 28  1  0
 23 29  1  0
 24 58  1  0
 24 25  1  0
 24 30  1  0
 25 23  2  0
 26 21  2  0
 26 25  1  0
 27 21  1  0
 27 16  1  0
 27 14  1  0
 29 22  1  0
 30 20  1  0
 30 22  1  0
 32 34  2  0
 32 33  1  0
 35 33  1  0
 36 40  1  0
 37 33  1  0
 37 38  1  0
 38 39  1  0
 39 40  1  0
 41 37  1  0
 41 36  2  0
 42 41  1  0
 43 42  2  0
 43 44  1  0
 44 45  2  0
 45 36  1  0
 46 47  1  0
 46 20  1  0
 47 50  1  0
 47 48  1  0
 48 49  2  0
 48 52  1  0
 52 51  1  0
 53 54  1  0
 54 55  1  0
 54 52  1  0
 56 46  1  0
 56 57  1  6
 58 56  1  0
 59 56  1  0
 60 61  1  0
 61 62  1  0
 63 64  1  0
 63 62  1  0
 64 65  1  0
 66 67  1  0
 66 65  1  0
 68 69  1  0
 68 67  1  0
 70 71  1  0
 70 69  1  0
 72 73  1  0
 72 71  1  0
 74 73  1  0
 74 75  1  0
 76 75  1  0
 77 76  1  0
 79 78  1  0
 80 88  1  0
 80 87  1  0
 81 86  1  0
 82 81  1  0
 83 84  1  0
 83 82  1  0
 84 93  1  0
 84 85  1  0
 85 86  1  0
 86 80  1  0
 87 77  1  0
 88 79  1  0
 89 88  1  0
 90115  1  0
 91 90  2  0
 92 91  1  0
 92 94  2  0
 93 90  1  0
 94 93  1  0
 95 96  1  0
 95 92  1  0
 97 96  2  0
 98 97  1  0
 99 98  2  0
 99100  1  0
100 95  2  0
101 98  1  0
102101  1  0
103102  1  0
104103  2  0
105106  2  0
105104  1  0
106107  1  0
107108  1  0
107102  2  0
109105  1  0
110 91  1  0
110112  2  0
111110  1  0
113111  1  0
114111  1  0
115116  1  0
115117  1  0
M  ISO  4  18 101  19 101  80 100  88 100
M  END
>  <TORSDO>  (12) 
F 51

>  <SCORE>  (12) 
52.290

>  <name>  (12) 
12

>  <ligand_id>  (12) 
12

>  <original_smiles>  (12) 
[H]c1c([H])c([H])c2c(c1[H])C([H])([H])C([H])([H])C([H])([H])C2([H])N([H])C(=O)C1([H])N(C(=O)C([H])(N([H])C(=O)C([H])(N([H])C([H])([H])[H])C([H])([H])[H])C(C([H])([H])[H])(C([H])([H])[H])C([H])([H])[H])C([H])([H])c2c([H])c(OOC([H])([H])C([H])([H])OC([H])([H])C([H])([H])OC([H])([H])C([H])([H])[N+]([H])([H])C([H])([H])C([H])([H])OC([H])([H])C([H])([H])OC([H])([H])C([H])([H])OC([H])([H])C([H])([H])OC([H])([H])C([H])([H])OC([H])([H])C([H])([H])OC([H])([H])C([H])([H])OC([H])([H])C([H])([H])OC([H])([H])C([H])([H])N([H])C(=O)N3C([H])([H])C([H])([H])C([H])([H])C([H])(n4nc(-c5c([H])c([H])c(Oc6c([H])c([H])c(F)c([H])c6F)c([H])c5[H])c(C(=O)N([H])[H])c4N([H])[H])C3([H])[H])c([H])c([H])c2C1([H])[H]

>  <smiles>  (12) 
[H]c1c([H])c([H])c2c(c1[H])C([H])([H])C([H])([H])C([H])([H])C2([H])N([H])C(=O)C1([H])N(C(=O)C([H])(N([H])C(=O)C([H])(N([H])C([H])([H])[H])C([H])([H])[H])C(C([H])([H])[H])(C([H])([H])[H])C([H])([H])[H])C([H])([H])c2c([H])c(OOC([H])([H])C([H])([H])OC([H])([H])C([H])([H])OC([H])([H])C([H])([H])[N+]([H])([H])C([H])([H])C([H])([H])OC([H])([H])C([H])([H])OC([H])([H])C([H])([H])OC([H])([H])C([H])([H])OC([H])([H])C([H])([H])OC([H])([H])C([H])([H])OC([H])([H])C([H])([H])OC([H])([H])C([H])([H])OC([H])([H])C([H])([H])N([H])C(=O)N3C([H])([H])C([H])([H])C([H])([H])C([H])(n4nc(-c5c([H])c([H])c(Oc6c([H])c([H])c(F)c([H])c6F)c([H])c5[H])c(C(=O)N([H])[H])c4N([H])[H])C3([H])[H])c([H])c([H])c2C1([H])[H]

$$$$
14:0:0
     RDKit          3D

104109  0  0  1  0  0  0  0  0999 V2000
  -20.0890  -16.3610   19.9860 C   0  0  0  0  0  2  0  0  0  0  0  0
  -20.7140  -17.4980   20.6670 O   0  0  0  0  0  0  0  0  0  0  0  0
  -21.7110  -18.2720   19.8900 C   0  0  0  0  0  2  0  0  0  0  0  0
  -22.0770  -19.7270   20.4540 C   0  0  0  0  0  2  0  0  0  0  0  0
  -23.3470  -20.3400   20.0140 O   0  0  0  0  0  0  0  0  0  0  0  0
  -23.9330  -21.4650   20.7810 C   0  0  0  0  0  2  0  0  0  0  0  0
  -25.0870  -22.2200   19.9950 C   0  0  0  0  0  0  0  0  0  0  0  0
  -25.9800  -23.0570   20.6230 N   0  0  0  0  0  0  0  0  0  0  0  0
  -25.1650  -22.0430   18.7770 O   0  0  0  0  0  0  0  0  0  0  0  0
  -25.9380  -23.1010   21.6320 H   0  0  0  0  0  0  0  0  0  0  0  0
  -27.1210  -23.8060   19.9840 C   0  0  0  0  0  2  0  0  0  0  0  0
  -27.7400  -25.0470   20.7840 C   0  0  0  0  0  2  0  0  0  0  0  0
  -28.1340  -26.3500   20.1740 O   0  0  0  0  0  0  0  0  0  0  0  0
  -24.6290  -31.8580   23.1980 C   0  0  0  0  0  0  0  0  0  0  0  0
  -27.1190  -27.2890   20.1170 C   0  0  0  0  0  0  0  0  0  0  0  0
  -23.4140  -30.4920   21.5450 C   0  0  0  0  0  3  0  0  0  0  0  0
  -24.8340  -28.9520   20.1040 C   0  0  0  0  0  0  0  0  0  0  0  0
  -25.9560  -30.7880   21.3570 C   0  0  0  0  0  2  0  0  0  0  0  0
  -26.0160  -29.4140   20.7010 C   0  0  0  0  0  0  0  0  0  0  0  0
  -27.1790  -28.5890   20.6990 C   0  0  0  0  0  3  0  0  0  0  0  0
  -25.9370  -26.8940   19.4740 C   0  0  0  0  0  3  0  0  0  0  0  0
  -24.7990  -27.7040   19.4750 C   0  0  0  0  0  3  0  0  0  0  0  0
  -23.6160  -29.8410   20.1540 C   0  0  0  0  0  2  0  0  0  0  0  0
  -24.6870  -31.0640   22.0900 N   0  0  0  0  0  0  0  0  0  0  0  0
  -23.5450  -32.1360   23.7340 O   0  0  0  0  0  0  0  0  0  0  0  0
  -22.7480  -29.4620   22.4910 C   0  0  0  0  0  0  0  0  0  0  0  0
  -21.4180  -29.3050   22.3700 N   0  0  0  0  0  0  0  0  0  0  0  0
  -23.4250  -28.8120   23.2930 O   0  0  0  0  0  0  0  0  0  0  0  0
  -20.9330  -29.8840   21.6980 H   0  0  0  0  0  0  0  0  0  0  0  0
  -18.0300  -28.1370   22.8490 C   0  0  0  0  0  0  0  0  0  0  0  0
  -20.5890  -28.3680   23.1310 C   0  0  0  0  0  3  0  0  0  0  0  0
  -20.6810  -26.9410   22.5410 C   0  0  0  0  0  2  0  0  0  0  0  0
  -19.5770  -26.6400   21.5210 C   0  0  0  0  0  2  0  0  0  0  0  0
  -18.1960  -26.7910   22.1650 C   0  0  0  0  0  2  0  0  0  0  0  0
  -19.1540  -28.8840   23.2900 C   0  0  0  0  0  0  0  0  0  0  0  0
  -18.9460  -30.1440   23.8920 C   0  0  0  0  0  3  0  0  0  0  0  0
  -17.6460  -30.6570   24.0570 C   0  0  0  0  0  3  0  0  0  0  0  0
  -16.5360  -29.9070   23.6310 C   0  0  0  0  0  3  0  0  0  0  0  0
  -16.7290  -28.6490   23.0330 C   0  0  0  0  0  3  0  0  0  0  0  0
  -25.9140  -32.4760   23.8300 C   0  0  0  0  0  3  0  0  0  0  0  0
  -26.4550  -31.6540   25.0650 C   0  0  1  0  0  0  0  0  0  0  0  0
  -25.3850  -31.3640   26.1430 C   0  0  0  0  0  1  0  0  0  0  0  0
  -27.0320  -30.2980   24.5980 C   0  0  0  0  0  1  0  0  0  0  0  0
  -27.6120  -32.4250   25.7410 C   0  0  0  0  0  1  0  0  0  0  0  0
  -25.5970  -33.8560   24.2260 N   0  0  0  0  0  0  0  0  0  0  0  0
  -25.9060  -34.9430   23.5070 C   0  0  0  0  0  0  0  0  0  0  0  0
  -26.5590  -34.8900   22.4610 O   0  0  0  0  0  0  0  0  0  0  0  0
  -25.0210  -33.9710   25.0470 H   0  0  0  0  0  0  0  0  0  0  0  0
  -24.1540  -36.7330   23.2630 C   0  0  0  0  0  1  0  0  0  0  0  0
  -25.4150  -36.3070   24.0320 C   0  0  0  0  0  3  0  0  0  0  0  0
  -27.5590  -37.1860   24.8500 C   0  0  0  0  0  1  0  0  0  0  0  0
  -26.4360  -37.3740   23.9350 N   0  0  0  0  0  0  0  0  0  0  0  0
  -26.0230  -38.2850   24.1200 H   0  0  0  0  0  0  0  0  0  0  0  0
  -19.3140  -15.1530   20.7280 C   0  0  0  0  0  2  0  0  0  0  0  0
  -19.9350  -14.2600   21.7300 O   0  0  0  0  0  0  0  0  0  0  0  0
  -19.8590  -12.7800   21.5950 C   0  0  0  0  0  2  0  0  0  0  0  0
  -20.4120  -11.8470   22.8270 C   0  0  0  0  0  2  0  0  0  0  0  0
  -21.8270  -11.3550   22.8390 O   0  0  0  0  0  0  0  0  0  0  0  0
  -22.6200  -11.0590   24.0510 C   0  0  0  0  0  2  0  0  0  0  0  0
  -24.1660  -11.5470   24.1710 C   0  0  0  0  0  2  0  0  0  0  0  0
  -25.2820  -10.8510   23.5090 O   0  0  0  0  0  0  0  0  0  0  0  0
  -26.6180  -11.4580   23.4380 C   0  0  0  0  0  2  0  0  0  0  0  0
  -27.8400  -10.7850   22.6140 C   0  0  0  0  0  2  0  0  0  0  0  0
  -27.8820  -11.0520   21.1760 O   0  0  0  0  0  0  0  0  0  0  0  0
  -28.9560  -11.4760   20.2300 C   0  0  0  0  0  1  0  0  0  0  0  0
  -29.4240  -13.8660   18.9670 C   0  0  0  0  0  1  0  0  0  0  0  0
  -30.9630  -14.4020   20.5410 C   0  0  0  0  0  0  0  0  0  0  0  0
  -31.0400  -12.2160   19.4100 C   0  0  0  0  0  1  0  0  0  0  0  0
  -29.7390  -11.7570   17.9920 C   0  0  0  0  0  1  0  0  0  0  0  0
  -27.8680  -12.2290   18.2540 C   0  0  0  0  0  2  0  0  0  0  0  0
  -27.3750  -13.2100   19.8450 C   0  0  0  0  0  3  0  0  0  0  0  0
  -28.7040  -13.5780   21.2240 C   0  0  0  0  0  2  0  0  0  0  0  0
  -30.4480  -13.2150   20.8260 N   0  0  0  0  0  0  0  0  0  0  0  0
  -32.1310  -14.7320   20.4530 O   0  0  0  0  0  0  0  0  0  0  0  0
  -30.1330  -14.9280   19.6890 N   0  0  0  0  0  0  0  0  0  0  0  0
  -30.3640  -15.7920   19.2260 H   0  0  0  0  0  0  0  0  0  0  0  0
  -25.1800  -13.8420   20.6220 C   0  0  0  0  0  0  0  0  0  0  0  0
  -24.1090  -13.0810   20.8930 C   0  0  0  0  0  0  0  0  0  0  0  0
  -24.4780  -11.7000   20.7880 C   0  0  0  0  0  0  0  0  0  0  0  0
  -26.1080  -12.9260   20.3030 N   0  0  0  0  0  0  0  0  0  0  0  0
  -25.6750  -11.6590   20.3150 N   0  0  0  0  0  0  0  0  0  0  0  0
  -23.8000  -10.4120   20.9260 C   0  0  0  0  0  0  0  0  0  0  0  0
  -24.3790   -9.3110   21.6080 C   0  0  0  0  0  3  0  0  0  0  0  0
  -23.6500   -8.1490   21.8990 C   0  0  0  0  0  3  0  0  0  0  0  0
  -22.3600   -8.0150   21.3490 C   0  0  0  0  0  0  0  0  0  0  0  0
  -21.8430   -9.0490   20.5390 C   0  0  0  0  0  3  0  0  0  0  0  0
  -22.5530  -10.2390   20.3270 C   0  0  0  0  0  3  0  0  0  0  0  0
  -21.5960   -6.8880   21.4580 O   0  0  0  0  0  0  0  0  0  0  0  0
  -21.6740   -6.0720   22.5520 C   0  0  0  0  0  0  0  0  0  0  0  0
  -21.3900   -6.5480   23.8460 C   0  0  0  0  0  3  0  0  0  0  0  0
  -21.3810   -5.6550   24.9370 C   0  0  0  0  0  3  0  0  0  0  0  0
  -21.6240   -4.2870   24.7290 C   0  0  0  0  0  0  0  0  0  0  0  0
  -21.8890   -3.8080   23.4360 C   0  0  0  0  0  3  0  0  0  0  0  0
  -21.9220   -4.6990   22.3430 C   0  0  0  0  0  0  0  0  0  0  0  0
  -22.1640   -4.2350   21.0940 F   0  0  0  0  0  0  0  0  0  0  0  0
  -21.5910   -3.4240   25.7690 F   0  0  0  0  0  0  0  0  0  0  0  0
  -22.8320  -13.7160   21.1200 C   0  0  0  0  0  0  0  0  0  0  0  0
  -22.3940  -13.6880   22.3350 N   0  0  0  0  0  0  0  0  0  0  0  0
  -22.3510  -14.4790   20.3040 O   0  0  0  0  0  0  0  0  0  0  0  0
  -22.5910  -12.8850   22.9150 H   0  0  0  0  0  0  0  0  0  0  0  0
  -21.5030  -14.1650   22.4250 H   0  0  0  0  0  0  0  0  0  0  0  0
  -25.3950  -15.2220   20.5510 N   0  0  0  0  0  0  0  0  0  0  0  0
  -24.5810  -15.8300   20.4690 H   0  0  0  0  0  0  0  0  0  0  0  0
  -26.2130  -15.5820   20.0750 H   0  0  0  0  0  0  0  0  0  0  0  0
  1  2  1  0
  1 54  1  0
  3  4  1  0
  3  2  1  0
  5  4  1  0
  5  6  1  0
  7  8  1  0
  7  6  1  0
  8 10  1  0
  9  7  2  0
 11  8  1  0
 11 12  1  0
 13 12  1  0
 14 25  2  0
 15 13  1  0
 15 20  1  0
 16 24  1  0
 16 26  1  0
 17 23  1  0
 17 19  1  0
 18 24  1  0
 19 18  1  0
 20 19  2  0
 21 22  1  0
 21 15  2  0
 22 17  2  0
 23 16  1  0
 24 14  1  0
 26 28  2  0
 27 26  1  0
 29 27  1  0
 30 39  2  0
 30 35  1  0
 31 27  1  0
 31 35  1  0
 32 31  1  0
 33 34  1  0
 33 32  1  0
 34 30  1  0
 35 36  2  0
 36 37  1  0
 38 37  2  0
 39 38  1  0
 40 14  1  0
 40 45  1  0
 40 41  1  0
 41 44  1  1
 41 42  1  0
 43 41  1  0
 45 48  1  0
 46 50  1  0
 46 45  1  0
 47 46  2  0
 50 49  1  0
 52 50  1  0
 52 53  1  0
 52 51  1  0
 54 55  1  0
 56 55  1  0
 56 57  1  0
 57 58  1  0
 58 59  1  0
 59 60  1  0
 61 60  1  0
 62 61  1  0
 63 62  1  0
 64 63  1  0
 65 64  1  0
 66 75  1  0
 67 73  1  0
 68 73  1  0
 69 70  1  0
 71 70  1  0
 71 80  1  0
 71 72  1  0
 73 72  1  0
 74 67  2  0
 75 67  1  0
 76 75  1  0
 77 78  2  0
 78 97  1  0
 79 78  1  0
 79 82  1  0
 80 81  1  0
 80 77  1  0
 81 79  2  0
 82 83  1  0
 83 84  2  0
 85 88  1  0
 85 84  1  0
 86 85  2  0
 87 86  1  0
 87 82  2  0
 88 89  1  0
 89 90  1  0
 90 91  2  0
 92 91  1  0
 92 96  1  0
 93 92  2  0
 94 89  2  0
 94 93  1  0
 95 94  1  0
 97 98  1  0
 98101  1  0
 98100  1  0
 99 97  2  0
102 77  1  0
103102  1  0
104102  1  0
M  ISO  4  12 101  13 101  67 100  75 100
M  END
>  <TORSDO>  (13) 
F 37

>  <SCORE>  (13) 
40.873

>  <name>  (13) 
14

>  <ligand_id>  (13) 
14

>  <original_smiles>  (13) 
[H]c1c([H])c([H])c2c(c1[H])C([H])([H])C([H])([H])C([H])([H])C2([H])N([H])C(=O)C1([H])N(C(=O)C([H])(N([H])C(=O)C([H])(N([H])C([H])([H])[H])C([H])([H])[H])C(C([H])([H])[H])(C([H])([H])[H])C([H])([H])[H])C([H])([H])c2c([H])c(OC([H])([H])C([H])([H])N([H])C(=O)C([H])([H])OC([H])([H])C([H])([H])OC([H])([H])C([H])([H])OC([H])([H])C([H])([H])OC([H])([H])C([H])([H])OC([H])([H])C([H])([H])OC([H])([H])C([H])([H])N([H])C(=O)N3C([H])([H])C([H])([H])C([H])([H])C([H])(n4nc(-c5c([H])c([H])c(Oc6c([H])c([H])c(F)c([H])c6F)c([H])c5[H])c(C(=O)N([H])[H])c4N([H])[H])C3([H])[H])c([H])c([H])c2C1([H])[H]

>  <smiles>  (13) 
[H]c1c([H])c([H])c2c(c1[H])C([H])([H])C([H])([H])C([H])([H])C2([H])N([H])C(=O)C1([H])N(C(=O)C([H])(N([H])C(=O)C([H])(N([H])C([H])([H])[H])C([H])([H])[H])C(C([H])([H])[H])(C([H])([H])[H])C([H])([H])[H])C([H])([H])c2c([H])c(OC([H])([H])C([H])([H])N([H])C(=O)C([H])([H])OC([H])([H])C([H])([H])OC([H])([H])C([H])([H])OC([H])([H])C([H])([H])OC([H])([H])C([H])([H])OC([H])([H])C([H])([H])OC([H])([H])C([H])([H])N([H])C(=O)N3C([H])([H])C([H])([H])C([H])([H])C([H])(n4nc(-c5c([H])c([H])c(Oc6c([H])c([H])c(F)c([H])c6F)c([H])c5[H])c(C(=O)N([H])[H])c4N([H])[H])C3([H])[H])c([H])c([H])c2C1([H])[H]

$$$$
15:0:0
     RDKit          3D

107114  0  0  1  0  0  0  0  0999 V2000
  -27.6010  -25.1950   23.3600 C   0  0  0  0  0  2  0  0  0  0  0  0
  -28.8420  -24.4850   23.3660 O   0  0  0  0  0  0  0  0  0  0  0  0
  -29.5690  -24.5260   22.1420 C   0  0  0  0  0  2  0  0  0  0  0  0
  -30.8610  -23.7010   22.2630 C   0  0  0  0  0  2  0  0  0  0  0  0
  -30.6740  -22.3990   22.8170 O   0  0  0  0  0  0  0  0  0  0  0  0
  -29.6370  -21.6220   22.2290 C   0  0  0  0  0  2  0  0  0  0  0  0
  -29.8170  -20.1420   22.5730 C   0  0  0  0  0  2  0  0  0  0  0  0
  -29.5840  -19.8690   23.9510 O   0  0  0  0  0  0  0  0  0  0  0  0
  -30.7350  -19.9300   24.7940 C   0  0  0  0  0  2  0  0  0  0  0  0
  -31.6660  -18.7180   24.6030 C   0  0  0  0  0  2  0  0  0  0  0  0
  -32.6710  -19.0260   23.6440 O   0  0  0  0  0  0  0  0  0  0  0  0
  -33.4200  -17.9040   23.1790 C   0  0  0  0  0  2  0  0  0  0  0  0
  -32.6080  -17.0920   22.1540 C   0  0  0  0  0  2  0  0  0  0  0  0
  -32.0990  -18.0090   21.1980 O   0  0  0  0  0  0  0  0  0  0  0  0
  -31.3320  -17.4620   20.1360 C   0  0  0  0  0  2  0  0  0  0  0  0
  -29.9990  -16.8090   20.5850 C   0  0  0  0  0  2  0  0  0  0  0  0
  -30.7250  -14.3990   20.5510 C   0  0  0  0  0  0  0  0  0  0  0  0
  -30.4100  -12.2570   19.4130 C   0  0  0  0  0  2  0  0  0  0  0  0
  -29.4880  -12.4980   18.2000 C   0  0  0  0  0  2  0  0  0  0  0  0
  -28.0090  -12.3740   18.6140 C   0  0  0  0  0  2  0  0  0  0  0  0
  -27.6660  -13.2020   19.8820 C   0  0  0  0  0  3  0  0  0  0  0  0
  -28.7070  -12.9590   21.0010 C   0  0  0  0  0  2  0  0  0  0  0  0
  -30.0470  -13.2310   20.4520 N   0  0  0  0  0  0  0  0  0  0  0  0
  -31.8410  -14.5710   20.0620 O   0  0  0  0  0  0  0  0  0  0  0  0
  -30.0090  -15.4130   21.0460 N   0  0  0  0  0  0  0  0  0  0  0  0
  -29.1630  -15.1230   21.5120 H   0  0  0  0  0  0  0  0  0  0  0  0
  -25.2600  -13.8170   20.5680 C   0  0  0  0  0  0  0  0  0  0  0  0
  -24.1840  -13.0450   20.9190 C   0  0  0  0  0  0  0  0  0  0  0  0
  -24.6390  -11.6920   20.8760 C   0  0  0  0  0  0  0  0  0  0  0  0
  -26.3040  -12.9330   20.3410 N   0  0  0  0  0  0  0  0  0  0  0  0
  -25.9310  -11.6500   20.5790 N   0  0  0  0  0  0  0  0  0  0  0  0
  -23.9060  -10.4310   21.0410 C   0  0  0  0  0  0  0  0  0  0  0  0
  -24.3610   -9.4220   21.9180 C   0  0  0  0  0  3  0  0  0  0  0  0
  -23.6290   -8.2250   22.0750 C   0  0  0  0  0  3  0  0  0  0  0  0
  -22.4270   -8.0290   21.3550 C   0  0  0  0  0  0  0  0  0  0  0  0
  -21.9910   -9.0270   20.4650 C   0  0  0  0  0  3  0  0  0  0  0  0
  -22.7240  -10.2150   20.3060 C   0  0  0  0  0  3  0  0  0  0  0  0
  -21.6640   -6.8880   21.4240 O   0  0  0  0  0  0  0  0  0  0  0  0
  -21.6860   -6.0750   22.5280 C   0  0  0  0  0  0  0  0  0  0  0  0
  -21.4020   -6.5650   23.8220 C   0  0  0  0  0  3  0  0  0  0  0  0
  -21.3650   -5.6800   24.9180 C   0  0  0  0  0  3  0  0  0  0  0  0
  -21.6030   -4.3060   24.7230 C   0  0  0  0  0  0  0  0  0  0  0  0
  -21.8820   -3.8160   23.4350 C   0  0  0  0  0  3  0  0  0  0  0  0
  -21.9190   -4.6970   22.3410 C   0  0  0  0  0  0  0  0  0  0  0  0
  -22.1660   -4.2160   21.0990 F   0  0  0  0  0  0  0  0  0  0  0  0
  -21.5620   -3.4540   25.7750 F   0  0  0  0  0  0  0  0  0  0  0  0
  -22.7870  -13.5250   21.1860 C   0  0  0  0  0  0  0  0  0  0  0  0
  -22.0510  -12.8250   22.0430 N   0  0  0  0  0  0  0  0  0  0  0  0
  -22.3550  -14.5560   20.6710 O   0  0  0  0  0  0  0  0  0  0  0  0
  -22.4130  -11.9910   22.4830 H   0  0  0  0  0  0  0  0  0  0  0  0
  -21.1120  -13.1270   22.2620 H   0  0  0  0  0  0  0  0  0  0  0  0
  -25.4350  -15.1870   20.4080 N   0  0  0  0  0  0  0  0  0  0  0  0
  -24.6770  -15.8510   20.5190 H   0  0  0  0  0  0  0  0  0  0  0  0
  -26.2960  -15.6210   20.1010 H   0  0  0  0  0  0  0  0  0  0  0  0
  -26.5940  -24.6750   22.3150 C   0  0  0  0  0  2  0  0  0  0  0  0
  -26.4490  -23.2690   22.4610 O   0  0  0  0  0  0  0  0  0  0  0  0
  -25.5210  -22.6610   21.5660 C   0  0  0  0  0  2  0  0  0  0  0  0
  -25.9070  -22.7880   20.0800 C   0  0  0  0  0  2  0  0  0  0  0  0
  -27.2630  -22.3770   19.8910 O   0  0  0  0  0  0  0  0  0  0  0  0
  -27.6700  -22.2480   18.5240 C   0  0  0  0  0  2  0  0  0  0  0  0
  -27.6720  -23.6050   17.7970 C   0  0  0  0  0  0  0  0  0  0  0  0
  -28.5230  -24.5320   18.2500 N   0  0  0  0  0  0  0  0  0  0  0  0
  -26.8970  -23.8140   16.8620 O   0  0  0  0  0  0  0  0  0  0  0  0
  -29.1120  -24.2790   19.0290 H   0  0  0  0  0  0  0  0  0  0  0  0
  -28.6440  -25.8920   17.7330 C   0  0  0  0  0  2  0  0  0  0  0  0
  -29.1490  -26.8520   18.8240 C   0  0  0  0  0  2  0  0  0  0  0  0
  -28.4000  -26.7510   20.0340 O   0  0  0  0  0  0  0  0  0  0  0  0
  -24.6110  -31.8710   23.2140 C   0  0  0  0  0  0  0  0  0  0  0  0
  -27.2380  -27.4800   20.0620 C   0  0  0  0  0  0  0  0  0  0  0  0
  -23.3960  -30.4950   21.5550 C   0  0  0  0  0  3  0  0  0  0  0  0
  -24.8410  -28.9590   20.1200 C   0  0  0  0  0  0  0  0  0  0  0  0
  -25.9230  -30.8420   21.3640 C   0  0  0  0  0  2  0  0  0  0  0  0
  -25.9990  -29.4780   20.7130 C   0  0  0  0  0  0  0  0  0  0  0  0
  -27.2010  -28.7380   20.6970 C   0  0  0  0  0  3  0  0  0  0  0  0
  -26.0640  -26.9580   19.4850 C   0  0  0  0  0  3  0  0  0  0  0  0
  -24.8630  -27.6910   19.5150 C   0  0  0  0  0  3  0  0  0  0  0  0
  -23.6000  -29.8220   20.1710 C   0  0  0  0  0  2  0  0  0  0  0  0
  -24.6620  -31.0830   22.1030 N   0  0  0  0  0  0  0  0  0  0  0  0
  -23.5320  -32.1460   23.7570 O   0  0  0  0  0  0  0  0  0  0  0  0
  -22.7400  -29.4680   22.5030 C   0  0  0  0  0  0  0  0  0  0  0  0
  -21.4140  -29.3030   22.3770 N   0  0  0  0  0  0  0  0  0  0  0  0
  -23.4210  -28.8220   23.3050 O   0  0  0  0  0  0  0  0  0  0  0  0
  -20.9310  -29.8730   21.6960 H   0  0  0  0  0  0  0  0  0  0  0  0
  -18.0270  -28.1370   22.8510 C   0  0  0  0  0  0  0  0  0  0  0  0
  -20.5870  -28.3660   23.1340 C   0  0  0  0  0  3  0  0  0  0  0  0
  -20.6770  -26.9400   22.5420 C   0  0  0  0  0  2  0  0  0  0  0  0
  -19.5750  -26.6380   21.5230 C   0  0  0  0  0  2  0  0  0  0  0  0
  -18.1930  -26.7920   22.1640 C   0  0  0  0  0  2  0  0  0  0  0  0
  -19.1520  -28.8830   23.2920 C   0  0  0  0  0  0  0  0  0  0  0  0
  -18.9450  -30.1440   23.8900 C   0  0  0  0  0  3  0  0  0  0  0  0
  -17.6450  -30.6580   24.0560 C   0  0  0  0  0  3  0  0  0  0  0  0
  -16.5350  -29.9080   23.6320 C   0  0  0  0  0  3  0  0  0  0  0  0
  -16.7260  -28.6500   23.0340 C   0  0  0  0  0  3  0  0  0  0  0  0
  -25.9030  -32.4830   23.8400 C   0  0  0  0  0  3  0  0  0  0  0  0
  -26.4450  -31.6600   25.0720 C   0  0  1  0  0  0  0  0  0  0  0  0
  -25.3730  -31.3720   26.1480 C   0  0  0  0  0  1  0  0  0  0  0  0
  -27.0260  -30.3040   24.6080 C   0  0  0  0  0  1  0  0  0  0  0  0
  -27.6030  -32.4320   25.7480 C   0  0  0  0  0  1  0  0  0  0  0  0
  -25.5910  -33.8620   24.2340 N   0  0  0  0  0  0  0  0  0  0  0  0
  -25.9030  -34.9480   23.5130 C   0  0  0  0  0  0  0  0  0  0  0  0
  -26.5580  -34.8940   22.4680 O   0  0  0  0  0  0  0  0  0  0  0  0
  -25.0050  -33.9770   25.0480 H   0  0  0  0  0  0  0  0  0  0  0  0
  -24.1490  -36.7330   23.2640 C   0  0  0  0  0  1  0  0  0  0  0  0
  -25.4110  -36.3120   24.0340 C   0  0  0  0  0  3  0  0  0  0  0  0
  -27.5590  -37.1820   24.8460 C   0  0  0  0  0  1  0  0  0  0  0  0
  -26.4300  -37.3800   23.9400 N   0  0  0  0  0  0  0  0  0  0  0  0
  -26.0190  -38.2890   24.1370 H   0  0  0  0  0  0  0  0  0  0  0  0
  1  2  1  0
  3  4  1  0
  3  2  1  0
  4  5  1  0
  6  7  1  0
  6  5  1  0
  7  8  1  0
  8  9  1  0
 10  9  1  0
 11 10  1  0
 12 11  1  0
 13 12  1  0
 14 13  1  0
 15 16  1  0
 15 14  1  0
 16 25  1  0
 17 25  1  0
 18 23  1  0
 19 20  1  0
 19 18  1  0
 21 20  1  0
 21 30  1  0
 21 22  1  0
 23 17  1  0
 23 22  1  0
 24 17  2  0
 25 26  1  0
 27 28  2  0
 28 47  1  0
 29 28  1  0
 29 32  1  0
 30 27  1  0
 30 31  1  0
 31 29  2  0
 32 33  1  0
 33 34  2  0
 35 38  1  0
 35 34  1  0
 36 35  2  0
 37 36  1  0
 37 32  2  0
 38 39  1  0
 39 40  1  0
 40 41  2  0
 42 41  1  0
 42 46  1  0
 43 42  2  0
 44 39  2  0
 44 43  1  0
 45 44  1  0
 47 48  1  0
 48 51  1  0
 48 50  1  0
 49 47  2  0
 52 53  1  0
 52 27  1  0
 54 52  1  0
 55 56  1  0
 55  1  1  0
 57 56  1  0
 58 57  1  0
 59 58  1  0
 60 59  1  0
 61 62  1  0
 61 60  1  0
 62 64  1  0
 63 61  2  0
 65 62  1  0
 65 66  1  0
 66 67  1  0
 67 69  1  0
 68 79  2  0
 69 74  1  0
 70 78  1  0
 70 80  1  0
 71 77  1  0
 71 73  1  0
 72 78  1  0
 73 72  1  0
 74 73  2  0
 75 76  1  0
 75 69  2  0
 76 71  2  0
 77 70  1  0
 78 68  1  0
 80 82  2  0
 81 80  1  0
 83 81  1  0
 84 93  2  0
 84 89  1  0
 85 81  1  0
 85 89  1  0
 86 85  1  0
 87 88  1  0
 87 86  1  0
 88 84  1  0
 89 90  2  0
 90 91  1  0
 92 91  2  0
 93 92  1  0
 94 68  1  0
 94 99  1  0
 94 95  1  0
 95 98  1  1
 95 96  1  0
 97 95  1  0
 99102  1  0
100104  1  0
100 99  1  0
101100  2  0
104103  1  0
106104  1  0
106107  1  0
106105  1  0
M  ISO  4  17 100  25 100  66 101  67 101
M  END
>  <TORSDO>  (14) 
F 40

>  <SCORE>  (14) 
1.286

>  <name>  (14) 
15

>  <ligand_id>  (14) 
15

>  <original_smiles>  (14) 
[H]c1c([H])c([H])c2c(c1[H])C([H])([H])C([H])([H])C([H])([H])C2([H])N([H])C(=O)C1([H])N(C(=O)C([H])(N([H])C(=O)C([H])(N([H])C([H])([H])[H])C([H])([H])[H])C(C([H])([H])[H])(C([H])([H])[H])C([H])([H])[H])C([H])([H])c2c([H])c(OC([H])([H])C([H])([H])N([H])C(=O)C([H])([H])OC([H])([H])C([H])([H])OC([H])([H])C([H])([H])OC([H])([H])C([H])([H])OC([H])([H])C([H])([H])OC([H])([H])C([H])([H])OC([H])([H])C([H])([H])OC([H])([H])C([H])([H])N([H])C(=O)N3C([H])([H])C([H])([H])C([H])([H])C([H])(n4nc(-c5c([H])c([H])c(Oc6c([H])c([H])c(F)c([H])c6F)c([H])c5[H])c(C(=O)N([H])[H])c4N([H])[H])C3([H])[H])c([H])c([H])c2C1([H])[H]

>  <smiles>  (14) 
[H]c1c([H])c([H])c2c(c1[H])C([H])([H])C([H])([H])C([H])([H])C2([H])N([H])C(=O)C1([H])N(C(=O)C([H])(N([H])C(=O)C([H])(N([H])C([H])([H])[H])C([H])([H])[H])C(C([H])([H])[H])(C([H])([H])[H])C([H])([H])[H])C([H])([H])c2c([H])c(OC([H])([H])C([H])([H])N([H])C(=O)C([H])([H])OC([H])([H])C([H])([H])OC([H])([H])C([H])([H])OC([H])([H])C([H])([H])OC([H])([H])C([H])([H])OC([H])([H])C([H])([H])OC([H])([H])C([H])([H])OC([H])([H])C([H])([H])N([H])C(=O)N3C([H])([H])C([H])([H])C([H])([H])C([H])(n4nc(-c5c([H])c([H])c(Oc6c([H])c([H])c(F)c([H])c6F)c([H])c5[H])c(C(=O)N([H])[H])c4N([H])[H])C3([H])[H])c([H])c([H])c2C1([H])[H]

$$$$
16:0:0
     RDKit          3D

100107  0  0  1  0  0  0  0  0999 V2000
  -30.9880  -21.3700   15.8900 C   0  0  0  0  0  2  0  0  0  0  0  0
  -29.6570  -21.7150   16.2630 O   0  0  0  0  0  0  0  0  0  0  0  0
  -29.1160  -20.8940   17.2920 C   0  0  0  0  0  2  0  0  0  0  0  0
  -29.3780  -21.4850   18.6890 C   0  0  0  0  0  2  0  0  0  0  0  0
  -30.6590  -21.0670   19.1420 O   0  0  0  0  0  0  0  0  0  0  0  0
  -31.0390  -21.5030   20.4440 C   0  0  0  0  0  2  0  0  0  0  0  0
  -31.8640  -20.4240   21.1790 C   0  0  0  0  0  2  0  0  0  0  0  0
  -33.1860  -20.2210   20.6730 O   0  0  0  0  0  0  0  0  0  0  0  0
  -33.3110  -19.6200   19.3790 C   0  0  0  0  0  2  0  0  0  0  0  0
  -32.6920  -18.2130   19.2770 C   0  0  0  0  0  2  0  0  0  0  0  0
  -31.2800  -18.3390   19.1430 O   0  0  0  0  0  0  0  0  0  0  0  0
  -30.5350  -17.1600   19.3780 C   0  0  0  0  0  2  0  0  0  0  0  0
  -30.4600  -16.8030   20.8860 C   0  0  0  0  0  2  0  0  0  0  0  0
  -30.7330  -14.3840   20.6290 C   0  0  0  0  0  0  0  0  0  0  0  0
  -30.3880  -12.2740   19.4340 C   0  0  0  0  0  2  0  0  0  0  0  0
  -29.4740  -12.5480   18.2250 C   0  0  0  0  0  2  0  0  0  0  0  0
  -27.9890  -12.4470   18.6300 C   0  0  0  0  0  2  0  0  0  0  0  0
  -27.6540  -13.2500   19.9170 C   0  0  0  0  0  3  0  0  0  0  0  0
  -28.6890  -12.9710   21.0270 C   0  0  0  0  0  2  0  0  0  0  0  0
  -30.0280  -13.2390   20.4810 N   0  0  0  0  0  0  0  0  0  0  0  0
  -31.8700  -14.5520   20.1870 O   0  0  0  0  0  0  0  0  0  0  0  0
  -30.0260  -15.4230   21.0770 N   0  0  0  0  0  0  0  0  0  0  0  0
  -29.0840  -15.2490   21.3930 H   0  0  0  0  0  0  0  0  0  0  0  0
  -25.2510  -13.8580   20.6120 C   0  0  0  0  0  0  0  0  0  0  0  0
  -24.1780  -13.0890   20.9620 C   0  0  0  0  0  0  0  0  0  0  0  0
  -24.6330  -11.7330   20.9180 C   0  0  0  0  0  0  0  0  0  0  0  0
  -26.2940  -12.9770   20.3750 N   0  0  0  0  0  0  0  0  0  0  0  0
  -25.9250  -11.6910   20.6160 N   0  0  0  0  0  0  0  0  0  0  0  0
  -23.9040  -10.4710   21.0910 C   0  0  0  0  0  0  0  0  0  0  0  0
  -24.3220   -9.5000   22.0270 C   0  0  0  0  0  3  0  0  0  0  0  0
  -23.5950   -8.3010   22.1860 C   0  0  0  0  0  3  0  0  0  0  0  0
  -22.4380   -8.0630   21.4070 C   0  0  0  0  0  0  0  0  0  0  0  0
  -22.0400   -9.0240   20.4600 C   0  0  0  0  0  3  0  0  0  0  0  0
  -22.7660  -10.2150   20.3010 C   0  0  0  0  0  3  0  0  0  0  0  0
  -21.6890   -6.9150   21.4730 O   0  0  0  0  0  0  0  0  0  0  0  0
  -21.5980   -6.1770   22.6260 C   0  0  0  0  0  0  0  0  0  0  0  0
  -21.1070   -6.7290   23.8290 C   0  0  0  0  0  3  0  0  0  0  0  0
  -20.9690   -5.9170   24.9730 C   0  0  0  0  0  3  0  0  0  0  0  0
  -21.3110   -4.5530   24.9120 C   0  0  0  0  0  0  0  0  0  0  0  0
  -21.7930   -3.9990   23.7140 C   0  0  0  0  0  3  0  0  0  0  0  0
  -21.9330   -4.8090   22.5730 C   0  0  0  0  0  0  0  0  0  0  0  0
  -22.3790   -4.2670   21.4150 F   0  0  0  0  0  0  0  0  0  0  0  0
  -21.1710   -3.7700   26.0070 F   0  0  0  0  0  0  0  0  0  0  0  0
  -22.7780  -13.5680   21.2280 C   0  0  0  0  0  0  0  0  0  0  0  0
  -22.0350  -12.8610   22.0710 N   0  0  0  0  0  0  0  0  0  0  0  0
  -22.3530  -14.6070   20.7220 O   0  0  0  0  0  0  0  0  0  0  0  0
  -22.3890  -12.0180   22.5000 H   0  0  0  0  0  0  0  0  0  0  0  0
  -21.0960  -13.1610   22.2900 H   0  0  0  0  0  0  0  0  0  0  0  0
  -25.4250  -15.2300   20.4570 N   0  0  0  0  0  0  0  0  0  0  0  0
  -24.6620  -15.8820   20.6040 H   0  0  0  0  0  0  0  0  0  0  0  0
  -26.2780  -15.6730   20.1390 H   0  0  0  0  0  0  0  0  0  0  0  0
  -31.6830  -22.6300   15.3440 C   0  0  0  0  0  2  0  0  0  0  0  0
  -31.6360  -23.7040   16.2860 O   0  0  0  0  0  0  0  0  0  0  0  0
  -32.5560  -23.5940   17.3710 C   0  0  0  0  0  2  0  0  0  0  0  0
  -32.2870  -24.7130   18.3910 C   0  0  0  0  0  2  0  0  0  0  0  0
  -31.0390  -24.4620   19.0300 O   0  0  0  0  0  0  0  0  0  0  0  0
  -30.8030  -25.2660   20.1800 C   0  0  0  0  0  2  0  0  0  0  0  0
  -29.4160  -24.9310   20.7760 C   0  0  0  0  0  2  0  0  0  0  0  0
  -28.7690  -26.1010   21.2430 O   0  0  0  0  0  0  0  0  0  0  0  0
  -28.5260  -26.9600   20.0470 O   0  0  0  0  0  0  0  0  0  0  0  0
  -24.5930  -31.9330   23.2580 C   0  0  0  0  0  0  0  0  0  0  0  0
  -27.3200  -27.5890   20.1560 C   0  0  0  0  0  0  0  0  0  0  0  0
  -23.4100  -30.5210   21.5980 C   0  0  0  0  0  3  0  0  0  0  0  0
  -24.8920  -29.0080   20.1820 C   0  0  0  0  0  0  0  0  0  0  0  0
  -25.9240  -30.9310   21.4080 C   0  0  0  0  0  2  0  0  0  0  0  0
  -26.0330  -29.5590   20.7780 C   0  0  0  0  0  0  0  0  0  0  0  0
  -27.2500  -28.8490   20.7750 C   0  0  0  0  0  3  0  0  0  0  0  0
  -26.1680  -27.0270   19.5720 C   0  0  0  0  0  3  0  0  0  0  0  0
  -24.9480  -27.7340   19.5880 C   0  0  0  0  0  3  0  0  0  0  0  0
  -23.6350  -29.8460   20.2180 C   0  0  0  0  0  2  0  0  0  0  0  0
  -24.6590  -31.1420   22.1480 N   0  0  0  0  0  0  0  0  0  0  0  0
  -23.5070  -32.1880   23.7960 O   0  0  0  0  0  0  0  0  0  0  0  0
  -22.7710  -29.4890   22.5520 C   0  0  0  0  0  0  0  0  0  0  0  0
  -21.4490  -29.2950   22.4190 N   0  0  0  0  0  0  0  0  0  0  0  0
  -23.4590  -28.8620   23.3630 O   0  0  0  0  0  0  0  0  0  0  0  0
  -20.9540  -29.8510   21.7360 H   0  0  0  0  0  0  0  0  0  0  0  0
  -18.0810  -28.0880   22.9060 C   0  0  0  0  0  0  0  0  0  0  0  0
  -20.6390  -28.3420   23.1750 C   0  0  0  0  0  3  0  0  0  0  0  0
  -20.7420  -26.9220   22.5710 C   0  0  0  0  0  2  0  0  0  0  0  0
  -19.6370  -26.6170   21.5560 C   0  0  0  0  0  2  0  0  0  0  0  0
  -18.2570  -26.7490   22.2070 C   0  0  0  0  0  2  0  0  0  0  0  0
  -19.2000  -28.8420   23.3450 C   0  0  0  0  0  0  0  0  0  0  0  0
  -18.9830  -30.0950   23.9580 C   0  0  0  0  0  3  0  0  0  0  0  0
  -17.6790  -30.5940   24.1360 C   0  0  0  0  0  3  0  0  0  0  0  0
  -16.5740  -29.8350   23.7140 C   0  0  0  0  0  3  0  0  0  0  0  0
  -16.7750  -28.5840   23.1030 C   0  0  0  0  0  3  0  0  0  0  0  0
  -25.8720  -32.5700   23.8880 C   0  0  0  0  0  3  0  0  0  0  0  0
  -25.5570  -33.9710   24.2010 N   0  0  0  0  0  0  0  0  0  0  0  0
  -25.8980  -35.0140   23.4340 C   0  0  0  0  0  0  0  0  0  0  0  0
  -26.5800  -34.9020   22.4130 O   0  0  0  0  0  0  0  0  0  0  0  0
  -24.9500  -34.1330   24.9910 H   0  0  0  0  0  0  0  0  0  0  0  0
  -24.1760  -36.8000   23.0300 C   0  0  0  0  0  1  0  0  0  0  0  0
  -25.4010  -36.4060   23.8700 C   0  0  0  0  0  3  0  0  0  0  0  0
  -27.5150  -37.3010   24.7380 C   0  0  0  0  0  1  0  0  0  0  0  0
  -26.4350  -37.4580   23.7680 N   0  0  0  0  0  0  0  0  0  0  0  0
  -26.0240  -38.3780   23.8990 H   0  0  0  0  0  0  0  0  0  0  0  0
  -26.3790  -31.8080   25.1730 C   0  0  1  0  0  0  0  0  0  0  0  0
  -25.2710  -31.5780   26.2280 C   0  0  0  0  0  1  0  0  0  0  0  0
  -26.9690  -30.4310   24.7930 C   0  0  0  0  0  1  0  0  0  0  0  0
  -27.5200  -32.6090   25.8430 C   0  0  0  0  0  1  0  0  0  0  0  0
  1  2  1  0
  2  3  1  0
  3  4  1  0
  4  5  1  0
  5  6  1  0
  6  7  1  0
  8  7  1  0
  9  8  1  0
 10  9  1  0
 11 10  1  0
 11 12  1  0
 12 13  1  0
 13 22  1  0
 14 22  1  0
 15 20  1  0
 16 17  1  0
 16 15  1  0
 18 17  1  0
 18 27  1  0
 18 19  1  0
 20 14  1  0
 20 19  1  0
 21 14  2  0
 22 23  1  0
 24 25  2  0
 25 44  1  0
 26 25  1  0
 26 29  1  0
 27 24  1  0
 27 28  1  0
 28 26  2  0
 29 30  1  0
 30 31  2  0
 32 35  1  0
 32 31  1  0
 33 32  2  0
 34 33  1  0
 34 29  2  0
 35 36  1  0
 36 37  1  0
 37 38  2  0
 39 38  1  0
 39 43  1  0
 40 39  2  0
 41 36  2  0
 41 40  1  0
 42 41  1  0
 44 45  1  0
 45 48  1  0
 45 47  1  0
 46 44  2  0
 49 50  1  0
 49 24  1  0
 51 49  1  0
 52  1  1  0
 52 53  1  0
 53 54  1  0
 54 55  1  0
 55 56  1  0
 56 57  1  0
 57 58  1  0
 58 59  1  0
 60 62  1  0
 60 59  1  0
 61 72  2  0
 62 67  1  0
 63 71  1  0
 63 73  1  0
 64 70  1  0
 64 66  1  0
 65 71  1  0
 66 65  1  0
 67 66  2  0
 68 69  1  0
 68 62  2  0
 69 64  2  0
 70 63  1  0
 71 61  1  0
 73 75  2  0
 74 73  1  0
 76 74  1  0
 77 86  2  0
 77 82  1  0
 78 74  1  0
 78 82  1  0
 79 78  1  0
 80 81  1  0
 80 79  1  0
 81 77  1  0
 82 83  2  0
 83 84  1  0
 85 84  2  0
 86 85  1  0
 87 61  1  0
 87 88  1  0
 87 97  1  0
 88 91  1  0
 89 93  1  0
 89 88  1  0
 90 89  2  0
 93 92  1  0
 95 93  1  0
 95 96  1  0
 95 94  1  0
 97100  1  1
 97 98  1  0
 99 97  1  0
M  ISO  4  14 100  22 100  59 101  60 101
M  END
>  <TORSDO>  (15) 
F 36

>  <SCORE>  (15) 
-9.805

>  <name>  (15) 
16

>  <ligand_id>  (15) 
16

>  <original_smiles>  (15) 
[H]c1c([H])c([H])c2c(c1[H])C([H])([H])C([H])([H])C([H])([H])C2([H])N([H])C(=O)C1([H])N(C(=O)C([H])(N([H])C(=O)C([H])(N([H])C([H])([H])[H])C([H])([H])[H])C(C([H])([H])[H])(C([H])([H])[H])C([H])([H])[H])C([H])([H])c2c([H])c(OOC([H])([H])C([H])([H])OC([H])([H])C([H])([H])OC([H])([H])C([H])([H])OC([H])([H])C([H])([H])OC([H])([H])C([H])([H])OC([H])([H])C([H])([H])OC([H])([H])C([H])([H])N([H])C(=O)N3C([H])([H])C([H])([H])C([H])([H])C([H])(n4nc(-c5c([H])c([H])c(Oc6c([H])c([H])c(F)c([H])c6F)c([H])c5[H])c(C(=O)N([H])[H])c4N([H])[H])C3([H])[H])c([H])c([H])c2C1([H])[H]

>  <smiles>  (15) 
[H]c1c([H])c([H])c2c(c1[H])C([H])([H])C([H])([H])C([H])([H])C2([H])N([H])C(=O)C1([H])N(C(=O)C([H])(N([H])C(=O)C([H])(N([H])C([H])([H])[H])C([H])([H])[H])C(C([H])([H])[H])(C([H])([H])[H])C([H])([H])[H])C([H])([H])c2c([H])c(OOC([H])([H])C([H])([H])OC([H])([H])C([H])([H])OC([H])([H])C([H])([H])OC([H])([H])C([H])([H])OC([H])([H])C([H])([H])OC([H])([H])C([H])([H])OC([H])([H])C([H])([H])N([H])C(=O)N3C([H])([H])C([H])([H])C([H])([H])C([H])(n4nc(-c5c([H])c([H])c(Oc6c([H])c([H])c(F)c([H])c6F)c([H])c5[H])c(C(=O)N([H])[H])c4N([H])[H])C3([H])[H])c([H])c([H])c2C1([H])[H]

$$$$
17:0:0
     RDKit          3D

113120  0  0  1  0  0  0  0  0999 V2000
  -22.9050  -18.9550   18.2000 C   0  0  0  0  0  2  0  0  0  0  0  0
  -22.5940  -20.2480   18.7040 O   0  0  0  0  0  0  0  0  0  0  0  0
  -22.6000  -20.3110   20.1240 C   0  0  0  0  0  2  0  0  0  0  0  0
  -22.1750  -21.7180   20.5640 C   0  0  0  0  0  2  0  0  0  0  0  0
  -23.2680  -22.6000   20.3500 O   0  0  0  0  0  0  0  0  0  0  0  0
  -23.0510  -23.9070   20.8640 C   0  0  0  0  0  2  0  0  0  0  0  0
  -24.3910  -24.6480   20.8380 C   0  0  0  0  0  2  0  0  0  0  0  0
  -25.3000  -23.9660   21.6930 O   0  0  0  0  0  0  0  0  0  0  0  0
  -26.6140  -24.5040   21.6480 C   0  0  0  0  0  2  0  0  0  0  0  0
  -27.5970  -23.4510   22.1710 C   0  0  0  0  0  2  0  0  0  0  0  0
  -27.6350  -22.3840   21.2310 O   0  0  0  0  0  0  0  0  0  0  0  0
  -28.7100  -21.4860   21.4530 C   0  0  0  0  0  2  0  0  0  0  0  0
  -28.6220  -20.3420   20.4350 C   0  0  0  0  0  2  0  0  0  0  0  0
  -29.9340  -19.9100   20.1150 O   0  0  0  0  0  0  0  0  0  0  0  0
  -29.9750  -19.0610   18.9770 C   0  0  0  0  0  2  0  0  0  0  0  0
  -31.3790  -18.4560   18.8900 C   0  0  0  0  0  2  0  0  0  0  0  0
  -31.4840  -17.4590   19.8970 O   0  0  0  0  0  0  0  0  0  0  0  0
  -32.7900  -16.9180   20.0150 C   0  0  0  0  0  2  0  0  0  0  0  0
  -32.7430  -15.7870   21.0560 C   0  0  0  0  0  2  0  0  0  0  0  0
  -31.9670  -13.9550   19.5680 C   0  0  0  0  0  0  0  0  0  0  0  0
  -31.1550  -11.9620   18.3690 C   0  0  0  0  0  2  0  0  0  0  0  0
  -30.1400  -12.3180   17.2690 C   0  0  0  0  0  2  0  0  0  0  0  0
  -28.7160  -12.3910   17.8480 C   0  0  0  0  0  2  0  0  0  0  0  0
  -28.6370  -13.2730   19.1210 C   0  0  0  0  0  3  0  0  0  0  0  0
  -29.7460  -12.8910   20.1260 C   0  0  0  0  0  2  0  0  0  0  0  0
  -31.0510  -12.9620   19.4400 N   0  0  0  0  0  0  0  0  0  0  0  0
  -32.9160  -14.1120   18.7970 O   0  0  0  0  0  0  0  0  0  0  0  0
  -31.8310  -14.7180   20.6560 N   0  0  0  0  0  0  0  0  0  0  0  0
  -31.0390  -14.5330   21.2530 H   0  0  0  0  0  0  0  0  0  0  0  0
  -26.4830  -14.2360   20.1560 C   0  0  0  0  0  0  0  0  0  0  0  0
  -25.3290  -13.6390   20.5830 C   0  0  0  0  0  0  0  0  0  0  0  0
  -25.5100  -12.2360   20.3830 C   0  0  0  0  0  0  0  0  0  0  0  0
  -27.3100  -13.2070   19.7310 N   0  0  0  0  0  0  0  0  0  0  0  0
  -26.7300  -11.9920   19.9200 N   0  0  0  0  0  0  0  0  0  0  0  0
  -24.5750  -11.1170   20.5510 C   0  0  0  0  0  0  0  0  0  0  0  0
  -24.8970   -9.9990   21.3530 C   0  0  0  0  0  3  0  0  0  0  0  0
  -23.9740   -8.9440   21.5140 C   0  0  0  0  0  3  0  0  0  0  0  0
  -22.7130   -8.9990   20.8740 C   0  0  0  0  0  0  0  0  0  0  0  0
  -22.4080  -10.1030   20.0580 C   0  0  0  0  0  3  0  0  0  0  0  0
  -23.3290  -11.1510   19.8940 C   0  0  0  0  0  3  0  0  0  0  0  0
  -21.7650   -8.0090   20.9510 O   0  0  0  0  0  0  0  0  0  0  0  0
  -21.6290   -7.2290   22.0720 C   0  0  0  0  0  0  0  0  0  0  0  0
  -21.3640   -7.7880   23.3410 C   0  0  0  0  0  3  0  0  0  0  0  0
  -21.1620   -6.9460   24.4530 C   0  0  0  0  0  3  0  0  0  0  0  0
  -21.2140   -5.5480   24.2970 C   0  0  0  0  0  0  0  0  0  0  0  0
  -21.4720   -4.9900   23.0330 C   0  0  0  0  0  3  0  0  0  0  0  0
  -21.6750   -5.8290   21.9230 C   0  0  0  0  0  0  0  0  0  0  0  0
  -21.9020   -5.2840   20.7030 F   0  0  0  0  0  0  0  0  0  0  0  0
  -21.0120   -4.7390   25.3630 F   0  0  0  0  0  0  0  0  0  0  0  0
  -24.0860  -14.3320   21.0620 C   0  0  0  0  0  0  0  0  0  0  0  0
  -23.3350  -13.6990   21.9560 N   0  0  0  0  0  0  0  0  0  0  0  0
  -23.8000  -15.4660   20.6800 O   0  0  0  0  0  0  0  0  0  0  0  0
  -23.5810  -12.7770   22.2850 H   0  0  0  0  0  0  0  0  0  0  0  0
  -22.5010  -14.1420   22.3150 H   0  0  0  0  0  0  0  0  0  0  0  0
  -26.8930  -15.5630   20.0760 N   0  0  0  0  0  0  0  0  0  0  0  0
  -26.2830  -16.3320   20.3270 H   0  0  0  0  0  0  0  0  0  0  0  0
  -27.7850  -15.8620   19.7040 H   0  0  0  0  0  0  0  0  0  0  0  0
  -23.6870  -19.1180   16.8920 C   0  0  0  0  0  2  0  0  0  0  0  0
  -22.8110  -19.5440   15.8520 O   0  0  0  0  0  0  0  0  0  0  0  0
  -23.4830  -19.9830   14.6730 C   0  0  0  0  0  2  0  0  0  0  0  0
  -23.4070  -21.5090   14.4990 C   0  0  0  0  0  2  0  0  0  0  0  0
  -24.3840  -22.1210   15.3280 O   0  0  0  0  0  0  0  0  0  0  0  0
  -24.2790  -23.5370   15.3790 C   0  0  0  0  0  2  0  0  0  0  0  0
  -25.1980  -23.9860   16.5220 C   0  0  0  0  0  2  0  0  0  0  0  0
  -26.5610  -23.4380   16.3320 N   0  0  0  0  0  4  0  0  0  0  0  0
  -26.5070  -22.8870   15.4870 H   0  0  0  0  0  0  0  0  0  0  0  0
  -27.2360  -24.1690   16.1580 H   0  0  0  0  0  0  0  0  0  0  0  0
  -27.0630  -22.5800   17.4290 C   0  0  0  0  0  2  0  0  0  0  0  0
  -27.5140  -23.4010   18.6380 C   0  0  0  0  0  2  0  0  0  0  0  0
  -28.4920  -24.3290   18.1860 O   0  0  0  0  0  0  0  0  0  0  0  0
  -29.4220  -24.6880   19.2040 C   0  0  0  0  0  2  0  0  0  0  0  0
  -30.0270  -26.0800   18.9220 C   0  0  0  0  0  2  0  0  0  0  0  0
  -29.7870  -27.0090   19.9810 O   0  0  0  0  0  0  0  0  0  0  0  0
  -25.0820  -30.0910   24.3160 C   0  0  0  0  0  0  0  0  0  0  0  0
  -28.5820  -27.6750   20.0590 C   0  0  0  0  0  0  0  0  0  0  0  0
  -24.3430  -29.7930   21.9760 C   0  0  0  0  0  3  0  0  0  0  0  0
  -26.1530  -29.1020   20.3240 C   0  0  0  0  0  0  0  0  0  0  0  0
  -26.8290  -30.0360   22.5390 C   0  0  0  0  0  2  0  0  0  0  0  0
  -27.1240  -29.1800   21.3280 C   0  0  0  0  0  0  0  0  0  0  0  0
  -28.3380  -28.4720   21.1970 C   0  0  0  0  0  3  0  0  0  0  0  0
  -27.5860  -27.6040   19.0560 C   0  0  0  0  0  3  0  0  0  0  0  0
  -26.3760  -28.3080   19.1880 C   0  0  0  0  0  3  0  0  0  0  0  0
  -24.8850  -29.8960   20.5260 C   0  0  0  0  0  2  0  0  0  0  0  0
  -25.4220  -29.9550   23.0040 N   0  0  0  0  0  0  0  0  0  0  0  0
  -23.8960  -30.1240   24.6710 O   0  0  0  0  0  0  0  0  0  0  0  0
  -23.5570  -28.4700   22.1150 C   0  0  0  0  0  0  0  0  0  0  0  0
  -22.2660  -28.5000   21.7460 N   0  0  0  0  0  0  0  0  0  0  0  0
  -24.1130  -27.4430   22.5150 O   0  0  0  0  0  0  0  0  0  0  0  0
  -21.8800  -29.3840   21.4430 H   0  0  0  0  0  0  0  0  0  0  0  0
  -18.8290  -27.5540   21.1750 C   0  0  0  0  0  0  0  0  0  0  0  0
  -21.3420  -27.3670   21.7480 C   0  0  0  0  0  3  0  0  0  0  0  0
  -21.4760  -26.5350   20.4500 C   0  0  0  0  0  2  0  0  0  0  0  0
  -20.4850  -26.9520   19.3590 C   0  0  0  0  0  2  0  0  0  0  0  0
  -19.0440  -26.8300   19.8570 C   0  0  0  0  0  2  0  0  0  0  0  0
  -19.9100  -27.8160   22.0580 C   0  0  0  0  0  0  0  0  0  0  0  0
  -19.6600  -28.5180   23.2580 C   0  0  0  0  0  3  0  0  0  0  0  0
  -18.3600  -28.9530   23.5800 C   0  0  0  0  0  3  0  0  0  0  0  0
  -17.2910  -28.6750   22.7100 C   0  0  0  0  0  3  0  0  0  0  0  0
  -17.5260  -27.9760   21.5130 C   0  0  0  0  0  3  0  0  0  0  0  0
  -26.1650  -30.2340   25.4310 C   0  0  0  0  0  3  0  0  0  0  0  0
  -26.1170  -31.6180   25.9210 N   0  0  0  0  0  0  0  0  0  0  0  0
  -27.0500  -32.5460   25.6690 C   0  0  0  0  0  0  0  0  0  0  0  0
  -28.0900  -32.3000   25.0540 O   0  0  0  0  0  0  0  0  0  0  0  0
  -25.2710  -31.9050   26.3880 H   0  0  0  0  0  0  0  0  0  0  0  0
  -26.3750  -34.8750   25.0060 C   0  0  0  0  0  1  0  0  0  0  0  0
  -26.7870  -33.9750   26.1820 C   0  0  0  0  0  3  0  0  0  0  0  0
  -28.2540  -33.9060   28.1490 C   0  0  0  0  0  1  0  0  0  0  0  0
  -27.9440  -34.5700   26.8860 N   0  0  0  0  0  0  0  0  0  0  0  0
  -27.7810  -35.5560   27.0780 H   0  0  0  0  0  0  0  0  0  0  0  0
  -25.9730  -29.2130   26.6200 C   0  0  1  0  0  0  0  0  0  0  0  0
  -24.5500  -29.2230   27.2210 C   0  0  0  0  0  1  0  0  0  0  0  0
  -26.2750  -27.7690   26.1530 C   0  0  0  0  0  1  0  0  0  0  0  0
  -26.9770  -29.5340   27.7540 C   0  0  0  0  0  1  0  0  0  0  0  0
  1  2  1  0
  2  3  1  0
  3  4  1  0
  5  4  1  0
  5  6  1  0
  7  6  1  0
  7  8  1  0
  9  8  1  0
  9 10  1  0
 11 12  1  0
 11 10  1  0
 13 12  1  0
 14 13  1  0
 15 14  1  0
 16 15  1  0
 16 17  1  0
 17 18  1  0
 18 19  1  0
 20 28  1  0
 21 26  1  0
 22 23  1  0
 22 21  1  0
 24 23  1  0
 24 33  1  0
 24 25  1  0
 26 20  1  0
 26 25  1  0
 27 20  2  0
 28 19  1  0
 28 29  1  0
 30 31  2  0
 31 50  1  0
 32 35  1  0
 32 31  1  0
 33 34  1  0
 33 30  1  0
 34 32  2  0
 35 36  1  0
 36 37  2  0
 38 41  1  0
 38 37  1  0
 39 38  2  0
 40 39  1  0
 40 35  2  0
 41 42  1  0
 42 43  1  0
 43 44  2  0
 45 44  1  0
 45 49  1  0
 46 45  2  0
 47 42  2  0
 47 46  1  0
 48 47  1  0
 50 51  1  0
 51 53  1  0
 51 54  1  0
 52 50  2  0
 55 30  1  0
 55 56  1  0
 57 55  1  0
 58  1  1  0
 59 58  1  0
 60 59  1  0
 61 60  1  0
 61 62  1  0
 62 63  1  0
 63 64  1  0
 65 64  1  0
 65 68  1  0
 66 65  1  0
 67 65  1  0
 68 69  1  0
 70 69  1  0
 70 71  1  0
 72 71  1  0
 72 73  1  0
 73 75  1  0
 74 85  2  0
 75 80  1  0
 76 86  1  0
 76 84  1  0
 77 83  1  0
 77 79  1  0
 78 84  1  0
 79 78  1  0
 80 79  2  0
 81 82  1  0
 81 75  2  0
 82 77  2  0
 83 76  1  0
 84 74  1  0
 86 88  2  0
 87 86  1  0
 89 87  1  0
 90 99  2  0
 90 95  1  0
 91 87  1  0
 91 95  1  0
 92 91  1  0
 93 94  1  0
 93 92  1  0
 94 90  1  0
 95 96  2  0
 96 97  1  0
 98 97  2  0
 99 98  1  0
100 74  1  0
100101  1  0
100110  1  0
101104  1  0
102101  1  0
102106  1  0
103102  2  0
106105  1  0
106108  1  0
108109  1  0
108107  1  0
110111  1  1
110113  1  0
112110  1  0
M  ISO  4  20 100  28 100  72 101  73 101
M  END
>  <TORSDO>  (16) 
F 47

>  <SCORE>  (16) 
9.135

>  <name>  (16) 
17

>  <ligand_id>  (16) 
17

>  <original_smiles>  (16) 
[H]c1c([H])c([H])c2c(c1[H])C([H])([H])C([H])([H])C([H])([H])C2([H])N([H])C(=O)C1([H])N(C(=O)C([H])(N([H])C(=O)C([H])(N([H])C([H])([H])[H])C([H])([H])[H])C(C([H])([H])[H])(C([H])([H])[H])C([H])([H])[H])C([H])([H])c2c([H])c(OC([H])([H])C([H])([H])OC([H])([H])C([H])([H])[N+]([H])([H])C([H])([H])C([H])([H])OC([H])([H])C([H])([H])OC([H])([H])C([H])([H])OC([H])([H])C([H])([H])OC([H])([H])C([H])([H])OC([H])([H])C([H])([H])OC([H])([H])C([H])([H])OC([H])([H])C([H])([H])OC([H])([H])C([H])([H])N([H])C(=O)N3C([H])([H])C([H])([H])C([H])([H])C([H])(n4nc(-c5c([H])c([H])c(Oc6c([H])c([H])c(F)c([H])c6F)c([H])c5[H])c(C(=O)N([H])[H])c4N([H])[H])C3([H])[H])c([H])c([H])c2C1([H])[H]

>  <smiles>  (16) 
[H]c1c([H])c([H])c2c(c1[H])C([H])([H])C([H])([H])C([H])([H])C2([H])N([H])C(=O)C1([H])N(C(=O)C([H])(N([H])C(=O)C([H])(N([H])C([H])([H])[H])C([H])([H])[H])C(C([H])([H])[H])(C([H])([H])[H])C([H])([H])[H])C([H])([H])c2c([H])c(OC([H])([H])C([H])([H])OC([H])([H])C([H])([H])[N+]([H])([H])C([H])([H])C([H])([H])OC([H])([H])C([H])([H])OC([H])([H])C([H])([H])OC([H])([H])C([H])([H])OC([H])([H])C([H])([H])OC([H])([H])C([H])([H])OC([H])([H])C([H])([H])OC([H])([H])C([H])([H])OC([H])([H])C([H])([H])N([H])C(=O)N3C([H])([H])C([H])([H])C([H])([H])C([H])(n4nc(-c5c([H])c([H])c(Oc6c([H])c([H])c(F)c([H])c6F)c([H])c5[H])c(C(=O)N([H])[H])c4N([H])[H])C3([H])[H])c([H])c([H])c2C1([H])[H]

$$$$
18:0:0
     RDKit          3D

111118  0  0  1  0  0  0  0  0999 V2000
  -23.4130  -15.3590   25.5320 O   0  0  0  0  0  0  0  0  0  0  0  0
  -22.3730  -15.8040   24.6720 C   0  0  0  0  0  2  0  0  0  0  0  0
  -22.9980  -16.6010   23.5230 C   0  0  0  0  0  2  0  0  0  0  0  0
  -23.5550  -17.8010   24.0430 O   0  0  0  0  0  0  0  0  0  0  0  0
  -24.3110  -18.5180   23.0750 C   0  0  0  0  0  2  0  0  0  0  0  0
  -24.9110  -19.7690   23.7310 C   0  0  0  0  0  2  0  0  0  0  0  0
  -23.9170  -20.7820   23.8160 O   0  0  0  0  0  0  0  0  0  0  0  0
  -24.2780  -21.8460   24.6890 C   0  0  0  0  0  2  0  0  0  0  0  0
  -23.3110  -23.0270   24.4880 C   0  0  0  0  0  2  0  0  0  0  0  0
  -23.5530  -23.7320   23.2690 O   0  0  0  0  0  0  0  0  0  0  0  0
  -24.6000  -24.7020   23.3170 C   0  0  0  0  0  2  0  0  0  0  0  0
  -25.8660  -24.2130   22.5960 C   0  0  0  0  0  2  0  0  0  0  0  0
  -26.6880  -25.3310   22.2900 O   0  0  0  0  0  0  0  0  0  0  0  0
  -27.9570  -24.9520   21.7710 C   0  0  0  0  0  2  0  0  0  0  0  0
  -28.7760  -26.1940   21.3640 C   0  0  0  0  0  2  0  0  0  0  0  0
  -28.3790  -26.7060   20.0900 O   0  0  0  0  0  0  0  0  0  0  0  0
  -24.6090  -31.8690   23.2130 C   0  0  0  0  0  0  0  0  0  0  0  0
  -27.2360  -27.4640   20.1120 C   0  0  0  0  0  0  0  0  0  0  0  0
  -23.3980  -30.4890   21.5510 C   0  0  0  0  0  3  0  0  0  0  0  0
  -24.8490  -28.9600   20.1160 C   0  0  0  0  0  0  0  0  0  0  0  0
  -25.9220  -30.8440   21.3660 C   0  0  0  0  0  2  0  0  0  0  0  0
  -26.0020  -29.4780   20.7210 C   0  0  0  0  0  0  0  0  0  0  0  0
  -27.1990  -28.7340   20.7270 C   0  0  0  0  0  3  0  0  0  0  0  0
  -26.0800  -26.9600   19.4860 C   0  0  0  0  0  3  0  0  0  0  0  0
  -24.8800  -27.6960   19.4980 C   0  0  0  0  0  3  0  0  0  0  0  0
  -23.6090  -29.8230   20.1640 C   0  0  0  0  0  2  0  0  0  0  0  0
  -24.6600  -31.0810   22.1020 N   0  0  0  0  0  0  0  0  0  0  0  0
  -23.5290  -32.1430   23.7550 O   0  0  0  0  0  0  0  0  0  0  0  0
  -22.7400  -29.4620   22.4980 C   0  0  0  0  0  0  0  0  0  0  0  0
  -21.4120  -29.3000   22.3750 N   0  0  0  0  0  0  0  0  0  0  0  0
  -23.4180  -28.8130   23.2980 O   0  0  0  0  0  0  0  0  0  0  0  0
  -20.9220  -29.8800   21.7100 H   0  0  0  0  0  0  0  0  0  0  0  0
  -18.0270  -28.1370   22.8510 C   0  0  0  0  0  0  0  0  0  0  0  0
  -20.5870  -28.3620   23.1350 C   0  0  0  0  0  3  0  0  0  0  0  0
  -20.6770  -26.9350   22.5480 C   0  0  0  0  0  2  0  0  0  0  0  0
  -19.5760  -26.6370   21.5250 C   0  0  0  0  0  2  0  0  0  0  0  0
  -18.1930  -26.7910   22.1650 C   0  0  0  0  0  2  0  0  0  0  0  0
  -19.1530  -28.8810   23.2940 C   0  0  0  0  0  0  0  0  0  0  0  0
  -18.9460  -30.1410   23.8940 C   0  0  0  0  0  3  0  0  0  0  0  0
  -17.6470  -30.6560   24.0610 C   0  0  0  0  0  3  0  0  0  0  0  0
  -16.5350  -29.9080   23.6360 C   0  0  0  0  0  3  0  0  0  0  0  0
  -16.7270  -28.6510   23.0350 C   0  0  0  0  0  3  0  0  0  0  0  0
  -25.9010  -32.4830   23.8400 C   0  0  0  0  0  3  0  0  0  0  0  0
  -25.5890  -33.8640   24.2330 N   0  0  0  0  0  0  0  0  0  0  0  0
  -25.9030  -34.9490   23.5120 C   0  0  0  0  0  0  0  0  0  0  0  0
  -26.5580  -34.8930   22.4670 O   0  0  0  0  0  0  0  0  0  0  0  0
  -25.0110  -33.9820   25.0530 H   0  0  0  0  0  0  0  0  0  0  0  0
  -24.1490  -36.7320   23.2630 C   0  0  0  0  0  1  0  0  0  0  0  0
  -25.4110  -36.3120   24.0330 C   0  0  0  0  0  3  0  0  0  0  0  0
  -27.5590  -37.1810   24.8460 C   0  0  0  0  0  1  0  0  0  0  0  0
  -26.4300  -37.3800   23.9400 N   0  0  0  0  0  0  0  0  0  0  0  0
  -26.0200  -38.2880   24.1420 H   0  0  0  0  0  0  0  0  0  0  0  0
  -26.4470  -31.6610   25.0710 C   0  0  1  0  0  0  0  0  0  0  0  0
  -25.3760  -31.3720   26.1460 C   0  0  0  0  0  1  0  0  0  0  0  0
  -27.0290  -30.3050   24.6070 C   0  0  0  0  0  1  0  0  0  0  0  0
  -27.6040  -32.4330   25.7470 C   0  0  0  0  0  1  0  0  0  0  0  0
  -22.9450  -14.4660   26.5330 C   0  0  0  0  0  2  0  0  0  0  0  0
  -24.0840  -14.1640   27.5140 C   0  0  0  0  0  2  0  0  0  0  0  0
  -25.1010  -13.4310   26.8450 O   0  0  0  0  0  0  0  0  0  0  0  0
  -26.1900  -13.1080   27.7000 C   0  0  0  0  0  2  0  0  0  0  0  0
  -27.3060  -12.4650   26.8680 C   0  0  0  0  0  2  0  0  0  0  0  0
  -27.9320  -13.4710   26.0830 O   0  0  0  0  0  0  0  0  0  0  0  0
  -28.9810  -12.9620   25.2720 C   0  0  0  0  0  2  0  0  0  0  0  0
  -29.6280  -14.1290   24.5210 C   0  0  0  0  0  2  0  0  0  0  0  0
  -30.3490  -14.9430   25.4350 O   0  0  0  0  0  0  0  0  0  0  0  0
  -30.8920  -16.0880   24.7960 C   0  0  0  0  0  2  0  0  0  0  0  0
  -31.6720  -16.9400   25.8060 C   0  0  0  0  0  2  0  0  0  0  0  0
  -32.5960  -17.8220   25.1740 O   0  0  0  0  0  0  0  0  0  0  0  0
  -32.0140  -18.9130   24.4630 C   0  0  0  0  0  2  0  0  0  0  0  0
  -32.1690  -18.7240   22.9450 C   0  0  0  0  0  2  0  0  0  0  0  0
  -31.1570  -17.8570   22.4460 O   0  0  0  0  0  0  0  0  0  0  0  0
  -31.3110  -17.5920   21.0620 C   0  0  0  0  0  2  0  0  0  0  0  0
  -30.0850  -16.8210   20.5420 C   0  0  0  0  0  2  0  0  0  0  0  0
  -30.7050  -14.4250   20.5580 C   0  0  0  0  0  0  0  0  0  0  0  0
  -30.4150  -12.2690   19.4250 C   0  0  0  0  0  2  0  0  0  0  0  0
  -29.4970  -12.5080   18.2070 C   0  0  0  0  0  2  0  0  0  0  0  0
  -28.0130  -12.3860   18.6090 C   0  0  0  0  0  2  0  0  0  0  0  0
  -27.6650  -13.2030   19.8820 C   0  0  0  0  0  3  0  0  0  0  0  0
  -28.7030  -12.9550   21.0030 C   0  0  0  0  0  2  0  0  0  0  0  0
  -30.0440  -13.2440   20.4590 N   0  0  0  0  0  0  0  0  0  0  0  0
  -31.8190  -14.6270   20.0710 O   0  0  0  0  0  0  0  0  0  0  0  0
  -29.9620  -15.4390   21.0160 N   0  0  0  0  0  0  0  0  0  0  0  0
  -29.0610  -15.1840   21.3920 H   0  0  0  0  0  0  0  0  0  0  0  0
  -25.2610  -13.8170   20.5690 C   0  0  0  0  0  0  0  0  0  0  0  0
  -24.1850  -13.0440   20.9200 C   0  0  0  0  0  0  0  0  0  0  0  0
  -24.6390  -11.6920   20.8730 C   0  0  0  0  0  0  0  0  0  0  0  0
  -26.3030  -12.9320   20.3390 N   0  0  0  0  0  0  0  0  0  0  0  0
  -25.9310  -11.6480   20.5750 N   0  0  0  0  0  0  0  0  0  0  0  0
  -23.9060  -10.4300   21.0390 C   0  0  0  0  0  0  0  0  0  0  0  0
  -24.3610   -9.4220   21.9170 C   0  0  0  0  0  3  0  0  0  0  0  0
  -23.6300   -8.2260   22.0740 C   0  0  0  0  0  3  0  0  0  0  0  0
  -22.4280   -8.0280   21.3540 C   0  0  0  0  0  0  0  0  0  0  0  0
  -21.9910   -9.0260   20.4640 C   0  0  0  0  0  3  0  0  0  0  0  0
  -22.7240  -10.2140   20.3040 C   0  0  0  0  0  3  0  0  0  0  0  0
  -21.6650   -6.8880   21.4230 O   0  0  0  0  0  0  0  0  0  0  0  0
  -21.6860   -6.0740   22.5270 C   0  0  0  0  0  0  0  0  0  0  0  0
  -21.4020   -6.5640   23.8210 C   0  0  0  0  0  3  0  0  0  0  0  0
  -21.3670   -5.6790   24.9170 C   0  0  0  0  0  3  0  0  0  0  0  0
  -21.6040   -4.3050   24.7210 C   0  0  0  0  0  0  0  0  0  0  0  0
  -21.8820   -3.8150   23.4330 C   0  0  0  0  0  3  0  0  0  0  0  0
  -21.9200   -4.6960   22.3400 C   0  0  0  0  0  0  0  0  0  0  0  0
  -22.1660   -4.2150   21.0970 F   0  0  0  0  0  0  0  0  0  0  0  0
  -21.5640   -3.4530   25.7730 F   0  0  0  0  0  0  0  0  0  0  0  0
  -22.7880  -13.5250   21.1870 C   0  0  0  0  0  0  0  0  0  0  0  0
  -22.0500  -12.8220   22.0400 N   0  0  0  0  0  0  0  0  0  0  0  0
  -22.3590  -14.5590   20.6780 O   0  0  0  0  0  0  0  0  0  0  0  0
  -22.4090  -11.9820   22.4680 H   0  0  0  0  0  0  0  0  0  0  0  0
  -21.1050  -13.1120   22.2440 H   0  0  0  0  0  0  0  0  0  0  0  0
  -25.4330  -15.1870   20.4070 N   0  0  0  0  0  0  0  0  0  0  0  0
  -24.6540  -15.8320   20.4620 H   0  0  0  0  0  0  0  0  0  0  0  0
  -26.2790  -15.6190   20.0580 H   0  0  0  0  0  0  0  0  0  0  0  0
  1 57  1  0
  2  1  1  0
  3  4  1  0
  3  2  1  0
  5  6  1  0
  5  4  1  0
  6  7  1  0
  7  8  1  0
  9  8  1  0
 10 11  1  0
 10  9  1  0
 12 11  1  0
 13 12  1  0
 14 13  1  0
 15 14  1  0
 16 18  1  0
 16 15  1  0
 17 28  2  0
 18 23  1  0
 19 27  1  0
 19 29  1  0
 20 26  1  0
 20 22  1  0
 21 27  1  0
 22 23  2  0
 22 21  1  0
 24 25  1  0
 24 18  2  0
 25 20  2  0
 26 19  1  0
 27 17  1  0
 29 31  2  0
 30 29  1  0
 32 30  1  0
 33 42  2  0
 33 38  1  0
 34 30  1  0
 34 38  1  0
 35 34  1  0
 36 37  1  0
 36 35  1  0
 37 33  1  0
 38 39  2  0
 39 40  1  0
 41 40  2  0
 42 41  1  0
 43 17  1  0
 43 44  1  0
 43 53  1  0
 44 47  1  0
 45 49  1  0
 45 44  1  0
 46 45  2  0
 49 48  1  0
 51 49  1  0
 51 52  1  0
 51 50  1  0
 53 56  1  1
 53 54  1  0
 55 53  1  0
 57 58  1  0
 59 58  1  0
 59 60  1  0
 61 60  1  0
 62 61  1  0
 63 62  1  0
 64 63  1  0
 64 65  1  0
 66 65  1  0
 66 67  1  0
 68 67  1  0
 69 68  1  0
 70 69  1  0
 71 70  1  0
 72 71  1  0
 73 82  1  0
 73 72  1  0
 74 82  1  0
 75 80  1  0
 76 77  1  0
 76 75  1  0
 78 77  1  0
 78 87  1  0
 78 79  1  0
 80 74  1  0
 80 79  1  0
 81 74  2  0
 82 83  1  0
 84 85  2  0
 85104  1  0
 86 85  1  0
 86 89  1  0
 87 84  1  0
 87 88  1  0
 88 86  2  0
 89 90  1  0
 90 91  2  0
 92 95  1  0
 92 91  1  0
 93 92  2  0
 94 93  1  0
 94 89  2  0
 95 96  1  0
 96 97  1  0
 97 98  2  0
 99 98  1  0
 99103  1  0
100 99  2  0
101 96  2  0
101100  1  0
102101  1  0
104105  1  0
105108  1  0
105107  1  0
106104  2  0
109110  1  0
109 84  1  0
111109  1  0
M  ISO  4  15 101  16 101  74 100  82 100
M  END
>  <TORSDO>  (17) 
F 47

>  <SCORE>  (17) 
80.401

>  <name>  (17) 
18

>  <ligand_id>  (17) 
18

>  <original_smiles>  (17) 
[H]c1c([H])c([H])c2c(c1[H])C([H])([H])C([H])([H])C([H])([H])C2([H])N([H])C(=O)C1([H])N(C(=O)C([H])(N([H])C(=O)C([H])(N([H])C([H])([H])[H])C([H])([H])[H])C(C([H])([H])[H])(C([H])([H])[H])C([H])([H])[H])C([H])([H])c2c([H])c(OC([H])([H])C([H])([H])OC([H])([H])C([H])([H])OC([H])([H])C([H])([H])OC([H])([H])C([H])([H])OC([H])([H])C([H])([H])OC([H])([H])C([H])([H])OC([H])([H])C([H])([H])OC([H])([H])C([H])([H])OC([H])([H])C([H])([H])OC([H])([H])C([H])([H])OC([H])([H])C([H])([H])N([H])C(=O)N3C([H])([H])C([H])([H])C([H])([H])C([H])(n4nc(-c5c([H])c([H])c(Oc6c([H])c([H])c(F)c([H])c6F)c([H])c5[H])c(C(=O)N([H])[H])c4N([H])[H])C3([H])[H])c([H])c([H])c2C1([H])[H]

>  <smiles>  (17) 
[H]c1c([H])c([H])c2c(c1[H])C([H])([H])C([H])([H])C([H])([H])C2([H])N([H])C(=O)C1([H])N(C(=O)C([H])(N([H])C(=O)C([H])(N([H])C([H])([H])[H])C([H])([H])[H])C(C([H])([H])[H])(C([H])([H])[H])C([H])([H])[H])C([H])([H])c2c([H])c(OC([H])([H])C([H])([H])OC([H])([H])C([H])([H])OC([H])([H])C([H])([H])OC([H])([H])C([H])([H])OC([H])([H])C([H])([H])OC([H])([H])C([H])([H])OC([H])([H])C([H])([H])OC([H])([H])C([H])([H])OC([H])([H])C([H])([H])OC([H])([H])C([H])([H])OC([H])([H])C([H])([H])N([H])C(=O)N3C([H])([H])C([H])([H])C([H])([H])C([H])(n4nc(-c5c([H])c([H])c(Oc6c([H])c([H])c(F)c([H])c6F)c([H])c5[H])c(C(=O)N([H])[H])c4N([H])[H])C3([H])[H])c([H])c([H])c2C1([H])[H]

$$$$
20:0:0
     RDKit          3D

105113  0  0  1  0  0  0  0  0999 V2000
  -24.5390  -27.0340   15.8650 O   0  0  0  0  0  0  0  0  0  0  0  0
  -25.3910  -28.1740   15.8240 C   0  0  0  0  0  2  0  0  0  0  0  0
  -25.4290  -28.8590   17.1920 C   0  0  0  0  0  2  0  0  0  0  0  0
  -25.5580  -27.8560   18.1910 O   0  0  0  0  0  0  0  0  0  0  0  0
  -24.3180  -27.5010   18.7840 C   0  0  0  0  0  2  0  0  0  0  0  0
  -24.5940  -26.5060   19.9170 C   0  0  0  0  0  2  0  0  0  0  0  0
  -23.3500  -25.9010   20.2690 O   0  0  0  0  0  0  0  0  0  0  0  0
  -23.4640  -24.7540   21.1060 C   0  0  0  0  0  2  0  0  0  0  0  0
  -23.9500  -23.5270   20.3150 C   0  0  0  0  0  2  0  0  0  0  0  0
  -23.4750  -23.5830   18.9740 O   0  0  0  0  0  0  0  0  0  0  0  0
  -24.5120  -23.4060   18.0230 C   0  0  0  0  0  2  0  0  0  0  0  0
  -24.7730  -21.9230   17.7060 C   0  0  0  0  0  2  0  0  0  0  0  0
  -26.1830  -21.6910   17.7070 O   0  0  0  0  0  0  0  0  0  0  0  0
  -26.8870  -22.4360   18.7010 C   0  0  0  0  0  2  0  0  0  0  0  0
  -28.4000  -22.4650   18.3880 C   0  0  0  0  0  2  0  0  0  0  0  0
  -29.3760  -20.2090   17.9020 C   0  0  0  0  0  0  0  0  0  0  0  0
  -30.8940  -18.4250   17.1060 C   0  0  0  0  0  2  0  0  0  0  0  0
  -32.3030  -19.0200   16.9070 C   0  0  0  0  0  2  0  0  0  0  0  0
  -32.4400  -19.6370   15.5000 C   0  0  0  0  0  2  0  0  0  0  0  0
  -31.2730  -20.6010   15.1640 C   0  0  0  0  0  3  0  0  0  0  0  0
  -29.9170  -19.9230   15.4620 C   0  0  0  0  0  2  0  0  0  0  0  0
  -29.9160  -19.4980   16.8740 N   0  0  0  0  0  0  0  0  0  0  0  0
  -29.4980  -19.8850   19.0870 O   0  0  0  0  0  0  0  0  0  0  0  0
  -28.7790  -21.3490   17.5270 N   0  0  0  0  0  0  0  0  0  0  0  0
  -28.7340  -21.5030   16.5330 H   0  0  0  0  0  0  0  0  0  0  0  0
  -30.8530  -22.2480   13.2300 C   0  0  0  0  0  0  0  0  0  0  0  0
  -31.2310  -22.2260   11.9120 C   0  0  0  0  0  0  0  0  0  0  0  0
  -31.9470  -21.0030   11.7300 C   0  0  0  0  0  0  0  0  0  0  0  0
  -31.3370  -21.0730   13.7830 N   0  0  0  0  0  0  0  0  0  0  0  0
  -31.9540  -20.3020   12.8540 N   0  0  0  0  0  0  0  0  0  0  0  0
  -32.6820  -20.4890   10.5690 C   0  0  0  0  0  0  0  0  0  0  0  0
  -32.0630  -19.6540    9.6130 C   0  0  0  0  0  3  0  0  0  0  0  0
  -32.7860  -19.1890    8.4940 C   0  0  0  0  0  3  0  0  0  0  0  0
  -34.1380  -19.5620    8.3180 C   0  0  0  0  0  0  0  0  0  0  0  0
  -34.7560  -20.3750    9.2850 C   0  0  0  0  0  3  0  0  0  0  0  0
  -34.0380  -20.8330   10.4000 C   0  0  0  0  0  3  0  0  0  0  0  0
  -34.9270  -19.1350    7.2760 O   0  0  0  0  0  0  0  0  0  0  0  0
  -34.8810  -19.7400    6.0450 C   0  0  0  0  0  0  0  0  0  0  0  0
  -35.4650  -21.0040    5.8140 C   0  0  0  0  0  3  0  0  0  0  0  0
  -35.4550  -21.5570    4.5180 C   0  0  0  0  0  3  0  0  0  0  0  0
  -34.8740  -20.8440    3.4530 C   0  0  0  0  0  0  0  0  0  0  0  0
  -34.2960  -19.5830    3.6810 C   0  0  0  0  0  3  0  0  0  0  0  0
  -34.3060  -19.0310    4.9740 C   0  0  0  0  0  0  0  0  0  0  0  0
  -33.7670  -17.8060    5.1830 F   0  0  0  0  0  0  0  0  0  0  0  0
  -34.8710  -21.3720    2.2050 F   0  0  0  0  0  0  0  0  0  0  0  0
  -31.0200  -23.3130   10.9020 C   0  0  0  0  0  0  0  0  0  0  0  0
  -30.4030  -22.9870    9.7700 N   0  0  0  0  0  0  0  0  0  0  0  0
  -31.3590  -24.4760   11.1300 O   0  0  0  0  0  0  0  0  0  0  0  0
  -30.1090  -22.0370    9.5950 H   0  0  0  0  0  0  0  0  0  0  0  0
  -30.2240  -23.6950    9.0720 H   0  0  0  0  0  0  0  0  0  0  0  0
  -30.1560  -23.1710   14.0020 N   0  0  0  0  0  0  0  0  0  0  0  0
  -29.8420  -24.0580   13.6250 H   0  0  0  0  0  0  0  0  0  0  0  0
  -30.0170  -23.0910   15.0030 H   0  0  0  0  0  0  0  0  0  0  0  0
  -24.7970  -26.1410   14.7880 C   0  0  0  0  0  2  0  0  0  0  0  0
  -23.5630  -25.2750   14.5260 C   0  0  0  0  0  2  0  0  0  0  0  0
  -20.0110  -26.5750   14.2490 C   0  0  0  0  0  2  0  0  0  0  0  0
  -19.6670  -25.8320   12.9580 C   0  0  0  0  0  2  0  0  0  0  0  0
  -21.2790  -25.9850   14.8570 C   0  0  0  0  0  2  0  0  0  0  0  0
  -21.9800  -25.3770   12.5410 C   0  0  0  0  0  2  0  0  0  0  0  0
  -20.7760  -26.0750   12.0300 N   0  0  0  0  0  0  0  0  0  0  0  0
  -22.3960  -25.9370   13.8720 N   0  0  2  0  0  4  0  0  0  0  0  0
  -22.6790  -26.8910   13.6930 H   0  0  0  0  0  0  0  0  0  0  0  0
  -20.4310  -25.7560   10.6280 C   0  0  0  0  0  2  0  0  0  0  0  0
  -21.1180  -26.6100    9.4960 C   0  0  0  0  0  2  0  0  0  0  0  0
  -21.6040  -25.9350    8.3140 O   0  0  0  0  0  0  0  0  0  0  0  0
  -27.3900  -22.3330    6.0940 C   0  0  0  0  0  0  0  0  0  0  0  0
  -22.4620  -24.8630    8.4810 C   0  0  0  0  0  0  0  0  0  0  0  0
  -25.9540  -21.1980    7.7510 C   0  0  0  0  0  3  0  0  0  0  0  0
  -24.1940  -22.6490    8.8570 C   0  0  0  0  0  0  0  0  0  0  0  0
  -26.0670  -23.7600    7.6520 C   0  0  0  0  0  2  0  0  0  0  0  0
  -24.6450  -23.7830    8.1670 C   0  0  0  0  0  0  0  0  0  0  0  0
  -23.7830  -24.8910    7.9670 C   0  0  0  0  0  3  0  0  0  0  0  0
  -22.0460  -23.7000    9.1560 C   0  0  0  0  0  3  0  0  0  0  0  0
  -22.8870  -22.6010    9.3490 C   0  0  0  0  0  3  0  0  0  0  0  0
  -25.1570  -21.5050    9.0430 C   0  0  0  0  0  2  0  0  0  0  0  0
  -26.4880  -22.4440    7.1070 N   0  0  0  0  0  0  0  0  0  0  0  0
  -27.8040  -21.2280    5.7170 O   0  0  0  0  0  0  0  0  0  0  0  0
  -25.0710  -20.3510    6.8060 C   0  0  0  0  0  0  0  0  0  0  0  0
  -25.0490  -19.0250    7.0300 N   0  0  0  0  0  0  0  0  0  0  0  0
  -24.4140  -20.8850    5.9070 O   0  0  0  0  0  0  0  0  0  0  0  0
  -25.6040  -18.6670    7.7940 H   0  0  0  0  0  0  0  0  0  0  0  0
  -24.7510  -15.4970    6.3250 C   0  0  0  0  0  0  0  0  0  0  0  0
  -24.2800  -18.0370    6.2720 C   0  0  0  0  0  3  0  0  0  0  0  0
  -22.9500  -17.6970    6.9820 C   0  0  0  0  0  2  0  0  0  0  0  0
  -23.0720  -16.4980    7.9260 C   0  0  0  0  0  2  0  0  0  0  0  0
  -23.4910  -15.2530    7.1380 C   0  0  0  0  0  2  0  0  0  0  0  0
  -25.1300  -16.8070    5.9300 C   0  0  0  0  0  0  0  0  0  0  0  0
  -26.3240  -16.9850    5.1990 C   0  0  0  0  0  3  0  0  0  0  0  0
  -27.1330  -15.8830    4.8650 C   0  0  0  0  0  3  0  0  0  0  0  0
  -26.7490  -14.5860    5.2480 C   0  0  0  0  0  3  0  0  0  0  0  0
  -25.5590  -14.3940    5.9740 C   0  0  0  0  0  3  0  0  0  0  0  0
  -27.9650  -23.5960    5.3780 C   0  0  0  0  0  3  0  0  0  0  0  0
  -29.3940  -23.3530    5.1400 N   0  0  0  0  0  0  0  0  0  0  0  0
  -30.3830  -23.8510    5.8920 C   0  0  0  0  0  0  0  0  0  0  0  0
  -30.1890  -24.6320    6.8270 O   0  0  0  0  0  0  0  0  0  0  0  0
  -29.6260  -22.6820    4.4220 H   0  0  0  0  0  0  0  0  0  0  0  0
  -32.3310  -22.4380    6.6280 C   0  0  0  0  0  1  0  0  0  0  0  0
  -31.8220  -23.4130    5.5530 C   0  0  0  0  0  3  0  0  0  0  0  0
  -32.5790  -25.3100    4.1900 C   0  0  0  0  0  1  0  0  0  0  0  0
  -32.7650  -24.5440    5.4190 N   0  0  0  0  0  0  0  0  0  0  0  0
  -33.7270  -24.2150    5.4480 H   0  0  0  0  0  0  0  0  0  0  0  0
  -27.2210  -23.9380    4.0300 C   0  0  1  0  0  0  0  0  0  0  0  0
  -27.7670  -23.1680    2.8050 C   0  0  0  0  0  1  0  0  0  0  0  0
  -25.7090  -23.6270    4.1430 C   0  0  0  0  0  1  0  0  0  0  0  0
  -27.3390  -25.4530    3.7380 C   0  0  0  0  0  1  0  0  0  0  0  0
  2  1  1  0
  2  3  1  0
  3  4  1  0
  4  5  1  0
  5  6  1  0
  6  7  1  0
  7  8  1  0
  9  8  1  0
 10  9  1  0
 11 10  1  0
 12 13  1  0
 12 11  1  0
 13 14  1  0
 15 14  1  0
 16 23  2  0
 18 17  1  0
 19 18  1  0
 20 29  1  0
 20 21  1  0
 20 19  1  0
 21 22  1  0
 22 17  1  0
 22 16  1  0
 24 16  1  0
 24 15  1  0
 25 24  1  0
 26 29  1  0
 26 51  1  0
 27 26  2  0
 28 27  1  0
 28 30  2  0
 30 29  1  0
 31 28  1  0
 32 31  2  0
 33 32  1  0
 34 33  2  0
 34 35  1  0
 35 36  2  0
 36 31  1  0
 37 34  1  0
 38 37  1  0
 39 38  1  0
 40 39  2  0
 41 42  2  0
 41 40  1  0
 42 43  1  0
 43 44  1  0
 43 38  2  0
 45 41  1  0
 46 48  2  0
 46 27  1  0
 47 46  1  0
 49 47  1  0
 50 47  1  0
 51 53  1  0
 52 51  1  0
 54  1  1  0
 55 54  1  0
 56 58  1  0
 57 56  1  0
 59 61  1  0
 60 59  1  0
 60 57  1  0
 61 55  1  0
 61 58  1  0
 61 62  1  6
 63 60  1  0
 64 63  1  0
 65 67  1  0
 65 64  1  0
 66 76  1  0
 67 73  1  0
 68 78  1  0
 68 75  1  0
 69 75  1  0
 69 74  1  0
 70 71  1  0
 71 69  2  0
 72 71  1  0
 72 67  2  0
 73 74  2  0
 76 70  1  0
 76 68  1  0
 77 66  2  0
 78 79  1  0
 79 81  1  0
 80 78  2  0
 82 86  1  0
 83 84  1  0
 83 79  1  0
 84 85  1  0
 86 85  1  0
 87 83  1  0
 87 82  2  0
 88 87  1  0
 89 88  2  0
 89 90  1  0
 90 91  2  0
 91 82  1  0
 92 66  1  0
 93 92  1  0
 93 94  1  0
 94 95  2  0
 96 93  1  0
 98 94  1  0
 98 97  1  0
 99100  1  0
100101  1  0
100 98  1  0
102104  1  1
102 92  1  0
103102  1  0
105102  1  0
M  ISO  4  16 100  24 100  64 101  65 101
M  END
>  <TORSDO>  (18) 
F 35

>  <SCORE>  (18) 
-3.195

>  <name>  (18) 
20

>  <ligand_id>  (18) 
20

>  <original_smiles>  (18) 
[H]c1c([H])c([H])c2c(c1[H])C([H])([H])C([H])([H])C([H])([H])C2([H])N([H])C(=O)C1([H])N(C(=O)C([H])(N([H])C(=O)C([H])(N([H])C([H])([H])[H])C([H])([H])[H])C(C([H])([H])[H])(C([H])([H])[H])C([H])([H])[H])C([H])([H])c2c([H])c(OC([H])([H])C([H])([H])N3C([H])([H])C([H])([H])C([H])([H])[N+]([H])(C([H])([H])C([H])([H])OC([H])([H])C([H])([H])OC([H])([H])C([H])([H])OC([H])([H])C([H])([H])OC([H])([H])C([H])([H])OC([H])([H])C([H])([H])N([H])C(=O)N4C([H])([H])C([H])([H])C([H])([H])C([H])(n5nc(-c6c([H])c([H])c(Oc7c([H])c([H])c(F)c([H])c7F)c([H])c6[H])c(C(=O)N([H])[H])c5N([H])[H])C4([H])[H])C3([H])[H])c([H])c([H])c2C1([H])[H]

>  <smiles>  (18) 
[H]c1c([H])c([H])c2c(c1[H])C([H])([H])C([H])([H])C([H])([H])C2([H])N([H])C(=O)C1([H])N(C(=O)C([H])(N([H])C(=O)C([H])(N([H])C([H])([H])[H])C([H])([H])[H])C(C([H])([H])[H])(C([H])([H])[H])C([H])([H])[H])C([H])([H])c2c([H])c(OC([H])([H])C([H])([H])N3C([H])([H])C([H])([H])C([H])([H])[N+]([H])(C([H])([H])C([H])([H])OC([H])([H])C([H])([H])OC([H])([H])C([H])([H])OC([H])([H])C([H])([H])OC([H])([H])C([H])([H])OC([H])([H])C([H])([H])N([H])C(=O)N4C([H])([H])C([H])([H])C([H])([H])C([H])(n5nc(-c6c([H])c([H])c(Oc7c([H])c([H])c(F)c([H])c7F)c([H])c6[H])c(C(=O)N([H])[H])c5N([H])[H])C4([H])[H])C3([H])[H])c([H])c([H])c2C1([H])[H]

$$$$
21:0:0
     RDKit          3D

117121  0  0  1  0  0  0  0  0999 V2000
  -22.7690  -21.9820   21.3610 C   0  0  0  0  0  0  0  0  0  0  0  0
  -22.5180  -22.0500   22.6760 N   0  0  0  0  0  0  0  0  0  0  0  0
  -23.9080  -22.0730   20.8960 O   0  0  0  0  0  0  0  0  0  0  0  0
  -21.5550  -21.9410   22.9640 H   0  0  0  0  0  0  0  0  0  0  0  0
  -21.5580  -21.7670   20.4420 C   0  0  0  0  0  2  0  0  0  0  0  0
  -21.9750  -21.2070   19.1970 O   0  0  0  0  0  0  0  0  0  0  0  0
  -20.8730  -20.8980   18.3520 C   0  0  0  0  0  2  0  0  0  0  0  0
  -21.3650  -20.3520   17.0050 C   0  0  0  0  0  2  0  0  0  0  0  0
  -21.9700  -19.0800   17.1940 O   0  0  0  0  0  0  0  0  0  0  0  0
  -22.3320  -18.4560   15.9670 C   0  0  0  0  0  2  0  0  0  0  0  0
  -23.2530  -17.2690   16.2650 C   0  0  0  0  0  2  0  0  0  0  0  0
  -24.4880  -17.8110   16.7020 O   0  0  0  0  0  0  0  0  0  0  0  0
  -25.4280  -16.8360   17.1260 C   0  0  0  0  0  2  0  0  0  0  0  0
  -26.5090  -17.5870   17.9100 C   0  0  0  0  0  2  0  0  0  0  0  0
  -25.8860  -18.0970   19.0820 O   0  0  0  0  0  0  0  0  0  0  0  0
  -26.6740  -19.0340   19.7990 C   0  0  0  0  0  2  0  0  0  0  0  0
  -26.1890  -19.0580   21.2540 C   0  0  0  0  0  2  0  0  0  0  0  0
  -26.4930  -17.7870   21.7960 O   0  0  0  0  0  0  0  0  0  0  0  0
  -26.4220  -17.7000   23.2100 C   0  0  0  0  0  2  0  0  0  0  0  0
  -27.0570  -16.3530   23.5830 C   0  0  0  0  0  2  0  0  0  0  0  0
  -28.1380  -16.0670   22.7050 O   0  0  0  0  0  0  0  0  0  0  0  0
  -29.3380  -16.8080   22.9280 C   0  0  0  0  0  2  0  0  0  0  0  0
  -30.3540  -16.4030   21.8470 C   0  0  0  0  0  2  0  0  0  0  0  0
  -30.2490  -14.9960   21.7340 O   0  0  0  0  0  0  0  0  0  0  0  0
  -30.7840  -14.3400   20.7110 C   0  0  0  0  0  0  0  0  0  0  0  0
  -30.4240  -12.2840   19.3600 C   0  0  0  0  0  2  0  0  0  0  0  0
  -29.4750  -12.5690   18.1810 C   0  0  0  0  0  2  0  0  0  0  0  0
  -28.0000  -12.4150   18.6030 C   0  0  0  0  0  2  0  0  0  0  0  0
  -27.6690  -13.2050   19.8960 C   0  0  0  0  0  3  0  0  0  0  0  0
  -28.7070  -12.9000   20.9990 C   0  0  0  0  0  2  0  0  0  0  0  0
  -30.0510  -13.1770   20.4560 N   0  0  0  0  0  0  0  0  0  0  0  0
  -31.7810  -14.7230   20.0910 O   0  0  0  0  0  0  0  0  0  0  0  0
  -25.2570  -13.8120   20.5730 C   0  0  0  0  0  0  0  0  0  0  0  0
  -24.1800  -13.0400   20.9150 C   0  0  0  0  0  0  0  0  0  0  0  0
  -24.6370  -11.6870   20.8700 C   0  0  0  0  0  0  0  0  0  0  0  0
  -26.3030  -12.9320   20.3490 N   0  0  0  0  0  0  0  0  0  0  0  0
  -25.9300  -11.6460   20.5730 N   0  0  0  0  0  0  0  0  0  0  0  0
  -23.9010  -10.4260   21.0380 C   0  0  0  0  0  0  0  0  0  0  0  0
  -24.3580   -9.4180   21.9160 C   0  0  0  0  0  3  0  0  0  0  0  0
  -23.6270   -8.2220   22.0740 C   0  0  0  0  0  3  0  0  0  0  0  0
  -22.4260   -8.0240   21.3530 C   0  0  0  0  0  0  0  0  0  0  0  0
  -21.9860   -9.0210   20.4640 C   0  0  0  0  0  3  0  0  0  0  0  0
  -22.7170  -10.2100   20.3040 C   0  0  0  0  0  3  0  0  0  0  0  0
  -21.6630   -6.8850   21.4220 O   0  0  0  0  0  0  0  0  0  0  0  0
  -21.6840   -6.0700   22.5260 C   0  0  0  0  0  0  0  0  0  0  0  0
  -21.4010   -6.5630   23.8180 C   0  0  0  0  0  3  0  0  0  0  0  0
  -21.3670   -5.6790   24.9160 C   0  0  0  0  0  3  0  0  0  0  0  0
  -21.6060   -4.3050   24.7220 C   0  0  0  0  0  0  0  0  0  0  0  0
  -21.8810   -3.8130   23.4350 C   0  0  0  0  0  3  0  0  0  0  0  0
  -21.9190   -4.6940   22.3390 C   0  0  0  0  0  0  0  0  0  0  0  0
  -22.1640   -4.2120   21.0960 F   0  0  0  0  0  0  0  0  0  0  0  0
  -21.5650   -3.4540   25.7730 F   0  0  0  0  0  0  0  0  0  0  0  0
  -22.7810  -13.5200   21.1830 C   0  0  0  0  0  0  0  0  0  0  0  0
  -22.0460  -12.8210   22.0420 N   0  0  0  0  0  0  0  0  0  0  0  0
  -22.3460  -14.5470   20.6650 O   0  0  0  0  0  0  0  0  0  0  0  0
  -22.4090  -11.9920   22.4900 H   0  0  0  0  0  0  0  0  0  0  0  0
  -21.1060  -13.1230   22.2620 H   0  0  0  0  0  0  0  0  0  0  0  0
  -25.4280  -15.1810   20.4250 N   0  0  0  0  0  0  0  0  0  0  0  0
  -24.6770  -15.8430   20.5840 H   0  0  0  0  0  0  0  0  0  0  0  0
  -26.3230  -15.6420   20.3180 H   0  0  0  0  0  0  0  0  0  0  0  0
  -23.5140  -22.1990   23.7360 C   0  0  0  0  0  2  0  0  0  0  0  0
  -23.4330  -23.5750   24.4220 C   0  0  0  0  0  2  0  0  0  0  0  0
  -22.1120  -23.8320   25.1770 C   0  0  0  0  0  2  0  0  0  0  0  0
  -22.1510  -25.1420   25.9920 C   0  0  0  0  0  2  0  0  0  0  0  0
  -20.8260  -25.5200   26.5390 N   0  0  0  0  0  4  0  0  0  0  0  0
  -20.4850  -24.7830   27.1390 H   0  0  0  0  0  0  0  0  0  0  0  0
  -20.1630  -25.6250   25.7860 H   0  0  0  0  0  0  0  0  0  0  0  0
  -20.8310  -26.7970   27.2910 C   0  0  0  0  0  2  0  0  0  0  0  0
  -19.4180  -27.3780   27.4290 C   0  0  0  0  0  2  0  0  0  0  0  0
  -18.9040  -27.5820   26.1130 O   0  0  0  0  0  0  0  0  0  0  0  0
  -18.2020  -28.8190   25.9500 C   0  0  0  0  0  2  0  0  0  0  0  0
  -17.5820  -29.0300   24.4850 C   0  0  0  0  0  1  0  0  0  0  0  0
  -18.9050  -29.5270   21.9190 O   0  0  0  0  0  1  0  0  0  0  0  0
  -20.0960  -28.7120   20.8460 C   0  0  0  0  0  1  0  0  0  0  0  0
  -21.9350  -28.0430   20.4530 C   0  0  0  0  0  1  0  0  0  0  0  0
  -23.2990  -26.9690   20.7310 O   0  0  0  0  0  1  0  0  0  0  0  0
  -25.2260  -27.0710   21.1440 O   0  0  0  0  0  1  0  0  0  0  0  0
  -24.6550  -31.9200   23.2650 C   0  0  0  0  0  0  0  0  0  0  0  0
  -26.3400  -27.3000   20.2990 C   0  0  0  0  0  3  0  0  0  0  0  0
  -23.4450  -30.5840   21.6540 C   0  0  0  0  0  3  0  0  0  0  0  0
  -24.8020  -29.3320   19.8470 C   0  0  0  0  0  0  0  0  0  0  0  0
  -25.9870  -30.8430   21.4450 C   0  0  0  0  0  2  0  0  0  0  0  0
  -25.9420  -29.5680   20.6310 C   0  0  0  0  0  0  0  0  0  0  0  0
  -26.9000  -28.5400   20.7010 C   0  0  0  0  0  2  0  0  0  0  0  0
  -25.7830  -27.2390   19.0560 C   0  0  0  0  0  2  0  0  0  0  0  0
  -24.7870  -28.2260   18.9410 C   0  0  0  0  0  2  0  0  0  0  0  0
  -23.6630  -30.2820   20.1280 C   0  0  0  0  0  2  0  0  0  0  0  0
  -24.7160  -31.1470   22.1590 N   0  0  0  0  0  0  0  0  0  0  0  0
  -23.5740  -32.1960   23.8050 O   0  0  0  0  0  0  0  0  0  0  0  0
  -22.9860  -29.4470   22.6510 C   0  0  0  0  0  0  0  0  0  0  0  0
  -21.6920  -29.2050   22.8290 N   0  0  0  0  0  0  0  0  0  0  0  0
  -23.7800  -28.7740   23.2910 O   0  0  0  0  0  0  0  0  0  0  0  0
  -21.0380  -29.8460   22.3970 H   0  0  0  0  0  0  0  0  0  0  0  0
  -18.3140  -27.6550   22.8050 C   0  0  0  0  0  0  0  0  0  0  0  0
  -21.0020  -28.0560   23.4780 C   0  0  0  0  0  3  0  0  0  0  0  0
  -20.9690  -26.6330   22.8050 C   0  0  0  0  0  2  0  0  0  0  0  0
  -19.8380  -26.0600   21.8590 C   0  0  0  0  0  2  0  0  0  0  0  0
  -18.4120  -26.2930   22.2990 C   0  0  0  0  0  2  0  0  0  0  0  0
  -19.6350  -28.4910   23.6270 C   0  0  0  0  0  0  0  0  0  0  0  0
  -19.4870  -30.2050   23.9080 C   0  0  0  0  0  3  0  0  0  0  0  0
  -18.1040  -31.0150   23.3780 C   0  0  0  0  0  3  0  0  0  0  0  0
  -16.8690  -30.1940   22.5900 C   0  0  0  0  0  3  0  0  0  0  0  0
  -16.9540  -28.5450   22.2970 C   0  0  0  0  0  3  0  0  0  0  0  0
  -25.9470  -32.5050   23.8790 C   0  0  0  0  0  3  0  0  0  0  0  0
  -26.4630  -31.6690   25.1090 C   0  0  1  0  0  0  0  0  0  0  0  0
  -25.3770  -31.3830   26.1740 C   0  0  0  0  0  1  0  0  0  0  0  0
  -27.0380  -30.3070   24.6560 C   0  0  0  0  0  1  0  0  0  0  0  0
  -27.6210  -32.4330   25.7900 C   0  0  0  0  0  1  0  0  0  0  0  0
  -25.6310  -33.8830   24.2650 N   0  0  0  0  0  0  0  0  0  0  0  0
  -25.9120  -34.9580   23.5200 C   0  0  0  0  0  0  0  0  0  0  0  0
  -26.5490  -34.8940   22.4660 O   0  0  0  0  0  0  0  0  0  0  0  0
  -25.0600  -34.0050   25.0890 H   0  0  0  0  0  0  0  0  0  0  0  0
  -24.1510  -36.7350   23.2590 C   0  0  0  0  0  1  0  0  0  0  0  0
  -25.4120  -36.3200   24.0340 C   0  0  0  0  0  3  0  0  0  0  0  0
  -27.5590  -37.1880   24.8460 C   0  0  0  0  0  1  0  0  0  0  0  0
  -26.4300  -37.3880   23.9420 N   0  0  0  0  0  0  0  0  0  0  0  0
  -26.0210  -38.2970   24.1420 H   0  0  0  0  0  0  0  0  0  0  0  0
  1  2  1  0
  2  4  1  0
  2 61  1  0
  3  1  2  0
  5  1  1  0
  6  5  1  0
  7  6  1  0
  8  9  1  0
  8  7  1  0
 10 11  1  0
 10  9  1  0
 11 12  1  0
 12 13  1  0
 13 14  1  0
 14 15  1  0
 15 16  1  0
 16 17  1  0
 17 18  1  0
 18 19  1  0
 19 20  1  0
 21 22  1  0
 21 20  1  0
 23 22  1  0
 24 23  1  0
 25 24  1  0
 26 31  1  0
 27 28  1  0
 27 26  1  0
 29 28  1  0
 29 36  1  0
 29 30  1  0
 31 25  1  0
 31 30  1  0
 32 25  2  0
 33 34  2  0
 34 53  1  0
 35 34  1  0
 35 38  1  0
 36 33  1  0
 36 37  1  0
 37 35  2  0
 38 39  1  0
 39 40  2  0
 41 44  1  0
 41 40  1  0
 42 41  2  0
 43 42  1  0
 43 38  2  0
 44 45  1  0
 45 46  1  0
 46 47  2  0
 48 47  1  0
 48 52  1  0
 49 48  2  0
 50 45  2  0
 50 49  1  0
 51 50  1  0
 53 54  1  0
 54 57  1  0
 54 56  1  0
 55 53  2  0
 58 33  1  0
 58 59  1  0
 60 58  1  0
 61 62  1  0
 62 63  1  0
 63 64  1  0
 64 65  1  0
 65 66  1  0
 65 68  1  0
 67 65  1  0
 68 69  1  0
 70 69  1  0
 71 70  1  0
 72 71  1  0
 74 73  1  0
 75 76  1  0
 78 89  2  0
 79 84  1  0
 79 77  1  0
 80 88  1  0
 80 90  1  0
 81 87  1  0
 81 83  2  0
 82 88  1  0
 83 84  1  0
 83 82  1  0
 85 79  1  0
 86 85  1  0
 86 81  1  0
 87 80  1  0
 88 78  1  0
 90 91  1  0
 90 92  2  0
 93 91  1  0
 94 99  1  0
 95 91  1  0
 95 99  1  0
 96 95  1  0
 97 98  1  0
 97 96  1  0
 98 94  1  0
 99100  2  0
101100  1  0
102101  2  0
103102  1  0
103 94  2  0
104 78  1  0
104109  1  0
104105  1  0
105108  1  1
105106  1  0
107105  1  0
109112  1  0
110114  1  0
110109  1  0
111110  2  0
114113  1  0
116114  1  0
116117  1  0
116115  1  0
M  ISO  4  24 100  25 100  76 101  77 101
M  END
>  <TORSDO>  (19) 
F 50

>  <SCORE>  (19) 
74.798

>  <name>  (19) 
21

>  <ligand_id>  (19) 
21

>  <original_smiles>  (19) 
[H]c1c([H])c([H])c2c(c1[H])C([H])([H])C([H])([H])C([H])([H])C2([H])N([H])C(=O)C1([H])N(C(=O)C([H])(N([H])C(=O)C([H])(N([H])C([H])([H])[H])C([H])([H])[H])C(C([H])([H])[H])(C([H])([H])[H])C([H])([H])[H])C([H])([H])c2c([H])c(OOC([H])([H])C([H])([H])OC([H])([H])C([H])([H])OC([H])([H])C([H])([H])[N+]([H])([H])C([H])([H])C([H])([H])C([H])([H])C([H])([H])N([H])C(=O)C([H])([H])OC([H])([H])C([H])([H])OC([H])([H])C([H])([H])OC([H])([H])C([H])([H])OC([H])([H])C([H])([H])OC([H])([H])C([H])([H])OC([H])([H])C([H])([H])OC(=O)N3C([H])([H])C([H])([H])C([H])([H])C([H])(n4nc(-c5c([H])c([H])c(Oc6c([H])c([H])c(F)c([H])c6F)c([H])c5[H])c(C(=O)N([H])[H])c4N([H])[H])C3([H])[H])c([H])c([H])c2C1([H])[H]

>  <smiles>  (19) 
[H]c1c([H])c([H])c2c(c1[H])C([H])([H])C([H])([H])C([H])([H])C2([H])N([H])C(=O)C1([H])N(C(=O)C([H])(N([H])C(=O)C([H])(N([H])C([H])([H])[H])C([H])([H])[H])C(C([H])([H])[H])(C([H])([H])[H])C([H])([H])[H])C([H])([H])c2c([H])c(OOC([H])([H])C([H])([H])OC([H])([H])C([H])([H])OC([H])([H])C([H])([H])[N+]([H])([H])C([H])([H])C([H])([H])C([H])([H])C([H])([H])N([H])C(=O)C([H])([H])OC([H])([H])C([H])([H])OC([H])([H])C([H])([H])OC([H])([H])C([H])([H])OC([H])([H])C([H])([H])OC([H])([H])C([H])([H])OC([H])([H])C([H])([H])OC(=O)N3C([H])([H])C([H])([H])C([H])([H])C([H])(n4nc(-c5c([H])c([H])c(Oc6c([H])c([H])c(F)c([H])c6F)c([H])c5[H])c(C(=O)N([H])[H])c4N([H])[H])C3([H])[H])c([H])c([H])c2C1([H])[H]

$$$$
22:0:0
     RDKit          3D

117124  0  0  1  0  0  0  0  0999 V2000
  -27.2090  -24.3010   23.8730 C   0  0  0  0  0  2  0  0  0  0  0  0
  -27.1940  -23.0650   23.1680 O   0  0  0  0  0  0  0  0  0  0  0  0
  -25.9280  -22.8050   22.5610 C   0  0  0  0  0  2  0  0  0  0  0  0
  -25.9410  -21.4160   21.9030 C   0  0  0  0  0  2  0  0  0  0  0  0
  -26.6030  -21.4840   20.6460 O   0  0  0  0  0  0  0  0  0  0  0  0
  -27.1450  -20.2370   20.2380 C   0  0  0  0  0  2  0  0  0  0  0  0
  -28.0560  -20.4220   19.0170 C   0  0  0  0  0  2  0  0  0  0  0  0
  -27.3440  -20.2770   17.7990 O   0  0  0  0  0  0  0  0  0  0  0  0
  -26.7820  -21.4810   17.2920 C   0  0  0  0  0  2  0  0  0  0  0  0
  -25.7290  -21.0970   16.2260 C   0  0  0  0  0  2  0  0  0  0  0  0
  -24.3880  -20.8430   16.6770 O   0  0  0  0  0  0  0  0  0  0  0  0
  -24.2270  -20.4500   18.0360 C   0  0  0  0  0  2  0  0  0  0  0  0
  -22.8700  -19.7730   18.2920 C   0  0  0  0  0  2  0  0  0  0  0  0
  -22.9570  -18.3520   18.3020 O   0  0  0  0  0  0  0  0  0  0  0  0
  -23.0660  -17.7220   17.0290 C   0  0  0  0  0  2  0  0  0  0  0  0
  -24.5240  -17.3810   16.6750 C   0  0  0  0  0  2  0  0  0  0  0  0
  -25.0220  -16.4050   17.5840 O   0  0  0  0  0  0  0  0  0  0  0  0
  -26.2180  -15.7560   17.1540 C   0  0  0  0  0  2  0  0  0  0  0  0
  -27.5020  -16.5610   17.4320 C   0  0  0  0  0  2  0  0  0  0  0  0
  -27.9470  -16.4270   18.7830 O   0  0  0  0  0  0  0  0  0  0  0  0
  -29.3460  -16.7030   18.9100 C   0  0  0  0  0  2  0  0  0  0  0  0
  -29.8240  -16.6720   20.3800 C   0  0  0  0  0  2  0  0  0  0  0  0
  -29.7780  -15.3580   20.9220 O   0  0  0  0  0  0  0  0  0  0  0  0
  -30.6690  -14.4230   20.5390 C   0  0  0  0  0  0  0  0  0  0  0  0
  -30.4210  -12.2430   19.4090 C   0  0  0  0  0  2  0  0  0  0  0  0
  -29.4940  -12.5060   18.2030 C   0  0  0  0  0  2  0  0  0  0  0  0
  -28.0110  -12.3560   18.6080 C   0  0  0  0  0  2  0  0  0  0  0  0
  -27.6620  -13.1690   19.8830 C   0  0  0  0  0  3  0  0  0  0  0  0
  -28.6920  -12.9180   21.0030 C   0  0  0  0  0  2  0  0  0  0  0  0
  -30.0350  -13.1820   20.4610 N   0  0  0  0  0  0  0  0  0  0  0  0
  -31.7940  -14.6880   20.1070 O   0  0  0  0  0  0  0  0  0  0  0  0
  -25.2660  -13.8090   20.5720 C   0  0  0  0  0  0  0  0  0  0  0  0
  -24.1820  -13.0440   20.9220 C   0  0  0  0  0  0  0  0  0  0  0  0
  -24.6290  -11.6900   20.8730 C   0  0  0  0  0  0  0  0  0  0  0  0
  -26.2980  -12.9150   20.3340 N   0  0  0  0  0  0  0  0  0  0  0  0
  -25.9190  -11.6360   20.5710 N   0  0  0  0  0  0  0  0  0  0  0  0
  -23.8970  -10.4290   21.0400 C   0  0  0  0  0  0  0  0  0  0  0  0
  -24.3560   -9.4200   21.9160 C   0  0  0  0  0  3  0  0  0  0  0  0
  -23.6280   -8.2200   22.0700 C   0  0  0  0  0  3  0  0  0  0  0  0
  -22.4260   -8.0220   21.3510 C   0  0  0  0  0  0  0  0  0  0  0  0
  -21.9880   -9.0170   20.4610 C   0  0  0  0  0  3  0  0  0  0  0  0
  -22.7160  -10.2090   20.3050 C   0  0  0  0  0  3  0  0  0  0  0  0
  -21.6600   -6.8840   21.4240 O   0  0  0  0  0  0  0  0  0  0  0  0
  -21.6810   -6.0720   22.5300 C   0  0  0  0  0  0  0  0  0  0  0  0
  -21.3960   -6.5630   23.8230 C   0  0  0  0  0  3  0  0  0  0  0  0
  -21.3690   -5.6790   24.9210 C   0  0  0  0  0  3  0  0  0  0  0  0
  -21.6050   -4.3050   24.7250 C   0  0  0  0  0  0  0  0  0  0  0  0
  -21.8810   -3.8140   23.4360 C   0  0  0  0  0  3  0  0  0  0  0  0
  -21.9180   -4.6960   22.3420 C   0  0  0  0  0  0  0  0  0  0  0  0
  -22.1680   -4.2170   21.1000 F   0  0  0  0  0  0  0  0  0  0  0  0
  -21.5640   -3.4530   25.7760 F   0  0  0  0  0  0  0  0  0  0  0  0
  -22.7870  -13.5300   21.1880 C   0  0  0  0  0  0  0  0  0  0  0  0
  -22.0470  -12.8240   22.0410 N   0  0  0  0  0  0  0  0  0  0  0  0
  -22.3560  -14.5590   20.6740 O   0  0  0  0  0  0  0  0  0  0  0  0
  -22.4110  -11.9940   22.4820 H   0  0  0  0  0  0  0  0  0  0  0  0
  -21.1070  -13.1240   22.2580 H   0  0  0  0  0  0  0  0  0  0  0  0
  -25.4570  -15.1750   20.4190 N   0  0  0  0  0  0  0  0  0  0  0  0
  -24.6610  -15.8020   20.3670 H   0  0  0  0  0  0  0  0  0  0  0  0
  -26.2870  -15.5560   19.9710 H   0  0  0  0  0  0  0  0  0  0  0  0
  -28.5680  -24.5520   24.5490 C   0  0  0  0  0  2  0  0  0  0  0  0
  -29.6130  -24.8130   23.6150 O   0  0  0  0  0  0  0  0  0  0  0  0
  -30.7390  -25.4300   24.2390 C   0  0  0  0  0  2  0  0  0  0  0  0
  -31.9880  -25.3820   23.3400 C   0  0  0  0  0  2  0  0  0  0  0  0
  -32.6820  -24.1510   23.5040 O   0  0  0  0  0  0  0  0  0  0  0  0
  -33.7950  -24.0110   22.6230 C   0  0  0  0  0  2  0  0  0  0  0  0
  -34.4060  -22.6220   22.8270 C   0  0  0  0  0  2  0  0  0  0  0  0
  -33.4390  -21.6830   22.3930 O   0  0  0  0  0  0  0  0  0  0  0  0
  -33.4870  -20.4520   23.0950 C   0  0  0  0  0  2  0  0  0  0  0  0
  -32.2450  -19.6520   22.7120 C   0  0  0  0  0  2  0  0  0  0  0  0
  -31.1250  -20.2710   23.3430 O   0  0  0  0  0  0  0  0  0  0  0  0
  -30.1070  -20.7150   22.4510 C   0  0  0  0  0  2  0  0  0  0  0  0
  -30.4950  -21.9570   21.6170 C   0  0  0  0  0  2  0  0  0  0  0  0
  -29.3150  -22.5850   21.1440 O   0  0  0  0  0  0  0  0  0  0  0  0
  -29.5440  -23.7490   20.3600 C   0  0  0  0  0  2  0  0  0  0  0  0
  -28.1820  -24.3730   20.0010 C   0  0  0  0  0  2  0  0  0  0  0  0
  -28.3340  -25.5250   19.1840 O   0  0  0  0  0  0  0  0  0  0  0  0
  -28.4260  -26.7450   20.0690 O   0  0  0  0  0  0  0  0  0  0  0  0
  -24.6120  -31.8710   23.2110 C   0  0  0  0  0  0  0  0  0  0  0  0
  -27.2430  -27.4540   20.0780 C   0  0  0  0  0  0  0  0  0  0  0  0
  -23.3990  -30.4930   21.5510 C   0  0  0  0  0  3  0  0  0  0  0  0
  -24.8460  -28.9610   20.1160 C   0  0  0  0  0  0  0  0  0  0  0  0
  -25.9300  -30.8380   21.3670 C   0  0  0  0  0  2  0  0  0  0  0  0
  -26.0060  -29.4730   20.7120 C   0  0  0  0  0  0  0  0  0  0  0  0
  -27.2040  -28.7260   20.6930 C   0  0  0  0  0  3  0  0  0  0  0  0
  -26.0580  -26.9480   19.4950 C   0  0  0  0  0  3  0  0  0  0  0  0
  -24.8650  -27.6940   19.5060 C   0  0  0  0  0  3  0  0  0  0  0  0
  -23.6080  -29.8260   20.1650 C   0  0  0  0  0  2  0  0  0  0  0  0
  -24.6640  -31.0810   22.1010 N   0  0  0  0  0  0  0  0  0  0  0  0
  -23.5320  -32.1470   23.7520 O   0  0  0  0  0  0  0  0  0  0  0  0
  -22.7400  -29.4670   22.4990 C   0  0  0  0  0  0  0  0  0  0  0  0
  -21.4130  -29.3060   22.3760 N   0  0  0  0  0  0  0  0  0  0  0  0
  -23.4200  -28.8190   23.3000 O   0  0  0  0  0  0  0  0  0  0  0  0
  -20.9270  -29.8770   21.6990 H   0  0  0  0  0  0  0  0  0  0  0  0
  -18.0270  -28.1380   22.8470 C   0  0  0  0  0  0  0  0  0  0  0  0
  -20.5850  -28.3660   23.1310 C   0  0  0  0  0  3  0  0  0  0  0  0
  -20.6770  -26.9390   22.5420 C   0  0  0  0  0  2  0  0  0  0  0  0
  -19.5750  -26.6380   21.5200 C   0  0  0  0  0  2  0  0  0  0  0  0
  -18.1930  -26.7920   22.1620 C   0  0  0  0  0  2  0  0  0  0  0  0
  -19.1520  -28.8830   23.2900 C   0  0  0  0  0  0  0  0  0  0  0  0
  -18.9450  -30.1430   23.8900 C   0  0  0  0  0  3  0  0  0  0  0  0
  -17.6460  -30.6580   24.0550 C   0  0  0  0  0  3  0  0  0  0  0  0
  -16.5340  -29.9090   23.6310 C   0  0  0  0  0  3  0  0  0  0  0  0
  -16.7260  -28.6510   23.0330 C   0  0  0  0  0  3  0  0  0  0  0  0
  -25.9020  -32.4830   23.8410 C   0  0  0  0  0  3  0  0  0  0  0  0
  -25.5900  -33.8640   24.2330 N   0  0  0  0  0  0  0  0  0  0  0  0
  -25.9040  -34.9480   23.5130 C   0  0  0  0  0  0  0  0  0  0  0  0
  -26.5610  -34.8910   22.4690 O   0  0  0  0  0  0  0  0  0  0  0  0
  -25.0000  -33.9800   25.0450 H   0  0  0  0  0  0  0  0  0  0  0  0
  -24.1510  -36.7340   23.2640 C   0  0  0  0  0  1  0  0  0  0  0  0
  -25.4120  -36.3120   24.0320 C   0  0  0  0  0  3  0  0  0  0  0  0
  -27.5590  -37.1830   24.8450 C   0  0  0  0  0  1  0  0  0  0  0  0
  -26.4310  -37.3800   23.9390 N   0  0  0  0  0  0  0  0  0  0  0  0
  -26.0190  -38.2890   24.1360 H   0  0  0  0  0  0  0  0  0  0  0  0
  -26.4460  -31.6610   25.0740 C   0  0  1  0  0  0  0  0  0  0  0  0
  -25.3720  -31.3690   26.1470 C   0  0  0  0  0  1  0  0  0  0  0  0
  -27.0290  -30.3050   24.6110 C   0  0  0  0  0  1  0  0  0  0  0  0
  -27.6050  -32.4320   25.7480 C   0  0  0  0  0  1  0  0  0  0  0  0
  1 60  1  0
  2  1  1  0
  3  2  1  0
  4  3  1  0
  5  4  1  0
  6  5  1  0
  7  6  1  0
  8  7  1  0
  9  8  1  0
 10 11  1  0
 10  9  1  0
 11 12  1  0
 12 13  1  0
 13 14  1  0
 15 14  1  0
 16 15  1  0
 16 17  1  0
 18 19  1  0
 18 17  1  0
 19 20  1  0
 20 21  1  0
 21 22  1  0
 22 23  1  0
 24 23  1  0
 25 30  1  0
 26 27  1  0
 26 25  1  0
 28 27  1  0
 28 35  1  0
 28 29  1  0
 30 24  1  0
 30 29  1  0
 31 24  2  0
 32 33  2  0
 33 52  1  0
 34 33  1  0
 34 37  1  0
 35 36  1  0
 35 32  1  0
 36 34  2  0
 37 38  1  0
 38 39  2  0
 40 43  1  0
 40 39  1  0
 41 40  2  0
 42 41  1  0
 42 37  2  0
 43 44  1  0
 44 45  1  0
 45 46  2  0
 47 46  1  0
 47 51  1  0
 48 47  2  0
 49 44  2  0
 49 48  1  0
 50 49  1  0
 52 53  1  0
 53 56  1  0
 53 55  1  0
 54 52  2  0
 57 32  1  0
 58 57  1  0
 59 57  1  0
 61 62  1  0
 61 60  1  0
 63 64  1  0
 63 62  1  0
 65 66  1  0
 65 64  1  0
 67 66  1  0
 67 68  1  0
 69 68  1  0
 69 70  1  0
 71 70  1  0
 72 71  1  0
 73 72  1  0
 74 73  1  0
 75 74  1  0
 76 75  1  0
 76 77  1  0
 77 79  1  0
 78 89  2  0
 79 84  1  0
 80 88  1  0
 80 90  1  0
 81 87  1  0
 81 83  1  0
 82 88  1  0
 83 82  1  0
 84 83  2  0
 85 86  1  0
 85 79  2  0
 86 81  2  0
 87 80  1  0
 88 78  1  0
 90 92  2  0
 91 90  1  0
 93 91  1  0
 94103  2  0
 94 99  1  0
 95 91  1  0
 95 99  1  0
 96 95  1  0
 97 98  1  0
 97 96  1  0
 98 94  1  0
 99100  2  0
100101  1  0
102101  2  0
103102  1  0
104 78  1  0
104105  1  0
104114  1  0
105108  1  0
106110  1  0
106105  1  0
107106  2  0
110109  1  0
112110  1  0
112113  1  0
112111  1  0
114117  1  1
114115  1  0
116114  1  0
M  ISO  4  23 100  24 100  76 101  77 101
M  END
>  <TORSDO>  (20) 
F 55

>  <SCORE>  (20) 
30.747

>  <name>  (20) 
22

>  <ligand_id>  (20) 
22

>  <original_smiles>  (20) 
[H]c1c([H])c([H])c2c(c1[H])C([H])([H])C([H])([H])C([H])([H])C2([H])N([H])C(=O)C1([H])N(C(=O)C([H])(N([H])C(=O)C([H])(N([H])C([H])([H])[H])C([H])([H])[H])C(C([H])([H])[H])(C([H])([H])[H])C([H])([H])[H])C([H])([H])c2c([H])c(OOC([H])([H])C([H])([H])OC([H])([H])C([H])([H])OC([H])([H])C([H])([H])OC([H])([H])C([H])([H])OC([H])([H])C([H])([H])OC([H])([H])C([H])([H])OC([H])([H])C([H])([H])OC([H])([H])C([H])([H])OC([H])([H])C([H])([H])OC([H])([H])C([H])([H])OC([H])([H])C([H])([H])OC([H])([H])C([H])([H])OC([H])([H])C([H])([H])OC(=O)N3C([H])([H])C([H])([H])C([H])([H])C([H])(n4nc(-c5c([H])c([H])c(Oc6c([H])c([H])c(F)c([H])c6F)c([H])c5[H])c(C(=O)N([H])[H])c4N([H])[H])C3([H])[H])c([H])c([H])c2C1([H])[H]

>  <smiles>  (20) 
[H]c1c([H])c([H])c2c(c1[H])C([H])([H])C([H])([H])C([H])([H])C2([H])N([H])C(=O)C1([H])N(C(=O)C([H])(N([H])C(=O)C([H])(N([H])C([H])([H])[H])C([H])([H])[H])C(C([H])([H])[H])(C([H])([H])[H])C([H])([H])[H])C([H])([H])c2c([H])c(OOC([H])([H])C([H])([H])OC([H])([H])C([H])([H])OC([H])([H])C([H])([H])OC([H])([H])C([H])([H])OC([H])([H])C([H])([H])OC([H])([H])C([H])([H])OC([H])([H])C([H])([H])OC([H])([H])C([H])([H])OC([H])([H])C([H])([H])OC([H])([H])C([H])([H])OC([H])([H])C([H])([H])OC([H])([H])C([H])([H])OC([H])([H])C([H])([H])OC(=O)N3C([H])([H])C([H])([H])C([H])([H])C([H])(n4nc(-c5c([H])c([H])c(Oc6c([H])c([H])c(F)c([H])c6F)c([H])c5[H])c(C(=O)N([H])[H])c4N([H])[H])C3([H])[H])c([H])c([H])c2C1([H])[H]

$$$$
23:0:0
     RDKit          3D

114121  0  0  1  0  0  0  0  0999 V2000
  -31.0370  -24.6140   20.9110 C   0  0  0  0  0  2  0  0  0  0  0  0
  -31.9750  -23.4500   21.2970 C   0  0  0  0  0  2  0  0  0  0  0  0
  -33.2710  -23.6490   20.7290 O   0  0  0  0  0  0  0  0  0  0  0  0
  -33.7830  -22.5310   20.0040 C   0  0  0  0  0  2  0  0  0  0  0  0
  -33.5940  -22.7100   18.4860 C   0  0  0  0  0  2  0  0  0  0  0  0
  -32.2720  -23.1700   18.2380 O   0  0  0  0  0  0  0  0  0  0  0  0
  -31.7970  -22.9870   16.9140 C   0  0  0  0  0  2  0  0  0  0  0  0
  -30.9340  -21.7230   16.8620 C   0  0  0  0  0  2  0  0  0  0  0  0
  -29.9770  -21.8080   17.9090 O   0  0  0  0  0  0  0  0  0  0  0  0
  -28.9970  -20.7750   17.8950 C   0  0  0  0  0  2  0  0  0  0  0  0
  -28.4750  -20.5510   19.3360 C   0  0  0  0  0  2  0  0  0  0  0  0
  -29.5860  -20.3850   20.1960 O   0  0  0  0  0  0  0  0  0  0  0  0
  -29.4320  -20.7960   21.5480 C   0  0  0  0  0  2  0  0  0  0  0  0
  -30.5470  -20.1560   22.4200 C   0  0  0  0  0  2  0  0  0  0  0  0
  -31.8710  -20.4750   21.9550 O   0  0  0  0  0  0  0  0  0  0  0  0
  -32.6810  -19.3780   21.5010 C   0  0  0  0  0  2  0  0  0  0  0  0
  -32.0030  -18.6750   20.3190 C   0  0  0  0  0  2  0  0  0  0  0  0
  -32.5490  -17.4680   19.8310 O   0  0  0  0  0  0  0  0  0  0  0  0
  -31.7710  -16.9660   18.7290 C   0  0  0  0  0  2  0  0  0  0  0  0
  -30.2780  -16.5990   19.0400 C   0  0  0  0  0  2  0  0  0  0  0  0
  -30.7420  -14.5190   20.2930 C   0  0  0  0  0  0  0  0  0  0  0  0
  -30.3920  -12.2960   19.4120 C   0  0  0  0  0  2  0  0  0  0  0  0
  -29.4850  -12.4290   18.1710 C   0  0  0  0  0  2  0  0  0  0  0  0
  -28.0100  -12.3130   18.5910 C   0  0  0  0  0  2  0  0  0  0  0  0
  -27.6430  -13.2620   19.7630 C   0  0  0  0  0  3  0  0  0  0  0  0
  -28.6860  -13.1930   20.9070 C   0  0  0  0  0  2  0  0  0  0  0  0
  -30.0260  -13.3760   20.3330 N   0  0  0  0  0  0  0  0  0  0  0  0
  -31.9420  -14.5540   20.0600 O   0  0  0  0  0  0  0  0  0  0  0  0
  -29.9940  -15.5930   20.0720 N   0  0  0  0  0  0  0  0  0  0  0  0
  -29.0240  -15.4990   20.3280 H   0  0  0  0  0  0  0  0  0  0  0  0
  -25.2740  -13.8920   20.5560 C   0  0  0  0  0  0  0  0  0  0  0  0
  -24.1910  -13.1300   20.8870 C   0  0  0  0  0  0  0  0  0  0  0  0
  -24.6110  -11.7680   20.7600 C   0  0  0  0  0  0  0  0  0  0  0  0
  -26.2900  -13.0000   20.2490 N   0  0  0  0  0  0  0  0  0  0  0  0
  -25.8960  -11.7150   20.4330 N   0  0  0  0  0  0  0  0  0  0  0  0
  -23.8520  -10.5190   20.8730 C   0  0  0  0  0  0  0  0  0  0  0  0
  -24.2310   -9.5050   21.7810 C   0  0  0  0  0  3  0  0  0  0  0  0
  -23.4760   -8.3180   21.8860 C   0  0  0  0  0  3  0  0  0  0  0  0
  -22.3250   -8.1360   21.0820 C   0  0  0  0  0  0  0  0  0  0  0  0
  -21.9640   -9.1380   20.1630 C   0  0  0  0  0  3  0  0  0  0  0  0
  -22.7200  -10.3170   20.0560 C   0  0  0  0  0  3  0  0  0  0  0  0
  -21.5450   -7.0050   21.0970 O   0  0  0  0  0  0  0  0  0  0  0  0
  -21.3720   -6.2660   22.2390 C   0  0  0  0  0  0  0  0  0  0  0  0
  -20.8650   -6.8370   23.4270 C   0  0  0  0  0  3  0  0  0  0  0  0
  -20.6370   -6.0250   24.5560 C   0  0  0  0  0  3  0  0  0  0  0  0
  -20.9080   -4.6450   24.4990 C   0  0  0  0  0  0  0  0  0  0  0  0
  -21.4070   -4.0740   23.3150 C   0  0  0  0  0  3  0  0  0  0  0  0
  -21.6370   -4.8820   22.1880 C   0  0  0  0  0  0  0  0  0  0  0  0
  -22.0990   -4.3230   21.0430 F   0  0  0  0  0  0  0  0  0  0  0  0
  -20.6820   -3.8630   25.5800 F   0  0  0  0  0  0  0  0  0  0  0  0
  -22.8090  -13.6250   21.2080 C   0  0  0  0  0  0  0  0  0  0  0  0
  -22.0790  -12.9060   22.0500 N   0  0  0  0  0  0  0  0  0  0  0  0
  -22.3870  -14.6860   20.7430 O   0  0  0  0  0  0  0  0  0  0  0  0
  -22.4310  -12.0470   22.4460 H   0  0  0  0  0  0  0  0  0  0  0  0
  -21.1500  -13.2160   22.3020 H   0  0  0  0  0  0  0  0  0  0  0  0
  -25.4810  -15.2680   20.4690 N   0  0  0  0  0  0  0  0  0  0  0  0
  -24.7350  -15.9330   20.6430 H   0  0  0  0  0  0  0  0  0  0  0  0
  -26.3380  -15.7050   20.1620 H   0  0  0  0  0  0  0  0  0  0  0  0
  -31.3520  -25.8540   21.5490 O   0  0  0  0  0  0  0  0  0  0  0  0
  -30.6980  -26.1200   22.7880 C   0  0  0  0  0  2  0  0  0  0  0  0
  -29.1970  -26.4200   22.6430 C   0  0  0  0  0  2  0  0  0  0  0  0
  -28.4500  -25.2310   22.8550 O   0  0  0  0  0  0  0  0  0  0  0  0
  -27.0420  -25.4380   22.7580 C   0  0  0  0  0  2  0  0  0  0  0  0
  -26.5210  -25.1670   21.3390 C   0  0  0  0  0  2  0  0  0  0  0  0
  -26.3390  -23.7640   21.1700 O   0  0  0  0  0  0  0  0  0  0  0  0
  -25.3390  -23.4090   20.2160 C   0  0  0  0  0  2  0  0  0  0  0  0
  -25.6750  -23.8670   18.7800 C   0  0  0  0  0  2  0  0  0  0  0  0
  -26.9970  -23.4630   18.4210 O   0  0  0  0  0  0  0  0  0  0  0  0
  -27.4630  -23.9000   17.1440 C   0  0  0  0  0  2  0  0  0  0  0  0
  -27.7480  -25.3960   17.1650 C   0  0  0  0  0  2  0  0  0  0  0  0
  -29.1270  -25.7330   17.1790 O   0  0  0  0  0  0  0  0  0  0  0  0
  -29.3370  -27.1230   17.4370 C   0  0  0  0  0  2  0  0  0  0  0  0
  -29.5310  -27.4750   18.9360 C   0  0  0  0  0  2  0  0  0  0  0  0
  -28.5060  -26.9510   19.7770 O   0  0  0  0  0  0  0  0  0  0  0  0
  -24.5530  -31.7070   23.2890 C   0  0  0  0  0  0  0  0  0  0  0  0
  -27.3360  -27.6660   19.8320 C   0  0  0  0  0  0  0  0  0  0  0  0
  -23.4030  -30.4300   21.5140 C   0  0  0  0  0  3  0  0  0  0  0  0
  -24.9120  -29.0860   19.9810 C   0  0  0  0  0  0  0  0  0  0  0  0
  -25.9250  -30.8810   21.3820 C   0  0  0  0  0  2  0  0  0  0  0  0
  -26.0540  -29.5870   20.6150 C   0  0  0  0  0  0  0  0  0  0  0  0
  -27.2760  -28.8870   20.5390 C   0  0  0  0  0  3  0  0  0  0  0  0
  -26.1570  -27.1650   19.2300 C   0  0  0  0  0  3  0  0  0  0  0  0
  -24.9550  -27.8720   19.2910 C   0  0  0  0  0  3  0  0  0  0  0  0
  -23.6450  -29.8890   20.0850 C   0  0  0  0  0  2  0  0  0  0  0  0
  -24.6440  -31.0110   22.1220 N   0  0  0  0  0  0  0  0  0  0  0  0
  -23.4580  -31.9060   23.8350 O   0  0  0  0  0  0  0  0  0  0  0  0
  -22.7690  -29.3070   22.3650 C   0  0  0  0  0  0  0  0  0  0  0  0
  -21.4470  -29.1220   22.2200 N   0  0  0  0  0  0  0  0  0  0  0  0
  -23.4620  -28.6060   23.1070 O   0  0  0  0  0  0  0  0  0  0  0  0
  -20.9500  -29.7350   21.5900 H   0  0  0  0  0  0  0  0  0  0  0  0
  -18.0830  -27.8560   22.6000 C   0  0  0  0  0  0  0  0  0  0  0  0
  -20.6390  -28.1060   22.8980 C   0  0  0  0  0  3  0  0  0  0  0  0
  -20.7540  -26.7390   22.1830 C   0  0  0  0  0  2  0  0  0  0  0  0
  -19.6530  -26.5070   21.1440 C   0  0  0  0  0  2  0  0  0  0  0  0
  -18.2710  -26.5800   21.7980 C   0  0  0  0  0  2  0  0  0  0  0  0
  -19.1970  -28.5810   23.1020 C   0  0  0  0  0  0  0  0  0  0  0  0
  -18.9660  -29.7810   23.8110 C   0  0  0  0  0  3  0  0  0  0  0  0
  -17.6580  -30.2550   24.0230 C   0  0  0  0  0  3  0  0  0  0  0  0
  -16.5600  -29.5230   23.5390 C   0  0  0  0  0  3  0  0  0  0  0  0
  -16.7720  -28.3260   22.8320 C   0  0  0  0  0  3  0  0  0  0  0  0
  -25.8170  -32.3090   23.9790 C   0  0  0  0  0  3  0  0  0  0  0  0
  -25.5320  -33.7200   24.2650 N   0  0  0  0  0  0  0  0  0  0  0  0
  -25.9370  -34.7450   23.5040 C   0  0  0  0  0  0  0  0  0  0  0  0
  -26.6580  -34.6010   22.5140 O   0  0  0  0  0  0  0  0  0  0  0  0
  -24.9000  -33.9070   25.0290 H   0  0  0  0  0  0  0  0  0  0  0  0
  -24.2700  -36.5660   23.0280 C   0  0  0  0  0  1  0  0  0  0  0  0
  -25.4620  -36.1550   23.9060 C   0  0  0  0  0  3  0  0  0  0  0  0
  -27.5800  -37.0000   24.8140 C   0  0  0  0  0  1  0  0  0  0  0  0
  -26.5250  -37.1780   23.8190 N   0  0  0  0  0  0  0  0  0  0  0  0
  -26.1390  -38.1100   23.9320 H   0  0  0  0  0  0  0  0  0  0  0  0
  -26.2340  -31.5430   25.2930 C   0  0  1  0  0  0  0  0  0  0  0  0
  -25.0670  -31.3530   26.2900 C   0  0  0  0  0  1  0  0  0  0  0  0
  -26.8040  -30.1430   24.9570 C   0  0  0  0  0  1  0  0  0  0  0  0
  -27.3620  -32.3170   26.0130 C   0  0  0  0  0  1  0  0  0  0  0  0
  1  2  1  0
  1 59  1  0
  3  2  1  0
  4  3  1  0
  5  4  1  0
  6  5  1  0
  7  6  1  0
  8  7  1  0
  8  9  1  0
 10  9  1  0
 10 11  1  0
 11 12  1  0
 12 13  1  0
 13 14  1  0
 15 14  1  0
 16 15  1  0
 17 16  1  0
 18 17  1  0
 19 20  1  0
 19 18  1  0
 20 29  1  0
 21 27  1  0
 22 27  1  0
 23 24  1  0
 23 22  1  0
 25 24  1  0
 25 34  1  0
 25 26  1  0
 27 26  1  0
 28 21  2  0
 29 21  1  0
 29 30  1  0
 31 32  2  0
 32 51  1  0
 33 36  1  0
 33 32  1  0
 34 35  1  0
 34 31  1  0
 35 33  2  0
 36 37  1  0
 37 38  2  0
 39 42  1  0
 39 38  1  0
 40 39  2  0
 41 40  1  0
 41 36  2  0
 42 43  1  0
 43 44  1  0
 44 45  2  0
 46 45  1  0
 46 50  1  0
 47 46  2  0
 48 43  2  0
 48 47  1  0
 49 48  1  0
 51 52  1  0
 52 55  1  0
 52 54  1  0
 53 51  2  0
 56 31  1  0
 56 57  1  0
 58 56  1  0
 59 60  1  0
 61 60  1  0
 61 62  1  0
 63 62  1  0
 64 63  1  0
 65 64  1  0
 66 65  1  0
 67 66  1  0
 68 67  1  0
 69 70  1  0
 69 68  1  0
 70 71  1  0
 71 72  1  0
 72 73  1  0
 73 74  1  0
 74 76  1  0
 75 86  2  0
 76 81  1  0
 77 85  1  0
 77 87  1  0
 78 84  1  0
 78 80  1  0
 79 85  1  0
 80 79  1  0
 81 80  2  0
 82 83  1  0
 82 76  2  0
 83 78  2  0
 84 77  1  0
 85 75  1  0
 87 89  2  0
 88 87  1  0
 90 88  1  0
 91100  2  0
 91 96  1  0
 92 88  1  0
 92 96  1  0
 93 92  1  0
 94 95  1  0
 94 93  1  0
 95 91  1  0
 96 97  2  0
 97 98  1  0
 99 98  2  0
100 99  1  0
101 75  1  0
101102  1  0
101111  1  0
102105  1  0
103107  1  0
103102  1  0
104103  2  0
107106  1  0
109107  1  0
109110  1  0
109108  1  0
111114  1  1
111112  1  0
113111  1  0
M  ISO  4  21 100  29 100  73 101  74 101
M  END
>  <TORSDO>  (21) 
F 50

>  <SCORE>  (21) 
-6.749

>  <name>  (21) 
23

>  <ligand_id>  (21) 
23

>  <original_smiles>  (21) 
[H]c1c([H])c([H])c2c(c1[H])C([H])([H])C([H])([H])C([H])([H])C2([H])N([H])C(=O)C1([H])N(C(=O)C([H])(N([H])C(=O)C([H])(N([H])C([H])([H])[H])C([H])([H])[H])C(C([H])([H])[H])(C([H])([H])[H])C([H])([H])[H])C([H])([H])c2c([H])c(OC([H])([H])C([H])([H])OC([H])([H])C([H])([H])OC([H])([H])C([H])([H])OC([H])([H])C([H])([H])OC([H])([H])C([H])([H])OC([H])([H])C([H])([H])OC([H])([H])C([H])([H])OC([H])([H])C([H])([H])OC([H])([H])C([H])([H])OC([H])([H])C([H])([H])OC([H])([H])C([H])([H])OC([H])([H])C([H])([H])N([H])C(=O)N3C([H])([H])C([H])([H])C([H])([H])C([H])(n4nc(-c5c([H])c([H])c(Oc6c([H])c([H])c(F)c([H])c6F)c([H])c5[H])c(C(=O)N([H])[H])c4N([H])[H])C3([H])[H])c([H])c([H])c2C1([H])[H]

>  <smiles>  (21) 
[H]c1c([H])c([H])c2c(c1[H])C([H])([H])C([H])([H])C([H])([H])C2([H])N([H])C(=O)C1([H])N(C(=O)C([H])(N([H])C(=O)C([H])(N([H])C([H])([H])[H])C([H])([H])[H])C(C([H])([H])[H])(C([H])([H])[H])C([H])([H])[H])C([H])([H])c2c([H])c(OC([H])([H])C([H])([H])OC([H])([H])C([H])([H])OC([H])([H])C([H])([H])OC([H])([H])C([H])([H])OC([H])([H])C([H])([H])OC([H])([H])C([H])([H])OC([H])([H])C([H])([H])OC([H])([H])C([H])([H])OC([H])([H])C([H])([H])OC([H])([H])C([H])([H])OC([H])([H])C([H])([H])OC([H])([H])C([H])([H])N([H])C(=O)N3C([H])([H])C([H])([H])C([H])([H])C([H])(n4nc(-c5c([H])c([H])c(Oc6c([H])c([H])c(F)c([H])c6F)c([H])c5[H])c(C(=O)N([H])[H])c4N([H])[H])C3([H])[H])c([H])c([H])c2C1([H])[H]

$$$$
24:0:0
     RDKit          3D

111118  0  0  1  0  0  0  0  0999 V2000
  -23.4130  -15.3590   25.5320 O   0  0  0  0  0  0  0  0  0  0  0  0
  -22.3730  -15.8040   24.6720 C   0  0  0  0  0  2  0  0  0  0  0  0
  -22.9980  -16.6010   23.5230 C   0  0  0  0  0  2  0  0  0  0  0  0
  -23.5550  -17.8010   24.0430 O   0  0  0  0  0  0  0  0  0  0  0  0
  -24.3110  -18.5180   23.0750 C   0  0  0  0  0  2  0  0  0  0  0  0
  -24.9110  -19.7690   23.7310 C   0  0  0  0  0  2  0  0  0  0  0  0
  -23.9170  -20.7820   23.8160 O   0  0  0  0  0  0  0  0  0  0  0  0
  -24.2780  -21.8460   24.6890 C   0  0  0  0  0  2  0  0  0  0  0  0
  -23.3110  -23.0270   24.4880 C   0  0  0  0  0  2  0  0  0  0  0  0
  -23.5530  -23.7320   23.2690 O   0  0  0  0  0  0  0  0  0  0  0  0
  -24.6000  -24.7020   23.3170 C   0  0  0  0  0  2  0  0  0  0  0  0
  -25.8660  -24.2130   22.5960 C   0  0  0  0  0  2  0  0  0  0  0  0
  -26.6880  -25.3310   22.2900 O   0  0  0  0  0  0  0  0  0  0  0  0
  -27.9570  -24.9520   21.7710 C   0  0  0  0  0  2  0  0  0  0  0  0
  -28.7760  -26.1940   21.3640 C   0  0  0  0  0  2  0  0  0  0  0  0
  -28.3790  -26.7060   20.0900 O   0  0  0  0  0  0  0  0  0  0  0  0
  -24.6090  -31.8690   23.2130 C   0  0  0  0  0  0  0  0  0  0  0  0
  -27.2360  -27.4640   20.1120 C   0  0  0  0  0  0  0  0  0  0  0  0
  -23.3980  -30.4890   21.5510 C   0  0  0  0  0  3  0  0  0  0  0  0
  -24.8490  -28.9600   20.1160 C   0  0  0  0  0  0  0  0  0  0  0  0
  -25.9220  -30.8440   21.3660 C   0  0  0  0  0  2  0  0  0  0  0  0
  -26.0020  -29.4780   20.7210 C   0  0  0  0  0  0  0  0  0  0  0  0
  -27.1990  -28.7340   20.7270 C   0  0  0  0  0  3  0  0  0  0  0  0
  -26.0800  -26.9600   19.4860 C   0  0  0  0  0  3  0  0  0  0  0  0
  -24.8800  -27.6960   19.4980 C   0  0  0  0  0  3  0  0  0  0  0  0
  -23.6090  -29.8230   20.1640 C   0  0  0  0  0  2  0  0  0  0  0  0
  -24.6600  -31.0810   22.1020 N   0  0  0  0  0  0  0  0  0  0  0  0
  -23.5290  -32.1430   23.7550 O   0  0  0  0  0  0  0  0  0  0  0  0
  -22.7400  -29.4620   22.4980 C   0  0  0  0  0  0  0  0  0  0  0  0
  -21.4120  -29.3000   22.3750 N   0  0  0  0  0  0  0  0  0  0  0  0
  -23.4180  -28.8130   23.2980 O   0  0  0  0  0  0  0  0  0  0  0  0
  -20.9220  -29.8800   21.7100 H   0  0  0  0  0  0  0  0  0  0  0  0
  -18.0270  -28.1370   22.8510 C   0  0  0  0  0  0  0  0  0  0  0  0
  -20.5870  -28.3620   23.1350 C   0  0  0  0  0  3  0  0  0  0  0  0
  -20.6770  -26.9350   22.5480 C   0  0  0  0  0  2  0  0  0  0  0  0
  -19.5760  -26.6370   21.5250 C   0  0  0  0  0  2  0  0  0  0  0  0
  -18.1930  -26.7910   22.1650 C   0  0  0  0  0  2  0  0  0  0  0  0
  -19.1530  -28.8810   23.2940 C   0  0  0  0  0  0  0  0  0  0  0  0
  -18.9460  -30.1410   23.8940 C   0  0  0  0  0  3  0  0  0  0  0  0
  -17.6470  -30.6560   24.0610 C   0  0  0  0  0  3  0  0  0  0  0  0
  -16.5350  -29.9080   23.6360 C   0  0  0  0  0  3  0  0  0  0  0  0
  -16.7270  -28.6510   23.0350 C   0  0  0  0  0  3  0  0  0  0  0  0
  -25.9010  -32.4830   23.8400 C   0  0  0  0  0  3  0  0  0  0  0  0
  -25.5890  -33.8640   24.2330 N   0  0  0  0  0  0  0  0  0  0  0  0
  -25.9030  -34.9490   23.5120 C   0  0  0  0  0  0  0  0  0  0  0  0
  -26.5580  -34.8930   22.4670 O   0  0  0  0  0  0  0  0  0  0  0  0
  -25.0110  -33.9820   25.0530 H   0  0  0  0  0  0  0  0  0  0  0  0
  -24.1490  -36.7320   23.2630 C   0  0  0  0  0  1  0  0  0  0  0  0
  -25.4110  -36.3120   24.0330 C   0  0  0  0  0  3  0  0  0  0  0  0
  -27.5590  -37.1810   24.8460 C   0  0  0  0  0  1  0  0  0  0  0  0
  -26.4300  -37.3800   23.9400 N   0  0  0  0  0  0  0  0  0  0  0  0
  -26.0200  -38.2880   24.1420 H   0  0  0  0  0  0  0  0  0  0  0  0
  -26.4470  -31.6610   25.0710 C   0  0  1  0  0  0  0  0  0  0  0  0
  -25.3760  -31.3720   26.1460 C   0  0  0  0  0  1  0  0  0  0  0  0
  -27.0290  -30.3050   24.6070 C   0  0  0  0  0  1  0  0  0  0  0  0
  -27.6040  -32.4330   25.7470 C   0  0  0  0  0  1  0  0  0  0  0  0
  -22.9450  -14.4660   26.5330 C   0  0  0  0  0  2  0  0  0  0  0  0
  -24.0840  -14.1640   27.5140 C   0  0  0  0  0  2  0  0  0  0  0  0
  -25.1010  -13.4310   26.8450 O   0  0  0  0  0  0  0  0  0  0  0  0
  -26.1900  -13.1080   27.7000 C   0  0  0  0  0  2  0  0  0  0  0  0
  -27.3060  -12.4650   26.8680 C   0  0  0  0  0  2  0  0  0  0  0  0
  -27.9320  -13.4710   26.0830 O   0  0  0  0  0  0  0  0  0  0  0  0
  -28.9810  -12.9620   25.2720 C   0  0  0  0  0  2  0  0  0  0  0  0
  -29.6280  -14.1290   24.5210 C   0  0  0  0  0  2  0  0  0  0  0  0
  -30.3490  -14.9430   25.4350 O   0  0  0  0  0  0  0  0  0  0  0  0
  -30.8920  -16.0880   24.7960 C   0  0  0  0  0  2  0  0  0  0  0  0
  -31.6720  -16.9400   25.8060 C   0  0  0  0  0  2  0  0  0  0  0  0
  -32.5960  -17.8220   25.1740 O   0  0  0  0  0  0  0  0  0  0  0  0
  -32.0140  -18.9130   24.4630 C   0  0  0  0  0  2  0  0  0  0  0  0
  -32.1690  -18.7240   22.9450 C   0  0  0  0  0  2  0  0  0  0  0  0
  -31.1570  -17.8570   22.4460 O   0  0  0  0  0  0  0  0  0  0  0  0
  -31.3110  -17.5920   21.0620 C   0  0  0  0  0  2  0  0  0  0  0  0
  -30.0850  -16.8210   20.5420 C   0  0  0  0  0  2  0  0  0  0  0  0
  -30.7050  -14.4250   20.5580 C   0  0  0  0  0  0  0  0  0  0  0  0
  -30.4150  -12.2690   19.4250 C   0  0  0  0  0  2  0  0  0  0  0  0
  -29.4970  -12.5080   18.2070 C   0  0  0  0  0  2  0  0  0  0  0  0
  -28.0130  -12.3860   18.6090 C   0  0  0  0  0  2  0  0  0  0  0  0
  -27.6650  -13.2030   19.8820 C   0  0  0  0  0  3  0  0  0  0  0  0
  -28.7030  -12.9550   21.0030 C   0  0  0  0  0  2  0  0  0  0  0  0
  -30.0440  -13.2440   20.4590 N   0  0  0  0  0  0  0  0  0  0  0  0
  -31.8190  -14.6270   20.0710 O   0  0  0  0  0  0  0  0  0  0  0  0
  -29.9620  -15.4390   21.0160 N   0  0  0  0  0  0  0  0  0  0  0  0
  -29.0610  -15.1840   21.3920 H   0  0  0  0  0  0  0  0  0  0  0  0
  -25.2610  -13.8170   20.5690 C   0  0  0  0  0  0  0  0  0  0  0  0
  -24.1850  -13.0440   20.9200 C   0  0  0  0  0  0  0  0  0  0  0  0
  -24.6390  -11.6920   20.8730 C   0  0  0  0  0  0  0  0  0  0  0  0
  -26.3030  -12.9320   20.3390 N   0  0  0  0  0  0  0  0  0  0  0  0
  -25.9310  -11.6480   20.5750 N   0  0  0  0  0  0  0  0  0  0  0  0
  -23.9060  -10.4300   21.0390 C   0  0  0  0  0  0  0  0  0  0  0  0
  -24.3610   -9.4220   21.9170 C   0  0  0  0  0  3  0  0  0  0  0  0
  -23.6300   -8.2260   22.0740 C   0  0  0  0  0  3  0  0  0  0  0  0
  -22.4280   -8.0280   21.3540 C   0  0  0  0  0  0  0  0  0  0  0  0
  -21.9910   -9.0260   20.4640 C   0  0  0  0  0  3  0  0  0  0  0  0
  -22.7240  -10.2140   20.3040 C   0  0  0  0  0  3  0  0  0  0  0  0
  -21.6650   -6.8880   21.4230 O   0  0  0  0  0  0  0  0  0  0  0  0
  -21.6860   -6.0740   22.5270 C   0  0  0  0  0  0  0  0  0  0  0  0
  -21.4020   -6.5640   23.8210 C   0  0  0  0  0  3  0  0  0  0  0  0
  -21.3670   -5.6790   24.9170 C   0  0  0  0  0  3  0  0  0  0  0  0
  -21.6040   -4.3050   24.7210 C   0  0  0  0  0  0  0  0  0  0  0  0
  -21.8820   -3.8150   23.4330 C   0  0  0  0  0  3  0  0  0  0  0  0
  -21.9200   -4.6960   22.3400 C   0  0  0  0  0  0  0  0  0  0  0  0
  -22.1660   -4.2150   21.0970 F   0  0  0  0  0  0  0  0  0  0  0  0
  -21.5640   -3.4530   25.7730 F   0  0  0  0  0  0  0  0  0  0  0  0
  -22.7880  -13.5250   21.1870 C   0  0  0  0  0  0  0  0  0  0  0  0
  -22.0500  -12.8220   22.0400 N   0  0  0  0  0  0  0  0  0  0  0  0
  -22.3590  -14.5590   20.6780 O   0  0  0  0  0  0  0  0  0  0  0  0
  -22.4090  -11.9820   22.4680 H   0  0  0  0  0  0  0  0  0  0  0  0
  -21.1050  -13.1120   22.2440 H   0  0  0  0  0  0  0  0  0  0  0  0
  -25.4330  -15.1870   20.4070 N   0  0  0  0  0  0  0  0  0  0  0  0
  -24.6540  -15.8320   20.4620 H   0  0  0  0  0  0  0  0  0  0  0  0
  -26.2790  -15.6190   20.0580 H   0  0  0  0  0  0  0  0  0  0  0  0
  1 57  1  0
  2  1  1  0
  3  4  1  0
  3  2  1  0
  5  6  1  0
  5  4  1  0
  6  7  1  0
  7  8  1  0
  9  8  1  0
 10 11  1  0
 10  9  1  0
 12 11  1  0
 13 12  1  0
 14 13  1  0
 15 14  1  0
 16 18  1  0
 16 15  1  0
 17 28  2  0
 18 23  1  0
 19 27  1  0
 19 29  1  0
 20 26  1  0
 20 22  1  0
 21 27  1  0
 22 23  2  0
 22 21  1  0
 24 25  1  0
 24 18  2  0
 25 20  2  0
 26 19  1  0
 27 17  1  0
 29 31  2  0
 30 29  1  0
 32 30  1  0
 33 42  2  0
 33 38  1  0
 34 30  1  0
 34 38  1  0
 35 34  1  0
 36 37  1  0
 36 35  1  0
 37 33  1  0
 38 39  2  0
 39 40  1  0
 41 40  2  0
 42 41  1  0
 43 17  1  0
 43 44  1  0
 43 53  1  0
 44 47  1  0
 45 49  1  0
 45 44  1  0
 46 45  2  0
 49 48  1  0
 51 49  1  0
 51 52  1  0
 51 50  1  0
 53 56  1  1
 53 54  1  0
 55 53  1  0
 57 58  1  0
 59 58  1  0
 59 60  1  0
 61 60  1  0
 62 61  1  0
 63 62  1  0
 64 63  1  0
 64 65  1  0
 66 65  1  0
 66 67  1  0
 68 67  1  0
 69 68  1  0
 70 69  1  0
 71 70  1  0
 72 71  1  0
 73 82  1  0
 73 72  1  0
 74 82  1  0
 75 80  1  0
 76 77  1  0
 76 75  1  0
 78 77  1  0
 78 87  1  0
 78 79  1  0
 80 74  1  0
 80 79  1  0
 81 74  2  0
 82 83  1  0
 84 85  2  0
 85104  1  0
 86 85  1  0
 86 89  1  0
 87 84  1  0
 87 88  1  0
 88 86  2  0
 89 90  1  0
 90 91  2  0
 92 95  1  0
 92 91  1  0
 93 92  2  0
 94 93  1  0
 94 89  2  0
 95 96  1  0
 96 97  1  0
 97 98  2  0
 99 98  1  0
 99103  1  0
100 99  2  0
101 96  2  0
101100  1  0
102101  1  0
104105  1  0
105108  1  0
105107  1  0
106104  2  0
109110  1  0
109 84  1  0
111109  1  0
M  ISO  4  15 101  16 101  74 100  82 100
M  END
>  <TORSDO>  (22) 
F 47

>  <SCORE>  (22) 
80.401

>  <name>  (22) 
24

>  <ligand_id>  (22) 
24

>  <original_smiles>  (22) 
[H]c1c([H])c([H])c2c(c1[H])C([H])([H])C([H])([H])C([H])([H])C2([H])N([H])C(=O)C1([H])N(C(=O)C([H])(N([H])C(=O)C([H])(N([H])C([H])([H])[H])C([H])([H])[H])C(C([H])([H])[H])(C([H])([H])[H])C([H])([H])[H])C([H])([H])c2c([H])c(OC([H])([H])C([H])([H])OC([H])([H])C([H])([H])OC([H])([H])C([H])([H])OC([H])([H])C([H])([H])OC([H])([H])C([H])([H])OC([H])([H])C([H])([H])OC([H])([H])C([H])([H])OC([H])([H])C([H])([H])OC([H])([H])C([H])([H])OC([H])([H])C([H])([H])OC([H])([H])C([H])([H])N([H])C(=O)N3C([H])([H])C([H])([H])C([H])([H])C([H])(n4nc(-c5c([H])c([H])c(Oc6c([H])c([H])c(F)c([H])c6F)c([H])c5[H])c(C(=O)N([H])[H])c4N([H])[H])C3([H])[H])c([H])c([H])c2C1([H])[H]

>  <smiles>  (22) 
[H]c1c([H])c([H])c2c(c1[H])C([H])([H])C([H])([H])C([H])([H])C2([H])N([H])C(=O)C1([H])N(C(=O)C([H])(N([H])C(=O)C([H])(N([H])C([H])([H])[H])C([H])([H])[H])C(C([H])([H])[H])(C([H])([H])[H])C([H])([H])[H])C([H])([H])c2c([H])c(OC([H])([H])C([H])([H])OC([H])([H])C([H])([H])OC([H])([H])C([H])([H])OC([H])([H])C([H])([H])OC([H])([H])C([H])([H])OC([H])([H])C([H])([H])OC([H])([H])C([H])([H])OC([H])([H])C([H])([H])OC([H])([H])C([H])([H])OC([H])([H])C([H])([H])OC([H])([H])C([H])([H])N([H])C(=O)N3C([H])([H])C([H])([H])C([H])([H])C([H])(n4nc(-c5c([H])c([H])c(Oc6c([H])c([H])c(F)c([H])c6F)c([H])c5[H])c(C(=O)N([H])[H])c4N([H])[H])C3([H])[H])c([H])c([H])c2C1([H])[H]

$$$$
26:0:0
     RDKit          3D

101108  0  0  1  0  0  0  0  0999 V2000
  -26.5650  -20.0460   20.2370 C   0  0  0  0  0  2  0  0  0  0  0  0
  -27.6770  -20.8760   20.5420 O   0  0  0  0  0  0  0  0  0  0  0  0
  -27.3310  -21.9590   21.3940 C   0  0  0  0  0  2  0  0  0  0  0  0
  -28.6130  -22.6500   21.8730 C   0  0  0  0  0  2  0  0  0  0  0  0
  -29.4220  -21.6950   22.5470 O   0  0  0  0  0  0  0  0  0  0  0  0
  -30.6930  -22.2110   22.9130 C   0  0  0  0  0  2  0  0  0  0  0  0
  -31.6710  -21.0440   23.1030 C   0  0  0  0  0  2  0  0  0  0  0  0
  -31.7590  -20.3030   21.8950 O   0  0  0  0  0  0  0  0  0  0  0  0
  -32.4100  -19.0500   22.0670 C   0  0  0  0  0  2  0  0  0  0  0  0
  -32.4770  -18.3350   20.7110 C   0  0  0  0  0  2  0  0  0  0  0  0
  -31.1990  -17.7820   20.4210 O   0  0  0  0  0  0  0  0  0  0  0  0
  -31.1880  -17.0280   19.2180 C   0  0  0  0  0  2  0  0  0  0  0  0
  -29.7860  -16.4360   19.0350 C   0  0  0  0  0  2  0  0  0  0  0  0
  -30.4110  -14.3520   20.2280 C   0  0  0  0  0  0  0  0  0  0  0  0
  -30.6710  -12.0390   21.0320 C   0  0  0  0  0  2  0  0  0  0  0  0
  -30.1080  -11.0530   19.9910 C   0  0  0  0  0  2  0  0  0  0  0  0
  -28.5960  -10.8420   20.1990 C   0  0  0  0  0  2  0  0  0  0  0  0
  -27.8200  -12.1790   20.3350 C   0  0  0  0  0  3  0  0  0  0  0  0
  -28.5140  -13.1180   21.3460 C   0  0  0  0  0  2  0  0  0  0  0  0
  -29.9150  -13.2960   20.9230 N   0  0  0  0  0  0  0  0  0  0  0  0
  -31.5670  -14.4020   19.8010 O   0  0  0  0  0  0  0  0  0  0  0  0
  -29.5360  -15.3250   19.9520 N   0  0  0  0  0  0  0  0  0  0  0  0
  -28.6090  -15.2430   20.3430 H   0  0  0  0  0  0  0  0  0  0  0  0
  -25.3760  -12.8520   20.7930 C   0  0  0  0  0  0  0  0  0  0  0  0
  -24.2610  -12.1090   21.0800 C   0  0  0  0  0  0  0  0  0  0  0  0
  -24.6950  -10.7490   21.1260 C   0  0  0  0  0  0  0  0  0  0  0  0
  -26.4190  -11.9460   20.6870 N   0  0  0  0  0  0  0  0  0  0  0  0
  -26.0070  -10.6770   20.9420 N   0  0  0  0  0  0  0  0  0  0  0  0
  -23.9280   -9.5060   21.2790 C   0  0  0  0  0  0  0  0  0  0  0  0
  -23.9590   -8.7620   22.4800 C   0  0  0  0  0  3  0  0  0  0  0  0
  -23.2000   -7.5800   22.6100 C   0  0  0  0  0  3  0  0  0  0  0  0
  -22.3970   -7.1300   21.5350 C   0  0  0  0  0  0  0  0  0  0  0  0
  -22.3870   -7.8610   20.3340 C   0  0  0  0  0  3  0  0  0  0  0  0
  -23.1480   -9.0350   20.2040 C   0  0  0  0  0  3  0  0  0  0  0  0
  -21.6470   -5.9800   21.5620 O   0  0  0  0  0  0  0  0  0  0  0  0
  -20.8490   -5.6640   22.6330 C   0  0  0  0  0  0  0  0  0  0  0  0
  -19.8040   -6.5130   23.0590 C   0  0  0  0  0  3  0  0  0  0  0  0
  -18.9660   -6.1180   24.1200 C   0  0  0  0  0  3  0  0  0  0  0  0
  -19.1630   -4.8750   24.7490 C   0  0  0  0  0  0  0  0  0  0  0  0
  -20.2000   -4.0260   24.3220 C   0  0  0  0  0  3  0  0  0  0  0  0
  -21.0380   -4.4190   23.2650 C   0  0  0  0  0  0  0  0  0  0  0  0
  -22.0220   -3.5890   22.8440 F   0  0  0  0  0  0  0  0  0  0  0  0
  -18.3520   -4.4910   25.7640 F   0  0  0  0  0  0  0  0  0  0  0  0
  -22.8550  -12.6190   21.2100 C   0  0  0  0  0  0  0  0  0  0  0  0
  -22.0380  -11.9620   22.0270 N   0  0  0  0  0  0  0  0  0  0  0  0
  -22.4850  -13.6340   20.6220 O   0  0  0  0  0  0  0  0  0  0  0  0
  -22.3460  -11.1400   22.5240 H   0  0  0  0  0  0  0  0  0  0  0  0
  -21.0900  -12.2860   22.1570 H   0  0  0  0  0  0  0  0  0  0  0  0
  -25.5860  -14.2140   20.5970 N   0  0  0  0  0  0  0  0  0  0  0  0
  -24.8280  -14.8860   20.6140 H   0  0  0  0  0  0  0  0  0  0  0  0
  -26.4780  -14.6210   20.3490 H   0  0  0  0  0  0  0  0  0  0  0  0
  -26.8300  -19.3480   18.8990 C   0  0  0  0  0  2  0  0  0  0  0  0
  -27.2610  -20.3290   17.9640 O   0  0  0  0  0  0  0  0  0  0  0  0
  -27.9480  -19.7720   16.8500 C   0  0  0  0  0  2  0  0  0  0  0  0
  -28.8220  -20.8900   16.2690 C   0  0  0  0  0  2  0  0  0  0  0  0
  -29.4860  -21.6370   17.3590 N   0  0  0  0  0  4  0  0  0  0  0  0
  -28.8700  -21.5670   18.1580 H   0  0  0  0  0  0  0  0  0  0  0  0
  -30.3450  -21.1710   17.6090 H   0  0  0  0  0  0  0  0  0  0  0  0
  -29.7600  -23.0630   17.0620 C   0  0  0  0  0  2  0  0  0  0  0  0
  -29.8780  -23.8880   18.3570 C   0  0  0  0  0  2  0  0  0  0  0  0
  -29.9100  -25.2910   18.1000 O   0  0  0  0  0  0  0  0  0  0  0  0
  -25.4660  -29.0920   22.1160 C   0  0  0  0  0  0  0  0  0  0  0  0
  -28.7140  -25.9710   18.1440 C   0  0  0  0  0  0  0  0  0  0  0  0
  -24.6000  -28.4410   19.8920 C   0  0  0  0  0  3  0  0  0  0  0  0
  -26.3140  -27.4530   18.2860 C   0  0  0  0  0  0  0  0  0  0  0  0
  -27.1100  -28.7370   20.2790 C   0  0  0  0  0  2  0  0  0  0  0  0
  -27.3370  -27.6880   19.2110 C   0  0  0  0  0  0  0  0  0  0  0  0
  -28.5410  -26.9580   19.1380 C   0  0  0  0  0  3  0  0  0  0  0  0
  -27.6690  -25.7380   17.2220 C   0  0  0  0  0  3  0  0  0  0  0  0
  -26.4730  -26.4760   17.2880 C   0  0  0  0  0  3  0  0  0  0  0  0
  -25.0660  -28.2950   18.4180 C   0  0  0  0  0  2  0  0  0  0  0  0
  -25.7330  -28.7480   20.8250 N   0  0  0  0  0  0  0  0  0  0  0  0
  -24.3010  -29.2010   22.5230 O   0  0  0  0  0  0  0  0  0  0  0  0
  -23.8100  -27.1720   20.2840 C   0  0  0  0  0  0  0  0  0  0  0  0
  -22.5720  -27.0600   19.7770 N   0  0  0  0  0  0  0  0  0  0  0  0
  -24.3180  -26.3070   21.0000 O   0  0  0  0  0  0  0  0  0  0  0  0
  -22.2280  -27.8180   19.2040 H   0  0  0  0  0  0  0  0  0  0  0  0
  -19.3050  -25.7800   18.9150 C   0  0  0  0  0  0  0  0  0  0  0  0
  -21.6570  -25.9370   19.9770 C   0  0  0  0  0  3  0  0  0  0  0  0
  -22.0350  -24.7430   19.0710 C   0  0  0  0  0  2  0  0  0  0  0  0
  -21.2870  -24.7400   17.7340 C   0  0  0  0  0  2  0  0  0  0  0  0
  -19.7730  -24.6910   17.9650 C   0  0  0  0  0  2  0  0  0  0  0  0
  -20.1930  -26.3760   19.8500 C   0  0  0  0  0  0  0  0  0  0  0  0
  -19.7160  -27.4070   20.6870 C   0  0  0  0  0  3  0  0  0  0  0  0
  -18.3820  -27.8440   20.6030 C   0  0  0  0  0  3  0  0  0  0  0  0
  -17.5010  -27.2380   19.6890 C   0  0  0  0  0  3  0  0  0  0  0  0
  -17.9620  -26.2070   18.8510 C   0  0  0  0  0  3  0  0  0  0  0  0
  -26.6090  -29.3920   23.1360 C   0  0  0  0  0  3  0  0  0  0  0  0
  -26.1920  -30.5490   23.9390 N   0  0  0  0  0  0  0  0  0  0  0  0
  -26.6480  -31.7960   23.7680 C   0  0  0  0  0  0  0  0  0  0  0  0
  -27.5310  -32.0810   22.9550 O   0  0  0  0  0  0  0  0  0  0  0  0
  -25.4320  -30.3990   24.5860 H   0  0  0  0  0  0  0  0  0  0  0  0
  -25.0280  -33.7180   23.8030 C   0  0  0  0  0  1  0  0  0  0  0  0
  -26.0250  -32.9030   24.6410 C   0  0  0  0  0  3  0  0  0  0  0  0
  -27.8440  -33.1680   26.2680 C   0  0  0  0  0  1  0  0  0  0  0  0
  -27.0260  -33.8100   25.2430 N   0  0  0  0  0  0  0  0  0  0  0  0
  -26.5750  -34.6210   25.6590 H   0  0  0  0  0  0  0  0  0  0  0  0
  -26.9530  -28.1620   24.0640 C   0  0  1  0  0  0  0  0  0  0  0  0
  -25.7180  -27.5490   24.7660 C   0  0  0  0  0  1  0  0  0  0  0  0
  -27.6400  -27.0410   23.2480 C   0  0  0  0  0  1  0  0  0  0  0  0
  -27.9590  -28.5940   25.1570 C   0  0  0  0  0  1  0  0  0  0  0  0
  1  2  1  0
  2  3  1  0
  3  4  1  0
  4  5  1  0
  5  6  1  0
  6  7  1  0
  8  9  1  0
  8  7  1  0
 10  9  1  0
 11 10  1  0
 12 11  1  0
 13 12  1  0
 13 22  1  0
 14 20  1  0
 16 17  1  0
 16 15  1  0
 18 17  1  0
 18 27  1  0
 18 19  1  0
 20 15  1  0
 20 19  1  0
 21 14  2  0
 22 14  1  0
 22 23  1  0
 24 25  2  0
 25 26  1  0
 25 44  1  0
 26 29  1  0
 27 24  1  0
 27 28  1  0
 28 26  2  0
 29 30  1  0
 30 31  2  0
 32 35  1  0
 32 31  1  0
 33 32  2  0
 34 33  1  0
 34 29  2  0
 35 36  1  0
 36 37  2  0
 36 41  1  0
 37 38  1  0
 38 39  2  0
 39 43  1  0
 40 39  1  0
 41 40  2  0
 42 41  1  0
 44 45  1  0
 45 48  1  0
 45 47  1  0
 46 44  2  0
 49 50  1  0
 49 24  1  0
 51 49  1  0
 52  1  1  0
 53 52  1  0
 54 53  1  0
 55 54  1  0
 55 56  1  0
 56 58  1  0
 56 57  1  0
 59 56  1  0
 59 60  1  0
 61 63  1  0
 61 60  1  0
 62 73  2  0
 63 68  1  0
 64 74  1  0
 64 72  1  0
 65 71  1  0
 65 67  1  0
 66 72  1  0
 67 66  1  0
 68 67  2  0
 69 70  1  0
 69 63  2  0
 70 65  2  0
 71 64  1  0
 72 62  1  0
 74 76  2  0
 75 74  1  0
 77 75  1  0
 78 83  1  0
 79 75  1  0
 80 79  1  0
 81 82  1  0
 81 80  1  0
 82 78  1  0
 83 79  1  0
 83 84  2  0
 85 84  1  0
 86 85  2  0
 87 78  2  0
 87 86  1  0
 88 62  1  0
 88 89  1  0
 88 98  1  0
 89 92  1  0
 90 89  1  0
 90 94  1  0
 91 90  2  0
 94 93  1  0
 94 96  1  0
 96 97  1  0
 96 95  1  0
 98 99  1  1
 98101  1  0
100 98  1  0
M  ISO  4  14 100  22 100  60 101  61 101
M  END
>  <TORSDO>  (23) 
F 35

>  <SCORE>  (23) 
-4.408

>  <name>  (23) 
26

>  <ligand_id>  (23) 
26

>  <original_smiles>  (23) 
[H]c1c([H])c([H])c2c(c1[H])C([H])([H])C([H])([H])C([H])([H])C2([H])N([H])C(=O)C1([H])N(C(=O)C([H])(N([H])C(=O)C([H])(N([H])C([H])([H])[H])C([H])([H])[H])C(C([H])([H])[H])(C([H])([H])[H])C([H])([H])[H])C([H])([H])c2c([H])c(OC([H])([H])C([H])([H])[N+]([H])([H])C([H])([H])C([H])([H])OC([H])([H])C([H])([H])OC([H])([H])C([H])([H])OC([H])([H])C([H])([H])OC([H])([H])C([H])([H])OC([H])([H])C([H])([H])N([H])C(=O)N3C([H])([H])C([H])([H])C([H])([H])C([H])(n4nc(-c5c([H])c([H])c(Oc6c([H])c([H])c(F)c([H])c6F)c([H])c5[H])c(C(=O)N([H])[H])c4N([H])[H])C3([H])[H])c([H])c([H])c2C1([H])[H]

>  <smiles>  (23) 
[H]c1c([H])c([H])c2c(c1[H])C([H])([H])C([H])([H])C([H])([H])C2([H])N([H])C(=O)C1([H])N(C(=O)C([H])(N([H])C(=O)C([H])(N([H])C([H])([H])[H])C([H])([H])[H])C(C([H])([H])[H])(C([H])([H])[H])C([H])([H])[H])C([H])([H])c2c([H])c(OC([H])([H])C([H])([H])[N+]([H])([H])C([H])([H])C([H])([H])OC([H])([H])C([H])([H])OC([H])([H])C([H])([H])OC([H])([H])C([H])([H])OC([H])([H])C([H])([H])OC([H])([H])C([H])([H])N([H])C(=O)N3C([H])([H])C([H])([H])C([H])([H])C([H])(n4nc(-c5c([H])c([H])c(Oc6c([H])c([H])c(F)c([H])c6F)c([H])c5[H])c(C(=O)N([H])[H])c4N([H])[H])C3([H])[H])c([H])c([H])c2C1([H])[H]

$$$$
27:0:0
     RDKit          3D

 97104  0  0  1  0  0  0  0  0999 V2000
  -23.0130  -23.9560   20.3990 C   0  0  0  0  0  2  0  0  0  0  0  0
  -23.6220  -24.0760   19.1170 O   0  0  0  0  0  0  0  0  0  0  0  0
  -24.1040  -22.8730   18.5150 C   0  0  0  0  0  2  0  0  0  0  0  0
  -25.4510  -22.3880   19.0770 C   0  0  0  0  0  2  0  0  0  0  0  0
  -26.2980  -23.5120   19.2620 O   0  0  0  0  0  0  0  0  0  0  0  0
  -27.6060  -23.1900   19.7150 C   0  0  0  0  0  2  0  0  0  0  0  0
  -28.2090  -24.4590   20.3340 C   0  0  0  0  0  2  0  0  0  0  0  0
  -28.3160  -25.4690   19.3440 O   0  0  0  0  0  0  0  0  0  0  0  0
  -28.4440  -26.7920   20.0470 O   0  0  0  0  0  0  0  0  0  0  0  0
  -24.6130  -31.8690   23.2140 C   0  0  0  0  0  0  0  0  0  0  0  0
  -27.2450  -27.4700   20.0770 C   0  0  0  0  0  0  0  0  0  0  0  0
  -23.3980  -30.4940   21.5540 C   0  0  0  0  0  3  0  0  0  0  0  0
  -24.8430  -28.9600   20.1210 C   0  0  0  0  0  0  0  0  0  0  0  0
  -25.9220  -30.8460   21.3580 C   0  0  0  0  0  2  0  0  0  0  0  0
  -26.0010  -29.4800   20.7120 C   0  0  0  0  0  0  0  0  0  0  0  0
  -27.2010  -28.7380   20.6960 C   0  0  0  0  0  3  0  0  0  0  0  0
  -26.0650  -26.9560   19.4910 C   0  0  0  0  0  3  0  0  0  0  0  0
  -24.8660  -27.6910   19.5180 C   0  0  0  0  0  3  0  0  0  0  0  0
  -23.6050  -29.8250   20.1690 C   0  0  0  0  0  2  0  0  0  0  0  0
  -24.6630  -31.0820   22.1010 N   0  0  0  0  0  0  0  0  0  0  0  0
  -23.5330  -32.1420   23.7550 O   0  0  0  0  0  0  0  0  0  0  0  0
  -22.7410  -29.4660   22.5010 C   0  0  0  0  0  0  0  0  0  0  0  0
  -21.4130  -29.3030   22.3750 N   0  0  0  0  0  0  0  0  0  0  0  0
  -23.4200  -28.8160   23.3000 O   0  0  0  0  0  0  0  0  0  0  0  0
  -20.9270  -29.8810   21.7030 H   0  0  0  0  0  0  0  0  0  0  0  0
  -18.0310  -28.1340   22.8500 C   0  0  0  0  0  0  0  0  0  0  0  0
  -20.5900  -28.3630   23.1310 C   0  0  0  0  0  3  0  0  0  0  0  0
  -20.6850  -26.9380   22.5390 C   0  0  0  0  0  2  0  0  0  0  0  0
  -19.5790  -26.6310   21.5230 C   0  0  0  0  0  2  0  0  0  0  0  0
  -18.1980  -26.7870   22.1660 C   0  0  0  0  0  2  0  0  0  0  0  0
  -19.1560  -28.8800   23.2910 C   0  0  0  0  0  0  0  0  0  0  0  0
  -18.9490  -30.1410   23.8920 C   0  0  0  0  0  3  0  0  0  0  0  0
  -17.6510  -30.6570   24.0560 C   0  0  0  0  0  3  0  0  0  0  0  0
  -16.5390  -29.9080   23.6320 C   0  0  0  0  0  3  0  0  0  0  0  0
  -16.7300  -28.6480   23.0350 C   0  0  0  0  0  3  0  0  0  0  0  0
  -25.9040  -32.4830   23.8430 C   0  0  0  0  0  3  0  0  0  0  0  0
  -25.5930  -33.8630   24.2360 N   0  0  0  0  0  0  0  0  0  0  0  0
  -25.9020  -34.9480   23.5130 C   0  0  0  0  0  0  0  0  0  0  0  0
  -26.5550  -34.8920   22.4670 O   0  0  0  0  0  0  0  0  0  0  0  0
  -25.0220  -33.9810   25.0600 H   0  0  0  0  0  0  0  0  0  0  0  0
  -24.1480  -36.7320   23.2630 C   0  0  0  0  0  1  0  0  0  0  0  0
  -25.4100  -36.3120   24.0330 C   0  0  0  0  0  3  0  0  0  0  0  0
  -27.5580  -37.1810   24.8460 C   0  0  0  0  0  1  0  0  0  0  0  0
  -26.4290  -37.3800   23.9410 N   0  0  0  0  0  0  0  0  0  0  0  0
  -26.0180  -38.2880   24.1440 H   0  0  0  0  0  0  0  0  0  0  0  0
  -26.4490  -31.6600   25.0730 C   0  0  1  0  0  0  0  0  0  0  0  0
  -25.3770  -31.3690   26.1480 C   0  0  0  0  0  1  0  0  0  0  0  0
  -27.0300  -30.3050   24.6070 C   0  0  0  0  0  1  0  0  0  0  0  0
  -27.6060  -32.4320   25.7500 C   0  0  0  0  0  1  0  0  0  0  0  0
  -24.0030  -24.2260   21.5450 C   0  0  0  0  0  2  0  0  0  0  0  0
  -24.5070  -22.9970   22.0430 O   0  0  0  0  0  0  0  0  0  0  0  0
  -25.4910  -23.1800   23.0500 C   0  0  0  0  0  2  0  0  0  0  0  0
  -25.8500  -21.8110   23.6320 C   0  0  0  0  0  2  0  0  0  0  0  0
  -26.5210  -21.0210   22.6550 O   0  0  0  0  0  0  0  0  0  0  0  0
  -26.7680  -19.7020   23.1250 C   0  0  0  0  0  2  0  0  0  0  0  0
  -27.2380  -18.7910   21.9770 C   0  0  0  0  0  2  0  0  0  0  0  0
  -28.5550  -18.2990   22.2240 O   0  0  0  0  0  0  0  0  0  0  0  0
  -28.8830  -17.1770   21.4110 C   0  0  0  0  0  2  0  0  0  0  0  0
  -30.2270  -16.5520   21.8420 C   0  0  0  0  0  2  0  0  0  0  0  0
  -30.7170  -14.3640   20.7010 C   0  0  0  0  0  0  0  0  0  0  0  0
  -30.4290  -12.2930   19.3880 C   0  0  0  0  0  2  0  0  0  0  0  0
  -29.4950  -12.5560   18.1900 C   0  0  0  0  0  2  0  0  0  0  0  0
  -28.0170  -12.3980   18.6000 C   0  0  0  0  0  2  0  0  0  0  0  0
  -27.6700  -13.1940   19.8860 C   0  0  0  0  0  3  0  0  0  0  0  0
  -28.7020  -12.8830   20.9920 C   0  0  0  0  0  2  0  0  0  0  0  0
  -30.0510  -13.2030   20.4770 N   0  0  0  0  0  0  0  0  0  0  0  0
  -31.7150  -14.7250   20.0710 O   0  0  0  0  0  0  0  0  0  0  0  0
  -30.1630  -15.1050   21.6640 N   0  0  0  0  0  0  0  0  0  0  0  0
  -29.4240  -14.6370   22.1660 H   0  0  0  0  0  0  0  0  0  0  0  0
  -25.2580  -13.8130   20.5610 C   0  0  0  0  0  0  0  0  0  0  0  0
  -24.1830  -13.0430   20.9130 C   0  0  0  0  0  0  0  0  0  0  0  0
  -24.6370  -11.6880   20.8690 C   0  0  0  0  0  0  0  0  0  0  0  0
  -26.3030  -12.9280   20.3340 N   0  0  0  0  0  0  0  0  0  0  0  0
  -25.9290  -11.6450   20.5700 N   0  0  0  0  0  0  0  0  0  0  0  0
  -23.9040  -10.4280   21.0380 C   0  0  0  0  0  0  0  0  0  0  0  0
  -24.3590   -9.4210   21.9170 C   0  0  0  0  0  3  0  0  0  0  0  0
  -23.6270   -8.2240   22.0760 C   0  0  0  0  0  3  0  0  0  0  0  0
  -22.4250   -8.0270   21.3540 C   0  0  0  0  0  0  0  0  0  0  0  0
  -21.9870   -9.0240   20.4640 C   0  0  0  0  0  3  0  0  0  0  0  0
  -22.7200  -10.2120   20.3040 C   0  0  0  0  0  3  0  0  0  0  0  0
  -21.6630   -6.8850   21.4230 O   0  0  0  0  0  0  0  0  0  0  0  0
  -21.6850   -6.0720   22.5270 C   0  0  0  0  0  0  0  0  0  0  0  0
  -21.4020   -6.5620   23.8200 C   0  0  0  0  0  3  0  0  0  0  0  0
  -21.3660   -5.6780   24.9170 C   0  0  0  0  0  3  0  0  0  0  0  0
  -21.6050   -4.3040   24.7220 C   0  0  0  0  0  0  0  0  0  0  0  0
  -21.8820   -3.8120   23.4340 C   0  0  0  0  0  3  0  0  0  0  0  0
  -21.9190   -4.6940   22.3400 C   0  0  0  0  0  0  0  0  0  0  0  0
  -22.1650   -4.2110   21.0980 F   0  0  0  0  0  0  0  0  0  0  0  0
  -21.5630   -3.4530   25.7750 F   0  0  0  0  0  0  0  0  0  0  0  0
  -22.7850  -13.5250   21.1810 C   0  0  0  0  0  0  0  0  0  0  0  0
  -22.0470  -12.8270   22.0380 N   0  0  0  0  0  0  0  0  0  0  0  0
  -22.3560  -14.5570   20.6680 O   0  0  0  0  0  0  0  0  0  0  0  0
  -22.4030  -11.9920   22.4790 H   0  0  0  0  0  0  0  0  0  0  0  0
  -21.1100  -13.1330   22.2570 H   0  0  0  0  0  0  0  0  0  0  0  0
  -25.4290  -15.1850   20.3980 N   0  0  0  0  0  0  0  0  0  0  0  0
  -24.6540  -15.8340   20.4830 H   0  0  0  0  0  0  0  0  0  0  0  0
  -26.2790  -15.6210   20.0650 H   0  0  0  0  0  0  0  0  0  0  0  0
  1 50  1  0
  2  1  1  0
  3  4  1  0
  3  2  1  0
  4  5  1  0
  5  6  1  0
  6  7  1  0
  8  9  1  0
  8  7  1  0
  9 11  1  0
 10 21  2  0
 11 16  1  0
 12 20  1  0
 12 22  1  0
 13 19  1  0
 13 15  1  0
 14 20  1  0
 15 14  1  0
 16 15  2  0
 17 18  1  0
 17 11  2  0
 18 13  2  0
 19 12  1  0
 20 10  1  0
 22 24  2  0
 23 22  1  0
 25 23  1  0
 26 35  2  0
 26 31  1  0
 27 23  1  0
 27 31  1  0
 28 27  1  0
 29 30  1  0
 29 28  1  0
 30 26  1  0
 31 32  2  0
 32 33  1  0
 34 33  2  0
 35 34  1  0
 36 10  1  0
 36 37  1  0
 36 46  1  0
 37 40  1  0
 38 42  1  0
 38 37  1  0
 39 38  2  0
 42 41  1  0
 44 42  1  0
 44 45  1  0
 44 43  1  0
 46 49  1  1
 46 47  1  0
 48 46  1  0
 50 51  1  0
 51 52  1  0
 52 53  1  0
 54 55  1  0
 54 53  1  0
 56 57  1  0
 56 55  1  0
 58 59  1  0
 58 57  1  0
 60 68  1  0
 61 66  1  0
 62 63  1  0
 62 61  1  0
 64 63  1  0
 64 73  1  0
 64 65  1  0
 66 60  1  0
 66 65  1  0
 67 60  2  0
 68 59  1  0
 68 69  1  0
 70 71  2  0
 71 90  1  0
 72 71  1  0
 72 75  1  0
 73 70  1  0
 73 74  1  0
 74 72  2  0
 75 76  1  0
 76 77  2  0
 78 81  1  0
 78 77  1  0
 79 78  2  0
 80 79  1  0
 80 75  2  0
 81 82  1  0
 82 83  1  0
 83 84  2  0
 85 84  1  0
 85 89  1  0
 86 85  2  0
 87 82  2  0
 87 86  1  0
 88 87  1  0
 90 91  1  0
 91 94  1  0
 91 93  1  0
 92 90  2  0
 95 96  1  0
 95 70  1  0
 97 95  1  0
M  ISO  4   8 101   9 101  60 100  68 100
M  END
>  <TORSDO>  (24) 
F 33

>  <SCORE>  (24) 
13.607

>  <name>  (24) 
27

>  <ligand_id>  (24) 
27

>  <original_smiles>  (24) 
[H]c1c([H])c([H])c2c(c1[H])C([H])([H])C([H])([H])C([H])([H])C2([H])N([H])C(=O)C1([H])N(C(=O)C([H])(N([H])C(=O)C([H])(N([H])C([H])([H])[H])C([H])([H])[H])C(C([H])([H])[H])(C([H])([H])[H])C([H])([H])[H])C([H])([H])c2c([H])c(OOC([H])([H])C([H])([H])OC([H])([H])C([H])([H])OC([H])([H])C([H])([H])OC([H])([H])C([H])([H])OC([H])([H])C([H])([H])OC([H])([H])C([H])([H])N([H])C(=O)N3C([H])([H])C([H])([H])C([H])([H])C([H])(n4nc(-c5c([H])c([H])c(Oc6c([H])c([H])c(F)c([H])c6F)c([H])c5[H])c(C(=O)N([H])[H])c4N([H])[H])C3([H])[H])c([H])c([H])c2C1([H])[H]

>  <smiles>  (24) 
[H]c1c([H])c([H])c2c(c1[H])C([H])([H])C([H])([H])C([H])([H])C2([H])N([H])C(=O)C1([H])N(C(=O)C([H])(N([H])C(=O)C([H])(N([H])C([H])([H])[H])C([H])([H])[H])C(C([H])([H])[H])(C([H])([H])[H])C([H])([H])[H])C([H])([H])c2c([H])c(OOC([H])([H])C([H])([H])OC([H])([H])C([H])([H])OC([H])([H])C([H])([H])OC([H])([H])C([H])([H])OC([H])([H])C([H])([H])OC([H])([H])C([H])([H])N([H])C(=O)N3C([H])([H])C([H])([H])C([H])([H])C([H])(n4nc(-c5c([H])c([H])c(Oc6c([H])c([H])c(F)c([H])c6F)c([H])c5[H])c(C(=O)N([H])[H])c4N([H])[H])C3([H])[H])c([H])c([H])c2C1([H])[H]

$$$$
28:0:0
     RDKit          3D

110117  0  0  1  0  0  0  0  0999 V2000
  -20.4310  -32.0980   22.8640 C   0  0  0  0  0  2  0  0  0  0  0  0
  -21.5810  -31.1550   25.0660 C   0  0  0  0  0  0  0  0  0  0  0  0
  -21.4380  -31.3630   23.7200 N   0  0  0  0  0  0  0  0  0  0  0  0
  -20.8460  -31.7580   25.8520 O   0  0  0  0  0  0  0  0  0  0  0  0
  -22.0600  -30.7700   23.1830 H   0  0  0  0  0  0  0  0  0  0  0  0
  -22.5620  -30.0440   25.6740 C   0  0  0  0  0  2  0  0  0  0  0  0
  -23.6820  -29.6060   24.8490 O   0  0  0  0  0  0  0  0  0  0  0  0
  -24.7990  -28.7790   25.3450 C   0  0  0  0  0  2  0  0  0  0  0  0
  -25.7220  -27.9850   24.2740 C   0  0  0  0  0  2  0  0  0  0  0  0
  -27.1920  -28.1840   24.2160 O   0  0  0  0  0  0  0  0  0  0  0  0
  -27.9850  -27.3730   23.2560 C   0  0  0  0  0  3  0  0  0  0  0  0
  -29.5770  -27.6350   23.1070 C   0  0  0  0  0  3  0  0  0  0  0  0
  -30.3660  -26.7940   22.1630 O   0  0  0  0  0  0  0  0  0  0  0  0
  -31.7880  -27.1270   21.8690 C   0  0  0  0  0  3  0  0  0  0  0  0
  -32.6730  -26.1530   20.9240 C   0  0  0  0  0  3  0  0  0  0  0  0
  -34.0980  -26.4860   20.6510 O   0  0  0  0  0  0  0  0  0  0  0  0
  -34.9520  -25.4720   19.9830 C   0  0  0  0  0  3  0  0  0  0  0  0
  -36.4620  -25.8440   19.5280 C   0  0  0  0  0  3  0  0  0  0  0  0
  -38.5480  -24.7040   18.3180 C   0  0  0  0  0  0  0  0  0  0  0  0
  -39.8910  -23.2540   16.7660 C   0  0  0  0  0  2  0  0  0  0  0  0
  -39.0470  -23.0000   15.4940 C   0  0  0  0  0  2  0  0  0  0  0  0
  -38.0880  -21.8080   15.7100 C   0  0  0  0  0  2  0  0  0  0  0  0
  -37.2990  -21.9270   17.0420 C   0  0  0  0  0  3  0  0  0  0  0  0
  -38.2630  -22.2150   18.2120 C   0  0  0  0  0  2  0  0  0  0  0  0
  -38.9590  -23.4650   17.8970 N   0  0  0  0  0  0  0  0  0  0  0  0
  -39.1870  -25.7180   18.0100 O   0  0  0  0  0  0  0  0  0  0  0  0
  -37.3370  -24.7260   18.9890 N   0  0  0  0  0  0  0  0  0  0  0  0
  -36.9570  -23.8040   19.1480 H   0  0  0  0  0  0  0  0  0  0  0  0
  -35.1270  -20.6770   17.5920 C   0  0  0  0  0  0  0  0  0  0  0  0
  -34.8490  -19.3460   17.7380 C   0  0  0  0  0  0  0  0  0  0  0  0
  -36.0900  -18.6600   17.5490 C   0  0  0  0  0  0  0  0  0  0  0  0
  -36.4830  -20.7520   17.3230 N   0  0  0  0  0  0  0  0  0  0  0  0
  -37.0730  -19.5290   17.3540 N   0  0  0  0  0  0  0  0  0  0  0  0
  -36.3890  -17.2260   17.4830 C   0  0  0  0  0  0  0  0  0  0  0  0
  -37.4160  -16.6480   18.2610 C   0  0  0  0  0  3  0  0  0  0  0  0
  -37.6780  -15.2640   18.1880 C   0  0  0  0  0  3  0  0  0  0  0  0
  -36.9070  -14.4420   17.3330 C   0  0  0  0  0  0  0  0  0  0  0  0
  -35.8990  -15.0250   16.5450 C   0  0  0  0  0  3  0  0  0  0  0  0
  -35.6430  -16.4030   16.6160 C   0  0  0  0  0  3  0  0  0  0  0  0
  -37.1050  -13.0910   17.1800 O   0  0  0  0  0  0  0  0  0  0  0  0
  -37.6760  -12.3300   18.1680 C   0  0  0  0  0  0  0  0  0  0  0  0
  -37.1430  -12.2830   19.4750 C   0  0  0  0  0  3  0  0  0  0  0  0
  -37.7200  -11.4330   20.4400 C   0  0  0  0  0  3  0  0  0  0  0  0
  -38.8210  -10.6230   20.0990 C   0  0  0  0  0  0  0  0  0  0  0  0
  -39.3450  -10.6610   18.7960 C   0  0  0  0  0  3  0  0  0  0  0  0
  -38.7750  -11.5110   17.8330 C   0  0  0  0  0  0  0  0  0  0  0  0
  -39.2720  -11.5310   16.5740 F   0  0  0  0  0  0  0  0  0  0  0  0
  -39.3690   -9.7990   21.0230 F   0  0  0  0  0  0  0  0  0  0  0  0
  -33.4950  -18.7310   17.9470 C   0  0  0  0  0  0  0  0  0  0  0  0
  -33.4280  -17.5960   18.6300 N   0  0  0  0  0  0  0  0  0  0  0  0
  -32.4760  -19.2880   17.5390 O   0  0  0  0  0  0  0  0  0  0  0  0
  -34.2560  -17.1460   18.9930 H   0  0  0  0  0  0  0  0  0  0  0  0
  -32.5280  -17.1700   18.8010 H   0  0  0  0  0  0  0  0  0  0  0  0
  -34.3430  -21.8300   17.6410 N   0  0  0  0  0  0  0  0  0  0  0  0
  -33.3310  -21.7950   17.6780 H   0  0  0  0  0  0  0  0  0  0  0  0
  -34.7020  -22.7630   17.4850 H   0  0  0  0  0  0  0  0  0  0  0  0
  -20.3350  -32.0050   21.2310 C   0  0  0  0  0  2  0  0  0  0  0  0
  -20.0150  -30.7800   20.2320 C   0  0  0  0  0  2  0  0  0  0  0  0
  -21.1690  -30.0600   19.7090 O   0  0  0  0  0  0  0  0  0  0  0  0
  -21.1870  -29.1420   18.5500 C   0  0  0  0  0  2  0  0  0  0  0  0
  -22.2300  -27.9590   18.7690 C   0  0  0  0  0  0  0  0  0  0  0  0
  -22.6130  -27.0520   17.8410 N   0  0  0  0  0  0  0  0  0  0  0  0
  -22.7290  -27.8310   19.8700 O   0  0  0  0  0  0  0  0  0  0  0  0
  -22.2420  -27.1550   16.9060 H   0  0  0  0  0  0  0  0  0  0  0  0
  -23.2830  -25.7460   18.1830 C   0  0  0  0  0  2  0  0  0  0  0  0
  -24.8550  -25.5630   18.0640 C   0  0  0  0  0  2  0  0  0  0  0  0
  -25.5810  -25.6060   19.3330 O   0  0  0  0  0  0  0  0  0  0  0  0
  -26.9240  -25.0300   19.5220 C   0  0  0  0  0  2  0  0  0  0  0  0
  -28.3030  -25.8060   19.2360 C   0  0  0  0  0  2  0  0  0  0  0  0
  -28.7010  -27.0490   19.9220 O   0  0  0  0  0  0  0  0  0  0  0  0
  -25.1490  -32.1730   23.4160 C   0  0  0  0  0  0  0  0  0  0  0  0
  -27.7620  -28.0550   19.8950 C   0  0  0  0  0  0  0  0  0  0  0  0
  -23.9810  -30.9170   21.6130 C   0  0  0  0  0  3  0  0  0  0  0  0
  -25.5010  -29.7130   20.0040 C   0  0  0  0  0  0  0  0  0  0  0  0
  -26.5290  -31.2700   21.6050 C   0  0  0  0  0  2  0  0  0  0  0  0
  -26.6170  -30.0120   20.7830 C   0  0  0  0  0  0  0  0  0  0  0  0
  -27.7540  -29.1700   20.7660 C   0  0  0  0  0  3  0  0  0  0  0  0
  -26.7220  -27.9490   18.9710 C   0  0  0  0  0  3  0  0  0  0  0  0
  -25.5560  -28.6860   19.0750 C   0  0  0  0  0  3  0  0  0  0  0  0
  -24.3270  -30.6300   20.1360 C   0  0  0  0  0  2  0  0  0  0  0  0
  -25.2240  -31.4370   22.2840 N   0  0  0  0  0  0  0  0  0  0  0  0
  -24.0760  -32.4940   23.8990 O   0  0  0  0  0  0  0  0  0  0  0  0
  -23.3610  -29.6650   22.3210 C   0  0  0  0  0  0  0  0  0  0  0  0
  -22.0150  -29.4390   22.2520 N   0  0  0  0  0  0  0  0  0  0  0  0
  -24.1200  -28.9400   22.9420 O   0  0  0  0  0  0  0  0  0  0  0  0
  -21.5760  -29.9570   21.4930 H   0  0  0  0  0  0  0  0  0  0  0  0
  -18.5180  -28.3020   22.4330 C   0  0  0  0  0  0  0  0  0  0  0  0
  -21.0820  -28.4820   22.9230 C   0  0  0  0  0  3  0  0  0  0  0  0
  -21.1670  -27.0900   22.2830 C   0  0  0  0  0  2  0  0  0  0  0  0
  -20.1380  -26.8730   21.1650 C   0  0  0  0  0  2  0  0  0  0  0  0
  -18.7200  -27.0040   21.6850 C   0  0  0  0  0  2  0  0  0  0  0  0
  -19.6000  -28.9550   23.0700 C   0  0  0  0  0  0  0  0  0  0  0  0
  -19.2250  -29.9680   23.9710 C   0  0  0  0  0  3  0  0  0  0  0  0
  -17.9600  -30.5630   24.0110 C   0  0  0  0  0  3  0  0  0  0  0  0
  -16.9290  -29.9750   23.2780 C   0  0  0  0  0  3  0  0  0  0  0  0
  -17.2020  -28.8070   22.5460 C   0  0  0  0  0  3  0  0  0  0  0  0
  -26.3990  -32.7150   24.1580 C   0  0  0  0  0  3  0  0  0  0  0  0
  -26.0440  -34.0520   24.6570 N   0  0  0  0  0  0  0  0  0  0  0  0
  -26.3500  -35.1940   24.0340 C   0  0  0  0  0  0  0  0  0  0  0  0
  -27.0380  -35.2310   23.0110 O   0  0  0  0  0  0  0  0  0  0  0  0
  -25.4060  -34.0940   25.4390 H   0  0  0  0  0  0  0  0  0  0  0  0
  -24.5870  -36.9870   23.8780 C   0  0  0  0  0  1  0  0  0  0  0  0
  -25.8260  -36.5040   24.6500 C   0  0  0  0  0  3  0  0  0  0  0  0
  -27.9390  -37.3110   25.6060 C   0  0  0  0  0  1  0  0  0  0  0  0
  -26.8410  -37.5780   24.6830 N   0  0  0  0  0  0  0  0  0  0  0  0
  -26.4170  -38.4660   24.9400 H   0  0  0  0  0  0  0  0  0  0  0  0
  -26.8590  -31.7820   25.3420 C   0  0  1  0  0  0  0  0  0  0  0  0
  -25.7240  -31.3710   26.3020 C   0  0  0  0  0  1  0  0  0  0  0  0
  -27.4880  -30.4760   24.8090 C   0  0  0  0  0  1  0  0  0  0  0  0
  -27.9600  -32.4970   26.1480 C   0  0  0  0  0  1  0  0  0  0  0  0
  1  3  1  0
  2  6  1  0
  2  4  2  0
  3  2  1  0
  5  3  1  0
  7  8  1  0
  7  6  1  0
  9  8  1  0
 10  9  1  0
 11 10  1  0
 12 11  2  0
 13 12  1  0
 14 13  1  0
 15 14  2  0
 16 15  1  0
 17 16  1  0
 18 17  2  0
 19 27  1  0
 20 25  1  0
 21 22  1  0
 21 20  1  0
 23 22  1  0
 23 32  1  0
 23 24  1  0
 25 24  1  0
 25 19  1  0
 26 19  2  0
 27 28  1  0
 27 18  1  0
 29 54  1  0
 29 30  2  0
 30 49  1  0
 31 30  1  0
 32 33  1  0
 32 29  1  0
 33 31  2  0
 34 31  1  0
 34 35  1  0
 36 35  2  0
 37 36  1  0
 38 39  1  0
 38 37  2  0
 39 34  2  0
 40 37  1  0
 40 41  1  0
 41 42  1  0
 42 43  2  0
 44 43  1  0
 44 48  1  0
 45 44  2  0
 46 41  2  0
 46 45  1  0
 47 46  1  0
 49 50  1  0
 50 53  1  0
 50 52  1  0
 51 49  2  0
 54 55  1  0
 56 54  1  0
 57  1  1  0
 58 57  1  0
 59 58  1  0
 60 61  1  0
 60 59  1  0
 61 63  2  0
 62 65  1  0
 62 61  1  0
 64 62  1  0
 66 65  1  0
 66 67  1  0
 67 68  1  0
 69 68  1  0
 69 70  1  0
 71 82  2  0
 72 70  1  0
 72 77  1  0
 73 81  1  0
 73 83  1  0
 74 80  1  0
 74 76  1  0
 75 81  1  0
 76 75  1  0
 77 76  2  0
 78 79  1  0
 78 72  2  0
 79 74  2  0
 80 73  1  0
 81 71  1  0
 83 85  2  0
 84 83  1  0
 86 84  1  0
 87 96  2  0
 87 92  1  0
 88 84  1  0
 88 92  1  0
 89 88  1  0
 90 91  1  0
 90 89  1  0
 91 87  1  0
 92 93  2  0
 93 94  1  0
 95 94  2  0
 96 95  1  0
 97 71  1  0
 97 98  1  0
 97107  1  0
 98101  1  0
 99103  1  0
 99 98  1  0
100 99  2  0
103102  1  0
103105  1  0
105106  1  0
105104  1  0
107110  1  1
107108  1  0
109107  1  0
M  ISO  4  19 100  27 100  69 101  70 101
M  END
>  <TORSDO>  (25) 
F 40

>  <SCORE>  (25) 
23.840

>  <name>  (25) 
28

>  <ligand_id>  (25) 
28

>  <original_smiles>  (25) 
[H]c1c([H])c([H])c2c(c1[H])C([H])([H])C([H])([H])C([H])([H])C2([H])N([H])C(=O)C1([H])N(C(=O)C([H])(N([H])C(=O)C([H])(N([H])C([H])([H])[H])C([H])([H])[H])C(C([H])([H])[H])(C([H])([H])[H])C([H])([H])[H])C([H])([H])c2c([H])c(OC([H])([H])C([H])([H])OC([H])([H])C([H])([H])N([H])C(=O)C([H])([H])OC([H])([H])C([H])([H])C([H])([H])N([H])C(=O)C([H])([H])OC([H])([H])C([H])([H])OC([H])([H])C([H])([H])OC([H])([H])C([H])([H])OC([H])([H])C([H])([H])N([H])C(=O)N3C([H])([H])C([H])([H])C([H])([H])C([H])(n4nc(-c5c([H])c([H])c(Oc6c([H])c([H])c(F)c([H])c6F)c([H])c5[H])c(C(=O)N([H])[H])c4N([H])[H])C3([H])[H])c([H])c([H])c2C1([H])[H]

>  <smiles>  (25) 
[H]c1c([H])c([H])c2c(c1[H])C([H])([H])C([H])([H])C([H])([H])C2([H])N([H])C(=O)C1([H])N(C(=O)C([H])(N([H])C(=O)C([H])(N([H])C([H])([H])[H])C([H])([H])[H])C(C([H])([H])[H])(C([H])([H])[H])C([H])([H])[H])C([H])([H])c2c([H])c(OC([H])([H])C([H])([H])OC([H])([H])C([H])([H])N([H])C(=O)C([H])([H])OC([H])([H])C([H])([H])C([H])([H])N([H])C(=O)C([H])([H])OC([H])([H])C([H])([H])OC([H])([H])C([H])([H])OC([H])([H])C([H])([H])OC([H])([H])C([H])([H])N([H])C(=O)N3C([H])([H])C([H])([H])C([H])([H])C([H])(n4nc(-c5c([H])c([H])c(Oc6c([H])c([H])c(F)c([H])c6F)c([H])c5[H])c(C(=O)N([H])[H])c4N([H])[H])C3([H])[H])c([H])c([H])c2C1([H])[H]

$$$$
29:0:0
     RDKit          3D

102109  0  0  1  0  0  0  0  0999 V2000
  -27.4340  -26.4300   25.8330 C   0  0  0  0  0  0  0  0  0  0  0  0
  -26.3490  -25.7410   25.4630 N   0  0  0  0  0  0  0  0  0  0  0  0
  -27.4150  -27.3220   26.6840 O   0  0  0  0  0  0  0  0  0  0  0  0
  -26.4840  -25.0360   24.7480 H   0  0  0  0  0  0  0  0  0  0  0  0
  -24.9820  -26.0010   25.8950 C   0  0  0  0  0  2  0  0  0  0  0  0
  -24.0720  -26.1680   24.6700 C   0  0  0  0  0  2  0  0  0  0  0  0
  -23.8760  -24.8590   23.8750 C   0  0  0  0  0  2  0  0  0  0  0  0
  -23.3120  -25.0560   22.4540 C   0  0  0  0  0  2  0  0  0  0  0  0
  -24.2300  -25.9220   21.5680 C   0  0  0  0  0  2  0  0  0  0  0  0
  -23.7010  -27.3550   21.3740 C   0  0  0  0  0  2  0  0  0  0  0  0
  -24.7810  -28.3200   20.8570 C   0  0  0  0  0  2  0  0  0  0  0  0
  -24.3460  -29.6770   20.8930 O   0  0  0  0  0  0  0  0  0  0  0  0
  -28.0780  -31.8240   26.5250 C   0  0  0  0  0  0  0  0  0  0  0  0
  -24.3130  -30.1830   22.1650 C   0  0  0  0  0  0  0  0  0  0  0  0
  -25.6620  -31.4530   26.9060 C   0  0  0  0  0  3  0  0  0  0  0  0
  -24.2440  -31.1380   24.8080 C   0  0  0  0  0  0  0  0  0  0  0  0
  -26.5280  -32.1420   24.6040 C   0  0  0  0  0  2  0  0  0  0  0  0
  -25.3710  -31.3700   24.0100 C   0  0  0  0  0  0  0  0  0  0  0  0
  -25.4140  -30.8910   22.6840 C   0  0  0  0  0  3  0  0  0  0  0  0
  -23.1720  -29.9740   22.9640 C   0  0  0  0  0  3  0  0  0  0  0  0
  -23.1410  -30.4330   24.2940 C   0  0  0  0  0  3  0  0  0  0  0  0
  -24.2870  -31.6790   26.2200 C   0  0  0  0  0  2  0  0  0  0  0  0
  -26.8160  -31.7870   26.0110 N   0  0  0  0  0  0  0  0  0  0  0  0
  -28.2870  -31.6300   27.7300 O   0  0  0  0  0  0  0  0  0  0  0  0
  -25.7050  -30.0060   27.4470 C   0  0  0  0  0  0  0  0  0  0  0  0
  -25.1260  -29.7980   28.6380 N   0  0  0  0  0  0  0  0  0  0  0  0
  -26.2200  -29.0970   26.7890 O   0  0  0  0  0  0  0  0  0  0  0  0
  -24.7340  -30.5980   29.1170 H   0  0  0  0  0  0  0  0  0  0  0  0
  -23.9400  -28.2220   31.6600 C   0  0  0  0  0  0  0  0  0  0  0  0
  -25.0150  -28.5160   29.3290 C   0  0  0  0  0  3  0  0  0  0  0  0
  -23.8230  -27.6940   28.7870 C   0  0  0  0  0  2  0  0  0  0  0  0
  -22.5290  -27.9100   29.5820 C   0  0  0  0  0  2  0  0  0  0  0  0
  -22.7330  -27.5280   31.0500 C   0  0  0  0  0  2  0  0  0  0  0  0
  -25.0050  -28.6990   30.8490 C   0  0  0  0  0  0  0  0  0  0  0  0
  -26.0840  -29.3700   31.4640 C   0  0  0  0  0  3  0  0  0  0  0  0
  -26.1130  -29.5620   32.8580 C   0  0  0  0  0  3  0  0  0  0  0  0
  -25.0660  -29.0690   33.6560 C   0  0  0  0  0  3  0  0  0  0  0  0
  -23.9850  -28.4000   33.0590 C   0  0  0  0  0  3  0  0  0  0  0  0
  -29.3180  -32.1340   25.6280 C   0  0  0  0  0  3  0  0  0  0  0  0
  -29.9510  -30.8460   24.9680 C   0  0  1  0  0  0  0  0  0  0  0  0
  -30.2280  -29.7050   25.9750 C   0  0  0  0  0  1  0  0  0  0  0  0
  -29.0260  -30.2930   23.8550 C   0  0  0  0  0  1  0  0  0  0  0  0
  -31.2930  -31.2160   24.2910 C   0  0  0  0  0  1  0  0  0  0  0  0
  -30.3040  -32.8280   26.4650 N   0  0  0  0  0  0  0  0  0  0  0  0
  -30.4640  -34.1570   26.5070 C   0  0  0  0  0  0  0  0  0  0  0  0
  -29.8370  -34.9320   25.7770 O   0  0  0  0  0  0  0  0  0  0  0  0
  -30.8130  -32.2610   27.1290 H   0  0  0  0  0  0  0  0  0  0  0  0
  -30.7400  -35.2390   28.7630 C   0  0  0  0  0  1  0  0  0  0  0  0
  -31.4820  -34.7180   27.5210 C   0  0  0  0  0  3  0  0  0  0  0  0
  -33.2790  -35.3200   25.9580 C   0  0  0  0  0  1  0  0  0  0  0  0
  -32.3320  -35.7930   26.9650 N   0  0  0  0  0  0  0  0  0  0  0  0
  -32.8550  -36.2610   27.7010 H   0  0  0  0  0  0  0  0  0  0  0  0
  -28.7330  -26.0710   25.1150 C   0  0  0  0  0  2  0  0  0  0  0  0
  -28.7010  -26.6080   23.7970 O   0  0  0  0  0  0  0  0  0  0  0  0
  -29.9520  -26.4530   23.1390 C   0  0  0  0  0  2  0  0  0  0  0  0
  -30.0170  -27.3730   21.9150 C   0  0  0  0  0  2  0  0  0  0  0  0
  -29.3290  -26.7730   20.8250 O   0  0  0  0  0  0  0  0  0  0  0  0
  -29.4930  -27.4990   19.6130 C   0  0  0  0  0  2  0  0  0  0  0  0
  -28.7210  -26.8140   18.4780 C   0  0  0  0  0  2  0  0  0  0  0  0
  -27.3200  -27.0600   18.5680 O   0  0  0  0  0  0  0  0  0  0  0  0
  -26.6030  -26.3850   17.5370 C   0  0  0  0  0  2  0  0  0  0  0  0
  -25.0930  -26.6420   17.6410 C   0  0  0  0  0  2  0  0  0  0  0  0
  -24.4140  -25.5600   17.0170 O   0  0  0  0  0  0  0  0  0  0  0  0
  -23.0000  -25.6270   17.1370 C   0  0  0  0  0  2  0  0  0  0  0  0
  -22.4010  -24.3640   16.4980 C   0  0  0  0  0  2  0  0  0  0  0  0
  -20.9920  -24.2970   16.6960 O   0  0  0  0  0  0  0  0  0  0  0  0
  -20.1560  -24.7240   15.7320 C   0  0  0  0  0  0  0  0  0  0  0  0
  -17.7400  -24.9410   15.1810 C   0  0  0  0  0  2  0  0  0  0  0  0
  -17.1610  -26.2810   15.6630 C   0  0  0  0  0  2  0  0  0  0  0  0
  -16.6940  -26.1750   17.1250 C   0  0  0  0  0  2  0  0  0  0  0  0
  -17.7630  -25.5460   18.0580 C   0  0  0  0  0  3  0  0  0  0  0  0
  -18.3410  -24.2470   17.4560 C   0  0  0  0  0  2  0  0  0  0  0  0
  -18.8160  -24.5530   16.0980 N   0  0  0  0  0  0  0  0  0  0  0  0
  -20.5440  -25.1820   14.6550 O   0  0  0  0  0  0  0  0  0  0  0  0
  -17.6260  -25.8810   20.6060 C   0  0  0  0  0  0  0  0  0  0  0  0
  -16.7490  -25.4110   21.5450 C   0  0  0  0  0  0  0  0  0  0  0  0
  -15.8260  -24.5760   20.8420 C   0  0  0  0  0  0  0  0  0  0  0  0
  -17.2260  -25.3300   19.3990 N   0  0  0  0  0  0  0  0  0  0  0  0
  -16.1630  -24.4970   19.5610 N   0  0  0  0  0  0  0  0  0  0  0  0
  -14.6100  -23.8930   21.3010 C   0  0  0  0  0  0  0  0  0  0  0  0
  -14.4300  -22.5040   21.1150 C   0  0  0  0  0  3  0  0  0  0  0  0
  -13.2620  -21.8640   21.5850 C   0  0  0  0  0  3  0  0  0  0  0  0
  -12.2600  -22.6140   22.2470 C   0  0  0  0  0  0  0  0  0  0  0  0
  -12.4350  -23.9990   22.4090 C   0  0  0  0  0  3  0  0  0  0  0  0
  -13.5960  -24.6340   21.9380 C   0  0  0  0  0  3  0  0  0  0  0  0
  -11.0790  -22.0810   22.7050 O   0  0  0  0  0  0  0  0  0  0  0  0
  -10.9860  -20.7740   23.1120 C   0  0  0  0  0  0  0  0  0  0  0  0
  -11.8130  -20.2530   24.1310 C   0  0  0  0  0  3  0  0  0  0  0  0
  -11.6400  -18.9250   24.5680 C   0  0  0  0  0  3  0  0  0  0  0  0
  -10.6380  -18.1190   23.9950 C   0  0  0  0  0  0  0  0  0  0  0  0
   -9.8090  -18.6380   22.9860 C   0  0  0  0  0  3  0  0  0  0  0  0
   -9.9810  -19.9630   22.5470 C   0  0  0  0  0  0  0  0  0  0  0  0
   -9.1660  -20.4670   21.5870 F   0  0  0  0  0  0  0  0  0  0  0  0
  -10.4640  -16.8470   24.4210 F   0  0  0  0  0  0  0  0  0  0  0  0
  -16.7070  -25.7830   22.9980 C   0  0  0  0  0  0  0  0  0  0  0  0
  -16.3040  -24.8540   23.8560 N   0  0  0  0  0  0  0  0  0  0  0  0
  -17.0800  -26.8900   23.3870 O   0  0  0  0  0  0  0  0  0  0  0  0
  -16.0160  -23.9410   23.5350 H   0  0  0  0  0  0  0  0  0  0  0  0
  -16.2840  -25.0600   24.8450 H   0  0  0  0  0  0  0  0  0  0  0  0
  -18.7150  -26.7460   20.6650 N   0  0  0  0  0  0  0  0  0  0  0  0
  -19.0120  -27.2050   21.5170 H   0  0  0  0  0  0  0  0  0  0  0  0
  -19.2490  -27.0310   19.8540 H   0  0  0  0  0  0  0  0  0  0  0  0
  1  3  2  0
  2  1  1  0
  2  5  1  0
  4  2  1  0
  6  5  1  0
  7  6  1  0
  8  7  1  0
  9  8  1  0
 10  9  1  0
 11 12  1  0
 11 10  1  0
 12 14  1  0
 13 24  2  0
 14 19  2  0
 14 20  1  0
 15 25  1  0
 16 22  1  0
 17 23  1  0
 18 17  1  0
 18 16  2  0
 19 18  1  0
 20 21  2  0
 21 16  1  0
 22 15  1  0
 23 13  1  0
 23 15  1  0
 25 26  1  0
 26 28  1  0
 27 25  2  0
 29 38  1  0
 30 26  1  0
 30 34  1  0
 31 30  1  0
 31 32  1  0
 32 33  1  0
 33 29  1  0
 34 35  1  0
 34 29  2  0
 35 36  2  0
 36 37  1  0
 38 37  2  0
 39 44  1  0
 39 13  1  0
 40 39  1  0
 40 41  1  1
 42 40  1  0
 43 40  1  0
 44 45  1  0
 44 47  1  0
 45 49  1  0
 46 45  2  0
 49 48  1  0
 50 51  1  0
 51 49  1  0
 51 52  1  0
 53  1  1  0
 54 53  1  0
 55 54  1  0
 56 55  1  0
 57 56  1  0
 58 57  1  0
 59 60  1  0
 59 58  1  0
 61 62  1  0
 61 60  1  0
 63 64  1  0
 63 62  1  0
 65 66  1  0
 65 64  1  0
 67 73  1  0
 67 66  1  0
 68 69  1  0
 68 73  1  0
 69 70  1  0
 71 70  1  0
 71 78  1  0
 72 71  1  0
 73 72  1  0
 74 67  2  0
 75100  1  0
 75 76  2  0
 76 95  1  0
 77 80  1  0
 77 76  1  0
 78 79  1  0
 78 75  1  0
 79 77  2  0
 80 85  1  0
 81 80  2  0
 81 82  1  0
 82 83  2  0
 83 84  1  0
 83 86  1  0
 85 84  2  0
 86 87  1  0
 87 88  1  0
 88 89  2  0
 90 94  1  0
 90 89  1  0
 91 90  2  0
 92 91  1  0
 92 87  2  0
 93 92  1  0
 95 97  2  0
 95 96  1  0
 96 99  1  0
 98 96  1  0
100101  1  0
102100  1  0
M  ISO  4  11 101  12 101  66 100  67 100
M  END
>  <TORSDO>  (26) 
F 37

>  <SCORE>  (26) 
-4.123

>  <name>  (26) 
29

>  <ligand_id>  (26) 
29

>  <original_smiles>  (26) 
[H]c1c([H])c([H])c2c(c1[H])C([H])([H])C([H])([H])C([H])([H])C2([H])N([H])C(=O)C1([H])N(C(=O)C([H])(N([H])C(=O)C([H])(N([H])C([H])([H])[H])C([H])([H])[H])C(C([H])([H])[H])(C([H])([H])[H])C([H])([H])[H])C([H])([H])c2c([H])c(OC([H])([H])C([H])([H])C([H])([H])C([H])([H])C([H])([H])C([H])([H])C([H])([H])N([H])C(=O)C([H])([H])OC([H])([H])C([H])([H])OC([H])([H])C([H])([H])OC([H])([H])C([H])([H])OC([H])([H])C([H])([H])OC(=O)N3C([H])([H])C([H])([H])C([H])([H])C([H])(n4nc(-c5c([H])c([H])c(Oc6c([H])c([H])c(F)c([H])c6F)c([H])c5[H])c(C(=O)N([H])[H])c4N([H])[H])C3([H])[H])c([H])c([H])c2C1([H])[H]

>  <smiles>  (26) 
[H]c1c([H])c([H])c2c(c1[H])C([H])([H])C([H])([H])C([H])([H])C2([H])N([H])C(=O)C1([H])N(C(=O)C([H])(N([H])C(=O)C([H])(N([H])C([H])([H])[H])C([H])([H])[H])C(C([H])([H])[H])(C([H])([H])[H])C([H])([H])[H])C([H])([H])c2c([H])c(OC([H])([H])C([H])([H])C([H])([H])C([H])([H])C([H])([H])C([H])([H])C([H])([H])N([H])C(=O)C([H])([H])OC([H])([H])C([H])([H])OC([H])([H])C([H])([H])OC([H])([H])C([H])([H])OC([H])([H])C([H])([H])OC(=O)N3C([H])([H])C([H])([H])C([H])([H])C([H])(n4nc(-c5c([H])c([H])c(Oc6c([H])c([H])c(F)c([H])c6F)c([H])c5[H])c(C(=O)N([H])[H])c4N([H])[H])C3([H])[H])c([H])c([H])c2C1([H])[H]

$$$$
30:0:0
     RDKit          3D

116123  0  0  1  0  0  0  0  0999 V2000
  -29.4740  -16.5640   17.8860 C   0  0  0  0  0  2  0  0  0  0  0  0
  -29.1650  -15.1250   18.3450 C   0  0  0  0  0  2  0  0  0  0  0  0
  -30.3030  -14.4830   18.9190 O   0  0  0  0  0  0  0  0  0  0  0  0
  -30.5900  -13.2250   18.3030 C   0  0  0  0  0  2  0  0  0  0  0  0
  -32.0670  -12.8200   18.4870 C   0  0  0  0  0  2  0  0  0  0  0  0
  -32.9090  -13.4020   17.4870 O   0  0  0  0  0  0  0  0  0  0  0  0
  -34.2240  -12.8510   17.5200 C   0  0  0  0  0  2  0  0  0  0  0  0
  -34.9890  -12.9890   16.1890 C   0  0  0  0  0  2  0  0  0  0  0  0
  -35.9660  -14.0300   16.2370 O   0  0  0  0  0  0  0  0  0  0  0  0
  -37.1790  -13.7090   15.5590 C   0  0  0  0  0  2  0  0  0  0  0  0
  -38.0280  -14.9380   15.1570 C   0  0  0  0  0  2  0  0  0  0  0  0
  -38.5840  -15.6500   16.2680 O   0  0  0  0  0  0  0  0  0  0  0  0
  -40.0090  -15.7380   16.2520 C   0  0  0  0  0  2  0  0  0  0  0  0
  -40.5650  -17.1120   16.6950 C   0  0  0  0  0  2  0  0  0  0  0  0
  -39.9160  -17.6210   17.8600 O   0  0  0  0  0  0  0  0  0  0  0  0
  -40.8130  -18.0700   18.8820 C   0  0  0  0  0  2  0  0  0  0  0  0
  -40.8780  -19.6050   18.9920 C   0  0  0  0  0  2  0  0  0  0  0  0
  -41.9830  -20.1250   18.2520 O   0  0  0  0  0  0  0  0  0  0  0  0
  -42.4250  -21.4130   18.6860 C   0  0  0  0  0  2  0  0  0  0  0  0
  -42.1500  -22.5130   17.6350 C   0  0  0  0  0  2  0  0  0  0  0  0
  -41.3030  -22.1570   15.2850 C   0  0  0  0  0  0  0  0  0  0  0  0
  -39.0800  -21.6270   14.3500 C   0  0  0  0  0  2  0  0  0  0  0  0
  -38.0890  -22.7960   14.4780 C   0  0  0  0  0  2  0  0  0  0  0  0
  -37.4260  -22.8040   15.8670 C   0  0  0  0  0  2  0  0  0  0  0  0
  -38.4300  -22.6760   17.0350 C   0  0  0  0  0  3  0  0  0  0  0  0
  -39.3380  -21.4780   16.7370 C   0  0  0  0  0  2  0  0  0  0  0  0
  -40.0380  -21.6970   15.4640 N   0  0  0  0  0  0  0  0  0  0  0  0
  -41.7270  -22.5290   14.1890 O   0  0  0  0  0  0  0  0  0  0  0  0
  -42.1870  -21.9620   16.2760 N   0  0  0  0  0  0  0  0  0  0  0  0
  -43.1320  -21.9270   15.9210 H   0  0  0  0  0  0  0  0  0  0  0  0
  -38.1620  -22.9530   19.5870 C   0  0  0  0  0  0  0  0  0  0  0  0
  -37.1550  -22.6070   20.4450 C   0  0  0  0  0  0  0  0  0  0  0  0
  -36.1620  -21.9570   19.6490 C   0  0  0  0  0  0  0  0  0  0  0  0
  -37.7620  -22.5230   18.3320 N   0  0  0  0  0  0  0  0  0  0  0  0
  -36.5770  -21.8690   18.3950 N   0  0  0  0  0  0  0  0  0  0  0  0
  -34.8180  -21.4810   19.9950 C   0  0  0  0  0  0  0  0  0  0  0  0
  -34.3260  -20.2510   19.5090 C   0  0  0  0  0  3  0  0  0  0  0  0
  -33.0340  -19.8070   19.8620 C   0  0  0  0  0  3  0  0  0  0  0  0
  -32.2200  -20.5950   20.7120 C   0  0  0  0  0  0  0  0  0  0  0  0
  -32.7050  -21.8290   21.1770 C   0  0  0  0  0  3  0  0  0  0  0  0
  -33.9920  -22.2670   20.8270 C   0  0  0  0  0  3  0  0  0  0  0  0
  -30.9430  -20.2570   21.0870 O   0  0  0  0  0  0  0  0  0  0  0  0
  -30.5440  -18.9490   21.1860 C   0  0  0  0  0  0  0  0  0  0  0  0
  -31.4300  -17.9250   21.5860 C   0  0  0  0  0  3  0  0  0  0  0  0
  -30.9560  -16.6070   21.7480 C   0  0  0  0  0  3  0  0  0  0  0  0
  -29.6000  -16.3130   21.5110 C   0  0  0  0  0  0  0  0  0  0  0  0
  -28.7160  -17.3300   21.1140 C   0  0  0  0  0  3  0  0  0  0  0  0
  -29.1860  -18.6470   20.9600 C   0  0  0  0  0  0  0  0  0  0  0  0
  -28.3250  -19.6310   20.6040 F   0  0  0  0  0  0  0  0  0  0  0  0
  -29.1420  -15.0480   21.6670 F   0  0  0  0  0  0  0  0  0  0  0  0
  -37.0610  -22.9450   21.9040 C   0  0  0  0  0  0  0  0  0  0  0  0
  -36.3760  -22.1140   22.6790 N   0  0  0  0  0  0  0  0  0  0  0  0
  -37.6320  -23.9280   22.3730 O   0  0  0  0  0  0  0  0  0  0  0  0
  -35.9160  -21.2990   22.2970 H   0  0  0  0  0  0  0  0  0  0  0  0
  -36.3030  -22.2980   23.6690 H   0  0  0  0  0  0  0  0  0  0  0  0
  -39.3710  -23.6210   19.7610 N   0  0  0  0  0  0  0  0  0  0  0  0
  -39.6180  -24.0490   20.6470 H   0  0  0  0  0  0  0  0  0  0  0  0
  -39.9010  -23.9950   18.9850 H   0  0  0  0  0  0  0  0  0  0  0  0
  -28.3620  -17.4450   18.0130 O   0  0  0  0  0  0  0  0  0  0  0  0
  -28.7620  -18.8010   17.8130 C   0  0  0  0  0  2  0  0  0  0  0  0
  -27.6220  -19.6450   17.2340 C   0  0  0  0  0  2  0  0  0  0  0  0
  -26.6690  -19.9350   18.2450 O   0  0  0  0  0  0  0  0  0  0  0  0
  -26.8910  -21.1980   18.8590 C   0  0  0  0  0  2  0  0  0  0  0  0
  -25.6250  -22.0510   18.7320 C   0  0  0  0  0  2  0  0  0  0  0  0
  -25.8830  -23.0940   17.8010 O   0  0  0  0  0  0  0  0  0  0  0  0
  -24.7440  -23.8810   17.4970 C   0  0  0  0  0  2  0  0  0  0  0  0
  -25.1370  -24.9870   16.5080 C   0  0  0  0  0  2  0  0  0  0  0  0
  -25.1450  -26.2560   17.1550 O   0  0  0  0  0  0  0  0  0  0  0  0
  -26.4160  -26.8900   17.2950 C   0  0  0  0  0  2  0  0  0  0  0  0
  -26.6780  -27.3480   18.7410 C   0  0  0  0  0  0  0  0  0  0  0  0
  -27.2920  -26.4880   19.5610 N   0  0  0  0  0  0  0  0  0  0  0  0
  -26.3520  -28.4830   19.0940 O   0  0  0  0  0  0  0  0  0  0  0  0
  -27.4380  -25.5500   19.2170 H   0  0  0  0  0  0  0  0  0  0  0  0
  -27.8490  -26.8050   20.8770 C   0  0  0  0  0  2  0  0  0  0  0  0
  -28.8280  -25.7160   21.3740 C   0  0  0  0  0  2  0  0  0  0  0  0
  -30.2000  -26.0140   21.0990 O   0  0  0  0  0  0  0  0  0  0  0  0
  -35.4560  -26.2030   16.3470 C   0  0  0  0  0  0  0  0  0  0  0  0
  -30.8880  -25.2960   20.1460 C   0  0  0  0  0  0  0  0  0  0  0  0
  -33.9730  -24.2290   16.2180 C   0  0  0  0  0  3  0  0  0  0  0  0
  -32.3760  -23.9160   18.1780 C   0  0  0  0  0  0  0  0  0  0  0  0
  -34.3310  -25.4540   18.4360 C   0  0  0  0  0  2  0  0  0  0  0  0
  -32.9320  -25.0270   18.8230 C   0  0  0  0  0  0  0  0  0  0  0  0
  -32.1890  -25.7210   19.8030 C   0  0  0  0  0  3  0  0  0  0  0  0
  -30.3640  -24.1450   19.5120 C   0  0  0  0  0  3  0  0  0  0  0  0
  -31.0880  -23.4710   18.5160 C   0  0  0  0  0  3  0  0  0  0  0  0
  -33.2270  -23.2270   17.1410 C   0  0  0  0  0  2  0  0  0  0  0  0
  -34.6030  -25.3530   16.9840 N   0  0  0  0  0  0  0  0  0  0  0  0
  -35.7500  -26.0400   15.1560 O   0  0  0  0  0  0  0  0  0  0  0  0
  -32.9940  -24.7060   15.1200 C   0  0  0  0  0  0  0  0  0  0  0  0
  -32.7790  -23.8610   14.1000 N   0  0  0  0  0  0  0  0  0  0  0  0
  -32.4320  -25.8000   15.2080 O   0  0  0  0  0  0  0  0  0  0  0  0
  -33.2850  -22.9870   14.0980 H   0  0  0  0  0  0  0  0  0  0  0  0
  -31.5040  -22.3890   11.0580 C   0  0  0  0  0  0  0  0  0  0  0  0
  -31.8730  -24.0840   12.9730 C   0  0  0  0  0  3  0  0  0  0  0  0
  -30.4060  -23.8000   13.3730 C   0  0  0  0  0  2  0  0  0  0  0  0
  -29.9660  -22.3630   13.0710 C   0  0  0  0  0  2  0  0  0  0  0  0
  -30.1130  -22.0600   11.5770 C   0  0  0  0  0  2  0  0  0  0  0  0
  -32.3370  -23.3270   11.7240 C   0  0  0  0  0  0  0  0  0  0  0  0
  -33.6340  -23.5680   11.2200 C   0  0  0  0  0  3  0  0  0  0  0  0
  -34.1000  -22.8920   10.0760 C   0  0  0  0  0  3  0  0  0  0  0  0
  -33.2640  -21.9770    9.4120 C   0  0  0  0  0  3  0  0  0  0  0  0
  -31.9690  -21.7320    9.9010 C   0  0  0  0  0  3  0  0  0  0  0  0
  -36.1190  -27.4050   17.0910 C   0  0  0  0  0  3  0  0  0  0  0  0
  -35.3770  -28.7760   16.8440 C   0  0  1  0  0  0  0  0  0  0  0  0
  -35.1230  -29.0850   15.3510 C   0  0  0  0  0  1  0  0  0  0  0  0
  -34.0110  -28.7960   17.5690 C   0  0  0  0  0  1  0  0  0  0  0  0
  -36.2060  -29.9370   17.4410 C   0  0  0  0  0  1  0  0  0  0  0  0
  -37.5170  -27.4830   16.6460 N   0  0  0  0  0  0  0  0  0  0  0  0
  -38.5640  -27.0300   17.3470 C   0  0  0  0  0  0  0  0  0  0  0  0
  -38.4550  -26.5630   18.4850 O   0  0  0  0  0  0  0  0  0  0  0  0
  -37.6760  -27.8090   15.7030 H   0  0  0  0  0  0  0  0  0  0  0  0
  -40.3510  -25.7220   16.1610 C   0  0  0  0  0  1  0  0  0  0  0  0
  -39.9520  -27.1110   16.6850 C   0  0  0  0  0  3  0  0  0  0  0  0
  -40.8420  -29.0360   17.9210 C   0  0  0  0  0  1  0  0  0  0  0  0
  -41.0060  -27.6240   17.5860 N   0  0  0  0  0  0  0  0  0  0  0  0
  -41.9270  -27.4990   17.1740 H   0  0  0  0  0  0  0  0  0  0  0  0
  1 59  1  0
  1  2  1  0
  2  3  1  0
  4  5  1  0
  4  3  1  0
  6  7  1  0
  6  5  1  0
  8  9  1  0
  8  7  1  0
 10  9  1  0
 11 10  1  0
 11 12  1  0
 13 12  1  0
 13 14  1  0
 14 15  1  0
 15 16  1  0
 16 17  1  0
 18 19  1  0
 18 17  1  0
 20 19  1  0
 21 27  1  0
 21 29  1  0
 22 23  1  0
 22 27  1  0
 23 24  1  0
 25 24  1  0
 25 34  1  0
 26 25  1  0
 27 26  1  0
 28 21  2  0
 29 20  1  0
 30 29  1  0
 31 56  1  0
 31 32  2  0
 32 51  1  0
 33 36  1  0
 33 32  1  0
 34 35  1  0
 34 31  1  0
 35 33  2  0
 36 41  1  0
 37 38  1  0
 37 36  2  0
 38 39  2  0
 39 42  1  0
 39 40  1  0
 41 40  2  0
 42 43  1  0
 43 44  1  0
 44 45  2  0
 46 50  1  0
 46 45  1  0
 47 46  2  0
 48 47  1  0
 48 43  2  0
 49 48  1  0
 51 53  2  0
 51 52  1  0
 52 55  1  0
 54 52  1  0
 56 57  1  0
 58 56  1  0
 60 59  1  0
 61 60  1  0
 61 62  1  0
 62 63  1  0
 64 63  1  0
 65 64  1  0
 66 65  1  0
 67 68  1  0
 67 66  1  0
 68 69  1  0
 69 70  1  0
 70 72  2  0
 70 71  1  0
 71 74  1  0
 73 71  1  0
 74 75  1  0
 76 75  1  0
 77 87  1  0
 78 76  1  0
 79 89  1  0
 79 87  1  0
 79 86  1  0
 80 85  2  0
 80 82  1  0
 81 82  1  0
 82 83  2  0
 83 78  1  0
 84 78  2  0
 85 84  1  0
 86 80  1  0
 87 81  1  0
 88 77  2  0
 89 91  2  0
 90 89  1  0
 92 90  1  0
 93 97  1  0
 93 98  1  0
 94 95  1  0
 94 90  1  0
 96 95  1  0
 97 96  1  0
 98 94  1  0
 99 98  2  0
100 99  1  0
101102  1  0
101100  2  0
102 93  2  0
103 77  1  0
104103  1  0
104107  1  1
104106  1  0
105104  1  0
108103  1  0
108109  1  0
109110  2  0
111108  1  0
113112  1  0
113109  1  0
113115  1  0
115114  1  0
116115  1  0
M  ISO  4  21 100  29 100  75 101  76 101
M  END
>  <TORSDO>  (27) 
F 49

>  <SCORE>  (27) 
-0.563

>  <name>  (27) 
30

>  <ligand_id>  (27) 
30

>  <original_smiles>  (27) 
[H]c1c([H])c([H])c2c(c1[H])C([H])([H])C([H])([H])C([H])([H])C2([H])N([H])C(=O)C1([H])N(C(=O)C([H])(N([H])C(=O)C([H])(N([H])C([H])([H])[H])C([H])([H])[H])C(C([H])([H])[H])(C([H])([H])[H])C([H])([H])[H])C([H])([H])c2c([H])c(OC([H])([H])C([H])([H])N([H])C(=O)C([H])([H])OC([H])([H])C([H])([H])OC([H])([H])C([H])([H])OC([H])([H])C([H])([H])OC([H])([H])C([H])([H])OC([H])([H])C([H])([H])OC([H])([H])C([H])([H])OC([H])([H])C([H])([H])OC([H])([H])C([H])([H])OC([H])([H])C([H])([H])OC([H])([H])C([H])([H])N([H])C(=O)N3C([H])([H])C([H])([H])C([H])([H])C([H])(n4nc(-c5c([H])c([H])c(Oc6c([H])c([H])c(F)c([H])c6F)c([H])c5[H])c(C(=O)N([H])[H])c4N([H])[H])C3([H])[H])c([H])c([H])c2C1([H])[H]

>  <smiles>  (27) 
[H]c1c([H])c([H])c2c(c1[H])C([H])([H])C([H])([H])C([H])([H])C2([H])N([H])C(=O)C1([H])N(C(=O)C([H])(N([H])C(=O)C([H])(N([H])C([H])([H])[H])C([H])([H])[H])C(C([H])([H])[H])(C([H])([H])[H])C([H])([H])[H])C([H])([H])c2c([H])c(OC([H])([H])C([H])([H])N([H])C(=O)C([H])([H])OC([H])([H])C([H])([H])OC([H])([H])C([H])([H])OC([H])([H])C([H])([H])OC([H])([H])C([H])([H])OC([H])([H])C([H])([H])OC([H])([H])C([H])([H])OC([H])([H])C([H])([H])OC([H])([H])C([H])([H])OC([H])([H])C([H])([H])OC([H])([H])C([H])([H])N([H])C(=O)N3C([H])([H])C([H])([H])C([H])([H])C([H])(n4nc(-c5c([H])c([H])c(Oc6c([H])c([H])c(F)c([H])c6F)c([H])c5[H])c(C(=O)N([H])[H])c4N([H])[H])C3([H])[H])c([H])c([H])c2C1([H])[H]

$$$$
31:0:0
     RDKit          3D

120129  0  0  1  0  0  0  0  0999 V2000
  -26.2690  -18.2740   18.3990 C   0  0  0  0  0  0  0  0  0  0  0  0
  -25.8280  -16.9460   18.4290 N   0  0  0  0  0  0  0  0  0  0  0  0
  -26.1700  -18.8900   17.3610 O   0  0  0  0  0  0  0  0  0  0  0  0
  -25.7660  -16.5470   19.3940 H   0  0  0  0  0  0  0  0  0  0  0  0
  -26.9240  -19.1190   19.7150 C   0  0  0  0  0  3  0  0  0  0  0  0
  -28.3730  -19.6220   19.8170 O   0  0  0  0  0  0  0  0  0  0  0  0
  -29.7690  -19.2210   20.4850 C   0  0  0  0  0  1  0  0  0  0  0  0
  -31.1270  -18.6030   19.6550 C   0  0  0  0  0  2  0  0  0  0  0  0
  -32.0390  -17.4230   19.5360 O   0  0  0  0  0  0  0  0  0  0  0  0
  -32.4380  -17.0210   18.1650 C   0  0  0  0  0  2  0  0  0  0  0  0
  -31.9050  -15.6050   17.8130 C   0  0  0  0  0  2  0  0  0  0  0  0
  -30.5700  -15.7190   17.3670 O   0  0  0  0  0  0  0  0  0  0  0  0
  -29.6990  -16.4450   18.2010 C   0  0  0  0  0  2  0  0  0  0  0  0
  -28.9890  -17.5620   17.3940 C   0  0  0  0  0  2  0  0  0  0  0  0
  -29.5560  -18.3720   16.2470 O   0  0  0  0  0  0  0  0  0  0  0  0
  -29.9230  -19.8880   15.9340 C   0  0  0  0  0  2  0  0  0  0  0  0
  -30.3050  -21.3180   16.7730 C   0  0  2  0  0  0  0  0  0  0  0  0
  -31.0240  -21.9840   17.9340 O   0  0  0  0  0  0  0  0  0  0  0  0
  -32.0040  -21.5750   19.0290 C   0  0  0  0  0  1  0  0  0  0  0  0
  -33.0350  -22.3620   19.8740 C   0  0  0  0  0  2  0  0  0  0  0  0
  -33.0760  -23.7800   19.8720 O   0  0  0  0  0  0  0  0  0  0  0  0
  -32.7010  -24.3810   18.6480 C   0  0  0  0  0  2  0  0  0  0  0  0
  -33.5660  -24.0730   17.3880 C   0  0  0  0  0  2  0  0  0  0  0  0
  -33.9260  -22.6750   17.2160 O   0  0  0  0  0  0  0  0  0  0  0  0
  -33.8420  -22.1280   15.8810 C   0  0  0  0  0  2  0  0  0  0  0  0
  -34.4360  -20.6790   15.5730 C   0  0  0  0  0  2  0  0  0  0  0  0
  -33.8490  -19.4400   14.9110 O   0  0  0  0  0  0  0  0  0  0  0  0
  -34.4920  -19.0630   13.7070 C   0  0  0  0  0  0  0  0  0  0  0  0
  -34.9320  -17.7570   11.6620 C   0  0  0  0  0  2  0  0  0  0  0  0
  -33.8080  -18.0750   10.6680 C   0  0  0  0  0  2  0  0  0  0  0  0
  -32.7130  -17.0110   10.8160 C   0  0  0  0  0  2  0  0  0  0  0  0
  -32.3390  -16.7170   12.3200 C   0  0  0  0  0  3  0  0  0  0  0  0
  -33.5490  -16.6050   13.2350 C   0  0  0  0  0  2  0  0  0  0  0  0
  -34.3490  -17.8160   13.0170 N   0  0  0  0  0  0  0  0  0  0  0  0
  -35.2240  -19.8880   13.2160 O   0  0  0  0  0  0  0  0  0  0  0  0
  -29.9750  -15.1020   12.9800 C   0  0  0  0  0  0  0  0  0  0  0  0
  -29.4980  -13.7360   12.2100 C   0  0  0  0  0  0  0  0  0  0  0  0
  -30.7930  -13.2230   11.1940 C   0  0  0  0  0  0  0  0  0  0  0  0
  -31.5990  -15.4840   12.4230 N   0  0  0  0  0  0  0  0  0  0  0  0
  -32.0480  -14.2690   11.3270 N   0  0  0  0  0  0  0  0  0  0  0  0
  -31.0050  -11.9600   10.5720 C   0  0  0  0  0  0  0  0  0  0  0  0
  -32.1700  -11.1860   10.8080 C   0  0  0  0  0  3  0  0  0  0  0  0
  -32.2760   -9.9240   10.1960 C   0  0  0  0  0  3  0  0  0  0  0  0
  -31.2240   -9.4750    9.3580 C   0  0  0  0  0  0  0  0  0  0  0  0
  -30.0840  -10.2550    9.1620 C   0  0  0  0  0  3  0  0  0  0  0  0
  -29.9650  -11.5040    9.7690 C   0  0  0  0  0  3  0  0  0  0  0  0
  -31.2510   -8.3130    8.6410 O   0  0  0  0  0  0  0  0  0  0  0  0
  -31.9770   -7.2310    9.0710 C   0  0  0  0  0  0  0  0  0  0  0  0
  -31.7780   -6.6490   10.3370 C   0  0  0  0  0  3  0  0  0  0  0  0
  -32.4860   -5.4850   10.6830 C   0  0  0  0  0  3  0  0  0  0  0  0
  -33.3840   -4.9050    9.7670 C   0  0  0  0  0  0  0  0  0  0  0  0
  -33.5810   -5.4970    8.5060 C   0  0  0  0  0  3  0  0  0  0  0  0
  -32.8800   -6.6580    8.1590 C   0  0  0  0  0  0  0  0  0  0  0  0
  -33.0550   -7.2140    6.9360 F   0  0  0  0  0  0  0  0  0  0  0  0
  -34.0530   -3.7800   10.0990 F   0  0  0  0  0  0  0  0  0  0  0  0
  -28.2560  -13.0040   12.4820 C   0  0  0  0  0  0  0  0  0  0  0  0
  -28.3700  -11.6820   12.5950 N   0  0  0  0  0  0  0  0  0  0  0  0
  -27.2360  -13.6250   12.7450 O   0  0  0  0  0  0  0  0  0  0  0  0
  -29.2700  -11.2440   12.4610 H   0  0  0  0  0  0  0  0  0  0  0  0
  -27.6100  -11.1220   12.9400 H   0  0  0  0  0  0  0  0  0  0  0  0
  -29.2590  -15.9320   13.6590 N   0  0  0  0  0  0  0  0  0  0  0  0
  -28.3660  -15.6280   14.0530 H   0  0  0  0  0  0  0  0  0  0  0  0
  -29.6720  -16.7810   14.0190 H   0  0  0  0  0  0  0  0  0  0  0  0
  -25.7010  -15.7870   17.4070 C   0  0  0  0  0  2  0  0  0  0  0  0
  -25.1840  -14.1640   17.6620 C   0  0  0  0  0  2  0  0  0  0  0  0
  -25.9560  -12.7540   17.8490 O   0  0  0  0  0  1  0  0  0  0  0  0
  -28.7360  -12.0990   19.4180 C   0  0  0  0  0  1  0  0  0  0  0  0
  -29.2790  -12.9800   20.7590 C   0  0  0  0  0  2  0  0  0  0  0  0
  -29.2690  -14.4590   20.6590 O   0  0  0  0  0  0  0  0  0  0  0  0
  -28.9670  -15.4210   21.7070 C   0  0  0  0  0  2  0  0  0  0  0  0
  -28.8490  -16.9880   21.3280 C   0  0  0  0  0  2  0  0  0  0  0  0
  -27.7330  -17.5930   20.5880 O   0  0  0  0  0  0  0  0  0  0  0  0
  -27.4080  -18.9820   20.9560 C   0  0  0  0  0  2  0  0  0  0  0  0
  -26.9820  -20.0950   19.8870 C   0  0  0  0  0  3  0  0  0  0  0  0
  -28.1530  -20.7580   19.0340 C   0  0  0  0  0  3  0  0  0  0  0  0
  -28.3480  -22.0880   18.4450 O   0  0  0  0  0  0  0  0  0  0  0  0
  -29.7280  -22.4240   17.9910 C   0  0  2  0  0  0  0  0  0  0  0  0
  -30.0760  -23.1730   16.6160 C   0  0  0  0  0  3  0  0  0  0  0  0
  -31.5730  -23.7940   16.2600 C   0  0  0  0  0  2  0  0  0  0  0  0
  -32.1000  -24.7390   15.1610 O   0  0  0  0  0  0  0  0  0  0  0  0
  -33.2090  -31.0890   18.3500 C   0  0  0  0  0  0  0  0  0  0  0  0
  -31.6950  -26.0590   15.3490 C   0  0  0  0  0  0  0  0  0  0  0  0
  -30.9740  -30.0710   18.3390 C   0  0  0  0  0  3  0  0  0  0  0  0
  -30.5500  -28.3060   16.5640 C   0  0  0  0  0  0  0  0  0  0  0  0
  -32.5740  -29.7220   16.3590 C   0  0  0  0  0  2  0  0  0  0  0  0
  -31.8710  -28.3850   16.1050 C   0  0  0  0  0  0  0  0  0  0  0  0
  -32.4840  -27.2460   15.5000 C   0  0  0  0  0  3  0  0  0  0  0  0
  -30.3270  -26.1400   15.5770 C   0  0  0  0  0  3  0  0  0  0  0  0
  -29.7760  -27.1880   16.2900 C   0  0  0  0  0  3  0  0  0  0  0  0
  -29.9690  -29.4640   17.3400 C   0  0  0  0  0  2  0  0  0  0  0  0
  -32.3060  -30.3050   17.7040 N   0  0  0  0  0  0  0  0  0  0  0  0
  -32.9370  -31.6090   19.4410 O   0  0  0  0  0  0  0  0  0  0  0  0
  -31.0510  -29.1910   19.6110 C   0  0  0  0  0  0  0  0  0  0  0  0
  -30.0670  -29.3450   20.5140 N   0  0  0  0  0  0  0  0  0  0  0  0
  -31.9730  -28.3840   19.7660 O   0  0  0  0  0  0  0  0  0  0  0  0
  -29.3520  -30.0320   20.3220 H   0  0  0  0  0  0  0  0  0  0  0  0
  -28.0370  -29.0140   23.4870 C   0  0  0  0  0  0  0  0  0  0  0  0
  -29.9380  -28.6220   21.7790 C   0  0  0  0  0  3  0  0  0  0  0  0
  -29.3160  -27.2230   21.5610 C   0  0  0  0  0  2  0  0  0  0  0  0
  -27.7940  -27.2080   21.7300 C   0  0  0  0  0  2  0  0  0  0  0  0
  -27.4040  -27.6790   23.1350 C   0  0  0  0  0  2  0  0  0  0  0  0
  -29.2190  -29.4640   22.8400 C   0  0  0  0  0  0  0  0  0  0  0  0
  -29.7470  -30.7280   23.1810 C   0  0  0  0  0  3  0  0  0  0  0  0
  -29.1170  -31.5340   24.1480 C   0  0  0  0  0  3  0  0  0  0  0  0
  -27.9550  -31.0780   24.7950 C   0  0  0  0  0  3  0  0  0  0  0  0
  -27.4200  -29.8190   24.4670 C   0  0  0  0  0  3  0  0  0  0  0  0
  -34.6140  -31.3840   17.7450 C   0  0  0  0  0  3  0  0  0  0  0  0
  -34.9120  -32.7960   18.0100 N   0  0  0  0  0  0  0  0  0  0  0  0
  -34.7500  -33.7850   17.1230 C   0  0  0  0  0  0  0  0  0  0  0  0
  -34.3920  -33.5900   15.9580 O   0  0  0  0  0  0  0  0  0  0  0  0
  -35.1550  -33.0370   18.9580 H   0  0  0  0  0  0  0  0  0  0  0  0
  -33.7000  -35.9180   17.9420 C   0  0  0  0  0  1  0  0  0  0  0  0
  -35.0290  -35.2210   17.6050 C   0  0  0  0  0  3  0  0  0  0  0  0
  -37.1620  -35.5800   16.4470 C   0  0  0  0  0  1  0  0  0  0  0  0
  -35.7850  -36.0330   16.6270 N   0  0  0  0  0  0  0  0  0  0  0  0
  -35.8050  -37.0100   16.9060 H   0  0  0  0  0  0  0  0  0  0  0  0
  -35.7400  -30.4510   18.3310 C   0  0  1  0  0  0  0  0  0  0  0  0
  -35.7730  -30.4140   19.8770 C   0  0  0  0  0  1  0  0  0  0  0  0
  -35.5630  -28.9970   17.8290 C   0  0  0  0  0  1  0  0  0  0  0  0
  -37.1240  -30.9280   17.8330 C   0  0  0  0  0  1  0  0  0  0  0  0
  1  2  1  0
  1  5  1  0
  2  4  1  0
  3  1  2  0
  5 73  1  0
  6 74  1  0
  8  7  1  0
  9  8  1  0
 10  9  1  0
 11 10  1  0
 12 11  1  0
 12 13  1  0
 14 13  1  0
 15 14  1  0
 16 15  1  0
 17 16  1  6
 17 18  1  0
 17 77  1  0
 18 77  1  0
 19 20  1  0
 21 20  1  0
 22 21  1  0
 23 22  1  0
 24 23  1  0
 25 24  1  0
 26 25  1  0
 27 26  1  0
 28 27  1  0
 29 34  1  0
 30 31  1  0
 30 29  1  0
 32 31  1  0
 32 39  1  0
 32 33  1  0
 34 33  1  0
 34 28  1  0
 35 28  2  0
 36 61  1  0
 37 56  1  0
 37 36  2  0
 38 40  2  0
 38 37  1  0
 39 36  1  0
 40 39  1  0
 41 42  1  0
 41 38  1  0
 43 42  2  0
 44 43  1  0
 45 44  2  0
 45 46  1  0
 46 41  2  0
 47 48  1  0
 47 44  1  0
 48 49  1  0
 49 50  2  0
 51 55  1  0
 51 50  1  0
 52 51  2  0
 53 52  1  0
 53 48  2  0
 54 53  1  0
 56 57  1  0
 56 58  2  0
 57 60  1  0
 59 57  1  0
 61 63  1  0
 61 62  1  0
 64 65  1  0
 64  2  1  0
 65 66  1  0
 67 68  1  0
 69 68  1  0
 69 70  1  0
 71 70  1  0
 72 73  1  0
 72 71  1  0
 74  5  1  0
 75 76  1  0
 75  6  1  0
 75 74  1  0
 77 76  1  1
 78 79  1  0
 78 17  1  0
 78 77  1  0
 80 82  1  0
 80 79  1  0
 81 92  2  0
 82 87  2  0
 82 88  1  0
 83 93  1  0
 84 90  1  0
 85 91  1  0
 86 85  1  0
 86 84  2  0
 87 86  1  0
 88 89  2  0
 89 84  1  0
 90 83  1  0
 91 83  1  0
 91 81  1  0
 93 95  2  0
 93 94  1  0
 96 94  1  0
 97106  1  0
 98 94  1  0
 98102  1  0
 99100  1  0
 99 98  1  0
100101  1  0
101 97  1  0
102103  1  0
102 97  2  0
103104  2  0
104105  1  0
106105  2  0
107108  1  0
107117  1  0
107 81  1  0
108111  1  0
109113  1  0
109108  1  0
110109  2  0
113112  1  0
114115  1  0
115116  1  0
115113  1  0
117118  1  1
119117  1  0
120117  1  0
M  ISO  4  27 100  28 100  79 101  80 101
M  END
>  <TORSDO>  (28) 
F 55

>  <SCORE>  (28) 
30.548

>  <name>  (28) 
31

>  <ligand_id>  (28) 
31

>  <original_smiles>  (28) 
[H]c1c([H])c([H])c2c(c1[H])C([H])([H])C([H])([H])C([H])([H])C2([H])N([H])C(=O)C1([H])N(C(=O)C([H])(N([H])C(=O)C([H])(N([H])C([H])([H])[H])C([H])([H])[H])C(C([H])([H])[H])(C([H])([H])[H])C([H])([H])[H])C([H])([H])c2c([H])c(OC([H])([H])C([H])([H])C([H])([H])OC([H])([H])C([H])([H])C([H])([H])OC([H])([H])C([H])([H])OC([H])([H])C([H])([H])OC([H])([H])C([H])([H])N([H])C(=O)C([H])([H])OC([H])([H])C([H])([H])OC([H])([H])C([H])([H])OC([H])([H])C([H])([H])OC([H])([H])C([H])([H])OC([H])([H])C([H])([H])OC([H])([H])C([H])([H])OC([H])([H])C([H])([H])OC(=O)N3C([H])([H])C([H])([H])C([H])([H])C([H])(n4nc(-c5c([H])c([H])c(Oc6c([H])c([H])c(F)c([H])c6F)c([H])c5[H])c(C(=O)N([H])[H])c4N([H])[H])C3([H])[H])c([H])c([H])c2C1([H])[H]

>  <smiles>  (28) 
[H]c1c([H])c([H])c2c(c1[H])C([H])([H])C([H])([H])C([H])([H])C2([H])N([H])C(=O)C1([H])N(C(=O)C([H])(N([H])C(=O)C([H])(N([H])C([H])([H])[H])C([H])([H])[H])C(C([H])([H])[H])(C([H])([H])[H])C([H])([H])[H])C([H])([H])c2c([H])c(OC([H])([H])C([H])([H])C([H])([H])OC([H])([H])C([H])([H])C([H])([H])OC([H])([H])C([H])([H])OC([H])([H])C([H])([H])OC([H])([H])C([H])([H])N([H])C(=O)C([H])([H])OC([H])([H])C([H])([H])OC([H])([H])C([H])([H])OC([H])([H])C([H])([H])OC([H])([H])C([H])([H])OC([H])([H])C([H])([H])OC([H])([H])C([H])([H])OC([H])([H])C([H])([H])OC(=O)N3C([H])([H])C([H])([H])C([H])([H])C([H])(n4nc(-c5c([H])c([H])c(Oc6c([H])c([H])c(F)c([H])c6F)c([H])c5[H])c(C(=O)N([H])[H])c4N([H])[H])C3([H])[H])c([H])c([H])c2C1([H])[H]

$$$$
33:0:0
     RDKit          3D

132134  0  0  1  0  0  0  0  0999 V2000
  -23.9230  -14.8630   13.9080 C   0  0  0  0  0  2  0  0  0  0  0  0
  -24.7210  -16.1050   14.3250 C   0  0  0  0  0  2  0  0  0  0  0  0
  -26.0120  -15.7450   14.7970 O   0  0  0  0  0  0  0  0  0  0  0  0
  -26.4510  -16.6600   15.7930 C   0  0  0  0  0  2  0  0  0  0  0  0
  -27.8810  -16.3900   16.2350 C   0  0  0  0  0  2  0  0  0  0  0  0
  -27.8670  -15.4540   17.3100 O   0  0  0  0  0  0  0  0  0  0  0  0
  -29.0970  -14.7610   17.4020 C   0  0  0  0  0  2  0  0  0  0  0  0
  -29.3850  -13.9720   18.7680 C   0  0  0  0  0  1  0  0  0  0  0  0
  -28.9000  -11.9040   19.6690 O   0  0  0  0  0  1  0  0  0  0  0  0
  -28.8580  -10.3930   19.6000 C   0  0  0  0  0  2  0  0  0  0  0  0
  -27.9590   -9.5360   18.6320 C   0  0  0  0  0  2  0  0  0  0  0  0
  -26.5640   -9.5630   18.9210 O   0  0  0  0  0  0  0  0  0  0  0  0
  -25.7080   -9.0010   17.9200 C   0  0  0  0  0  2  0  0  0  0  0  0
  -25.1170  -10.0330   16.9250 C   0  0  0  0  0  2  0  0  0  0  0  0
  -24.3720  -11.0710   17.5800 O   0  0  0  0  0  0  0  0  0  0  0  0
  -23.5110  -11.7800   16.6890 C   0  0  0  0  0  2  0  0  0  0  0  0
  -22.6690  -12.8970   17.3560 C   0  0  0  0  0  2  0  0  0  0  0  0
  -23.3410  -14.1440   17.5830 O   0  0  0  0  0  0  0  0  0  0  0  0
  -22.4900  -15.2830   17.3850 C   0  0  0  0  0  2  0  0  0  0  0  0
  -22.8040  -16.5260   18.2500 C   0  0  0  0  0  2  0  0  0  0  0  0
  -24.1540  -16.9620   18.1750 O   0  0  0  0  0  0  0  0  0  0  0  0
  -24.3670  -18.2520   18.7390 C   0  0  0  0  0  2  0  0  0  0  0  0
  -25.8690  -18.6090   18.7680 C   0  0  0  0  0  2  0  0  0  0  0  0
  -26.5940  -17.7760   19.6710 O   0  0  0  0  0  0  0  0  0  0  0  0
  -27.9740  -18.1220   19.7880 C   0  0  0  0  0  2  0  0  0  0  0  0
  -28.4240  -17.9550   21.2530 C   0  0  0  0  0  2  0  0  0  0  0  0
  -29.4270  -16.9480   21.3800 O   0  0  0  0  0  0  0  0  0  0  0  0
  -29.8840  -16.7750   22.7200 C   0  0  0  0  0  2  0  0  0  0  0  0
  -31.2100  -15.9870   22.7440 C   0  0  0  0  0  2  0  0  0  0  0  0
  -31.1710  -14.1970   21.0480 C   0  0  0  0  0  0  0  0  0  0  0  0
  -31.0060  -12.2420   19.2070 C   0  0  0  0  0  1  0  0  0  0  0  0
  -29.7050  -11.9560   17.6390 C   0  0  0  0  0 15  0  0  0  0  0  0
  -27.7210  -12.4910   17.9570 C   0  0  0  0  0 15  0  0  0  0  0  0
  -27.3100  -13.3890   19.7180 C   0  0  0  0  0  1  0  0  0  0  0  0
  -28.7100  -13.5200   21.1170 C   0  0  0  0  0  1  0  0  0  0  0  0
  -30.4360  -13.1170   20.7330 N   0  0  0  0  0  0  0  0  0  0  0  0
  -31.9450  -14.7420   20.2560 O   0  0  0  0  0  0  0  0  0  0  0  0
  -31.0220  -14.6050   22.3090 N   0  0  0  0  0  0  0  0  0  0  0  0
  -30.5290  -13.9890   22.9420 H   0  0  0  0  0  0  0  0  0  0  0  0
  -25.0970  -13.8580   20.6310 C   0  0  0  0  0  0  0  0  0  0  0  0
  -24.0780  -13.0410   20.9750 C   0  0  0  0  0  0  0  0  0  0  0  0
  -24.5780  -11.7040   20.9030 C   0  0  0  0  0  0  0  0  0  0  0  0
  -26.1080  -13.0030   20.3080 N   0  0  0  0  0  0  0  0  0  0  0  0
  -25.8630  -11.7120   20.5980 N   0  0  0  0  0  0  0  0  0  0  0  0
  -23.8860  -10.4300   21.0580 C   0  0  0  0  0  0  0  0  0  0  0  0
  -24.3540   -9.4180   21.9210 C   0  0  0  0  0  3  0  0  0  0  0  0
  -23.6290   -8.2160   22.0710 C   0  0  0  0  0  3  0  0  0  0  0  0
  -22.4290   -8.0160   21.3490 C   0  0  0  0  0  0  0  0  0  0  0  0
  -21.9840   -9.0140   20.4690 C   0  0  0  0  0  3  0  0  0  0  0  0
  -22.7060  -10.2030   20.3210 C   0  0  0  0  0  3  0  0  0  0  0  0
  -21.6620   -6.8810   21.4250 O   0  0  0  0  0  0  0  0  0  0  0  0
  -21.6820   -6.0730   22.5290 C   0  0  0  0  0  0  0  0  0  0  0  0
  -21.3990   -6.5620   23.8210 C   0  0  0  0  0  3  0  0  0  0  0  0
  -21.3660   -5.6780   24.9190 C   0  0  0  0  0  3  0  0  0  0  0  0
  -21.6030   -4.3060   24.7220 C   0  0  0  0  0  0  0  0  0  0  0  0
  -21.8790   -3.8150   23.4330 C   0  0  0  0  0  3  0  0  0  0  0  0
  -21.9180   -4.6960   22.3390 C   0  0  0  0  0  0  0  0  0  0  0  0
  -22.1690   -4.2160   21.0970 F   0  0  0  0  0  0  0  0  0  0  0  0
  -21.5580   -3.4550   25.7730 F   0  0  0  0  0  0  0  0  0  0  0  0
  -22.6870  -13.4900   21.2460 C   0  0  0  0  0  0  0  0  0  0  0  0
  -21.9830  -12.7900   22.1200 N   0  0  0  0  0  0  0  0  0  0  0  0
  -22.2420  -14.5110   20.7300 O   0  0  0  0  0  0  0  0  0  0  0  0
  -22.3870  -11.9920   22.5900 H   0  0  0  0  0  0  0  0  0  0  0  0
  -21.0450  -13.0750   22.3620 H   0  0  0  0  0  0  0  0  0  0  0  0
  -25.2310  -15.2450   20.5350 N   0  0  0  0  0  0  0  0  0  0  0  0
  -24.3950  -15.8180   20.5460 H   0  0  0  0  0  0  0  0  0  0  0  0
  -25.9980  -15.7230   20.0740 H   0  0  0  0  0  0  0  0  0  0  0  0
  -23.7750  -14.7390   12.5020 O   0  0  0  0  0  0  0  0  0  0  0  0
  -22.9210  -13.6490   12.1530 C   0  0  0  0  0  2  0  0  0  0  0  0
  -23.7160  -12.3430   12.0300 C   0  0  0  0  0  2  0  0  0  0  0  0
  -24.4280  -12.4540   10.8140 O   0  0  0  0  0  0  0  0  0  0  0  0
  -25.2230  -11.3280   10.4980 C   0  0  0  0  0  2  0  0  0  0  0  0
  -25.7490  -11.5980    9.0890 C   0  0  0  0  0  2  0  0  0  0  0  0
  -26.5590  -12.7610    9.1740 O   0  0  0  0  0  0  0  0  0  0  0  0
  -26.7600  -13.3970    7.9250 C   0  0  0  0  0  2  0  0  0  0  0  0
  -27.5220  -14.6870    8.2300 C   0  0  0  0  0  2  0  0  0  0  0  0
  -26.7650  -15.5330    9.1820 N   0  0  0  0  0  4  0  0  0  0  0  0
  -25.9250  -15.8670    8.7370 H   0  0  0  0  0  0  0  0  0  0  0  0
  -26.4860  -14.9430    9.9540 H   0  0  0  0  0  0  0  0  0  0  0  0
  -27.5470  -16.6770    9.6930 C   0  0  0  0  0  2  0  0  0  0  0  0
  -26.7520  -17.5970   10.6380 C   0  0  0  0  0  2  0  0  0  0  0  0
  -27.6670  -18.6930   11.2100 C   0  0  0  0  0  2  0  0  0  0  0  0
  -26.9780  -19.6710   12.1750 C   0  0  0  0  0  2  0  0  0  0  0  0
  -27.9970  -20.6460   12.7900 C   0  0  0  0  0  2  0  0  0  0  0  0
  -27.3920  -21.6220   13.8120 C   0  0  0  0  0  2  0  0  0  0  0  0
  -28.4830  -22.3560   14.6090 C   0  0  0  0  0  2  0  0  0  0  0  0
  -27.9290  -23.3560   15.6380 C   0  0  0  0  0  2  0  0  0  0  0  0
  -29.0420  -23.9710   16.5040 C   0  0  0  0  0  2  0  0  0  0  0  0
  -28.5340  -25.0720   17.4480 C   0  0  0  0  0  2  0  0  0  0  0  0
  -29.6720  -25.7820   18.2050 C   0  0  0  0  0  2  0  0  0  0  0  0
  -29.2180  -27.0670   18.9140 C   0  0  0  0  0  2  0  0  0  0  0  0
  -28.3920  -26.7440   20.0260 O   0  0  0  0  0  0  0  0  0  0  0  0
  -24.6110  -31.8710   23.2120 C   0  0  0  0  0  0  0  0  0  0  0  0
  -27.2350  -27.4740   20.0810 C   0  0  0  0  0  0  0  0  0  0  0  0
  -23.3970  -30.4940   21.5520 C   0  0  0  0  0  3  0  0  0  0  0  0
  -24.8440  -28.9600   20.1200 C   0  0  0  0  0  0  0  0  0  0  0  0
  -25.9220  -30.8460   21.3610 C   0  0  0  0  0  2  0  0  0  0  0  0
  -26.0010  -29.4810   20.7130 C   0  0  0  0  0  0  0  0  0  0  0  0
  -27.2020  -28.7410   20.6990 C   0  0  0  0  0  3  0  0  0  0  0  0
  -26.0640  -26.9490   19.5010 C   0  0  0  0  0  3  0  0  0  0  0  0
  -24.8670  -27.6890   19.5150 C   0  0  0  0  0  3  0  0  0  0  0  0
  -23.6040  -29.8220   20.1680 C   0  0  0  0  0  2  0  0  0  0  0  0
  -24.6610  -31.0840   22.1010 N   0  0  0  0  0  0  0  0  0  0  0  0
  -23.5310  -32.1450   23.7540 O   0  0  0  0  0  0  0  0  0  0  0  0
  -22.7380  -29.4680   22.5020 C   0  0  0  0  0  0  0  0  0  0  0  0
  -21.4110  -29.3030   22.3740 N   0  0  0  0  0  0  0  0  0  0  0  0
  -23.4160  -28.8230   23.3060 O   0  0  0  0  0  0  0  0  0  0  0  0
  -20.9260  -29.8740   21.6970 H   0  0  0  0  0  0  0  0  0  0  0  0
  -18.0260  -28.1370   22.8490 C   0  0  0  0  0  0  0  0  0  0  0  0
  -20.5850  -28.3650   23.1330 C   0  0  0  0  0  3  0  0  0  0  0  0
  -20.6760  -26.9400   22.5420 C   0  0  0  0  0  2  0  0  0  0  0  0
  -19.5740  -26.6390   21.5210 C   0  0  0  0  0  2  0  0  0  0  0  0
  -18.1920  -26.7920   22.1620 C   0  0  0  0  0  2  0  0  0  0  0  0
  -19.1510  -28.8830   23.2910 C   0  0  0  0  0  0  0  0  0  0  0  0
  -18.9450  -30.1440   23.8920 C   0  0  0  0  0  3  0  0  0  0  0  0
  -17.6450  -30.6580   24.0570 C   0  0  0  0  0  3  0  0  0  0  0  0
  -16.5340  -29.9090   23.6330 C   0  0  0  0  0  3  0  0  0  0  0  0
  -16.7260  -28.6500   23.0350 C   0  0  0  0  0  3  0  0  0  0  0  0
  -25.9020  -32.4840   23.8410 C   0  0  0  0  0  3  0  0  0  0  0  0
  -26.4460  -31.6600   25.0720 C   0  0  1  0  0  0  0  0  0  0  0  0
  -25.3730  -31.3680   26.1470 C   0  0  0  0  0  1  0  0  0  0  0  0
  -27.0300  -30.3060   24.6070 C   0  0  0  0  0  1  0  0  0  0  0  0
  -27.6030  -32.4320   25.7490 C   0  0  0  0  0  1  0  0  0  0  0  0
  -25.5890  -33.8640   24.2340 N   0  0  0  0  0  0  0  0  0  0  0  0
  -25.9030  -34.9480   23.5140 C   0  0  0  0  0  0  0  0  0  0  0  0
  -26.5590  -34.8930   22.4700 O   0  0  0  0  0  0  0  0  0  0  0  0
  -25.0060  -33.9800   25.0500 H   0  0  0  0  0  0  0  0  0  0  0  0
  -24.1480  -36.7320   23.2640 C   0  0  0  0  0  1  0  0  0  0  0  0
  -25.4110  -36.3120   24.0340 C   0  0  0  0  0  3  0  0  0  0  0  0
  -27.5570  -37.1840   24.8480 C   0  0  0  0  0  1  0  0  0  0  0  0
  -26.4310  -37.3800   23.9390 N   0  0  0  0  0  0  0  0  0  0  0  0
  -26.0200  -38.2890   24.1330 H   0  0  0  0  0  0  0  0  0  0  0  0
  1  2  1  0
  2  3  1  0
  3  4  1  0
  4  5  1  0
  5  6  1  0
  6  7  1  0
  7  8  1  0
 10  9  1  0
 11 12  1  0
 11 10  1  0
 13 12  1  0
 14 15  1  0
 14 13  1  0
 16 17  1  0
 16 15  1  0
 17 18  1  0
 19 18  1  0
 19 20  1  0
 21 20  1  0
 21 22  1  0
 22 23  1  0
 23 24  1  0
 24 25  1  0
 25 26  1  0
 26 27  1  0
 27 28  1  0
 28 29  1  0
 30 38  1  0
 31 36  1  0
 34 43  1  0
 36 30  1  0
 36 35  1  0
 37 30  2  0
 38 29  1  0
 38 39  1  0
 40 41  2  0
 41 60  1  0
 42 41  1  0
 42 45  1  0
 43 44  1  0
 43 40  1  0
 44 42  2  0
 45 46  1  0
 46 47  2  0
 48 51  1  0
 48 47  1  0
 49 48  2  0
 50 49  1  0
 50 45  2  0
 51 52  1  0
 52 53  1  0
 53 54  2  0
 55 54  1  0
 55 59  1  0
 56 55  2  0
 57 52  2  0
 57 56  1  0
 58 57  1  0
 60 61  1  0
 61 64  1  0
 61 63  1  0
 62 60  2  0
 65 66  1  0
 65 40  1  0
 67 65  1  0
 68  1  1  0
 69 68  1  0
 70 69  1  0
 71 70  1  0
 72 71  1  0
 73 74  1  0
 73 72  1  0
 75 76  1  0
 75 74  1  0
 76 77  1  0
 77 80  1  0
 77 79  1  0
 78 77  1  0
 80 81  1  0
 81 82  1  0
 82 83  1  0
 83 84  1  0
 84 85  1  0
 85 86  1  0
 86 87  1  0
 87 88  1  0
 88 89  1  0
 89 90  1  0
 90 91  1  0
 91 92  1  0
 92 94  1  0
 93104  2  0
 94 99  1  0
 95103  1  0
 95105  1  0
 96102  1  0
 96 98  1  0
 97103  1  0
 98 97  1  0
 99 98  2  0
100101  1  0
100 94  2  0
101 96  2  0
102 95  1  0
103 93  1  0
105107  2  0
106105  1  0
108106  1  0
109118  2  0
109114  1  0
110106  1  0
110114  1  0
111110  1  0
112113  1  0
112111  1  0
113109  1  0
114115  2  0
115116  1  0
117116  2  0
118117  1  0
119 93  1  0
119124  1  0
119120  1  0
120123  1  1
120121  1  0
122120  1  0
124127  1  0
125129  1  0
125124  1  0
126125  2  0
129128  1  0
131129  1  0
131132  1  0
131130  1  0
M  ISO  4  30 100  38 100  91 101  92 101
M  END
>  <TORSDO>  (29) 
F 66

>  <SCORE>  (29) 
67.078

>  <name>  (29) 
33

>  <ligand_id>  (29) 
33

>  <original_smiles>  (29) 
[H]c1c([H])c([H])c2c(c1[H])C([H])([H])C([H])([H])C([H])([H])C2([H])N([H])C(=O)C1([H])N(C(=O)C([H])(N([H])C(=O)C([H])(N([H])C([H])([H])[H])C([H])([H])[H])C(C([H])([H])[H])(C([H])([H])[H])C([H])([H])[H])C([H])([H])c2c([H])c(OC([H])([H])C([H])([H])C([H])([H])C([H])([H])C([H])([H])C([H])([H])C([H])([H])C([H])([H])C([H])([H])C([H])([H])C([H])([H])C([H])([H])[N+]([H])([H])C([H])([H])C([H])([H])OC([H])([H])C([H])([H])OC([H])([H])C([H])([H])OC([H])([H])C([H])([H])OC([H])([H])C([H])([H])OC([H])([H])C([H])([H])OC([H])([H])C([H])([H])OC([H])([H])C([H])([H])OC([H])([H])C([H])([H])OC([H])([H])C([H])([H])OC([H])([H])C([H])([H])OC([H])([H])C([H])([H])OC([H])([H])C([H])([H])N([H])C(=O)N3C([H])([H])C([H])([H])C([H])([H])C([H])(n4nc(-c5c([H])c([H])c(Oc6c([H])c([H])c(F)c([H])c6F)c([H])c5[H])c(C(=O)N([H])[H])c4N([H])[H])C3([H])[H])c([H])c([H])c2C1([H])[H]

>  <smiles>  (29) 
[H]c1c([H])c([H])c2c(c1[H])C([H])([H])C([H])([H])C([H])([H])C2([H])N([H])C(=O)C1([H])N(C(=O)C([H])(N([H])C(=O)C([H])(N([H])C([H])([H])[H])C([H])([H])[H])C(C([H])([H])[H])(C([H])([H])[H])C([H])([H])[H])C([H])([H])c2c([H])c(OC([H])([H])C([H])([H])C([H])([H])C([H])([H])C([H])([H])C([H])([H])C([H])([H])C([H])([H])C([H])([H])C([H])([H])C([H])([H])C([H])([H])[N+]([H])([H])C([H])([H])C([H])([H])OC([H])([H])C([H])([H])OC([H])([H])C([H])([H])OC([H])([H])C([H])([H])OC([H])([H])C([H])([H])OC([H])([H])C([H])([H])OC([H])([H])C([H])([H])OC([H])([H])C([H])([H])OC([H])([H])C([H])([H])OC([H])([H])C([H])([H])OC([H])([H])C([H])([H])OC([H])([H])C([H])([H])OC([H])([H])C([H])([H])N([H])C(=O)N3C([H])([H])C([H])([H])C([H])([H])C([H])(n4nc(-c5c([H])c([H])c(Oc6c([H])c([H])c(F)c([H])c6F)c([H])c5[H])c(C(=O)N([H])[H])c4N([H])[H])C3([H])[H])c([H])c([H])c2C1([H])[H]

$$$$
34:0:0
     RDKit          3D

103110  0  0  1  0  0  0  0  0999 V2000
  -31.0640  -17.6530   22.9060 C   0  0  0  0  0  2  0  0  0  0  0  0
  -32.1810  -17.2190   21.9830 O   0  0  0  0  0  0  0  0  0  0  0  0
  -33.3330  -17.9530   21.3640 C   0  0  0  0  0  2  0  0  0  0  0  0
  -33.6960  -17.9310   19.7440 C   0  0  0  0  0  2  0  0  0  0  0  0
  -32.7940  -17.8000   18.5460 O   0  0  0  0  0  0  0  0  0  0  0  0
  -32.0840  -18.8220   17.6830 C   0  0  0  0  0  2  0  0  0  0  0  0
  -30.5180  -19.4830   17.8620 C   0  0  0  0  0  2  0  0  0  0  0  0
  -29.7580  -20.4400   18.9470 O   0  0  0  0  0  0  0  0  0  0  0  0
  -29.5730  -21.8270   19.7780 C   0  0  0  0  0  3  0  0  0  0  0  0
  -29.2120  -23.4360   19.3850 C   0  0  0  0  0  3  0  0  0  0  0  0
  -28.7000  -24.4940   20.3200 O   0  0  0  0  0  0  0  0  0  0  0  0
  -28.8650  -26.0250   19.7820 O   0  0  0  0  0  0  0  0  0  0  0  0
  -24.7730  -31.2330   22.9030 C   0  0  0  0  0  0  0  0  0  0  0  0
  -27.7020  -26.8340   19.8210 C   0  0  0  0  0  0  0  0  0  0  0  0
  -23.6960  -29.8200   21.1890 C   0  0  0  0  0  3  0  0  0  0  0  0
  -25.2690  -28.3730   19.7710 C   0  0  0  0  0  0  0  0  0  0  0  0
  -26.2240  -30.2560   21.0980 C   0  0  0  0  0  2  0  0  0  0  0  0
  -26.3960  -28.8900   20.4240 C   0  0  0  0  0  0  0  0  0  0  0  0
  -27.6130  -28.1310   20.4410 C   0  0  0  0  0  3  0  0  0  0  0  0
  -26.5550  -26.3850   19.1420 C   0  0  0  0  0  3  0  0  0  0  0  0
  -25.3540  -27.1300   19.1210 C   0  0  0  0  0  3  0  0  0  0  0  0
  -23.9900  -29.1920   19.7990 C   0  0  0  0  0  2  0  0  0  0  0  0
  -24.9150  -30.4570   21.7860 N   0  0  0  0  0  0  0  0  0  0  0  0
  -23.6610  -31.4370   23.4110 O   0  0  0  0  0  0  0  0  0  0  0  0
  -23.0590  -28.7450   22.1040 C   0  0  0  0  0  0  0  0  0  0  0  0
  -21.7360  -28.5440   21.9750 N   0  0  0  0  0  0  0  0  0  0  0  0
  -23.7550  -28.0960   22.8890 O   0  0  0  0  0  0  0  0  0  0  0  0
  -21.2300  -29.1230   21.3190 H   0  0  0  0  0  0  0  0  0  0  0  0
  -18.3850  -27.2650   22.4610 C   0  0  0  0  0  0  0  0  0  0  0  0
  -20.9440  -27.5490   22.7010 C   0  0  0  0  0  3  0  0  0  0  0  0
  -21.0570  -26.1560   22.0370 C   0  0  0  0  0  2  0  0  0  0  0  0
  -19.9410  -25.8790   21.0240 C   0  0  0  0  0  2  0  0  0  0  0  0
  -18.5690  -25.9630   21.7010 C   0  0  0  0  0  2  0  0  0  0  0  0
  -19.4990  -28.0170   22.9170 C   0  0  0  0  0  0  0  0  0  0  0  0
  -19.2730  -29.2380   23.5900 C   0  0  0  0  0  3  0  0  0  0  0  0
  -17.9640  -29.7060   23.8100 C   0  0  0  0  0  3  0  0  0  0  0  0
  -16.8640  -28.9490   23.3690 C   0  0  0  0  0  3  0  0  0  0  0  0
  -17.0760  -27.7310   22.7000 C   0  0  0  0  0  3  0  0  0  0  0  0
  -25.9990  -31.9190   23.5810 C   0  0  0  0  0  3  0  0  0  0  0  0
  -26.5400  -31.1230   24.8320 C   0  0  1  0  0  0  0  0  0  0  0  0
  -25.4480  -30.7750   25.8710 C   0  0  0  0  0  1  0  0  0  0  0  0
  -27.2090  -29.8000   24.3940 C   0  0  0  0  0  1  0  0  0  0  0  0
  -27.6320  -31.9530   25.5490 C   0  0  0  0  0  1  0  0  0  0  0  0
  -25.5910  -33.2760   23.9740 N   0  0  0  0  0  0  0  0  0  0  0  0
  -25.8690  -34.3880   23.2800 C   0  0  0  0  0  0  0  0  0  0  0  0
  -26.5640  -34.3820   22.2610 O   0  0  0  0  0  0  0  0  0  0  0  0
  -24.9720  -33.3490   24.7680 H   0  0  0  0  0  0  0  0  0  0  0  0
  -24.0310  -36.0810   22.9880 C   0  0  0  0  0  1  0  0  0  0  0  0
  -25.2850  -35.7170   23.7990 C   0  0  0  0  0  3  0  0  0  0  0  0
  -27.3470  -36.6950   24.7060 C   0  0  0  0  0  1  0  0  0  0  0  0
  -26.2470  -36.8400   23.7550 N   0  0  0  0  0  0  0  0  0  0  0  0
  -25.7800  -37.7220   23.9440 H   0  0  0  0  0  0  0  0  0  0  0  0
  -29.5900  -18.3400   22.5730 C   0  0  0  0  0  2  0  0  0  0  0  0
  -28.7040  -18.0100   21.4160 O   0  0  0  0  0  0  0  0  0  0  0  0
  -27.8040  -19.0250   20.7760 C   0  0  0  0  0  2  0  0  0  0  0  0
  -27.4090  -18.9010   19.1940 C   0  0  0  0  0  2  0  0  0  0  0  0
  -27.2570  -20.0960   18.3010 O   0  0  0  0  0  0  0  0  0  0  0  0
  -27.7280  -20.0860   16.8720 C   0  0  0  0  0  2  0  0  0  0  0  0
  -28.7840  -21.1520   16.1300 C   0  0  0  0  0  2  0  0  0  0  0  0
  -30.0390  -21.9210   16.5800 O   0  0  0  0  0  0  0  0  0  0  0  0
  -31.4690  -21.6570   17.0600 C   0  0  0  0  0  2  0  0  0  0  0  0
  -32.0400  -21.2810   18.6170 C   0  0  0  0  0  2  0  0  0  0  0  0
  -31.9690  -20.0110   19.5210 O   0  0  0  0  0  0  0  0  0  0  0  0
  -30.9260  -19.0390   20.1720 C   0  0  0  0  0  2  0  0  0  0  0  0
  -30.2930  -17.4260   19.7290 C   0  0  0  0  0  2  0  0  0  0  0  0
  -31.1290  -14.7920   19.8670 C   0  0  0  0  0  0  0  0  0  0  0  0
  -30.8260  -12.4770   18.9360 C   0  0  0  0  0  2  0  0  0  0  0  0
  -29.8450  -12.5720   17.7440 C   0  0  0  0  0  2  0  0  0  0  0  0
  -28.3880  -12.4560   18.2340 C   0  0  0  0  0  2  0  0  0  0  0  0
  -28.1010  -13.3710   19.4550 C   0  0  0  0  0  3  0  0  0  0  0  0
  -29.2030  -13.2550   20.5360 C   0  0  0  0  0  2  0  0  0  0  0  0
  -30.4860  -13.5650   19.8930 N   0  0  0  0  0  0  0  0  0  0  0  0
  -32.2530  -14.8400   19.3640 O   0  0  0  0  0  0  0  0  0  0  0  0
  -30.4210  -15.9420   20.2480 N   0  0  0  0  0  0  0  0  0  0  0  0
  -29.6240  -15.6870   20.8100 H   0  0  0  0  0  0  0  0  0  0  0  0
  -25.7990  -14.0750   20.3350 C   0  0  0  0  0  0  0  0  0  0  0  0
  -24.7080  -13.3580   20.7350 C   0  0  0  0  0  0  0  0  0  0  0  0
  -25.0770  -11.9800   20.6240 C   0  0  0  0  0  0  0  0  0  0  0  0
  -26.7690  -13.1430   20.0050 N   0  0  0  0  0  0  0  0  0  0  0  0
  -26.3450  -11.8730   20.2420 N   0  0  0  0  0  0  0  0  0  0  0  0
  -24.2800  -10.7600   20.8070 C   0  0  0  0  0  0  0  0  0  0  0  0
  -24.7060   -9.7170   21.6600 C   0  0  0  0  0  3  0  0  0  0  0  0
  -23.9110   -8.5640   21.8350 C   0  0  0  0  0  3  0  0  0  0  0  0
  -22.6730   -8.4460   21.1580 C   0  0  0  0  0  0  0  0  0  0  0  0
  -22.2640   -9.4760   20.2930 C   0  0  0  0  0  3  0  0  0  0  0  0
  -23.0590  -10.6210   20.1160 C   0  0  0  0  0  3  0  0  0  0  0  0
  -21.8480   -7.3510   21.2460 O   0  0  0  0  0  0  0  0  0  0  0  0
  -21.8320   -6.5500   22.3610 C   0  0  0  0  0  0  0  0  0  0  0  0
  -21.5770   -7.0700   23.6480 C   0  0  0  0  0  3  0  0  0  0  0  0
  -21.5000   -6.2010   24.7560 C   0  0  0  0  0  3  0  0  0  0  0  0
  -21.6680   -4.8150   24.5770 C   0  0  0  0  0  0  0  0  0  0  0  0
  -21.9170   -4.2950   23.2940 C   0  0  0  0  0  3  0  0  0  0  0  0
  -21.9950   -5.1610   22.1900 C   0  0  0  0  0  0  0  0  0  0  0  0
  -22.2130   -4.6520   20.9530 F   0  0  0  0  0  0  0  0  0  0  0  0
  -21.5870   -3.9790   25.6390 F   0  0  0  0  0  0  0  0  0  0  0  0
  -23.3600  -13.9100   21.1030 C   0  0  0  0  0  0  0  0  0  0  0  0
  -22.6470  -13.2390   21.9990 N   0  0  0  0  0  0  0  0  0  0  0  0
  -22.9550  -14.9700   20.6280 O   0  0  0  0  0  0  0  0  0  0  0  0
  -22.9860  -12.3780   22.4010 H   0  0  0  0  0  0  0  0  0  0  0  0
  -21.7440  -13.5890   22.2890 H   0  0  0  0  0  0  0  0  0  0  0  0
  -26.0420  -15.4410   20.2020 N   0  0  0  0  0  0  0  0  0  0  0  0
  -25.3210  -16.1300   20.3890 H   0  0  0  0  0  0  0  0  0  0  0  0
  -26.8950  -15.8430   19.8400 H   0  0  0  0  0  0  0  0  0  0  0  0
  2  1  1  0
  3  2  1  0
  4  3  1  0
  5  4  1  0
  6  7  1  0
  6  5  1  0
  7  8  1  0
  8  9  1  0
 10  9  2  0
 10 11  1  0
 12 14  1  0
 12 11  1  0
 13 24  2  0
 14 19  1  0
 15 23  1  0
 15 25  1  0
 16 22  1  0
 16 18  1  0
 17 23  1  0
 18 19  2  0
 18 17  1  0
 20 14  2  0
 21 20  1  0
 21 16  2  0
 22 15  1  0
 23 13  1  0
 25 27  2  0
 26 25  1  0
 28 26  1  0
 29 38  2  0
 29 34  1  0
 30 26  1  0
 30 34  1  0
 31 30  1  0
 32 33  1  0
 32 31  1  0
 33 29  1  0
 34 35  2  0
 35 36  1  0
 37 36  2  0
 38 37  1  0
 39 13  1  0
 39 44  1  0
 39 40  1  0
 40 43  1  1
 40 41  1  0
 42 40  1  0
 44 47  1  0
 45 49  1  0
 45 44  1  0
 46 45  2  0
 49 48  1  0
 51 49  1  0
 51 52  1  0
 51 50  1  0
 53  1  1  0
 54 53  1  0
 55 54  1  0
 56 55  1  0
 57 56  1  0
 58 57  1  0
 59 60  1  0
 59 58  1  0
 60 61  1  0
 61 62  1  0
 62 63  1  0
 63 64  1  0
 65 64  1  0
 65 74  1  0
 66 72  1  0
 66 74  1  0
 67 72  1  0
 68 69  1  0
 68 67  1  0
 70 69  1  0
 70 79  1  0
 70 71  1  0
 72 71  1  0
 73 66  2  0
 74 75  1  0
 76 77  2  0
 77 96  1  0
 78 77  1  0
 78 81  1  0
 79 80  1  0
 79 76  1  0
 80 78  2  0
 81 82  1  0
 82 83  2  0
 84 87  1  0
 84 83  1  0
 85 84  2  0
 86 85  1  0
 86 81  2  0
 87 88  1  0
 88 89  1  0
 89 90  2  0
 91 90  1  0
 91 95  1  0
 92 91  2  0
 93 88  2  0
 93 92  1  0
 94 93  1  0
 96 97  1  0
 97100  1  0
 97 99  1  0
 98 96  2  0
101 76  1  0
101102  1  0
103101  1  0
M  ISO  4  11 101  12 101  66 100  74 100
M  END
>  <TORSDO>  (30) 
F 39

>  <SCORE>  (30) 
-6.086

>  <name>  (30) 
34

>  <ligand_id>  (30) 
34

>  <original_smiles>  (30) 
[H]c1c([H])c([H])c2c(c1[H])C([H])([H])C([H])([H])C([H])([H])C2([H])N([H])C(=O)C1([H])N(C(=O)C([H])(N([H])C(=O)C([H])(N([H])C([H])([H])[H])C([H])([H])[H])C(C([H])([H])[H])(C([H])([H])[H])C([H])([H])[H])C([H])([H])c2c([H])c(OOC([H])([H])C([H])([H])OC([H])([H])C([H])([H])OC([H])([H])C([H])([H])OC([H])([H])C([H])([H])OC([H])([H])C([H])([H])OC([H])([H])C([H])([H])OC([H])([H])C([H])([H])OC([H])([H])C([H])([H])N([H])C(=O)N3C([H])([H])C([H])([H])C([H])([H])C([H])(n4nc(-c5c([H])c([H])c(Oc6c([H])c([H])c(F)c([H])c6F)c([H])c5[H])c(C(=O)N([H])[H])c4N([H])[H])C3([H])[H])c([H])c([H])c2C1([H])[H]

>  <smiles>  (30) 
[H]c1c([H])c([H])c2c(c1[H])C([H])([H])C([H])([H])C([H])([H])C2([H])N([H])C(=O)C1([H])N(C(=O)C([H])(N([H])C(=O)C([H])(N([H])C([H])([H])[H])C([H])([H])[H])C(C([H])([H])[H])(C([H])([H])[H])C([H])([H])[H])C([H])([H])c2c([H])c(OOC([H])([H])C([H])([H])OC([H])([H])C([H])([H])OC([H])([H])C([H])([H])OC([H])([H])C([H])([H])OC([H])([H])C([H])([H])OC([H])([H])C([H])([H])OC([H])([H])C([H])([H])OC([H])([H])C([H])([H])N([H])C(=O)N3C([H])([H])C([H])([H])C([H])([H])C([H])(n4nc(-c5c([H])c([H])c(Oc6c([H])c([H])c(F)c([H])c6F)c([H])c5[H])c(C(=O)N([H])[H])c4N([H])[H])C3([H])[H])c([H])c([H])c2C1([H])[H]

$$$$
36:0:0
     RDKit          3D

105112  0  0  1  0  0  0  0  0999 V2000
  -21.9220  -24.3430   13.8940 C   0  0  0  0  0  2  0  0  0  0  0  0
  -22.5240  -23.0620   14.0020 O   0  0  0  0  0  0  0  0  0  0  0  0
  -21.8020  -22.0270   13.3520 C   0  0  0  0  0  2  0  0  0  0  0  0
  -22.3650  -20.6910   13.8480 C   0  0  0  0  0  2  0  0  0  0  0  0
  -22.3540  -20.7190   15.2680 O   0  0  0  0  0  0  0  0  0  0  0  0
  -23.3070  -19.8500   15.8660 C   0  0  0  0  0  2  0  0  0  0  0  0
  -23.1330  -19.9540   17.3870 C   0  0  0  0  0  2  0  0  0  0  0  0
  -24.2280  -19.3780   18.0890 O   0  0  0  0  0  0  0  0  0  0  0  0
  -25.1960  -20.3300   18.5120 C   0  0  0  0  0  2  0  0  0  0  0  0
  -26.1230  -19.6790   19.5480 C   0  0  0  0  0  2  0  0  0  0  0  0
  -27.3210  -19.2100   18.9460 O   0  0  0  0  0  0  0  0  0  0  0  0
  -28.1150  -18.4670   19.8630 C   0  0  0  0  0  2  0  0  0  0  0  0
  -29.5880  -18.5640   19.4560 C   0  0  0  0  0  2  0  0  0  0  0  0
  -30.5860  -18.1120   20.5420 C   0  0  0  0  0  2  0  0  0  0  0  0
  -31.4390  -16.8710   20.2100 C   0  0  0  0  0  2  0  0  0  0  0  0
  -31.4420  -14.4220   20.2390 C   0  0  0  0  0  0  0  0  0  0  0  0
  -30.9830  -12.2650   19.1910 C   0  0  0  0  0  2  0  0  0  0  0  0
  -30.0950  -12.5300   17.9570 C   0  0  0  0  0  2  0  0  0  0  0  0
  -28.6040  -12.5070   18.3480 C   0  0  0  0  0  2  0  0  0  0  0  0
  -28.2960  -13.3860   19.5960 C   0  0  0  0  0  3  0  0  0  0  0  0
  -29.3180  -13.1490   20.7380 C   0  0  0  0  0  2  0  0  0  0  0  0
  -30.6710  -13.3090   20.1750 N   0  0  0  0  0  0  0  0  0  0  0  0
  -32.6180  -14.4470   19.8630 O   0  0  0  0  0  0  0  0  0  0  0  0
  -30.8060  -15.5730   20.4950 N   0  0  0  0  0  0  0  0  0  0  0  0
  -29.8500  -15.5330   20.8240 H   0  0  0  0  0  0  0  0  0  0  0  0
  -25.9300  -14.1420   20.2680 C   0  0  0  0  0  0  0  0  0  0  0  0
  -24.8050  -13.4410   20.5910 C   0  0  0  0  0  0  0  0  0  0  0  0
  -25.1770  -12.0620   20.5710 C   0  0  0  0  0  0  0  0  0  0  0  0
  -26.9210  -13.1970   20.0500 N   0  0  0  0  0  0  0  0  0  0  0  0
  -26.4680  -11.9380   20.2940 N   0  0  0  0  0  0  0  0  0  0  0  0
  -24.3630  -10.8530   20.7480 C   0  0  0  0  0  0  0  0  0  0  0  0
  -24.7270   -9.8470   21.6710 C   0  0  0  0  0  3  0  0  0  0  0  0
  -23.9160   -8.7040   21.8360 C   0  0  0  0  0  3  0  0  0  0  0  0
  -22.7320   -8.5570   21.0730 C   0  0  0  0  0  0  0  0  0  0  0  0
  -22.3860   -9.5510   20.1430 C   0  0  0  0  0  3  0  0  0  0  0  0
  -23.1920  -10.6910   19.9780 C   0  0  0  0  0  3  0  0  0  0  0  0
  -21.9030   -7.4640   21.1450 O   0  0  0  0  0  0  0  0  0  0  0  0
  -21.7930   -6.7220   22.2950 C   0  0  0  0  0  0  0  0  0  0  0  0
  -21.4490   -7.3090   23.5350 C   0  0  0  0  0  3  0  0  0  0  0  0
  -21.2780   -6.5020   24.6750 C   0  0  0  0  0  3  0  0  0  0  0  0
  -21.4400   -5.1060   24.5800 C   0  0  0  0  0  0  0  0  0  0  0  0
  -21.7720   -4.5170   23.3480 C   0  0  0  0  0  3  0  0  0  0  0  0
  -21.9470   -5.3230   22.2100 C   0  0  0  0  0  0  0  0  0  0  0  0
  -22.2480   -4.7480   21.0220 F   0  0  0  0  0  0  0  0  0  0  0  0
  -21.2600   -4.3310   25.6750 F   0  0  0  0  0  0  0  0  0  0  0  0
  -23.4410  -14.0160   20.8430 C   0  0  0  0  0  0  0  0  0  0  0  0
  -22.6550  -13.3790   21.7060 N   0  0  0  0  0  0  0  0  0  0  0  0
  -23.0850  -15.0670   20.3130 O   0  0  0  0  0  0  0  0  0  0  0  0
  -22.9540  -12.5420   22.1800 H   0  0  0  0  0  0  0  0  0  0  0  0
  -21.7490  -13.7600   21.9340 H   0  0  0  0  0  0  0  0  0  0  0  0
  -26.1900  -15.5020   20.1240 N   0  0  0  0  0  0  0  0  0  0  0  0
  -25.4620  -16.1900   20.3050 H   0  0  0  0  0  0  0  0  0  0  0  0
  -27.0890  -15.9020   19.9070 H   0  0  0  0  0  0  0  0  0  0  0  0
  -22.2860  -25.1110   15.1720 C   0  0  0  0  0  2  0  0  0  0  0  0
  -21.6320  -24.5220   16.3050 O   0  0  0  0  0  0  0  0  0  0  0  0
  -22.4960  -24.4220   17.4330 C   0  0  0  0  0  2  0  0  0  0  0  0
  -21.8050  -23.8370   18.6880 C   0  0  0  0  0  2  0  0  0  0  0  0
  -22.4690  -24.2070   19.9060 O   0  0  0  0  0  0  0  0  0  0  0  0
  -23.4590  -23.3020   20.4270 C   0  0  0  0  0  2  0  0  0  0  0  0
  -24.7880  -23.3660   19.6470 C   0  0  0  0  0  2  0  0  0  0  0  0
  -25.9910  -23.4260   20.4310 O   0  0  0  0  0  0  0  0  0  0  0  0
  -26.7290  -24.5900   20.0670 C   0  0  0  0  0  2  0  0  0  0  0  0
  -28.1510  -24.7810   20.6130 C   0  0  0  0  0  2  0  0  0  0  0  0
  -28.7530  -25.8280   19.8440 O   0  0  0  0  0  0  0  0  0  0  0  0
  -28.8760  -27.0900   20.6660 O   0  0  0  0  0  0  0  0  0  0  0  0
  -24.8620  -31.8940   24.0140 C   0  0  0  0  0  0  0  0  0  0  0  0
  -27.7390  -27.8690   20.5990 C   0  0  0  0  0  0  0  0  0  0  0  0
  -23.8040  -30.7580   22.0810 C   0  0  0  0  0  3  0  0  0  0  0  0
  -25.3720  -29.4170   20.6000 C   0  0  0  0  0  0  0  0  0  0  0  0
  -26.3410  -31.0820   22.1860 C   0  0  0  0  0  2  0  0  0  0  0  0
  -26.4730  -29.8140   21.3710 C   0  0  0  0  0  0  0  0  0  0  0  0
  -27.6560  -29.0370   21.3860 C   0  0  0  0  0  3  0  0  0  0  0  0
  -26.6460  -27.5330   19.7710 C   0  0  0  0  0  3  0  0  0  0  0  0
  -25.4490  -28.2670   19.8000 C   0  0  0  0  0  3  0  0  0  0  0  0
  -24.1400  -30.2840   20.6450 C   0  0  0  0  0  2  0  0  0  0  0  0
  -25.0130  -31.2520   22.8210 N   0  0  0  0  0  0  0  0  0  0  0  0
  -23.7360  -32.1170   24.4780 O   0  0  0  0  0  0  0  0  0  0  0  0
  -23.0490  -29.6320   22.8220 C   0  0  0  0  0  0  0  0  0  0  0  0
  -21.7550  -29.4690   22.5120 N   0  0  0  0  0  0  0  0  0  0  0  0
  -23.6340  -28.9070   23.6300 O   0  0  0  0  0  0  0  0  0  0  0  0
  -21.3480  -30.1020   21.8410 H   0  0  0  0  0  0  0  0  0  0  0  0
  -18.3690  -28.2110   22.4220 C   0  0  0  0  0  0  0  0  0  0  0  0
  -20.8600  -28.4520   23.0650 C   0  0  0  0  0  3  0  0  0  0  0  0
  -21.0630  -27.0880   22.3680 C   0  0  0  0  0  2  0  0  0  0  0  0
  -20.1170  -26.8660   21.1790 C   0  0  0  0  0  2  0  0  0  0  0  0
  -18.6550  -26.9430   21.6320 C   0  0  0  0  0  2  0  0  0  0  0  0
  -19.4020  -28.9290   23.0820 C   0  0  0  0  0  0  0  0  0  0  0  0
  -19.0820  -30.1190   23.7710 C   0  0  0  0  0  3  0  0  0  0  0  0
  -17.7580  -30.5950   23.8050 C   0  0  0  0  0  3  0  0  0  0  0  0
  -16.7350  -29.8750   23.1620 C   0  0  0  0  0  3  0  0  0  0  0  0
  -17.0410  -28.6860   22.4760 C   0  0  0  0  0  3  0  0  0  0  0  0
  -26.0890  -32.4020   24.8320 C   0  0  0  0  0  3  0  0  0  0  0  0
  -26.3830  -31.5330   26.1170 C   0  0  1  0  0  0  0  0  0  0  0  0
  -25.1440  -31.3050   27.0130 C   0  0  0  0  0  1  0  0  0  0  0  0
  -26.9420  -30.1460   25.7230 C   0  0  0  0  0  1  0  0  0  0  0  0
  -27.4750  -32.2150   26.9740 C   0  0  0  0  0  1  0  0  0  0  0  0
  -25.8240  -33.7990   25.2010 N   0  0  0  0  0  0  0  0  0  0  0  0
  -26.3170  -34.8590   24.5530 C   0  0  0  0  0  0  0  0  0  0  0  0
  -27.1120  -34.7630   23.6150 O   0  0  0  0  0  0  0  0  0  0  0  0
  -25.1420  -33.9590   25.9270 H   0  0  0  0  0  0  0  0  0  0  0  0
  -24.7610  -36.7790   24.0740 C   0  0  0  0  0  1  0  0  0  0  0  0
  -25.8500  -36.2530   25.0200 C   0  0  0  0  0  3  0  0  0  0  0  0
  -27.9060  -36.9430   26.1690 C   0  0  0  0  0  1  0  0  0  0  0  0
  -26.9500  -37.2390   25.1080 N   0  0  0  0  0  0  0  0  0  0  0  0
  -26.5830  -38.1760   25.2630 H   0  0  0  0  0  0  0  0  0  0  0  0
  1  2  1  0
  1 54  1  0
  3  4  1  0
  3  2  1  0
  4  5  1  0
  5  6  1  0
  6  7  1  0
  7  8  1  0
  8  9  1  0
  9 10  1  0
 11 10  1  0
 11 12  1  0
 13 12  1  0
 13 14  1  0
 15 24  1  0
 15 14  1  0
 16 24  1  0
 17 22  1  0
 18 19  1  0
 18 17  1  0
 20 19  1  0
 20 29  1  0
 20 21  1  0
 22 16  1  0
 22 21  1  0
 23 16  2  0
 24 25  1  0
 26 27  2  0
 27 46  1  0
 28 27  1  0
 28 31  1  0
 29 26  1  0
 29 30  1  0
 30 28  2  0
 31 32  1  0
 32 33  2  0
 34 37  1  0
 34 33  1  0
 35 34  2  0
 36 35  1  0
 36 31  2  0
 37 38  1  0
 38 39  1  0
 39 40  2  0
 41 40  1  0
 41 45  1  0
 42 41  2  0
 43 38  2  0
 43 42  1  0
 44 43  1  0
 46 47  1  0
 47 50  1  0
 47 49  1  0
 48 46  2  0
 51 26  1  0
 51 52  1  0
 53 51  1  0
 54 55  1  0
 55 56  1  0
 56 57  1  0
 57 58  1  0
 58 59  1  0
 60 59  1  0
 60 61  1  0
 62 61  1  0
 62 63  1  0
 64 63  1  0
 64 65  1  0
 66 77  2  0
 67 65  1  0
 67 72  1  0
 68 76  1  0
 68 78  1  0
 69 75  1  0
 69 71  1  0
 70 76  1  0
 71 72  2  0
 71 70  1  0
 73 74  1  0
 73 67  2  0
 74 69  2  0
 75 68  1  0
 76 66  1  0
 78 80  2  0
 79 78  1  0
 81 79  1  0
 82 91  2  0
 82 87  1  0
 83 79  1  0
 83 87  1  0
 84 83  1  0
 85 86  1  0
 85 84  1  0
 86 82  1  0
 87 88  2  0
 88 89  1  0
 90 89  2  0
 91 90  1  0
 92 66  1  0
 92 97  1  0
 92 93  1  0
 93 96  1  1
 93 94  1  0
 95 93  1  0
 97100  1  0
 98102  1  0
 98 97  1  0
 99 98  2  0
102101  1  0
102104  1  0
104105  1  0
104103  1  0
M  ISO  4  16 100  24 100  64 101  65 101
M  END
>  <TORSDO>  (31) 
F 41

>  <SCORE>  (31) 
-3.967

>  <name>  (31) 
36

>  <ligand_id>  (31) 
36

>  <original_smiles>  (31) 
[H]c1c([H])c([H])c2c(c1[H])C([H])([H])C([H])([H])C([H])([H])C2([H])N([H])C(=O)C1([H])N(C(=O)C([H])(N([H])C(=O)C([H])(N([H])C([H])([H])[H])C([H])([H])[H])C(C([H])([H])[H])(C([H])([H])[H])C([H])([H])[H])C([H])([H])c2c([H])c(OOC([H])([H])C([H])([H])OC([H])([H])C([H])([H])OC([H])([H])C([H])([H])OC([H])([H])C([H])([H])OC([H])([H])C([H])([H])OC([H])([H])C([H])([H])OC([H])([H])C([H])([H])OC([H])([H])C([H])([H])C([H])([H])C([H])([H])N([H])C(=O)N3C([H])([H])C([H])([H])C([H])([H])C([H])(n4nc(-c5c([H])c([H])c(Oc6c([H])c([H])c(F)c([H])c6F)c([H])c5[H])c(C(=O)N([H])[H])c4N([H])[H])C3([H])[H])c([H])c([H])c2C1([H])[H]

>  <smiles>  (31) 
[H]c1c([H])c([H])c2c(c1[H])C([H])([H])C([H])([H])C([H])([H])C2([H])N([H])C(=O)C1([H])N(C(=O)C([H])(N([H])C(=O)C([H])(N([H])C([H])([H])[H])C([H])([H])[H])C(C([H])([H])[H])(C([H])([H])[H])C([H])([H])[H])C([H])([H])c2c([H])c(OOC([H])([H])C([H])([H])OC([H])([H])C([H])([H])OC([H])([H])C([H])([H])OC([H])([H])C([H])([H])OC([H])([H])C([H])([H])OC([H])([H])C([H])([H])OC([H])([H])C([H])([H])OC([H])([H])C([H])([H])C([H])([H])C([H])([H])N([H])C(=O)N3C([H])([H])C([H])([H])C([H])([H])C([H])(n4nc(-c5c([H])c([H])c(Oc6c([H])c([H])c(F)c([H])c6F)c([H])c5[H])c(C(=O)N([H])[H])c4N([H])[H])C3([H])[H])c([H])c([H])c2C1([H])[H]

$$$$
37:0:0
     RDKit          3D

114121  0  0  1  0  0  0  0  0999 V2000
  -30.9010  -22.0740   27.9880 N   0  0  0  0  0  4  0  0  0  0  0  0
  -30.6140  -22.9160   28.4640 H   0  0  0  0  0  0  0  0  0  0  0  0
  -30.3270  -21.9870   27.1610 H   0  0  0  0  0  0  0  0  0  0  0  0
  -30.6880  -20.9100   28.8880 C   0  0  0  0  0  2  0  0  0  0  0  0
  -29.2180  -20.7300   29.3260 C   0  0  0  0  0  2  0  0  0  0  0  0
  -29.0570  -19.7000   30.3060 O   0  0  0  0  0  0  0  0  0  0  0  0
  -29.4870  -18.3780   29.9650 C   0  0  0  0  0  2  0  0  0  0  0  0
  -28.6460  -17.7100   28.8630 C   0  0  0  0  0  2  0  0  0  0  0  0
  -28.9200  -18.3070   27.6050 O   0  0  0  0  0  0  0  0  0  0  0  0
  -28.2440  -17.6720   26.5290 C   0  0  0  0  0  2  0  0  0  0  0  0
  -28.3750  -18.5510   25.2710 C   0  0  0  0  0  2  0  0  0  0  0  0
  -29.6610  -18.4530   24.6620 O   0  0  0  0  0  0  0  0  0  0  0  0
  -30.7150  -19.0960   25.3770 C   0  0  0  0  0  2  0  0  0  0  0  0
  -31.6300  -18.0650   26.0590 C   0  0  0  0  0  2  0  0  0  0  0  0
  -32.6640  -17.6900   25.1610 O   0  0  0  0  0  0  0  0  0  0  0  0
  -33.4030  -16.5400   25.5610 C   0  0  0  0  0  2  0  0  0  0  0  0
  -32.7440  -15.2490   25.0320 C   0  0  0  0  0  2  0  0  0  0  0  0
  -33.0760  -14.9510   23.6730 O   0  0  0  0  0  0  0  0  0  0  0  0
  -32.7250  -15.9280   22.6920 C   0  0  0  0  0  2  0  0  0  0  0  0
  -31.2050  -16.0640   22.4630 C   0  0  0  0  0  2  0  0  0  0  0  0
  -30.8110  -14.2990   20.7430 C   0  0  0  0  0  0  0  0  0  0  0  0
  -30.4210  -12.2860   19.3820 C   0  0  0  0  0  2  0  0  0  0  0  0
  -29.4790  -12.5350   18.1900 C   0  0  0  0  0  2  0  0  0  0  0  0
  -28.0090  -12.3750   18.6140 C   0  0  0  0  0  2  0  0  0  0  0  0
  -27.6720  -13.1980   19.8830 C   0  0  0  0  0  3  0  0  0  0  0  0
  -28.7080  -12.9350   21.0010 C   0  0  0  0  0  2  0  0  0  0  0  0
  -30.0630  -13.2020   20.4750 N   0  0  0  0  0  0  0  0  0  0  0  0
  -31.7150  -14.7030   20.0070 O   0  0  0  0  0  0  0  0  0  0  0  0
  -30.5830  -14.8480   21.9420 N   0  0  0  0  0  0  0  0  0  0  0  0
  -29.8810  -14.4030   22.5160 H   0  0  0  0  0  0  0  0  0  0  0  0
  -25.2640  -13.8160   20.5670 C   0  0  0  0  0  0  0  0  0  0  0  0
  -24.1860  -13.0430   20.9150 C   0  0  0  0  0  0  0  0  0  0  0  0
  -24.6400  -11.6900   20.8710 C   0  0  0  0  0  0  0  0  0  0  0  0
  -26.3070  -12.9310   20.3390 N   0  0  0  0  0  0  0  0  0  0  0  0
  -25.9330  -11.6470   20.5760 N   0  0  0  0  0  0  0  0  0  0  0  0
  -23.9060  -10.4280   21.0390 C   0  0  0  0  0  0  0  0  0  0  0  0
  -24.3610   -9.4200   21.9160 C   0  0  0  0  0  3  0  0  0  0  0  0
  -23.6290   -8.2230   22.0740 C   0  0  0  0  0  3  0  0  0  0  0  0
  -22.4270   -8.0270   21.3530 C   0  0  0  0  0  0  0  0  0  0  0  0
  -21.9900   -9.0240   20.4630 C   0  0  0  0  0  3  0  0  0  0  0  0
  -22.7230  -10.2130   20.3040 C   0  0  0  0  0  3  0  0  0  0  0  0
  -21.6630   -6.8860   21.4230 O   0  0  0  0  0  0  0  0  0  0  0  0
  -21.6850   -6.0730   22.5270 C   0  0  0  0  0  0  0  0  0  0  0  0
  -21.4010   -6.5630   23.8200 C   0  0  0  0  0  3  0  0  0  0  0  0
  -21.3660   -5.6790   24.9170 C   0  0  0  0  0  3  0  0  0  0  0  0
  -21.6050   -4.3050   24.7220 C   0  0  0  0  0  0  0  0  0  0  0  0
  -21.8820   -3.8130   23.4340 C   0  0  0  0  0  3  0  0  0  0  0  0
  -21.9190   -4.6950   22.3390 C   0  0  0  0  0  0  0  0  0  0  0  0
  -22.1660   -4.2140   21.0970 F   0  0  0  0  0  0  0  0  0  0  0  0
  -21.5630   -3.4530   25.7730 F   0  0  0  0  0  0  0  0  0  0  0  0
  -22.7880  -13.5240   21.1820 C   0  0  0  0  0  0  0  0  0  0  0  0
  -22.0540  -12.8200   22.0390 N   0  0  0  0  0  0  0  0  0  0  0  0
  -22.3560  -14.5530   20.6680 O   0  0  0  0  0  0  0  0  0  0  0  0
  -22.4170  -11.9880   22.4790 H   0  0  0  0  0  0  0  0  0  0  0  0
  -21.1150  -13.1200   22.2580 H   0  0  0  0  0  0  0  0  0  0  0  0
  -25.4370  -15.1870   20.4090 N   0  0  0  0  0  0  0  0  0  0  0  0
  -24.6760  -15.8490   20.5170 H   0  0  0  0  0  0  0  0  0  0  0  0
  -26.3030  -15.6220   20.1130 H   0  0  0  0  0  0  0  0  0  0  0  0
  -32.3180  -22.2280   27.5730 C   0  0  0  0  0  2  0  0  0  0  0  0
  -32.5730  -23.5050   26.7580 C   0  0  0  0  0  2  0  0  0  0  0  0
  -32.0110  -23.3860   25.4510 O   0  0  0  0  0  0  0  0  0  0  0  0
  -32.6480  -24.2660   24.5250 C   0  0  0  0  0  2  0  0  0  0  0  0
  -31.9240  -24.3220   23.1720 C   0  0  0  0  0  2  0  0  0  0  0  0
  -32.0910  -23.1220   22.4260 O   0  0  0  0  0  0  0  0  0  0  0  0
  -31.7070  -23.2930   21.0640 C   0  0  0  0  0  2  0  0  0  0  0  0
  -31.4240  -21.9310   20.4070 C   0  0  0  0  0  2  0  0  0  0  0  0
  -30.3310  -21.2710   21.0400 O   0  0  0  0  0  0  0  0  0  0  0  0
  -29.0450  -21.8090   20.7410 C   0  0  0  0  0  2  0  0  0  0  0  0
  -28.3300  -22.1980   22.0480 C   0  0  0  0  0  2  0  0  0  0  0  0
  -28.6440  -23.5330   22.4420 O   0  0  0  0  0  0  0  0  0  0  0  0
  -27.7430  -24.4980   21.9060 C   0  0  0  0  0  2  0  0  0  0  0  0
  -28.1030  -25.9120   22.3970 C   0  0  0  0  0  2  0  0  0  0  0  0
  -28.9580  -26.6520   21.5230 O   0  0  0  0  0  0  0  0  0  0  0  0
  -28.3760  -26.6940   20.1240 O   0  0  0  0  0  0  0  0  0  0  0  0
  -24.6140  -31.8680   23.2120 C   0  0  0  0  0  0  0  0  0  0  0  0
  -27.2470  -27.4730   20.1030 C   0  0  0  0  0  0  0  0  0  0  0  0
  -23.4030  -30.4910   21.5500 C   0  0  0  0  0  3  0  0  0  0  0  0
  -24.8550  -28.9600   20.1150 C   0  0  0  0  0  0  0  0  0  0  0  0
  -25.9280  -30.8480   21.3570 C   0  0  0  0  0  2  0  0  0  0  0  0
  -26.0110  -29.4850   20.7100 C   0  0  0  0  0  0  0  0  0  0  0  0
  -27.2140  -28.7480   20.7010 C   0  0  0  0  0  3  0  0  0  0  0  0
  -26.0840  -26.9520   19.5050 C   0  0  0  0  0  3  0  0  0  0  0  0
  -24.8840  -27.6910   19.5070 C   0  0  0  0  0  3  0  0  0  0  0  0
  -23.6130  -29.8190   20.1650 C   0  0  0  0  0  2  0  0  0  0  0  0
  -24.6660  -31.0820   22.1000 N   0  0  0  0  0  0  0  0  0  0  0  0
  -23.5340  -32.1410   23.7550 O   0  0  0  0  0  0  0  0  0  0  0  0
  -22.7420  -29.4650   22.4990 C   0  0  0  0  0  0  0  0  0  0  0  0
  -21.4140  -29.3040   22.3730 N   0  0  0  0  0  0  0  0  0  0  0  0
  -23.4200  -28.8170   23.3000 O   0  0  0  0  0  0  0  0  0  0  0  0
  -20.9320  -29.8810   21.6980 H   0  0  0  0  0  0  0  0  0  0  0  0
  -18.0270  -28.1400   22.8490 C   0  0  0  0  0  0  0  0  0  0  0  0
  -20.5860  -28.3680   23.1320 C   0  0  0  0  0  3  0  0  0  0  0  0
  -20.6750  -26.9420   22.5420 C   0  0  0  0  0  2  0  0  0  0  0  0
  -19.5730  -26.6400   21.5210 C   0  0  0  0  0  2  0  0  0  0  0  0
  -18.1910  -26.7950   22.1630 C   0  0  0  0  0  2  0  0  0  0  0  0
  -19.1520  -28.8860   23.2910 C   0  0  0  0  0  0  0  0  0  0  0  0
  -18.9440  -30.1460   23.8930 C   0  0  0  0  0  3  0  0  0  0  0  0
  -17.6440  -30.6600   24.0580 C   0  0  0  0  0  3  0  0  0  0  0  0
  -16.5340  -29.9100   23.6330 C   0  0  0  0  0  3  0  0  0  0  0  0
  -16.7260  -28.6520   23.0330 C   0  0  0  0  0  3  0  0  0  0  0  0
  -25.9020  -32.4840   23.8420 C   0  0  0  0  0  3  0  0  0  0  0  0
  -25.5870  -33.8640   24.2330 N   0  0  0  0  0  0  0  0  0  0  0  0
  -25.9020  -34.9490   23.5130 C   0  0  0  0  0  0  0  0  0  0  0  0
  -26.5590  -34.8930   22.4710 O   0  0  0  0  0  0  0  0  0  0  0  0
  -25.0000  -33.9820   25.0470 H   0  0  0  0  0  0  0  0  0  0  0  0
  -24.1470  -36.7340   23.2640 C   0  0  0  0  0  1  0  0  0  0  0  0
  -25.4090  -36.3130   24.0330 C   0  0  0  0  0  3  0  0  0  0  0  0
  -27.5570  -37.1810   24.8460 C   0  0  0  0  0  1  0  0  0  0  0  0
  -26.4280  -37.3800   23.9410 N   0  0  0  0  0  0  0  0  0  0  0  0
  -26.0190  -38.2890   24.1410 H   0  0  0  0  0  0  0  0  0  0  0  0
  -26.4470  -31.6620   25.0730 C   0  0  1  0  0  0  0  0  0  0  0  0
  -25.3790  -31.3670   26.1510 C   0  0  0  0  0  1  0  0  0  0  0  0
  -27.0250  -30.3060   24.6050 C   0  0  0  0  0  1  0  0  0  0  0  0
  -27.6050  -32.4340   25.7490 C   0  0  0  0  0  1  0  0  0  0  0  0
  1  2  1  0
  1  4  1  0
  3  1  1  0
  4  5  1  0
  5  6  1  0
  7  6  1  0
  8  7  1  0
  9  8  1  0
 10  9  1  0
 11 10  1  0
 12 11  1  0
 12 13  1  0
 13 14  1  0
 15 16  1  0
 15 14  1  0
 17 16  1  0
 18 17  1  0
 19 18  1  0
 20 19  1  0
 21 29  1  0
 22 27  1  0
 23 24  1  0
 23 22  1  0
 25 24  1  0
 25 34  1  0
 25 26  1  0
 27 21  1  0
 27 26  1  0
 28 21  2  0
 29 20  1  0
 29 30  1  0
 31 32  2  0
 32 51  1  0
 33 32  1  0
 33 36  1  0
 34 31  1  0
 34 35  1  0
 35 33  2  0
 36 37  1  0
 37 38  2  0
 39 42  1  0
 39 38  1  0
 40 39  2  0
 41 40  1  0
 41 36  2  0
 42 43  1  0
 43 44  1  0
 44 45  2  0
 46 45  1  0
 46 50  1  0
 47 46  2  0
 48 43  2  0
 48 47  1  0
 49 48  1  0
 51 52  1  0
 52 55  1  0
 52 54  1  0
 53 51  2  0
 56 57  1  0
 56 31  1  0
 58 56  1  0
 59  1  1  0
 60 59  1  0
 61 60  1  0
 62 61  1  0
 63 62  1  0
 64 63  1  0
 65 64  1  0
 66 67  1  0
 66 65  1  0
 68 67  1  0
 68 69  1  0
 69 70  1  0
 71 72  1  0
 71 70  1  0
 73 72  1  0
 74 73  1  0
 75 86  2  0
 76 74  1  0
 76 81  1  0
 77 85  1  0
 77 87  1  0
 78 84  1  0
 78 80  1  0
 79 85  1  0
 80 79  1  0
 81 80  2  0
 82 83  1  0
 82 76  2  0
 83 78  2  0
 84 77  1  0
 85 75  1  0
 87 89  2  0
 88 87  1  0
 90 88  1  0
 91100  2  0
 91 96  1  0
 92 88  1  0
 92 96  1  0
 93 92  1  0
 94 95  1  0
 94 93  1  0
 95 91  1  0
 96 97  2  0
 97 98  1  0
 99 98  2  0
100 99  1  0
101 75  1  0
101102  1  0
101111  1  0
102105  1  0
103107  1  0
103102  1  0
104103  2  0
107106  1  0
109107  1  0
109110  1  0
109108  1  0
111114  1  1
111112  1  0
113111  1  0
M  ISO  4  21 100  29 100  73 101  74 101
M  END
>  <TORSDO>  (32) 
F 48

>  <SCORE>  (32) 
61.008

>  <name>  (32) 
37

>  <ligand_id>  (32) 
37

>  <original_smiles>  (32) 
[H]c1c([H])c([H])c2c(c1[H])C([H])([H])C([H])([H])C([H])([H])C2([H])N([H])C(=O)C1([H])N(C(=O)C([H])(N([H])C(=O)C([H])(N([H])C([H])([H])[H])C([H])([H])[H])C(C([H])([H])[H])(C([H])([H])[H])C([H])([H])[H])C([H])([H])c2c([H])c(OOC([H])([H])C([H])([H])OC([H])([H])C([H])([H])OC([H])([H])C([H])([H])OC([H])([H])C([H])([H])OC([H])([H])C([H])([H])[N+]([H])([H])C([H])([H])C([H])([H])OC([H])([H])C([H])([H])OC([H])([H])C([H])([H])OC([H])([H])C([H])([H])OC([H])([H])C([H])([H])OC([H])([H])C([H])([H])N([H])C(=O)N3C([H])([H])C([H])([H])C([H])([H])C([H])(n4nc(-c5c([H])c([H])c(Oc6c([H])c([H])c(F)c([H])c6F)c([H])c5[H])c(C(=O)N([H])[H])c4N([H])[H])C3([H])[H])c([H])c([H])c2C1([H])[H]

>  <smiles>  (32) 
[H]c1c([H])c([H])c2c(c1[H])C([H])([H])C([H])([H])C([H])([H])C2([H])N([H])C(=O)C1([H])N(C(=O)C([H])(N([H])C(=O)C([H])(N([H])C([H])([H])[H])C([H])([H])[H])C(C([H])([H])[H])(C([H])([H])[H])C([H])([H])[H])C([H])([H])c2c([H])c(OOC([H])([H])C([H])([H])OC([H])([H])C([H])([H])OC([H])([H])C([H])([H])OC([H])([H])C([H])([H])OC([H])([H])C([H])([H])[N+]([H])([H])C([H])([H])C([H])([H])OC([H])([H])C([H])([H])OC([H])([H])C([H])([H])OC([H])([H])C([H])([H])OC([H])([H])C([H])([H])OC([H])([H])C([H])([H])N([H])C(=O)N3C([H])([H])C([H])([H])C([H])([H])C([H])(n4nc(-c5c([H])c([H])c(Oc6c([H])c([H])c(F)c([H])c6F)c([H])c5[H])c(C(=O)N([H])[H])c4N([H])[H])C3([H])[H])c([H])c([H])c2C1([H])[H]

$$$$
39:0:0
     RDKit          3D

 99106  0  0  1  0  0  0  0  0999 V2000
  -27.1280  -25.6680   25.3820 C   0  0  0  0  0  2  0  0  0  0  0  0
  -27.6600  -24.3120   25.1020 N   0  0  0  0  0  4  0  0  0  0  0  0
  -27.2880  -23.6600   25.7770 H   0  0  0  0  0  0  0  0  0  0  0  0
  -27.3420  -24.0300   24.1790 H   0  0  0  0  0  0  0  0  0  0  0  0
  -29.1380  -24.2310   25.1270 C   0  0  0  0  0  2  0  0  0  0  0  0
  -29.6490  -22.7840   25.2130 C   0  0  0  0  0  2  0  0  0  0  0  0
  -29.2550  -22.0210   24.0710 O   0  0  0  0  0  0  0  0  0  0  0  0
  -29.9060  -20.7500   24.0590 C   0  0  0  0  0  2  0  0  0  0  0  0
  -29.3880  -19.8300   22.9400 C   0  0  0  0  0  2  0  0  0  0  0  0
  -30.2390  -18.6880   22.8700 O   0  0  0  0  0  0  0  0  0  0  0  0
  -29.7160  -17.6070   22.1050 C   0  0  0  0  0  2  0  0  0  0  0  0
  -30.7640  -16.4760   22.0720 C   0  0  0  0  0  2  0  0  0  0  0  0
  -30.7390  -14.3910   20.6770 C   0  0  0  0  0  0  0  0  0  0  0  0
  -30.4200  -12.3000   19.3990 C   0  0  0  0  0  2  0  0  0  0  0  0
  -29.4860  -12.5300   18.1950 C   0  0  0  0  0  2  0  0  0  0  0  0
  -28.0090  -12.3820   18.6090 C   0  0  0  0  0  2  0  0  0  0  0  0
  -27.6650  -13.2010   19.8810 C   0  0  0  0  0  3  0  0  0  0  0  0
  -28.7010  -12.9360   20.9940 C   0  0  0  0  0  2  0  0  0  0  0  0
  -30.0410  -13.2460   20.4590 N   0  0  0  0  0  0  0  0  0  0  0  0
  -31.7880  -14.6710   20.0910 O   0  0  0  0  0  0  0  0  0  0  0  0
  -30.2020  -15.2120   21.5890 N   0  0  0  0  0  0  0  0  0  0  0  0
  -29.3460  -14.8970   22.0190 H   0  0  0  0  0  0  0  0  0  0  0  0
  -25.2590  -13.8150   20.5660 C   0  0  0  0  0  0  0  0  0  0  0  0
  -24.1830  -13.0430   20.9160 C   0  0  0  0  0  0  0  0  0  0  0  0
  -24.6380  -11.6900   20.8720 C   0  0  0  0  0  0  0  0  0  0  0  0
  -26.3020  -12.9310   20.3380 N   0  0  0  0  0  0  0  0  0  0  0  0
  -25.9300  -11.6470   20.5750 N   0  0  0  0  0  0  0  0  0  0  0  0
  -23.9050  -10.4290   21.0400 C   0  0  0  0  0  0  0  0  0  0  0  0
  -24.3610   -9.4210   21.9180 C   0  0  0  0  0  3  0  0  0  0  0  0
  -23.6290   -8.2240   22.0760 C   0  0  0  0  0  3  0  0  0  0  0  0
  -22.4280   -8.0280   21.3550 C   0  0  0  0  0  0  0  0  0  0  0  0
  -21.9910   -9.0250   20.4650 C   0  0  0  0  0  3  0  0  0  0  0  0
  -22.7220  -10.2130   20.3050 C   0  0  0  0  0  3  0  0  0  0  0  0
  -21.6640   -6.8880   21.4250 O   0  0  0  0  0  0  0  0  0  0  0  0
  -21.6840   -6.0730   22.5280 C   0  0  0  0  0  0  0  0  0  0  0  0
  -21.4010   -6.5640   23.8220 C   0  0  0  0  0  3  0  0  0  0  0  0
  -21.3660   -5.6790   24.9180 C   0  0  0  0  0  3  0  0  0  0  0  0
  -21.6040   -4.3060   24.7230 C   0  0  0  0  0  0  0  0  0  0  0  0
  -21.8820   -3.8150   23.4350 C   0  0  0  0  0  3  0  0  0  0  0  0
  -21.9190   -4.6960   22.3400 C   0  0  0  0  0  0  0  0  0  0  0  0
  -22.1660   -4.2150   21.0980 F   0  0  0  0  0  0  0  0  0  0  0  0
  -21.5640   -3.4550   25.7740 F   0  0  0  0  0  0  0  0  0  0  0  0
  -22.7860  -13.5240   21.1830 C   0  0  0  0  0  0  0  0  0  0  0  0
  -22.0500  -12.8220   22.0390 N   0  0  0  0  0  0  0  0  0  0  0  0
  -22.3550  -14.5550   20.6700 O   0  0  0  0  0  0  0  0  0  0  0  0
  -22.4130  -11.9880   22.4740 H   0  0  0  0  0  0  0  0  0  0  0  0
  -21.1120  -13.1250   22.2610 H   0  0  0  0  0  0  0  0  0  0  0  0
  -25.4340  -15.1860   20.4080 N   0  0  0  0  0  0  0  0  0  0  0  0
  -24.6740  -15.8480   20.5170 H   0  0  0  0  0  0  0  0  0  0  0  0
  -26.2950  -15.6210   20.0980 H   0  0  0  0  0  0  0  0  0  0  0  0
  -25.5920  -25.7110   25.4910 C   0  0  0  0  0  2  0  0  0  0  0  0
  -24.9760  -25.6140   24.2110 O   0  0  0  0  0  0  0  0  0  0  0  0
  -24.7100  -24.2890   23.7680 C   0  0  0  0  0  2  0  0  0  0  0  0
  -25.3030  -24.1270   22.3640 C   0  0  0  0  0  2  0  0  0  0  0  0
  -26.7220  -24.2280   22.4550 O   0  0  0  0  0  0  0  0  0  0  0  0
  -27.3540  -24.0850   21.1870 C   0  0  0  0  0  2  0  0  0  0  0  0
  -28.7440  -24.7320   21.2150 C   0  0  0  0  0  2  0  0  0  0  0  0
  -28.6830  -26.1450   21.3670 O   0  0  0  0  0  0  0  0  0  0  0  0
  -28.3990  -26.7590   20.0270 O   0  0  0  0  0  0  0  0  0  0  0  0
  -24.6100  -31.8720   23.2140 C   0  0  0  0  0  0  0  0  0  0  0  0
  -27.2330  -27.4720   20.0900 C   0  0  0  0  0  0  0  0  0  0  0  0
  -23.3940  -30.4960   21.5540 C   0  0  0  0  0  3  0  0  0  0  0  0
  -24.8410  -28.9620   20.1220 C   0  0  0  0  0  0  0  0  0  0  0  0
  -25.9190  -30.8430   21.3650 C   0  0  0  0  0  2  0  0  0  0  0  0
  -25.9960  -29.4770   20.7230 C   0  0  0  0  0  0  0  0  0  0  0  0
  -27.1940  -28.7330   20.7190 C   0  0  0  0  0  3  0  0  0  0  0  0
  -26.0710  -26.9670   19.4740 C   0  0  0  0  0  3  0  0  0  0  0  0
  -24.8700  -27.7010   19.5010 C   0  0  0  0  0  3  0  0  0  0  0  0
  -23.6010  -29.8250   20.1690 C   0  0  0  0  0  2  0  0  0  0  0  0
  -24.6580  -31.0850   22.1030 N   0  0  0  0  0  0  0  0  0  0  0  0
  -23.5310  -32.1480   23.7560 O   0  0  0  0  0  0  0  0  0  0  0  0
  -22.7360  -29.4700   22.5030 C   0  0  0  0  0  0  0  0  0  0  0  0
  -21.4110  -29.3020   22.3730 N   0  0  0  0  0  0  0  0  0  0  0  0
  -23.4160  -28.8260   23.3060 O   0  0  0  0  0  0  0  0  0  0  0  0
  -20.9260  -29.8720   21.6960 H   0  0  0  0  0  0  0  0  0  0  0  0
  -18.0280  -28.1360   22.8500 C   0  0  0  0  0  0  0  0  0  0  0  0
  -20.5870  -28.3650   23.1330 C   0  0  0  0  0  3  0  0  0  0  0  0
  -20.6780  -26.9380   22.5450 C   0  0  0  0  0  2  0  0  0  0  0  0
  -19.5770  -26.6340   21.5250 C   0  0  0  0  0  2  0  0  0  0  0  0
  -18.1940  -26.7890   22.1650 C   0  0  0  0  0  2  0  0  0  0  0  0
  -19.1530  -28.8820   23.2910 C   0  0  0  0  0  0  0  0  0  0  0  0
  -18.9470  -30.1440   23.8890 C   0  0  0  0  0  3  0  0  0  0  0  0
  -17.6470  -30.6580   24.0550 C   0  0  0  0  0  3  0  0  0  0  0  0
  -16.5360  -29.9090   23.6330 C   0  0  0  0  0  3  0  0  0  0  0  0
  -16.7270  -28.6500   23.0350 C   0  0  0  0  0  3  0  0  0  0  0  0
  -25.9030  -32.4830   23.8400 C   0  0  0  0  0  3  0  0  0  0  0  0
  -25.5940  -33.8630   24.2350 N   0  0  0  0  0  0  0  0  0  0  0  0
  -25.9050  -34.9480   23.5140 C   0  0  0  0  0  0  0  0  0  0  0  0
  -26.5590  -34.8920   22.4680 O   0  0  0  0  0  0  0  0  0  0  0  0
  -25.0140  -33.9810   25.0530 H   0  0  0  0  0  0  0  0  0  0  0  0
  -24.1500  -36.7300   23.2640 C   0  0  0  0  0  1  0  0  0  0  0  0
  -25.4120  -36.3120   24.0340 C   0  0  0  0  0  3  0  0  0  0  0  0
  -27.5580  -37.1810   24.8460 C   0  0  0  0  0  1  0  0  0  0  0  0
  -26.4300  -37.3800   23.9400 N   0  0  0  0  0  0  0  0  0  0  0  0
  -26.0200  -38.2880   24.1410 H   0  0  0  0  0  0  0  0  0  0  0  0
  -26.4490  -31.6580   25.0700 C   0  0  1  0  0  0  0  0  0  0  0  0
  -25.3770  -31.3670   26.1450 C   0  0  0  0  0  1  0  0  0  0  0  0
  -27.0310  -30.3020   24.6060 C   0  0  0  0  0  1  0  0  0  0  0  0
  -27.6070  -32.4280   25.7460 C   0  0  0  0  0  1  0  0  0  0  0  0
  1 51  1  0
  2  5  1  0
  2  1  1  0
  2  3  1  0
  4  2  1  0
  5  6  1  0
  7  6  1  0
  8  7  1  0
  9  8  1  0
 10  9  1  0
 11 10  1  0
 12 11  1  0
 13 21  1  0
 14 19  1  0
 15 16  1  0
 15 14  1  0
 17 16  1  0
 17 26  1  0
 17 18  1  0
 19 13  1  0
 19 18  1  0
 20 13  2  0
 21 22  1  0
 21 12  1  0
 23 24  2  0
 24 43  1  0
 25 24  1  0
 25 28  1  0
 26 23  1  0
 26 27  1  0
 27 25  2  0
 28 29  1  0
 29 30  2  0
 31 34  1  0
 31 30  1  0
 32 31  2  0
 33 32  1  0
 33 28  2  0
 34 35  1  0
 35 36  1  0
 36 37  2  0
 38 37  1  0
 38 42  1  0
 39 38  2  0
 40 35  2  0
 40 39  1  0
 41 40  1  0
 43 44  1  0
 44 47  1  0
 44 46  1  0
 45 43  2  0
 48 49  1  0
 48 23  1  0
 50 48  1  0
 52 51  1  0
 53 52  1  0
 54 55  1  0
 54 53  1  0
 56 57  1  0
 56 55  1  0
 57 58  1  0
 59 61  1  0
 59 58  1  0
 60 71  2  0
 61 66  1  0
 62 70  1  0
 62 72  1  0
 63 69  1  0
 63 65  1  0
 64 70  1  0
 65 64  1  0
 66 65  2  0
 67 68  1  0
 67 61  2  0
 68 63  2  0
 69 62  1  0
 70 60  1  0
 72 74  2  0
 73 72  1  0
 75 73  1  0
 76 85  2  0
 76 81  1  0
 77 73  1  0
 77 81  1  0
 78 77  1  0
 79 80  1  0
 79 78  1  0
 80 76  1  0
 81 82  2  0
 82 83  1  0
 84 83  2  0
 85 84  1  0
 86 60  1  0
 86 87  1  0
 86 96  1  0
 87 90  1  0
 88 92  1  0
 88 87  1  0
 89 88  2  0
 92 91  1  0
 94 92  1  0
 94 95  1  0
 94 93  1  0
 96 99  1  1
 96 97  1  0
 98 96  1  0
M  ISO  4  13 100  21 100  58 101  59 101
M  END
>  <TORSDO>  (33) 
F 33

>  <SCORE>  (33) 
-3.203

>  <name>  (33) 
39

>  <ligand_id>  (33) 
39

>  <original_smiles>  (33) 
[H]c1c([H])c([H])c2c(c1[H])C([H])([H])C([H])([H])C([H])([H])C2([H])N([H])C(=O)C1([H])N(C(=O)C([H])(N([H])C(=O)C([H])(N([H])C([H])([H])[H])C([H])([H])[H])C(C([H])([H])[H])(C([H])([H])[H])C([H])([H])[H])C([H])([H])c2c([H])c(OOC([H])([H])C([H])([H])OC([H])([H])C([H])([H])OC([H])([H])C([H])([H])[N+]([H])([H])C([H])([H])C([H])([H])OC([H])([H])C([H])([H])OC([H])([H])C([H])([H])N([H])C(=O)N3C([H])([H])C([H])([H])C([H])([H])C([H])(n4nc(-c5c([H])c([H])c(Oc6c([H])c([H])c(F)c([H])c6F)c([H])c5[H])c(C(=O)N([H])[H])c4N([H])[H])C3([H])[H])c([H])c([H])c2C1([H])[H]

>  <smiles>  (33) 
[H]c1c([H])c([H])c2c(c1[H])C([H])([H])C([H])([H])C([H])([H])C2([H])N([H])C(=O)C1([H])N(C(=O)C([H])(N([H])C(=O)C([H])(N([H])C([H])([H])[H])C([H])([H])[H])C(C([H])([H])[H])(C([H])([H])[H])C([H])([H])[H])C([H])([H])c2c([H])c(OOC([H])([H])C([H])([H])OC([H])([H])C([H])([H])OC([H])([H])C([H])([H])[N+]([H])([H])C([H])([H])C([H])([H])OC([H])([H])C([H])([H])OC([H])([H])C([H])([H])N([H])C(=O)N3C([H])([H])C([H])([H])C([H])([H])C([H])(n4nc(-c5c([H])c([H])c(Oc6c([H])c([H])c(F)c([H])c6F)c([H])c5[H])c(C(=O)N([H])[H])c4N([H])[H])C3([H])[H])c([H])c([H])c2C1([H])[H]

$$$$
41:0:0
     RDKit          3D

108107  0  0  1  0  0  0  0  0999 V2000
  -19.7080  -13.4500   19.0720 C   0  0  0  0  0  2  0  0  0  0  0  0
  -19.4210  -14.5300   20.0140 O   0  0  0  0  0  0  0  0  0  0  0  0
  -18.6920  -14.0680   21.1840 C   0  0  0  0  0  3  0  0  0  0  0  0
  -18.7070  -14.8610   22.5530 C   0  0  0  0  0  3  0  0  0  0  0  0
  -19.5970  -15.9780   22.6580 O   0  0  0  0  0  0  0  0  0  0  0  0
  -19.0080  -17.2780   22.8740 C   0  0  0  0  0  2  0  0  0  0  0  0
  -20.1100  -18.3270   23.1930 C   0  0  0  0  0  2  0  0  0  0  0  0
  -19.6960  -19.6370   23.7040 O   0  0  0  0  0  0  0  0  0  0  0  0
  -20.0030  -20.8430   22.9230 C   0  0  0  0  0  2  0  0  0  0  0  0
  -19.2600  -22.1830   23.4070 C   0  0  0  0  0  2  0  0  0  0  0  0
  -19.9280  -23.5240   23.3370 O   0  0  0  0  0  0  0  0  0  0  0  0
  -19.1340  -24.7850   23.2340 C   0  0  0  0  0  2  0  0  0  0  0  0
  -19.8220  -26.3530   23.2770 C   0  0  0  0  0  1  0  0  0  0  0  0
  -21.4150  -27.5590   21.5410 O   0  0  0  0  0 15  0  0  0  0  0  0
  -23.7150  -26.8720   21.2230 O   0  0  0  0  0  1  0  0  0  0  0  0
  -24.6510  -31.9310   23.2260 C   0  0  0  0  0  0  0  0  0  0  0  0
  -25.1700  -27.2870   20.8340 C   0  0  0  0  0  3  0  0  0  0  0  0
  -23.4380  -30.5750   21.5830 C   0  0  0  0  0  3  0  0  0  0  0  0
  -24.8290  -29.3780   19.7090 C   0  0  0  0  0  3  0  0  0  0  0  0
  -25.9460  -30.8420   21.3870 C   0  0  0  0  0  2  0  0  0  0  0  0
  -25.8340  -29.5190   20.6810 C   0  0  0  0  0  3  0  0  0  0  0  0
  -26.1170  -28.2920   21.2960 C   0  0  0  0  0  2  0  0  0  0  0  0
  -25.4440  -27.0470   19.4930 C   0  0  0  0  0  2  0  0  0  0  0  0
  -24.7950  -28.1650   18.9590 C   0  0  0  0  0  2  0  0  0  0  0  0
  -23.5450  -30.0750   20.0810 C   0  0  0  0  0  2  0  0  0  0  0  0
  -24.6920  -31.1890   22.0830 N   0  0  0  0  0  0  0  0  0  0  0  0
  -23.5670  -32.1970   23.7650 O   0  0  0  0  0  0  0  0  0  0  0  0
  -23.0370  -29.5130   22.6450 C   0  0  0  0  0  0  0  0  0  0  0  0
  -21.7930  -29.3900   22.9950 N   0  0  0  0  0  0  0  0  0  0  0  0
  -23.8550  -28.8400   23.2750 O   0  0  0  0  0  0  0  0  0  0  0  0
  -21.0850  -29.8920   22.4800 H   0  0  0  0  0  0  0  0  0  0  0  0
  -18.7070  -28.2160   22.1370 C   0  0  0  0  0  0  0  0  0  0  0  0
  -21.2810  -28.1690   23.6500 C   0  0  0  0  0  2  0  0  0  0  0  0
  -22.0130  -26.1850   23.0250 C   0  0  0  0  0 15  0  0  0  0  0  0
  -20.7340  -25.5710   21.3200 C   0  0  0  0  0 15  0  0  0  0  0  0
  -19.1630  -26.8310   21.0700 C   0  0  0  0  0  1  0  0  0  0  0  0
  -19.6770  -28.8190   23.1800 C   0  0  0  0  0  0  0  0  0  0  0  0
  -19.1640  -29.9340   23.9540 C   0  0  0  0  0  3  0  0  0  0  0  0
  -17.8240  -30.3690   23.9700 C   0  0  0  0  0  3  0  0  0  0  0  0
  -16.8720  -29.6260   23.2700 C   0  0  0  0  0  3  0  0  0  0  0  0
  -17.3070  -28.5710   22.4080 C   0  0  0  0  0  3  0  0  0  0  0  0
  -25.9360  -32.5010   23.8600 C   0  0  0  0  0  3  0  0  0  0  0  0
  -26.4560  -31.6650   25.0910 C   0  0  1  0  0  0  0  0  0  0  0  0
  -25.3770  -31.3690   26.1630 C   0  0  0  0  0  1  0  0  0  0  0  0
  -27.0400  -30.3060   24.6450 C   0  0  0  0  0  1  0  0  0  0  0  0
  -27.6180  -32.4260   25.7710 C   0  0  0  0  0  1  0  0  0  0  0  0
  -25.6290  -33.8790   24.2570 N   0  0  0  0  0  0  0  0  0  0  0  0
  -25.9120  -34.9550   23.5190 C   0  0  0  0  0  0  0  0  0  0  0  0
  -26.5540  -34.8960   22.4670 O   0  0  0  0  0  0  0  0  0  0  0  0
  -25.0630  -33.9880   25.0820 H   0  0  0  0  0  0  0  0  0  0  0  0
  -24.1510  -36.7370   23.2640 C   0  0  0  0  0  1  0  0  0  0  0  0
  -25.4120  -36.3210   24.0380 C   0  0  0  0  0  3  0  0  0  0  0  0
  -27.5630  -37.1910   24.8480 C   0  0  0  0  0  1  0  0  0  0  0  0
  -26.4310  -37.3890   23.9450 N   0  0  0  0  0  0  0  0  0  0  0  0
  -26.0190  -38.2960   24.1460 H   0  0  0  0  0  0  0  0  0  0  0  0
  -20.8260  -13.5910   17.9780 C   0  0  0  0  0  2  0  0  0  0  0  0
  -22.1130  -12.9430   18.2380 O   0  0  0  0  0  0  0  0  0  0  0  0
  -23.0270  -12.8590   17.1070 C   0  0  0  0  0  2  0  0  0  0  0  0
  -24.2250  -11.8010   17.1920 C   0  0  0  0  0  2  0  0  0  0  0  0
  -25.3750  -11.9730   18.0860 O   0  0  0  0  0  0  0  0  0  0  0  0
  -26.5820  -11.1640   17.8080 C   0  0  0  0  0  2  0  0  0  0  0  0
  -27.9300  -10.7650   18.6920 C   0  0  0  0  0  3  0  0  0  0  0  0
  -29.8580  -12.8750   20.1050 C   0  0  2  0  0  0  0  0  0  0  0  0
  -30.9790  -12.2160   19.1580 C   0  0  0  0  0  1  0  0  0  0  0  0
  -29.7950  -12.8240   17.7620 C   0  0  0  0  0  1  0  0  0  0  0  0
  -28.1810  -13.5010   18.2970 C   0  0  0  0  0  2  0  0  0  0  0  0
  -27.6380  -13.6410   20.0390 C   0  0  0  0  0  2  0  0  0  0  0  0
  -28.8930  -13.1280   21.3370 C   0  0  0  0  0  1  0  0  0  0  0  0
  -30.4030  -12.4310   20.8230 N   0  0  0  0  0  1  0  0  0  0  0  0
  -30.2790  -14.1930   19.8820 O   0  0  0  0  0  1  0  0  0  0  0  0
  -28.9210  -11.5230   19.7300 N   0  0  0  0  0  2  0  0  0  0  0  0
  -29.1160  -10.8550   20.4690 H   0  0  0  0  0  0  0  0  0  0  0  0
  -25.1850  -13.9330   20.5920 C   0  0  0  0  0  0  0  0  0  0  0  0
  -24.1530  -13.1180   20.9710 C   0  0  0  0  0  0  0  0  0  0  0  0
  -24.6550  -11.7770   20.9630 C   0  0  0  0  0  0  0  0  0  0  0  0
  -26.2880  -13.1330   20.4270 N   0  0  0  0  0  0  0  0  0  0  0  0
  -25.9820  -11.8230   20.7480 N   0  0  0  0  0  0  0  0  0  0  0  0
  -23.9330  -10.4800   21.0780 C   0  0  0  0  0  0  0  0  0  0  0  0
  -24.4820   -9.3740   21.7710 C   0  0  0  0  0  3  0  0  0  0  0  0
  -23.7420   -8.1790   21.9330 C   0  0  0  0  0  3  0  0  0  0  0  0
  -22.4830   -8.0350   21.3120 C   0  0  0  0  0  0  0  0  0  0  0  0
  -21.9690   -9.0890   20.5350 C   0  0  0  0  0  3  0  0  0  0  0  0
  -22.6600  -10.3180   20.4600 C   0  0  0  0  0  3  0  0  0  0  0  0
  -21.7610   -6.8670   21.3610 O   0  0  0  0  0  0  0  0  0  0  0  0
  -21.7420   -6.0650   22.4780 C   0  0  0  0  0  0  0  0  0  0  0  0
  -21.4580   -6.5800   23.7650 C   0  0  0  0  0  3  0  0  0  0  0  0
  -21.3780   -5.7090   24.8710 C   0  0  0  0  0  3  0  0  0  0  0  0
  -21.5970   -4.3290   24.6980 C   0  0  0  0  0  0  0  0  0  0  0  0
  -21.8780   -3.8150   23.4200 C   0  0  0  0  0  3  0  0  0  0  0  0
  -21.9360   -4.6780   22.3130 C   0  0  0  0  0  0  0  0  0  0  0  0
  -22.1840   -4.1700   21.0840 F   0  0  0  0  0  0  0  0  0  0  0  0
  -21.5240   -3.4900   25.7590 F   0  0  0  0  0  0  0  0  0  0  0  0
  -22.7520  -13.5980   21.2010 C   0  0  0  0  0  0  0  0  0  0  0  0
  -21.9280  -12.8890   21.9630 N   0  0  0  0  0  0  0  0  0  0  0  0
  -22.3770  -14.6740   20.7660 O   0  0  0  0  0  0  0  0  0  0  0  0
  -22.1740  -12.0190   22.3790 H   0  0  0  0  0  0  0  0  0  0  0  0
  -21.0000  -13.2750   22.0770 H   0  0  0  0  0  0  0  0  0  0  0  0
  -25.2730  -15.3080   20.3900 N   0  0  0  0  0  0  0  0  0  0  0  0
  -24.4130  -15.8580   20.4250 H   0  0  0  0  0  0  0  0  0  0  0  0
  -26.0710  -15.8680   20.0880 H   0  0  0  0  0  0  0  0  0  0  0  0
  -28.6720   -9.6990   17.7990 C   0  0  0  0  0  2  0  0  0  0  0  0
  -28.7380   -9.7810   16.2020 C   0  0  0  0  0  3  0  0  0  0  0  0
  -27.7780   -8.8640   15.3510 C   0  0  0  0  0  3  0  0  0  0  0  0
  -27.8100   -8.9110   13.7740 C   0  0  0  0  0  2  0  0  0  0  0  0
  -26.9280   -9.8900   13.0820 N   0  0  0  0  0  4  0  0  0  0  0  0
  -25.9620   -9.7090   13.2700 H   0  0  0  0  0  0  0  0  0  0  0  0
  -27.0610   -9.7910   12.0830 H   0  0  0  0  0  0  0  0  0  0  0  0
  -27.1380  -10.8390   13.3060 H   0  0  0  0  0  0  0  0  0  0  0  0
  1  2  1  0
  2  3  1  0
  3  4  2  0
  4  5  1  0
  5  6  1  0
  6  7  1  0
  7  8  1  0
  9 10  1  0
  9  8  1  0
 11 10  1  0
 12 13  1  0
 12 11  1  0
 16 27  2  0
 17 15  1  0
 17 22  1  0
 18 26  1  0
 18 28  1  0
 19 24  1  0
 19 25  1  0
 19 21  1  0
 20 26  1  0
 21 22  1  0
 21 20  1  0
 23 17  1  0
 24 23  1  0
 25 18  1  0
 26 16  1  0
 28 29  1  0
 28 30  2  0
 29 33  1  0
 31 29  1  0
 32 41  2  0
 32 37  1  0
 36 32  1  0
 37 33  1  0
 37 38  2  0
 38 39  1  0
 40 39  2  0
 41 40  1  0
 42 16  1  0
 42 47  1  0
 42 43  1  0
 43 46  1  1
 43 44  1  0
 45 43  1  0
 47 50  1  0
 48 52  1  0
 48 47  1  0
 49 48  2  0
 52 51  1  0
 54 52  1  0
 54 55  1  0
 54 53  1  0
 56 57  1  0
 56  1  1  0
 58 59  1  0
 58 57  1  0
 59 60  1  0
 61 60  1  0
 61 62  1  0
 62101  1  0
 62 71  1  0
 63 69  1  0
 63 68  1  6
 64 63  1  0
 65 66  1  0
 66 67  1  0
 67 76  1  0
 70 63  1  0
 71 72  1  0
 73 74  2  0
 74 93  1  0
 75 74  1  0
 75 78  1  0
 76 73  1  0
 76 77  1  0
 77 75  2  0
 78 79  1  0
 79 80  2  0
 81 84  1  0
 81 80  1  0
 82 81  2  0
 83 82  1  0
 83 78  2  0
 84 85  1  0
 85 86  1  0
 86 87  2  0
 88 87  1  0
 88 92  1  0
 89 88  2  0
 90 85  2  0
 90 89  1  0
 91 90  1  0
 93 94  1  0
 94 97  1  0
 94 96  1  0
 95 93  2  0
 98 99  1  0
 98 73  1  0
100 98  1  0
102101  1  0
103102  2  0
104103  1  0
105106  1  0
105108  1  0
105104  1  0
107105  1  0
M  ISO  4  14 101  15 101  63 100  71 100
M  END
>  <TORSDO>  (34) 
F 41

>  <SCORE>  (34) 
62.671

>  <name>  (34) 
41

>  <ligand_id>  (34) 
41

>  <original_smiles>  (34) 
[H]c1c([H])c([H])c2c(c1[H])C([H])([H])C([H])([H])C([H])([H])C2([H])N([H])C(=O)C1([H])N(C(=O)C([H])(N([H])C(=O)C([H])(N([H])C([H])([H])[H])C([H])([H])[H])C(C([H])([H])[H])(C([H])([H])[H])C([H])([H])[H])C([H])([H])c2c([H])c(OOC([H])([H])C([H])([H])OC([H])([H])C([H])([H])OC([H])([H])C([H])([H])OC([H])([H])C([H])([H])OC([H])([H])C([H])([H])OC([H])([H])C([H])([H])OC([H])([H])C([H])(N([H])C(=O)N3C([H])([H])C([H])([H])C([H])([H])C([H])(n4nc(-c5c([H])c([H])c(Oc6c([H])c([H])c(F)c([H])c6F)c([H])c5[H])c(C(=O)N([H])[H])c4N([H])[H])C3([H])[H])C([H])([H])C([H])([H])C([H])([H])C([H])([H])[N+]([H])([H])[H])c([H])c([H])c2C1([H])[H]

>  <smiles>  (34) 
[H]c1c([H])c([H])c2c(c1[H])C([H])([H])C([H])([H])C([H])([H])C2([H])N([H])C(=O)C1([H])N(C(=O)C([H])(N([H])C(=O)C([H])(N([H])C([H])([H])[H])C([H])([H])[H])C(C([H])([H])[H])(C([H])([H])[H])C([H])([H])[H])C([H])([H])c2c([H])c(OOC([H])([H])C([H])([H])OC([H])([H])C([H])([H])OC([H])([H])C([H])([H])OC([H])([H])C([H])([H])OC([H])([H])C([H])([H])OC([H])([H])C([H])([H])OC([H])([H])C([H])(N([H])C(=O)N3C([H])([H])C([H])([H])C([H])([H])C([H])(n4nc(-c5c([H])c([H])c(Oc6c([H])c([H])c(F)c([H])c6F)c([H])c5[H])c(C(=O)N([H])[H])c4N([H])[H])C3([H])[H])C([H])([H])C([H])([H])C([H])([H])C([H])([H])[N+]([H])([H])[H])c([H])c([H])c2C1([H])[H]

$$$$
42:0:0
     RDKit          3D

109113  0  0  1  0  0  0  0  0999 V2000
  -29.4310  -19.7980   20.9370 C   0  0  0  0  0  2  0  0  0  0  0  0
  -29.8520  -20.8790   20.1120 O   0  0  0  0  0  0  0  0  0  0  0  0
  -29.3160  -22.1360   20.5100 C   0  0  0  0  0  2  0  0  0  0  0  0
  -28.6200  -22.7820   19.3020 C   0  0  0  0  0  2  0  0  0  0  0  0
  -27.2040  -22.6030   19.3630 O   0  0  0  0  0  0  0  0  0  0  0  0
  -26.6300  -21.8530   18.2900 C   0  0  0  0  0  2  0  0  0  0  0  0
  -26.2900  -20.4140   18.7150 C   0  0  0  0  0  2  0  0  0  0  0  0
  -27.3070  -19.5030   18.3180 O   0  0  0  0  0  0  0  0  0  0  0  0
  -27.4920  -19.3940   16.9110 C   0  0  0  0  0  2  0  0  0  0  0  0
  -28.9840  -19.4880   16.5480 C   0  0  0  0  0  2  0  0  0  0  0  0
  -29.4600  -20.8340   16.6830 O   0  0  0  0  0  0  0  0  0  0  0  0
  -30.8840  -20.9930   16.7800 C   0  0  0  0  0  2  0  0  0  0  0  0
  -31.4670  -21.2840   15.3900 C   0  0  0  0  0  2  0  0  0  0  0  0
  -32.6300  -22.1050   15.2760 O   0  0  0  0  0  0  0  0  0  0  0  0
  -33.1840  -21.9580   13.8580 O   0  0  0  0  0  0  0  0  0  0  0  0
  -32.0300  -28.9310   13.1330 C   0  0  0  0  0  0  0  0  0  0  0  0
  -32.7050  -22.9730   13.0650 C   0  0  0  0  0  0  0  0  0  0  0  0
  -30.7590  -27.4520   11.6030 C   0  0  0  0  0  3  0  0  0  0  0  0
  -31.5370  -25.0260   11.5230 C   0  0  0  0  0  0  0  0  0  0  0  0
  -33.0430  -26.7530   12.5180 C   0  0  0  0  0  2  0  0  0  0  0  0
  -32.5710  -25.3220   12.4220 C   0  0  0  0  0  0  0  0  0  0  0  0
  -33.1350  -24.3060   13.2250 C   0  0  0  0  0  3  0  0  0  0  0  0
  -31.7350  -22.6760   12.0850 C   0  0  0  0  0  3  0  0  0  0  0  0
  -31.1070  -23.7000   11.3580 C   0  0  0  0  0  3  0  0  0  0  0  0
  -30.9440  -26.1760   10.7420 C   0  0  0  0  0  2  0  0  0  0  0  0
  -31.9480  -27.7450   12.4680 N   0  0  0  0  0  0  0  0  0  0  0  0
  -31.1520  -29.7950   13.0090 O   0  0  0  0  0  0  0  0  0  0  0  0
  -29.4460  -27.3260   12.4080 C   0  0  0  0  0  0  0  0  0  0  0  0
  -28.3200  -27.1370   11.7000 N   0  0  0  0  0  0  0  0  0  0  0  0
  -29.4570  -27.3730   13.6410 O   0  0  0  0  0  0  0  0  0  0  0  0
  -28.3750  -27.1620   10.6910 H   0  0  0  0  0  0  0  0  0  0  0  0
  -24.9440  -26.1550   10.8770 C   0  0  0  0  0  0  0  0  0  0  0  0
  -26.9830  -26.9380   12.2520 C   0  0  0  0  0  3  0  0  0  0  0  0
  -26.8750  -25.5870   12.9950 C   0  0  0  0  0  2  0  0  0  0  0  0
  -26.3370  -24.4550   12.1200 C   0  0  0  0  0  2  0  0  0  0  0  0
  -24.9500  -24.8130   11.5830 C   0  0  0  0  0  2  0  0  0  0  0  0
  -25.9080  -27.1510   11.1820 C   0  0  0  0  0  0  0  0  0  0  0  0
  -25.8930  -28.3660   10.4660 C   0  0  0  0  0  3  0  0  0  0  0  0
  -24.9260  -28.6030    9.4730 C   0  0  0  0  0  3  0  0  0  0  0  0
  -23.9600  -27.6230    9.1900 C   0  0  0  0  0  3  0  0  0  0  0  0
  -23.9690  -26.4040    9.8900 C   0  0  0  0  0  3  0  0  0  0  0  0
  -33.2440  -29.2640   14.0570 C   0  0  0  0  0  3  0  0  0  0  0  0
  -32.8440  -29.4290   15.5750 C   0  0  1  0  0  0  0  0  0  0  0  0
  -31.9110  -30.6300   15.8380 C   0  0  0  0  0  1  0  0  0  0  0  0
  -32.1410  -28.1560   16.1040 C   0  0  0  0  0  1  0  0  0  0  0  0
  -34.1140  -29.6190   16.4350 C   0  0  0  0  0  1  0  0  0  0  0  0
  -33.8640  -30.4880   13.5410 N   0  0  0  0  0  0  0  0  0  0  0  0
  -34.9050  -30.5170   12.6960 C   0  0  0  0  0  0  0  0  0  0  0  0
  -35.4950  -29.5000   12.3240 O   0  0  0  0  0  0  0  0  0  0  0  0
  -33.3920  -31.3550   13.7520 H   0  0  0  0  0  0  0  0  0  0  0  0
  -34.8840  -32.0890   10.7340 C   0  0  0  0  0  1  0  0  0  0  0  0
  -35.3590  -31.8950   12.1820 C   0  0  0  0  0  3  0  0  0  0  0  0
  -37.3130  -32.2820   13.6190 C   0  0  0  0  0  1  0  0  0  0  0  0
  -36.8210  -32.0980   12.2560 N   0  0  0  0  0  0  0  0  0  0  0  0
  -37.0940  -32.9070   11.7060 H   0  0  0  0  0  0  0  0  0  0  0  0
  -30.4850  -18.6800   20.8880 C   0  0  0  0  0  2  0  0  0  0  0  0
  -30.8560  -18.3560   19.5500 O   0  0  0  0  0  0  0  0  0  0  0  0
  -32.2710  -18.3560   19.3700 C   0  0  0  0  0  2  0  0  0  0  0  0
  -32.8510  -16.9560   19.6380 C   0  0  0  0  0  2  0  0  0  0  0  0
  -31.7850  -16.0870   20.0230 O   0  0  0  0  0  0  0  0  0  0  0  0
  -32.0910  -14.6930   19.9860 C   0  0  0  0  0  2  0  0  0  0  0  0
  -33.5090  -14.4750   19.4310 C   0  0  0  0  0  2  0  0  0  0  0  0
  -33.8890  -13.0960   19.3200 O   0  0  0  0  0  0  0  0  0  0  0  0
  -34.1430  -12.7820   17.9510 C   0  0  0  0  0  2  0  0  0  0  0  0
  -35.2670  -11.7630   17.6540 C   0  0  0  0  0  2  0  0  0  0  0  0
  -35.2930  -11.5950   16.2330 O   0  0  0  0  0  0  0  0  0  0  0  0
  -36.5580  -11.3280   15.6260 C   0  0  0  0  0  2  0  0  0  0  0  0
  -36.6070  -11.9340   14.1910 C   0  0  0  0  0  2  0  0  0  0  0  0
  -36.9100  -13.3320   14.2590 O   0  0  0  0  0  0  0  0  0  0  0  0
  -36.4100  -14.1920   13.2230 C   0  0  0  0  0  2  0  0  0  0  0  0
  -36.5100  -15.6960   13.6570 C   0  0  0  0  0  2  0  0  0  0  0  0
  -34.1850  -17.0120   15.0200 C   0  0  2  0  0  0  0  0  0  0  0  0
  -34.4600  -15.6550   15.8040 C   0  0  0  0  0  1  0  0  0  0  0  0
  -36.0940  -16.5700   16.3330 C   0  0  0  0  0  1  0  0  0  0  0  0
  -36.5400  -18.0750   15.4920 C   0  0  0  0  0  2  0  0  0  0  0  0
  -35.4250  -18.9800   14.4930 C   0  0  0  0  0  2  0  0  0  0  0  0
  -33.8190  -18.1970   13.9600 C   0  0  0  0  0  1  0  0  0  0  0  0
  -33.4420  -16.5700   14.5990 N   0  0  0  0  0  1  0  0  0  0  0  0
  -33.7840  -17.6790   16.1800 O   0  0  0  0  0  1  0  0  0  0  0  0
  -35.2080  -16.4340   13.8700 N   0  0  0  0  0  2  0  0  0  0  0  0
  -34.6010  -16.2000   13.0970 H   0  0  0  0  0  0  0  0  0  0  0  0
  -36.3760  -21.1660   13.5770 C   0  0  0  0  0  0  0  0  0  0  0  0
  -36.9600  -21.5330   12.3950 C   0  0  0  0  0  0  0  0  0  0  0  0
  -37.0220  -20.3490   11.6010 C   0  0  0  0  0  0  0  0  0  0  0  0
  -36.0700  -19.8210   13.4690 N   0  0  0  0  0  0  0  0  0  0  0  0
  -36.4470  -19.3290   12.2520 N   0  0  0  0  0  0  0  0  0  0  0  0
  -37.6350  -20.1420   10.2720 C   0  0  0  0  0  0  0  0  0  0  0  0
  -36.8780  -20.2080    9.0800 C   0  0  0  0  0  3  0  0  0  0  0  0
  -37.5010  -20.0370    7.8220 C   0  0  0  0  0  3  0  0  0  0  0  0
  -38.8940  -19.8050    7.7410 C   0  0  0  0  0  0  0  0  0  0  0  0
  -39.6420  -19.7260    8.9300 C   0  0  0  0  0  3  0  0  0  0  0  0
  -39.0190  -19.8900   10.1780 C   0  0  0  0  0  3  0  0  0  0  0  0
  -39.5750  -19.5890    6.5650 O   0  0  0  0  0  0  0  0  0  0  0  0
  -39.4510  -20.4360    5.4920 C   0  0  0  0  0  0  0  0  0  0  0  0
  -40.1880  -21.6360    5.3990 C   0  0  0  0  0  3  0  0  0  0  0  0
  -40.0790  -22.4430    4.2480 C   0  0  0  0  0  3  0  0  0  0  0  0
  -39.2400  -22.0500    3.1890 C   0  0  0  0  0  0  0  0  0  0  0  0
  -38.5090  -20.8510    3.2770 C   0  0  0  0  0  3  0  0  0  0  0  0
  -38.6160  -20.0450    4.4250 C   0  0  0  0  0  0  0  0  0  0  0  0
  -37.9250  -18.8820    4.4950 F   0  0  0  0  0  0  0  0  0  0  0  0
  -39.1430  -22.8180    2.0790 F   0  0  0  0  0  0  0  0  0  0  0  0
  -37.4990  -22.8950   12.0720 C   0  0  0  0  0  0  0  0  0  0  0  0
  -37.0890  -23.4670   10.9440 N   0  0  0  0  0  0  0  0  0  0  0  0
  -38.2470  -23.4870   12.8490 O   0  0  0  0  0  0  0  0  0  0  0  0
  -36.4550  -22.9900   10.3200 H   0  0  0  0  0  0  0  0  0  0  0  0
  -37.4130  -24.3930   10.7120 H   0  0  0  0  0  0  0  0  0  0  0  0
  -36.0870  -21.8710   14.7370 N   0  0  0  0  0  0  0  0  0  0  0  0
  -36.3470  -22.8450   14.8610 H   0  0  0  0  0  0  0  0  0  0  0  0
  -35.6590  -21.4550   15.5530 H   0  0  0  0  0  0  0  0  0  0  0  0
  2  3  1  0
  2  1  1  0
  4  5  1  0
  4  3  1  0
  6  7  1  0
  6  5  1  0
  8  7  1  0
  9  8  1  0
 10 11  1  0
 10  9  1  0
 11 12  1  0
 13 12  1  0
 14 13  1  0
 15 14  1  0
 17 22  1  0
 17 15  1  0
 18 28  1  0
 18 26  1  0
 19 21  1  0
 21 20  1  0
 21 22  2  0
 23 17  2  0
 24 19  2  0
 24 23  1  0
 25 19  1  0
 25 18  1  0
 26 20  1  0
 26 16  1  0
 27 16  2  0
 28 30  2  0
 29 28  1  0
 31 29  1  0
 32 37  1  0
 32 36  1  0
 33 29  1  0
 33 34  1  0
 35 34  1  0
 36 35  1  0
 37 33  1  0
 38 37  2  0
 39 38  1  0
 40 39  2  0
 40 41  1  0
 41 32  2  0
 42 16  1  0
 42 43  1  0
 43 44  1  6
 43 45  1  0
 43 46  1  0
 47 50  1  0
 47 42  1  0
 48 47  1  0
 49 48  2  0
 52 51  1  0
 52 54  1  0
 52 48  1  0
 54 53  1  0
 55 54  1  0
 56  1  1  0
 57 56  1  0
 58 57  1  0
 58 59  1  0
 59 60  1  0
 61 60  1  0
 62 61  1  0
 63 62  1  0
 64 63  1  0
 65 64  1  0
 66 65  1  0
 67 66  1  0
 68 69  1  0
 68 67  1  0
 70 71  1  0
 70 69  1  0
 71 80  1  0
 72 73  1  6
 72 79  1  0
 75 74  1  0
 76 75  1  0
 77 72  1  0
 78 72  1  0
 81 80  1  0
 82107  1  0
 83 82  2  0
 84 86  2  0
 84 83  1  0
 85 82  1  0
 85 76  1  0
 86 85  1  0
 87 84  1  0
 88 87  2  0
 89 88  1  0
 90 89  2  0
 90 91  1  0
 91 92  2  0
 92 87  1  0
 93 90  1  0
 94 93  1  0
 95 94  1  0
 96 95  2  0
 97 98  2  0
 97 96  1  0
 98 99  1  0
 99100  1  0
 99 94  2  0
101 97  1  0
102 83  1  0
102104  2  0
103102  1  0
105103  1  0
106103  1  0
107108  1  0
107109  1  0
M  ISO  4  14 101  15 101  72 100  80 100
M  END
>  <TORSDO>  (35) 
F 45

>  <SCORE>  (35) 
-1.999

>  <name>  (35) 
42

>  <ligand_id>  (35) 
42

>  <original_smiles>  (35) 
[H]c1c([H])c([H])c2c(c1[H])C([H])([H])C([H])([H])C([H])([H])C2([H])N([H])C(=O)C1([H])N(C(=O)C([H])(N([H])C(=O)C([H])(N([H])C([H])([H])[H])C([H])([H])[H])C(C([H])([H])[H])(C([H])([H])[H])C([H])([H])[H])C([H])([H])c2c([H])c(OOC([H])([H])C([H])([H])OC([H])([H])C([H])([H])OC([H])([H])C([H])([H])OC([H])([H])C([H])([H])OC([H])([H])C([H])([H])OC([H])([H])C([H])([H])OC([H])([H])C([H])([H])OC([H])([H])C([H])([H])OC([H])([H])C([H])([H])OC([H])([H])C([H])([H])N([H])C(=O)N3C([H])([H])C([H])([H])C([H])([H])C([H])(n4nc(-c5c([H])c([H])c(Oc6c([H])c([H])c(F)c([H])c6F)c([H])c5[H])c(C(=O)N([H])[H])c4N([H])[H])C3([H])[H])c([H])c([H])c2C1([H])[H]

>  <smiles>  (35) 
[H]c1c([H])c([H])c2c(c1[H])C([H])([H])C([H])([H])C([H])([H])C2([H])N([H])C(=O)C1([H])N(C(=O)C([H])(N([H])C(=O)C([H])(N([H])C([H])([H])[H])C([H])([H])[H])C(C([H])([H])[H])(C([H])([H])[H])C([H])([H])[H])C([H])([H])c2c([H])c(OOC([H])([H])C([H])([H])OC([H])([H])C([H])([H])OC([H])([H])C([H])([H])OC([H])([H])C([H])([H])OC([H])([H])C([H])([H])OC([H])([H])C([H])([H])OC([H])([H])C([H])([H])OC([H])([H])C([H])([H])OC([H])([H])C([H])([H])OC([H])([H])C([H])([H])N([H])C(=O)N3C([H])([H])C([H])([H])C([H])([H])C([H])(n4nc(-c5c([H])c([H])c(Oc6c([H])c([H])c(F)c([H])c6F)c([H])c5[H])c(C(=O)N([H])[H])c4N([H])[H])C3([H])[H])c([H])c([H])c2C1([H])[H]

$$$$
43:0:0
     RDKit          3D

102109  0  0  1  0  0  0  0  0999 V2000
  -31.8350  -22.7840   18.0920 C   0  0  0  0  0  0  0  0  0  0  0  0
  -31.0430  -23.4990   17.2820 N   0  0  0  0  0  0  0  0  0  0  0  0
  -31.9350  -23.0130   19.3000 O   0  0  0  0  0  0  0  0  0  0  0  0
  -31.0290  -23.2460   16.3020 H   0  0  0  0  0  0  0  0  0  0  0  0
  -30.1310  -24.5630   17.6980 C   0  0  0  0  0  2  0  0  0  0  0  0
  -28.6960  -24.0350   17.8780 C   0  0  0  0  0  2  0  0  0  0  0  0
  -28.6380  -23.0590   18.9180 O   0  0  0  0  0  0  0  0  0  0  0  0
  -27.9780  -23.4460   20.1230 C   0  0  0  0  0  2  0  0  0  0  0  0
  -28.8580  -24.3010   21.0550 C   0  0  0  0  0  2  0  0  0  0  0  0
  -28.3240  -25.5860   21.3460 O   0  0  0  0  0  0  0  0  0  0  0  0
  -28.2640  -26.3890   20.0840 O   0  0  0  0  0  0  0  0  0  0  0  0
  -24.4810  -31.6090   23.0780 C   0  0  0  0  0  0  0  0  0  0  0  0
  -27.1030  -27.1120   20.0860 C   0  0  0  0  0  0  0  0  0  0  0  0
  -23.2790  -30.2130   21.4260 C   0  0  0  0  0  3  0  0  0  0  0  0
  -24.7290  -28.6300   20.0490 C   0  0  0  0  0  0  0  0  0  0  0  0
  -25.8090  -30.5240   21.2740 C   0  0  0  0  0  2  0  0  0  0  0  0
  -25.8790  -29.1430   20.6630 C   0  0  0  0  0  0  0  0  0  0  0  0
  -27.0670  -28.3850   20.6880 C   0  0  0  0  0  3  0  0  0  0  0  0
  -25.9460  -26.6070   19.4580 C   0  0  0  0  0  3  0  0  0  0  0  0
  -24.7560  -27.3610   19.4460 C   0  0  0  0  0  3  0  0  0  0  0  0
  -23.5000  -29.5100   20.0580 C   0  0  0  0  0  2  0  0  0  0  0  0
  -24.5400  -30.7960   21.9870 N   0  0  0  0  0  0  0  0  0  0  0  0
  -23.3950  -31.9130   23.5900 O   0  0  0  0  0  0  0  0  0  0  0  0
  -22.5860  -29.2200   22.3870 C   0  0  0  0  0  0  0  0  0  0  0  0
  -21.2530  -29.1160   22.2790 N   0  0  0  0  0  0  0  0  0  0  0  0
  -23.2440  -28.5460   23.1840 O   0  0  0  0  0  0  0  0  0  0  0  0
  -20.7850  -29.7090   21.6060 H   0  0  0  0  0  0  0  0  0  0  0  0
  -17.8180  -28.1780   22.8810 C   0  0  0  0  0  0  0  0  0  0  0  0
  -20.3970  -28.2170   23.0520 C   0  0  0  0  0  3  0  0  0  0  0  0
  -20.3600  -26.8060   22.4220 C   0  0  0  0  0  2  0  0  0  0  0  0
  -19.1950  -26.6100   21.4480 C   0  0  0  0  0  2  0  0  0  0  0  0
  -17.8560  -26.8440   22.1540 C   0  0  0  0  0  2  0  0  0  0  0  0
  -19.0120  -28.8290   23.2900 C   0  0  0  0  0  0  0  0  0  0  0  0
  -18.9220  -30.0820   23.9330 C   0  0  0  0  0  3  0  0  0  0  0  0
  -17.6720  -30.6820   24.1730 C   0  0  0  0  0  3  0  0  0  0  0  0
  -16.4930  -30.0260   23.7810 C   0  0  0  0  0  3  0  0  0  0  0  0
  -16.5670  -28.7780   23.1390 C   0  0  0  0  0  3  0  0  0  0  0  0
  -25.7660  -32.2210   23.7170 C   0  0  0  0  0  3  0  0  0  0  0  0
  -25.4610  -33.6080   24.0880 N   0  0  0  0  0  0  0  0  0  0  0  0
  -25.7820  -34.6800   23.3520 C   0  0  0  0  0  0  0  0  0  0  0  0
  -26.4400  -34.6060   22.3110 O   0  0  0  0  0  0  0  0  0  0  0  0
  -24.8740  -33.7410   24.8980 H   0  0  0  0  0  0  0  0  0  0  0  0
  -24.0430  -36.4740   23.0660 C   0  0  0  0  0  1  0  0  0  0  0  0
  -25.2950  -36.0530   23.8510 C   0  0  0  0  0  3  0  0  0  0  0  0
  -27.4380  -36.9250   24.6750 C   0  0  0  0  0  1  0  0  0  0  0  0
  -26.3220  -37.1120   23.7510 N   0  0  0  0  0  0  0  0  0  0  0  0
  -25.9160  -38.0290   23.9250 H   0  0  0  0  0  0  0  0  0  0  0  0
  -26.2890  -31.4080   24.9650 C   0  0  1  0  0  0  0  0  0  0  0  0
  -25.1990  -31.1350   26.0280 C   0  0  0  0  0  1  0  0  0  0  0  0
  -26.8720  -30.0460   24.5190 C   0  0  0  0  0  1  0  0  0  0  0  0
  -27.4430  -32.1790   25.6470 C   0  0  0  0  0  1  0  0  0  0  0  0
  -32.6260  -21.6220   17.4640 C   0  0  0  0  0  2  0  0  0  0  0  0
  -31.8230  -20.4420   17.3710 O   0  0  0  0  0  0  0  0  0  0  0  0
  -30.8960  -20.4240   16.2900 C   0  0  0  0  0  2  0  0  0  0  0  0
  -30.1460  -19.0820   16.2880 C   0  0  0  0  0  2  0  0  0  0  0  0
  -29.4620  -18.8270   17.5100 O   0  0  0  0  0  0  0  0  0  0  0  0
  -28.3690  -19.6970   17.7880 C   0  0  0  0  0  2  0  0  0  0  0  0
  -27.8890  -19.5000   19.2370 C   0  0  0  0  0  2  0  0  0  0  0  0
  -28.6770  -20.2080   20.2010 O   0  0  0  0  0  0  0  0  0  0  0  0
  -29.9550  -19.6550   20.5110 C   0  0  0  0  0  2  0  0  0  0  0  0
  -29.8400  -18.4550   21.4850 C   0  0  0  0  0  2  0  0  0  0  0  0
  -31.0630  -17.7800   21.7910 O   0  0  0  0  0  0  0  0  0  0  0  0
  -31.8340  -17.2790   20.6970 C   0  0  0  0  0  2  0  0  0  0  0  0
  -31.0630  -16.3730   19.7170 C   0  0  0  0  0  2  0  0  0  0  0  0
  -31.3740  -13.9390   19.9270 C   0  0  0  0  0  0  0  0  0  0  0  0
  -30.9860  -11.6020   19.2890 C   0  0  0  0  0  2  0  0  0  0  0  0
  -30.0500  -11.5810   18.0630 C   0  0  0  0  0  2  0  0  0  0  0  0
  -28.5770  -11.5830   18.5120 C   0  0  0  0  0  2  0  0  0  0  0  0
  -28.2690  -12.6920   19.5530 C   0  0  0  0  0  3  0  0  0  0  0  0
  -29.3220  -12.6900   20.6870 C   0  0  0  0  0  2  0  0  0  0  0  0
  -30.6570  -12.7980   20.0770 N   0  0  0  0  0  0  0  0  0  0  0  0
  -32.4730  -13.9830   19.3660 O   0  0  0  0  0  0  0  0  0  0  0  0
  -30.7350  -15.0590   20.2680 N   0  0  0  0  0  0  0  0  0  0  0  0
  -29.8440  -14.9550   20.7330 H   0  0  0  0  0  0  0  0  0  0  0  0
  -25.9700  -13.5550   20.3270 C   0  0  0  0  0  0  0  0  0  0  0  0
  -24.8400  -12.9010   20.7350 C   0  0  0  0  0  0  0  0  0  0  0  0
  -25.1540  -11.5060   20.7010 C   0  0  0  0  0  0  0  0  0  0  0  0
  -26.9100  -12.5660   20.0730 N   0  0  0  0  0  0  0  0  0  0  0  0
  -26.4210  -11.3310   20.3530 N   0  0  0  0  0  0  0  0  0  0  0  0
  -24.3080  -10.3280   20.9250 C   0  0  0  0  0  0  0  0  0  0  0  0
  -24.6590   -9.3320   21.8630 C   0  0  0  0  0  3  0  0  0  0  0  0
  -23.8160   -8.2180   22.0730 C   0  0  0  0  0  3  0  0  0  0  0  0
  -22.6090   -8.0930   21.3450 C   0  0  0  0  0  0  0  0  0  0  0  0
  -22.2770   -9.0770   20.3970 C   0  0  0  0  0  3  0  0  0  0  0  0
  -23.1180  -10.1810   20.1850 C   0  0  0  0  0  3  0  0  0  0  0  0
  -21.7420   -7.0340   21.4650 O   0  0  0  0  0  0  0  0  0  0  0  0
  -21.6470   -6.3110   22.6270 C   0  0  0  0  0  0  0  0  0  0  0  0
  -21.2900   -6.9160   23.8530 C   0  0  0  0  0  3  0  0  0  0  0  0
  -21.1340   -6.1250   25.0090 C   0  0  0  0  0  3  0  0  0  0  0  0
  -21.3240   -4.7330   24.9410 C   0  0  0  0  0  0  0  0  0  0  0  0
  -21.6720   -4.1280   23.7210 C   0  0  0  0  0  3  0  0  0  0  0  0
  -21.8280   -4.9150   22.5670 C   0  0  0  0  0  0  0  0  0  0  0  0
  -22.1460   -4.3240   21.3900 F   0  0  0  0  0  0  0  0  0  0  0  0
  -21.1640   -3.9730   26.0500 F   0  0  0  0  0  0  0  0  0  0  0  0
  -23.5100  -13.5230   21.0520 C   0  0  0  0  0  0  0  0  0  0  0  0
  -22.7580  -12.9270   21.9700 N   0  0  0  0  0  0  0  0  0  0  0  0
  -23.1520  -14.5730   20.5190 O   0  0  0  0  0  0  0  0  0  0  0  0
  -23.0540  -12.0700   22.4130 H   0  0  0  0  0  0  0  0  0  0  0  0
  -21.8720  -13.3330   22.2360 H   0  0  0  0  0  0  0  0  0  0  0  0
  -26.2740  -14.8990   20.1270 N   0  0  0  0  0  0  0  0  0  0  0  0
  -25.5870  -15.6360   20.2440 H   0  0  0  0  0  0  0  0  0  0  0  0
  -27.1520  -15.2300   19.7490 H   0  0  0  0  0  0  0  0  0  0  0  0
  1  3  2  0
  2  5  1  0
  2  1  1  0
  4  2  1  0
  5  6  1  0
  6  7  1  0
  7  8  1  0
  8  9  1  0
  9 10  1  0
 11 13  1  0
 11 10  1  0
 12 23  2  0
 13 18  1  0
 14 22  1  0
 14 24  1  0
 15 21  1  0
 15 17  1  0
 16 22  1  0
 17 18  2  0
 17 16  1  0
 19 13  2  0
 20 19  1  0
 20 15  2  0
 21 14  1  0
 22 12  1  0
 24 26  2  0
 25 24  1  0
 27 25  1  0
 28 37  2  0
 28 33  1  0
 29 25  1  0
 29 33  1  0
 30 29  1  0
 31 32  1  0
 31 30  1  0
 32 28  1  0
 33 34  2  0
 34 35  1  0
 36 35  2  0
 37 36  1  0
 38 12  1  0
 38 39  1  0
 38 48  1  0
 39 42  1  0
 40 44  1  0
 40 39  1  0
 41 40  2  0
 44 43  1  0
 46 44  1  0
 46 47  1  0
 46 45  1  0
 48 51  1  1
 48 49  1  0
 50 48  1  0
 52  1  1  0
 53 52  1  0
 54 53  1  0
 55 54  1  0
 55 56  1  0
 56 57  1  0
 57 58  1  0
 58 59  1  0
 59 60  1  0
 60 61  1  0
 61 62  1  0
 63 62  1  0
 64 73  1  0
 64 63  1  0
 65 71  1  0
 65 73  1  0
 66 71  1  0
 67 68  1  0
 67 66  1  0
 69 68  1  0
 69 78  1  0
 69 70  1  0
 71 70  1  0
 72 65  2  0
 73 74  1  0
 75 76  2  0
 76 95  1  0
 77 76  1  0
 77 80  1  0
 78 75  1  0
 78 79  1  0
 79 77  2  0
 80 81  1  0
 81 82  2  0
 83 86  1  0
 83 82  1  0
 84 83  2  0
 85 84  1  0
 85 80  2  0
 86 87  1  0
 87 88  1  0
 88 89  2  0
 90 89  1  0
 90 94  1  0
 91 90  2  0
 92 87  2  0
 92 91  1  0
 93 92  1  0
 95 96  1  0
 96 99  1  0
 96 98  1  0
 97 95  2  0
100101  1  0
100 75  1  0
102100  1  0
M  ISO  4  10 101  11 101  65 100  73 100
M  END
>  <TORSDO>  (36) 
F 35

>  <SCORE>  (36) 
-9.487

>  <name>  (36) 
43

>  <ligand_id>  (36) 
43

>  <original_smiles>  (36) 
[H]c1c([H])c([H])c2c(c1[H])C([H])([H])C([H])([H])C([H])([H])C2([H])N([H])C(=O)C1([H])N(C(=O)C([H])(N([H])C(=O)C([H])(N([H])C([H])([H])[H])C([H])([H])[H])C(C([H])([H])[H])(C([H])([H])[H])C([H])([H])[H])C([H])([H])c2c([H])c(OOC([H])([H])C([H])([H])OC([H])([H])C([H])([H])N([H])C(=O)C([H])([H])OC([H])([H])C([H])([H])OC([H])([H])C([H])([H])OC([H])([H])C([H])([H])OC([H])([H])C([H])([H])N([H])C(=O)N3C([H])([H])C([H])([H])C([H])([H])C([H])(n4nc(-c5c([H])c([H])c(Oc6c([H])c([H])c(F)c([H])c6F)c([H])c5[H])c(C(=O)N([H])[H])c4N([H])[H])C3([H])[H])c([H])c([H])c2C1([H])[H]

>  <smiles>  (36) 
[H]c1c([H])c([H])c2c(c1[H])C([H])([H])C([H])([H])C([H])([H])C2([H])N([H])C(=O)C1([H])N(C(=O)C([H])(N([H])C(=O)C([H])(N([H])C([H])([H])[H])C([H])([H])[H])C(C([H])([H])[H])(C([H])([H])[H])C([H])([H])[H])C([H])([H])c2c([H])c(OOC([H])([H])C([H])([H])OC([H])([H])C([H])([H])N([H])C(=O)C([H])([H])OC([H])([H])C([H])([H])OC([H])([H])C([H])([H])OC([H])([H])C([H])([H])OC([H])([H])C([H])([H])N([H])C(=O)N3C([H])([H])C([H])([H])C([H])([H])C([H])(n4nc(-c5c([H])c([H])c(Oc6c([H])c([H])c(F)c([H])c6F)c([H])c5[H])c(C(=O)N([H])[H])c4N([H])[H])C3([H])[H])c([H])c([H])c2C1([H])[H]

$$$$
44:0:0
     RDKit          3D

113120  0  0  1  0  0  0  0  0999 V2000
  -32.8330  -18.3390   20.1140 C   0  0  0  0  0  2  0  0  0  0  0  0
  -32.8000  -19.6470   20.6740 O   0  0  0  0  0  0  0  0  0  0  0  0
  -33.6500  -19.7780   21.8070 C   0  0  0  0  0  2  0  0  0  0  0  0
  -33.5830  -21.2170   22.3360 C   0  0  0  0  0  2  0  0  0  0  0  0
  -32.2910  -21.4730   22.8780 O   0  0  0  0  0  0  0  0  0  0  0  0
  -32.1510  -22.8180   23.3170 C   0  0  0  0  0  2  0  0  0  0  0  0
  -30.7060  -23.1000   23.7540 C   0  0  0  0  0  2  0  0  0  0  0  0
  -30.4460  -22.5690   25.0520 O   0  0  0  0  0  0  0  0  0  0  0  0
  -29.2290  -23.0780   25.5940 C   0  0  0  0  0  2  0  0  0  0  0  0
  -28.8500  -22.3660   26.9010 C   0  0  0  0  0  2  0  0  0  0  0  0
  -28.3000  -21.0990   26.5820 O   0  0  0  0  0  0  0  0  0  0  0  0
  -27.8300  -20.3710   27.7100 C   0  0  0  0  0  2  0  0  0  0  0  0
  -27.6120  -18.9310   27.2360 C   0  0  0  0  0  2  0  0  0  0  0  0
  -28.8990  -18.4540   26.8770 O   0  0  0  0  0  0  0  0  0  0  0  0
  -28.9090  -17.3670   25.9660 C   0  0  0  0  0  2  0  0  0  0  0  0
  -30.2540  -17.4390   25.2380 C   0  0  0  0  0  2  0  0  0  0  0  0
  -30.3890  -16.3660   24.3180 O   0  0  0  0  0  0  0  0  0  0  0  0
  -31.4230  -16.6180   23.3790 C   0  0  0  0  0  2  0  0  0  0  0  0
  -31.8760  -15.2970   22.7580 C   0  0  0  0  0  2  0  0  0  0  0  0
  -30.8570  -14.2680   20.7490 C   0  0  0  0  0  0  0  0  0  0  0  0
  -30.4010  -12.2840   19.3710 C   0  0  0  0  0  2  0  0  0  0  0  0
  -29.4700  -12.5360   18.1770 C   0  0  0  0  0  2  0  0  0  0  0  0
  -28.0020  -12.3770   18.6070 C   0  0  0  0  0  2  0  0  0  0  0  0
  -27.6640  -13.2100   19.8710 C   0  0  0  0  0  3  0  0  0  0  0  0
  -28.7040  -12.9840   20.9910 C   0  0  0  0  0  2  0  0  0  0  0  0
  -30.0560  -13.2170   20.4510 N   0  0  0  0  0  0  0  0  0  0  0  0
  -31.7520  -14.6810   20.0090 O   0  0  0  0  0  0  0  0  0  0  0  0
  -30.7930  -14.6400   22.0300 N   0  0  0  0  0  0  0  0  0  0  0  0
  -30.0460  -14.2560   22.5870 H   0  0  0  0  0  0  0  0  0  0  0  0
  -25.2600  -13.8180   20.5670 C   0  0  0  0  0  0  0  0  0  0  0  0
  -24.1840  -13.0450   20.9180 C   0  0  0  0  0  0  0  0  0  0  0  0
  -24.6400  -11.6920   20.8720 C   0  0  0  0  0  0  0  0  0  0  0  0
  -26.3040  -12.9350   20.3340 N   0  0  0  0  0  0  0  0  0  0  0  0
  -25.9330  -11.6500   20.5730 N   0  0  0  0  0  0  0  0  0  0  0  0
  -23.9060  -10.4300   21.0400 C   0  0  0  0  0  0  0  0  0  0  0  0
  -24.3610   -9.4220   21.9180 C   0  0  0  0  0  3  0  0  0  0  0  0
  -23.6290   -8.2250   22.0760 C   0  0  0  0  0  3  0  0  0  0  0  0
  -22.4260   -8.0300   21.3550 C   0  0  0  0  0  0  0  0  0  0  0  0
  -21.9910   -9.0260   20.4650 C   0  0  0  0  0  3  0  0  0  0  0  0
  -22.7230  -10.2130   20.3050 C   0  0  0  0  0  3  0  0  0  0  0  0
  -21.6630   -6.8890   21.4230 O   0  0  0  0  0  0  0  0  0  0  0  0
  -21.6850   -6.0740   22.5270 C   0  0  0  0  0  0  0  0  0  0  0  0
  -21.4010   -6.5640   23.8210 C   0  0  0  0  0  3  0  0  0  0  0  0
  -21.3660   -5.6790   24.9170 C   0  0  0  0  0  3  0  0  0  0  0  0
  -21.6030   -4.3060   24.7220 C   0  0  0  0  0  0  0  0  0  0  0  0
  -21.8820   -3.8160   23.4340 C   0  0  0  0  0  3  0  0  0  0  0  0
  -21.9180   -4.6980   22.3400 C   0  0  0  0  0  0  0  0  0  0  0  0
  -22.1660   -4.2160   21.0980 F   0  0  0  0  0  0  0  0  0  0  0  0
  -21.5630   -3.4540   25.7740 F   0  0  0  0  0  0  0  0  0  0  0  0
  -22.7850  -13.5240   21.1840 C   0  0  0  0  0  0  0  0  0  0  0  0
  -22.0480  -12.8240   22.0390 N   0  0  0  0  0  0  0  0  0  0  0  0
  -22.3560  -14.5560   20.6710 O   0  0  0  0  0  0  0  0  0  0  0  0
  -22.4080  -11.9890   22.4770 H   0  0  0  0  0  0  0  0  0  0  0  0
  -21.1100  -13.1260   22.2590 H   0  0  0  0  0  0  0  0  0  0  0  0
  -25.4330  -15.1890   20.4090 N   0  0  0  0  0  0  0  0  0  0  0  0
  -24.6690  -15.8450   20.5190 H   0  0  0  0  0  0  0  0  0  0  0  0
  -26.2940  -15.6200   20.0990 H   0  0  0  0  0  0  0  0  0  0  0  0
  -31.7980  -18.2350   18.9860 C   0  0  0  0  0  2  0  0  0  0  0  0
  -30.4940  -18.2460   19.5510 O   0  0  0  0  0  0  0  0  0  0  0  0
  -29.4610  -18.2640   18.5740 C   0  0  0  0  0  2  0  0  0  0  0  0
  -28.1090  -18.3060   19.2990 C   0  0  0  0  0  2  0  0  0  0  0  0
  -28.0350  -19.5060   20.0600 O   0  0  0  0  0  0  0  0  0  0  0  0
  -26.9460  -19.5250   20.9760 C   0  0  0  0  0  2  0  0  0  0  0  0
  -27.0890  -20.7540   21.8800 C   0  0  0  0  0  0  0  0  0  0  0  0
  -26.3740  -21.8380   21.5550 N   0  0  0  0  0  0  0  0  0  0  0  0
  -27.8510  -20.7210   22.8480 O   0  0  0  0  0  0  0  0  0  0  0  0
  -25.7790  -21.7730   20.7390 H   0  0  0  0  0  0  0  0  0  0  0  0
  -26.4480  -23.1390   22.2210 C   0  0  0  0  0  2  0  0  0  0  0  0
  -26.7800  -24.2430   21.2150 C   0  0  0  0  0  2  0  0  0  0  0  0
  -28.0080  -23.9180   20.5680 O   0  0  0  0  0  0  0  0  0  0  0  0
  -28.1020  -24.3810   19.2250 C   0  0  0  0  0  2  0  0  0  0  0  0
  -28.7080  -25.7950   19.0740 C   0  0  0  0  0  2  0  0  0  0  0  0
  -28.4070  -26.7530   20.0920 O   0  0  0  0  0  0  0  0  0  0  0  0
  -24.6140  -31.8690   23.2200 C   0  0  0  0  0  0  0  0  0  0  0  0
  -27.2270  -27.4620   20.0580 C   0  0  0  0  0  0  0  0  0  0  0  0
  -23.3940  -30.5000   21.5590 C   0  0  0  0  0  3  0  0  0  0  0  0
  -24.8350  -28.9700   20.1140 C   0  0  0  0  0  0  0  0  0  0  0  0
  -25.9230  -30.8370   21.3690 C   0  0  0  0  0  2  0  0  0  0  0  0
  -25.9940  -29.4760   20.7120 C   0  0  0  0  0  0  0  0  0  0  0  0
  -27.1840  -28.7190   20.7020 C   0  0  0  0  0  3  0  0  0  0  0  0
  -26.0520  -26.9760   19.4410 C   0  0  0  0  0  3  0  0  0  0  0  0
  -24.8560  -27.7120   19.4870 C   0  0  0  0  0  3  0  0  0  0  0  0
  -23.5960  -29.8330   20.1730 C   0  0  0  0  0  2  0  0  0  0  0  0
  -24.6610  -31.0840   22.1070 N   0  0  0  0  0  0  0  0  0  0  0  0
  -23.5350  -32.1400   23.7640 O   0  0  0  0  0  0  0  0  0  0  0  0
  -22.7330  -29.4700   22.5050 C   0  0  0  0  0  0  0  0  0  0  0  0
  -21.4070  -29.3020   22.3760 N   0  0  0  0  0  0  0  0  0  0  0  0
  -23.4140  -28.8230   23.3050 O   0  0  0  0  0  0  0  0  0  0  0  0
  -20.9200  -29.8680   21.6950 H   0  0  0  0  0  0  0  0  0  0  0  0
  -18.0240  -28.1360   22.8530 C   0  0  0  0  0  0  0  0  0  0  0  0
  -20.5830  -28.3640   23.1350 C   0  0  0  0  0  3  0  0  0  0  0  0
  -20.6740  -26.9390   22.5430 C   0  0  0  0  0  2  0  0  0  0  0  0
  -19.5710  -26.6390   21.5210 C   0  0  0  0  0  2  0  0  0  0  0  0
  -18.1880  -26.7920   22.1620 C   0  0  0  0  0  2  0  0  0  0  0  0
  -19.1490  -28.8810   23.2930 C   0  0  0  0  0  0  0  0  0  0  0  0
  -18.9410  -30.1420   23.8940 C   0  0  0  0  0  3  0  0  0  0  0  0
  -17.6410  -30.6570   24.0570 C   0  0  0  0  0  3  0  0  0  0  0  0
  -16.5310  -29.9080   23.6340 C   0  0  0  0  0  3  0  0  0  0  0  0
  -16.7220  -28.6480   23.0380 C   0  0  0  0  0  3  0  0  0  0  0  0
  -25.9040  -32.4800   23.8460 C   0  0  0  0  0  3  0  0  0  0  0  0
  -25.5910  -33.8610   24.2380 N   0  0  0  0  0  0  0  0  0  0  0  0
  -25.9050  -34.9440   23.5160 C   0  0  0  0  0  0  0  0  0  0  0  0
  -26.5590  -34.8890   22.4710 O   0  0  0  0  0  0  0  0  0  0  0  0
  -25.0060  -33.9790   25.0520 H   0  0  0  0  0  0  0  0  0  0  0  0
  -24.1520  -36.7280   23.2630 C   0  0  0  0  0  1  0  0  0  0  0  0
  -25.4120  -36.3070   24.0360 C   0  0  0  0  0  3  0  0  0  0  0  0
  -27.5590  -37.1810   24.8460 C   0  0  0  0  0  1  0  0  0  0  0  0
  -26.4280  -37.3770   23.9430 N   0  0  0  0  0  0  0  0  0  0  0  0
  -26.0130  -38.2830   24.1440 H   0  0  0  0  0  0  0  0  0  0  0  0
  -26.4450  -31.6560   25.0780 C   0  0  1  0  0  0  0  0  0  0  0  0
  -25.3720  -31.3610   26.1520 C   0  0  0  0  0  1  0  0  0  0  0  0
  -27.0280  -30.3010   24.6140 C   0  0  0  0  0  1  0  0  0  0  0  0
  -27.6050  -32.4240   25.7500 C   0  0  0  0  0  1  0  0  0  0  0  0
  1  2  1  0
  2  3  1  0
  3  4  1  0
  4  5  1  0
  5  6  1  0
  6  7  1  0
  7  8  1  0
  8  9  1  0
  9 10  1  0
 11 10  1  0
 11 12  1  0
 13 12  1  0
 14 13  1  0
 15 14  1  0
 16 15  1  0
 17 16  1  0
 18 17  1  0
 19 18  1  0
 20 28  1  0
 21 26  1  0
 22 23  1  0
 22 21  1  0
 24 23  1  0
 24 33  1  0
 24 25  1  0
 26 20  1  0
 26 25  1  0
 27 20  2  0
 28 29  1  0
 28 19  1  0
 30 31  2  0
 31 50  1  0
 32 31  1  0
 32 35  1  0
 33 30  1  0
 33 34  1  0
 34 32  2  0
 35 36  1  0
 36 37  2  0
 38 41  1  0
 38 37  1  0
 39 38  2  0
 40 39  1  0
 40 35  2  0
 41 42  1  0
 42 43  1  0
 43 44  2  0
 45 44  1  0
 45 49  1  0
 46 45  2  0
 47 42  2  0
 47 46  1  0
 48 47  1  0
 50 51  1  0
 51 54  1  0
 51 53  1  0
 52 50  2  0
 55 56  1  0
 55 30  1  0
 57 55  1  0
 58 59  1  0
 58  1  1  0
 60 61  1  0
 60 59  1  0
 61 62  1  0
 62 63  1  0
 63 64  1  0
 64 66  2  0
 65 64  1  0
 65 68  1  0
 67 65  1  0
 69 68  1  0
 70 69  1  0
 71 70  1  0
 72 71  1  0
 72 73  1  0
 74 85  2  0
 75 73  1  0
 75 80  1  0
 76 84  1  0
 76 86  1  0
 77 83  1  0
 77 79  1  0
 78 84  1  0
 79 78  1  0
 80 79  2  0
 81 82  1  0
 81 75  2  0
 82 77  2  0
 83 76  1  0
 84 74  1  0
 86 88  2  0
 87 86  1  0
 89 87  1  0
 90 99  2  0
 90 95  1  0
 91 87  1  0
 91 95  1  0
 92 91  1  0
 93 94  1  0
 93 92  1  0
 94 90  1  0
 95 96  2  0
 96 97  1  0
 98 97  2  0
 99 98  1  0
100 74  1  0
100101  1  0
100110  1  0
101104  1  0
102106  1  0
102101  1  0
103102  2  0
106105  1  0
108106  1  0
108109  1  0
108107  1  0
110113  1  1
110111  1  0
112110  1  0
M  ISO  4  20 100  28 100  72 101  73 101
M  END
>  <TORSDO>  (37) 
F 46

>  <SCORE>  (37) 
19.345

>  <name>  (37) 
44

>  <ligand_id>  (37) 
44

>  <original_smiles>  (37) 
[H]c1c([H])c([H])c2c(c1[H])C([H])([H])C([H])([H])C([H])([H])C2([H])N([H])C(=O)C1([H])N(C(=O)C([H])(N([H])C(=O)C([H])(N([H])C([H])([H])[H])C([H])([H])[H])C(C([H])([H])[H])(C([H])([H])[H])C([H])([H])[H])C([H])([H])c2c([H])c(OC([H])([H])C([H])([H])OC([H])([H])C([H])([H])N([H])C(=O)C([H])([H])OC([H])([H])C([H])([H])OC([H])([H])C([H])([H])OC([H])([H])C([H])([H])OC([H])([H])C([H])([H])OC([H])([H])C([H])([H])OC([H])([H])C([H])([H])OC([H])([H])C([H])([H])OC([H])([H])C([H])([H])N([H])C(=O)N3C([H])([H])C([H])([H])C([H])([H])C([H])(n4nc(-c5c([H])c([H])c(Oc6c([H])c([H])c(F)c([H])c6F)c([H])c5[H])c(C(=O)N([H])[H])c4N([H])[H])C3([H])[H])c([H])c([H])c2C1([H])[H]

>  <smiles>  (37) 
[H]c1c([H])c([H])c2c(c1[H])C([H])([H])C([H])([H])C([H])([H])C2([H])N([H])C(=O)C1([H])N(C(=O)C([H])(N([H])C(=O)C([H])(N([H])C([H])([H])[H])C([H])([H])[H])C(C([H])([H])[H])(C([H])([H])[H])C([H])([H])[H])C([H])([H])c2c([H])c(OC([H])([H])C([H])([H])OC([H])([H])C([H])([H])N([H])C(=O)C([H])([H])OC([H])([H])C([H])([H])OC([H])([H])C([H])([H])OC([H])([H])C([H])([H])OC([H])([H])C([H])([H])OC([H])([H])C([H])([H])OC([H])([H])C([H])([H])OC([H])([H])C([H])([H])OC([H])([H])C([H])([H])N([H])C(=O)N3C([H])([H])C([H])([H])C([H])([H])C([H])(n4nc(-c5c([H])c([H])c(Oc6c([H])c([H])c(F)c([H])c6F)c([H])c5[H])c(C(=O)N([H])[H])c4N([H])[H])C3([H])[H])c([H])c([H])c2C1([H])[H]

$$$$
45:0:0
     RDKit          3D

103110  0  0  1  0  0  0  0  0999 V2000
  -31.0640  -17.6530   22.9060 C   0  0  0  0  0  2  0  0  0  0  0  0
  -32.1810  -17.2190   21.9830 O   0  0  0  0  0  0  0  0  0  0  0  0
  -33.3330  -17.9530   21.3640 C   0  0  0  0  0  2  0  0  0  0  0  0
  -33.6960  -17.9310   19.7440 C   0  0  0  0  0  2  0  0  0  0  0  0
  -32.7940  -17.8000   18.5460 O   0  0  0  0  0  0  0  0  0  0  0  0
  -32.0840  -18.8220   17.6830 C   0  0  0  0  0  2  0  0  0  0  0  0
  -30.5180  -19.4830   17.8620 C   0  0  0  0  0  2  0  0  0  0  0  0
  -29.7580  -20.4400   18.9470 O   0  0  0  0  0  0  0  0  0  0  0  0
  -29.5730  -21.8270   19.7780 C   0  0  0  0  0  3  0  0  0  0  0  0
  -29.2120  -23.4360   19.3850 C   0  0  0  0  0  3  0  0  0  0  0  0
  -28.7000  -24.4940   20.3200 O   0  0  0  0  0  0  0  0  0  0  0  0
  -28.8650  -26.0250   19.7820 O   0  0  0  0  0  0  0  0  0  0  0  0
  -24.7730  -31.2330   22.9030 C   0  0  0  0  0  0  0  0  0  0  0  0
  -27.7020  -26.8340   19.8210 C   0  0  0  0  0  0  0  0  0  0  0  0
  -23.6960  -29.8200   21.1890 C   0  0  0  0  0  3  0  0  0  0  0  0
  -25.2690  -28.3730   19.7710 C   0  0  0  0  0  0  0  0  0  0  0  0
  -26.2240  -30.2560   21.0980 C   0  0  0  0  0  2  0  0  0  0  0  0
  -26.3960  -28.8900   20.4240 C   0  0  0  0  0  0  0  0  0  0  0  0
  -27.6130  -28.1310   20.4410 C   0  0  0  0  0  3  0  0  0  0  0  0
  -26.5550  -26.3850   19.1420 C   0  0  0  0  0  3  0  0  0  0  0  0
  -25.3540  -27.1300   19.1210 C   0  0  0  0  0  3  0  0  0  0  0  0
  -23.9900  -29.1920   19.7990 C   0  0  0  0  0  2  0  0  0  0  0  0
  -24.9150  -30.4570   21.7860 N   0  0  0  0  0  0  0  0  0  0  0  0
  -23.6610  -31.4370   23.4110 O   0  0  0  0  0  0  0  0  0  0  0  0
  -23.0590  -28.7450   22.1040 C   0  0  0  0  0  0  0  0  0  0  0  0
  -21.7360  -28.5440   21.9750 N   0  0  0  0  0  0  0  0  0  0  0  0
  -23.7550  -28.0960   22.8890 O   0  0  0  0  0  0  0  0  0  0  0  0
  -21.2300  -29.1230   21.3190 H   0  0  0  0  0  0  0  0  0  0  0  0
  -18.3850  -27.2650   22.4610 C   0  0  0  0  0  0  0  0  0  0  0  0
  -20.9440  -27.5490   22.7010 C   0  0  0  0  0  3  0  0  0  0  0  0
  -21.0570  -26.1560   22.0370 C   0  0  0  0  0  2  0  0  0  0  0  0
  -19.9410  -25.8790   21.0240 C   0  0  0  0  0  2  0  0  0  0  0  0
  -18.5690  -25.9630   21.7010 C   0  0  0  0  0  2  0  0  0  0  0  0
  -19.4990  -28.0170   22.9170 C   0  0  0  0  0  0  0  0  0  0  0  0
  -19.2730  -29.2380   23.5900 C   0  0  0  0  0  3  0  0  0  0  0  0
  -17.9640  -29.7060   23.8100 C   0  0  0  0  0  3  0  0  0  0  0  0
  -16.8640  -28.9490   23.3690 C   0  0  0  0  0  3  0  0  0  0  0  0
  -17.0760  -27.7310   22.7000 C   0  0  0  0  0  3  0  0  0  0  0  0
  -25.9990  -31.9190   23.5810 C   0  0  0  0  0  3  0  0  0  0  0  0
  -26.5400  -31.1230   24.8320 C   0  0  1  0  0  0  0  0  0  0  0  0
  -25.4480  -30.7750   25.8710 C   0  0  0  0  0  1  0  0  0  0  0  0
  -27.2090  -29.8000   24.3940 C   0  0  0  0  0  1  0  0  0  0  0  0
  -27.6320  -31.9530   25.5490 C   0  0  0  0  0  1  0  0  0  0  0  0
  -25.5910  -33.2760   23.9740 N   0  0  0  0  0  0  0  0  0  0  0  0
  -25.8690  -34.3880   23.2800 C   0  0  0  0  0  0  0  0  0  0  0  0
  -26.5640  -34.3820   22.2610 O   0  0  0  0  0  0  0  0  0  0  0  0
  -24.9720  -33.3490   24.7680 H   0  0  0  0  0  0  0  0  0  0  0  0
  -24.0310  -36.0810   22.9880 C   0  0  0  0  0  1  0  0  0  0  0  0
  -25.2850  -35.7170   23.7990 C   0  0  0  0  0  3  0  0  0  0  0  0
  -27.3470  -36.6950   24.7060 C   0  0  0  0  0  1  0  0  0  0  0  0
  -26.2470  -36.8400   23.7550 N   0  0  0  0  0  0  0  0  0  0  0  0
  -25.7800  -37.7220   23.9440 H   0  0  0  0  0  0  0  0  0  0  0  0
  -29.5900  -18.3400   22.5730 C   0  0  0  0  0  2  0  0  0  0  0  0
  -28.7040  -18.0100   21.4160 O   0  0  0  0  0  0  0  0  0  0  0  0
  -27.8040  -19.0250   20.7760 C   0  0  0  0  0  2  0  0  0  0  0  0
  -27.4090  -18.9010   19.1940 C   0  0  0  0  0  2  0  0  0  0  0  0
  -27.2570  -20.0960   18.3010 O   0  0  0  0  0  0  0  0  0  0  0  0
  -27.7280  -20.0860   16.8720 C   0  0  0  0  0  2  0  0  0  0  0  0
  -28.7840  -21.1520   16.1300 C   0  0  0  0  0  2  0  0  0  0  0  0
  -30.0390  -21.9210   16.5800 O   0  0  0  0  0  0  0  0  0  0  0  0
  -31.4690  -21.6570   17.0600 C   0  0  0  0  0  2  0  0  0  0  0  0
  -32.0400  -21.2810   18.6170 C   0  0  0  0  0  2  0  0  0  0  0  0
  -31.9690  -20.0110   19.5210 O   0  0  0  0  0  0  0  0  0  0  0  0
  -30.9260  -19.0390   20.1720 C   0  0  0  0  0  2  0  0  0  0  0  0
  -30.2930  -17.4260   19.7290 C   0  0  0  0  0  2  0  0  0  0  0  0
  -31.1290  -14.7920   19.8670 C   0  0  0  0  0  0  0  0  0  0  0  0
  -30.8260  -12.4770   18.9360 C   0  0  0  0  0  2  0  0  0  0  0  0
  -29.8450  -12.5720   17.7440 C   0  0  0  0  0  2  0  0  0  0  0  0
  -28.3880  -12.4560   18.2340 C   0  0  0  0  0  2  0  0  0  0  0  0
  -28.1010  -13.3710   19.4550 C   0  0  0  0  0  3  0  0  0  0  0  0
  -29.2030  -13.2550   20.5360 C   0  0  0  0  0  2  0  0  0  0  0  0
  -30.4860  -13.5650   19.8930 N   0  0  0  0  0  0  0  0  0  0  0  0
  -32.2530  -14.8400   19.3640 O   0  0  0  0  0  0  0  0  0  0  0  0
  -30.4210  -15.9420   20.2480 N   0  0  0  0  0  0  0  0  0  0  0  0
  -29.6240  -15.6870   20.8100 H   0  0  0  0  0  0  0  0  0  0  0  0
  -25.7990  -14.0750   20.3350 C   0  0  0  0  0  0  0  0  0  0  0  0
  -24.7080  -13.3580   20.7350 C   0  0  0  0  0  0  0  0  0  0  0  0
  -25.0770  -11.9800   20.6240 C   0  0  0  0  0  0  0  0  0  0  0  0
  -26.7690  -13.1430   20.0050 N   0  0  0  0  0  0  0  0  0  0  0  0
  -26.3450  -11.8730   20.2420 N   0  0  0  0  0  0  0  0  0  0  0  0
  -24.2800  -10.7600   20.8070 C   0  0  0  0  0  0  0  0  0  0  0  0
  -24.7060   -9.7170   21.6600 C   0  0  0  0  0  3  0  0  0  0  0  0
  -23.9110   -8.5640   21.8350 C   0  0  0  0  0  3  0  0  0  0  0  0
  -22.6730   -8.4460   21.1580 C   0  0  0  0  0  0  0  0  0  0  0  0
  -22.2640   -9.4760   20.2930 C   0  0  0  0  0  3  0  0  0  0  0  0
  -23.0590  -10.6210   20.1160 C   0  0  0  0  0  3  0  0  0  0  0  0
  -21.8480   -7.3510   21.2460 O   0  0  0  0  0  0  0  0  0  0  0  0
  -21.8320   -6.5500   22.3610 C   0  0  0  0  0  0  0  0  0  0  0  0
  -21.5770   -7.0700   23.6480 C   0  0  0  0  0  3  0  0  0  0  0  0
  -21.5000   -6.2010   24.7560 C   0  0  0  0  0  3  0  0  0  0  0  0
  -21.6680   -4.8150   24.5770 C   0  0  0  0  0  0  0  0  0  0  0  0
  -21.9170   -4.2950   23.2940 C   0  0  0  0  0  3  0  0  0  0  0  0
  -21.9950   -5.1610   22.1900 C   0  0  0  0  0  0  0  0  0  0  0  0
  -22.2130   -4.6520   20.9530 F   0  0  0  0  0  0  0  0  0  0  0  0
  -21.5870   -3.9790   25.6390 F   0  0  0  0  0  0  0  0  0  0  0  0
  -23.3600  -13.9100   21.1030 C   0  0  0  0  0  0  0  0  0  0  0  0
  -22.6470  -13.2390   21.9990 N   0  0  0  0  0  0  0  0  0  0  0  0
  -22.9550  -14.9700   20.6280 O   0  0  0  0  0  0  0  0  0  0  0  0
  -22.9860  -12.3780   22.4010 H   0  0  0  0  0  0  0  0  0  0  0  0
  -21.7440  -13.5890   22.2890 H   0  0  0  0  0  0  0  0  0  0  0  0
  -26.0420  -15.4410   20.2020 N   0  0  0  0  0  0  0  0  0  0  0  0
  -25.3210  -16.1300   20.3890 H   0  0  0  0  0  0  0  0  0  0  0  0
  -26.8950  -15.8430   19.8400 H   0  0  0  0  0  0  0  0  0  0  0  0
  2  1  1  0
  3  2  1  0
  4  3  1  0
  5  4  1  0
  6  7  1  0
  6  5  1  0
  7  8  1  0
  8  9  1  0
 10  9  2  0
 10 11  1  0
 12 14  1  0
 12 11  1  0
 13 24  2  0
 14 19  1  0
 15 23  1  0
 15 25  1  0
 16 22  1  0
 16 18  1  0
 17 23  1  0
 18 19  2  0
 18 17  1  0
 20 14  2  0
 21 20  1  0
 21 16  2  0
 22 15  1  0
 23 13  1  0
 25 27  2  0
 26 25  1  0
 28 26  1  0
 29 38  2  0
 29 34  1  0
 30 26  1  0
 30 34  1  0
 31 30  1  0
 32 33  1  0
 32 31  1  0
 33 29  1  0
 34 35  2  0
 35 36  1  0
 37 36  2  0
 38 37  1  0
 39 13  1  0
 39 44  1  0
 39 40  1  0
 40 43  1  1
 40 41  1  0
 42 40  1  0
 44 47  1  0
 45 49  1  0
 45 44  1  0
 46 45  2  0
 49 48  1  0
 51 49  1  0
 51 52  1  0
 51 50  1  0
 53  1  1  0
 54 53  1  0
 55 54  1  0
 56 55  1  0
 57 56  1  0
 58 57  1  0
 59 60  1  0
 59 58  1  0
 60 61  1  0
 61 62  1  0
 62 63  1  0
 63 64  1  0
 65 64  1  0
 65 74  1  0
 66 72  1  0
 66 74  1  0
 67 72  1  0
 68 69  1  0
 68 67  1  0
 70 69  1  0
 70 79  1  0
 70 71  1  0
 72 71  1  0
 73 66  2  0
 74 75  1  0
 76 77  2  0
 77 96  1  0
 78 77  1  0
 78 81  1  0
 79 80  1  0
 79 76  1  0
 80 78  2  0
 81 82  1  0
 82 83  2  0
 84 87  1  0
 84 83  1  0
 85 84  2  0
 86 85  1  0
 86 81  2  0
 87 88  1  0
 88 89  1  0
 89 90  2  0
 91 90  1  0
 91 95  1  0
 92 91  2  0
 93 88  2  0
 93 92  1  0
 94 93  1  0
 96 97  1  0
 97100  1  0
 97 99  1  0
 98 96  2  0
101 76  1  0
101102  1  0
103101  1  0
M  ISO  4  11 101  12 101  66 100  74 100
M  END
>  <TORSDO>  (38) 
F 39

>  <SCORE>  (38) 
-6.086

>  <name>  (38) 
45

>  <ligand_id>  (38) 
45

>  <original_smiles>  (38) 
[H]c1c([H])c([H])c2c(c1[H])C([H])([H])C([H])([H])C([H])([H])C2([H])N([H])C(=O)C1([H])N(C(=O)C([H])(N([H])C(=O)C([H])(N([H])C([H])([H])[H])C([H])([H])[H])C(C([H])([H])[H])(C([H])([H])[H])C([H])([H])[H])C([H])([H])c2c([H])c(OOC([H])([H])C([H])([H])OC([H])([H])C([H])([H])OC([H])([H])C([H])([H])OC([H])([H])C([H])([H])OC([H])([H])C([H])([H])OC([H])([H])C([H])([H])OC([H])([H])C([H])([H])OC([H])([H])C([H])([H])N([H])C(=O)N3C([H])([H])C([H])([H])C([H])([H])C([H])(n4nc(-c5c([H])c([H])c(Oc6c([H])c([H])c(F)c([H])c6F)c([H])c5[H])c(C(=O)N([H])[H])c4N([H])[H])C3([H])[H])c([H])c([H])c2C1([H])[H]

>  <smiles>  (38) 
[H]c1c([H])c([H])c2c(c1[H])C([H])([H])C([H])([H])C([H])([H])C2([H])N([H])C(=O)C1([H])N(C(=O)C([H])(N([H])C(=O)C([H])(N([H])C([H])([H])[H])C([H])([H])[H])C(C([H])([H])[H])(C([H])([H])[H])C([H])([H])[H])C([H])([H])c2c([H])c(OOC([H])([H])C([H])([H])OC([H])([H])C([H])([H])OC([H])([H])C([H])([H])OC([H])([H])C([H])([H])OC([H])([H])C([H])([H])OC([H])([H])C([H])([H])OC([H])([H])C([H])([H])OC([H])([H])C([H])([H])N([H])C(=O)N3C([H])([H])C([H])([H])C([H])([H])C([H])(n4nc(-c5c([H])c([H])c(Oc6c([H])c([H])c(F)c([H])c6F)c([H])c5[H])c(C(=O)N([H])[H])c4N([H])[H])C3([H])[H])c([H])c([H])c2C1([H])[H]

$$$$
48:0:0
     RDKit          3D

113120  0  0  1  0  0  0  0  0999 V2000
  -29.9040  -25.9010   15.8960 O   0  0  0  0  0  0  0  0  0  0  0  0
  -29.3650  -25.4910   17.1500 C   0  0  0  0  0  2  0  0  0  0  0  0
  -30.3340  -24.6770   18.0290 C   0  0  0  0  0  2  0  0  0  0  0  0
  -31.6410  -25.2330   18.0970 O   0  0  0  0  0  0  0  0  0  0  0  0
  -32.4710  -24.6310   19.0860 C   0  0  0  0  0  2  0  0  0  0  0  0
  -33.9000  -24.3980   18.5460 C   0  0  0  0  0  2  0  0  0  0  0  0
  -34.0830  -23.1000   17.9910 O   0  0  0  0  0  0  0  0  0  0  0  0
  -33.4220  -22.8450   16.7530 C   0  0  0  0  0  2  0  0  0  0  0  0
  -32.7390  -21.4750   16.8880 C   0  0  0  0  0  2  0  0  0  0  0  0
  -31.7390  -21.6370   17.8860 O   0  0  0  0  0  0  0  0  0  0  0  0
  -31.1880  -20.4510   18.4350 C   0  0  0  0  0  2  0  0  0  0  0  0
  -30.6770  -20.8160   19.8400 C   0  0  0  0  0  2  0  0  0  0  0  0
  -31.7200  -21.3810   20.6380 O   0  0  0  0  0  0  0  0  0  0  0  0
  -32.3880  -20.5130   21.5540 C   0  0  0  0  0  2  0  0  0  0  0  0
  -33.3670  -19.5300   20.8900 C   0  0  0  0  0  2  0  0  0  0  0  0
  -32.7730  -18.2490   20.6940 O   0  0  0  0  0  0  0  0  0  0  0  0
  -32.9390  -17.3110   21.7610 C   0  0  0  0  0  2  0  0  0  0  0  0
  -31.6230  -17.0430   22.5190 C   0  0  0  0  0  2  0  0  0  0  0  0
  -30.4280  -16.6390   21.6310 C   0  0  0  0  0  2  0  0  0  0  0  0
  -30.7460  -14.3630   20.6650 C   0  0  0  0  0  0  0  0  0  0  0  0
  -30.4150  -12.2780   19.4000 C   0  0  0  0  0  2  0  0  0  0  0  0
  -29.4820  -12.5280   18.1990 C   0  0  0  0  0  2  0  0  0  0  0  0
  -28.0100  -12.3700   18.6220 C   0  0  0  0  0  2  0  0  0  0  0  0
  -27.6690  -13.1940   19.8910 C   0  0  0  0  0  3  0  0  0  0  0  0
  -28.7030  -12.9270   21.0070 C   0  0  0  0  0  2  0  0  0  0  0  0
  -30.0500  -13.2160   20.4700 N   0  0  0  0  0  0  0  0  0  0  0  0
  -31.7750  -14.6520   20.0470 O   0  0  0  0  0  0  0  0  0  0  0  0
  -30.1940  -15.2000   21.5480 N   0  0  0  0  0  0  0  0  0  0  0  0
  -29.3900  -14.8390   22.0430 H   0  0  0  0  0  0  0  0  0  0  0  0
  -25.2620  -13.8130   20.5690 C   0  0  0  0  0  0  0  0  0  0  0  0
  -24.1850  -13.0440   20.9160 C   0  0  0  0  0  0  0  0  0  0  0  0
  -24.6370  -11.6910   20.8720 C   0  0  0  0  0  0  0  0  0  0  0  0
  -26.3050  -12.9290   20.3440 N   0  0  0  0  0  0  0  0  0  0  0  0
  -25.9280  -11.6460   20.5780 N   0  0  0  0  0  0  0  0  0  0  0  0
  -23.9030  -10.4300   21.0410 C   0  0  0  0  0  0  0  0  0  0  0  0
  -24.3590   -9.4230   21.9200 C   0  0  0  0  0  3  0  0  0  0  0  0
  -23.6290   -8.2250   22.0760 C   0  0  0  0  0  3  0  0  0  0  0  0
  -22.4270   -8.0270   21.3540 C   0  0  0  0  0  0  0  0  0  0  0  0
  -21.9890   -9.0250   20.4640 C   0  0  0  0  0  3  0  0  0  0  0  0
  -22.7200  -10.2150   20.3060 C   0  0  0  0  0  3  0  0  0  0  0  0
  -21.6640   -6.8870   21.4230 O   0  0  0  0  0  0  0  0  0  0  0  0
  -21.6860   -6.0730   22.5280 C   0  0  0  0  0  0  0  0  0  0  0  0
  -21.4020   -6.5640   23.8200 C   0  0  0  0  0  3  0  0  0  0  0  0
  -21.3660   -5.6790   24.9170 C   0  0  0  0  0  3  0  0  0  0  0  0
  -21.6040   -4.3060   24.7220 C   0  0  0  0  0  0  0  0  0  0  0  0
  -21.8820   -3.8150   23.4340 C   0  0  0  0  0  3  0  0  0  0  0  0
  -21.9200   -4.6960   22.3400 C   0  0  0  0  0  0  0  0  0  0  0  0
  -22.1670   -4.2150   21.0970 F   0  0  0  0  0  0  0  0  0  0  0  0
  -21.5630   -3.4540   25.7730 F   0  0  0  0  0  0  0  0  0  0  0  0
  -22.7870  -13.5250   21.1860 C   0  0  0  0  0  0  0  0  0  0  0  0
  -22.0520  -12.8240   22.0390 N   0  0  0  0  0  0  0  0  0  0  0  0
  -22.3580  -14.5590   20.6730 O   0  0  0  0  0  0  0  0  0  0  0  0
  -22.4110  -11.9850   22.4720 H   0  0  0  0  0  0  0  0  0  0  0  0
  -21.1140  -13.1260   22.2650 H   0  0  0  0  0  0  0  0  0  0  0  0
  -25.4380  -15.1850   20.4100 N   0  0  0  0  0  0  0  0  0  0  0  0
  -24.6730  -15.8420   20.5090 H   0  0  0  0  0  0  0  0  0  0  0  0
  -26.3010  -15.6200   20.1080 H   0  0  0  0  0  0  0  0  0  0  0  0
  -30.7450  -27.0590   15.9140 C   0  0  0  0  0  2  0  0  0  0  0  0
  -30.0760  -28.3190   16.5050 C   0  0  0  0  0  2  0  0  0  0  0  0
  -30.1320  -28.4140   17.9310 O   0  0  0  0  0  0  0  0  0  0  0  0
  -31.4240  -28.6470   18.4850 C   0  0  0  0  0  2  0  0  0  0  0  0
  -31.2910  -29.2850   19.8800 C   0  0  0  0  0  2  0  0  0  0  0  0
  -30.9640  -28.3270   20.8840 O   0  0  0  0  0  0  0  0  0  0  0  0
  -30.9540  -28.8990   22.1930 C   0  0  0  0  0  2  0  0  0  0  0  0
  -30.5950  -27.8530   23.2640 C   0  0  0  0  0  2  0  0  0  0  0  0
  -29.1840  -27.7660   23.4230 O   0  0  0  0  0  0  0  0  0  0  0  0
  -28.7980  -26.7220   24.3100 C   0  0  0  0  0  2  0  0  0  0  0  0
  -27.2730  -26.5110   24.2790 C   0  0  0  0  0  2  0  0  0  0  0  0
  -26.9070  -25.2470   23.7240 O   0  0  0  0  0  0  0  0  0  0  0  0
  -26.7360  -25.2060   22.3100 C   0  0  0  0  0  2  0  0  0  0  0  0
  -28.0580  -24.9930   21.5450 C   0  0  0  0  0  2  0  0  0  0  0  0
  -28.7380  -26.2160   21.3370 O   0  0  0  0  0  0  0  0  0  0  0  0
  -28.3930  -26.7540   19.9860 O   0  0  0  0  0  0  0  0  0  0  0  0
  -24.6120  -31.8660   23.2180 C   0  0  0  0  0  0  0  0  0  0  0  0
  -27.2430  -27.4880   20.0520 C   0  0  0  0  0  0  0  0  0  0  0  0
  -23.4010  -30.4910   21.5540 C   0  0  0  0  0  3  0  0  0  0  0  0
  -24.8480  -28.9620   20.1140 C   0  0  0  0  0  0  0  0  0  0  0  0
  -25.9270  -30.8390   21.3690 C   0  0  0  0  0  2  0  0  0  0  0  0
  -26.0050  -29.4780   20.7130 C   0  0  0  0  0  0  0  0  0  0  0  0
  -27.2090  -28.7430   20.6890 C   0  0  0  0  0  3  0  0  0  0  0  0
  -26.0780  -26.9750   19.4480 C   0  0  0  0  0  3  0  0  0  0  0  0
  -24.8770  -27.7050   19.4810 C   0  0  0  0  0  3  0  0  0  0  0  0
  -23.6100  -29.8250   20.1670 C   0  0  0  0  0  2  0  0  0  0  0  0
  -24.6650  -31.0800   22.1060 N   0  0  0  0  0  0  0  0  0  0  0  0
  -23.5300  -32.1400   23.7560 O   0  0  0  0  0  0  0  0  0  0  0  0
  -22.7430  -29.4620   22.5030 C   0  0  0  0  0  0  0  0  0  0  0  0
  -21.4150  -29.3030   22.3770 N   0  0  0  0  0  0  0  0  0  0  0  0
  -23.4210  -28.8170   23.3040 O   0  0  0  0  0  0  0  0  0  0  0  0
  -20.9300  -29.8760   21.7030 H   0  0  0  0  0  0  0  0  0  0  0  0
  -18.0270  -28.1360   22.8500 C   0  0  0  0  0  0  0  0  0  0  0  0
  -20.5860  -28.3640   23.1350 C   0  0  0  0  0  3  0  0  0  0  0  0
  -20.6760  -26.9390   22.5420 C   0  0  0  0  0  2  0  0  0  0  0  0
  -19.5730  -26.6380   21.5210 C   0  0  0  0  0  2  0  0  0  0  0  0
  -18.1920  -26.7910   22.1630 C   0  0  0  0  0  2  0  0  0  0  0  0
  -19.1510  -28.8810   23.2910 C   0  0  0  0  0  0  0  0  0  0  0  0
  -18.9450  -30.1430   23.8920 C   0  0  0  0  0  3  0  0  0  0  0  0
  -17.6450  -30.6580   24.0570 C   0  0  0  0  0  3  0  0  0  0  0  0
  -16.5340  -29.9090   23.6330 C   0  0  0  0  0  3  0  0  0  0  0  0
  -16.7260  -28.6490   23.0370 C   0  0  0  0  0  3  0  0  0  0  0  0
  -25.9010  -32.4830   23.8450 C   0  0  0  0  0  3  0  0  0  0  0  0
  -25.5860  -33.8640   24.2370 N   0  0  0  0  0  0  0  0  0  0  0  0
  -25.9010  -34.9480   23.5150 C   0  0  0  0  0  0  0  0  0  0  0  0
  -26.5590  -34.8930   22.4740 O   0  0  0  0  0  0  0  0  0  0  0  0
  -25.0060  -33.9800   25.0550 H   0  0  0  0  0  0  0  0  0  0  0  0
  -24.1480  -36.7320   23.2640 C   0  0  0  0  0  1  0  0  0  0  0  0
  -25.4090  -36.3150   24.0370 C   0  0  0  0  0  3  0  0  0  0  0  0
  -27.5590  -37.1820   24.8480 C   0  0  0  0  0  1  0  0  0  0  0  0
  -26.4310  -37.3810   23.9410 N   0  0  0  0  0  0  0  0  0  0  0  0
  -26.0210  -38.2910   24.1390 H   0  0  0  0  0  0  0  0  0  0  0  0
  -26.4500  -31.6630   25.0770 C   0  0  1  0  0  0  0  0  0  0  0  0
  -25.3810  -31.3620   26.1530 C   0  0  0  0  0  1  0  0  0  0  0  0
  -27.0390  -30.3130   24.6100 C   0  0  0  0  0  1  0  0  0  0  0  0
  -27.6050  -32.4380   25.7520 C   0  0  0  0  0  1  0  0  0  0  0  0
  1 58  1  0
  1  2  1  0
  2  3  1  0
  3  4  1  0
  4  5  1  0
  6  5  1  0
  7  6  1  0
  8  9  1  0
  8  7  1  0
  9 10  1  0
 10 11  1  0
 11 12  1  0
 12 13  1  0
 13 14  1  0
 15 14  1  0
 16 15  1  0
 16 17  1  0
 17 18  1  0
 19 18  1  0
 20 28  1  0
 21 26  1  0
 22 23  1  0
 22 21  1  0
 24 23  1  0
 24 33  1  0
 24 25  1  0
 26 20  1  0
 26 25  1  0
 27 20  2  0
 28 19  1  0
 28 29  1  0
 30 31  2  0
 31 50  1  0
 32 31  1  0
 32 35  1  0
 33 30  1  0
 33 34  1  0
 34 32  2  0
 35 36  1  0
 36 37  2  0
 38 41  1  0
 38 37  1  0
 39 38  2  0
 40 39  1  0
 40 35  2  0
 41 42  1  0
 42 43  1  0
 43 44  2  0
 45 44  1  0
 45 49  1  0
 46 45  2  0
 47 42  2  0
 47 46  1  0
 48 47  1  0
 50 51  1  0
 51 54  1  0
 51 53  1  0
 52 50  2  0
 55 56  1  0
 55 30  1  0
 57 55  1  0
 58 59  1  0
 59 60  1  0
 60 61  1  0
 61 62  1  0
 62 63  1  0
 63 64  1  0
 64 65  1  0
 65 66  1  0
 66 67  1  0
 68 67  1  0
 69 68  1  0
 70 69  1  0
 71 70  1  0
 72 71  1  0
 73 75  1  0
 73 72  1  0
 74 85  2  0
 75 80  1  0
 76 84  1  0
 76 86  1  0
 77 83  1  0
 77 79  1  0
 78 84  1  0
 79 78  1  0
 80 79  2  0
 81 82  1  0
 81 75  2  0
 82 77  2  0
 83 76  1  0
 84 74  1  0
 86 88  2  0
 87 86  1  0
 89 87  1  0
 90 99  2  0
 90 95  1  0
 91 87  1  0
 91 95  1  0
 92 91  1  0
 93 94  1  0
 93 92  1  0
 94 90  1  0
 95 96  2  0
 96 97  1  0
 98 97  2  0
 99 98  1  0
100 74  1  0
100101  1  0
100110  1  0
101104  1  0
102106  1  0
102101  1  0
103102  2  0
106105  1  0
108106  1  0
108109  1  0
108107  1  0
110113  1  1
110111  1  0
112110  1  0
M  ISO  4  20 100  28 100  72 101  73 101
M  END
>  <TORSDO>  (39) 
F 49

>  <SCORE>  (39) 
-5.946

>  <name>  (39) 
48

>  <ligand_id>  (39) 
48

>  <original_smiles>  (39) 
[H]c1c([H])c([H])c2c(c1[H])C([H])([H])C([H])([H])C([H])([H])C2([H])N([H])C(=O)C1([H])N(C(=O)C([H])(N([H])C(=O)C([H])(N([H])C([H])([H])[H])C([H])([H])[H])C(C([H])([H])[H])(C([H])([H])[H])C([H])([H])[H])C([H])([H])c2c([H])c(OOC([H])([H])C([H])([H])OC([H])([H])C([H])([H])OC([H])([H])C([H])([H])OC([H])([H])C([H])([H])OC([H])([H])C([H])([H])OC([H])([H])C([H])([H])OC([H])([H])C([H])([H])OC([H])([H])C([H])([H])OC([H])([H])C([H])([H])OC([H])([H])C([H])([H])OC([H])([H])C([H])([H])C([H])([H])N([H])C(=O)N3C([H])([H])C([H])([H])C([H])([H])C([H])(n4nc(-c5c([H])c([H])c(Oc6c([H])c([H])c(F)c([H])c6F)c([H])c5[H])c(C(=O)N([H])[H])c4N([H])[H])C3([H])[H])c([H])c([H])c2C1([H])[H]

>  <smiles>  (39) 
[H]c1c([H])c([H])c2c(c1[H])C([H])([H])C([H])([H])C([H])([H])C2([H])N([H])C(=O)C1([H])N(C(=O)C([H])(N([H])C(=O)C([H])(N([H])C([H])([H])[H])C([H])([H])[H])C(C([H])([H])[H])(C([H])([H])[H])C([H])([H])[H])C([H])([H])c2c([H])c(OOC([H])([H])C([H])([H])OC([H])([H])C([H])([H])OC([H])([H])C([H])([H])OC([H])([H])C([H])([H])OC([H])([H])C([H])([H])OC([H])([H])C([H])([H])OC([H])([H])C([H])([H])OC([H])([H])C([H])([H])OC([H])([H])C([H])([H])OC([H])([H])C([H])([H])OC([H])([H])C([H])([H])C([H])([H])N([H])C(=O)N3C([H])([H])C([H])([H])C([H])([H])C([H])(n4nc(-c5c([H])c([H])c(Oc6c([H])c([H])c(F)c([H])c6F)c([H])c5[H])c(C(=O)N([H])[H])c4N([H])[H])C3([H])[H])c([H])c([H])c2C1([H])[H]

$$$$
50:0:0
     RDKit          3D

120127  0  0  1  0  0  0  0  0999 V2000
  -32.5910  -20.9540   16.1210 C   0  0  0  0  0  2  0  0  0  0  0  0
  -33.9520  -20.7490   16.7790 C   0  0  0  0  0  2  0  0  0  0  0  0
  -34.5900  -22.0000   17.0090 O   0  0  0  0  0  0  0  0  0  0  0  0
  -34.9040  -22.7710   15.8600 C   0  0  0  0  0  2  0  0  0  0  0  0
  -35.8860  -23.7990   16.4300 C   0  0  0  0  0  2  0  0  0  0  0  0
  -36.9610  -23.0770   17.0250 O   0  0  0  0  0  0  0  0  0  0  0  0
  -37.8590  -23.8350   17.8420 C   0  0  0  0  0  2  0  0  0  0  0  0
  -37.3820  -23.9200   19.2990 C   0  0  0  0  0  2  0  0  0  0  0  0
  -37.0100  -22.5950   19.6620 O   0  0  0  0  0  0  0  0  0  0  0  0
  -35.8970  -22.5270   20.5270 C   0  0  0  0  0  2  0  0  0  0  0  0
  -34.6430  -23.1200   19.9180 C   0  0  0  0  0  2  0  0  0  0  0  0
  -34.3690  -24.3740   20.5450 O   0  0  0  0  0  0  0  0  0  0  0  0
  -33.3000  -25.1170   19.9540 C   0  0  0  0  0  2  0  0  0  0  0  0
  -32.8720  -26.3710   20.6950 C   0  0  0  0  0  2  0  0  0  0  0  0
  -31.8960  -26.1270   21.7150 O   0  0  0  0  0  0  0  0  0  0  0  0
  -32.3940  -25.8880   23.0390 C   0  0  0  0  0  2  0  0  0  0  0  0
  -32.1970  -24.3900   23.3970 C   0  0  0  0  0  2  0  0  0  0  0  0
  -32.8850  -23.4760   22.5290 O   0  0  0  0  0  0  0  0  0  0  0  0
  -33.1170  -22.1370   22.9550 C   0  0  0  0  0  3  0  0  0  0  0  0
  -32.5690  -20.7180   22.3750 C   0  0  0  0  0  3  0  0  0  0  0  0
  -31.6080  -20.1780   21.2650 O   0  0  0  0  0  0  0  0  0  0  0  0
  -30.2680  -19.3660   20.9850 C   0  0  0  0  0  2  0  0  0  0  0  0
  -29.5590  -17.7670   21.1410 C   0  0  0  0  0  2  0  0  0  0  0  0
  -30.5710  -15.0090   20.5460 C   0  0  0  0  0  0  0  0  0  0  0  0
  -30.4740  -12.6320   19.5650 C   0  0  0  0  0  2  0  0  0  0  0  0
  -29.5610  -12.5690   18.3050 C   0  0  0  0  0  2  0  0  0  0  0  0
  -28.0820  -12.3610   18.6880 C   0  0  0  0  0  2  0  0  0  0  0  0
  -27.6390  -13.2820   19.8520 C   0  0  0  0  0  3  0  0  0  0  0  0
  -28.6710  -13.3270   21.0060 C   0  0  0  0  0  2  0  0  0  0  0  0
  -29.9740  -13.7460   20.4510 N   0  0  0  0  0  0  0  0  0  0  0  0
  -31.7470  -15.0510   20.1860 O   0  0  0  0  0  0  0  0  0  0  0  0
  -29.7850  -16.1730   20.8800 N   0  0  0  0  0  0  0  0  0  0  0  0
  -28.8760  -15.7750   21.0210 H   0  0  0  0  0  0  0  0  0  0  0  0
  -25.2380  -13.8160   20.5880 C   0  0  0  0  0  0  0  0  0  0  0  0
  -24.1800  -13.0490   20.9230 C   0  0  0  0  0  0  0  0  0  0  0  0
  -24.6420  -11.6910   20.8600 C   0  0  0  0  0  0  0  0  0  0  0  0
  -26.2950  -12.9610   20.3270 N   0  0  0  0  0  0  0  0  0  0  0  0
  -25.9460  -11.6660   20.5750 N   0  0  0  0  0  0  0  0  0  0  0  0
  -23.9160  -10.4330   21.0300 C   0  0  0  0  0  0  0  0  0  0  0  0
  -24.3680   -9.4210   21.9130 C   0  0  0  0  0  3  0  0  0  0  0  0
  -23.6400   -8.2220   22.0670 C   0  0  0  0  0  3  0  0  0  0  0  0
  -22.4330   -8.0250   21.3530 C   0  0  0  0  0  0  0  0  0  0  0  0
  -22.0000   -9.0220   20.4570 C   0  0  0  0  0  3  0  0  0  0  0  0
  -22.7300  -10.2100   20.3010 C   0  0  0  0  0  3  0  0  0  0  0  0
  -21.6640   -6.8880   21.4250 O   0  0  0  0  0  0  0  0  0  0  0  0
  -21.6880   -6.0720   22.5260 C   0  0  0  0  0  0  0  0  0  0  0  0
  -21.4030   -6.5640   23.8190 C   0  0  0  0  0  3  0  0  0  0  0  0
  -21.3660   -5.6790   24.9150 C   0  0  0  0  0  3  0  0  0  0  0  0
  -21.6060   -4.3060   24.7220 C   0  0  0  0  0  0  0  0  0  0  0  0
  -21.8790   -3.8150   23.4330 C   0  0  0  0  0  3  0  0  0  0  0  0
  -21.9200   -4.6960   22.3390 C   0  0  0  0  0  0  0  0  0  0  0  0
  -22.1640   -4.2140   21.0970 F   0  0  0  0  0  0  0  0  0  0  0  0
  -21.5640   -3.4550   25.7720 F   0  0  0  0  0  0  0  0  0  0  0  0
  -22.7730  -13.4990   21.1960 C   0  0  0  0  0  0  0  0  0  0  0  0
  -22.0570  -12.8010   22.0500 N   0  0  0  0  0  0  0  0  0  0  0  0
  -22.3460  -14.5460   20.6820 O   0  0  0  0  0  0  0  0  0  0  0  0
  -22.4230  -11.9640   22.4820 H   0  0  0  0  0  0  0  0  0  0  0  0
  -21.1160  -13.0900   22.2730 H   0  0  0  0  0  0  0  0  0  0  0  0
  -25.4100  -15.2020   20.4360 N   0  0  0  0  0  0  0  0  0  0  0  0
  -24.6720  -15.8640   20.6110 H   0  0  0  0  0  0  0  0  0  0  0  0
  -26.2730  -15.6510   20.1830 H   0  0  0  0  0  0  0  0  0  0  0  0
  -32.0940  -22.2210   16.6200 O   0  0  0  0  0  0  0  0  0  0  0  0
  -30.9660  -22.2360   17.4980 C   0  0  0  0  0  2  0  0  0  0  0  0
  -31.1280  -22.6540   18.9700 C   0  0  0  0  0  2  0  0  0  0  0  0
  -30.3530  -22.0150   19.9710 O   0  0  0  0  0  0  0  0  0  0  0  0
  -30.4730  -22.4820   21.3020 C   0  0  0  0  0  2  0  0  0  0  0  0
  -29.8000  -21.7430   22.6340 C   0  0  0  0  0  2  0  0  0  0  0  0
  -29.7610  -20.3100   23.1600 O   0  0  0  0  0  0  0  0  0  0  0  0
  -30.6810  -19.2150   23.6900 C   0  0  0  0  0  3  0  0  0  0  0  0
  -31.7280  -18.1210   22.9060 C   0  0  0  0  0  3  0  0  0  0  0  0
  -32.0660  -17.5950   21.4710 O   0  0  0  0  0  0  0  0  0  0  0  0
  -32.2580  -18.0370   19.9850 C   0  0  0  0  0  2  0  0  0  0  0  0
  -31.1720  -18.0310   18.6930 C   0  0  0  0  0  2  0  0  0  0  0  0
  -30.3140  -19.1480   18.1280 O   0  0  0  0  0  0  0  0  0  0  0  0
  -28.8430  -19.5400   18.2790 C   0  0  0  0  0  2  0  0  0  0  0  0
  -28.1890  -21.0350   18.2530 C   0  0  0  0  0  2  0  0  0  0  0  0
  -28.0450  -22.1160   19.3070 O   0  0  0  0  0  0  0  0  0  0  0  0
  -27.7490  -23.5520   18.9500 C   0  0  0  0  0  2  0  0  0  0  0  0
  -27.8590  -24.7920   20.0560 C   0  0  0  0  0  2  0  0  0  0  0  0
  -28.1960  -26.2790   19.8760 O   0  0  0  0  0  0  0  0  0  0  0  0
  -24.6400  -31.8420   23.2000 C   0  0  0  0  0  0  0  0  0  0  0  0
  -27.1510  -27.2130   19.9960 C   0  0  0  0  0  0  0  0  0  0  0  0
  -23.4280  -30.4800   21.5580 C   0  0  0  0  0  3  0  0  0  0  0  0
  -24.8450  -28.9160   20.0890 C   0  0  0  0  0  0  0  0  0  0  0  0
  -25.9830  -30.7210   21.3830 C   0  0  0  0  0  2  0  0  0  0  0  0
  -26.0480  -29.3510   20.6870 C   0  0  0  0  0  0  0  0  0  0  0  0
  -27.2080  -28.5170   20.6110 C   0  0  0  0  0  3  0  0  0  0  0  0
  -25.9220  -26.8420   19.4360 C   0  0  0  0  0  3  0  0  0  0  0  0
  -24.8000  -27.6580   19.4670 C   0  0  0  0  0  3  0  0  0  0  0  0
  -23.6340  -29.8150   20.1760 C   0  0  0  0  0  2  0  0  0  0  0  0
  -24.7080  -31.0230   22.1030 N   0  0  0  0  0  0  0  0  0  0  0  0
  -23.5530  -32.1410   23.7120 O   0  0  0  0  0  0  0  0  0  0  0  0
  -22.7470  -29.4570   22.4960 C   0  0  0  0  0  0  0  0  0  0  0  0
  -21.4180  -29.3060   22.3670 N   0  0  0  0  0  0  0  0  0  0  0  0
  -23.4010  -28.8160   23.3210 O   0  0  0  0  0  0  0  0  0  0  0  0
  -20.9360  -29.8640   21.6750 H   0  0  0  0  0  0  0  0  0  0  0  0
  -18.0270  -28.1410   22.8470 C   0  0  0  0  0  0  0  0  0  0  0  0
  -20.5870  -28.3730   23.1250 C   0  0  0  0  0  3  0  0  0  0  0  0
  -20.6780  -26.9460   22.5370 C   0  0  0  0  0  2  0  0  0  0  0  0
  -19.5780  -26.6420   21.5170 C   0  0  0  0  0  2  0  0  0  0  0  0
  -18.1960  -26.7960   22.1600 C   0  0  0  0  0  2  0  0  0  0  0  0
  -19.1530  -28.8880   23.2850 C   0  0  0  0  0  0  0  0  0  0  0  0
  -18.9470  -30.1470   23.8900 C   0  0  0  0  0  3  0  0  0  0  0  0
  -17.6470  -30.6610   24.0580 C   0  0  0  0  0  3  0  0  0  0  0  0
  -16.5350  -29.9120   23.6350 C   0  0  0  0  0  3  0  0  0  0  0  0
  -16.7260  -28.6530   23.0350 C   0  0  0  0  0  3  0  0  0  0  0  0
  -25.9240  -32.4670   23.8220 C   0  0  0  0  0  3  0  0  0  0  0  0
  -25.5960  -33.8510   24.2140 N   0  0  0  0  0  0  0  0  0  0  0  0
  -25.9080  -34.9450   23.5020 C   0  0  0  0  0  0  0  0  0  0  0  0
  -26.5720  -34.8900   22.4640 O   0  0  0  0  0  0  0  0  0  0  0  0
  -24.9920  -33.9580   25.0160 H   0  0  0  0  0  0  0  0  0  0  0  0
  -24.1560  -36.7290   23.2650 C   0  0  0  0  0  1  0  0  0  0  0  0
  -25.4180  -36.3080   24.0320 C   0  0  0  0  0  3  0  0  0  0  0  0
  -27.5590  -37.1780   24.8450 C   0  0  0  0  0  1  0  0  0  0  0  0
  -26.4330  -37.3770   23.9390 N   0  0  0  0  0  0  0  0  0  0  0  0
  -26.0230  -38.2840   24.1380 H   0  0  0  0  0  0  0  0  0  0  0  0
  -26.4600  -31.6490   25.0620 C   0  0  1  0  0  0  0  0  0  0  0  0
  -25.3750  -31.3620   26.1250 C   0  0  0  0  0  1  0  0  0  0  0  0
  -27.0380  -30.2880   24.6120 C   0  0  0  0  0  1  0  0  0  0  0  0
  -27.6110  -32.4230   25.7330 C   0  0  0  0  0  1  0  0  0  0  0  0
  1 62  1  0
  1  2  1  0
  2  3  1  0
  4  5  1  0
  4  3  1  0
  5  6  1  0
  6  7  1  0
  7  8  1  0
  8  9  1  0
  9 10  1  0
 11 10  1  0
 11 12  1  0
 13 12  1  0
 13 14  1  0
 14 15  1  0
 15 16  1  0
 16 17  1  0
 18 19  1  0
 18 17  1  0
 20 19  2  0
 21 20  1  0
 22 23  1  0
 22 21  1  0
 24 32  1  0
 25 30  1  0
 26 27  1  0
 26 25  1  0
 28 27  1  0
 28 37  1  0
 28 29  1  0
 30 24  1  0
 30 29  1  0
 31 24  2  0
 32 33  1  0
 32 23  1  0
 34 35  2  0
 35 54  1  0
 36 35  1  0
 36 39  1  0
 37 38  1  0
 37 34  1  0
 38 36  2  0
 39 40  1  0
 40 41  2  0
 42 45  1  0
 42 41  1  0
 43 42  2  0
 44 43  1  0
 44 39  2  0
 45 46  1  0
 46 47  1  0
 47 48  2  0
 49 48  1  0
 49 53  1  0
 50 49  2  0
 51 46  2  0
 51 50  1  0
 52 51  1  0
 54 55  1  0
 55 58  1  0
 55 57  1  0
 56 54  2  0
 59 34  1  0
 59 60  1  0
 61 59  1  0
 62 63  1  0
 63 64  1  0
 64 65  1  0
 65 66  1  0
 66 67  1  0
 67 68  1  0
 68 69  1  0
 70 69  2  0
 71 70  1  0
 72 71  1  0
 73 72  1  0
 74 75  1  0
 74 73  1  0
 76 75  1  0
 76 77  1  0
 78 77  1  0
 78 79  1  0
 80 82  1  0
 80 79  1  0
 81 92  2  0
 82 87  1  0
 83 91  1  0
 83 93  1  0
 84 90  1  0
 84 86  1  0
 85 91  1  0
 86 85  1  0
 87 86  2  0
 88 89  1  0
 88 82  2  0
 89 84  2  0
 90 83  1  0
 91 81  1  0
 93 95  2  0
 94 93  1  0
 96 94  1  0
 97106  2  0
 97102  1  0
 98 94  1  0
 98102  1  0
 99 98  1  0
100101  1  0
100 99  1  0
101 97  1  0
102103  2  0
103104  1  0
105104  2  0
106105  1  0
107 81  1  0
107108  1  0
107117  1  0
108111  1  0
109113  1  0
109108  1  0
110109  2  0
113112  1  0
115113  1  0
115116  1  0
115114  1  0
117120  1  1
117118  1  0
119117  1  0
M  ISO  4  24 100  32 100  79 101  80 101
M  END
>  <TORSDO>  (40) 
F 56

>  <SCORE>  (40) 
1.627

>  <name>  (40) 
50

>  <ligand_id>  (40) 
50

>  <original_smiles>  (40) 
[H]c1c([H])c([H])c2c(c1[H])C([H])([H])C([H])([H])C([H])([H])C2([H])N([H])C(=O)C1([H])N(C(=O)C([H])(N([H])C(=O)C([H])(N([H])C([H])([H])[H])C([H])([H])[H])C(C([H])([H])[H])(C([H])([H])[H])C([H])([H])[H])C([H])([H])c2c([H])c(OC([H])([H])C([H])([H])OC([H])([H])C([H])([H])OC([H])([H])C([H])([H])OC([H])([H])C([H])([H])OC([H])([H])C([H])([H])OC([H])([H])C([H])([H])OC([H])([H])C([H])([H])OC([H])([H])C([H])([H])OC([H])([H])C([H])([H])OC([H])([H])C([H])([H])OC([H])([H])C([H])([H])OC([H])([H])C([H])([H])OC([H])([H])C([H])([H])OC([H])([H])C([H])([H])N([H])C(=O)N3C([H])([H])C([H])([H])C([H])([H])C([H])(n4nc(-c5c([H])c([H])c(Oc6c([H])c([H])c(F)c([H])c6F)c([H])c5[H])c(C(=O)N([H])[H])c4N([H])[H])C3([H])[H])c([H])c([H])c2C1([H])[H]

>  <smiles>  (40) 
[H]c1c([H])c([H])c2c(c1[H])C([H])([H])C([H])([H])C([H])([H])C2([H])N([H])C(=O)C1([H])N(C(=O)C([H])(N([H])C(=O)C([H])(N([H])C([H])([H])[H])C([H])([H])[H])C(C([H])([H])[H])(C([H])([H])[H])C([H])([H])[H])C([H])([H])c2c([H])c(OC([H])([H])C([H])([H])OC([H])([H])C([H])([H])OC([H])([H])C([H])([H])OC([H])([H])C([H])([H])OC([H])([H])C([H])([H])OC([H])([H])C([H])([H])OC([H])([H])C([H])([H])OC([H])([H])C([H])([H])OC([H])([H])C([H])([H])OC([H])([H])C([H])([H])OC([H])([H])C([H])([H])OC([H])([H])C([H])([H])OC([H])([H])C([H])([H])OC([H])([H])C([H])([H])N([H])C(=O)N3C([H])([H])C([H])([H])C([H])([H])C([H])(n4nc(-c5c([H])c([H])c(Oc6c([H])c([H])c(F)c([H])c6F)c([H])c5[H])c(C(=O)N([H])[H])c4N([H])[H])C3([H])[H])c([H])c([H])c2C1([H])[H]

$$$$
51:0:0
     RDKit          3D

125133  0  0  1  0  0  0  0  0999 V2000
  -24.3750  -20.0980   23.0510 C   0  0  0  0  0  2  0  0  0  0  0  0
  -24.0420  -19.2550   21.9540 O   0  0  0  0  0  0  0  0  0  0  0  0
  -23.6990  -19.9610   20.7670 C   0  0  0  0  0  2  0  0  0  0  0  0
  -23.6100  -18.9570   19.6110 C   0  0  0  0  0  2  0  0  0  0  0  0
  -22.7890  -17.8520   19.9800 O   0  0  0  0  0  0  0  0  0  0  0  0
  -22.6370  -16.9190   18.9130 C   0  0  0  0  0  2  0  0  0  0  0  0
  -22.4320  -15.4890   19.4460 C   0  0  0  0  0  2  0  0  0  0  0  0
  -23.5360  -15.0960   20.2510 O   0  0  0  0  0  0  0  0  0  0  0  0
  -23.7950  -13.6960   20.2380 C   0  0  0  0  0  2  0  0  0  0  0  0
  -25.0220  -13.4010   21.1170 C   0  0  0  0  0  2  0  0  0  0  0  0
  -25.9900  -14.4080   20.8600 O   0  0  0  0  0  0  0  0  0  0  0  0
  -27.2260  -14.2560   21.5380 C   0  0  0  0  0  2  0  0  0  0  0  0
  -28.3330  -14.0900   20.4990 C   0  0  0  0  0  2  0  0  0  0  0  0
  -28.5070  -15.3100   19.7730 O   0  0  0  0  0  0  0  0  0  0  0  0
  -29.4550  -15.1360   18.7240 C   0  0  0  0  0  2  0  0  0  0  0  0
  -29.6760  -16.3500   17.6910 C   0  0  0  0  0  2  0  0  0  0  0  0
  -30.9850  -15.7470   17.3550 O   0  0  0  0  0  0  0  0  0  0  0  0
  -32.1420  -16.4980   16.9360 C   0  0  0  0  0  2  0  0  0  0  0  0
  -33.0130  -15.6870   15.9710 C   0  0  0  0  0  2  0  0  0  0  0  0
  -33.7820  -16.5930   15.1800 O   0  0  0  0  0  0  0  0  0  0  0  0
  -35.1660  -16.6700   15.5080 C   0  0  0  0  0  2  0  0  0  0  0  0
  -35.7290  -18.0700   15.1860 C   0  0  0  0  0  2  0  0  0  0  0  0
  -35.1250  -19.0560   16.0290 O   0  0  0  0  0  0  0  0  0  0  0  0
  -35.8950  -20.2570   16.1400 C   0  0  0  0  0  2  0  0  0  0  0  0
  -35.0710  -21.4500   16.7100 C   0  0  0  0  0  2  0  0  0  0  0  0
  -32.9120  -22.0920   15.7550 C   0  0  0  0  0  0  0  0  0  0  0  0
  -33.8650  -21.7330   13.6190 C   0  0  0  0  0  2  0  0  0  0  0  0
  -33.4300  -22.4900   12.3810 C   0  0  0  0  0  2  0  0  0  0  0  0
  -32.4190  -21.6110   11.7120 C   0  0  0  0  0  2  0  0  0  0  0  0
  -31.2100  -21.5540   12.6420 C   0  0  0  0  0  3  0  0  0  0  0  0
  -31.4190  -21.1930   14.1070 C   0  0  0  0  0  2  0  0  0  0  0  0
  -32.7500  -21.5170   14.5690 N   0  0  0  0  0  0  0  0  0  0  0  0
  -32.9170  -23.3040   15.9600 O   0  0  0  0  0  0  0  0  0  0  0  0
  -33.6320  -21.2420   16.4940 N   0  0  0  0  0  0  0  0  0  0  0  0
  -33.4480  -20.2760   16.2540 H   0  0  0  0  0  0  0  0  0  0  0  0
  -28.5110  -20.7210   11.9260 C   0  0  0  0  0  0  0  0  0  0  0  0
  -28.0270  -19.4120   10.9310 C   0  0  0  0  0  0  0  0  0  0  0  0
  -29.5020  -18.4280   10.4430 C   0  0  0  0  0  0  0  0  0  0  0  0
  -30.3350  -20.6480   12.1170 N   0  0  0  0  0  0  0  0  0  0  0  0
  -30.9510  -19.2030   11.1400 N   0  0  0  0  0  0  0  0  0  0  0  0
  -29.6750  -17.3460    9.6430 C   0  0  0  0  0  0  0  0  0  0  0  0
  -30.2950  -16.2210   10.1870 C   0  0  0  0  0  3  0  0  0  0  0  0
  -30.4720  -15.1190    9.3630 C   0  0  0  0  0  3  0  0  0  0  0  0
  -30.0130  -15.1820    8.0280 C   0  0  0  0  0  0  0  0  0  0  0  0
  -29.4170  -16.3390    7.5090 C   0  0  0  0  0  3  0  0  0  0  0  0
  -29.2400  -17.4490    8.3280 C   0  0  0  0  0  3  0  0  0  0  0  0
  -30.1130  -14.1490    7.1570 O   0  0  0  0  0  0  0  0  0  0  0  0
  -30.2150  -12.8730    7.6270 C   0  0  0  0  0  0  0  0  0  0  0  0
  -29.2400  -12.3060    8.4700 C   0  0  0  0  0  3  0  0  0  0  0  0
  -29.3590  -10.9580    8.8580 C   0  0  0  0  0  3  0  0  0  0  0  0
  -30.4400  -10.1860    8.3910 C   0  0  0  0  0  0  0  0  0  0  0  0
  -31.4220  -10.7710    7.5670 C   0  0  0  0  0  3  0  0  0  0  0  0
  -31.3060  -12.1120    7.1850 C   0  0  0  0  0  0  0  0  0  0  0  0
  -32.2360  -12.6770    6.3770 F   0  0  0  0  0  0  0  0  0  0  0  0
  -30.5410   -8.8830    8.7330 F   0  0  0  0  0  0  0  0  0  0  0  0
  -26.7330  -19.2570   10.3040 C   0  0  0  0  0  0  0  0  0  0  0  0
  -26.4110  -18.0190    9.9610 N   0  0  0  0  0  0  0  0  0  0  0  0
  -26.0390  -20.2390   10.0950 O   0  0  0  0  0  0  0  0  0  0  0  0
  -27.0330  -17.2500   10.1500 H   0  0  0  0  0  0  0  0  0  0  0  0
  -25.5260  -17.8610    9.5010 H   0  0  0  0  0  0  0  0  0  0  0  0
  -27.8640  -21.8160   12.4220 N   0  0  0  0  0  0  0  0  0  0  0  0
  -26.8610  -21.9300   12.3680 H   0  0  0  0  0  0  0  0  0  0  0  0
  -28.3100  -22.5020   13.0210 H   0  0  0  0  0  0  0  0  0  0  0  0
  -24.1530  -19.3120   24.3440 C   0  0  0  0  0  2  0  0  0  0  0  0
  -22.8090  -18.8580   24.3370 O   0  0  0  0  0  0  0  0  0  0  0  0
  -22.4750  -18.0290   25.4400 C   0  0  0  0  0  2  0  0  0  0  0  0
  -21.3620  -17.1210   24.9210 C   0  0  0  0  0  2  0  0  0  0  0  0
  -18.1770  -19.2250   24.7110 C   0  0  0  0  0  2  0  0  0  0  0  0
  -17.7280  -18.8550   23.2830 C   0  0  0  0  0  2  0  0  0  0  0  0
  -19.1630  -18.1940   25.2920 C   0  0  0  0  0  2  0  0  0  0  0  0
  -19.7950  -17.4420   23.0250 C   0  0  0  0  0  2  0  0  0  0  0  0
  -18.9220  -18.5210   22.3590 C   0  0  0  0  0  3  0  0  0  0  0  0
  -20.2740  -17.9370   24.3400 N   0  0  2  0  0  4  0  0  0  0  0  0
  -20.7030  -18.8330   24.1290 H   0  0  0  0  0  0  0  0  0  0  0  0
  -19.7060  -19.7000   22.1270 O   0  0  0  0  0  0  0  0  0  0  0  0
  -20.5800  -19.6450   20.9910 C   0  0  0  0  0  2  0  0  0  0  0  0
  -21.1100  -21.0590   20.6460 C   0  0  0  0  0  2  0  0  0  0  0  0
  -22.3500  -21.3660   21.2880 O   0  0  0  0  0  0  0  0  0  0  0  0
  -22.9360  -22.5960   20.8480 C   0  0  0  0  0  2  0  0  0  0  0  0
  -24.4740  -22.6530   21.0600 C   0  0  0  0  0  2  0  0  0  0  0  0
  -24.8870  -23.5410   22.1170 O   0  0  0  0  0  0  0  0  0  0  0  0
  -26.3110  -23.6740   22.3280 C   0  0  0  0  0  2  0  0  0  0  0  0
  -27.0540  -24.3120   21.1290 C   0  0  0  0  0  2  0  0  0  0  0  0
  -27.6530  -25.6080   21.2920 O   0  0  0  0  0  0  0  0  0  0  0  0
  -28.3260  -26.0290   19.9760 O   0  0  0  0  0  0  0  0  0  0  0  0
  -22.3390  -29.4850   18.4310 C   0  0  0  0  0  0  0  0  0  0  0  0
  -27.3440  -26.2260   19.0460 C   0  0  0  0  0  0  0  0  0  0  0  0
  -22.7250  -27.3660   17.2100 C   0  0  0  0  0  3  0  0  0  0  0  0
  -25.0950  -26.4200   17.3660 C   0  0  0  0  0  0  0  0  0  0  0  0
  -24.6900  -28.8010   18.0110 C   0  0  0  0  0  2  0  0  0  0  0  0
  -25.5000  -27.5280   18.1210 C   0  0  0  0  0  0  0  0  0  0  0  0
  -26.6210  -27.4330   18.9780 C   0  0  0  0  0  3  0  0  0  0  0  0
  -26.9790  -25.1480   18.2120 C   0  0  0  0  0  3  0  0  0  0  0  0
  -25.8350  -25.2250   17.4070 C   0  0  0  0  0  3  0  0  0  0  0  0
  -23.8650  -26.5810   16.5060 C   0  0  0  0  0  2  0  0  0  0  0  0
  -23.2250  -28.5860   17.9260 N   0  0  0  0  0  0  0  0  0  0  0  0
  -21.1180  -29.3330   18.2740 O   0  0  0  0  0  0  0  0  0  0  0  0
  -21.9540  -26.3950   18.1330 C   0  0  0  0  0  0  0  0  0  0  0  0
  -21.0420  -25.6090   17.5380 N   0  0  0  0  0  0  0  0  0  0  0  0
  -22.1960  -26.3400   19.3380 O   0  0  0  0  0  0  0  0  0  0  0  0
  -20.8980  -25.7290   16.5450 H   0  0  0  0  0  0  0  0  0  0  0  0
  -18.4870  -23.1100   16.9740 C   0  0  0  0  0  0  0  0  0  0  0  0
  -20.2200  -24.5900   18.1930 C   0  0  0  0  0  3  0  0  0  0  0  0
  -21.0240  -23.2870   18.4230 C   0  0  0  0  0  2  0  0  0  0  0  0
  -20.8440  -22.2580   17.3010 C   0  0  0  0  0  2  0  0  0  0  0  0
  -19.3710  -21.8860   17.1270 C   0  0  0  0  0  2  0  0  0  0  0  0
  -18.8900  -24.3820   17.4620 C   0  0  0  0  0  0  0  0  0  0  0  0
  -18.0380  -25.4920   17.2710 C   0  0  0  0  0  3  0  0  0  0  0  0
  -16.8030  -25.3450   16.6110 C   0  0  0  0  0  3  0  0  0  0  0  0
  -16.4030  -24.0810   16.1410 C   0  0  0  0  0  3  0  0  0  0  0  0
  -17.2430  -22.9680   16.3250 C   0  0  0  0  0  3  0  0  0  0  0  0
  -22.8100  -30.7570   19.2030 C   0  0  0  0  0  3  0  0  0  0  0  0
  -22.0200  -31.8940   18.7220 N   0  0  0  0  0  0  0  0  0  0  0  0
  -22.4430  -32.7800   17.8070 C   0  0  0  0  0  0  0  0  0  0  0  0
  -23.5800  -32.7550   17.3300 O   0  0  0  0  0  0  0  0  0  0  0  0
  -21.0580  -31.9390   19.0260 H   0  0  0  0  0  0  0  0  0  0  0  0
  -20.8300  -33.4380   15.9990 C   0  0  0  0  0  1  0  0  0  0  0  0
  -21.4440  -33.8580   17.3440 C   0  0  0  0  0  3  0  0  0  0  0  0
  -22.4310  -35.7730   18.5200 C   0  0  0  0  0  1  0  0  0  0  0  0
  -22.0450  -35.2050   17.2310 N   0  0  0  0  0  0  0  0  0  0  0  0
  -21.4030  -35.8520   16.7800 H   0  0  0  0  0  0  0  0  0  0  0  0
  -22.6850  -30.6130   20.7690 C   0  0  1  0  0  0  0  0  0  0  0  0
  -21.2830  -30.1490   21.2310 C   0  0  0  0  0  1  0  0  0  0  0  0
  -23.7210  -29.6050   21.3120 C   0  0  0  0  0  1  0  0  0  0  0  0
  -23.0040  -31.9660   21.4480 C   0  0  0  0  0  1  0  0  0  0  0  0
  1 64  1  0
  2  1  1  0
  3  2  1  0
  4  5  1  0
  4  3  1  0
  6  7  1  0
  6  5  1  0
  7  8  1  0
  9  8  1  0
  9 10  1  0
 11 10  1  0
 11 12  1  0
 13 12  1  0
 14 13  1  0
 15 14  1  0
 16 15  1  0
 17 16  1  0
 18 17  1  0
 19 18  1  0
 20 21  1  0
 20 19  1  0
 22 21  1  0
 22 23  1  0
 23 24  1  0
 24 25  1  0
 26 33  2  0
 26 34  1  0
 27 32  1  0
 28 27  1  0
 29 28  1  0
 30 29  1  0
 30 31  1  0
 31 32  1  0
 32 26  1  0
 34 25  1  0
 35 34  1  0
 36 39  1  0
 36 61  1  0
 37 36  2  0
 38 37  1  0
 38 40  2  0
 39 30  1  0
 40 39  1  0
 41 42  1  0
 41 38  1  0
 43 42  2  0
 44 43  1  0
 45 44  2  0
 45 46  1  0
 46 41  2  0
 47 48  1  0
 47 44  1  0
 48 49  1  0
 49 50  2  0
 51 55  1  0
 51 50  1  0
 52 51  2  0
 53 52  1  0
 53 48  2  0
 54 53  1  0
 56 37  1  0
 57 59  1  0
 57 56  1  0
 58 56  2  0
 60 57  1  0
 61 63  1  0
 62 61  1  0
 65 64  1  0
 65 66  1  0
 67 66  1  0
 68 70  1  0
 69 68  1  0
 71 73  1  0
 72 75  1  0
 72 71  1  0
 72 69  1  0
 73 67  1  0
 73 70  1  0
 73 74  1  6
 76 75  1  0
 77 76  1  0
 77 78  1  0
 79 80  1  0
 79 78  1  0
 80 81  1  0
 81 82  1  0
 83 84  1  0
 83 82  1  0
 85 84  1  0
 87 85  1  0
 88 96  1  0
 88 98  1  0
 89 94  2  0
 89 91  1  0
 90 91  1  0
 91 92  2  0
 92 87  1  0
 93 87  2  0
 94 93  1  0
 95 88  1  0
 95 89  1  0
 96 90  1  0
 96 86  1  0
 97 86  2  0
 98100  2  0
 99 98  1  0
101 99  1  0
102106  1  0
102107  1  0
103 99  1  0
103104  1  0
105104  1  0
106105  1  0
107103  1  0
108107  2  0
109108  1  0
110111  1  0
110109  2  0
111102  2  0
112 86  1  0
112122  1  0
113116  1  0
113112  1  0
114113  1  0
115114  2  0
118117  1  0
118114  1  0
120118  1  0
120119  1  0
121120  1  0
122123  1  6
122124  1  0
122125  1  0
M  ISO  4  26 100  34 100  84 101  85 101
M  END
>  <TORSDO>  (41) 
F 55

>  <SCORE>  (41) 
77.935

>  <name>  (41) 
51

>  <ligand_id>  (41) 
51

>  <original_smiles>  (41) 
[H]c1c([H])c([H])c2c(c1[H])C([H])([H])C([H])([H])C([H])([H])C2([H])N([H])C(=O)C1([H])N(C(=O)C([H])(N([H])C(=O)C([H])(N([H])C([H])([H])[H])C([H])([H])[H])C(C([H])([H])[H])(C([H])([H])[H])C([H])([H])[H])C([H])([H])c2c([H])c(OOC([H])([H])C([H])([H])OC([H])([H])C([H])([H])OC([H])([H])C([H])([H])OC3([H])C([H])([H])C([H])([H])C([H])([H])[N+]([H])(C([H])([H])C([H])([H])OC([H])([H])C([H])([H])OC([H])([H])C([H])([H])OC([H])([H])C([H])([H])OC([H])([H])C([H])([H])OC([H])([H])C([H])([H])OC([H])([H])C([H])([H])OC([H])([H])C([H])([H])OC([H])([H])C([H])([H])OC([H])([H])C([H])([H])N([H])C(=O)N4C([H])([H])C([H])([H])C([H])([H])C([H])(n5nc(-c6c([H])c([H])c(Oc7c([H])c([H])c(F)c([H])c7F)c([H])c6[H])c(C(=O)N([H])[H])c5N([H])[H])C4([H])[H])C3([H])[H])c([H])c([H])c2C1([H])[H]

>  <smiles>  (41) 
[H]c1c([H])c([H])c2c(c1[H])C([H])([H])C([H])([H])C([H])([H])C2([H])N([H])C(=O)C1([H])N(C(=O)C([H])(N([H])C(=O)C([H])(N([H])C([H])([H])[H])C([H])([H])[H])C(C([H])([H])[H])(C([H])([H])[H])C([H])([H])[H])C([H])([H])c2c([H])c(OOC([H])([H])C([H])([H])OC([H])([H])C([H])([H])OC([H])([H])C([H])([H])OC3([H])C([H])([H])C([H])([H])C([H])([H])[N+]([H])(C([H])([H])C([H])([H])OC([H])([H])C([H])([H])OC([H])([H])C([H])([H])OC([H])([H])C([H])([H])OC([H])([H])C([H])([H])OC([H])([H])C([H])([H])OC([H])([H])C([H])([H])OC([H])([H])C([H])([H])OC([H])([H])C([H])([H])OC([H])([H])C([H])([H])N([H])C(=O)N4C([H])([H])C([H])([H])C([H])([H])C([H])(n5nc(-c6c([H])c([H])c(Oc7c([H])c([H])c(F)c([H])c7F)c([H])c6[H])c(C(=O)N([H])[H])c5N([H])[H])C4([H])[H])C3([H])[H])c([H])c([H])c2C1([H])[H]

$$$$
52:0:0
     RDKit          3D

 97104  0  0  1  0  0  0  0  0999 V2000
  -23.0130  -23.9560   20.3990 C   0  0  0  0  0  2  0  0  0  0  0  0
  -23.6220  -24.0760   19.1170 O   0  0  0  0  0  0  0  0  0  0  0  0
  -24.1040  -22.8730   18.5150 C   0  0  0  0  0  2  0  0  0  0  0  0
  -25.4510  -22.3880   19.0770 C   0  0  0  0  0  2  0  0  0  0  0  0
  -26.2980  -23.5120   19.2620 O   0  0  0  0  0  0  0  0  0  0  0  0
  -27.6060  -23.1900   19.7150 C   0  0  0  0  0  2  0  0  0  0  0  0
  -28.2090  -24.4590   20.3340 C   0  0  0  0  0  2  0  0  0  0  0  0
  -28.3160  -25.4690   19.3440 O   0  0  0  0  0  0  0  0  0  0  0  0
  -28.4440  -26.7920   20.0470 O   0  0  0  0  0  0  0  0  0  0  0  0
  -24.6130  -31.8690   23.2140 C   0  0  0  0  0  0  0  0  0  0  0  0
  -27.2450  -27.4700   20.0770 C   0  0  0  0  0  0  0  0  0  0  0  0
  -23.3980  -30.4940   21.5540 C   0  0  0  0  0  3  0  0  0  0  0  0
  -24.8430  -28.9600   20.1210 C   0  0  0  0  0  0  0  0  0  0  0  0
  -25.9220  -30.8460   21.3580 C   0  0  0  0  0  2  0  0  0  0  0  0
  -26.0010  -29.4800   20.7120 C   0  0  0  0  0  0  0  0  0  0  0  0
  -27.2010  -28.7380   20.6960 C   0  0  0  0  0  3  0  0  0  0  0  0
  -26.0650  -26.9560   19.4910 C   0  0  0  0  0  3  0  0  0  0  0  0
  -24.8660  -27.6910   19.5180 C   0  0  0  0  0  3  0  0  0  0  0  0
  -23.6050  -29.8250   20.1690 C   0  0  0  0  0  2  0  0  0  0  0  0
  -24.6630  -31.0820   22.1010 N   0  0  0  0  0  0  0  0  0  0  0  0
  -23.5330  -32.1420   23.7550 O   0  0  0  0  0  0  0  0  0  0  0  0
  -22.7410  -29.4660   22.5010 C   0  0  0  0  0  0  0  0  0  0  0  0
  -21.4130  -29.3030   22.3750 N   0  0  0  0  0  0  0  0  0  0  0  0
  -23.4200  -28.8160   23.3000 O   0  0  0  0  0  0  0  0  0  0  0  0
  -20.9270  -29.8810   21.7030 H   0  0  0  0  0  0  0  0  0  0  0  0
  -18.0310  -28.1340   22.8500 C   0  0  0  0  0  0  0  0  0  0  0  0
  -20.5900  -28.3630   23.1310 C   0  0  0  0  0  3  0  0  0  0  0  0
  -20.6850  -26.9380   22.5390 C   0  0  0  0  0  2  0  0  0  0  0  0
  -19.5790  -26.6310   21.5230 C   0  0  0  0  0  2  0  0  0  0  0  0
  -18.1980  -26.7870   22.1660 C   0  0  0  0  0  2  0  0  0  0  0  0
  -19.1560  -28.8800   23.2910 C   0  0  0  0  0  0  0  0  0  0  0  0
  -18.9490  -30.1410   23.8920 C   0  0  0  0  0  3  0  0  0  0  0  0
  -17.6510  -30.6570   24.0560 C   0  0  0  0  0  3  0  0  0  0  0  0
  -16.5390  -29.9080   23.6320 C   0  0  0  0  0  3  0  0  0  0  0  0
  -16.7300  -28.6480   23.0350 C   0  0  0  0  0  3  0  0  0  0  0  0
  -25.9040  -32.4830   23.8430 C   0  0  0  0  0  3  0  0  0  0  0  0
  -25.5930  -33.8630   24.2360 N   0  0  0  0  0  0  0  0  0  0  0  0
  -25.9020  -34.9480   23.5130 C   0  0  0  0  0  0  0  0  0  0  0  0
  -26.5550  -34.8920   22.4670 O   0  0  0  0  0  0  0  0  0  0  0  0
  -25.0220  -33.9810   25.0600 H   0  0  0  0  0  0  0  0  0  0  0  0
  -24.1480  -36.7320   23.2630 C   0  0  0  0  0  1  0  0  0  0  0  0
  -25.4100  -36.3120   24.0330 C   0  0  0  0  0  3  0  0  0  0  0  0
  -27.5580  -37.1810   24.8460 C   0  0  0  0  0  1  0  0  0  0  0  0
  -26.4290  -37.3800   23.9410 N   0  0  0  0  0  0  0  0  0  0  0  0
  -26.0180  -38.2880   24.1440 H   0  0  0  0  0  0  0  0  0  0  0  0
  -26.4490  -31.6600   25.0730 C   0  0  1  0  0  0  0  0  0  0  0  0
  -25.3770  -31.3690   26.1480 C   0  0  0  0  0  1  0  0  0  0  0  0
  -27.0300  -30.3050   24.6070 C   0  0  0  0  0  1  0  0  0  0  0  0
  -27.6060  -32.4320   25.7500 C   0  0  0  0  0  1  0  0  0  0  0  0
  -24.0030  -24.2260   21.5450 C   0  0  0  0  0  2  0  0  0  0  0  0
  -24.5070  -22.9970   22.0430 O   0  0  0  0  0  0  0  0  0  0  0  0
  -25.4910  -23.1800   23.0500 C   0  0  0  0  0  2  0  0  0  0  0  0
  -25.8500  -21.8110   23.6320 C   0  0  0  0  0  2  0  0  0  0  0  0
  -26.5210  -21.0210   22.6550 O   0  0  0  0  0  0  0  0  0  0  0  0
  -26.7680  -19.7020   23.1250 C   0  0  0  0  0  2  0  0  0  0  0  0
  -27.2380  -18.7910   21.9770 C   0  0  0  0  0  2  0  0  0  0  0  0
  -28.5550  -18.2990   22.2240 O   0  0  0  0  0  0  0  0  0  0  0  0
  -28.8830  -17.1770   21.4110 C   0  0  0  0  0  2  0  0  0  0  0  0
  -30.2270  -16.5520   21.8420 C   0  0  0  0  0  2  0  0  0  0  0  0
  -30.7170  -14.3640   20.7010 C   0  0  0  0  0  0  0  0  0  0  0  0
  -30.4290  -12.2930   19.3880 C   0  0  0  0  0  2  0  0  0  0  0  0
  -29.4950  -12.5560   18.1900 C   0  0  0  0  0  2  0  0  0  0  0  0
  -28.0170  -12.3980   18.6000 C   0  0  0  0  0  2  0  0  0  0  0  0
  -27.6700  -13.1940   19.8860 C   0  0  0  0  0  3  0  0  0  0  0  0
  -28.7020  -12.8830   20.9920 C   0  0  0  0  0  2  0  0  0  0  0  0
  -30.0510  -13.2030   20.4770 N   0  0  0  0  0  0  0  0  0  0  0  0
  -31.7150  -14.7250   20.0710 O   0  0  0  0  0  0  0  0  0  0  0  0
  -30.1630  -15.1050   21.6640 N   0  0  0  0  0  0  0  0  0  0  0  0
  -29.4240  -14.6370   22.1660 H   0  0  0  0  0  0  0  0  0  0  0  0
  -25.2580  -13.8130   20.5610 C   0  0  0  0  0  0  0  0  0  0  0  0
  -24.1830  -13.0430   20.9130 C   0  0  0  0  0  0  0  0  0  0  0  0
  -24.6370  -11.6880   20.8690 C   0  0  0  0  0  0  0  0  0  0  0  0
  -26.3030  -12.9280   20.3340 N   0  0  0  0  0  0  0  0  0  0  0  0
  -25.9290  -11.6450   20.5700 N   0  0  0  0  0  0  0  0  0  0  0  0
  -23.9040  -10.4280   21.0380 C   0  0  0  0  0  0  0  0  0  0  0  0
  -24.3590   -9.4210   21.9170 C   0  0  0  0  0  3  0  0  0  0  0  0
  -23.6270   -8.2240   22.0760 C   0  0  0  0  0  3  0  0  0  0  0  0
  -22.4250   -8.0270   21.3540 C   0  0  0  0  0  0  0  0  0  0  0  0
  -21.9870   -9.0240   20.4640 C   0  0  0  0  0  3  0  0  0  0  0  0
  -22.7200  -10.2120   20.3040 C   0  0  0  0  0  3  0  0  0  0  0  0
  -21.6630   -6.8850   21.4230 O   0  0  0  0  0  0  0  0  0  0  0  0
  -21.6850   -6.0720   22.5270 C   0  0  0  0  0  0  0  0  0  0  0  0
  -21.4020   -6.5620   23.8200 C   0  0  0  0  0  3  0  0  0  0  0  0
  -21.3660   -5.6780   24.9170 C   0  0  0  0  0  3  0  0  0  0  0  0
  -21.6050   -4.3040   24.7220 C   0  0  0  0  0  0  0  0  0  0  0  0
  -21.8820   -3.8120   23.4340 C   0  0  0  0  0  3  0  0  0  0  0  0
  -21.9190   -4.6940   22.3400 C   0  0  0  0  0  0  0  0  0  0  0  0
  -22.1650   -4.2110   21.0980 F   0  0  0  0  0  0  0  0  0  0  0  0
  -21.5630   -3.4530   25.7750 F   0  0  0  0  0  0  0  0  0  0  0  0
  -22.7850  -13.5250   21.1810 C   0  0  0  0  0  0  0  0  0  0  0  0
  -22.0470  -12.8270   22.0380 N   0  0  0  0  0  0  0  0  0  0  0  0
  -22.3560  -14.5570   20.6680 O   0  0  0  0  0  0  0  0  0  0  0  0
  -22.4030  -11.9920   22.4790 H   0  0  0  0  0  0  0  0  0  0  0  0
  -21.1100  -13.1330   22.2570 H   0  0  0  0  0  0  0  0  0  0  0  0
  -25.4290  -15.1850   20.3980 N   0  0  0  0  0  0  0  0  0  0  0  0
  -24.6540  -15.8340   20.4830 H   0  0  0  0  0  0  0  0  0  0  0  0
  -26.2790  -15.6210   20.0650 H   0  0  0  0  0  0  0  0  0  0  0  0
  1 50  1  0
  2  1  1  0
  3  4  1  0
  3  2  1  0
  4  5  1  0
  5  6  1  0
  6  7  1  0
  8  9  1  0
  8  7  1  0
  9 11  1  0
 10 21  2  0
 11 16  1  0
 12 20  1  0
 12 22  1  0
 13 19  1  0
 13 15  1  0
 14 20  1  0
 15 14  1  0
 16 15  2  0
 17 18  1  0
 17 11  2  0
 18 13  2  0
 19 12  1  0
 20 10  1  0
 22 24  2  0
 23 22  1  0
 25 23  1  0
 26 35  2  0
 26 31  1  0
 27 23  1  0
 27 31  1  0
 28 27  1  0
 29 30  1  0
 29 28  1  0
 30 26  1  0
 31 32  2  0
 32 33  1  0
 34 33  2  0
 35 34  1  0
 36 10  1  0
 36 37  1  0
 36 46  1  0
 37 40  1  0
 38 42  1  0
 38 37  1  0
 39 38  2  0
 42 41  1  0
 44 42  1  0
 44 45  1  0
 44 43  1  0
 46 49  1  1
 46 47  1  0
 48 46  1  0
 50 51  1  0
 51 52  1  0
 52 53  1  0
 54 55  1  0
 54 53  1  0
 56 57  1  0
 56 55  1  0
 58 59  1  0
 58 57  1  0
 60 68  1  0
 61 66  1  0
 62 63  1  0
 62 61  1  0
 64 63  1  0
 64 73  1  0
 64 65  1  0
 66 60  1  0
 66 65  1  0
 67 60  2  0
 68 59  1  0
 68 69  1  0
 70 71  2  0
 71 90  1  0
 72 71  1  0
 72 75  1  0
 73 70  1  0
 73 74  1  0
 74 72  2  0
 75 76  1  0
 76 77  2  0
 78 81  1  0
 78 77  1  0
 79 78  2  0
 80 79  1  0
 80 75  2  0
 81 82  1  0
 82 83  1  0
 83 84  2  0
 85 84  1  0
 85 89  1  0
 86 85  2  0
 87 82  2  0
 87 86  1  0
 88 87  1  0
 90 91  1  0
 91 94  1  0
 91 93  1  0
 92 90  2  0
 95 96  1  0
 95 70  1  0
 97 95  1  0
M  ISO  4   8 101   9 101  60 100  68 100
M  END
>  <TORSDO>  (42) 
F 33

>  <SCORE>  (42) 
13.607

>  <name>  (42) 
52

>  <ligand_id>  (42) 
52

>  <original_smiles>  (42) 
[H]c1c([H])c([H])c2c(c1[H])C([H])([H])C([H])([H])C([H])([H])C2([H])N([H])C(=O)C1([H])N(C(=O)C([H])(N([H])C(=O)C([H])(N([H])C([H])([H])[H])C([H])([H])[H])C(C([H])([H])[H])(C([H])([H])[H])C([H])([H])[H])C([H])([H])c2c([H])c(OOC([H])([H])C([H])([H])OC([H])([H])C([H])([H])OC([H])([H])C([H])([H])OC([H])([H])C([H])([H])OC([H])([H])C([H])([H])OC([H])([H])C([H])([H])N([H])C(=O)N3C([H])([H])C([H])([H])C([H])([H])C([H])(n4nc(-c5c([H])c([H])c(Oc6c([H])c([H])c(F)c([H])c6F)c([H])c5[H])c(C(=O)N([H])[H])c4N([H])[H])C3([H])[H])c([H])c([H])c2C1([H])[H]

>  <smiles>  (42) 
[H]c1c([H])c([H])c2c(c1[H])C([H])([H])C([H])([H])C([H])([H])C2([H])N([H])C(=O)C1([H])N(C(=O)C([H])(N([H])C(=O)C([H])(N([H])C([H])([H])[H])C([H])([H])[H])C(C([H])([H])[H])(C([H])([H])[H])C([H])([H])[H])C([H])([H])c2c([H])c(OOC([H])([H])C([H])([H])OC([H])([H])C([H])([H])OC([H])([H])C([H])([H])OC([H])([H])C([H])([H])OC([H])([H])C([H])([H])OC([H])([H])C([H])([H])N([H])C(=O)N3C([H])([H])C([H])([H])C([H])([H])C([H])(n4nc(-c5c([H])c([H])c(Oc6c([H])c([H])c(F)c([H])c6F)c([H])c5[H])c(C(=O)N([H])[H])c4N([H])[H])C3([H])[H])c([H])c([H])c2C1([H])[H]

$$$$
53:0:0
     RDKit          3D

111118  0  0  1  0  0  0  0  0999 V2000
  -30.7930  -21.9490   14.9200 O   0  0  0  0  0  0  0  0  0  0  0  0
  -31.5830  -22.7800   14.0740 C   0  0  0  0  0  2  0  0  0  0  0  0
  -32.7940  -23.3850   14.8140 C   0  0  0  0  0  2  0  0  0  0  0  0
  -32.4850  -24.6030   15.4940 O   0  0  0  0  0  0  0  0  0  0  0  0
  -32.6680  -24.5970   16.9080 C   0  0  0  0  0  2  0  0  0  0  0  0
  -33.2520  -25.9580   17.3320 C   0  0  0  0  0  2  0  0  0  0  0  0
  -33.8460  -25.8740   18.6270 O   0  0  0  0  0  0  0  0  0  0  0  0
  -35.2400  -26.1850   18.6600 C   0  0  0  0  0  2  0  0  0  0  0  0
  -35.8010  -26.1250   20.0950 C   0  0  0  0  0  2  0  0  0  0  0  0
  -36.4010  -24.8580   20.3820 O   0  0  0  0  0  0  0  0  0  0  0  0
  -36.6440  -24.6600   21.7720 C   0  0  0  0  0  2  0  0  0  0  0  0
  -37.7450  -23.6160   21.9950 C   0  0  0  0  0  2  0  0  0  0  0  0
  -37.2720  -22.2940   21.7440 O   0  0  0  0  0  0  0  0  0  0  0  0
  -38.1850  -21.3140   22.2130 C   0  0  0  0  0  2  0  0  0  0  0  0
  -37.6320  -19.8850   22.0050 C   0  0  0  0  0  2  0  0  0  0  0  0
  -38.5000  -19.1650   21.1320 O   0  0  0  0  0  0  0  0  0  0  0  0
  -38.3610  -17.7480   21.2080 C   0  0  0  0  0  2  0  0  0  0  0  0
  -39.4010  -17.1340   20.2530 C   0  0  0  0  0  2  0  0  0  0  0  0
  -40.2310  -14.9560   19.4500 C   0  0  0  0  0  0  0  0  0  0  0  0
  -40.6510  -12.7050   18.5350 C   0  0  0  0  0  2  0  0  0  0  0  0
  -39.3760  -12.1640   17.8560 C   0  0  0  0  0  2  0  0  0  0  0  0
  -38.4630  -11.4610   18.8800 C   0  0  0  0  0  2  0  0  0  0  0  0
  -38.2230  -12.3150   20.1550 C   0  0  0  0  0  3  0  0  0  0  0  0
  -39.5570  -12.8750   20.7050 C   0  0  0  0  0  2  0  0  0  0  0  0
  -40.2310  -13.6080   19.6210 N   0  0  0  0  0  0  0  0  0  0  0  0
  -40.8010  -15.5140   18.5120 O   0  0  0  0  0  0  0  0  0  0  0  0
  -39.5010  -15.6720   20.3200 N   0  0  0  0  0  0  0  0  0  0  0  0
  -39.0070  -15.1790   21.0500 H   0  0  0  0  0  0  0  0  0  0  0  0
  -36.2830  -11.8440   21.7850 C   0  0  0  0  0  0  0  0  0  0  0  0
  -36.0090  -10.7720   22.6010 C   0  0  0  0  0  0  0  0  0  0  0  0
  -37.0940   -9.8630   22.4330 C   0  0  0  0  0  0  0  0  0  0  0  0
  -37.4950  -11.5540   21.1740 N   0  0  0  0  0  0  0  0  0  0  0  0
  -38.0080  -10.3780   21.6180 N   0  0  0  0  0  0  0  0  0  0  0  0
  -37.2940   -8.5070   22.9620 C   0  0  0  0  0  0  0  0  0  0  0  0
  -38.4880   -8.1430   23.6240 C   0  0  0  0  0  3  0  0  0  0  0  0
  -38.6510   -6.8410   24.1420 C   0  0  0  0  0  3  0  0  0  0  0  0
  -37.6150   -5.8870   24.0040 C   0  0  0  0  0  0  0  0  0  0  0  0
  -36.4400   -6.2470   23.3210 C   0  0  0  0  0  3  0  0  0  0  0  0
  -36.2810   -7.5420   22.8020 C   0  0  0  0  0  3  0  0  0  0  0  0
  -37.6940   -4.5890   24.4500 O   0  0  0  0  0  0  0  0  0  0  0  0
  -38.5150   -4.2320   25.4910 C   0  0  0  0  0  0  0  0  0  0  0  0
  -38.4270   -4.8530   26.7540 C   0  0  0  0  0  3  0  0  0  0  0  0
  -39.2440   -4.4100   27.8160 C   0  0  0  0  0  3  0  0  0  0  0  0
  -40.1400   -3.3440   27.6150 C   0  0  0  0  0  0  0  0  0  0  0  0
  -40.2280   -2.7230   26.3570 C   0  0  0  0  0  3  0  0  0  0  0  0
  -39.4140   -3.1660   25.2980 C   0  0  0  0  0  0  0  0  0  0  0  0
  -39.4860   -2.5470   24.0940 F   0  0  0  0  0  0  0  0  0  0  0  0
  -40.9200   -2.9130   28.6350 F   0  0  0  0  0  0  0  0  0  0  0  0
  -34.7600  -10.5620   23.4100 C   0  0  0  0  0  0  0  0  0  0  0  0
  -34.8770   -9.8750   24.5440 N   0  0  0  0  0  0  0  0  0  0  0  0
  -33.6860  -11.0500   23.0690 O   0  0  0  0  0  0  0  0  0  0  0  0
  -35.7640   -9.4900   24.8360 H   0  0  0  0  0  0  0  0  0  0  0  0
  -34.0620   -9.7310   25.1230 H   0  0  0  0  0  0  0  0  0  0  0  0
  -35.5920  -13.0130   21.4940 N   0  0  0  0  0  0  0  0  0  0  0  0
  -34.6760  -13.2190   21.8830 H   0  0  0  0  0  0  0  0  0  0  0  0
  -35.8940  -13.7070   20.8170 H   0  0  0  0  0  0  0  0  0  0  0  0
  -29.8760  -21.1390   14.1860 C   0  0  0  0  0  2  0  0  0  0  0  0
  -29.2900  -20.0590   15.1100 C   0  0  0  0  0  2  0  0  0  0  0  0
  -30.3240  -19.1470   15.4740 O   0  0  0  0  0  0  0  0  0  0  0  0
  -29.9980  -18.2240   16.5170 C   0  0  0  0  0  2  0  0  0  0  0  0
  -31.0480  -18.4050   17.6140 C   0  0  0  0  0  0  0  0  0  0  0  0
  -30.7690  -19.3540   18.5170 N   0  0  0  0  0  0  0  0  0  0  0  0
  -32.1210  -17.8020   17.5690 O   0  0  0  0  0  0  0  0  0  0  0  0
  -29.8130  -19.6930   18.5030 H   0  0  0  0  0  0  0  0  0  0  0  0
  -31.7630  -20.2150   19.1440 C   0  0  0  0  0  2  0  0  0  0  0  0
  -31.4690  -21.6730   18.7520 C   0  0  0  0  0  2  0  0  0  0  0  0
  -30.4840  -22.3650   19.6990 C   0  0  0  0  0  2  0  0  0  0  0  0
  -29.9980  -23.5630   19.1090 O   0  0  0  0  0  0  0  0  0  0  0  0
  -29.4990  -24.4940   20.0630 C   0  0  0  0  0  2  0  0  0  0  0  0
  -28.5910  -25.5230   19.3840 C   0  0  0  0  0  2  0  0  0  0  0  0
  -28.4670  -26.7210   20.1790 O   0  0  0  0  0  0  0  0  0  0  0  0
  -24.6240  -31.8930   23.2700 C   0  0  0  0  0  0  0  0  0  0  0  0
  -27.2780  -27.4350   20.1750 C   0  0  0  0  0  0  0  0  0  0  0  0
  -23.4260  -30.4930   21.6310 C   0  0  0  0  0  3  0  0  0  0  0  0
  -24.8810  -28.9590   20.2110 C   0  0  0  0  0  0  0  0  0  0  0  0
  -25.9640  -30.8330   21.4530 C   0  0  0  0  0  2  0  0  0  0  0  0
  -26.0430  -29.4680   20.8030 C   0  0  0  0  0  0  0  0  0  0  0  0
  -27.2390  -28.7090   20.7940 C   0  0  0  0  0  3  0  0  0  0  0  0
  -26.0850  -26.9460   19.5900 C   0  0  0  0  0  3  0  0  0  0  0  0
  -24.8960  -27.6910   19.6160 C   0  0  0  0  0  3  0  0  0  0  0  0
  -23.6400  -29.8240   20.2500 C   0  0  0  0  0  2  0  0  0  0  0  0
  -24.6920  -31.0860   22.1770 N   0  0  0  0  0  0  0  0  0  0  0  0
  -23.5390  -32.1650   23.8010 O   0  0  0  0  0  0  0  0  0  0  0  0
  -22.7820  -29.4590   22.5780 C   0  0  0  0  0  0  0  0  0  0  0  0
  -21.4590  -29.2750   22.4470 N   0  0  0  0  0  0  0  0  0  0  0  0
  -23.4680  -28.8280   23.3840 O   0  0  0  0  0  0  0  0  0  0  0  0
  -20.9690  -29.8290   21.7590 H   0  0  0  0  0  0  0  0  0  0  0  0
  -18.0880  -28.0920   22.9560 C   0  0  0  0  0  0  0  0  0  0  0  0
  -20.6440  -28.3380   23.2170 C   0  0  0  0  0  3  0  0  0  0  0  0
  -20.7400  -26.9110   22.6340 C   0  0  0  0  0  2  0  0  0  0  0  0
  -19.6300  -26.5950   21.6260 C   0  0  0  0  0  2  0  0  0  0  0  0
  -18.2530  -26.7440   22.2770 C   0  0  0  0  0  2  0  0  0  0  0  0
  -19.2100  -28.8480   23.3840 C   0  0  0  0  0  0  0  0  0  0  0  0
  -19.0030  -30.1110   23.9810 C   0  0  0  0  0  3  0  0  0  0  0  0
  -17.7020  -30.6190   24.1530 C   0  0  0  0  0  3  0  0  0  0  0  0
  -16.5920  -29.8610   23.7440 C   0  0  0  0  0  3  0  0  0  0  0  0
  -16.7860  -28.6010   23.1520 C   0  0  0  0  0  3  0  0  0  0  0  0
  -25.9020  -32.5350   23.8870 C   0  0  0  0  0  3  0  0  0  0  0  0
  -26.4190  -31.7690   25.1660 C   0  0  1  0  0  0  0  0  0  0  0  0
  -25.3280  -31.5220   26.2320 C   0  0  0  0  0  1  0  0  0  0  0  0
  -27.0150  -30.3970   24.7750 C   0  0  0  0  0  1  0  0  0  0  0  0
  -27.5570  -32.5780   25.8320 C   0  0  0  0  0  1  0  0  0  0  0  0
  -25.5800  -33.9320   24.2130 N   0  0  0  0  0  0  0  0  0  0  0  0
  -25.9070  -34.9860   23.4520 C   0  0  0  0  0  0  0  0  0  0  0  0
  -26.5880  -34.8840   22.4290 O   0  0  0  0  0  0  0  0  0  0  0  0
  -24.9790  -34.0830   25.0080 H   0  0  0  0  0  0  0  0  0  0  0  0
  -24.1670  -36.7620   23.0750 C   0  0  0  0  0  1  0  0  0  0  0  0
  -25.4030  -36.3720   23.9010 C   0  0  0  0  0  3  0  0  0  0  0  0
  -27.5250  -37.2700   24.7460 C   0  0  0  0  0  1  0  0  0  0  0  0
  -26.4280  -37.4340   23.7960 N   0  0  0  0  0  0  0  0  0  0  0  0
  -26.0120  -38.3520   23.9430 H   0  0  0  0  0  0  0  0  0  0  0  0
  2  3  1  0
  2  1  1  0
  3  4  1  0
  4  5  1  0
  5  6  1  0
  6  7  1  0
  7  8  1  0
  8  9  1  0
  9 10  1  0
 10 11  1  0
 11 12  1  0
 13 12  1  0
 13 14  1  0
 15 14  1  0
 16 17  1  0
 16 15  1  0
 18 27  1  0
 18 17  1  0
 19 25  1  0
 19 27  1  0
 20 25  1  0
 21 20  1  0
 21 22  1  0
 23 22  1  0
 23 24  1  0
 23 32  1  0
 25 24  1  0
 26 19  2  0
 27 28  1  0
 29 30  2  0
 30 49  1  0
 31 30  1  0
 31 34  1  0
 32 33  1  0
 32 29  1  0
 33 31  2  0
 34 35  1  0
 35 36  2  0
 37 36  1  0
 37 40  1  0
 38 37  2  0
 39 34  2  0
 39 38  1  0
 40 41  1  0
 41 42  1  0
 42 43  2  0
 44 43  1  0
 44 48  1  0
 45 44  2  0
 46 41  2  0
 46 45  1  0
 47 46  1  0
 49 50  1  0
 50 52  1  0
 50 53  1  0
 51 49  2  0
 54 29  1  0
 54 55  1  0
 56 54  1  0
 57  1  1  0
 57 58  1  0
 58 59  1  0
 59 60  1  0
 60 61  1  0
 61 62  1  0
 62 65  1  0
 63 61  2  0
 64 62  1  0
 66 65  1  0
 66 67  1  0
 68 67  1  0
 68 69  1  0
 70 69  1  0
 70 71  1  0
 72 83  2  0
 73 71  1  0
 73 78  1  0
 74 82  1  0
 74 84  1  0
 75 81  1  0
 75 77  1  0
 76 82  1  0
 77 76  1  0
 78 77  2  0
 79 80  1  0
 79 73  2  0
 80 75  2  0
 81 74  1  0
 82 72  1  0
 84 86  2  0
 85 84  1  0
 87 85  1  0
 88 97  2  0
 88 93  1  0
 89 85  1  0
 89 93  1  0
 90 89  1  0
 91 92  1  0
 91 90  1  0
 92 88  1  0
 93 94  2  0
 94 95  1  0
 96 95  2  0
 97 96  1  0
 98 72  1  0
 98103  1  0
 98 99  1  0
 99102  1  1
 99100  1  0
101 99  1  0
103106  1  0
104108  1  0
104103  1  0
105104  2  0
108107  1  0
110108  1  0
110111  1  0
110109  1  0
M  ISO  4  19 100  27 100  70 101  71 101
M  END
>  <TORSDO>  (43) 
F 44

>  <SCORE>  (43) 
-5.636

>  <name>  (43) 
53

>  <ligand_id>  (43) 
53

>  <original_smiles>  (43) 
[H]c1c([H])c([H])c2c(c1[H])C([H])([H])C([H])([H])C([H])([H])C2([H])N([H])C(=O)C1([H])N(C(=O)C([H])(N([H])C(=O)C([H])(N([H])C([H])([H])[H])C([H])([H])[H])C(C([H])([H])[H])(C([H])([H])[H])C([H])([H])[H])C([H])([H])c2c([H])c(OC([H])([H])C([H])([H])OC([H])([H])C([H])([H])C([H])([H])N([H])C(=O)C([H])([H])OC([H])([H])C([H])([H])OC([H])([H])C([H])([H])OC([H])([H])C([H])([H])OC([H])([H])C([H])([H])OC([H])([H])C([H])([H])OC([H])([H])C([H])([H])OC([H])([H])C([H])([H])N([H])C(=O)N3C([H])([H])C([H])([H])C([H])([H])C([H])(n4nc(-c5c([H])c([H])c(Oc6c([H])c([H])c(F)c([H])c6F)c([H])c5[H])c(C(=O)N([H])[H])c4N([H])[H])C3([H])[H])c([H])c([H])c2C1([H])[H]

>  <smiles>  (43) 
[H]c1c([H])c([H])c2c(c1[H])C([H])([H])C([H])([H])C([H])([H])C2([H])N([H])C(=O)C1([H])N(C(=O)C([H])(N([H])C(=O)C([H])(N([H])C([H])([H])[H])C([H])([H])[H])C(C([H])([H])[H])(C([H])([H])[H])C([H])([H])[H])C([H])([H])c2c([H])c(OC([H])([H])C([H])([H])OC([H])([H])C([H])([H])C([H])([H])N([H])C(=O)C([H])([H])OC([H])([H])C([H])([H])OC([H])([H])C([H])([H])OC([H])([H])C([H])([H])OC([H])([H])C([H])([H])OC([H])([H])C([H])([H])OC([H])([H])C([H])([H])OC([H])([H])C([H])([H])N([H])C(=O)N3C([H])([H])C([H])([H])C([H])([H])C([H])(n4nc(-c5c([H])c([H])c(Oc6c([H])c([H])c(F)c([H])c6F)c([H])c5[H])c(C(=O)N([H])[H])c4N([H])[H])C3([H])[H])c([H])c([H])c2C1([H])[H]

$$$$
55:0:0
     RDKit          3D

102109  0  0  1  0  0  0  0  0999 V2000
  -20.1520  -19.9470   24.0390 C   0  0  0  0  0  0  0  0  0  0  0  0
  -19.6500  -20.7760   23.1200 N   0  0  0  0  0  0  0  0  0  0  0  0
  -19.9120  -20.0630   25.2440 O   0  0  0  0  0  0  0  0  0  0  0  0
  -19.9560  -20.6700   22.1610 H   0  0  0  0  0  0  0  0  0  0  0  0
  -18.7820  -21.9110   23.4120 C   0  0  0  0  0  2  0  0  0  0  0  0
  -18.5000  -22.7340   22.1470 C   0  0  0  0  0  2  0  0  0  0  0  0
  -19.5430  -22.5060   21.2050 O   0  0  0  0  0  0  0  0  0  0  0  0
  -19.7440  -23.5760   20.2980 C   0  0  0  0  0  2  0  0  0  0  0  0
  -20.3340  -23.0100   18.9970 C   0  0  0  0  0  2  0  0  0  0  0  0
  -21.7130  -23.5890   18.6710 C   0  0  0  0  0  2  0  0  0  0  0  0
  -22.1640  -23.0910   17.4120 O   0  0  0  0  0  0  0  0  0  0  0  0
  -23.5660  -23.2590   17.1920 C   0  0  0  0  0  2  0  0  0  0  0  0
  -23.8380  -24.1950   15.9920 C   0  0  0  0  0  2  0  0  0  0  0  0
  -24.5490  -25.3710   16.3870 O   0  0  0  0  0  0  0  0  0  0  0  0
  -24.5580  -28.7340   22.6350 C   0  0  0  0  0  0  0  0  0  0  0  0
  -23.9030  -26.2930   17.1810 C   0  0  0  0  0  0  0  0  0  0  0  0
  -22.5070  -29.0010   21.2780 C   0  0  0  0  0  3  0  0  0  0  0  0
  -22.6600  -28.1830   18.8700 C   0  0  0  0  0  0  0  0  0  0  0  0
  -24.7650  -28.5650   20.1600 C   0  0  0  0  0  2  0  0  0  0  0  0
  -24.0110  -27.8640   19.0540 C   0  0  0  0  0  0  0  0  0  0  0  0
  -24.6360  -26.9180   18.2160 C   0  0  0  0  0  3  0  0  0  0  0  0
  -22.5490  -26.6480   16.9970 C   0  0  0  0  0  3  0  0  0  0  0  0
  -21.9230  -27.5800   17.8410 C   0  0  0  0  0  3  0  0  0  0  0  0
  -22.0610  -29.2020   19.8050 C   0  0  0  0  0  2  0  0  0  0  0  0
  -23.9780  -28.7380   21.4020 N   0  0  0  0  0  0  0  0  0  0  0  0
  -23.9010  -28.9890   23.6550 O   0  0  0  0  0  0  0  0  0  0  0  0
  -21.6320  -27.9000   21.9150 C   0  0  0  0  0  0  0  0  0  0  0  0
  -20.3090  -28.1400   21.9590 N   0  0  0  0  0  0  0  0  0  0  0  0
  -22.1320  -26.8520   22.3300 O   0  0  0  0  0  0  0  0  0  0  0  0
  -19.9790  -29.0300   21.6110 H   0  0  0  0  0  0  0  0  0  0  0  0
  -16.7480  -27.5830   22.1600 C   0  0  0  0  0  0  0  0  0  0  0  0
  -19.2890  -27.2310   22.4770 C   0  0  0  0  0  3  0  0  0  0  0  0
  -19.1240  -25.9930   21.5640 C   0  0  0  0  0  2  0  0  0  0  0  0
  -18.0340  -26.1670   20.5030 C   0  0  0  0  0  2  0  0  0  0  0  0
  -16.6800  -26.4370   21.1670 C   0  0  0  0  0  2  0  0  0  0  0  0
  -17.9740  -27.9680   22.7630 C   0  0  0  0  0  0  0  0  0  0  0  0
  -17.9890  -29.0620   23.6560 C   0  0  0  0  0  3  0  0  0  0  0  0
  -16.8040  -29.7670   23.9460 C   0  0  0  0  0  3  0  0  0  0  0  0
  -15.5900  -29.3740   23.3560 C   0  0  0  0  0  3  0  0  0  0  0  0
  -15.5620  -28.2800   22.4730 C   0  0  0  0  0  3  0  0  0  0  0  0
  -26.0790  -28.4310   22.8260 C   0  0  0  0  0  3  0  0  0  0  0  0
  -26.6390  -29.4950   23.6680 N   0  0  0  0  0  0  0  0  0  0  0  0
  -27.3630  -30.5240   23.2090 C   0  0  0  0  0  0  0  0  0  0  0  0
  -27.6890  -30.6370   22.0230 O   0  0  0  0  0  0  0  0  0  0  0  0
  -26.3650  -29.4980   24.6410 H   0  0  0  0  0  0  0  0  0  0  0  0
  -26.8830  -32.8310   24.0840 C   0  0  0  0  0  1  0  0  0  0  0  0
  -27.7940  -31.6000   24.2230 C   0  0  0  0  0  3  0  0  0  0  0  0
  -30.1530  -30.9600   24.4620 C   0  0  0  0  0  1  0  0  0  0  0  0
  -29.2080  -32.0080   24.0810 N   0  0  0  0  0  0  0  0  0  0  0  0
  -29.4060  -32.8340   24.6400 H   0  0  0  0  0  0  0  0  0  0  0  0
  -26.3570  -27.0120   23.4590 C   0  0  1  0  0  0  0  0  0  0  0  0
  -25.5640  -26.7510   24.7610 C   0  0  0  0  0  1  0  0  0  0  0  0
  -26.0040  -25.8900   22.4550 C   0  0  0  0  0  1  0  0  0  0  0  0
  -27.8650  -26.8620   23.7680 C   0  0  0  0  0  1  0  0  0  0  0  0
  -21.0610  -18.8280   23.5280 C   0  0  0  0  0  2  0  0  0  0  0  0
  -22.1960  -19.4000   22.8850 O   0  0  0  0  0  0  0  0  0  0  0  0
  -23.1430  -18.4140   22.4960 C   0  0  0  0  0  2  0  0  0  0  0  0
  -24.3390  -19.0900   21.8010 C   0  0  0  0  0  2  0  0  0  0  0  0
  -24.3250  -18.8980   20.3860 O   0  0  0  0  0  0  0  0  0  0  0  0
  -25.3380  -18.0140   19.9150 C   0  0  0  0  0  2  0  0  0  0  0  0
  -25.7120  -18.3440   18.4510 C   0  0  0  0  0  2  0  0  0  0  0  0
  -27.1210  -18.2680   18.2150 O   0  0  0  0  0  0  0  0  0  0  0  0
  -27.6370  -16.9500   18.3370 C   0  0  0  0  0  2  0  0  0  0  0  0
  -29.0960  -16.9510   18.8260 C   0  0  0  0  0  2  0  0  0  0  0  0
  -30.1190  -14.7000   19.2420 C   0  0  0  0  0  0  0  0  0  0  0  0
  -30.6410  -12.3330   19.7040 C   0  0  0  0  0  2  0  0  0  0  0  0
  -29.8780  -11.3720   18.7720 C   0  0  0  0  0  2  0  0  0  0  0  0
  -28.4760  -11.0650   19.3310 C   0  0  0  0  0  2  0  0  0  0  0  0
  -27.6990  -12.3460   19.7180 C   0  0  0  0  0  3  0  0  0  0  0  0
  -28.5730  -13.2570   20.6100 C   0  0  0  0  0  2  0  0  0  0  0  0
  -29.8370  -13.5470   19.9000 N   0  0  0  0  0  0  0  0  0  0  0  0
  -31.0370  -14.8250   18.4280 O   0  0  0  0  0  0  0  0  0  0  0  0
  -29.3200  -15.7160   19.5670 N   0  0  0  0  0  0  0  0  0  0  0  0
  -28.6790  -15.5370   20.3250 H   0  0  0  0  0  0  0  0  0  0  0  0
  -25.4540  -12.8680   20.8770 C   0  0  0  0  0  0  0  0  0  0  0  0
  -24.4440  -12.0520   21.3100 C   0  0  0  0  0  0  0  0  0  0  0  0
  -24.8640  -10.7160   21.0320 C   0  0  0  0  0  0  0  0  0  0  0  0
  -26.4290  -12.0220   20.3680 N   0  0  0  0  0  0  0  0  0  0  0  0
  -26.0870  -10.7180   20.5200 N   0  0  0  0  0  0  0  0  0  0  0  0
  -24.1530   -9.4400   21.1660 C   0  0  0  0  0  0  0  0  0  0  0  0
  -24.6440   -8.4020   21.9910 C   0  0  0  0  0  3  0  0  0  0  0  0
  -23.9310   -7.1910   22.1210 C   0  0  0  0  0  3  0  0  0  0  0  0
  -22.7130   -7.0070   21.4230 C   0  0  0  0  0  0  0  0  0  0  0  0
  -22.2400   -8.0330   20.5860 C   0  0  0  0  0  3  0  0  0  0  0  0
  -22.9540   -9.2340   20.4550 C   0  0  0  0  0  3  0  0  0  0  0  0
  -21.9660   -5.8550   21.4690 O   0  0  0  0  0  0  0  0  0  0  0  0
  -21.9210   -5.0700   22.5920 C   0  0  0  0  0  0  0  0  0  0  0  0
  -21.4310   -5.5580   23.8240 C   0  0  0  0  0  3  0  0  0  0  0  0
  -21.3390   -4.6960   24.9350 C   0  0  0  0  0  3  0  0  0  0  0  0
  -21.7270   -3.3490   24.8160 C   0  0  0  0  0  0  0  0  0  0  0  0
  -22.2110   -2.8600   23.5900 C   0  0  0  0  0  3  0  0  0  0  0  0
  -22.3040   -3.7180   22.4800 C   0  0  0  0  0  0  0  0  0  0  0  0
  -22.7520   -3.2380   21.2960 F   0  0  0  0  0  0  0  0  0  0  0  0
  -21.6290   -2.5190   25.8820 F   0  0  0  0  0  0  0  0  0  0  0  0
  -23.1180  -12.4880   21.8620 C   0  0  0  0  0  0  0  0  0  0  0  0
  -22.5230  -11.6800   22.7330 N   0  0  0  0  0  0  0  0  0  0  0  0
  -22.6230  -13.5710   21.5570 O   0  0  0  0  0  0  0  0  0  0  0  0
  -22.9370  -10.7970   22.9930 H   0  0  0  0  0  0  0  0  0  0  0  0
  -21.6410  -11.9500   23.1470 H   0  0  0  0  0  0  0  0  0  0  0  0
  -25.6220  -14.2490   20.8570 N   0  0  0  0  0  0  0  0  0  0  0  0
  -24.8930  -14.8830   21.1660 H   0  0  0  0  0  0  0  0  0  0  0  0
  -26.3980  -14.7250   20.4170 H   0  0  0  0  0  0  0  0  0  0  0  0
  1  3  2  0
  2  5  1  0
  2  1  1  0
  4  2  1  0
  6  5  1  0
  7  6  1  0
  8  7  1  0
  9  8  1  0
 10  9  1  0
 11 10  1  0
 12 11  1  0
 13 14  1  0
 13 12  1  0
 14 16  1  0
 15 26  2  0
 16 21  1  0
 17 25  1  0
 17 27  1  0
 18 20  1  0
 18 24  1  0
 19 25  1  0
 20 19  1  0
 21 20  2  0
 22 16  2  0
 22 23  1  0
 23 18  2  0
 24 17  1  0
 25 15  1  0
 27 28  1  0
 27 29  2  0
 30 28  1  0
 31 40  2  0
 31 36  1  0
 32 28  1  0
 32 36  1  0
 33 32  1  0
 34 35  1  0
 34 33  1  0
 35 31  1  0
 36 37  2  0
 37 38  1  0
 39 38  2  0
 40 39  1  0
 41 15  1  0
 41 51  1  0
 41 42  1  0
 42 45  1  0
 43 42  1  0
 43 47  1  0
 44 43  2  0
 47 46  1  0
 49 47  1  0
 49 48  1  0
 49 50  1  0
 51 54  1  1
 51 52  1  0
 53 51  1  0
 55  1  1  0
 56 55  1  0
 57 56  1  0
 58 57  1  0
 59 58  1  0
 60 59  1  0
 61 60  1  0
 62 63  1  0
 62 61  1  0
 63 64  1  0
 64 73  1  0
 65 73  1  0
 65 71  1  0
 66 71  1  0
 67 68  1  0
 67 66  1  0
 69 68  1  0
 69 78  1  0
 69 70  1  0
 71 70  1  0
 72 65  2  0
 73 74  1  0
 75 76  2  0
 76 95  1  0
 77 80  1  0
 77 76  1  0
 78 79  1  0
 78 75  1  0
 79 77  2  0
 80 81  1  0
 81 82  2  0
 83 86  1  0
 83 82  1  0
 84 83  2  0
 85 84  1  0
 85 80  2  0
 86 87  1  0
 87 88  1  0
 88 89  2  0
 90 89  1  0
 90 94  1  0
 91 90  2  0
 92 87  2  0
 92 91  1  0
 93 92  1  0
 95 96  1  0
 96 98  1  0
 96 99  1  0
 97 95  2  0
100 75  1  0
100101  1  0
102100  1  0
M  ISO  4  13 101  14 101  65 100  73 100
M  END
>  <TORSDO>  (44) 
F 35

>  <SCORE>  (44) 
25.709

>  <name>  (44) 
55

>  <ligand_id>  (44) 
55

>  <original_smiles>  (44) 
[H]c1c([H])c([H])c2c(c1[H])C([H])([H])C([H])([H])C([H])([H])C2([H])N([H])C(=O)C1([H])N(C(=O)C([H])(N([H])C(=O)C([H])(N([H])C([H])([H])[H])C([H])([H])[H])C(C([H])([H])[H])(C([H])([H])[H])C([H])([H])[H])C([H])([H])c2c([H])c(OC([H])([H])C([H])([H])OC([H])([H])C([H])([H])C([H])([H])OC([H])([H])C([H])([H])N([H])C(=O)C([H])([H])OC([H])([H])C([H])([H])OC([H])([H])C([H])([H])OC([H])([H])C([H])([H])N([H])C(=O)N3C([H])([H])C([H])([H])C([H])([H])C([H])(n4nc(-c5c([H])c([H])c(Oc6c([H])c([H])c(F)c([H])c6F)c([H])c5[H])c(C(=O)N([H])[H])c4N([H])[H])C3([H])[H])c([H])c([H])c2C1([H])[H]

>  <smiles>  (44) 
[H]c1c([H])c([H])c2c(c1[H])C([H])([H])C([H])([H])C([H])([H])C2([H])N([H])C(=O)C1([H])N(C(=O)C([H])(N([H])C(=O)C([H])(N([H])C([H])([H])[H])C([H])([H])[H])C(C([H])([H])[H])(C([H])([H])[H])C([H])([H])[H])C([H])([H])c2c([H])c(OC([H])([H])C([H])([H])OC([H])([H])C([H])([H])C([H])([H])OC([H])([H])C([H])([H])N([H])C(=O)C([H])([H])OC([H])([H])C([H])([H])OC([H])([H])C([H])([H])OC([H])([H])C([H])([H])N([H])C(=O)N3C([H])([H])C([H])([H])C([H])([H])C([H])(n4nc(-c5c([H])c([H])c(Oc6c([H])c([H])c(F)c([H])c6F)c([H])c5[H])c(C(=O)N([H])[H])c4N([H])[H])C3([H])[H])c([H])c([H])c2C1([H])[H]

$$$$
56:0:0
     RDKit          3D

 99106  0  0  1  0  0  0  0  0999 V2000
  -24.4510  -22.9190   20.1080 O   0  0  0  0  0  0  0  0  0  0  0  0
  -23.9970  -23.2820   18.8110 C   0  0  0  0  0  2  0  0  0  0  0  0
  -23.9190  -22.0100   17.9510 C   0  0  0  0  0  2  0  0  0  0  0  0
  -25.1920  -21.3770   17.9590 O   0  0  0  0  0  0  0  0  0  0  0  0
  -25.2540  -20.1540   17.2330 C   0  0  0  0  0  2  0  0  0  0  0  0
  -25.8030  -19.0520   18.1510 C   0  0  0  0  0  2  0  0  0  0  0  0
  -27.0810  -19.4290   18.6600 O   0  0  0  0  0  0  0  0  0  0  0  0
  -27.6320  -18.4310   19.5070 C   0  0  0  0  0  2  0  0  0  0  0  0
  -28.9580  -18.8780   20.1330 C   0  0  0  0  0  2  0  0  0  0  0  0
  -29.3790  -17.8410   21.0100 O   0  0  0  0  0  0  0  0  0  0  0  0
  -30.7170  -17.9970   21.4560 C   0  0  0  0  0  2  0  0  0  0  0  0
  -31.0630  -16.8650   22.4390 C   0  0  0  0  0  2  0  0  0  0  0  0
  -31.0850  -14.8570   20.9560 C   0  0  0  0  0  0  0  0  0  0  0  0
  -30.7560  -12.8910   19.5030 C   0  0  0  0  0  2  0  0  0  0  0  0
  -29.8610  -13.2290   18.2960 C   0  0  0  0  0  2  0  0  0  0  0  0
  -28.3700  -13.0820   18.6570 C   0  0  0  0  0  2  0  0  0  0  0  0
  -28.0020  -13.8150   19.9740 C   0  0  0  0  0  3  0  0  0  0  0  0
  -28.9990  -13.4490   21.0950 C   0  0  0  0  0  2  0  0  0  0  0  0
  -30.3650  -13.7570   20.6240 N   0  0  0  0  0  0  0  0  0  0  0  0
  -32.1370  -15.1840   20.3970 O   0  0  0  0  0  0  0  0  0  0  0  0
  -30.5750  -15.5740   21.9590 N   0  0  0  0  0  0  0  0  0  0  0  0
  -29.7110  -15.2360   22.3570 H   0  0  0  0  0  0  0  0  0  0  0  0
  -25.5760  -14.4210   20.5940 C   0  0  0  0  0  0  0  0  0  0  0  0
  -24.4810  -13.6480   20.8680 C   0  0  0  0  0  0  0  0  0  0  0  0
  -24.9260  -12.2930   20.7900 C   0  0  0  0  0  0  0  0  0  0  0  0
  -26.6210  -13.5390   20.3700 N   0  0  0  0  0  0  0  0  0  0  0  0
  -26.2290  -12.2500   20.5420 N   0  0  0  0  0  0  0  0  0  0  0  0
  -24.1770  -11.0350   20.8820 C   0  0  0  0  0  0  0  0  0  0  0  0
  -24.5480  -10.0200   21.7920 C   0  0  0  0  0  3  0  0  0  0  0  0
  -23.8000   -8.8250   21.8740 C   0  0  0  0  0  3  0  0  0  0  0  0
  -22.6690   -8.6380   21.0460 C   0  0  0  0  0  0  0  0  0  0  0  0
  -22.3170   -9.6420   20.1270 C   0  0  0  0  0  3  0  0  0  0  0  0
  -23.0650  -10.8280   20.0420 C   0  0  0  0  0  3  0  0  0  0  0  0
  -21.8980   -7.5010   21.0390 O   0  0  0  0  0  0  0  0  0  0  0  0
  -21.7410   -6.7320   22.1640 C   0  0  0  0  0  0  0  0  0  0  0  0
  -21.2350   -7.2670   23.3690 C   0  0  0  0  0  3  0  0  0  0  0  0
  -21.0240   -6.4250   24.4790 C   0  0  0  0  0  3  0  0  0  0  0  0
  -21.3090   -5.0490   24.3850 C   0  0  0  0  0  0  0  0  0  0  0  0
  -21.8080   -4.5140   23.1850 C   0  0  0  0  0  3  0  0  0  0  0  0
  -22.0200   -5.3520   22.0770 C   0  0  0  0  0  0  0  0  0  0  0  0
  -22.4820   -4.8270   20.9160 F   0  0  0  0  0  0  0  0  0  0  0  0
  -21.0980   -4.2380   25.4490 F   0  0  0  0  0  0  0  0  0  0  0  0
  -23.0780  -14.1310   21.1020 C   0  0  0  0  0  0  0  0  0  0  0  0
  -22.3040  -13.4070   21.9010 N   0  0  0  0  0  0  0  0  0  0  0  0
  -22.6760  -15.1880   20.6140 O   0  0  0  0  0  0  0  0  0  0  0  0
  -22.6380  -12.5500   22.3180 H   0  0  0  0  0  0  0  0  0  0  0  0
  -21.3610  -13.7120   22.0980 H   0  0  0  0  0  0  0  0  0  0  0  0
  -25.7660  -15.7940   20.5040 N   0  0  0  0  0  0  0  0  0  0  0  0
  -25.0150  -16.4580   20.6570 H   0  0  0  0  0  0  0  0  0  0  0  0
  -26.6680  -16.2250   20.3550 H   0  0  0  0  0  0  0  0  0  0  0  0
  -24.5690  -24.0130   21.0100 C   0  0  0  0  0  2  0  0  0  0  0  0
  -25.3060  -23.5230   22.2710 C   0  0  0  0  0  0  0  0  0  0  0  0
  -26.6260  -23.2670   22.2180 N   0  0  0  0  0  0  0  0  0  0  0  0
  -24.6760  -23.3350   23.3110 O   0  0  0  0  0  0  0  0  0  0  0  0
  -27.0470  -22.8890   23.0570 H   0  0  0  0  0  0  0  0  0  0  0  0
  -27.5280  -23.5500   21.0990 C   0  0  0  0  0  2  0  0  0  0  0  0
  -28.0060  -25.0130   21.1380 C   0  0  0  0  0  2  0  0  0  0  0  0
  -28.4810  -25.5560   19.7770 C   0  0  0  0  0  2  0  0  0  0  0  0
  -28.4380  -26.9820   19.7820 O   0  0  0  0  0  0  0  0  0  0  0  0
  -24.6680  -31.9200   23.2200 C   0  0  0  0  0  0  0  0  0  0  0  0
  -27.2170  -27.6240   19.8680 C   0  0  0  0  0  0  0  0  0  0  0  0
  -23.3960  -30.5570   21.5930 C   0  0  0  0  0  3  0  0  0  0  0  0
  -24.7950  -29.0740   20.0580 C   0  0  0  0  0  0  0  0  0  0  0  0
  -25.9020  -30.9510   21.2840 C   0  0  0  0  0  2  0  0  0  0  0  0
  -25.9700  -29.5950   20.6100 C   0  0  0  0  0  0  0  0  0  0  0  0
  -27.1780  -28.8760   20.5200 C   0  0  0  0  0  3  0  0  0  0  0  0
  -26.0220  -27.1040   19.3190 C   0  0  0  0  0  3  0  0  0  0  0  0
  -24.8130  -27.8240   19.4120 C   0  0  0  0  0  3  0  0  0  0  0  0
  -23.5490  -29.9190   20.1860 C   0  0  0  0  0  2  0  0  0  0  0  0
  -24.6760  -31.1540   22.0920 N   0  0  0  0  0  0  0  0  0  0  0  0
  -23.6140  -32.1640   23.8230 O   0  0  0  0  0  0  0  0  0  0  0  0
  -22.7980  -29.5010   22.5510 C   0  0  0  0  0  0  0  0  0  0  0  0
  -21.4780  -29.2850   22.4520 N   0  0  0  0  0  0  0  0  0  0  0  0
  -23.5200  -28.8820   23.3380 O   0  0  0  0  0  0  0  0  0  0  0  0
  -20.9530  -29.8400   21.7910 H   0  0  0  0  0  0  0  0  0  0  0  0
  -18.1620  -27.9440   22.9600 C   0  0  0  0  0  0  0  0  0  0  0  0
  -20.7080  -28.3100   23.2240 C   0  0  0  0  0  3  0  0  0  0  0  0
  -20.8690  -26.8850   22.6450 C   0  0  0  0  0  2  0  0  0  0  0  0
  -19.7750  -26.5120   21.6380 C   0  0  0  0  0  2  0  0  0  0  0  0
  -18.3950  -26.5990   22.2950 C   0  0  0  0  0  2  0  0  0  0  0  0
  -19.2490  -28.7520   23.3900 C   0  0  0  0  0  0  0  0  0  0  0  0
  -18.9790  -30.0030   23.9860 C   0  0  0  0  0  3  0  0  0  0  0  0
  -17.6560  -30.4520   24.1500 C   0  0  0  0  0  3  0  0  0  0  0  0
  -16.5840  -29.6440   23.7330 C   0  0  0  0  0  3  0  0  0  0  0  0
  -16.8360  -28.3920   23.1440 C   0  0  0  0  0  3  0  0  0  0  0  0
  -25.9790  -32.5410   23.7940 C   0  0  0  0  0  3  0  0  0  0  0  0
  -26.5560  -31.7480   25.0300 C   0  0  1  0  0  0  0  0  0  0  0  0
  -25.5110  -31.4780   26.1380 C   0  0  0  0  0  1  0  0  0  0  0  0
  -27.1300  -30.3840   24.5790 C   0  0  0  0  0  1  0  0  0  0  0  0
  -27.7320  -32.5340   25.6590 C   0  0  0  0  0  1  0  0  0  0  0  0
  -25.6890  -33.9330   24.1610 N   0  0  0  0  0  0  0  0  0  0  0  0
  -25.9900  -34.9970   23.4000 C   0  0  0  0  0  0  0  0  0  0  0  0
  -26.6150  -34.9070   22.3400 O   0  0  0  0  0  0  0  0  0  0  0  0
  -25.1310  -34.0780   24.9890 H   0  0  0  0  0  0  0  0  0  0  0  0
  -24.2420  -36.7870   23.1420 C   0  0  0  0  0  1  0  0  0  0  0  0
  -25.5180  -36.3760   23.8950 C   0  0  0  0  0  3  0  0  0  0  0  0
  -27.6890  -37.2610   24.6320 C   0  0  0  0  0  1  0  0  0  0  0  0
  -26.5380  -37.4380   23.7520 N   0  0  0  0  0  0  0  0  0  0  0  0
  -26.1340  -38.3520   23.9380 H   0  0  0  0  0  0  0  0  0  0  0  0
  1 51  1  0
  2  1  1  0
  3  4  1  0
  3  2  1  0
  5  4  1  0
  5  6  1  0
  6  7  1  0
  7  8  1  0
  8  9  1  0
  9 10  1  0
 10 11  1  0
 11 12  1  0
 13 21  1  0
 14 19  1  0
 15 16  1  0
 15 14  1  0
 17 16  1  0
 17 26  1  0
 17 18  1  0
 19 13  1  0
 19 18  1  0
 20 13  2  0
 21 22  1  0
 21 12  1  0
 23 24  2  0
 24 43  1  0
 25 24  1  0
 25 28  1  0
 26 27  1  0
 26 23  1  0
 27 25  2  0
 28 29  1  0
 29 30  2  0
 31 30  1  0
 32 31  2  0
 33 32  1  0
 33 28  2  0
 34 31  1  0
 34 35  1  0
 35 36  1  0
 36 37  2  0
 38 37  1  0
 38 42  1  0
 39 38  2  0
 40 35  2  0
 40 39  1  0
 41 40  1  0
 43 44  1  0
 44 47  1  0
 44 46  1  0
 45 43  2  0
 48 23  1  0
 48 49  1  0
 50 48  1  0
 51 52  1  0
 52 54  2  0
 53 52  1  0
 53 55  1  0
 56 57  1  0
 56 53  1  0
 58 59  1  0
 58 57  1  0
 59 61  1  0
 60 71  2  0
 61 66  1  0
 62 70  1  0
 62 72  1  0
 63 69  1  0
 63 65  1  0
 64 70  1  0
 65 64  1  0
 66 65  2  0
 67 68  1  0
 67 61  2  0
 68 63  2  0
 69 62  1  0
 70 60  1  0
 72 74  2  0
 73 72  1  0
 75 73  1  0
 76 85  2  0
 76 81  1  0
 77 73  1  0
 77 81  1  0
 78 77  1  0
 79 80  1  0
 79 78  1  0
 80 76  1  0
 81 82  2  0
 82 83  1  0
 84 83  2  0
 85 84  1  0
 86 60  1  0
 86 91  1  0
 86 87  1  0
 87 90  1  1
 87 88  1  0
 89 87  1  0
 91 94  1  0
 92 96  1  0
 92 91  1  0
 93 92  2  0
 96 95  1  0
 98 96  1  0
 98 99  1  0
 98 97  1  0
M  ISO  4  13 100  21 100  58 101  59 101
M  END
>  <TORSDO>  (45) 
F 32

>  <SCORE>  (45) 
-9.047

>  <name>  (45) 
56

>  <ligand_id>  (45) 
56

>  <original_smiles>  (45) 
[H]c1c([H])c([H])c2c(c1[H])C([H])([H])C([H])([H])C([H])([H])C2([H])N([H])C(=O)C1([H])N(C(=O)C([H])(N([H])C(=O)C([H])(N([H])C([H])([H])[H])C([H])([H])[H])C(C([H])([H])[H])(C([H])([H])[H])C([H])([H])[H])C([H])([H])c2c([H])c(OC([H])([H])C([H])([H])C([H])([H])N([H])C(=O)C([H])([H])OC([H])([H])C([H])([H])OC([H])([H])C([H])([H])OC([H])([H])C([H])([H])OC([H])([H])C([H])([H])N([H])C(=O)N3C([H])([H])C([H])([H])C([H])([H])C([H])(n4nc(-c5c([H])c([H])c(Oc6c([H])c([H])c(F)c([H])c6F)c([H])c5[H])c(C(=O)N([H])[H])c4N([H])[H])C3([H])[H])c([H])c([H])c2C1([H])[H]

>  <smiles>  (45) 
[H]c1c([H])c([H])c2c(c1[H])C([H])([H])C([H])([H])C([H])([H])C2([H])N([H])C(=O)C1([H])N(C(=O)C([H])(N([H])C(=O)C([H])(N([H])C([H])([H])[H])C([H])([H])[H])C(C([H])([H])[H])(C([H])([H])[H])C([H])([H])[H])C([H])([H])c2c([H])c(OC([H])([H])C([H])([H])C([H])([H])N([H])C(=O)C([H])([H])OC([H])([H])C([H])([H])OC([H])([H])C([H])([H])OC([H])([H])C([H])([H])OC([H])([H])C([H])([H])N([H])C(=O)N3C([H])([H])C([H])([H])C([H])([H])C([H])(n4nc(-c5c([H])c([H])c(Oc6c([H])c([H])c(F)c([H])c6F)c([H])c5[H])c(C(=O)N([H])[H])c4N([H])[H])C3([H])[H])c([H])c([H])c2C1([H])[H]

$$$$
57:0:0
     RDKit          3D

111119  0  0  1  0  0  0  0  0999 V2000
  -22.9960  -23.4790   19.8900 O   0  0  0  0  0  0  0  0  0  0  0  0
  -21.9990  -22.9520   19.0250 C   0  0  0  0  0  2  0  0  0  0  0  0
  -20.6430  -23.4200   19.5580 C   0  0  0  0  0  2  0  0  0  0  0  0
  -20.6620  -23.2720   20.9700 O   0  0  0  0  0  0  0  0  0  0  0  0
  -20.3190  -24.4550   21.6790 C   0  0  0  0  0  2  0  0  0  0  0  0
  -21.1630  -24.4900   22.9540 C   0  0  0  0  0  2  0  0  0  0  0  0
  -22.5190  -24.6000   22.5440 O   0  0  0  0  0  0  0  0  0  0  0  0
  -23.4580  -24.3480   23.5760 C   0  0  0  0  0  2  0  0  0  0  0  0
  -24.8330  -24.1960   22.9150 C   0  0  0  0  0  2  0  0  0  0  0  0
  -24.8290  -22.9920   22.1590 O   0  0  0  0  0  0  0  0  0  0  0  0
  -26.0860  -22.6920   21.5740 C   0  0  0  0  0  2  0  0  0  0  0  0
  -25.9400  -21.4320   20.7120 C   0  0  0  0  0  2  0  0  0  0  0  0
  -27.2190  -21.0010   20.2780 O   0  0  0  0  0  0  0  0  0  0  0  0
  -27.1450  -19.9080   19.3700 C   0  0  0  0  0  2  0  0  0  0  0  0
  -28.5630  -19.4050   19.0810 C   0  0  0  0  0  2  0  0  0  0  0  0
  -28.9900  -18.5870   20.1630 O   0  0  0  0  0  0  0  0  0  0  0  0
  -30.3800  -18.3020   20.1130 C   0  0  0  0  0  2  0  0  0  0  0  0
  -30.7350  -17.3530   21.2680 C   0  0  0  0  0  2  0  0  0  0  0  0
  -30.8090  -15.0860   20.2430 C   0  0  0  0  0  0  0  0  0  0  0  0
  -30.6680  -12.8040   19.3220 C   0  0  0  0  0  2  0  0  0  0  0  0
  -29.7750  -12.7600   18.0680 C   0  0  0  0  0  2  0  0  0  0  0  0
  -28.2970  -12.5730   18.4550 C   0  0  0  0  0  2  0  0  0  0  0  0
  -27.8390  -13.5670   19.5560 C   0  0  0  0  0  3  0  0  0  0  0  0
  -28.8410  -13.5820   20.7300 C   0  0  0  0  0  2  0  0  0  0  0  0
  -30.1830  -13.8830   20.1950 N   0  0  0  0  0  0  0  0  0  0  0  0
  -31.8460  -15.3420   19.6270 O   0  0  0  0  0  0  0  0  0  0  0  0
  -30.2360  -15.9990   21.0350 N   0  0  0  0  0  0  0  0  0  0  0  0
  -29.3790  -15.7350   21.4970 H   0  0  0  0  0  0  0  0  0  0  0  0
  -25.4060  -14.1290   20.1820 C   0  0  0  0  0  0  0  0  0  0  0  0
  -24.3500  -13.3380   20.5520 C   0  0  0  0  0  0  0  0  0  0  0  0
  -24.8510  -11.9990   20.5780 C   0  0  0  0  0  0  0  0  0  0  0  0
  -26.4820  -13.2720   20.0080 N   0  0  0  0  0  0  0  0  0  0  0  0
  -26.1480  -11.9880   20.3010 N   0  0  0  0  0  0  0  0  0  0  0  0
  -24.1570  -10.7240   20.7950 C   0  0  0  0  0  0  0  0  0  0  0  0
  -24.5840   -9.8100   21.7830 C   0  0  0  0  0  3  0  0  0  0  0  0
  -23.8890   -8.5970   21.9850 C   0  0  0  0  0  3  0  0  0  0  0  0
  -22.7550   -8.2900   21.1980 C   0  0  0  0  0  0  0  0  0  0  0  0
  -22.3480   -9.1930   20.1980 C   0  0  0  0  0  3  0  0  0  0  0  0
  -23.0430  -10.3960   19.9960 C   0  0  0  0  0  3  0  0  0  0  0  0
  -22.0340   -7.1250   21.3040 O   0  0  0  0  0  0  0  0  0  0  0  0
  -21.8890   -6.4780   22.5050 C   0  0  0  0  0  0  0  0  0  0  0  0
  -21.3330   -7.1170   23.6340 C   0  0  0  0  0  3  0  0  0  0  0  0
  -21.1360   -6.3930   24.8280 C   0  0  0  0  0  3  0  0  0  0  0  0
  -21.4850   -5.0310   24.8910 C   0  0  0  0  0  0  0  0  0  0  0  0
  -22.0330   -4.3920   23.7670 C   0  0  0  0  0  3  0  0  0  0  0  0
  -22.2310   -5.1130   22.5750 C   0  0  0  0  0  0  0  0  0  0  0  0
  -22.7400   -4.4850   21.4880 F   0  0  0  0  0  0  0  0  0  0  0  0
  -21.2890   -4.3340   26.0350 F   0  0  0  0  0  0  0  0  0  0  0  0
  -22.9350  -13.7820   20.7780 C   0  0  0  0  0  0  0  0  0  0  0  0
  -22.1990  -13.0770   21.6290 N   0  0  0  0  0  0  0  0  0  0  0  0
  -22.4860  -14.7920   20.2340 O   0  0  0  0  0  0  0  0  0  0  0  0
  -22.5740  -12.2610   22.0920 H   0  0  0  0  0  0  0  0  0  0  0  0
  -21.2480  -13.3570   21.8240 H   0  0  0  0  0  0  0  0  0  0  0  0
  -25.5350  -15.4960   19.9630 N   0  0  0  0  0  0  0  0  0  0  0  0
  -24.7490  -16.1320   20.0380 H   0  0  0  0  0  0  0  0  0  0  0  0
  -26.3920  -15.9500   19.6740 H   0  0  0  0  0  0  0  0  0  0  0  0
  -24.3090  -23.3000   19.3930 C   0  0  0  0  0  2  0  0  0  0  0  0
  -25.2980  -24.0440   20.3080 C   0  0  0  0  0  2  0  0  0  0  0  0
  -24.8690  -25.3990   20.3970 O   0  0  0  0  0  0  0  0  0  0  0  0
  -25.8960  -26.3640   20.6280 C   0  0  0  0  0  2  0  0  0  0  0  0
  -25.5430  -27.7430   19.8570 C   0  0  0  0  0  2  0  0  0  0  0  0
  -26.5320  -29.7240   16.4010 C   0  0  0  0  0  1  0  0  0  0  0  0
  -25.8050  -28.4970   17.0470 N   0  0  2  0  0  4  0  0  0  0  0  0
  -26.5700  -27.8540   16.9010 H   0  0  0  0  0  0  0  0  0  0  0  0
  -25.0000  -28.0400   15.7760 C   0  0  0  0  0  2  0  0  0  0  0  0
  -25.7070  -26.8830   15.0270 C   0  0  0  0  0  2  0  0  0  0  0  0
  -27.1050  -27.0790   15.2320 O   0  0  0  0  0  0  0  0  0  0  0  0
  -27.8630  -25.8960   15.4730 C   0  0  0  0  0  2  0  0  0  0  0  0
  -29.1360  -26.2750   16.2560 C   0  0  0  0  0  2  0  0  0  0  0  0
  -28.9060  -27.1710   17.3410 O   0  0  0  0  0  0  0  0  0  0  0  0
  -28.0830  -26.4890   18.3940 O   0  0  0  0  0  0  0  0  0  0  0  0
  -25.0930  -31.3610   23.3120 C   0  0  0  0  0  0  0  0  0  0  0  0
  -27.0660  -27.3040   18.7250 C   0  0  2  0  0  0  0  0  0  0  0  0
  -23.5440  -30.7140   21.4850 C   0  0  0  0  0  3  0  0  0  0  0  0
  -24.4470  -29.5590   19.4590 C   0  0  0  0  0  0  0  0  0  0  0  0
  -26.1160  -30.8520   21.1620 C   0  0  0  0  0  2  0  0  0  0  0  0
  -25.9980  -29.7370   20.2300 C   0  0  0  0  0  0  0  0  0  0  0  0
  -27.3220  -28.6060   19.8910 C   0  0  0  0  0  2  0  0  0  0  0  0
  -25.4760  -27.0990   17.9430 C   0  0  0  0  0  3  0  0  0  0  0  0
  -24.1440  -28.2170   18.3380 C   0  0  0  0  0  2  0  0  0  0  0  0
  -23.4470  -30.5360   19.9400 C   0  0  0  0  0  2  0  0  0  0  0  0
  -24.9350  -30.9490   22.0320 N   0  0  0  0  0  0  0  0  0  0  0  0
  -24.1150  -31.6040   24.0270 O   0  0  0  0  0  0  0  0  0  0  0  0
  -22.8140  -29.5310   22.1680 C   0  0  0  0  0  0  0  0  0  0  0  0
  -21.4740  -29.5600   22.1060 N   0  0  0  0  0  0  0  0  0  0  0  0
  -23.4380  -28.6190   22.7170 O   0  0  0  0  0  0  0  0  0  0  0  0
  -21.0350  -30.3400   21.6390 H   0  0  0  0  0  0  0  0  0  0  0  0
  -17.9950  -28.7750   22.6110 C   0  0  0  0  0  0  0  0  0  0  0  0
  -20.5700  -28.5670   22.6770 C   0  0  0  0  0  3  0  0  0  0  0  0
  -20.3980  -27.3630   21.7230 C   0  0  0  0  0  2  0  0  0  0  0  0
  -19.1990  -27.5160   20.7830 C   0  0  0  0  0  2  0  0  0  0  0  0
  -17.9020  -27.6620   21.5840 C   0  0  0  0  0  2  0  0  0  0  0  0
  -19.2480  -29.2140   23.1120 C   0  0  0  0  0  0  0  0  0  0  0  0
  -19.2820  -30.2860   24.0290 C   0  0  0  0  0  3  0  0  0  0  0  0
  -18.0930  -30.9070   24.4560 C   0  0  0  0  0  3  0  0  0  0  0  0
  -16.8520  -30.4530   23.9720 C   0  0  0  0  0  3  0  0  0  0  0  0
  -16.8050  -29.3900   23.0550 C   0  0  0  0  0  3  0  0  0  0  0  0
  -26.5140  -31.5770   23.9280 C   0  0  0  0  0  3  0  0  0  0  0  0
  -26.4570  -32.7910   24.7430 N   0  0  0  0  0  0  0  0  0  0  0  0
  -26.8600  -33.9950   24.3180 C   0  0  0  0  0  0  0  0  0  0  0  0
  -27.4030  -34.1850   23.2260 O   0  0  0  0  0  0  0  0  0  0  0  0
  -26.0170  -32.7150   25.6480 H   0  0  0  0  0  0  0  0  0  0  0  0
  -25.3920  -35.9730   24.7720 C   0  0  0  0  0  1  0  0  0  0  0  0
  -26.6170  -35.1850   25.2600 C   0  0  0  0  0  3  0  0  0  0  0  0
  -28.9160  -35.4830   26.0680 C   0  0  0  0  0  1  0  0  0  0  0  0
  -27.7830  -36.0880   25.3720 N   0  0  0  0  0  0  0  0  0  0  0  0
  -27.5310  -36.9450   25.8560 H   0  0  0  0  0  0  0  0  0  0  0  0
  -27.0240  -30.3400   24.7570 C   0  0  1  0  0  0  0  0  0  0  0  0
  -26.0060  -29.8460   25.8070 C   0  0  0  0  0  1  0  0  0  0  0  0
  -27.3450  -29.1530   23.8120 C   0  0  0  0  0  1  0  0  0  0  0  0
  -28.3440  -30.7110   25.4780 C   0  0  0  0  0  1  0  0  0  0  0  0
  2  3  1  0
  2  1  1  0
  3  4  1  0
  4  5  1  0
  5  6  1  0
  7  6  1  0
  7  8  1  0
  9  8  1  0
 10  9  1  0
 11 10  1  0
 12 11  1  0
 13 12  1  0
 14 13  1  0
 15 14  1  0
 15 16  1  0
 17 16  1  0
 17 18  1  0
 19 27  1  0
 20 25  1  0
 21 22  1  0
 21 20  1  0
 23 22  1  0
 23 32  1  0
 23 24  1  0
 25 19  1  0
 25 24  1  0
 26 19  2  0
 27 18  1  0
 27 28  1  0
 29 30  2  0
 30 31  1  0
 30 49  1  0
 31 34  1  0
 32 29  1  0
 32 33  1  0
 33 31  2  0
 34 35  1  0
 35 36  2  0
 37 40  1  0
 37 36  1  0
 38 37  2  0
 39 38  1  0
 39 34  2  0
 40 41  1  0
 41 46  2  0
 41 42  1  0
 42 43  2  0
 43 44  1  0
 44 48  1  0
 45 44  2  0
 46 45  1  0
 47 46  1  0
 49 50  1  0
 50 53  1  0
 50 52  1  0
 51 49  2  0
 54 55  1  0
 54 29  1  0
 56 54  1  0
 57  1  1  0
 57 58  1  0
 58 59  1  0
 59 60  1  0
 61 60  1  0
 62 63  1  0
 63 79  1  0
 63 64  1  6
 65 63  1  0
 66 67  1  0
 66 65  1  0
 67 68  1  0
 68 69  1  0
 69 70  1  0
 70 71  1  0
 71 73  1  0
 72 83  2  0
 73 61  1  1
 73 78  1  0
 74 82  1  0
 74 84  1  0
 75 81  1  0
 75 77  2  0
 76 82  1  0
 77 76  1  0
 78 77  1  0
 79 80  1  0
 79 73  1  0
 80 75  1  0
 81 74  1  0
 82 72  1  0
 84 86  2  0
 85 84  1  0
 87 85  1  0
 88 97  2  0
 88 93  1  0
 89 85  1  0
 89 93  1  0
 90 89  1  0
 91 92  1  0
 91 90  1  0
 92 88  1  0
 93 94  2  0
 94 95  1  0
 96 95  2  0
 97 96  1  0
 98 72  1  0
 98 99  1  0
 98108  1  0
 99102  1  0
100 99  1  0
100104  1  0
101100  2  0
104103  1  0
104106  1  0
106107  1  0
106105  1  0
108111  1  1
108109  1  0
110108  1  0
M  ISO  4  19 100  27 100  70 101  71 101
M  END
>  <TORSDO>  (46) 
F 45

>  <SCORE>  (46) 
-3.749

>  <name>  (46) 
57

>  <ligand_id>  (46) 
57

>  <original_smiles>  (46) 
[H]c1c([H])c([H])c2c(c1[H])C([H])([H])C([H])([H])C([H])([H])C2([H])N([H])C(=O)C1([H])N(C(=O)C([H])(N([H])C(=O)C([H])(N([H])C([H])([H])[H])C([H])([H])[H])C(C([H])([H])[H])(C([H])([H])[H])C([H])([H])[H])C([H])([H])c2c([H])c(OOC([H])([H])C([H])([H])OC([H])([H])C([H])([H])[N+]([H])(C([H])([H])[H])C([H])([H])C([H])([H])OC([H])([H])C([H])([H])OC([H])([H])C([H])([H])OC([H])([H])C([H])([H])OC([H])([H])C([H])([H])OC([H])([H])C([H])([H])OC([H])([H])C([H])([H])OC([H])([H])C([H])([H])N([H])C(=O)N3C([H])([H])C([H])([H])C([H])([H])C([H])(n4nc(-c5c([H])c([H])c(Oc6c([H])c([H])c(F)c([H])c6F)c([H])c5[H])c(C(=O)N([H])[H])c4N([H])[H])C3([H])[H])c([H])c([H])c2C1([H])[H]

>  <smiles>  (46) 
[H]c1c([H])c([H])c2c(c1[H])C([H])([H])C([H])([H])C([H])([H])C2([H])N([H])C(=O)C1([H])N(C(=O)C([H])(N([H])C(=O)C([H])(N([H])C([H])([H])[H])C([H])([H])[H])C(C([H])([H])[H])(C([H])([H])[H])C([H])([H])[H])C([H])([H])c2c([H])c(OOC([H])([H])C([H])([H])OC([H])([H])C([H])([H])[N+]([H])(C([H])([H])[H])C([H])([H])C([H])([H])OC([H])([H])C([H])([H])OC([H])([H])C([H])([H])OC([H])([H])C([H])([H])OC([H])([H])C([H])([H])OC([H])([H])C([H])([H])OC([H])([H])C([H])([H])OC([H])([H])C([H])([H])N([H])C(=O)N3C([H])([H])C([H])([H])C([H])([H])C([H])(n4nc(-c5c([H])c([H])c(Oc6c([H])c([H])c(F)c([H])c6F)c([H])c5[H])c(C(=O)N([H])[H])c4N([H])[H])C3([H])[H])c([H])c([H])c2C1([H])[H]

$$$$
59:0:0
     RDKit          3D

 99106  0  0  1  0  0  0  0  0999 V2000
  -25.6850  -21.6080   23.4560 O   0  0  0  0  0  0  0  0  0  0  0  0
  -25.4220  -20.7990   24.5940 C   0  0  0  0  0  2  0  0  0  0  0  0
  -24.1480  -19.9850   24.3130 C   0  0  0  0  0  2  0  0  0  0  0  0
  -24.2880  -19.2650   23.0930 O   0  0  0  0  0  0  0  0  0  0  0  0
  -25.1670  -18.1450   23.1560 C   0  0  0  0  0  2  0  0  0  0  0  0
  -24.9840  -17.2950   21.8900 C   0  0  0  0  0  2  0  0  0  0  0  0
  -25.8100  -17.8200   20.8560 O   0  0  0  0  0  0  0  0  0  0  0  0
  -26.1130  -16.8530   19.8600 C   0  0  0  0  0  2  0  0  0  0  0  0
  -27.3760  -17.2770   19.0950 C   0  0  0  0  0  2  0  0  0  0  0  0
  -28.3580  -16.2550   19.2030 O   0  0  0  0  0  0  0  0  0  0  0  0
  -29.6830  -16.7650   19.3060 C   0  0  0  0  0  2  0  0  0  0  0  0
  -30.4910  -15.8470   20.2330 C   0  0  0  0  0  2  0  0  0  0  0  0
  -31.5400  -13.6350   20.0870 C   0  0  0  0  0  0  0  0  0  0  0  0
  -31.5130  -11.5190   21.3490 C   0  0  0  0  0  2  0  0  0  0  0  0
  -30.9410  -10.3740   20.4900 C   0  0  0  0  0  2  0  0  0  0  0  0
  -29.4070  -10.3180   20.6100 C   0  0  0  0  0  2  0  0  0  0  0  0
  -28.7460  -11.7020   20.3860 C   0  0  0  0  0  3  0  0  0  0  0  0
  -29.4430  -12.7920   21.2270 C   0  0  0  0  0  2  0  0  0  0  0  0
  -30.8860  -12.7800   20.9170 N   0  0  0  0  0  0  0  0  0  0  0  0
  -32.7010  -13.4710   19.7140 O   0  0  0  0  0  0  0  0  0  0  0  0
  -30.8190  -14.6090   19.5300 N   0  0  0  0  0  0  0  0  0  0  0  0
  -31.1470  -14.8120   18.5970 H   0  0  0  0  0  0  0  0  0  0  0  0
  -26.3690  -12.6760   20.5850 C   0  0  0  0  0  0  0  0  0  0  0  0
  -25.1600  -12.0940   20.8600 C   0  0  0  0  0  0  0  0  0  0  0  0
  -25.4320  -10.7060   21.0710 C   0  0  0  0  0  0  0  0  0  0  0  0
  -27.3090  -11.6590   20.6510 N   0  0  0  0  0  0  0  0  0  0  0  0
  -26.7370  -10.4770   20.9990 N   0  0  0  0  0  0  0  0  0  0  0  0
  -24.5220   -9.5750   21.2810 C   0  0  0  0  0  0  0  0  0  0  0  0
  -24.5070   -8.8550   22.4960 C   0  0  0  0  0  3  0  0  0  0  0  0
  -23.6120   -7.7800   22.6820 C   0  0  0  0  0  3  0  0  0  0  0  0
  -22.7160   -7.4180   21.6470 C   0  0  0  0  0  0  0  0  0  0  0  0
  -22.7500   -8.1210   20.4310 C   0  0  0  0  0  3  0  0  0  0  0  0
  -23.6460   -9.1880   20.2470 C   0  0  0  0  0  3  0  0  0  0  0  0
  -21.8330   -6.3690   21.7280 O   0  0  0  0  0  0  0  0  0  0  0  0
  -21.1190   -6.1160   22.8720 C   0  0  0  0  0  0  0  0  0  0  0  0
  -20.2440   -7.0710   23.4330 C   0  0  0  0  0  3  0  0  0  0  0  0
  -19.4780   -6.7430   24.5680 C   0  0  0  0  0  3  0  0  0  0  0  0
  -19.5780   -5.4600   25.1390 C   0  0  0  0  0  0  0  0  0  0  0  0
  -20.4440   -4.5060   24.5790 C   0  0  0  0  0  3  0  0  0  0  0  0
  -21.2100   -4.8330   23.4450 C   0  0  0  0  0  0  0  0  0  0  0  0
  -22.0280   -3.9030   22.8970 F   0  0  0  0  0  0  0  0  0  0  0  0
  -18.8370   -5.1390   26.2270 F   0  0  0  0  0  0  0  0  0  0  0  0
  -23.8160  -12.7640   20.8390 C   0  0  0  0  0  0  0  0  0  0  0  0
  -22.8940  -12.3170   21.6840 N   0  0  0  0  0  0  0  0  0  0  0  0
  -23.5940  -13.7270   20.1070 O   0  0  0  0  0  0  0  0  0  0  0  0
  -23.0900  -11.5500   22.3090 H   0  0  0  0  0  0  0  0  0  0  0  0
  -21.9850  -12.7560   21.7190 H   0  0  0  0  0  0  0  0  0  0  0  0
  -26.7430  -13.9740   20.2590 N   0  0  0  0  0  0  0  0  0  0  0  0
  -26.0560  -14.6870   20.0470 H   0  0  0  0  0  0  0  0  0  0  0  0
  -27.6900  -14.2430   20.0220 H   0  0  0  0  0  0  0  0  0  0  0  0
  -27.0670  -21.8780   23.2770 C   0  0  0  0  0  2  0  0  0  0  0  0
  -27.2680  -22.1780   21.7880 C   0  0  0  0  0  2  0  0  0  0  0  0
  -26.8700  -23.5670   21.4660 N   0  0  0  0  0  4  0  0  0  0  0  0
  -27.4360  -24.2050   22.0040 H   0  0  0  0  0  0  0  0  0  0  0  0
  -25.9100  -23.6880   21.7550 H   0  0  0  0  0  0  0  0  0  0  0  0
  -26.9790  -23.9100   20.0320 C   0  0  0  0  0  2  0  0  0  0  0  0
  -27.0550  -25.4270   19.7990 C   0  0  0  0  0  2  0  0  0  0  0  0
  -26.9020  -25.6860   18.4110 O   0  0  0  0  0  0  0  0  0  0  0  0
  -27.1010  -27.1590   18.1730 O   0  0  0  0  0  0  0  0  0  0  0  0
  -24.4040  -31.5230   23.0780 C   0  0  0  0  0  0  0  0  0  0  0  0
  -26.0010  -27.8600   18.5990 C   0  0  0  0  0  0  0  0  0  0  0  0
  -22.7690  -30.5360   21.5020 C   0  0  0  0  0  3  0  0  0  0  0  0
  -23.7640  -29.3260   19.4900 C   0  0  0  0  0  0  0  0  0  0  0  0
  -25.2000  -30.8980   20.8030 C   0  0  0  0  0  2  0  0  0  0  0  0
  -25.0520  -29.6980   19.8950 C   0  0  0  0  0  0  0  0  0  0  0  0
  -26.1740  -28.9650   19.4570 C   0  0  0  0  0  3  0  0  0  0  0  0
  -24.7010  -27.4980   18.1880 C   0  0  0  0  0  3  0  0  0  0  0  0
  -23.5800  -28.2210   18.6380 C   0  0  0  0  0  3  0  0  0  0  0  0
  -22.6180  -30.1700   20.0010 C   0  0  0  0  0  2  0  0  0  0  0  0
  -24.1560  -30.9870   21.8500 N   0  0  0  0  0  0  0  0  0  0  0  0
  -23.4920  -31.6850   23.9010 O   0  0  0  0  0  0  0  0  0  0  0  0
  -22.2860  -29.3380   22.3510 C   0  0  0  0  0  0  0  0  0  0  0  0
  -20.9770  -29.0500   22.2850 N   0  0  0  0  0  0  0  0  0  0  0  0
  -23.0810  -28.6780   23.0260 O   0  0  0  0  0  0  0  0  0  0  0  0
  -20.3910  -29.6420   21.7120 H   0  0  0  0  0  0  0  0  0  0  0  0
  -17.8320  -27.3010   22.5820 C   0  0  0  0  0  0  0  0  0  0  0  0
  -20.3040  -27.9450   22.9660 C   0  0  0  0  0  3  0  0  0  0  0  0
  -20.6540  -26.5900   22.3080 C   0  0  0  0  0  2  0  0  0  0  0  0
  -19.6470  -26.1630   21.2370 C   0  0  0  0  0  2  0  0  0  0  0  0
  -18.2430  -26.0430   21.8360 C   0  0  0  0  0  2  0  0  0  0  0  0
  -18.8000  -28.2020   23.1000 C   0  0  0  0  0  0  0  0  0  0  0  0
  -18.3630  -29.3730   23.7560 C   0  0  0  0  0  3  0  0  0  0  0  0
  -16.9900  -29.6480   23.9020 C   0  0  0  0  0  3  0  0  0  0  0  0
  -16.0370  -28.7440   23.4000 C   0  0  0  0  0  3  0  0  0  0  0  0
  -16.4570  -27.5730   22.7460 C   0  0  0  0  0  3  0  0  0  0  0  0
  -25.8370  -31.9790   23.4980 C   0  0  0  0  0  3  0  0  0  0  0  0
  -25.7200  -33.3220   24.0790 N   0  0  0  0  0  0  0  0  0  0  0  0
  -26.0330  -34.4570   23.4380 C   0  0  0  0  0  0  0  0  0  0  0  0
  -26.5240  -34.4730   22.3070 O   0  0  0  0  0  0  0  0  0  0  0  0
  -25.2740  -33.3860   24.9820 H   0  0  0  0  0  0  0  0  0  0  0  0
  -24.4600  -36.4100   23.6250 C   0  0  0  0  0  1  0  0  0  0  0  0
  -25.7530  -35.7840   24.1690 C   0  0  0  0  0  3  0  0  0  0  0  0
  -28.0590  -36.3530   24.7930 C   0  0  0  0  0  1  0  0  0  0  0  0
  -26.8600  -36.7590   24.0630 N   0  0  0  0  0  0  0  0  0  0  0  0
  -26.5730  -37.6690   24.4080 H   0  0  0  0  0  0  0  0  0  0  0  0
  -26.5340  -30.9900   24.5110 C   0  0  1  0  0  0  0  0  0  0  0  0
  -25.6670  -30.6560   25.7470 C   0  0  0  0  0  1  0  0  0  0  0  0
  -26.8950  -29.6580   23.8120 C   0  0  0  0  0  1  0  0  0  0  0  0
  -27.8620  -31.6020   25.0140 C   0  0  0  0  0  1  0  0  0  0  0  0
  1  2  1  0
  3  2  1  0
  4  5  1  0
  4  3  1  0
  6  5  1  0
  7  6  1  0
  8  7  1  0
  9 10  1  0
  9  8  1  0
 10 11  1  0
 11 12  1  0
 13 19  1  0
 15 16  1  0
 15 14  1  0
 17 16  1  0
 17 26  1  0
 17 18  1  0
 19 18  1  0
 19 14  1  0
 20 13  2  0
 21 13  1  0
 21 12  1  0
 22 21  1  0
 23 26  1  0
 23 24  2  0
 24 25  1  0
 25 28  1  0
 26 27  1  0
 27 25  2  0
 28 29  1  0
 29 30  2  0
 31 34  1  0
 31 30  1  0
 32 31  2  0
 33 32  1  0
 33 28  2  0
 34 35  1  0
 35 36  2  0
 35 40  1  0
 36 37  1  0
 37 38  2  0
 38 42  1  0
 39 38  1  0
 40 39  2  0
 41 40  1  0
 43 24  1  0
 43 44  1  0
 44 47  1  0
 44 46  1  0
 45 43  2  0
 48 23  1  0
 49 48  1  0
 50 48  1  0
 51  1  1  0
 52 51  1  0
 53 55  1  0
 53 52  1  0
 53 54  1  0
 56 53  1  0
 57 56  1  0
 58 57  1  0
 59 58  1  0
 59 61  1  0
 60 71  2  0
 61 66  1  0
 62 70  1  0
 62 72  1  0
 63 65  1  0
 63 69  1  0
 64 70  1  0
 65 64  1  0
 66 65  2  0
 67 61  2  0
 67 68  1  0
 68 63  2  0
 69 62  1  0
 70 60  1  0
 72 74  2  0
 73 72  1  0
 75 73  1  0
 76 85  2  0
 76 81  1  0
 77 73  1  0
 77 81  1  0
 78 77  1  0
 79 80  1  0
 79 78  1  0
 80 76  1  0
 81 82  2  0
 82 83  1  0
 84 83  2  0
 85 84  1  0
 86 60  1  0
 86 87  1  0
 86 96  1  0
 87 90  1  0
 88 87  1  0
 88 92  1  0
 89 88  2  0
 92 91  1  0
 94 92  1  0
 94 95  1  0
 94 93  1  0
 96 99  1  1
 96 97  1  0
 98 96  1  0
M  ISO  4  13 100  21 100  58 101  59 101
M  END
>  <TORSDO>  (47) 
F 33

>  <SCORE>  (47) 
29.790

>  <name>  (47) 
59

>  <ligand_id>  (47) 
59

>  <original_smiles>  (47) 
[H]c1c([H])c([H])c2c(c1[H])C([H])([H])C([H])([H])C([H])([H])C2([H])N([H])C(=O)C1([H])N(C(=O)C([H])(N([H])C(=O)C([H])(N([H])C([H])([H])[H])C([H])([H])[H])C(C([H])([H])[H])(C([H])([H])[H])C([H])([H])[H])C([H])([H])c2c([H])c(OOC([H])([H])C([H])([H])[N+]([H])([H])C([H])([H])C([H])([H])OC([H])([H])C([H])([H])OC([H])([H])C([H])([H])OC([H])([H])C([H])([H])OC([H])([H])C([H])([H])N([H])C(=O)N3C([H])([H])C([H])([H])C([H])([H])C([H])(n4nc(-c5c([H])c([H])c(Oc6c([H])c([H])c(F)c([H])c6F)c([H])c5[H])c(C(=O)N([H])[H])c4N([H])[H])C3([H])[H])c([H])c([H])c2C1([H])[H]

>  <smiles>  (47) 
[H]c1c([H])c([H])c2c(c1[H])C([H])([H])C([H])([H])C([H])([H])C2([H])N([H])C(=O)C1([H])N(C(=O)C([H])(N([H])C(=O)C([H])(N([H])C([H])([H])[H])C([H])([H])[H])C(C([H])([H])[H])(C([H])([H])[H])C([H])([H])[H])C([H])([H])c2c([H])c(OOC([H])([H])C([H])([H])[N+]([H])([H])C([H])([H])C([H])([H])OC([H])([H])C([H])([H])OC([H])([H])C([H])([H])OC([H])([H])C([H])([H])OC([H])([H])C([H])([H])N([H])C(=O)N3C([H])([H])C([H])([H])C([H])([H])C([H])(n4nc(-c5c([H])c([H])c(Oc6c([H])c([H])c(F)c([H])c6F)c([H])c5[H])c(C(=O)N([H])[H])c4N([H])[H])C3([H])[H])c([H])c([H])c2C1([H])[H]

$$$$
60:0:0
     RDKit          3D

103110  0  0  1  0  0  0  0  0999 V2000
  -31.0640  -17.6530   22.9060 C   0  0  0  0  0  2  0  0  0  0  0  0
  -32.1810  -17.2190   21.9830 O   0  0  0  0  0  0  0  0  0  0  0  0
  -33.3330  -17.9530   21.3640 C   0  0  0  0  0  2  0  0  0  0  0  0
  -33.6960  -17.9310   19.7440 C   0  0  0  0  0  2  0  0  0  0  0  0
  -32.7940  -17.8000   18.5460 O   0  0  0  0  0  0  0  0  0  0  0  0
  -32.0840  -18.8220   17.6830 C   0  0  0  0  0  2  0  0  0  0  0  0
  -30.5180  -19.4830   17.8620 C   0  0  0  0  0  2  0  0  0  0  0  0
  -29.7580  -20.4400   18.9470 O   0  0  0  0  0  0  0  0  0  0  0  0
  -29.5730  -21.8270   19.7780 C   0  0  0  0  0  3  0  0  0  0  0  0
  -29.2120  -23.4360   19.3850 C   0  0  0  0  0  3  0  0  0  0  0  0
  -28.7000  -24.4940   20.3200 O   0  0  0  0  0  0  0  0  0  0  0  0
  -28.8650  -26.0250   19.7820 O   0  0  0  0  0  0  0  0  0  0  0  0
  -24.7730  -31.2330   22.9030 C   0  0  0  0  0  0  0  0  0  0  0  0
  -27.7020  -26.8340   19.8210 C   0  0  0  0  0  0  0  0  0  0  0  0
  -23.6960  -29.8200   21.1890 C   0  0  0  0  0  3  0  0  0  0  0  0
  -25.2690  -28.3730   19.7710 C   0  0  0  0  0  0  0  0  0  0  0  0
  -26.2240  -30.2560   21.0980 C   0  0  0  0  0  2  0  0  0  0  0  0
  -26.3960  -28.8900   20.4240 C   0  0  0  0  0  0  0  0  0  0  0  0
  -27.6130  -28.1310   20.4410 C   0  0  0  0  0  3  0  0  0  0  0  0
  -26.5550  -26.3850   19.1420 C   0  0  0  0  0  3  0  0  0  0  0  0
  -25.3540  -27.1300   19.1210 C   0  0  0  0  0  3  0  0  0  0  0  0
  -23.9900  -29.1920   19.7990 C   0  0  0  0  0  2  0  0  0  0  0  0
  -24.9150  -30.4570   21.7860 N   0  0  0  0  0  0  0  0  0  0  0  0
  -23.6610  -31.4370   23.4110 O   0  0  0  0  0  0  0  0  0  0  0  0
  -23.0590  -28.7450   22.1040 C   0  0  0  0  0  0  0  0  0  0  0  0
  -21.7360  -28.5440   21.9750 N   0  0  0  0  0  0  0  0  0  0  0  0
  -23.7550  -28.0960   22.8890 O   0  0  0  0  0  0  0  0  0  0  0  0
  -21.2300  -29.1230   21.3190 H   0  0  0  0  0  0  0  0  0  0  0  0
  -18.3850  -27.2650   22.4610 C   0  0  0  0  0  0  0  0  0  0  0  0
  -20.9440  -27.5490   22.7010 C   0  0  0  0  0  3  0  0  0  0  0  0
  -21.0570  -26.1560   22.0370 C   0  0  0  0  0  2  0  0  0  0  0  0
  -19.9410  -25.8790   21.0240 C   0  0  0  0  0  2  0  0  0  0  0  0
  -18.5690  -25.9630   21.7010 C   0  0  0  0  0  2  0  0  0  0  0  0
  -19.4990  -28.0170   22.9170 C   0  0  0  0  0  0  0  0  0  0  0  0
  -19.2730  -29.2380   23.5900 C   0  0  0  0  0  3  0  0  0  0  0  0
  -17.9640  -29.7060   23.8100 C   0  0  0  0  0  3  0  0  0  0  0  0
  -16.8640  -28.9490   23.3690 C   0  0  0  0  0  3  0  0  0  0  0  0
  -17.0760  -27.7310   22.7000 C   0  0  0  0  0  3  0  0  0  0  0  0
  -25.9990  -31.9190   23.5810 C   0  0  0  0  0  3  0  0  0  0  0  0
  -26.5400  -31.1230   24.8320 C   0  0  1  0  0  0  0  0  0  0  0  0
  -25.4480  -30.7750   25.8710 C   0  0  0  0  0  1  0  0  0  0  0  0
  -27.2090  -29.8000   24.3940 C   0  0  0  0  0  1  0  0  0  0  0  0
  -27.6320  -31.9530   25.5490 C   0  0  0  0  0  1  0  0  0  0  0  0
  -25.5910  -33.2760   23.9740 N   0  0  0  0  0  0  0  0  0  0  0  0
  -25.8690  -34.3880   23.2800 C   0  0  0  0  0  0  0  0  0  0  0  0
  -26.5640  -34.3820   22.2610 O   0  0  0  0  0  0  0  0  0  0  0  0
  -24.9720  -33.3490   24.7680 H   0  0  0  0  0  0  0  0  0  0  0  0
  -24.0310  -36.0810   22.9880 C   0  0  0  0  0  1  0  0  0  0  0  0
  -25.2850  -35.7170   23.7990 C   0  0  0  0  0  3  0  0  0  0  0  0
  -27.3470  -36.6950   24.7060 C   0  0  0  0  0  1  0  0  0  0  0  0
  -26.2470  -36.8400   23.7550 N   0  0  0  0  0  0  0  0  0  0  0  0
  -25.7800  -37.7220   23.9440 H   0  0  0  0  0  0  0  0  0  0  0  0
  -29.5900  -18.3400   22.5730 C   0  0  0  0  0  2  0  0  0  0  0  0
  -28.7040  -18.0100   21.4160 O   0  0  0  0  0  0  0  0  0  0  0  0
  -27.8040  -19.0250   20.7760 C   0  0  0  0  0  2  0  0  0  0  0  0
  -27.4090  -18.9010   19.1940 C   0  0  0  0  0  2  0  0  0  0  0  0
  -27.2570  -20.0960   18.3010 O   0  0  0  0  0  0  0  0  0  0  0  0
  -27.7280  -20.0860   16.8720 C   0  0  0  0  0  2  0  0  0  0  0  0
  -28.7840  -21.1520   16.1300 C   0  0  0  0  0  2  0  0  0  0  0  0
  -30.0390  -21.9210   16.5800 O   0  0  0  0  0  0  0  0  0  0  0  0
  -31.4690  -21.6570   17.0600 C   0  0  0  0  0  2  0  0  0  0  0  0
  -32.0400  -21.2810   18.6170 C   0  0  0  0  0  2  0  0  0  0  0  0
  -31.9690  -20.0110   19.5210 O   0  0  0  0  0  0  0  0  0  0  0  0
  -30.9260  -19.0390   20.1720 C   0  0  0  0  0  2  0  0  0  0  0  0
  -30.2930  -17.4260   19.7290 C   0  0  0  0  0  2  0  0  0  0  0  0
  -31.1290  -14.7920   19.8670 C   0  0  0  0  0  0  0  0  0  0  0  0
  -30.8260  -12.4770   18.9360 C   0  0  0  0  0  2  0  0  0  0  0  0
  -29.8450  -12.5720   17.7440 C   0  0  0  0  0  2  0  0  0  0  0  0
  -28.3880  -12.4560   18.2340 C   0  0  0  0  0  2  0  0  0  0  0  0
  -28.1010  -13.3710   19.4550 C   0  0  0  0  0  3  0  0  0  0  0  0
  -29.2030  -13.2550   20.5360 C   0  0  0  0  0  2  0  0  0  0  0  0
  -30.4860  -13.5650   19.8930 N   0  0  0  0  0  0  0  0  0  0  0  0
  -32.2530  -14.8400   19.3640 O   0  0  0  0  0  0  0  0  0  0  0  0
  -30.4210  -15.9420   20.2480 N   0  0  0  0  0  0  0  0  0  0  0  0
  -29.6240  -15.6870   20.8100 H   0  0  0  0  0  0  0  0  0  0  0  0
  -25.7990  -14.0750   20.3350 C   0  0  0  0  0  0  0  0  0  0  0  0
  -24.7080  -13.3580   20.7350 C   0  0  0  0  0  0  0  0  0  0  0  0
  -25.0770  -11.9800   20.6240 C   0  0  0  0  0  0  0  0  0  0  0  0
  -26.7690  -13.1430   20.0050 N   0  0  0  0  0  0  0  0  0  0  0  0
  -26.3450  -11.8730   20.2420 N   0  0  0  0  0  0  0  0  0  0  0  0
  -24.2800  -10.7600   20.8070 C   0  0  0  0  0  0  0  0  0  0  0  0
  -24.7060   -9.7170   21.6600 C   0  0  0  0  0  3  0  0  0  0  0  0
  -23.9110   -8.5640   21.8350 C   0  0  0  0  0  3  0  0  0  0  0  0
  -22.6730   -8.4460   21.1580 C   0  0  0  0  0  0  0  0  0  0  0  0
  -22.2640   -9.4760   20.2930 C   0  0  0  0  0  3  0  0  0  0  0  0
  -23.0590  -10.6210   20.1160 C   0  0  0  0  0  3  0  0  0  0  0  0
  -21.8480   -7.3510   21.2460 O   0  0  0  0  0  0  0  0  0  0  0  0
  -21.8320   -6.5500   22.3610 C   0  0  0  0  0  0  0  0  0  0  0  0
  -21.5770   -7.0700   23.6480 C   0  0  0  0  0  3  0  0  0  0  0  0
  -21.5000   -6.2010   24.7560 C   0  0  0  0  0  3  0  0  0  0  0  0
  -21.6680   -4.8150   24.5770 C   0  0  0  0  0  0  0  0  0  0  0  0
  -21.9170   -4.2950   23.2940 C   0  0  0  0  0  3  0  0  0  0  0  0
  -21.9950   -5.1610   22.1900 C   0  0  0  0  0  0  0  0  0  0  0  0
  -22.2130   -4.6520   20.9530 F   0  0  0  0  0  0  0  0  0  0  0  0
  -21.5870   -3.9790   25.6390 F   0  0  0  0  0  0  0  0  0  0  0  0
  -23.3600  -13.9100   21.1030 C   0  0  0  0  0  0  0  0  0  0  0  0
  -22.6470  -13.2390   21.9990 N   0  0  0  0  0  0  0  0  0  0  0  0
  -22.9550  -14.9700   20.6280 O   0  0  0  0  0  0  0  0  0  0  0  0
  -22.9860  -12.3780   22.4010 H   0  0  0  0  0  0  0  0  0  0  0  0
  -21.7440  -13.5890   22.2890 H   0  0  0  0  0  0  0  0  0  0  0  0
  -26.0420  -15.4410   20.2020 N   0  0  0  0  0  0  0  0  0  0  0  0
  -25.3210  -16.1300   20.3890 H   0  0  0  0  0  0  0  0  0  0  0  0
  -26.8950  -15.8430   19.8400 H   0  0  0  0  0  0  0  0  0  0  0  0
  2  1  1  0
  3  2  1  0
  4  3  1  0
  5  4  1  0
  6  7  1  0
  6  5  1  0
  7  8  1  0
  8  9  1  0
 10  9  2  0
 10 11  1  0
 12 14  1  0
 12 11  1  0
 13 24  2  0
 14 19  1  0
 15 23  1  0
 15 25  1  0
 16 22  1  0
 16 18  1  0
 17 23  1  0
 18 19  2  0
 18 17  1  0
 20 14  2  0
 21 20  1  0
 21 16  2  0
 22 15  1  0
 23 13  1  0
 25 27  2  0
 26 25  1  0
 28 26  1  0
 29 38  2  0
 29 34  1  0
 30 26  1  0
 30 34  1  0
 31 30  1  0
 32 33  1  0
 32 31  1  0
 33 29  1  0
 34 35  2  0
 35 36  1  0
 37 36  2  0
 38 37  1  0
 39 13  1  0
 39 44  1  0
 39 40  1  0
 40 43  1  1
 40 41  1  0
 42 40  1  0
 44 47  1  0
 45 49  1  0
 45 44  1  0
 46 45  2  0
 49 48  1  0
 51 49  1  0
 51 52  1  0
 51 50  1  0
 53  1  1  0
 54 53  1  0
 55 54  1  0
 56 55  1  0
 57 56  1  0
 58 57  1  0
 59 60  1  0
 59 58  1  0
 60 61  1  0
 61 62  1  0
 62 63  1  0
 63 64  1  0
 65 64  1  0
 65 74  1  0
 66 72  1  0
 66 74  1  0
 67 72  1  0
 68 69  1  0
 68 67  1  0
 70 69  1  0
 70 79  1  0
 70 71  1  0
 72 71  1  0
 73 66  2  0
 74 75  1  0
 76 77  2  0
 77 96  1  0
 78 77  1  0
 78 81  1  0
 79 80  1  0
 79 76  1  0
 80 78  2  0
 81 82  1  0
 82 83  2  0
 84 87  1  0
 84 83  1  0
 85 84  2  0
 86 85  1  0
 86 81  2  0
 87 88  1  0
 88 89  1  0
 89 90  2  0
 91 90  1  0
 91 95  1  0
 92 91  2  0
 93 88  2  0
 93 92  1  0
 94 93  1  0
 96 97  1  0
 97100  1  0
 97 99  1  0
 98 96  2  0
101 76  1  0
101102  1  0
103101  1  0
M  ISO  4  11 101  12 101  66 100  74 100
M  END
>  <TORSDO>  (48) 
F 39

>  <SCORE>  (48) 
-6.086

>  <name>  (48) 
60

>  <ligand_id>  (48) 
60

>  <original_smiles>  (48) 
[H]c1c([H])c([H])c2c(c1[H])C([H])([H])C([H])([H])C([H])([H])C2([H])N([H])C(=O)C1([H])N(C(=O)C([H])(N([H])C(=O)C([H])(N([H])C([H])([H])[H])C([H])([H])[H])C(C([H])([H])[H])(C([H])([H])[H])C([H])([H])[H])C([H])([H])c2c([H])c(OOC([H])([H])C([H])([H])OC([H])([H])C([H])([H])OC([H])([H])C([H])([H])OC([H])([H])C([H])([H])OC([H])([H])C([H])([H])OC([H])([H])C([H])([H])OC([H])([H])C([H])([H])OC([H])([H])C([H])([H])N([H])C(=O)N3C([H])([H])C([H])([H])C([H])([H])C([H])(n4nc(-c5c([H])c([H])c(Oc6c([H])c([H])c(F)c([H])c6F)c([H])c5[H])c(C(=O)N([H])[H])c4N([H])[H])C3([H])[H])c([H])c([H])c2C1([H])[H]

>  <smiles>  (48) 
[H]c1c([H])c([H])c2c(c1[H])C([H])([H])C([H])([H])C([H])([H])C2([H])N([H])C(=O)C1([H])N(C(=O)C([H])(N([H])C(=O)C([H])(N([H])C([H])([H])[H])C([H])([H])[H])C(C([H])([H])[H])(C([H])([H])[H])C([H])([H])[H])C([H])([H])c2c([H])c(OOC([H])([H])C([H])([H])OC([H])([H])C([H])([H])OC([H])([H])C([H])([H])OC([H])([H])C([H])([H])OC([H])([H])C([H])([H])OC([H])([H])C([H])([H])OC([H])([H])C([H])([H])OC([H])([H])C([H])([H])N([H])C(=O)N3C([H])([H])C([H])([H])C([H])([H])C([H])(n4nc(-c5c([H])c([H])c(Oc6c([H])c([H])c(F)c([H])c6F)c([H])c5[H])c(C(=O)N([H])[H])c4N([H])[H])C3([H])[H])c([H])c([H])c2C1([H])[H]

$$$$
61:0:0
     RDKit          3D

103110  0  0  1  0  0  0  0  0999 V2000
  -29.6530  -27.6450   24.8380 C   0  0  0  0  0  0  0  0  0  0  0  0
  -28.5680  -26.8810   24.6770 N   0  0  0  0  0  0  0  0  0  0  0  0
  -30.3870  -27.5620   25.8250 O   0  0  0  0  0  0  0  0  0  0  0  0
  -28.0150  -27.0230   23.8430 H   0  0  0  0  0  0  0  0  0  0  0  0
  -28.0460  -25.9200   25.6420 C   0  0  0  0  0  2  0  0  0  0  0  0
  -28.7920  -24.5710   25.6510 C   0  0  0  0  0  2  0  0  0  0  0  0
  -28.3970  -23.5550   24.5540 C   0  0  0  0  0  2  0  0  0  0  0  0
  -29.3290  -23.5020   23.3260 C   0  0  0  0  0  2  0  0  0  0  0  0
  -28.6820  -24.0640   22.0570 C   0  0  0  0  0  2  0  0  0  0  0  0
  -29.4670  -23.7340   20.7760 C   0  0  0  0  0  2  0  0  0  0  0  0
  -28.7610  -24.2380   19.5040 C   0  0  0  0  0  2  0  0  0  0  0  0
  -28.9040  -25.7560   19.3420 C   0  0  0  0  0  2  0  0  0  0  0  0
  -28.2740  -26.3520   18.0850 C   0  0  0  0  0  2  0  0  0  0  0  0
  -28.0250  -27.7370   18.3370 O   0  0  0  0  0  0  0  0  0  0  0  0
  -24.2290  -31.6030   22.9590 C   0  0  0  0  0  0  0  0  0  0  0  0
  -26.7700  -28.1560   18.7270 C   0  0  0  0  0  0  0  0  0  0  0  0
  -22.9090  -30.2930   21.3270 C   0  0  0  0  0  3  0  0  0  0  0  0
  -24.2430  -29.2160   19.4430 C   0  0  0  0  0  0  0  0  0  0  0  0
  -25.2890  -31.0580   20.7760 C   0  0  0  0  0  2  0  0  0  0  0  0
  -25.4160  -29.8330   19.8980 C   0  0  0  0  0  0  0  0  0  0  0  0
  -26.6740  -29.3130   19.5310 C   0  0  0  0  0  3  0  0  0  0  0  0
  -25.5730  -27.5240   18.3100 C   0  0  0  0  0  3  0  0  0  0  0  0
  -24.3180  -28.0510   18.6640 C   0  0  0  0  0  3  0  0  0  0  0  0
  -22.9320  -29.8530   19.8380 C   0  0  0  0  0  2  0  0  0  0  0  0
  -24.1660  -30.9980   21.7390 N   0  0  0  0  0  0  0  0  0  0  0  0
  -23.2490  -31.6230   23.7180 O   0  0  0  0  0  0  0  0  0  0  0  0
  -22.5880  -29.0570   22.1970 C   0  0  0  0  0  0  0  0  0  0  0  0
  -21.3640  -28.5230   22.0480 N   0  0  0  0  0  0  0  0  0  0  0  0
  -23.4350  -28.5810   22.9570 O   0  0  0  0  0  0  0  0  0  0  0  0
  -20.7300  -28.9790   21.4050 H   0  0  0  0  0  0  0  0  0  0  0  0
  -18.5790  -26.2270   22.2030 C   0  0  0  0  0  0  0  0  0  0  0  0
  -20.8550  -27.3360   22.7300 C   0  0  0  0  0  3  0  0  0  0  0  0
  -21.4980  -26.0510   22.1630 C   0  0  0  0  0  2  0  0  0  0  0  0
  -20.6750  -25.4070   21.0430 C   0  0  0  0  0  2  0  0  0  0  0  0
  -19.2730  -25.0460   21.5450 C   0  0  0  0  0  2  0  0  0  0  0  0
  -19.3220  -27.3090   22.7460 C   0  0  0  0  0  0  0  0  0  0  0  0
  -18.6300  -28.3970   23.3190 C   0  0  0  0  0  3  0  0  0  0  0  0
  -17.2240  -28.4170   23.3560 C   0  0  0  0  0  3  0  0  0  0  0  0
  -16.4920  -27.3390   22.8300 C   0  0  0  0  0  3  0  0  0  0  0  0
  -17.1700  -26.2450   22.2600 C   0  0  0  0  0  3  0  0  0  0  0  0
  -25.5270  -32.3190   23.4490 C   0  0  0  0  0  3  0  0  0  0  0  0
  -26.1870  -31.6280   24.7060 C   0  0  1  0  0  0  0  0  0  0  0  0
  -25.1990  -31.4000   25.8740 C   0  0  0  0  0  1  0  0  0  0  0  0
  -26.7980  -30.2600   24.3240 C   0  0  0  0  0  1  0  0  0  0  0  0
  -27.3560  -32.5010   25.2280 C   0  0  0  0  0  1  0  0  0  0  0  0
  -25.1750  -33.7130   23.7510 N   0  0  0  0  0  0  0  0  0  0  0  0
  -25.4910  -34.7570   22.9740 C   0  0  0  0  0  0  0  0  0  0  0  0
  -26.1780  -34.6500   21.9540 O   0  0  0  0  0  0  0  0  0  0  0  0
  -24.5650  -33.8690   24.5400 H   0  0  0  0  0  0  0  0  0  0  0  0
  -23.7180  -36.4830   22.5540 C   0  0  0  0  0  1  0  0  0  0  0  0
  -24.9550  -36.1360   23.3950 C   0  0  0  0  0  3  0  0  0  0  0  0
  -27.0660  -37.0780   24.2220 C   0  0  0  0  0  1  0  0  0  0  0  0
  -25.9570  -37.2170   23.2810 N   0  0  0  0  0  0  0  0  0  0  0  0
  -25.5260  -38.1240   23.4280 H   0  0  0  0  0  0  0  0  0  0  0  0
  -29.9660  -28.6570   23.7350 C   0  0  0  0  0  2  0  0  0  0  0  0
  -31.2060  -28.2300   22.9360 C   0  0  0  0  0  2  0  0  0  0  0  0
  -31.8070  -29.3480   22.0760 C   0  0  0  0  0  2  0  0  0  0  0  0
  -32.6700  -28.7160   21.1460 O   0  0  0  0  0  0  0  0  0  0  0  0
  -33.0900  -29.5620   20.0840 C   0  0  0  0  0  2  0  0  0  0  0  0
  -34.0620  -28.7670   19.2030 C   0  0  0  0  0  2  0  0  0  0  0  0
  -33.3620  -27.7250   18.5260 O   0  0  0  0  0  0  0  0  0  0  0  0
  -34.2390  -26.9240   17.7440 C   0  0  0  0  0  2  0  0  0  0  0  0
  -33.6620  -25.5250   17.4930 C   0  0  0  0  0  2  0  0  0  0  0  0
  -34.7520  -24.6440   17.2460 O   0  0  0  0  0  0  0  0  0  0  0  0
  -34.3610  -23.3220   16.9110 C   0  0  0  0  0  2  0  0  0  0  0  0
  -35.5640  -22.3860   17.1090 C   0  0  0  0  0  2  0  0  0  0  0  0
  -35.2050  -21.0180   16.9200 O   0  0  0  0  0  0  0  0  0  0  0  0
  -35.4770  -20.4010   15.7490 C   0  0  0  0  0  0  0  0  0  0  0  0
  -35.4880  -18.1540   14.6740 C   0  0  0  0  0  2  0  0  0  0  0  0
  -34.0850  -17.7830   14.1590 C   0  0  0  0  0  2  0  0  0  0  0  0
  -33.2560  -17.1120   15.2710 C   0  0  0  0  0  2  0  0  0  0  0  0
  -33.2700  -17.9200   16.5960 C   0  0  0  0  0  3  0  0  0  0  0  0
  -34.7110  -18.3150   16.9920 C   0  0  0  0  0  2  0  0  0  0  0  0
  -35.3190  -19.0130   15.8500 N   0  0  0  0  0  0  0  0  0  0  0  0
  -35.8170  -21.0020   14.7280 O   0  0  0  0  0  0  0  0  0  0  0  0
  -31.3650  -17.4220   18.2550 C   0  0  0  0  0  0  0  0  0  0  0  0
  -31.1820  -16.4070   19.1580 C   0  0  0  0  0  0  0  0  0  0  0  0
  -32.3430  -15.5820   19.0680 C   0  0  0  0  0  0  0  0  0  0  0  0
  -32.6010  -17.1880   17.6700 N   0  0  0  0  0  0  0  0  0  0  0  0
  -33.2100  -16.0990   18.2060 N   0  0  0  0  0  0  0  0  0  0  0  0
  -32.6590  -14.2980   19.7090 C   0  0  0  0  0  0  0  0  0  0  0  0
  -33.9430  -14.0310   20.2330 C   0  0  0  0  0  3  0  0  0  0  0  0
  -34.2170  -12.7980   20.8610 C   0  0  0  0  0  3  0  0  0  0  0  0
  -33.2030  -11.8210   20.9760 C   0  0  0  0  0  0  0  0  0  0  0  0
  -31.9340  -12.0810   20.4330 C   0  0  0  0  0  3  0  0  0  0  0  0
  -31.6630  -13.3070   19.8030 C   0  0  0  0  0  3  0  0  0  0  0  0
  -33.3830  -10.5850   21.5490 O   0  0  0  0  0  0  0  0  0  0  0  0
  -34.4270  -10.3350   22.4020 C   0  0  0  0  0  0  0  0  0  0  0  0
  -34.8400  -11.2760   23.3700 C   0  0  0  0  0  3  0  0  0  0  0  0
  -35.8720  -10.9480   24.2730 C   0  0  0  0  0  3  0  0  0  0  0  0
  -36.4840   -9.6820   24.2150 C   0  0  0  0  0  0  0  0  0  0  0  0
  -36.0690   -8.7420   23.2550 C   0  0  0  0  0  3  0  0  0  0  0  0
  -35.0420   -9.0680   22.3520 C   0  0  0  0  0  0  0  0  0  0  0  0
  -34.6340   -8.1530   21.4410 F   0  0  0  0  0  0  0  0  0  0  0  0
  -37.4690   -9.3630   25.0880 F   0  0  0  0  0  0  0  0  0  0  0  0
  -29.9550  -16.1620   19.9890 C   0  0  0  0  0  0  0  0  0  0  0  0
  -30.1200  -15.5690   21.1660 N   0  0  0  0  0  0  0  0  0  0  0  0
  -28.8450  -16.5420   19.6190 O   0  0  0  0  0  0  0  0  0  0  0  0
  -31.0350  -15.2780   21.4790 H   0  0  0  0  0  0  0  0  0  0  0  0
  -29.3210  -15.4040   21.7620 H   0  0  0  0  0  0  0  0  0  0  0  0
  -30.5820  -18.5040   17.8740 N   0  0  0  0  0  0  0  0  0  0  0  0
  -29.6560  -18.6620   18.2580 H   0  0  0  0  0  0  0  0  0  0  0  0
  -30.8340  -19.1720   17.1540 H   0  0  0  0  0  0  0  0  0  0  0  0
  1  3  2  0
  2  1  1  0
  2  5  1  0
  4  2  1  0
  5  6  1  0
  7  6  1  0
  8  7  1  0
  9  8  1  0
 10  9  1  0
 11 10  1  0
 12 11  1  0
 13 14  1  0
 13 12  1  0
 14 16  1  0
 15 26  2  0
 16 21  1  0
 17 25  1  0
 17 27  1  0
 18 24  1  0
 18 20  1  0
 19 25  1  0
 20 19  1  0
 21 20  2  0
 22 23  1  0
 22 16  2  0
 23 18  2  0
 24 17  1  0
 25 15  1  0
 27 29  2  0
 28 27  1  0
 30 28  1  0
 31 40  2  0
 31 36  1  0
 32 28  1  0
 32 36  1  0
 33 32  1  0
 34 35  1  0
 34 33  1  0
 35 31  1  0
 36 37  2  0
 37 38  1  0
 39 38  2  0
 40 39  1  0
 41 15  1  0
 41 46  1  0
 41 42  1  0
 42 45  1  1
 42 43  1  0
 44 42  1  0
 46 49  1  0
 47 51  1  0
 47 46  1  0
 48 47  2  0
 51 50  1  0
 53 51  1  0
 53 54  1  0
 53 52  1  0
 55  1  1  0
 56 55  1  0
 57 56  1  0
 58 57  1  0
 59 58  1  0
 60 59  1  0
 61 60  1  0
 62 61  1  0
 63 62  1  0
 64 63  1  0
 65 66  1  0
 65 64  1  0
 67 66  1  0
 68 74  1  0
 68 67  1  0
 69 74  1  0
 70 69  1  0
 70 71  1  0
 72 71  1  0
 72 73  1  0
 72 79  1  0
 74 73  1  0
 75 68  2  0
 76 77  2  0
 77 96  1  0
 78 77  1  0
 78 81  1  0
 79 80  1  0
 79 76  1  0
 80 78  2  0
 81 86  2  0
 81 82  1  0
 82 83  2  0
 83 84  1  0
 84 87  1  0
 85 84  2  0
 86 85  1  0
 87 88  1  0
 88 89  1  0
 89 90  2  0
 91 90  1  0
 91 95  1  0
 92 91  2  0
 93 88  2  0
 93 92  1  0
 94 93  1  0
 96 97  1  0
 97 99  1  0
 97100  1  0
 98 96  2  0
101 76  1  0
101102  1  0
103101  1  0
M  ISO  4  13 101  14 101  67 100  68 100
M  END
>  <TORSDO>  (49) 
F 38

>  <SCORE>  (49) 
-0.876

>  <name>  (49) 
61

>  <ligand_id>  (49) 
61

>  <original_smiles>  (49) 
[H]c1c([H])c([H])c2c(c1[H])C([H])([H])C([H])([H])C([H])([H])C2([H])N([H])C(=O)C1([H])N(C(=O)C([H])(N([H])C(=O)C([H])(N([H])C([H])([H])[H])C([H])([H])[H])C(C([H])([H])[H])(C([H])([H])[H])C([H])([H])[H])C([H])([H])c2c([H])c(OC([H])([H])C([H])([H])C([H])([H])C([H])([H])C([H])([H])C([H])([H])C([H])([H])C([H])([H])C([H])([H])N([H])C(=O)C([H])([H])C([H])([H])C([H])([H])OC([H])([H])C([H])([H])OC([H])([H])C([H])([H])OC([H])([H])C([H])([H])OC(=O)N3C([H])([H])C([H])([H])C([H])([H])C([H])(n4nc(-c5c([H])c([H])c(Oc6c([H])c([H])c(F)c([H])c6F)c([H])c5[H])c(C(=O)N([H])[H])c4N([H])[H])C3([H])[H])c([H])c([H])c2C1([H])[H]

>  <smiles>  (49) 
[H]c1c([H])c([H])c2c(c1[H])C([H])([H])C([H])([H])C([H])([H])C2([H])N([H])C(=O)C1([H])N(C(=O)C([H])(N([H])C(=O)C([H])(N([H])C([H])([H])[H])C([H])([H])[H])C(C([H])([H])[H])(C([H])([H])[H])C([H])([H])[H])C([H])([H])c2c([H])c(OC([H])([H])C([H])([H])C([H])([H])C([H])([H])C([H])([H])C([H])([H])C([H])([H])C([H])([H])C([H])([H])N([H])C(=O)C([H])([H])C([H])([H])C([H])([H])OC([H])([H])C([H])([H])OC([H])([H])C([H])([H])OC([H])([H])C([H])([H])OC(=O)N3C([H])([H])C([H])([H])C([H])([H])C([H])(n4nc(-c5c([H])c([H])c(Oc6c([H])c([H])c(F)c([H])c6F)c([H])c5[H])c(C(=O)N([H])[H])c4N([H])[H])C3([H])[H])c([H])c([H])c2C1([H])[H]

$$$$
62:0:0
     RDKit          3D

108105  0  0  1  0  0  0  0  0999 V2000
  -20.2680  -20.7600   22.6280 C   0  0  0  0  0  2  0  0  0  0  0  0
  -21.4170  -21.5930   22.6930 O   0  0  0  0  0  0  0  0  0  0  0  0
  -21.1510  -22.9300   23.1290 C   0  0  0  0  0  2  0  0  0  0  0  0
  -21.5930  -23.9770   22.0980 C   0  0  0  0  0  2  0  0  0  0  0  0
  -20.5320  -24.3840   21.2170 O   0  0  0  0  0  0  0  0  0  0  0  0
  -20.9870  -24.5560   19.8890 C   0  0  0  0  0  2  0  0  0  0  0  0
  -19.9710  -25.2260   18.9210 C   0  0  0  0  0  2  0  0  0  0  0  0
  -19.4370  -24.3360   17.8450 N   0  0  0  0  0  4  0  0  0  0  0  0
  -18.5480  -24.0120   18.1880 H   0  0  0  0  0  0  0  0  0  0  0  0
  -20.0250  -23.5150   17.7730 H   0  0  0  0  0  0  0  0  0  0  0  0
  -19.1840  -24.9900   16.5170 C   0  0  0  0  0  2  0  0  0  0  0  0
  -19.5900  -24.1960   15.2200 C   0  0  0  0  0  2  0  0  0  0  0  0
  -19.3630  -24.9810   14.0210 O   0  0  0  0  0  0  0  0  0  0  0  0
  -19.8430  -24.2750   12.7190 O   0  0  0  0  0  0  0  0  0  0  0  0
  -14.9880  -25.2310    7.6860 C   0  0  0  0  0  0  0  0  0  0  0  0
  -18.7420  -23.7400   12.1080 C   0  0  0  0  0  0  0  0  0  0  0  0
  -14.3660  -23.8610    9.6390 C   0  0  0  0  0  3  0  0  0  0  0  0
  -16.2500  -22.9720   11.0830 C   0  0  0  0  0  0  0  0  0  0  0  0
  -16.7720  -23.8690    8.8020 C   0  0  0  0  0  2  0  0  0  0  0  0
  -17.1790  -23.5990   10.2400 C   0  0  0  0  0  0  0  0  0  0  0  0
  -18.4380  -23.9880   10.7510 C   0  0  0  0  0  3  0  0  0  0  0  0
  -17.8350  -23.0330   12.9180 C   0  0  0  0  0  3  0  0  0  0  0  0
  -16.5690  -22.6820   12.4190 C   0  0  0  0  0  3  0  0  0  0  0  0
  -14.8930  -22.6790   10.4970 C   0  0  0  0  0  2  0  0  0  0  0  0
  -15.3770  -24.3540    8.6600 N   0  0  0  0  0  0  0  0  0  0  0  0
  -13.7980  -25.5580    7.5520 O   0  0  0  0  0  0  0  0  0  0  0  0
  -13.9510  -24.9940   10.5910 C   0  0  0  0  0  0  0  0  0  0  0  0
  -12.7220  -24.9800   11.0420 N   0  0  0  0  0  0  0  0  0  0  0  0
  -14.7310  -25.8690   10.9600 O   0  0  0  0  0  0  0  0  0  0  0  0
  -12.0980  -24.2290   10.8040 H   0  0  0  0  0  0  0  0  0  0  0  0
   -9.2180  -25.7190   11.3710 C   0  0  0  0  0  0  0  0  0  0  0  0
  -12.1430  -26.0870   11.7760 C   0  0  0  0  0  2  0  0  0  0  0  0
  -12.1930  -26.2200   13.9080 C   0  0  0  0  0 15  0  0  0  0  0  0
  -10.0690  -25.7220   14.6970 C   0  0  0  0  0 15  0  0  0  0  0  0
   -8.8250  -25.3540   13.1180 C   0  0  0  0  0  1  0  0  0  0  0  0
  -10.6330  -26.0570   10.8110 C   0  0  0  0  0  0  0  0  0  0  0  0
  -10.6800  -26.7220    9.5230 C   0  0  0  0  0  3  0  0  0  0  0  0
   -9.5490  -27.1580    8.7830 C   0  0  0  0  0  3  0  0  0  0  0  0
   -8.2730  -26.9660    9.3290 C   0  0  0  0  0  3  0  0  0  0  0  0
   -8.1320  -26.2670   10.5670 C   0  0  0  0  0  3  0  0  0  0  0  0
  -16.0130  -25.8520    6.6970 C   0  0  0  0  0  3  0  0  0  0  0  0
  -16.7650  -27.1080    7.2880 C   0  0  1  0  0  0  0  0  0  0  0  0
  -15.8280  -28.1510    7.9440 C   0  0  0  0  0  1  0  0  0  0  0  0
  -17.8000  -26.6650    8.3480 C   0  0  0  0  0  1  0  0  0  0  0  0
  -17.5540  -27.8120    6.1630 C   0  0  0  0  0  1  0  0  0  0  0  0
  -15.2800  -26.2120    5.4770 N   0  0  0  0  0  0  0  0  0  0  0  0
  -15.1770  -25.4300    4.3940 C   0  0  0  0  0  0  0  0  0  0  0  0
  -15.7590  -24.3450    4.2970 O   0  0  0  0  0  0  0  0  0  0  0  0
  -14.7380  -27.0620    5.5150 H   0  0  0  0  0  0  0  0  0  0  0  0
  -12.9350  -25.2090    3.2770 C   0  0  0  0  0  1  0  0  0  0  0  0
  -14.2950  -25.9270    3.2350 C   0  0  0  0  0  3  0  0  0  0  0  0
  -16.0190  -26.6620    1.6480 C   0  0  0  0  0  1  0  0  0  0  0  0
  -14.9120  -25.7410    1.9030 N   0  0  0  0  0  0  0  0  0  0  0  0
  -14.2230  -25.8630    1.1630 H   0  0  0  0  0  0  0  0  0  0  0  0
  -19.5900  -20.9860   21.2660 C   0  0  0  0  0  2  0  0  0  0  0  0
  -19.4730  -22.3980   21.0410 O   0  0  0  0  0  0  0  0  0  0  0  0
  -18.1260  -22.8400   21.0180 C   0  0  0  0  0  2  0  0  0  0  0  0
  -17.7980  -24.1980   21.6510 C   0  0  0  0  0  2  0  0  0  0  0  0
  -18.1750  -25.2770   20.8040 O   0  0  0  0  0  0  0  0  0  0  0  0
  -17.5280  -26.5170   21.1390 C   0  0  0  0  0  2  0  0  0  0  0  0
  -16.6370  -27.0910   19.9980 C   0  0  0  0  0  2  0  0  0  0  0  0
  -15.9080  -26.0640   19.3000 O   0  0  0  0  0  0  0  0  0  0  0  0
  -15.3070  -26.4330   18.0330 C   0  0  0  0  0  2  0  0  0  0  0  0
  -16.1240  -25.9490   16.6940 C   0  0  0  0  0  1  0  0  0  0  0  0
  -17.7650  -27.0590   15.1130 O   0  0  0  0  0 15  0  0  0  0  0  0
  -19.7850  -27.3210   15.5000 C   0  0  0  0  0 15  0  0  0  0  0  0
  -21.6080  -27.6870   16.6890 C   0  0  0  0  0 15  0  0  0  0  0  0
  -23.3100  -27.3190   17.6430 O   0  0  0  0  0 15  0  0  0  0  0  0
  -25.1070  -27.8050   18.3280 C   0  0  0  0  0 15  0  0  0  0  0  0
  -26.7530  -27.5550   19.7700 C   0  0  0  0  0 15  0  0  0  0  0  0
  -29.9620  -27.8890   21.3810 C   0  0  0  0  0  0  0  0  0  0  0  0
  -32.7470  -27.7520   21.7230 C   0  0  0  0  0  2  0  0  0  0  0  0
  -33.6600  -27.6950   20.4470 C   0  0  0  0  0  2  0  0  0  0  0  0
  -33.5330  -26.3330   19.7420 C   0  0  0  0  0  2  0  0  0  0  0  0
  -32.0800  -25.8340   19.8400 C   0  0  0  0  0  3  0  0  0  0  0  0
  -31.5390  -25.8300   21.2580 C   0  0  0  0  0  2  0  0  0  0  0  0
  -31.3010  -27.2400   21.4260 N   0  0  0  0  0  0  0  0  0  0  0  0
  -30.1520  -28.7610   22.2960 O   0  0  0  0  0  0  0  0  0  0  0  0
  -28.6520  -27.6580   20.3280 N   0  0  0  0  0  2  0  0  0  0  0  0
  -29.1370  -27.2170   19.5680 H   0  0  0  0  0  0  0  0  0  0  0  0
  -30.6430  -24.2280   18.5940 C   0  0  0  0  0  0  0  0  0  0  0  0
  -30.8750  -22.9730   18.1320 C   0  0  0  0  0  0  0  0  0  0  0  0
  -32.1780  -22.6170   18.5970 C   0  0  0  0  0  0  0  0  0  0  0  0
  -31.8040  -24.5760   19.2530 N   0  0  0  0  0  0  0  0  0  0  0  0
  -32.6960  -23.5760   19.3430 N   0  0  0  0  0  0  0  0  0  0  0  0
  -33.0000  -21.4510   18.3090 C   0  0  0  0  0  0  0  0  0  0  0  0
  -33.5140  -20.6370   19.3410 C   0  0  0  0  0  3  0  0  0  0  0  0
  -34.2890  -19.5020   19.0250 C   0  0  0  0  0  3  0  0  0  0  0  0
  -34.5480  -19.1780   17.6710 C   0  0  0  0  0  0  0  0  0  0  0  0
  -34.0570  -20.0140   16.6530 C   0  0  0  0  0  3  0  0  0  0  0  0
  -33.2930  -21.1450   16.9690 C   0  0  0  0  0  3  0  0  0  0  0  0
  -35.3040  -18.1050   17.2710 O   0  0  0  0  0  0  0  0  0  0  0  0
  -35.3700  -16.9570   18.0150 C   0  0  0  0  0  0  0  0  0  0  0  0
  -34.2150  -16.2110   18.3420 C   0  0  0  0  0  3  0  0  0  0  0  0
  -34.3380  -14.9990   19.0490 C   0  0  0  0  0  3  0  0  0  0  0  0
  -35.6110  -14.5280   19.4220 C   0  0  0  0  0  0  0  0  0  0  0  0
  -36.7600  -15.2670   19.0950 C   0  0  0  0  0  3  0  0  0  0  0  0
  -36.6410  -16.4770   18.3910 C   0  0  0  0  0  0  0  0  0  0  0  0
  -37.7510  -17.1770   18.0590 F   0  0  0  0  0  0  0  0  0  0  0  0
  -35.7310  -13.3580   20.0940 F   0  0  0  0  0  0  0  0  0  0  0  0
  -29.9770  -22.2020   17.2230 C   0  0  0  0  0  0  0  0  0  0  0  0
  -29.9790  -20.8820   17.3550 N   0  0  0  0  0  0  0  0  0  0  0  0
  -29.2320  -22.7720   16.4270 O   0  0  0  0  0  0  0  0  0  0  0  0
  -30.5790  -20.4320   18.0310 H   0  0  0  0  0  0  0  0  0  0  0  0
  -29.3770  -20.3160   16.7750 H   0  0  0  0  0  0  0  0  0  0  0  0
  -29.5660  -25.1040   18.4820 N   0  0  0  0  0  0  0  0  0  0  0  0
  -28.7440  -24.8630   17.9390 H   0  0  0  0  0  0  0  0  0  0  0  0
  -29.5040  -25.9950   18.9270 H   0  0  0  0  0  0  0  0  0  0  0  0
  1  2  1  0
  2  3  1  0
  4  3  1  0
  5  4  1  0
  6  5  1  0
  7  6  1  0
  8  9  1  0
  8  7  1  0
 10  8  1  0
 11  8  1  0
 12 11  1  0
 13 12  1  0
 14 13  1  0
 15 25  1  0
 16 14  1  0
 16 22  1  0
 17 24  1  0
 17 27  1  0
 18 23  1  0
 19 20  1  0
 20 21  1  0
 20 18  2  0
 21 16  2  0
 23 22  2  0
 24 18  1  0
 25 19  1  0
 25 17  1  0
 26 15  2  0
 27 29  2  0
 27 28  1  0
 28 32  1  0
 30 28  1  0
 31 35  1  0
 36 31  1  0
 36 32  1  0
 37 36  2  0
 38 39  2  0
 38 37  1  0
 39 40  1  0
 40 31  2  0
 41 42  1  0
 41 15  1  0
 42 43  1  1
 42 44  1  0
 45 42  1  0
 46 49  1  0
 46 41  1  0
 47 46  1  0
 48 47  2  0
 51 50  1  0
 51 47  1  0
 52 53  1  0
 53 51  1  0
 54 53  1  0
 55  1  1  0
 56 55  1  0
 57 56  1  0
 57 58  1  0
 59 60  1  0
 59 58  1  0
 61 60  1  0
 62 61  1  0
 63 62  1  0
 64 63  1  0
 71 77  1  0
 71 78  2  0
 73 72  1  0
 74 75  1  0
 74 73  1  0
 75 84  1  0
 75 76  1  0
 76 77  1  0
 77 72  1  0
 79 71  1  0
 80 79  1  0
 81 84  1  0
 82 81  2  0
 82 83  1  0
 83 85  2  0
 84 85  1  0
 86 83  1  0
 86 87  1  0
 88 87  2  0
 89 88  1  0
 90 91  1  0
 90 89  2  0
 91 86  2  0
 92 89  1  0
 92 93  1  0
 93 94  2  0
 93 98  1  0
 94 95  1  0
 95 96  2  0
 96100  1  0
 97 96  1  0
 98 97  2  0
 99 98  1  0
101102  1  0
101 82  1  0
102104  1  0
103101  2  0
105102  1  0
106 81  1  0
106108  1  0
107106  1  0
M  ISO  4  13 101  14 101  71 100  79 100
M  END
>  <TORSDO>  (50) 
F 42

>  <SCORE>  (50) 
7.311

>  <name>  (50) 
62

>  <ligand_id>  (50) 
62

>  <original_smiles>  (50) 
[H]c1c([H])c([H])c2c(c1[H])C([H])([H])C([H])([H])C([H])([H])C2([H])N([H])C(=O)C1([H])N(C(=O)C([H])(N([H])C(=O)C([H])(N([H])C([H])([H])[H])C([H])([H])[H])C(C([H])([H])[H])(C([H])([H])[H])C([H])([H])[H])C([H])([H])c2c([H])c(OOC([H])([H])C([H])([H])[N+]([H])([H])C([H])([H])C([H])([H])OC([H])([H])C([H])([H])OC([H])([H])C([H])([H])OC([H])([H])C([H])([H])OC([H])([H])C([H])([H])OC([H])([H])C([H])([H])OC([H])([H])C([H])([H])OC([H])([H])C([H])([H])N([H])C(=O)N3C([H])([H])C([H])([H])C([H])([H])C([H])(n4nc(-c5c([H])c([H])c(Oc6c([H])c([H])c(F)c([H])c6F)c([H])c5[H])c(C(=O)N([H])[H])c4N([H])[H])C3([H])[H])c([H])c([H])c2C1([H])[H]

>  <smiles>  (50) 
[H]c1c([H])c([H])c2c(c1[H])C([H])([H])C([H])([H])C([H])([H])C2([H])N([H])C(=O)C1([H])N(C(=O)C([H])(N([H])C(=O)C([H])(N([H])C([H])([H])[H])C([H])([H])[H])C(C([H])([H])[H])(C([H])([H])[H])C([H])([H])[H])C([H])([H])c2c([H])c(OOC([H])([H])C([H])([H])[N+]([H])([H])C([H])([H])C([H])([H])OC([H])([H])C([H])([H])OC([H])([H])C([H])([H])OC([H])([H])C([H])([H])OC([H])([H])C([H])([H])OC([H])([H])C([H])([H])OC([H])([H])C([H])([H])OC([H])([H])C([H])([H])N([H])C(=O)N3C([H])([H])C([H])([H])C([H])([H])C([H])(n4nc(-c5c([H])c([H])c(Oc6c([H])c([H])c(F)c([H])c6F)c([H])c5[H])c(C(=O)N([H])[H])c4N([H])[H])C3([H])[H])c([H])c([H])c2C1([H])[H]

$$$$
63:0:0
     RDKit          3D

120127  0  0  1  0  0  0  0  0999 V2000
  -20.2890  -23.3780   25.1460 C   0  0  0  0  0  2  0  0  0  0  0  0
  -21.4440  -24.2420   25.6710 C   0  0  0  0  0  2  0  0  0  0  0  0
  -22.6770  -23.5540   25.4990 O   0  0  0  0  0  0  0  0  0  0  0  0
  -23.8010  -24.3680   25.8130 C   0  0  0  0  0  2  0  0  0  0  0  0
  -25.0970  -23.6010   25.5170 C   0  0  0  0  0  2  0  0  0  0  0  0
  -25.2200  -23.3970   24.1130 O   0  0  0  0  0  0  0  0  0  0  0  0
  -26.4910  -22.8740   23.7460 C   0  0  0  0  0  2  0  0  0  0  0  0
  -26.4770  -22.4650   22.2660 C   0  0  0  0  0  2  0  0  0  0  0  0
  -27.7970  -22.1450   21.8400 O   0  0  0  0  0  0  0  0  0  0  0  0
  -27.8270  -21.5660   20.5400 C   0  0  0  0  0  2  0  0  0  0  0  0
  -29.2590  -21.5850   19.9820 C   0  0  0  0  0  2  0  0  0  0  0  0
  -30.0670  -20.5880   20.5980 O   0  0  0  0  0  0  0  0  0  0  0  0
  -31.4110  -20.6270   20.1250 C   0  0  0  0  0  2  0  0  0  0  0  0
  -32.2430  -19.5320   20.8040 C   0  0  0  0  0  2  0  0  0  0  0  0
  -32.4460  -19.8890   22.1650 O   0  0  0  0  0  0  0  0  0  0  0  0
  -33.0670  -18.8610   22.9260 C   0  0  0  0  0  2  0  0  0  0  0  0
  -33.2210  -19.3290   24.3830 C   0  0  0  0  0  2  0  0  0  0  0  0
  -32.0000  -19.7790   24.9660 O   0  0  0  0  0  0  0  0  0  0  0  0
  -31.0320  -18.7760   25.2620 C   0  0  0  0  0  2  0  0  0  0  0  0
  -29.9880  -18.6330   24.1410 C   0  0  0  0  0  2  0  0  0  0  0  0
  -30.1140  -17.3620   23.5130 O   0  0  0  0  0  0  0  0  0  0  0  0
  -29.2740  -17.2430   22.3750 C   0  0  0  0  0  2  0  0  0  0  0  0
  -29.1120  -15.7630   22.0220 C   0  0  0  0  0  2  0  0  0  0  0  0
  -30.7430  -14.3810   20.7080 C   0  0  0  0  0  0  0  0  0  0  0  0
  -30.4260  -12.3160   19.3870 C   0  0  0  0  0  2  0  0  0  0  0  0
  -29.4840  -12.5460   18.1890 C   0  0  0  0  0  2  0  0  0  0  0  0
  -28.0030  -12.3930   18.5960 C   0  0  0  0  0  2  0  0  0  0  0  0
  -27.6650  -13.1890   19.8820 C   0  0  0  0  0  3  0  0  0  0  0  0
  -28.7050  -12.8820   20.9810 C   0  0  0  0  0  2  0  0  0  0  0  0
  -30.0380  -13.2390   20.4660 N   0  0  0  0  0  0  0  0  0  0  0  0
  -31.7790  -14.6640   20.1020 O   0  0  0  0  0  0  0  0  0  0  0  0
  -30.4040  -15.1160   21.7790 N   0  0  0  0  0  0  0  0  0  0  0  0
  -31.1630  -15.6970   22.1050 H   0  0  0  0  0  0  0  0  0  0  0  0
  -25.2620  -13.8120   20.5670 C   0  0  0  0  0  0  0  0  0  0  0  0
  -24.1860  -13.0410   20.9190 C   0  0  0  0  0  0  0  0  0  0  0  0
  -24.6390  -11.6890   20.8760 C   0  0  0  0  0  0  0  0  0  0  0  0
  -26.3030  -12.9250   20.3380 N   0  0  0  0  0  0  0  0  0  0  0  0
  -25.9300  -11.6430   20.5780 N   0  0  0  0  0  0  0  0  0  0  0  0
  -23.9050  -10.4280   21.0410 C   0  0  0  0  0  0  0  0  0  0  0  0
  -24.3610   -9.4210   21.9190 C   0  0  0  0  0  3  0  0  0  0  0  0
  -23.6290   -8.2230   22.0760 C   0  0  0  0  0  3  0  0  0  0  0  0
  -22.4270   -8.0280   21.3550 C   0  0  0  0  0  0  0  0  0  0  0  0
  -21.9910   -9.0250   20.4650 C   0  0  0  0  0  3  0  0  0  0  0  0
  -22.7230  -10.2130   20.3070 C   0  0  0  0  0  3  0  0  0  0  0  0
  -21.6630   -6.8880   21.4250 O   0  0  0  0  0  0  0  0  0  0  0  0
  -21.6860   -6.0760   22.5290 C   0  0  0  0  0  0  0  0  0  0  0  0
  -21.4010   -6.5660   23.8220 C   0  0  0  0  0  3  0  0  0  0  0  0
  -21.3650   -5.6810   24.9190 C   0  0  0  0  0  3  0  0  0  0  0  0
  -21.6040   -4.3070   24.7230 C   0  0  0  0  0  0  0  0  0  0  0  0
  -21.8820   -3.8170   23.4360 C   0  0  0  0  0  3  0  0  0  0  0  0
  -21.9190   -4.6980   22.3410 C   0  0  0  0  0  0  0  0  0  0  0  0
  -22.1660   -4.2180   21.0990 F   0  0  0  0  0  0  0  0  0  0  0  0
  -21.5610   -3.4550   25.7740 F   0  0  0  0  0  0  0  0  0  0  0  0
  -22.7880  -13.5230   21.1860 C   0  0  0  0  0  0  0  0  0  0  0  0
  -22.0510  -12.8240   22.0410 N   0  0  0  0  0  0  0  0  0  0  0  0
  -22.3580  -14.5530   20.6700 O   0  0  0  0  0  0  0  0  0  0  0  0
  -22.4090  -11.9880   22.4810 H   0  0  0  0  0  0  0  0  0  0  0  0
  -21.1130  -13.1290   22.2560 H   0  0  0  0  0  0  0  0  0  0  0  0
  -25.4370  -15.1840   20.4030 N   0  0  0  0  0  0  0  0  0  0  0  0
  -24.6660  -15.8360   20.4920 H   0  0  0  0  0  0  0  0  0  0  0  0
  -26.2720  -15.6090   20.0170 H   0  0  0  0  0  0  0  0  0  0  0  0
  -20.4740  -23.1600   23.7530 O   0  0  0  0  0  0  0  0  0  0  0  0
  -19.4050  -22.4450   23.1440 C   0  0  0  0  0  2  0  0  0  0  0  0
  -19.8780  -21.9320   21.7770 C   0  0  0  0  0  2  0  0  0  0  0  0
  -20.0250  -23.0220   20.8760 O   0  0  0  0  0  0  0  0  0  0  0  0
  -20.7500  -22.6760   19.7030 C   0  0  0  0  0  2  0  0  0  0  0  0
  -20.7360  -23.8680   18.7360 C   0  0  0  0  0  2  0  0  0  0  0  0
  -21.6590  -23.6640   17.6720 O   0  0  0  0  0  0  0  0  0  0  0  0
  -21.4990  -24.6340   16.6430 C   0  0  0  0  0  2  0  0  0  0  0  0
  -22.5080  -24.4070   15.5060 C   0  0  0  0  0  2  0  0  0  0  0  0
  -23.7240  -25.0990   15.7720 O   0  0  0  0  0  0  0  0  0  0  0  0
  -24.5670  -25.1540   14.6240 C   0  0  0  0  0  2  0  0  0  0  0  0
  -25.7840  -26.0170   14.9640 C   0  0  0  0  0  2  0  0  0  0  0  0
  -26.5660  -25.4290   16.0730 N   0  0  0  0  0  4  0  0  0  0  0  0
  -25.8970  -25.1630   16.7800 H   0  0  0  0  0  0  0  0  0  0  0  0
  -27.0270  -24.5900   15.7560 H   0  0  0  0  0  0  0  0  0  0  0  0
  -27.5560  -26.3600   16.6600 C   0  0  0  0  0  2  0  0  0  0  0  0
  -28.4230  -25.6990   17.7550 C   0  0  0  0  0  2  0  0  0  0  0  0
  -29.0470  -26.7080   18.7450 C   0  0  0  0  0  2  0  0  0  0  0  0
  -28.3960  -26.7470   20.0190 O   0  0  0  0  0  0  0  0  0  0  0  0
  -24.6120  -31.8690   23.2140 C   0  0  0  0  0  0  0  0  0  0  0  0
  -27.2330  -27.4730   20.0690 C   0  0  0  0  0  0  0  0  0  0  0  0
  -23.3970  -30.4980   21.5520 C   0  0  0  0  0  3  0  0  0  0  0  0
  -24.8420  -28.9660   20.1220 C   0  0  0  0  0  0  0  0  0  0  0  0
  -25.9240  -30.8500   21.3580 C   0  0  0  0  0  2  0  0  0  0  0  0
  -26.0040  -29.4850   20.7070 C   0  0  0  0  0  0  0  0  0  0  0  0
  -27.2070  -28.7450   20.6780 C   0  0  0  0  0  3  0  0  0  0  0  0
  -26.0400  -26.9370   19.5420 C   0  0  0  0  0  3  0  0  0  0  0  0
  -24.8490  -27.6840   19.5470 C   0  0  0  0  0  3  0  0  0  0  0  0
  -23.6060  -29.8350   20.1660 C   0  0  0  0  0  2  0  0  0  0  0  0
  -24.6630  -31.0860   22.1010 N   0  0  0  0  0  0  0  0  0  0  0  0
  -23.5320  -32.1400   23.7600 O   0  0  0  0  0  0  0  0  0  0  0  0
  -22.7370  -29.4670   22.4970 C   0  0  0  0  0  0  0  0  0  0  0  0
  -21.4110  -29.3020   22.3720 N   0  0  0  0  0  0  0  0  0  0  0  0
  -23.4170  -28.8200   23.2990 O   0  0  0  0  0  0  0  0  0  0  0  0
  -20.9220  -29.8770   21.7000 H   0  0  0  0  0  0  0  0  0  0  0  0
  -18.0260  -28.1380   22.8500 C   0  0  0  0  0  0  0  0  0  0  0  0
  -20.5850  -28.3630   23.1300 C   0  0  0  0  0  3  0  0  0  0  0  0
  -20.6720  -26.9400   22.5300 C   0  0  0  0  0  2  0  0  0  0  0  0
  -19.5690  -26.6450   21.5130 C   0  0  0  0  0  2  0  0  0  0  0  0
  -18.1900  -26.7940   22.1610 C   0  0  0  0  0  2  0  0  0  0  0  0
  -19.1530  -28.8820   23.2930 C   0  0  0  0  0  0  0  0  0  0  0  0
  -18.9460  -30.1440   23.8930 C   0  0  0  0  0  3  0  0  0  0  0  0
  -17.6460  -30.6590   24.0590 C   0  0  0  0  0  3  0  0  0  0  0  0
  -16.5350  -29.9100   23.6340 C   0  0  0  0  0  3  0  0  0  0  0  0
  -16.7260  -28.6520   23.0350 C   0  0  0  0  0  3  0  0  0  0  0  0
  -25.9010  -32.4830   23.8420 C   0  0  0  0  0  3  0  0  0  0  0  0
  -26.4460  -31.6570   25.0700 C   0  0  1  0  0  0  0  0  0  0  0  0
  -25.3760  -31.3640   26.1480 C   0  0  0  0  0  1  0  0  0  0  0  0
  -27.0260  -30.3020   24.6010 C   0  0  0  0  0  1  0  0  0  0  0  0
  -27.6050  -32.4240   25.7470 C   0  0  0  0  0  1  0  0  0  0  0  0
  -25.5890  -33.8620   24.2360 N   0  0  0  0  0  0  0  0  0  0  0  0
  -25.9010  -34.9470   23.5160 C   0  0  0  0  0  0  0  0  0  0  0  0
  -26.5540  -34.8920   22.4690 O   0  0  0  0  0  0  0  0  0  0  0  0
  -25.0030  -33.9760   25.0510 H   0  0  0  0  0  0  0  0  0  0  0  0
  -24.1490  -36.7330   23.2630 C   0  0  0  0  0  1  0  0  0  0  0  0
  -25.4090  -36.3100   24.0350 C   0  0  0  0  0  3  0  0  0  0  0  0
  -27.5580  -37.1810   24.8460 C   0  0  0  0  0  1  0  0  0  0  0  0
  -26.4280  -37.3780   23.9420 N   0  0  0  0  0  0  0  0  0  0  0  0
  -26.0160  -38.2860   24.1420 H   0  0  0  0  0  0  0  0  0  0  0  0
  1  2  1  0
  3  2  1  0
  3  4  1  0
  5  4  1  0
  6  5  1  0
  7  6  1  0
  8  7  1  0
  9  8  1  0
 10  9  1  0
 11 10  1  0
 11 12  1  0
 13 12  1  0
 13 14  1  0
 14 15  1  0
 15 16  1  0
 16 17  1  0
 17 18  1  0
 18 19  1  0
 20 19  1  0
 21 20  1  0
 22 21  1  0
 23 22  1  0
 24 32  1  0
 25 30  1  0
 26 27  1  0
 26 25  1  0
 28 27  1  0
 28 37  1  0
 28 29  1  0
 30 24  1  0
 30 29  1  0
 31 24  2  0
 32 23  1  0
 32 33  1  0
 34 35  2  0
 35 54  1  0
 36 35  1  0
 36 39  1  0
 37 34  1  0
 37 38  1  0
 38 36  2  0
 39 40  1  0
 40 41  2  0
 42 45  1  0
 42 41  1  0
 43 42  2  0
 44 43  1  0
 44 39  2  0
 45 46  1  0
 46 47  1  0
 47 48  2  0
 49 48  1  0
 49 53  1  0
 50 49  2  0
 51 46  2  0
 51 50  1  0
 52 51  1  0
 54 55  1  0
 55 58  1  0
 55 57  1  0
 56 54  2  0
 59 60  1  0
 59 34  1  0
 61 59  1  0
 62  1  1  0
 63 62  1  0
 64 63  1  0
 65 64  1  0
 66 65  1  0
 67 66  1  0
 68 67  1  0
 69 68  1  0
 70 71  1  0
 70 69  1  0
 72 73  1  0
 72 71  1  0
 73 74  1  0
 74 77  1  0
 74 75  1  0
 76 74  1  0
 77 78  1  0
 78 79  1  0
 79 80  1  0
 80 82  1  0
 81 92  2  0
 82 87  1  0
 83 91  1  0
 83 93  1  0
 84 90  1  0
 84 86  1  0
 85 91  1  0
 86 85  1  0
 87 86  2  0
 88 89  1  0
 88 82  2  0
 89 84  2  0
 90 83  1  0
 91 81  1  0
 93 95  2  0
 94 93  1  0
 96 94  1  0
 97106  2  0
 97102  1  0
 98 94  1  0
 98102  1  0
 99 98  1  0
100101  1  0
100 99  1  0
101 97  1  0
102103  2  0
103104  1  0
105104  2  0
106105  1  0
107 81  1  0
107112  1  0
107108  1  0
108111  1  1
108109  1  0
110108  1  0
112115  1  0
113117  1  0
113112  1  0
114113  2  0
117116  1  0
119117  1  0
119120  1  0
119118  1  0
M  ISO  4  24 100  32 100  79 101  80 101
M  END
>  <TORSDO>  (51) 
F 54

>  <SCORE>  (51) 
24.558

>  <name>  (51) 
63

>  <ligand_id>  (51) 
63

>  <original_smiles>  (51) 
[H]c1c([H])c([H])c2c(c1[H])C([H])([H])C([H])([H])C([H])([H])C2([H])N([H])C(=O)C1([H])N(C(=O)C([H])(N([H])C(=O)C([H])(N([H])C([H])([H])[H])C([H])([H])[H])C(C([H])([H])[H])(C([H])([H])[H])C([H])([H])[H])C([H])([H])c2c([H])c(OC([H])([H])C([H])([H])C([H])([H])[N+]([H])([H])C([H])([H])C([H])([H])OC([H])([H])C([H])([H])OC([H])([H])C([H])([H])OC([H])([H])C([H])([H])OC([H])([H])C([H])([H])OC([H])([H])C([H])([H])OC([H])([H])C([H])([H])OC([H])([H])C([H])([H])OC([H])([H])C([H])([H])OC([H])([H])C([H])([H])OC([H])([H])C([H])([H])OC([H])([H])C([H])([H])N([H])C(=O)N3C([H])([H])C([H])([H])C([H])([H])C([H])(n4nc(-c5c([H])c([H])c(Oc6c([H])c([H])c(F)c([H])c6F)c([H])c5[H])c(C(=O)N([H])[H])c4N([H])[H])C3([H])[H])c([H])c([H])c2C1([H])[H]

>  <smiles>  (51) 
[H]c1c([H])c([H])c2c(c1[H])C([H])([H])C([H])([H])C([H])([H])C2([H])N([H])C(=O)C1([H])N(C(=O)C([H])(N([H])C(=O)C([H])(N([H])C([H])([H])[H])C([H])([H])[H])C(C([H])([H])[H])(C([H])([H])[H])C([H])([H])[H])C([H])([H])c2c([H])c(OC([H])([H])C([H])([H])C([H])([H])[N+]([H])([H])C([H])([H])C([H])([H])OC([H])([H])C([H])([H])OC([H])([H])C([H])([H])OC([H])([H])C([H])([H])OC([H])([H])C([H])([H])OC([H])([H])C([H])([H])OC([H])([H])C([H])([H])OC([H])([H])C([H])([H])OC([H])([H])C([H])([H])OC([H])([H])C([H])([H])OC([H])([H])C([H])([H])OC([H])([H])C([H])([H])N([H])C(=O)N3C([H])([H])C([H])([H])C([H])([H])C([H])(n4nc(-c5c([H])c([H])c(Oc6c([H])c([H])c(F)c([H])c6F)c([H])c5[H])c(C(=O)N([H])[H])c4N([H])[H])C3([H])[H])c([H])c([H])c2C1([H])[H]

$$$$
64:0:0
     RDKit          3D

100104  0  0  1  0  0  0  0  0999 V2000
  -23.4720  -14.0000   23.7610 C   0  0  0  0  0  2  0  0  0  0  0  0
  -24.2840  -14.2810   22.5380 O   0  0  0  0  0  0  0  0  0  0  0  0
  -25.2380  -15.4360   22.4290 C   0  0  0  0  0  2  0  0  0  0  0  0
  -25.7750  -15.9590   20.9680 C   0  0  0  0  0  2  0  0  0  0  0  0
  -27.0280  -16.7580   20.7940 O   0  0  0  0  0  0  0  0  0  0  0  0
  -27.1010  -17.8920   19.8260 C   0  0  0  0  0  2  0  0  0  0  0  0
  -28.4800  -18.7130   19.5320 C   0  0  0  0  0  2  0  0  0  0  0  0
  -28.5040  -20.2080   19.6240 O   0  0  0  0  0  0  0  0  0  0  0  0
  -29.6500  -21.0310   19.1140 C   0  0  0  0  0  2  0  0  0  0  0  0
  -30.0360  -22.4360   19.8400 C   0  0  0  0  0  2  0  0  0  0  0  0
  -30.7340  -23.6120   19.1870 O   0  0  0  0  0  0  0  0  0  0  0  0
  -25.1040  -27.4650   21.2780 C   0  0  0  0  0  0  0  0  0  0  0  0
  -29.8900  -24.6800   18.8880 C   0  0  0  0  0  0  0  0  0  0  0  0
  -25.4370  -27.1420   18.8530 C   0  0  0  0  0  3  0  0  0  0  0  0
  -27.7730  -26.4060   18.1220 C   0  0  0  0  0  0  0  0  0  0  0  0
  -27.4580  -27.3020   20.4250 C   0  0  0  0  0  2  0  0  0  0  0  0
  -28.2150  -26.4080   19.4530 C   0  0  0  0  0  0  0  0  0  0  0  0
  -29.2940  -25.5600   19.8440 C   0  0  0  0  0  3  0  0  0  0  0  0
  -29.4930  -24.7860   17.5460 C   0  0  0  0  0  3  0  0  0  0  0  0
  -28.4430  -25.6350   17.1600 C   0  0  0  0  0  3  0  0  0  0  0  0
  -26.5550  -27.2370   17.7800 C   0  0  0  0  0  2  0  0  0  0  0  0
  -25.9790  -27.2920   20.2440 N   0  0  0  0  0  0  0  0  0  0  0  0
  -23.8810  -27.5250   21.0850 O   0  0  0  0  0  0  0  0  0  0  0  0
  -24.6320  -25.8330   18.6480 C   0  0  0  0  0  0  0  0  0  0  0  0
  -23.7810  -25.7990   17.6080 N   0  0  0  0  0  0  0  0  0  0  0  0
  -24.7960  -24.8720   19.4040 O   0  0  0  0  0  0  0  0  0  0  0  0
  -23.6910  -26.6340   17.0460 H   0  0  0  0  0  0  0  0  0  0  0  0
  -21.3520  -24.6590   15.1810 C   0  0  0  0  0  0  0  0  0  0  0  0
  -22.9520  -24.6590   17.2120 C   0  0  0  0  0  3  0  0  0  0  0  0
  -23.7760  -23.6110   16.4290 C   0  0  0  0  0  2  0  0  0  0  0  0
  -23.7200  -23.8090   14.9100 C   0  0  0  0  0  2  0  0  0  0  0  0
  -22.2750  -23.7270   14.4130 C   0  0  0  0  0  2  0  0  0  0  0  0
  -21.6770  -25.1080   16.4880 C   0  0  0  0  0  0  0  0  0  0  0  0
  -20.7970  -25.9980   17.1420 C   0  0  0  0  0  3  0  0  0  0  0  0
  -19.6170  -26.4380   16.5140 C   0  0  0  0  0  3  0  0  0  0  0  0
  -19.2950  -25.9810   15.2240 C   0  0  0  0  0  3  0  0  0  0  0  0
  -20.1580  -25.0890   14.5630 C   0  0  0  0  0  3  0  0  0  0  0  0
  -25.6020  -27.6180   22.7480 C   0  0  0  0  0  3  0  0  0  0  0  0
  -24.7270  -28.5940   23.4120 N   0  0  0  0  0  0  0  0  0  0  0  0
  -25.0200  -29.8920   23.5780 C   0  0  0  0  0  0  0  0  0  0  0  0
  -26.1030  -30.3800   23.2450 O   0  0  0  0  0  0  0  0  0  0  0  0
  -23.8030  -28.2740   23.6680 H   0  0  0  0  0  0  0  0  0  0  0  0
  -23.2060  -31.5740   23.1180 C   0  0  0  0  0  1  0  0  0  0  0  0
  -23.9420  -30.7900   24.2160 C   0  0  0  0  0  3  0  0  0  0  0  0
  -24.9620  -31.0710   26.4340 C   0  0  0  0  0  1  0  0  0  0  0  0
  -24.4810  -31.7320   25.2230 N   0  0  0  0  0  0  0  0  0  0  0  0
  -23.7760  -32.4130   25.4920 H   0  0  0  0  0  0  0  0  0  0  0  0
  -25.6180  -26.2560   23.5440 C   0  0  1  0  0  0  0  0  0  0  0  0
  -24.2840  -25.4750   23.4790 C   0  0  0  0  0  1  0  0  0  0  0  0
  -26.7330  -25.3270   23.0120 C   0  0  0  0  0  1  0  0  0  0  0  0
  -25.9400  -26.5240   25.0340 C   0  0  0  0  0  1  0  0  0  0  0  0
  -22.8890  -12.5110   24.1720 C   0  0  0  0  0  2  0  0  0  0  0  0
  -21.8130  -11.8480   23.3460 O   0  0  0  0  0  0  0  0  0  0  0  0
  -21.9280  -10.5550   22.5690 C   0  0  0  0  0  2  0  0  0  0  0  0
  -22.0040  -10.3610   20.9000 C   0  0  0  0  0  2  0  0  0  0  0  0
  -23.3710  -10.2170   20.3650 O   0  0  0  0  0  0  0  0  0  0  0  0
  -24.1460  -10.3740   19.1050 C   0  0  0  0  0  2  0  0  0  0  0  0
  -25.8340  -10.3730   19.1270 C   0  0  0  0  0  2  0  0  0  0  0  0
  -26.8060   -9.2320   19.6140 N   0  0  0  0  0  4  0  0  0  0  0  0
  -26.6090   -8.3890   19.1000 H   0  0  0  0  0  0  0  0  0  0  0  0
  -26.5510   -9.0460   20.5800 H   0  0  0  0  0  0  0  0  0  0  0  0
  -28.3280   -9.4540   19.6590 C   0  0  0  0  0  2  0  0  0  0  0  0
  -29.4280   -8.4920   20.5040 C   0  0  0  0  0  2  0  0  0  0  0  0
  -30.4140   -8.7310   21.7420 O   0  0  0  0  0  1  0  0  0  0  0  0
  -31.9850   -9.9670   22.5340 C   0  0  2  0  0  0  0  0  0  0  0  0
  -32.6260   -8.6560   21.8540 C   0  0  0  0  0  1  0  0  0  0  0  0
  -32.1560   -9.4410   20.2390 C   0  0  0  0  0  1  0  0  0  0  0  0
  -30.9140  -10.7020   20.3490 C   0  0  0  0  0  2  0  0  0  0  0  0
  -29.9760  -11.0450   21.8660 C   0  0  0  0  0  2  0  0  0  0  0  0
  -30.6040  -10.2540   23.3620 C   0  0  0  0  0  1  0  0  0  0  0  0
  -31.8970   -9.2240   23.2690 N   0  0  0  0  0  1  0  0  0  0  0  0
  -32.8740  -10.9310   22.4530 O   0  0  0  0  0  1  0  0  0  0  0  0
  -27.6750  -11.9470   21.5040 C   0  0  0  0  0  0  0  0  0  0  0  0
  -26.3910  -11.5190   21.5970 C   0  0  0  0  0  0  0  0  0  0  0  0
  -26.4230  -10.1280   22.0640 C   0  0  0  0  0  0  0  0  0  0  0  0
  -28.4890  -10.9360   21.8770 N   0  0  0  0  0  0  0  0  0  0  0  0
  -27.7230   -9.8550   22.2950 N   0  0  0  0  0  0  0  0  0  0  0  0
  -25.4420   -8.9690   22.1860 C   0  0  0  0  0  0  0  0  0  0  0  0
  -25.1550   -8.3350   23.4110 C   0  0  0  0  0  3  0  0  0  0  0  0
  -24.1280   -7.3550   23.5100 C   0  0  0  0  0  3  0  0  0  0  0  0
  -23.2930   -7.0610   22.3970 C   0  0  0  0  0  0  0  0  0  0  0  0
  -23.6370   -7.5900   21.1740 C   0  0  0  0  0  3  0  0  0  0  0  0
  -24.8070   -8.3280   21.0950 C   0  0  0  0  0  3  0  0  0  0  0  0
  -22.2150   -6.2210   22.3460 O   0  0  0  0  0  0  0  0  0  0  0  0
  -21.8040   -5.5430   23.4480 C   0  0  0  0  0  0  0  0  0  0  0  0
  -21.3220   -6.2330   24.5770 C   0  0  0  0  0  3  0  0  0  0  0  0
  -20.8830   -5.5060   25.6930 C   0  0  0  0  0  3  0  0  0  0  0  0
  -20.9160   -4.0980   25.6710 C   0  0  0  0  0  0  0  0  0  0  0  0
  -21.3830   -3.4140   24.5350 C   0  0  0  0  0  3  0  0  0  0  0  0
  -21.8320   -4.1350   23.4200 C   0  0  0  0  0  0  0  0  0  0  0  0
  -22.2830   -3.4900   22.3160 F   0  0  0  0  0  0  0  0  0  0  0  0
  -20.4940   -3.3920   26.7480 F   0  0  0  0  0  0  0  0  0  0  0  0
  -25.3590  -12.4560   21.0280 C   0  0  0  0  0  0  0  0  0  0  0  0
  -24.2420  -12.7640   21.5500 N   0  0  0  0  0  0  0  0  0  0  0  0
  -25.5730  -13.1510   20.0600 O   0  0  0  0  0  0  0  0  0  0  0  0
  -23.8440  -12.3610   22.4090 H   0  0  0  0  0  0  0  0  0  0  0  0
  -23.7450  -13.5130   21.1010 H   0  0  0  0  0  0  0  0  0  0  0  0
  -28.2100  -13.1430   21.0490 N   0  0  0  0  0  0  0  0  0  0  0  0
  -27.5740  -13.8270   20.6640 H   0  0  0  0  0  0  0  0  0  0  0  0
  -29.1860  -13.3530   20.9110 H   0  0  0  0  0  0  0  0  0  0  0  0
  1 52  1  0
  2  1  1  0
  3  2  1  0
  4  3  1  0
  5  4  1  0
  6  5  1  0
  7  8  1  0
  7  6  1  0
  9  8  1  0
  9 10  1  0
 11 10  1  0
 13 11  1  0
 13 18  1  0
 14 24  1  0
 14 22  1  0
 15 17  1  0
 17 18  2  0
 17 16  1  0
 19 13  2  0
 20 19  1  0
 20 15  2  0
 21 15  1  0
 21 14  1  0
 22 16  1  0
 22 12  1  0
 23 12  2  0
 24 26  2  0
 25 24  1  0
 27 25  1  0
 28 33  1  0
 29 25  1  0
 30 29  1  0
 31 30  1  0
 32 31  1  0
 32 28  1  0
 33 34  2  0
 33 29  1  0
 35 34  1  0
 36 35  2  0
 37 28  2  0
 37 36  1  0
 38 12  1  0
 38 39  1  0
 38 48  1  0
 39 40  1  0
 39 42  1  0
 40 44  1  0
 41 40  2  0
 44 43  1  0
 44 46  1  0
 46 47  1  0
 46 45  1  0
 48 51  1  1
 49 48  1  0
 50 48  1  0
 53 52  1  0
 54 53  1  0
 55 54  1  0
 56 55  1  0
 57 58  1  0
 57 56  1  0
 58 59  1  0
 59 62  1  0
 59 61  1  0
 60 59  1  0
 62 63  1  0
 63 64  1  0
 65 71  1  0
 65 70  1  6
 66 65  1  0
 67 68  1  0
 68 69  1  0
 69 76  1  0
 72 65  1  0
 73 74  2  0
 73 76  1  0
 74 75  1  0
 75 78  1  0
 75 77  2  0
 76 77  1  0
 78 79  1  0
 79 80  2  0
 81 80  1  0
 82 81  2  0
 83 82  1  0
 83 78  2  0
 84 81  1  0
 84 85  1  0
 85 86  1  0
 86 87  2  0
 88 87  1  0
 88 92  1  0
 89 88  2  0
 90 85  2  0
 90 89  1  0
 91 90  1  0
 93 94  1  0
 93 74  1  0
 94 96  1  0
 95 93  2  0
 97 94  1  0
 98 73  1  0
 99 98  1  0
100 98  1  0
M  ISO  4  10 101  11 101  64 100  65 100
M  END
>  <TORSDO>  (52) 
F 36

>  <SCORE>  (52) 
6.534

>  <name>  (52) 
64

>  <ligand_id>  (52) 
64

>  <original_smiles>  (52) 
[H]c1c([H])c([H])c2c(c1[H])C([H])([H])C([H])([H])C([H])([H])C2([H])N([H])C(=O)C1([H])N(C(=O)C([H])(N([H])C(=O)C([H])(N([H])C([H])([H])[H])C([H])([H])[H])C(C([H])([H])[H])(C([H])([H])[H])C([H])([H])[H])C([H])([H])c2c([H])c(OC([H])([H])C([H])([H])OC([H])([H])C([H])([H])OC([H])([H])C([H])([H])OC([H])([H])C([H])([H])OC([H])([H])C([H])([H])OC([H])([H])C([H])([H])[N+]([H])([H])C([H])([H])C([H])([H])OC(=O)N3C([H])([H])C([H])([H])C([H])([H])C([H])(n4nc(-c5c([H])c([H])c(Oc6c([H])c([H])c(F)c([H])c6F)c([H])c5[H])c(C(=O)N([H])[H])c4N([H])[H])C3([H])[H])c([H])c([H])c2C1([H])[H]

>  <smiles>  (52) 
[H]c1c([H])c([H])c2c(c1[H])C([H])([H])C([H])([H])C([H])([H])C2([H])N([H])C(=O)C1([H])N(C(=O)C([H])(N([H])C(=O)C([H])(N([H])C([H])([H])[H])C([H])([H])[H])C(C([H])([H])[H])(C([H])([H])[H])C([H])([H])[H])C([H])([H])c2c([H])c(OC([H])([H])C([H])([H])OC([H])([H])C([H])([H])OC([H])([H])C([H])([H])OC([H])([H])C([H])([H])OC([H])([H])C([H])([H])OC([H])([H])C([H])([H])[N+]([H])([H])C([H])([H])C([H])([H])OC(=O)N3C([H])([H])C([H])([H])C([H])([H])C([H])(n4nc(-c5c([H])c([H])c(Oc6c([H])c([H])c(F)c([H])c6F)c([H])c5[H])c(C(=O)N([H])[H])c4N([H])[H])C3([H])[H])c([H])c([H])c2C1([H])[H]

$$$$
65:0:0
     RDKit          3D

109116  0  0  1  0  0  0  0  0999 V2000
  -29.9190  -26.8050   23.9730 C   0  0  0  0  0  2  0  0  0  0  0  0
  -28.5060  -26.8220   23.7790 O   0  0  0  0  0  0  0  0  0  0  0  0
  -27.8030  -26.0270   24.7230 C   0  0  0  0  0  2  0  0  0  0  0  0
  -26.3440  -25.9490   24.2520 C   0  0  0  0  0  3  0  0  0  0  0  0
  -25.4010  -24.8850   24.8710 C   0  0  0  0  0  3  0  0  0  0  0  0
  -26.0150  -23.8010   25.7850 C   0  0  0  0  0  2  0  0  0  0  0  0
  -26.2880  -22.7150   24.9320 O   0  0  0  0  0  0  0  0  0  0  0  0
  -27.2910  -21.8030   25.3410 C   0  0  0  0  0  2  0  0  0  0  0  0
  -27.8070  -21.2230   24.0170 C   0  0  0  0  0  2  0  0  0  0  0  0
  -28.5170  -22.3100   23.1920 C   0  0  0  0  0  2  0  0  0  0  0  0
  -28.1260  -22.2500   21.8260 O   0  0  0  0  0  0  0  0  0  0  0  0
  -28.9740  -23.0420   21.0100 C   0  0  0  0  0  2  0  0  0  0  0  0
  -28.8300  -24.5640   21.1890 C   0  0  0  0  0  2  0  0  0  0  0  0
  -27.8880  -25.1680   20.3230 O   0  0  0  0  0  0  0  0  0  0  0  0
  -28.2950  -26.6200   20.1320 O   0  0  0  0  0  0  0  0  0  0  0  0
  -24.6190  -31.8690   23.2120 C   0  0  0  0  0  0  0  0  0  0  0  0
  -27.1840  -27.4140   20.1350 C   0  0  0  0  0  0  0  0  0  0  0  0
  -23.4100  -30.4880   21.5530 C   0  0  0  0  0  3  0  0  0  0  0  0
  -24.8470  -28.9700   20.1110 C   0  0  0  0  0  0  0  0  0  0  0  0
  -25.9370  -30.8290   21.3800 C   0  0  0  0  0  2  0  0  0  0  0  0
  -26.0040  -29.4660   20.7250 C   0  0  0  0  0  0  0  0  0  0  0  0
  -27.1790  -28.6850   20.7470 C   0  0  0  0  0  3  0  0  0  0  0  0
  -26.0240  -26.9420   19.4980 C   0  0  0  0  0  3  0  0  0  0  0  0
  -24.8500  -27.7060   19.4960 C   0  0  0  0  0  3  0  0  0  0  0  0
  -23.6170  -29.8380   20.1620 C   0  0  0  0  0  2  0  0  0  0  0  0
  -24.6730  -31.0780   22.1060 N   0  0  0  0  0  0  0  0  0  0  0  0
  -23.5380  -32.1480   23.7470 O   0  0  0  0  0  0  0  0  0  0  0  0
  -22.7440  -29.4630   22.5020 C   0  0  0  0  0  0  0  0  0  0  0  0
  -21.4160  -29.2990   22.3720 N   0  0  0  0  0  0  0  0  0  0  0  0
  -23.4180  -28.8200   23.3140 O   0  0  0  0  0  0  0  0  0  0  0  0
  -20.9320  -29.8710   21.6930 H   0  0  0  0  0  0  0  0  0  0  0  0
  -18.0320  -28.1370   22.8500 C   0  0  0  0  0  0  0  0  0  0  0  0
  -20.5880  -28.3640   23.1310 C   0  0  0  0  0  3  0  0  0  0  0  0
  -20.6760  -26.9380   22.5390 C   0  0  0  0  0  2  0  0  0  0  0  0
  -19.5760  -26.6380   21.5160 C   0  0  0  0  0  2  0  0  0  0  0  0
  -18.1970  -26.7930   22.1610 C   0  0  0  0  0  2  0  0  0  0  0  0
  -19.1560  -28.8840   23.2910 C   0  0  0  0  0  0  0  0  0  0  0  0
  -18.9470  -30.1450   23.8910 C   0  0  0  0  0  3  0  0  0  0  0  0
  -17.6450  -30.6570   24.0550 C   0  0  0  0  0  3  0  0  0  0  0  0
  -16.5360  -29.9050   23.6320 C   0  0  0  0  0  3  0  0  0  0  0  0
  -16.7310  -28.6470   23.0370 C   0  0  0  0  0  3  0  0  0  0  0  0
  -25.9130  -32.4820   23.8420 C   0  0  0  0  0  3  0  0  0  0  0  0
  -26.4550  -31.6540   25.0760 C   0  0  1  0  0  0  0  0  0  0  0  0
  -25.3770  -31.3650   26.1470 C   0  0  0  0  0  1  0  0  0  0  0  0
  -27.0360  -30.2950   24.6090 C   0  0  0  0  0  1  0  0  0  0  0  0
  -27.6080  -32.4330   25.7500 C   0  0  0  0  0  1  0  0  0  0  0  0
  -25.5930  -33.8610   24.2340 N   0  0  0  0  0  0  0  0  0  0  0  0
  -25.9070  -34.9450   23.5110 C   0  0  0  0  0  0  0  0  0  0  0  0
  -26.5640  -34.8860   22.4670 O   0  0  0  0  0  0  0  0  0  0  0  0
  -24.9990  -33.9770   25.0440 H   0  0  0  0  0  0  0  0  0  0  0  0
  -24.1480  -36.7280   23.2620 C   0  0  0  0  0  1  0  0  0  0  0  0
  -25.4120  -36.3050   24.0300 C   0  0  0  0  0  3  0  0  0  0  0  0
  -27.5580  -37.1790   24.8470 C   0  0  0  0  0  1  0  0  0  0  0  0
  -26.4310  -37.3760   23.9390 N   0  0  0  0  0  0  0  0  0  0  0  0
  -26.0140  -38.2800   24.1410 H   0  0  0  0  0  0  0  0  0  0  0  0
  -30.5580  -27.6740   22.8780 C   0  0  0  0  0  2  0  0  0  0  0  0
  -30.9220  -26.9150   21.7300 O   0  0  0  0  0  0  0  0  0  0  0  0
  -31.1400  -27.6890   20.5480 C   0  0  0  0  0  2  0  0  0  0  0  0
  -31.7440  -26.8140   19.4220 C   0  0  0  0  0  2  0  0  0  0  0  0
  -30.8710  -25.7280   19.0420 O   0  0  0  0  0  0  0  0  0  0  0  0
  -30.3230  -25.8130   17.7310 C   0  0  0  0  0  2  0  0  0  0  0  0
  -29.5720  -24.5400   17.2730 C   0  0  0  0  0  2  0  0  0  0  0  0
  -28.2070  -24.5480   17.6560 O   0  0  0  0  0  0  0  0  0  0  0  0
  -27.3820  -23.5500   17.0310 C   0  0  0  0  0  2  0  0  0  0  0  0
  -27.0860  -22.2890   17.8790 C   0  0  0  0  0  2  0  0  0  0  0  0
  -28.1330  -21.3170   17.8420 O   0  0  0  0  0  0  0  0  0  0  0  0
  -27.7070  -20.1010   18.4680 C   0  0  0  0  0  2  0  0  0  0  0  0
  -28.8790  -19.1020   18.6040 C   0  0  0  0  0  2  0  0  0  0  0  0
  -29.3400  -18.9710   19.9570 O   0  0  0  0  0  0  0  0  0  0  0  0
  -30.1630  -17.8210   20.2420 C   0  0  0  0  0  2  0  0  0  0  0  0
  -29.3140  -16.5330   20.2670 C   0  0  0  0  0  2  0  0  0  0  0  0
  -30.6480  -14.4620   20.5490 C   0  0  0  0  0  0  0  0  0  0  0  0
  -30.4440  -12.2950   19.4110 C   0  0  0  0  0  2  0  0  0  0  0  0
  -29.5020  -12.4890   18.2030 C   0  0  0  0  0  2  0  0  0  0  0  0
  -28.0220  -12.3580   18.6230 C   0  0  0  0  0  2  0  0  0  0  0  0
  -27.6730  -13.1850   19.8870 C   0  0  0  0  0  3  0  0  0  0  0  0
  -28.7180  -12.9300   20.9980 C   0  0  0  0  0  2  0  0  0  0  0  0
  -30.0520  -13.2450   20.4580 N   0  0  0  0  0  0  0  0  0  0  0  0
  -31.7370  -14.7410   20.0460 O   0  0  0  0  0  0  0  0  0  0  0  0
  -29.8390  -15.4060   21.0530 N   0  0  0  0  0  0  0  0  0  0  0  0
  -29.1190  -14.9850   21.6240 H   0  0  0  0  0  0  0  0  0  0  0  0
  -25.2680  -13.8050   20.5680 C   0  0  0  0  0  0  0  0  0  0  0  0
  -24.1960  -13.0450   20.9150 C   0  0  0  0  0  0  0  0  0  0  0  0
  -24.6440  -11.6830   20.8720 C   0  0  0  0  0  0  0  0  0  0  0  0
  -26.3120  -12.9190   20.3420 N   0  0  0  0  0  0  0  0  0  0  0  0
  -25.9360  -11.6350   20.5810 N   0  0  0  0  0  0  0  0  0  0  0  0
  -23.9100  -10.4260   21.0410 C   0  0  0  0  0  0  0  0  0  0  0  0
  -24.3640   -9.4160   21.9210 C   0  0  0  0  0  3  0  0  0  0  0  0
  -23.6300   -8.2220   22.0780 C   0  0  0  0  0  3  0  0  0  0  0  0
  -22.4280   -8.0290   21.3570 C   0  0  0  0  0  0  0  0  0  0  0  0
  -21.9910   -9.0260   20.4680 C   0  0  0  0  0  3  0  0  0  0  0  0
  -22.7250  -10.2100   20.3070 C   0  0  0  0  0  3  0  0  0  0  0  0
  -21.6630   -6.8880   21.4240 O   0  0  0  0  0  0  0  0  0  0  0  0
  -21.6840   -6.0750   22.5260 C   0  0  0  0  0  0  0  0  0  0  0  0
  -21.4030   -6.5650   23.8200 C   0  0  0  0  0  3  0  0  0  0  0  0
  -21.3640   -5.6810   24.9150 C   0  0  0  0  0  3  0  0  0  0  0  0
  -21.6020   -4.3060   24.7210 C   0  0  0  0  0  0  0  0  0  0  0  0
  -21.8840   -3.8160   23.4330 C   0  0  0  0  0  3  0  0  0  0  0  0
  -21.9200   -4.6970   22.3390 C   0  0  0  0  0  0  0  0  0  0  0  0
  -22.1680   -4.2170   21.0970 F   0  0  0  0  0  0  0  0  0  0  0  0
  -21.5610   -3.4550   25.7720 F   0  0  0  0  0  0  0  0  0  0  0  0
  -22.7980  -13.5230   21.1840 C   0  0  0  0  0  0  0  0  0  0  0  0
  -22.0620  -12.8260   22.0330 N   0  0  0  0  0  0  0  0  0  0  0  0
  -22.3650  -14.5560   20.6630 O   0  0  0  0  0  0  0  0  0  0  0  0
  -22.4260  -11.9920   22.4720 H   0  0  0  0  0  0  0  0  0  0  0  0
  -21.1250  -13.1300   22.2620 H   0  0  0  0  0  0  0  0  0  0  0  0
  -25.4440  -15.1820   20.4100 N   0  0  0  0  0  0  0  0  0  0  0  0
  -24.6700  -15.8280   20.5220 H   0  0  0  0  0  0  0  0  0  0  0  0
  -26.2980  -15.6170   20.0940 H   0  0  0  0  0  0  0  0  0  0  0  0
  2  1  1  0
  2  3  1  0
  4  3  1  0
  4  5  2  0
  5  6  1  0
  7  8  1  0
  7  6  1  0
  9  8  1  0
 10  9  1  0
 11 10  1  0
 12 13  1  0
 12 11  1  0
 14 13  1  0
 15 17  1  0
 15 14  1  0
 16 27  2  0
 17 22  1  0
 18 26  1  0
 18 28  1  0
 19 25  1  0
 19 21  1  0
 20 26  1  0
 21 22  2  0
 21 20  1  0
 23 17  2  0
 24 23  1  0
 24 19  2  0
 25 18  1  0
 26 16  1  0
 28 30  2  0
 29 28  1  0
 31 29  1  0
 32 41  2  0
 32 37  1  0
 33 29  1  0
 33 37  1  0
 34 33  1  0
 35 36  1  0
 35 34  1  0
 36 32  1  0
 37 38  2  0
 38 39  1  0
 40 39  2  0
 41 40  1  0
 42 16  1  0
 42 47  1  0
 42 43  1  0
 43 46  1  1
 43 44  1  0
 45 43  1  0
 47 50  1  0
 48 52  1  0
 48 47  1  0
 49 48  2  0
 52 51  1  0
 54 52  1  0
 54 55  1  0
 54 53  1  0
 56  1  1  0
 57 56  1  0
 58 57  1  0
 59 58  1  0
 60 59  1  0
 61 60  1  0
 62 63  1  0
 62 61  1  0
 64 63  1  0
 64 65  1  0
 66 65  1  0
 66 67  1  0
 67 68  1  0
 68 69  1  0
 69 70  1  0
 70 71  1  0
 71 80  1  0
 72 80  1  0
 73 78  1  0
 74 75  1  0
 74 73  1  0
 76 75  1  0
 76 85  1  0
 76 77  1  0
 78 72  1  0
 78 77  1  0
 79 72  2  0
 80 81  1  0
 82 83  2  0
 83102  1  0
 84 83  1  0
 84 87  1  0
 85 82  1  0
 85 86  1  0
 86 84  2  0
 87 88  1  0
 88 89  2  0
 90 93  1  0
 90 89  1  0
 91 90  2  0
 92 91  1  0
 92 87  2  0
 93 94  1  0
 94 95  1  0
 95 96  2  0
 97 96  1  0
 97101  1  0
 98 97  2  0
 99 94  2  0
 99 98  1  0
100 99  1  0
102103  1  0
103106  1  0
103105  1  0
104102  2  0
107108  1  0
107 82  1  0
109107  1  0
M  ISO  4  14 101  15 101  72 100  80 100
M  END
>  <TORSDO>  (53) 
F 45

>  <SCORE>  (53) 
10.135

>  <name>  (53) 
65

>  <ligand_id>  (53) 
65

>  <original_smiles>  (53) 
[H]c1c([H])c([H])c2c(c1[H])C([H])([H])C([H])([H])C([H])([H])C2([H])N([H])C(=O)C1([H])N(C(=O)C([H])(N([H])C(=O)C([H])(N([H])C([H])([H])[H])C([H])([H])[H])C(C([H])([H])[H])(C([H])([H])[H])C([H])([H])[H])C([H])([H])c2c([H])c(OOC([H])([H])C([H])([H])OC([H])([H])C([H])([H])C([H])([H])OC([H])([H])C([H])([H])C([H])([H])C([H])([H])OC([H])([H])C([H])([H])OC([H])([H])C([H])([H])OC([H])([H])C([H])([H])OC([H])([H])C([H])([H])OC([H])([H])C([H])([H])OC([H])([H])C([H])([H])N([H])C(=O)N3C([H])([H])C([H])([H])C([H])([H])C([H])(n4nc(-c5c([H])c([H])c(Oc6c([H])c([H])c(F)c([H])c6F)c([H])c5[H])c(C(=O)N([H])[H])c4N([H])[H])C3([H])[H])c([H])c([H])c2C1([H])[H]

>  <smiles>  (53) 
[H]c1c([H])c([H])c2c(c1[H])C([H])([H])C([H])([H])C([H])([H])C2([H])N([H])C(=O)C1([H])N(C(=O)C([H])(N([H])C(=O)C([H])(N([H])C([H])([H])[H])C([H])([H])[H])C(C([H])([H])[H])(C([H])([H])[H])C([H])([H])[H])C([H])([H])c2c([H])c(OOC([H])([H])C([H])([H])OC([H])([H])C([H])([H])C([H])([H])OC([H])([H])C([H])([H])C([H])([H])C([H])([H])OC([H])([H])C([H])([H])OC([H])([H])C([H])([H])OC([H])([H])C([H])([H])OC([H])([H])C([H])([H])OC([H])([H])C([H])([H])OC([H])([H])C([H])([H])N([H])C(=O)N3C([H])([H])C([H])([H])C([H])([H])C([H])(n4nc(-c5c([H])c([H])c(Oc6c([H])c([H])c(F)c([H])c6F)c([H])c5[H])c(C(=O)N([H])[H])c4N([H])[H])C3([H])[H])c([H])c([H])c2C1([H])[H]

$$$$
68:0:0
     RDKit          3D

126133  0  0  1  0  0  0  0  0999 V2000
  -33.4220  -22.2810   17.5620 C   0  0  0  0  0  2  0  0  0  0  0  0
  -32.5880  -20.9800   17.5230 C   0  0  0  0  0  2  0  0  0  0  0  0
  -33.0080  -20.0700   16.5110 O   0  0  0  0  0  0  0  0  0  0  0  0
  -32.7860  -20.4730   15.1600 C   0  0  0  0  0  2  0  0  0  0  0  0
  -31.2940  -20.4950   14.7700 C   0  0  0  0  0  2  0  0  0  0  0  0
  -30.7430  -21.7930   14.9610 O   0  0  0  0  0  0  0  0  0  0  0  0
  -29.3610  -21.8910   14.6160 C   0  0  0  0  0  2  0  0  0  0  0  0
  -28.4740  -21.4500   15.7940 C   0  0  0  0  0  2  0  0  0  0  0  0
  -28.7500  -22.2960   16.9050 O   0  0  0  0  0  0  0  0  0  0  0  0
  -27.8960  -22.0960   18.0260 C   0  0  0  0  0  2  0  0  0  0  0  0
  -28.0760  -20.7180   18.6890 C   0  0  0  0  0  2  0  0  0  0  0  0
  -29.4430  -20.3760   18.9000 O   0  0  0  0  0  0  0  0  0  0  0  0
  -29.6110  -19.0020   19.2510 C   0  0  0  0  0  2  0  0  0  0  0  0
  -30.0690  -18.1630   18.0420 C   0  0  0  0  0  2  0  0  0  0  0  0
  -29.0870  -18.1250   17.0130 O   0  0  0  0  0  0  0  0  0  0  0  0
  -28.2920  -16.9420   16.9340 C   0  0  0  0  0  2  0  0  0  0  0  0
  -27.1480  -16.9030   17.9600 C   0  0  0  0  0  2  0  0  0  0  0  0
  -26.2370  -17.9670   17.6930 O   0  0  0  0  0  0  0  0  0  0  0  0
  -25.0350  -17.9490   18.4630 C   0  0  0  0  0  2  0  0  0  0  0  0
  -25.1450  -18.6950   19.8090 C   0  0  0  0  0  2  0  0  0  0  0  0
  -26.0850  -18.0660   20.6710 O   0  0  0  0  0  0  0  0  0  0  0  0
  -26.1750  -18.6980   21.9430 C   0  0  0  0  0  2  0  0  0  0  0  0
  -27.2250  -17.9730   22.7850 C   0  0  0  0  0  2  0  0  0  0  0  0
  -28.4970  -18.2310   22.2080 O   0  0  0  0  0  0  0  0  0  0  0  0
  -29.4720  -17.2500   22.5220 C   0  0  0  0  0  2  0  0  0  0  0  0
  -29.2630  -16.0080   21.6410 C   0  0  0  0  0  2  0  0  0  0  0  0
  -30.7610  -14.3490   20.6690 C   0  0  0  0  0  0  0  0  0  0  0  0
  -30.4150  -12.2880   19.3730 C   0  0  0  0  0  2  0  0  0  0  0  0
  -29.4730  -12.5460   18.1800 C   0  0  0  0  0  2  0  0  0  0  0  0
  -27.9950  -12.3970   18.5940 C   0  0  0  0  0  2  0  0  0  0  0  0
  -27.6660  -13.1930   19.8860 C   0  0  0  0  0  3  0  0  0  0  0  0
  -28.7090  -12.8840   20.9840 C   0  0  0  0  0  2  0  0  0  0  0  0
  -30.0420  -13.2150   20.4500 N   0  0  0  0  0  0  0  0  0  0  0  0
  -31.7840  -14.6410   20.0520 O   0  0  0  0  0  0  0  0  0  0  0  0
  -30.3970  -15.0930   21.7170 N   0  0  0  0  0  0  0  0  0  0  0  0
  -31.2050  -15.5550   22.1020 H   0  0  0  0  0  0  0  0  0  0  0  0
  -25.2620  -13.8040   20.5880 C   0  0  0  0  0  0  0  0  0  0  0  0
  -24.1850  -13.0360   20.9210 C   0  0  0  0  0  0  0  0  0  0  0  0
  -24.6390  -11.6830   20.8750 C   0  0  0  0  0  0  0  0  0  0  0  0
  -26.3050  -12.9250   20.3460 N   0  0  0  0  0  0  0  0  0  0  0  0
  -25.9310  -11.6400   20.5730 N   0  0  0  0  0  0  0  0  0  0  0  0
  -23.9060  -10.4250   21.0400 C   0  0  0  0  0  0  0  0  0  0  0  0
  -24.3610   -9.4170   21.9170 C   0  0  0  0  0  3  0  0  0  0  0  0
  -23.6250   -8.2230   22.0770 C   0  0  0  0  0  3  0  0  0  0  0  0
  -22.4230   -8.0300   21.3570 C   0  0  0  0  0  0  0  0  0  0  0  0
  -21.9900   -9.0270   20.4630 C   0  0  0  0  0  3  0  0  0  0  0  0
  -22.7240  -10.2110   20.3030 C   0  0  0  0  0  3  0  0  0  0  0  0
  -21.6610   -6.8900   21.4270 O   0  0  0  0  0  0  0  0  0  0  0  0
  -21.6840   -6.0730   22.5290 C   0  0  0  0  0  0  0  0  0  0  0  0
  -21.4000   -6.5620   23.8230 C   0  0  0  0  0  3  0  0  0  0  0  0
  -21.3680   -5.6770   24.9200 C   0  0  0  0  0  3  0  0  0  0  0  0
  -21.6080   -4.3060   24.7260 C   0  0  0  0  0  0  0  0  0  0  0  0
  -21.8800   -3.8130   23.4370 C   0  0  0  0  0  3  0  0  0  0  0  0
  -21.9170   -4.6960   22.3420 C   0  0  0  0  0  0  0  0  0  0  0  0
  -22.1630   -4.2120   21.1010 F   0  0  0  0  0  0  0  0  0  0  0  0
  -21.5640   -3.4530   25.7770 F   0  0  0  0  0  0  0  0  0  0  0  0
  -22.7860  -13.5180   21.1830 C   0  0  0  0  0  0  0  0  0  0  0  0
  -22.0490  -12.8250   22.0400 N   0  0  0  0  0  0  0  0  0  0  0  0
  -22.3530  -14.5440   20.6570 O   0  0  0  0  0  0  0  0  0  0  0  0
  -22.4060  -11.9890   22.4750 H   0  0  0  0  0  0  0  0  0  0  0  0
  -21.1110  -13.1280   22.2630 H   0  0  0  0  0  0  0  0  0  0  0  0
  -25.4350  -15.1760   20.4610 N   0  0  0  0  0  0  0  0  0  0  0  0
  -24.6720  -15.8210   20.6300 H   0  0  0  0  0  0  0  0  0  0  0  0
  -26.3160  -15.6500   20.3450 H   0  0  0  0  0  0  0  0  0  0  0  0
  -34.8040  -22.1160   17.8840 O   0  0  0  0  0  0  0  0  0  0  0  0
  -35.1210  -21.5030   19.1300 C   0  0  0  0  0  2  0  0  0  0  0  0
  -34.6410  -22.2810   20.3720 C   0  0  0  0  0  2  0  0  0  0  0  0
  -34.9340  -21.4750   21.5030 O   0  0  0  0  0  0  0  0  0  0  0  0
  -34.5710  -22.0050   22.7750 C   0  0  0  0  0  2  0  0  0  0  0  0
  -33.0650  -22.2860   22.9230 C   0  0  0  0  0  2  0  0  0  0  0  0
  -32.3200  -21.2450   22.3010 O   0  0  0  0  0  0  0  0  0  0  0  0
  -30.9100  -21.4440   22.2670 C   0  0  0  0  0  2  0  0  0  0  0  0
  -30.4610  -22.7030   21.4980 C   0  0  0  0  0  2  0  0  0  0  0  0
  -31.0750  -22.7650   20.2090 O   0  0  0  0  0  0  0  0  0  0  0  0
  -30.7630  -23.9460   19.4700 C   0  0  0  0  0  2  0  0  0  0  0  0
  -31.7950  -25.0830   19.6640 C   0  0  0  0  0  2  0  0  0  0  0  0
  -31.9080  -25.4540   21.0340 O   0  0  0  0  0  0  0  0  0  0  0  0
  -32.7570  -26.5740   21.2920 C   0  0  0  0  0  2  0  0  0  0  0  0
  -31.9600  -27.6980   21.9980 C   0  0  0  0  0  2  0  0  0  0  0  0
  -31.9270  -27.6200   23.4230 O   0  0  0  0  0  0  0  0  0  0  0  0
  -31.3000  -26.4850   24.0240 C   0  0  0  0  0  2  0  0  0  0  0  0
  -29.8790  -26.7450   24.5680 C   0  0  0  0  0  2  0  0  0  0  0  0
  -28.8840  -26.1050   23.7770 O   0  0  0  0  0  0  0  0  0  0  0  0
  -28.4290  -26.8800   22.6840 C   0  0  0  0  0  2  0  0  0  0  0  0
  -28.5090  -26.0350   21.3970 C   0  0  0  0  0  2  0  0  0  0  0  0
  -28.3900  -26.7630   20.1700 O   0  0  0  0  0  0  0  0  0  0  0  0
  -24.6070  -31.8710   23.2140 C   0  0  0  0  0  0  0  0  0  0  0  0
  -27.2380  -27.4960   20.1010 C   0  0  0  0  0  0  0  0  0  0  0  0
  -23.3900  -30.4890   21.5550 C   0  0  0  0  0  3  0  0  0  0  0  0
  -24.8370  -28.9620   20.1130 C   0  0  0  0  0  0  0  0  0  0  0  0
  -25.9080  -30.8610   21.3490 C   0  0  0  0  0  2  0  0  0  0  0  0
  -25.9900  -29.5030   20.6920 C   0  0  0  0  0  0  0  0  0  0  0  0
  -27.1970  -28.7880   20.6640 C   0  0  0  0  0  3  0  0  0  0  0  0
  -26.0800  -26.9550   19.5110 C   0  0  0  0  0  3  0  0  0  0  0  0
  -24.8760  -27.6870   19.5140 C   0  0  0  0  0  3  0  0  0  0  0  0
  -23.5920  -29.8130   20.1700 C   0  0  0  0  0  2  0  0  0  0  0  0
  -24.6530  -31.0850   22.1000 N   0  0  0  0  0  0  0  0  0  0  0  0
  -23.5280  -32.1410   23.7590 O   0  0  0  0  0  0  0  0  0  0  0  0
  -22.7360  -29.4630   22.5060 C   0  0  0  0  0  0  0  0  0  0  0  0
  -21.4110  -29.3000   22.3810 N   0  0  0  0  0  0  0  0  0  0  0  0
  -23.4190  -28.8170   23.3060 O   0  0  0  0  0  0  0  0  0  0  0  0
  -20.9280  -29.8730   21.7030 H   0  0  0  0  0  0  0  0  0  0  0  0
  -18.0260  -28.1380   22.8510 C   0  0  0  0  0  0  0  0  0  0  0  0
  -20.5830  -28.3640   23.1370 C   0  0  0  0  0  3  0  0  0  0  0  0
  -20.6750  -26.9390   22.5430 C   0  0  0  0  0  2  0  0  0  0  0  0
  -19.5740  -26.6390   21.5220 C   0  0  0  0  0  2  0  0  0  0  0  0
  -18.1910  -26.7920   22.1630 C   0  0  0  0  0  2  0  0  0  0  0  0
  -19.1500  -28.8830   23.2920 C   0  0  0  0  0  0  0  0  0  0  0  0
  -18.9420  -30.1440   23.8940 C   0  0  0  0  0  3  0  0  0  0  0  0
  -17.6430  -30.6590   24.0560 C   0  0  0  0  0  3  0  0  0  0  0  0
  -16.5320  -29.9100   23.6310 C   0  0  0  0  0  3  0  0  0  0  0  0
  -16.7240  -28.6510   23.0350 C   0  0  0  0  0  3  0  0  0  0  0  0
  -25.8980  -32.4840   23.8400 C   0  0  0  0  0  3  0  0  0  0  0  0
  -26.4430  -31.6600   25.0700 C   0  0  1  0  0  0  0  0  0  0  0  0
  -25.3690  -31.3690   26.1450 C   0  0  0  0  0  1  0  0  0  0  0  0
  -27.0280  -30.3070   24.6010 C   0  0  0  0  0  1  0  0  0  0  0  0
  -27.6030  -32.4300   25.7440 C   0  0  0  0  0  1  0  0  0  0  0  0
  -25.5860  -33.8640   24.2350 N   0  0  0  0  0  0  0  0  0  0  0  0
  -25.9050  -34.9500   23.5150 C   0  0  0  0  0  0  0  0  0  0  0  0
  -26.5600  -34.8940   22.4720 O   0  0  0  0  0  0  0  0  0  0  0  0
  -25.0000  -33.9810   25.0470 H   0  0  0  0  0  0  0  0  0  0  0  0
  -24.1490  -36.7330   23.2640 C   0  0  0  0  0  1  0  0  0  0  0  0
  -25.4120  -36.3140   24.0340 C   0  0  0  0  0  3  0  0  0  0  0  0
  -27.5590  -37.1830   24.8470 C   0  0  0  0  0  1  0  0  0  0  0  0
  -26.4320  -37.3810   23.9390 N   0  0  0  0  0  0  0  0  0  0  0  0
  -26.0230  -38.2920   24.1340 H   0  0  0  0  0  0  0  0  0  0  0  0
  1 65  1  0
  2  1  1  0
  3  2  1  0
  4  3  1  0
  5  6  1  0
  5  4  1  0
  7  6  1  0
  7  8  1  0
  8  9  1  0
  9 10  1  0
 10 11  1  0
 11 12  1  0
 12 13  1  0
 14 13  1  0
 15 14  1  0
 16 15  1  0
 16 17  1  0
 18 17  1  0
 18 19  1  0
 19 20  1  0
 20 21  1  0
 21 22  1  0
 22 23  1  0
 24 25  1  0
 24 23  1  0
 26 35  1  0
 26 25  1  0
 27 35  1  0
 28 33  1  0
 29 30  1  0
 29 28  1  0
 31 30  1  0
 31 40  1  0
 31 32  1  0
 33 27  1  0
 33 32  1  0
 34 27  2  0
 35 36  1  0
 37 38  2  0
 38 57  1  0
 39 38  1  0
 39 42  1  0
 40 41  1  0
 40 37  1  0
 41 39  2  0
 42 43  1  0
 43 44  2  0
 45 48  1  0
 45 44  1  0
 46 45  2  0
 47 46  1  0
 47 42  2  0
 48 49  1  0
 49 50  1  0
 50 51  2  0
 52 51  1  0
 52 56  1  0
 53 52  2  0
 54 49  2  0
 54 53  1  0
 55 54  1  0
 57 58  1  0
 58 61  1  0
 58 60  1  0
 59 57  2  0
 62 37  1  0
 62 63  1  0
 64 62  1  0
 65 66  1  0
 66 67  1  0
 67 68  1  0
 68 69  1  0
 69 70  1  0
 71 70  1  0
 72 71  1  0
 73 72  1  0
 74 73  1  0
 75 76  1  0
 75 74  1  0
 76 77  1  0
 77 78  1  0
 78 79  1  0
 79 80  1  0
 80 81  1  0
 81 82  1  0
 83 82  1  0
 84 83  1  0
 85 84  1  0
 86 85  1  0
 87 98  2  0
 88 86  1  0
 88 93  1  0
 89 97  1  0
 89 99  1  0
 90 96  1  0
 90 92  1  0
 91 97  1  0
 92 91  1  0
 93 92  2  0
 94 95  1  0
 94 88  2  0
 95 90  2  0
 96 89  1  0
 97 87  1  0
 99101  2  0
100 99  1  0
102100  1  0
103112  2  0
103108  1  0
104100  1  0
104108  1  0
105104  1  0
106107  1  0
106105  1  0
107103  1  0
108109  2  0
109110  1  0
111110  2  0
112111  1  0
113 87  1  0
113118  1  0
113114  1  0
114117  1  1
114115  1  0
116114  1  0
118121  1  0
119123  1  0
119118  1  0
120119  2  0
123122  1  0
125123  1  0
125126  1  0
125124  1  0
M  ISO  4  27 100  35 100  85 101  86 101
M  END
>  <TORSDO>  (54) 
F 62

>  <SCORE>  (54) 
9.469

>  <name>  (54) 
68

>  <ligand_id>  (54) 
68

>  <original_smiles>  (54) 
[H]c1c([H])c([H])c2c(c1[H])C([H])([H])C([H])([H])C([H])([H])C2([H])N([H])C(=O)C1([H])N(C(=O)C([H])(N([H])C(=O)C([H])(N([H])C([H])([H])[H])C([H])([H])[H])C(C([H])([H])[H])(C([H])([H])[H])C([H])([H])[H])C([H])([H])c2c([H])c(OC([H])([H])C([H])([H])OC([H])([H])C([H])([H])OC([H])([H])C([H])([H])OC([H])([H])C([H])([H])OC([H])([H])C([H])([H])OC([H])([H])C([H])([H])OC([H])([H])C([H])([H])OC([H])([H])C([H])([H])OC([H])([H])C([H])([H])OC([H])([H])C([H])([H])OC([H])([H])C([H])([H])OC([H])([H])C([H])([H])OC([H])([H])C([H])([H])OC([H])([H])C([H])([H])OC([H])([H])C([H])([H])OC([H])([H])C([H])([H])N([H])C(=O)N3C([H])([H])C([H])([H])C([H])([H])C([H])(n4nc(-c5c([H])c([H])c(Oc6c([H])c([H])c(F)c([H])c6F)c([H])c5[H])c(C(=O)N([H])[H])c4N([H])[H])C3([H])[H])c([H])c([H])c2C1([H])[H]

>  <smiles>  (54) 
[H]c1c([H])c([H])c2c(c1[H])C([H])([H])C([H])([H])C([H])([H])C2([H])N([H])C(=O)C1([H])N(C(=O)C([H])(N([H])C(=O)C([H])(N([H])C([H])([H])[H])C([H])([H])[H])C(C([H])([H])[H])(C([H])([H])[H])C([H])([H])[H])C([H])([H])c2c([H])c(OC([H])([H])C([H])([H])OC([H])([H])C([H])([H])OC([H])([H])C([H])([H])OC([H])([H])C([H])([H])OC([H])([H])C([H])([H])OC([H])([H])C([H])([H])OC([H])([H])C([H])([H])OC([H])([H])C([H])([H])OC([H])([H])C([H])([H])OC([H])([H])C([H])([H])OC([H])([H])C([H])([H])OC([H])([H])C([H])([H])OC([H])([H])C([H])([H])OC([H])([H])C([H])([H])OC([H])([H])C([H])([H])OC([H])([H])C([H])([H])N([H])C(=O)N3C([H])([H])C([H])([H])C([H])([H])C([H])(n4nc(-c5c([H])c([H])c(Oc6c([H])c([H])c(F)c([H])c6F)c([H])c5[H])c(C(=O)N([H])[H])c4N([H])[H])C3([H])[H])c([H])c([H])c2C1([H])[H]

$$$$
69:0:0
     RDKit          3D

108115  0  0  1  0  0  0  0  0999 V2000
  -23.8340  -12.8920   16.2600 C   0  0  0  0  0  2  0  0  0  0  0  0
  -23.1090  -12.1960   17.4390 C   0  0  0  0  0  2  0  0  0  0  0  0
  -22.3860  -13.1010   18.2770 O   0  0  0  0  0  0  0  0  0  0  0  0
  -20.9460  -13.0950   18.2820 C   0  0  0  0  0  2  0  0  0  0  0  0
  -20.2650  -12.0290   19.1800 C   0  0  0  0  0  2  0  0  0  0  0  0
  -20.6600  -12.0800   20.5490 O   0  0  0  0  0  0  0  0  0  0  0  0
  -19.9980  -11.0900   21.3460 C   0  0  0  0  0  2  0  0  0  0  0  0
  -20.6290  -10.8100   22.7590 C   0  0  0  0  0  2  0  0  0  0  0  0
  -21.9780  -10.2980   22.8190 O   0  0  0  0  0  0  0  0  0  0  0  0
  -22.5670  -10.3970   24.1240 C   0  0  0  0  0  2  0  0  0  0  0  0
  -24.0830  -10.0660   24.1710 C   0  0  0  0  0  2  0  0  0  0  0  0
  -25.0200  -11.0100   23.6020 O   0  0  0  0  0  0  0  0  0  0  0  0
  -26.4010  -10.5470   23.6840 C   0  0  0  0  0  2  0  0  0  0  0  0
  -27.4750  -11.6080   23.2670 C   0  0  0  0  0  2  0  0  0  0  0  0
  -28.7910  -11.0900   22.9150 O   0  0  0  0  0  0  0  0  0  0  0  0
  -29.8540  -12.0790   22.7570 C   0  0  0  0  0  2  0  0  0  0  0  0
  -31.0600  -11.6490   21.8200 C   0  0  0  0  0  2  0  0  0  0  0  0
  -31.2020  -12.2290   19.2830 C   0  0  0  0  0  0  0  0  0  0  0  0
  -30.2460  -10.5640   17.7010 C   0  0  0  0  0  2  0  0  0  0  0  0
  -29.1470  -11.0800   16.7470 C   0  0  0  0  0  2  0  0  0  0  0  0
  -27.7670  -11.1970   17.4230 C   0  0  0  0  0  2  0  0  0  0  0  0
  -27.8510  -11.8940   18.7910 C   0  0  0  0  0  3  0  0  0  0  0  0
  -28.9320  -11.2160   19.6300 C   0  0  0  0  0  2  0  0  0  0  0  0
  -30.2360  -11.3370   18.9530 N   0  0  0  0  0  0  0  0  0  0  0  0
  -31.9960  -12.6890   18.4490 O   0  0  0  0  0  0  0  0  0  0  0  0
  -31.3430  -12.4950   20.6130 N   0  0  0  0  0  0  0  0  0  0  0  0
  -32.0380  -13.2090   20.7760 H   0  0  0  0  0  0  0  0  0  0  0  0
  -25.7890  -12.9300   19.9200 C   0  0  0  0  0  0  0  0  0  0  0  0
  -24.6590  -12.3700   20.4550 C   0  0  0  0  0  0  0  0  0  0  0  0
  -24.8190  -10.9480   20.3390 C   0  0  0  0  0  0  0  0  0  0  0  0
  -26.5690  -11.8750   19.4950 N   0  0  0  0  0  0  0  0  0  0  0  0
  -25.9980  -10.6810   19.7930 N   0  0  0  0  0  0  0  0  0  0  0  0
  -23.9360   -9.8030   20.6140 C   0  0  0  0  0  0  0  0  0  0  0  0
  -24.3910   -8.6450   21.2780 C   0  0  0  0  0  3  0  0  0  0  0  0
  -23.5080   -7.5740   21.5530 C   0  0  0  0  0  3  0  0  0  0  0  0
  -22.1610   -7.6520   21.1240 C   0  0  0  0  0  0  0  0  0  0  0  0
  -21.7450   -8.7540   20.3680 C   0  0  0  0  0  3  0  0  0  0  0  0
  -22.6150   -9.8260   20.1280 C   0  0  0  0  0  3  0  0  0  0  0  0
  -21.2200   -6.6710   21.3090 O   0  0  0  0  0  0  0  0  0  0  0  0
  -21.2600   -5.8330   22.3940 C   0  0  0  0  0  0  0  0  0  0  0  0
  -21.2730   -6.3170   23.7200 C   0  0  0  0  0  3  0  0  0  0  0  0
  -21.2390   -5.4090   24.7960 C   0  0  0  0  0  3  0  0  0  0  0  0
  -21.2000   -4.0240   24.5560 C   0  0  0  0  0  0  0  0  0  0  0  0
  -21.1790   -3.5380   23.2350 C   0  0  0  0  0  3  0  0  0  0  0  0
  -21.1930   -4.4410   22.1580 C   0  0  0  0  0  0  0  0  0  0  0  0
  -21.1540   -3.9780   20.8840 F   0  0  0  0  0  0  0  0  0  0  0  0
  -21.1550   -3.1650   25.6000 F   0  0  0  0  0  0  0  0  0  0  0  0
  -23.5060  -13.1640   20.9710 C   0  0  0  0  0  0  0  0  0  0  0  0
  -22.9310  -12.7110   22.0560 N   0  0  0  0  0  0  0  0  0  0  0  0
  -23.1720  -14.2590   20.5260 O   0  0  0  0  0  0  0  0  0  0  0  0
  -23.1860  -11.8050   22.4280 H   0  0  0  0  0  0  0  0  0  0  0  0
  -22.2220  -13.2780   22.4930 H   0  0  0  0  0  0  0  0  0  0  0  0
  -26.1980  -14.2420   19.7670 N   0  0  0  0  0  0  0  0  0  0  0  0
  -25.5490  -14.9910   19.9780 H   0  0  0  0  0  0  0  0  0  0  0  0
  -27.0080  -14.5390   19.2320 H   0  0  0  0  0  0  0  0  0  0  0  0
  -24.8920  -13.7810   16.6620 O   0  0  0  0  0  0  0  0  0  0  0  0
  -25.6150  -14.2930   15.5310 C   0  0  0  0  0  2  0  0  0  0  0  0
  -26.8040  -15.2250   15.8690 C   0  0  0  0  0  2  0  0  0  0  0  0
  -26.4020  -16.5490   16.2410 O   0  0  0  0  0  0  0  0  0  0  0  0
  -27.4980  -17.4080   16.5840 C   0  0  0  0  0  2  0  0  0  0  0  0
  -26.9830  -18.8330   16.8920 C   0  0  0  0  0  2  0  0  0  0  0  0
  -28.0640  -19.8380   17.3560 C   0  0  0  0  0  2  0  0  0  0  0  0
  -27.4890  -21.2420   17.6660 C   0  0  0  0  0  2  0  0  0  0  0  0
  -28.5500  -22.2280   18.1900 C   0  0  0  0  0  2  0  0  0  0  0  0
  -28.0390  -23.6730   18.3780 C   0  0  0  0  0  2  0  0  0  0  0  0
  -29.1470  -24.6000   18.9220 C   0  0  0  0  0  2  0  0  0  0  0  0
  -28.8840  -26.1140   18.7660 C   0  0  0  0  0  2  0  0  0  0  0  0
  -28.4610  -26.7410   19.9820 O   0  0  0  0  0  0  0  0  0  0  0  0
  -24.6320  -31.9050   23.0420 C   0  0  0  0  0  0  0  0  0  0  0  0
  -27.2920  -27.4680   19.9560 C   0  0  0  0  0  0  0  0  0  0  0  0
  -23.4450  -30.5380   21.3560 C   0  0  0  0  0  3  0  0  0  0  0  0
  -24.9100  -28.9880   19.9530 C   0  0  0  0  0  0  0  0  0  0  0  0
  -25.9770  -30.8620   21.2190 C   0  0  0  0  0  2  0  0  0  0  0  0
  -26.0580  -29.4920   20.5760 C   0  0  0  0  0  0  0  0  0  0  0  0
  -27.2470  -28.7300   20.5900 C   0  0  0  0  0  3  0  0  0  0  0  0
  -26.1230  -26.9680   19.3430 C   0  0  0  0  0  3  0  0  0  0  0  0
  -24.9330  -27.7210   19.3430 C   0  0  0  0  0  3  0  0  0  0  0  0
  -23.6770  -29.8660   19.9760 C   0  0  0  0  0  2  0  0  0  0  0  0
  -24.7020  -31.1140   21.9330 N   0  0  0  0  0  0  0  0  0  0  0  0
  -23.5420  -32.1900   23.5570 O   0  0  0  0  0  0  0  0  0  0  0  0
  -22.7530  -29.5200   22.2880 C   0  0  0  0  0  0  0  0  0  0  0  0
  -21.4280  -29.3680   22.1280 N   0  0  0  0  0  0  0  0  0  0  0  0
  -23.4040  -28.8690   23.1090 O   0  0  0  0  0  0  0  0  0  0  0  0
  -20.9660  -29.9440   21.4390 H   0  0  0  0  0  0  0  0  0  0  0  0
  -18.0220  -28.2270   22.5110 C   0  0  0  0  0  0  0  0  0  0  0  0
  -20.5740  -28.4380   22.8640 C   0  0  0  0  0  3  0  0  0  0  0  0
  -20.6700  -27.0100   22.2770 C   0  0  0  0  0  2  0  0  0  0  0  0
  -19.5940  -26.7160   21.2270 C   0  0  0  0  0  2  0  0  0  0  0  0
  -18.1960  -26.8800   21.8310 C   0  0  0  0  0  2  0  0  0  0  0  0
  -19.1400  -28.9650   22.9820 C   0  0  0  0  0  0  0  0  0  0  0  0
  -18.9260  -30.2290   23.5740 C   0  0  0  0  0  3  0  0  0  0  0  0
  -17.6250  -30.7540   23.7020 C   0  0  0  0  0  3  0  0  0  0  0  0
  -16.5210  -30.0120   23.2480 C   0  0  0  0  0  3  0  0  0  0  0  0
  -16.7200  -28.7500   22.6580 C   0  0  0  0  0  3  0  0  0  0  0  0
  -25.9110  -32.5080   23.7020 C   0  0  0  0  0  3  0  0  0  0  0  0
  -26.4160  -31.6800   24.9470 C   0  0  1  0  0  0  0  0  0  0  0  0
  -25.3160  -31.4000   25.9980 C   0  0  0  0  0  1  0  0  0  0  0  0
  -26.9940  -30.3190   24.4920 C   0  0  0  0  0  1  0  0  0  0  0  0
  -27.5670  -32.4370   25.6500 C   0  0  0  0  0  1  0  0  0  0  0  0
  -25.6020  -33.8910   24.0880 N   0  0  0  0  0  0  0  0  0  0  0  0
  -25.9440  -34.9720   23.3760 C   0  0  0  0  0  0  0  0  0  0  0  0
  -26.6240  -34.9100   22.3480 O   0  0  0  0  0  0  0  0  0  0  0  0
  -25.0010  -34.0130   24.8910 H   0  0  0  0  0  0  0  0  0  0  0  0
  -24.2150  -36.7750   23.0830 C   0  0  0  0  0  1  0  0  0  0  0  0
  -25.4530  -36.3410   23.8840 C   0  0  0  0  0  3  0  0  0  0  0  0
  -27.5900  -37.1890   24.7480 C   0  0  0  0  0  1  0  0  0  0  0  0
  -26.4850  -37.3990   23.8160 N   0  0  0  0  0  0  0  0  0  0  0  0
  -26.0800  -38.3110   24.0050 H   0  0  0  0  0  0  0  0  0  0  0  0
  1 56  1  0
  1  2  1  0
  2  3  1  0
  3  4  1  0
  4  5  1  0
  5  6  1  0
  6  7  1  0
  7  8  1  0
  8  9  1  0
  9 10  1  0
 10 11  1  0
 12 13  1  0
 12 11  1  0
 14 13  1  0
 15 14  1  0
 16 15  1  0
 17 16  1  0
 18 26  1  0
 19 24  1  0
 20 21  1  0
 20 19  1  0
 22 21  1  0
 22 31  1  0
 22 23  1  0
 24 18  1  0
 24 23  1  0
 25 18  2  0
 26 27  1  0
 26 17  1  0
 28 29  2  0
 29 48  1  0
 30 29  1  0
 30 33  1  0
 31 32  1  0
 31 28  1  0
 32 30  2  0
 33 34  1  0
 34 35  2  0
 36 39  1  0
 36 35  1  0
 37 36  2  0
 38 37  1  0
 38 33  2  0
 39 40  1  0
 40 41  1  0
 41 42  2  0
 43 42  1  0
 43 47  1  0
 44 43  2  0
 45 40  2  0
 45 44  1  0
 46 45  1  0
 48 49  1  0
 49 51  1  0
 49 52  1  0
 50 48  2  0
 53 28  1  0
 53 54  1  0
 55 53  1  0
 57 58  1  0
 57 56  1  0
 58 59  1  0
 59 60  1  0
 60 61  1  0
 61 62  1  0
 62 63  1  0
 63 64  1  0
 64 65  1  0
 65 66  1  0
 67 66  1  0
 67 68  1  0
 69 80  2  0
 70 68  1  0
 70 75  1  0
 71 79  1  0
 71 81  1  0
 72 78  1  0
 72 74  1  0
 73 79  1  0
 74 75  2  0
 74 73  1  0
 76 77  1  0
 76 70  2  0
 77 72  2  0
 78 71  1  0
 79 69  1  0
 81 83  2  0
 82 81  1  0
 84 82  1  0
 85 94  2  0
 85 90  1  0
 86 82  1  0
 86 90  1  0
 87 86  1  0
 88 89  1  0
 88 87  1  0
 89 85  1  0
 90 91  2  0
 91 92  1  0
 93 92  2  0
 94 93  1  0
 95 69  1  0
 95100  1  0
 95 96  1  0
 96 99  1  1
 96 97  1  0
 98 96  1  0
100103  1  0
101105  1  0
101100  1  0
102101  2  0
105104  1  0
107105  1  0
107108  1  0
107106  1  0
M  ISO  4  18 100  26 100  67 101  68 101
M  END
>  <TORSDO>  (55) 
F 44

>  <SCORE>  (55) 
38.411

>  <name>  (55) 
69

>  <ligand_id>  (55) 
69

>  <original_smiles>  (55) 
[H]c1c([H])c([H])c2c(c1[H])C([H])([H])C([H])([H])C([H])([H])C2([H])N([H])C(=O)C1([H])N(C(=O)C([H])(N([H])C(=O)C([H])(N([H])C([H])([H])[H])C([H])([H])[H])C(C([H])([H])[H])(C([H])([H])[H])C([H])([H])[H])C([H])([H])c2c([H])c(OC([H])([H])C([H])([H])C([H])([H])C([H])([H])C([H])([H])C([H])([H])C([H])([H])C([H])([H])OC([H])([H])C([H])([H])OC([H])([H])C([H])([H])OC([H])([H])C([H])([H])OC([H])([H])C([H])([H])OC([H])([H])C([H])([H])OC([H])([H])C([H])([H])OC([H])([H])C([H])([H])N([H])C(=O)N3C([H])([H])C([H])([H])C([H])([H])C([H])(n4nc(-c5c([H])c([H])c(Oc6c([H])c([H])c(F)c([H])c6F)c([H])c5[H])c(C(=O)N([H])[H])c4N([H])[H])C3([H])[H])c([H])c([H])c2C1([H])[H]

>  <smiles>  (55) 
[H]c1c([H])c([H])c2c(c1[H])C([H])([H])C([H])([H])C([H])([H])C2([H])N([H])C(=O)C1([H])N(C(=O)C([H])(N([H])C(=O)C([H])(N([H])C([H])([H])[H])C([H])([H])[H])C(C([H])([H])[H])(C([H])([H])[H])C([H])([H])[H])C([H])([H])c2c([H])c(OC([H])([H])C([H])([H])C([H])([H])C([H])([H])C([H])([H])C([H])([H])C([H])([H])C([H])([H])OC([H])([H])C([H])([H])OC([H])([H])C([H])([H])OC([H])([H])C([H])([H])OC([H])([H])C([H])([H])OC([H])([H])C([H])([H])OC([H])([H])C([H])([H])OC([H])([H])C([H])([H])N([H])C(=O)N3C([H])([H])C([H])([H])C([H])([H])C([H])(n4nc(-c5c([H])c([H])c(Oc6c([H])c([H])c(F)c([H])c6F)c([H])c5[H])c(C(=O)N([H])[H])c4N([H])[H])C3([H])[H])c([H])c([H])c2C1([H])[H]

$$$$
70:0:0
     RDKit          3D

107114  0  0  1  0  0  0  0  0999 V2000
  -24.0450  -21.6030   23.7890 C   0  0  0  0  0  2  0  0  0  0  0  0
  -24.8650  -20.9270   24.7310 O   0  0  0  0  0  0  0  0  0  0  0  0
  -25.8560  -21.7620   25.3170 C   0  0  0  0  0  2  0  0  0  0  0  0
  -27.2700  -21.3560   24.8670 C   0  0  0  0  0  2  0  0  0  0  0  0
  -27.4900  -21.5000   23.4620 O   0  0  0  0  0  0  0  0  0  0  0  0
  -28.8890  -21.5160   23.1530 C   0  0  0  0  0  2  0  0  0  0  0  0
  -29.3250  -20.3660   22.2270 C   0  0  0  0  0  2  0  0  0  0  0  0
  -29.0650  -20.6520   20.8480 O   0  0  0  0  0  0  0  0  0  0  0  0
  -30.0920  -20.1660   19.9780 C   0  0  0  0  0  2  0  0  0  0  0  0
  -29.6100  -20.1540   18.5190 C   0  0  0  0  0  2  0  0  0  0  0  0
  -28.4880  -19.2860   18.3500 O   0  0  0  0  0  0  0  0  0  0  0  0
  -28.7430  -18.1160   17.5690 C   0  0  0  0  0  2  0  0  0  0  0  0
  -28.8750  -16.8380   18.4120 C   0  0  0  0  0  2  0  0  0  0  0  0
  -29.9030  -16.9770   19.3800 O   0  0  0  0  0  0  0  0  0  0  0  0
  -30.3670  -15.7310   19.8610 C   0  0  0  0  0  2  0  0  0  0  0  0
  -31.1240  -15.9150   21.1880 C   0  0  0  0  0  2  0  0  0  0  0  0
  -32.8330  -14.1400   21.1260 C   0  0  0  0  0  0  0  0  0  0  0  0
  -33.7470  -12.0990   20.1090 C   0  0  0  0  0  2  0  0  0  0  0  0
  -32.9280  -11.7790   18.8410 C   0  0  0  0  0  2  0  0  0  0  0  0
  -31.6810  -10.9420   19.1950 C   0  0  0  0  0  2  0  0  0  0  0  0
  -30.8660  -11.5440   20.3730 C   0  0  0  0  0  3  0  0  0  0  0  0
  -31.8060  -11.8850   21.5550 C   0  0  0  0  0  2  0  0  0  0  0  0
  -32.8600  -12.7880   21.0550 N   0  0  0  0  0  0  0  0  0  0  0  0
  -33.6930  -14.8760   20.6300 O   0  0  0  0  0  0  0  0  0  0  0  0
  -31.6940  -14.6390   21.6080 N   0  0  0  0  0  0  0  0  0  0  0  0
  -31.0530  -13.9690   22.0120 H   0  0  0  0  0  0  0  0  0  0  0  0
  -28.4120  -10.8260   20.7070 C   0  0  0  0  0  0  0  0  0  0  0  0
  -27.8530   -9.6670   21.1660 C   0  0  0  0  0  0  0  0  0  0  0  0
  -28.9480   -8.8100   21.5040 C   0  0  0  0  0  0  0  0  0  0  0  0
  -29.7850  -10.6510   20.7850 N   0  0  0  0  0  0  0  0  0  0  0  0
  -30.0990   -9.4420   21.3180 N   0  0  0  0  0  0  0  0  0  0  0  0
  -28.9680   -7.4100   21.9390 C   0  0  0  0  0  0  0  0  0  0  0  0
  -29.6960   -6.9990   23.0770 C   0  0  0  0  0  3  0  0  0  0  0  0
  -29.6860   -5.6480   23.4860 C   0  0  0  0  0  3  0  0  0  0  0  0
  -28.9420   -4.6910   22.7560 C   0  0  0  0  0  0  0  0  0  0  0  0
  -28.2370   -5.1010   21.6100 C   0  0  0  0  0  3  0  0  0  0  0  0
  -28.2540   -6.4450   21.2020 C   0  0  0  0  0  3  0  0  0  0  0  0
  -28.8950   -3.3540   23.0630 O   0  0  0  0  0  0  0  0  0  0  0  0
  -29.0910   -2.9020   24.3430 C   0  0  0  0  0  0  0  0  0  0  0  0
  -28.3600   -3.4210   25.4350 C   0  0  0  0  0  3  0  0  0  0  0  0
  -28.5400   -2.8770   26.7230 C   0  0  0  0  0  3  0  0  0  0  0  0
  -29.4410   -1.8160   26.9210 C   0  0  0  0  0  0  0  0  0  0  0  0
  -30.1680   -1.2970   25.8350 C   0  0  0  0  0  3  0  0  0  0  0  0
  -29.9890   -1.8370   24.5490 C   0  0  0  0  0  0  0  0  0  0  0  0
  -30.6760   -1.3190   23.5020 F   0  0  0  0  0  0  0  0  0  0  0  0
  -29.6090   -1.2890   28.1570 F   0  0  0  0  0  0  0  0  0  0  0  0
  -26.3910   -9.3270   21.2070 C   0  0  0  0  0  0  0  0  0  0  0  0
  -25.9830   -8.4920   22.1530 N   0  0  0  0  0  0  0  0  0  0  0  0
  -25.5930   -9.8470   20.4280 O   0  0  0  0  0  0  0  0  0  0  0  0
  -26.6390   -8.0800   22.8020 H   0  0  0  0  0  0  0  0  0  0  0  0
  -25.0030   -8.2670   22.2350 H   0  0  0  0  0  0  0  0  0  0  0  0
  -27.8670  -12.0120   20.2180 N   0  0  0  0  0  0  0  0  0  0  0  0
  -26.8660  -12.1440   20.1340 H   0  0  0  0  0  0  0  0  0  0  0  0
  -28.4000  -12.7940   19.8640 H   0  0  0  0  0  0  0  0  0  0  0  0
  -23.4940  -20.5770   22.7800 C   0  0  0  0  0  2  0  0  0  0  0  0
  -23.9550  -20.8310   21.4560 O   0  0  0  0  0  0  0  0  0  0  0  0
  -23.2750  -21.8960   20.8020 C   0  0  0  0  0  2  0  0  0  0  0  0
  -23.8250  -22.0640   19.3730 C   0  0  0  0  0  2  0  0  0  0  0  0
  -24.6160  -23.2430   19.2890 O   0  0  0  0  0  0  0  0  0  0  0  0
  -25.9880  -23.0710   19.6230 C   0  0  0  0  0  2  0  0  0  0  0  0
  -26.4510  -24.2830   20.4530 C   0  0  0  0  0  2  0  0  0  0  0  0
  -27.5310  -25.0670   19.8040 N   0  0  0  0  0  4  0  0  0  0  0  0
  -28.2910  -24.4310   19.5700 H   0  0  0  0  0  0  0  0  0  0  0  0
  -27.1660  -25.4400   18.9380 H   0  0  0  0  0  0  0  0  0  0  0  0
  -28.0740  -26.1750   20.6390 C   0  0  0  0  0  2  0  0  0  0  0  0
  -28.9530  -27.1730   19.8190 C   0  0  0  0  0  2  0  0  0  0  0  0
  -28.9600  -28.5160   20.3260 O   0  0  0  0  0  0  0  0  0  0  0  0
  -25.1260  -32.9720   24.2790 C   0  0  0  0  0  0  0  0  0  0  0  0
  -27.7630  -29.2030   20.4200 C   0  0  0  0  0  0  0  0  0  0  0  0
  -23.8930  -31.8240   22.4650 C   0  0  0  0  0  3  0  0  0  0  0  0
  -25.3290  -30.5900   20.7760 C   0  0  0  0  0  0  0  0  0  0  0  0
  -26.3940  -32.3000   22.2460 C   0  0  0  0  0  2  0  0  0  0  0  0
  -26.4940  -31.0540   21.3950 C   0  0  0  0  0  0  0  0  0  0  0  0
  -27.7140  -30.3620   21.2220 C   0  0  0  0  0  3  0  0  0  0  0  0
  -26.5750  -28.7700   19.7810 C   0  0  0  0  0  3  0  0  0  0  0  0
  -25.3560  -29.4380   19.9760 C   0  0  0  0  0  3  0  0  0  0  0  0
  -24.0790  -31.3950   20.9850 C   0  0  0  0  0  2  0  0  0  0  0  0
  -25.1580  -32.3730   23.0580 N   0  0  0  0  0  0  0  0  0  0  0  0
  -24.0600  -33.1120   24.8930 O   0  0  0  0  0  0  0  0  0  0  0  0
  -23.3010  -30.6350   23.2610 C   0  0  0  0  0  0  0  0  0  0  0  0
  -22.0100  -30.3380   23.0290 N   0  0  0  0  0  0  0  0  0  0  0  0
  -24.0020  -29.9890   24.0450 O   0  0  0  0  0  0  0  0  0  0  0  0
  -21.5010  -30.9080   22.3690 H   0  0  0  0  0  0  0  0  0  0  0  0
  -18.8080  -28.6730   23.0580 C   0  0  0  0  0  0  0  0  0  0  0  0
  -21.2530  -29.2570   23.6620 C   0  0  0  0  0  3  0  0  0  0  0  0
  -21.6170  -27.8790   23.0630 C   0  0  0  0  0  2  0  0  0  0  0  0
  -20.7140  -27.4840   21.8880 C   0  0  0  0  0  2  0  0  0  0  0  0
  -19.2500  -27.4130   22.3310 C   0  0  0  0  0  2  0  0  0  0  0  0
  -19.7480  -29.5470   23.6670 C   0  0  0  0  0  0  0  0  0  0  0  0
  -19.2850  -30.7200   24.2990 C   0  0  0  0  0  3  0  0  0  0  0  0
  -17.9120  -31.0270   24.3320 C   0  0  0  0  0  3  0  0  0  0  0  0
  -16.9860  -30.1500   23.7450 C   0  0  0  0  0  3  0  0  0  0  0  0
  -17.4330  -28.9770   23.1120 C   0  0  0  0  0  3  0  0  0  0  0  0
  -26.4220  -33.5360   24.9480 C   0  0  0  0  0  3  0  0  0  0  0  0
  -26.9660  -32.6180   26.1120 C   0  0  1  0  0  0  0  0  0  0  0  0
  -25.8930  -32.2430   27.1580 C   0  0  0  0  0  1  0  0  0  0  0  0
  -27.5430  -31.3040   25.5400 C   0  0  0  0  0  1  0  0  0  0  0  0
  -28.1290  -33.3270   26.8450 C   0  0  0  0  0  1  0  0  0  0  0  0
  -26.1130  -34.8810   25.4440 N   0  0  0  0  0  0  0  0  0  0  0  0
  -26.4420  -36.0160   24.8130 C   0  0  0  0  0  0  0  0  0  0  0  0
  -27.1140  -36.0370   23.7780 O   0  0  0  0  0  0  0  0  0  0  0  0
  -25.5300  -34.9380   26.2690 H   0  0  0  0  0  0  0  0  0  0  0  0
  -24.7240  -37.8360   24.6700 C   0  0  0  0  0  1  0  0  0  0  0  0
  -25.9590  -37.3380   25.4330 C   0  0  0  0  0  3  0  0  0  0  0  0
  -28.0930  -38.1110   26.3680 C   0  0  0  0  0  1  0  0  0  0  0  0
  -26.9910  -38.3950   25.4500 N   0  0  0  0  0  0  0  0  0  0  0  0
  -26.5840  -39.2880   25.7120 H   0  0  0  0  0  0  0  0  0  0  0  0
  1  2  1  0
  2  3  1  0
  4  3  1  0
  5  4  1  0
  6  5  1  0
  7  6  1  0
  8  7  1  0
  9  8  1  0
 10  9  1  0
 11 10  1  0
 12 11  1  0
 12 13  1  0
 13 14  1  0
 14 15  1  0
 15 16  1  0
 16 25  1  0
 17 25  1  0
 18 23  1  0
 19 20  1  0
 19 18  1  0
 21 20  1  0
 21 30  1  0
 21 22  1  0
 23 17  1  0
 23 22  1  0
 24 17  2  0
 25 26  1  0
 27 30  1  0
 27 28  2  0
 28 47  1  0
 28 29  1  0
 29 32  1  0
 30 31  1  0
 31 29  2  0
 32 33  1  0
 33 34  2  0
 35 38  1  0
 35 34  1  0
 36 35  2  0
 37 36  1  0
 37 32  2  0
 38 39  1  0
 39 44  2  0
 39 40  1  0
 40 41  2  0
 41 42  1  0
 42 46  1  0
 43 42  2  0
 44 43  1  0
 45 44  1  0
 47 48  1  0
 48 51  1  0
 48 50  1  0
 49 47  2  0
 52 27  1  0
 53 52  1  0
 54 52  1  0
 55  1  1  0
 56 55  1  0
 57 56  1  0
 58 57  1  0
 59 58  1  0
 59 60  1  0
 60 61  1  0
 62 61  1  0
 62 65  1  0
 63 62  1  0
 64 62  1  0
 66 67  1  0
 66 65  1  0
 67 69  1  0
 68 79  2  0
 69 74  1  0
 70 78  1  0
 70 80  1  0
 71 77  1  0
 71 73  1  0
 72 78  1  0
 73 72  1  0
 74 73  2  0
 75 76  1  0
 75 69  2  0
 76 71  2  0
 77 70  1  0
 78 68  1  0
 80 82  2  0
 81 80  1  0
 83 81  1  0
 84 93  2  0
 84 89  1  0
 85 81  1  0
 85 89  1  0
 86 85  1  0
 87 88  1  0
 87 86  1  0
 88 84  1  0
 89 90  2  0
 90 91  1  0
 92 91  2  0
 93 92  1  0
 94 68  1  0
 94 99  1  0
 94 95  1  0
 95 98  1  1
 95 96  1  0
 97 95  1  0
 99102  1  0
100104  1  0
100 99  1  0
101100  2  0
104103  1  0
104106  1  0
106107  1  0
106105  1  0
M  ISO  4  17 100  25 100  66 101  67 101
M  END
>  <TORSDO>  (56) 
F 41

>  <SCORE>  (56) 
36.107

>  <name>  (56) 
70

>  <ligand_id>  (56) 
70

>  <original_smiles>  (56) 
[H]c1c([H])c([H])c2c(c1[H])C([H])([H])C([H])([H])C([H])([H])C2([H])N([H])C(=O)C1([H])N(C(=O)C([H])(N([H])C(=O)C([H])(N([H])C([H])([H])[H])C([H])([H])[H])C(C([H])([H])[H])(C([H])([H])[H])C([H])([H])[H])C([H])([H])c2c([H])c(OC([H])([H])C([H])([H])[N+]([H])([H])C([H])([H])C([H])([H])OC([H])([H])C([H])([H])OC([H])([H])C([H])([H])OC([H])([H])C([H])([H])OC([H])([H])C([H])([H])OC([H])([H])C([H])([H])OC([H])([H])C([H])([H])OC([H])([H])C([H])([H])N([H])C(=O)N3C([H])([H])C([H])([H])C([H])([H])C([H])(n4nc(-c5c([H])c([H])c(Oc6c([H])c([H])c(F)c([H])c6F)c([H])c5[H])c(C(=O)N([H])[H])c4N([H])[H])C3([H])[H])c([H])c([H])c2C1([H])[H]

>  <smiles>  (56) 
[H]c1c([H])c([H])c2c(c1[H])C([H])([H])C([H])([H])C([H])([H])C2([H])N([H])C(=O)C1([H])N(C(=O)C([H])(N([H])C(=O)C([H])(N([H])C([H])([H])[H])C([H])([H])[H])C(C([H])([H])[H])(C([H])([H])[H])C([H])([H])[H])C([H])([H])c2c([H])c(OC([H])([H])C([H])([H])[N+]([H])([H])C([H])([H])C([H])([H])OC([H])([H])C([H])([H])OC([H])([H])C([H])([H])OC([H])([H])C([H])([H])OC([H])([H])C([H])([H])OC([H])([H])C([H])([H])OC([H])([H])C([H])([H])OC([H])([H])C([H])([H])N([H])C(=O)N3C([H])([H])C([H])([H])C([H])([H])C([H])(n4nc(-c5c([H])c([H])c(Oc6c([H])c([H])c(F)c([H])c6F)c([H])c5[H])c(C(=O)N([H])[H])c4N([H])[H])C3([H])[H])c([H])c([H])c2C1([H])[H]

$$$$
71:0:0
     RDKit          3D

111118  0  0  1  0  0  0  0  0999 V2000
  -23.0920  -16.6390   26.0170 O   0  0  0  0  0  0  0  0  0  0  0  0
  -22.4310  -15.6580   25.2320 C   0  0  0  0  0  2  0  0  0  0  0  0
  -23.4880  -14.8120   24.5010 C   0  0  0  0  0  2  0  0  0  0  0  0
  -23.7440  -15.3530   23.2100 O   0  0  0  0  0  0  0  0  0  0  0  0
  -24.3270  -14.4350   22.2880 C   0  0  0  0  0  2  0  0  0  0  0  0
  -25.8470  -14.6670   22.1910 C   0  0  0  0  0  2  0  0  0  0  0  0
  -26.1800  -14.8330   20.8180 O   0  0  0  0  0  0  0  0  0  0  0  0
  -27.5400  -15.1660   20.5680 C   0  0  0  0  0  2  0  0  0  0  0  0
  -27.8890  -14.6990   19.1460 C   0  0  0  0  0  2  0  0  0  0  0  0
  -28.6530  -13.5070   19.2240 O   0  0  0  0  0  0  0  0  0  0  0  0
  -29.0610  -13.0040   17.9570 C   0  0  0  0  0  2  0  0  0  0  0  0
  -30.0700  -11.8810   18.2190 C   0  0  0  0  0  2  0  0  0  0  0  0
  -31.2930  -12.5090   18.5780 O   0  0  0  0  0  0  0  0  0  0  0  0
  -32.4240  -11.6490   18.5720 C   0  0  0  0  0  2  0  0  0  0  0  0
  -33.5610  -12.4160   19.2550 C   0  0  0  0  0  2  0  0  0  0  0  0
  -33.3930  -12.2890   20.6620 O   0  0  0  0  0  0  0  0  0  0  0  0
  -34.5870  -12.5310   21.3880 C   0  0  0  0  0  2  0  0  0  0  0  0
  -34.4240  -11.9980   22.8260 C   0  0  0  0  0  2  0  0  0  0  0  0
  -33.6420   -9.6420   22.6510 C   0  0  0  0  0  0  0  0  0  0  0  0
  -32.6230   -7.4180   22.3640 C   0  0  0  0  0  2  0  0  0  0  0  0
  -31.9840   -7.2850   20.9700 C   0  0  0  0  0  2  0  0  0  0  0  0
  -30.5390   -7.8140   20.9810 C   0  0  0  0  0  2  0  0  0  0  0  0
  -30.4230   -9.2200   21.6290 C   0  0  0  0  0  3  0  0  0  0  0  0
  -31.1660   -9.2650   22.9830 C   0  0  0  0  0  2  0  0  0  0  0  0
  -32.5590   -8.8310   22.7630 N   0  0  0  0  0  0  0  0  0  0  0  0
  -34.7600   -9.2390   22.3220 O   0  0  0  0  0  0  0  0  0  0  0  0
  -33.4260  -10.9330   22.9210 N   0  0  0  0  0  0  0  0  0  0  0  0
  -32.4880  -11.1980   23.1820 H   0  0  0  0  0  0  0  0  0  0  0  0
  -28.4810  -10.9000   21.8130 C   0  0  0  0  0  0  0  0  0  0  0  0
  -27.1250  -10.7280   21.8760 C   0  0  0  0  0  0  0  0  0  0  0  0
  -26.9050   -9.3160   21.8540 C   0  0  0  0  0  0  0  0  0  0  0  0
  -29.0250   -9.6260   21.7660 N   0  0  0  0  0  0  0  0  0  0  0  0
  -28.0640   -8.6700   21.8420 N   0  0  0  0  0  0  0  0  0  0  0  0
  -25.6580   -8.5440   21.7860 C   0  0  0  0  0  0  0  0  0  0  0  0
  -25.2060   -7.7720   22.8800 C   0  0  0  0  0  3  0  0  0  0  0  0
  -23.9950   -7.0520   22.7960 C   0  0  0  0  0  3  0  0  0  0  0  0
  -23.2200   -7.1010   21.6120 C   0  0  0  0  0  0  0  0  0  0  0  0
  -23.6870   -7.8510   20.5190 C   0  0  0  0  0  3  0  0  0  0  0  0
  -24.8940   -8.5640   20.6030 C   0  0  0  0  0  3  0  0  0  0  0  0
  -22.0450   -6.4120   21.4320 O   0  0  0  0  0  0  0  0  0  0  0  0
  -21.0780   -6.3710   22.4040 C   0  0  0  0  0  0  0  0  0  0  0  0
  -20.5720   -7.5450   23.0030 C   0  0  0  0  0  3  0  0  0  0  0  0
  -19.5300   -7.4600   23.9480 C   0  0  0  0  0  3  0  0  0  0  0  0
  -18.9870   -6.2080   24.2870 C   0  0  0  0  0  0  0  0  0  0  0  0
  -19.4840   -5.0380   23.6870 C   0  0  0  0  0  3  0  0  0  0  0  0
  -20.5250   -5.1210   22.7450 C   0  0  0  0  0  0  0  0  0  0  0  0
  -20.9860   -3.9920   22.1550 F   0  0  0  0  0  0  0  0  0  0  0  0
  -17.9800   -6.1260   25.1880 F   0  0  0  0  0  0  0  0  0  0  0  0
  -26.0820  -11.8100   21.8680 C   0  0  0  0  0  0  0  0  0  0  0  0
  -24.9460  -11.5710   22.5120 N   0  0  0  0  0  0  0  0  0  0  0  0
  -26.2900  -12.8930   21.3220 O   0  0  0  0  0  0  0  0  0  0  0  0
  -24.7850  -10.6900   22.9790 H   0  0  0  0  0  0  0  0  0  0  0  0
  -24.2300  -12.2820   22.5460 H   0  0  0  0  0  0  0  0  0  0  0  0
  -29.2960  -12.0270   21.7860 N   0  0  0  0  0  0  0  0  0  0  0  0
  -28.9230  -12.9650   21.8660 H   0  0  0  0  0  0  0  0  0  0  0  0
  -30.3070  -12.0000   21.8230 H   0  0  0  0  0  0  0  0  0  0  0  0
  -22.2090  -17.5930   26.5950 C   0  0  0  0  0  2  0  0  0  0  0  0
  -22.9490  -18.9330   26.6560 C   0  0  0  0  0  2  0  0  0  0  0  0
  -22.7850  -19.5780   25.4020 O   0  0  0  0  0  0  0  0  0  0  0  0
  -23.5730  -20.7470   25.2680 C   0  0  0  0  0  2  0  0  0  0  0  0
  -23.1230  -21.4990   24.0140 C   0  0  0  0  0  2  0  0  0  0  0  0
  -24.1470  -22.3890   23.5950 O   0  0  0  0  0  0  0  0  0  0  0  0
  -23.9630  -22.8060   22.2460 C   0  0  0  0  0  2  0  0  0  0  0  0
  -25.3100  -22.8870   21.5150 C   0  0  0  0  0  0  0  0  0  0  0  0
  -25.2420  -23.0210   20.1870 N   0  0  0  0  0  0  0  0  0  0  0  0
  -26.3780  -22.8290   22.1270 O   0  0  0  0  0  0  0  0  0  0  0  0
  -24.3160  -23.0760   19.7840 H   0  0  0  0  0  0  0  0  0  0  0  0
  -26.3700  -23.1520   19.2680 C   0  0  0  0  0  2  0  0  0  0  0  0
  -26.0760  -22.4310   17.9410 C   0  0  0  0  0  2  0  0  0  0  0  0
  -26.7920  -23.0590   16.8840 O   0  0  0  0  0  0  0  0  0  0  0  0
  -25.8680  -23.2110   15.7060 O   0  0  0  0  0  0  0  0  0  0  0  0
  -22.7830  -27.0140   20.8490 C   0  0  0  0  0  0  0  0  0  0  0  0
  -24.7750  -23.9330   16.1050 C   0  0  0  0  0  0  0  0  0  0  0  0
  -21.3050  -26.2840   19.0030 C   0  0  0  0  0  3  0  0  0  0  0  0
  -22.4830  -25.3300   16.9510 C   0  0  0  0  0  0  0  0  0  0  0  0
  -23.7980  -26.6780   18.5990 C   0  0  0  0  0  2  0  0  0  0  0  0
  -23.7290  -25.6130   17.5270 C   0  0  0  0  0  0  0  0  0  0  0  0
  -24.8800  -24.9120   17.1110 C   0  0  0  0  0  3  0  0  0  0  0  0
  -23.5210  -23.6560   15.5240 C   0  0  0  0  0  3  0  0  0  0  0  0
  -22.3700  -24.3480   15.9490 C   0  0  0  0  0  3  0  0  0  0  0  0
  -21.3020  -26.1250   17.4580 C   0  0  0  0  0  2  0  0  0  0  0  0
  -22.6540  -26.6480   19.5410 N   0  0  0  0  0  0  0  0  0  0  0  0
  -21.7960  -27.0900   21.5930 O   0  0  0  0  0  0  0  0  0  0  0  0
  -20.7250  -24.9960   19.6340 C   0  0  0  0  0  0  0  0  0  0  0  0
  -19.3930  -24.9570   19.7940 N   0  0  0  0  0  0  0  0  0  0  0  0
  -21.4610  -24.0560   19.9420 O   0  0  0  0  0  0  0  0  0  0  0  0
  -18.8610  -25.7730   19.5250 H   0  0  0  0  0  0  0  0  0  0  0  0
  -16.0940  -23.9380   20.8470 C   0  0  0  0  0  0  0  0  0  0  0  0
  -18.6240  -23.8340   20.3310 C   0  0  0  0  0  3  0  0  0  0  0  0
  -18.2520  -22.8320   19.2150 C   0  0  0  0  0  2  0  0  0  0  0  0
  -16.8800  -23.1050   18.5920 C   0  0  0  0  0  2  0  0  0  0  0  0
  -15.7820  -23.0450   19.6590 C   0  0  0  0  0  2  0  0  0  0  0  0
  -17.4250  -24.3200   21.1530 C   0  0  0  0  0  0  0  0  0  0  0  0
  -17.6560  -25.1790   22.2490 C   0  0  0  0  0  3  0  0  0  0  0  0
  -16.5860  -25.6500   23.0330 C   0  0  0  0  0  3  0  0  0  0  0  0
  -15.2720  -25.2540   22.7380 C   0  0  0  0  0  3  0  0  0  0  0  0
  -15.0280  -24.3990   21.6480 C   0  0  0  0  0  3  0  0  0  0  0  0
  -24.1710  -27.3750   21.4640 C   0  0  0  0  0  3  0  0  0  0  0  0
  -24.4570  -26.6350   22.8270 C   0  0  1  0  0  0  0  0  0  0  0  0
  -23.3220  -26.7920   23.8650 C   0  0  0  0  0  1  0  0  0  0  0  0
  -24.6800  -25.1240   22.5880 C   0  0  0  0  0  1  0  0  0  0  0  0
  -25.7610  -27.1800   23.4560 C   0  0  0  0  0  1  0  0  0  0  0  0
  -24.2090  -28.8310   21.6460 N   0  0  0  0  0  0  0  0  0  0  0  0
  -24.8150  -29.6850   20.8110 C   0  0  0  0  0  0  0  0  0  0  0  0
  -25.4710  -29.3140   19.8320 O   0  0  0  0  0  0  0  0  0  0  0  0
  -23.6450  -29.2070   22.3930 H   0  0  0  0  0  0  0  0  0  0  0  0
  -23.6120  -31.7970   20.1710 C   0  0  0  0  0  1  0  0  0  0  0  0
  -24.6700  -31.1890   21.1060 C   0  0  0  0  0  3  0  0  0  0  0  0
  -26.8410  -31.7440   22.1090 C   0  0  0  0  0  1  0  0  0  0  0  0
  -25.9390  -31.9380   20.9770 N   0  0  0  0  0  0  0  0  0  0  0  0
  -25.7610  -32.9340   20.8810 H   0  0  0  0  0  0  0  0  0  0  0  0
  1 57  1  0
  2  1  1  0
  3  2  1  0
  4  3  1  0
  5  4  1  0
  6  5  1  0
  7  6  1  0
  8  7  1  0
  9 10  1  0
  9  8  1  0
 11 12  1  0
 11 10  1  0
 12 13  1  0
 14 13  1  0
 14 15  1  0
 15 16  1  0
 16 17  1  0
 17 18  1  0
 18 27  1  0
 19 25  1  0
 19 27  1  0
 20 25  1  0
 21 22  1  0
 21 20  1  0
 23 22  1  0
 23 32  1  0
 23 24  1  0
 25 24  1  0
 26 19  2  0
 27 28  1  0
 29 30  2  0
 31 30  1  0
 32 29  1  0
 32 33  1  0
 33 31  2  0
 34 31  1  0
 34 35  1  0
 36 35  2  0
 37 36  1  0
 38 39  1  0
 38 37  2  0
 39 34  2  0
 40 37  1  0
 40 41  1  0
 41 46  2  0
 41 42  1  0
 42 43  2  0
 43 44  1  0
 44 48  1  0
 45 44  2  0
 46 45  1  0
 47 46  1  0
 49 30  1  0
 49 50  1  0
 50 53  1  0
 50 52  1  0
 51 49  2  0
 54 29  1  0
 54 56  1  0
 54 55  1  0
 57 58  1  0
 59 58  1  0
 60 59  1  0
 61 60  1  0
 62 61  1  0
 63 62  1  0
 64 66  2  0
 64 63  1  0
 65 64  1  0
 67 65  1  0
 68 65  1  0
 69 68  1  0
 70 69  1  0
 71 73  1  0
 71 70  1  0
 72 83  2  0
 73 78  1  0
 74 82  1  0
 74 84  1  0
 75 81  1  0
 75 77  1  0
 76 82  1  0
 77 76  1  0
 78 77  2  0
 79 80  1  0
 79 73  2  0
 80 75  2  0
 81 74  1  0
 82 72  1  0
 84 85  1  0
 84 86  2  0
 87 85  1  0
 88 93  2  0
 88 97  1  0
 89 85  1  0
 89 93  1  0
 90 89  1  0
 91 90  1  0
 91 92  1  0
 92 88  1  0
 93 94  1  0
 94 95  2  0
 96 95  1  0
 97 96  2  0
 98 72  1  0
 98103  1  0
 98 99  1  0
 99102  1  1
 99100  1  0
101 99  1  0
103106  1  0
104108  1  0
104103  1  0
105104  2  0
108107  1  0
110108  1  0
110109  1  0
111110  1  0
M  ISO  4  19 100  27 100  70 101  71 101
M  END
>  <TORSDO>  (57) 
F 44

>  <SCORE>  (57) 
34.674

>  <name>  (57) 
71

>  <ligand_id>  (57) 
71

>  <original_smiles>  (57) 
[H]c1c([H])c([H])c2c(c1[H])C([H])([H])C([H])([H])C([H])([H])C2([H])N([H])C(=O)C1([H])N(C(=O)C([H])(N([H])C(=O)C([H])(N([H])C([H])([H])[H])C([H])([H])[H])C(C([H])([H])[H])(C([H])([H])[H])C([H])([H])[H])C([H])([H])c2c([H])c(OOC([H])([H])C([H])([H])N([H])C(=O)C([H])([H])OC([H])([H])C([H])([H])OC([H])([H])C([H])([H])OC([H])([H])C([H])([H])OC([H])([H])C([H])([H])OC([H])([H])C([H])([H])OC([H])([H])C([H])([H])OC([H])([H])C([H])([H])OC([H])([H])C([H])([H])N([H])C(=O)N3C([H])([H])C([H])([H])C([H])([H])C([H])(n4nc(-c5c([H])c([H])c(Oc6c([H])c([H])c(F)c([H])c6F)c([H])c5[H])c(C(=O)N([H])[H])c4N([H])[H])C3([H])[H])c([H])c([H])c2C1([H])[H]

>  <smiles>  (57) 
[H]c1c([H])c([H])c2c(c1[H])C([H])([H])C([H])([H])C([H])([H])C2([H])N([H])C(=O)C1([H])N(C(=O)C([H])(N([H])C(=O)C([H])(N([H])C([H])([H])[H])C([H])([H])[H])C(C([H])([H])[H])(C([H])([H])[H])C([H])([H])[H])C([H])([H])c2c([H])c(OOC([H])([H])C([H])([H])N([H])C(=O)C([H])([H])OC([H])([H])C([H])([H])OC([H])([H])C([H])([H])OC([H])([H])C([H])([H])OC([H])([H])C([H])([H])OC([H])([H])C([H])([H])OC([H])([H])C([H])([H])OC([H])([H])C([H])([H])OC([H])([H])C([H])([H])N([H])C(=O)N3C([H])([H])C([H])([H])C([H])([H])C([H])(n4nc(-c5c([H])c([H])c(Oc6c([H])c([H])c(F)c([H])c6F)c([H])c5[H])c(C(=O)N([H])[H])c4N([H])[H])C3([H])[H])c([H])c([H])c2C1([H])[H]

$$$$
72:0:0
     RDKit          3D

108115  0  0  1  0  0  0  0  0999 V2000
  -34.2560  -17.4770   18.8430 C   0  0  0  0  0  2  0  0  0  0  0  0
  -33.2730  -18.4790   19.3170 N   0  0  0  0  0  4  0  0  0  0  0  0
  -32.3580  -18.0570   19.3090 H   0  0  0  0  0  0  0  0  0  0  0  0
  -33.2450  -19.2500   18.6660 H   0  0  0  0  0  0  0  0  0  0  0  0
  -33.5630  -19.0610   20.6510 C   0  0  0  0  0  2  0  0  0  0  0  0
  -32.4970  -20.0960   21.0460 C   0  0  0  0  0  2  0  0  0  0  0  0
  -32.2390  -20.8990   19.9040 O   0  0  0  0  0  0  0  0  0  0  0  0
  -31.2130  -21.8650   20.0940 C   0  0  0  0  0  2  0  0  0  0  0  0
  -30.4590  -21.9630   18.7640 C   0  0  0  0  0  2  0  0  0  0  0  0
  -29.3930  -22.8960   18.8040 O   0  0  0  0  0  0  0  0  0  0  0  0
  -29.7940  -24.2130   18.4530 C   0  0  0  0  0  2  0  0  0  0  0  0
  -28.5490  -25.0910   18.4390 C   0  0  0  0  0  2  0  0  0  0  0  0
  -28.1640  -25.3320   19.7820 O   0  0  0  0  0  0  0  0  0  0  0  0
  -28.4080  -26.7810   20.0730 O   0  0  0  0  0  0  0  0  0  0  0  0
  -24.6100  -31.8740   23.2170 C   0  0  0  0  0  0  0  0  0  0  0  0
  -27.2250  -27.4750   20.0870 C   0  0  0  0  0  0  0  0  0  0  0  0
  -23.3930  -30.5010   21.5570 C   0  0  0  0  0  3  0  0  0  0  0  0
  -24.8360  -28.9760   20.1170 C   0  0  0  0  0  0  0  0  0  0  0  0
  -25.9190  -30.8520   21.3630 C   0  0  0  0  0  2  0  0  0  0  0  0
  -25.9940  -29.4880   20.7140 C   0  0  0  0  0  0  0  0  0  0  0  0
  -27.1900  -28.7410   20.7050 C   0  0  0  0  0  3  0  0  0  0  0  0
  -26.0470  -26.9680   19.4900 C   0  0  0  0  0  3  0  0  0  0  0  0
  -24.8540  -27.7110   19.5070 C   0  0  0  0  0  3  0  0  0  0  0  0
  -23.5990  -29.8430   20.1670 C   0  0  0  0  0  2  0  0  0  0  0  0
  -24.6590  -31.0880   22.1050 N   0  0  0  0  0  0  0  0  0  0  0  0
  -23.5320  -32.1470   23.7590 O   0  0  0  0  0  0  0  0  0  0  0  0
  -22.7380  -29.4680   22.5010 C   0  0  0  0  0  0  0  0  0  0  0  0
  -21.4120  -29.3040   22.3750 N   0  0  0  0  0  0  0  0  0  0  0  0
  -23.4180  -28.8220   23.3020 O   0  0  0  0  0  0  0  0  0  0  0  0
  -20.9260  -29.8790   21.7020 H   0  0  0  0  0  0  0  0  0  0  0  0
  -18.0270  -28.1370   22.8490 C   0  0  0  0  0  0  0  0  0  0  0  0
  -20.5850  -28.3660   23.1340 C   0  0  0  0  0  3  0  0  0  0  0  0
  -20.6760  -26.9400   22.5420 C   0  0  0  0  0  2  0  0  0  0  0  0
  -19.5740  -26.6390   21.5210 C   0  0  0  0  0  2  0  0  0  0  0  0
  -18.1920  -26.7920   22.1620 C   0  0  0  0  0  2  0  0  0  0  0  0
  -19.1510  -28.8830   23.2920 C   0  0  0  0  0  0  0  0  0  0  0  0
  -18.9440  -30.1440   23.8920 C   0  0  0  0  0  3  0  0  0  0  0  0
  -17.6450  -30.6580   24.0570 C   0  0  0  0  0  3  0  0  0  0  0  0
  -16.5340  -29.9090   23.6320 C   0  0  0  0  0  3  0  0  0  0  0  0
  -16.7260  -28.6510   23.0340 C   0  0  0  0  0  3  0  0  0  0  0  0
  -25.9020  -32.4860   23.8430 C   0  0  0  0  0  3  0  0  0  0  0  0
  -26.4470  -31.6600   25.0730 C   0  0  1  0  0  0  0  0  0  0  0  0
  -25.3750  -31.3700   26.1500 C   0  0  0  0  0  1  0  0  0  0  0  0
  -27.0280  -30.3050   24.6060 C   0  0  0  0  0  1  0  0  0  0  0  0
  -27.6060  -32.4300   25.7500 C   0  0  0  0  0  1  0  0  0  0  0  0
  -25.5910  -33.8650   24.2370 N   0  0  0  0  0  0  0  0  0  0  0  0
  -25.9030  -34.9500   23.5140 C   0  0  0  0  0  0  0  0  0  0  0  0
  -26.5580  -34.8930   22.4690 O   0  0  0  0  0  0  0  0  0  0  0  0
  -25.0110  -33.9830   25.0550 H   0  0  0  0  0  0  0  0  0  0  0  0
  -24.1490  -36.7330   23.2630 C   0  0  0  0  0  1  0  0  0  0  0  0
  -25.4100  -36.3130   24.0340 C   0  0  0  0  0  3  0  0  0  0  0  0
  -27.5580  -37.1820   24.8460 C   0  0  0  0  0  1  0  0  0  0  0  0
  -26.4290  -37.3810   23.9410 N   0  0  0  0  0  0  0  0  0  0  0  0
  -26.0180  -38.2890   24.1420 H   0  0  0  0  0  0  0  0  0  0  0  0
  -34.0520  -17.1360   17.3590 C   0  0  0  0  0  2  0  0  0  0  0  0
  -32.7600  -16.5700   17.1540 O   0  0  0  0  0  0  0  0  0  0  0  0
  -32.5660  -16.1990   15.7910 C   0  0  0  0  0  2  0  0  0  0  0  0
  -31.3080  -15.3360   15.6240 C   0  0  0  0  0  2  0  0  0  0  0  0
  -30.1220  -16.1260   15.6680 O   0  0  0  0  0  0  0  0  0  0  0  0
  -28.9910  -15.4190   15.1630 C   0  0  0  0  0  2  0  0  0  0  0  0
  -27.7180  -16.2820   15.2050 C   0  0  0  0  0  2  0  0  0  0  0  0
  -27.8530  -17.3780   14.3080 O   0  0  0  0  0  0  0  0  0  0  0  0
  -26.7640  -18.2960   14.3510 C   0  0  0  0  0  2  0  0  0  0  0  0
  -27.1020  -19.5270   15.2060 C   0  0  0  0  0  2  0  0  0  0  0  0
  -26.8840  -19.2770   16.5900 O   0  0  0  0  0  0  0  0  0  0  0  0
  -28.0900  -19.1460   17.3300 C   0  0  0  0  0  2  0  0  0  0  0  0
  -27.7530  -18.9750   18.8200 C   0  0  0  0  0  2  0  0  0  0  0  0
  -28.8800  -18.5520   19.5870 O   0  0  0  0  0  0  0  0  0  0  0  0
  -29.0740  -17.1420   19.6150 C   0  0  0  0  0  2  0  0  0  0  0  0
  -30.0540  -16.7990   20.7510 C   0  0  0  0  0  2  0  0  0  0  0  0
  -30.7010  -14.4120   20.5720 C   0  0  0  0  0  0  0  0  0  0  0  0
  -30.4270  -12.2660   19.4090 C   0  0  0  0  0  2  0  0  0  0  0  0
  -29.4890  -12.4810   18.2010 C   0  0  0  0  0  2  0  0  0  0  0  0
  -28.0110  -12.3550   18.6200 C   0  0  0  0  0  2  0  0  0  0  0  0
  -27.6690  -13.1910   19.8800 C   0  0  0  0  0  3  0  0  0  0  0  0
  -28.7090  -12.9370   20.9940 C   0  0  0  0  0  2  0  0  0  0  0  0
  -30.0480  -13.2290   20.4500 N   0  0  0  0  0  0  0  0  0  0  0  0
  -31.8030  -14.6510   20.0780 O   0  0  0  0  0  0  0  0  0  0  0  0
  -29.9540  -15.3850   21.0970 N   0  0  0  0  0  0  0  0  0  0  0  0
  -29.0960  -15.0880   21.5350 H   0  0  0  0  0  0  0  0  0  0  0  0
  -25.2670  -13.8140   20.5690 C   0  0  0  0  0  0  0  0  0  0  0  0
  -24.1870  -13.0460   20.9160 C   0  0  0  0  0  0  0  0  0  0  0  0
  -24.6400  -11.6920   20.8710 C   0  0  0  0  0  0  0  0  0  0  0  0
  -26.3070  -12.9280   20.3380 N   0  0  0  0  0  0  0  0  0  0  0  0
  -25.9330  -11.6460   20.5780 N   0  0  0  0  0  0  0  0  0  0  0  0
  -23.9020  -10.4340   21.0400 C   0  0  0  0  0  0  0  0  0  0  0  0
  -24.3560   -9.4270   21.9190 C   0  0  0  0  0  3  0  0  0  0  0  0
  -23.6270   -8.2290   22.0760 C   0  0  0  0  0  3  0  0  0  0  0  0
  -22.4250   -8.0300   21.3550 C   0  0  0  0  0  0  0  0  0  0  0  0
  -21.9850   -9.0270   20.4650 C   0  0  0  0  0  3  0  0  0  0  0  0
  -22.7180  -10.2170   20.3060 C   0  0  0  0  0  3  0  0  0  0  0  0
  -21.6640   -6.8900   21.4230 O   0  0  0  0  0  0  0  0  0  0  0  0
  -21.6840   -6.0750   22.5270 C   0  0  0  0  0  0  0  0  0  0  0  0
  -21.4030   -6.5660   23.8200 C   0  0  0  0  0  3  0  0  0  0  0  0
  -21.3630   -5.6800   24.9160 C   0  0  0  0  0  3  0  0  0  0  0  0
  -21.6040   -4.3060   24.7200 C   0  0  0  0  0  0  0  0  0  0  0  0
  -21.8830   -3.8170   23.4310 C   0  0  0  0  0  3  0  0  0  0  0  0
  -21.9200   -4.6990   22.3380 C   0  0  0  0  0  0  0  0  0  0  0  0
  -22.1670   -4.2180   21.0960 F   0  0  0  0  0  0  0  0  0  0  0  0
  -21.5600   -3.4530   25.7700 F   0  0  0  0  0  0  0  0  0  0  0  0
  -22.7910  -13.5280   21.1800 C   0  0  0  0  0  0  0  0  0  0  0  0
  -22.0500  -12.8310   22.0330 N   0  0  0  0  0  0  0  0  0  0  0  0
  -22.3600  -14.5570   20.6630 O   0  0  0  0  0  0  0  0  0  0  0  0
  -22.4070  -11.9980   22.4770 H   0  0  0  0  0  0  0  0  0  0  0  0
  -21.1100  -13.1370   22.2440 H   0  0  0  0  0  0  0  0  0  0  0  0
  -25.4520  -15.1830   20.4070 N   0  0  0  0  0  0  0  0  0  0  0  0
  -24.6950  -15.8510   20.5070 H   0  0  0  0  0  0  0  0  0  0  0  0
  -26.3180  -15.5990   20.0950 H   0  0  0  0  0  0  0  0  0  0  0  0
  1  2  1  0
  2  5  1  0
  3  2  1  0
  4  2  1  0
  5  6  1  0
  7  8  1  0
  7  6  1  0
  9 10  1  0
  9  8  1  0
 11 10  1  0
 12 11  1  0
 12 13  1  0
 13 14  1  0
 14 16  1  0
 15 26  2  0
 16 21  1  0
 17 25  1  0
 17 27  1  0
 18 24  1  0
 18 20  1  0
 19 25  1  0
 20 19  1  0
 21 20  2  0
 22 23  1  0
 22 16  2  0
 23 18  2  0
 24 17  1  0
 25 15  1  0
 27 29  2  0
 28 27  1  0
 30 28  1  0
 31 40  2  0
 31 36  1  0
 32 28  1  0
 32 36  1  0
 33 32  1  0
 34 35  1  0
 34 33  1  0
 35 31  1  0
 36 37  2  0
 37 38  1  0
 39 38  2  0
 40 39  1  0
 41 15  1  0
 41 46  1  0
 41 42  1  0
 42 45  1  1
 42 43  1  0
 44 42  1  0
 46 49  1  0
 47 51  1  0
 47 46  1  0
 48 47  2  0
 51 50  1  0
 53 51  1  0
 53 54  1  0
 53 52  1  0
 55  1  1  0
 56 55  1  0
 57 56  1  0
 58 59  1  0
 58 57  1  0
 60 61  1  0
 60 59  1  0
 62 63  1  0
 62 61  1  0
 63 64  1  0
 64 65  1  0
 65 66  1  0
 66 67  1  0
 67 68  1  0
 68 69  1  0
 69 70  1  0
 70 79  1  0
 71 79  1  0
 72 77  1  0
 73 74  1  0
 73 72  1  0
 75 74  1  0
 75 84  1  0
 75 76  1  0
 77 71  1  0
 77 76  1  0
 78 71  2  0
 79 80  1  0
 81 82  2  0
 82101  1  0
 83 82  1  0
 83 86  1  0
 84 81  1  0
 84 85  1  0
 85 83  2  0
 86 87  1  0
 87 88  2  0
 89 92  1  0
 89 88  1  0
 90 89  2  0
 91 90  1  0
 91 86  2  0
 92 93  1  0
 93 94  1  0
 94 95  2  0
 96 95  1  0
 96100  1  0
 97 96  2  0
 98 93  2  0
 98 97  1  0
 99 98  1  0
101102  1  0
102105  1  0
102104  1  0
103101  2  0
106107  1  0
106 81  1  0
108106  1  0
M  ISO  4  13 101  14 101  71 100  79 100
M  END
>  <TORSDO>  (58) 
F 42

>  <SCORE>  (58) 
10.284

>  <name>  (58) 
72

>  <ligand_id>  (58) 
72

>  <original_smiles>  (58) 
[H]c1c([H])c([H])c2c(c1[H])C([H])([H])C([H])([H])C([H])([H])C2([H])N([H])C(=O)C1([H])N(C(=O)C([H])(N([H])C(=O)C([H])(N([H])C([H])([H])[H])C([H])([H])[H])C(C([H])([H])[H])(C([H])([H])[H])C([H])([H])[H])C([H])([H])c2c([H])c(OOC([H])([H])C([H])([H])OC([H])([H])C([H])([H])OC([H])([H])C([H])([H])[N+]([H])([H])C([H])([H])C([H])([H])OC([H])([H])C([H])([H])OC([H])([H])C([H])([H])OC([H])([H])C([H])([H])OC([H])([H])C([H])([H])OC([H])([H])C([H])([H])N([H])C(=O)N3C([H])([H])C([H])([H])C([H])([H])C([H])(n4nc(-c5c([H])c([H])c(Oc6c([H])c([H])c(F)c([H])c6F)c([H])c5[H])c(C(=O)N([H])[H])c4N([H])[H])C3([H])[H])c([H])c([H])c2C1([H])[H]

>  <smiles>  (58) 
[H]c1c([H])c([H])c2c(c1[H])C([H])([H])C([H])([H])C([H])([H])C2([H])N([H])C(=O)C1([H])N(C(=O)C([H])(N([H])C(=O)C([H])(N([H])C([H])([H])[H])C([H])([H])[H])C(C([H])([H])[H])(C([H])([H])[H])C([H])([H])[H])C([H])([H])c2c([H])c(OOC([H])([H])C([H])([H])OC([H])([H])C([H])([H])OC([H])([H])C([H])([H])[N+]([H])([H])C([H])([H])C([H])([H])OC([H])([H])C([H])([H])OC([H])([H])C([H])([H])OC([H])([H])C([H])([H])OC([H])([H])C([H])([H])OC([H])([H])C([H])([H])N([H])C(=O)N3C([H])([H])C([H])([H])C([H])([H])C([H])(n4nc(-c5c([H])c([H])c(Oc6c([H])c([H])c(F)c([H])c6F)c([H])c5[H])c(C(=O)N([H])[H])c4N([H])[H])C3([H])[H])c([H])c([H])c2C1([H])[H]

$$$$
73:0:0
     RDKit          3D

124128  0  0  1  0  0  0  0  0999 V2000
  -32.9040   -9.6670   17.8560 C   0  0  0  0  0  2  0  0  0  0  0  0
  -32.0110   -8.9900   18.7240 O   0  0  0  0  0  0  0  0  0  0  0  0
  -31.5490   -9.7950   19.7990 C   0  0  0  0  0  2  0  0  0  0  0  0
  -32.6970  -10.3010   20.7000 C   0  0  0  0  0  2  0  0  0  0  0  0
  -32.1070  -10.4360   21.9880 O   0  0  0  0  0  0  0  0  0  0  0  0
  -32.4350  -11.6540   22.6460 C   0  0  0  0  0  2  0  0  0  0  0  0
  -31.5450  -11.9130   23.8880 C   0  0  0  0  0  2  0  0  0  0  0  0
  -31.1330  -13.2720   23.9980 O   0  0  0  0  0  0  0  0  0  0  0  0
  -30.0080  -13.6030   23.1940 C   0  0  0  0  0  2  0  0  0  0  0  0
  -30.3460  -14.6480   22.1010 C   0  0  0  0  0  2  0  0  0  0  0  0
  -30.9730  -15.7830   22.6840 O   0  0  0  0  0  0  0  0  0  0  0  0
  -32.0090  -16.3350   21.8800 C   0  0  0  0  0  2  0  0  0  0  0  0
  -32.0170  -15.8110   20.4530 C   0  0  0  0  0  2  0  0  0  0  0  0
  -32.9420  -16.5550   19.6330 O   0  0  0  0  0  0  0  0  0  0  0  0
  -32.2250  -17.5160   18.8630 C   0  0  0  0  0  2  0  0  0  0  0  0
  -32.5790  -17.5440   17.3110 C   0  0  0  0  0  2  0  0  0  0  0  0
  -33.7990  -16.9500   16.8590 O   0  0  0  0  0  0  0  0  0  0  0  0
  -34.4580  -17.6040   15.7990 C   0  0  0  0  0  2  0  0  0  0  0  0
  -35.9290  -17.1150   15.7250 C   0  0  0  0  0  2  0  0  0  0  0  0
  -36.4090  -17.0200   14.3560 O   0  0  0  0  0  0  0  0  0  0  0  0
  -36.5330  -15.6930   13.8600 C   0  0  0  0  0  2  0  0  0  0  0  0
  -37.1400  -14.6750   14.8610 C   0  0  0  0  0  2  0  0  0  0  0  0
  -36.3210  -13.5560   15.2870 O   0  0  0  0  0  0  0  0  0  0  0  0
  -36.5010  -13.1980   16.6750 C   0  0  0  0  0  2  0  0  0  0  0  0
  -36.9400  -11.7330   17.0640 C   0  0  0  0  0  2  0  0  0  0  0  0
  -34.9570  -11.3070   18.6980 C   0  0  0  0  0  0  0  0  0  0  0  0
  -35.6510  -12.3220   20.5520 C   0  0  0  0  0  3  0  0  0  0  0  0
  -36.7590  -12.2040   22.0240 C   0  0  0  0  0  3  0  0  0  0  0  0
  -36.8360  -10.6890   23.0840 C   0  0  0  0  0  2  0  0  0  0  0  0
  -35.8120   -9.0970   22.6200 C   0  0  0  0  0  2  0  0  0  0  0  0
  -34.6640   -9.1190   20.9910 C   0  0  0  0  0 15  0  0  0  0  0  0
  -34.8170  -10.8560   19.8820 N   0  0  0  0  0  2  0  0  0  0  0  0
  -34.2770  -12.2450   18.3450 O   0  0  0  0  0  0  0  0  0  0  0  0
  -36.1370  -11.0490   18.0840 N   0  0  0  0  0  0  0  0  0  0  0  0
  -36.3790  -10.0730   18.2270 H   0  0  0  0  0  0  0  0  0  0  0  0
  -36.5900   -7.0150   24.0190 C   0  0  0  0  0  3  0  0  0  0  0  0
  -37.8660   -6.5570   23.9260 C   0  0  0  0  0  0  0  0  0  0  0  0
  -38.4590   -7.2020   22.8070 C   0  0  0  0  0  0  0  0  0  0  0  0
  -36.5940   -8.0630   23.1140 N   0  0  0  0  0  0  0  0  0  0  0  0
  -37.6390   -8.0290   22.2950 N   0  0  0  0  0  2  0  0  0  0  0  0
  -39.7360   -7.1340   22.1560 C   0  0  0  0  0  0  0  0  0  0  0  0
  -40.8150   -7.9420   22.5830 C   0  0  0  0  0  3  0  0  0  0  0  0
  -42.0580   -7.8320   21.9440 C   0  0  0  0  0  3  0  0  0  0  0  0
  -42.2110   -6.8980   20.8890 C   0  0  0  0  0  0  0  0  0  0  0  0
  -41.1230   -6.1360   20.4490 C   0  0  0  0  0  3  0  0  0  0  0  0
  -39.8790   -6.2560   21.0830 C   0  0  0  0  0  3  0  0  0  0  0  0
  -43.3830   -6.7020   20.2110 O   0  0  0  0  0  0  0  0  0  0  0  0
  -43.5180   -7.0760   18.9020 C   0  0  0  0  0  0  0  0  0  0  0  0
  -43.0070   -8.2980   18.4160 C   0  0  0  0  0  3  0  0  0  0  0  0
  -43.2450   -8.6680   17.0800 C   0  0  0  0  0  3  0  0  0  0  0  0
  -43.9740   -7.8110   16.2300 C   0  0  0  0  0  0  0  0  0  0  0  0
  -44.4720   -6.5870   16.7180 C   0  0  0  0  0  3  0  0  0  0  0  0
  -44.2380   -6.2190   18.0520 C   0  0  0  0  0  0  0  0  0  0  0  0
  -44.7290   -5.0520   18.5330 F   0  0  0  0  0  0  0  0  0  0  0  0
  -44.2200   -8.1660   14.9510 F   0  0  0  0  0  0  0  0  0  0  0  0
  -38.5060   -5.5630   24.8240 C   0  0  0  0  0  0  0  0  0  0  0  0
  -39.1710   -4.5760   24.2300 N   0  0  0  0  0  0  0  0  0  0  0  0
  -38.4780   -5.7030   26.0380 O   0  0  0  0  0  0  0  0  0  0  0  0
  -39.2090   -4.4950   23.2260 H   0  0  0  0  0  0  0  0  0  0  0  0
  -39.6420   -3.8910   24.8000 H   0  0  0  0  0  0  0  0  0  0  0  0
  -35.5570   -6.6310   24.8560 N   0  0  0  0  0  0  0  0  0  0  0  0
  -35.8850   -5.9630   25.5470 H   0  0  0  0  0  0  0  0  0  0  0  0
  -35.0190   -7.3570   25.3180 H   0  0  0  0  0  0  0  0  0  0  0  0
  -32.2380  -10.3800   16.6910 C   0  0  0  0  0  2  0  0  0  0  0  0
  -31.2020  -11.4420   16.7480 O   0  0  0  0  0  0  0  0  0  0  0  0
  -29.8530  -10.9900   17.1650 C   0  0  0  0  0  2  0  0  0  0  0  0
  -28.4320  -11.7910   17.6590 C   0  0  0  0  0  2  0  0  0  0  0  0
  -26.8730  -11.4780   17.7160 O   0  0  0  0  0  0  0  0  0  0  0  0
  -25.5540  -11.5460   18.5870 C   0  0  0  0  0  2  0  0  0  0  0  0
  -25.0300  -11.1370   20.2120 C   0  0  0  0  0  2  0  0  0  0  0  0
  -24.9250  -11.8800   21.5760 O   0  0  0  0  0  0  0  0  0  0  0  0
  -23.9740  -13.0250   22.1070 C   0  0  0  0  0  2  0  0  0  0  0  0
  -22.4550  -12.8460   23.0080 C   0  0  0  0  0  2  0  0  0  0  0  0
  -21.7200  -13.9370   24.0580 O   0  0  0  0  0  1  0  0  0  0  0  0
  -20.7700  -16.1920   23.7390 C   0  0  0  0  0  1  0  0  0  0  0  0
  -19.7170  -16.6750   22.2730 C   0  0  0  0  0  2  0  0  0  0  0  0
  -18.1250  -17.1030   22.2340 O   0  0  0  0  0  0  0  0  0  0  0  0
  -16.7760  -17.3330   21.2780 C   0  0  0  0  0  2  0  0  0  0  0  0
  -15.0340  -17.8350   21.5850 C   0  0  0  0  0  2  0  0  0  0  0  0
  -14.0320  -17.7520   22.8400 O   0  0  0  0  0  0  0  0  0  0  0  0
  -12.5420  -17.2820   22.9570 C   0  0  0  0  0  2  0  0  0  0  0  0
  -11.3360  -17.5430   24.1550 C   0  0  0  0  0  2  0  0  0  0  0  0
  -11.1550  -17.0500   25.6280 O   0  0  0  0  0  0  0  0  0  0  0  0
  -10.7040  -18.1500   26.8500 O   0  0  0  0  0  0  0  0  0  0  0  0
  -11.1680  -14.1950   32.9610 C   0  0  0  0  0  0  0  0  0  0  0  0
  -11.2500  -18.0260   28.1900 C   0  0  0  0  0  0  0  0  0  0  0  0
  -11.7110  -16.6010   33.1690 C   0  0  0  0  0  3  0  0  0  0  0  0
  -12.1680  -17.8500   30.9610 C   0  0  0  0  0  0  0  0  0  0  0  0
  -12.2010  -15.3580   30.9820 C   0  0  0  0  0  2  0  0  0  0  0  0
  -11.9740  -16.6760   30.2240 C   0  0  0  0  0  0  0  0  0  0  0  0
  -11.5440  -16.7640   28.8480 C   0  0  0  0  0  3  0  0  0  0  0  0
  -11.5780  -19.1690   28.9610 C   0  0  0  0  0  3  0  0  0  0  0  0
  -12.0060  -19.0900   30.3140 C   0  0  0  0  0  3  0  0  0  0  0  0
  -12.5160  -17.7130   32.4360 C   0  0  0  0  0  2  0  0  0  0  0  0
  -11.6600  -15.3300   32.3750 N   0  0  0  0  0  0  0  0  0  0  0  0
  -10.7780  -14.1930   34.1390 O   0  0  0  0  0  0  0  0  0  0  0  0
  -10.3060  -17.1420   33.5360 C   0  0  0  0  0  0  0  0  0  0  0  0
  -10.2490  -18.1710   34.3990 N   0  0  0  0  0  0  0  0  0  0  0  0
   -9.2950  -16.6510   33.0270 O   0  0  0  0  0  0  0  0  0  0  0  0
  -11.1170  -18.5120   34.7850 H   0  0  0  0  0  0  0  0  0  0  0  0
   -8.9600  -21.3150   35.6590 C   0  0  0  0  0  0  0  0  0  0  0  0
   -9.0330  -18.8670   34.8250 C   0  0  0  0  0  3  0  0  0  0  0  0
   -8.2230  -19.3690   33.6080 C   0  0  0  0  0  2  0  0  0  0  0  0
   -8.5590  -20.8110   33.2120 C   0  0  0  0  0  2  0  0  0  0  0  0
   -8.2820  -21.7660   34.3760 C   0  0  0  0  0  2  0  0  0  0  0  0
   -9.3270  -19.9580   35.8630 C   0  0  0  0  0  0  0  0  0  0  0  0
   -9.9820  -19.6000   37.0610 C   0  0  0  0  0  3  0  0  0  0  0  0
  -10.2710  -20.5690   38.0420 C   0  0  0  0  0  3  0  0  0  0  0  0
   -9.8950  -21.9080   37.8400 C   0  0  0  0  0  3  0  0  0  0  0  0
   -9.2380  -22.2770   36.6530 C   0  0  0  0  0  3  0  0  0  0  0  0
  -11.0760  -12.8420   32.1860 C   0  0  0  0  0  3  0  0  0  0  0  0
  -10.3940  -13.1040   30.9090 N   0  0  0  0  0  0  0  0  0  0  0  0
   -9.1740  -13.6430   30.7900 C   0  0  0  0  0  0  0  0  0  0  0  0
   -8.4700  -13.9240   31.7630 O   0  0  0  0  0  0  0  0  0  0  0  0
  -10.9370  -12.9550   30.0700 H   0  0  0  0  0  0  0  0  0  0  0  0
   -8.8800  -12.6830   28.4790 C   0  0  0  0  0  1  0  0  0  0  0  0
   -8.6500  -13.9190   29.3650 C   0  0  0  0  0  3  0  0  0  0  0  0
   -9.0930  -16.3310   29.5060 C   0  0  0  0  0  1  0  0  0  0  0  0
   -9.2660  -15.1050   28.7300 N   0  0  0  0  0  0  0  0  0  0  0  0
   -8.8750  -15.2600   27.8040 H   0  0  0  0  0  0  0  0  0  0  0  0
  -12.4820  -12.1690   31.9330 C   0  0  1  0  0  0  0  0  0  0  0  0
  -13.5940  -13.1760   31.5610 C   0  0  0  0  0  1  0  0  0  0  0  0
  -12.9490  -11.3900   33.1840 C   0  0  0  0  0  1  0  0  0  0  0  0
  -12.3670  -11.1360   30.7880 C   0  0  0  0  0  1  0  0  0  0  0  0
  1  2  1  0
  2  3  1  0
  3  4  1  0
  4  5  1  0
  5  6  1  0
  6  7  1  0
  7  8  1  0
  9  8  1  0
 10 11  1  0
 10  9  1  0
 12 11  1  0
 13 12  1  0
 14 13  1  0
 15 14  1  0
 16 15  1  0
 17 16  1  0
 18 17  1  0
 19 18  1  0
 20 19  1  0
 21 20  1  0
 21 22  1  0
 22 23  1  0
 23 24  1  0
 24 25  1  0
 25 34  1  0
 26 32  1  0
 27 28  2  0
 28 29  1  0
 30 29  1  0
 30 39  1  0
 32 27  1  0
 33 26  2  0
 34 35  1  0
 34 26  1  0
 36 61  1  0
 37 36  1  0
 37 56  1  0
 38 37  2  0
 39 36  1  0
 40 38  1  0
 40 39  1  0
 41 42  1  0
 41 38  1  0
 43 42  2  0
 44 43  1  0
 45 44  2  0
 45 46  1  0
 46 41  2  0
 47 44  1  0
 48 47  1  0
 49 48  1  0
 50 49  2  0
 51 52  2  0
 51 50  1  0
 52 53  1  0
 53 54  1  0
 53 48  2  0
 55 51  1  0
 56 58  2  0
 57 60  1  0
 57 56  1  0
 59 57  1  0
 61 63  1  0
 61 62  1  0
 64 65  1  0
 64  1  1  0
 65 66  1  0
 66 67  1  0
 67 68  1  0
 68 69  1  0
 69 70  1  0
 70 71  1  0
 71 72  1  0
 72 73  1  0
 73 74  1  0
 76 75  1  0
 77 76  1  0
 78 79  1  0
 78 77  1  0
 79 80  1  0
 80 81  1  0
 81 82  1  0
 82 83  1  0
 83 84  1  0
 84 86  1  0
 85 96  2  0
 86 91  2  0
 86 92  1  0
 87 97  1  0
 88 94  1  0
 89 95  1  0
 90 88  2  0
 90 89  1  0
 91 90  1  0
 92 93  2  0
 93 88  1  0
 94 87  1  0
 95 85  1  0
 95 87  1  0
 97 98  1  0
 98100  1  0
 99 97  2  0
101106  2  0
101110  1  0
102 98  1  0
102106  1  0
103102  1  0
104103  1  0
104105  1  0
105101  1  0
106107  1  0
107108  2  0
109108  1  0
110109  2  0
111 85  1  0
112111  1  0
113112  1  0
113114  2  0
115112  1  0
117116  1  0
117113  1  0
119117  1  0
119118  1  0
120119  1  0
121111  1  0
121123  1  1
122121  1  0
124121  1  0
M  ISO  4  26 100  34 100  83 101  84 101
M  END
>  <TORSDO>  (59) 
F 60

>  <SCORE>  (59) 
44.420

>  <name>  (59) 
73

>  <ligand_id>  (59) 
73

>  <original_smiles>  (59) 
[H]c1c([H])c([H])c2c(c1[H])C([H])([H])C([H])([H])C([H])([H])C2([H])N([H])C(=O)C1([H])N(C(=O)C([H])(N([H])C(=O)C([H])(N([H])C([H])([H])[H])C([H])([H])[H])C(C([H])([H])[H])(C([H])([H])[H])C([H])([H])[H])C([H])([H])c2c([H])c(OOC([H])([H])C([H])([H])OC([H])([H])C([H])([H])OC([H])([H])C([H])([H])OC([H])([H])C([H])([H])OC([H])([H])C([H])([H])OC([H])([H])C([H])([H])OC([H])([H])C([H])([H])OC([H])([H])C([H])([H])OC([H])([H])C([H])([H])OC([H])([H])C([H])([H])OC([H])([H])C([H])([H])OC([H])([H])C([H])([H])OC([H])([H])C([H])([H])OC([H])([H])C([H])([H])OC([H])([H])C([H])([H])N([H])C(=O)N3C([H])([H])C([H])([H])C([H])([H])C([H])(n4nc(-c5c([H])c([H])c(Oc6c([H])c([H])c(F)c([H])c6F)c([H])c5[H])c(C(=O)N([H])[H])c4N([H])[H])C3([H])[H])c([H])c([H])c2C1([H])[H]

>  <smiles>  (59) 
[H]c1c([H])c([H])c2c(c1[H])C([H])([H])C([H])([H])C([H])([H])C2([H])N([H])C(=O)C1([H])N(C(=O)C([H])(N([H])C(=O)C([H])(N([H])C([H])([H])[H])C([H])([H])[H])C(C([H])([H])[H])(C([H])([H])[H])C([H])([H])[H])C([H])([H])c2c([H])c(OOC([H])([H])C([H])([H])OC([H])([H])C([H])([H])OC([H])([H])C([H])([H])OC([H])([H])C([H])([H])OC([H])([H])C([H])([H])OC([H])([H])C([H])([H])OC([H])([H])C([H])([H])OC([H])([H])C([H])([H])OC([H])([H])C([H])([H])OC([H])([H])C([H])([H])OC([H])([H])C([H])([H])OC([H])([H])C([H])([H])OC([H])([H])C([H])([H])OC([H])([H])C([H])([H])OC([H])([H])C([H])([H])N([H])C(=O)N3C([H])([H])C([H])([H])C([H])([H])C([H])(n4nc(-c5c([H])c([H])c(Oc6c([H])c([H])c(F)c([H])c6F)c([H])c5[H])c(C(=O)N([H])[H])c4N([H])[H])C3([H])[H])c([H])c([H])c2C1([H])[H]

$$$$
75:0:0
     RDKit          3D

121128  0  0  1  0  0  0  0  0999 V2000
  -32.3260  -13.9580   20.3500 C   0  0  0  0  0  0  0  0  0  0  0  0
  -31.9510  -14.2880   19.1050 N   0  0  0  0  0  0  0  0  0  0  0  0
  -32.2310  -14.7190   21.3160 O   0  0  0  0  0  0  0  0  0  0  0  0
  -32.0290  -13.5660   18.4000 H   0  0  0  0  0  0  0  0  0  0  0  0
  -32.9570  -12.5670   20.5120 C   0  0  0  0  0  2  0  0  0  0  0  0
  -33.4160  -12.0950   19.2420 O   0  0  0  0  0  0  0  0  0  0  0  0
  -34.8200  -11.8320   19.1970 C   0  0  0  0  0  2  0  0  0  0  0  0
  -35.2500  -11.4940   17.7590 C   0  0  0  0  0  2  0  0  0  0  0  0
  -36.4030  -10.6670   17.7830 O   0  0  0  0  0  0  0  0  0  0  0  0
  -37.3780  -11.0080   16.7990 C   0  0  0  0  0  2  0  0  0  0  0  0
  -36.8880  -10.8450   15.3400 C   0  0  0  0  0  2  0  0  0  0  0  0
  -37.7630  -11.3920   14.3500 O   0  0  0  0  0  0  0  0  0  0  0  0
  -38.8010  -10.5090   13.9150 C   0  0  0  0  0  2  0  0  0  0  0  0
  -39.5300  -11.0630   12.6720 C   0  0  0  0  0  2  0  0  0  0  0  0
  -40.7330  -10.3260   12.4730 O   0  0  0  0  0  0  0  0  0  0  0  0
  -41.3780  -10.5720   11.2260 C   0  0  0  0  0  2  0  0  0  0  0  0
  -42.7840   -9.9440   11.2440 C   0  0  0  0  0  2  0  0  0  0  0  0
  -42.6780   -8.5240   11.3000 O   0  0  0  0  0  0  0  0  0  0  0  0
  -43.8950   -7.8140   11.0610 C   0  0  0  0  0  2  0  0  0  0  0  0
  -44.8790   -7.9410   12.2470 C   0  0  0  0  0  2  0  0  0  0  0  0
  -44.1990   -7.5730   13.4420 O   0  0  0  0  0  0  0  0  0  0  0  0
  -44.7100   -8.0790   14.6690 C   0  0  0  0  0  2  0  0  0  0  0  0
  -44.3500   -9.5450   14.9530 C   0  0  0  0  0  2  0  0  0  0  0  0
  -44.4180   -9.6110   17.3530 C   0  0  0  0  0  0  0  0  0  0  0  0
  -42.1220   -9.6900   18.1970 C   0  0  0  0  0  2  0  0  0  0  0  0
  -41.1500   -9.7690   17.0020 C   0  0  0  0  0  2  0  0  0  0  0  0
  -40.9690  -11.2280   16.5400 C   0  0  0  0  0  2  0  0  0  0  0  0
  -42.3000  -12.0090   16.3880 C   0  0  0  0  0  3  0  0  0  0  0  0
  -43.2130  -11.7910   17.6140 C   0  0  0  0  0  2  0  0  0  0  0  0
  -43.3710  -10.3420   17.7960 N   0  0  0  0  0  0  0  0  0  0  0  0
  -44.6680   -8.4700   17.7290 O   0  0  0  0  0  0  0  0  0  0  0  0
  -44.9440  -10.0430   16.2010 N   0  0  0  0  0  0  0  0  0  0  0  0
  -45.9430   -9.9070   16.1780 H   0  0  0  0  0  0  0  0  0  0  0  0
  -41.7980  -14.0590   14.9160 C   0  0  0  0  0  0  0  0  0  0  0  0
  -41.5800  -15.3750   15.2370 C   0  0  0  0  0  0  0  0  0  0  0  0
  -41.7460  -15.4710   16.6510 C   0  0  0  0  0  0  0  0  0  0  0  0
  -42.0770  -13.4240   16.1180 N   0  0  0  0  0  0  0  0  0  0  0  0
  -42.1030  -14.2970   17.1550 N   0  0  0  0  0  0  0  0  0  0  0  0
  -41.5320  -16.5940   17.5670 C   0  0  0  0  0  0  0  0  0  0  0  0
  -42.6020  -17.1800   18.2810 C   0  0  0  0  0  3  0  0  0  0  0  0
  -42.3760  -18.2750   19.1410 C   0  0  0  0  0  3  0  0  0  0  0  0
  -41.0690  -18.7940   19.2940 C   0  0  0  0  0  0  0  0  0  0  0  0
  -40.0020  -18.1930   18.6020 C   0  0  0  0  0  3  0  0  0  0  0  0
  -40.2280  -17.0990   17.7490 C   0  0  0  0  0  3  0  0  0  0  0  0
  -40.7510  -19.8380   20.1300 O   0  0  0  0  0  0  0  0  0  0  0  0
  -41.6100  -20.8880   20.3290 C   0  0  0  0  0  0  0  0  0  0  0  0
  -42.0100  -21.7350   19.2720 C   0  0  0  0  0  3  0  0  0  0  0  0
  -42.8370  -22.8460   19.5350 C   0  0  0  0  0  3  0  0  0  0  0  0
  -43.2560  -23.1140   20.8530 C   0  0  0  0  0  0  0  0  0  0  0  0
  -42.8570  -22.2730   21.9060 C   0  0  0  0  0  3  0  0  0  0  0  0
  -42.0330  -21.1650   21.6440 C   0  0  0  0  0  0  0  0  0  0  0  0
  -41.6310  -20.3700   22.6660 F   0  0  0  0  0  0  0  0  0  0  0  0
  -44.0420  -24.1850   21.1070 F   0  0  0  0  0  0  0  0  0  0  0  0
  -41.1590  -16.4660   14.2980 C   0  0  0  0  0  0  0  0  0  0  0  0
  -41.8330  -17.6120   14.3530 N   0  0  0  0  0  0  0  0  0  0  0  0
  -40.2640  -16.2950   13.4770 O   0  0  0  0  0  0  0  0  0  0  0  0
  -42.5860  -17.7410   15.0120 H   0  0  0  0  0  0  0  0  0  0  0  0
  -41.5940  -18.3630   13.7210 H   0  0  0  0  0  0  0  0  0  0  0  0
  -41.7680  -13.3470   13.7200 N   0  0  0  0  0  0  0  0  0  0  0  0
  -41.5590  -13.7820   12.8270 H   0  0  0  0  0  0  0  0  0  0  0  0
  -42.0090  -12.3680   13.6380 H   0  0  0  0  0  0  0  0  0  0  0  0
  -31.5400  -15.6160   18.6540 C   0  0  0  0  0  2  0  0  0  0  0  0
  -32.3890  -16.0430   17.4470 C   0  0  0  0  0  2  0  0  0  0  0  0
  -32.4180  -17.5610   17.2060 C   0  0  0  0  0  2  0  0  0  0  0  0
  -32.6100  -17.9570   15.7260 C   0  0  0  0  0  2  0  0  0  0  0  0
  -33.8020  -17.2410   15.0840 C   0  0  0  0  0  0  0  0  0  0  0  0
  -33.5190  -16.3440   14.1310 N   0  0  0  0  0  0  0  0  0  0  0  0
  -34.9420  -17.4530   15.4960 O   0  0  0  0  0  0  0  0  0  0  0  0
  -32.5600  -16.2940   13.8220 H   0  0  0  0  0  0  0  0  0  0  0  0
  -34.4680  -15.3940   13.5500 C   0  0  0  0  0  2  0  0  0  0  0  0
  -33.9500  -14.7730   12.2340 C   0  0  0  0  0  2  0  0  0  0  0  0
  -33.4410  -15.7860   11.1840 C   0  0  0  0  0  2  0  0  0  0  0  0
  -33.9790  -15.5320    9.7670 C   0  0  0  0  0  2  0  0  0  0  0  0
  -35.4800  -15.2090    9.6940 C   0  0  0  0  0  2  0  0  0  0  0  0
  -36.3960  -16.3480   10.1630 C   0  0  0  0  0  2  0  0  0  0  0  0
  -37.8500  -16.1200    9.7120 C   0  0  0  0  0  2  0  0  0  0  0  0
  -38.6720  -17.3980    9.4900 C   0  0  0  0  0  2  0  0  0  0  0  0
  -38.2000  -18.2350    8.2830 C   0  0  0  0  0  2  0  0  0  0  0  0
  -37.0880  -19.2490    8.6050 C   0  0  0  0  0  2  0  0  0  0  0  0
  -35.8500  -19.1730    7.6700 C   0  0  0  0  0  2  0  0  0  0  0  0
  -34.7290  -19.9120    8.1750 O   0  0  0  0  0  0  0  0  0  0  0  0
  -39.5990  -24.9690    9.0160 C   0  0  0  0  0  0  0  0  0  0  0  0
  -35.0900  -21.0350    8.8730 C   0  0  0  0  0  0  0  0  0  0  0  0
  -38.0540  -24.6330   10.9200 C   0  0  0  0  0  3  0  0  0  0  0  0
  -36.0050  -23.1830   10.4420 C   0  0  0  0  0  0  0  0  0  0  0  0
  -37.3010  -24.1440    8.5290 C   0  0  0  0  0  2  0  0  0  0  0  0
  -36.3870  -23.0860    9.0990 C   0  0  0  0  0  0  0  0  0  0  0  0
  -35.9230  -22.0220    8.3070 C   0  0  0  0  0  3  0  0  0  0  0  0
  -34.6880  -21.1510   10.2170 C   0  0  0  0  0  3  0  0  0  0  0  0
  -35.1440  -22.2240   11.0090 C   0  0  0  0  0  3  0  0  0  0  0  0
  -36.5510  -24.3620   11.2140 C   0  0  0  0  0  2  0  0  0  0  0  0
  -38.3730  -24.5690    9.4560 N   0  0  0  0  0  0  0  0  0  0  0  0
  -40.4410  -25.4320    9.8000 O   0  0  0  0  0  0  0  0  0  0  0  0
  -38.9070  -23.6700   11.7750 C   0  0  0  0  0  0  0  0  0  0  0  0
  -39.1720  -24.0660   13.0310 N   0  0  0  0  0  0  0  0  0  0  0  0
  -39.2890  -22.5880   11.3200 O   0  0  0  0  0  0  0  0  0  0  0  0
  -38.8220  -24.9670   13.3260 H   0  0  0  0  0  0  0  0  0  0  0  0
  -40.5200  -24.2230   16.3740 C   0  0  0  0  0  0  0  0  0  0  0  0
  -39.9250  -23.3130   14.0310 C   0  0  0  0  0  3  0  0  0  0  0  0
  -39.0090  -22.3060   14.7630 C   0  0  0  0  0  2  0  0  0  0  0  0
  -38.4100  -22.8670   16.0550 C   0  0  0  0  0  2  0  0  0  0  0  0
  -39.5170  -23.2880   17.0260 C   0  0  0  0  0  2  0  0  0  0  0  0
  -40.7000  -24.2460   14.9660 C   0  0  0  0  0  0  0  0  0  0  0  0
  -41.6200  -25.1590   14.4070 C   0  0  0  0  0  3  0  0  0  0  0  0
  -42.3590  -26.0300   15.2300 C   0  0  0  0  0  3  0  0  0  0  0  0
  -42.1880  -25.9940   16.6240 C   0  0  0  0  0  3  0  0  0  0  0  0
  -41.2730  -25.0900   17.1930 C   0  0  0  0  0  3  0  0  0  0  0  0
  -39.9970  -24.8890    7.5100 C   0  0  0  0  0  3  0  0  0  0  0  0
  -40.9260  -23.6580    7.1730 C   0  0  1  0  0  0  0  0  0  0  0  0
  -42.2000  -23.5840    8.0440 C   0  0  0  0  0  1  0  0  0  0  0  0
  -40.1540  -22.3300    7.3540 C   0  0  0  0  0  1  0  0  0  0  0  0
  -41.3650  -23.7210    5.6910 C   0  0  0  0  0  1  0  0  0  0  0  0
  -40.6560  -26.1540    7.1590 N   0  0  0  0  0  0  0  0  0  0  0  0
  -40.0460  -27.1890    6.5690 C   0  0  0  0  0  0  0  0  0  0  0  0
  -38.8710  -27.1510    6.1910 O   0  0  0  0  0  0  0  0  0  0  0  0
  -41.6000  -26.2800    7.4910 H   0  0  0  0  0  0  0  0  0  0  0  0
  -40.4810  -29.5130    7.4320 C   0  0  0  0  0  1  0  0  0  0  0  0
  -40.8700  -28.4750    6.3660 C   0  0  0  0  0  3  0  0  0  0  0  0
  -41.3490  -28.2760    3.9660 C   0  0  0  0  0  1  0  0  0  0  0  0
  -40.7160  -29.0660    5.0180 N   0  0  0  0  0  0  0  0  0  0  0  0
  -41.1030  -30.0040    4.9900 H   0  0  0  0  0  0  0  0  0  0  0  0
  1  5  1  0
  1  3  2  0
  2  1  1  0
  4  2  1  0
  6  5  1  0
  7  6  1  0
  8  9  1  0
  8  7  1  0
 10  9  1  0
 11 10  1  0
 12 11  1  0
 13 12  1  0
 14 13  1  0
 15 14  1  0
 16 17  1  0
 16 15  1  0
 17 18  1  0
 19 18  1  0
 19 20  1  0
 20 21  1  0
 21 22  1  0
 22 23  1  0
 23 32  1  0
 24 31  2  0
 24 30  1  0
 26 25  1  0
 27 26  1  0
 28 37  1  0
 28 27  1  0
 28 29  1  0
 29 30  1  0
 30 25  1  0
 32 24  1  0
 33 32  1  0
 34 35  2  0
 34 37  1  0
 35 36  1  0
 36 38  2  0
 36 39  1  0
 37 38  1  0
 39 44  2  0
 39 40  1  0
 40 41  2  0
 41 42  1  0
 42 45  1  0
 43 42  2  0
 44 43  1  0
 45 46  1  0
 46 51  1  0
 47 48  1  0
 47 46  2  0
 48 49  2  0
 49 53  1  0
 49 50  1  0
 51 50  2  0
 51 52  1  0
 54 55  1  0
 54 35  1  0
 55 57  1  0
 56 54  2  0
 58 55  1  0
 59 34  1  0
 60 59  1  0
 61 59  1  0
 62  2  1  0
 63 62  1  0
 64 63  1  0
 65 64  1  0
 66 68  2  0
 66 65  1  0
 67 66  1  0
 69 67  1  0
 70 67  1  0
 71 70  1  0
 72 71  1  0
 73 72  1  0
 74 73  1  0
 74 75  1  0
 76 75  1  0
 77 76  1  0
 78 79  1  0
 78 77  1  0
 80 81  1  0
 80 79  1  0
 81 83  1  0
 82 92  1  0
 82 93  2  0
 83 89  1  0
 84 91  1  0
 84 94  1  0
 85 90  1  0
 85 91  1  0
 86 87  1  0
 86 92  1  0
 87 85  2  0
 88 83  2  0
 88 87  1  0
 89 90  2  0
 92 84  1  0
 94 95  1  0
 95 97  1  0
 96 94  2  0
 98102  1  0
 98107  1  0
 99 95  1  0
 99100  1  0
 99103  1  0
100101  1  0
101102  1  0
103 98  2  0
104103  1  0
104105  2  0
105106  1  0
106107  2  0
108 82  1  0
109111  1  6
109108  1  0
109110  1  0
112109  1  0
113116  1  0
113108  1  0
114113  1  0
115114  2  0
118114  1  0
118117  1  0
119120  1  0
120118  1  0
121120  1  0
M  ISO  4  24 100  32 100  80 101  81 101
M  END
>  <TORSDO>  (60) 
F 51

>  <SCORE>  (60) 
-0.607

>  <name>  (60) 
75

>  <ligand_id>  (60) 
75

>  <original_smiles>  (60) 
[H]c1c([H])c([H])c2c(c1[H])C([H])([H])C([H])([H])C([H])([H])C2([H])N([H])C(=O)C1([H])N(C(=O)C([H])(N([H])C(=O)C([H])(N([H])C([H])([H])[H])C([H])([H])[H])C(C([H])([H])[H])(C([H])([H])[H])C([H])([H])[H])C([H])([H])c2c([H])c(OC([H])([H])C([H])([H])C([H])([H])C([H])([H])C([H])([H])C([H])([H])C([H])([H])C([H])([H])C([H])([H])C([H])([H])C([H])([H])N([H])C(=O)C([H])([H])C([H])([H])C([H])([H])C([H])([H])N([H])C(=O)C([H])([H])OC([H])([H])C([H])([H])OC([H])([H])C([H])([H])OC([H])([H])C([H])([H])OC([H])([H])C([H])([H])OC([H])([H])C([H])([H])OC([H])([H])C([H])([H])N([H])C(=O)N3C([H])([H])C([H])([H])C([H])([H])C([H])(n4nc(-c5c([H])c([H])c(Oc6c([H])c([H])c(F)c([H])c6F)c([H])c5[H])c(C(=O)N([H])[H])c4N([H])[H])C3([H])[H])c([H])c([H])c2C1([H])[H]

>  <smiles>  (60) 
[H]c1c([H])c([H])c2c(c1[H])C([H])([H])C([H])([H])C([H])([H])C2([H])N([H])C(=O)C1([H])N(C(=O)C([H])(N([H])C(=O)C([H])(N([H])C([H])([H])[H])C([H])([H])[H])C(C([H])([H])[H])(C([H])([H])[H])C([H])([H])[H])C([H])([H])c2c([H])c(OC([H])([H])C([H])([H])C([H])([H])C([H])([H])C([H])([H])C([H])([H])C([H])([H])C([H])([H])C([H])([H])C([H])([H])C([H])([H])N([H])C(=O)C([H])([H])C([H])([H])C([H])([H])C([H])([H])N([H])C(=O)C([H])([H])OC([H])([H])C([H])([H])OC([H])([H])C([H])([H])OC([H])([H])C([H])([H])OC([H])([H])C([H])([H])OC([H])([H])C([H])([H])OC([H])([H])C([H])([H])N([H])C(=O)N3C([H])([H])C([H])([H])C([H])([H])C([H])(n4nc(-c5c([H])c([H])c(Oc6c([H])c([H])c(F)c([H])c6F)c([H])c5[H])c(C(=O)N([H])[H])c4N([H])[H])C3([H])[H])c([H])c([H])c2C1([H])[H]

$$$$
76:0:0
     RDKit          3D

107114  0  0  1  0  0  0  0  0999 V2000
  -28.7870  -23.1440   19.3840 C   0  0  0  0  0  0  0  0  0  0  0  0
  -27.5430  -23.6400   19.4410 N   0  0  0  0  0  0  0  0  0  0  0  0
  -29.4350  -22.8230   20.3780 O   0  0  0  0  0  0  0  0  0  0  0  0
  -27.1090  -23.8780   18.5610 H   0  0  0  0  0  0  0  0  0  0  0  0
  -26.8050  -24.0060   20.6510 C   0  0  0  0  0  2  0  0  0  0  0  0
  -26.9170  -22.9700   21.7900 C   0  0  0  0  0  2  0  0  0  0  0  0
  -28.2280  -22.9070   22.3310 O   0  0  0  0  0  0  0  0  0  0  0  0
  -28.6060  -24.0630   23.0750 C   0  0  0  0  0  2  0  0  0  0  0  0
  -30.1390  -24.1220   23.1300 C   0  0  0  0  0  2  0  0  0  0  0  0
  -30.6470  -24.5140   21.8600 O   0  0  0  0  0  0  0  0  0  0  0  0
  -30.7420  -25.9200   21.6730 C   0  0  0  0  0  2  0  0  0  0  0  0
  -30.8760  -26.2240   20.1740 C   0  0  0  0  0  2  0  0  0  0  0  0
  -29.5890  -26.4860   19.6310 O   0  0  0  0  0  0  0  0  0  0  0  0
  -29.5990  -26.6870   18.2230 C   0  0  0  0  0  2  0  0  0  0  0  0
  -28.5620  -27.7610   17.8800 C   0  0  0  0  0  2  0  0  0  0  0  0
  -27.2460  -27.2020   17.8550 O   0  0  0  0  0  0  0  0  0  0  0  0
  -24.3400  -31.5290   22.7630 C   0  0  0  0  0  0  0  0  0  0  0  0
  -26.1680  -27.9300   18.3230 C   0  0  0  0  0  0  0  0  0  0  0  0
  -22.7630  -30.4490   21.1870 C   0  0  0  0  0  3  0  0  0  0  0  0
  -23.8290  -29.2850   19.1830 C   0  0  0  0  0  0  0  0  0  0  0  0
  -25.1700  -30.9430   20.4930 C   0  0  0  0  0  2  0  0  0  0  0  0
  -25.0900  -29.7320   19.5900 C   0  0  0  0  0  0  0  0  0  0  0  0
  -26.2560  -29.0670   19.1640 C   0  0  0  0  0  3  0  0  0  0  0  0
  -24.8880  -27.4960   17.9200 C   0  0  0  0  0  3  0  0  0  0  0  0
  -23.7190  -28.1600   18.3470 C   0  0  0  0  0  3  0  0  0  0  0  0
  -22.6370  -30.0680   19.6860 C   0  0  0  0  0  2  0  0  0  0  0  0
  -24.1220  -30.9760   21.5370 N   0  0  0  0  0  0  0  0  0  0  0  0
  -23.4200  -31.6480   23.5830 O   0  0  0  0  0  0  0  0  0  0  0  0
  -22.3350  -29.2360   22.0410 C   0  0  0  0  0  0  0  0  0  0  0  0
  -21.0210  -28.9600   22.0660 N   0  0  0  0  0  0  0  0  0  0  0  0
  -23.1730  -28.5500   22.6330 O   0  0  0  0  0  0  0  0  0  0  0  0
  -20.4010  -29.5780   21.5620 H   0  0  0  0  0  0  0  0  0  0  0  0
  -17.8720  -27.2650   22.5830 C   0  0  0  0  0  0  0  0  0  0  0  0
  -20.3870  -27.8420   22.7650 C   0  0  0  0  0  3  0  0  0  0  0  0
  -20.6430  -26.5060   22.0270 C   0  0  0  0  0  2  0  0  0  0  0  0
  -19.5320  -26.1380   21.0380 C   0  0  0  0  0  2  0  0  0  0  0  0
  -18.1850  -26.0280   21.7580 C   0  0  0  0  0  2  0  0  0  0  0  0
  -18.9060  -28.1250   23.0420 C   0  0  0  0  0  0  0  0  0  0  0  0
  -18.5590  -29.2820   23.7730 C   0  0  0  0  0  3  0  0  0  0  0  0
  -17.2110  -29.5810   24.0530 C   0  0  0  0  0  3  0  0  0  0  0  0
  -16.1940  -28.7140   23.6150 C   0  0  0  0  0  3  0  0  0  0  0  0
  -16.5250  -27.5590   22.8840 C   0  0  0  0  0  3  0  0  0  0  0  0
  -25.7490  -32.0550   23.1880 C   0  0  0  0  0  3  0  0  0  0  0  0
  -26.5410  -31.0410   24.0990 C   0  0  1  0  0  0  0  0  0  0  0  0
  -25.7320  -30.5390   25.3160 C   0  0  0  0  0  1  0  0  0  0  0  0
  -26.9820  -29.8070   23.2770 C   0  0  0  0  0  1  0  0  0  0  0  0
  -27.8340  -31.7090   24.6250 C   0  0  0  0  0  1  0  0  0  0  0  0
  -25.5560  -33.3330   23.8800 N   0  0  0  0  0  0  0  0  0  0  0  0
  -25.7700  -34.5340   23.3270 C   0  0  0  0  0  0  0  0  0  0  0  0
  -26.2240  -34.6760   22.1880 O   0  0  0  0  0  0  0  0  0  0  0  0
  -25.1380  -33.2930   24.7980 H   0  0  0  0  0  0  0  0  0  0  0  0
  -24.0690  -36.3410   23.7070 C   0  0  0  0  0  1  0  0  0  0  0  0
  -25.4200  -35.7740   24.1700 C   0  0  0  0  0  3  0  0  0  0  0  0
  -27.6960  -36.4570   24.7800 C   0  0  0  0  0  1  0  0  0  0  0  0
  -26.4520  -36.8310   24.1140 N   0  0  0  0  0  0  0  0  0  0  0  0
  -26.1110  -37.6890   24.5370 H   0  0  0  0  0  0  0  0  0  0  0  0
  -29.4160  -22.9880   17.9920 C   0  0  0  0  0  2  0  0  0  0  0  0
  -29.4680  -21.6070   17.6290 O   0  0  0  0  0  0  0  0  0  0  0  0
  -28.3970  -21.1890   16.7910 C   0  0  0  0  0  2  0  0  0  0  0  0
  -28.5350  -19.6850   16.4930 C   0  0  0  0  0  2  0  0  0  0  0  0
  -28.5090  -18.8760   17.6720 O   0  0  0  0  0  0  0  0  0  0  0  0
  -27.2870  -18.9340   18.4020 C   0  0  0  0  0  2  0  0  0  0  0  0
  -27.3610  -18.0840   19.6810 C   0  0  0  0  0  2  0  0  0  0  0  0
  -28.0280  -18.7380   20.7570 O   0  0  0  0  0  0  0  0  0  0  0  0
  -29.4390  -18.5690   20.7920 C   0  0  0  0  0  2  0  0  0  0  0  0
  -29.8370  -17.2620   21.5160 C   0  0  0  0  0  2  0  0  0  0  0  0
  -31.2380  -17.1100   21.7450 O   0  0  0  0  0  0  0  0  0  0  0  0
  -32.0870  -17.0460   20.5990 C   0  0  0  0  0  2  0  0  0  0  0  0
  -31.6970  -15.9790   19.5610 C   0  0  0  0  0  2  0  0  0  0  0  0
  -31.8340  -13.5390   19.9770 C   0  0  0  0  0  0  0  0  0  0  0  0
  -31.3460  -11.1440   19.7290 C   0  0  0  0  0  2  0  0  0  0  0  0
  -30.4220  -10.9530   18.5100 C   0  0  0  0  0  2  0  0  0  0  0  0
  -28.9430  -11.0950   18.9200 C   0  0  0  0  0  2  0  0  0  0  0  0
  -28.6760  -12.3740   19.7610 C   0  0  0  0  0  3  0  0  0  0  0  0
  -29.7150  -12.5170   20.8960 C   0  0  0  0  0  2  0  0  0  0  0  0
  -31.0630  -12.4680   20.2980 N   0  0  0  0  0  0  0  0  0  0  0  0
  -32.9260  -13.4460   19.4120 O   0  0  0  0  0  0  0  0  0  0  0  0
  -31.2680  -14.7290   20.1850 N   0  0  0  0  0  0  0  0  0  0  0  0
  -30.3810  -14.7340   20.6640 H   0  0  0  0  0  0  0  0  0  0  0  0
  -26.4850  -13.4790   20.5380 C   0  0  0  0  0  0  0  0  0  0  0  0
  -25.2860  -12.9570   20.9370 C   0  0  0  0  0  0  0  0  0  0  0  0
  -25.4350  -11.5380   20.8660 C   0  0  0  0  0  0  0  0  0  0  0  0
  -27.3080  -12.3960   20.2720 N   0  0  0  0  0  0  0  0  0  0  0  0
  -26.6760  -11.2200   20.5190 N   0  0  0  0  0  0  0  0  0  0  0  0
  -24.4520  -10.4660   21.0550 C   0  0  0  0  0  0  0  0  0  0  0  0
  -24.7190   -9.3540   21.8850 C   0  0  0  0  0  3  0  0  0  0  0  0
  -23.7470   -8.3460   22.0630 C   0  0  0  0  0  3  0  0  0  0  0  0
  -22.4940   -8.4460   21.4140 C   0  0  0  0  0  0  0  0  0  0  0  0
  -22.2430   -9.5420   20.5690 C   0  0  0  0  0  3  0  0  0  0  0  0
  -23.2130  -10.5420   20.3880 C   0  0  0  0  0  3  0  0  0  0  0  0
  -21.5000   -7.5010   21.5090 O   0  0  0  0  0  0  0  0  0  0  0  0
  -21.4370   -6.6280   22.5660 C   0  0  0  0  0  0  0  0  0  0  0  0
  -21.3200   -7.0790   23.8980 C   0  0  0  0  0  3  0  0  0  0  0  0
  -21.1880   -6.1470   24.9470 C   0  0  0  0  0  3  0  0  0  0  0  0
  -21.1630   -4.7680   24.6660 C   0  0  0  0  0  0  0  0  0  0  0  0
  -21.2740   -4.3170   23.3380 C   0  0  0  0  0  3  0  0  0  0  0  0
  -21.4070   -5.2460   22.2910 C   0  0  0  0  0  0  0  0  0  0  0  0
  -21.4920   -4.8060   21.0120 F   0  0  0  0  0  0  0  0  0  0  0  0
  -21.0270   -3.8740   25.6730 F   0  0  0  0  0  0  0  0  0  0  0  0
  -24.0400  -13.7290   21.2650 C   0  0  0  0  0  0  0  0  0  0  0  0
  -23.2130  -13.2040   22.1620 N   0  0  0  0  0  0  0  0  0  0  0  0
  -23.8170  -14.8290   20.7610 O   0  0  0  0  0  0  0  0  0  0  0  0
  -23.4040  -12.3100   22.5880 H   0  0  0  0  0  0  0  0  0  0  0  0
  -22.3770  -13.7030   22.4290 H   0  0  0  0  0  0  0  0  0  0  0  0
  -26.9340  -14.7800   20.3520 N   0  0  0  0  0  0  0  0  0  0  0  0
  -26.2940  -15.5640   20.4220 H   0  0  0  0  0  0  0  0  0  0  0  0
  -27.8060  -15.0070   19.8950 H   0  0  0  0  0  0  0  0  0  0  0  0
  1  2  1  0
  1  3  2  0
  2  5  1  0
  4  2  1  0
  5  6  1  0
  6  7  1  0
  7  8  1  0
  8  9  1  0
 10  9  1  0
 11 10  1  0
 12 11  1  0
 13 12  1  0
 14 13  1  0
 15 14  1  0
 16 15  1  0
 16 18  1  0
 17 28  2  0
 18 23  1  0
 19 27  1  0
 19 29  1  0
 20 22  1  0
 20 26  1  0
 21 27  1  0
 22 21  1  0
 23 22  2  0
 24 18  2  0
 24 25  1  0
 25 20  2  0
 26 19  1  0
 27 17  1  0
 29 30  1  0
 29 31  2  0
 32 30  1  0
 33 42  2  0
 33 38  1  0
 34 30  1  0
 34 38  1  0
 35 34  1  0
 36 37  1  0
 36 35  1  0
 37 33  1  0
 38 39  2  0
 39 40  1  0
 41 40  2  0
 42 41  1  0
 43 17  1  0
 43 48  1  0
 43 44  1  0
 44 47  1  1
 44 45  1  0
 46 44  1  0
 48 51  1  0
 49 48  1  0
 49 53  1  0
 50 49  2  0
 53 52  1  0
 55 53  1  0
 55 56  1  0
 55 54  1  0
 57  1  1  0
 58 57  1  0
 59 58  1  0
 60 59  1  0
 60 61  1  0
 61 62  1  0
 62 63  1  0
 63 64  1  0
 64 65  1  0
 65 66  1  0
 66 67  1  0
 68 67  1  0
 69 78  1  0
 69 68  1  0
 70 78  1  0
 70 76  1  0
 71 76  1  0
 72 73  1  0
 72 71  1  0
 74 73  1  0
 74 83  1  0
 74 75  1  0
 76 75  1  0
 77 70  2  0
 78 79  1  0
 80 81  2  0
 81100  1  0
 82 81  1  0
 82 85  1  0
 83 84  1  0
 83 80  1  0
 84 82  2  0
 85 86  1  0
 86 87  2  0
 88 91  1  0
 88 87  1  0
 89 88  2  0
 90 89  1  0
 90 85  2  0
 91 92  1  0
 92 93  1  0
 93 94  2  0
 95 94  1  0
 95 99  1  0
 96 95  2  0
 97 92  2  0
 97 96  1  0
 98 97  1  0
100101  1  0
101104  1  0
101103  1  0
102100  2  0
105106  1  0
105 80  1  0
107105  1  0
M  ISO  4  15 101  16 101  70 100  78 100
M  END
>  <TORSDO>  (61) 
F 40

>  <SCORE>  (61) 
-6.213

>  <name>  (61) 
76

>  <ligand_id>  (61) 
76

>  <original_smiles>  (61) 
[H]c1c([H])c([H])c2c(c1[H])C([H])([H])C([H])([H])C([H])([H])C2([H])N([H])C(=O)C1([H])N(C(=O)C([H])(N([H])C(=O)C([H])(N([H])C([H])([H])[H])C([H])([H])[H])C(C([H])([H])[H])(C([H])([H])[H])C([H])([H])[H])C([H])([H])c2c([H])c(OC([H])([H])C([H])([H])OC([H])([H])C([H])([H])OC([H])([H])C([H])([H])OC([H])([H])C([H])([H])N([H])C(=O)C([H])([H])OC([H])([H])C([H])([H])OC([H])([H])C([H])([H])OC([H])([H])C([H])([H])OC([H])([H])C([H])([H])N([H])C(=O)N3C([H])([H])C([H])([H])C([H])([H])C([H])(n4nc(-c5c([H])c([H])c(Oc6c([H])c([H])c(F)c([H])c6F)c([H])c5[H])c(C(=O)N([H])[H])c4N([H])[H])C3([H])[H])c([H])c([H])c2C1([H])[H]

>  <smiles>  (61) 
[H]c1c([H])c([H])c2c(c1[H])C([H])([H])C([H])([H])C([H])([H])C2([H])N([H])C(=O)C1([H])N(C(=O)C([H])(N([H])C(=O)C([H])(N([H])C([H])([H])[H])C([H])([H])[H])C(C([H])([H])[H])(C([H])([H])[H])C([H])([H])[H])C([H])([H])c2c([H])c(OC([H])([H])C([H])([H])OC([H])([H])C([H])([H])OC([H])([H])C([H])([H])OC([H])([H])C([H])([H])N([H])C(=O)C([H])([H])OC([H])([H])C([H])([H])OC([H])([H])C([H])([H])OC([H])([H])C([H])([H])OC([H])([H])C([H])([H])N([H])C(=O)N3C([H])([H])C([H])([H])C([H])([H])C([H])(n4nc(-c5c([H])c([H])c(Oc6c([H])c([H])c(F)c([H])c6F)c([H])c5[H])c(C(=O)N([H])[H])c4N([H])[H])C3([H])[H])c([H])c([H])c2C1([H])[H]

$$$$
78:0:0
     RDKit          3D

109112  0  0  1  0  0  0  0  0999 V2000
  -20.5530  -21.1630   21.7730 O   0  0  0  0  0  0  0  0  0  0  0  0
  -21.4060  -21.3450   20.6480 C   0  0  0  0  0  2  0  0  0  0  0  0
  -21.7320  -19.9690   20.0330 C   0  0  0  0  0  2  0  0  0  0  0  0
  -20.5510  -19.2120   19.7690 O   0  0  0  0  0  0  0  0  0  0  0  0
  -20.8330  -17.8830   19.3140 C   0  0  0  0  0  2  0  0  0  0  0  0
  -19.5810  -16.9940   19.4400 C   0  0  0  0  0  2  0  0  0  0  0  0
  -19.9230  -15.6200   19.2500 O   0  0  0  0  0  0  0  0  0  0  0  0
  -18.8230  -14.7320   19.4270 C   0  0  0  0  0  2  0  0  0  0  0  0
  -19.2160  -13.2610   19.1730 C   0  0  0  0  0  2  0  0  0  0  0  0
  -19.4600  -12.5430   20.3830 O   0  0  0  0  0  0  0  0  0  0  0  0
  -19.3040  -11.1300   20.2020 C   0  0  0  0  0  2  0  0  0  0  0  0
  -19.7890  -10.3050   21.4170 C   0  0  0  0  0  2  0  0  0  0  0  0
  -21.1180  -10.7240   21.7080 O   0  0  0  0  0  0  0  0  0  0  0  0
  -22.1750   -9.8100   22.1190 C   0  0  0  0  0  1  0  0  0  0  0  0
  -24.4300   -8.6120   20.1410 C   0  0  0  0  0  1  0  0  0  0  0  0
  -25.6140   -9.3860   19.5610 O   0  0  0  0  0  0  0  0  0  0  0  0
  -27.0090   -9.4090   20.1040 C   0  0  0  0  0  2  0  0  0  0  0  0
  -28.1510  -10.4040   19.4630 C   0  0  0  0  0  2  0  0  0  0  0  0
  -28.8640  -11.4800   20.2900 O   0  0  0  0  0  1  0  0  0  0  0  0
  -30.0190  -13.2300   20.2410 C   0  0  2  0  0  0  0  0  0  0  0  0
  -30.8340  -12.0560   19.4960 C   0  0  0  0  0  1  0  0  0  0  0  0
  -29.6850  -12.3260   18.0720 C   0  0  0  0  0  1  0  0  0  0  0  0
  -28.1260  -13.0180   18.4160 C   0  0  0  0  0  2  0  0  0  0  0  0
  -27.6650  -13.5810   19.9940 C   0  0  0  0  0  2  0  0  0  0  0  0
  -28.8630  -13.3890   21.3710 C   0  0  0  0  0  1  0  0  0  0  0  0
  -30.3690  -12.6930   21.0260 N   0  0  0  0  0  1  0  0  0  0  0  0
  -30.4970  -14.3490   19.7410 O   0  0  0  0  0  1  0  0  0  0  0  0
  -25.2260  -14.0290   20.5660 C   0  0  0  0  0  0  0  0  0  0  0  0
  -24.1850  -13.2360   20.9310 C   0  0  0  0  0  0  0  0  0  0  0  0
  -24.7050  -11.9320   20.9280 C   0  0  0  0  0  0  0  0  0  0  0  0
  -26.3130  -13.2060   20.3800 N   0  0  0  0  0  0  0  0  0  0  0  0
  -25.9890  -11.9390   20.6660 N   0  0  0  0  0  0  0  0  0  0  0  0
  -24.0350  -10.6980   21.0770 C   0  0  0  0  0  0  0  0  0  0  0  0
  -24.4960   -9.5730   22.2520 C   0  0  0  0  0  3  0  0  0  0  0  0
  -23.7220   -8.0800   22.3120 C   0  0  0  0  0  3  0  0  0  0  0  0
  -22.5210   -7.7200   21.1850 C   0  0  0  0  0  0  0  0  0  0  0  0
  -22.0890   -8.8260   20.0120 C   0  0  0  0  0  3  0  0  0  0  0  0
  -22.8520  -10.3170   19.9390 C   0  0  0  0  0  3  0  0  0  0  0  0
  -21.6380   -6.7040   21.3580 O   0  0  0  0  0  0  0  0  0  0  0  0
  -21.6620   -5.9790   22.5110 C   0  0  0  0  0  0  0  0  0  0  0  0
  -21.3590   -6.5060   23.7890 C   0  0  0  0  0  3  0  0  0  0  0  0
  -21.3490   -5.6540   24.9100 C   0  0  0  0  0  3  0  0  0  0  0  0
  -21.6080   -4.2800   24.7440 C   0  0  0  0  0  0  0  0  0  0  0  0
  -21.8940   -3.7580   23.4700 C   0  0  0  0  0  3  0  0  0  0  0  0
  -21.9280   -4.6140   22.3570 C   0  0  0  0  0  0  0  0  0  0  0  0
  -22.1850   -4.1220   21.1220 F   0  0  0  0  0  0  0  0  0  0  0  0
  -21.5720   -3.4510   25.8100 F   0  0  0  0  0  0  0  0  0  0  0  0
  -22.7820  -13.6670   21.1860 C   0  0  0  0  0  0  0  0  0  0  0  0
  -22.0830  -13.0400   22.1160 N   0  0  0  0  0  0  0  0  0  0  0  0
  -22.3220  -14.6490   20.6190 O   0  0  0  0  0  0  0  0  0  0  0  0
  -22.4000  -12.1630   22.5000 H   0  0  0  0  0  0  0  0  0  0  0  0
  -21.1020  -13.2580   22.2140 H   0  0  0  0  0  0  0  0  0  0  0  0
  -25.3380  -15.3960   20.3900 N   0  0  0  0  0  0  0  0  0  0  0  0
  -24.5220  -15.9960   20.4600 H   0  0  0  0  0  0  0  0  0  0  0  0
  -26.1720  -15.8950   20.1280 H   0  0  0  0  0  0  0  0  0  0  0  0
  -20.0900  -22.3650   22.3850 C   0  0  0  0  0  2  0  0  0  0  0  0
  -20.7330  -22.5730   23.7630 C   0  0  0  0  0  2  0  0  0  0  0  0
  -21.8950  -23.3900   23.6860 O   0  0  0  0  0  0  0  0  0  0  0  0
  -22.4420  -23.6470   24.9760 C   0  0  0  0  0  2  0  0  0  0  0  0
  -23.3710  -24.8600   24.9430 C   0  0  0  0  0  2  0  0  0  0  0  0
  -24.6180  -24.5170   24.3550 O   0  0  0  0  0  0  0  0  0  0  0  0
  -25.5910  -25.5440   24.5030 C   0  0  0  0  0  2  0  0  0  0  0  0
  -26.9290  -25.0640   23.9180 C   0  0  0  0  0  2  0  0  0  0  0  0
  -27.2340  -25.7270   22.6360 N   0  0  0  0  0  4  0  0  0  0  0  0
  -26.4950  -25.4970   21.9930 H   0  0  0  0  0  0  0  0  0  0  0  0
  -27.2190  -26.7300   22.7570 H   0  0  0  0  0  0  0  0  0  0  0  0
  -28.5300  -25.3480   22.0280 C   0  0  0  0  0  2  0  0  0  0  0  0
  -28.4950  -25.4660   20.4960 C   0  0  0  0  0  2  0  0  0  0  0  0
  -28.4650  -26.8290   20.0770 O   0  0  0  0  0  0  0  0  0  0  0  0
  -24.6170  -31.8790   23.2210 C   0  0  0  0  0  0  0  0  0  0  0  0
  -27.2610  -27.4960   20.0920 C   0  0  0  0  0  0  0  0  0  0  0  0
  -23.4120  -30.4980   21.5600 C   0  0  0  0  0  3  0  0  0  0  0  0
  -24.8580  -28.9660   20.1380 C   0  0  0  0  0  0  0  0  0  0  0  0
  -25.9430  -30.8610   21.3730 C   0  0  0  0  0  2  0  0  0  0  0  0
  -26.0190  -29.5030   20.7040 C   0  0  0  0  0  0  0  0  0  0  0  0
  -27.2270  -28.7880   20.6480 C   0  0  0  0  0  3  0  0  0  0  0  0
  -26.0720  -26.9390   19.5660 C   0  0  0  0  0  3  0  0  0  0  0  0
  -24.8770  -27.6820   19.5640 C   0  0  0  0  0  3  0  0  0  0  0  0
  -23.6280  -29.8410   20.1720 C   0  0  0  0  0  2  0  0  0  0  0  0
  -24.6760  -31.0920   22.1080 N   0  0  0  0  0  0  0  0  0  0  0  0
  -23.5320  -32.1500   23.7530 O   0  0  0  0  0  0  0  0  0  0  0  0
  -22.7570  -29.4630   22.5020 C   0  0  0  0  0  0  0  0  0  0  0  0
  -21.4320  -29.3000   22.3750 N   0  0  0  0  0  0  0  0  0  0  0  0
  -23.4400  -28.8110   23.2990 O   0  0  0  0  0  0  0  0  0  0  0  0
  -20.9560  -29.8760   21.6970 H   0  0  0  0  0  0  0  0  0  0  0  0
  -18.0390  -28.1340   22.8580 C   0  0  0  0  0  0  0  0  0  0  0  0
  -20.6000  -28.3630   23.1330 C   0  0  0  0  0  3  0  0  0  0  0  0
  -20.6830  -26.9340   22.5460 C   0  0  0  0  0  2  0  0  0  0  0  0
  -19.5690  -26.6230   21.5380 C   0  0  0  0  0  2  0  0  0  0  0  0
  -18.1960  -26.7820   22.1900 C   0  0  0  0  0  2  0  0  0  0  0  0
  -19.1640  -28.8820   23.2950 C   0  0  0  0  0  0  0  0  0  0  0  0
  -18.9500  -30.1440   23.8950 C   0  0  0  0  0  3  0  0  0  0  0  0
  -17.6450  -30.6490   24.0640 C   0  0  0  0  0  3  0  0  0  0  0  0
  -16.5380  -29.8980   23.6320 C   0  0  0  0  0  3  0  0  0  0  0  0
  -16.7370  -28.6430   23.0340 C   0  0  0  0  0  3  0  0  0  0  0  0
  -25.9030  -32.4920   23.8590 C   0  0  0  0  0  3  0  0  0  0  0  0
  -26.4440  -31.6720   25.0920 C   0  0  1  0  0  0  0  0  0  0  0  0
  -25.3660  -31.3740   26.1620 C   0  0  0  0  0  1  0  0  0  0  0  0
  -27.0290  -30.3190   24.6260 C   0  0  0  0  0  1  0  0  0  0  0  0
  -27.6090  -32.4440   25.7560 C   0  0  0  0  0  1  0  0  0  0  0  0
  -25.5860  -33.8720   24.2500 N   0  0  0  0  0  0  0  0  0  0  0  0
  -25.9030  -34.9540   23.5250 C   0  0  0  0  0  0  0  0  0  0  0  0
  -26.5580  -34.8920   22.4810 O   0  0  0  0  0  0  0  0  0  0  0  0
  -25.0040  -33.9940   25.0640 H   0  0  0  0  0  0  0  0  0  0  0  0
  -24.1450  -36.7290   23.2670 C   0  0  0  0  0  1  0  0  0  0  0  0
  -25.4090  -36.3200   24.0410 C   0  0  0  0  0  3  0  0  0  0  0  0
  -27.5580  -37.1850   24.8530 C   0  0  0  0  0  1  0  0  0  0  0  0
  -26.4330  -37.3840   23.9430 N   0  0  0  0  0  0  0  0  0  0  0  0
  -26.0270  -38.2990   24.1270 H   0  0  0  0  0  0  0  0  0  0  0  0
  1 56  1  0
  2  1  1  0
  3  2  1  0
  4  3  1  0
  5  6  1  0
  5  4  1  0
  7  8  1  0
  7  6  1  0
  9  8  1  0
  9 10  1  0
 11 10  1  0
 11 12  1  0
 12 13  1  0
 13 14  1  0
 16 17  1  0
 16 15  1  0
 18 17  1  0
 18 19  1  0
 20 26  1  0
 20 25  1  6
 21 20  1  0
 22 23  1  0
 23 24  1  0
 24 31  1  0
 27 20  1  0
 28 29  2  0
 29 48  1  0
 30 29  1  0
 30 33  1  0
 31 28  1  0
 31 32  1  0
 32 30  2  0
 33 34  1  0
 34 35  2  0
 36 39  1  0
 36 35  1  0
 37 36  2  0
 38 37  1  0
 38 33  2  0
 39 40  1  0
 40 41  1  0
 41 42  2  0
 43 42  1  0
 43 47  1  0
 44 43  2  0
 45 40  2  0
 45 44  1  0
 46 45  1  0
 48 49  1  0
 49 52  1  0
 49 51  1  0
 50 48  2  0
 53 54  1  0
 53 28  1  0
 55 53  1  0
 56 57  1  0
 58 57  1  0
 58 59  1  0
 60 59  1  0
 61 62  1  0
 61 60  1  0
 63 62  1  0
 64 66  1  0
 64 63  1  0
 65 64  1  0
 67 64  1  0
 68 67  1  0
 69 71  1  0
 69 68  1  0
 70 81  2  0
 71 76  1  0
 72 80  1  0
 72 82  1  0
 73 79  1  0
 73 75  1  0
 74 80  1  0
 75 74  1  0
 76 75  2  0
 77 71  2  0
 78 77  1  0
 78 73  2  0
 79 72  1  0
 80 70  1  0
 82 84  2  0
 83 82  1  0
 85 83  1  0
 86 95  2  0
 86 91  1  0
 87 83  1  0
 87 91  1  0
 88 87  1  0
 89 90  1  0
 89 88  1  0
 90 86  1  0
 91 92  2  0
 92 93  1  0
 94 93  2  0
 95 94  1  0
 96 70  1  0
 96101  1  0
 96 97  1  0
 97100  1  1
 97 98  1  0
 99 97  1  0
101104  1  0
102106  1  0
102101  1  0
103102  2  0
106105  1  0
108106  1  0
108109  1  0
108107  1  0
M  ISO  4  19 100  20 100  68 101  69 101
M  END
>  <TORSDO>  (62) 
F 45

>  <SCORE>  (62) 
47.523

>  <name>  (62) 
78

>  <ligand_id>  (62) 
78

>  <original_smiles>  (62) 
[H]c1c([H])c([H])c2c(c1[H])C([H])([H])C([H])([H])C([H])([H])C2([H])N([H])C(=O)C1([H])N(C(=O)C([H])(N([H])C(=O)C([H])(N([H])C([H])([H])[H])C([H])([H])[H])C(C([H])([H])[H])(C([H])([H])[H])C([H])([H])[H])C([H])([H])c2c([H])c(OC([H])([H])C([H])([H])[N+]([H])([H])C([H])([H])C([H])([H])OC([H])([H])C([H])([H])OC([H])([H])C([H])([H])OC([H])([H])C([H])([H])OC([H])([H])C([H])([H])OC([H])([H])C([H])([H])OC([H])([H])C([H])([H])OC([H])([H])C([H])([H])OC([H])([H])C([H])([H])OC(=O)N3C([H])([H])C([H])([H])C([H])([H])C([H])(n4nc(-c5c([H])c([H])c(Oc6c([H])c([H])c(F)c([H])c6F)c([H])c5[H])c(C(=O)N([H])[H])c4N([H])[H])C3([H])[H])c([H])c([H])c2C1([H])[H]

>  <smiles>  (62) 
[H]c1c([H])c([H])c2c(c1[H])C([H])([H])C([H])([H])C([H])([H])C2([H])N([H])C(=O)C1([H])N(C(=O)C([H])(N([H])C(=O)C([H])(N([H])C([H])([H])[H])C([H])([H])[H])C(C([H])([H])[H])(C([H])([H])[H])C([H])([H])[H])C([H])([H])c2c([H])c(OC([H])([H])C([H])([H])[N+]([H])([H])C([H])([H])C([H])([H])OC([H])([H])C([H])([H])OC([H])([H])C([H])([H])OC([H])([H])C([H])([H])OC([H])([H])C([H])([H])OC([H])([H])C([H])([H])OC([H])([H])C([H])([H])OC([H])([H])C([H])([H])OC([H])([H])C([H])([H])OC(=O)N3C([H])([H])C([H])([H])C([H])([H])C([H])(n4nc(-c5c([H])c([H])c(Oc6c([H])c([H])c(F)c([H])c6F)c([H])c5[H])c(C(=O)N([H])[H])c4N([H])[H])C3([H])[H])c([H])c([H])c2C1([H])[H]

$$$$
79:0:0
     RDKit          3D

109116  0  0  1  0  0  0  0  0999 V2000
  -27.7570  -22.1930   22.8810 O   0  0  0  0  0  0  0  0  0  0  0  0
  -27.7280  -22.0440   24.2940 C   0  0  0  0  0  2  0  0  0  0  0  0
  -28.4790  -20.7660   24.7160 C   0  0  0  0  0  2  0  0  0  0  0  0
  -29.8420  -20.9940   25.0640 O   0  0  0  0  0  0  0  0  0  0  0  0
  -30.6810  -21.3230   23.9650 C   0  0  0  0  0  2  0  0  0  0  0  0
  -32.1460  -21.0980   24.3850 C   0  0  0  0  0  2  0  0  0  0  0  0
  -33.0030  -20.7630   23.2940 O   0  0  0  0  0  0  0  0  0  0  0  0
  -33.0360  -19.4220   22.7770 C   0  0  0  0  0  2  0  0  0  0  0  0
  -32.1690  -18.3280   23.4350 C   0  0  0  0  0  2  0  0  0  0  0  0
  -32.7700  -17.8940   24.6470 O   0  0  0  0  0  0  0  0  0  0  0  0
  -31.8820  -17.2400   25.5490 C   0  0  0  0  0  2  0  0  0  0  0  0
  -31.2530  -15.9320   25.0090 C   0  0  0  0  0  2  0  0  0  0  0  0
  -30.3020  -16.1340   23.9650 O   0  0  0  0  0  0  0  0  0  0  0  0
  -29.0790  -16.7520   24.3570 C   0  0  0  0  0  2  0  0  0  0  0  0
  -28.2170  -16.9730   23.1100 C   0  0  0  0  0  2  0  0  0  0  0  0
  -28.8460  -17.9200   22.2500 O   0  0  0  0  0  0  0  0  0  0  0  0
  -28.8400  -17.5460   20.8770 C   0  0  0  0  0  2  0  0  0  0  0  0
  -30.0650  -16.6910   20.5220 C   0  0  0  0  0  2  0  0  0  0  0  0
  -29.8830  -15.3630   20.9800 O   0  0  0  0  0  0  0  0  0  0  0  0
  -30.7150  -14.4170   20.5390 C   0  0  0  0  0  0  0  0  0  0  0  0
  -30.4260  -12.2350   19.4190 C   0  0  0  0  0  2  0  0  0  0  0  0
  -29.5120  -12.4980   18.2060 C   0  0  0  0  0  2  0  0  0  0  0  0
  -28.0270  -12.3680   18.6130 C   0  0  0  0  0  2  0  0  0  0  0  0
  -27.6720  -13.1940   19.8790 C   0  0  0  0  0  3  0  0  0  0  0  0
  -28.7050  -12.9510   21.0030 C   0  0  0  0  0  2  0  0  0  0  0  0
  -30.0490  -13.1940   20.4570 N   0  0  0  0  0  0  0  0  0  0  0  0
  -31.8330  -14.6630   20.0840 O   0  0  0  0  0  0  0  0  0  0  0  0
  -25.2650  -13.8120   20.5680 C   0  0  0  0  0  0  0  0  0  0  0  0
  -24.1860  -13.0470   20.9080 C   0  0  0  0  0  0  0  0  0  0  0  0
  -24.6360  -11.6910   20.8670 C   0  0  0  0  0  0  0  0  0  0  0  0
  -26.3070  -12.9270   20.3350 N   0  0  0  0  0  0  0  0  0  0  0  0
  -25.9300  -11.6450   20.5730 N   0  0  0  0  0  0  0  0  0  0  0  0
  -23.9020  -10.4330   21.0370 C   0  0  0  0  0  0  0  0  0  0  0  0
  -24.3620   -9.4270   21.9160 C   0  0  0  0  0  3  0  0  0  0  0  0
  -23.6330   -8.2290   22.0750 C   0  0  0  0  0  3  0  0  0  0  0  0
  -22.4300   -8.0320   21.3600 C   0  0  0  0  0  0  0  0  0  0  0  0
  -21.9910   -9.0260   20.4680 C   0  0  0  0  0  3  0  0  0  0  0  0
  -22.7190  -10.2140   20.3040 C   0  0  0  0  0  3  0  0  0  0  0  0
  -21.6670   -6.8930   21.4260 O   0  0  0  0  0  0  0  0  0  0  0  0
  -21.6860   -6.0790   22.5300 C   0  0  0  0  0  0  0  0  0  0  0  0
  -21.4040   -6.5690   23.8230 C   0  0  0  0  0  3  0  0  0  0  0  0
  -21.3620   -5.6820   24.9180 C   0  0  0  0  0  3  0  0  0  0  0  0
  -21.6010   -4.3090   24.7210 C   0  0  0  0  0  0  0  0  0  0  0  0
  -21.8810   -3.8210   23.4320 C   0  0  0  0  0  3  0  0  0  0  0  0
  -21.9210   -4.7040   22.3390 C   0  0  0  0  0  0  0  0  0  0  0  0
  -22.1710   -4.2250   21.0970 F   0  0  0  0  0  0  0  0  0  0  0  0
  -21.5570   -3.4560   25.7700 F   0  0  0  0  0  0  0  0  0  0  0  0
  -22.7900  -13.5320   21.1760 C   0  0  0  0  0  0  0  0  0  0  0  0
  -22.0520  -12.8340   22.0300 N   0  0  0  0  0  0  0  0  0  0  0  0
  -22.3640  -14.5700   20.6660 O   0  0  0  0  0  0  0  0  0  0  0  0
  -22.4130  -11.9980   22.4650 H   0  0  0  0  0  0  0  0  0  0  0  0
  -21.1200  -13.1490   22.2610 H   0  0  0  0  0  0  0  0  0  0  0  0
  -25.4530  -15.1820   20.4130 N   0  0  0  0  0  0  0  0  0  0  0  0
  -24.7080  -15.8580   20.5300 H   0  0  0  0  0  0  0  0  0  0  0  0
  -26.3280  -15.5930   20.1180 H   0  0  0  0  0  0  0  0  0  0  0  0
  -26.6270  -21.6200   22.2210 C   0  0  0  0  0  2  0  0  0  0  0  0
  -26.8670  -21.6840   20.7140 C   0  0  0  0  0  0  0  0  0  0  0  0
  -28.0490  -21.2110   20.3150 N   0  0  0  0  0  0  0  0  0  0  0  0
  -26.0340  -22.1770   19.9500 O   0  0  0  0  0  0  0  0  0  0  0  0
  -28.6530  -20.8860   21.0560 H   0  0  0  0  0  0  0  0  0  0  0  0
  -28.6460  -21.3780   18.9990 C   0  0  0  0  0  2  0  0  0  0  0  0
  -30.1530  -21.6470   19.1390 C   0  0  0  0  0  2  0  0  0  0  0  0
  -30.4600  -22.7370   20.1820 C   0  0  0  0  0  2  0  0  0  0  0  0
  -31.8400  -23.3970   20.0220 C   0  0  0  0  0  2  0  0  0  0  0  0
  -31.7680  -24.9250   20.1700 C   0  0  0  0  0  2  0  0  0  0  0  0
  -31.0900  -25.6000   18.9640 C   0  0  0  0  0  2  0  0  0  0  0  0
  -30.7540  -27.0810   19.2080 C   0  0  0  0  0  2  0  0  0  0  0  0
  -29.2770  -27.4150   18.9680 C   0  0  0  0  0  2  0  0  0  0  0  0
  -28.4360  -26.8210   19.9620 O   0  0  0  0  0  0  0  0  0  0  0  0
  -24.6080  -31.8710   23.2140 C   0  0  0  0  0  0  0  0  0  0  0  0
  -27.2480  -27.4900   20.0820 C   0  0  0  0  0  0  0  0  0  0  0  0
  -23.3940  -30.4930   21.5530 C   0  0  0  0  0  3  0  0  0  0  0  0
  -24.8430  -28.9540   20.1280 C   0  0  0  0  0  0  0  0  0  0  0  0
  -25.9160  -30.8490   21.3610 C   0  0  0  0  0  2  0  0  0  0  0  0
  -25.9960  -29.4820   20.7220 C   0  0  0  0  0  0  0  0  0  0  0  0
  -27.1990  -28.7510   20.7090 C   0  0  0  0  0  3  0  0  0  0  0  0
  -26.0790  -26.9480   19.5120 C   0  0  0  0  0  3  0  0  0  0  0  0
  -24.8740  -27.6790   19.5290 C   0  0  0  0  0  3  0  0  0  0  0  0
  -23.6020  -29.8170   20.1700 C   0  0  0  0  0  2  0  0  0  0  0  0
  -24.6570  -31.0850   22.1020 N   0  0  0  0  0  0  0  0  0  0  0  0
  -23.5290  -32.1460   23.7560 O   0  0  0  0  0  0  0  0  0  0  0  0
  -22.7370  -29.4670   22.5040 C   0  0  0  0  0  0  0  0  0  0  0  0
  -21.4110  -29.3020   22.3760 N   0  0  0  0  0  0  0  0  0  0  0  0
  -23.4160  -28.8220   23.3070 O   0  0  0  0  0  0  0  0  0  0  0  0
  -20.9270  -29.8730   21.6980 H   0  0  0  0  0  0  0  0  0  0  0  0
  -18.0260  -28.1370   22.8500 C   0  0  0  0  0  0  0  0  0  0  0  0
  -20.5840  -28.3650   23.1350 C   0  0  0  0  0  3  0  0  0  0  0  0
  -20.6750  -26.9390   22.5430 C   0  0  0  0  0  2  0  0  0  0  0  0
  -19.5740  -26.6390   21.5220 C   0  0  0  0  0  2  0  0  0  0  0  0
  -18.1920  -26.7920   22.1630 C   0  0  0  0  0  2  0  0  0  0  0  0
  -19.1510  -28.8830   23.2920 C   0  0  0  0  0  0  0  0  0  0  0  0
  -18.9440  -30.1440   23.8930 C   0  0  0  0  0  3  0  0  0  0  0  0
  -17.6440  -30.6580   24.0570 C   0  0  0  0  0  3  0  0  0  0  0  0
  -16.5330  -29.9090   23.6320 C   0  0  0  0  0  3  0  0  0  0  0  0
  -16.7250  -28.6500   23.0340 C   0  0  0  0  0  3  0  0  0  0  0  0
  -25.9000  -32.4840   23.8420 C   0  0  0  0  0  3  0  0  0  0  0  0
  -26.4450  -31.6600   25.0720 C   0  0  1  0  0  0  0  0  0  0  0  0
  -25.3740  -31.3680   26.1480 C   0  0  0  0  0  1  0  0  0  0  0  0
  -27.0280  -30.3060   24.6050 C   0  0  0  0  0  1  0  0  0  0  0  0
  -27.6040  -32.4320   25.7470 C   0  0  0  0  0  1  0  0  0  0  0  0
  -25.5880  -33.8640   24.2350 N   0  0  0  0  0  0  0  0  0  0  0  0
  -25.9020  -34.9490   23.5140 C   0  0  0  0  0  0  0  0  0  0  0  0
  -26.5590  -34.8930   22.4710 O   0  0  0  0  0  0  0  0  0  0  0  0
  -25.0030  -33.9810   25.0500 H   0  0  0  0  0  0  0  0  0  0  0  0
  -24.1490  -36.7320   23.2640 C   0  0  0  0  0  1  0  0  0  0  0  0
  -25.4110  -36.3130   24.0340 C   0  0  0  0  0  3  0  0  0  0  0  0
  -27.5580  -37.1810   24.8470 C   0  0  0  0  0  1  0  0  0  0  0  0
  -26.4300  -37.3800   23.9410 N   0  0  0  0  0  0  0  0  0  0  0  0
  -26.0200  -38.2880   24.1400 H   0  0  0  0  0  0  0  0  0  0  0  0
  1  2  1  0
  2  3  1  0
  3  4  1  0
  5  6  1  0
  5  4  1  0
  7  6  1  0
  8  7  1  0
  8  9  1  0
  9 10  1  0
 10 11  1  0
 12 11  1  0
 13 14  1  0
 13 12  1  0
 15 14  1  0
 16 15  1  0
 17 16  1  0
 18 17  1  0
 18 19  1  0
 20 19  1  0
 21 26  1  0
 22 23  1  0
 22 21  1  0
 24 23  1  0
 24 31  1  0
 24 25  1  0
 26 20  1  0
 26 25  1  0
 27 20  2  0
 28 29  2  0
 29 48  1  0
 30 29  1  0
 30 33  1  0
 31 28  1  0
 31 32  1  0
 32 30  2  0
 33 34  1  0
 34 35  2  0
 36 39  1  0
 36 35  1  0
 37 36  2  0
 38 37  1  0
 38 33  2  0
 39 40  1  0
 40 41  1  0
 41 42  2  0
 43 42  1  0
 43 47  1  0
 44 43  2  0
 45 40  2  0
 45 44  1  0
 46 45  1  0
 48 49  1  0
 49 52  1  0
 49 51  1  0
 50 48  2  0
 53 54  1  0
 53 28  1  0
 55 53  1  0
 56  1  1  0
 57 56  1  0
 58 57  1  0
 58 60  1  0
 59 57  2  0
 61 62  1  0
 61 58  1  0
 62 63  1  0
 64 65  1  0
 64 63  1  0
 66 67  1  0
 66 65  1  0
 68 67  1  0
 68 69  1  0
 69 71  1  0
 70 81  2  0
 71 76  1  0
 72 80  1  0
 72 82  1  0
 73 79  1  0
 73 75  1  0
 74 80  1  0
 75 74  1  0
 76 75  2  0
 77 78  1  0
 77 71  2  0
 78 73  2  0
 79 72  1  0
 80 70  1  0
 82 84  2  0
 83 82  1  0
 85 83  1  0
 86 95  2  0
 86 91  1  0
 87 83  1  0
 87 91  1  0
 88 87  1  0
 89 90  1  0
 89 88  1  0
 90 86  1  0
 91 92  2  0
 92 93  1  0
 94 93  2  0
 95 94  1  0
 96 70  1  0
 96101  1  0
 96 97  1  0
 97100  1  1
 97 98  1  0
 99 97  1  0
101104  1  0
102106  1  0
102101  1  0
103102  2  0
106105  1  0
108106  1  0
108109  1  0
108107  1  0
M  ISO  4  19 100  20 100  68 101  69 101
M  END
>  <TORSDO>  (63) 
F 44

>  <SCORE>  (63) 
22.529

>  <name>  (63) 
79

>  <ligand_id>  (63) 
79

>  <original_smiles>  (63) 
[H]c1c([H])c([H])c2c(c1[H])C([H])([H])C([H])([H])C([H])([H])C2([H])N([H])C(=O)C1([H])N(C(=O)C([H])(N([H])C(=O)C([H])(N([H])C([H])([H])[H])C([H])([H])[H])C(C([H])([H])[H])(C([H])([H])[H])C([H])([H])[H])C([H])([H])c2c([H])c(OC([H])([H])C([H])([H])C([H])([H])C([H])([H])C([H])([H])C([H])([H])C([H])([H])C([H])([H])N([H])C(=O)C([H])([H])OC([H])([H])C([H])([H])OC([H])([H])C([H])([H])OC([H])([H])C([H])([H])OC([H])([H])C([H])([H])OC([H])([H])C([H])([H])OC([H])([H])C([H])([H])OC(=O)N3C([H])([H])C([H])([H])C([H])([H])C([H])(n4nc(-c5c([H])c([H])c(Oc6c([H])c([H])c(F)c([H])c6F)c([H])c5[H])c(C(=O)N([H])[H])c4N([H])[H])C3([H])[H])c([H])c([H])c2C1([H])[H]

>  <smiles>  (63) 
[H]c1c([H])c([H])c2c(c1[H])C([H])([H])C([H])([H])C([H])([H])C2([H])N([H])C(=O)C1([H])N(C(=O)C([H])(N([H])C(=O)C([H])(N([H])C([H])([H])[H])C([H])([H])[H])C(C([H])([H])[H])(C([H])([H])[H])C([H])([H])[H])C([H])([H])c2c([H])c(OC([H])([H])C([H])([H])C([H])([H])C([H])([H])C([H])([H])C([H])([H])C([H])([H])C([H])([H])N([H])C(=O)C([H])([H])OC([H])([H])C([H])([H])OC([H])([H])C([H])([H])OC([H])([H])C([H])([H])OC([H])([H])C([H])([H])OC([H])([H])C([H])([H])OC([H])([H])C([H])([H])OC(=O)N3C([H])([H])C([H])([H])C([H])([H])C([H])(n4nc(-c5c([H])c([H])c(Oc6c([H])c([H])c(F)c([H])c6F)c([H])c5[H])c(C(=O)N([H])[H])c4N([H])[H])C3([H])[H])c([H])c([H])c2C1([H])[H]

$$$$
80:0:0
     RDKit          3D

100107  0  0  1  0  0  0  0  0999 V2000
  -30.9880  -21.3700   15.8900 C   0  0  0  0  0  2  0  0  0  0  0  0
  -29.6570  -21.7150   16.2630 O   0  0  0  0  0  0  0  0  0  0  0  0
  -29.1160  -20.8940   17.2920 C   0  0  0  0  0  2  0  0  0  0  0  0
  -29.3780  -21.4850   18.6890 C   0  0  0  0  0  2  0  0  0  0  0  0
  -30.6590  -21.0670   19.1420 O   0  0  0  0  0  0  0  0  0  0  0  0
  -31.0390  -21.5030   20.4440 C   0  0  0  0  0  2  0  0  0  0  0  0
  -31.8640  -20.4240   21.1790 C   0  0  0  0  0  2  0  0  0  0  0  0
  -33.1860  -20.2210   20.6730 O   0  0  0  0  0  0  0  0  0  0  0  0
  -33.3110  -19.6200   19.3790 C   0  0  0  0  0  2  0  0  0  0  0  0
  -32.6920  -18.2130   19.2770 C   0  0  0  0  0  2  0  0  0  0  0  0
  -31.2800  -18.3390   19.1430 O   0  0  0  0  0  0  0  0  0  0  0  0
  -30.5350  -17.1600   19.3780 C   0  0  0  0  0  2  0  0  0  0  0  0
  -30.4600  -16.8030   20.8860 C   0  0  0  0  0  2  0  0  0  0  0  0
  -30.7330  -14.3840   20.6290 C   0  0  0  0  0  0  0  0  0  0  0  0
  -30.3880  -12.2740   19.4340 C   0  0  0  0  0  2  0  0  0  0  0  0
  -29.4740  -12.5480   18.2250 C   0  0  0  0  0  2  0  0  0  0  0  0
  -27.9890  -12.4470   18.6300 C   0  0  0  0  0  2  0  0  0  0  0  0
  -27.6540  -13.2500   19.9170 C   0  0  0  0  0  3  0  0  0  0  0  0
  -28.6890  -12.9710   21.0270 C   0  0  0  0  0  2  0  0  0  0  0  0
  -30.0280  -13.2390   20.4810 N   0  0  0  0  0  0  0  0  0  0  0  0
  -31.8700  -14.5520   20.1870 O   0  0  0  0  0  0  0  0  0  0  0  0
  -30.0260  -15.4230   21.0770 N   0  0  0  0  0  0  0  0  0  0  0  0
  -29.0840  -15.2490   21.3930 H   0  0  0  0  0  0  0  0  0  0  0  0
  -25.2510  -13.8580   20.6120 C   0  0  0  0  0  0  0  0  0  0  0  0
  -24.1780  -13.0890   20.9620 C   0  0  0  0  0  0  0  0  0  0  0  0
  -24.6330  -11.7330   20.9180 C   0  0  0  0  0  0  0  0  0  0  0  0
  -26.2940  -12.9770   20.3750 N   0  0  0  0  0  0  0  0  0  0  0  0
  -25.9250  -11.6910   20.6160 N   0  0  0  0  0  0  0  0  0  0  0  0
  -23.9040  -10.4710   21.0910 C   0  0  0  0  0  0  0  0  0  0  0  0
  -24.3220   -9.5000   22.0270 C   0  0  0  0  0  3  0  0  0  0  0  0
  -23.5950   -8.3010   22.1860 C   0  0  0  0  0  3  0  0  0  0  0  0
  -22.4380   -8.0630   21.4070 C   0  0  0  0  0  0  0  0  0  0  0  0
  -22.0400   -9.0240   20.4600 C   0  0  0  0  0  3  0  0  0  0  0  0
  -22.7660  -10.2150   20.3010 C   0  0  0  0  0  3  0  0  0  0  0  0
  -21.6890   -6.9150   21.4730 O   0  0  0  0  0  0  0  0  0  0  0  0
  -21.5980   -6.1770   22.6260 C   0  0  0  0  0  0  0  0  0  0  0  0
  -21.1070   -6.7290   23.8290 C   0  0  0  0  0  3  0  0  0  0  0  0
  -20.9690   -5.9170   24.9730 C   0  0  0  0  0  3  0  0  0  0  0  0
  -21.3110   -4.5530   24.9120 C   0  0  0  0  0  0  0  0  0  0  0  0
  -21.7930   -3.9990   23.7140 C   0  0  0  0  0  3  0  0  0  0  0  0
  -21.9330   -4.8090   22.5730 C   0  0  0  0  0  0  0  0  0  0  0  0
  -22.3790   -4.2670   21.4150 F   0  0  0  0  0  0  0  0  0  0  0  0
  -21.1710   -3.7700   26.0070 F   0  0  0  0  0  0  0  0  0  0  0  0
  -22.7780  -13.5680   21.2280 C   0  0  0  0  0  0  0  0  0  0  0  0
  -22.0350  -12.8610   22.0710 N   0  0  0  0  0  0  0  0  0  0  0  0
  -22.3530  -14.6070   20.7220 O   0  0  0  0  0  0  0  0  0  0  0  0
  -22.3890  -12.0180   22.5000 H   0  0  0  0  0  0  0  0  0  0  0  0
  -21.0960  -13.1610   22.2900 H   0  0  0  0  0  0  0  0  0  0  0  0
  -25.4250  -15.2300   20.4570 N   0  0  0  0  0  0  0  0  0  0  0  0
  -24.6620  -15.8820   20.6040 H   0  0  0  0  0  0  0  0  0  0  0  0
  -26.2780  -15.6730   20.1390 H   0  0  0  0  0  0  0  0  0  0  0  0
  -31.6830  -22.6300   15.3440 C   0  0  0  0  0  2  0  0  0  0  0  0
  -31.6360  -23.7040   16.2860 O   0  0  0  0  0  0  0  0  0  0  0  0
  -32.5560  -23.5940   17.3710 C   0  0  0  0  0  2  0  0  0  0  0  0
  -32.2870  -24.7130   18.3910 C   0  0  0  0  0  2  0  0  0  0  0  0
  -31.0390  -24.4620   19.0300 O   0  0  0  0  0  0  0  0  0  0  0  0
  -30.8030  -25.2660   20.1800 C   0  0  0  0  0  2  0  0  0  0  0  0
  -29.4160  -24.9310   20.7760 C   0  0  0  0  0  2  0  0  0  0  0  0
  -28.7690  -26.1010   21.2430 O   0  0  0  0  0  0  0  0  0  0  0  0
  -28.5260  -26.9600   20.0470 O   0  0  0  0  0  0  0  0  0  0  0  0
  -24.5930  -31.9330   23.2580 C   0  0  0  0  0  0  0  0  0  0  0  0
  -27.3200  -27.5890   20.1560 C   0  0  0  0  0  0  0  0  0  0  0  0
  -23.4100  -30.5210   21.5980 C   0  0  0  0  0  3  0  0  0  0  0  0
  -24.8920  -29.0080   20.1820 C   0  0  0  0  0  0  0  0  0  0  0  0
  -25.9240  -30.9310   21.4080 C   0  0  0  0  0  2  0  0  0  0  0  0
  -26.0330  -29.5590   20.7780 C   0  0  0  0  0  0  0  0  0  0  0  0
  -27.2500  -28.8490   20.7750 C   0  0  0  0  0  3  0  0  0  0  0  0
  -26.1680  -27.0270   19.5720 C   0  0  0  0  0  3  0  0  0  0  0  0
  -24.9480  -27.7340   19.5880 C   0  0  0  0  0  3  0  0  0  0  0  0
  -23.6350  -29.8460   20.2180 C   0  0  0  0  0  2  0  0  0  0  0  0
  -24.6590  -31.1420   22.1480 N   0  0  0  0  0  0  0  0  0  0  0  0
  -23.5070  -32.1880   23.7960 O   0  0  0  0  0  0  0  0  0  0  0  0
  -22.7710  -29.4890   22.5520 C   0  0  0  0  0  0  0  0  0  0  0  0
  -21.4490  -29.2950   22.4190 N   0  0  0  0  0  0  0  0  0  0  0  0
  -23.4590  -28.8620   23.3630 O   0  0  0  0  0  0  0  0  0  0  0  0
  -20.9540  -29.8510   21.7360 H   0  0  0  0  0  0  0  0  0  0  0  0
  -18.0810  -28.0880   22.9060 C   0  0  0  0  0  0  0  0  0  0  0  0
  -20.6390  -28.3420   23.1750 C   0  0  0  0  0  3  0  0  0  0  0  0
  -20.7420  -26.9220   22.5710 C   0  0  0  0  0  2  0  0  0  0  0  0
  -19.6370  -26.6170   21.5560 C   0  0  0  0  0  2  0  0  0  0  0  0
  -18.2570  -26.7490   22.2070 C   0  0  0  0  0  2  0  0  0  0  0  0
  -19.2000  -28.8420   23.3450 C   0  0  0  0  0  0  0  0  0  0  0  0
  -18.9830  -30.0950   23.9580 C   0  0  0  0  0  3  0  0  0  0  0  0
  -17.6790  -30.5940   24.1360 C   0  0  0  0  0  3  0  0  0  0  0  0
  -16.5740  -29.8350   23.7140 C   0  0  0  0  0  3  0  0  0  0  0  0
  -16.7750  -28.5840   23.1030 C   0  0  0  0  0  3  0  0  0  0  0  0
  -25.8720  -32.5700   23.8880 C   0  0  0  0  0  3  0  0  0  0  0  0
  -25.5570  -33.9710   24.2010 N   0  0  0  0  0  0  0  0  0  0  0  0
  -25.8980  -35.0140   23.4340 C   0  0  0  0  0  0  0  0  0  0  0  0
  -26.5800  -34.9020   22.4130 O   0  0  0  0  0  0  0  0  0  0  0  0
  -24.9500  -34.1330   24.9910 H   0  0  0  0  0  0  0  0  0  0  0  0
  -24.1760  -36.8000   23.0300 C   0  0  0  0  0  1  0  0  0  0  0  0
  -25.4010  -36.4060   23.8700 C   0  0  0  0  0  3  0  0  0  0  0  0
  -27.5150  -37.3010   24.7380 C   0  0  0  0  0  1  0  0  0  0  0  0
  -26.4350  -37.4580   23.7680 N   0  0  0  0  0  0  0  0  0  0  0  0
  -26.0240  -38.3780   23.8990 H   0  0  0  0  0  0  0  0  0  0  0  0
  -26.3790  -31.8080   25.1730 C   0  0  1  0  0  0  0  0  0  0  0  0
  -25.2710  -31.5780   26.2280 C   0  0  0  0  0  1  0  0  0  0  0  0
  -26.9690  -30.4310   24.7930 C   0  0  0  0  0  1  0  0  0  0  0  0
  -27.5200  -32.6090   25.8430 C   0  0  0  0  0  1  0  0  0  0  0  0
  1  2  1  0
  2  3  1  0
  3  4  1  0
  4  5  1  0
  5  6  1  0
  6  7  1  0
  8  7  1  0
  9  8  1  0
 10  9  1  0
 11 10  1  0
 11 12  1  0
 12 13  1  0
 13 22  1  0
 14 22  1  0
 15 20  1  0
 16 17  1  0
 16 15  1  0
 18 17  1  0
 18 27  1  0
 18 19  1  0
 20 14  1  0
 20 19  1  0
 21 14  2  0
 22 23  1  0
 24 25  2  0
 25 44  1  0
 26 25  1  0
 26 29  1  0
 27 24  1  0
 27 28  1  0
 28 26  2  0
 29 30  1  0
 30 31  2  0
 32 35  1  0
 32 31  1  0
 33 32  2  0
 34 33  1  0
 34 29  2  0
 35 36  1  0
 36 37  1  0
 37 38  2  0
 39 38  1  0
 39 43  1  0
 40 39  2  0
 41 36  2  0
 41 40  1  0
 42 41  1  0
 44 45  1  0
 45 48  1  0
 45 47  1  0
 46 44  2  0
 49 50  1  0
 49 24  1  0
 51 49  1  0
 52  1  1  0
 52 53  1  0
 53 54  1  0
 54 55  1  0
 55 56  1  0
 56 57  1  0
 57 58  1  0
 58 59  1  0
 60 62  1  0
 60 59  1  0
 61 72  2  0
 62 67  1  0
 63 71  1  0
 63 73  1  0
 64 70  1  0
 64 66  1  0
 65 71  1  0
 66 65  1  0
 67 66  2  0
 68 69  1  0
 68 62  2  0
 69 64  2  0
 70 63  1  0
 71 61  1  0
 73 75  2  0
 74 73  1  0
 76 74  1  0
 77 86  2  0
 77 82  1  0
 78 74  1  0
 78 82  1  0
 79 78  1  0
 80 81  1  0
 80 79  1  0
 81 77  1  0
 82 83  2  0
 83 84  1  0
 85 84  2  0
 86 85  1  0
 87 61  1  0
 87 88  1  0
 87 97  1  0
 88 91  1  0
 89 93  1  0
 89 88  1  0
 90 89  2  0
 93 92  1  0
 95 93  1  0
 95 96  1  0
 95 94  1  0
 97100  1  1
 97 98  1  0
 99 97  1  0
M  ISO  4  14 100  22 100  59 101  60 101
M  END
>  <TORSDO>  (64) 
F 36

>  <SCORE>  (64) 
-9.805

>  <name>  (64) 
80

>  <ligand_id>  (64) 
80

>  <original_smiles>  (64) 
[H]c1c([H])c([H])c2c(c1[H])C([H])([H])C([H])([H])C([H])([H])C2([H])N([H])C(=O)C1([H])N(C(=O)C([H])(N([H])C(=O)C([H])(N([H])C([H])([H])[H])C([H])([H])[H])C(C([H])([H])[H])(C([H])([H])[H])C([H])([H])[H])C([H])([H])c2c([H])c(OOC([H])([H])C([H])([H])OC([H])([H])C([H])([H])OC([H])([H])C([H])([H])OC([H])([H])C([H])([H])OC([H])([H])C([H])([H])OC([H])([H])C([H])([H])OC([H])([H])C([H])([H])N([H])C(=O)N3C([H])([H])C([H])([H])C([H])([H])C([H])(n4nc(-c5c([H])c([H])c(Oc6c([H])c([H])c(F)c([H])c6F)c([H])c5[H])c(C(=O)N([H])[H])c4N([H])[H])C3([H])[H])c([H])c([H])c2C1([H])[H]

>  <smiles>  (64) 
[H]c1c([H])c([H])c2c(c1[H])C([H])([H])C([H])([H])C([H])([H])C2([H])N([H])C(=O)C1([H])N(C(=O)C([H])(N([H])C(=O)C([H])(N([H])C([H])([H])[H])C([H])([H])[H])C(C([H])([H])[H])(C([H])([H])[H])C([H])([H])[H])C([H])([H])c2c([H])c(OOC([H])([H])C([H])([H])OC([H])([H])C([H])([H])OC([H])([H])C([H])([H])OC([H])([H])C([H])([H])OC([H])([H])C([H])([H])OC([H])([H])C([H])([H])OC([H])([H])C([H])([H])N([H])C(=O)N3C([H])([H])C([H])([H])C([H])([H])C([H])(n4nc(-c5c([H])c([H])c(Oc6c([H])c([H])c(F)c([H])c6F)c([H])c5[H])c(C(=O)N([H])[H])c4N([H])[H])C3([H])[H])c([H])c([H])c2C1([H])[H]

$$$$
81:0:0
     RDKit          3D

106113  0  0  1  0  0  0  0  0999 V2000
  -22.9740  -23.9880   19.3140 C   0  0  0  0  0  2  0  0  0  0  0  0
  -23.9200  -23.0480   20.0730 C   0  0  0  0  0  2  0  0  0  0  0  0
  -25.2850  -23.3990   19.8410 O   0  0  0  0  0  0  0  0  0  0  0  0
  -26.1640  -22.6320   20.6610 C   0  0  0  0  0  2  0  0  0  0  0  0
  -27.6500  -22.7280   20.2530 C   0  0  0  0  0  2  0  0  0  0  0  0
  -27.9790  -21.8140   19.2120 O   0  0  0  0  0  0  0  0  0  0  0  0
  -27.5720  -22.1980   17.9040 C   0  0  0  0  0  2  0  0  0  0  0  0
  -27.6340  -20.9900   16.9510 C   0  0  0  0  0  2  0  0  0  0  0  0
  -26.5090  -20.1410   17.1730 O   0  0  0  0  0  0  0  0  0  0  0  0
  -26.6920  -19.1920   18.2210 C   0  0  0  0  0  2  0  0  0  0  0  0
  -25.3800  -19.0170   19.0010 C   0  0  0  0  0  2  0  0  0  0  0  0
  -25.4910  -17.9850   19.9750 O   0  0  0  0  0  0  0  0  0  0  0  0
  -25.7350  -18.3850   21.3260 C   0  0  0  0  0  2  0  0  0  0  0  0
  -27.2150  -18.7030   21.6310 C   0  0  0  0  0  2  0  0  0  0  0  0
  -28.0310  -17.5620   21.3600 O   0  0  0  0  0  0  0  0  0  0  0  0
  -29.3250  -17.6210   21.9650 C   0  0  0  0  0  2  0  0  0  0  0  0
  -30.3260  -16.7090   21.2290 C   0  0  0  0  0  2  0  0  0  0  0  0
  -29.9660  -15.3320   21.2940 O   0  0  0  0  0  0  0  0  0  0  0  0
  -30.7120  -14.4320   20.6100 C   0  0  0  0  0  0  0  0  0  0  0  0
  -30.4310  -12.2660   19.4210 C   0  0  0  0  0  2  0  0  0  0  0  0
  -29.5140  -12.5160   18.2100 C   0  0  0  0  0  2  0  0  0  0  0  0
  -28.0330  -12.3580   18.6160 C   0  0  0  0  0  2  0  0  0  0  0  0
  -27.6710  -13.1850   19.8810 C   0  0  0  0  0  3  0  0  0  0  0  0
  -28.6960  -12.9370   21.0080 C   0  0  0  0  0  2  0  0  0  0  0  0
  -30.0360  -13.2140   20.4710 N   0  0  0  0  0  0  0  0  0  0  0  0
  -31.7990  -14.7070   20.0920 O   0  0  0  0  0  0  0  0  0  0  0  0
  -25.2650  -13.7970   20.5620 C   0  0  0  0  0  0  0  0  0  0  0  0
  -24.1860  -13.0370   20.9110 C   0  0  0  0  0  0  0  0  0  0  0  0
  -24.6390  -11.6810   20.8720 C   0  0  0  0  0  0  0  0  0  0  0  0
  -26.3070  -12.9150   20.3320 N   0  0  0  0  0  0  0  0  0  0  0  0
  -25.9310  -11.6330   20.5730 N   0  0  0  0  0  0  0  0  0  0  0  0
  -23.9040  -10.4240   21.0410 C   0  0  0  0  0  0  0  0  0  0  0  0
  -24.3590   -9.4160   21.9210 C   0  0  0  0  0  3  0  0  0  0  0  0
  -23.6260   -8.2210   22.0780 C   0  0  0  0  0  3  0  0  0  0  0  0
  -22.4250   -8.0260   21.3560 C   0  0  0  0  0  0  0  0  0  0  0  0
  -21.9880   -9.0240   20.4670 C   0  0  0  0  0  3  0  0  0  0  0  0
  -22.7220  -10.2110   20.3060 C   0  0  0  0  0  3  0  0  0  0  0  0
  -21.6630   -6.8850   21.4240 O   0  0  0  0  0  0  0  0  0  0  0  0
  -21.6860   -6.0710   22.5280 C   0  0  0  0  0  0  0  0  0  0  0  0
  -21.4030   -6.5630   23.8220 C   0  0  0  0  0  3  0  0  0  0  0  0
  -21.3660   -5.6780   24.9180 C   0  0  0  0  0  3  0  0  0  0  0  0
  -21.6030   -4.3040   24.7230 C   0  0  0  0  0  0  0  0  0  0  0  0
  -21.8830   -3.8130   23.4360 C   0  0  0  0  0  3  0  0  0  0  0  0
  -21.9200   -4.6940   22.3410 C   0  0  0  0  0  0  0  0  0  0  0  0
  -22.1660   -4.2120   21.0990 F   0  0  0  0  0  0  0  0  0  0  0  0
  -21.5610   -3.4530   25.7750 F   0  0  0  0  0  0  0  0  0  0  0  0
  -22.7910  -13.5240   21.1800 C   0  0  0  0  0  0  0  0  0  0  0  0
  -22.0500  -12.8290   22.0350 N   0  0  0  0  0  0  0  0  0  0  0  0
  -22.3640  -14.5590   20.6680 O   0  0  0  0  0  0  0  0  0  0  0  0
  -22.4040  -11.9880   22.4670 H   0  0  0  0  0  0  0  0  0  0  0  0
  -21.1190  -13.1470   22.2620 H   0  0  0  0  0  0  0  0  0  0  0  0
  -25.4510  -15.1640   20.4070 N   0  0  0  0  0  0  0  0  0  0  0  0
  -24.7120  -15.8500   20.5000 H   0  0  0  0  0  0  0  0  0  0  0  0
  -26.3370  -15.5980   20.1770 H   0  0  0  0  0  0  0  0  0  0  0  0
  -23.1510  -23.8940   17.7890 C   0  0  0  0  0  2  0  0  0  0  0  0
  -22.9120  -25.1950   17.1320 N   0  0  0  0  0  4  0  0  0  0  0  0
  -21.9260  -25.3950   17.2040 H   0  0  0  0  0  0  0  0  0  0  0  0
  -23.4060  -25.9220   17.6190 H   0  0  0  0  0  0  0  0  0  0  0  0
  -23.2990  -25.2660   15.7050 C   0  0  0  0  0  2  0  0  0  0  0  0
  -24.7300  -25.8090   15.5060 C   0  0  0  0  0  2  0  0  0  0  0  0
  -25.8720  -24.8710   15.9490 C   0  0  0  0  0  2  0  0  0  0  0  0
  -27.2520  -25.4120   15.5580 C   0  0  0  0  0  2  0  0  0  0  0  0
  -27.7650  -26.5120   16.5100 C   0  0  0  0  0  2  0  0  0  0  0  0
  -28.5620  -25.9530   17.7060 C   0  0  0  0  0  2  0  0  0  0  0  0
  -28.9570  -27.0050   18.5810 O   0  0  0  0  0  0  0  0  0  0  0  0
  -28.3850  -26.7490   19.9550 O   0  0  0  0  0  0  0  0  0  0  0  0
  -24.6140  -31.8670   23.2130 C   0  0  0  0  0  0  0  0  0  0  0  0
  -27.2230  -27.4600   20.0690 C   0  0  0  0  0  0  0  0  0  0  0  0
  -23.3980  -30.4910   21.5560 C   0  0  0  0  0  3  0  0  0  0  0  0
  -24.8380  -28.9450   20.1370 C   0  0  0  0  0  0  0  0  0  0  0  0
  -25.9250  -30.8320   21.3640 C   0  0  0  0  0  2  0  0  0  0  0  0
  -26.0020  -29.4690   20.7120 C   0  0  0  0  0  0  0  0  0  0  0  0
  -27.2060  -28.7330   20.6760 C   0  0  0  0  0  3  0  0  0  0  0  0
  -26.0340  -26.9170   19.5450 C   0  0  0  0  0  3  0  0  0  0  0  0
  -24.8410  -27.6600   19.5690 C   0  0  0  0  0  3  0  0  0  0  0  0
  -23.6040  -29.8120   20.1760 C   0  0  0  0  0  2  0  0  0  0  0  0
  -24.6640  -31.0810   22.1020 N   0  0  0  0  0  0  0  0  0  0  0  0
  -23.5350  -32.1430   23.7530 O   0  0  0  0  0  0  0  0  0  0  0  0
  -22.7400  -29.4690   22.5090 C   0  0  0  0  0  0  0  0  0  0  0  0
  -21.4140  -29.3010   22.3800 N   0  0  0  0  0  0  0  0  0  0  0  0
  -23.4170  -28.8250   23.3140 O   0  0  0  0  0  0  0  0  0  0  0  0
  -20.9280  -29.8770   21.7080 H   0  0  0  0  0  0  0  0  0  0  0  0
  -18.0310  -28.1310   22.8460 C   0  0  0  0  0  0  0  0  0  0  0  0
  -20.5890  -28.3610   23.1360 C   0  0  0  0  0  3  0  0  0  0  0  0
  -20.6800  -26.9340   22.5460 C   0  0  0  0  0  2  0  0  0  0  0  0
  -19.5860  -26.6370   21.5160 C   0  0  0  0  0  2  0  0  0  0  0  0
  -18.2000  -26.7890   22.1510 C   0  0  0  0  0  2  0  0  0  0  0  0
  -19.1550  -28.8760   23.2930 C   0  0  0  0  0  0  0  0  0  0  0  0
  -18.9460  -30.1340   23.8980 C   0  0  0  0  0  3  0  0  0  0  0  0
  -17.6470  -30.6500   24.0570 C   0  0  0  0  0  3  0  0  0  0  0  0
  -16.5370  -29.9000   23.6290 C   0  0  0  0  0  3  0  0  0  0  0  0
  -16.7290  -28.6410   23.0310 C   0  0  0  0  0  3  0  0  0  0  0  0
  -25.9040  -32.4810   23.8400 C   0  0  0  0  0  3  0  0  0  0  0  0
  -26.4490  -31.6570   25.0710 C   0  0  1  0  0  0  0  0  0  0  0  0
  -25.3830  -31.3670   26.1520 C   0  0  0  0  0  1  0  0  0  0  0  0
  -27.0280  -30.3000   24.6040 C   0  0  0  0  0  1  0  0  0  0  0  0
  -27.6070  -32.4270   25.7490 C   0  0  0  0  0  1  0  0  0  0  0  0
  -25.5880  -33.8620   24.2340 N   0  0  0  0  0  0  0  0  0  0  0  0
  -25.9030  -34.9470   23.5130 C   0  0  0  0  0  0  0  0  0  0  0  0
  -26.5600  -34.8880   22.4700 O   0  0  0  0  0  0  0  0  0  0  0  0
  -24.9920  -33.9770   25.0410 H   0  0  0  0  0  0  0  0  0  0  0  0
  -24.1500  -36.7350   23.2640 C   0  0  0  0  0  1  0  0  0  0  0  0
  -25.4120  -36.3120   24.0320 C   0  0  0  0  0  3  0  0  0  0  0  0
  -27.5610  -37.1810   24.8430 C   0  0  0  0  0  1  0  0  0  0  0  0
  -26.4330  -37.3770   23.9370 N   0  0  0  0  0  0  0  0  0  0  0  0
  -26.0240  -38.2870   24.1290 H   0  0  0  0  0  0  0  0  0  0  0  0
  1  2  1  0
  3  2  1  0
  3  4  1  0
  5  4  1  0
  6  5  1  0
  7  6  1  0
  8  9  1  0
  8  7  1  0
  9 10  1  0
 10 11  1  0
 11 12  1  0
 12 13  1  0
 13 14  1  0
 15 14  1  0
 15 16  1  0
 17 18  1  0
 17 16  1  0
 19 18  1  0
 20 25  1  0
 21 22  1  0
 21 20  1  0
 23 22  1  0
 23 30  1  0
 23 24  1  0
 25 19  1  0
 25 24  1  0
 26 19  2  0
 27 28  2  0
 28 47  1  0
 29 28  1  0
 29 32  1  0
 30 27  1  0
 30 31  1  0
 31 29  2  0
 32 33  1  0
 33 34  2  0
 35 38  1  0
 35 34  1  0
 36 35  2  0
 37 36  1  0
 37 32  2  0
 38 39  1  0
 39 40  1  0
 40 41  2  0
 42 41  1  0
 42 46  1  0
 43 42  2  0
 44 39  2  0
 44 43  1  0
 45 44  1  0
 47 48  1  0
 48 51  1  0
 48 50  1  0
 49 47  2  0
 52 53  1  0
 52 27  1  0
 54 52  1  0
 55  1  1  0
 56 57  1  0
 56 58  1  0
 56 55  1  0
 59 56  1  0
 60 59  1  0
 60 61  1  0
 62 61  1  0
 62 63  1  0
 63 64  1  0
 64 65  1  0
 65 66  1  0
 66 68  1  0
 67 78  2  0
 68 73  1  0
 69 77  1  0
 69 79  1  0
 70 76  1  0
 70 72  1  0
 71 77  1  0
 72 71  1  0
 73 72  2  0
 74 75  1  0
 74 68  2  0
 75 70  2  0
 76 69  1  0
 77 67  1  0
 79 81  2  0
 80 79  1  0
 82 80  1  0
 83 92  2  0
 83 88  1  0
 84 80  1  0
 84 88  1  0
 85 84  1  0
 86 87  1  0
 86 85  1  0
 87 83  1  0
 88 89  2  0
 89 90  1  0
 91 90  2  0
 92 91  1  0
 93 67  1  0
 93 98  1  0
 93 94  1  0
 94 97  1  1
 94 95  1  0
 96 94  1  0
 98101  1  0
 99103  1  0
 99 98  1  0
100 99  2  0
103102  1  0
105103  1  0
105106  1  0
105104  1  0
M  ISO  4  18 100  19 100  65 101  66 101
M  END
>  <TORSDO>  (65) 
F 42

>  <SCORE>  (65) 
-2.530

>  <name>  (65) 
81

>  <ligand_id>  (65) 
81

>  <original_smiles>  (65) 
[H]c1c([H])c([H])c2c(c1[H])C([H])([H])C([H])([H])C([H])([H])C2([H])N([H])C(=O)C1([H])N(C(=O)C([H])(N([H])C(=O)C([H])(N([H])C([H])([H])[H])C([H])([H])[H])C(C([H])([H])[H])(C([H])([H])[H])C([H])([H])[H])C([H])([H])c2c([H])c(OOC([H])([H])C([H])([H])C([H])([H])C([H])([H])C([H])([H])C([H])([H])[N+]([H])([H])C([H])([H])C([H])([H])C([H])([H])OC([H])([H])C([H])([H])OC([H])([H])C([H])([H])OC([H])([H])C([H])([H])OC([H])([H])C([H])([H])OC([H])([H])C([H])([H])OC(=O)N3C([H])([H])C([H])([H])C([H])([H])C([H])(n4nc(-c5c([H])c([H])c(Oc6c([H])c([H])c(F)c([H])c6F)c([H])c5[H])c(C(=O)N([H])[H])c4N([H])[H])C3([H])[H])c([H])c([H])c2C1([H])[H]

>  <smiles>  (65) 
[H]c1c([H])c([H])c2c(c1[H])C([H])([H])C([H])([H])C([H])([H])C2([H])N([H])C(=O)C1([H])N(C(=O)C([H])(N([H])C(=O)C([H])(N([H])C([H])([H])[H])C([H])([H])[H])C(C([H])([H])[H])(C([H])([H])[H])C([H])([H])[H])C([H])([H])c2c([H])c(OOC([H])([H])C([H])([H])C([H])([H])C([H])([H])C([H])([H])C([H])([H])[N+]([H])([H])C([H])([H])C([H])([H])C([H])([H])OC([H])([H])C([H])([H])OC([H])([H])C([H])([H])OC([H])([H])C([H])([H])OC([H])([H])C([H])([H])OC([H])([H])C([H])([H])OC(=O)N3C([H])([H])C([H])([H])C([H])([H])C([H])(n4nc(-c5c([H])c([H])c(Oc6c([H])c([H])c(F)c([H])c6F)c([H])c5[H])c(C(=O)N([H])[H])c4N([H])[H])C3([H])[H])c([H])c([H])c2C1([H])[H]

$$$$
82:0:0
     RDKit          3D

105112  0  0  1  0  0  0  0  0999 V2000
  -26.1950  -22.5050   22.7770 C   0  0  0  0  0  2  0  0  0  0  0  0
  -26.5940  -21.6390   21.7250 O   0  0  0  0  0  0  0  0  0  0  0  0
  -27.8640  -21.0460   21.9620 C   0  0  0  0  0  2  0  0  0  0  0  0
  -28.6680  -21.0140   20.6560 C   0  0  0  0  0  2  0  0  0  0  0  0
  -29.0010  -22.3370   20.2580 O   0  0  0  0  0  0  0  0  0  0  0  0
  -29.6730  -22.3810   19.0070 C   0  0  0  0  0  2  0  0  0  0  0  0
  -29.4470  -23.7580   18.3650 C   0  0  0  0  0  2  0  0  0  0  0  0
  -28.0470  -23.9790   18.2160 O   0  0  0  0  0  0  0  0  0  0  0  0
  -27.7040  -24.9950   17.2790 C   0  0  0  0  0  2  0  0  0  0  0  0
  -28.0600  -26.3640   17.8730 C   0  0  0  0  0  2  0  0  0  0  0  0
  -29.1120  -26.9130   17.0960 O   0  0  0  0  0  0  0  0  0  0  0  0
  -29.4780  -28.2280   17.4710 C   0  0  0  0  0  2  0  0  0  0  0  0
  -30.3530  -28.7870   16.3460 C   0  0  0  0  0  2  0  0  0  0  0  0
  -29.6480  -28.6850   15.1160 O   0  0  0  0  0  0  0  0  0  0  0  0
  -30.5180  -28.5210   14.0050 C   0  0  0  0  0  2  0  0  0  0  0  0
  -29.7470  -27.9170   12.8290 C   0  0  0  0  0  2  0  0  0  0  0  0
  -28.9590  -26.8200   13.2730 O   0  0  0  0  0  0  0  0  0  0  0  0
  -28.3250  -26.0640   12.3640 C   0  0  0  0  0  0  0  0  0  0  0  0
  -26.1090  -25.0220   11.9520 C   0  0  0  0  0  2  0  0  0  0  0  0
  -25.0810  -26.1350   11.6660 C   0  0  0  0  0  2  0  0  0  0  0  0
  -24.4670  -26.6630   12.9770 C   0  0  0  0  0  2  0  0  0  0  0  0
  -25.5400  -27.0220   14.0400 C   0  0  0  0  0  3  0  0  0  0  0  0
  -26.5710  -25.8840   14.1950 C   0  0  0  0  0  2  0  0  0  0  0  0
  -27.1140  -25.5730   12.8650 N   0  0  0  0  0  0  0  0  0  0  0  0
  -28.7340  -25.9100   11.2090 O   0  0  0  0  0  0  0  0  0  0  0  0
  -25.2530  -28.3790   16.2090 C   0  0  0  0  0  0  0  0  0  0  0  0
  -24.3220  -28.3100   17.2130 C   0  0  0  0  0  0  0  0  0  0  0  0
  -23.4460  -27.2380   16.8680 C   0  0  0  0  0  0  0  0  0  0  0  0
  -24.9250  -27.3670   15.3200 N   0  0  0  0  0  0  0  0  0  0  0  0
  -23.8590  -26.6470   15.7530 N   0  0  0  0  0  0  0  0  0  0  0  0
  -22.2080  -26.7680   17.5050 C   0  0  0  0  0  0  0  0  0  0  0  0
  -22.0480  -25.4240   17.9030 C   0  0  0  0  0  3  0  0  0  0  0  0
  -20.8540  -25.0000   18.5280 C   0  0  0  0  0  3  0  0  0  0  0  0
  -19.8110  -25.9260   18.7670 C   0  0  0  0  0  0  0  0  0  0  0  0
  -19.9690  -27.2590   18.3490 C   0  0  0  0  0  3  0  0  0  0  0  0
  -21.1540  -27.6770   17.7220 C   0  0  0  0  0  3  0  0  0  0  0  0
  -18.6070  -25.6000   19.3460 O   0  0  0  0  0  0  0  0  0  0  0  0
  -18.5030  -24.5940   20.2710 C   0  0  0  0  0  0  0  0  0  0  0  0
  -19.2560  -24.6010   21.4660 C   0  0  0  0  0  3  0  0  0  0  0  0
  -19.0680  -23.5840   22.4230 C   0  0  0  0  0  3  0  0  0  0  0  0
  -18.1200  -22.5680   22.1940 C   0  0  0  0  0  0  0  0  0  0  0  0
  -17.3650  -22.5640   21.0080 C   0  0  0  0  0  3  0  0  0  0  0  0
  -17.5530  -23.5770   20.0510 C   0  0  0  0  0  0  0  0  0  0  0  0
  -16.8090  -23.5800   18.9190 F   0  0  0  0  0  0  0  0  0  0  0  0
  -17.9320  -21.5950   23.1160 F   0  0  0  0  0  0  0  0  0  0  0  0
  -24.1940  -29.2460   18.3810 C   0  0  0  0  0  0  0  0  0  0  0  0
  -23.7380  -28.7400   19.5240 N   0  0  0  0  0  0  0  0  0  0  0  0
  -24.5470  -30.4200   18.3010 O   0  0  0  0  0  0  0  0  0  0  0  0
  -23.4670  -27.7720   19.6000 H   0  0  0  0  0  0  0  0  0  0  0  0
  -23.6480  -29.3370   20.3330 H   0  0  0  0  0  0  0  0  0  0  0  0
  -26.3310  -29.2200   15.9670 N   0  0  0  0  0  0  0  0  0  0  0  0
  -26.5860  -29.9760   16.5910 H   0  0  0  0  0  0  0  0  0  0  0  0
  -26.9970  -29.0820   15.2180 H   0  0  0  0  0  0  0  0  0  0  0  0
  -25.2650  -23.6050   22.2370 C   0  0  0  0  0  2  0  0  0  0  0  0
  -23.9210  -23.4690   22.7020 O   0  0  0  0  0  0  0  0  0  0  0  0
  -23.4110  -24.5650   23.4640 C   0  0  0  0  0  2  0  0  0  0  0  0
  -24.2740  -24.8850   24.6920 C   0  0  0  0  0  2  0  0  0  0  0  0
  -25.1910  -25.9240   24.3740 O   0  0  0  0  0  0  0  0  0  0  0  0
  -26.1990  -26.0720   25.3660 C   0  0  0  0  0  2  0  0  0  0  0  0
  -27.0630  -27.3000   25.0560 C   0  0  0  0  0  2  0  0  0  0  0  0
  -27.8270  -27.2480   23.4030 S   0  0  0  0  0  0  0  0  0  0  0  0
  -26.6960  -28.3610   22.5200 C   0  0  0  0  0  2  0  0  0  0  0  0
  -27.2190  -28.7640   21.1260 C   0  0  0  0  0  2  0  0  0  0  0  0
  -26.2750  -29.5690   20.4260 O   0  0  0  0  0  0  0  0  0  0  0  0
  -26.4480  -31.0140   20.8280 O   0  0  0  0  0  0  0  0  0  0  0  0
  -28.5520  -32.1610   27.5040 C   0  0  0  0  0  0  0  0  0  0  0  0
  -26.0580  -31.1720   22.1300 C   0  0  0  0  0  0  0  0  0  0  0  0
  -26.2300  -31.3440   27.2240 C   0  0  0  0  0  3  0  0  0  0  0  0
  -25.3270  -31.3690   24.8360 C   0  0  0  0  0  0  0  0  0  0  0  0
  -27.3650  -32.7130   25.3910 C   0  0  0  0  0  2  0  0  0  0  0  0
  -26.5120  -31.9670   24.3880 C   0  0  0  0  0  0  0  0  0  0  0  0
  -26.8840  -31.8730   23.0320 C   0  0  0  0  0  3  0  0  0  0  0  0
  -24.8630  -30.5780   22.5860 C   0  0  0  0  0  3  0  0  0  0  0  0
  -24.4980  -30.6700   23.9420 C   0  0  0  0  0  3  0  0  0  0  0  0
  -24.9940  -31.5270   26.3010 C   0  0  0  0  0  2  0  0  0  0  0  0
  -27.4430  -32.0620   26.7170 N   0  0  0  0  0  0  0  0  0  0  0  0
  -28.5610  -31.7050   28.6550 O   0  0  0  0  0  0  0  0  0  0  0  0
  -26.4650  -29.8320   27.4440 C   0  0  0  0  0  0  0  0  0  0  0  0
  -25.7830  -29.2600   28.4480 N   0  0  0  0  0  0  0  0  0  0  0  0
  -27.2260  -29.1980   26.7120 O   0  0  0  0  0  0  0  0  0  0  0  0
  -25.1650  -29.8460   28.9910 H   0  0  0  0  0  0  0  0  0  0  0  0
  -24.6470  -26.8760   30.9040 C   0  0  0  0  0  0  0  0  0  0  0  0
  -25.8330  -27.8480   28.8230 C   0  0  0  0  0  3  0  0  0  0  0  0
  -24.8280  -27.0180   27.9930 C   0  0  0  0  0  2  0  0  0  0  0  0
  -23.4580  -26.8980   28.6710 C   0  0  0  0  0  2  0  0  0  0  0  0
  -23.5950  -26.2080   30.0320 C   0  0  0  0  0  2  0  0  0  0  0  0
  -25.6860  -27.6620   30.3350 C   0  0  0  0  0  0  0  0  0  0  0  0
  -26.6170  -28.2930   31.1890 C   0  0  0  0  0  3  0  0  0  0  0  0
  -26.5250  -28.1440   32.5860 C   0  0  0  0  0  3  0  0  0  0  0  0
  -25.5090  -27.3490   33.1430 C   0  0  0  0  0  3  0  0  0  0  0  0
  -24.5740  -26.7190   32.3030 C   0  0  0  0  0  3  0  0  0  0  0  0
  -29.8490  -32.8740   27.0070 C   0  0  0  0  0  3  0  0  0  0  0  0
  -30.9840  -31.8680   26.5640 C   0  0  1  0  0  0  0  0  0  0  0  0
  -31.3310  -30.8160   27.6440 C   0  0  0  0  0  1  0  0  0  0  0  0
  -30.5700  -31.1110   25.2800 C   0  0  0  0  0  1  0  0  0  0  0  0
  -32.2760  -32.6500   26.2260 C   0  0  0  0  0  1  0  0  0  0  0  0
  -30.3180  -33.7470   28.0900 N   0  0  0  0  0  0  0  0  0  0  0  0
  -30.0880  -35.0640   28.1580 C   0  0  0  0  0  0  0  0  0  0  0  0
  -29.5140  -35.6910   27.2610 O   0  0  0  0  0  0  0  0  0  0  0  0
  -30.7530  -33.2910   28.8790 H   0  0  0  0  0  0  0  0  0  0  0  0
  -29.3870  -35.9970   30.3820 C   0  0  0  0  0  1  0  0  0  0  0  0
  -30.5680  -35.8050   29.4170 C   0  0  0  0  0  3  0  0  0  0  0  0
  -32.4800  -36.9900   28.4330 C   0  0  0  0  0  1  0  0  0  0  0  0
  -31.2010  -37.1110   29.1280 N   0  0  0  0  0  0  0  0  0  0  0  0
  -31.3590  -37.6310   29.9870 H   0  0  0  0  0  0  0  0  0  0  0  0
  2  3  1  0
  2  1  1  0
  4  3  1  0
  5  4  1  0
  6  5  1  0
  7  6  1  0
  8  7  1  0
  9 10  1  0
  9  8  1  0
 11 12  1  0
 11 10  1  0
 13 12  1  0
 14 13  1  0
 15 14  1  0
 16 17  1  0
 16 15  1  0
 18 24  1  0
 18 17  1  0
 19 24  1  0
 20 19  1  0
 20 21  1  0
 22 21  1  0
 22 23  1  0
 22 29  1  0
 24 23  1  0
 25 18  2  0
 26 27  2  0
 27 46  1  0
 28 27  1  0
 28 31  1  0
 29 30  1  0
 29 26  1  0
 30 28  2  0
 31 36  2  0
 31 32  1  0
 32 33  2  0
 33 34  1  0
 34 37  1  0
 35 34  2  0
 36 35  1  0
 37 38  1  0
 38 39  1  0
 39 40  2  0
 41 40  1  0
 41 45  1  0
 42 41  2  0
 43 38  2  0
 43 42  1  0
 44 43  1  0
 46 47  1  0
 47 49  1  0
 47 50  1  0
 48 46  2  0
 51 26  1  0
 51 52  1  0
 53 51  1  0
 54 55  1  0
 54  1  1  0
 55 56  1  0
 56 57  1  0
 58 57  1  0
 58 59  1  0
 60 59  1  0
 61 60  1  0
 62 61  1  0
 63 62  1  0
 64 65  1  0
 64 63  1  0
 65 67  1  0
 66 77  2  0
 67 73  2  0
 67 72  1  0
 68 78  1  0
 69 75  1  0
 70 76  1  0
 71 69  1  0
 71 70  1  0
 72 71  2  0
 73 74  1  0
 74 69  2  0
 75 68  1  0
 76 68  1  0
 76 66  1  0
 78 79  1  0
 79 81  1  0
 80 78  2  0
 82 91  1  0
 83 79  1  0
 83 87  1  0
 84 85  1  0
 84 83  1  0
 85 86  1  0
 86 82  1  0
 87 82  2  0
 87 88  1  0
 88 89  2  0
 89 90  1  0
 91 90  2  0
 92 66  1  0
 92 97  1  0
 93 92  1  0
 93 94  1  1
 95 93  1  0
 96 93  1  0
 97 98  1  0
 97100  1  0
 98102  1  0
 99 98  2  0
102101  1  0
103104  1  0
104102  1  0
104105  1  0
M  ISO  4  17 100  18 100  64 101  65 101
M  END
>  <TORSDO>  (66) 
F 43

>  <SCORE>  (66) 
0.914

>  <name>  (66) 
82

>  <ligand_id>  (66) 
82

>  <original_smiles>  (66) 
[H]c1c([H])c([H])c2c(c1[H])C([H])([H])C([H])([H])C([H])([H])C2([H])N([H])C(=O)C1([H])N(C(=O)C([H])(N([H])C(=O)C([H])(N([H])C([H])([H])[H])C([H])([H])[H])C(C([H])([H])[H])(C([H])([H])[H])C([H])([H])[H])C([H])([H])c2c([H])c(OOC([H])([H])C([H])([H])SC([H])([H])C([H])([H])OC([H])([H])C([H])([H])OC([H])([H])C([H])([H])OC([H])([H])C([H])([H])OC([H])([H])C([H])([H])OC([H])([H])C([H])([H])OC([H])([H])C([H])([H])OC([H])([H])C([H])([H])OC(=O)N3C([H])([H])C([H])([H])C([H])([H])C([H])(n4nc(-c5c([H])c([H])c(Oc6c([H])c([H])c(F)c([H])c6F)c([H])c5[H])c(C(=O)N([H])[H])c4N([H])[H])C3([H])[H])c([H])c([H])c2C1([H])[H]

>  <smiles>  (66) 
[H]c1c([H])c([H])c2c(c1[H])C([H])([H])C([H])([H])C([H])([H])C2([H])N([H])C(=O)C1([H])N(C(=O)C([H])(N([H])C(=O)C([H])(N([H])C([H])([H])[H])C([H])([H])[H])C(C([H])([H])[H])(C([H])([H])[H])C([H])([H])[H])C([H])([H])c2c([H])c(OOC([H])([H])C([H])([H])SC([H])([H])C([H])([H])OC([H])([H])C([H])([H])OC([H])([H])C([H])([H])OC([H])([H])C([H])([H])OC([H])([H])C([H])([H])OC([H])([H])C([H])([H])OC([H])([H])C([H])([H])OC([H])([H])C([H])([H])OC(=O)N3C([H])([H])C([H])([H])C([H])([H])C([H])(n4nc(-c5c([H])c([H])c(Oc6c([H])c([H])c(F)c([H])c6F)c([H])c5[H])c(C(=O)N([H])[H])c4N([H])[H])C3([H])[H])c([H])c([H])c2C1([H])[H]

$$$$
83:0:0
     RDKit          3D

108115  0  0  1  0  0  0  0  0999 V2000
  -33.8950  -15.7380   17.3360 C   0  0  0  0  0  0  0  0  0  0  0  0
  -32.8770  -16.6010   17.4860 N   0  0  0  0  0  0  0  0  0  0  0  0
  -34.9950  -15.9100   17.8740 O   0  0  0  0  0  0  0  0  0  0  0  0
  -31.9900  -16.4230   17.0290 H   0  0  0  0  0  0  0  0  0  0  0  0
  -33.0190  -17.7660   18.2490 N   0  0  0  0  0  0  0  0  0  0  0  0
  -33.5440  -17.5450   19.0960 H   0  0  0  0  0  0  0  0  0  0  0  0
  -31.7270  -18.3710   18.5740 C   0  0  0  0  0  2  0  0  0  0  0  0
  -31.8670  -19.6670   19.3860 C   0  0  0  0  0  2  0  0  0  0  0  0
  -30.5600  -20.4730   19.4230 C   0  0  0  0  0  2  0  0  0  0  0  0
  -30.6950  -21.8450   20.1170 C   0  0  0  0  0  2  0  0  0  0  0  0
  -29.4140  -22.6840   19.9570 C   0  0  0  0  0  2  0  0  0  0  0  0
  -29.5190  -24.1430   20.4440 C   0  0  0  0  0  2  0  0  0  0  0  0
  -28.2150  -24.9030   20.1530 C   0  0  0  0  0  2  0  0  0  0  0  0
  -28.2670  -26.2740   20.5530 O   0  0  0  0  0  0  0  0  0  0  0  0
  -24.4950  -31.7240   23.1640 C   0  0  0  0  0  0  0  0  0  0  0  0
  -27.0940  -27.0040   20.4730 C   0  0  0  0  0  0  0  0  0  0  0  0
  -23.2900  -30.2390   21.5950 C   0  0  0  0  0  3  0  0  0  0  0  0
  -24.7330  -28.5660   20.3260 C   0  0  0  0  0  0  0  0  0  0  0  0
  -25.8280  -30.5150   21.4410 C   0  0  0  0  0  2  0  0  0  0  0  0
  -25.8900  -29.0990   20.9040 C   0  0  0  0  0  0  0  0  0  0  0  0
  -27.0700  -28.3250   20.9770 C   0  0  0  0  0  3  0  0  0  0  0  0
  -25.9070  -26.4840   19.8980 C   0  0  0  0  0  3  0  0  0  0  0  0
  -24.7360  -27.2550   19.8240 C   0  0  0  0  0  3  0  0  0  0  0  0
  -23.5130  -29.4570   20.2750 C   0  0  0  0  0  2  0  0  0  0  0  0
  -24.5550  -30.8440   22.1240 N   0  0  0  0  0  0  0  0  0  0  0  0
  -23.4090  -32.0650   23.6520 O   0  0  0  0  0  0  0  0  0  0  0  0
  -22.5860  -29.3080   22.6070 C   0  0  0  0  0  0  0  0  0  0  0  0
  -21.2600  -29.1580   22.4590 N   0  0  0  0  0  0  0  0  0  0  0  0
  -23.2290  -28.7220   23.4820 O   0  0  0  0  0  0  0  0  0  0  0  0
  -20.8040  -29.6780   21.7220 H   0  0  0  0  0  0  0  0  0  0  0  0
  -17.8340  -28.1310   22.9630 C   0  0  0  0  0  0  0  0  0  0  0  0
  -20.3950  -28.3020   23.2700 C   0  0  0  0  0  3  0  0  0  0  0  0
  -20.4500  -26.8350   22.7830 C   0  0  0  0  0  2  0  0  0  0  0  0
  -19.3530  -26.4940   21.7700 C   0  0  0  0  0  2  0  0  0  0  0  0
  -17.9670  -26.7360   22.3770 C   0  0  0  0  0  2  0  0  0  0  0  0
  -18.9750  -28.8730   23.3670 C   0  0  0  0  0  0  0  0  0  0  0  0
  -18.8000  -30.1800   23.8730 C   0  0  0  0  0  3  0  0  0  0  0  0
  -17.5140  -30.7420   23.9830 C   0  0  0  0  0  3  0  0  0  0  0  0
  -16.3870  -29.9980   23.5970 C   0  0  0  0  0  3  0  0  0  0  0  0
  -16.5470  -28.6950   23.0920 C   0  0  0  0  0  3  0  0  0  0  0  0
  -25.7830  -32.3610   23.7720 C   0  0  0  0  0  3  0  0  0  0  0  0
  -26.3210  -31.5890   25.0390 C   0  0  1  0  0  0  0  0  0  0  0  0
  -25.2380  -31.3290   26.1110 C   0  0  0  0  0  1  0  0  0  0  0  0
  -26.9200  -30.2230   24.6310 C   0  0  0  0  0  1  0  0  0  0  0  0
  -27.4590  -32.3980   25.7040 C   0  0  0  0  0  1  0  0  0  0  0  0
  -25.4710  -33.7570   24.1050 N   0  0  0  0  0  0  0  0  0  0  0  0
  -25.7890  -34.8110   23.3410 C   0  0  0  0  0  0  0  0  0  0  0  0
  -26.4480  -34.7120   22.3010 O   0  0  0  0  0  0  0  0  0  0  0  0
  -24.8870  -33.9090   24.9140 H   0  0  0  0  0  0  0  0  0  0  0  0
  -24.0390  -36.5890   23.0100 C   0  0  0  0  0  1  0  0  0  0  0  0
  -25.2980  -36.1950   23.8030 C   0  0  0  0  0  3  0  0  0  0  0  0
  -27.4360  -37.1010   24.5980 C   0  0  0  0  0  1  0  0  0  0  0  0
  -26.3180  -37.2580   23.6720 N   0  0  0  0  0  0  0  0  0  0  0  0
  -25.9040  -38.1730   23.8280 H   0  0  0  0  0  0  0  0  0  0  0  0
  -33.6620  -14.5130   16.4370 C   0  0  0  0  0  2  0  0  0  0  0  0
  -34.5880  -13.4810   16.7710 O   0  0  0  0  0  0  0  0  0  0  0  0
  -34.7340  -12.5210   15.7320 C   0  0  0  0  0  2  0  0  0  0  0  0
  -35.6980  -11.4020   16.1650 C   0  0  0  0  0  2  0  0  0  0  0  0
  -35.0520  -10.5260   17.0810 O   0  0  0  0  0  0  0  0  0  0  0  0
  -35.8300   -9.3780   17.4060 C   0  0  0  0  0  2  0  0  0  0  0  0
  -34.9980   -8.4350   18.2920 C   0  0  0  0  0  2  0  0  0  0  0  0
  -34.7530   -9.0040   19.5730 O   0  0  0  0  0  0  0  0  0  0  0  0
  -33.6230   -8.4150   20.2080 C   0  0  0  0  0  2  0  0  0  0  0  0
  -33.4410   -8.9680   21.6290 C   0  0  0  0  0  2  0  0  0  0  0  0
  -33.2770  -10.3820   21.6110 O   0  0  0  0  0  0  0  0  0  0  0  0
  -33.3610  -10.9550   22.9140 C   0  0  0  0  0  2  0  0  0  0  0  0
  -33.5280  -12.4760   22.7980 C   0  0  0  0  0  2  0  0  0  0  0  0
  -32.2610  -13.0920   22.5910 O   0  0  0  0  0  0  0  0  0  0  0  0
  -32.3390  -14.3680   21.9550 C   0  0  0  0  0  2  0  0  0  0  0  0
  -32.4470  -14.1930   20.4320 C   0  0  0  0  0  2  0  0  0  0  0  0
  -31.2780  -12.6010   18.8920 C   0  0  0  0  0  0  0  0  0  0  0  0
  -30.2050  -10.6150   17.9000 C   0  0  0  0  0  2  0  0  0  0  0  0
  -29.0260  -10.9590   16.9790 C   0  0  0  0  0  2  0  0  0  0  0  0
  -27.7250  -11.1050   17.7870 C   0  0  0  0  0  2  0  0  0  0  0  0
  -27.8930  -12.0550   19.0000 C   0  0  0  0  0  3  0  0  0  0  0  0
  -29.1380  -11.6710   19.8260 C   0  0  0  0  0  2  0  0  0  0  0  0
  -30.3160  -11.6490   18.9340 N   0  0  0  0  0  0  0  0  0  0  0  0
  -32.0500  -12.7790   17.9490 O   0  0  0  0  0  0  0  0  0  0  0  0
  -31.4100  -13.2580   20.0400 N   0  0  0  0  0  0  0  0  0  0  0  0
  -30.8120  -12.9500   20.7940 H   0  0  0  0  0  0  0  0  0  0  0  0
  -26.0610  -13.1480   20.4450 C   0  0  0  0  0  0  0  0  0  0  0  0
  -24.9400  -12.6330   21.0420 C   0  0  0  0  0  0  0  0  0  0  0  0
  -24.9460  -11.2350   20.7470 C   0  0  0  0  0  0  0  0  0  0  0  0
  -26.6940  -12.0760   19.8320 N   0  0  0  0  0  0  0  0  0  0  0  0
  -26.0370  -10.9110   20.0640 N   0  0  0  0  0  0  0  0  0  0  0  0
  -23.9480  -10.1950   21.0270 C   0  0  0  0  0  0  0  0  0  0  0  0
  -24.2730   -9.0310   21.7590 C   0  0  0  0  0  3  0  0  0  0  0  0
  -23.2880   -8.0560   22.0280 C   0  0  0  0  0  3  0  0  0  0  0  0
  -21.9620   -8.2390   21.5670 C   0  0  0  0  0  0  0  0  0  0  0  0
  -21.6500   -9.3880   20.8200 C   0  0  0  0  0  3  0  0  0  0  0  0
  -22.6330  -10.3550   20.5470 C   0  0  0  0  0  3  0  0  0  0  0  0
  -20.9460   -7.3350   21.7620 O   0  0  0  0  0  0  0  0  0  0  0  0
  -20.9130   -6.5150   22.8620 C   0  0  0  0  0  0  0  0  0  0  0  0
  -20.8690   -7.0320   24.1760 C   0  0  0  0  0  3  0  0  0  0  0  0
  -20.7650   -6.1560   25.2730 C   0  0  0  0  0  3  0  0  0  0  0  0
  -20.6910   -4.7660   25.0610 C   0  0  0  0  0  0  0  0  0  0  0  0
  -20.7250   -4.2490   23.7530 C   0  0  0  0  0  3  0  0  0  0  0  0
  -20.8320   -5.1230   22.6560 C   0  0  0  0  0  0  0  0  0  0  0  0
  -20.8450   -4.6220   21.3980 F   0  0  0  0  0  0  0  0  0  0  0  0
  -20.5820   -3.9240   26.1140 F   0  0  0  0  0  0  0  0  0  0  0  0
  -23.8710  -13.4050   21.7610 C   0  0  0  0  0  0  0  0  0  0  0  0
  -23.2290  -12.7890   22.7500 N   0  0  0  0  0  0  0  0  0  0  0  0
  -23.6320  -14.5780   21.4840 O   0  0  0  0  0  0  0  0  0  0  0  0
  -23.4410  -11.8350   22.9950 H   0  0  0  0  0  0  0  0  0  0  0  0
  -22.5220  -13.2860   23.2730 H   0  0  0  0  0  0  0  0  0  0  0  0
  -26.5820  -14.4350   20.3540 N   0  0  0  0  0  0  0  0  0  0  0  0
  -26.1140  -15.2420   20.7530 H   0  0  0  0  0  0  0  0  0  0  0  0
  -27.4530  -14.6710   19.8930 H   0  0  0  0  0  0  0  0  0  0  0  0
  1  2  1  0
  1  3  2  0
  2  5  1  0
  4  2  1  0
  5  7  1  0
  5  6  1  0
  7  8  1  0
  8  9  1  0
  9 10  1  0
 11 10  1  0
 11 12  1  0
 13 12  1  0
 13 14  1  0
 15 26  2  0
 16 14  1  0
 16 21  1  0
 17 25  1  0
 17 27  1  0
 18 20  1  0
 19 25  1  0
 20 21  2  0
 20 19  1  0
 22 16  2  0
 23 22  1  0
 23 18  2  0
 24 18  1  0
 24 17  1  0
 25 15  1  0
 27 29  2  0
 28 27  1  0
 30 28  1  0
 31 40  2  0
 31 36  1  0
 32 28  1  0
 32 36  1  0
 33 32  1  0
 34 35  1  0
 34 33  1  0
 35 31  1  0
 36 37  2  0
 37 38  1  0
 39 38  2  0
 40 39  1  0
 41 15  1  0
 41 46  1  0
 41 42  1  0
 42 45  1  1
 42 43  1  0
 44 42  1  0
 46 49  1  0
 47 51  1  0
 47 46  1  0
 48 47  2  0
 51 50  1  0
 53 51  1  0
 53 54  1  0
 53 52  1  0
 55 56  1  0
 55  1  1  0
 57 58  1  0
 57 56  1  0
 58 59  1  0
 59 60  1  0
 60 61  1  0
 61 62  1  0
 62 63  1  0
 63 64  1  0
 65 64  1  0
 65 66  1  0
 67 66  1  0
 68 67  1  0
 69 68  1  0
 70 69  1  0
 71 77  1  0
 71 79  1  0
 72 77  1  0
 73 74  1  0
 73 72  1  0
 75 74  1  0
 75 76  1  0
 75 84  1  0
 77 76  1  0
 78 71  2  0
 79 70  1  0
 79 80  1  0
 81 82  2  0
 82101  1  0
 83 86  1  0
 83 82  1  0
 84 85  1  0
 84 81  1  0
 85 83  2  0
 86 87  1  0
 87 88  2  0
 89 92  1  0
 89 88  1  0
 90 89  2  0
 91 90  1  0
 91 86  2  0
 92 93  1  0
 93 94  1  0
 94 95  2  0
 96 95  1  0
 96100  1  0
 97 96  2  0
 98 93  2  0
 98 97  1  0
 99 98  1  0
101102  1  0
102104  1  0
102105  1  0
103101  2  0
106 81  1  0
106107  1  0
108106  1  0
M  ISO  4  13 101  14 101  71 100  79 100
M  END
>  <TORSDO>  (67) 
F 40

>  <SCORE>  (67) 
-4.102

>  <name>  (67) 
83

>  <ligand_id>  (67) 
83

>  <original_smiles>  (67) 
[H]c1c([H])c([H])c2c(c1[H])C([H])([H])C([H])([H])C([H])([H])C2([H])N([H])C(=O)C1([H])N(C(=O)C([H])(N([H])C(=O)C([H])(N([H])C([H])([H])[H])C([H])([H])[H])C(C([H])([H])[H])(C([H])([H])[H])C([H])([H])[H])C([H])([H])c2c([H])c(OC([H])([H])C([H])([H])C([H])([H])C([H])([H])C([H])([H])C([H])([H])C([H])([H])N([H])N([H])C(=O)C([H])([H])OC([H])([H])C([H])([H])OC([H])([H])C([H])([H])OC([H])([H])C([H])([H])OC([H])([H])C([H])([H])OC([H])([H])C([H])([H])N([H])C(=O)N3C([H])([H])C([H])([H])C([H])([H])C([H])(n4nc(-c5c([H])c([H])c(Oc6c([H])c([H])c(F)c([H])c6F)c([H])c5[H])c(C(=O)N([H])[H])c4N([H])[H])C3([H])[H])c([H])c([H])c2C1([H])[H]

>  <smiles>  (67) 
[H]c1c([H])c([H])c2c(c1[H])C([H])([H])C([H])([H])C([H])([H])C2([H])N([H])C(=O)C1([H])N(C(=O)C([H])(N([H])C(=O)C([H])(N([H])C([H])([H])[H])C([H])([H])[H])C(C([H])([H])[H])(C([H])([H])[H])C([H])([H])[H])C([H])([H])c2c([H])c(OC([H])([H])C([H])([H])C([H])([H])C([H])([H])C([H])([H])C([H])([H])C([H])([H])N([H])N([H])C(=O)C([H])([H])OC([H])([H])C([H])([H])OC([H])([H])C([H])([H])OC([H])([H])C([H])([H])OC([H])([H])C([H])([H])OC([H])([H])C([H])([H])N([H])C(=O)N3C([H])([H])C([H])([H])C([H])([H])C([H])(n4nc(-c5c([H])c([H])c(Oc6c([H])c([H])c(F)c([H])c6F)c([H])c5[H])c(C(=O)N([H])[H])c4N([H])[H])C3([H])[H])c([H])c([H])c2C1([H])[H]

$$$$
84:0:0
     RDKit          3D

103110  0  0  1  0  0  0  0  0999 V2000
  -31.0640  -17.6530   22.9060 C   0  0  0  0  0  2  0  0  0  0  0  0
  -32.1810  -17.2190   21.9830 O   0  0  0  0  0  0  0  0  0  0  0  0
  -33.3330  -17.9530   21.3640 C   0  0  0  0  0  2  0  0  0  0  0  0
  -33.6960  -17.9310   19.7440 C   0  0  0  0  0  2  0  0  0  0  0  0
  -32.7940  -17.8000   18.5460 O   0  0  0  0  0  0  0  0  0  0  0  0
  -32.0840  -18.8220   17.6830 C   0  0  0  0  0  2  0  0  0  0  0  0
  -30.5180  -19.4830   17.8620 C   0  0  0  0  0  2  0  0  0  0  0  0
  -29.7580  -20.4400   18.9470 O   0  0  0  0  0  0  0  0  0  0  0  0
  -29.5730  -21.8270   19.7780 C   0  0  0  0  0  3  0  0  0  0  0  0
  -29.2120  -23.4360   19.3850 C   0  0  0  0  0  3  0  0  0  0  0  0
  -28.7000  -24.4940   20.3200 O   0  0  0  0  0  0  0  0  0  0  0  0
  -28.8650  -26.0250   19.7820 O   0  0  0  0  0  0  0  0  0  0  0  0
  -24.7730  -31.2330   22.9030 C   0  0  0  0  0  0  0  0  0  0  0  0
  -27.7020  -26.8340   19.8210 C   0  0  0  0  0  0  0  0  0  0  0  0
  -23.6960  -29.8200   21.1890 C   0  0  0  0  0  3  0  0  0  0  0  0
  -25.2690  -28.3730   19.7710 C   0  0  0  0  0  0  0  0  0  0  0  0
  -26.2240  -30.2560   21.0980 C   0  0  0  0  0  2  0  0  0  0  0  0
  -26.3960  -28.8900   20.4240 C   0  0  0  0  0  0  0  0  0  0  0  0
  -27.6130  -28.1310   20.4410 C   0  0  0  0  0  3  0  0  0  0  0  0
  -26.5550  -26.3850   19.1420 C   0  0  0  0  0  3  0  0  0  0  0  0
  -25.3540  -27.1300   19.1210 C   0  0  0  0  0  3  0  0  0  0  0  0
  -23.9900  -29.1920   19.7990 C   0  0  0  0  0  2  0  0  0  0  0  0
  -24.9150  -30.4570   21.7860 N   0  0  0  0  0  0  0  0  0  0  0  0
  -23.6610  -31.4370   23.4110 O   0  0  0  0  0  0  0  0  0  0  0  0
  -23.0590  -28.7450   22.1040 C   0  0  0  0  0  0  0  0  0  0  0  0
  -21.7360  -28.5440   21.9750 N   0  0  0  0  0  0  0  0  0  0  0  0
  -23.7550  -28.0960   22.8890 O   0  0  0  0  0  0  0  0  0  0  0  0
  -21.2300  -29.1230   21.3190 H   0  0  0  0  0  0  0  0  0  0  0  0
  -18.3850  -27.2650   22.4610 C   0  0  0  0  0  0  0  0  0  0  0  0
  -20.9440  -27.5490   22.7010 C   0  0  0  0  0  3  0  0  0  0  0  0
  -21.0570  -26.1560   22.0370 C   0  0  0  0  0  2  0  0  0  0  0  0
  -19.9410  -25.8790   21.0240 C   0  0  0  0  0  2  0  0  0  0  0  0
  -18.5690  -25.9630   21.7010 C   0  0  0  0  0  2  0  0  0  0  0  0
  -19.4990  -28.0170   22.9170 C   0  0  0  0  0  0  0  0  0  0  0  0
  -19.2730  -29.2380   23.5900 C   0  0  0  0  0  3  0  0  0  0  0  0
  -17.9640  -29.7060   23.8100 C   0  0  0  0  0  3  0  0  0  0  0  0
  -16.8640  -28.9490   23.3690 C   0  0  0  0  0  3  0  0  0  0  0  0
  -17.0760  -27.7310   22.7000 C   0  0  0  0  0  3  0  0  0  0  0  0
  -25.9990  -31.9190   23.5810 C   0  0  0  0  0  3  0  0  0  0  0  0
  -26.5400  -31.1230   24.8320 C   0  0  1  0  0  0  0  0  0  0  0  0
  -25.4480  -30.7750   25.8710 C   0  0  0  0  0  1  0  0  0  0  0  0
  -27.2090  -29.8000   24.3940 C   0  0  0  0  0  1  0  0  0  0  0  0
  -27.6320  -31.9530   25.5490 C   0  0  0  0  0  1  0  0  0  0  0  0
  -25.5910  -33.2760   23.9740 N   0  0  0  0  0  0  0  0  0  0  0  0
  -25.8690  -34.3880   23.2800 C   0  0  0  0  0  0  0  0  0  0  0  0
  -26.5640  -34.3820   22.2610 O   0  0  0  0  0  0  0  0  0  0  0  0
  -24.9720  -33.3490   24.7680 H   0  0  0  0  0  0  0  0  0  0  0  0
  -24.0310  -36.0810   22.9880 C   0  0  0  0  0  1  0  0  0  0  0  0
  -25.2850  -35.7170   23.7990 C   0  0  0  0  0  3  0  0  0  0  0  0
  -27.3470  -36.6950   24.7060 C   0  0  0  0  0  1  0  0  0  0  0  0
  -26.2470  -36.8400   23.7550 N   0  0  0  0  0  0  0  0  0  0  0  0
  -25.7800  -37.7220   23.9440 H   0  0  0  0  0  0  0  0  0  0  0  0
  -29.5900  -18.3400   22.5730 C   0  0  0  0  0  2  0  0  0  0  0  0
  -28.7040  -18.0100   21.4160 O   0  0  0  0  0  0  0  0  0  0  0  0
  -27.8040  -19.0250   20.7760 C   0  0  0  0  0  2  0  0  0  0  0  0
  -27.4090  -18.9010   19.1940 C   0  0  0  0  0  2  0  0  0  0  0  0
  -27.2570  -20.0960   18.3010 O   0  0  0  0  0  0  0  0  0  0  0  0
  -27.7280  -20.0860   16.8720 C   0  0  0  0  0  2  0  0  0  0  0  0
  -28.7840  -21.1520   16.1300 C   0  0  0  0  0  2  0  0  0  0  0  0
  -30.0390  -21.9210   16.5800 O   0  0  0  0  0  0  0  0  0  0  0  0
  -31.4690  -21.6570   17.0600 C   0  0  0  0  0  2  0  0  0  0  0  0
  -32.0400  -21.2810   18.6170 C   0  0  0  0  0  2  0  0  0  0  0  0
  -31.9690  -20.0110   19.5210 O   0  0  0  0  0  0  0  0  0  0  0  0
  -30.9260  -19.0390   20.1720 C   0  0  0  0  0  2  0  0  0  0  0  0
  -30.2930  -17.4260   19.7290 C   0  0  0  0  0  2  0  0  0  0  0  0
  -31.1290  -14.7920   19.8670 C   0  0  0  0  0  0  0  0  0  0  0  0
  -30.8260  -12.4770   18.9360 C   0  0  0  0  0  2  0  0  0  0  0  0
  -29.8450  -12.5720   17.7440 C   0  0  0  0  0  2  0  0  0  0  0  0
  -28.3880  -12.4560   18.2340 C   0  0  0  0  0  2  0  0  0  0  0  0
  -28.1010  -13.3710   19.4550 C   0  0  0  0  0  3  0  0  0  0  0  0
  -29.2030  -13.2550   20.5360 C   0  0  0  0  0  2  0  0  0  0  0  0
  -30.4860  -13.5650   19.8930 N   0  0  0  0  0  0  0  0  0  0  0  0
  -32.2530  -14.8400   19.3640 O   0  0  0  0  0  0  0  0  0  0  0  0
  -30.4210  -15.9420   20.2480 N   0  0  0  0  0  0  0  0  0  0  0  0
  -29.6240  -15.6870   20.8100 H   0  0  0  0  0  0  0  0  0  0  0  0
  -25.7990  -14.0750   20.3350 C   0  0  0  0  0  0  0  0  0  0  0  0
  -24.7080  -13.3580   20.7350 C   0  0  0  0  0  0  0  0  0  0  0  0
  -25.0770  -11.9800   20.6240 C   0  0  0  0  0  0  0  0  0  0  0  0
  -26.7690  -13.1430   20.0050 N   0  0  0  0  0  0  0  0  0  0  0  0
  -26.3450  -11.8730   20.2420 N   0  0  0  0  0  0  0  0  0  0  0  0
  -24.2800  -10.7600   20.8070 C   0  0  0  0  0  0  0  0  0  0  0  0
  -24.7060   -9.7170   21.6600 C   0  0  0  0  0  3  0  0  0  0  0  0
  -23.9110   -8.5640   21.8350 C   0  0  0  0  0  3  0  0  0  0  0  0
  -22.6730   -8.4460   21.1580 C   0  0  0  0  0  0  0  0  0  0  0  0
  -22.2640   -9.4760   20.2930 C   0  0  0  0  0  3  0  0  0  0  0  0
  -23.0590  -10.6210   20.1160 C   0  0  0  0  0  3  0  0  0  0  0  0
  -21.8480   -7.3510   21.2460 O   0  0  0  0  0  0  0  0  0  0  0  0
  -21.8320   -6.5500   22.3610 C   0  0  0  0  0  0  0  0  0  0  0  0
  -21.5770   -7.0700   23.6480 C   0  0  0  0  0  3  0  0  0  0  0  0
  -21.5000   -6.2010   24.7560 C   0  0  0  0  0  3  0  0  0  0  0  0
  -21.6680   -4.8150   24.5770 C   0  0  0  0  0  0  0  0  0  0  0  0
  -21.9170   -4.2950   23.2940 C   0  0  0  0  0  3  0  0  0  0  0  0
  -21.9950   -5.1610   22.1900 C   0  0  0  0  0  0  0  0  0  0  0  0
  -22.2130   -4.6520   20.9530 F   0  0  0  0  0  0  0  0  0  0  0  0
  -21.5870   -3.9790   25.6390 F   0  0  0  0  0  0  0  0  0  0  0  0
  -23.3600  -13.9100   21.1030 C   0  0  0  0  0  0  0  0  0  0  0  0
  -22.6470  -13.2390   21.9990 N   0  0  0  0  0  0  0  0  0  0  0  0
  -22.9550  -14.9700   20.6280 O   0  0  0  0  0  0  0  0  0  0  0  0
  -22.9860  -12.3780   22.4010 H   0  0  0  0  0  0  0  0  0  0  0  0
  -21.7440  -13.5890   22.2890 H   0  0  0  0  0  0  0  0  0  0  0  0
  -26.0420  -15.4410   20.2020 N   0  0  0  0  0  0  0  0  0  0  0  0
  -25.3210  -16.1300   20.3890 H   0  0  0  0  0  0  0  0  0  0  0  0
  -26.8950  -15.8430   19.8400 H   0  0  0  0  0  0  0  0  0  0  0  0
  2  1  1  0
  3  2  1  0
  4  3  1  0
  5  4  1  0
  6  7  1  0
  6  5  1  0
  7  8  1  0
  8  9  1  0
 10  9  2  0
 10 11  1  0
 12 14  1  0
 12 11  1  0
 13 24  2  0
 14 19  1  0
 15 23  1  0
 15 25  1  0
 16 22  1  0
 16 18  1  0
 17 23  1  0
 18 19  2  0
 18 17  1  0
 20 14  2  0
 21 20  1  0
 21 16  2  0
 22 15  1  0
 23 13  1  0
 25 27  2  0
 26 25  1  0
 28 26  1  0
 29 38  2  0
 29 34  1  0
 30 26  1  0
 30 34  1  0
 31 30  1  0
 32 33  1  0
 32 31  1  0
 33 29  1  0
 34 35  2  0
 35 36  1  0
 37 36  2  0
 38 37  1  0
 39 13  1  0
 39 44  1  0
 39 40  1  0
 40 43  1  1
 40 41  1  0
 42 40  1  0
 44 47  1  0
 45 49  1  0
 45 44  1  0
 46 45  2  0
 49 48  1  0
 51 49  1  0
 51 52  1  0
 51 50  1  0
 53  1  1  0
 54 53  1  0
 55 54  1  0
 56 55  1  0
 57 56  1  0
 58 57  1  0
 59 60  1  0
 59 58  1  0
 60 61  1  0
 61 62  1  0
 62 63  1  0
 63 64  1  0
 65 64  1  0
 65 74  1  0
 66 72  1  0
 66 74  1  0
 67 72  1  0
 68 69  1  0
 68 67  1  0
 70 69  1  0
 70 79  1  0
 70 71  1  0
 72 71  1  0
 73 66  2  0
 74 75  1  0
 76 77  2  0
 77 96  1  0
 78 77  1  0
 78 81  1  0
 79 80  1  0
 79 76  1  0
 80 78  2  0
 81 82  1  0
 82 83  2  0
 84 87  1  0
 84 83  1  0
 85 84  2  0
 86 85  1  0
 86 81  2  0
 87 88  1  0
 88 89  1  0
 89 90  2  0
 91 90  1  0
 91 95  1  0
 92 91  2  0
 93 88  2  0
 93 92  1  0
 94 93  1  0
 96 97  1  0
 97100  1  0
 97 99  1  0
 98 96  2  0
101 76  1  0
101102  1  0
103101  1  0
M  ISO  4  11 101  12 101  66 100  74 100
M  END
>  <TORSDO>  (68) 
F 39

>  <SCORE>  (68) 
-6.086

>  <name>  (68) 
84

>  <ligand_id>  (68) 
84

>  <original_smiles>  (68) 
[H]c1c([H])c([H])c2c(c1[H])C([H])([H])C([H])([H])C([H])([H])C2([H])N([H])C(=O)C1([H])N(C(=O)C([H])(N([H])C(=O)C([H])(N([H])C([H])([H])[H])C([H])([H])[H])C(C([H])([H])[H])(C([H])([H])[H])C([H])([H])[H])C([H])([H])c2c([H])c(OOC([H])([H])C([H])([H])OC([H])([H])C([H])([H])OC([H])([H])C([H])([H])OC([H])([H])C([H])([H])OC([H])([H])C([H])([H])OC([H])([H])C([H])([H])OC([H])([H])C([H])([H])OC([H])([H])C([H])([H])N([H])C(=O)N3C([H])([H])C([H])([H])C([H])([H])C([H])(n4nc(-c5c([H])c([H])c(Oc6c([H])c([H])c(F)c([H])c6F)c([H])c5[H])c(C(=O)N([H])[H])c4N([H])[H])C3([H])[H])c([H])c([H])c2C1([H])[H]

>  <smiles>  (68) 
[H]c1c([H])c([H])c2c(c1[H])C([H])([H])C([H])([H])C([H])([H])C2([H])N([H])C(=O)C1([H])N(C(=O)C([H])(N([H])C(=O)C([H])(N([H])C([H])([H])[H])C([H])([H])[H])C(C([H])([H])[H])(C([H])([H])[H])C([H])([H])[H])C([H])([H])c2c([H])c(OOC([H])([H])C([H])([H])OC([H])([H])C([H])([H])OC([H])([H])C([H])([H])OC([H])([H])C([H])([H])OC([H])([H])C([H])([H])OC([H])([H])C([H])([H])OC([H])([H])C([H])([H])OC([H])([H])C([H])([H])N([H])C(=O)N3C([H])([H])C([H])([H])C([H])([H])C([H])(n4nc(-c5c([H])c([H])c(Oc6c([H])c([H])c(F)c([H])c6F)c([H])c5[H])c(C(=O)N([H])[H])c4N([H])[H])C3([H])[H])c([H])c([H])c2C1([H])[H]

$$$$
85:0:0
     RDKit          3D

 97104  0  0  1  0  0  0  0  0999 V2000
  -25.2940  -24.1610   23.1570 N   0  0  0  0  0  4  0  0  0  0  0  0
  -25.1180  -23.4140   23.8140 H   0  0  0  0  0  0  0  0  0  0  0  0
  -24.5420  -24.1310   22.4860 H   0  0  0  0  0  0  0  0  0  0  0  0
  -25.2330  -25.4440   23.9010 C   0  0  0  0  0  2  0  0  0  0  0  0
  -25.2220  -26.6900   22.9900 C   0  0  0  0  0  2  0  0  0  0  0  0
  -26.4870  -26.9070   22.3650 O   0  0  0  0  0  0  0  0  0  0  0  0
  -26.4180  -26.9690   20.9450 C   0  0  0  0  0  2  0  0  0  0  0  0
  -27.7810  -27.3700   20.3630 C   0  0  0  0  0  2  0  0  0  0  0  0
  -27.5170  -27.9720   19.1040 O   0  0  0  0  0  0  0  0  0  0  0  0
  -27.4040  -29.4600   19.2850 O   0  0  0  0  0  0  0  0  0  0  0  0
  -25.3810  -29.8510   26.0800 C   0  0  0  0  0  0  0  0  0  0  0  0
  -26.4000  -29.7740   20.1640 C   0  0  0  0  0  0  0  0  0  0  0  0
  -23.5980  -30.2380   24.4060 C   0  0  0  0  0  3  0  0  0  0  0  0
  -24.3820  -30.5040   21.9920 C   0  0  0  0  0  0  0  0  0  0  0  0
  -26.0410  -30.7450   23.8540 C   0  0  0  0  0  2  0  0  0  0  0  0
  -25.7170  -30.4200   22.4140 C   0  0  0  0  0  0  0  0  0  0  0  0
  -26.7260  -30.0480   21.5060 C   0  0  0  0  0  3  0  0  0  0  0  0
  -25.0560  -29.8490   19.7450 C   0  0  0  0  0  3  0  0  0  0  0  0
  -24.0430  -30.2050   20.6600 C   0  0  0  0  0  3  0  0  0  0  0  0
  -23.3690  -30.9230   23.0320 C   0  0  0  0  0  2  0  0  0  0  0  0
  -25.0380  -30.2450   24.8210 N   0  0  0  0  0  0  0  0  0  0  0  0
  -24.5180  -29.5310   26.9080 O   0  0  0  0  0  0  0  0  0  0  0  0
  -22.9830  -28.8230   24.3550 C   0  0  0  0  0  0  0  0  0  0  0  0
  -21.8340  -28.6980   23.6700 N   0  0  0  0  0  0  0  0  0  0  0  0
  -23.5510  -27.8680   24.8910 O   0  0  0  0  0  0  0  0  0  0  0  0
  -21.4300  -29.5330   23.2720 H   0  0  0  0  0  0  0  0  0  0  0  0
  -19.4580  -27.0760   21.4850 C   0  0  0  0  0  0  0  0  0  0  0  0
  -21.0960  -27.4560   23.4500 C   0  0  0  0  0  3  0  0  0  0  0  0
  -21.9890  -26.3880   22.7780 C   0  0  0  0  0  2  0  0  0  0  0  0
  -21.8810  -26.3810   21.2520 C   0  0  0  0  0  2  0  0  0  0  0  0
  -20.4350  -26.1240   20.8150 C   0  0  0  0  0  2  0  0  0  0  0  0
  -19.7760  -27.7130   22.7130 C   0  0  0  0  0  0  0  0  0  0  0  0
  -18.8480  -28.6160   23.2760 C   0  0  0  0  0  3  0  0  0  0  0  0
  -17.6220  -28.8810   22.6360 C   0  0  0  0  0  3  0  0  0  0  0  0
  -17.3060  -28.2350   21.4280 C   0  0  0  0  0  3  0  0  0  0  0  0
  -18.2200  -27.3320   20.8580 C   0  0  0  0  0  3  0  0  0  0  0  0
  -26.8700  -29.8050   26.5460 C   0  0  0  0  0  3  0  0  0  0  0  0
  -27.6890  -28.6230   25.8990 C   0  0  1  0  0  0  0  0  0  0  0  0
  -26.9620  -27.2590   25.9710 C   0  0  0  0  0  1  0  0  0  0  0  0
  -27.9940  -28.9110   24.4100 C   0  0  0  0  0  1  0  0  0  0  0  0
  -29.0550  -28.4800   26.6130 C   0  0  0  0  0  1  0  0  0  0  0  0
  -26.8680  -29.6900   28.0110 N   0  0  0  0  0  0  0  0  0  0  0  0
  -27.2370  -30.6650   28.8510 C   0  0  0  0  0  0  0  0  0  0  0  0
  -27.6900  -31.7460   28.4640 O   0  0  0  0  0  0  0  0  0  0  0  0
  -26.4620  -28.8490   28.3970 H   0  0  0  0  0  0  0  0  0  0  0  0
  -25.7930  -31.0680   30.8700 C   0  0  0  0  0  1  0  0  0  0  0  0
  -27.0800  -30.4020   30.3610 C   0  0  0  0  0  3  0  0  0  0  0  0
  -29.4480  -30.0930   30.9350 C   0  0  0  0  0  1  0  0  0  0  0  0
  -28.2310  -30.8690   31.1630 N   0  0  0  0  0  0  0  0  0  0  0  0
  -28.0160  -30.8450   32.1570 H   0  0  0  0  0  0  0  0  0  0  0  0
  -26.5990  -23.8840   22.5060 C   0  0  0  0  0  2  0  0  0  0  0  0
  -26.4730  -23.7660   20.9720 C   0  0  0  0  0  2  0  0  0  0  0  0
  -27.7830  -24.0630   20.2170 C   0  0  0  0  0  2  0  0  0  0  0  0
  -27.5220  -24.3280   18.7210 C   0  0  0  0  0  2  0  0  0  0  0  0
  -28.7460  -24.7360   18.0000 N   0  0  0  0  0  4  0  0  0  0  0  0
  -29.4720  -24.0650   18.1920 H   0  0  0  0  0  0  0  0  0  0  0  0
  -29.0500  -25.6310   18.3450 H   0  0  0  0  0  0  0  0  0  0  0  0
  -28.5680  -24.8080   16.5390 C   0  0  0  0  0  2  0  0  0  0  0  0
  -29.8250  -25.3100   15.8100 C   0  0  0  0  0  2  0  0  0  0  0  0
  -29.5390  -26.6080   13.6900 C   0  0  0  0  0  0  0  0  0  0  0  0
  -28.7850  -27.6310   11.5770 C   0  0  0  0  0  2  0  0  0  0  0  0
  -27.4570  -28.3860   11.7780 C   0  0  0  0  0  2  0  0  0  0  0  0
  -26.2530  -27.4350   11.6350 C   0  0  0  0  0  2  0  0  0  0  0  0
  -26.4090  -26.1660   12.5110 C   0  0  0  0  0  3  0  0  0  0  0  0
  -27.7830  -25.5180   12.2540 C   0  0  0  0  0  2  0  0  0  0  0  0
  -28.8320  -26.5230   12.5380 N   0  0  0  0  0  0  0  0  0  0  0  0
  -30.1830  -27.6050   14.0390 O   0  0  0  0  0  0  0  0  0  0  0  0
  -29.5010  -25.4820   14.4050 N   0  0  0  0  0  0  0  0  0  0  0  0
  -29.0440  -24.7080   13.9450 H   0  0  0  0  0  0  0  0  0  0  0  0
  -24.2680  -24.8530   13.1120 C   0  0  0  0  0  0  0  0  0  0  0  0
  -23.4980  -23.9820   12.3850 C   0  0  0  0  0  0  0  0  0  0  0  0
  -24.1290  -23.8720   11.1080 C   0  0  0  0  0  0  0  0  0  0  0  0
  -25.3160  -25.2200   12.2770 N   0  0  0  0  0  0  0  0  0  0  0  0
  -25.2460  -24.5860   11.0810 N   0  0  0  0  0  0  0  0  0  0  0  0
  -23.7020  -23.1780    9.8870 C   0  0  0  0  0  0  0  0  0  0  0  0
  -24.5550  -22.2790    9.2100 C   0  0  0  0  0  3  0  0  0  0  0  0
  -24.1140  -21.6140    8.0460 C   0  0  0  0  0  3  0  0  0  0  0  0
  -22.8070  -21.8420    7.5510 C   0  0  0  0  0  0  0  0  0  0  0  0
  -21.9690  -22.7580    8.2140 C   0  0  0  0  0  3  0  0  0  0  0  0
  -22.4140  -23.4240    9.3700 C   0  0  0  0  0  3  0  0  0  0  0  0
  -22.3030  -21.2610    6.4120 O   0  0  0  0  0  0  0  0  0  0  0  0
  -22.7890  -20.0690    5.9350 C   0  0  0  0  0  0  0  0  0  0  0  0
  -22.7360  -18.8830    6.7000 C   0  0  0  0  0  3  0  0  0  0  0  0
  -23.1830  -17.6670    6.1470 C   0  0  0  0  0  3  0  0  0  0  0  0
  -23.6770  -17.6310    4.8300 C   0  0  0  0  0  0  0  0  0  0  0  0
  -23.7260  -18.8100    4.0640 C   0  0  0  0  0  3  0  0  0  0  0  0
  -23.2820  -20.0250    4.6150 C   0  0  0  0  0  0  0  0  0  0  0  0
  -23.3120  -21.1550    3.8670 F   0  0  0  0  0  0  0  0  0  0  0  0
  -24.1000  -16.4640    4.2950 F   0  0  0  0  0  0  0  0  0  0  0  0
  -22.1990  -23.3610   12.8120 C   0  0  0  0  0  0  0  0  0  0  0  0
  -21.9200  -22.1450   12.3520 N   0  0  0  0  0  0  0  0  0  0  0  0
  -21.4430  -23.9340   13.5970 O   0  0  0  0  0  0  0  0  0  0  0  0
  -22.5480  -21.6690   11.7190 H   0  0  0  0  0  0  0  0  0  0  0  0
  -21.0700  -21.6810   12.6360 H   0  0  0  0  0  0  0  0  0  0  0  0
  -24.1580  -25.3780   14.3940 N   0  0  0  0  0  0  0  0  0  0  0  0
  -23.3460  -25.2020   14.9790 H   0  0  0  0  0  0  0  0  0  0  0  0
  -24.7470  -26.1220   14.7430 H   0  0  0  0  0  0  0  0  0  0  0  0
  1  2  1  0
  1  4  1  0
  3  1  1  0
  5  4  1  0
  6  5  1  0
  7  6  1  0
  8  7  1  0
  9 10  1  0
  9  8  1  0
 10 12  1  0
 11 22  2  0
 12 17  1  0
 13 23  1  0
 13 21  1  0
 14 16  1  0
 14 20  1  0
 15 21  1  0
 16 15  1  0
 17 16  2  0
 18 12  2  0
 18 19  1  0
 19 14  2  0
 20 13  1  0
 21 11  1  0
 23 25  2  0
 24 23  1  0
 26 24  1  0
 27 32  1  0
 28 24  1  0
 29 28  1  0
 30 29  1  0
 31 30  1  0
 31 27  1  0
 32 33  2  0
 32 28  1  0
 34 33  1  0
 35 34  2  0
 36 35  1  0
 36 27  2  0
 37 11  1  0
 37 42  1  0
 38 39  1  6
 38 37  1  0
 38 41  1  0
 40 38  1  0
 42 45  1  0
 42 43  1  0
 43 47  1  0
 44 43  2  0
 47 46  1  0
 47 49  1  0
 48 49  1  0
 49 50  1  0
 51  1  1  0
 52 51  1  0
 53 52  1  0
 54 53  1  0
 55 56  1  0
 55 57  1  0
 55 54  1  0
 58 55  1  0
 59 58  1  0
 60 67  2  0
 60 68  1  0
 61 62  1  0
 61 66  1  0
 63 62  1  0
 64 63  1  0
 65 64  1  0
 65 66  1  0
 66 60  1  0
 68 59  1  0
 69 68  1  0
 70 95  1  0
 71 90  1  0
 71 70  2  0
 72 71  1  0
 73 64  1  0
 73 70  1  0
 74 72  2  0
 74 73  1  0
 75 72  1  0
 76 75  2  0
 77 76  1  0
 78 77  2  0
 78 79  1  0
 79 80  2  0
 80 75  1  0
 81 78  1  0
 82 81  1  0
 82 83  1  0
 84 83  2  0
 85 84  1  0
 86 87  1  0
 86 85  2  0
 87 82  2  0
 88 87  1  0
 89 85  1  0
 90 92  2  0
 91 94  1  0
 91 90  1  0
 93 91  1  0
 95 97  1  0
 95 96  1  0
M  ISO  4   9 101  10 101  60 100  68 100
M  END
>  <TORSDO>  (69) 
F 29

>  <SCORE>  (69) 
-1.883

>  <name>  (69) 
85

>  <ligand_id>  (69) 
85

>  <original_smiles>  (69) 
[H]c1c([H])c([H])c2c(c1[H])C([H])([H])C([H])([H])C([H])([H])C2([H])N([H])C(=O)C1([H])N(C(=O)C([H])(N([H])C(=O)C([H])(N([H])C([H])([H])[H])C([H])([H])[H])C(C([H])([H])[H])(C([H])([H])[H])C([H])([H])[H])C([H])([H])c2c([H])c(OOC([H])([H])C([H])([H])OC([H])([H])C([H])([H])[N+]([H])([H])C([H])([H])C([H])([H])C([H])([H])C([H])([H])[N+]([H])([H])C([H])([H])C([H])([H])N([H])C(=O)N3C([H])([H])C([H])([H])C([H])([H])C([H])(n4nc(-c5c([H])c([H])c(Oc6c([H])c([H])c(F)c([H])c6F)c([H])c5[H])c(C(=O)N([H])[H])c4N([H])[H])C3([H])[H])c([H])c([H])c2C1([H])[H]

>  <smiles>  (69) 
[H]c1c([H])c([H])c2c(c1[H])C([H])([H])C([H])([H])C([H])([H])C2([H])N([H])C(=O)C1([H])N(C(=O)C([H])(N([H])C(=O)C([H])(N([H])C([H])([H])[H])C([H])([H])[H])C(C([H])([H])[H])(C([H])([H])[H])C([H])([H])[H])C([H])([H])c2c([H])c(OOC([H])([H])C([H])([H])OC([H])([H])C([H])([H])[N+]([H])([H])C([H])([H])C([H])([H])C([H])([H])C([H])([H])[N+]([H])([H])C([H])([H])C([H])([H])N([H])C(=O)N3C([H])([H])C([H])([H])C([H])([H])C([H])(n4nc(-c5c([H])c([H])c(Oc6c([H])c([H])c(F)c([H])c6F)c([H])c5[H])c(C(=O)N([H])[H])c4N([H])[H])C3([H])[H])c([H])c([H])c2C1([H])[H]

$$$$
86:0:0
     RDKit          3D

115122  0  0  1  0  0  0  0  0999 V2000
  -29.8210  -20.7740   16.3650 C   0  0  0  0  0  0  0  0  0  0  0  0
  -28.9420  -20.5380   15.3860 N   0  0  0  0  0  0  0  0  0  0  0  0
  -30.6100  -19.9180   16.7740 O   0  0  0  0  0  0  0  0  0  0  0  0
  -28.3560  -21.3100   15.0920 H   0  0  0  0  0  0  0  0  0  0  0  0
  -29.8180  -22.1920   16.9470 C   0  0  0  0  0  2  0  0  0  0  0  0
  -31.0380  -22.4620   17.6300 O   0  0  0  0  0  0  0  0  0  0  0  0
  -31.2750  -23.8600   17.7360 C   0  0  0  0  0  2  0  0  0  0  0  0
  -32.7800  -24.1470   17.7380 C   0  0  0  0  0  2  0  0  0  0  0  0
  -33.3720  -23.6960   18.9500 O   0  0  0  0  0  0  0  0  0  0  0  0
  -34.7620  -23.4350   18.7870 C   0  0  0  0  0  2  0  0  0  0  0  0
  -35.4010  -23.0640   20.1300 C   0  0  0  0  0  2  0  0  0  0  0  0
  -34.6650  -21.9940   20.7060 O   0  0  0  0  0  0  0  0  0  0  0  0
  -35.2660  -21.4830   21.8900 C   0  0  0  0  0  2  0  0  0  0  0  0
  -34.2580  -20.5700   22.6000 C   0  0  0  0  0  2  0  0  0  0  0  0
  -34.0050  -19.4530   21.7590 O   0  0  0  0  0  0  0  0  0  0  0  0
  -32.9660  -18.6120   22.2380 C   0  0  0  0  0  2  0  0  0  0  0  0
  -32.8570  -17.4030   21.2980 C   0  0  0  0  0  2  0  0  0  0  0  0
  -32.0760  -16.3760   21.8980 O   0  0  0  0  0  0  0  0  0  0  0  0
  -32.0550  -15.1730   21.1320 C   0  0  0  0  0  2  0  0  0  0  0  0
  -30.9560  -15.2220   20.0640 C   0  0  0  0  0  2  0  0  0  0  0  0
  -31.2180  -16.2840   19.1590 O   0  0  0  0  0  0  0  0  0  0  0  0
  -30.5420  -16.1430   17.9190 C   0  0  0  0  0  2  0  0  0  0  0  0
  -30.1930  -17.5350   17.3900 C   0  0  0  0  0  2  0  0  0  0  0  0
  -28.5410  -18.8890   18.7270 C   0  0  0  0  0  0  0  0  0  0  0  0
  -26.3570  -18.7140   17.6800 C   0  0  0  0  0  2  0  0  0  0  0  0
  -26.3710  -19.7930   16.5970 C   0  0  0  0  0  2  0  0  0  0  0  0
  -25.5970  -20.9930   17.1480 C   0  0  0  0  0  2  0  0  0  0  0  0
  -26.0700  -21.4530   18.5580 C   0  0  0  0  0  3  0  0  0  0  0  0
  -26.4800  -20.2730   19.5110 C   0  0  0  0  0  2  0  0  0  0  0  0
  -27.2100  -19.2090   18.7640 N   0  0  0  0  0  0  0  0  0  0  0  0
  -29.4620  -19.3800   19.3290 O   0  0  0  0  0  0  0  0  0  0  0  0
  -28.8620  -17.9360   17.8370 N   0  0  0  0  0  0  0  0  0  0  0  0
  -28.0850  -17.5340   17.3330 H   0  0  0  0  0  0  0  0  0  0  0  0
  -25.1190  -23.1130   20.3030 C   0  0  0  0  0  0  0  0  0  0  0  0
  -24.0070  -23.9150   20.3110 C   0  0  0  0  0  0  0  0  0  0  0  0
  -23.3150  -23.6390   19.0940 C   0  0  0  0  0  0  0  0  0  0  0  0
  -25.0680  -22.3770   19.1280 N   0  0  0  0  0  0  0  0  0  0  0  0
  -23.9390  -22.6710   18.4250 N   0  0  0  0  0  0  0  0  0  0  0  0
  -22.1240  -24.2800   18.5070 C   0  0  0  0  0  0  0  0  0  0  0  0
  -20.9810  -23.5320   18.1540 C   0  0  0  0  0  3  0  0  0  0  0  0
  -19.8400  -24.1700   17.6190 C   0  0  0  0  0  3  0  0  0  0  0  0
  -19.8300  -25.5740   17.4360 C   0  0  0  0  0  0  0  0  0  0  0  0
  -20.9800  -26.3120   17.7680 C   0  0  0  0  0  3  0  0  0  0  0  0
  -22.1160  -25.6750   18.2960 C   0  0  0  0  0  3  0  0  0  0  0  0
  -18.7770  -26.2740   16.8970 O   0  0  0  0  0  0  0  0  0  0  0  0
  -17.4940  -25.7890   16.9340 C   0  0  0  0  0  0  0  0  0  0  0  0
  -16.9000  -25.3500   18.1380 C   0  0  0  0  0  3  0  0  0  0  0  0
  -15.5560  -24.9260   18.1480 C   0  0  0  0  0  3  0  0  0  0  0  0
  -14.8020  -24.9470   16.9590 C   0  0  0  0  0  0  0  0  0  0  0  0
  -15.3890  -25.3890   15.7610 C   0  0  0  0  0  3  0  0  0  0  0  0
  -16.7290  -25.8140   15.7500 C   0  0  0  0  0  0  0  0  0  0  0  0
  -17.2820  -26.2590   14.5960 F   0  0  0  0  0  0  0  0  0  0  0  0
  -13.5090  -24.5460   16.9700 F   0  0  0  0  0  0  0  0  0  0  0  0
  -23.6530  -24.9500   21.3440 C   0  0  0  0  0  0  0  0  0  0  0  0
  -22.3650  -25.2070   21.5400 N   0  0  0  0  0  0  0  0  0  0  0  0
  -24.5200  -25.5020   22.0210 O   0  0  0  0  0  0  0  0  0  0  0  0
  -21.6520  -24.7430   20.9970 H   0  0  0  0  0  0  0  0  0  0  0  0
  -22.0860  -25.8790   22.2410 H   0  0  0  0  0  0  0  0  0  0  0  0
  -26.1830  -22.9650   21.1870 N   0  0  0  0  0  0  0  0  0  0  0  0
  -26.2680  -23.5170   22.0340 H   0  0  0  0  0  0  0  0  0  0  0  0
  -26.9610  -22.3340   21.0400 H   0  0  0  0  0  0  0  0  0  0  0  0
  -28.8340  -19.3120   14.6030 C   0  0  0  0  0  2  0  0  0  0  0  0
  -29.9450  -19.2500   13.5440 C   0  0  0  0  0  2  0  0  0  0  0  0
  -29.9590  -20.4700   12.8120 O   0  0  0  0  0  0  0  0  0  0  0  0
  -31.0690  -20.5620   11.9230 C   0  0  0  0  0  2  0  0  0  0  0  0
  -31.0200  -21.9000   11.1730 C   0  0  0  0  0  2  0  0  0  0  0  0
  -31.2300  -22.9620   12.0920 O   0  0  0  0  0  0  0  0  0  0  0  0
  -31.0860  -24.2430   11.4930 C   0  0  0  0  0  2  0  0  0  0  0  0
  -31.2240  -25.3150   12.5820 C   0  0  0  0  0  2  0  0  0  0  0  0
  -30.1140  -25.1830   13.4580 O   0  0  0  0  0  0  0  0  0  0  0  0
  -30.1320  -26.0760   14.5600 C   0  0  0  0  0  2  0  0  0  0  0  0
  -29.0530  -25.5720   15.5210 C   0  0  0  0  0  2  0  0  0  0  0  0
  -29.0400  -26.2540   16.8920 C   0  0  0  0  0  2  0  0  0  0  0  0
  -28.1300  -25.5160   17.6890 O   0  0  0  0  0  0  0  0  0  0  0  0
  -28.0930  -26.1120   19.0640 O   0  0  0  0  0  0  0  0  0  0  0  0
  -24.6230  -30.9410   22.9620 C   0  0  0  0  0  0  0  0  0  0  0  0
  -26.9760  -26.9010   19.1960 C   0  0  0  0  0  0  0  0  0  0  0  0
  -23.3570  -29.9760   21.0670 C   0  0  0  0  0  3  0  0  0  0  0  0
  -24.7190  -28.5770   19.4280 C   0  0  0  0  0  0  0  0  0  0  0  0
  -25.9080  -30.1220   20.9930 C   0  0  0  0  0  2  0  0  0  0  0  0
  -25.8930  -28.8820   20.1260 C   0  0  0  0  0  0  0  0  0  0  0  0
  -27.0250  -28.0480   20.0150 C   0  0  0  0  0  3  0  0  0  0  0  0
  -25.7790  -26.5890   18.5150 C   0  0  0  0  0  3  0  0  0  0  0  0
  -24.6520  -27.4270   18.6230 C   0  0  0  0  0  3  0  0  0  0  0  0
  -23.5570  -29.5300   19.5930 C   0  0  0  0  0  2  0  0  0  0  0  0
  -24.6470  -30.3480   21.7360 N   0  0  0  0  0  0  0  0  0  0  0  0
  -23.5510  -31.2200   23.5180 O   0  0  0  0  0  0  0  0  0  0  0  0
  -22.5770  -28.8710   21.8140 C   0  0  0  0  0  0  0  0  0  0  0  0
  -21.2370  -28.9610   21.7800 N   0  0  0  0  0  0  0  0  0  0  0  0
  -23.1700  -27.9500   22.3790 O   0  0  0  0  0  0  0  0  0  0  0  0
  -20.8280  -29.7510   21.3010 H   0  0  0  0  0  0  0  0  0  0  0  0
  -17.7320  -28.3290   22.3720 C   0  0  0  0  0  0  0  0  0  0  0  0
  -20.2970  -28.0150   22.3770 C   0  0  0  0  0  3  0  0  0  0  0  0
  -20.0500  -26.8100   21.4420 C   0  0  0  0  0  2  0  0  0  0  0  0
  -18.8350  -26.9950   20.5260 C   0  0  0  0  0  2  0  0  0  0  0  0
  -17.5680  -27.2120   21.3550 C   0  0  0  0  0  2  0  0  0  0  0  0
  -19.0160  -28.7160   22.8390 C   0  0  0  0  0  0  0  0  0  0  0  0
  -19.1160  -29.7860   23.7560 C   0  0  0  0  0  3  0  0  0  0  0  0
  -17.9640  -30.4580   24.2090 C   0  0  0  0  0  3  0  0  0  0  0  0
  -16.6950  -30.0590   23.7540 C   0  0  0  0  0  3  0  0  0  0  0  0
  -16.5810  -28.9950   22.8410 C   0  0  0  0  0  3  0  0  0  0  0  0
  -25.9380  -31.3190   23.7130 C   0  0  0  0  0  3  0  0  0  0  0  0
  -25.7370  -32.6460   24.3120 N   0  0  0  0  0  0  0  0  0  0  0  0
  -26.1870  -33.7920   23.7850 C   0  0  0  0  0  0  0  0  0  0  0  0
  -26.8830  -33.8350   22.7670 O   0  0  0  0  0  0  0  0  0  0  0  0
  -25.1260  -32.6900   25.1140 H   0  0  0  0  0  0  0  0  0  0  0  0
  -24.6310  -35.7690   23.7580 C   0  0  0  0  0  1  0  0  0  0  0  0
  -25.8000  -35.1010   24.5000 C   0  0  0  0  0  3  0  0  0  0  0  0
  -27.9660  -35.6040   25.5440 C   0  0  0  0  0  1  0  0  0  0  0  0
  -26.9220  -36.0560   24.6270 N   0  0  0  0  0  0  0  0  0  0  0  0
  -26.5900  -36.9610   24.9480 H   0  0  0  0  0  0  0  0  0  0  0  0
  -26.3520  -30.2660   24.8120 C   0  0  1  0  0  0  0  0  0  0  0  0
  -25.2170  -29.9240   25.8050 C   0  0  0  0  0  1  0  0  0  0  0  0
  -26.8150  -28.9450   24.1520 C   0  0  0  0  0  1  0  0  0  0  0  0
  -27.5530  -30.8010   25.6280 C   0  0  0  0  0  1  0  0  0  0  0  0
  1  3  2  0
  1  5  1  0
  2  1  1  0
  4  2  1  0
  5  6  1  0
  6  7  1  0
  7  8  1  0
  8  9  1  0
 10  9  1  0
 10 11  1  0
 11 12  1  0
 12 13  1  0
 13 14  1  0
 15 16  1  0
 15 14  1  0
 17 18  1  0
 17 16  1  0
 19 18  1  0
 20 19  1  0
 21 20  1  0
 22 21  1  0
 23 32  1  0
 23 22  1  0
 24 30  1  0
 24 31  2  0
 25 30  1  0
 26 27  1  0
 26 25  1  0
 28 27  1  0
 28 37  1  0
 28 29  1  0
 30 29  1  0
 32 24  1  0
 33 32  1  0
 34 35  2  0
 34 59  1  0
 35 54  1  0
 36 35  1  0
 37 34  1  0
 38 36  2  0
 38 37  1  0
 39 36  1  0
 40 39  2  0
 41 40  1  0
 42 41  2  0
 42 43  1  0
 43 44  2  0
 44 39  1  0
 45 46  1  0
 45 42  1  0
 46 47  1  0
 47 48  2  0
 49 53  1  0
 49 48  1  0
 50 49  2  0
 51 50  1  0
 51 46  2  0
 52 51  1  0
 54 55  1  0
 54 56  2  0
 55 58  1  0
 57 55  1  0
 59 60  1  0
 61 59  1  0
 62  2  1  0
 63 62  1  0
 64 63  1  0
 65 64  1  0
 66 65  1  0
 66 67  1  0
 68 67  1  0
 68 69  1  0
 69 70  1  0
 70 71  1  0
 71 72  1  0
 72 73  1  0
 73 74  1  0
 74 75  1  0
 75 77  1  0
 76 87  2  0
 77 82  1  0
 78 86  1  0
 78 88  1  0
 79 85  1  0
 79 81  1  0
 80 86  1  0
 81 80  1  0
 82 81  2  0
 83 84  1  0
 83 77  2  0
 84 79  2  0
 85 78  1  0
 86 76  1  0
 88 90  2  0
 89 88  1  0
 91 89  1  0
 92 97  2  0
 92101  1  0
 93 89  1  0
 93 97  1  0
 94 93  1  0
 95 96  1  0
 95 94  1  0
 96 92  1  0
 97 98  1  0
 98 99  2  0
100 99  1  0
101100  2  0
102 76  1  0
102103  1  0
102112  1  0
103106  1  0
104103  1  0
104108  1  0
105104  2  0
108107  1  0
108110  1  0
110111  1  0
110109  1  0
112115  1  1
112113  1  0
114112  1  0
M  ISO  4  24 100  32 100  74 101  75 101
M  END
>  <TORSDO>  (70) 
F 48

>  <SCORE>  (70) 
-0.941

>  <name>  (70) 
86

>  <ligand_id>  (70) 
86

>  <original_smiles>  (70) 
[H]c1c([H])c([H])c2c(c1[H])C([H])([H])C([H])([H])C([H])([H])C2([H])N([H])C(=O)C1([H])N(C(=O)C([H])(N([H])C(=O)C([H])(N([H])C([H])([H])[H])C([H])([H])[H])C(C([H])([H])[H])(C([H])([H])[H])C([H])([H])[H])C([H])([H])c2c([H])c(OOC([H])([H])C([H])([H])C([H])([H])OC([H])([H])C([H])([H])OC([H])([H])C([H])([H])OC([H])([H])C([H])([H])N([H])C(=O)C([H])([H])OC([H])([H])C([H])([H])OC([H])([H])C([H])([H])OC([H])([H])C([H])([H])OC([H])([H])C([H])([H])OC([H])([H])C([H])([H])OC([H])([H])C([H])([H])N([H])C(=O)N3C([H])([H])C([H])([H])C([H])([H])C([H])(n4nc(-c5c([H])c([H])c(Oc6c([H])c([H])c(F)c([H])c6F)c([H])c5[H])c(C(=O)N([H])[H])c4N([H])[H])C3([H])[H])c([H])c([H])c2C1([H])[H]

>  <smiles>  (70) 
[H]c1c([H])c([H])c2c(c1[H])C([H])([H])C([H])([H])C([H])([H])C2([H])N([H])C(=O)C1([H])N(C(=O)C([H])(N([H])C(=O)C([H])(N([H])C([H])([H])[H])C([H])([H])[H])C(C([H])([H])[H])(C([H])([H])[H])C([H])([H])[H])C([H])([H])c2c([H])c(OOC([H])([H])C([H])([H])C([H])([H])OC([H])([H])C([H])([H])OC([H])([H])C([H])([H])OC([H])([H])C([H])([H])N([H])C(=O)C([H])([H])OC([H])([H])C([H])([H])OC([H])([H])C([H])([H])OC([H])([H])C([H])([H])OC([H])([H])C([H])([H])OC([H])([H])C([H])([H])OC([H])([H])C([H])([H])N([H])C(=O)N3C([H])([H])C([H])([H])C([H])([H])C([H])(n4nc(-c5c([H])c([H])c(Oc6c([H])c([H])c(F)c([H])c6F)c([H])c5[H])c(C(=O)N([H])[H])c4N([H])[H])C3([H])[H])c([H])c([H])c2C1([H])[H]

$$$$
87:0:0
     RDKit          3D

109117  0  0  1  0  0  0  0  0999 V2000
  -30.6140  -20.9400   21.8320 O   0  0  0  0  0  0  0  0  0  0  0  0
  -31.4260  -21.6270   22.7810 C   0  0  0  0  0  2  0  0  0  0  0  0
  -30.9820  -21.3540   24.2250 C   0  0  0  0  0  2  0  0  0  0  0  0
  -29.7330  -21.9880   24.4790 O   0  0  0  0  0  0  0  0  0  0  0  0
  -29.7770  -23.1130   25.3550 C   0  0  0  0  0  2  0  0  0  0  0  0
  -29.4990  -24.4030   24.5640 C   0  0  0  0  0  2  0  0  0  0  0  0
  -28.1990  -24.3150   23.9830 O   0  0  0  0  0  0  0  0  0  0  0  0
  -27.9650  -25.2600   22.9470 C   0  0  0  0  0  2  0  0  0  0  0  0
  -26.4860  -25.1660   22.5270 C   0  0  0  0  0  2  0  0  0  0  0  0
  -26.0380  -26.1760   21.4570 C   0  0  0  0  0  2  0  0  0  0  0  0
  -26.6230  -25.8420   20.2020 O   0  0  0  0  0  0  0  0  0  0  0  0
  -27.8080  -26.5670   19.9020 C   0  0  0  0  0  2  0  0  0  0  0  0
  -28.4950  -25.9660   18.6590 C   0  0  0  0  0  2  0  0  0  0  0  0
  -28.4850  -26.8480   17.5450 O   0  0  0  0  0  0  0  0  0  0  0  0
  -27.2530  -26.5890   16.7160 O   0  0  0  0  0  0  0  0  0  0  0  0
  -24.6640  -30.2860   22.1940 C   0  0  0  0  0  0  0  0  0  0  0  0
  -26.1820  -27.2280   17.2790 C   0  0  0  0  0  0  0  0  0  0  0  0
  -22.9900  -29.4290   20.5830 C   0  0  0  0  0  3  0  0  0  0  0  0
  -23.9340  -28.4990   18.4040 C   0  0  0  0  0  0  0  0  0  0  0  0
  -25.3720  -29.9690   19.8310 C   0  0  0  0  0  2  0  0  0  0  0  0
  -25.2260  -28.8820   18.7930 C   0  0  0  0  0  0  0  0  0  0  0  0
  -26.3530  -28.2580   18.2260 C   0  0  0  0  0  3  0  0  0  0  0  0
  -24.8820  -26.8410   16.8980 C   0  0  0  0  0  3  0  0  0  0  0  0
  -23.7550  -27.4770   17.4530 C   0  0  0  0  0  3  0  0  0  0  0  0
  -22.7850  -29.2360   19.0550 C   0  0  0  0  0  2  0  0  0  0  0  0
  -24.3750  -29.8890   20.9230 N   0  0  0  0  0  0  0  0  0  0  0  0
  -23.7860  -30.3190   23.0670 O   0  0  0  0  0  0  0  0  0  0  0  0
  -22.5840  -28.1230   21.3030 C   0  0  0  0  0  0  0  0  0  0  0  0
  -21.2750  -27.8290   21.3100 N   0  0  0  0  0  0  0  0  0  0  0  0
  -23.4360  -27.3920   21.8140 O   0  0  0  0  0  0  0  0  0  0  0  0
  -20.6380  -28.4900   20.8860 H   0  0  0  0  0  0  0  0  0  0  0  0
  -18.1630  -26.0200   21.6360 C   0  0  0  0  0  0  0  0  0  0  0  0
  -20.6620  -26.6340   21.8880 C   0  0  0  0  0  3  0  0  0  0  0  0
  -20.9470  -25.3890   21.0150 C   0  0  0  0  0  2  0  0  0  0  0  0
  -19.8430  -25.1140   19.9890 C   0  0  0  0  0  2  0  0  0  0  0  0
  -18.5070  -24.8790   20.6980 C   0  0  0  0  0  2  0  0  0  0  0  0
  -19.1730  -26.8560   22.1830 C   0  0  0  0  0  0  0  0  0  0  0  0
  -18.7900  -27.9330   23.0110 C   0  0  0  0  0  3  0  0  0  0  0  0
  -17.4330  -28.1760   23.2990 C   0  0  0  0  0  3  0  0  0  0  0  0
  -16.4420  -27.3350   22.7680 C   0  0  0  0  0  3  0  0  0  0  0  0
  -16.8070  -26.2570   21.9450 C   0  0  0  0  0  3  0  0  0  0  0  0
  -26.1000  -30.7420   22.6030 C   0  0  0  0  0  3  0  0  0  0  0  0
  -26.9200  -29.6150   23.3440 C   0  0  1  0  0  0  0  0  0  0  0  0
  -26.1610  -28.9790   24.5310 C   0  0  0  0  0  1  0  0  0  0  0  0
  -27.3040  -28.4840   22.3610 C   0  0  0  0  0  1  0  0  0  0  0  0
  -28.2450  -30.2000   23.8830 C   0  0  0  0  0  1  0  0  0  0  0  0
  -25.9630  -31.9310   23.4540 N   0  0  0  0  0  0  0  0  0  0  0  0
  -26.1780  -33.1890   23.0440 C   0  0  0  0  0  0  0  0  0  0  0  0
  -26.5880  -33.4640   21.9120 O   0  0  0  0  0  0  0  0  0  0  0  0
  -25.5810  -31.7820   24.3760 H   0  0  0  0  0  0  0  0  0  0  0  0
  -24.5280  -34.9570   23.7270 C   0  0  0  0  0  1  0  0  0  0  0  0
  -25.8890  -34.3210   24.0470 C   0  0  0  0  0  3  0  0  0  0  0  0
  -28.2080  -34.9030   24.6150 C   0  0  0  0  0  1  0  0  0  0  0  0
  -26.9350  -35.3680   24.0690 N   0  0  0  0  0  0  0  0  0  0  0  0
  -26.6300  -36.1700   24.6140 H   0  0  0  0  0  0  0  0  0  0  0  0
  -30.9280  -21.3250   20.4960 C   0  0  0  0  0  2  0  0  0  0  0  0
  -30.0600  -20.5940   19.4600 C   0  0  0  0  0  2  0  0  0  0  0  0
  -28.8020  -21.2470   19.2940 O   0  0  0  0  0  0  0  0  0  0  0  0
  -28.2860  -21.0670   17.9770 C   0  0  0  0  0  2  0  0  0  0  0  0
  -26.7920  -21.4200   17.9420 C   0  0  0  0  0  2  0  0  0  0  0  0
  -25.9670  -20.5560   18.8250 N   0  0  0  0  0  4  0  0  0  0  0  0
  -26.2980  -20.6440   19.7740 H   0  0  0  0  0  0  0  0  0  0  0  0
  -25.0240  -20.9090   18.8050 H   0  0  0  0  0  0  0  0  0  0  0  0
  -25.8800  -19.1170   18.4920 C   0  0  0  0  0  2  0  0  0  0  0  0
  -29.1050  -17.0190   18.5940 C   0  0  0  0  0  3  0  0  0  0  0  0
  -28.4250  -17.5290   20.8740 C   0  0  0  0  0  3  0  0  0  0  0  0
  -27.9810  -17.7130   18.1030 C   0  0  0  0  0  3  0  0  0  0  0  0
  -27.3080  -18.2320   20.3880 C   0  0  0  0  0  3  0  0  0  0  0  0
  -29.3450  -16.9430   19.9810 C   0  0  0  0  0  0  0  0  0  0  0  0
  -27.0840  -18.3380   19.0000 C   0  0  0  0  0  0  0  0  0  0  0  0
  -30.5800  -16.2340   20.5050 C   0  0  0  0  0  2  0  0  0  0  0  0
  -30.8770  -13.8400   19.9910 C   0  0  0  0  0  0  0  0  0  0  0  0
  -30.4570  -11.6490   18.9740 C   0  0  0  0  0  2  0  0  0  0  0  0
  -29.4800  -11.8400   17.7970 C   0  0  0  0  0  2  0  0  0  0  0  0
  -28.0230  -11.7400   18.2860 C   0  0  0  0  0  2  0  0  0  0  0  0
  -27.7540  -12.6620   19.5010 C   0  0  0  0  0  3  0  0  0  0  0  0
  -28.8370  -12.4840   20.5880 C   0  0  0  0  0  2  0  0  0  0  0  0
  -30.1620  -12.6880   19.9670 N   0  0  0  0  0  0  0  0  0  0  0  0
  -31.9130  -14.0170   19.3440 O   0  0  0  0  0  0  0  0  0  0  0  0
  -30.3130  -14.8180   20.7000 N   0  0  0  0  0  0  0  0  0  0  0  0
  -29.4940  -14.5840   21.2410 H   0  0  0  0  0  0  0  0  0  0  0  0
  -25.4110  -13.3720   20.2900 C   0  0  0  0  0  0  0  0  0  0  0  0
  -24.3430  -12.6450   20.7480 C   0  0  0  0  0  0  0  0  0  0  0  0
  -24.7630  -11.2800   20.7460 C   0  0  0  0  0  0  0  0  0  0  0  0
  -26.4180  -12.4490   20.0460 N   0  0  0  0  0  0  0  0  0  0  0  0
  -26.0320  -11.1880   20.3700 N   0  0  0  0  0  0  0  0  0  0  0  0
  -24.0140  -10.0470   21.0160 C   0  0  0  0  0  0  0  0  0  0  0  0
  -24.4570   -9.1200   21.9850 C   0  0  0  0  0  3  0  0  0  0  0  0
  -23.7160   -7.9490   22.2500 C   0  0  0  0  0  3  0  0  0  0  0  0
  -22.5140   -7.6980   21.5470 C   0  0  0  0  0  0  0  0  0  0  0  0
  -22.0900   -8.6120   20.5650 C   0  0  0  0  0  3  0  0  0  0  0  0
  -22.8320   -9.7740   20.2980 C   0  0  0  0  0  3  0  0  0  0  0  0
  -21.7390   -6.5780   21.7150 O   0  0  0  0  0  0  0  0  0  0  0  0
  -21.6890   -5.9090   22.9120 C   0  0  0  0  0  0  0  0  0  0  0  0
  -21.2610   -6.5390   24.1000 C   0  0  0  0  0  3  0  0  0  0  0  0
  -21.1620   -5.7930   25.2930 C   0  0  0  0  0  3  0  0  0  0  0  0
  -21.4750   -4.4230   25.2950 C   0  0  0  0  0  0  0  0  0  0  0  0
  -21.8930   -3.7930   24.1110 C   0  0  0  0  0  3  0  0  0  0  0  0
  -21.9990   -4.5330   22.9200 C   0  0  0  0  0  0  0  0  0  0  0  0
  -22.3820   -3.9160   21.7770 F   0  0  0  0  0  0  0  0  0  0  0  0
  -21.3690   -3.7060   26.4400 F   0  0  0  0  0  0  0  0  0  0  0  0
  -22.9780  -13.1720   21.0820 C   0  0  0  0  0  0  0  0  0  0  0  0
  -22.2850  -12.5250   22.0140 N   0  0  0  0  0  0  0  0  0  0  0  0
  -22.5340  -14.1870   20.5470 O   0  0  0  0  0  0  0  0  0  0  0  0
  -22.6620  -11.7120   22.4790 H   0  0  0  0  0  0  0  0  0  0  0  0
  -21.3640  -12.8480   22.2730 H   0  0  0  0  0  0  0  0  0  0  0  0
  -25.6020  -14.7270   20.0540 N   0  0  0  0  0  0  0  0  0  0  0  0
  -24.8500  -15.3990   20.1650 H   0  0  0  0  0  0  0  0  0  0  0  0
  -26.4580  -15.1480   19.7150 H   0  0  0  0  0  0  0  0  0  0  0  0
  1  2  1  0
  2  3  1  0
  3  4  1  0
  4  5  1  0
  6  5  1  0
  7  6  1  0
  8  7  1  0
  9  8  1  0
 10  9  1  0
 11 10  1  0
 12 11  1  0
 13 12  1  0
 14 13  1  0
 15 17  1  0
 15 14  1  0
 16 27  2  0
 17 22  1  0
 18 26  1  0
 18 28  1  0
 19 21  1  0
 19 25  1  0
 20 26  1  0
 21 20  1  0
 22 21  2  0
 23 17  2  0
 23 24  1  0
 24 19  2  0
 25 18  1  0
 26 16  1  0
 28 29  1  0
 28 30  2  0
 31 29  1  0
 32 41  2  0
 32 37  1  0
 33 29  1  0
 33 37  1  0
 34 33  1  0
 35 36  1  0
 35 34  1  0
 36 32  1  0
 37 38  2  0
 38 39  1  0
 40 39  2  0
 41 40  1  0
 42 16  1  0
 42 43  1  0
 42 47  1  0
 43 46  1  1
 43 44  1  0
 45 43  1  0
 47 50  1  0
 48 47  1  0
 48 52  1  0
 49 48  2  0
 52 51  1  0
 52 54  1  0
 54 55  1  0
 54 53  1  0
 56  1  1  0
 57 56  1  0
 58 57  1  0
 59 58  1  0
 60 59  1  0
 60 61  1  0
 61 62  1  0
 63 61  1  0
 64 61  1  0
 64 70  1  0
 65 69  1  0
 67 65  2  0
 67 70  1  0
 68 66  1  0
 69 71  1  0
 69 66  2  0
 70 68  2  0
 71 80  1  0
 72 80  1  0
 73 78  1  0
 74 75  1  0
 74 73  1  0
 76 75  1  0
 76 85  1  0
 76 77  1  0
 78 72  1  0
 78 77  1  0
 79 72  2  0
 80 81  1  0
 82 83  2  0
 83102  1  0
 84 83  1  0
 84 87  1  0
 85 82  1  0
 85 86  1  0
 86 84  2  0
 87 88  1  0
 88 89  2  0
 90 93  1  0
 90 89  1  0
 91 90  2  0
 92 91  1  0
 92 87  2  0
 93 94  1  0
 94 99  2  0
 94 95  1  0
 95 96  2  0
 96 97  1  0
 97101  1  0
 98 97  2  0
 99 98  1  0
100 99  1  0
102103  1  0
103106  1  0
103105  1  0
104102  2  0
107108  1  0
107 82  1  0
109107  1  0
M  ISO  4  14 101  15 101  72 100  80 100
M  END
>  <TORSDO>  (71) 
F 38

>  <SCORE>  (71) 
-4.144

>  <name>  (71) 
87

>  <ligand_id>  (71) 
87

>  <original_smiles>  (71) 
[H]c1c([H])c([H])c2c(c1[H])C([H])([H])C([H])([H])C([H])([H])C2([H])N([H])C(=O)C1([H])N(C(=O)C([H])(N([H])C(=O)C([H])(N([H])C([H])([H])[H])C([H])([H])[H])C(C([H])([H])[H])(C([H])([H])[H])C([H])([H])[H])C([H])([H])c2c([H])c(OOC([H])([H])C([H])([H])OC([H])([H])C([H])([H])C([H])([H])OC([H])([H])C([H])([H])OC([H])([H])C([H])([H])OC([H])([H])C([H])([H])OC([H])([H])C([H])([H])[N+]([H])([H])C([H])([H])c3c([H])c([H])c(C([H])([H])N([H])C(=O)N4C([H])([H])C([H])([H])C([H])([H])C([H])(n5nc(-c6c([H])c([H])c(Oc7c([H])c([H])c(F)c([H])c7F)c([H])c6[H])c(C(=O)N([H])[H])c5N([H])[H])C4([H])[H])c([H])c3[H])c([H])c([H])c2C1([H])[H]

>  <smiles>  (71) 
[H]c1c([H])c([H])c2c(c1[H])C([H])([H])C([H])([H])C([H])([H])C2([H])N([H])C(=O)C1([H])N(C(=O)C([H])(N([H])C(=O)C([H])(N([H])C([H])([H])[H])C([H])([H])[H])C(C([H])([H])[H])(C([H])([H])[H])C([H])([H])[H])C([H])([H])c2c([H])c(OOC([H])([H])C([H])([H])OC([H])([H])C([H])([H])C([H])([H])OC([H])([H])C([H])([H])OC([H])([H])C([H])([H])OC([H])([H])C([H])([H])OC([H])([H])C([H])([H])[N+]([H])([H])C([H])([H])c3c([H])c([H])c(C([H])([H])N([H])C(=O)N4C([H])([H])C([H])([H])C([H])([H])C([H])(n5nc(-c6c([H])c([H])c(Oc7c([H])c([H])c(F)c([H])c7F)c([H])c6[H])c(C(=O)N([H])[H])c5N([H])[H])C4([H])[H])c([H])c3[H])c([H])c([H])c2C1([H])[H]

$$$$
88:0:0
     RDKit          3D

105112  0  0  1  0  0  0  0  0999 V2000
  -28.2940  -21.9680   23.3030 O   0  0  0  0  0  0  0  0  0  0  0  0
  -29.6770  -21.6420   23.3630 C   0  0  0  0  0  2  0  0  0  0  0  0
  -30.1100  -21.1310   21.9890 C   0  0  0  0  0  2  0  0  0  0  0  0
  -29.8010  -22.0760   20.9790 O   0  0  0  0  0  0  0  0  0  0  0  0
  -30.4170  -21.7380   19.7490 C   0  0  0  0  0  2  0  0  0  0  0  0
  -29.8510  -22.6720   18.6890 C   0  0  0  0  0  2  0  0  0  0  0  0
  -30.6350  -22.5390   17.5120 O   0  0  0  0  0  0  0  0  0  0  0  0
  -29.9870  -23.0950   16.3810 C   0  0  0  0  0  2  0  0  0  0  0  0
  -31.0200  -23.4080   15.2790 C   0  0  0  0  0  2  0  0  0  0  0  0
  -31.5700  -22.2490   14.6500 O   0  0  0  0  0  0  0  0  0  0  0  0
  -30.6190  -21.4330   13.9630 C   0  0  0  0  0  2  0  0  0  0  0  0
  -30.7530  -19.9570   14.3730 C   0  0  0  0  0  2  0  0  0  0  0  0
  -30.7440  -19.8090   15.7950 O   0  0  0  0  0  0  0  0  0  0  0  0
  -30.8470  -18.4490   16.2190 C   0  0  0  0  0  2  0  0  0  0  0  0
  -31.4190  -18.2940   17.6390 C   0  0  0  0  0  2  0  0  0  0  0  0
  -33.6430  -19.2680   17.1560 C   0  0  0  0  0  0  0  0  0  0  0  0
  -35.4830  -18.0860   16.0370 C   0  0  0  0  0  2  0  0  0  0  0  0
  -34.9340  -16.9550   15.1580 C   0  0  0  0  0  2  0  0  0  0  0  0
  -34.7710  -15.6580   15.9690 C   0  0  0  0  0  2  0  0  0  0  0  0
  -34.0420  -15.8760   17.3150 C   0  0  0  0  0  3  0  0  0  0  0  0
  -34.5890  -17.1060   18.0740 C   0  0  0  0  0  2  0  0  0  0  0  0
  -34.5520  -18.2590   17.1590 N   0  0  0  0  0  0  0  0  0  0  0  0
  -33.7290  -20.2580   16.4330 O   0  0  0  0  0  0  0  0  0  0  0  0
  -32.5790  -19.1420   17.9550 N   0  0  0  0  0  0  0  0  0  0  0  0
  -32.2530  -20.0550   18.2240 H   0  0  0  0  0  0  0  0  0  0  0  0
  -32.9800  -13.8480   18.4920 C   0  0  0  0  0  0  0  0  0  0  0  0
  -33.5260  -12.8170   19.2130 C   0  0  0  0  0  0  0  0  0  0  0  0
  -34.9300  -13.0760   19.2540 C   0  0  0  0  0  0  0  0  0  0  0  0
  -34.0430  -14.6700   18.1390 N   0  0  0  0  0  0  0  0  0  0  0  0
  -35.2150  -14.2220   18.6490 N   0  0  0  0  0  0  0  0  0  0  0  0
  -36.0280  -12.2560   19.7830 C   0  0  0  0  0  0  0  0  0  0  0  0
  -36.9660  -12.7830   20.6940 C   0  0  0  0  0  3  0  0  0  0  0  0
  -38.0070  -11.9720   21.1990 C   0  0  0  0  0  3  0  0  0  0  0  0
  -38.1150  -10.6190   20.7980 C   0  0  0  0  0  0  0  0  0  0  0  0
  -37.1890  -10.1060   19.8680 C   0  0  0  0  0  3  0  0  0  0  0  0
  -36.1590  -10.9150   19.3640 C   0  0  0  0  0  3  0  0  0  0  0  0
  -39.1180   -9.7710   21.2100 O   0  0  0  0  0  0  0  0  0  0  0  0
  -39.7470   -9.9400   22.4200 C   0  0  0  0  0  0  0  0  0  0  0  0
  -39.0340   -9.9510   23.6350 C   0  0  0  0  0  3  0  0  0  0  0  0
  -39.7280  -10.0500   24.8610 C   0  0  0  0  0  3  0  0  0  0  0  0
  -41.1340  -10.1340   24.8690 C   0  0  0  0  0  0  0  0  0  0  0  0
  -41.8470  -10.1240   23.6580 C   0  0  0  0  0  3  0  0  0  0  0  0
  -41.1570  -10.0200   22.4360 C   0  0  0  0  0  0  0  0  0  0  0  0
  -41.8450   -9.9850   21.2720 F   0  0  0  0  0  0  0  0  0  0  0  0
  -41.8050  -10.2330   26.0420 F   0  0  0  0  0  0  0  0  0  0  0  0
  -32.7990  -11.6170   19.7480 C   0  0  0  0  0  0  0  0  0  0  0  0
  -33.2380  -11.0900   20.8920 N   0  0  0  0  0  0  0  0  0  0  0  0
  -31.8150  -11.1570   19.1770 O   0  0  0  0  0  0  0  0  0  0  0  0
  -34.0400  -11.4710   21.3730 H   0  0  0  0  0  0  0  0  0  0  0  0
  -32.7690  -10.2890   21.2850 H   0  0  0  0  0  0  0  0  0  0  0  0
  -31.6780  -14.1350   18.0990 N   0  0  0  0  0  0  0  0  0  0  0  0
  -30.9110  -13.5010   18.2980 H   0  0  0  0  0  0  0  0  0  0  0  0
  -31.4130  -14.9080   17.5080 H   0  0  0  0  0  0  0  0  0  0  0  0
  -27.9840  -23.1030   24.0920 C   0  0  0  0  0  2  0  0  0  0  0  0
  -26.5640  -23.5970   23.7580 C   0  0  0  0  0  2  0  0  0  0  0  0
  -26.4950  -24.9400   23.2800 O   0  0  0  0  0  0  0  0  0  0  0  0
  -26.9750  -25.1660   21.9500 C   0  0  0  0  0  2  0  0  0  0  0  0
  -28.0130  -26.3130   21.9430 C   0  0  0  0  0  0  0  0  0  0  0  0
  -29.0830  -26.3020   21.1340 N   0  0  0  0  0  0  0  0  0  0  0  0
  -27.8330  -27.2730   22.6930 O   0  0  0  0  0  0  0  0  0  0  0  0
  -29.6370  -27.1490   21.1250 H   0  0  0  0  0  0  0  0  0  0  0  0
  -29.5580  -25.2430   20.2470 C   0  0  0  0  0  2  0  0  0  0  0  0
  -31.0420  -25.4160   19.8650 C   0  0  0  0  0  2  0  0  0  0  0  0
  -31.5770  -26.8580   19.7280 C   0  0  0  0  0  2  0  0  0  0  0  0
  -30.8930  -27.5740   18.7130 O   0  0  0  0  0  0  0  0  0  0  0  0
  -26.3020  -30.4680   23.3410 C   0  0  0  0  0  0  0  0  0  0  0  0
  -29.6090  -27.9450   19.0150 C   0  0  0  0  0  0  0  0  0  0  0  0
  -25.3100  -29.4320   21.3250 C   0  0  0  0  0  3  0  0  0  0  0  0
  -26.9610  -28.7730   19.5010 C   0  0  0  0  0  0  0  0  0  0  0  0
  -27.6850  -30.3790   21.2750 C   0  0  0  0  0  2  0  0  0  0  0  0
  -28.0150  -29.3290   20.2390 C   0  0  0  0  0  0  0  0  0  0  0  0
  -29.3450  -28.9140   20.0040 C   0  0  0  0  0  3  0  0  0  0  0  0
  -28.5460  -27.3990   18.2750 C   0  0  0  0  0  3  0  0  0  0  0  0
  -27.2200  -27.7950   18.5250 C   0  0  0  0  0  3  0  0  0  0  0  0
  -25.5670  -29.2690   19.8040 C   0  0  0  0  0  2  0  0  0  0  0  0
  -26.4510  -30.0900   22.0410 N   0  0  0  0  0  0  0  0  0  0  0  0
  -25.2270  -30.3110   23.9360 O   0  0  0  0  0  0  0  0  0  0  0  0
  -24.9490  -28.0450   21.8970 C   0  0  0  0  0  0  0  0  0  0  0  0
  -23.7580  -27.5410   21.5320 N   0  0  0  0  0  0  0  0  0  0  0  0
  -25.7380  -27.4340   22.6240 O   0  0  0  0  0  0  0  0  0  0  0  0
  -23.1640  -28.1060   20.9400 H   0  0  0  0  0  0  0  0  0  0  0  0
  -20.9680  -25.2980   21.0780 C   0  0  0  0  0  0  0  0  0  0  0  0
  -23.2250  -26.2330   21.9130 C   0  0  0  0  0  3  0  0  0  0  0  0
  -23.8880  -25.1030   21.0890 C   0  0  0  0  0  2  0  0  0  0  0  0
  -23.0950  -24.7300   19.8320 C   0  0  0  0  0  2  0  0  0  0  0  0
  -21.6780  -24.2850   20.1940 C   0  0  0  0  0  2  0  0  0  0  0  0
  -21.6940  -26.2190   21.8760 C   0  0  0  0  0  0  0  0  0  0  0  0
  -20.9880  -27.1600   22.6550 C   0  0  0  0  0  3  0  0  0  0  0  0
  -19.5800  -27.1860   22.6500 C   0  0  0  0  0  3  0  0  0  0  0  0
  -18.8640  -26.2620   21.8700 C   0  0  0  0  0  3  0  0  0  0  0  0
  -19.5580  -25.3190   21.0890 C   0  0  0  0  0  3  0  0  0  0  0  0
  -27.4680  -31.1350   24.1390 C   0  0  0  0  0  3  0  0  0  0  0  0
  -28.0920  -30.1870   25.2350 C   0  0  1  0  0  0  0  0  0  0  0  0
  -27.0400  -29.5450   26.1700 C   0  0  0  0  0  1  0  0  0  0  0  0
  -28.9010  -29.0440   24.5750 C   0  0  0  0  0  1  0  0  0  0  0  0
  -29.0830  -30.9850   26.1160 C   0  0  0  0  0  1  0  0  0  0  0  0
  -26.9400  -32.3610   24.7490 N   0  0  0  0  0  0  0  0  0  0  0  0
  -27.1360  -33.5960   24.2670 C   0  0  0  0  0  0  0  0  0  0  0  0
  -27.8530  -33.8260   23.2880 O   0  0  0  0  0  0  0  0  0  0  0  0
  -26.2990  -32.2430   25.5200 H   0  0  0  0  0  0  0  0  0  0  0  0
  -25.1690  -35.1600   24.2010 C   0  0  0  0  0  1  0  0  0  0  0  0
  -26.4280  -34.7600   24.9850 C   0  0  0  0  0  3  0  0  0  0  0  0
  -28.3740  -35.7200   26.1330 C   0  0  0  0  0  1  0  0  0  0  0  0
  -27.2910  -35.9450   25.1790 N   0  0  0  0  0  0  0  0  0  0  0  0
  -26.7450  -36.7380   25.5040 H   0  0  0  0  0  0  0  0  0  0  0  0
  1  2  1  0
  1 54  1  0
  3  2  1  0
  4  3  1  0
  5  4  1  0
  6  5  1  0
  7  6  1  0
  8  7  1  0
  9  8  1  0
 10  9  1  0
 11 12  1  0
 11 10  1  0
 12 13  1  0
 13 14  1  0
 14 15  1  0
 15 24  1  0
 16 22  1  0
 16 24  1  0
 17 22  1  0
 18 19  1  0
 18 17  1  0
 20 19  1  0
 20 21  1  0
 20 29  1  0
 22 21  1  0
 23 16  2  0
 24 25  1  0
 26 27  2  0
 27 28  1  0
 27 46  1  0
 28 31  1  0
 29 26  1  0
 29 30  1  0
 30 28  2  0
 31 32  1  0
 32 33  2  0
 34 33  1  0
 34 37  1  0
 35 34  2  0
 36 31  2  0
 36 35  1  0
 37 38  1  0
 38 43  2  0
 38 39  1  0
 39 40  2  0
 40 41  1  0
 41 45  1  0
 42 41  2  0
 43 42  1  0
 44 43  1  0
 46 47  1  0
 47 50  1  0
 47 49  1  0
 48 46  2  0
 51 52  1  0
 51 26  1  0
 53 51  1  0
 55 54  1  0
 56 55  1  0
 57 56  1  0
 58 57  1  0
 58 60  2  0
 59 58  1  0
 61 59  1  0
 62 59  1  0
 63 62  1  0
 64 63  1  0
 65 67  1  0
 65 64  1  0
 66 77  2  0
 67 72  1  0
 68 78  1  0
 68 76  1  0
 69 75  1  0
 69 71  1  0
 70 76  1  0
 71 70  1  0
 72 71  2  0
 73 74  1  0
 73 67  2  0
 74 69  2  0
 75 68  1  0
 76 66  1  0
 78 80  2  0
 79 78  1  0
 81 79  1  0
 82 91  2  0
 82 87  1  0
 83 79  1  0
 84 83  1  0
 85 86  1  0
 85 84  1  0
 86 82  1  0
 87 83  1  0
 87 88  2  0
 89 88  1  0
 90 89  2  0
 91 90  1  0
 92 66  1  0
 92 97  1  0
 92 93  1  0
 93 96  1  1
 93 94  1  0
 95 93  1  0
 97100  1  0
 98 97  1  0
 98102  1  0
 99 98  2  0
102101  1  0
102104  1  0
104105  1  0
104103  1  0
M  ISO  4  16 100  24 100  64 101  65 101
M  END
>  <TORSDO>  (72) 
F 38

>  <SCORE>  (72) 
4.579

>  <name>  (72) 
88

>  <ligand_id>  (72) 
88

>  <original_smiles>  (72) 
[H]c1c([H])c([H])c2c(c1[H])C([H])([H])C([H])([H])C([H])([H])C2([H])N([H])C(=O)C1([H])N(C(=O)C([H])(N([H])C(=O)C([H])(N([H])C([H])([H])[H])C([H])([H])[H])C(C([H])([H])[H])(C([H])([H])[H])C([H])([H])[H])C([H])([H])c2c([H])c(OC([H])([H])C([H])([H])C([H])([H])N([H])C(=O)C([H])([H])OC([H])([H])C([H])([H])OC([H])([H])C([H])([H])OC([H])([H])C([H])([H])OC([H])([H])C([H])([H])OC([H])([H])C([H])([H])OC([H])([H])C([H])([H])N([H])C(=O)N3C([H])([H])C([H])([H])C([H])([H])C([H])(n4nc(-c5c([H])c([H])c(Oc6c([H])c([H])c(F)c([H])c6F)c([H])c5[H])c(C(=O)N([H])[H])c4N([H])[H])C3([H])[H])c([H])c([H])c2C1([H])[H]

>  <smiles>  (72) 
[H]c1c([H])c([H])c2c(c1[H])C([H])([H])C([H])([H])C([H])([H])C2([H])N([H])C(=O)C1([H])N(C(=O)C([H])(N([H])C(=O)C([H])(N([H])C([H])([H])[H])C([H])([H])[H])C(C([H])([H])[H])(C([H])([H])[H])C([H])([H])[H])C([H])([H])c2c([H])c(OC([H])([H])C([H])([H])C([H])([H])N([H])C(=O)C([H])([H])OC([H])([H])C([H])([H])OC([H])([H])C([H])([H])OC([H])([H])C([H])([H])OC([H])([H])C([H])([H])OC([H])([H])C([H])([H])OC([H])([H])C([H])([H])N([H])C(=O)N3C([H])([H])C([H])([H])C([H])([H])C([H])(n4nc(-c5c([H])c([H])c(Oc6c([H])c([H])c(F)c([H])c6F)c([H])c5[H])c(C(=O)N([H])[H])c4N([H])[H])C3([H])[H])c([H])c([H])c2C1([H])[H]

$$$$
89:0:0
     RDKit          3D

115122  0  0  1  0  0  0  0  0999 V2000
  -29.0290  -20.6850   22.9080 C   0  0  0  0  0  2  0  0  0  0  0  0
  -28.5690  -19.3850   22.3230 N   0  0  0  0  0  4  0  0  0  0  0  0
  -29.2030  -18.6300   22.5290 H   0  0  0  0  0  0  0  0  0  0  0  0
  -27.7270  -19.1690   22.8370 H   0  0  0  0  0  0  0  0  0  0  0  0
  -28.1050  -19.4350   20.9040 C   0  0  0  0  0  2  0  0  0  0  0  0
  -29.1550  -19.1450   19.7960 C   0  0  0  0  0  2  0  0  0  0  0  0
  -28.8290  -19.7880   18.5580 O   0  0  0  0  0  0  0  0  0  0  0  0
  -28.9830  -21.2210   18.4670 C   0  0  0  0  0  2  0  0  0  0  0  0
  -30.3830  -21.6720   18.8960 C   0  0  0  0  0  0  0  0  0  0  0  0
  -30.4350  -22.4390   19.9890 N   0  0  0  0  0  0  0  0  0  0  0  0
  -31.3760  -21.2430   18.3020 O   0  0  0  0  0  0  0  0  0  0  0  0
  -29.5470  -22.7610   20.3600 H   0  0  0  0  0  0  0  0  0  0  0  0
  -31.6350  -22.9240   20.6690 C   0  0  0  0  0  2  0  0  0  0  0  0
  -31.9190  -24.3920   20.3200 C   0  0  0  0  0  2  0  0  0  0  0  0
  -30.7400  -25.1510   20.5570 O   0  0  0  0  0  0  0  0  0  0  0  0
  -30.8180  -26.4410   19.9720 C   0  0  0  0  0  2  0  0  0  0  0  0
  -29.6340  -27.3210   20.3940 C   0  0  0  0  0  2  0  0  0  0  0  0
  -28.4060  -26.7300   19.9800 O   0  0  0  0  0  0  0  0  0  0  0  0
  -24.6070  -31.8720   23.2130 C   0  0  0  0  0  0  0  0  0  0  0  0
  -27.2610  -27.4910   20.0790 C   0  0  0  0  0  0  0  0  0  0  0  0
  -23.3910  -30.4930   21.5520 C   0  0  0  0  0  3  0  0  0  0  0  0
  -24.8420  -28.9580   20.1230 C   0  0  0  0  0  0  0  0  0  0  0  0
  -25.9100  -30.8550   21.3530 C   0  0  0  0  0  2  0  0  0  0  0  0
  -25.9950  -29.4880   20.7120 C   0  0  0  0  0  0  0  0  0  0  0  0
  -27.2030  -28.7620   20.6990 C   0  0  0  0  0  3  0  0  0  0  0  0
  -26.0860  -26.9630   19.5050 C   0  0  0  0  0  3  0  0  0  0  0  0
  -24.8780  -27.6860   19.5260 C   0  0  0  0  0  3  0  0  0  0  0  0
  -23.5990  -29.8160   20.1690 C   0  0  0  0  0  2  0  0  0  0  0  0
  -24.6540  -31.0870   22.0990 N   0  0  0  0  0  0  0  0  0  0  0  0
  -23.5290  -32.1450   23.7580 O   0  0  0  0  0  0  0  0  0  0  0  0
  -22.7370  -29.4670   22.5040 C   0  0  0  0  0  0  0  0  0  0  0  0
  -21.4080  -29.3020   22.3760 N   0  0  0  0  0  0  0  0  0  0  0  0
  -23.4160  -28.8230   23.3060 O   0  0  0  0  0  0  0  0  0  0  0  0
  -20.9240  -29.8730   21.6980 H   0  0  0  0  0  0  0  0  0  0  0  0
  -18.0280  -28.1370   22.8500 C   0  0  0  0  0  0  0  0  0  0  0  0
  -20.5840  -28.3640   23.1350 C   0  0  0  0  0  3  0  0  0  0  0  0
  -20.6750  -26.9390   22.5430 C   0  0  0  0  0  2  0  0  0  0  0  0
  -19.5740  -26.6390   21.5210 C   0  0  0  0  0  2  0  0  0  0  0  0
  -18.1910  -26.7920   22.1620 C   0  0  0  0  0  2  0  0  0  0  0  0
  -19.1500  -28.8820   23.2920 C   0  0  0  0  0  0  0  0  0  0  0  0
  -18.9450  -30.1440   23.8930 C   0  0  0  0  0  3  0  0  0  0  0  0
  -17.6440  -30.6580   24.0570 C   0  0  0  0  0  3  0  0  0  0  0  0
  -16.5350  -29.9090   23.6330 C   0  0  0  0  0  3  0  0  0  0  0  0
  -16.7240  -28.6510   23.0340 C   0  0  0  0  0  3  0  0  0  0  0  0
  -25.8990  -32.4850   23.8410 C   0  0  0  0  0  3  0  0  0  0  0  0
  -25.5870  -33.8650   24.2340 N   0  0  0  0  0  0  0  0  0  0  0  0
  -25.9020  -34.9490   23.5140 C   0  0  0  0  0  0  0  0  0  0  0  0
  -26.5590  -34.8930   22.4700 O   0  0  0  0  0  0  0  0  0  0  0  0
  -25.0020  -33.9810   25.0480 H   0  0  0  0  0  0  0  0  0  0  0  0
  -24.1490  -36.7330   23.2640 C   0  0  0  0  0  1  0  0  0  0  0  0
  -25.4110  -36.3120   24.0340 C   0  0  0  0  0  3  0  0  0  0  0  0
  -27.5590  -37.1810   24.8460 C   0  0  0  0  0  1  0  0  0  0  0  0
  -26.4300  -37.3800   23.9410 N   0  0  0  0  0  0  0  0  0  0  0  0
  -26.0190  -38.2880   24.1410 H   0  0  0  0  0  0  0  0  0  0  0  0
  -26.4450  -31.6600   25.0700 C   0  0  1  0  0  0  0  0  0  0  0  0
  -25.3760  -31.3690   26.1470 C   0  0  0  0  0  1  0  0  0  0  0  0
  -27.0270  -30.3060   24.6010 C   0  0  0  0  0  1  0  0  0  0  0  0
  -27.6050  -32.4300   25.7440 C   0  0  0  0  0  1  0  0  0  0  0  0
  -29.2230  -20.6540   24.4480 C   0  0  0  0  0  2  0  0  0  0  0  0
  -30.5830  -20.3530   24.8280 O   0  0  0  0  0  0  0  0  0  0  0  0
  -31.0140  -20.9410   26.0740 C   0  0  0  0  0  2  0  0  0  0  0  0
  -32.0180  -20.0910   26.9100 C   0  0  0  0  0  2  0  0  0  0  0  0
  -33.3710  -20.2800   26.4980 O   0  0  0  0  0  0  0  0  0  0  0  0
  -34.2760  -19.2650   26.9370 C   0  0  0  0  0  2  0  0  0  0  0  0
  -35.1160  -18.6510   25.7810 C   0  0  0  0  0  2  0  0  0  0  0  0
  -34.6870  -18.7870   24.4230 O   0  0  0  0  0  0  0  0  0  0  0  0
  -33.3110  -18.6800   24.0840 C   0  0  0  0  0  2  0  0  0  0  0  0
  -32.6120  -17.3550   24.4040 C   0  0  0  0  0  2  0  0  0  0  0  0
  -32.8380  -16.8020   25.6970 O   0  0  0  0  0  0  0  0  0  0  0  0
  -32.1000  -15.6010   25.9710 C   0  0  0  0  0  2  0  0  0  0  0  0
  -32.4020  -14.4730   24.9440 C   0  0  0  0  0  2  0  0  0  0  0  0
  -33.8120  -14.4470   24.7080 O   0  0  0  0  0  0  0  0  0  0  0  0
  -34.2240  -13.8780   23.4620 C   0  0  0  0  0  2  0  0  0  0  0  0
  -34.6780  -14.9670   22.4610 C   0  0  0  0  0  2  0  0  0  0  0  0
  -33.5950  -15.1010   21.5450 O   0  0  0  0  0  0  0  0  0  0  0  0
  -33.1590  -16.3990   21.1540 C   0  0  0  0  0  2  0  0  0  0  0  0
  -31.5890  -16.5120   21.3120 C   0  0  0  0  0  2  0  0  0  0  0  0
  -30.8860  -14.3480   20.4800 C   0  0  0  0  0  0  0  0  0  0  0  0
  -30.3940  -12.2030   19.4950 C   0  0  0  0  0  2  0  0  0  0  0  0
  -29.4890  -12.4300   18.2680 C   0  0  0  0  0  2  0  0  0  0  0  0
  -28.0180  -12.2930   18.6830 C   0  0  0  0  0  2  0  0  0  0  0  0
  -27.6720  -13.2100   19.8840 C   0  0  0  0  0  3  0  0  0  0  0  0
  -28.7180  -13.1180   21.0360 C   0  0  0  0  0  2  0  0  0  0  0  0
  -30.0930  -13.2460   20.4880 N   0  0  0  0  0  0  0  0  0  0  0  0
  -31.7090  -14.5330   19.5840 O   0  0  0  0  0  0  0  0  0  0  0  0
  -30.8230  -15.2420   21.4540 N   0  0  0  0  0  0  0  0  0  0  0  0
  -30.2070  -15.0570   22.2400 H   0  0  0  0  0  0  0  0  0  0  0  0
  -25.2650  -13.8330   20.5730 C   0  0  0  0  0  0  0  0  0  0  0  0
  -24.1800  -13.0520   20.9220 C   0  0  0  0  0  0  0  0  0  0  0  0
  -24.6350  -11.6980   20.8820 C   0  0  0  0  0  0  0  0  0  0  0  0
  -26.3080  -12.9390   20.3520 N   0  0  0  0  0  0  0  0  0  0  0  0
  -25.9290  -11.6550   20.5930 N   0  0  0  0  0  0  0  0  0  0  0  0
  -23.9000  -10.4330   21.0420 C   0  0  0  0  0  0  0  0  0  0  0  0
  -24.3580   -9.4210   21.9170 C   0  0  0  0  0  3  0  0  0  0  0  0
  -23.6270   -8.2280   22.0750 C   0  0  0  0  0  3  0  0  0  0  0  0
  -22.4300   -8.0280   21.3530 C   0  0  0  0  0  0  0  0  0  0  0  0
  -21.9880   -9.0260   20.4630 C   0  0  0  0  0  3  0  0  0  0  0  0
  -22.7250  -10.2130   20.3050 C   0  0  0  0  0  3  0  0  0  0  0  0
  -21.6630   -6.8850   21.4240 O   0  0  0  0  0  0  0  0  0  0  0  0
  -21.6840   -6.0740   22.5280 C   0  0  0  0  0  0  0  0  0  0  0  0
  -21.4030   -6.5660   23.8220 C   0  0  0  0  0  3  0  0  0  0  0  0
  -21.3680   -5.6810   24.9190 C   0  0  0  0  0  3  0  0  0  0  0  0
  -21.6010   -4.3080   24.7250 C   0  0  0  0  0  0  0  0  0  0  0  0
  -21.8830   -3.8140   23.4350 C   0  0  0  0  0  3  0  0  0  0  0  0
  -21.9190   -4.6960   22.3420 C   0  0  0  0  0  0  0  0  0  0  0  0
  -22.1630   -4.2190   21.0980 F   0  0  0  0  0  0  0  0  0  0  0  0
  -21.5650   -3.4520   25.7730 F   0  0  0  0  0  0  0  0  0  0  0  0
  -22.7820  -13.5320   21.1950 C   0  0  0  0  0  0  0  0  0  0  0  0
  -22.0430  -12.8190   22.0460 N   0  0  0  0  0  0  0  0  0  0  0  0
  -22.3460  -14.5540   20.6770 O   0  0  0  0  0  0  0  0  0  0  0  0
  -22.3990  -11.9810   22.4790 H   0  0  0  0  0  0  0  0  0  0  0  0
  -21.1080  -13.1290   22.2710 H   0  0  0  0  0  0  0  0  0  0  0  0
  -25.4420  -15.2020   20.4130 N   0  0  0  0  0  0  0  0  0  0  0  0
  -24.7000  -15.8860   20.5680 H   0  0  0  0  0  0  0  0  0  0  0  0
  -26.3110  -15.6170   20.1070 H   0  0  0  0  0  0  0  0  0  0  0  0
  1 59  1  0
  2  3  1  0
  2  4  1  0
  2  1  1  0
  5  2  1  0
  6  5  1  0
  7  6  1  0
  8  7  1  0
  8  9  1  0
  9 10  1  0
 10 12  1  0
 10 13  1  0
 11  9  2  0
 14 15  1  0
 14 13  1  0
 16 17  1  0
 16 15  1  0
 18 20  1  0
 18 17  1  0
 19 30  2  0
 20 25  1  0
 21 29  1  0
 21 31  1  0
 22 28  1  0
 22 24  1  0
 23 29  1  0
 24 23  1  0
 25 24  2  0
 26 27  1  0
 26 20  2  0
 27 22  2  0
 28 21  1  0
 29 19  1  0
 31 33  2  0
 32 31  1  0
 34 32  1  0
 35 44  2  0
 35 40  1  0
 36 32  1  0
 36 40  1  0
 37 36  1  0
 38 39  1  0
 38 37  1  0
 39 35  1  0
 40 41  2  0
 41 42  1  0
 43 42  2  0
 44 43  1  0
 45 19  1  0
 45 46  1  0
 45 55  1  0
 46 49  1  0
 47 51  1  0
 47 46  1  0
 48 47  2  0
 51 50  1  0
 53 51  1  0
 53 54  1  0
 53 52  1  0
 55 58  1  1
 55 56  1  0
 57 55  1  0
 59 60  1  0
 60 61  1  0
 61 62  1  0
 63 62  1  0
 63 64  1  0
 65 64  1  0
 66 65  1  0
 67 68  1  0
 67 66  1  0
 68 69  1  0
 69 70  1  0
 71 70  1  0
 72 71  1  0
 73 72  1  0
 74 73  1  0
 75 74  1  0
 76 77  1  0
 76 75  1  0
 77 86  1  0
 78 84  1  0
 78 86  1  0
 79 84  1  0
 80 81  1  0
 80 79  1  0
 82 81  1  0
 82 91  1  0
 82 83  1  0
 84 83  1  0
 85 78  2  0
 86 87  1  0
 88 89  2  0
 89108  1  0
 90 89  1  0
 90 93  1  0
 91 88  1  0
 91 92  1  0
 92 90  2  0
 93 94  1  0
 94 95  2  0
 96 99  1  0
 96 95  1  0
 97 96  2  0
 98 97  1  0
 98 93  2  0
 99100  1  0
100101  1  0
101102  2  0
103102  1  0
103107  1  0
104103  2  0
105100  2  0
105104  1  0
106105  1  0
108109  1  0
109112  1  0
109111  1  0
110108  2  0
113114  1  0
113 88  1  0
115113  1  0
M  ISO  4  17 101  18 101  78 100  86 100
M  END
>  <TORSDO>  (73) 
F 46

>  <SCORE>  (73) 
46.921

>  <name>  (73) 
89

>  <ligand_id>  (73) 
89

>  <original_smiles>  (73) 
[H]c1c([H])c([H])c2c(c1[H])C([H])([H])C([H])([H])C([H])([H])C2([H])N([H])C(=O)C1([H])N(C(=O)C([H])(N([H])C(=O)C([H])(N([H])C([H])([H])[H])C([H])([H])[H])C(C([H])([H])[H])(C([H])([H])[H])C([H])([H])[H])C([H])([H])c2c([H])c(OC([H])([H])C([H])([H])OC([H])([H])C([H])([H])N([H])C(=O)C([H])([H])OC([H])([H])C([H])([H])[N+]([H])([H])C([H])([H])C([H])([H])OC([H])([H])C([H])([H])OC([H])([H])C([H])([H])OC([H])([H])C([H])([H])OC([H])([H])C([H])([H])OC([H])([H])C([H])([H])OC([H])([H])C([H])([H])N([H])C(=O)N3C([H])([H])C([H])([H])C([H])([H])C([H])(n4nc(-c5c([H])c([H])c(Oc6c([H])c([H])c(F)c([H])c6F)c([H])c5[H])c(C(=O)N([H])[H])c4N([H])[H])C3([H])[H])c([H])c([H])c2C1([H])[H]

>  <smiles>  (73) 
[H]c1c([H])c([H])c2c(c1[H])C([H])([H])C([H])([H])C([H])([H])C2([H])N([H])C(=O)C1([H])N(C(=O)C([H])(N([H])C(=O)C([H])(N([H])C([H])([H])[H])C([H])([H])[H])C(C([H])([H])[H])(C([H])([H])[H])C([H])([H])[H])C([H])([H])c2c([H])c(OC([H])([H])C([H])([H])OC([H])([H])C([H])([H])N([H])C(=O)C([H])([H])OC([H])([H])C([H])([H])[N+]([H])([H])C([H])([H])C([H])([H])OC([H])([H])C([H])([H])OC([H])([H])C([H])([H])OC([H])([H])C([H])([H])OC([H])([H])C([H])([H])OC([H])([H])C([H])([H])OC([H])([H])C([H])([H])N([H])C(=O)N3C([H])([H])C([H])([H])C([H])([H])C([H])(n4nc(-c5c([H])c([H])c(Oc6c([H])c([H])c(F)c([H])c6F)c([H])c5[H])c(C(=O)N([H])[H])c4N([H])[H])C3([H])[H])c([H])c([H])c2C1([H])[H]

$$$$
90:0:0
     RDKit          3D

105112  0  0  1  0  0  0  0  0999 V2000
  -30.8500  -18.9140   20.7170 C   0  0  0  0  0  2  0  0  0  0  0  0
  -30.4010  -20.0290   19.7660 C   0  0  0  0  0  0  0  0  0  0  0  0
  -31.1510  -20.2190   18.6740 N   0  0  0  0  0  0  0  0  0  0  0  0
  -29.4210  -20.7270   20.0390 O   0  0  0  0  0  0  0  0  0  0  0  0
  -31.9130  -19.5720   18.5190 H   0  0  0  0  0  0  0  0  0  0  0  0
  -30.9650  -21.2810   17.6890 C   0  0  0  0  0  2  0  0  0  0  0  0
  -31.7030  -22.5820   18.0750 C   0  0  0  0  0  2  0  0  0  0  0  0
  -31.1760  -23.2420   19.3660 C   0  0  0  0  0  2  0  0  0  0  0  0
  -31.6430  -24.5740   19.5670 O   0  0  0  0  0  0  0  0  0  0  0  0
  -31.1490  -25.5840   18.6850 C   0  0  0  0  0  2  0  0  0  0  0  0
  -29.6170  -25.5980   18.5260 C   0  0  0  0  0  2  0  0  0  0  0  0
  -28.9560  -25.5890   19.7880 O   0  0  0  0  0  0  0  0  0  0  0  0
  -29.0110  -26.9740   20.3730 O   0  0  0  0  0  0  0  0  0  0  0  0
  -24.6150  -31.8030   23.2140 C   0  0  0  0  0  0  0  0  0  0  0  0
  -27.7810  -27.5890   20.3150 C   0  0  0  0  0  0  0  0  0  0  0  0
  -23.6520  -30.3930   21.4240 C   0  0  0  0  0  3  0  0  0  0  0  0
  -25.3150  -28.9610   20.1310 C   0  0  0  0  0  0  0  0  0  0  0  0
  -26.1620  -30.8740   21.4990 C   0  0  0  0  0  2  0  0  0  0  0  0
  -26.3780  -29.5240   20.8480 C   0  0  0  0  0  0  0  0  0  0  0  0
  -27.6100  -28.8420   20.9450 C   0  0  0  0  0  3  0  0  0  0  0  0
  -26.6910  -27.0280   19.6090 C   0  0  0  0  0  3  0  0  0  0  0  0
  -25.4630  -27.7070   19.5160 C   0  0  0  0  0  3  0  0  0  0  0  0
  -24.0350  -29.7610   20.0600 C   0  0  0  0  0  2  0  0  0  0  0  0
  -24.8210  -31.0370   22.1070 N   0  0  0  0  0  0  0  0  0  0  0  0
  -23.4720  -32.0140   23.6450 O   0  0  0  0  0  0  0  0  0  0  0  0
  -22.9510  -29.3200   22.2860 C   0  0  0  0  0  0  0  0  0  0  0  0
  -21.6220  -29.2050   22.1330 N   0  0  0  0  0  0  0  0  0  0  0  0
  -23.6000  -28.5990   23.0490 O   0  0  0  0  0  0  0  0  0  0  0  0
  -21.1640  -29.8410   21.4960 H   0  0  0  0  0  0  0  0  0  0  0  0
  -18.1860  -28.1760   22.5660 C   0  0  0  0  0  0  0  0  0  0  0  0
  -20.7580  -28.2390   22.8100 C   0  0  0  0  0  3  0  0  0  0  0  0
  -20.7600  -26.8790   22.0760 C   0  0  0  0  0  2  0  0  0  0  0  0
  -19.6260  -26.7440   21.0560 C   0  0  0  0  0  2  0  0  0  0  0  0
  -18.2650  -26.9020   21.7420 C   0  0  0  0  0  2  0  0  0  0  0  0
  -19.3580  -28.8130   23.0540 C   0  0  0  0  0  0  0  0  0  0  0  0
  -19.2320  -30.0150   23.7840 C   0  0  0  0  0  3  0  0  0  0  0  0
  -17.9660  -30.5760   24.0320 C   0  0  0  0  0  3  0  0  0  0  0  0
  -16.8090  -29.9340   23.5610 C   0  0  0  0  0  3  0  0  0  0  0  0
  -16.9180  -28.7350   22.8330 C   0  0  0  0  0  3  0  0  0  0  0  0
  -25.8020  -32.4720   23.9790 C   0  0  0  0  0  3  0  0  0  0  0  0
  -26.1530  -31.7470   25.3360 C   0  0  1  0  0  0  0  0  0  0  0  0
  -24.9200  -31.4480   26.2190 C   0  0  0  0  0  1  0  0  0  0  0  0
  -26.8740  -30.4060   25.0660 C   0  0  0  0  0  1  0  0  0  0  0  0
  -27.1290  -32.6170   26.1610 C   0  0  0  0  0  1  0  0  0  0  0  0
  -25.4420  -33.8750   24.2150 N   0  0  0  0  0  0  0  0  0  0  0  0
  -25.8490  -34.9030   23.4590 C   0  0  0  0  0  0  0  0  0  0  0  0
  -26.6380  -34.7720   22.5190 O   0  0  0  0  0  0  0  0  0  0  0  0
  -24.7590  -34.0480   24.9380 H   0  0  0  0  0  0  0  0  0  0  0  0
  -24.1400  -36.6410   22.8410 C   0  0  0  0  0  1  0  0  0  0  0  0
  -25.2930  -36.2990   23.7990 C   0  0  0  0  0  3  0  0  0  0  0  0
  -27.3230  -37.2480   24.7990 C   0  0  0  0  0  1  0  0  0  0  0  0
  -26.3130  -37.3690   23.7500 N   0  0  0  0  0  0  0  0  0  0  0  0
  -25.8790  -38.2830   23.8350 H   0  0  0  0  0  0  0  0  0  0  0  0
  -31.0220  -19.4010   22.0560 O   0  0  0  0  0  0  0  0  0  0  0  0
  -32.0820  -20.3310   22.2700 C   0  0  0  0  0  2  0  0  0  0  0  0
  -33.4800  -19.6900   22.1280 C   0  0  0  0  0  2  0  0  0  0  0  0
  -34.3570  -20.5580   21.4120 O   0  0  0  0  0  0  0  0  0  0  0  0
  -34.2220  -20.5020   19.9920 C   0  0  0  0  0  2  0  0  0  0  0  0
  -34.9380  -19.2580   19.4320 C   0  0  0  0  0  2  0  0  0  0  0  0
  -34.7190  -19.0460   18.0360 O   0  0  0  0  0  0  0  0  0  0  0  0
  -33.4400  -18.5350   17.6490 C   0  0  0  0  0  2  0  0  0  0  0  0
  -33.3360  -16.9990   17.6600 C   0  0  0  0  0  2  0  0  0  0  0  0
  -32.6040  -16.5720   18.7980 O   0  0  0  0  0  0  0  0  0  0  0  0
  -32.1480  -15.2290   18.6950 C   0  0  0  0  0  2  0  0  0  0  0  0
  -31.2470  -14.9100   19.8960 C   0  0  0  0  0  2  0  0  0  0  0  0
  -30.2180  -15.8870   19.9630 O   0  0  0  0  0  0  0  0  0  0  0  0
  -28.9150  -15.3530   20.1540 C   0  0  0  0  0  2  0  0  0  0  0  0
  -27.9700  -16.5110   20.5260 C   0  0  0  0  0  2  0  0  0  0  0  0
  -27.4930  -17.3290   19.4590 O   0  0  0  0  0  0  0  0  0  0  0  0
  -28.2430  -17.7920   18.4350 C   0  0  0  0  0  0  0  0  0  0  0  0
  -27.9050  -19.2480   16.4440 C   0  0  0  0  0  2  0  0  0  0  0  0
  -28.5990  -20.6140   16.5350 C   0  0  0  0  0  2  0  0  0  0  0  0
  -27.7090  -21.6310   17.2730 C   0  0  0  0  0  2  0  0  0  0  0  0
  -27.1880  -21.0860   18.6270 C   0  0  0  0  0  3  0  0  0  0  0  0
  -26.5550  -19.6880   18.4490 C   0  0  0  0  0  2  0  0  0  0  0  0
  -27.5490  -18.8210   17.7960 N   0  0  0  0  0  0  0  0  0  0  0  0
  -29.3040  -17.3050   18.0400 O   0  0  0  0  0  0  0  0  0  0  0  0
  -26.3430  -22.6690   20.4780 C   0  0  0  0  0  0  0  0  0  0  0  0
  -25.2470  -23.4910   20.5450 C   0  0  0  0  0  0  0  0  0  0  0  0
  -24.5430  -23.3080   19.3160 C   0  0  0  0  0  0  0  0  0  0  0  0
  -26.2580  -22.0240   19.2520 N   0  0  0  0  0  0  0  0  0  0  0  0
  -25.1390  -22.3840   18.5750 N   0  0  0  0  0  0  0  0  0  0  0  0
  -23.3660  -24.0010   18.7770 C   0  0  0  0  0  0  0  0  0  0  0  0
  -22.2240  -23.2880   18.3520 C   0  0  0  0  0  3  0  0  0  0  0  0
  -21.0960  -23.9750   17.8530 C   0  0  0  0  0  3  0  0  0  0  0  0
  -21.1010  -25.3880   17.7800 C   0  0  0  0  0  0  0  0  0  0  0  0
  -22.2510  -26.0910   18.1830 C   0  0  0  0  0  3  0  0  0  0  0  0
  -23.3730  -25.4050   18.6740 C   0  0  0  0  0  3  0  0  0  0  0  0
  -20.0610  -26.1390   17.2870 O   0  0  0  0  0  0  0  0  0  0  0  0
  -18.7720  -25.6660   17.2780 C   0  0  0  0  0  0  0  0  0  0  0  0
  -18.1370  -25.2150   18.4560 C   0  0  0  0  0  3  0  0  0  0  0  0
  -16.7900  -24.8030   18.4160 C   0  0  0  0  0  3  0  0  0  0  0  0
  -16.0740  -24.8520   17.2040 C   0  0  0  0  0  0  0  0  0  0  0  0
  -16.7030  -25.3050   16.0320 C   0  0  0  0  0  3  0  0  0  0  0  0
  -18.0500  -25.7140   16.0700 C   0  0  0  0  0  0  0  0  0  0  0  0
  -18.6450  -26.1710   14.9420 F   0  0  0  0  0  0  0  0  0  0  0  0
  -14.7790  -24.4640   17.1650 F   0  0  0  0  0  0  0  0  0  0  0  0
  -24.9240  -24.4610   21.6430 C   0  0  0  0  0  0  0  0  0  0  0  0
  -23.6380  -24.6690   21.9150 N   0  0  0  0  0  0  0  0  0  0  0  0
  -25.8090  -25.0040   22.2990 O   0  0  0  0  0  0  0  0  0  0  0  0
  -22.9110  -24.2080   21.3870 H   0  0  0  0  0  0  0  0  0  0  0  0
  -23.3770  -25.2980   22.6590 H   0  0  0  0  0  0  0  0  0  0  0  0
  -27.4050  -22.4300   21.3420 N   0  0  0  0  0  0  0  0  0  0  0  0
  -27.5120  -22.9240   22.2220 H   0  0  0  0  0  0  0  0  0  0  0  0
  -28.1700  -21.7960   21.1460 H   0  0  0  0  0  0  0  0  0  0  0  0
  1 54  1  0
  2  4  2  0
  2  1  1  0
  3  2  1  0
  5  3  1  0
  6  7  1  0
  6  3  1  0
  7  8  1  0
  8  9  1  0
 10  9  1  0
 11 10  1  0
 11 12  1  0
 12 13  1  0
 14 25  2  0
 15 13  1  0
 15 20  1  0
 16 24  1  0
 16 26  1  0
 17 19  1  0
 18 24  1  0
 19 20  2  0
 19 18  1  0
 21 15  2  0
 22 21  1  0
 22 17  2  0
 23 17  1  0
 23 16  1  0
 24 14  1  0
 26 28  2  0
 27 26  1  0
 29 27  1  0
 30 39  2  0
 30 35  1  0
 31 27  1  0
 31 35  1  0
 32 31  1  0
 33 34  1  0
 33 32  1  0
 34 30  1  0
 35 36  2  0
 36 37  1  0
 38 37  2  0
 39 38  1  0
 40 14  1  0
 40 45  1  0
 40 41  1  0
 41 44  1  1
 41 42  1  0
 43 41  1  0
 45 48  1  0
 46 50  1  0
 46 45  1  0
 47 46  2  0
 50 49  1  0
 52 50  1  0
 52 53  1  0
 52 51  1  0
 54 55  1  0
 56 55  1  0
 57 56  1  0
 58 57  1  0
 59 58  1  0
 60 59  1  0
 61 62  1  0
 61 60  1  0
 62 63  1  0
 64 63  1  0
 64 65  1  0
 65 66  1  0
 66 67  1  0
 67 68  1  0
 69 68  1  0
 70 69  1  0
 71 72  1  0
 71 76  1  0
 72 73  1  0
 74 73  1  0
 74 81  1  0
 75 74  1  0
 76 70  1  0
 76 75  1  0
 77 70  2  0
 78 79  2  0
 78103  1  0
 79 98  1  0
 80 79  1  0
 81 78  1  0
 82 81  1  0
 82 80  2  0
 83 80  1  0
 84 83  2  0
 85 84  1  0
 86 85  2  0
 86 87  1  0
 87 88  2  0
 88 83  1  0
 89 86  1  0
 90 89  1  0
 90 91  1  0
 92 91  2  0
 93 92  1  0
 94 95  1  0
 94 93  2  0
 95 90  2  0
 96 95  1  0
 97 93  1  0
 98 99  1  0
 98100  2  0
 99102  1  0
101 99  1  0
103104  1  0
105103  1  0
M  ISO  4  12 101  13 101  69 100  70 100
M  END
>  <TORSDO>  (74) 
F 40

>  <SCORE>  (74) 
-6.147

>  <name>  (74) 
90

>  <ligand_id>  (74) 
90

>  <original_smiles>  (74) 
[H]c1c([H])c([H])c2c(c1[H])C([H])([H])C([H])([H])C([H])([H])C2([H])N([H])C(=O)C1([H])N(C(=O)C([H])(N([H])C(=O)C([H])(N([H])C([H])([H])[H])C([H])([H])[H])C(C([H])([H])[H])(C([H])([H])[H])C([H])([H])[H])C([H])([H])c2c([H])c(OOC([H])([H])C([H])([H])OC([H])([H])C([H])([H])C([H])([H])N([H])C(=O)C([H])([H])OC([H])([H])C([H])([H])OC([H])([H])C([H])([H])OC([H])([H])C([H])([H])OC([H])([H])C([H])([H])OC([H])([H])C([H])([H])OC(=O)N3C([H])([H])C([H])([H])C([H])([H])C([H])(n4nc(-c5c([H])c([H])c(Oc6c([H])c([H])c(F)c([H])c6F)c([H])c5[H])c(C(=O)N([H])[H])c4N([H])[H])C3([H])[H])c([H])c([H])c2C1([H])[H]

>  <smiles>  (74) 
[H]c1c([H])c([H])c2c(c1[H])C([H])([H])C([H])([H])C([H])([H])C2([H])N([H])C(=O)C1([H])N(C(=O)C([H])(N([H])C(=O)C([H])(N([H])C([H])([H])[H])C([H])([H])[H])C(C([H])([H])[H])(C([H])([H])[H])C([H])([H])[H])C([H])([H])c2c([H])c(OOC([H])([H])C([H])([H])OC([H])([H])C([H])([H])C([H])([H])N([H])C(=O)C([H])([H])OC([H])([H])C([H])([H])OC([H])([H])C([H])([H])OC([H])([H])C([H])([H])OC([H])([H])C([H])([H])OC([H])([H])C([H])([H])OC(=O)N3C([H])([H])C([H])([H])C([H])([H])C([H])(n4nc(-c5c([H])c([H])c(Oc6c([H])c([H])c(F)c([H])c6F)c([H])c5[H])c(C(=O)N([H])[H])c4N([H])[H])C3([H])[H])c([H])c([H])c2C1([H])[H]

$$$$
91:0:0
     RDKit          3D

120127  0  0  1  0  0  0  0  0999 V2000
  -32.7570  -20.9690   20.3390 C   0  0  0  0  0  2  0  0  0  0  0  0
  -31.4480  -21.4540   20.6350 O   0  0  0  0  0  0  0  0  0  0  0  0
  -31.4030  -22.7120   21.3140 C   0  0  0  0  0  2  0  0  0  0  0  0
  -31.7710  -23.8810   20.3870 C   0  0  0  0  0  0  0  0  0  0  0  0
  -31.5100  -23.7500   19.0800 N   0  0  0  0  0  0  0  0  0  0  0  0
  -32.2770  -24.8960   20.8640 O   0  0  0  0  0  0  0  0  0  0  0  0
  -31.1000  -22.8710   18.7800 H   0  0  0  0  0  0  0  0  0  0  0  0
  -31.6890  -24.7990   18.0740 C   0  0  0  0  0  2  0  0  0  0  0  0
  -33.0700  -24.7600   17.3840 C   0  0  0  0  0  2  0  0  0  0  0  0
  -34.2510  -25.2360   18.2460 C   0  0  0  0  0  2  0  0  0  0  0  0
  -34.1160  -26.6220   18.5280 O   0  0  0  0  0  0  0  0  0  0  0  0
  -34.9330  -27.0480   19.6130 C   0  0  0  0  0  2  0  0  0  0  0  0
  -34.7070  -28.5400   19.8860 C   0  0  0  0  0  2  0  0  0  0  0  0
  -33.3050  -28.7800   19.9000 O   0  0  0  0  0  0  0  0  0  0  0  0
  -32.8780  -29.7280   20.8640 C   0  0  0  0  0  2  0  0  0  0  0  0
  -31.3970  -30.0690   20.6120 C   0  0  0  0  0  2  0  0  0  0  0  0
  -30.4810  -29.1140   21.1480 O   0  0  0  0  0  0  0  0  0  0  0  0
  -30.5500  -27.8170   20.5610 C   0  0  0  0  0  2  0  0  0  0  0  0
  -29.4020  -26.9270   21.0720 C   0  0  0  0  0  2  0  0  0  0  0  0
  -28.4010  -26.7140   20.0730 O   0  0  0  0  0  0  0  0  0  0  0  0
  -24.6090  -31.8710   23.2110 C   0  0  0  0  0  0  0  0  0  0  0  0
  -27.2620  -27.4850   20.1090 C   0  0  0  0  0  0  0  0  0  0  0  0
  -23.3950  -30.4890   21.5480 C   0  0  0  0  0  3  0  0  0  0  0  0
  -24.8490  -28.9570   20.1180 C   0  0  0  0  0  0  0  0  0  0  0  0
  -25.9170  -30.8540   21.3560 C   0  0  0  0  0  2  0  0  0  0  0  0
  -25.9990  -29.4920   20.7080 C   0  0  0  0  0  0  0  0  0  0  0  0
  -27.2050  -28.7680   20.7010 C   0  0  0  0  0  3  0  0  0  0  0  0
  -26.0970  -26.9570   19.5130 C   0  0  0  0  0  3  0  0  0  0  0  0
  -24.8880  -27.6830   19.5220 C   0  0  0  0  0  3  0  0  0  0  0  0
  -23.6020  -29.8080   20.1670 C   0  0  0  0  0  2  0  0  0  0  0  0
  -24.6570  -31.0870   22.0960 N   0  0  0  0  0  0  0  0  0  0  0  0
  -23.5300  -32.1440   23.7540 O   0  0  0  0  0  0  0  0  0  0  0  0
  -22.7370  -29.4680   22.5020 C   0  0  0  0  0  0  0  0  0  0  0  0
  -21.4110  -29.3020   22.3750 N   0  0  0  0  0  0  0  0  0  0  0  0
  -23.4170  -28.8240   23.3060 O   0  0  0  0  0  0  0  0  0  0  0  0
  -20.9250  -29.8710   21.6960 H   0  0  0  0  0  0  0  0  0  0  0  0
  -18.0280  -28.1350   22.8480 C   0  0  0  0  0  0  0  0  0  0  0  0
  -20.5860  -28.3630   23.1330 C   0  0  0  0  0  3  0  0  0  0  0  0
  -20.6780  -26.9380   22.5400 C   0  0  0  0  0  2  0  0  0  0  0  0
  -19.5770  -26.6380   21.5170 C   0  0  0  0  0  2  0  0  0  0  0  0
  -18.1950  -26.7910   22.1590 C   0  0  0  0  0  2  0  0  0  0  0  0
  -19.1520  -28.8810   23.2910 C   0  0  0  0  0  0  0  0  0  0  0  0
  -18.9430  -30.1420   23.8900 C   0  0  0  0  0  3  0  0  0  0  0  0
  -17.6430  -30.6550   24.0530 C   0  0  0  0  0  3  0  0  0  0  0  0
  -16.5330  -29.9030   23.6320 C   0  0  0  0  0  3  0  0  0  0  0  0
  -16.7270  -28.6450   23.0340 C   0  0  0  0  0  3  0  0  0  0  0  0
  -25.9020  -32.4810   23.8400 C   0  0  0  0  0  3  0  0  0  0  0  0
  -25.5930  -33.8590   24.2360 N   0  0  0  0  0  0  0  0  0  0  0  0
  -25.9020  -34.9440   23.5140 C   0  0  0  0  0  0  0  0  0  0  0  0
  -26.5530  -34.8900   22.4660 O   0  0  0  0  0  0  0  0  0  0  0  0
  -25.0220  -33.9760   25.0600 H   0  0  0  0  0  0  0  0  0  0  0  0
  -24.1520  -36.7280   23.2640 C   0  0  0  0  0  1  0  0  0  0  0  0
  -25.4120  -36.3060   24.0360 C   0  0  0  0  0  3  0  0  0  0  0  0
  -27.5590  -37.1800   24.8490 C   0  0  0  0  0  1  0  0  0  0  0  0
  -26.4300  -37.3740   23.9420 N   0  0  0  0  0  0  0  0  0  0  0  0
  -26.0180  -38.2820   24.1350 H   0  0  0  0  0  0  0  0  0  0  0  0
  -26.4490  -31.6550   25.0680 C   0  0  1  0  0  0  0  0  0  0  0  0
  -25.3800  -31.3570   26.1440 C   0  0  0  0  0  1  0  0  0  0  0  0
  -27.0310  -30.3010   24.5970 C   0  0  0  0  0  1  0  0  0  0  0  0
  -27.6100  -32.4230   25.7420 C   0  0  0  0  0  1  0  0  0  0  0  0
  -32.6320  -19.6620   19.5420 C   0  0  0  0  0  2  0  0  0  0  0  0
  -31.7180  -19.7890   18.4560 O   0  0  0  0  0  0  0  0  0  0  0  0
  -32.2670  -20.3750   17.2800 C   0  0  0  0  0  2  0  0  0  0  0  0
  -31.1100  -20.7710   16.3550 C   0  0  0  0  0  2  0  0  0  0  0  0
  -30.2470  -21.6400   17.0760 O   0  0  0  0  0  0  0  0  0  0  0  0
  -29.3720  -22.3610   16.2240 C   0  0  0  0  0  2  0  0  0  0  0  0
  -28.1920  -22.9000   17.0430 C   0  0  0  0  0  2  0  0  0  0  0  0
  -27.2520  -21.8520   17.2400 O   0  0  0  0  0  0  0  0  0  0  0  0
  -27.4320  -21.1060   18.4420 C   0  0  0  0  0  2  0  0  0  0  0  0
  -27.1880  -19.6080   18.1720 C   0  0  0  0  0  2  0  0  0  0  0  0
  -25.9830  -19.3430   17.4460 O   0  0  0  0  0  0  0  0  0  0  0  0
  -24.7680  -19.5540   18.1570 C   0  0  0  0  0  2  0  0  0  0  0  0
  -24.4860  -18.4350   19.1820 C   0  0  0  0  0  2  0  0  0  0  0  0
  -23.4690  -18.8040   20.1070 O   0  0  0  0  0  0  0  0  0  0  0  0
  -23.8640  -19.7600   21.0870 C   0  0  0  0  0  2  0  0  0  0  0  0
  -24.4570  -19.1130   22.3450 C   0  0  0  0  0  2  0  0  0  0  0  0
  -25.7340  -18.5350   22.0840 O   0  0  0  0  0  0  0  0  0  0  0  0
  -26.5210  -18.4300   23.2660 C   0  0  0  0  0  2  0  0  0  0  0  0
  -27.6200  -17.3590   23.1650 C   0  0  0  0  0  2  0  0  0  0  0  0
  -28.7190  -17.7520   22.3400 O   0  0  0  0  0  0  0  0  0  0  0  0
  -29.9970  -17.3400   22.8340 C   0  0  0  0  0  2  0  0  0  0  0  0
  -30.7900  -16.5530   21.7850 C   0  0  0  0  0  2  0  0  0  0  0  0
  -30.7480  -14.3660   20.6580 C   0  0  0  0  0  0  0  0  0  0  0  0
  -30.4110  -12.2640   19.4160 C   0  0  0  0  0  2  0  0  0  0  0  0
  -29.4880  -12.5080   18.2070 C   0  0  0  0  0  2  0  0  0  0  0  0
  -28.0120  -12.3610   18.6230 C   0  0  0  0  0  2  0  0  0  0  0  0
  -27.6630  -13.1950   19.8840 C   0  0  0  0  0  3  0  0  0  0  0  0
  -28.6960  -12.9380   21.0030 C   0  0  0  0  0  2  0  0  0  0  0  0
  -30.0410  -13.2230   20.4690 N   0  0  0  0  0  0  0  0  0  0  0  0
  -31.7950  -14.6300   20.0590 O   0  0  0  0  0  0  0  0  0  0  0  0
  -30.2250  -15.2310   21.5310 N   0  0  0  0  0  0  0  0  0  0  0  0
  -29.3760  -14.9690   22.0070 H   0  0  0  0  0  0  0  0  0  0  0  0
  -25.2590  -13.8140   20.5680 C   0  0  0  0  0  0  0  0  0  0  0  0
  -24.1820  -13.0410   20.9160 C   0  0  0  0  0  0  0  0  0  0  0  0
  -24.6360  -11.6880   20.8740 C   0  0  0  0  0  0  0  0  0  0  0  0
  -26.3000  -12.9270   20.3390 N   0  0  0  0  0  0  0  0  0  0  0  0
  -25.9280  -11.6430   20.5780 N   0  0  0  0  0  0  0  0  0  0  0  0
  -23.9020  -10.4270   21.0430 C   0  0  0  0  0  0  0  0  0  0  0  0
  -24.3580   -9.4180   21.9200 C   0  0  0  0  0  3  0  0  0  0  0  0
  -23.6260   -8.2210   22.0760 C   0  0  0  0  0  3  0  0  0  0  0  0
  -22.4250   -8.0250   21.3540 C   0  0  0  0  0  0  0  0  0  0  0  0
  -21.9880   -9.0230   20.4640 C   0  0  0  0  0  3  0  0  0  0  0  0
  -22.7200  -10.2120   20.3070 C   0  0  0  0  0  3  0  0  0  0  0  0
  -21.6610   -6.8850   21.4250 O   0  0  0  0  0  0  0  0  0  0  0  0
  -21.6830   -6.0700   22.5280 C   0  0  0  0  0  0  0  0  0  0  0  0
  -21.4010   -6.5610   23.8220 C   0  0  0  0  0  3  0  0  0  0  0  0
  -21.3680   -5.6770   24.9190 C   0  0  0  0  0  3  0  0  0  0  0  0
  -21.6060   -4.3040   24.7240 C   0  0  0  0  0  0  0  0  0  0  0  0
  -21.8810   -3.8120   23.4360 C   0  0  0  0  0  3  0  0  0  0  0  0
  -21.9180   -4.6930   22.3410 C   0  0  0  0  0  0  0  0  0  0  0  0
  -22.1640   -4.2110   21.0990 F   0  0  0  0  0  0  0  0  0  0  0  0
  -21.5650   -3.4530   25.7760 F   0  0  0  0  0  0  0  0  0  0  0  0
  -22.7860  -13.5260   21.1810 C   0  0  0  0  0  0  0  0  0  0  0  0
  -22.0500  -12.8260   22.0390 N   0  0  0  0  0  0  0  0  0  0  0  0
  -22.3540  -14.5550   20.6680 O   0  0  0  0  0  0  0  0  0  0  0  0
  -22.4080  -11.9890   22.4740 H   0  0  0  0  0  0  0  0  0  0  0  0
  -21.1160  -13.1360   22.2640 H   0  0  0  0  0  0  0  0  0  0  0  0
  -25.4350  -15.1830   20.4100 N   0  0  0  0  0  0  0  0  0  0  0  0
  -24.6800  -15.8470   20.5360 H   0  0  0  0  0  0  0  0  0  0  0  0
  -26.2990  -15.6150   20.1050 H   0  0  0  0  0  0  0  0  0  0  0  0
  1  2  1  0
  2  3  1  0
  4  6  2  0
  4  3  1  0
  5  4  1  0
  7  5  1  0
  8  5  1  0
  9  8  1  0
  9 10  1  0
 10 11  1  0
 11 12  1  0
 12 13  1  0
 13 14  1  0
 14 15  1  0
 16 15  1  0
 16 17  1  0
 18 19  1  0
 18 17  1  0
 20 22  1  0
 20 19  1  0
 21 32  2  0
 22 27  1  0
 23 31  1  0
 23 33  1  0
 24 30  1  0
 24 26  1  0
 25 31  1  0
 26 25  1  0
 27 26  2  0
 28 29  1  0
 28 22  2  0
 29 24  2  0
 30 23  1  0
 31 21  1  0
 33 35  2  0
 34 33  1  0
 36 34  1  0
 37 46  2  0
 37 42  1  0
 38 34  1  0
 38 42  1  0
 39 38  1  0
 40 41  1  0
 40 39  1  0
 41 37  1  0
 42 43  2  0
 43 44  1  0
 45 44  2  0
 46 45  1  0
 47 21  1  0
 47 48  1  0
 47 57  1  0
 48 51  1  0
 49 53  1  0
 49 48  1  0
 50 49  2  0
 53 52  1  0
 55 53  1  0
 55 56  1  0
 55 54  1  0
 57 60  1  1
 57 58  1  0
 59 57  1  0
 61  1  1  0
 62 61  1  0
 63 62  1  0
 64 65  1  0
 64 63  1  0
 66 67  1  0
 66 65  1  0
 67 68  1  0
 68 69  1  0
 70 69  1  0
 71 72  1  0
 71 70  1  0
 72 73  1  0
 73 74  1  0
 74 75  1  0
 75 76  1  0
 77 76  1  0
 77 78  1  0
 79 78  1  0
 80 81  1  0
 80 79  1  0
 82 81  1  0
 83 91  1  0
 84 89  1  0
 85 86  1  0
 85 84  1  0
 87 86  1  0
 87 96  1  0
 87 88  1  0
 89 83  1  0
 89 88  1  0
 90 83  2  0
 91 82  1  0
 91 92  1  0
 93 94  2  0
 94113  1  0
 95 94  1  0
 95 98  1  0
 96 93  1  0
 96 97  1  0
 97 95  2  0
 98 99  1  0
 99100  2  0
101104  1  0
101100  1  0
102101  2  0
103102  1  0
103 98  2  0
104105  1  0
105106  1  0
106107  2  0
108107  1  0
108112  1  0
109108  2  0
110105  2  0
110109  1  0
111110  1  0
113114  1  0
114117  1  0
114116  1  0
115113  2  0
118119  1  0
118 93  1  0
120118  1  0
M  ISO  4  19 101  20 101  83 100  91 100
M  END
>  <TORSDO>  (75) 
F 53

>  <SCORE>  (75) 
19.579

>  <name>  (75) 
91

>  <ligand_id>  (75) 
91

>  <original_smiles>  (75) 
[H]c1c([H])c([H])c2c(c1[H])C([H])([H])C([H])([H])C([H])([H])C2([H])N([H])C(=O)C1([H])N(C(=O)C([H])(N([H])C(=O)C([H])(N([H])C([H])([H])[H])C([H])([H])[H])C(C([H])([H])[H])(C([H])([H])[H])C([H])([H])[H])C([H])([H])c2c([H])c(OC([H])([H])C([H])([H])OC([H])([H])C([H])([H])OC([H])([H])C([H])([H])OC([H])([H])C([H])([H])C([H])([H])N([H])C(=O)C([H])([H])OC([H])([H])C([H])([H])OC([H])([H])C([H])([H])OC([H])([H])C([H])([H])OC([H])([H])C([H])([H])OC([H])([H])C([H])([H])OC([H])([H])C([H])([H])OC([H])([H])C([H])([H])OC([H])([H])C([H])([H])N([H])C(=O)N3C([H])([H])C([H])([H])C([H])([H])C([H])(n4nc(-c5c([H])c([H])c(Oc6c([H])c([H])c(F)c([H])c6F)c([H])c5[H])c(C(=O)N([H])[H])c4N([H])[H])C3([H])[H])c([H])c([H])c2C1([H])[H]

>  <smiles>  (75) 
[H]c1c([H])c([H])c2c(c1[H])C([H])([H])C([H])([H])C([H])([H])C2([H])N([H])C(=O)C1([H])N(C(=O)C([H])(N([H])C(=O)C([H])(N([H])C([H])([H])[H])C([H])([H])[H])C(C([H])([H])[H])(C([H])([H])[H])C([H])([H])[H])C([H])([H])c2c([H])c(OC([H])([H])C([H])([H])OC([H])([H])C([H])([H])OC([H])([H])C([H])([H])OC([H])([H])C([H])([H])C([H])([H])N([H])C(=O)C([H])([H])OC([H])([H])C([H])([H])OC([H])([H])C([H])([H])OC([H])([H])C([H])([H])OC([H])([H])C([H])([H])OC([H])([H])C([H])([H])OC([H])([H])C([H])([H])OC([H])([H])C([H])([H])OC([H])([H])C([H])([H])N([H])C(=O)N3C([H])([H])C([H])([H])C([H])([H])C([H])(n4nc(-c5c([H])c([H])c(Oc6c([H])c([H])c(F)c([H])c6F)c([H])c5[H])c(C(=O)N([H])[H])c4N([H])[H])C3([H])[H])c([H])c([H])c2C1([H])[H]

$$$$
92:0:0
     RDKit          3D

100107  0  0  1  0  0  0  0  0999 V2000
  -30.5470  -18.9920   18.4670 C   0  0  0  0  0  2  0  0  0  0  0  0
  -31.7230  -18.3950   17.9160 O   0  0  0  0  0  0  0  0  0  0  0  0
  -31.4130  -17.5570   16.8010 C   0  0  0  0  0  2  0  0  0  0  0  0
  -32.6890  -16.9620   16.1690 C   0  0  0  0  0  2  0  0  0  0  0  0
  -32.9640  -15.6730   16.6960 O   0  0  0  0  0  0  0  0  0  0  0  0
  -34.1160  -15.0350   16.1330 C   0  0  0  0  0  2  0  0  0  0  0  0
  -34.3150  -13.6690   16.8180 C   0  0  0  0  0  2  0  0  0  0  0  0
  -34.5050  -13.3450   19.3330 C   0  0  0  0  0  0  0  0  0  0  0  0
  -33.9530  -13.8210   18.2180 N   0  0  0  0  0  0  0  0  0  0  0  0
  -35.4630  -12.5700   19.3380 O   0  0  0  0  0  0  0  0  0  0  0  0
  -33.1230  -14.4040   18.3530 H   0  0  0  0  0  0  0  0  0  0  0  0
  -33.9140  -13.9000   20.6450 C   0  0  0  0  0  2  0  0  0  0  0  0
  -32.8480  -13.0240   21.3680 C   0  0  0  0  0  2  0  0  0  0  0  0
  -30.8910  -13.2440   19.6850 C   0  0  0  0  0  0  0  0  0  0  0  0
  -29.8340  -11.7030   18.1130 C   0  0  0  0  0  2  0  0  0  0  0  0
  -28.7440  -12.2830   17.2060 C   0  0  0  0  0  2  0  0  0  0  0  0
  -27.3790  -12.2280   17.9210 C   0  0  0  0  0  2  0  0  0  0  0  0
  -27.4280  -12.7990   19.3680 C   0  0  0  0  0  3  0  0  0  0  0  0
  -28.6360  -12.2400   20.1590 C   0  0  0  0  0  2  0  0  0  0  0  0
  -29.8600  -12.4460   19.3660 N   0  0  0  0  0  0  0  0  0  0  0  0
  -31.4250  -14.0450   18.9180 O   0  0  0  0  0  0  0  0  0  0  0  0
  -31.5400  -12.7400   20.7430 N   0  0  0  0  0  0  0  0  0  0  0  0
  -31.0430  -11.9510   21.1350 H   0  0  0  0  0  0  0  0  0  0  0  0
  -25.2120  -13.4800   20.5010 C   0  0  0  0  0  0  0  0  0  0  0  0
  -24.1740  -12.7430   21.0040 C   0  0  0  0  0  0  0  0  0  0  0  0
  -24.5440  -11.3750   20.8310 C   0  0  0  0  0  0  0  0  0  0  0  0
  -26.1560  -12.5650   20.0590 N   0  0  0  0  0  0  0  0  0  0  0  0
  -25.7620  -11.2890   20.3080 N   0  0  0  0  0  0  0  0  0  0  0  0
  -23.7910  -10.1440   21.0910 C   0  0  0  0  0  0  0  0  0  0  0  0
  -24.3070   -9.1340   21.9300 C   0  0  0  0  0  3  0  0  0  0  0  0
  -23.5650   -7.9580   22.1840 C   0  0  0  0  0  3  0  0  0  0  0  0
  -22.2880   -7.7890   21.6000 C   0  0  0  0  0  0  0  0  0  0  0  0
  -21.7850   -8.7880   20.7480 C   0  0  0  0  0  3  0  0  0  0  0  0
  -22.5280   -9.9540   20.4930 C   0  0  0  0  0  3  0  0  0  0  0  0
  -21.5030   -6.6710   21.7660 O   0  0  0  0  0  0  0  0  0  0  0  0
  -21.5630   -5.9100   22.9080 C   0  0  0  0  0  0  0  0  0  0  0  0
  -21.3270   -6.4630   24.1840 C   0  0  0  0  0  3  0  0  0  0  0  0
  -21.3270   -5.6310   25.3200 C   0  0  0  0  0  3  0  0  0  0  0  0
  -21.5560   -4.2480   25.1820 C   0  0  0  0  0  0  0  0  0  0  0  0
  -21.7880   -3.6960   23.9100 C   0  0  0  0  0  3  0  0  0  0  0  0
  -21.7910   -4.5260   22.7750 C   0  0  0  0  0  0  0  0  0  0  0  0
  -21.9910   -3.9860   21.5470 F   0  0  0  0  0  0  0  0  0  0  0  0
  -21.5490   -3.4480   26.2730 F   0  0  0  0  0  0  0  0  0  0  0  0
  -22.8710  -13.2680   21.5340 C   0  0  0  0  0  0  0  0  0  0  0  0
  -22.2710  -12.5700   22.4920 N   0  0  0  0  0  0  0  0  0  0  0  0
  -22.3970  -14.3300   21.1300 O   0  0  0  0  0  0  0  0  0  0  0  0
  -22.6720  -11.7120   22.8380 H   0  0  0  0  0  0  0  0  0  0  0  0
  -21.4020  -12.8990   22.8850 H   0  0  0  0  0  0  0  0  0  0  0  0
  -25.4220  -14.8460   20.3540 N   0  0  0  0  0  0  0  0  0  0  0  0
  -24.7270  -15.5370   20.6130 H   0  0  0  0  0  0  0  0  0  0  0  0
  -26.2390  -15.2390   19.9020 H   0  0  0  0  0  0  0  0  0  0  0  0
  -30.8760  -20.0310   19.5530 C   0  0  0  0  0  2  0  0  0  0  0  0
  -30.9930  -21.3370   18.9940 O   0  0  0  0  0  0  0  0  0  0  0  0
  -31.2530  -22.3280   19.9850 C   0  0  0  0  0  2  0  0  0  0  0  0
  -30.9820  -23.7290   19.4210 C   0  0  0  0  0  2  0  0  0  0  0  0
  -31.2710  -24.7000   20.4240 O   0  0  0  0  0  0  0  0  0  0  0  0
  -30.8440  -26.0130   20.0740 C   0  0  0  0  0  2  0  0  0  0  0  0
  -31.1530  -27.0030   21.2170 C   0  0  0  0  0  2  0  0  0  0  0  0
  -30.6000  -26.5780   22.4580 O   0  0  0  0  0  0  0  0  0  0  0  0
  -29.1420  -26.3230   22.2470 O   0  0  0  0  0  0  0  0  0  0  0  0
  -28.2440  -31.8150   26.7680 C   0  0  0  0  0  0  0  0  0  0  0  0
  -28.3640  -27.0570   23.1020 C   0  0  0  0  0  0  0  0  0  0  0  0
  -26.4240  -30.1420   26.6790 C   0  0  0  0  0  3  0  0  0  0  0  0
  -26.5750  -28.4480   24.7820 C   0  0  0  0  0  0  0  0  0  0  0  0
  -27.9220  -30.5480   24.6470 C   0  0  0  0  0  2  0  0  0  0  0  0
  -27.7070  -29.0980   24.2710 C   0  0  0  0  0  0  0  0  0  0  0  0
  -28.6050  -28.4120   23.4240 C   0  0  0  0  0  3  0  0  0  0  0  0
  -27.2310  -26.4110   23.6330 C   0  0  0  0  0  3  0  0  0  0  0  0
  -26.3360  -27.0970   24.4740 C   0  0  0  0  0  3  0  0  0  0  0  0
  -25.6520  -29.2610   25.6590 C   0  0  0  0  0  2  0  0  0  0  0  0
  -27.5820  -30.8580   26.0570 N   0  0  0  0  0  0  0  0  0  0  0  0
  -27.8750  -32.1350   27.9050 O   0  0  0  0  0  0  0  0  0  0  0  0
  -26.8220  -29.2620   27.8850 C   0  0  0  0  0  0  0  0  0  0  0  0
  -25.8920  -29.1010   28.8420 N   0  0  0  0  0  0  0  0  0  0  0  0
  -27.9300  -28.7220   27.9340 O   0  0  0  0  0  0  0  0  0  0  0  0
  -25.0110  -29.5830   28.7310 H   0  0  0  0  0  0  0  0  0  0  0  0
  -24.2540  -28.1550   31.9190 C   0  0  0  0  0  0  0  0  0  0  0  0
  -26.0310  -28.2850   30.0480 C   0  0  0  0  0  3  0  0  0  0  0  0
  -25.6910  -26.8040   29.7610 C   0  0  0  0  0  2  0  0  0  0  0  0
  -24.2250  -26.4580   30.0420 C   0  0  0  0  0  2  0  0  0  0  0  0
  -23.8790  -26.7410   31.5070 C   0  0  0  0  0  2  0  0  0  0  0  0
  -25.2530  -28.8850   31.2240 C   0  0  0  0  0  0  0  0  0  0  0  0
  -25.5400  -30.2070   31.6240 C   0  0  0  0  0  3  0  0  0  0  0  0
  -24.8500  -30.7990   32.6990 C   0  0  0  0  0  3  0  0  0  0  0  0
  -23.8720  -30.0670   33.3950 C   0  0  0  0  0  3  0  0  0  0  0  0
  -23.5790  -28.7460   33.0070 C   0  0  0  0  0  3  0  0  0  0  0  0
  -29.4750  -32.5690   26.1770 C   0  0  0  0  0  3  0  0  0  0  0  0
  -29.2990  -33.9980   26.4670 N   0  0  0  0  0  0  0  0  0  0  0  0
  -28.8700  -34.9060   25.5790 C   0  0  0  0  0  0  0  0  0  0  0  0
  -28.6510  -34.6350   24.3950 O   0  0  0  0  0  0  0  0  0  0  0  0
  -29.4070  -34.2800   27.4290 H   0  0  0  0  0  0  0  0  0  0  0  0
  -27.1510  -36.5840   26.3240 C   0  0  0  0  0  1  0  0  0  0  0  0
  -28.6510  -36.3440   26.0850 C   0  0  0  0  0  3  0  0  0  0  0  0
  -30.6410  -37.3870   25.0930 C   0  0  0  0  0  1  0  0  0  0  0  0
  -29.1820  -37.3780   25.1700 N   0  0  0  0  0  0  0  0  0  0  0  0
  -28.8750  -38.3040   25.4580 H   0  0  0  0  0  0  0  0  0  0  0  0
  -30.8520  -32.0490   26.7420 C   0  0  1  0  0  0  0  0  0  0  0  0
  -30.8970  -31.9550   28.2860 C   0  0  0  0  0  1  0  0  0  0  0  0
  -31.1800  -30.6480   26.1750 C   0  0  0  0  0  1  0  0  0  0  0  0
  -31.9950  -32.9890   26.2910 C   0  0  0  0  0  1  0  0  0  0  0  0
  1 52  1  0
  2  1  1  0
  3  2  1  0
  4  5  1  0
  4  3  1  0
  6  5  1  0
  6  7  1  0
  7  9  1  0
  8 10  2  0
  8 12  1  0
  9 11  1  0
  9  8  1  0
 12 13  1  0
 14 22  1  0
 15 20  1  0
 16 17  1  0
 16 15  1  0
 18 17  1  0
 18 27  1  0
 18 19  1  0
 20 14  1  0
 20 19  1  0
 21 14  2  0
 22 23  1  0
 22 13  1  0
 24 25  2  0
 25 44  1  0
 26 25  1  0
 26 29  1  0
 27 28  1  0
 27 24  1  0
 28 26  2  0
 29 30  1  0
 30 31  2  0
 32 35  1  0
 32 31  1  0
 33 32  2  0
 34 33  1  0
 34 29  2  0
 35 36  1  0
 36 37  1  0
 37 38  2  0
 39 38  1  0
 39 43  1  0
 40 39  2  0
 41 36  2  0
 41 40  1  0
 42 41  1  0
 44 45  1  0
 45 47  1  0
 45 48  1  0
 46 44  2  0
 49 24  1  0
 49 50  1  0
 51 49  1  0
 53 52  1  0
 53 54  1  0
 55 54  1  0
 55 56  1  0
 57 56  1  0
 57 58  1  0
 58 59  1  0
 60 59  1  0
 60 62  1  0
 61 72  2  0
 62 67  2  0
 62 68  1  0
 63 73  1  0
 64 70  1  0
 65 71  1  0
 66 65  1  0
 66 64  2  0
 67 66  1  0
 68 69  2  0
 69 64  1  0
 70 63  1  0
 71 63  1  0
 71 61  1  0
 73 75  2  0
 73 74  1  0
 76 74  1  0
 77 86  1  0
 78 74  1  0
 78 82  1  0
 79 80  1  0
 79 78  1  0
 80 81  1  0
 81 77  1  0
 82 83  1  0
 82 77  2  0
 83 84  2  0
 84 85  1  0
 86 85  2  0
 87 88  1  0
 87 97  1  0
 87 61  1  0
 88 91  1  0
 89 93  1  0
 89 88  1  0
 90 89  2  0
 93 92  1  0
 94 95  1  0
 95 96  1  0
 95 93  1  0
 97 98  1  1
 99 97  1  0
100 97  1  0
M  ISO  4  14 100  22 100  59 101  60 101
M  END
>  <TORSDO>  (76) 
F 33

>  <SCORE>  (76) 
-6.072

>  <name>  (76) 
92

>  <ligand_id>  (76) 
92

>  <original_smiles>  (76) 
[H]c1c([H])c([H])c2c(c1[H])C([H])([H])C([H])([H])C([H])([H])C2([H])N([H])C(=O)C1([H])N(C(=O)C([H])(N([H])C(=O)C([H])(N([H])C([H])([H])[H])C([H])([H])[H])C(C([H])([H])[H])(C([H])([H])[H])C([H])([H])[H])C([H])([H])c2c([H])c(OOC([H])([H])C([H])([H])OC([H])([H])C([H])([H])OC([H])([H])C([H])([H])OC([H])([H])C([H])([H])OC([H])([H])C([H])([H])N([H])C(=O)C([H])([H])C([H])([H])N([H])C(=O)N3C([H])([H])C([H])([H])C([H])([H])C([H])(n4nc(-c5c([H])c([H])c(Oc6c([H])c([H])c(F)c([H])c6F)c([H])c5[H])c(C(=O)N([H])[H])c4N([H])[H])C3([H])[H])c([H])c([H])c2C1([H])[H]

>  <smiles>  (76) 
[H]c1c([H])c([H])c2c(c1[H])C([H])([H])C([H])([H])C([H])([H])C2([H])N([H])C(=O)C1([H])N(C(=O)C([H])(N([H])C(=O)C([H])(N([H])C([H])([H])[H])C([H])([H])[H])C(C([H])([H])[H])(C([H])([H])[H])C([H])([H])[H])C([H])([H])c2c([H])c(OOC([H])([H])C([H])([H])OC([H])([H])C([H])([H])OC([H])([H])C([H])([H])OC([H])([H])C([H])([H])OC([H])([H])C([H])([H])N([H])C(=O)C([H])([H])C([H])([H])N([H])C(=O)N3C([H])([H])C([H])([H])C([H])([H])C([H])(n4nc(-c5c([H])c([H])c(Oc6c([H])c([H])c(F)c([H])c6F)c([H])c5[H])c(C(=O)N([H])[H])c4N([H])[H])C3([H])[H])c([H])c([H])c2C1([H])[H]

$$$$
94:0:0
     RDKit          3D

113119  0  0  1  0  0  0  0  0999 V2000
  -33.5830  -19.6460   18.0990 C   0  0  0  0  0  2  0  0  0  0  0  0
  -32.1850  -19.5090   17.5840 O   0  0  0  0  0  0  0  0  0  0  0  0
  -31.6390  -18.1460   17.5380 C   0  0  0  0  0  2  0  0  0  0  0  0
  -30.3180  -17.7210   16.6880 C   0  0  0  0  0  2  0  0  0  0  0  0
  -28.8810  -17.8090   17.1320 O   0  0  0  0  0  0  0  0  0  0  0  0
  -28.1840  -16.7770   17.9460 C   0  0  0  0  0  2  0  0  0  0  0  0
  -27.1600  -17.3530   19.0350 C   0  0  0  0  0  2  0  0  0  0  0  0
  -27.3440  -17.0570   20.5150 O   0  0  0  0  0  0  0  0  0  0  0  0
  -27.5460  -17.9600   21.7470 C   0  0  0  0  0  2  0  0  0  0  0  0
  -28.9220  -18.4050   22.6460 C   0  0  0  0  0  2  0  0  0  0  0  0
  -30.3330  -18.9050   22.2900 O   0  0  0  0  0  0  0  0  0  0  0  0
  -30.8550  -20.2760   21.8970 C   0  0  0  0  0  2  0  0  0  0  0  0
  -31.8000  -20.9390   20.5860 C   0  0  0  0  0  2  0  0  0  0  0  0
  -32.0140  -22.4520   19.8180 O   0  0  0  0  0  0  0  0  0  0  0  0
  -31.7820  -24.1340   19.8570 C   0  0  0  0  0  2  0  0  0  0  0  0
  -30.5090  -25.2520   20.6500 C   0  0  0  0  0  1  0  0  0  0  0  0
  -28.6270  -25.7290   20.3190 O   0  0  0  0  0  1  0  0  0  0  0  0
  -24.6710  -31.8060   23.1430 C   0  0  0  0  0  0  0  0  0  0  0  0
  -27.5220  -26.9120   20.2020 C   0  0  0  0  0  0  0  0  0  0  0  0
  -23.5040  -30.3790   21.5000 C   0  0  0  0  0  3  0  0  0  0  0  0
  -25.0050  -28.7190   20.1590 C   0  0  0  0  0  0  0  0  0  0  0  0
  -26.0710  -30.6290   21.3490 C   0  0  0  0  0  2  0  0  0  0  0  0
  -26.1930  -29.2000   20.7090 C   0  0  0  0  0  0  0  0  0  0  0  0
  -27.4000  -28.3640   20.6050 C   0  0  0  0  0  3  0  0  0  0  0  0
  -26.2350  -26.5910   19.6450 C   0  0  0  0  0  3  0  0  0  0  0  0
  -25.0600  -27.4190   19.6000 C   0  0  0  0  0  3  0  0  0  0  0  0
  -23.7660  -29.6290   20.1600 C   0  0  0  0  0  2  0  0  0  0  0  0
  -24.7710  -30.9600   22.0530 N   0  0  0  0  0  0  0  0  0  0  0  0
  -23.5770  -32.1050   23.6470 O   0  0  0  0  0  0  0  0  0  0  0  0
  -22.7720  -29.4300   22.4820 C   0  0  0  0  0  0  0  0  0  0  0  0
  -21.4370  -29.3000   22.3620 N   0  0  0  0  0  0  0  0  0  0  0  0
  -23.4190  -28.7960   23.3180 O   0  0  0  0  0  0  0  0  0  0  0  0
  -20.9650  -29.8580   21.6620 H   0  0  0  0  0  0  0  0  0  0  0  0
  -18.0280  -28.1450   22.8430 C   0  0  0  0  0  0  0  0  0  0  0  0
  -20.5900  -28.3730   23.1240 C   0  0  0  0  0  3  0  0  0  0  0  0
  -20.6750  -26.9420   22.5450 C   0  0  0  0  0  2  0  0  0  0  0  0
  -19.5740  -26.6370   21.5240 C   0  0  0  0  0  2  0  0  0  0  0  0
  -18.1910  -26.7980   22.1630 C   0  0  0  0  0  2  0  0  0  0  0  0
  -19.1540  -28.8900   23.2820 C   0  0  0  0  0  0  0  0  0  0  0  0
  -18.9490  -30.1510   23.8830 C   0  0  0  0  0  3  0  0  0  0  0  0
  -17.6500  -30.6630   24.0560 C   0  0  0  0  0  3  0  0  0  0  0  0
  -16.5380  -29.9120   23.6380 C   0  0  0  0  0  3  0  0  0  0  0  0
  -16.7270  -28.6570   23.0330 C   0  0  0  0  0  3  0  0  0  0  0  0
  -25.9300  -32.4520   23.8020 C   0  0  0  0  0  3  0  0  0  0  0  0
  -25.5890  -33.8310   24.1950 N   0  0  0  0  0  0  0  0  0  0  0  0
  -25.9090  -34.9320   23.4960 C   0  0  0  0  0  0  0  0  0  0  0  0
  -26.5770  -34.8910   22.4630 O   0  0  0  0  0  0  0  0  0  0  0  0
  -24.9840  -33.9320   24.9940 H   0  0  0  0  0  0  0  0  0  0  0  0
  -24.1440  -36.7180   23.2650 C   0  0  0  0  0  1  0  0  0  0  0  0
  -25.4100  -36.2930   24.0280 C   0  0  0  0  0  3  0  0  0  0  0  0
  -27.5550  -37.1730   24.8480 C   0  0  0  0  0  1  0  0  0  0  0  0
  -26.4260  -37.3690   23.9420 N   0  0  0  0  0  0  0  0  0  0  0  0
  -26.0100  -38.2750   24.1450 H   0  0  0  0  0  0  0  0  0  0  0  0
  -26.4540  -31.6540   25.0620 C   0  0  1  0  0  0  0  0  0  0  0  0
  -25.3670  -31.3830   26.1290 C   0  0  0  0  0  1  0  0  0  0  0  0
  -27.0400  -30.2910   24.6360 C   0  0  0  0  0  1  0  0  0  0  0  0
  -27.6030  -32.4360   25.7440 C   0  0  0  0  0  1  0  0  0  0  0  0
  -34.1510  -21.0710   18.5490 C   0  0  0  0  0  2  0  0  0  0  0  0
  -34.4880  -21.2650   19.9720 O   0  0  0  0  0  0  0  0  0  0  0  0
  -34.5170  -22.6200   20.5580 C   0  0  0  0  0  2  0  0  0  0  0  0
  -33.7020  -23.0590   21.9040 C   0  0  0  0  0  2  0  0  0  0  0  0
  -32.3410  -22.6010   22.3580 O   0  0  0  0  0  0  0  0  0  0  0  0
  -30.9040  -23.0310   22.0490 C   0  0  0  0  0  2  0  0  0  0  0  0
  -29.8400  -22.8500   20.5540 C   0  0  0  0  0  2  0  0  0  0  0  0
  -29.2810  -23.7590   19.2580 O   0  0  0  0  0  0  0  0  0  0  0  0
  -29.6510  -25.1270   18.3210 C   0  0  0  0  0  3  0  0  0  0  0  0
  -30.0060  -26.8840   18.8670 C   0  0  0  0  0  3  0  0  0  0  0  0
  -29.9490  -27.5710   20.4540 O   0  0  0  0  0  0  0  0  0  0  0  0
  -29.4820  -27.0760   22.0450 C   0  0  0  0  0  2  0  0  0  0  0  0
  -28.4610  -25.6360   22.6600 C   0  0  0  0  0  2  0  0  0  0  0  0
  -28.3280  -24.0270   22.3450 O   0  0  0  0  0  0  0  0  0  0  0  0
  -27.3570  -22.9070   21.6120 C   0  0  0  0  0  2  0  0  0  0  0  0
  -27.6950  -21.0750   21.3930 C   0  0  0  0  0  2  0  0  0  0  0  0
  -28.5390  -19.8980   20.1870 C   0  0  0  0  0  2  0  0  0  0  0  0
  -29.6590  -18.3270   19.9970 C   0  0  0  0  0  2  0  0  0  0  0  0
  -30.5060  -15.3630   20.3230 C   0  0  0  0  0  0  0  0  0  0  0  0
  -30.4420  -12.8950   19.5060 C   0  0  0  0  0  2  0  0  0  0  0  0
  -29.5380  -12.6040   18.2810 C   0  0  0  0  0  2  0  0  0  0  0  0
  -28.1020  -12.3130   18.7470 C   0  0  0  0  0  2  0  0  0  0  0  0
  -27.6090  -13.3140   19.8160 C   0  0  0  0  0  3  0  0  0  0  0  0
  -28.6580  -13.5670   20.9310 C   0  0  0  0  0  2  0  0  0  0  0  0
  -29.9010  -14.0610   20.3090 N   0  0  0  0  0  0  0  0  0  0  0  0
  -31.7070  -15.2960   20.0250 O   0  0  0  0  0  0  0  0  0  0  0  0
  -29.8230  -16.6820   20.5380 N   0  0  0  0  0  0  0  0  0  0  0  0
  -29.9890  -16.8290   21.5270 H   0  0  0  0  0  0  0  0  0  0  0  0
  -25.2270  -13.8130   20.6110 C   0  0  0  0  0  0  0  0  0  0  0  0
  -24.1740  -13.0420   20.9350 C   0  0  0  0  0  0  0  0  0  0  0  0
  -24.6400  -11.6860   20.8660 C   0  0  0  0  0  0  0  0  0  0  0  0
  -26.2870  -12.9710   20.3330 N   0  0  0  0  0  0  0  0  0  0  0  0
  -25.9360  -11.6720   20.5580 N   0  0  0  0  0  0  0  0  0  0  0  0
  -23.9200  -10.4270   21.0290 C   0  0  0  0  0  0  0  0  0  0  0  0
  -24.3740   -9.4220   21.9110 C   0  0  0  0  0  3  0  0  0  0  0  0
  -23.6340   -8.2320   22.0760 C   0  0  0  0  0  3  0  0  0  0  0  0
  -22.4300   -8.0340   21.3590 C   0  0  0  0  0  0  0  0  0  0  0  0
  -21.9970   -9.0320   20.4670 C   0  0  0  0  0  3  0  0  0  0  0  0
  -22.7370  -10.2110   20.2990 C   0  0  0  0  0  3  0  0  0  0  0  0
  -21.6720   -6.8910   21.4200 O   0  0  0  0  0  0  0  0  0  0  0  0
  -21.6930   -6.0780   22.5230 C   0  0  0  0  0  0  0  0  0  0  0  0
  -21.4100   -6.5690   23.8170 C   0  0  0  0  0  3  0  0  0  0  0  0
  -21.3630   -5.6830   24.9130 C   0  0  0  0  0  3  0  0  0  0  0  0
  -21.6010   -4.3090   24.7200 C   0  0  0  0  0  0  0  0  0  0  0  0
  -21.8850   -3.8170   23.4320 C   0  0  0  0  0  3  0  0  0  0  0  0
  -21.9250   -4.6990   22.3370 C   0  0  0  0  0  0  0  0  0  0  0  0
  -22.1690   -4.2150   21.0970 F   0  0  0  0  0  0  0  0  0  0  0  0
  -21.5590   -3.4570   25.7710 F   0  0  0  0  0  0  0  0  0  0  0  0
  -22.7670  -13.4960   21.2030 C   0  0  0  0  0  0  0  0  0  0  0  0
  -22.0330  -12.8030   22.0500 N   0  0  0  0  0  0  0  0  0  0  0  0
  -22.3310  -14.5320   20.6770 O   0  0  0  0  0  0  0  0  0  0  0  0
  -22.3870  -11.9620   22.4900 H   0  0  0  0  0  0  0  0  0  0  0  0
  -21.0870  -13.0940   22.2630 H   0  0  0  0  0  0  0  0  0  0  0  0
  -25.3380  -15.2000   20.5200 N   0  0  0  0  0  0  0  0  0  0  0  0
  -24.6090  -15.7290   20.9840 H   0  0  0  0  0  0  0  0  0  0  0  0
  -26.1930  -15.7360   20.4010 H   0  0  0  0  0  0  0  0  0  0  0  0
  1 58  1  0
  2  1  1  0
  3  2  1  0
  4  5  1  0
  4  3  1  0
  5  6  1  0
  6  7  1  0
  7  8  1  0
  8  9  1  0
  9 10  1  0
 11 10  1  0
 12 11  1  0
 13 12  1  0
 14 15  1  0
 14 13  1  0
 15 16  1  0
 18 29  2  0
 19 17  1  0
 19 24  1  0
 20 28  1  0
 20 30  1  0
 21 27  1  0
 21 23  1  0
 22 28  1  0
 23 22  1  0
 24 23  2  0
 25 19  2  0
 26 25  1  0
 26 21  2  0
 27 20  1  0
 28 18  1  0
 30 32  2  0
 31 30  1  0
 33 31  1  0
 34 43  2  0
 34 39  1  0
 35 31  1  0
 35 39  1  0
 36 35  1  0
 37 38  1  0
 37 36  1  0
 38 34  1  0
 39 40  2  0
 40 41  1  0
 42 41  2  0
 43 42  1  0
 44 18  1  0
 44 45  1  0
 44 54  1  0
 45 48  1  0
 46 50  1  0
 46 45  1  0
 47 46  2  0
 50 49  1  0
 52 50  1  0
 52 53  1  0
 52 51  1  0
 54 57  1  1
 54 55  1  0
 56 54  1  0
 58 59  1  0
 59 60  1  0
 60 61  1  0
 61 62  1  0
 63 62  1  0
 64 63  1  0
 65 64  1  0
 66 67  2  0
 66 65  1  0
 67 68  1  0
 68 69  1  0
 69 70  1  0
 71 70  1  0
 72 71  1  0
 73 72  1  0
 74 73  1  0
 75 74  1  0
 75 84  1  0
 76 84  1  0
 77 82  1  0
 78 79  1  0
 78 77  1  0
 80 79  1  0
 80 89  1  0
 80 81  1  0
 82 76  1  0
 82 81  1  0
 83 76  2  0
 84 85  1  0
 86 87  2  0
 87106  1  0
 88 87  1  0
 88 91  1  0
 89 90  1  0
 89 86  1  0
 90 88  2  0
 91 92  1  0
 92 93  2  0
 94 97  1  0
 94 93  1  0
 95 94  2  0
 96 95  1  0
 96 91  2  0
 97 98  1  0
 98 99  1  0
 99100  2  0
101100  1  0
101105  1  0
102101  2  0
103 98  2  0
103102  1  0
104103  1  0
106107  1  0
107110  1  0
107109  1  0
108106  2  0
111 86  1  0
111112  1  0
113111  1  0
M  ISO  4  16 101  17 101  76 100  84 100
M  END
>  <TORSDO>  (77) 
F 49

>  <SCORE>  (77) 
-1.194

>  <name>  (77) 
94

>  <ligand_id>  (77) 
94

>  <original_smiles>  (77) 
[H]c1c([H])c([H])c2c(c1[H])C([H])([H])C([H])([H])C([H])([H])C2([H])N([H])C(=O)C1([H])N(C(=O)C([H])(N([H])C(=O)C([H])(N([H])C([H])([H])[H])C([H])([H])[H])C(C([H])([H])[H])(C([H])([H])[H])C([H])([H])[H])C([H])([H])c2c([H])c(OC([H])([H])C([H])([H])OC([H])([H])C([H])([H])OC([H])([H])C([H])([H])OC([H])([H])C([H])([H])OC([H])([H])C([H])([H])OC([H])([H])C([H])([H])OC([H])([H])C([H])([H])OC([H])([H])C([H])([H])OC([H])([H])C([H])([H])OC([H])([H])C([H])([H])OC([H])([H])C([H])([H])C([H])([H])C([H])([H])N([H])C(=O)N3C([H])([H])C([H])([H])C([H])([H])C([H])(n4nc(-c5c([H])c([H])c(Oc6c([H])c([H])c(F)c([H])c6F)c([H])c5[H])c(C(=O)N([H])[H])c4N([H])[H])C3([H])[H])c([H])c([H])c2C1([H])[H]

>  <smiles>  (77) 
[H]c1c([H])c([H])c2c(c1[H])C([H])([H])C([H])([H])C([H])([H])C2([H])N([H])C(=O)C1([H])N(C(=O)C([H])(N([H])C(=O)C([H])(N([H])C([H])([H])[H])C([H])([H])[H])C(C([H])([H])[H])(C([H])([H])[H])C([H])([H])[H])C([H])([H])c2c([H])c(OC([H])([H])C([H])([H])OC([H])([H])C([H])([H])OC([H])([H])C([H])([H])OC([H])([H])C([H])([H])OC([H])([H])C([H])([H])OC([H])([H])C([H])([H])OC([H])([H])C([H])([H])OC([H])([H])C([H])([H])OC([H])([H])C([H])([H])OC([H])([H])C([H])([H])OC([H])([H])C([H])([H])C([H])([H])C([H])([H])N([H])C(=O)N3C([H])([H])C([H])([H])C([H])([H])C([H])(n4nc(-c5c([H])c([H])c(Oc6c([H])c([H])c(F)c([H])c6F)c([H])c5[H])c(C(=O)N([H])[H])c4N([H])[H])C3([H])[H])c([H])c([H])c2C1([H])[H]

$$$$
95:0:0
     RDKit          3D

103110  0  0  1  0  0  0  0  0999 V2000
  -21.1620  -21.4530   24.0730 C   0  0  0  0  0  2  0  0  0  0  0  0
  -21.8410  -22.3540   23.2040 O   0  0  0  0  0  0  0  0  0  0  0  0
  -22.7340  -23.2100   23.9100 C   0  0  0  0  0  2  0  0  0  0  0  0
  -23.5050  -24.0990   22.9240 C   0  0  0  0  0  0  0  0  0  0  0  0
  -24.8340  -23.9430   22.8480 N   0  0  0  0  0  0  0  0  0  0  0  0
  -22.9050  -24.9440   22.2580 O   0  0  0  0  0  0  0  0  0  0  0  0
  -25.2580  -23.1820   23.3650 H   0  0  0  0  0  0  0  0  0  0  0  0
  -25.7110  -24.8660   22.1300 C   0  0  0  0  0  2  0  0  0  0  0  0
  -27.1940  -24.4630   22.2240 C   0  0  0  0  0  2  0  0  0  0  0  0
  -28.1440  -25.5110   21.6130 C   0  0  0  0  0  2  0  0  0  0  0  0
  -28.0880  -25.6160   20.0740 C   0  0  0  0  0  2  0  0  0  0  0  0
  -28.1330  -26.9840   19.6600 O   0  0  0  0  0  0  0  0  0  0  0  0
  -24.4960  -31.9510   23.1890 C   0  0  0  0  0  0  0  0  0  0  0  0
  -26.9590  -27.6930   19.7480 C   0  0  0  0  0  0  0  0  0  0  0  0
  -23.1960  -30.6410   21.5390 C   0  0  0  0  0  3  0  0  0  0  0  0
  -24.5670  -29.1830   19.9580 C   0  0  0  0  0  0  0  0  0  0  0  0
  -25.7070  -31.0090   21.2340 C   0  0  0  0  0  2  0  0  0  0  0  0
  -25.7520  -29.6760   20.5170 C   0  0  0  0  0  0  0  0  0  0  0  0
  -26.9500  -28.9380   20.4100 C   0  0  0  0  0  3  0  0  0  0  0  0
  -25.7610  -27.2240   19.1590 C   0  0  0  0  0  3  0  0  0  0  0  0
  -24.5680  -27.9580   19.2710 C   0  0  0  0  0  3  0  0  0  0  0  0
  -23.3300  -30.0370   20.1140 C   0  0  0  0  0  2  0  0  0  0  0  0
  -24.4860  -31.2130   22.0480 N   0  0  0  0  0  0  0  0  0  0  0  0
  -23.4490  -32.1940   23.8030 O   0  0  0  0  0  0  0  0  0  0  0  0
  -22.5960  -29.5700   22.4770 C   0  0  0  0  0  0  0  0  0  0  0  0
  -21.2720  -29.3660   22.3750 N   0  0  0  0  0  0  0  0  0  0  0  0
  -23.3140  -28.9270   23.2470 O   0  0  0  0  0  0  0  0  0  0  0  0
  -20.7540  -29.9360   21.7190 H   0  0  0  0  0  0  0  0  0  0  0  0
  -17.9470  -28.0440   22.8650 C   0  0  0  0  0  0  0  0  0  0  0  0
  -20.4960  -28.3890   23.1360 C   0  0  0  0  0  3  0  0  0  0  0  0
  -20.6490  -26.9740   22.5360 C   0  0  0  0  0  2  0  0  0  0  0  0
  -19.5620  -26.6360   21.5130 C   0  0  0  0  0  2  0  0  0  0  0  0
  -18.1770  -26.7150   22.1630 C   0  0  0  0  0  2  0  0  0  0  0  0
  -19.0390  -28.8380   23.3080 C   0  0  0  0  0  0  0  0  0  0  0  0
  -18.7760  -30.0810   23.9210 C   0  0  0  0  0  3  0  0  0  0  0  0
  -17.4520  -30.5300   24.0980 C   0  0  0  0  0  3  0  0  0  0  0  0
  -16.3770  -29.7340   23.6730 C   0  0  0  0  0  3  0  0  0  0  0  0
  -16.6270  -28.4930   23.0600 C   0  0  0  0  0  3  0  0  0  0  0  0
  -25.8190  -32.5400   23.7700 C   0  0  0  0  0  3  0  0  0  0  0  0
  -25.5530  -33.9330   24.1420 N   0  0  0  0  0  0  0  0  0  0  0  0
  -25.8720  -34.9960   23.3930 C   0  0  0  0  0  0  0  0  0  0  0  0
  -26.4960  -34.9060   22.3280 O   0  0  0  0  0  0  0  0  0  0  0  0
  -24.9930  -34.0800   24.9700 H   0  0  0  0  0  0  0  0  0  0  0  0
  -24.1510  -36.8140   23.1660 C   0  0  0  0  0  1  0  0  0  0  0  0
  -25.4300  -36.3800   23.9000 C   0  0  0  0  0  3  0  0  0  0  0  0
  -27.6180  -37.2230   24.6260 C   0  0  0  0  0  1  0  0  0  0  0  0
  -26.4680  -37.4230   23.7480 N   0  0  0  0  0  0  0  0  0  0  0  0
  -26.0820  -38.3440   23.9360 H   0  0  0  0  0  0  0  0  0  0  0  0
  -26.3750  -31.7270   25.0010 C   0  0  1  0  0  0  0  0  0  0  0  0
  -25.3170  -31.4670   26.0970 C   0  0  0  0  0  1  0  0  0  0  0  0
  -26.9210  -30.3540   24.5440 C   0  0  0  0  0  1  0  0  0  0  0  0
  -27.5630  -32.4840   25.6380 C   0  0  0  0  0  1  0  0  0  0  0  0
  -20.3980  -20.4110   23.2460 C   0  0  0  0  0  2  0  0  0  0  0  0
  -21.3230  -19.5390   22.6100 O   0  0  0  0  0  0  0  0  0  0  0  0
  -20.8040  -18.9750   21.4120 C   0  0  0  0  0  2  0  0  0  0  0  0
  -21.8270  -18.0130   20.7940 C   0  0  0  0  0  2  0  0  0  0  0  0
  -23.0550  -18.6890   20.5350 O   0  0  0  0  0  0  0  0  0  0  0  0
  -23.7000  -18.2230   19.3540 C   0  0  0  0  0  2  0  0  0  0  0  0
  -25.1240  -18.7850   19.2260 C   0  0  0  0  0  2  0  0  0  0  0  0
  -26.0070  -18.0530   20.0730 O   0  0  0  0  0  0  0  0  0  0  0  0
  -27.3530  -18.0320   19.6070 C   0  0  0  0  0  2  0  0  0  0  0  0
  -28.3110  -17.7580   20.7800 C   0  0  0  0  0  2  0  0  0  0  0  0
  -29.2120  -16.6770   20.5440 O   0  0  0  0  0  0  0  0  0  0  0  0
  -30.1920  -16.6050   21.5790 C   0  0  0  0  0  2  0  0  0  0  0  0
  -31.3060  -15.6020   21.2430 C   0  0  0  0  0  2  0  0  0  0  0  0
  -31.3430  -13.2570   20.4170 C   0  0  0  0  0  0  0  0  0  0  0  0
  -30.6900  -11.4560   18.8710 C   0  0  0  0  0  2  0  0  0  0  0  0
  -29.7810  -12.0800   17.7870 C   0  0  0  0  0  2  0  0  0  0  0  0
  -28.3080  -12.0740   18.2570 C   0  0  0  0  0  2  0  0  0  0  0  0
  -28.1320  -12.6620   19.6820 C   0  0  0  0  0  3  0  0  0  0  0  0
  -29.1540  -12.0350   20.6610 C   0  0  0  0  0  2  0  0  0  0  0  0
  -30.5000  -12.2380   20.0980 N   0  0  0  0  0  0  0  0  0  0  0  0
  -32.4790  -13.3760   19.9500 O   0  0  0  0  0  0  0  0  0  0  0  0
  -30.7810  -14.2450   21.1200 N   0  0  0  0  0  0  0  0  0  0  0  0
  -29.8470  -14.0920   21.4700 H   0  0  0  0  0  0  0  0  0  0  0  0
  -25.7810  -13.4660   20.3480 C   0  0  0  0  0  0  0  0  0  0  0  0
  -24.6500  -12.7860   20.7190 C   0  0  0  0  0  0  0  0  0  0  0  0
  -25.0070  -11.4050   20.7310 C   0  0  0  0  0  0  0  0  0  0  0  0
  -26.7580  -12.5030   20.1570 N   0  0  0  0  0  0  0  0  0  0  0  0
  -26.2950  -11.2580   20.4430 N   0  0  0  0  0  0  0  0  0  0  0  0
  -24.1820  -10.2070   20.9490 C   0  0  0  0  0  0  0  0  0  0  0  0
  -24.5380   -9.2350   21.9120 C   0  0  0  0  0  3  0  0  0  0  0  0
  -23.7230   -8.1010   22.1190 C   0  0  0  0  0  3  0  0  0  0  0  0
  -22.5400   -7.9320   21.3630 C   0  0  0  0  0  0  0  0  0  0  0  0
  -22.2010   -8.8910   20.3940 C   0  0  0  0  0  3  0  0  0  0  0  0
  -23.0140  -10.0160   20.1830 C   0  0  0  0  0  3  0  0  0  0  0  0
  -21.7050   -6.8460   21.4750 O   0  0  0  0  0  0  0  0  0  0  0  0
  -21.5720   -6.1600   22.6560 C   0  0  0  0  0  0  0  0  0  0  0  0
  -21.1840   -6.8020   23.8520 C   0  0  0  0  0  3  0  0  0  0  0  0
  -20.9940   -6.0470   25.0280 C   0  0  0  0  0  3  0  0  0  0  0  0
  -21.1870   -4.6520   25.0080 C   0  0  0  0  0  0  0  0  0  0  0  0
  -21.5720   -4.0100   23.8170 C   0  0  0  0  0  3  0  0  0  0  0  0
  -21.7630   -4.7630   22.6450 C   0  0  0  0  0  0  0  0  0  0  0  0
  -22.1150   -4.1390   21.4940 F   0  0  0  0  0  0  0  0  0  0  0  0
  -20.9970   -3.9230   26.1310 F   0  0  0  0  0  0  0  0  0  0  0  0
  -23.2890  -13.3720   20.9700 C   0  0  0  0  0  0  0  0  0  0  0  0
  -22.5290  -12.7890   21.8860 N   0  0  0  0  0  0  0  0  0  0  0  0
  -22.9090  -14.3770   20.3770 O   0  0  0  0  0  0  0  0  0  0  0  0
  -22.8510  -11.9730   22.3880 H   0  0  0  0  0  0  0  0  0  0  0  0
  -21.6160  -13.1650   22.1010 H   0  0  0  0  0  0  0  0  0  0  0  0
  -26.0610  -14.8110   20.1460 N   0  0  0  0  0  0  0  0  0  0  0  0
  -25.3380  -15.5230   20.1000 H   0  0  0  0  0  0  0  0  0  0  0  0
  -26.9780  -15.1800   19.9230 H   0  0  0  0  0  0  0  0  0  0  0  0
  2  3  1  0
  2  1  1  0
  4  3  1  0
  5  4  1  0
  5  7  1  0
  6  4  2  0
  8  9  1  0
  8  5  1  0
 10  9  1  0
 11 10  1  0
 12 14  1  0
 12 11  1  0
 13 24  2  0
 14 19  1  0
 15 23  1  0
 15 25  1  0
 16 22  1  0
 16 18  1  0
 17 23  1  0
 18 17  1  0
 19 18  2  0
 20 21  1  0
 20 14  2  0
 21 16  2  0
 22 15  1  0
 23 13  1  0
 25 27  2  0
 26 25  1  0
 28 26  1  0
 29 38  2  0
 29 34  1  0
 30 26  1  0
 30 34  1  0
 31 30  1  0
 32 33  1  0
 32 31  1  0
 33 29  1  0
 34 35  2  0
 35 36  1  0
 37 36  2  0
 38 37  1  0
 39 13  1  0
 39 40  1  0
 39 49  1  0
 40 43  1  0
 41 45  1  0
 41 40  1  0
 42 41  2  0
 45 44  1  0
 47 45  1  0
 47 48  1  0
 47 46  1  0
 49 52  1  1
 49 50  1  0
 51 49  1  0
 53  1  1  0
 54 53  1  0
 55 54  1  0
 56 55  1  0
 57 56  1  0
 58 57  1  0
 59 58  1  0
 59 60  1  0
 61 60  1  0
 61 62  1  0
 63 62  1  0
 63 64  1  0
 65 64  1  0
 66 74  1  0
 67 72  1  0
 68 69  1  0
 68 67  1  0
 70 69  1  0
 70 79  1  0
 70 71  1  0
 72 66  1  0
 72 71  1  0
 73 66  2  0
 74 65  1  0
 74 75  1  0
 76 77  2  0
 77 78  1  0
 77 96  1  0
 78 81  1  0
 79 76  1  0
 79 80  1  0
 80 78  2  0
 81 82  1  0
 82 83  2  0
 84 87  1  0
 84 83  1  0
 85 84  2  0
 86 85  1  0
 86 81  2  0
 87 88  1  0
 88 89  1  0
 89 90  2  0
 91 90  1  0
 91 95  1  0
 92 91  2  0
 93 88  2  0
 93 92  1  0
 94 93  1  0
 96 97  1  0
 97100  1  0
 97 99  1  0
 98 96  2  0
101 76  1  0
102101  1  0
103101  1  0
M  ISO  4  11 101  12 101  66 100  74 100
M  END
>  <TORSDO>  (78) 
F 36

>  <SCORE>  (78) 
13.948

>  <name>  (78) 
95

>  <ligand_id>  (78) 
95

>  <original_smiles>  (78) 
[H]c1c([H])c([H])c2c(c1[H])C([H])([H])C([H])([H])C([H])([H])C2([H])N([H])C(=O)C1([H])N(C(=O)C([H])(N([H])C(=O)C([H])(N([H])C([H])([H])[H])C([H])([H])[H])C(C([H])([H])[H])(C([H])([H])[H])C([H])([H])[H])C([H])([H])c2c([H])c(OC([H])([H])C([H])([H])C([H])([H])C([H])([H])N([H])C(=O)C([H])([H])OC([H])([H])C([H])([H])OC([H])([H])C([H])([H])OC([H])([H])C([H])([H])OC([H])([H])C([H])([H])OC([H])([H])C([H])([H])N([H])C(=O)N3C([H])([H])C([H])([H])C([H])([H])C([H])(n4nc(-c5c([H])c([H])c(Oc6c([H])c([H])c(F)c([H])c6F)c([H])c5[H])c(C(=O)N([H])[H])c4N([H])[H])C3([H])[H])c([H])c([H])c2C1([H])[H]

>  <smiles>  (78) 
[H]c1c([H])c([H])c2c(c1[H])C([H])([H])C([H])([H])C([H])([H])C2([H])N([H])C(=O)C1([H])N(C(=O)C([H])(N([H])C(=O)C([H])(N([H])C([H])([H])[H])C([H])([H])[H])C(C([H])([H])[H])(C([H])([H])[H])C([H])([H])[H])C([H])([H])c2c([H])c(OC([H])([H])C([H])([H])C([H])([H])C([H])([H])N([H])C(=O)C([H])([H])OC([H])([H])C([H])([H])OC([H])([H])C([H])([H])OC([H])([H])C([H])([H])OC([H])([H])C([H])([H])OC([H])([H])C([H])([H])N([H])C(=O)N3C([H])([H])C([H])([H])C([H])([H])C([H])(n4nc(-c5c([H])c([H])c(Oc6c([H])c([H])c(F)c([H])c6F)c([H])c5[H])c(C(=O)N([H])[H])c4N([H])[H])C3([H])[H])c([H])c([H])c2C1([H])[H]

$$$$
