0:0:0
     RDKit          3D

107114  0  0  1  0  0  0  0  0999 V2000
  -28.5980  -17.5560   15.6750 C   0  0  0  0  0  2  0  0  0  0  0  0
  -27.5040  -17.9670   16.4850 O   0  0  0  0  0  0  0  0  0  0  0  0
  -27.6750  -17.7220   17.8740 C   0  0  0  0  0  2  0  0  0  0  0  0
  -28.2360  -18.9700   18.5840 C   0  0  0  0  0  2  0  0  0  0  0  0
  -29.6110  -19.1590   18.2740 O   0  0  0  0  0  0  0  0  0  0  0  0
  -30.1000  -20.4200   18.7070 C   0  0  0  0  0  2  0  0  0  0  0  0
  -31.5620  -20.6020   18.2790 C   0  0  0  0  0  2  0  0  0  0  0  0
  -32.3910  -19.6520   18.9420 O   0  0  0  0  0  0  0  0  0  0  0  0
  -33.7740  -19.9960   18.9260 C   0  0  0  0  0  2  0  0  0  0  0  0
  -34.1290  -20.9520   20.0880 C   0  0  0  0  0  2  0  0  0  0  0  0
  -34.7060  -20.2750   21.2080 O   0  0  0  0  0  0  0  0  0  0  0  0
  -33.9570  -19.1900   21.7480 C   0  0  0  0  0  2  0  0  0  0  0  0
  -32.6780  -19.6500   22.4670 C   0  0  0  0  0  2  0  0  0  0  0  0
  -31.9990  -18.5070   22.9900 O   0  0  0  0  0  0  0  0  0  0  0  0
  -30.6360  -18.4040   22.5920 C   0  0  0  0  0  2  0  0  0  0  0  0
  -30.4980  -17.5830   21.2980 C   0  0  0  0  0  2  0  0  0  0  0  0
  -31.1080  -15.1500   21.3150 C   0  0  0  0  0  0  0  0  0  0  0  0
  -31.2340  -12.6860   21.2170 C   0  0  0  0  0  2  0  0  0  0  0  0
  -30.6490  -12.1600   19.8930 C   0  0  0  0  0  2  0  0  0  0  0  0
  -29.1200  -12.0090   19.9780 C   0  0  0  0  0  2  0  0  0  0  0  0
  -28.4240  -13.2680   20.5550 C   0  0  0  0  0  3  0  0  0  0  0  0
  -29.1200  -13.7040   21.8590 C   0  0  0  0  0  2  0  0  0  0  0  0
  -30.5480  -13.9390   21.5600 N   0  0  0  0  0  0  0  0  0  0  0  0
  -32.2460  -15.3010   20.8670 O   0  0  0  0  0  0  0  0  0  0  0  0
  -30.2950  -16.1740   21.5930 N   0  0  0  0  0  0  0  0  0  0  0  0
  -29.4020  -15.9240   21.9960 H   0  0  0  0  0  0  0  0  0  0  0  0
  -25.9510  -13.9590   20.7810 C   0  0  0  0  0  0  0  0  0  0  0  0
  -24.8080  -13.2190   20.9430 C   0  0  0  0  0  0  0  0  0  0  0  0
  -25.2270  -11.8560   21.0080 C   0  0  0  0  0  0  0  0  0  0  0  0
  -26.9940  -13.0450   20.7580 N   0  0  0  0  0  0  0  0  0  0  0  0
  -26.5510  -11.7760   20.9470 N   0  0  0  0  0  0  0  0  0  0  0  0
  -24.4430  -10.6170   21.0740 C   0  0  0  0  0  0  0  0  0  0  0  0
  -24.5990   -9.7010   22.1370 C   0  0  0  0  0  3  0  0  0  0  0  0
  -23.8230   -8.5210   22.1860 C   0  0  0  0  0  3  0  0  0  0  0  0
  -22.8770   -8.2540   21.1680 C   0  0  0  0  0  0  0  0  0  0  0  0
  -22.7430   -9.1580   20.1010 C   0  0  0  0  0  3  0  0  0  0  0  0
  -23.5180  -10.3280   20.0520 C   0  0  0  0  0  3  0  0  0  0  0  0
  -22.0960   -7.1250   21.1190 O   0  0  0  0  0  0  0  0  0  0  0  0
  -21.5930   -6.5510   22.2590 C   0  0  0  0  0  0  0  0  0  0  0  0
  -20.7980   -7.2750   23.1720 C   0  0  0  0  0  3  0  0  0  0  0  0
  -20.2440   -6.6250   24.2930 C   0  0  0  0  0  3  0  0  0  0  0  0
  -20.4710   -5.2500   24.4940 C   0  0  0  0  0  0  0  0  0  0  0  0
  -21.2560   -4.5260   23.5800 C   0  0  0  0  0  3  0  0  0  0  0  0
  -21.8130   -5.1740   22.4640 C   0  0  0  0  0  0  0  0  0  0  0  0
  -22.5520   -4.4680   21.5770 F   0  0  0  0  0  0  0  0  0  0  0  0
  -19.9310   -4.6210   25.5660 F   0  0  0  0  0  0  0  0  0  0  0  0
  -23.3970  -13.7360   20.9500 C   0  0  0  0  0  0  0  0  0  0  0  0
  -22.5060  -13.0830   21.6890 N   0  0  0  0  0  0  0  0  0  0  0  0
  -23.0860  -14.7520   20.3310 O   0  0  0  0  0  0  0  0  0  0  0  0
  -22.7590  -12.2610   22.2160 H   0  0  0  0  0  0  0  0  0  0  0  0
  -21.5500  -13.4100   21.7260 H   0  0  0  0  0  0  0  0  0  0  0  0
  -26.1910  -15.3210   20.6430 N   0  0  0  0  0  0  0  0  0  0  0  0
  -25.4480  -16.0100   20.6530 H   0  0  0  0  0  0  0  0  0  0  0  0
  -27.1120  -15.7320   20.5720 H   0  0  0  0  0  0  0  0  0  0  0  0
  -28.8850  -18.6860   14.6850 C   0  0  0  0  0  2  0  0  0  0  0  0
  -29.4450  -19.7810   15.3970 O   0  0  0  0  0  0  0  0  0  0  0  0
  -29.6300  -20.9200   14.5760 C   0  0  0  0  0  2  0  0  0  0  0  0
  -29.9070  -22.1280   15.4740 C   0  0  0  0  0  2  0  0  0  0  0  0
  -31.8430  -22.8600   16.8770 C   0  0  0  0  0  0  0  0  0  0  0  0
  -31.3150  -22.1930   15.8450 N   0  0  0  0  0  0  0  0  0  0  0  0
  -33.0540  -22.8260   17.0830 O   0  0  0  0  0  0  0  0  0  0  0  0
  -31.9630  -21.6700   15.2720 H   0  0  0  0  0  0  0  0  0  0  0  0
  -30.9390  -23.6750   17.8160 C   0  0  0  0  0  2  0  0  0  0  0  0
  -31.5400  -24.9460   18.0350 O   0  0  0  0  0  0  0  0  0  0  0  0
  -30.9730  -25.6830   19.1100 C   0  0  0  0  0  2  0  0  0  0  0  0
  -29.4780  -25.9920   18.9180 C   0  0  0  0  0  2  0  0  0  0  0  0
  -29.1470  -27.0430   19.8060 O   0  0  0  0  0  0  0  0  0  0  0  0
  -24.6710  -31.4990   22.9700 C   0  0  0  0  0  0  0  0  0  0  0  0
  -27.8700  -27.5500   19.7860 C   0  0  0  0  0  0  0  0  0  0  0  0
  -23.6600  -30.0300   21.2530 C   0  0  0  0  0  3  0  0  0  0  0  0
  -25.3050  -28.7300   19.8050 C   0  0  0  0  0  0  0  0  0  0  0  0
  -26.1210  -30.6970   21.1160 C   0  0  0  0  0  2  0  0  0  0  0  0
  -26.3750  -29.3690   20.4380 C   0  0  0  0  0  0  0  0  0  0  0  0
  -27.6550  -28.7810   20.4350 C   0  0  0  0  0  3  0  0  0  0  0  0
  -26.7790  -26.9060   19.1540 C   0  0  0  0  0  3  0  0  0  0  0  0
  -25.4990  -27.4920   19.1630 C   0  0  0  0  0  3  0  0  0  0  0  0
  -23.9680  -29.4320   19.8530 C   0  0  0  0  0  2  0  0  0  0  0  0
  -24.8320  -30.7560   21.8400 N   0  0  0  0  0  0  0  0  0  0  0  0
  -23.5580  -31.6230   23.4990 O   0  0  0  0  0  0  0  0  0  0  0  0
  -23.1210  -28.9040   22.1630 C   0  0  0  0  0  0  0  0  0  0  0  0
  -21.8300  -28.5740   22.0030 N   0  0  0  0  0  0  0  0  0  0  0  0
  -23.8610  -28.3320   22.9680 O   0  0  0  0  0  0  0  0  0  0  0  0
  -21.2880  -29.0990   21.3310 H   0  0  0  0  0  0  0  0  0  0  0  0
  -18.6120  -26.9770   22.3810 C   0  0  0  0  0  0  0  0  0  0  0  0
  -21.1150  -27.5200   22.7230 C   0  0  0  0  0  3  0  0  0  0  0  0
  -21.3960  -26.1320   22.1010 C   0  0  0  0  0  2  0  0  0  0  0  0
  -20.3590  -25.7190   21.0520 C   0  0  0  0  0  2  0  0  0  0  0  0
  -18.9590  -25.6800   21.6680 C   0  0  0  0  0  2  0  0  0  0  0  0
  -19.6250  -27.8470   22.8630 C   0  0  0  0  0  0  0  0  0  0  0  0
  -19.2500  -29.0550   23.4900 C   0  0  0  0  0  3  0  0  0  0  0  0
  -17.8930  -29.3970   23.6390 C   0  0  0  0  0  3  0  0  0  0  0  0
  -16.8930  -28.5260   23.1730 C   0  0  0  0  0  3  0  0  0  0  0  0
  -17.2540  -27.3170   22.5510 C   0  0  0  0  0  3  0  0  0  0  0  0
  -25.8670  -32.2480   23.6360 C   0  0  0  0  0  3  0  0  0  0  0  0
  -26.4360  -31.5090   24.9090 C   0  0  1  0  0  0  0  0  0  0  0  0
  -25.3550  -31.1470   25.9530 C   0  0  0  0  0  1  0  0  0  0  0  0
  -27.1560  -30.2010   24.5010 C   0  0  0  0  0  1  0  0  0  0  0  0
  -27.4950  -32.3970   25.6020 C   0  0  0  0  0  1  0  0  0  0  0  0
  -25.4060  -33.6000   23.9810 N   0  0  0  0  0  0  0  0  0  0  0  0
  -25.6650  -34.6980   23.2580 C   0  0  0  0  0  0  0  0  0  0  0  0
  -26.3890  -34.6860   22.2580 O   0  0  0  0  0  0  0  0  0  0  0  0
  -24.7630  -33.6740   24.7560 H   0  0  0  0  0  0  0  0  0  0  0  0
  -23.7900  -36.3200   22.8410 C   0  0  0  0  0  1  0  0  0  0  0  0
  -25.0180  -36.0180   23.7160 C   0  0  0  0  0  3  0  0  0  0  0  0
  -27.0090  -37.0800   24.6850 C   0  0  0  0  0  1  0  0  0  0  0  0
  -25.9470  -37.1690   23.6850 N   0  0  0  0  0  0  0  0  0  0  0  0
  -25.4460  -38.0420   23.8310 H   0  0  0  0  0  0  0  0  0  0  0  0
  1  2  1  0
  2  3  1  0
  3  4  1  0
  5  4  1  0
  5  6  1  0
  7  6  1  0
  7  8  1  0
  9  8  1  0
  9 10  1  0
 10 11  1  0
 11 12  1  0
 12 13  1  0
 13 14  1  0
 15 14  1  0
 16 25  1  0
 16 15  1  0
 17 23  1  0
 17 25  1  0
 18 23  1  0
 19 20  1  0
 19 18  1  0
 21 20  1  0
 21 30  1  0
 21 22  1  0
 23 22  1  0
 24 17  2  0
 25 26  1  0
 27 28  2  0
 28 47  1  0
 28 29  1  0
 29 32  1  0
 30 27  1  0
 30 31  1  0
 31 29  2  0
 32 33  1  0
 33 34  2  0
 35 34  1  0
 36 35  2  0
 37 36  1  0
 37 32  2  0
 38 35  1  0
 38 39  1  0
 39 44  2  0
 39 40  1  0
 40 41  2  0
 41 42  1  0
 42 46  1  0
 43 42  2  0
 44 43  1  0
 45 44  1  0
 47 48  1  0
 48 51  1  0
 48 50  1  0
 49 47  2  0
 52 53  1  0
 52 27  1  0
 54 52  1  0
 55 56  1  0
 55  1  1  0
 57 56  1  0
 57 58  1  0
 58 60  1  0
 59 61  2  0
 59 63  1  0
 60 59  1  0
 62 60  1  0
 63 64  1  0
 64 65  1  0
 66 65  1  0
 66 67  1  0
 68 79  2  0
 69 67  1  0
 69 74  1  0
 70 78  1  0
 70 80  1  0
 71 77  1  0
 71 73  1  0
 72 78  1  0
 73 72  1  0
 74 73  2  0
 75 76  1  0
 75 69  2  0
 76 71  2  0
 77 70  1  0
 78 68  1  0
 80 82  2  0
 81 80  1  0
 83 81  1  0
 84 93  2  0
 84 89  1  0
 85 81  1  0
 85 89  1  0
 86 85  1  0
 87 88  1  0
 87 86  1  0
 88 84  1  0
 89 90  2  0
 90 91  1  0
 92 91  2  0
 93 92  1  0
 94 68  1  0
 94 99  1  0
 94 95  1  0
 95 98  1  1
 95 96  1  0
 97 95  1  0
 99102  1  0
100104  1  0
100 99  1  0
101100  2  0
104103  1  0
106104  1  0
106107  1  0
106105  1  0
M  ISO  4  17 100  25 100  66 101  67 101
M  END
>  <TORSDO>  (1) 
F 40

>  <SCORE>  (1) 
-4.053

>  <name>  (1) 
0

>  <ligand_id>  (1) 
0

>  <original_smiles>  (1) 
[H]c1c([H])c([H])c2c(c1[H])C([H])([H])C([H])([H])C([H])([H])C2([H])N([H])C(=O)C1([H])N(C(=O)C([H])(N([H])C(=O)C([H])(N([H])C([H])([H])[H])C([H])([H])[H])C(C([H])([H])[H])(C([H])([H])[H])C([H])([H])[H])C([H])([H])c2c([H])c(OC([H])([H])C([H])([H])OC([H])([H])C(=O)N([H])C([H])([H])C([H])([H])OC([H])([H])C([H])([H])OC([H])([H])C([H])([H])OC([H])([H])C([H])([H])OC([H])([H])C([H])([H])OC([H])([H])C([H])([H])OC([H])([H])C([H])([H])N([H])C(=O)N3C([H])([H])C([H])([H])C([H])([H])C([H])(n4nc(-c5c([H])c([H])c(Oc6c([H])c([H])c(F)c([H])c6F)c([H])c5[H])c(C(=O)N([H])[H])c4N([H])[H])C3([H])[H])c([H])c([H])c2C1([H])[H]

>  <smiles>  (1) 
[H]c1c([H])c([H])c2c(c1[H])C([H])([H])C([H])([H])C([H])([H])C2([H])N([H])C(=O)C1([H])N(C(=O)C([H])(N([H])C(=O)C([H])(N([H])C([H])([H])[H])C([H])([H])[H])C(C([H])([H])[H])(C([H])([H])[H])C([H])([H])[H])C([H])([H])c2c([H])c(OC([H])([H])C([H])([H])OC([H])([H])C(=O)N([H])C([H])([H])C([H])([H])OC([H])([H])C([H])([H])OC([H])([H])C([H])([H])OC([H])([H])C([H])([H])OC([H])([H])C([H])([H])OC([H])([H])C([H])([H])OC([H])([H])C([H])([H])N([H])C(=O)N3C([H])([H])C([H])([H])C([H])([H])C([H])(n4nc(-c5c([H])c([H])c(Oc6c([H])c([H])c(F)c([H])c6F)c([H])c5[H])c(C(=O)N([H])[H])c4N([H])[H])C3([H])[H])c([H])c([H])c2C1([H])[H]

$$$$
1:0:0
     RDKit          3D

109116  0  0  1  0  0  0  0  0999 V2000
  -30.7740  -22.0140   21.8430 C   0  0  0  0  0  2  0  0  0  0  0  0
  -30.1100  -21.0990   22.8000 N   0  0  0  0  0  4  0  0  0  0  0  0
  -29.1220  -21.0810   22.5620 H   0  0  0  0  0  0  0  0  0  0  0  0
  -30.4890  -20.1680   22.7410 H   0  0  0  0  0  0  0  0  0  0  0  0
  -30.0580  -21.5520   24.2010 C   0  0  0  0  0  2  0  0  0  0  0  0
  -28.6830  -22.1740   24.4210 C   0  0  0  0  0  0  0  0  0  0  0  0
  -28.5800  -23.1790   25.2970 N   0  0  0  0  0  0  0  0  0  0  0  0
  -27.7300  -21.7520   23.7610 O   0  0  0  0  0  0  0  0  0  0  0  0
  -29.4070  -23.4580   25.8080 H   0  0  0  0  0  0  0  0  0  0  0  0
  -27.3930  -24.0190   25.4520 C   0  0  0  0  0  2  0  0  0  0  0  0
  -27.6000  -25.3930   24.7890 C   0  0  0  0  0  2  0  0  0  0  0  0
  -28.2560  -25.2580   23.5270 O   0  0  0  0  0  0  0  0  0  0  0  0
  -27.7800  -26.1620   22.5380 C   0  0  0  0  0  2  0  0  0  0  0  0
  -28.8520  -26.4140   21.4460 C   0  0  0  0  0  2  0  0  0  0  0  0
  -28.3350  -26.6730   20.1330 O   0  0  0  0  0  0  0  0  0  0  0  0
  -24.6100  -31.8710   23.2130 C   0  0  0  0  0  0  0  0  0  0  0  0
  -27.2290  -27.4820   20.0920 C   0  0  0  0  0  0  0  0  0  0  0  0
  -23.3950  -30.4960   21.5530 C   0  0  0  0  0  3  0  0  0  0  0  0
  -24.8430  -28.9730   20.1090 C   0  0  0  0  0  0  0  0  0  0  0  0
  -25.9180  -30.8540   21.3590 C   0  0  0  0  0  2  0  0  0  0  0  0
  -25.9990  -29.4930   20.7070 C   0  0  0  0  0  0  0  0  0  0  0  0
  -27.1990  -28.7530   20.7040 C   0  0  0  0  0  3  0  0  0  0  0  0
  -26.0710  -26.9800   19.4660 C   0  0  0  0  0  3  0  0  0  0  0  0
  -24.8710  -27.7150   19.4850 C   0  0  0  0  0  3  0  0  0  0  0  0
  -23.5990  -29.8310   20.1660 C   0  0  0  0  0  2  0  0  0  0  0  0
  -24.6590  -31.0860   22.1010 N   0  0  0  0  0  0  0  0  0  0  0  0
  -23.5310  -32.1440   23.7550 O   0  0  0  0  0  0  0  0  0  0  0  0
  -22.7390  -29.4650   22.5000 C   0  0  0  0  0  0  0  0  0  0  0  0
  -21.4120  -29.3010   22.3750 N   0  0  0  0  0  0  0  0  0  0  0  0
  -23.4190  -28.8180   23.3000 O   0  0  0  0  0  0  0  0  0  0  0  0
  -20.9260  -29.8690   21.6950 H   0  0  0  0  0  0  0  0  0  0  0  0
  -18.0270  -28.1380   22.8510 C   0  0  0  0  0  0  0  0  0  0  0  0
  -20.5850  -28.3640   23.1340 C   0  0  0  0  0  3  0  0  0  0  0  0
  -20.6770  -26.9380   22.5430 C   0  0  0  0  0  2  0  0  0  0  0  0
  -19.5750  -26.6370   21.5230 C   0  0  0  0  0  2  0  0  0  0  0  0
  -18.1920  -26.7930   22.1640 C   0  0  0  0  0  2  0  0  0  0  0  0
  -19.1510  -28.8820   23.2920 C   0  0  0  0  0  0  0  0  0  0  0  0
  -18.9450  -30.1450   23.8910 C   0  0  0  0  0  3  0  0  0  0  0  0
  -17.6450  -30.6590   24.0570 C   0  0  0  0  0  3  0  0  0  0  0  0
  -16.5330  -29.9090   23.6340 C   0  0  0  0  0  3  0  0  0  0  0  0
  -16.7250  -28.6510   23.0350 C   0  0  0  0  0  3  0  0  0  0  0  0
  -25.9010  -32.4840   23.8420 C   0  0  0  0  0  3  0  0  0  0  0  0
  -26.4450  -31.6590   25.0720 C   0  0  1  0  0  0  0  0  0  0  0  0
  -25.3720  -31.3670   26.1460 C   0  0  0  0  0  1  0  0  0  0  0  0
  -27.0250  -30.3030   24.6040 C   0  0  0  0  0  1  0  0  0  0  0  0
  -27.6060  -32.4250   25.7470 C   0  0  0  0  0  1  0  0  0  0  0  0
  -25.5880  -33.8640   24.2360 N   0  0  0  0  0  0  0  0  0  0  0  0
  -25.9030  -34.9490   23.5160 C   0  0  0  0  0  0  0  0  0  0  0  0
  -26.5580  -34.8920   22.4720 O   0  0  0  0  0  0  0  0  0  0  0  0
  -25.0050  -33.9820   25.0520 H   0  0  0  0  0  0  0  0  0  0  0  0
  -24.1490  -36.7310   23.2630 C   0  0  0  0  0  1  0  0  0  0  0  0
  -25.4100  -36.3130   24.0350 C   0  0  0  0  0  3  0  0  0  0  0  0
  -27.5590  -37.1810   24.8460 C   0  0  0  0  0  1  0  0  0  0  0  0
  -26.4290  -37.3810   23.9410 N   0  0  0  0  0  0  0  0  0  0  0  0
  -26.0190  -38.2900   24.1410 H   0  0  0  0  0  0  0  0  0  0  0  0
  -30.0520  -21.9950   20.4930 C   0  0  0  0  0  2  0  0  0  0  0  0
  -28.7250  -22.4530   20.7280 O   0  0  0  0  0  0  0  0  0  0  0  0
  -27.9400  -22.5150   19.5440 C   0  0  0  0  0  2  0  0  0  0  0  0
  -26.6680  -23.3260   19.8220 C   0  0  0  0  0  2  0  0  0  0  0  0
  -25.7520  -22.5590   20.5890 O   0  0  0  0  0  0  0  0  0  0  0  0
  -24.5510  -23.2520   20.9120 C   0  0  0  0  0  2  0  0  0  0  0  0
  -23.5190  -22.2900   21.5380 C   0  0  0  0  0  2  0  0  0  0  0  0
  -22.8690  -21.4920   20.5430 O   0  0  0  0  0  0  0  0  0  0  0  0
  -23.1930  -20.1000   20.5550 C   0  0  0  0  0  2  0  0  0  0  0  0
  -24.6530  -19.8690   20.1390 C   0  0  0  0  0  2  0  0  0  0  0  0
  -24.9710  -18.4970   19.9470 O   0  0  0  0  0  0  0  0  0  0  0  0
  -26.3130  -18.3180   19.4900 C   0  0  0  0  0  2  0  0  0  0  0  0
  -27.3650  -18.4630   20.6100 C   0  0  0  0  0  2  0  0  0  0  0  0
  -27.7610  -17.1910   21.0960 O   0  0  0  0  0  0  0  0  0  0  0  0
  -28.8170  -17.2770   22.0490 C   0  0  0  0  0  2  0  0  0  0  0  0
  -29.4380  -15.8870   22.1980 C   0  0  0  0  0  2  0  0  0  0  0  0
  -30.6910  -14.4110   20.6070 C   0  0  0  0  0  0  0  0  0  0  0  0
  -30.4270  -12.2840   19.4020 C   0  0  0  0  0  2  0  0  0  0  0  0
  -29.4900  -12.5100   18.1960 C   0  0  0  0  0  2  0  0  0  0  0  0
  -28.0080  -12.3760   18.6090 C   0  0  0  0  0  2  0  0  0  0  0  0
  -27.6660  -13.1870   19.8880 C   0  0  0  0  0  3  0  0  0  0  0  0
  -28.7060  -12.8830   20.9840 C   0  0  0  0  0  2  0  0  0  0  0  0
  -30.0320  -13.2320   20.4530 N   0  0  0  0  0  0  0  0  0  0  0  0
  -31.8120  -14.6250   20.1460 O   0  0  0  0  0  0  0  0  0  0  0  0
  -29.9220  -15.4670   20.8840 N   0  0  0  0  0  0  0  0  0  0  0  0
  -30.2400  -16.2700   20.3650 H   0  0  0  0  0  0  0  0  0  0  0  0
  -25.2630  -13.8110   20.5760 C   0  0  0  0  0  0  0  0  0  0  0  0
  -24.1820  -13.0410   20.9130 C   0  0  0  0  0  0  0  0  0  0  0  0
  -24.6340  -11.6870   20.8700 C   0  0  0  0  0  0  0  0  0  0  0  0
  -26.3040  -12.9240   20.3460 N   0  0  0  0  0  0  0  0  0  0  0  0
  -25.9260  -11.6410   20.5760 N   0  0  0  0  0  0  0  0  0  0  0  0
  -23.8990  -10.4280   21.0400 C   0  0  0  0  0  0  0  0  0  0  0  0
  -24.3570   -9.4210   21.9190 C   0  0  0  0  0  3  0  0  0  0  0  0
  -23.6250   -8.2230   22.0750 C   0  0  0  0  0  3  0  0  0  0  0  0
  -22.4240   -8.0270   21.3530 C   0  0  0  0  0  0  0  0  0  0  0  0
  -21.9870   -9.0230   20.4620 C   0  0  0  0  0  3  0  0  0  0  0  0
  -22.7190  -10.2110   20.3030 C   0  0  0  0  0  3  0  0  0  0  0  0
  -21.6590   -6.8880   21.4240 O   0  0  0  0  0  0  0  0  0  0  0  0
  -21.6830   -6.0740   22.5280 C   0  0  0  0  0  0  0  0  0  0  0  0
  -21.4010   -6.5640   23.8220 C   0  0  0  0  0  3  0  0  0  0  0  0
  -21.3650   -5.6780   24.9180 C   0  0  0  0  0  3  0  0  0  0  0  0
  -21.6050   -4.3050   24.7210 C   0  0  0  0  0  0  0  0  0  0  0  0
  -21.8820   -3.8140   23.4330 C   0  0  0  0  0  3  0  0  0  0  0  0
  -21.9180   -4.6970   22.3400 C   0  0  0  0  0  0  0  0  0  0  0  0
  -22.1630   -4.2170   21.0970 F   0  0  0  0  0  0  0  0  0  0  0  0
  -21.5630   -3.4520   25.7720 F   0  0  0  0  0  0  0  0  0  0  0  0
  -22.7870  -13.5240   21.1830 C   0  0  0  0  0  0  0  0  0  0  0  0
  -22.0520  -12.8240   22.0390 N   0  0  0  0  0  0  0  0  0  0  0  0
  -22.3550  -14.5560   20.6720 O   0  0  0  0  0  0  0  0  0  0  0  0
  -22.4120  -11.9860   22.4730 H   0  0  0  0  0  0  0  0  0  0  0  0
  -21.1160  -13.1290   22.2640 H   0  0  0  0  0  0  0  0  0  0  0  0
  -25.4430  -15.1810   20.4430 N   0  0  0  0  0  0  0  0  0  0  0  0
  -24.6970  -15.8480   20.6100 H   0  0  0  0  0  0  0  0  0  0  0  0
  -26.3520  -15.6260   20.3690 H   0  0  0  0  0  0  0  0  0  0  0  0
  1  2  1  0
  2  5  1  0
  3  2  1  0
  4  2  1  0
  5  6  1  0
  6  7  1  0
  7 10  1  0
  7  9  1  0
  8  6  2  0
 11 10  1  0
 12 11  1  0
 13 12  1  0
 14 13  1  0
 15 14  1  0
 16 27  2  0
 17 15  1  0
 17 22  1  0
 18 26  1  0
 18 28  1  0
 19 25  1  0
 19 21  1  0
 20 26  1  0
 21 20  1  0
 22 21  2  0
 23 24  1  0
 23 17  2  0
 24 19  2  0
 25 18  1  0
 26 16  1  0
 28 30  2  0
 29 28  1  0
 31 29  1  0
 32 41  2  0
 32 37  1  0
 33 29  1  0
 33 37  1  0
 34 33  1  0
 35 36  1  0
 35 34  1  0
 36 32  1  0
 37 38  2  0
 38 39  1  0
 40 39  2  0
 41 40  1  0
 42 16  1  0
 42 47  1  0
 42 43  1  0
 43 46  1  1
 43 44  1  0
 45 43  1  0
 47 50  1  0
 48 52  1  0
 48 47  1  0
 49 48  2  0
 52 51  1  0
 54 52  1  0
 54 55  1  0
 54 53  1  0
 56 57  1  0
 56  1  1  0
 58 59  1  0
 58 57  1  0
 59 60  1  0
 60 61  1  0
 61 62  1  0
 63 64  1  0
 63 62  1  0
 65 64  1  0
 66 65  1  0
 67 66  1  0
 67 68  1  0
 68 69  1  0
 69 70  1  0
 70 71  1  0
 72 80  1  0
 73 78  1  0
 74 75  1  0
 74 73  1  0
 76 75  1  0
 76 85  1  0
 76 77  1  0
 78 72  1  0
 78 77  1  0
 79 72  2  0
 80 71  1  0
 81 80  1  0
 82 83  2  0
 83102  1  0
 84 83  1  0
 84 87  1  0
 85 82  1  0
 85 86  1  0
 86 84  2  0
 87 88  1  0
 88 89  2  0
 90 93  1  0
 90 89  1  0
 91 90  2  0
 92 91  1  0
 92 87  2  0
 93 94  1  0
 94 95  1  0
 95 96  2  0
 97 96  1  0
 97101  1  0
 98 97  2  0
 99 94  2  0
 99 98  1  0
100 99  1  0
102103  1  0
103106  1  0
103105  1  0
104102  2  0
107 82  1  0
107108  1  0
109107  1  0
M  ISO  4  14 101  15 101  72 100  80 100
M  END
>  <TORSDO>  (2) 
F 40

>  <SCORE>  (2) 
11.125

>  <name>  (2) 
1

>  <ligand_id>  (2) 
1

>  <original_smiles>  (2) 
[H]c1c([H])c([H])c2c(c1[H])C([H])([H])C([H])([H])C([H])([H])C2([H])N([H])C(=O)C1([H])N(C(=O)C([H])(N([H])C(=O)C([H])(N([H])C([H])([H])[H])C([H])([H])[H])C(C([H])([H])[H])(C([H])([H])[H])C([H])([H])[H])C([H])([H])c2c([H])c(OC([H])([H])C([H])([H])OC([H])([H])C([H])([H])N([H])C(=O)C([H])([H])[N+]([H])([H])C([H])([H])C([H])([H])OC([H])([H])C([H])([H])OC([H])([H])C([H])([H])OC([H])([H])C([H])([H])OC([H])([H])C([H])([H])OC([H])([H])C([H])([H])N([H])C(=O)N3C([H])([H])C([H])([H])C([H])([H])C([H])(n4nc(-c5c([H])c([H])c(Oc6c([H])c([H])c(F)c([H])c6F)c([H])c5[H])c(C(=O)N([H])[H])c4N([H])[H])C3([H])[H])c([H])c([H])c2C1([H])[H]

>  <smiles>  (2) 
[H]c1c([H])c([H])c2c(c1[H])C([H])([H])C([H])([H])C([H])([H])C2([H])N([H])C(=O)C1([H])N(C(=O)C([H])(N([H])C(=O)C([H])(N([H])C([H])([H])[H])C([H])([H])[H])C(C([H])([H])[H])(C([H])([H])[H])C([H])([H])[H])C([H])([H])c2c([H])c(OC([H])([H])C([H])([H])OC([H])([H])C([H])([H])N([H])C(=O)C([H])([H])[N+]([H])([H])C([H])([H])C([H])([H])OC([H])([H])C([H])([H])OC([H])([H])C([H])([H])OC([H])([H])C([H])([H])OC([H])([H])C([H])([H])OC([H])([H])C([H])([H])N([H])C(=O)N3C([H])([H])C([H])([H])C([H])([H])C([H])(n4nc(-c5c([H])c([H])c(Oc6c([H])c([H])c(F)c([H])c6F)c([H])c5[H])c(C(=O)N([H])[H])c4N([H])[H])C3([H])[H])c([H])c([H])c2C1([H])[H]

$$$$
3:0:0
     RDKit          3D

107114  0  0  1  0  0  0  0  0999 V2000
  -23.0550  -17.7980   16.6970 C   0  0  0  0  0  2  0  0  0  0  0  0
  -23.6710  -16.8620   17.5720 O   0  0  0  0  0  0  0  0  0  0  0  0
  -23.2990  -17.0480   18.9300 C   0  0  0  0  0  2  0  0  0  0  0  0
  -24.3030  -16.3260   19.8370 C   0  0  0  0  0  2  0  0  0  0  0  0
  -25.6180  -16.6360   19.4030 O   0  0  0  0  0  0  0  0  0  0  0  0
  -26.6200  -15.9380   20.1270 C   0  0  0  0  0  2  0  0  0  0  0  0
  -27.9450  -16.0950   19.3750 C   0  0  0  0  0  2  0  0  0  0  0  0
  -28.3050  -17.4680   19.2940 O   0  0  0  0  0  0  0  0  0  0  0  0
  -29.7020  -17.6290   19.0980 C   0  0  0  0  0  2  0  0  0  0  0  0
  -30.0290  -19.1070   18.8190 C   0  0  0  0  0  2  0  0  0  0  0  0
  -31.3920  -19.3990   19.1130 O   0  0  0  0  0  0  0  0  0  0  0  0
  -32.3060  -19.0010   18.0970 C   0  0  0  0  0  2  0  0  0  0  0  0
  -33.7180  -19.4910   18.4700 C   0  0  0  0  0  2  0  0  0  0  0  0
  -34.6870  -19.1790   17.4720 O   0  0  0  0  0  0  0  0  0  0  0  0
  -35.2680  -17.8930   17.6330 C   0  0  0  0  0  2  0  0  0  0  0  0
  -36.4350  -17.7040   16.6630 C   0  0  0  0  0  2  0  0  0  0  0  0
  -37.6770  -15.6930   15.9000 C   0  0  0  0  0  0  0  0  0  0  0  0
  -38.5620  -13.4930   15.2250 C   0  0  0  0  0  2  0  0  0  0  0  0
  -37.5220  -12.7070   14.4030 C   0  0  0  0  0  2  0  0  0  0  0  0
  -36.5620  -11.9270   15.3220 C   0  0  0  0  0  2  0  0  0  0  0  0
  -35.9810  -12.8060   16.4600 C   0  0  0  0  0  3  0  0  0  0  0  0
  -37.1090  -13.5890   17.1700 C   0  0  0  0  0  2  0  0  0  0  0  0
  -37.8440  -14.3720   16.1570 N   0  0  0  0  0  0  0  0  0  0  0  0
  -38.1660  -16.2750   14.9280 O   0  0  0  0  0  0  0  0  0  0  0  0
  -36.9170  -16.3360   16.7840 N   0  0  0  0  0  0  0  0  0  0  0  0
  -36.5820  -15.7950   17.5680 H   0  0  0  0  0  0  0  0  0  0  0  0
  -33.9130  -12.2150   17.8830 C   0  0  0  0  0  0  0  0  0  0  0  0
  -33.6260  -11.1350   18.6730 C   0  0  0  0  0  0  0  0  0  0  0  0
  -34.7820  -10.2980   18.6300 C   0  0  0  0  0  0  0  0  0  0  0  0
  -35.1970  -12.0060   17.4020 N   0  0  0  0  0  0  0  0  0  0  0  0
  -35.7360  -10.8650   17.9030 N   0  0  0  0  0  0  0  0  0  0  0  0
  -35.0150   -8.9620   19.1940 C   0  0  0  0  0  0  0  0  0  0  0  0
  -36.1080   -8.7030   20.0500 C   0  0  0  0  0  3  0  0  0  0  0  0
  -36.3030   -7.4160   20.5940 C   0  0  0  0  0  3  0  0  0  0  0  0
  -35.3960   -6.3740   20.2880 C   0  0  0  0  0  0  0  0  0  0  0  0
  -34.3210   -6.6310   19.4200 C   0  0  0  0  0  3  0  0  0  0  0  0
  -34.1320   -7.9110   18.8750 C   0  0  0  0  0  3  0  0  0  0  0  0
  -35.5160   -5.0850   20.7490 O   0  0  0  0  0  0  0  0  0  0  0  0
  -36.1390   -4.8030   21.9380 C   0  0  0  0  0  0  0  0  0  0  0  0
  -35.7100   -5.3700   23.1580 C   0  0  0  0  0  3  0  0  0  0  0  0
  -36.3350   -5.0010   24.3650 C   0  0  0  0  0  3  0  0  0  0  0  0
  -37.3810   -4.0580   24.3580 C   0  0  0  0  0  0  0  0  0  0  0  0
  -37.8060   -3.4870   23.1450 C   0  0  0  0  0  3  0  0  0  0  0  0
  -37.1840   -3.8570   21.9390 C   0  0  0  0  0  0  0  0  0  0  0  0
  -37.5830   -3.2890   20.7760 F   0  0  0  0  0  0  0  0  0  0  0  0
  -37.9760   -3.6940   25.5180 F   0  0  0  0  0  0  0  0  0  0  0  0
  -32.3210  -10.8510   19.3600 C   0  0  0  0  0  0  0  0  0  0  0  0
  -32.3690  -10.1970   20.5160 N   0  0  0  0  0  0  0  0  0  0  0  0
  -31.2540  -11.2530   18.9010 O   0  0  0  0  0  0  0  0  0  0  0  0
  -33.2460   -9.8870   20.9060 H   0  0  0  0  0  0  0  0  0  0  0  0
  -31.5110  -10.0010   21.0140 H   0  0  0  0  0  0  0  0  0  0  0  0
  -33.1910  -13.3470   17.5260 N   0  0  0  0  0  0  0  0  0  0  0  0
  -32.2190  -13.4650   17.7890 H   0  0  0  0  0  0  0  0  0  0  0  0
  -33.5440  -14.0880   16.9420 H   0  0  0  0  0  0  0  0  0  0  0  0
  -24.1290  -18.4080   15.7870 C   0  0  0  0  0  2  0  0  0  0  0  0
  -25.0740  -19.0890   16.6010 O   0  0  0  0  0  0  0  0  0  0  0  0
  -26.2340  -19.5040   15.8920 C   0  0  0  0  0  2  0  0  0  0  0  0
  -27.1700  -20.2070   16.8810 C   0  0  0  0  0  2  0  0  0  0  0  0
  -26.5940  -21.4450   17.2680 O   0  0  0  0  0  0  0  0  0  0  0  0
  -27.2370  -22.0010   18.4100 C   0  0  0  0  0  2  0  0  0  0  0  0
  -26.7670  -23.4410   18.6330 C   0  0  0  0  0  0  0  0  0  0  0  0
  -26.2710  -24.1090   17.7160 O   0  0  0  0  0  0  0  0  0  0  0  0
  -26.9480  -24.0090   20.0460 C   0  0  0  0  0  2  0  0  0  0  0  0
  -26.7050  -25.4140   20.0500 O   0  0  0  0  0  0  0  0  0  0  0  0
  -27.0910  -26.0250   21.2720 C   0  0  0  0  0  2  0  0  0  0  0  0
  -26.9910  -27.5500   21.1120 C   0  0  0  0  0  2  0  0  0  0  0  0
  -27.6400  -28.2420   22.1790 O   0  0  0  0  0  0  0  0  0  0  0  0
  -27.7560  -32.0990   28.1400 C   0  0  0  0  0  0  0  0  0  0  0  0
  -26.8830  -28.7760   23.2010 C   0  0  0  0  0  0  0  0  0  0  0  0
  -25.5900  -31.0320   27.6040 C   0  0  0  0  0  3  0  0  0  0  0  0
  -25.4090  -30.0020   25.2800 C   0  0  0  0  0  0  0  0  0  0  0  0
  -27.2410  -31.6390   25.7470 C   0  0  0  0  0  2  0  0  0  0  0  0
  -26.6890  -30.4690   24.9610 C   0  0  0  0  0  0  0  0  0  0  0  0
  -27.4300  -29.8560   23.9280 C   0  0  0  0  0  3  0  0  0  0  0  0
  -25.5920  -28.3080   23.5450 C   0  0  0  0  0  3  0  0  0  0  0  0
  -24.8590  -28.9140   24.5810 C   0  0  0  0  0  3  0  0  0  0  0  0
  -24.6750  -30.7170   26.3910 C   0  0  0  0  0  2  0  0  0  0  0  0
  -26.9190  -31.5920   27.1930 N   0  0  0  0  0  0  0  0  0  0  0  0
  -27.4240  -32.1450   29.3320 O   0  0  0  0  0  0  0  0  0  0  0  0
  -25.7060  -29.7610   28.4740 C   0  0  0  0  0  0  0  0  0  0  0  0
  -24.8320  -29.6500   29.4880 N   0  0  0  0  0  0  0  0  0  0  0  0
  -26.5430  -28.8930   28.2170 O   0  0  0  0  0  0  0  0  0  0  0  0
  -24.1820  -30.4100   29.6370 H   0  0  0  0  0  0  0  0  0  0  0  0
  -23.2340  -28.5220   32.5250 C   0  0  0  0  0  0  0  0  0  0  0  0
  -24.7280  -28.5250   30.4150 C   0  0  0  0  0  3  0  0  0  0  0  0
  -23.7780  -27.4360   29.8640 C   0  0  0  0  0  2  0  0  0  0  0  0
  -22.3340  -27.5940   30.3480 C   0  0  0  0  0  2  0  0  0  0  0  0
  -22.2710  -27.5410   31.8770 C   0  0  0  0  0  2  0  0  0  0  0  0
  -24.3800  -28.9950   31.8320 C   0  0  0  0  0  0  0  0  0  0  0  0
  -25.2250  -29.9320   32.4640 C   0  0  0  0  0  3  0  0  0  0  0  0
  -24.9430  -30.3930   33.7640 C   0  0  0  0  0  3  0  0  0  0  0  0
  -23.8170  -29.9080   34.4510 C   0  0  0  0  0  3  0  0  0  0  0  0
  -22.9680  -28.9720   33.8340 C   0  0  0  0  0  3  0  0  0  0  0  0
  -29.1620  -32.6680   27.7680 C   0  0  0  0  0  3  0  0  0  0  0  0
  -30.3240  -31.6130   27.9330 C   0  0  1  0  0  0  0  0  0  0  0  0
  -30.3240  -30.8970   29.3040 C   0  0  0  0  0  1  0  0  0  0  0  0
  -30.2360  -30.5290   26.8340 C   0  0  0  0  0  1  0  0  0  0  0  0
  -31.6940  -32.3100   27.7590 C   0  0  0  0  0  1  0  0  0  0  0  0
  -29.4010  -33.8430   28.6170 N   0  0  0  0  0  0  0  0  0  0  0  0
  -29.2440  -35.1120   28.2200 C   0  0  0  0  0  0  0  0  0  0  0  0
  -28.9480  -35.4200   27.0610 O   0  0  0  0  0  0  0  0  0  0  0  0
  -29.5920  -33.6650   29.5920 H   0  0  0  0  0  0  0  0  0  0  0  0
  -28.0810  -36.7000   29.7840 C   0  0  0  0  0  1  0  0  0  0  0  0
  -29.4480  -36.2160   29.2750 C   0  0  0  0  0  3  0  0  0  0  0  0
  -31.6280  -37.0430   28.5070 C   0  0  0  0  0  1  0  0  0  0  0  0
  -30.2310  -37.3680   28.7780 N   0  0  0  0  0  0  0  0  0  0  0  0
  -30.2070  -38.1330   29.4460 H   0  0  0  0  0  0  0  0  0  0  0  0
  1  2  1  0
  2  3  1  0
  3  4  1  0
  5  4  1  0
  5  6  1  0
  7  6  1  0
  8  7  1  0
  9  8  1  0
 10  9  1  0
 10 11  1  0
 12 13  1  0
 12 11  1  0
 14 15  1  0
 14 13  1  0
 16 25  1  0
 16 15  1  0
 17 23  1  0
 17 25  1  0
 18 23  1  0
 19 18  1  0
 19 20  1  0
 21 20  1  0
 21 22  1  0
 21 30  1  0
 23 22  1  0
 24 17  2  0
 25 26  1  0
 27 28  2  0
 28 47  1  0
 29 28  1  0
 29 32  1  0
 30 27  1  0
 30 31  1  0
 31 29  2  0
 32 33  1  0
 33 34  2  0
 35 34  1  0
 35 38  1  0
 36 35  2  0
 37 32  2  0
 37 36  1  0
 38 39  1  0
 39 44  2  0
 39 40  1  0
 40 41  2  0
 42 41  1  0
 42 46  1  0
 43 42  2  0
 44 43  1  0
 45 44  1  0
 47 48  1  0
 48 50  1  0
 48 51  1  0
 49 47  2  0
 52 53  1  0
 52 27  1  0
 54 52  1  0
 55 56  1  0
 55  1  1  0
 57 56  1  0
 57 58  1  0
 58 59  1  0
 59 60  1  0
 60 61  1  0
 61 63  1  0
 62 61  2  0
 63 64  1  0
 64 65  1  0
 66 65  1  0
 66 67  1  0
 67 69  1  0
 68 79  2  0
 69 75  2  0
 69 74  1  0
 70 80  1  0
 71 77  1  0
 72 78  1  0
 73 71  1  0
 73 72  1  0
 74 73  2  0
 75 76  1  0
 76 71  2  0
 77 70  1  0
 78 70  1  0
 78 68  1  0
 80 81  1  0
 81 83  1  0
 82 80  2  0
 84 93  1  0
 85 81  1  0
 85 89  1  0
 86 87  1  0
 86 85  1  0
 87 88  1  0
 88 84  1  0
 89 90  1  0
 89 84  2  0
 90 91  2  0
 91 92  1  0
 93 92  2  0
 94 95  1  0
 94 68  1  0
 94 99  1  0
 95 96  1  1
 97 95  1  0
 98 95  1  0
 99102  1  0
100 99  1  0
100104  1  0
101100  2  0
104103  1  0
105106  1  0
106104  1  0
106107  1  0
M  ISO  4  17 100  25 100  66 101  67 101
M  END
>  <TORSDO>  (3) 
F 42

>  <SCORE>  (3) 
7.374

>  <name>  (3) 
3

>  <ligand_id>  (3) 
3

>  <original_smiles>  (3) 
[H]c1c([H])c([H])c2c(c1[H])C([H])([H])C([H])([H])C([H])([H])C2([H])N([H])C(=O)C1([H])N(C(=O)C([H])(N([H])C(=O)C([H])(N([H])C([H])([H])[H])C([H])([H])[H])C(C([H])([H])[H])(C([H])([H])[H])C([H])([H])[H])C([H])([H])c2c([H])c(OC([H])([H])C([H])([H])OC([H])([H])C(=O)C([H])([H])OC([H])([H])C([H])([H])OC([H])([H])C([H])([H])OC([H])([H])C([H])([H])OC([H])([H])C([H])([H])OC([H])([H])C([H])([H])OC([H])([H])C([H])([H])OC([H])([H])C([H])([H])N([H])C(=O)N3C([H])([H])C([H])([H])C([H])([H])C([H])(n4nc(-c5c([H])c([H])c(Oc6c([H])c([H])c(F)c([H])c6F)c([H])c5[H])c(C(=O)N([H])[H])c4N([H])[H])C3([H])[H])c([H])c([H])c2C1([H])[H]

>  <smiles>  (3) 
[H]c1c([H])c([H])c2c(c1[H])C([H])([H])C([H])([H])C([H])([H])C2([H])N([H])C(=O)C1([H])N(C(=O)C([H])(N([H])C(=O)C([H])(N([H])C([H])([H])[H])C([H])([H])[H])C(C([H])([H])[H])(C([H])([H])[H])C([H])([H])[H])C([H])([H])c2c([H])c(OC([H])([H])C([H])([H])OC([H])([H])C(=O)C([H])([H])OC([H])([H])C([H])([H])OC([H])([H])C([H])([H])OC([H])([H])C([H])([H])OC([H])([H])C([H])([H])OC([H])([H])C([H])([H])OC([H])([H])C([H])([H])OC([H])([H])C([H])([H])N([H])C(=O)N3C([H])([H])C([H])([H])C([H])([H])C([H])(n4nc(-c5c([H])c([H])c(Oc6c([H])c([H])c(F)c([H])c6F)c([H])c5[H])c(C(=O)N([H])[H])c4N([H])[H])C3([H])[H])c([H])c([H])c2C1([H])[H]

$$$$
4:0:0
     RDKit          3D

107114  0  0  1  0  0  0  0  0999 V2000
  -24.0450  -21.6030   23.7890 C   0  0  0  0  0  2  0  0  0  0  0  0
  -24.8650  -20.9270   24.7310 O   0  0  0  0  0  0  0  0  0  0  0  0
  -25.8560  -21.7620   25.3170 C   0  0  0  0  0  2  0  0  0  0  0  0
  -27.2700  -21.3560   24.8670 C   0  0  0  0  0  2  0  0  0  0  0  0
  -27.4900  -21.5000   23.4620 O   0  0  0  0  0  0  0  0  0  0  0  0
  -28.8890  -21.5160   23.1530 C   0  0  0  0  0  2  0  0  0  0  0  0
  -29.3250  -20.3660   22.2270 C   0  0  0  0  0  2  0  0  0  0  0  0
  -29.0650  -20.6520   20.8480 O   0  0  0  0  0  0  0  0  0  0  0  0
  -30.0920  -20.1660   19.9780 C   0  0  0  0  0  2  0  0  0  0  0  0
  -29.6100  -20.1540   18.5190 C   0  0  0  0  0  2  0  0  0  0  0  0
  -28.4880  -19.2860   18.3500 O   0  0  0  0  0  0  0  0  0  0  0  0
  -28.7430  -18.1160   17.5690 C   0  0  0  0  0  2  0  0  0  0  0  0
  -28.8750  -16.8380   18.4120 C   0  0  0  0  0  2  0  0  0  0  0  0
  -29.9030  -16.9770   19.3800 O   0  0  0  0  0  0  0  0  0  0  0  0
  -30.3670  -15.7310   19.8610 C   0  0  0  0  0  2  0  0  0  0  0  0
  -31.1240  -15.9150   21.1880 C   0  0  0  0  0  2  0  0  0  0  0  0
  -32.8330  -14.1400   21.1260 C   0  0  0  0  0  0  0  0  0  0  0  0
  -33.7470  -12.0990   20.1090 C   0  0  0  0  0  2  0  0  0  0  0  0
  -32.9280  -11.7790   18.8410 C   0  0  0  0  0  2  0  0  0  0  0  0
  -31.6810  -10.9420   19.1950 C   0  0  0  0  0  2  0  0  0  0  0  0
  -30.8660  -11.5440   20.3730 C   0  0  0  0  0  3  0  0  0  0  0  0
  -31.8060  -11.8850   21.5550 C   0  0  0  0  0  2  0  0  0  0  0  0
  -32.8600  -12.7880   21.0550 N   0  0  0  0  0  0  0  0  0  0  0  0
  -33.6930  -14.8760   20.6300 O   0  0  0  0  0  0  0  0  0  0  0  0
  -31.6940  -14.6390   21.6080 N   0  0  0  0  0  0  0  0  0  0  0  0
  -31.0530  -13.9690   22.0120 H   0  0  0  0  0  0  0  0  0  0  0  0
  -28.4120  -10.8260   20.7070 C   0  0  0  0  0  0  0  0  0  0  0  0
  -27.8530   -9.6670   21.1660 C   0  0  0  0  0  0  0  0  0  0  0  0
  -28.9480   -8.8100   21.5040 C   0  0  0  0  0  0  0  0  0  0  0  0
  -29.7850  -10.6510   20.7850 N   0  0  0  0  0  0  0  0  0  0  0  0
  -30.0990   -9.4420   21.3180 N   0  0  0  0  0  0  0  0  0  0  0  0
  -28.9680   -7.4100   21.9390 C   0  0  0  0  0  0  0  0  0  0  0  0
  -29.6960   -6.9990   23.0770 C   0  0  0  0  0  3  0  0  0  0  0  0
  -29.6860   -5.6480   23.4860 C   0  0  0  0  0  3  0  0  0  0  0  0
  -28.9420   -4.6910   22.7560 C   0  0  0  0  0  0  0  0  0  0  0  0
  -28.2370   -5.1010   21.6100 C   0  0  0  0  0  3  0  0  0  0  0  0
  -28.2540   -6.4450   21.2020 C   0  0  0  0  0  3  0  0  0  0  0  0
  -28.8950   -3.3540   23.0630 O   0  0  0  0  0  0  0  0  0  0  0  0
  -29.0910   -2.9020   24.3430 C   0  0  0  0  0  0  0  0  0  0  0  0
  -28.3600   -3.4210   25.4350 C   0  0  0  0  0  3  0  0  0  0  0  0
  -28.5400   -2.8770   26.7230 C   0  0  0  0  0  3  0  0  0  0  0  0
  -29.4410   -1.8160   26.9210 C   0  0  0  0  0  0  0  0  0  0  0  0
  -30.1680   -1.2970   25.8350 C   0  0  0  0  0  3  0  0  0  0  0  0
  -29.9890   -1.8370   24.5490 C   0  0  0  0  0  0  0  0  0  0  0  0
  -30.6760   -1.3190   23.5020 F   0  0  0  0  0  0  0  0  0  0  0  0
  -29.6090   -1.2890   28.1570 F   0  0  0  0  0  0  0  0  0  0  0  0
  -26.3910   -9.3270   21.2070 C   0  0  0  0  0  0  0  0  0  0  0  0
  -25.9830   -8.4920   22.1530 N   0  0  0  0  0  0  0  0  0  0  0  0
  -25.5930   -9.8470   20.4280 O   0  0  0  0  0  0  0  0  0  0  0  0
  -26.6390   -8.0800   22.8020 H   0  0  0  0  0  0  0  0  0  0  0  0
  -25.0030   -8.2670   22.2350 H   0  0  0  0  0  0  0  0  0  0  0  0
  -27.8670  -12.0120   20.2180 N   0  0  0  0  0  0  0  0  0  0  0  0
  -26.8660  -12.1440   20.1340 H   0  0  0  0  0  0  0  0  0  0  0  0
  -28.4000  -12.7940   19.8640 H   0  0  0  0  0  0  0  0  0  0  0  0
  -23.4940  -20.5770   22.7800 C   0  0  0  0  0  2  0  0  0  0  0  0
  -23.9550  -20.8310   21.4560 O   0  0  0  0  0  0  0  0  0  0  0  0
  -23.2750  -21.8960   20.8020 C   0  0  0  0  0  2  0  0  0  0  0  0
  -23.8250  -22.0640   19.3730 C   0  0  0  0  0  2  0  0  0  0  0  0
  -24.6160  -23.2430   19.2890 O   0  0  0  0  0  0  0  0  0  0  0  0
  -25.9880  -23.0710   19.6230 C   0  0  0  0  0  2  0  0  0  0  0  0
  -26.4510  -24.2830   20.4530 C   0  0  0  0  0  2  0  0  0  0  0  0
  -27.5310  -25.0670   19.8040 N   0  0  0  0  0  4  0  0  0  0  0  0
  -28.2910  -24.4310   19.5700 H   0  0  0  0  0  0  0  0  0  0  0  0
  -27.1660  -25.4400   18.9380 H   0  0  0  0  0  0  0  0  0  0  0  0
  -28.0740  -26.1750   20.6390 C   0  0  0  0  0  2  0  0  0  0  0  0
  -28.9530  -27.1730   19.8190 C   0  0  0  0  0  2  0  0  0  0  0  0
  -28.9600  -28.5160   20.3260 O   0  0  0  0  0  0  0  0  0  0  0  0
  -25.1260  -32.9720   24.2790 C   0  0  0  0  0  0  0  0  0  0  0  0
  -27.7630  -29.2030   20.4200 C   0  0  0  0  0  0  0  0  0  0  0  0
  -23.8930  -31.8240   22.4650 C   0  0  0  0  0  3  0  0  0  0  0  0
  -25.3290  -30.5900   20.7760 C   0  0  0  0  0  0  0  0  0  0  0  0
  -26.3940  -32.3000   22.2460 C   0  0  0  0  0  2  0  0  0  0  0  0
  -26.4940  -31.0540   21.3950 C   0  0  0  0  0  0  0  0  0  0  0  0
  -27.7140  -30.3620   21.2220 C   0  0  0  0  0  3  0  0  0  0  0  0
  -26.5750  -28.7700   19.7810 C   0  0  0  0  0  3  0  0  0  0  0  0
  -25.3560  -29.4380   19.9760 C   0  0  0  0  0  3  0  0  0  0  0  0
  -24.0790  -31.3950   20.9850 C   0  0  0  0  0  2  0  0  0  0  0  0
  -25.1580  -32.3730   23.0580 N   0  0  0  0  0  0  0  0  0  0  0  0
  -24.0600  -33.1120   24.8930 O   0  0  0  0  0  0  0  0  0  0  0  0
  -23.3010  -30.6350   23.2610 C   0  0  0  0  0  0  0  0  0  0  0  0
  -22.0100  -30.3380   23.0290 N   0  0  0  0  0  0  0  0  0  0  0  0
  -24.0020  -29.9890   24.0450 O   0  0  0  0  0  0  0  0  0  0  0  0
  -21.5010  -30.9080   22.3690 H   0  0  0  0  0  0  0  0  0  0  0  0
  -18.8080  -28.6730   23.0580 C   0  0  0  0  0  0  0  0  0  0  0  0
  -21.2530  -29.2570   23.6620 C   0  0  0  0  0  3  0  0  0  0  0  0
  -21.6170  -27.8790   23.0630 C   0  0  0  0  0  2  0  0  0  0  0  0
  -20.7140  -27.4840   21.8880 C   0  0  0  0  0  2  0  0  0  0  0  0
  -19.2500  -27.4130   22.3310 C   0  0  0  0  0  2  0  0  0  0  0  0
  -19.7480  -29.5470   23.6670 C   0  0  0  0  0  0  0  0  0  0  0  0
  -19.2850  -30.7200   24.2990 C   0  0  0  0  0  3  0  0  0  0  0  0
  -17.9120  -31.0270   24.3320 C   0  0  0  0  0  3  0  0  0  0  0  0
  -16.9860  -30.1500   23.7450 C   0  0  0  0  0  3  0  0  0  0  0  0
  -17.4330  -28.9770   23.1120 C   0  0  0  0  0  3  0  0  0  0  0  0
  -26.4220  -33.5360   24.9480 C   0  0  0  0  0  3  0  0  0  0  0  0
  -26.9660  -32.6180   26.1120 C   0  0  1  0  0  0  0  0  0  0  0  0
  -25.8930  -32.2430   27.1580 C   0  0  0  0  0  1  0  0  0  0  0  0
  -27.5430  -31.3040   25.5400 C   0  0  0  0  0  1  0  0  0  0  0  0
  -28.1290  -33.3270   26.8450 C   0  0  0  0  0  1  0  0  0  0  0  0
  -26.1130  -34.8810   25.4440 N   0  0  0  0  0  0  0  0  0  0  0  0
  -26.4420  -36.0160   24.8130 C   0  0  0  0  0  0  0  0  0  0  0  0
  -27.1140  -36.0370   23.7780 O   0  0  0  0  0  0  0  0  0  0  0  0
  -25.5300  -34.9380   26.2690 H   0  0  0  0  0  0  0  0  0  0  0  0
  -24.7240  -37.8360   24.6700 C   0  0  0  0  0  1  0  0  0  0  0  0
  -25.9590  -37.3380   25.4330 C   0  0  0  0  0  3  0  0  0  0  0  0
  -28.0930  -38.1110   26.3680 C   0  0  0  0  0  1  0  0  0  0  0  0
  -26.9910  -38.3950   25.4500 N   0  0  0  0  0  0  0  0  0  0  0  0
  -26.5840  -39.2880   25.7120 H   0  0  0  0  0  0  0  0  0  0  0  0
  1  2  1  0
  2  3  1  0
  4  3  1  0
  5  4  1  0
  6  5  1  0
  7  6  1  0
  8  7  1  0
  9  8  1  0
 10  9  1  0
 11 10  1  0
 12 11  1  0
 12 13  1  0
 13 14  1  0
 14 15  1  0
 15 16  1  0
 16 25  1  0
 17 25  1  0
 18 23  1  0
 19 20  1  0
 19 18  1  0
 21 20  1  0
 21 30  1  0
 21 22  1  0
 23 17  1  0
 23 22  1  0
 24 17  2  0
 25 26  1  0
 27 30  1  0
 27 28  2  0
 28 47  1  0
 28 29  1  0
 29 32  1  0
 30 31  1  0
 31 29  2  0
 32 33  1  0
 33 34  2  0
 35 38  1  0
 35 34  1  0
 36 35  2  0
 37 36  1  0
 37 32  2  0
 38 39  1  0
 39 44  2  0
 39 40  1  0
 40 41  2  0
 41 42  1  0
 42 46  1  0
 43 42  2  0
 44 43  1  0
 45 44  1  0
 47 48  1  0
 48 51  1  0
 48 50  1  0
 49 47  2  0
 52 27  1  0
 53 52  1  0
 54 52  1  0
 55  1  1  0
 56 55  1  0
 57 56  1  0
 58 57  1  0
 59 58  1  0
 59 60  1  0
 60 61  1  0
 62 61  1  0
 62 65  1  0
 63 62  1  0
 64 62  1  0
 66 67  1  0
 66 65  1  0
 67 69  1  0
 68 79  2  0
 69 74  1  0
 70 78  1  0
 70 80  1  0
 71 77  1  0
 71 73  1  0
 72 78  1  0
 73 72  1  0
 74 73  2  0
 75 76  1  0
 75 69  2  0
 76 71  2  0
 77 70  1  0
 78 68  1  0
 80 82  2  0
 81 80  1  0
 83 81  1  0
 84 93  2  0
 84 89  1  0
 85 81  1  0
 85 89  1  0
 86 85  1  0
 87 88  1  0
 87 86  1  0
 88 84  1  0
 89 90  2  0
 90 91  1  0
 92 91  2  0
 93 92  1  0
 94 68  1  0
 94 99  1  0
 94 95  1  0
 95 98  1  1
 95 96  1  0
 97 95  1  0
 99102  1  0
100104  1  0
100 99  1  0
101100  2  0
104103  1  0
104106  1  0
106107  1  0
106105  1  0
M  ISO  4  17 100  25 100  66 101  67 101
M  END
>  <TORSDO>  (4) 
F 41

>  <SCORE>  (4) 
36.107

>  <name>  (4) 
4

>  <ligand_id>  (4) 
4

>  <original_smiles>  (4) 
[H]c1c([H])c([H])c2c(c1[H])C([H])([H])C([H])([H])C([H])([H])C2([H])N([H])C(=O)C1([H])N(C(=O)C([H])(N([H])C(=O)C([H])(N([H])C([H])([H])[H])C([H])([H])[H])C(C([H])([H])[H])(C([H])([H])[H])C([H])([H])[H])C([H])([H])c2c([H])c(OC([H])([H])C([H])([H])[N+]([H])([H])C([H])([H])C([H])([H])OC([H])([H])C([H])([H])OC([H])([H])C([H])([H])OC([H])([H])C([H])([H])OC([H])([H])C([H])([H])OC([H])([H])C([H])([H])OC([H])([H])C([H])([H])OC([H])([H])C([H])([H])N([H])C(=O)N3C([H])([H])C([H])([H])C([H])([H])C([H])(n4nc(-c5c([H])c([H])c(Oc6c([H])c([H])c(F)c([H])c6F)c([H])c5[H])c(C(=O)N([H])[H])c4N([H])[H])C3([H])[H])c([H])c([H])c2C1([H])[H]

>  <smiles>  (4) 
[H]c1c([H])c([H])c2c(c1[H])C([H])([H])C([H])([H])C([H])([H])C2([H])N([H])C(=O)C1([H])N(C(=O)C([H])(N([H])C(=O)C([H])(N([H])C([H])([H])[H])C([H])([H])[H])C(C([H])([H])[H])(C([H])([H])[H])C([H])([H])[H])C([H])([H])c2c([H])c(OC([H])([H])C([H])([H])[N+]([H])([H])C([H])([H])C([H])([H])OC([H])([H])C([H])([H])OC([H])([H])C([H])([H])OC([H])([H])C([H])([H])OC([H])([H])C([H])([H])OC([H])([H])C([H])([H])OC([H])([H])C([H])([H])OC([H])([H])C([H])([H])N([H])C(=O)N3C([H])([H])C([H])([H])C([H])([H])C([H])(n4nc(-c5c([H])c([H])c(Oc6c([H])c([H])c(F)c([H])c6F)c([H])c5[H])c(C(=O)N([H])[H])c4N([H])[H])C3([H])[H])c([H])c([H])c2C1([H])[H]

$$$$
5:0:0
     RDKit          3D

112119  0  0  1  0  0  0  0  0999 V2000
  -34.4920  -14.1360   17.7780 C   0  0  0  0  0  0  0  0  0  0  0  0
  -35.5350  -14.3630   18.5900 N   0  0  0  0  0  0  0  0  0  0  0  0
  -34.3060  -13.0120   17.3060 O   0  0  0  0  0  0  0  0  0  0  0  0
  -36.1550  -13.5800   18.7580 H   0  0  0  0  0  0  0  0  0  0  0  0
  -35.8160  -15.5890   19.3330 C   0  0  0  0  0  2  0  0  0  0  0  0
  -35.2900  -15.4860   20.7730 C   0  0  0  0  0  2  0  0  0  0  0  0
  -35.0000  -16.7760   21.2960 O   0  0  0  0  0  0  0  0  0  0  0  0
  -34.3620  -16.6890   22.5670 C   0  0  0  0  0  2  0  0  0  0  0  0
  -33.9650  -18.0760   23.1010 C   0  0  0  0  0  2  0  0  0  0  0  0
  -32.8410  -18.5850   22.3820 O   0  0  0  0  0  0  0  0  0  0  0  0
  -32.2150  -19.6880   23.0370 C   0  0  0  0  0  2  0  0  0  0  0  0
  -31.0720  -20.2260   22.1600 C   0  0  0  0  0  2  0  0  0  0  0  0
  -31.6000  -20.9840   21.0790 O   0  0  0  0  0  0  0  0  0  0  0  0
  -30.6930  -21.1370   19.9920 C   0  0  0  0  0  2  0  0  0  0  0  0
  -30.7250  -22.5820   19.4710 C   0  0  0  0  0  2  0  0  0  0  0  0
  -29.7890  -23.3690   20.2030 O   0  0  0  0  0  0  0  0  0  0  0  0
  -29.8080  -24.7580   19.8880 C   0  0  0  0  0  2  0  0  0  0  0  0
  -28.4490  -25.3590   20.2860 C   0  0  0  0  0  2  0  0  0  0  0  0
  -28.4530  -26.7730   20.0710 O   0  0  0  0  0  0  0  0  0  0  0  0
  -24.6150  -31.8690   23.2090 C   0  0  0  0  0  0  0  0  0  0  0  0
  -27.2480  -27.4450   20.1020 C   0  0  0  0  0  0  0  0  0  0  0  0
  -23.4030  -30.4890   21.5500 C   0  0  0  0  0  3  0  0  0  0  0  0
  -24.8500  -28.9500   20.1220 C   0  0  0  0  0  0  0  0  0  0  0  0
  -25.9310  -30.8340   21.3620 C   0  0  0  0  0  2  0  0  0  0  0  0
  -26.0080  -29.4680   20.7150 C   0  0  0  0  0  0  0  0  0  0  0  0
  -27.2060  -28.7230   20.6990 C   0  0  0  0  0  3  0  0  0  0  0  0
  -26.0680  -26.9330   19.5100 C   0  0  0  0  0  3  0  0  0  0  0  0
  -24.8750  -27.6810   19.5180 C   0  0  0  0  0  3  0  0  0  0  0  0
  -23.6120  -29.8140   20.1670 C   0  0  0  0  0  2  0  0  0  0  0  0
  -24.6670  -31.0790   22.0980 N   0  0  0  0  0  0  0  0  0  0  0  0
  -23.5330  -32.1440   23.7480 O   0  0  0  0  0  0  0  0  0  0  0  0
  -22.7410  -29.4660   22.5020 C   0  0  0  0  0  0  0  0  0  0  0  0
  -21.4140  -29.3030   22.3730 N   0  0  0  0  0  0  0  0  0  0  0  0
  -23.4180  -28.8210   23.3060 O   0  0  0  0  0  0  0  0  0  0  0  0
  -20.9320  -29.8730   21.6920 H   0  0  0  0  0  0  0  0  0  0  0  0
  -18.0270  -28.1380   22.8500 C   0  0  0  0  0  0  0  0  0  0  0  0
  -20.5850  -28.3670   23.1330 C   0  0  0  0  0  3  0  0  0  0  0  0
  -20.6770  -26.9410   22.5420 C   0  0  0  0  0  2  0  0  0  0  0  0
  -19.5750  -26.6400   21.5220 C   0  0  0  0  0  2  0  0  0  0  0  0
  -18.1920  -26.7930   22.1630 C   0  0  0  0  0  2  0  0  0  0  0  0
  -19.1520  -28.8840   23.2900 C   0  0  0  0  0  0  0  0  0  0  0  0
  -18.9450  -30.1440   23.8920 C   0  0  0  0  0  3  0  0  0  0  0  0
  -17.6450  -30.6590   24.0570 C   0  0  0  0  0  3  0  0  0  0  0  0
  -16.5340  -29.9090   23.6320 C   0  0  0  0  0  3  0  0  0  0  0  0
  -16.7260  -28.6510   23.0340 C   0  0  0  0  0  3  0  0  0  0  0  0
  -25.9030  -32.4820   23.8390 C   0  0  0  0  0  3  0  0  0  0  0  0
  -25.5890  -33.8630   24.2320 N   0  0  0  0  0  0  0  0  0  0  0  0
  -25.9040  -34.9480   23.5120 C   0  0  0  0  0  0  0  0  0  0  0  0
  -26.5600  -34.8930   22.4690 O   0  0  0  0  0  0  0  0  0  0  0  0
  -25.0050  -33.9790   25.0480 H   0  0  0  0  0  0  0  0  0  0  0  0
  -24.1490  -36.7320   23.2630 C   0  0  0  0  0  1  0  0  0  0  0  0
  -25.4120  -36.3130   24.0340 C   0  0  0  0  0  3  0  0  0  0  0  0
  -27.5600  -37.1810   24.8460 C   0  0  0  0  0  1  0  0  0  0  0  0
  -26.4310  -37.3810   23.9410 N   0  0  0  0  0  0  0  0  0  0  0  0
  -26.0200  -38.2880   24.1420 H   0  0  0  0  0  0  0  0  0  0  0  0
  -26.4470  -31.6600   25.0710 C   0  0  1  0  0  0  0  0  0  0  0  0
  -25.3730  -31.3710   26.1450 C   0  0  0  0  0  1  0  0  0  0  0  0
  -27.0280  -30.3040   24.6080 C   0  0  0  0  0  1  0  0  0  0  0  0
  -27.6050  -32.4320   25.7450 C   0  0  0  0  0  1  0  0  0  0  0  0
  -33.5460  -15.2870   17.4030 C   0  0  0  0  0  2  0  0  0  0  0  0
  -31.8150  -15.3630   15.6180 C   0  0  0  0  0  0  0  0  0  0  0  0
  -32.3580  -14.8050   16.7040 N   0  0  0  0  0  0  0  0  0  0  0  0
  -32.2630  -16.3880   15.0970 O   0  0  0  0  0  0  0  0  0  0  0  0
  -31.9720  -13.9380   17.0520 H   0  0  0  0  0  0  0  0  0  0  0  0
  -30.5670  -14.6940   15.0340 C   0  0  0  0  0  2  0  0  0  0  0  0
  -29.4460  -15.0920   15.8140 O   0  0  0  0  0  0  0  0  0  0  0  0
  -28.2120  -14.6410   15.2690 C   0  0  0  0  0  2  0  0  0  0  0  0
  -27.0850  -14.9330   16.2690 C   0  0  0  0  0  2  0  0  0  0  0  0
  -26.6470  -16.2780   16.1330 O   0  0  0  0  0  0  0  0  0  0  0  0
  -26.0300  -16.7770   17.3120 C   0  0  0  0  0  2  0  0  0  0  0  0
  -27.0370  -17.6230   18.1130 C   0  0  0  0  0  2  0  0  0  0  0  0
  -28.0570  -16.8170   18.6990 O   0  0  0  0  0  0  0  0  0  0  0  0
  -29.0000  -17.6040   19.4220 C   0  0  0  0  0  2  0  0  0  0  0  0
  -30.2380  -16.7700   19.7700 C   0  0  0  0  0  2  0  0  0  0  0  0
  -30.6940  -14.4580   20.4540 C   0  0  0  0  0  0  0  0  0  0  0  0
  -30.4160  -12.2710   19.4250 C   0  0  0  0  0  2  0  0  0  0  0  0
  -29.4940  -12.4830   18.2070 C   0  0  0  0  0  2  0  0  0  0  0  0
  -28.0210  -12.3150   18.6330 C   0  0  0  0  0  2  0  0  0  0  0  0
  -27.6590  -13.1940   19.8610 C   0  0  0  0  0  3  0  0  0  0  0  0
  -28.7010  -13.0350   20.9910 C   0  0  0  0  0  2  0  0  0  0  0  0
  -30.0350  -13.2770   20.4220 N   0  0  0  0  0  0  0  0  0  0  0  0
  -31.8810  -14.5880   20.1580 O   0  0  0  0  0  0  0  0  0  0  0  0
  -29.8870  -15.5250   20.4530 N   0  0  0  0  0  0  0  0  0  0  0  0
  -28.9080  -15.3560   20.6130 H   0  0  0  0  0  0  0  0  0  0  0  0
  -25.2650  -13.8190   20.5780 C   0  0  0  0  0  0  0  0  0  0  0  0
  -24.1870  -13.0440   20.9170 C   0  0  0  0  0  0  0  0  0  0  0  0
  -24.6370  -11.6910   20.8630 C   0  0  0  0  0  0  0  0  0  0  0  0
  -26.3010  -12.9300   20.3310 N   0  0  0  0  0  0  0  0  0  0  0  0
  -25.9280  -11.6480   20.5660 N   0  0  0  0  0  0  0  0  0  0  0  0
  -23.9050  -10.4290   21.0330 C   0  0  0  0  0  0  0  0  0  0  0  0
  -24.3630   -9.4230   21.9110 C   0  0  0  0  0  3  0  0  0  0  0  0
  -23.6310   -8.2270   22.0700 C   0  0  0  0  0  3  0  0  0  0  0  0
  -22.4290   -8.0280   21.3510 C   0  0  0  0  0  0  0  0  0  0  0  0
  -21.9910   -9.0240   20.4630 C   0  0  0  0  0  3  0  0  0  0  0  0
  -22.7230  -10.2110   20.3000 C   0  0  0  0  0  3  0  0  0  0  0  0
  -21.6620   -6.8890   21.4240 O   0  0  0  0  0  0  0  0  0  0  0  0
  -21.6860   -6.0750   22.5280 C   0  0  0  0  0  0  0  0  0  0  0  0
  -21.4040   -6.5640   23.8220 C   0  0  0  0  0  3  0  0  0  0  0  0
  -21.3650   -5.6790   24.9170 C   0  0  0  0  0  3  0  0  0  0  0  0
  -21.6040   -4.3050   24.7220 C   0  0  0  0  0  0  0  0  0  0  0  0
  -21.8840   -3.8150   23.4350 C   0  0  0  0  0  3  0  0  0  0  0  0
  -21.9210   -4.6970   22.3400 C   0  0  0  0  0  0  0  0  0  0  0  0
  -22.1660   -4.2150   21.0990 F   0  0  0  0  0  0  0  0  0  0  0  0
  -21.5610   -3.4530   25.7750 F   0  0  0  0  0  0  0  0  0  0  0  0
  -22.7930  -13.5230   21.1860 C   0  0  0  0  0  0  0  0  0  0  0  0
  -22.0600  -12.8160   22.0420 N   0  0  0  0  0  0  0  0  0  0  0  0
  -22.3610  -14.5520   20.6740 O   0  0  0  0  0  0  0  0  0  0  0  0
  -22.4270  -11.9850   22.4840 H   0  0  0  0  0  0  0  0  0  0  0  0
  -21.1200  -13.1160   22.2590 H   0  0  0  0  0  0  0  0  0  0  0  0
  -25.4460  -15.1920   20.4480 N   0  0  0  0  0  0  0  0  0  0  0  0
  -24.6940  -15.8560   20.5810 H   0  0  0  0  0  0  0  0  0  0  0  0
  -26.3190  -15.6330   20.1820 H   0  0  0  0  0  0  0  0  0  0  0  0
  1  2  1  0
  2  4  1  0
  2  5  1  0
  3  1  2  0
  5  6  1  0
  6  7  1  0
  7  8  1  0
  8  9  1  0
 10 11  1  0
 10  9  1  0
 12 11  1  0
 13 12  1  0
 14 13  1  0
 15 14  1  0
 15 16  1  0
 17 16  1  0
 17 18  1  0
 19 21  1  0
 19 18  1  0
 20 31  2  0
 21 26  1  0
 22 30  1  0
 22 32  1  0
 23 29  1  0
 23 25  1  0
 24 30  1  0
 25 24  1  0
 26 25  2  0
 27 28  1  0
 27 21  2  0
 28 23  2  0
 29 22  1  0
 30 20  1  0
 32 34  2  0
 33 32  1  0
 35 33  1  0
 36 45  2  0
 36 41  1  0
 37 33  1  0
 37 41  1  0
 38 37  1  0
 39 40  1  0
 39 38  1  0
 40 36  1  0
 41 42  2  0
 42 43  1  0
 44 43  2  0
 45 44  1  0
 46 20  1  0
 46 47  1  0
 46 56  1  0
 47 50  1  0
 48 52  1  0
 48 47  1  0
 49 48  2  0
 52 51  1  0
 54 52  1  0
 54 55  1  0
 54 53  1  0
 56 59  1  1
 56 57  1  0
 58 56  1  0
 60  1  1  0
 61 62  1  0
 62 64  1  0
 62 60  1  0
 63 61  2  0
 65 61  1  0
 65 66  1  0
 67 66  1  0
 67 68  1  0
 69 68  1  0
 69 70  1  0
 70 71  1  0
 71 72  1  0
 72 73  1  0
 73 74  1  0
 74 83  1  0
 76 81  1  0
 77 78  1  0
 77 76  1  0
 79 78  1  0
 79 88  1  0
 79 80  1  0
 81 75  1  0
 81 80  1  0
 82 75  2  0
 83 75  1  0
 83 84  1  0
 85 86  2  0
 86105  1  0
 87 86  1  0
 87 90  1  0
 88 89  1  0
 88 85  1  0
 89 87  2  0
 90 91  1  0
 91 92  2  0
 93 96  1  0
 93 92  1  0
 94 93  2  0
 95 94  1  0
 95 90  2  0
 96 97  1  0
 97 98  1  0
 98 99  2  0
100 99  1  0
100104  1  0
101100  2  0
102 97  2  0
102101  1  0
103102  1  0
105106  1  0
106109  1  0
106108  1  0
107105  2  0
110 85  1  0
110111  1  0
112110  1  0
M  ISO  4  18 101  19 101  75 100  83 100
M  END
>  <TORSDO>  (5) 
F 42

>  <SCORE>  (5) 
32.637

>  <name>  (5) 
5

>  <ligand_id>  (5) 
5

>  <original_smiles>  (5) 
[H]c1c([H])c([H])c2c(c1[H])C([H])([H])C([H])([H])C([H])([H])C2([H])N([H])C(=O)C1([H])N(C(=O)C([H])(N([H])C(=O)C([H])(N([H])C([H])([H])[H])C([H])([H])[H])C(C([H])([H])[H])(C([H])([H])[H])C([H])([H])[H])C([H])([H])c2c([H])c(OC([H])([H])C([H])([H])OC([H])([H])C([H])([H])OC([H])([H])C([H])([H])OC([H])([H])C([H])([H])OC([H])([H])C([H])([H])N([H])C(=O)C([H])([H])N([H])C(=O)C([H])([H])OC([H])([H])C([H])([H])OC([H])([H])C([H])([H])OC([H])([H])C([H])([H])N([H])C(=O)N3C([H])([H])C([H])([H])C([H])([H])C([H])(n4nc(-c5c([H])c([H])c(Oc6c([H])c([H])c(F)c([H])c6F)c([H])c5[H])c(C(=O)N([H])[H])c4N([H])[H])C3([H])[H])c([H])c([H])c2C1([H])[H]

>  <smiles>  (5) 
[H]c1c([H])c([H])c2c(c1[H])C([H])([H])C([H])([H])C([H])([H])C2([H])N([H])C(=O)C1([H])N(C(=O)C([H])(N([H])C(=O)C([H])(N([H])C([H])([H])[H])C([H])([H])[H])C(C([H])([H])[H])(C([H])([H])[H])C([H])([H])[H])C([H])([H])c2c([H])c(OC([H])([H])C([H])([H])OC([H])([H])C([H])([H])OC([H])([H])C([H])([H])OC([H])([H])C([H])([H])OC([H])([H])C([H])([H])N([H])C(=O)C([H])([H])N([H])C(=O)C([H])([H])OC([H])([H])C([H])([H])OC([H])([H])C([H])([H])OC([H])([H])C([H])([H])N([H])C(=O)N3C([H])([H])C([H])([H])C([H])([H])C([H])(n4nc(-c5c([H])c([H])c(Oc6c([H])c([H])c(F)c([H])c6F)c([H])c5[H])c(C(=O)N([H])[H])c4N([H])[H])C3([H])[H])c([H])c([H])c2C1([H])[H]

$$$$
6:0:0
     RDKit          3D

107114  0  0  1  0  0  0  0  0999 V2000
  -24.0450  -21.6030   23.7890 C   0  0  0  0  0  2  0  0  0  0  0  0
  -24.8650  -20.9270   24.7310 O   0  0  0  0  0  0  0  0  0  0  0  0
  -25.8560  -21.7620   25.3170 C   0  0  0  0  0  2  0  0  0  0  0  0
  -27.2700  -21.3560   24.8670 C   0  0  0  0  0  2  0  0  0  0  0  0
  -27.4900  -21.5000   23.4620 O   0  0  0  0  0  0  0  0  0  0  0  0
  -28.8890  -21.5160   23.1530 C   0  0  0  0  0  2  0  0  0  0  0  0
  -29.3250  -20.3660   22.2270 C   0  0  0  0  0  2  0  0  0  0  0  0
  -29.0650  -20.6520   20.8480 O   0  0  0  0  0  0  0  0  0  0  0  0
  -30.0920  -20.1660   19.9780 C   0  0  0  0  0  2  0  0  0  0  0  0
  -29.6100  -20.1540   18.5190 C   0  0  0  0  0  2  0  0  0  0  0  0
  -28.4880  -19.2860   18.3500 O   0  0  0  0  0  0  0  0  0  0  0  0
  -28.7430  -18.1160   17.5690 C   0  0  0  0  0  2  0  0  0  0  0  0
  -28.8750  -16.8380   18.4120 C   0  0  0  0  0  2  0  0  0  0  0  0
  -29.9030  -16.9770   19.3800 O   0  0  0  0  0  0  0  0  0  0  0  0
  -30.3670  -15.7310   19.8610 C   0  0  0  0  0  2  0  0  0  0  0  0
  -31.1240  -15.9150   21.1880 C   0  0  0  0  0  2  0  0  0  0  0  0
  -32.8330  -14.1400   21.1260 C   0  0  0  0  0  0  0  0  0  0  0  0
  -33.7470  -12.0990   20.1090 C   0  0  0  0  0  2  0  0  0  0  0  0
  -32.9280  -11.7790   18.8410 C   0  0  0  0  0  2  0  0  0  0  0  0
  -31.6810  -10.9420   19.1950 C   0  0  0  0  0  2  0  0  0  0  0  0
  -30.8660  -11.5440   20.3730 C   0  0  0  0  0  3  0  0  0  0  0  0
  -31.8060  -11.8850   21.5550 C   0  0  0  0  0  2  0  0  0  0  0  0
  -32.8600  -12.7880   21.0550 N   0  0  0  0  0  0  0  0  0  0  0  0
  -33.6930  -14.8760   20.6300 O   0  0  0  0  0  0  0  0  0  0  0  0
  -31.6940  -14.6390   21.6080 N   0  0  0  0  0  0  0  0  0  0  0  0
  -31.0530  -13.9690   22.0120 H   0  0  0  0  0  0  0  0  0  0  0  0
  -28.4120  -10.8260   20.7070 C   0  0  0  0  0  0  0  0  0  0  0  0
  -27.8530   -9.6670   21.1660 C   0  0  0  0  0  0  0  0  0  0  0  0
  -28.9480   -8.8100   21.5040 C   0  0  0  0  0  0  0  0  0  0  0  0
  -29.7850  -10.6510   20.7850 N   0  0  0  0  0  0  0  0  0  0  0  0
  -30.0990   -9.4420   21.3180 N   0  0  0  0  0  0  0  0  0  0  0  0
  -28.9680   -7.4100   21.9390 C   0  0  0  0  0  0  0  0  0  0  0  0
  -29.6960   -6.9990   23.0770 C   0  0  0  0  0  3  0  0  0  0  0  0
  -29.6860   -5.6480   23.4860 C   0  0  0  0  0  3  0  0  0  0  0  0
  -28.9420   -4.6910   22.7560 C   0  0  0  0  0  0  0  0  0  0  0  0
  -28.2370   -5.1010   21.6100 C   0  0  0  0  0  3  0  0  0  0  0  0
  -28.2540   -6.4450   21.2020 C   0  0  0  0  0  3  0  0  0  0  0  0
  -28.8950   -3.3540   23.0630 O   0  0  0  0  0  0  0  0  0  0  0  0
  -29.0910   -2.9020   24.3430 C   0  0  0  0  0  0  0  0  0  0  0  0
  -28.3600   -3.4210   25.4350 C   0  0  0  0  0  3  0  0  0  0  0  0
  -28.5400   -2.8770   26.7230 C   0  0  0  0  0  3  0  0  0  0  0  0
  -29.4410   -1.8160   26.9210 C   0  0  0  0  0  0  0  0  0  0  0  0
  -30.1680   -1.2970   25.8350 C   0  0  0  0  0  3  0  0  0  0  0  0
  -29.9890   -1.8370   24.5490 C   0  0  0  0  0  0  0  0  0  0  0  0
  -30.6760   -1.3190   23.5020 F   0  0  0  0  0  0  0  0  0  0  0  0
  -29.6090   -1.2890   28.1570 F   0  0  0  0  0  0  0  0  0  0  0  0
  -26.3910   -9.3270   21.2070 C   0  0  0  0  0  0  0  0  0  0  0  0
  -25.9830   -8.4920   22.1530 N   0  0  0  0  0  0  0  0  0  0  0  0
  -25.5930   -9.8470   20.4280 O   0  0  0  0  0  0  0  0  0  0  0  0
  -26.6390   -8.0800   22.8020 H   0  0  0  0  0  0  0  0  0  0  0  0
  -25.0030   -8.2670   22.2350 H   0  0  0  0  0  0  0  0  0  0  0  0
  -27.8670  -12.0120   20.2180 N   0  0  0  0  0  0  0  0  0  0  0  0
  -26.8660  -12.1440   20.1340 H   0  0  0  0  0  0  0  0  0  0  0  0
  -28.4000  -12.7940   19.8640 H   0  0  0  0  0  0  0  0  0  0  0  0
  -23.4940  -20.5770   22.7800 C   0  0  0  0  0  2  0  0  0  0  0  0
  -23.9550  -20.8310   21.4560 O   0  0  0  0  0  0  0  0  0  0  0  0
  -23.2750  -21.8960   20.8020 C   0  0  0  0  0  2  0  0  0  0  0  0
  -23.8250  -22.0640   19.3730 C   0  0  0  0  0  2  0  0  0  0  0  0
  -24.6160  -23.2430   19.2890 O   0  0  0  0  0  0  0  0  0  0  0  0
  -25.9880  -23.0710   19.6230 C   0  0  0  0  0  2  0  0  0  0  0  0
  -26.4510  -24.2830   20.4530 C   0  0  0  0  0  2  0  0  0  0  0  0
  -27.5310  -25.0670   19.8040 N   0  0  0  0  0  4  0  0  0  0  0  0
  -28.2910  -24.4310   19.5700 H   0  0  0  0  0  0  0  0  0  0  0  0
  -27.1660  -25.4400   18.9380 H   0  0  0  0  0  0  0  0  0  0  0  0
  -28.0740  -26.1750   20.6390 C   0  0  0  0  0  2  0  0  0  0  0  0
  -28.9530  -27.1730   19.8190 C   0  0  0  0  0  2  0  0  0  0  0  0
  -28.9600  -28.5160   20.3260 O   0  0  0  0  0  0  0  0  0  0  0  0
  -25.1260  -32.9720   24.2790 C   0  0  0  0  0  0  0  0  0  0  0  0
  -27.7630  -29.2030   20.4200 C   0  0  0  0  0  0  0  0  0  0  0  0
  -23.8930  -31.8240   22.4650 C   0  0  0  0  0  3  0  0  0  0  0  0
  -25.3290  -30.5900   20.7760 C   0  0  0  0  0  0  0  0  0  0  0  0
  -26.3940  -32.3000   22.2460 C   0  0  0  0  0  2  0  0  0  0  0  0
  -26.4940  -31.0540   21.3950 C   0  0  0  0  0  0  0  0  0  0  0  0
  -27.7140  -30.3620   21.2220 C   0  0  0  0  0  3  0  0  0  0  0  0
  -26.5750  -28.7700   19.7810 C   0  0  0  0  0  3  0  0  0  0  0  0
  -25.3560  -29.4380   19.9760 C   0  0  0  0  0  3  0  0  0  0  0  0
  -24.0790  -31.3950   20.9850 C   0  0  0  0  0  2  0  0  0  0  0  0
  -25.1580  -32.3730   23.0580 N   0  0  0  0  0  0  0  0  0  0  0  0
  -24.0600  -33.1120   24.8930 O   0  0  0  0  0  0  0  0  0  0  0  0
  -23.3010  -30.6350   23.2610 C   0  0  0  0  0  0  0  0  0  0  0  0
  -22.0100  -30.3380   23.0290 N   0  0  0  0  0  0  0  0  0  0  0  0
  -24.0020  -29.9890   24.0450 O   0  0  0  0  0  0  0  0  0  0  0  0
  -21.5010  -30.9080   22.3690 H   0  0  0  0  0  0  0  0  0  0  0  0
  -18.8080  -28.6730   23.0580 C   0  0  0  0  0  0  0  0  0  0  0  0
  -21.2530  -29.2570   23.6620 C   0  0  0  0  0  3  0  0  0  0  0  0
  -21.6170  -27.8790   23.0630 C   0  0  0  0  0  2  0  0  0  0  0  0
  -20.7140  -27.4840   21.8880 C   0  0  0  0  0  2  0  0  0  0  0  0
  -19.2500  -27.4130   22.3310 C   0  0  0  0  0  2  0  0  0  0  0  0
  -19.7480  -29.5470   23.6670 C   0  0  0  0  0  0  0  0  0  0  0  0
  -19.2850  -30.7200   24.2990 C   0  0  0  0  0  3  0  0  0  0  0  0
  -17.9120  -31.0270   24.3320 C   0  0  0  0  0  3  0  0  0  0  0  0
  -16.9860  -30.1500   23.7450 C   0  0  0  0  0  3  0  0  0  0  0  0
  -17.4330  -28.9770   23.1120 C   0  0  0  0  0  3  0  0  0  0  0  0
  -26.4220  -33.5360   24.9480 C   0  0  0  0  0  3  0  0  0  0  0  0
  -26.9660  -32.6180   26.1120 C   0  0  1  0  0  0  0  0  0  0  0  0
  -25.8930  -32.2430   27.1580 C   0  0  0  0  0  1  0  0  0  0  0  0
  -27.5430  -31.3040   25.5400 C   0  0  0  0  0  1  0  0  0  0  0  0
  -28.1290  -33.3270   26.8450 C   0  0  0  0  0  1  0  0  0  0  0  0
  -26.1130  -34.8810   25.4440 N   0  0  0  0  0  0  0  0  0  0  0  0
  -26.4420  -36.0160   24.8130 C   0  0  0  0  0  0  0  0  0  0  0  0
  -27.1140  -36.0370   23.7780 O   0  0  0  0  0  0  0  0  0  0  0  0
  -25.5300  -34.9380   26.2690 H   0  0  0  0  0  0  0  0  0  0  0  0
  -24.7240  -37.8360   24.6700 C   0  0  0  0  0  1  0  0  0  0  0  0
  -25.9590  -37.3380   25.4330 C   0  0  0  0  0  3  0  0  0  0  0  0
  -28.0930  -38.1110   26.3680 C   0  0  0  0  0  1  0  0  0  0  0  0
  -26.9910  -38.3950   25.4500 N   0  0  0  0  0  0  0  0  0  0  0  0
  -26.5840  -39.2880   25.7120 H   0  0  0  0  0  0  0  0  0  0  0  0
  1  2  1  0
  2  3  1  0
  4  3  1  0
  5  4  1  0
  6  5  1  0
  7  6  1  0
  8  7  1  0
  9  8  1  0
 10  9  1  0
 11 10  1  0
 12 11  1  0
 12 13  1  0
 13 14  1  0
 14 15  1  0
 15 16  1  0
 16 25  1  0
 17 25  1  0
 18 23  1  0
 19 20  1  0
 19 18  1  0
 21 20  1  0
 21 30  1  0
 21 22  1  0
 23 17  1  0
 23 22  1  0
 24 17  2  0
 25 26  1  0
 27 30  1  0
 27 28  2  0
 28 47  1  0
 28 29  1  0
 29 32  1  0
 30 31  1  0
 31 29  2  0
 32 33  1  0
 33 34  2  0
 35 38  1  0
 35 34  1  0
 36 35  2  0
 37 36  1  0
 37 32  2  0
 38 39  1  0
 39 44  2  0
 39 40  1  0
 40 41  2  0
 41 42  1  0
 42 46  1  0
 43 42  2  0
 44 43  1  0
 45 44  1  0
 47 48  1  0
 48 51  1  0
 48 50  1  0
 49 47  2  0
 52 27  1  0
 53 52  1  0
 54 52  1  0
 55  1  1  0
 56 55  1  0
 57 56  1  0
 58 57  1  0
 59 58  1  0
 59 60  1  0
 60 61  1  0
 62 61  1  0
 62 65  1  0
 63 62  1  0
 64 62  1  0
 66 67  1  0
 66 65  1  0
 67 69  1  0
 68 79  2  0
 69 74  1  0
 70 78  1  0
 70 80  1  0
 71 77  1  0
 71 73  1  0
 72 78  1  0
 73 72  1  0
 74 73  2  0
 75 76  1  0
 75 69  2  0
 76 71  2  0
 77 70  1  0
 78 68  1  0
 80 82  2  0
 81 80  1  0
 83 81  1  0
 84 93  2  0
 84 89  1  0
 85 81  1  0
 85 89  1  0
 86 85  1  0
 87 88  1  0
 87 86  1  0
 88 84  1  0
 89 90  2  0
 90 91  1  0
 92 91  2  0
 93 92  1  0
 94 68  1  0
 94 99  1  0
 94 95  1  0
 95 98  1  1
 95 96  1  0
 97 95  1  0
 99102  1  0
100104  1  0
100 99  1  0
101100  2  0
104103  1  0
104106  1  0
106107  1  0
106105  1  0
M  ISO  4  17 100  25 100  66 101  67 101
M  END
>  <TORSDO>  (6) 
F 41

>  <SCORE>  (6) 
36.107

>  <name>  (6) 
6

>  <ligand_id>  (6) 
6

>  <original_smiles>  (6) 
[H]c1c([H])c([H])c2c(c1[H])C([H])([H])C([H])([H])C([H])([H])C2([H])N([H])C(=O)C1([H])N(C(=O)C([H])(N([H])C(=O)C([H])(N([H])C([H])([H])[H])C([H])([H])[H])C(C([H])([H])[H])(C([H])([H])[H])C([H])([H])[H])C([H])([H])c2c([H])c(OC([H])([H])C([H])([H])[N+]([H])([H])C([H])([H])C([H])([H])OC([H])([H])C([H])([H])OC([H])([H])C([H])([H])OC([H])([H])C([H])([H])OC([H])([H])C([H])([H])OC([H])([H])C([H])([H])OC([H])([H])C([H])([H])OC([H])([H])C([H])([H])N([H])C(=O)N3C([H])([H])C([H])([H])C([H])([H])C([H])(n4nc(-c5c([H])c([H])c(Oc6c([H])c([H])c(F)c([H])c6F)c([H])c5[H])c(C(=O)N([H])[H])c4N([H])[H])C3([H])[H])c([H])c([H])c2C1([H])[H]

>  <smiles>  (6) 
[H]c1c([H])c([H])c2c(c1[H])C([H])([H])C([H])([H])C([H])([H])C2([H])N([H])C(=O)C1([H])N(C(=O)C([H])(N([H])C(=O)C([H])(N([H])C([H])([H])[H])C([H])([H])[H])C(C([H])([H])[H])(C([H])([H])[H])C([H])([H])[H])C([H])([H])c2c([H])c(OC([H])([H])C([H])([H])[N+]([H])([H])C([H])([H])C([H])([H])OC([H])([H])C([H])([H])OC([H])([H])C([H])([H])OC([H])([H])C([H])([H])OC([H])([H])C([H])([H])OC([H])([H])C([H])([H])OC([H])([H])C([H])([H])OC([H])([H])C([H])([H])N([H])C(=O)N3C([H])([H])C([H])([H])C([H])([H])C([H])(n4nc(-c5c([H])c([H])c(Oc6c([H])c([H])c(F)c([H])c6F)c([H])c5[H])c(C(=O)N([H])[H])c4N([H])[H])C3([H])[H])c([H])c([H])c2C1([H])[H]

$$$$
7:0:0
     RDKit          3D

110117  0  0  1  0  0  0  0  0999 V2000
  -32.1010  -27.7870   16.3720 C   0  0  0  0  0  2  0  0  0  0  0  0
  -31.1710  -28.6390   17.0430 O   0  0  0  0  0  0  0  0  0  0  0  0
  -30.0350  -28.0070   17.6470 C   0  0  0  0  0  2  0  0  0  0  0  0
  -29.0960  -27.3850   16.5970 C   0  0  0  0  0  0  0  0  0  0  0  0
  -28.6660  -26.1380   16.8200 N   0  0  0  0  0  0  0  0  0  0  0  0
  -28.7940  -28.0240   15.5870 O   0  0  0  0  0  0  0  0  0  0  0  0
  -28.9260  -25.6860   17.6890 H   0  0  0  0  0  0  0  0  0  0  0  0
  -27.8160  -25.3550   15.9260 C   0  0  0  0  0  2  0  0  0  0  0  0
  -28.3130  -23.8980   15.8520 C   0  0  0  0  0  2  0  0  0  0  0  0
  -28.5440  -23.3500   17.1460 O   0  0  0  0  0  0  0  0  0  0  0  0
  -27.3560  -23.0000   17.8510 C   0  0  0  0  0  2  0  0  0  0  0  0
  -27.6880  -22.9270   19.3430 C   0  0  0  0  0  2  0  0  0  0  0  0
  -28.3080  -24.1630   19.6650 O   0  0  0  0  0  0  0  0  0  0  0  0
  -28.0720  -24.6270   20.9840 C   0  0  0  0  0  2  0  0  0  0  0  0
  -28.7740  -25.9840   21.1010 C   0  0  0  0  0  2  0  0  0  0  0  0
  -28.4280  -26.8030   19.9930 O   0  0  0  0  0  0  0  0  0  0  0  0
  -24.6090  -31.8710   23.2160 C   0  0  0  0  0  0  0  0  0  0  0  0
  -27.2440  -27.4810   20.0940 C   0  0  0  0  0  0  0  0  0  0  0  0
  -23.3970  -30.4910   21.5530 C   0  0  0  0  0  3  0  0  0  0  0  0
  -24.8480  -28.9550   20.1270 C   0  0  0  0  0  0  0  0  0  0  0  0
  -25.9190  -30.8480   21.3650 C   0  0  0  0  0  2  0  0  0  0  0  0
  -26.0020  -29.4810   20.7210 C   0  0  0  0  0  0  0  0  0  0  0  0
  -27.2050  -28.7480   20.7070 C   0  0  0  0  0  3  0  0  0  0  0  0
  -26.0800  -26.9530   19.5040 C   0  0  0  0  0  3  0  0  0  0  0  0
  -24.8760  -27.6830   19.5240 C   0  0  0  0  0  3  0  0  0  0  0  0
  -23.6090  -29.8190   20.1690 C   0  0  0  0  0  2  0  0  0  0  0  0
  -24.6600  -31.0840   22.1040 N   0  0  0  0  0  0  0  0  0  0  0  0
  -23.5290  -32.1460   23.7560 O   0  0  0  0  0  0  0  0  0  0  0  0
  -22.7390  -29.4660   22.5010 C   0  0  0  0  0  0  0  0  0  0  0  0
  -21.4120  -29.3010   22.3740 N   0  0  0  0  0  0  0  0  0  0  0  0
  -23.4170  -28.8210   23.3050 O   0  0  0  0  0  0  0  0  0  0  0  0
  -20.9290  -29.8760   21.6970 H   0  0  0  0  0  0  0  0  0  0  0  0
  -18.0260  -28.1370   22.8490 C   0  0  0  0  0  0  0  0  0  0  0  0
  -20.5850  -28.3650   23.1330 C   0  0  0  0  0  3  0  0  0  0  0  0
  -20.6750  -26.9400   22.5400 C   0  0  0  0  0  2  0  0  0  0  0  0
  -19.5740  -26.6380   21.5190 C   0  0  0  0  0  2  0  0  0  0  0  0
  -18.1920  -26.7910   22.1610 C   0  0  0  0  0  2  0  0  0  0  0  0
  -19.1520  -28.8820   23.2910 C   0  0  0  0  0  0  0  0  0  0  0  0
  -18.9450  -30.1420   23.8910 C   0  0  0  0  0  3  0  0  0  0  0  0
  -17.6460  -30.6580   24.0560 C   0  0  0  0  0  3  0  0  0  0  0  0
  -16.5350  -29.9080   23.6320 C   0  0  0  0  0  3  0  0  0  0  0  0
  -16.7260  -28.6490   23.0350 C   0  0  0  0  0  3  0  0  0  0  0  0
  -25.9000  -32.4840   23.8440 C   0  0  0  0  0  3  0  0  0  0  0  0
  -26.4460  -31.6610   25.0760 C   0  0  1  0  0  0  0  0  0  0  0  0
  -25.3760  -31.3730   26.1530 C   0  0  0  0  0  1  0  0  0  0  0  0
  -27.0280  -30.3050   24.6100 C   0  0  0  0  0  1  0  0  0  0  0  0
  -27.6040  -32.4340   25.7520 C   0  0  0  0  0  1  0  0  0  0  0  0
  -25.5880  -33.8640   24.2350 N   0  0  0  0  0  0  0  0  0  0  0  0
  -25.9020  -34.9480   23.5130 C   0  0  0  0  0  0  0  0  0  0  0  0
  -26.5590  -34.8920   22.4700 O   0  0  0  0  0  0  0  0  0  0  0  0
  -25.0060  -33.9820   25.0510 H   0  0  0  0  0  0  0  0  0  0  0  0
  -24.1480  -36.7320   23.2630 C   0  0  0  0  0  1  0  0  0  0  0  0
  -25.4100  -36.3110   24.0330 C   0  0  0  0  0  3  0  0  0  0  0  0
  -27.5580  -37.1810   24.8470 C   0  0  0  0  0  1  0  0  0  0  0  0
  -26.4290  -37.3790   23.9420 N   0  0  0  0  0  0  0  0  0  0  0  0
  -26.0170  -38.2850   24.1450 H   0  0  0  0  0  0  0  0  0  0  0  0
  -32.9600  -26.9520   17.3500 C   0  0  0  0  0  2  0  0  0  0  0  0
  -33.6750  -25.9210   16.6790 O   0  0  0  0  0  0  0  0  0  0  0  0
  -32.8640  -24.8230   16.2630 C   0  0  0  0  0  2  0  0  0  0  0  0
  -33.3380  -23.5120   16.9210 C   0  0  0  0  0  2  0  0  0  0  0  0
  -33.0960  -23.4260   18.3260 O   0  0  0  0  0  0  0  0  0  0  0  0
  -31.7250  -23.4970   18.7100 C   0  0  0  0  0  2  0  0  0  0  0  0
  -31.5120  -22.8360   20.0790 C   0  0  0  0  0  2  0  0  0  0  0  0
  -32.4060  -23.3640   21.0560 O   0  0  0  0  0  0  0  0  0  0  0  0
  -31.8630  -23.5490   22.3650 C   0  0  0  0  0  2  0  0  0  0  0  0
  -31.1680  -22.3230   23.0070 C   0  0  0  0  0  2  0  0  0  0  0  0
  -32.0690  -21.3470   23.5320 O   0  0  0  0  0  0  0  0  0  0  0  0
  -32.7040  -20.5060   22.5730 C   0  0  0  0  0  2  0  0  0  0  0  0
  -31.7540  -19.4590   21.9560 C   0  0  0  0  0  2  0  0  0  0  0  0
  -31.7850  -18.2410   22.6920 O   0  0  0  0  0  0  0  0  0  0  0  0
  -31.0020  -17.2340   22.0660 C   0  0  0  0  0  2  0  0  0  0  0  0
  -31.3680  -15.8540   22.6350 C   0  0  0  0  0  2  0  0  0  0  0  0
  -30.8260  -14.2870   20.7700 C   0  0  0  0  0  0  0  0  0  0  0  0
  -30.4240  -12.2890   19.3870 C   0  0  0  0  0  2  0  0  0  0  0  0
  -29.4900  -12.5440   18.1920 C   0  0  0  0  0  2  0  0  0  0  0  0
  -28.0190  -12.3840   18.6160 C   0  0  0  0  0  2  0  0  0  0  0  0
  -27.6760  -13.2030   19.8860 C   0  0  0  0  0  3  0  0  0  0  0  0
  -28.7110  -12.9500   21.0050 C   0  0  0  0  0  2  0  0  0  0  0  0
  -30.0650  -13.2070   20.4750 N   0  0  0  0  0  0  0  0  0  0  0  0
  -31.7500  -14.6930   20.0610 O   0  0  0  0  0  0  0  0  0  0  0  0
  -30.6070  -14.7870   21.9910 N   0  0  0  0  0  0  0  0  0  0  0  0
  -29.8850  -14.3390   22.5360 H   0  0  0  0  0  0  0  0  0  0  0  0
  -25.2670  -13.8160   20.5660 C   0  0  0  0  0  0  0  0  0  0  0  0
  -24.1910  -13.0460   20.9150 C   0  0  0  0  0  0  0  0  0  0  0  0
  -24.6440  -11.6920   20.8730 C   0  0  0  0  0  0  0  0  0  0  0  0
  -26.3110  -12.9330   20.3400 N   0  0  0  0  0  0  0  0  0  0  0  0
  -25.9370  -11.6490   20.5770 N   0  0  0  0  0  0  0  0  0  0  0  0
  -23.9090  -10.4310   21.0400 C   0  0  0  0  0  0  0  0  0  0  0  0
  -24.3620   -9.4230   21.9200 C   0  0  0  0  0  3  0  0  0  0  0  0
  -23.6280   -8.2270   22.0780 C   0  0  0  0  0  3  0  0  0  0  0  0
  -22.4270   -8.0300   21.3570 C   0  0  0  0  0  0  0  0  0  0  0  0
  -21.9910   -9.0300   20.4680 C   0  0  0  0  0  3  0  0  0  0  0  0
  -22.7250  -10.2170   20.3070 C   0  0  0  0  0  3  0  0  0  0  0  0
  -21.6650   -6.8900   21.4250 O   0  0  0  0  0  0  0  0  0  0  0  0
  -21.6870   -6.0740   22.5270 C   0  0  0  0  0  0  0  0  0  0  0  0
  -21.4030   -6.5630   23.8210 C   0  0  0  0  0  3  0  0  0  0  0  0
  -21.3650   -5.6790   24.9170 C   0  0  0  0  0  3  0  0  0  0  0  0
  -21.6030   -4.3050   24.7230 C   0  0  0  0  0  0  0  0  0  0  0  0
  -21.8820   -3.8140   23.4340 C   0  0  0  0  0  3  0  0  0  0  0  0
  -21.9200   -4.6960   22.3400 C   0  0  0  0  0  0  0  0  0  0  0  0
  -22.1670   -4.2150   21.0980 F   0  0  0  0  0  0  0  0  0  0  0  0
  -21.5620   -3.4530   25.7740 F   0  0  0  0  0  0  0  0  0  0  0  0
  -22.7930  -13.5280   21.1780 C   0  0  0  0  0  0  0  0  0  0  0  0
  -22.0520  -12.8340   22.0330 N   0  0  0  0  0  0  0  0  0  0  0  0
  -22.3650  -14.5600   20.6600 O   0  0  0  0  0  0  0  0  0  0  0  0
  -22.4050  -11.9960   22.4710 H   0  0  0  0  0  0  0  0  0  0  0  0
  -21.1160  -13.1480   22.2520 H   0  0  0  0  0  0  0  0  0  0  0  0
  -25.4450  -15.1870   20.4060 N   0  0  0  0  0  0  0  0  0  0  0  0
  -24.6860  -15.8520   20.5230 H   0  0  0  0  0  0  0  0  0  0  0  0
  -26.3030  -15.6170   20.0860 H   0  0  0  0  0  0  0  0  0  0  0  0
  1  2  1  0
  1 57  1  0
  2  3  1  0
  4  5  1  0
  4  3  1  0
  5  7  1  0
  6  4  2  0
  8  5  1  0
  9  8  1  0
  9 10  1  0
 10 11  1  0
 11 12  1  0
 12 13  1  0
 13 14  1  0
 14 15  1  0
 16 18  1  0
 16 15  1  0
 17 28  2  0
 18 23  1  0
 19 27  1  0
 19 29  1  0
 20 26  1  0
 20 22  1  0
 21 27  1  0
 22 21  1  0
 23 22  2  0
 24 25  1  0
 24 18  2  0
 25 20  2  0
 26 19  1  0
 27 17  1  0
 29 31  2  0
 30 29  1  0
 32 30  1  0
 33 42  2  0
 33 38  1  0
 34 30  1  0
 34 38  1  0
 35 34  1  0
 36 37  1  0
 36 35  1  0
 37 33  1  0
 38 39  2  0
 39 40  1  0
 41 40  2  0
 42 41  1  0
 43 17  1  0
 43 48  1  0
 43 44  1  0
 44 47  1  1
 44 45  1  0
 46 44  1  0
 48 51  1  0
 49 53  1  0
 49 48  1  0
 50 49  2  0
 53 52  1  0
 55 53  1  0
 55 56  1  0
 55 54  1  0
 58 57  1  0
 59 58  1  0
 59 60  1  0
 60 61  1  0
 61 62  1  0
 62 63  1  0
 63 64  1  0
 64 65  1  0
 65 66  1  0
 66 67  1  0
 68 67  1  0
 69 68  1  0
 69 70  1  0
 71 72  1  0
 71 70  1  0
 73 81  1  0
 74 79  1  0
 75 76  1  0
 75 74  1  0
 77 76  1  0
 77 86  1  0
 77 78  1  0
 79 73  1  0
 79 78  1  0
 80 73  2  0
 81 82  1  0
 81 72  1  0
 83 84  2  0
 84103  1  0
 85 84  1  0
 85 88  1  0
 86 83  1  0
 86 87  1  0
 87 85  2  0
 88 89  1  0
 89 90  2  0
 91 94  1  0
 91 90  1  0
 92 91  2  0
 93 92  1  0
 93 88  2  0
 94 95  1  0
 95 96  1  0
 96 97  2  0
 98 97  1  0
 98102  1  0
 99 98  2  0
100 95  2  0
100 99  1  0
101100  1  0
103104  1  0
104107  1  0
104106  1  0
105103  2  0
108109  1  0
108 83  1  0
110108  1  0
M  ISO  4  15 101  16 101  73 100  81 100
M  END
>  <TORSDO>  (7) 
F 43

>  <SCORE>  (7) 
-5.451

>  <name>  (7) 
7

>  <ligand_id>  (7) 
7

>  <original_smiles>  (7) 
[H]c1c([H])c([H])c2c(c1[H])C([H])([H])C([H])([H])C([H])([H])C2([H])N([H])C(=O)C1([H])N(C(=O)C([H])(N([H])C(=O)C([H])(N([H])C([H])([H])[H])C([H])([H])[H])C(C([H])([H])[H])(C([H])([H])[H])C([H])([H])[H])C([H])([H])c2c([H])c(OC([H])([H])C([H])([H])OC([H])([H])C([H])([H])OC([H])([H])C([H])([H])N([H])C(=O)C([H])([H])OC([H])([H])C([H])([H])OC([H])([H])C([H])([H])OC([H])([H])C([H])([H])OC([H])([H])C([H])([H])OC([H])([H])C([H])([H])OC([H])([H])C([H])([H])N([H])C(=O)N3C([H])([H])C([H])([H])C([H])([H])C([H])(n4nc(-c5c([H])c([H])c(Oc6c([H])c([H])c(F)c([H])c6F)c([H])c5[H])c(C(=O)N([H])[H])c4N([H])[H])C3([H])[H])c([H])c([H])c2C1([H])[H]

>  <smiles>  (7) 
[H]c1c([H])c([H])c2c(c1[H])C([H])([H])C([H])([H])C([H])([H])C2([H])N([H])C(=O)C1([H])N(C(=O)C([H])(N([H])C(=O)C([H])(N([H])C([H])([H])[H])C([H])([H])[H])C(C([H])([H])[H])(C([H])([H])[H])C([H])([H])[H])C([H])([H])c2c([H])c(OC([H])([H])C([H])([H])OC([H])([H])C([H])([H])OC([H])([H])C([H])([H])N([H])C(=O)C([H])([H])OC([H])([H])C([H])([H])OC([H])([H])C([H])([H])OC([H])([H])C([H])([H])OC([H])([H])C([H])([H])OC([H])([H])C([H])([H])OC([H])([H])C([H])([H])N([H])C(=O)N3C([H])([H])C([H])([H])C([H])([H])C([H])(n4nc(-c5c([H])c([H])c(Oc6c([H])c([H])c(F)c([H])c6F)c([H])c5[H])c(C(=O)N([H])[H])c4N([H])[H])C3([H])[H])c([H])c([H])c2C1([H])[H]

$$$$
8:0:0
     RDKit          3D

 96103  0  0  1  0  0  0  0  0999 V2000
  -30.8730  -21.1580   16.5780 C   0  0  0  0  0  0  0  0  0  0  0  0
  -30.8460  -22.4200   16.1310 N   0  0  0  0  0  0  0  0  0  0  0  0
  -29.9050  -20.4020   16.4610 O   0  0  0  0  0  0  0  0  0  0  0  0
  -31.6760  -22.9880   16.2430 H   0  0  0  0  0  0  0  0  0  0  0  0
  -29.6710  -23.0690   15.5430 C   0  0  0  0  0  2  0  0  0  0  0  0
  -29.4850  -24.4880   16.0950 C   0  0  0  0  0  2  0  0  0  0  0  0
  -29.2170  -24.4180   17.4890 O   0  0  0  0  0  0  0  0  0  0  0  0
  -29.0420  -25.7050   18.0690 C   0  0  0  0  0  2  0  0  0  0  0  0
  -28.7250  -25.5470   19.5640 C   0  0  0  0  0  2  0  0  0  0  0  0
  -28.5370  -26.8070   20.2020 O   0  0  0  0  0  0  0  0  0  0  0  0
  -24.6150  -31.8630   23.2430 C   0  0  0  0  0  0  0  0  0  0  0  0
  -27.3140  -27.4440   20.1750 C   0  0  0  0  0  0  0  0  0  0  0  0
  -23.4250  -30.4560   21.5890 C   0  0  0  0  0  3  0  0  0  0  0  0
  -24.8940  -28.9110   20.1900 C   0  0  0  0  0  0  0  0  0  0  0  0
  -25.9480  -30.8220   21.4120 C   0  0  0  0  0  2  0  0  0  0  0  0
  -26.0420  -29.4490   20.7810 C   0  0  0  0  0  0  0  0  0  0  0  0
  -27.2490  -28.7210   20.7720 C   0  0  0  0  0  3  0  0  0  0  0  0
  -26.1430  -26.9050   19.5940 C   0  0  0  0  0  3  0  0  0  0  0  0
  -24.9370  -27.6350   19.5990 C   0  0  0  0  0  3  0  0  0  0  0  0
  -23.6480  -29.7640   20.2180 C   0  0  0  0  0  2  0  0  0  0  0  0
  -24.6800  -31.0590   22.1410 N   0  0  0  0  0  0  0  0  0  0  0  0
  -23.5300  -32.1400   23.7700 O   0  0  0  0  0  0  0  0  0  0  0  0
  -22.7580  -29.4410   22.5460 C   0  0  0  0  0  0  0  0  0  0  0  0
  -21.4330  -29.2710   22.4090 N   0  0  0  0  0  0  0  0  0  0  0  0
  -23.4320  -28.8060   23.3600 O   0  0  0  0  0  0  0  0  0  0  0  0
  -20.9520  -29.8310   21.7210 H   0  0  0  0  0  0  0  0  0  0  0  0
  -18.0460  -28.1110   22.8880 C   0  0  0  0  0  0  0  0  0  0  0  0
  -20.6050  -28.3370   23.1730 C   0  0  0  0  0  3  0  0  0  0  0  0
  -20.6950  -26.9080   22.5900 C   0  0  0  0  0  2  0  0  0  0  0  0
  -19.5960  -26.6050   21.5680 C   0  0  0  0  0  2  0  0  0  0  0  0
  -18.2120  -26.7630   22.2050 C   0  0  0  0  0  2  0  0  0  0  0  0
  -19.1720  -28.8580   23.3260 C   0  0  0  0  0  0  0  0  0  0  0  0
  -18.9660  -30.1240   23.9170 C   0  0  0  0  0  3  0  0  0  0  0  0
  -17.6680  -30.6430   24.0750 C   0  0  0  0  0  3  0  0  0  0  0  0
  -16.5580  -29.8950   23.6520 C   0  0  0  0  0  3  0  0  0  0  0  0
  -16.7470  -28.6300   23.0660 C   0  0  0  0  0  3  0  0  0  0  0  0
  -25.8980  -32.4870   23.8740 C   0  0  0  0  0  3  0  0  0  0  0  0
  -26.3990  -31.7180   25.1570 C   0  0  1  0  0  0  0  0  0  0  0  0
  -25.2950  -31.4970   26.2170 C   0  0  0  0  0  1  0  0  0  0  0  0
  -26.9730  -30.3350   24.7720 C   0  0  0  0  0  1  0  0  0  0  0  0
  -27.5470  -32.5100   25.8280 C   0  0  0  0  0  1  0  0  0  0  0  0
  -25.6010  -33.8910   24.1910 N   0  0  0  0  0  0  0  0  0  0  0  0
  -25.9550  -34.9340   23.4280 C   0  0  0  0  0  0  0  0  0  0  0  0
  -26.6370  -34.8150   22.4060 O   0  0  0  0  0  0  0  0  0  0  0  0
  -24.9980  -34.0600   24.9820 H   0  0  0  0  0  0  0  0  0  0  0  0
  -24.2440  -36.7320   23.0340 C   0  0  0  0  0  1  0  0  0  0  0  0
  -25.4710  -36.3280   23.8680 C   0  0  0  0  0  3  0  0  0  0  0  0
  -27.6020  -37.2000   24.7200 C   0  0  0  0  0  1  0  0  0  0  0  0
  -26.5130  -37.3730   23.7620 N   0  0  0  0  0  0  0  0  0  0  0  0
  -26.1130  -38.2970   23.9060 H   0  0  0  0  0  0  0  0  0  0  0  0
  -32.1620  -20.6620   17.2490 C   0  0  0  0  0  2  0  0  0  0  0  0
  -31.4050  -19.1270   19.0670 C   0  0  0  0  0  0  0  0  0  0  0  0
  -31.9030  -20.2950   18.6430 N   0  0  0  0  0  0  0  0  0  0  0  0
  -31.2290  -18.1710   18.3110 O   0  0  0  0  0  0  0  0  0  0  0  0
  -32.0470  -21.0220   19.3300 H   0  0  0  0  0  0  0  0  0  0  0  0
  -31.0500  -19.0340   20.5580 C   0  0  0  0  0  2  0  0  0  0  0  0
  -31.1000  -17.6080   21.1540 C   0  0  0  0  0  2  0  0  0  0  0  0
  -29.8520  -16.7660   20.8240 C   0  0  0  0  0  2  0  0  0  0  0  0
  -30.6250  -14.4260   20.5280 C   0  0  0  0  0  0  0  0  0  0  0  0
  -30.3250  -12.3250   19.2890 C   0  0  0  0  0  2  0  0  0  0  0  0
  -29.3770  -12.6020   18.1040 C   0  0  0  0  0  2  0  0  0  0  0  0
  -27.9030  -12.4510   18.5310 C   0  0  0  0  0  2  0  0  0  0  0  0
  -27.5790  -13.2320   19.8320 C   0  0  0  0  0  3  0  0  0  0  0  0
  -28.6350  -12.9350   20.9250 C   0  0  0  0  0  2  0  0  0  0  0  0
  -29.9670  -13.2470   20.3760 N   0  0  0  0  0  0  0  0  0  0  0  0
  -31.6900  -14.6870   19.9630 O   0  0  0  0  0  0  0  0  0  0  0  0
  -29.9360  -15.3550   21.2040 N   0  0  0  0  0  0  0  0  0  0  0  0
  -29.1430  -14.9940   21.7150 H   0  0  0  0  0  0  0  0  0  0  0  0
  -25.1670  -13.8230   20.5150 C   0  0  0  0  0  0  0  0  0  0  0  0
  -24.1040  -13.0410   20.8830 C   0  0  0  0  0  0  0  0  0  0  0  0
  -24.5780  -11.6940   20.8590 C   0  0  0  0  0  0  0  0  0  0  0  0
  -26.2230  -12.9510   20.2980 N   0  0  0  0  0  0  0  0  0  0  0  0
  -25.8710  -11.6660   20.5570 N   0  0  0  0  0  0  0  0  0  0  0  0
  -23.8660  -10.4250   21.0500 C   0  0  0  0  0  0  0  0  0  0  0  0
  -24.3140   -9.4600   21.9790 C   0  0  0  0  0  3  0  0  0  0  0  0
  -23.6020   -8.2540   22.1590 C   0  0  0  0  0  3  0  0  0  0  0  0
  -22.4280   -8.0050   21.4100 C   0  0  0  0  0  0  0  0  0  0  0  0
  -21.9990   -8.9580   20.4700 C   0  0  0  0  0  3  0  0  0  0  0  0
  -22.7120  -10.1550   20.2880 C   0  0  0  0  0  3  0  0  0  0  0  0
  -21.6860   -6.8520   21.4980 O   0  0  0  0  0  0  0  0  0  0  0  0
  -21.6610   -6.0980   22.6440 C   0  0  0  0  0  0  0  0  0  0  0  0
  -21.2550   -6.6390   23.8830 C   0  0  0  0  0  3  0  0  0  0  0  0
  -21.1800   -5.8110   25.0210 C   0  0  0  0  0  3  0  0  0  0  0  0
  -21.5000   -4.4430   24.9200 C   0  0  0  0  0  0  0  0  0  0  0  0
  -21.9010   -3.9030   23.6850 C   0  0  0  0  0  3  0  0  0  0  0  0
  -21.9790   -4.7290   22.5500 C   0  0  0  0  0  0  0  0  0  0  0  0
  -22.3440   -4.1990   21.3580 F   0  0  0  0  0  0  0  0  0  0  0  0
  -21.4210   -3.6460   26.0100 F   0  0  0  0  0  0  0  0  0  0  0  0
  -22.7010  -13.5040   21.1500 C   0  0  0  0  0  0  0  0  0  0  0  0
  -21.9790  -12.8000   22.0170 N   0  0  0  0  0  0  0  0  0  0  0  0
  -22.2530  -14.5240   20.6280 O   0  0  0  0  0  0  0  0  0  0  0  0
  -22.3550  -11.9750   22.4600 H   0  0  0  0  0  0  0  0  0  0  0  0
  -21.0390  -13.0900   22.2400 H   0  0  0  0  0  0  0  0  0  0  0  0
  -25.3180  -15.1930   20.3330 N   0  0  0  0  0  0  0  0  0  0  0  0
  -24.5410  -15.8400   20.4280 H   0  0  0  0  0  0  0  0  0  0  0  0
  -26.1650  -15.6400   20.0030 H   0  0  0  0  0  0  0  0  0  0  0  0
  1 51  1  0
  2  4  1  0
  2  1  1  0
  3  1  2  0
  5  6  1  0
  5  2  1  0
  6  7  1  0
  7  8  1  0
  8  9  1  0
  9 10  1  0
 11 22  2  0
 12 10  1  0
 12 17  1  0
 13 21  1  0
 13 23  1  0
 14 20  1  0
 14 16  1  0
 15 21  1  0
 16 15  1  0
 17 16  2  0
 18 19  1  0
 18 12  2  0
 19 14  2  0
 20 13  1  0
 21 11  1  0
 23 25  2  0
 24 23  1  0
 26 24  1  0
 27 36  2  0
 27 32  1  0
 28 24  1  0
 28 32  1  0
 29 28  1  0
 30 31  1  0
 30 29  1  0
 31 27  1  0
 32 33  2  0
 33 34  1  0
 35 34  2  0
 36 35  1  0
 37 11  1  0
 37 42  1  0
 37 38  1  0
 38 41  1  1
 38 39  1  0
 40 38  1  0
 42 45  1  0
 43 47  1  0
 43 42  1  0
 44 43  2  0
 47 46  1  0
 49 47  1  0
 49 50  1  0
 49 48  1  0
 51 53  1  0
 52 56  1  0
 53 52  1  0
 53 55  1  0
 54 52  2  0
 56 57  1  0
 58 57  1  0
 58 67  1  0
 59 67  1  0
 60 65  1  0
 61 62  1  0
 61 60  1  0
 63 62  1  0
 63 72  1  0
 63 64  1  0
 65 59  1  0
 65 64  1  0
 66 59  2  0
 67 68  1  0
 69 70  2  0
 70 89  1  0
 71 70  1  0
 71 74  1  0
 72 69  1  0
 72 73  1  0
 73 71  2  0
 74 75  1  0
 75 76  2  0
 77 80  1  0
 77 76  1  0
 78 77  2  0
 79 78  1  0
 79 74  2  0
 80 81  1  0
 81 82  1  0
 82 83  2  0
 84 83  1  0
 84 88  1  0
 85 84  2  0
 86 81  2  0
 86 85  1  0
 87 86  1  0
 89 90  1  0
 90 93  1  0
 90 92  1  0
 91 89  2  0
 94 95  1  0
 94 69  1  0
 96 94  1  0
M  ISO  4   9 101  10 101  59 100  67 100
M  END
>  <TORSDO>  (8) 
F 26

>  <SCORE>  (8) 
-11.760

>  <name>  (8) 
8

>  <ligand_id>  (8) 
8

>  <original_smiles>  (8) 
[H]c1c([H])c([H])c2c(c1[H])C([H])([H])C([H])([H])C([H])([H])C2([H])N([H])C(=O)C1([H])N(C(=O)C([H])(N([H])C(=O)C([H])(N([H])C([H])([H])[H])C([H])([H])[H])C(C([H])([H])[H])(C([H])([H])[H])C([H])([H])[H])C([H])([H])c2c([H])c(OC([H])([H])C([H])([H])OC([H])([H])C([H])([H])N([H])C(=O)C([H])([H])N([H])C(=O)C([H])([H])C([H])([H])C([H])([H])N([H])C(=O)N3C([H])([H])C([H])([H])C([H])([H])C([H])(n4nc(-c5c([H])c([H])c(Oc6c([H])c([H])c(F)c([H])c6F)c([H])c5[H])c(C(=O)N([H])[H])c4N([H])[H])C3([H])[H])c([H])c([H])c2C1([H])[H]

>  <smiles>  (8) 
[H]c1c([H])c([H])c2c(c1[H])C([H])([H])C([H])([H])C([H])([H])C2([H])N([H])C(=O)C1([H])N(C(=O)C([H])(N([H])C(=O)C([H])(N([H])C([H])([H])[H])C([H])([H])[H])C(C([H])([H])[H])(C([H])([H])[H])C([H])([H])[H])C([H])([H])c2c([H])c(OC([H])([H])C([H])([H])OC([H])([H])C([H])([H])N([H])C(=O)C([H])([H])N([H])C(=O)C([H])([H])C([H])([H])C([H])([H])N([H])C(=O)N3C([H])([H])C([H])([H])C([H])([H])C([H])(n4nc(-c5c([H])c([H])c(Oc6c([H])c([H])c(F)c([H])c6F)c([H])c5[H])c(C(=O)N([H])[H])c4N([H])[H])C3([H])[H])c([H])c([H])c2C1([H])[H]

$$$$
9:0:0
     RDKit          3D

 98105  0  0  1  0  0  0  0  0999 V2000
  -33.5700  -25.2850   20.2430 C   0  0  0  0  0  2  0  0  0  0  0  0
  -32.7990  -24.4910   19.3560 O   0  0  0  0  0  0  0  0  0  0  0  0
  -32.7680  -23.1160   19.7310 C   0  0  0  0  0  2  0  0  0  0  0  0
  -31.7410  -22.3680   18.8710 C   0  0  0  0  0  0  0  0  0  0  0  0
  -31.8230  -21.0320   18.8550 N   0  0  0  0  0  0  0  0  0  0  0  0
  -30.8750  -22.9870   18.2440 O   0  0  0  0  0  0  0  0  0  0  0  0
  -32.5770  -20.6060   19.3780 H   0  0  0  0  0  0  0  0  0  0  0  0
  -30.8860  -20.1380   18.1780 C   0  0  0  0  0  2  0  0  0  0  0  0
  -29.6320  -19.8800   19.0350 C   0  0  0  0  0  2  0  0  0  0  0  0
  -29.9070  -19.1160   20.3450 C   0  0  0  0  0  2  0  0  0  0  0  0
  -29.8630  -17.5900   20.1680 C   0  0  0  0  0  2  0  0  0  0  0  0
  -30.2530  -16.8250   21.4460 C   0  0  0  0  0  2  0  0  0  0  0  0
  -30.6170  -14.5050   20.5820 C   0  0  0  0  0  0  0  0  0  0  0  0
  -30.3420  -12.3870   19.3510 C   0  0  0  0  0  2  0  0  0  0  0  0
  -29.4060  -12.6170   18.1470 C   0  0  0  0  0  2  0  0  0  0  0  0
  -27.9280  -12.4690   18.5600 C   0  0  0  0  0  2  0  0  0  0  0  0
  -27.5800  -13.2840   19.8330 C   0  0  0  0  0  3  0  0  0  0  0  0
  -28.6190  -13.0150   20.9440 C   0  0  0  0  0  2  0  0  0  0  0  0
  -29.9560  -13.3330   20.4060 N   0  0  0  0  0  0  0  0  0  0  0  0
  -31.6930  -14.7740   20.0380 O   0  0  0  0  0  0  0  0  0  0  0  0
  -29.9540  -15.4030   21.3190 N   0  0  0  0  0  0  0  0  0  0  0  0
  -29.0940  -15.0790   21.7380 H   0  0  0  0  0  0  0  0  0  0  0  0
  -25.1590  -13.8830   20.4870 C   0  0  0  0  0  0  0  0  0  0  0  0
  -24.0930  -13.1060   20.8500 C   0  0  0  0  0  0  0  0  0  0  0  0
  -24.5670  -11.7580   20.8440 C   0  0  0  0  0  0  0  0  0  0  0  0
  -26.2170  -13.0080   20.2890 N   0  0  0  0  0  0  0  0  0  0  0  0
  -25.8610  -11.7260   20.5560 N   0  0  0  0  0  0  0  0  0  0  0  0
  -23.8510  -10.4910   21.0420 C   0  0  0  0  0  0  0  0  0  0  0  0
  -24.2940   -9.5310   21.9770 C   0  0  0  0  0  3  0  0  0  0  0  0
  -23.5790   -8.3280   22.1610 C   0  0  0  0  0  3  0  0  0  0  0  0
  -22.4070   -8.0770   21.4080 C   0  0  0  0  0  0  0  0  0  0  0  0
  -21.9830   -9.0270   20.4620 C   0  0  0  0  0  3  0  0  0  0  0  0
  -22.6990  -10.2200   20.2770 C   0  0  0  0  0  3  0  0  0  0  0  0
  -21.6620   -6.9260   21.5020 O   0  0  0  0  0  0  0  0  0  0  0  0
  -21.6360   -6.1770   22.6510 C   0  0  0  0  0  0  0  0  0  0  0  0
  -21.2410   -6.7260   23.8910 C   0  0  0  0  0  3  0  0  0  0  0  0
  -21.1620   -5.9040   25.0320 C   0  0  0  0  0  3  0  0  0  0  0  0
  -21.4670   -4.5330   24.9350 C   0  0  0  0  0  0  0  0  0  0  0  0
  -21.8560   -3.9830   23.7010 C   0  0  0  0  0  3  0  0  0  0  0  0
  -21.9370   -4.8030   22.5610 C   0  0  0  0  0  0  0  0  0  0  0  0
  -22.2910   -4.2640   21.3700 F   0  0  0  0  0  0  0  0  0  0  0  0
  -21.3840   -3.7410   26.0280 F   0  0  0  0  0  0  0  0  0  0  0  0
  -22.6860  -13.5720   21.0960 C   0  0  0  0  0  0  0  0  0  0  0  0
  -21.9550  -12.8790   21.9630 N   0  0  0  0  0  0  0  0  0  0  0  0
  -22.2440  -14.5850   20.5580 O   0  0  0  0  0  0  0  0  0  0  0  0
  -22.3240  -12.0590   22.4220 H   0  0  0  0  0  0  0  0  0  0  0  0
  -21.0120  -13.1750   22.1730 H   0  0  0  0  0  0  0  0  0  0  0  0
  -25.3130  -15.2520   20.2910 N   0  0  0  0  0  0  0  0  0  0  0  0
  -24.5360  -15.9010   20.3660 H   0  0  0  0  0  0  0  0  0  0  0  0
  -26.1650  -15.6920   19.9690 H   0  0  0  0  0  0  0  0  0  0  0  0
  -33.5930  -26.7270   19.7220 C   0  0  0  0  0  2  0  0  0  0  0  0
  -33.9440  -27.6160   20.7760 O   0  0  0  0  0  0  0  0  0  0  0  0
  -33.7790  -28.9890   20.4370 C   0  0  0  0  0  2  0  0  0  0  0  0
  -32.4710  -29.5610   21.0130 C   0  0  0  0  0  2  0  0  0  0  0  0
  -31.3390  -29.0060   20.3510 O   0  0  0  0  0  0  0  0  0  0  0  0
  -30.6350  -28.0340   21.1210 C   0  0  0  0  0  2  0  0  0  0  0  0
  -29.7220  -27.2120   20.1700 C   0  0  0  0  0  2  0  0  0  0  0  0
  -28.4040  -26.6310   20.2050 O   0  0  0  0  0  0  0  0  0  0  0  0
  -24.5760  -31.8630   23.2430 C   0  0  0  0  0  0  0  0  0  0  0  0
  -27.2570  -27.4030   20.2560 C   0  0  0  0  0  0  0  0  0  0  0  0
  -23.3780  -30.4380   21.6100 C   0  0  0  0  0  3  0  0  0  0  0  0
  -24.8420  -28.8710   20.2310 C   0  0  0  0  0  0  0  0  0  0  0  0
  -25.8990  -30.7990   21.4240 C   0  0  0  0  0  2  0  0  0  0  0  0
  -25.9890  -29.4170   20.8190 C   0  0  0  0  0  0  0  0  0  0  0  0
  -27.1960  -28.6910   20.8380 C   0  0  0  0  0  3  0  0  0  0  0  0
  -26.0880  -26.8540   19.6910 C   0  0  0  0  0  3  0  0  0  0  0  0
  -24.8830  -27.5820   19.6680 C   0  0  0  0  0  3  0  0  0  0  0  0
  -23.5980  -29.7290   20.2450 C   0  0  0  0  0  2  0  0  0  0  0  0
  -24.6350  -31.0490   22.1530 N   0  0  0  0  0  0  0  0  0  0  0  0
  -23.4920  -32.1480   23.7690 O   0  0  0  0  0  0  0  0  0  0  0  0
  -22.7160  -29.4370   22.5810 C   0  0  0  0  0  0  0  0  0  0  0  0
  -21.3910  -29.2640   22.4490 N   0  0  0  0  0  0  0  0  0  0  0  0
  -23.3910  -28.8170   23.4080 O   0  0  0  0  0  0  0  0  0  0  0  0
  -20.9100  -29.8160   21.7530 H   0  0  0  0  0  0  0  0  0  0  0  0
  -18.0030  -28.1200   22.9450 C   0  0  0  0  0  0  0  0  0  0  0  0
  -20.5620  -28.3440   23.2260 C   0  0  0  0  0  3  0  0  0  0  0  0
  -20.6470  -26.9060   22.6640 C   0  0  0  0  0  2  0  0  0  0  0  0
  -19.5460  -26.5890   21.6470 C   0  0  0  0  0  2  0  0  0  0  0  0
  -18.1640  -26.7600   22.2850 C   0  0  0  0  0  2  0  0  0  0  0  0
  -19.1310  -28.8700   23.3740 C   0  0  0  0  0  0  0  0  0  0  0  0
  -18.9280  -30.1420   23.9480 C   0  0  0  0  0  3  0  0  0  0  0  0
  -17.6300  -30.6660   24.1000 C   0  0  0  0  0  3  0  0  0  0  0  0
  -16.5170  -29.9120   23.6890 C   0  0  0  0  0  3  0  0  0  0  0  0
  -16.7040  -28.6400   23.1200 C   0  0  0  0  0  3  0  0  0  0  0  0
  -25.8610  -32.4960   23.8660 C   0  0  0  0  0  3  0  0  0  0  0  0
  -26.3790  -31.7270   25.1410 C   0  0  1  0  0  0  0  0  0  0  0  0
  -25.2870  -31.4910   26.2110 C   0  0  0  0  0  1  0  0  0  0  0  0
  -26.9610  -30.3490   24.7450 C   0  0  0  0  0  1  0  0  0  0  0  0
  -27.5290  -32.5210   25.8030 C   0  0  0  0  0  1  0  0  0  0  0  0
  -25.5520  -33.8950   24.1890 N   0  0  0  0  0  0  0  0  0  0  0  0
  -25.8950  -34.9430   23.4290 C   0  0  0  0  0  0  0  0  0  0  0  0
  -26.5780  -34.8340   22.4050 O   0  0  0  0  0  0  0  0  0  0  0  0
  -24.9470  -34.0540   24.9810 H   0  0  0  0  0  0  0  0  0  0  0  0
  -24.1780  -36.7370   23.0410 C   0  0  0  0  0  1  0  0  0  0  0  0
  -25.4040  -36.3340   23.8740 C   0  0  0  0  0  3  0  0  0  0  0  0
  -27.5320  -37.2110   24.7290 C   0  0  0  0  0  1  0  0  0  0  0  0
  -26.4410  -37.3830   23.7740 N   0  0  0  0  0  0  0  0  0  0  0  0
  -26.0360  -38.3040   23.9170 H   0  0  0  0  0  0  0  0  0  0  0  0
  2  3  1  0
  2  1  1  0
  4  3  1  0
  5  4  1  0
  5  7  1  0
  6  4  2  0
  8  5  1  0
  8  9  1  0
  9 10  1  0
 11 10  1  0
 11 12  1  0
 13 21  1  0
 14 19  1  0
 15 16  1  0
 15 14  1  0
 17 16  1  0
 17 26  1  0
 17 18  1  0
 19 13  1  0
 19 18  1  0
 20 13  2  0
 21 12  1  0
 21 22  1  0
 23 24  2  0
 24 43  1  0
 25 24  1  0
 25 28  1  0
 26 23  1  0
 26 27  1  0
 27 25  2  0
 28 29  1  0
 29 30  2  0
 31 34  1  0
 31 30  1  0
 32 31  2  0
 33 32  1  0
 33 28  2  0
 34 35  1  0
 35 36  1  0
 36 37  2  0
 38 37  1  0
 38 42  1  0
 39 38  2  0
 40 35  2  0
 40 39  1  0
 41 40  1  0
 43 44  1  0
 44 47  1  0
 44 46  1  0
 45 43  2  0
 48 49  1  0
 48 23  1  0
 50 48  1  0
 51  1  1  0
 51 52  1  0
 53 52  1  0
 53 54  1  0
 55 54  1  0
 55 56  1  0
 57 58  1  0
 57 56  1  0
 58 60  1  0
 59 70  2  0
 60 65  1  0
 61 69  1  0
 61 71  1  0
 62 68  1  0
 62 64  1  0
 63 69  1  0
 64 65  2  0
 64 63  1  0
 66 60  2  0
 67 66  1  0
 67 62  2  0
 68 61  1  0
 69 59  1  0
 71 73  2  0
 72 71  1  0
 74 72  1  0
 75 84  2  0
 75 80  1  0
 76 72  1  0
 76 80  1  0
 77 76  1  0
 78 79  1  0
 78 77  1  0
 79 75  1  0
 80 81  2  0
 81 82  1  0
 83 82  2  0
 84 83  1  0
 85 59  1  0
 85 90  1  0
 85 86  1  0
 86 89  1  1
 86 87  1  0
 88 86  1  0
 90 93  1  0
 91 95  1  0
 91 90  1  0
 92 91  2  0
 95 94  1  0
 97 95  1  0
 97 98  1  0
 97 96  1  0
M  ISO  4  13 100  21 100  57 101  58 101
M  END
>  <TORSDO>  (9) 
F 31

>  <SCORE>  (9) 
-10.635

>  <name>  (9) 
9

>  <ligand_id>  (9) 
9

>  <original_smiles>  (9) 
[H]c1c([H])c([H])c2c(c1[H])C([H])([H])C([H])([H])C([H])([H])C2([H])N([H])C(=O)C1([H])N(C(=O)C([H])(N([H])C(=O)C([H])(N([H])C([H])([H])[H])C([H])([H])[H])C(C([H])([H])[H])(C([H])([H])[H])C([H])([H])[H])C([H])([H])c2c([H])c(OC([H])([H])C([H])([H])OC([H])([H])C([H])([H])OC([H])([H])C([H])([H])OC([H])([H])C(=O)N([H])C([H])([H])C([H])([H])C([H])([H])C([H])([H])C([H])([H])N([H])C(=O)N3C([H])([H])C([H])([H])C([H])([H])C([H])(n4nc(-c5c([H])c([H])c(Oc6c([H])c([H])c(F)c([H])c6F)c([H])c5[H])c(C(=O)N([H])[H])c4N([H])[H])C3([H])[H])c([H])c([H])c2C1([H])[H]

>  <smiles>  (9) 
[H]c1c([H])c([H])c2c(c1[H])C([H])([H])C([H])([H])C([H])([H])C2([H])N([H])C(=O)C1([H])N(C(=O)C([H])(N([H])C(=O)C([H])(N([H])C([H])([H])[H])C([H])([H])[H])C(C([H])([H])[H])(C([H])([H])[H])C([H])([H])[H])C([H])([H])c2c([H])c(OC([H])([H])C([H])([H])OC([H])([H])C([H])([H])OC([H])([H])C([H])([H])OC([H])([H])C(=O)N([H])C([H])([H])C([H])([H])C([H])([H])C([H])([H])C([H])([H])N([H])C(=O)N3C([H])([H])C([H])([H])C([H])([H])C([H])(n4nc(-c5c([H])c([H])c(Oc6c([H])c([H])c(F)c([H])c6F)c([H])c5[H])c(C(=O)N([H])[H])c4N([H])[H])C3([H])[H])c([H])c([H])c2C1([H])[H]

$$$$
10:0:0
     RDKit          3D

104109  0  0  1  0  0  0  0  0999 V2000
  -20.0890  -16.3610   19.9860 C   0  0  0  0  0  2  0  0  0  0  0  0
  -20.7140  -17.4980   20.6670 O   0  0  0  0  0  0  0  0  0  0  0  0
  -21.7110  -18.2720   19.8900 C   0  0  0  0  0  2  0  0  0  0  0  0
  -22.0770  -19.7270   20.4540 C   0  0  0  0  0  2  0  0  0  0  0  0
  -23.3470  -20.3400   20.0140 O   0  0  0  0  0  0  0  0  0  0  0  0
  -23.9330  -21.4650   20.7810 C   0  0  0  0  0  2  0  0  0  0  0  0
  -25.0870  -22.2200   19.9950 C   0  0  0  0  0  0  0  0  0  0  0  0
  -25.9800  -23.0570   20.6230 N   0  0  0  0  0  0  0  0  0  0  0  0
  -25.1650  -22.0430   18.7770 O   0  0  0  0  0  0  0  0  0  0  0  0
  -25.9380  -23.1010   21.6320 H   0  0  0  0  0  0  0  0  0  0  0  0
  -27.1210  -23.8060   19.9840 C   0  0  0  0  0  2  0  0  0  0  0  0
  -27.7400  -25.0470   20.7840 C   0  0  0  0  0  2  0  0  0  0  0  0
  -28.1340  -26.3500   20.1740 O   0  0  0  0  0  0  0  0  0  0  0  0
  -24.6290  -31.8580   23.1980 C   0  0  0  0  0  0  0  0  0  0  0  0
  -27.1190  -27.2890   20.1170 C   0  0  0  0  0  0  0  0  0  0  0  0
  -23.4140  -30.4920   21.5450 C   0  0  0  0  0  3  0  0  0  0  0  0
  -24.8340  -28.9520   20.1040 C   0  0  0  0  0  0  0  0  0  0  0  0
  -25.9560  -30.7880   21.3570 C   0  0  0  0  0  2  0  0  0  0  0  0
  -26.0160  -29.4140   20.7010 C   0  0  0  0  0  0  0  0  0  0  0  0
  -27.1790  -28.5890   20.6990 C   0  0  0  0  0  3  0  0  0  0  0  0
  -25.9370  -26.8940   19.4740 C   0  0  0  0  0  3  0  0  0  0  0  0
  -24.7990  -27.7040   19.4750 C   0  0  0  0  0  3  0  0  0  0  0  0
  -23.6160  -29.8410   20.1540 C   0  0  0  0  0  2  0  0  0  0  0  0
  -24.6870  -31.0640   22.0900 N   0  0  0  0  0  0  0  0  0  0  0  0
  -23.5450  -32.1360   23.7340 O   0  0  0  0  0  0  0  0  0  0  0  0
  -22.7480  -29.4620   22.4910 C   0  0  0  0  0  0  0  0  0  0  0  0
  -21.4180  -29.3050   22.3700 N   0  0  0  0  0  0  0  0  0  0  0  0
  -23.4250  -28.8120   23.2930 O   0  0  0  0  0  0  0  0  0  0  0  0
  -20.9330  -29.8840   21.6980 H   0  0  0  0  0  0  0  0  0  0  0  0
  -18.0300  -28.1370   22.8490 C   0  0  0  0  0  0  0  0  0  0  0  0
  -20.5890  -28.3680   23.1310 C   0  0  0  0  0  3  0  0  0  0  0  0
  -20.6810  -26.9410   22.5410 C   0  0  0  0  0  2  0  0  0  0  0  0
  -19.5770  -26.6400   21.5210 C   0  0  0  0  0  2  0  0  0  0  0  0
  -18.1960  -26.7910   22.1650 C   0  0  0  0  0  2  0  0  0  0  0  0
  -19.1540  -28.8840   23.2900 C   0  0  0  0  0  0  0  0  0  0  0  0
  -18.9460  -30.1440   23.8920 C   0  0  0  0  0  3  0  0  0  0  0  0
  -17.6460  -30.6570   24.0570 C   0  0  0  0  0  3  0  0  0  0  0  0
  -16.5360  -29.9070   23.6310 C   0  0  0  0  0  3  0  0  0  0  0  0
  -16.7290  -28.6490   23.0330 C   0  0  0  0  0  3  0  0  0  0  0  0
  -25.9140  -32.4760   23.8300 C   0  0  0  0  0  3  0  0  0  0  0  0
  -26.4550  -31.6540   25.0650 C   0  0  1  0  0  0  0  0  0  0  0  0
  -25.3850  -31.3640   26.1430 C   0  0  0  0  0  1  0  0  0  0  0  0
  -27.0320  -30.2980   24.5980 C   0  0  0  0  0  1  0  0  0  0  0  0
  -27.6120  -32.4250   25.7410 C   0  0  0  0  0  1  0  0  0  0  0  0
  -25.5970  -33.8560   24.2260 N   0  0  0  0  0  0  0  0  0  0  0  0
  -25.9060  -34.9430   23.5070 C   0  0  0  0  0  0  0  0  0  0  0  0
  -26.5590  -34.8900   22.4610 O   0  0  0  0  0  0  0  0  0  0  0  0
  -25.0210  -33.9710   25.0470 H   0  0  0  0  0  0  0  0  0  0  0  0
  -24.1540  -36.7330   23.2630 C   0  0  0  0  0  1  0  0  0  0  0  0
  -25.4150  -36.3070   24.0320 C   0  0  0  0  0  3  0  0  0  0  0  0
  -27.5590  -37.1860   24.8500 C   0  0  0  0  0  1  0  0  0  0  0  0
  -26.4360  -37.3740   23.9350 N   0  0  0  0  0  0  0  0  0  0  0  0
  -26.0230  -38.2850   24.1200 H   0  0  0  0  0  0  0  0  0  0  0  0
  -19.3140  -15.1530   20.7280 C   0  0  0  0  0  2  0  0  0  0  0  0
  -19.9350  -14.2600   21.7300 O   0  0  0  0  0  0  0  0  0  0  0  0
  -19.8590  -12.7800   21.5950 C   0  0  0  0  0  2  0  0  0  0  0  0
  -20.4120  -11.8470   22.8270 C   0  0  0  0  0  2  0  0  0  0  0  0
  -21.8270  -11.3550   22.8390 O   0  0  0  0  0  0  0  0  0  0  0  0
  -22.6200  -11.0590   24.0510 C   0  0  0  0  0  2  0  0  0  0  0  0
  -24.1660  -11.5470   24.1710 C   0  0  0  0  0  2  0  0  0  0  0  0
  -25.2820  -10.8510   23.5090 O   0  0  0  0  0  0  0  0  0  0  0  0
  -26.6180  -11.4580   23.4380 C   0  0  0  0  0  2  0  0  0  0  0  0
  -27.8400  -10.7850   22.6140 C   0  0  0  0  0  2  0  0  0  0  0  0
  -27.8820  -11.0520   21.1760 O   0  0  0  0  0  0  0  0  0  0  0  0
  -28.9560  -11.4760   20.2300 C   0  0  0  0  0  1  0  0  0  0  0  0
  -29.4240  -13.8660   18.9670 C   0  0  0  0  0  1  0  0  0  0  0  0
  -30.9630  -14.4020   20.5410 C   0  0  0  0  0  0  0  0  0  0  0  0
  -31.0400  -12.2160   19.4100 C   0  0  0  0  0  1  0  0  0  0  0  0
  -29.7390  -11.7570   17.9920 C   0  0  0  0  0  1  0  0  0  0  0  0
  -27.8680  -12.2290   18.2540 C   0  0  0  0  0  2  0  0  0  0  0  0
  -27.3750  -13.2100   19.8450 C   0  0  0  0  0  3  0  0  0  0  0  0
  -28.7040  -13.5780   21.2240 C   0  0  0  0  0  2  0  0  0  0  0  0
  -30.4480  -13.2150   20.8260 N   0  0  0  0  0  0  0  0  0  0  0  0
  -32.1310  -14.7320   20.4530 O   0  0  0  0  0  0  0  0  0  0  0  0
  -30.1330  -14.9280   19.6890 N   0  0  0  0  0  0  0  0  0  0  0  0
  -30.3640  -15.7920   19.2260 H   0  0  0  0  0  0  0  0  0  0  0  0
  -25.1800  -13.8420   20.6220 C   0  0  0  0  0  0  0  0  0  0  0  0
  -24.1090  -13.0810   20.8930 C   0  0  0  0  0  0  0  0  0  0  0  0
  -24.4780  -11.7000   20.7880 C   0  0  0  0  0  0  0  0  0  0  0  0
  -26.1080  -12.9260   20.3030 N   0  0  0  0  0  0  0  0  0  0  0  0
  -25.6750  -11.6590   20.3150 N   0  0  0  0  0  0  0  0  0  0  0  0
  -23.8000  -10.4120   20.9260 C   0  0  0  0  0  0  0  0  0  0  0  0
  -24.3790   -9.3110   21.6080 C   0  0  0  0  0  3  0  0  0  0  0  0
  -23.6500   -8.1490   21.8990 C   0  0  0  0  0  3  0  0  0  0  0  0
  -22.3600   -8.0150   21.3490 C   0  0  0  0  0  0  0  0  0  0  0  0
  -21.8430   -9.0490   20.5390 C   0  0  0  0  0  3  0  0  0  0  0  0
  -22.5530  -10.2390   20.3270 C   0  0  0  0  0  3  0  0  0  0  0  0
  -21.5960   -6.8880   21.4580 O   0  0  0  0  0  0  0  0  0  0  0  0
  -21.6740   -6.0720   22.5520 C   0  0  0  0  0  0  0  0  0  0  0  0
  -21.3900   -6.5480   23.8460 C   0  0  0  0  0  3  0  0  0  0  0  0
  -21.3810   -5.6550   24.9370 C   0  0  0  0  0  3  0  0  0  0  0  0
  -21.6240   -4.2870   24.7290 C   0  0  0  0  0  0  0  0  0  0  0  0
  -21.8890   -3.8080   23.4360 C   0  0  0  0  0  3  0  0  0  0  0  0
  -21.9220   -4.6990   22.3430 C   0  0  0  0  0  0  0  0  0  0  0  0
  -22.1640   -4.2350   21.0940 F   0  0  0  0  0  0  0  0  0  0  0  0
  -21.5910   -3.4240   25.7690 F   0  0  0  0  0  0  0  0  0  0  0  0
  -22.8320  -13.7160   21.1200 C   0  0  0  0  0  0  0  0  0  0  0  0
  -22.3940  -13.6880   22.3350 N   0  0  0  0  0  0  0  0  0  0  0  0
  -22.3510  -14.4790   20.3040 O   0  0  0  0  0  0  0  0  0  0  0  0
  -22.5910  -12.8850   22.9150 H   0  0  0  0  0  0  0  0  0  0  0  0
  -21.5030  -14.1650   22.4250 H   0  0  0  0  0  0  0  0  0  0  0  0
  -25.3950  -15.2220   20.5510 N   0  0  0  0  0  0  0  0  0  0  0  0
  -24.5810  -15.8300   20.4690 H   0  0  0  0  0  0  0  0  0  0  0  0
  -26.2130  -15.5820   20.0750 H   0  0  0  0  0  0  0  0  0  0  0  0
  1  2  1  0
  1 54  1  0
  3  4  1  0
  3  2  1  0
  5  4  1  0
  5  6  1  0
  7  8  1  0
  7  6  1  0
  8 10  1  0
  9  7  2  0
 11  8  1  0
 11 12  1  0
 13 12  1  0
 14 25  2  0
 15 13  1  0
 15 20  1  0
 16 24  1  0
 16 26  1  0
 17 23  1  0
 17 19  1  0
 18 24  1  0
 19 18  1  0
 20 19  2  0
 21 22  1  0
 21 15  2  0
 22 17  2  0
 23 16  1  0
 24 14  1  0
 26 28  2  0
 27 26  1  0
 29 27  1  0
 30 39  2  0
 30 35  1  0
 31 27  1  0
 31 35  1  0
 32 31  1  0
 33 34  1  0
 33 32  1  0
 34 30  1  0
 35 36  2  0
 36 37  1  0
 38 37  2  0
 39 38  1  0
 40 14  1  0
 40 45  1  0
 40 41  1  0
 41 44  1  1
 41 42  1  0
 43 41  1  0
 45 48  1  0
 46 50  1  0
 46 45  1  0
 47 46  2  0
 50 49  1  0
 52 50  1  0
 52 53  1  0
 52 51  1  0
 54 55  1  0
 56 55  1  0
 56 57  1  0
 57 58  1  0
 58 59  1  0
 59 60  1  0
 61 60  1  0
 62 61  1  0
 63 62  1  0
 64 63  1  0
 65 64  1  0
 66 75  1  0
 67 73  1  0
 68 73  1  0
 69 70  1  0
 71 70  1  0
 71 80  1  0
 71 72  1  0
 73 72  1  0
 74 67  2  0
 75 67  1  0
 76 75  1  0
 77 78  2  0
 78 97  1  0
 79 78  1  0
 79 82  1  0
 80 81  1  0
 80 77  1  0
 81 79  2  0
 82 83  1  0
 83 84  2  0
 85 88  1  0
 85 84  1  0
 86 85  2  0
 87 86  1  0
 87 82  2  0
 88 89  1  0
 89 90  1  0
 90 91  2  0
 92 91  1  0
 92 96  1  0
 93 92  2  0
 94 89  2  0
 94 93  1  0
 95 94  1  0
 97 98  1  0
 98101  1  0
 98100  1  0
 99 97  2  0
102 77  1  0
103102  1  0
104102  1  0
M  ISO  4  12 101  13 101  67 100  75 100
M  END
>  <TORSDO>  (10) 
F 37

>  <SCORE>  (10) 
40.873

>  <name>  (10) 
10

>  <ligand_id>  (10) 
10

>  <original_smiles>  (10) 
[H]c1c([H])c([H])c2c(c1[H])C([H])([H])C([H])([H])C([H])([H])C2([H])N([H])C(=O)C1([H])N(C(=O)C([H])(N([H])C(=O)C([H])(N([H])C([H])([H])[H])C([H])([H])[H])C(C([H])([H])[H])(C([H])([H])[H])C([H])([H])[H])C([H])([H])c2c([H])c(OC([H])([H])C([H])([H])N([H])C(=O)C([H])([H])OC([H])([H])C([H])([H])OC([H])([H])C([H])([H])OC([H])([H])C([H])([H])OC([H])([H])C([H])([H])OC([H])([H])C([H])([H])OC([H])([H])C([H])([H])N([H])C(=O)N3C([H])([H])C([H])([H])C([H])([H])C([H])(n4nc(-c5c([H])c([H])c(Oc6c([H])c([H])c(F)c([H])c6F)c([H])c5[H])c(C(=O)N([H])[H])c4N([H])[H])C3([H])[H])c([H])c([H])c2C1([H])[H]

>  <smiles>  (10) 
[H]c1c([H])c([H])c2c(c1[H])C([H])([H])C([H])([H])C([H])([H])C2([H])N([H])C(=O)C1([H])N(C(=O)C([H])(N([H])C(=O)C([H])(N([H])C([H])([H])[H])C([H])([H])[H])C(C([H])([H])[H])(C([H])([H])[H])C([H])([H])[H])C([H])([H])c2c([H])c(OC([H])([H])C([H])([H])N([H])C(=O)C([H])([H])OC([H])([H])C([H])([H])OC([H])([H])C([H])([H])OC([H])([H])C([H])([H])OC([H])([H])C([H])([H])OC([H])([H])C([H])([H])OC([H])([H])C([H])([H])N([H])C(=O)N3C([H])([H])C([H])([H])C([H])([H])C([H])(n4nc(-c5c([H])c([H])c(Oc6c([H])c([H])c(F)c([H])c6F)c([H])c5[H])c(C(=O)N([H])[H])c4N([H])[H])C3([H])[H])c([H])c([H])c2C1([H])[H]

$$$$
11:0:0
     RDKit          3D

 99106  0  0  1  0  0  0  0  0999 V2000
  -24.4510  -22.9190   20.1080 O   0  0  0  0  0  0  0  0  0  0  0  0
  -23.9970  -23.2820   18.8110 C   0  0  0  0  0  2  0  0  0  0  0  0
  -23.9190  -22.0100   17.9510 C   0  0  0  0  0  2  0  0  0  0  0  0
  -25.1920  -21.3770   17.9590 O   0  0  0  0  0  0  0  0  0  0  0  0
  -25.2540  -20.1540   17.2330 C   0  0  0  0  0  2  0  0  0  0  0  0
  -25.8030  -19.0520   18.1510 C   0  0  0  0  0  2  0  0  0  0  0  0
  -27.0810  -19.4290   18.6600 O   0  0  0  0  0  0  0  0  0  0  0  0
  -27.6320  -18.4310   19.5070 C   0  0  0  0  0  2  0  0  0  0  0  0
  -28.9580  -18.8780   20.1330 C   0  0  0  0  0  2  0  0  0  0  0  0
  -29.3790  -17.8410   21.0100 O   0  0  0  0  0  0  0  0  0  0  0  0
  -30.7170  -17.9970   21.4560 C   0  0  0  0  0  2  0  0  0  0  0  0
  -31.0630  -16.8650   22.4390 C   0  0  0  0  0  2  0  0  0  0  0  0
  -31.0850  -14.8570   20.9560 C   0  0  0  0  0  0  0  0  0  0  0  0
  -30.7560  -12.8910   19.5030 C   0  0  0  0  0  2  0  0  0  0  0  0
  -29.8610  -13.2290   18.2960 C   0  0  0  0  0  2  0  0  0  0  0  0
  -28.3700  -13.0820   18.6570 C   0  0  0  0  0  2  0  0  0  0  0  0
  -28.0020  -13.8150   19.9740 C   0  0  0  0  0  3  0  0  0  0  0  0
  -28.9990  -13.4490   21.0950 C   0  0  0  0  0  2  0  0  0  0  0  0
  -30.3650  -13.7570   20.6240 N   0  0  0  0  0  0  0  0  0  0  0  0
  -32.1370  -15.1840   20.3970 O   0  0  0  0  0  0  0  0  0  0  0  0
  -30.5750  -15.5740   21.9590 N   0  0  0  0  0  0  0  0  0  0  0  0
  -29.7110  -15.2360   22.3570 H   0  0  0  0  0  0  0  0  0  0  0  0
  -25.5760  -14.4210   20.5940 C   0  0  0  0  0  0  0  0  0  0  0  0
  -24.4810  -13.6480   20.8680 C   0  0  0  0  0  0  0  0  0  0  0  0
  -24.9260  -12.2930   20.7900 C   0  0  0  0  0  0  0  0  0  0  0  0
  -26.6210  -13.5390   20.3700 N   0  0  0  0  0  0  0  0  0  0  0  0
  -26.2290  -12.2500   20.5420 N   0  0  0  0  0  0  0  0  0  0  0  0
  -24.1770  -11.0350   20.8820 C   0  0  0  0  0  0  0  0  0  0  0  0
  -24.5480  -10.0200   21.7920 C   0  0  0  0  0  3  0  0  0  0  0  0
  -23.8000   -8.8250   21.8740 C   0  0  0  0  0  3  0  0  0  0  0  0
  -22.6690   -8.6380   21.0460 C   0  0  0  0  0  0  0  0  0  0  0  0
  -22.3170   -9.6420   20.1270 C   0  0  0  0  0  3  0  0  0  0  0  0
  -23.0650  -10.8280   20.0420 C   0  0  0  0  0  3  0  0  0  0  0  0
  -21.8980   -7.5010   21.0390 O   0  0  0  0  0  0  0  0  0  0  0  0
  -21.7410   -6.7320   22.1640 C   0  0  0  0  0  0  0  0  0  0  0  0
  -21.2350   -7.2670   23.3690 C   0  0  0  0  0  3  0  0  0  0  0  0
  -21.0240   -6.4250   24.4790 C   0  0  0  0  0  3  0  0  0  0  0  0
  -21.3090   -5.0490   24.3850 C   0  0  0  0  0  0  0  0  0  0  0  0
  -21.8080   -4.5140   23.1850 C   0  0  0  0  0  3  0  0  0  0  0  0
  -22.0200   -5.3520   22.0770 C   0  0  0  0  0  0  0  0  0  0  0  0
  -22.4820   -4.8270   20.9160 F   0  0  0  0  0  0  0  0  0  0  0  0
  -21.0980   -4.2380   25.4490 F   0  0  0  0  0  0  0  0  0  0  0  0
  -23.0780  -14.1310   21.1020 C   0  0  0  0  0  0  0  0  0  0  0  0
  -22.3040  -13.4070   21.9010 N   0  0  0  0  0  0  0  0  0  0  0  0
  -22.6760  -15.1880   20.6140 O   0  0  0  0  0  0  0  0  0  0  0  0
  -22.6380  -12.5500   22.3180 H   0  0  0  0  0  0  0  0  0  0  0  0
  -21.3610  -13.7120   22.0980 H   0  0  0  0  0  0  0  0  0  0  0  0
  -25.7660  -15.7940   20.5040 N   0  0  0  0  0  0  0  0  0  0  0  0
  -25.0150  -16.4580   20.6570 H   0  0  0  0  0  0  0  0  0  0  0  0
  -26.6680  -16.2250   20.3550 H   0  0  0  0  0  0  0  0  0  0  0  0
  -24.5690  -24.0130   21.0100 C   0  0  0  0  0  2  0  0  0  0  0  0
  -25.3060  -23.5230   22.2710 C   0  0  0  0  0  0  0  0  0  0  0  0
  -26.6260  -23.2670   22.2180 N   0  0  0  0  0  0  0  0  0  0  0  0
  -24.6760  -23.3350   23.3110 O   0  0  0  0  0  0  0  0  0  0  0  0
  -27.0470  -22.8890   23.0570 H   0  0  0  0  0  0  0  0  0  0  0  0
  -27.5280  -23.5500   21.0990 C   0  0  0  0  0  2  0  0  0  0  0  0
  -28.0060  -25.0130   21.1380 C   0  0  0  0  0  2  0  0  0  0  0  0
  -28.4810  -25.5560   19.7770 C   0  0  0  0  0  2  0  0  0  0  0  0
  -28.4380  -26.9820   19.7820 O   0  0  0  0  0  0  0  0  0  0  0  0
  -24.6680  -31.9200   23.2200 C   0  0  0  0  0  0  0  0  0  0  0  0
  -27.2170  -27.6240   19.8680 C   0  0  0  0  0  0  0  0  0  0  0  0
  -23.3960  -30.5570   21.5930 C   0  0  0  0  0  3  0  0  0  0  0  0
  -24.7950  -29.0740   20.0580 C   0  0  0  0  0  0  0  0  0  0  0  0
  -25.9020  -30.9510   21.2840 C   0  0  0  0  0  2  0  0  0  0  0  0
  -25.9700  -29.5950   20.6100 C   0  0  0  0  0  0  0  0  0  0  0  0
  -27.1780  -28.8760   20.5200 C   0  0  0  0  0  3  0  0  0  0  0  0
  -26.0220  -27.1040   19.3190 C   0  0  0  0  0  3  0  0  0  0  0  0
  -24.8130  -27.8240   19.4120 C   0  0  0  0  0  3  0  0  0  0  0  0
  -23.5490  -29.9190   20.1860 C   0  0  0  0  0  2  0  0  0  0  0  0
  -24.6760  -31.1540   22.0920 N   0  0  0  0  0  0  0  0  0  0  0  0
  -23.6140  -32.1640   23.8230 O   0  0  0  0  0  0  0  0  0  0  0  0
  -22.7980  -29.5010   22.5510 C   0  0  0  0  0  0  0  0  0  0  0  0
  -21.4780  -29.2850   22.4520 N   0  0  0  0  0  0  0  0  0  0  0  0
  -23.5200  -28.8820   23.3380 O   0  0  0  0  0  0  0  0  0  0  0  0
  -20.9530  -29.8400   21.7910 H   0  0  0  0  0  0  0  0  0  0  0  0
  -18.1620  -27.9440   22.9600 C   0  0  0  0  0  0  0  0  0  0  0  0
  -20.7080  -28.3100   23.2240 C   0  0  0  0  0  3  0  0  0  0  0  0
  -20.8690  -26.8850   22.6450 C   0  0  0  0  0  2  0  0  0  0  0  0
  -19.7750  -26.5120   21.6380 C   0  0  0  0  0  2  0  0  0  0  0  0
  -18.3950  -26.5990   22.2950 C   0  0  0  0  0  2  0  0  0  0  0  0
  -19.2490  -28.7520   23.3900 C   0  0  0  0  0  0  0  0  0  0  0  0
  -18.9790  -30.0030   23.9860 C   0  0  0  0  0  3  0  0  0  0  0  0
  -17.6560  -30.4520   24.1500 C   0  0  0  0  0  3  0  0  0  0  0  0
  -16.5840  -29.6440   23.7330 C   0  0  0  0  0  3  0  0  0  0  0  0
  -16.8360  -28.3920   23.1440 C   0  0  0  0  0  3  0  0  0  0  0  0
  -25.9790  -32.5410   23.7940 C   0  0  0  0  0  3  0  0  0  0  0  0
  -26.5560  -31.7480   25.0300 C   0  0  1  0  0  0  0  0  0  0  0  0
  -25.5110  -31.4780   26.1380 C   0  0  0  0  0  1  0  0  0  0  0  0
  -27.1300  -30.3840   24.5790 C   0  0  0  0  0  1  0  0  0  0  0  0
  -27.7320  -32.5340   25.6590 C   0  0  0  0  0  1  0  0  0  0  0  0
  -25.6890  -33.9330   24.1610 N   0  0  0  0  0  0  0  0  0  0  0  0
  -25.9900  -34.9970   23.4000 C   0  0  0  0  0  0  0  0  0  0  0  0
  -26.6150  -34.9070   22.3400 O   0  0  0  0  0  0  0  0  0  0  0  0
  -25.1310  -34.0780   24.9890 H   0  0  0  0  0  0  0  0  0  0  0  0
  -24.2420  -36.7870   23.1420 C   0  0  0  0  0  1  0  0  0  0  0  0
  -25.5180  -36.3760   23.8950 C   0  0  0  0  0  3  0  0  0  0  0  0
  -27.6890  -37.2610   24.6320 C   0  0  0  0  0  1  0  0  0  0  0  0
  -26.5380  -37.4380   23.7520 N   0  0  0  0  0  0  0  0  0  0  0  0
  -26.1340  -38.3520   23.9380 H   0  0  0  0  0  0  0  0  0  0  0  0
  1 51  1  0
  2  1  1  0
  3  4  1  0
  3  2  1  0
  5  4  1  0
  5  6  1  0
  6  7  1  0
  7  8  1  0
  8  9  1  0
  9 10  1  0
 10 11  1  0
 11 12  1  0
 13 21  1  0
 14 19  1  0
 15 16  1  0
 15 14  1  0
 17 16  1  0
 17 26  1  0
 17 18  1  0
 19 13  1  0
 19 18  1  0
 20 13  2  0
 21 22  1  0
 21 12  1  0
 23 24  2  0
 24 43  1  0
 25 24  1  0
 25 28  1  0
 26 27  1  0
 26 23  1  0
 27 25  2  0
 28 29  1  0
 29 30  2  0
 31 30  1  0
 32 31  2  0
 33 32  1  0
 33 28  2  0
 34 31  1  0
 34 35  1  0
 35 36  1  0
 36 37  2  0
 38 37  1  0
 38 42  1  0
 39 38  2  0
 40 35  2  0
 40 39  1  0
 41 40  1  0
 43 44  1  0
 44 47  1  0
 44 46  1  0
 45 43  2  0
 48 23  1  0
 48 49  1  0
 50 48  1  0
 51 52  1  0
 52 54  2  0
 53 52  1  0
 53 55  1  0
 56 57  1  0
 56 53  1  0
 58 59  1  0
 58 57  1  0
 59 61  1  0
 60 71  2  0
 61 66  1  0
 62 70  1  0
 62 72  1  0
 63 69  1  0
 63 65  1  0
 64 70  1  0
 65 64  1  0
 66 65  2  0
 67 68  1  0
 67 61  2  0
 68 63  2  0
 69 62  1  0
 70 60  1  0
 72 74  2  0
 73 72  1  0
 75 73  1  0
 76 85  2  0
 76 81  1  0
 77 73  1  0
 77 81  1  0
 78 77  1  0
 79 80  1  0
 79 78  1  0
 80 76  1  0
 81 82  2  0
 82 83  1  0
 84 83  2  0
 85 84  1  0
 86 60  1  0
 86 91  1  0
 86 87  1  0
 87 90  1  1
 87 88  1  0
 89 87  1  0
 91 94  1  0
 92 96  1  0
 92 91  1  0
 93 92  2  0
 96 95  1  0
 98 96  1  0
 98 99  1  0
 98 97  1  0
M  ISO  4  13 100  21 100  58 101  59 101
M  END
>  <TORSDO>  (11) 
F 32

>  <SCORE>  (11) 
-9.047

>  <name>  (11) 
11

>  <ligand_id>  (11) 
11

>  <original_smiles>  (11) 
[H]c1c([H])c([H])c2c(c1[H])C([H])([H])C([H])([H])C([H])([H])C2([H])N([H])C(=O)C1([H])N(C(=O)C([H])(N([H])C(=O)C([H])(N([H])C([H])([H])[H])C([H])([H])[H])C(C([H])([H])[H])(C([H])([H])[H])C([H])([H])[H])C([H])([H])c2c([H])c(OC([H])([H])C([H])([H])C([H])([H])N([H])C(=O)C([H])([H])OC([H])([H])C([H])([H])OC([H])([H])C([H])([H])OC([H])([H])C([H])([H])OC([H])([H])C([H])([H])N([H])C(=O)N3C([H])([H])C([H])([H])C([H])([H])C([H])(n4nc(-c5c([H])c([H])c(Oc6c([H])c([H])c(F)c([H])c6F)c([H])c5[H])c(C(=O)N([H])[H])c4N([H])[H])C3([H])[H])c([H])c([H])c2C1([H])[H]

>  <smiles>  (11) 
[H]c1c([H])c([H])c2c(c1[H])C([H])([H])C([H])([H])C([H])([H])C2([H])N([H])C(=O)C1([H])N(C(=O)C([H])(N([H])C(=O)C([H])(N([H])C([H])([H])[H])C([H])([H])[H])C(C([H])([H])[H])(C([H])([H])[H])C([H])([H])[H])C([H])([H])c2c([H])c(OC([H])([H])C([H])([H])C([H])([H])N([H])C(=O)C([H])([H])OC([H])([H])C([H])([H])OC([H])([H])C([H])([H])OC([H])([H])C([H])([H])OC([H])([H])C([H])([H])N([H])C(=O)N3C([H])([H])C([H])([H])C([H])([H])C([H])(n4nc(-c5c([H])c([H])c(Oc6c([H])c([H])c(F)c([H])c6F)c([H])c5[H])c(C(=O)N([H])[H])c4N([H])[H])C3([H])[H])c([H])c([H])c2C1([H])[H]

$$$$
12:0:0
     RDKit          3D

 99106  0  0  1  0  0  0  0  0999 V2000
  -28.9430  -22.6400   24.7390 O   0  0  0  0  0  0  0  0  0  0  0  0
  -30.2130  -22.3830   24.1490 C   0  0  0  0  0  2  0  0  0  0  0  0
  -30.0480  -21.3780   23.0030 C   0  0  0  0  0  2  0  0  0  0  0  0
  -29.6180  -22.0040   21.7980 O   0  0  0  0  0  0  0  0  0  0  0  0
  -29.4360  -21.0750   20.7290 C   0  0  0  0  0  2  0  0  0  0  0  0
  -30.5930  -21.1460   19.7210 C   0  0  0  0  0  2  0  0  0  0  0  0
  -31.7720  -20.5270   20.2290 O   0  0  0  0  0  0  0  0  0  0  0  0
  -32.2070  -19.3530   19.5440 C   0  0  0  0  0  2  0  0  0  0  0  0
  -32.0750  -18.0760   20.3920 C   0  0  0  0  0  2  0  0  0  0  0  0
  -30.8490  -17.4000   20.1210 O   0  0  0  0  0  0  0  0  0  0  0  0
  -30.3920  -16.5910   21.2000 C   0  0  0  0  0  2  0  0  0  0  0  0
  -31.3670  -15.4680   21.6190 C   0  0  0  0  0  2  0  0  0  0  0  0
  -31.3760  -13.0510   21.0230 C   0  0  0  0  0  0  0  0  0  0  0  0
  -30.9250  -10.9150   19.8880 C   0  0  0  0  0  2  0  0  0  0  0  0
  -30.1680  -11.1990   18.5750 C   0  0  0  0  0  2  0  0  0  0  0  0
  -28.6500  -11.2650   18.8200 C   0  0  0  0  0  2  0  0  0  0  0  0
  -28.2750  -12.1900   20.0070 C   0  0  0  0  0  3  0  0  0  0  0  0
  -29.1510  -11.8880   21.2420 C   0  0  0  0  0  2  0  0  0  0  0  0
  -30.5660  -11.9780   20.8360 N   0  0  0  0  0  0  0  0  0  0  0  0
  -32.5680  -13.0770   20.7160 O   0  0  0  0  0  0  0  0  0  0  0  0
  -30.7500  -14.1570   21.4280 N   0  0  0  0  0  0  0  0  0  0  0  0
  -29.7560  -14.0830   21.5620 H   0  0  0  0  0  0  0  0  0  0  0  0
  -25.8960  -13.1150   20.3390 C   0  0  0  0  0  0  0  0  0  0  0  0
  -24.7030  -12.4990   20.6060 C   0  0  0  0  0  0  0  0  0  0  0  0
  -24.9980  -11.1050   20.7280 C   0  0  0  0  0  0  0  0  0  0  0  0
  -26.8490  -12.1080   20.3180 N   0  0  0  0  0  0  0  0  0  0  0  0
  -26.3030  -10.8990   20.6090 N   0  0  0  0  0  0  0  0  0  0  0  0
  -24.1070   -9.9500   20.8980 C   0  0  0  0  0  0  0  0  0  0  0  0
  -24.3210   -9.0040   21.9250 C   0  0  0  0  0  3  0  0  0  0  0  0
  -23.4450   -7.9090   22.0810 C   0  0  0  0  0  3  0  0  0  0  0  0
  -22.3420   -7.7530   21.2080 C   0  0  0  0  0  0  0  0  0  0  0  0
  -22.1480   -8.6840   20.1730 C   0  0  0  0  0  3  0  0  0  0  0  0
  -23.0220   -9.7730   20.0170 C   0  0  0  0  0  3  0  0  0  0  0  0
  -21.4530   -6.7070   21.2690 O   0  0  0  0  0  0  0  0  0  0  0  0
  -21.1370   -6.0970   22.4570 C   0  0  0  0  0  0  0  0  0  0  0  0
  -20.6050   -6.8180   23.5480 C   0  0  0  0  0  3  0  0  0  0  0  0
  -20.2300   -6.1390   24.7250 C   0  0  0  0  0  3  0  0  0  0  0  0
  -20.3750   -4.7410   24.8100 C   0  0  0  0  0  0  0  0  0  0  0  0
  -20.8980   -4.0200   23.7200 C   0  0  0  0  0  3  0  0  0  0  0  0
  -21.2730   -4.6970   22.5460 C   0  0  0  0  0  0  0  0  0  0  0  0
  -21.7560   -3.9950   21.4930 F   0  0  0  0  0  0  0  0  0  0  0  0
  -20.0090   -4.0860   25.9340 F   0  0  0  0  0  0  0  0  0  0  0  0
  -23.3470  -13.1440   20.6490 C   0  0  0  0  0  0  0  0  0  0  0  0
  -22.4540  -12.6310   21.4870 N   0  0  0  0  0  0  0  0  0  0  0  0
  -23.0870  -14.1370   19.9710 O   0  0  0  0  0  0  0  0  0  0  0  0
  -22.6810  -11.8280   22.0580 H   0  0  0  0  0  0  0  0  0  0  0  0
  -21.5320  -13.0370   21.5560 H   0  0  0  0  0  0  0  0  0  0  0  0
  -26.2560  -14.4380   20.0940 N   0  0  0  0  0  0  0  0  0  0  0  0
  -25.5830  -15.1940   20.0430 H   0  0  0  0  0  0  0  0  0  0  0  0
  -27.1920  -14.7260   19.8350 H   0  0  0  0  0  0  0  0  0  0  0  0
  -28.9670  -23.6100   25.7830 C   0  0  0  0  0  2  0  0  0  0  0  0
  -29.3550  -25.0040   25.2680 C   0  0  0  0  0  2  0  0  0  0  0  0
  -28.1600  -25.7660   25.1990 O   0  0  0  0  0  0  0  0  0  0  0  0
  -28.0690  -26.6390   24.0830 C   0  0  0  0  0  2  0  0  0  0  0  0
  -27.2370  -26.0210   22.9440 C   0  0  0  0  0  2  0  0  0  0  0  0
  -28.0650  -25.6310   21.8440 O   0  0  0  0  0  0  0  0  0  0  0  0
  -27.3580  -25.7180   20.6090 C   0  0  0  0  0  2  0  0  0  0  0  0
  -28.2790  -25.7320   19.3560 C   0  0  0  0  0  2  0  0  0  0  0  0
  -27.6700  -26.2880   18.1730 O   0  0  0  0  0  0  0  0  0  0  0  0
  -24.8390  -30.8730   22.7850 C   0  0  0  0  0  0  0  0  0  0  0  0
  -26.6450  -27.1620   18.4330 C   0  0  0  0  0  0  0  0  0  0  0  0
  -23.3110  -29.9900   21.0520 C   0  0  0  0  0  3  0  0  0  0  0  0
  -24.4230  -28.7510   19.1170 C   0  0  0  0  0  0  0  0  0  0  0  0
  -25.8130  -30.2230   20.5880 C   0  0  0  0  0  2  0  0  0  0  0  0
  -25.6870  -29.0460   19.6460 C   0  0  0  0  0  0  0  0  0  0  0  0
  -26.8050  -28.2530   19.3110 C   0  0  0  0  0  3  0  0  0  0  0  0
  -25.3750  -26.8820   17.8880 C   0  0  0  0  0  3  0  0  0  0  0  0
  -24.2580  -27.6640   18.2390 C   0  0  0  0  0  3  0  0  0  0  0  0
  -23.2770  -29.6430   19.5400 C   0  0  0  0  0  2  0  0  0  0  0  0
  -24.6810  -30.3600   21.5330 N   0  0  0  0  0  0  0  0  0  0  0  0
  -23.8650  -31.0760   23.5220 O   0  0  0  0  0  0  0  0  0  0  0  0
  -22.6840  -28.8150   21.8390 C   0  0  0  0  0  0  0  0  0  0  0  0
  -21.3520  -28.6800   21.7510 N   0  0  0  0  0  0  0  0  0  0  0  0
  -23.3910  -28.0350   22.4820 O   0  0  0  0  0  0  0  0  0  0  0  0
  -20.8440  -29.3560   21.1980 H   0  0  0  0  0  0  0  0  0  0  0  0
  -18.0020  -27.3660   22.0450 C   0  0  0  0  0  0  0  0  0  0  0  0
  -20.5520  -27.6280   22.3750 C   0  0  0  0  0  3  0  0  0  0  0  0
  -20.6890  -26.2960   21.6010 C   0  0  0  0  0  2  0  0  0  0  0  0
  -19.5990  -26.1010   20.5420 C   0  0  0  0  0  2  0  0  0  0  0  0
  -18.2090  -26.1290   21.1870 C   0  0  0  0  0  2  0  0  0  0  0  0
  -19.1010  -28.0780   22.5890 C   0  0  0  0  0  0  0  0  0  0  0  0
  -18.8550  -29.2430   23.3490 C   0  0  0  0  0  3  0  0  0  0  0  0
  -17.5390  -29.6930   23.5710 C   0  0  0  0  0  3  0  0  0  0  0  0
  -16.4550  -28.9720   23.0450 C   0  0  0  0  0  3  0  0  0  0  0  0
  -16.6840  -27.8110   22.2860 C   0  0  0  0  0  3  0  0  0  0  0  0
  -26.2470  -31.2500   23.3430 C   0  0  0  0  0  3  0  0  0  0  0  0
  -26.1540  -32.6090   23.8900 N   0  0  0  0  0  0  0  0  0  0  0  0
  -26.6170  -33.7090   23.2830 C   0  0  0  0  0  0  0  0  0  0  0  0
  -27.2380  -33.6730   22.2170 O   0  0  0  0  0  0  0  0  0  0  0  0
  -25.6090  -32.7190   24.7320 H   0  0  0  0  0  0  0  0  0  0  0  0
  -25.1850  -35.7770   23.2610 C   0  0  0  0  0  1  0  0  0  0  0  0
  -26.3510  -35.0650   23.9670 C   0  0  0  0  0  3  0  0  0  0  0  0
  -28.6010  -35.4670   24.8630 C   0  0  0  0  0  1  0  0  0  0  0  0
  -27.5330  -35.9530   23.9910 N   0  0  0  0  0  0  0  0  0  0  0  0
  -27.2770  -36.8880   24.2960 H   0  0  0  0  0  0  0  0  0  0  0  0
  -26.7710  -30.2400   24.4360 C   0  0  1  0  0  0  0  0  0  0  0  0
  -25.7480  -29.9520   25.5600 C   0  0  0  0  0  1  0  0  0  0  0  0
  -27.1510  -28.8870   23.7890 C   0  0  0  0  0  1  0  0  0  0  0  0
  -28.0530  -30.8000   25.0960 C   0  0  0  0  0  1  0  0  0  0  0  0
  1 51  1  0
  2  1  1  0
  3  2  1  0
  4  3  1  0
  5  4  1  0
  6  7  1  0
  6  5  1  0
  8  7  1  0
  8  9  1  0
 10  9  1  0
 10 11  1  0
 11 12  1  0
 13 21  1  0
 14 19  1  0
 15 16  1  0
 15 14  1  0
 17 16  1  0
 17 26  1  0
 17 18  1  0
 19 13  1  0
 19 18  1  0
 20 13  2  0
 21 22  1  0
 21 12  1  0
 23 24  2  0
 24 43  1  0
 24 25  1  0
 25 28  1  0
 26 23  1  0
 26 27  1  0
 27 25  2  0
 28 29  1  0
 29 30  2  0
 31 34  1  0
 31 30  1  0
 32 31  2  0
 33 32  1  0
 33 28  2  0
 34 35  1  0
 35 40  2  0
 35 36  1  0
 36 37  2  0
 37 38  1  0
 38 42  1  0
 39 38  2  0
 40 39  1  0
 41 40  1  0
 43 44  1  0
 44 47  1  0
 44 46  1  0
 45 43  2  0
 48 23  1  0
 49 48  1  0
 50 48  1  0
 52 51  1  0
 53 52  1  0
 54 53  1  0
 55 54  1  0
 56 55  1  0
 57 56  1  0
 58 57  1  0
 59 61  1  0
 59 58  1  0
 60 71  2  0
 61 66  1  0
 62 70  1  0
 62 72  1  0
 63 69  1  0
 63 65  1  0
 64 70  1  0
 65 64  1  0
 66 65  2  0
 67 68  1  0
 67 61  2  0
 68 63  2  0
 69 62  1  0
 70 60  1  0
 72 74  2  0
 73 72  1  0
 75 73  1  0
 76 85  2  0
 76 81  1  0
 77 73  1  0
 77 81  1  0
 78 77  1  0
 79 80  1  0
 79 78  1  0
 80 76  1  0
 81 82  2  0
 82 83  1  0
 84 83  2  0
 85 84  1  0
 86 60  1  0
 86 87  1  0
 86 96  1  0
 87 90  1  0
 88 87  1  0
 88 92  1  0
 89 88  2  0
 92 91  1  0
 92 94  1  0
 94 95  1  0
 94 93  1  0
 96 99  1  1
 96 97  1  0
 98 96  1  0
M  ISO  4  13 100  21 100  58 101  59 101
M  END
>  <TORSDO>  (12) 
F 35

>  <SCORE>  (12) 
-3.476

>  <name>  (12) 
12

>  <ligand_id>  (12) 
12

>  <original_smiles>  (12) 
[H]c1c([H])c([H])c2c(c1[H])C([H])([H])C([H])([H])C([H])([H])C2([H])N([H])C(=O)C1([H])N(C(=O)C([H])(N([H])C(=O)C([H])(N([H])C([H])([H])[H])C([H])([H])[H])C(C([H])([H])[H])(C([H])([H])[H])C([H])([H])[H])C([H])([H])c2c([H])c(OC([H])([H])C([H])([H])OC([H])([H])C([H])([H])OC([H])([H])C([H])([H])OC([H])([H])C([H])([H])OC([H])([H])C([H])([H])OC([H])([H])C([H])([H])OC([H])([H])C([H])([H])N([H])C(=O)N3C([H])([H])C([H])([H])C([H])([H])C([H])(n4nc(-c5c([H])c([H])c(Oc6c([H])c([H])c(F)c([H])c6F)c([H])c5[H])c(C(=O)N([H])[H])c4N([H])[H])C3([H])[H])c([H])c([H])c2C1([H])[H]

>  <smiles>  (12) 
[H]c1c([H])c([H])c2c(c1[H])C([H])([H])C([H])([H])C([H])([H])C2([H])N([H])C(=O)C1([H])N(C(=O)C([H])(N([H])C(=O)C([H])(N([H])C([H])([H])[H])C([H])([H])[H])C(C([H])([H])[H])(C([H])([H])[H])C([H])([H])[H])C([H])([H])c2c([H])c(OC([H])([H])C([H])([H])OC([H])([H])C([H])([H])OC([H])([H])C([H])([H])OC([H])([H])C([H])([H])OC([H])([H])C([H])([H])OC([H])([H])C([H])([H])OC([H])([H])C([H])([H])N([H])C(=O)N3C([H])([H])C([H])([H])C([H])([H])C([H])(n4nc(-c5c([H])c([H])c(Oc6c([H])c([H])c(F)c([H])c6F)c([H])c5[H])c(C(=O)N([H])[H])c4N([H])[H])C3([H])[H])c([H])c([H])c2C1([H])[H]

$$$$
13:0:0
     RDKit          3D

104107  0  0  1  0  0  0  0  0999 V2000
  -20.8300  -20.0960   24.9040 C   0  0  0  0  0  2  0  0  0  0  0  0
  -20.1130  -20.0450   23.6790 O   0  0  0  0  0  0  0  0  0  0  0  0
  -19.9170  -21.3230   23.1030 C   0  0  0  0  0  2  0  0  0  0  0  0
  -19.3580  -21.1570   21.6870 C   0  0  0  0  0  2  0  0  0  0  0  0
  -19.5650  -22.3800   21.0030 O   0  0  0  0  0  0  0  0  0  0  0  0
  -18.9100  -22.4530   19.7440 C   0  0  0  0  0  2  0  0  0  0  0  0
  -19.0170  -23.9370   19.0980 C   0  0  0  0  0  1  0  0  0  0  0  0
  -22.0490  -25.4470   17.2050 C   0  0  0  0  0  0  0  0  0  0  0  0
  -20.5280  -25.0660   17.4290 N   0  0  0  0  0  2  0  0  0  0  0  0
  -22.1820  -25.7760   16.0290 O   0  0  0  0  0  0  0  0  0  0  0  0
  -19.9780  -25.3930   16.6470 H   0  0  0  0  0  0  0  0  0  0  0  0
  -23.7170  -25.3630   18.0420 C   0  0  0  0  0  2  0  0  0  0  0  0
  -25.0130  -26.3910   18.6510 O   0  0  0  0  0  0  0  0  0  0  0  0
  -24.5710  -30.3950   22.5060 C   0  0  0  0  0  0  0  0  0  0  0  0
  -26.2410  -26.9140   18.1640 C   0  0  0  0  0  3  0  0  0  0  0  0
  -23.4800  -29.9230   20.3920 C   0  0  0  0  0  3  0  0  0  0  0  0
  -24.8760  -29.1230   18.4150 C   0  0  0  0  0  0  0  0  0  0  0  0
  -26.0100  -29.8870   20.5130 C   0  0  0  0  0  2  0  0  0  0  0  0
  -25.9260  -28.9430   19.3260 C   0  0  0  0  0  3  0  0  0  0  0  0
  -26.7800  -27.8420   19.1040 C   0  0  0  0  0  2  0  0  0  0  0  0
  -25.8650  -27.4400   16.9570 C   0  0  0  0  0  2  0  0  0  0  0  0
  -24.9290  -28.4730   17.1530 C   0  0  0  0  0  3  0  0  0  0  0  0
  -23.7660  -30.0250   18.8660 C   0  0  0  0  0  2  0  0  0  0  0  0
  -24.7090  -30.1080   21.1850 N   0  0  0  0  0  0  0  0  0  0  0  0
  -23.4570  -30.5660   23.0260 O   0  0  0  0  0  0  0  0  0  0  0  0
  -22.8350  -28.6110   20.8820 C   0  0  0  0  0  0  0  0  0  0  0  0
  -21.6040  -28.7070   21.2840 N   0  0  0  0  0  0  0  0  0  0  0  0
  -23.4230  -27.5380   20.9790 O   0  0  0  0  0  0  0  0  0  0  0  0
  -21.1330  -29.5900   21.1530 H   0  0  0  0  0  0  0  0  0  0  0  0
  -17.8820  -28.8400   21.6920 C   0  0  0  0  0  0  0  0  0  0  0  0
  -20.7640  -27.5790   21.6440 C   0  0  0  0  0  2  0  0  0  0  0  0
  -20.3020  -26.1250   20.1030 C   0  0  0  0  0 15  0  0  0  0  0  0
  -18.3010  -26.4190   19.2490 C   0  0  0  0  0 15  0  0  0  0  0  0
  -17.1790  -27.8770   20.2180 C   0  0  0  0  0  1  0  0  0  0  0  0
  -19.4040  -28.7130   22.2760 C   0  0  0  0  0  0  0  0  0  0  0  0
  -19.6510  -29.2020   23.5770 C   0  0  0  0  0  3  0  0  0  0  0  0
  -18.6290  -29.6650   24.4150 C   0  0  0  0  0  3  0  0  0  0  0  0
  -17.2890  -29.6100   24.0110 C   0  0  0  0  0  3  0  0  0  0  0  0
  -16.9300  -29.1990   22.7020 C   0  0  0  0  0  3  0  0  0  0  0  0
  -25.8130  -30.5470   23.4090 C   0  0  0  0  0  3  0  0  0  0  0  0
  -26.0490  -29.3100   24.3550 C   0  0  1  0  0  0  0  0  0  0  0  0
  -24.8050  -28.8940   25.1730 C   0  0  0  0  0  1  0  0  0  0  0  0
  -26.5170  -28.0730   23.5530 C   0  0  0  0  0  1  0  0  0  0  0  0
  -27.1900  -29.6440   25.3430 C   0  0  0  0  0  1  0  0  0  0  0  0
  -25.6090  -31.7750   24.1830 N   0  0  0  0  0  0  0  0  0  0  0  0
  -26.1550  -32.9570   23.8720 C   0  0  0  0  0  0  0  0  0  0  0  0
  -26.9590  -33.0990   22.9480 O   0  0  0  0  0  0  0  0  0  0  0  0
  -24.9220  -31.7380   24.9210 H   0  0  0  0  0  0  0  0  0  0  0  0
  -24.7380  -35.0330   23.9550 C   0  0  0  0  0  1  0  0  0  0  0  0
  -25.7480  -34.1690   24.7270 C   0  0  0  0  0  3  0  0  0  0  0  0
  -27.7790  -34.3250   26.0980 C   0  0  0  0  0  1  0  0  0  0  0  0
  -26.8970  -34.9980   25.1470 N   0  0  0  0  0  0  0  0  0  0  0  0
  -26.5800  -35.8680   25.5670 H   0  0  0  0  0  0  0  0  0  0  0  0
  -21.6810  -18.8280   24.9900 C   0  0  0  0  0  2  0  0  0  0  0  0
  -22.7510  -18.9440   24.0610 O   0  0  0  0  0  0  0  0  0  0  0  0
  -23.4510  -17.7220   23.8980 C   0  0  0  0  0  2  0  0  0  0  0  0
  -24.6100  -17.8920   22.9060 C   0  0  0  0  0  2  0  0  0  0  0  0
  -24.1050  -18.0500   21.5810 O   0  0  0  0  0  0  0  0  0  0  0  0
  -24.6920  -17.1640   20.6280 C   0  0  0  0  0  2  0  0  0  0  0  0
  -25.9660  -17.7100   19.9520 C   0  0  0  0  0  2  0  0  0  0  0  0
  -27.1610  -17.1400   20.4860 O   0  0  0  0  0  0  0  0  0  0  0  0
  -28.2400  -17.1230   19.5450 C   0  0  0  0  0  2  0  0  0  0  0  0
  -29.6100  -17.1820   20.2530 C   0  0  0  0  0  2  0  0  0  0  0  0
  -30.4390  -16.0450   19.9740 O   0  0  0  0  0  0  0  0  0  0  0  0
  -31.7280  -16.1810   20.5800 C   0  0  0  0  0  2  0  0  0  0  0  0
  -32.7190  -15.0620   20.1860 C   0  0  0  0  0  2  0  0  0  0  0  0
  -32.7900  -12.5670   20.2280 C   0  0  0  0  0  0  0  0  0  0  0  0
  -32.0440  -10.4430   19.2460 C   0  0  0  0  0  2  0  0  0  0  0  0
  -31.1220  -10.7990   18.0560 C   0  0  0  0  0  2  0  0  0  0  0  0
  -29.6670  -11.0240   18.5190 C   0  0  0  0  0  2  0  0  0  0  0  0
  -29.5700  -11.9710   19.7450 C   0  0  0  0  0  3  0  0  0  0  0  0
  -30.5780  -11.5490   20.8370 C   0  0  0  0  0  2  0  0  0  0  0  0
  -31.9180  -11.5280   20.2290 N   0  0  0  0  0  0  0  0  0  0  0  0
  -33.9280  -12.5080   19.7560 O   0  0  0  0  0  0  0  0  0  0  0  0
  -32.2250  -13.7380   20.5610 N   0  0  0  0  0  0  0  0  0  0  0  0
  -31.2890  -13.6980   20.9340 H   0  0  0  0  0  0  0  0  0  0  0  0
  -27.4350  -13.1470   20.5720 C   0  0  0  0  0  0  0  0  0  0  0  0
  -26.2110  -12.6610   20.9480 C   0  0  0  0  0  0  0  0  0  0  0  0
  -26.3090  -11.2380   20.8520 C   0  0  0  0  0  0  0  0  0  0  0  0
  -28.2070  -12.0370   20.2660 N   0  0  0  0  0  0  0  0  0  0  0  0
  -27.5350  -10.8800   20.4940 N   0  0  0  0  0  0  0  0  0  0  0  0
  -25.2890  -10.1990   21.0260 C   0  0  0  0  0  0  0  0  0  0  0  0
  -25.4940   -9.1040   21.8940 C   0  0  0  0  0  3  0  0  0  0  0  0
  -24.4910   -8.1240   22.0590 C   0  0  0  0  0  3  0  0  0  0  0  0
  -23.2670   -8.2370   21.3570 C   0  0  0  0  0  0  0  0  0  0  0  0
  -23.0780   -9.3160   20.4770 C   0  0  0  0  0  3  0  0  0  0  0  0
  -24.0790  -10.2880   20.3090 C   0  0  0  0  0  3  0  0  0  0  0  0
  -22.2470   -7.3220   21.4360 O   0  0  0  0  0  0  0  0  0  0  0  0
  -22.0280   -6.5860   22.5720 C   0  0  0  0  0  0  0  0  0  0  0  0
  -21.7570   -7.1970   23.8170 C   0  0  0  0  0  3  0  0  0  0  0  0
  -21.4680   -6.4010   24.9430 C   0  0  0  0  0  3  0  0  0  0  0  0
  -21.4410   -4.9980   24.8270 C   0  0  0  0  0  0  0  0  0  0  0  0
  -21.7050   -4.3890   23.5880 C   0  0  0  0  0  3  0  0  0  0  0  0
  -21.9940   -5.1810   22.4630 C   0  0  0  0  0  0  0  0  0  0  0  0
  -22.2280   -4.5890   21.2670 F   0  0  0  0  0  0  0  0  0  0  0  0
  -21.1540   -4.2340   25.9070 F   0  0  0  0  0  0  0  0  0  0  0  0
  -24.9920  -13.4660   21.2890 C   0  0  0  0  0  0  0  0  0  0  0  0
  -24.1640  -12.9640   22.2000 N   0  0  0  0  0  0  0  0  0  0  0  0
  -24.7880  -14.5640   20.7760 O   0  0  0  0  0  0  0  0  0  0  0  0
  -24.3470  -12.0710   22.6370 H   0  0  0  0  0  0  0  0  0  0  0  0
  -23.3360  -13.4790   22.4660 H   0  0  0  0  0  0  0  0  0  0  0  0
  -27.9440  -14.4330   20.4470 N   0  0  0  0  0  0  0  0  0  0  0  0
  -27.3770  -15.2630   20.5960 H   0  0  0  0  0  0  0  0  0  0  0  0
  -28.8860  -14.6590   20.1510 H   0  0  0  0  0  0  0  0  0  0  0  0
  1 54  1  0
  2  1  1  0
  3  2  1  0
  4  3  1  0
  5  4  1  0
  6  5  1  0
  7  6  1  0
  8  9  1  0
  8 12  1  0
 10  8  2  0
 11  9  1  0
 12 13  1  0
 14 25  2  0
 15 13  1  0
 15 20  1  0
 16 26  1  0
 16 24  1  0
 17 23  1  0
 17 19  1  0
 18 24  1  0
 19 20  1  0
 19 18  1  0
 21 22  1  0
 21 15  1  0
 22 17  2  0
 23 16  1  0
 24 14  1  0
 26 28  2  0
 26 27  1  0
 27 31  1  0
 29 27  1  0
 30 35  2  0
 30 39  1  0
 31 35  1  0
 34 30  1  0
 35 36  1  0
 36 37  2  0
 38 37  1  0
 39 38  2  0
 40 14  1  0
 40 45  1  0
 40 41  1  0
 41 42  1  1
 41 44  1  0
 43 41  1  0
 45 48  1  0
 46 45  1  0
 46 50  1  0
 47 46  2  0
 50 49  1  0
 50 52  1  0
 52 53  1  0
 52 51  1  0
 55 54  1  0
 56 55  1  0
 57 56  1  0
 58 57  1  0
 59 58  1  0
 60 61  1  0
 60 59  1  0
 62 63  1  0
 62 61  1  0
 64 63  1  0
 64 65  1  0
 66 75  1  0
 66 65  1  0
 67 73  1  0
 67 75  1  0
 68 73  1  0
 69 70  1  0
 69 68  1  0
 71 70  1  0
 71 80  1  0
 71 72  1  0
 73 72  1  0
 74 67  2  0
 75 76  1  0
 77 78  2  0
 78 97  1  0
 79 78  1  0
 79 82  1  0
 80 81  1  0
 80 77  1  0
 81 79  2  0
 82 83  1  0
 83 84  2  0
 85 88  1  0
 85 84  1  0
 86 85  2  0
 87 86  1  0
 87 82  2  0
 88 89  1  0
 89 90  1  0
 90 91  2  0
 92 91  1  0
 92 96  1  0
 93 92  2  0
 94 89  2  0
 94 93  1  0
 95 94  1  0
 97 98  1  0
 98101  1  0
 98100  1  0
 99 97  2  0
102 77  1  0
102103  1  0
104102  1  0
M  ISO  4  12 101  13 101  67 100  75 100
M  END
>  <TORSDO>  (13) 
F 37

>  <SCORE>  (13) 
23.709

>  <name>  (13) 
13

>  <ligand_id>  (13) 
13

>  <original_smiles>  (13) 
[H]c1c([H])c([H])c2c(c1[H])C([H])([H])C([H])([H])C([H])([H])C2([H])N([H])C(=O)C1([H])N(C(=O)C([H])(N([H])C(=O)C([H])(N([H])C([H])([H])[H])C([H])([H])[H])C(C([H])([H])[H])(C([H])([H])[H])C([H])([H])[H])C([H])([H])c2c([H])c(OC([H])([H])C(=O)N([H])C([H])([H])C([H])([H])OC([H])([H])C([H])([H])OC([H])([H])C([H])([H])OC([H])([H])C([H])([H])OC([H])([H])C([H])([H])OC([H])([H])C([H])([H])OC([H])([H])C([H])([H])N([H])C(=O)N3C([H])([H])C([H])([H])C([H])([H])C([H])(n4nc(-c5c([H])c([H])c(Oc6c([H])c([H])c(F)c([H])c6F)c([H])c5[H])c(C(=O)N([H])[H])c4N([H])[H])C3([H])[H])c([H])c([H])c2C1([H])[H]

>  <smiles>  (13) 
[H]c1c([H])c([H])c2c(c1[H])C([H])([H])C([H])([H])C([H])([H])C2([H])N([H])C(=O)C1([H])N(C(=O)C([H])(N([H])C(=O)C([H])(N([H])C([H])([H])[H])C([H])([H])[H])C(C([H])([H])[H])(C([H])([H])[H])C([H])([H])[H])C([H])([H])c2c([H])c(OC([H])([H])C(=O)N([H])C([H])([H])C([H])([H])OC([H])([H])C([H])([H])OC([H])([H])C([H])([H])OC([H])([H])C([H])([H])OC([H])([H])C([H])([H])OC([H])([H])C([H])([H])OC([H])([H])C([H])([H])N([H])C(=O)N3C([H])([H])C([H])([H])C([H])([H])C([H])(n4nc(-c5c([H])c([H])c(Oc6c([H])c([H])c(F)c([H])c6F)c([H])c5[H])c(C(=O)N([H])[H])c4N([H])[H])C3([H])[H])c([H])c([H])c2C1([H])[H]

$$$$
14:0:0
     RDKit          3D

101108  0  0  1  0  0  0  0  0999 V2000
  -28.9900  -16.5030   25.5810 C   0  0  0  0  0  2  0  0  0  0  0  0
  -29.3180  -17.8040   26.0460 O   0  0  0  0  0  0  0  0  0  0  0  0
  -29.8800  -18.6110   25.0200 C   0  0  0  0  0  2  0  0  0  0  0  0
  -29.8610  -20.0790   25.4480 C   0  0  0  0  0  2  0  0  0  0  0  0
  -30.2010  -20.8680   24.3210 O   0  0  0  0  0  0  0  0  0  0  0  0
  -30.0020  -22.2550   24.5340 C   0  0  0  0  0  2  0  0  0  0  0  0
  -30.1020  -22.9620   23.1830 C   0  0  0  0  0  2  0  0  0  0  0  0
  -29.8860  -24.3540   23.3460 O   0  0  0  0  0  0  0  0  0  0  0  0
  -29.8400  -25.0120   22.0890 C   0  0  0  0  0  2  0  0  0  0  0  0
  -29.7600  -26.5260   22.2850 C   0  0  0  0  0  2  0  0  0  0  0  0
  -29.4470  -27.1030   21.0230 O   0  0  0  0  0  0  0  0  0  0  0  0
  -24.7160  -31.7250   23.6500 C   0  0  0  0  0  0  0  0  0  0  0  0
  -28.2000  -27.6640   20.9440 C   0  0  0  0  0  0  0  0  0  0  0  0
  -23.8750  -30.1860   21.8980 C   0  0  0  0  0  3  0  0  0  0  0  0
  -25.6510  -28.8270   20.6770 C   0  0  0  0  0  0  0  0  0  0  0  0
  -26.3400  -30.8530   21.9770 C   0  0  0  0  0  2  0  0  0  0  0  0
  -26.6570  -29.4980   21.3860 C   0  0  0  0  0  0  0  0  0  0  0  0
  -27.9320  -28.9180   21.5270 C   0  0  0  0  0  3  0  0  0  0  0  0
  -27.1850  -26.9930   20.2350 C   0  0  0  0  0  3  0  0  0  0  0  0
  -25.9050  -27.5680   20.1050 C   0  0  0  0  0  3  0  0  0  0  0  0
  -24.3180  -29.5290   20.5630 C   0  0  0  0  0  2  0  0  0  0  0  0
  -24.9850  -30.9400   22.5700 N   0  0  0  0  0  0  0  0  0  0  0  0
  -23.5560  -31.8680   24.0600 O   0  0  0  0  0  0  0  0  0  0  0  0
  -23.2440  -29.0980   22.7950 C   0  0  0  0  0  0  0  0  0  0  0  0
  -22.1590  -28.4780   22.3050 N   0  0  0  0  0  0  0  0  0  0  0  0
  -23.7430  -28.8060   23.8850 O   0  0  0  0  0  0  0  0  0  0  0  0
  -21.8060  -28.7810   21.4080 H   0  0  0  0  0  0  0  0  0  0  0  0
  -19.6830  -25.9090   21.7480 C   0  0  0  0  0  0  0  0  0  0  0  0
  -21.4200  -27.3940   22.9540 C   0  0  0  0  0  3  0  0  0  0  0  0
  -22.2850  -26.1170   23.0620 C   0  0  0  0  0  2  0  0  0  0  0  0
  -22.0950  -25.1570   21.8840 C   0  0  0  0  0  2  0  0  0  0  0  0
  -20.6300  -24.7220   21.7770 C   0  0  0  0  0  2  0  0  0  0  0  0
  -20.0590  -27.1670   22.2870 C   0  0  0  0  0  0  0  0  0  0  0  0
  -19.1540  -28.2470   22.2030 C   0  0  0  0  0  3  0  0  0  0  0  0
  -17.8940  -28.0840   21.6000 C   0  0  0  0  0  3  0  0  0  0  0  0
  -17.5190  -26.8310   21.0850 C   0  0  0  0  0  3  0  0  0  0  0  0
  -18.4110  -25.7460   21.1620 C   0  0  0  0  0  3  0  0  0  0  0  0
  -25.8430  -32.4990   24.4030 C   0  0  0  0  0  3  0  0  0  0  0  0
  -25.4360  -33.9070   24.4840 N   0  0  0  0  0  0  0  0  0  0  0  0
  -25.8810  -34.8720   23.6700 C   0  0  0  0  0  0  0  0  0  0  0  0
  -26.7460  -34.6790   22.8110 O   0  0  0  0  0  0  0  0  0  0  0  0
  -24.6930  -34.1290   25.1310 H   0  0  0  0  0  0  0  0  0  0  0  0
  -24.2280  -36.5190   22.7300 C   0  0  0  0  0  1  0  0  0  0  0  0
  -25.2690  -36.2780   23.8340 C   0  0  0  0  0  3  0  0  0  0  0  0
  -27.1490  -37.3540   24.9850 C   0  0  0  0  0  1  0  0  0  0  0  0
  -26.2740  -37.3620   23.8170 N   0  0  0  0  0  0  0  0  0  0  0  0
  -25.8210  -38.2710   23.7660 H   0  0  0  0  0  0  0  0  0  0  0  0
  -26.1390  -31.9220   25.8420 C   0  0  1  0  0  0  0  0  0  0  0  0
  -24.8740  -31.7460   26.7150 C   0  0  0  0  0  1  0  0  0  0  0  0
  -26.8360  -30.5440   25.7390 C   0  0  0  0  0  1  0  0  0  0  0  0
  -27.1110  -32.8590   26.5950 C   0  0  0  0  0  1  0  0  0  0  0  0
  -28.5370  -15.6240   26.7610 C   0  0  0  0  0  2  0  0  0  0  0  0
  -28.6030  -14.2440   26.4070 O   0  0  0  0  0  0  0  0  0  0  0  0
  -29.8050  -13.5630   26.7750 C   0  0  0  0  0  2  0  0  0  0  0  0
  -31.0460  -14.0370   25.9960 C   0  0  0  0  0  2  0  0  0  0  0  0
  -30.8960  -13.7110   24.6190 O   0  0  0  0  0  0  0  0  0  0  0  0
  -31.9560  -14.2190   23.8170 C   0  0  0  0  0  2  0  0  0  0  0  0
  -31.8410  -13.6570   22.3880 C   0  0  0  0  0  2  0  0  0  0  0  0
  -30.9140  -15.4850   20.9470 C   0  0  0  0  0  0  0  0  0  0  0  0
  -30.8010  -14.3350   21.6190 N   0  0  0  0  0  0  0  0  0  0  0  0
  -31.9730  -16.1060   20.8300 O   0  0  0  0  0  0  0  0  0  0  0  0
  -29.8790  -13.9190   21.6560 H   0  0  0  0  0  0  0  0  0  0  0  0
  -29.6210  -16.0050   20.3260 C   0  0  0  0  0  2  0  0  0  0  0  0
  -30.2490  -17.2480   18.2820 C   0  0  0  0  0  0  0  0  0  0  0  0
  -29.1730  -17.8760   16.1700 C   0  0  0  0  0  2  0  0  0  0  0  0
  -30.0140  -18.6930   15.1840 C   0  0  0  0  0  2  0  0  0  0  0  0
  -29.8980  -20.1920   15.4980 C   0  0  0  0  0  2  0  0  0  0  0  0
  -30.1900  -20.5030   16.9880 C   0  0  0  0  0  3  0  0  0  0  0  0
  -29.3860  -19.5800   17.9310 C   0  0  0  0  0  2  0  0  0  0  0  0
  -29.6070  -18.1770   17.5390 N   0  0  0  0  0  0  0  0  0  0  0  0
  -30.8810  -16.2980   17.8090 O   0  0  0  0  0  0  0  0  0  0  0  0
  -29.7830  -17.2230   19.5330 N   0  0  0  0  0  0  0  0  0  0  0  0
  -29.2430  -18.0240   19.8220 H   0  0  0  0  0  0  0  0  0  0  0  0
  -30.8460  -22.8800   17.7350 C   0  0  0  0  0  0  0  0  0  0  0  0
  -30.1430  -24.0540   17.7710 C   0  0  0  0  0  0  0  0  0  0  0  0
  -28.8250  -23.7400   17.3210 C   0  0  0  0  0  0  0  0  0  0  0  0
  -29.9560  -21.9170   17.2830 N   0  0  0  0  0  0  0  0  0  0  0  0
  -28.7190  -22.4380   17.0830 N   0  0  0  0  0  0  0  0  0  0  0  0
  -27.6750  -24.6110   17.0440 C   0  0  0  0  0  0  0  0  0  0  0  0
  -26.3670  -24.2590   17.4460 C   0  0  0  0  0  3  0  0  0  0  0  0
  -25.2810  -25.1210   17.1870 C   0  0  0  0  0  3  0  0  0  0  0  0
  -25.4950  -26.3520   16.5240 C   0  0  0  0  0  0  0  0  0  0  0  0
  -26.7940  -26.6890   16.1050 C   0  0  0  0  0  3  0  0  0  0  0  0
  -27.8750  -25.8260   16.3590 C   0  0  0  0  0  3  0  0  0  0  0  0
  -24.4960  -27.2400   16.2060 O   0  0  0  0  0  0  0  0  0  0  0  0
  -23.2580  -27.1700   16.7890 C   0  0  0  0  0  0  0  0  0  0  0  0
  -23.0810  -27.3100   18.1840 C   0  0  0  0  0  3  0  0  0  0  0  0
  -21.7840  -27.2990   18.7350 C   0  0  0  0  0  3  0  0  0  0  0  0
  -20.6630  -27.1610   17.8940 C   0  0  0  0  0  0  0  0  0  0  0  0
  -20.8370  -27.0270   16.5050 C   0  0  0  0  0  3  0  0  0  0  0  0
  -22.1290  -27.0350   15.9550 C   0  0  0  0  0  0  0  0  0  0  0  0
  -22.2900  -26.9270   14.6140 F   0  0  0  0  0  0  0  0  0  0  0  0
  -19.4160  -27.1590   18.4220 F   0  0  0  0  0  0  0  0  0  0  0  0
  -30.6850  -25.4120   18.1150 C   0  0  0  0  0  0  0  0  0  0  0  0
  -29.8320  -26.3060   18.6040 N   0  0  0  0  0  0  0  0  0  0  0  0
  -31.8810  -25.6700   17.9990 O   0  0  0  0  0  0  0  0  0  0  0  0
  -28.8540  -26.0870   18.7190 H   0  0  0  0  0  0  0  0  0  0  0  0
  -30.1640  -27.2240   18.8640 H   0  0  0  0  0  0  0  0  0  0  0  0
  -32.1670  -22.5530   18.0290 N   0  0  0  0  0  0  0  0  0  0  0  0
  -32.8480  -23.2490   18.3080 H   0  0  0  0  0  0  0  0  0  0  0  0
  -32.5650  -21.6280   17.9220 H   0  0  0  0  0  0  0  0  0  0  0  0
  1  2  1  0
  1 52  1  0
  3  4  1  0
  3  2  1  0
  5  6  1  0
  5  4  1  0
  7  8  1  0
  7  6  1  0
  9 10  1  0
  9  8  1  0
 11 10  1  0
 12 23  2  0
 13 11  1  0
 13 18  1  0
 14 22  1  0
 14 24  1  0
 15 17  1  0
 16 22  1  0
 17 18  2  0
 17 16  1  0
 19 13  2  0
 20 19  1  0
 20 15  2  0
 21 15  1  0
 21 14  1  0
 22 12  1  0
 24 26  2  0
 25 24  1  0
 27 25  1  0
 28 32  1  0
 28 33  1  0
 29 25  1  0
 29 30  1  0
 31 30  1  0
 32 31  1  0
 33 29  1  0
 34 33  2  0
 35 34  1  0
 36 37  1  0
 36 35  2  0
 37 28  2  0
 38 12  1  0
 38 39  1  0
 38 48  1  0
 39 42  1  0
 40 44  1  0
 40 39  1  0
 41 40  2  0
 44 43  1  0
 46 44  1  0
 46 45  1  0
 47 46  1  0
 48 51  1  1
 48 49  1  0
 50 48  1  0
 53 52  1  0
 53 54  1  0
 55 54  1  0
 56 55  1  0
 57 56  1  0
 58 57  1  0
 59 60  1  0
 60 62  1  0
 60 58  1  0
 61 59  2  0
 63 59  1  0
 64 72  1  0
 65 70  1  0
 66 67  1  0
 66 65  1  0
 68 67  1  0
 68 77  1  0
 68 69  1  0
 70 69  1  0
 70 64  1  0
 71 64  2  0
 72 73  1  0
 72 63  1  0
 74 75  2  0
 74 99  1  0
 75 94  1  0
 76 75  1  0
 77 74  1  0
 78 77  1  0
 78 76  2  0
 79 76  1  0
 79 80  1  0
 81 80  2  0
 82 81  1  0
 83 84  1  0
 83 82  2  0
 84 79  2  0
 85 82  1  0
 85 86  1  0
 86 87  1  0
 87 88  2  0
 89 93  1  0
 89 88  1  0
 90 89  2  0
 91 90  1  0
 91 86  2  0
 92 91  1  0
 94 95  1  0
 95 97  1  0
 95 98  1  0
 96 94  2  0
 99100  1  0
101 99  1  0
M  ISO  4  10 101  11 101  64 100  72 100
M  END
>  <TORSDO>  (14) 
F 34

>  <SCORE>  (14) 
36.456

>  <name>  (14) 
14

>  <ligand_id>  (14) 
14

>  <original_smiles>  (14) 
[H]c1c([H])c([H])c2c(c1[H])C([H])([H])C([H])([H])C([H])([H])C2([H])N([H])C(=O)C1([H])N(C(=O)C([H])(N([H])C(=O)C([H])(N([H])C([H])([H])[H])C([H])([H])[H])C(C([H])([H])[H])(C([H])([H])[H])C([H])([H])[H])C([H])([H])c2c([H])c(OC([H])([H])C([H])([H])OC([H])([H])C([H])([H])OC([H])([H])C([H])([H])OC([H])([H])C([H])([H])OC([H])([H])C([H])([H])OC([H])([H])C([H])([H])N([H])C(=O)C([H])([H])N([H])C(=O)N3C([H])([H])C([H])([H])C([H])([H])C([H])(n4nc(-c5c([H])c([H])c(Oc6c([H])c([H])c(F)c([H])c6F)c([H])c5[H])c(C(=O)N([H])[H])c4N([H])[H])C3([H])[H])c([H])c([H])c2C1([H])[H]

>  <smiles>  (14) 
[H]c1c([H])c([H])c2c(c1[H])C([H])([H])C([H])([H])C([H])([H])C2([H])N([H])C(=O)C1([H])N(C(=O)C([H])(N([H])C(=O)C([H])(N([H])C([H])([H])[H])C([H])([H])[H])C(C([H])([H])[H])(C([H])([H])[H])C([H])([H])[H])C([H])([H])c2c([H])c(OC([H])([H])C([H])([H])OC([H])([H])C([H])([H])OC([H])([H])C([H])([H])OC([H])([H])C([H])([H])OC([H])([H])C([H])([H])OC([H])([H])C([H])([H])N([H])C(=O)C([H])([H])N([H])C(=O)N3C([H])([H])C([H])([H])C([H])([H])C([H])(n4nc(-c5c([H])c([H])c(Oc6c([H])c([H])c(F)c([H])c6F)c([H])c5[H])c(C(=O)N([H])[H])c4N([H])[H])C3([H])[H])c([H])c([H])c2C1([H])[H]

$$$$
15:0:0
     RDKit          3D

105112  0  0  1  0  0  0  0  0999 V2000
  -28.2940  -21.9680   23.3030 O   0  0  0  0  0  0  0  0  0  0  0  0
  -29.6770  -21.6420   23.3630 C   0  0  0  0  0  2  0  0  0  0  0  0
  -30.1100  -21.1310   21.9890 C   0  0  0  0  0  2  0  0  0  0  0  0
  -29.8010  -22.0760   20.9790 O   0  0  0  0  0  0  0  0  0  0  0  0
  -30.4170  -21.7380   19.7490 C   0  0  0  0  0  2  0  0  0  0  0  0
  -29.8510  -22.6720   18.6890 C   0  0  0  0  0  2  0  0  0  0  0  0
  -30.6350  -22.5390   17.5120 O   0  0  0  0  0  0  0  0  0  0  0  0
  -29.9870  -23.0950   16.3810 C   0  0  0  0  0  2  0  0  0  0  0  0
  -31.0200  -23.4080   15.2790 C   0  0  0  0  0  2  0  0  0  0  0  0
  -31.5700  -22.2490   14.6500 O   0  0  0  0  0  0  0  0  0  0  0  0
  -30.6190  -21.4330   13.9630 C   0  0  0  0  0  2  0  0  0  0  0  0
  -30.7530  -19.9570   14.3730 C   0  0  0  0  0  2  0  0  0  0  0  0
  -30.7440  -19.8090   15.7950 O   0  0  0  0  0  0  0  0  0  0  0  0
  -30.8470  -18.4490   16.2190 C   0  0  0  0  0  2  0  0  0  0  0  0
  -31.4190  -18.2940   17.6390 C   0  0  0  0  0  2  0  0  0  0  0  0
  -33.6430  -19.2680   17.1560 C   0  0  0  0  0  0  0  0  0  0  0  0
  -35.4830  -18.0860   16.0370 C   0  0  0  0  0  2  0  0  0  0  0  0
  -34.9340  -16.9550   15.1580 C   0  0  0  0  0  2  0  0  0  0  0  0
  -34.7710  -15.6580   15.9690 C   0  0  0  0  0  2  0  0  0  0  0  0
  -34.0420  -15.8760   17.3150 C   0  0  0  0  0  3  0  0  0  0  0  0
  -34.5890  -17.1060   18.0740 C   0  0  0  0  0  2  0  0  0  0  0  0
  -34.5520  -18.2590   17.1590 N   0  0  0  0  0  0  0  0  0  0  0  0
  -33.7290  -20.2580   16.4330 O   0  0  0  0  0  0  0  0  0  0  0  0
  -32.5790  -19.1420   17.9550 N   0  0  0  0  0  0  0  0  0  0  0  0
  -32.2530  -20.0550   18.2240 H   0  0  0  0  0  0  0  0  0  0  0  0
  -32.9800  -13.8480   18.4920 C   0  0  0  0  0  0  0  0  0  0  0  0
  -33.5260  -12.8170   19.2130 C   0  0  0  0  0  0  0  0  0  0  0  0
  -34.9300  -13.0760   19.2540 C   0  0  0  0  0  0  0  0  0  0  0  0
  -34.0430  -14.6700   18.1390 N   0  0  0  0  0  0  0  0  0  0  0  0
  -35.2150  -14.2220   18.6490 N   0  0  0  0  0  0  0  0  0  0  0  0
  -36.0280  -12.2560   19.7830 C   0  0  0  0  0  0  0  0  0  0  0  0
  -36.9660  -12.7830   20.6940 C   0  0  0  0  0  3  0  0  0  0  0  0
  -38.0070  -11.9720   21.1990 C   0  0  0  0  0  3  0  0  0  0  0  0
  -38.1150  -10.6190   20.7980 C   0  0  0  0  0  0  0  0  0  0  0  0
  -37.1890  -10.1060   19.8680 C   0  0  0  0  0  3  0  0  0  0  0  0
  -36.1590  -10.9150   19.3640 C   0  0  0  0  0  3  0  0  0  0  0  0
  -39.1180   -9.7710   21.2100 O   0  0  0  0  0  0  0  0  0  0  0  0
  -39.7470   -9.9400   22.4200 C   0  0  0  0  0  0  0  0  0  0  0  0
  -39.0340   -9.9510   23.6350 C   0  0  0  0  0  3  0  0  0  0  0  0
  -39.7280  -10.0500   24.8610 C   0  0  0  0  0  3  0  0  0  0  0  0
  -41.1340  -10.1340   24.8690 C   0  0  0  0  0  0  0  0  0  0  0  0
  -41.8470  -10.1240   23.6580 C   0  0  0  0  0  3  0  0  0  0  0  0
  -41.1570  -10.0200   22.4360 C   0  0  0  0  0  0  0  0  0  0  0  0
  -41.8450   -9.9850   21.2720 F   0  0  0  0  0  0  0  0  0  0  0  0
  -41.8050  -10.2330   26.0420 F   0  0  0  0  0  0  0  0  0  0  0  0
  -32.7990  -11.6170   19.7480 C   0  0  0  0  0  0  0  0  0  0  0  0
  -33.2380  -11.0900   20.8920 N   0  0  0  0  0  0  0  0  0  0  0  0
  -31.8150  -11.1570   19.1770 O   0  0  0  0  0  0  0  0  0  0  0  0
  -34.0400  -11.4710   21.3730 H   0  0  0  0  0  0  0  0  0  0  0  0
  -32.7690  -10.2890   21.2850 H   0  0  0  0  0  0  0  0  0  0  0  0
  -31.6780  -14.1350   18.0990 N   0  0  0  0  0  0  0  0  0  0  0  0
  -30.9110  -13.5010   18.2980 H   0  0  0  0  0  0  0  0  0  0  0  0
  -31.4130  -14.9080   17.5080 H   0  0  0  0  0  0  0  0  0  0  0  0
  -27.9840  -23.1030   24.0920 C   0  0  0  0  0  2  0  0  0  0  0  0
  -26.5640  -23.5970   23.7580 C   0  0  0  0  0  2  0  0  0  0  0  0
  -26.4950  -24.9400   23.2800 O   0  0  0  0  0  0  0  0  0  0  0  0
  -26.9750  -25.1660   21.9500 C   0  0  0  0  0  2  0  0  0  0  0  0
  -28.0130  -26.3130   21.9430 C   0  0  0  0  0  0  0  0  0  0  0  0
  -29.0830  -26.3020   21.1340 N   0  0  0  0  0  0  0  0  0  0  0  0
  -27.8330  -27.2730   22.6930 O   0  0  0  0  0  0  0  0  0  0  0  0
  -29.6370  -27.1490   21.1250 H   0  0  0  0  0  0  0  0  0  0  0  0
  -29.5580  -25.2430   20.2470 C   0  0  0  0  0  2  0  0  0  0  0  0
  -31.0420  -25.4160   19.8650 C   0  0  0  0  0  2  0  0  0  0  0  0
  -31.5770  -26.8580   19.7280 C   0  0  0  0  0  2  0  0  0  0  0  0
  -30.8930  -27.5740   18.7130 O   0  0  0  0  0  0  0  0  0  0  0  0
  -26.3020  -30.4680   23.3410 C   0  0  0  0  0  0  0  0  0  0  0  0
  -29.6090  -27.9450   19.0150 C   0  0  0  0  0  0  0  0  0  0  0  0
  -25.3100  -29.4320   21.3250 C   0  0  0  0  0  3  0  0  0  0  0  0
  -26.9610  -28.7730   19.5010 C   0  0  0  0  0  0  0  0  0  0  0  0
  -27.6850  -30.3790   21.2750 C   0  0  0  0  0  2  0  0  0  0  0  0
  -28.0150  -29.3290   20.2390 C   0  0  0  0  0  0  0  0  0  0  0  0
  -29.3450  -28.9140   20.0040 C   0  0  0  0  0  3  0  0  0  0  0  0
  -28.5460  -27.3990   18.2750 C   0  0  0  0  0  3  0  0  0  0  0  0
  -27.2200  -27.7950   18.5250 C   0  0  0  0  0  3  0  0  0  0  0  0
  -25.5670  -29.2690   19.8040 C   0  0  0  0  0  2  0  0  0  0  0  0
  -26.4510  -30.0900   22.0410 N   0  0  0  0  0  0  0  0  0  0  0  0
  -25.2270  -30.3110   23.9360 O   0  0  0  0  0  0  0  0  0  0  0  0
  -24.9490  -28.0450   21.8970 C   0  0  0  0  0  0  0  0  0  0  0  0
  -23.7580  -27.5410   21.5320 N   0  0  0  0  0  0  0  0  0  0  0  0
  -25.7380  -27.4340   22.6240 O   0  0  0  0  0  0  0  0  0  0  0  0
  -23.1640  -28.1060   20.9400 H   0  0  0  0  0  0  0  0  0  0  0  0
  -20.9680  -25.2980   21.0780 C   0  0  0  0  0  0  0  0  0  0  0  0
  -23.2250  -26.2330   21.9130 C   0  0  0  0  0  3  0  0  0  0  0  0
  -23.8880  -25.1030   21.0890 C   0  0  0  0  0  2  0  0  0  0  0  0
  -23.0950  -24.7300   19.8320 C   0  0  0  0  0  2  0  0  0  0  0  0
  -21.6780  -24.2850   20.1940 C   0  0  0  0  0  2  0  0  0  0  0  0
  -21.6940  -26.2190   21.8760 C   0  0  0  0  0  0  0  0  0  0  0  0
  -20.9880  -27.1600   22.6550 C   0  0  0  0  0  3  0  0  0  0  0  0
  -19.5800  -27.1860   22.6500 C   0  0  0  0  0  3  0  0  0  0  0  0
  -18.8640  -26.2620   21.8700 C   0  0  0  0  0  3  0  0  0  0  0  0
  -19.5580  -25.3190   21.0890 C   0  0  0  0  0  3  0  0  0  0  0  0
  -27.4680  -31.1350   24.1390 C   0  0  0  0  0  3  0  0  0  0  0  0
  -28.0920  -30.1870   25.2350 C   0  0  1  0  0  0  0  0  0  0  0  0
  -27.0400  -29.5450   26.1700 C   0  0  0  0  0  1  0  0  0  0  0  0
  -28.9010  -29.0440   24.5750 C   0  0  0  0  0  1  0  0  0  0  0  0
  -29.0830  -30.9850   26.1160 C   0  0  0  0  0  1  0  0  0  0  0  0
  -26.9400  -32.3610   24.7490 N   0  0  0  0  0  0  0  0  0  0  0  0
  -27.1360  -33.5960   24.2670 C   0  0  0  0  0  0  0  0  0  0  0  0
  -27.8530  -33.8260   23.2880 O   0  0  0  0  0  0  0  0  0  0  0  0
  -26.2990  -32.2430   25.5200 H   0  0  0  0  0  0  0  0  0  0  0  0
  -25.1690  -35.1600   24.2010 C   0  0  0  0  0  1  0  0  0  0  0  0
  -26.4280  -34.7600   24.9850 C   0  0  0  0  0  3  0  0  0  0  0  0
  -28.3740  -35.7200   26.1330 C   0  0  0  0  0  1  0  0  0  0  0  0
  -27.2910  -35.9450   25.1790 N   0  0  0  0  0  0  0  0  0  0  0  0
  -26.7450  -36.7380   25.5040 H   0  0  0  0  0  0  0  0  0  0  0  0
  1  2  1  0
  1 54  1  0
  3  2  1  0
  4  3  1  0
  5  4  1  0
  6  5  1  0
  7  6  1  0
  8  7  1  0
  9  8  1  0
 10  9  1  0
 11 12  1  0
 11 10  1  0
 12 13  1  0
 13 14  1  0
 14 15  1  0
 15 24  1  0
 16 22  1  0
 16 24  1  0
 17 22  1  0
 18 19  1  0
 18 17  1  0
 20 19  1  0
 20 21  1  0
 20 29  1  0
 22 21  1  0
 23 16  2  0
 24 25  1  0
 26 27  2  0
 27 28  1  0
 27 46  1  0
 28 31  1  0
 29 26  1  0
 29 30  1  0
 30 28  2  0
 31 32  1  0
 32 33  2  0
 34 33  1  0
 34 37  1  0
 35 34  2  0
 36 31  2  0
 36 35  1  0
 37 38  1  0
 38 43  2  0
 38 39  1  0
 39 40  2  0
 40 41  1  0
 41 45  1  0
 42 41  2  0
 43 42  1  0
 44 43  1  0
 46 47  1  0
 47 50  1  0
 47 49  1  0
 48 46  2  0
 51 52  1  0
 51 26  1  0
 53 51  1  0
 55 54  1  0
 56 55  1  0
 57 56  1  0
 58 57  1  0
 58 60  2  0
 59 58  1  0
 61 59  1  0
 62 59  1  0
 63 62  1  0
 64 63  1  0
 65 67  1  0
 65 64  1  0
 66 77  2  0
 67 72  1  0
 68 78  1  0
 68 76  1  0
 69 75  1  0
 69 71  1  0
 70 76  1  0
 71 70  1  0
 72 71  2  0
 73 74  1  0
 73 67  2  0
 74 69  2  0
 75 68  1  0
 76 66  1  0
 78 80  2  0
 79 78  1  0
 81 79  1  0
 82 91  2  0
 82 87  1  0
 83 79  1  0
 84 83  1  0
 85 86  1  0
 85 84  1  0
 86 82  1  0
 87 83  1  0
 87 88  2  0
 89 88  1  0
 90 89  2  0
 91 90  1  0
 92 66  1  0
 92 97  1  0
 92 93  1  0
 93 96  1  1
 93 94  1  0
 95 93  1  0
 97100  1  0
 98 97  1  0
 98102  1  0
 99 98  2  0
102101  1  0
102104  1  0
104105  1  0
104103  1  0
M  ISO  4  16 100  24 100  64 101  65 101
M  END
>  <TORSDO>  (15) 
F 38

>  <SCORE>  (15) 
4.579

>  <name>  (15) 
15

>  <ligand_id>  (15) 
15

>  <original_smiles>  (15) 
[H]c1c([H])c([H])c2c(c1[H])C([H])([H])C([H])([H])C([H])([H])C2([H])N([H])C(=O)C1([H])N(C(=O)C([H])(N([H])C(=O)C([H])(N([H])C([H])([H])[H])C([H])([H])[H])C(C([H])([H])[H])(C([H])([H])[H])C([H])([H])[H])C([H])([H])c2c([H])c(OC([H])([H])C([H])([H])C([H])([H])N([H])C(=O)C([H])([H])OC([H])([H])C([H])([H])OC([H])([H])C([H])([H])OC([H])([H])C([H])([H])OC([H])([H])C([H])([H])OC([H])([H])C([H])([H])OC([H])([H])C([H])([H])N([H])C(=O)N3C([H])([H])C([H])([H])C([H])([H])C([H])(n4nc(-c5c([H])c([H])c(Oc6c([H])c([H])c(F)c([H])c6F)c([H])c5[H])c(C(=O)N([H])[H])c4N([H])[H])C3([H])[H])c([H])c([H])c2C1([H])[H]

>  <smiles>  (15) 
[H]c1c([H])c([H])c2c(c1[H])C([H])([H])C([H])([H])C([H])([H])C2([H])N([H])C(=O)C1([H])N(C(=O)C([H])(N([H])C(=O)C([H])(N([H])C([H])([H])[H])C([H])([H])[H])C(C([H])([H])[H])(C([H])([H])[H])C([H])([H])[H])C([H])([H])c2c([H])c(OC([H])([H])C([H])([H])C([H])([H])N([H])C(=O)C([H])([H])OC([H])([H])C([H])([H])OC([H])([H])C([H])([H])OC([H])([H])C([H])([H])OC([H])([H])C([H])([H])OC([H])([H])C([H])([H])OC([H])([H])C([H])([H])N([H])C(=O)N3C([H])([H])C([H])([H])C([H])([H])C([H])(n4nc(-c5c([H])c([H])c(Oc6c([H])c([H])c(F)c([H])c6F)c([H])c5[H])c(C(=O)N([H])[H])c4N([H])[H])C3([H])[H])c([H])c([H])c2C1([H])[H]

$$$$
16:0:0
     RDKit          3D

 99106  0  0  1  0  0  0  0  0999 V2000
  -28.9430  -22.6400   24.7390 O   0  0  0  0  0  0  0  0  0  0  0  0
  -30.2130  -22.3830   24.1490 C   0  0  0  0  0  2  0  0  0  0  0  0
  -30.0480  -21.3780   23.0030 C   0  0  0  0  0  2  0  0  0  0  0  0
  -29.6180  -22.0040   21.7980 O   0  0  0  0  0  0  0  0  0  0  0  0
  -29.4360  -21.0750   20.7290 C   0  0  0  0  0  2  0  0  0  0  0  0
  -30.5930  -21.1460   19.7210 C   0  0  0  0  0  2  0  0  0  0  0  0
  -31.7720  -20.5270   20.2290 O   0  0  0  0  0  0  0  0  0  0  0  0
  -32.2070  -19.3530   19.5440 C   0  0  0  0  0  2  0  0  0  0  0  0
  -32.0750  -18.0760   20.3920 C   0  0  0  0  0  2  0  0  0  0  0  0
  -30.8490  -17.4000   20.1210 O   0  0  0  0  0  0  0  0  0  0  0  0
  -30.3920  -16.5910   21.2000 C   0  0  0  0  0  2  0  0  0  0  0  0
  -31.3670  -15.4680   21.6190 C   0  0  0  0  0  2  0  0  0  0  0  0
  -31.3760  -13.0510   21.0230 C   0  0  0  0  0  0  0  0  0  0  0  0
  -30.9250  -10.9150   19.8880 C   0  0  0  0  0  2  0  0  0  0  0  0
  -30.1680  -11.1990   18.5750 C   0  0  0  0  0  2  0  0  0  0  0  0
  -28.6500  -11.2650   18.8200 C   0  0  0  0  0  2  0  0  0  0  0  0
  -28.2750  -12.1900   20.0070 C   0  0  0  0  0  3  0  0  0  0  0  0
  -29.1510  -11.8880   21.2420 C   0  0  0  0  0  2  0  0  0  0  0  0
  -30.5660  -11.9780   20.8360 N   0  0  0  0  0  0  0  0  0  0  0  0
  -32.5680  -13.0770   20.7160 O   0  0  0  0  0  0  0  0  0  0  0  0
  -30.7500  -14.1570   21.4280 N   0  0  0  0  0  0  0  0  0  0  0  0
  -29.7560  -14.0830   21.5620 H   0  0  0  0  0  0  0  0  0  0  0  0
  -25.8960  -13.1150   20.3390 C   0  0  0  0  0  0  0  0  0  0  0  0
  -24.7030  -12.4990   20.6060 C   0  0  0  0  0  0  0  0  0  0  0  0
  -24.9980  -11.1050   20.7280 C   0  0  0  0  0  0  0  0  0  0  0  0
  -26.8490  -12.1080   20.3180 N   0  0  0  0  0  0  0  0  0  0  0  0
  -26.3030  -10.8990   20.6090 N   0  0  0  0  0  0  0  0  0  0  0  0
  -24.1070   -9.9500   20.8980 C   0  0  0  0  0  0  0  0  0  0  0  0
  -24.3210   -9.0040   21.9250 C   0  0  0  0  0  3  0  0  0  0  0  0
  -23.4450   -7.9090   22.0810 C   0  0  0  0  0  3  0  0  0  0  0  0
  -22.3420   -7.7530   21.2080 C   0  0  0  0  0  0  0  0  0  0  0  0
  -22.1480   -8.6840   20.1730 C   0  0  0  0  0  3  0  0  0  0  0  0
  -23.0220   -9.7730   20.0170 C   0  0  0  0  0  3  0  0  0  0  0  0
  -21.4530   -6.7070   21.2690 O   0  0  0  0  0  0  0  0  0  0  0  0
  -21.1370   -6.0970   22.4570 C   0  0  0  0  0  0  0  0  0  0  0  0
  -20.6050   -6.8180   23.5480 C   0  0  0  0  0  3  0  0  0  0  0  0
  -20.2300   -6.1390   24.7250 C   0  0  0  0  0  3  0  0  0  0  0  0
  -20.3750   -4.7410   24.8100 C   0  0  0  0  0  0  0  0  0  0  0  0
  -20.8980   -4.0200   23.7200 C   0  0  0  0  0  3  0  0  0  0  0  0
  -21.2730   -4.6970   22.5460 C   0  0  0  0  0  0  0  0  0  0  0  0
  -21.7560   -3.9950   21.4930 F   0  0  0  0  0  0  0  0  0  0  0  0
  -20.0090   -4.0860   25.9340 F   0  0  0  0  0  0  0  0  0  0  0  0
  -23.3470  -13.1440   20.6490 C   0  0  0  0  0  0  0  0  0  0  0  0
  -22.4540  -12.6310   21.4870 N   0  0  0  0  0  0  0  0  0  0  0  0
  -23.0870  -14.1370   19.9710 O   0  0  0  0  0  0  0  0  0  0  0  0
  -22.6810  -11.8280   22.0580 H   0  0  0  0  0  0  0  0  0  0  0  0
  -21.5320  -13.0370   21.5560 H   0  0  0  0  0  0  0  0  0  0  0  0
  -26.2560  -14.4380   20.0940 N   0  0  0  0  0  0  0  0  0  0  0  0
  -25.5830  -15.1940   20.0430 H   0  0  0  0  0  0  0  0  0  0  0  0
  -27.1920  -14.7260   19.8350 H   0  0  0  0  0  0  0  0  0  0  0  0
  -28.9670  -23.6100   25.7830 C   0  0  0  0  0  2  0  0  0  0  0  0
  -29.3550  -25.0040   25.2680 C   0  0  0  0  0  2  0  0  0  0  0  0
  -28.1600  -25.7660   25.1990 O   0  0  0  0  0  0  0  0  0  0  0  0
  -28.0690  -26.6390   24.0830 C   0  0  0  0  0  2  0  0  0  0  0  0
  -27.2370  -26.0210   22.9440 C   0  0  0  0  0  2  0  0  0  0  0  0
  -28.0650  -25.6310   21.8440 O   0  0  0  0  0  0  0  0  0  0  0  0
  -27.3580  -25.7180   20.6090 C   0  0  0  0  0  2  0  0  0  0  0  0
  -28.2790  -25.7320   19.3560 C   0  0  0  0  0  2  0  0  0  0  0  0
  -27.6700  -26.2880   18.1730 O   0  0  0  0  0  0  0  0  0  0  0  0
  -24.8390  -30.8730   22.7850 C   0  0  0  0  0  0  0  0  0  0  0  0
  -26.6450  -27.1620   18.4330 C   0  0  0  0  0  0  0  0  0  0  0  0
  -23.3110  -29.9900   21.0520 C   0  0  0  0  0  3  0  0  0  0  0  0
  -24.4230  -28.7510   19.1170 C   0  0  0  0  0  0  0  0  0  0  0  0
  -25.8130  -30.2230   20.5880 C   0  0  0  0  0  2  0  0  0  0  0  0
  -25.6870  -29.0460   19.6460 C   0  0  0  0  0  0  0  0  0  0  0  0
  -26.8050  -28.2530   19.3110 C   0  0  0  0  0  3  0  0  0  0  0  0
  -25.3750  -26.8820   17.8880 C   0  0  0  0  0  3  0  0  0  0  0  0
  -24.2580  -27.6640   18.2390 C   0  0  0  0  0  3  0  0  0  0  0  0
  -23.2770  -29.6430   19.5400 C   0  0  0  0  0  2  0  0  0  0  0  0
  -24.6810  -30.3600   21.5330 N   0  0  0  0  0  0  0  0  0  0  0  0
  -23.8650  -31.0760   23.5220 O   0  0  0  0  0  0  0  0  0  0  0  0
  -22.6840  -28.8150   21.8390 C   0  0  0  0  0  0  0  0  0  0  0  0
  -21.3520  -28.6800   21.7510 N   0  0  0  0  0  0  0  0  0  0  0  0
  -23.3910  -28.0350   22.4820 O   0  0  0  0  0  0  0  0  0  0  0  0
  -20.8440  -29.3560   21.1980 H   0  0  0  0  0  0  0  0  0  0  0  0
  -18.0020  -27.3660   22.0450 C   0  0  0  0  0  0  0  0  0  0  0  0
  -20.5520  -27.6280   22.3750 C   0  0  0  0  0  3  0  0  0  0  0  0
  -20.6890  -26.2960   21.6010 C   0  0  0  0  0  2  0  0  0  0  0  0
  -19.5990  -26.1010   20.5420 C   0  0  0  0  0  2  0  0  0  0  0  0
  -18.2090  -26.1290   21.1870 C   0  0  0  0  0  2  0  0  0  0  0  0
  -19.1010  -28.0780   22.5890 C   0  0  0  0  0  0  0  0  0  0  0  0
  -18.8550  -29.2430   23.3490 C   0  0  0  0  0  3  0  0  0  0  0  0
  -17.5390  -29.6930   23.5710 C   0  0  0  0  0  3  0  0  0  0  0  0
  -16.4550  -28.9720   23.0450 C   0  0  0  0  0  3  0  0  0  0  0  0
  -16.6840  -27.8110   22.2860 C   0  0  0  0  0  3  0  0  0  0  0  0
  -26.2470  -31.2500   23.3430 C   0  0  0  0  0  3  0  0  0  0  0  0
  -26.1540  -32.6090   23.8900 N   0  0  0  0  0  0  0  0  0  0  0  0
  -26.6170  -33.7090   23.2830 C   0  0  0  0  0  0  0  0  0  0  0  0
  -27.2380  -33.6730   22.2170 O   0  0  0  0  0  0  0  0  0  0  0  0
  -25.6090  -32.7190   24.7320 H   0  0  0  0  0  0  0  0  0  0  0  0
  -25.1850  -35.7770   23.2610 C   0  0  0  0  0  1  0  0  0  0  0  0
  -26.3510  -35.0650   23.9670 C   0  0  0  0  0  3  0  0  0  0  0  0
  -28.6010  -35.4670   24.8630 C   0  0  0  0  0  1  0  0  0  0  0  0
  -27.5330  -35.9530   23.9910 N   0  0  0  0  0  0  0  0  0  0  0  0
  -27.2770  -36.8880   24.2960 H   0  0  0  0  0  0  0  0  0  0  0  0
  -26.7710  -30.2400   24.4360 C   0  0  1  0  0  0  0  0  0  0  0  0
  -25.7480  -29.9520   25.5600 C   0  0  0  0  0  1  0  0  0  0  0  0
  -27.1510  -28.8870   23.7890 C   0  0  0  0  0  1  0  0  0  0  0  0
  -28.0530  -30.8000   25.0960 C   0  0  0  0  0  1  0  0  0  0  0  0
  1 51  1  0
  2  1  1  0
  3  2  1  0
  4  3  1  0
  5  4  1  0
  6  7  1  0
  6  5  1  0
  8  7  1  0
  8  9  1  0
 10  9  1  0
 10 11  1  0
 11 12  1  0
 13 21  1  0
 14 19  1  0
 15 16  1  0
 15 14  1  0
 17 16  1  0
 17 26  1  0
 17 18  1  0
 19 13  1  0
 19 18  1  0
 20 13  2  0
 21 22  1  0
 21 12  1  0
 23 24  2  0
 24 43  1  0
 24 25  1  0
 25 28  1  0
 26 23  1  0
 26 27  1  0
 27 25  2  0
 28 29  1  0
 29 30  2  0
 31 34  1  0
 31 30  1  0
 32 31  2  0
 33 32  1  0
 33 28  2  0
 34 35  1  0
 35 40  2  0
 35 36  1  0
 36 37  2  0
 37 38  1  0
 38 42  1  0
 39 38  2  0
 40 39  1  0
 41 40  1  0
 43 44  1  0
 44 47  1  0
 44 46  1  0
 45 43  2  0
 48 23  1  0
 49 48  1  0
 50 48  1  0
 52 51  1  0
 53 52  1  0
 54 53  1  0
 55 54  1  0
 56 55  1  0
 57 56  1  0
 58 57  1  0
 59 61  1  0
 59 58  1  0
 60 71  2  0
 61 66  1  0
 62 70  1  0
 62 72  1  0
 63 69  1  0
 63 65  1  0
 64 70  1  0
 65 64  1  0
 66 65  2  0
 67 68  1  0
 67 61  2  0
 68 63  2  0
 69 62  1  0
 70 60  1  0
 72 74  2  0
 73 72  1  0
 75 73  1  0
 76 85  2  0
 76 81  1  0
 77 73  1  0
 77 81  1  0
 78 77  1  0
 79 80  1  0
 79 78  1  0
 80 76  1  0
 81 82  2  0
 82 83  1  0
 84 83  2  0
 85 84  1  0
 86 60  1  0
 86 87  1  0
 86 96  1  0
 87 90  1  0
 88 87  1  0
 88 92  1  0
 89 88  2  0
 92 91  1  0
 92 94  1  0
 94 95  1  0
 94 93  1  0
 96 99  1  1
 96 97  1  0
 98 96  1  0
M  ISO  4  13 100  21 100  58 101  59 101
M  END
>  <TORSDO>  (16) 
F 35

>  <SCORE>  (16) 
-3.476

>  <name>  (16) 
16

>  <ligand_id>  (16) 
16

>  <original_smiles>  (16) 
[H]c1c([H])c([H])c2c(c1[H])C([H])([H])C([H])([H])C([H])([H])C2([H])N([H])C(=O)C1([H])N(C(=O)C([H])(N([H])C(=O)C([H])(N([H])C([H])([H])[H])C([H])([H])[H])C(C([H])([H])[H])(C([H])([H])[H])C([H])([H])[H])C([H])([H])c2c([H])c(OC([H])([H])C([H])([H])OC([H])([H])C([H])([H])OC([H])([H])C([H])([H])OC([H])([H])C([H])([H])OC([H])([H])C([H])([H])OC([H])([H])C([H])([H])OC([H])([H])C([H])([H])N([H])C(=O)N3C([H])([H])C([H])([H])C([H])([H])C([H])(n4nc(-c5c([H])c([H])c(Oc6c([H])c([H])c(F)c([H])c6F)c([H])c5[H])c(C(=O)N([H])[H])c4N([H])[H])C3([H])[H])c([H])c([H])c2C1([H])[H]

>  <smiles>  (16) 
[H]c1c([H])c([H])c2c(c1[H])C([H])([H])C([H])([H])C([H])([H])C2([H])N([H])C(=O)C1([H])N(C(=O)C([H])(N([H])C(=O)C([H])(N([H])C([H])([H])[H])C([H])([H])[H])C(C([H])([H])[H])(C([H])([H])[H])C([H])([H])[H])C([H])([H])c2c([H])c(OC([H])([H])C([H])([H])OC([H])([H])C([H])([H])OC([H])([H])C([H])([H])OC([H])([H])C([H])([H])OC([H])([H])C([H])([H])OC([H])([H])C([H])([H])OC([H])([H])C([H])([H])N([H])C(=O)N3C([H])([H])C([H])([H])C([H])([H])C([H])(n4nc(-c5c([H])c([H])c(Oc6c([H])c([H])c(F)c([H])c6F)c([H])c5[H])c(C(=O)N([H])[H])c4N([H])[H])C3([H])[H])c([H])c([H])c2C1([H])[H]

$$$$
17:0:0
     RDKit          3D

 99106  0  0  1  0  0  0  0  0999 V2000
  -28.9430  -22.6400   24.7390 O   0  0  0  0  0  0  0  0  0  0  0  0
  -30.2130  -22.3830   24.1490 C   0  0  0  0  0  2  0  0  0  0  0  0
  -30.0480  -21.3780   23.0030 C   0  0  0  0  0  2  0  0  0  0  0  0
  -29.6180  -22.0040   21.7980 O   0  0  0  0  0  0  0  0  0  0  0  0
  -29.4360  -21.0750   20.7290 C   0  0  0  0  0  2  0  0  0  0  0  0
  -30.5930  -21.1460   19.7210 C   0  0  0  0  0  2  0  0  0  0  0  0
  -31.7720  -20.5270   20.2290 O   0  0  0  0  0  0  0  0  0  0  0  0
  -32.2070  -19.3530   19.5440 C   0  0  0  0  0  2  0  0  0  0  0  0
  -32.0750  -18.0760   20.3920 C   0  0  0  0  0  2  0  0  0  0  0  0
  -30.8490  -17.4000   20.1210 O   0  0  0  0  0  0  0  0  0  0  0  0
  -30.3920  -16.5910   21.2000 C   0  0  0  0  0  2  0  0  0  0  0  0
  -31.3670  -15.4680   21.6190 C   0  0  0  0  0  2  0  0  0  0  0  0
  -31.3760  -13.0510   21.0230 C   0  0  0  0  0  0  0  0  0  0  0  0
  -30.9250  -10.9150   19.8880 C   0  0  0  0  0  2  0  0  0  0  0  0
  -30.1680  -11.1990   18.5750 C   0  0  0  0  0  2  0  0  0  0  0  0
  -28.6500  -11.2650   18.8200 C   0  0  0  0  0  2  0  0  0  0  0  0
  -28.2750  -12.1900   20.0070 C   0  0  0  0  0  3  0  0  0  0  0  0
  -29.1510  -11.8880   21.2420 C   0  0  0  0  0  2  0  0  0  0  0  0
  -30.5660  -11.9780   20.8360 N   0  0  0  0  0  0  0  0  0  0  0  0
  -32.5680  -13.0770   20.7160 O   0  0  0  0  0  0  0  0  0  0  0  0
  -30.7500  -14.1570   21.4280 N   0  0  0  0  0  0  0  0  0  0  0  0
  -29.7560  -14.0830   21.5620 H   0  0  0  0  0  0  0  0  0  0  0  0
  -25.8960  -13.1150   20.3390 C   0  0  0  0  0  0  0  0  0  0  0  0
  -24.7030  -12.4990   20.6060 C   0  0  0  0  0  0  0  0  0  0  0  0
  -24.9980  -11.1050   20.7280 C   0  0  0  0  0  0  0  0  0  0  0  0
  -26.8490  -12.1080   20.3180 N   0  0  0  0  0  0  0  0  0  0  0  0
  -26.3030  -10.8990   20.6090 N   0  0  0  0  0  0  0  0  0  0  0  0
  -24.1070   -9.9500   20.8980 C   0  0  0  0  0  0  0  0  0  0  0  0
  -24.3210   -9.0040   21.9250 C   0  0  0  0  0  3  0  0  0  0  0  0
  -23.4450   -7.9090   22.0810 C   0  0  0  0  0  3  0  0  0  0  0  0
  -22.3420   -7.7530   21.2080 C   0  0  0  0  0  0  0  0  0  0  0  0
  -22.1480   -8.6840   20.1730 C   0  0  0  0  0  3  0  0  0  0  0  0
  -23.0220   -9.7730   20.0170 C   0  0  0  0  0  3  0  0  0  0  0  0
  -21.4530   -6.7070   21.2690 O   0  0  0  0  0  0  0  0  0  0  0  0
  -21.1370   -6.0970   22.4570 C   0  0  0  0  0  0  0  0  0  0  0  0
  -20.6050   -6.8180   23.5480 C   0  0  0  0  0  3  0  0  0  0  0  0
  -20.2300   -6.1390   24.7250 C   0  0  0  0  0  3  0  0  0  0  0  0
  -20.3750   -4.7410   24.8100 C   0  0  0  0  0  0  0  0  0  0  0  0
  -20.8980   -4.0200   23.7200 C   0  0  0  0  0  3  0  0  0  0  0  0
  -21.2730   -4.6970   22.5460 C   0  0  0  0  0  0  0  0  0  0  0  0
  -21.7560   -3.9950   21.4930 F   0  0  0  0  0  0  0  0  0  0  0  0
  -20.0090   -4.0860   25.9340 F   0  0  0  0  0  0  0  0  0  0  0  0
  -23.3470  -13.1440   20.6490 C   0  0  0  0  0  0  0  0  0  0  0  0
  -22.4540  -12.6310   21.4870 N   0  0  0  0  0  0  0  0  0  0  0  0
  -23.0870  -14.1370   19.9710 O   0  0  0  0  0  0  0  0  0  0  0  0
  -22.6810  -11.8280   22.0580 H   0  0  0  0  0  0  0  0  0  0  0  0
  -21.5320  -13.0370   21.5560 H   0  0  0  0  0  0  0  0  0  0  0  0
  -26.2560  -14.4380   20.0940 N   0  0  0  0  0  0  0  0  0  0  0  0
  -25.5830  -15.1940   20.0430 H   0  0  0  0  0  0  0  0  0  0  0  0
  -27.1920  -14.7260   19.8350 H   0  0  0  0  0  0  0  0  0  0  0  0
  -28.9670  -23.6100   25.7830 C   0  0  0  0  0  2  0  0  0  0  0  0
  -29.3550  -25.0040   25.2680 C   0  0  0  0  0  2  0  0  0  0  0  0
  -28.1600  -25.7660   25.1990 O   0  0  0  0  0  0  0  0  0  0  0  0
  -28.0690  -26.6390   24.0830 C   0  0  0  0  0  2  0  0  0  0  0  0
  -27.2370  -26.0210   22.9440 C   0  0  0  0  0  2  0  0  0  0  0  0
  -28.0650  -25.6310   21.8440 O   0  0  0  0  0  0  0  0  0  0  0  0
  -27.3580  -25.7180   20.6090 C   0  0  0  0  0  2  0  0  0  0  0  0
  -28.2790  -25.7320   19.3560 C   0  0  0  0  0  2  0  0  0  0  0  0
  -27.6700  -26.2880   18.1730 O   0  0  0  0  0  0  0  0  0  0  0  0
  -24.8390  -30.8730   22.7850 C   0  0  0  0  0  0  0  0  0  0  0  0
  -26.6450  -27.1620   18.4330 C   0  0  0  0  0  0  0  0  0  0  0  0
  -23.3110  -29.9900   21.0520 C   0  0  0  0  0  3  0  0  0  0  0  0
  -24.4230  -28.7510   19.1170 C   0  0  0  0  0  0  0  0  0  0  0  0
  -25.8130  -30.2230   20.5880 C   0  0  0  0  0  2  0  0  0  0  0  0
  -25.6870  -29.0460   19.6460 C   0  0  0  0  0  0  0  0  0  0  0  0
  -26.8050  -28.2530   19.3110 C   0  0  0  0  0  3  0  0  0  0  0  0
  -25.3750  -26.8820   17.8880 C   0  0  0  0  0  3  0  0  0  0  0  0
  -24.2580  -27.6640   18.2390 C   0  0  0  0  0  3  0  0  0  0  0  0
  -23.2770  -29.6430   19.5400 C   0  0  0  0  0  2  0  0  0  0  0  0
  -24.6810  -30.3600   21.5330 N   0  0  0  0  0  0  0  0  0  0  0  0
  -23.8650  -31.0760   23.5220 O   0  0  0  0  0  0  0  0  0  0  0  0
  -22.6840  -28.8150   21.8390 C   0  0  0  0  0  0  0  0  0  0  0  0
  -21.3520  -28.6800   21.7510 N   0  0  0  0  0  0  0  0  0  0  0  0
  -23.3910  -28.0350   22.4820 O   0  0  0  0  0  0  0  0  0  0  0  0
  -20.8440  -29.3560   21.1980 H   0  0  0  0  0  0  0  0  0  0  0  0
  -18.0020  -27.3660   22.0450 C   0  0  0  0  0  0  0  0  0  0  0  0
  -20.5520  -27.6280   22.3750 C   0  0  0  0  0  3  0  0  0  0  0  0
  -20.6890  -26.2960   21.6010 C   0  0  0  0  0  2  0  0  0  0  0  0
  -19.5990  -26.1010   20.5420 C   0  0  0  0  0  2  0  0  0  0  0  0
  -18.2090  -26.1290   21.1870 C   0  0  0  0  0  2  0  0  0  0  0  0
  -19.1010  -28.0780   22.5890 C   0  0  0  0  0  0  0  0  0  0  0  0
  -18.8550  -29.2430   23.3490 C   0  0  0  0  0  3  0  0  0  0  0  0
  -17.5390  -29.6930   23.5710 C   0  0  0  0  0  3  0  0  0  0  0  0
  -16.4550  -28.9720   23.0450 C   0  0  0  0  0  3  0  0  0  0  0  0
  -16.6840  -27.8110   22.2860 C   0  0  0  0  0  3  0  0  0  0  0  0
  -26.2470  -31.2500   23.3430 C   0  0  0  0  0  3  0  0  0  0  0  0
  -26.1540  -32.6090   23.8900 N   0  0  0  0  0  0  0  0  0  0  0  0
  -26.6170  -33.7090   23.2830 C   0  0  0  0  0  0  0  0  0  0  0  0
  -27.2380  -33.6730   22.2170 O   0  0  0  0  0  0  0  0  0  0  0  0
  -25.6090  -32.7190   24.7320 H   0  0  0  0  0  0  0  0  0  0  0  0
  -25.1850  -35.7770   23.2610 C   0  0  0  0  0  1  0  0  0  0  0  0
  -26.3510  -35.0650   23.9670 C   0  0  0  0  0  3  0  0  0  0  0  0
  -28.6010  -35.4670   24.8630 C   0  0  0  0  0  1  0  0  0  0  0  0
  -27.5330  -35.9530   23.9910 N   0  0  0  0  0  0  0  0  0  0  0  0
  -27.2770  -36.8880   24.2960 H   0  0  0  0  0  0  0  0  0  0  0  0
  -26.7710  -30.2400   24.4360 C   0  0  1  0  0  0  0  0  0  0  0  0
  -25.7480  -29.9520   25.5600 C   0  0  0  0  0  1  0  0  0  0  0  0
  -27.1510  -28.8870   23.7890 C   0  0  0  0  0  1  0  0  0  0  0  0
  -28.0530  -30.8000   25.0960 C   0  0  0  0  0  1  0  0  0  0  0  0
  1 51  1  0
  2  1  1  0
  3  2  1  0
  4  3  1  0
  5  4  1  0
  6  7  1  0
  6  5  1  0
  8  7  1  0
  8  9  1  0
 10  9  1  0
 10 11  1  0
 11 12  1  0
 13 21  1  0
 14 19  1  0
 15 16  1  0
 15 14  1  0
 17 16  1  0
 17 26  1  0
 17 18  1  0
 19 13  1  0
 19 18  1  0
 20 13  2  0
 21 22  1  0
 21 12  1  0
 23 24  2  0
 24 43  1  0
 24 25  1  0
 25 28  1  0
 26 23  1  0
 26 27  1  0
 27 25  2  0
 28 29  1  0
 29 30  2  0
 31 34  1  0
 31 30  1  0
 32 31  2  0
 33 32  1  0
 33 28  2  0
 34 35  1  0
 35 40  2  0
 35 36  1  0
 36 37  2  0
 37 38  1  0
 38 42  1  0
 39 38  2  0
 40 39  1  0
 41 40  1  0
 43 44  1  0
 44 47  1  0
 44 46  1  0
 45 43  2  0
 48 23  1  0
 49 48  1  0
 50 48  1  0
 52 51  1  0
 53 52  1  0
 54 53  1  0
 55 54  1  0
 56 55  1  0
 57 56  1  0
 58 57  1  0
 59 61  1  0
 59 58  1  0
 60 71  2  0
 61 66  1  0
 62 70  1  0
 62 72  1  0
 63 69  1  0
 63 65  1  0
 64 70  1  0
 65 64  1  0
 66 65  2  0
 67 68  1  0
 67 61  2  0
 68 63  2  0
 69 62  1  0
 70 60  1  0
 72 74  2  0
 73 72  1  0
 75 73  1  0
 76 85  2  0
 76 81  1  0
 77 73  1  0
 77 81  1  0
 78 77  1  0
 79 80  1  0
 79 78  1  0
 80 76  1  0
 81 82  2  0
 82 83  1  0
 84 83  2  0
 85 84  1  0
 86 60  1  0
 86 87  1  0
 86 96  1  0
 87 90  1  0
 88 87  1  0
 88 92  1  0
 89 88  2  0
 92 91  1  0
 92 94  1  0
 94 95  1  0
 94 93  1  0
 96 99  1  1
 96 97  1  0
 98 96  1  0
M  ISO  4  13 100  21 100  58 101  59 101
M  END
>  <TORSDO>  (17) 
F 35

>  <SCORE>  (17) 
-3.476

>  <name>  (17) 
17

>  <ligand_id>  (17) 
17

>  <original_smiles>  (17) 
[H]c1c([H])c([H])c2c(c1[H])C([H])([H])C([H])([H])C([H])([H])C2([H])N([H])C(=O)C1([H])N(C(=O)C([H])(N([H])C(=O)C([H])(N([H])C([H])([H])[H])C([H])([H])[H])C(C([H])([H])[H])(C([H])([H])[H])C([H])([H])[H])C([H])([H])c2c([H])c(OC([H])([H])C([H])([H])OC([H])([H])C([H])([H])OC([H])([H])C([H])([H])OC([H])([H])C([H])([H])OC([H])([H])C([H])([H])OC([H])([H])C([H])([H])OC([H])([H])C([H])([H])N([H])C(=O)N3C([H])([H])C([H])([H])C([H])([H])C([H])(n4nc(-c5c([H])c([H])c(Oc6c([H])c([H])c(F)c([H])c6F)c([H])c5[H])c(C(=O)N([H])[H])c4N([H])[H])C3([H])[H])c([H])c([H])c2C1([H])[H]

>  <smiles>  (17) 
[H]c1c([H])c([H])c2c(c1[H])C([H])([H])C([H])([H])C([H])([H])C2([H])N([H])C(=O)C1([H])N(C(=O)C([H])(N([H])C(=O)C([H])(N([H])C([H])([H])[H])C([H])([H])[H])C(C([H])([H])[H])(C([H])([H])[H])C([H])([H])[H])C([H])([H])c2c([H])c(OC([H])([H])C([H])([H])OC([H])([H])C([H])([H])OC([H])([H])C([H])([H])OC([H])([H])C([H])([H])OC([H])([H])C([H])([H])OC([H])([H])C([H])([H])OC([H])([H])C([H])([H])N([H])C(=O)N3C([H])([H])C([H])([H])C([H])([H])C([H])(n4nc(-c5c([H])c([H])c(Oc6c([H])c([H])c(F)c([H])c6F)c([H])c5[H])c(C(=O)N([H])[H])c4N([H])[H])C3([H])[H])c([H])c([H])c2C1([H])[H]

$$$$
18:0:0
     RDKit          3D

115122  0  0  1  0  0  0  0  0999 V2000
  -35.3640  -18.5010   18.6790 C   0  0  0  0  0  0  0  0  0  0  0  0
  -34.1960  -18.1680   19.2420 N   0  0  0  0  0  0  0  0  0  0  0  0
  -36.3560  -18.8100   19.3350 O   0  0  0  0  0  0  0  0  0  0  0  0
  -33.4230  -17.9820   18.6220 H   0  0  0  0  0  0  0  0  0  0  0  0
  -33.8910  -18.1160   20.6640 C   0  0  0  0  0  2  0  0  0  0  0  0
  -32.5210  -18.7580   20.9210 C   0  0  0  0  0  2  0  0  0  0  0  0
  -31.5590  -18.2110   20.0270 O   0  0  0  0  0  0  0  0  0  0  0  0
  -30.2320  -18.5340   20.4190 C   0  0  0  0  0  2  0  0  0  0  0  0
  -29.2750  -18.3860   19.2290 C   0  0  0  0  0  2  0  0  0  0  0  0
  -29.5880  -19.3860   18.2680 O   0  0  0  0  0  0  0  0  0  0  0  0
  -28.5790  -19.5810   17.2840 C   0  0  0  0  0  2  0  0  0  0  0  0
  -29.1290  -20.5200   16.2000 C   0  0  0  0  0  2  0  0  0  0  0  0
  -29.4250  -21.7760   16.7950 O   0  0  0  0  0  0  0  0  0  0  0  0
  -29.8200  -22.7740   15.8570 C   0  0  0  0  0  2  0  0  0  0  0  0
  -30.3240  -23.9900   16.6420 C   0  0  0  0  0  2  0  0  0  0  0  0
  -29.2850  -24.4150   17.5080 O   0  0  0  0  0  0  0  0  0  0  0  0
  -29.6030  -25.5830   18.2530 C   0  0  0  0  0  2  0  0  0  0  0  0
  -28.4750  -25.8240   19.2690 C   0  0  0  0  0  2  0  0  0  0  0  0
  -28.4240  -27.2040   19.6260 O   0  0  0  0  0  0  0  0  0  0  0  0
  -24.5200  -31.8550   23.3010 C   0  0  0  0  0  0  0  0  0  0  0  0
  -27.2020  -27.8320   19.7270 C   0  0  0  0  0  0  0  0  0  0  0  0
  -23.3110  -30.6180   21.5300 C   0  0  0  0  0  3  0  0  0  0  0  0
  -24.7680  -29.2630   19.9370 C   0  0  0  0  0  0  0  0  0  0  0  0
  -25.8250  -31.0420   21.3400 C   0  0  0  0  0  2  0  0  0  0  0  0
  -25.9230  -29.7470   20.5630 C   0  0  0  0  0  0  0  0  0  0  0  0
  -27.1390  -29.0390   20.4550 C   0  0  0  0  0  3  0  0  0  0  0  0
  -26.0260  -27.3590   19.0930 C   0  0  0  0  0  3  0  0  0  0  0  0
  -24.8110  -28.0640   19.2040 C   0  0  0  0  0  3  0  0  0  0  0  0
  -23.5080  -30.0850   20.0860 C   0  0  0  0  0  2  0  0  0  0  0  0
  -24.5720  -31.1790   22.1160 N   0  0  0  0  0  0  0  0  0  0  0  0
  -23.4450  -32.0490   23.8810 O   0  0  0  0  0  0  0  0  0  0  0  0
  -22.6910  -29.4920   22.3840 C   0  0  0  0  0  0  0  0  0  0  0  0
  -21.3650  -29.3170   22.2700 N   0  0  0  0  0  0  0  0  0  0  0  0
  -23.3990  -28.7790   23.1030 O   0  0  0  0  0  0  0  0  0  0  0  0
  -20.8570  -29.9450   21.6640 H   0  0  0  0  0  0  0  0  0  0  0  0
  -18.0050  -28.0620   22.7050 C   0  0  0  0  0  0  0  0  0  0  0  0
  -20.5690  -28.2940   22.9470 C   0  0  0  0  0  3  0  0  0  0  0  0
  -20.6590  -26.9380   22.2110 C   0  0  0  0  0  2  0  0  0  0  0  0
  -19.5380  -26.7300   21.1890 C   0  0  0  0  0  2  0  0  0  0  0  0
  -18.1690  -26.8020   21.8720 C   0  0  0  0  0  2  0  0  0  0  0  0
  -19.1350  -28.7730   23.1950 C   0  0  0  0  0  0  0  0  0  0  0  0
  -18.9290  -29.9610   23.9280 C   0  0  0  0  0  3  0  0  0  0  0  0
  -17.6290  -30.4380   24.1780 C   0  0  0  0  0  3  0  0  0  0  0  0
  -16.5150  -29.7200   23.7080 C   0  0  0  0  0  3  0  0  0  0  0  0
  -16.7050  -28.5340   22.9780 C   0  0  0  0  0  3  0  0  0  0  0  0
  -25.8090  -32.4350   23.9650 C   0  0  0  0  0  3  0  0  0  0  0  0
  -25.5230  -33.8260   24.3410 N   0  0  0  0  0  0  0  0  0  0  0  0
  -25.8910  -34.8990   23.6250 C   0  0  0  0  0  0  0  0  0  0  0  0
  -26.5830  -34.8170   22.6050 O   0  0  0  0  0  0  0  0  0  0  0  0
  -24.9220  -33.9640   25.1390 H   0  0  0  0  0  0  0  0  0  0  0  0
  -24.1970  -36.7270   23.2950 C   0  0  0  0  0  1  0  0  0  0  0  0
  -25.4160  -36.2780   24.1170 C   0  0  0  0  0  3  0  0  0  0  0  0
  -27.5550  -37.0920   25.0100 C   0  0  0  0  0  1  0  0  0  0  0  0
  -26.4670  -37.3180   24.0620 N   0  0  0  0  0  0  0  0  0  0  0  0
  -26.0700  -38.2350   24.2500 H   0  0  0  0  0  0  0  0  0  0  0  0
  -26.2880  -31.6070   25.2190 C   0  0  1  0  0  0  0  0  0  0  0  0
  -25.1750  -31.3600   26.2630 C   0  0  0  0  0  1  0  0  0  0  0  0
  -26.8370  -30.2290   24.7820 C   0  0  0  0  0  1  0  0  0  0  0  0
  -27.4470  -32.3460   25.9250 C   0  0  0  0  0  1  0  0  0  0  0  0
  -35.4260  -18.4570   17.1460 C   0  0  0  0  0  2  0  0  0  0  0  0
  -35.7460  -16.0540   16.6030 C   0  0  0  0  0  0  0  0  0  0  0  0
  -35.0110  -17.1700   16.5860 N   0  0  0  0  0  0  0  0  0  0  0  0
  -36.8620  -16.0100   17.1230 O   0  0  0  0  0  0  0  0  0  0  0  0
  -34.1010  -17.1350   16.1460 H   0  0  0  0  0  0  0  0  0  0  0  0
  -35.1490  -14.8260   15.9110 C   0  0  0  0  0  2  0  0  0  0  0  0
  -36.1840  -13.9320   15.5030 O   0  0  0  0  0  0  0  0  0  0  0  0
  -35.7820  -13.0870   14.4350 C   0  0  0  0  0  2  0  0  0  0  0  0
  -36.6880  -11.8560   14.3880 C   0  0  0  0  0  2  0  0  0  0  0  0
  -36.2560  -10.9380   15.3840 O   0  0  0  0  0  0  0  0  0  0  0  0
  -37.2580  -10.5740   16.3240 C   0  0  0  0  0  2  0  0  0  0  0  0
  -36.6740   -9.4860   17.2450 C   0  0  0  0  0  2  0  0  0  0  0  0
  -36.1370  -10.0450   18.4400 O   0  0  0  0  0  0  0  0  0  0  0  0
  -35.3600   -9.1080   19.1820 C   0  0  0  0  0  2  0  0  0  0  0  0
  -35.3600   -9.4830   20.6760 C   0  0  0  0  0  2  0  0  0  0  0  0
  -34.6550  -10.7110   20.8790 O   0  0  0  0  0  0  0  0  0  0  0  0
  -34.5880  -11.1030   22.2510 C   0  0  0  0  0  2  0  0  0  0  0  0
  -33.9810  -12.5140   22.4350 C   0  0  0  0  0  2  0  0  0  0  0  0
  -32.3240  -12.7950   20.6340 C   0  0  0  0  0  0  0  0  0  0  0  0
  -31.3870  -11.2090   19.0480 C   0  0  0  0  0  2  0  0  0  0  0  0
  -30.4730  -11.7860   17.9690 C   0  0  0  0  0  2  0  0  0  0  0  0
  -29.0230  -11.8780   18.4690 C   0  0  0  0  0  2  0  0  0  0  0  0
  -28.9170  -12.6170   19.8320 C   0  0  0  0  0  3  0  0  0  0  0  0
  -29.9360  -12.0690   20.8630 C   0  0  0  0  0  2  0  0  0  0  0  0
  -31.2780  -12.0370   20.2510 N   0  0  0  0  0  0  0  0  0  0  0  0
  -33.1530  -13.2850   19.8650 O   0  0  0  0  0  0  0  0  0  0  0  0
  -32.6110  -12.5760   21.9210 N   0  0  0  0  0  0  0  0  0  0  0  0
  -31.9130  -12.0660   22.4420 H   0  0  0  0  0  0  0  0  0  0  0  0
  -26.7040  -13.6650   20.6460 C   0  0  0  0  0  0  0  0  0  0  0  0
  -25.5000  -13.1120   20.9810 C   0  0  0  0  0  0  0  0  0  0  0  0
  -25.6600  -11.7020   20.8360 C   0  0  0  0  0  0  0  0  0  0  0  0
  -27.5430  -12.6030   20.3320 N   0  0  0  0  0  0  0  0  0  0  0  0
  -26.9110  -11.4130   20.4940 N   0  0  0  0  0  0  0  0  0  0  0  0
  -24.6810  -10.6090   20.9610 C   0  0  0  0  0  0  0  0  0  0  0  0
  -24.9310   -9.4870   21.7810 C   0  0  0  0  0  3  0  0  0  0  0  0
  -23.9720   -8.4570   21.8990 C   0  0  0  0  0  3  0  0  0  0  0  0
  -22.7480   -8.5480   21.1940 C   0  0  0  0  0  0  0  0  0  0  0  0
  -22.5130   -9.6540   20.3590 C   0  0  0  0  0  3  0  0  0  0  0  0
  -23.4710  -10.6760   20.2400 C   0  0  0  0  0  3  0  0  0  0  0  0
  -21.7690   -7.5870   21.2200 O   0  0  0  0  0  0  0  0  0  0  0  0
  -21.5960   -6.7640   22.3030 C   0  0  0  0  0  0  0  0  0  0  0  0
  -21.3570   -7.2720   23.5990 C   0  0  0  0  0  3  0  0  0  0  0  0
  -21.1240   -6.3920   24.6730 C   0  0  0  0  0  3  0  0  0  0  0  0
  -21.1150   -5.0000   24.4530 C   0  0  0  0  0  0  0  0  0  0  0  0
  -21.3420   -4.4890   23.1620 C   0  0  0  0  0  3  0  0  0  0  0  0
  -21.5800   -5.3680   22.0930 C   0  0  0  0  0  0  0  0  0  0  0  0
  -21.7770   -4.8730   20.8490 F   0  0  0  0  0  0  0  0  0  0  0  0
  -20.8860   -4.1520   25.4810 F   0  0  0  0  0  0  0  0  0  0  0  0
  -24.2430  -13.8600   21.3340 C   0  0  0  0  0  0  0  0  0  0  0  0
  -23.4130  -13.2800   22.1950 N   0  0  0  0  0  0  0  0  0  0  0  0
  -24.0160  -14.9850   20.8870 O   0  0  0  0  0  0  0  0  0  0  0  0
  -23.6310  -12.3760   22.5830 H   0  0  0  0  0  0  0  0  0  0  0  0
  -22.5650  -13.7520   22.4750 H   0  0  0  0  0  0  0  0  0  0  0  0
  -27.1500  -14.9820   20.5730 N   0  0  0  0  0  0  0  0  0  0  0  0
  -26.5210  -15.7610   20.7440 H   0  0  0  0  0  0  0  0  0  0  0  0
  -28.0720  -15.2660   20.2700 H   0  0  0  0  0  0  0  0  0  0  0  0
  1  2  1  0
  1  3  2  0
  2  5  1  0
  4  2  1  0
  5  6  1  0
  7  8  1  0
  7  6  1  0
  9  8  1  0
 10  9  1  0
 11 10  1  0
 12 13  1  0
 12 11  1  0
 14 15  1  0
 14 13  1  0
 15 16  1  0
 16 17  1  0
 17 18  1  0
 18 19  1  0
 19 21  1  0
 20 31  2  0
 21 26  1  0
 22 30  1  0
 22 32  1  0
 23 29  1  0
 23 25  1  0
 24 30  1  0
 25 24  1  0
 26 25  2  0
 27 28  1  0
 27 21  2  0
 28 23  2  0
 29 22  1  0
 30 20  1  0
 32 34  2  0
 33 32  1  0
 35 33  1  0
 36 45  2  0
 36 41  1  0
 37 33  1  0
 37 41  1  0
 38 37  1  0
 39 40  1  0
 39 38  1  0
 40 36  1  0
 41 42  2  0
 42 43  1  0
 44 43  2  0
 45 44  1  0
 46 20  1  0
 46 47  1  0
 46 56  1  0
 47 50  1  0
 48 52  1  0
 48 47  1  0
 49 48  2  0
 52 51  1  0
 54 52  1  0
 54 55  1  0
 54 53  1  0
 56 59  1  1
 56 57  1  0
 58 56  1  0
 60  1  1  0
 61 63  2  0
 62 61  1  0
 62 60  1  0
 64 62  1  0
 65 61  1  0
 66 65  1  0
 67 66  1  0
 68 67  1  0
 68 69  1  0
 69 70  1  0
 70 71  1  0
 71 72  1  0
 72 73  1  0
 73 74  1  0
 74 75  1  0
 75 76  1  0
 76 77  1  0
 78 86  1  0
 79 84  1  0
 80 81  1  0
 80 79  1  0
 82 81  1  0
 82 91  1  0
 82 83  1  0
 84 78  1  0
 84 83  1  0
 85 78  2  0
 86 77  1  0
 86 87  1  0
 88 89  2  0
 89108  1  0
 90 93  1  0
 90 89  1  0
 91 92  1  0
 91 88  1  0
 92 90  2  0
 93 94  1  0
 94 95  2  0
 96 99  1  0
 96 95  1  0
 97 96  2  0
 98 97  1  0
 98 93  2  0
 99100  1  0
100101  1  0
101102  2  0
103102  1  0
103107  1  0
104103  2  0
105100  2  0
105104  1  0
106105  1  0
108109  1  0
109112  1  0
109111  1  0
110108  2  0
113 88  1  0
113114  1  0
115113  1  0
M  ISO  4  18 101  19 101  78 100  86 100
M  END
>  <TORSDO>  (18) 
F 45

>  <SCORE>  (18) 
-7.379

>  <name>  (18) 
18

>  <ligand_id>  (18) 
18

>  <original_smiles>  (18) 
[H]c1c([H])c([H])c2c(c1[H])C([H])([H])C([H])([H])C([H])([H])C2([H])N([H])C(=O)C1([H])N(C(=O)C([H])(N([H])C(=O)C([H])(N([H])C([H])([H])[H])C([H])([H])[H])C(C([H])([H])[H])(C([H])([H])[H])C([H])([H])[H])C([H])([H])c2c([H])c(OC([H])([H])C([H])([H])OC([H])([H])C([H])([H])OC([H])([H])C([H])([H])OC([H])([H])C([H])([H])OC([H])([H])C([H])([H])N([H])C(=O)C([H])([H])N([H])C(=O)C([H])([H])OC([H])([H])C([H])([H])OC([H])([H])C([H])([H])OC([H])([H])C([H])([H])OC([H])([H])C([H])([H])N([H])C(=O)N3C([H])([H])C([H])([H])C([H])([H])C([H])(n4nc(-c5c([H])c([H])c(Oc6c([H])c([H])c(F)c([H])c6F)c([H])c5[H])c(C(=O)N([H])[H])c4N([H])[H])C3([H])[H])c([H])c([H])c2C1([H])[H]

>  <smiles>  (18) 
[H]c1c([H])c([H])c2c(c1[H])C([H])([H])C([H])([H])C([H])([H])C2([H])N([H])C(=O)C1([H])N(C(=O)C([H])(N([H])C(=O)C([H])(N([H])C([H])([H])[H])C([H])([H])[H])C(C([H])([H])[H])(C([H])([H])[H])C([H])([H])[H])C([H])([H])c2c([H])c(OC([H])([H])C([H])([H])OC([H])([H])C([H])([H])OC([H])([H])C([H])([H])OC([H])([H])C([H])([H])OC([H])([H])C([H])([H])N([H])C(=O)C([H])([H])N([H])C(=O)C([H])([H])OC([H])([H])C([H])([H])OC([H])([H])C([H])([H])OC([H])([H])C([H])([H])OC([H])([H])C([H])([H])N([H])C(=O)N3C([H])([H])C([H])([H])C([H])([H])C([H])(n4nc(-c5c([H])c([H])c(Oc6c([H])c([H])c(F)c([H])c6F)c([H])c5[H])c(C(=O)N([H])[H])c4N([H])[H])C3([H])[H])c([H])c([H])c2C1([H])[H]

$$$$
19:0:0
     RDKit          3D

116123  0  0  1  0  0  0  0  0999 V2000
  -29.4930  -20.1590   19.8690 C   0  0  0  0  0  2  0  0  0  0  0  0
  -28.1850  -20.5860   20.2180 O   0  0  0  0  0  0  0  0  0  0  0  0
  -27.1100  -19.6690   20.0010 C   0  0  0  0  0  2  0  0  0  0  0  0
  -26.0640  -19.9360   21.0990 C   0  0  0  0  0  0  0  0  0  0  0  0
  -24.7600  -19.7150   20.8540 N   0  0  0  0  0  0  0  0  0  0  0  0
  -26.4440  -20.3530   22.1960 O   0  0  0  0  0  0  0  0  0  0  0  0
  -24.4700  -19.3880   19.9410 H   0  0  0  0  0  0  0  0  0  0  0  0
  -23.7460  -19.8400   21.9090 C   0  0  0  0  0  2  0  0  0  0  0  0
  -22.3310  -20.1750   21.4060 C   0  0  0  0  0  2  0  0  0  0  0  0
  -22.1440  -21.4780   20.6000 C   0  0  0  0  0  2  0  0  0  0  0  0
  -22.9310  -22.7280   21.0750 C   0  0  0  0  0  2  0  0  0  0  0  0
  -24.1100  -23.0710   20.1590 C   0  0  0  0  0  0  0  0  0  0  0  0
  -25.3270  -23.2110   20.7010 N   0  0  0  0  0  0  0  0  0  0  0  0
  -23.9040  -23.2250   18.9550 O   0  0  0  0  0  0  0  0  0  0  0  0
  -25.4300  -23.0580   21.6960 H   0  0  0  0  0  0  0  0  0  0  0  0
  -26.5250  -23.5640   19.9370 C   0  0  0  0  0  2  0  0  0  0  0  0
  -27.4530  -24.5080   20.7230 C   0  0  0  0  0  2  0  0  0  0  0  0
  -28.3720  -25.3480   19.8000 C   0  0  0  0  0  2  0  0  0  0  0  0
  -28.4120  -26.7440   20.1210 O   0  0  0  0  0  0  0  0  0  0  0  0
  -24.6070  -31.8670   23.2190 C   0  0  0  0  0  0  0  0  0  0  0  0
  -27.2400  -27.4720   20.0800 C   0  0  0  0  0  0  0  0  0  0  0  0
  -23.3920  -30.4940   21.5590 C   0  0  0  0  0  3  0  0  0  0  0  0
  -24.8400  -28.9710   20.1180 C   0  0  0  0  0  0  0  0  0  0  0  0
  -25.9190  -30.8390   21.3710 C   0  0  0  0  0  2  0  0  0  0  0  0
  -25.9990  -29.4790   20.7220 C   0  0  0  0  0  0  0  0  0  0  0  0
  -27.1960  -28.7300   20.7210 C   0  0  0  0  0  3  0  0  0  0  0  0
  -26.0700  -27.0000   19.4410 C   0  0  0  0  0  3  0  0  0  0  0  0
  -24.8690  -27.7200   19.4850 C   0  0  0  0  0  3  0  0  0  0  0  0
  -23.6020  -29.8360   20.1690 C   0  0  0  0  0  2  0  0  0  0  0  0
  -24.6580  -31.0750   22.1110 N   0  0  0  0  0  0  0  0  0  0  0  0
  -23.5280  -32.1450   23.7600 O   0  0  0  0  0  0  0  0  0  0  0  0
  -22.7350  -29.4640   22.5040 C   0  0  0  0  0  0  0  0  0  0  0  0
  -21.4100  -29.2990   22.3760 N   0  0  0  0  0  0  0  0  0  0  0  0
  -23.4120  -28.8160   23.3060 O   0  0  0  0  0  0  0  0  0  0  0  0
  -20.9270  -29.8730   21.6980 H   0  0  0  0  0  0  0  0  0  0  0  0
  -18.0260  -28.1330   22.8510 C   0  0  0  0  0  0  0  0  0  0  0  0
  -20.5830  -28.3620   23.1320 C   0  0  0  0  0  3  0  0  0  0  0  0
  -20.6740  -26.9380   22.5390 C   0  0  0  0  0  2  0  0  0  0  0  0
  -19.5740  -26.6440   21.5140 C   0  0  0  0  0  2  0  0  0  0  0  0
  -18.1910  -26.7920   22.1560 C   0  0  0  0  0  2  0  0  0  0  0  0
  -19.1500  -28.8790   23.2920 C   0  0  0  0  0  0  0  0  0  0  0  0
  -18.9450  -30.1370   23.8970 C   0  0  0  0  0  3  0  0  0  0  0  0
  -17.6450  -30.6540   24.0570 C   0  0  0  0  0  3  0  0  0  0  0  0
  -16.5330  -29.9050   23.6320 C   0  0  0  0  0  3  0  0  0  0  0  0
  -16.7250  -28.6440   23.0380 C   0  0  0  0  0  3  0  0  0  0  0  0
  -25.9000  -32.4810   23.8410 C   0  0  0  0  0  3  0  0  0  0  0  0
  -25.5920  -33.8620   24.2350 N   0  0  0  0  0  0  0  0  0  0  0  0
  -25.9040  -34.9470   23.5140 C   0  0  0  0  0  0  0  0  0  0  0  0
  -26.5580  -34.8930   22.4690 O   0  0  0  0  0  0  0  0  0  0  0  0
  -25.0200  -33.9790   25.0580 H   0  0  0  0  0  0  0  0  0  0  0  0
  -24.1490  -36.7340   23.2630 C   0  0  0  0  0  1  0  0  0  0  0  0
  -25.4100  -36.3120   24.0320 C   0  0  0  0  0  3  0  0  0  0  0  0
  -27.5570  -37.1830   24.8450 C   0  0  0  0  0  1  0  0  0  0  0  0
  -26.4280  -37.3800   23.9400 N   0  0  0  0  0  0  0  0  0  0  0  0
  -26.0190  -38.2880   24.1420 H   0  0  0  0  0  0  0  0  0  0  0  0
  -26.4450  -31.6580   25.0730 C   0  0  1  0  0  0  0  0  0  0  0  0
  -25.3740  -31.3700   26.1510 C   0  0  0  0  0  1  0  0  0  0  0  0
  -27.0290  -30.3030   24.6060 C   0  0  0  0  0  1  0  0  0  0  0  0
  -27.6070  -32.4250   25.7480 C   0  0  0  0  0  1  0  0  0  0  0  0
  -30.4190  -20.6820   20.9760 C   0  0  0  0  0  2  0  0  0  0  0  0
  -30.0100  -20.0480   22.1840 O   0  0  0  0  0  0  0  0  0  0  0  0
  -30.7140  -20.4770   23.3390 C   0  0  0  0  0  2  0  0  0  0  0  0
  -29.9580  -20.0000   24.5870 C   0  0  0  0  0  2  0  0  0  0  0  0
  -28.7660  -20.7620   24.7510 O   0  0  0  0  0  0  0  0  0  0  0  0
  -28.0300  -20.3670   25.9010 C   0  0  0  0  0  2  0  0  0  0  0  0
  -26.7770  -21.2490   26.0870 C   0  0  0  0  0  2  0  0  0  0  0  0
  -25.5610  -20.5480   25.8490 O   0  0  0  0  0  0  0  0  0  0  0  0
  -25.1840  -19.6680   26.9050 C   0  0  0  0  0  2  0  0  0  0  0  0
  -23.8860  -18.9500   26.5220 C   0  0  0  0  0  2  0  0  0  0  0  0
  -24.1220  -18.2480   25.3070 O   0  0  0  0  0  0  0  0  0  0  0  0
  -23.1920  -17.2140   25.0150 C   0  0  0  0  0  2  0  0  0  0  0  0
  -23.7960  -15.8540   25.4160 C   0  0  0  0  0  2  0  0  0  0  0  0
  -25.1990  -15.7740   25.1350 O   0  0  0  0  0  0  0  0  0  0  0  0
  -25.5780  -15.7320   23.7600 C   0  0  0  0  0  2  0  0  0  0  0  0
  -26.6610  -16.8030   23.4860 C   0  0  0  0  0  2  0  0  0  0  0  0
  -27.8270  -16.3480   22.7870 O   0  0  0  0  0  0  0  0  0  0  0  0
  -28.7790  -15.6290   23.5750 C   0  0  0  0  0  2  0  0  0  0  0  0
  -30.1460  -15.5330   22.8490 C   0  0  0  0  0  2  0  0  0  0  0  0
  -30.6940  -14.4140   20.6980 C   0  0  0  0  0  0  0  0  0  0  0  0
  -30.4240  -12.2980   19.4370 C   0  0  0  0  0  2  0  0  0  0  0  0
  -29.5040  -12.5150   18.2170 C   0  0  0  0  0  2  0  0  0  0  0  0
  -28.0230  -12.3570   18.6200 C   0  0  0  0  0  2  0  0  0  0  0  0
  -27.6580  -13.1870   19.8800 C   0  0  0  0  0  3  0  0  0  0  0  0
  -28.6850  -12.9290   21.0050 C   0  0  0  0  0  2  0  0  0  0  0  0
  -30.0260  -13.2490   20.4880 N   0  0  0  0  0  0  0  0  0  0  0  0
  -31.7610  -14.6930   20.1460 O   0  0  0  0  0  0  0  0  0  0  0  0
  -30.0330  -15.3520   21.3960 N   0  0  0  0  0  0  0  0  0  0  0  0
  -30.1240  -16.2550   20.9510 H   0  0  0  0  0  0  0  0  0  0  0  0
  -25.2520  -13.8050   20.5630 C   0  0  0  0  0  0  0  0  0  0  0  0
  -24.1760  -13.0400   20.9110 C   0  0  0  0  0  0  0  0  0  0  0  0
  -24.6230  -11.6820   20.8660 C   0  0  0  0  0  0  0  0  0  0  0  0
  -26.2950  -12.9190   20.3320 N   0  0  0  0  0  0  0  0  0  0  0  0
  -25.9170  -11.6350   20.5660 N   0  0  0  0  0  0  0  0  0  0  0  0
  -23.8890  -10.4230   21.0340 C   0  0  0  0  0  0  0  0  0  0  0  0
  -24.3580   -9.4150   21.9040 C   0  0  0  0  0  3  0  0  0  0  0  0
  -23.6290   -8.2150   22.0630 C   0  0  0  0  0  3  0  0  0  0  0  0
  -22.4210   -8.0190   21.3500 C   0  0  0  0  0  0  0  0  0  0  0  0
  -21.9710   -9.0200   20.4710 C   0  0  0  0  0  3  0  0  0  0  0  0
  -22.6950  -10.2130   20.3120 C   0  0  0  0  0  3  0  0  0  0  0  0
  -21.6620   -6.8780   21.4190 O   0  0  0  0  0  0  0  0  0  0  0  0
  -21.6830   -6.0670   22.5240 C   0  0  0  0  0  0  0  0  0  0  0  0
  -21.4020   -6.5570   23.8170 C   0  0  0  0  0  3  0  0  0  0  0  0
  -21.3720   -5.6770   24.9150 C   0  0  0  0  0  3  0  0  0  0  0  0
  -21.6080   -4.3020   24.7210 C   0  0  0  0  0  0  0  0  0  0  0  0
  -21.8800   -3.8080   23.4320 C   0  0  0  0  0  3  0  0  0  0  0  0
  -21.9190   -4.6880   22.3390 C   0  0  0  0  0  0  0  0  0  0  0  0
  -22.1660   -4.2070   21.0950 F   0  0  0  0  0  0  0  0  0  0  0  0
  -21.5670   -3.4520   25.7740 F   0  0  0  0  0  0  0  0  0  0  0  0
  -22.7810  -13.5240   21.1820 C   0  0  0  0  0  0  0  0  0  0  0  0
  -22.0460  -12.8280   22.0390 N   0  0  0  0  0  0  0  0  0  0  0  0
  -22.3570  -14.5620   20.6740 O   0  0  0  0  0  0  0  0  0  0  0  0
  -22.3790  -11.9770   22.4650 H   0  0  0  0  0  0  0  0  0  0  0  0
  -21.1120  -13.1400   22.2570 H   0  0  0  0  0  0  0  0  0  0  0  0
  -25.4280  -15.1810   20.4120 N   0  0  0  0  0  0  0  0  0  0  0  0
  -24.6550  -15.8320   20.4780 H   0  0  0  0  0  0  0  0  0  0  0  0
  -26.3170  -15.6270   20.2260 H   0  0  0  0  0  0  0  0  0  0  0  0
  1  2  1  0
  1 60  1  0
  3  2  1  0
  3  4  1  0
  4  6  2  0
  5  4  1  0
  5  8  1  0
  7  5  1  0
  9  8  1  0
 10 11  1  0
 10  9  1  0
 12 13  1  0
 12 11  1  0
 13 15  1  0
 14 12  2  0
 16 13  1  0
 16 17  1  0
 18 19  1  0
 18 17  1  0
 20 31  2  0
 21 19  1  0
 21 26  1  0
 22 30  1  0
 22 32  1  0
 23 29  1  0
 23 25  1  0
 24 30  1  0
 25 24  1  0
 26 25  2  0
 27 28  1  0
 27 21  2  0
 28 23  2  0
 29 22  1  0
 30 20  1  0
 32 34  2  0
 33 32  1  0
 35 33  1  0
 36 45  2  0
 36 41  1  0
 37 33  1  0
 37 41  1  0
 38 37  1  0
 39 40  1  0
 39 38  1  0
 40 36  1  0
 41 42  2  0
 42 43  1  0
 44 43  2  0
 45 44  1  0
 46 20  1  0
 46 47  1  0
 46 56  1  0
 47 50  1  0
 48 52  1  0
 48 47  1  0
 49 48  2  0
 52 51  1  0
 54 52  1  0
 54 55  1  0
 54 53  1  0
 56 59  1  1
 56 57  1  0
 58 56  1  0
 60 61  1  0
 61 62  1  0
 62 63  1  0
 63 64  1  0
 64 65  1  0
 65 66  1  0
 67 66  1  0
 67 68  1  0
 69 68  1  0
 70 69  1  0
 71 70  1  0
 71 72  1  0
 73 72  1  0
 74 73  1  0
 75 74  1  0
 76 75  1  0
 76 77  1  0
 78 77  1  0
 79 87  1  0
 80 85  1  0
 81 82  1  0
 81 80  1  0
 83 82  1  0
 83 92  1  0
 83 84  1  0
 85 79  1  0
 85 84  1  0
 86 79  2  0
 87 78  1  0
 88 87  1  0
 89 90  2  0
 90109  1  0
 91 90  1  0
 91 94  1  0
 92 89  1  0
 92 93  1  0
 93 91  2  0
 94 95  1  0
 95 96  2  0
 97100  1  0
 97 96  1  0
 98 97  2  0
 99 98  1  0
 99 94  2  0
100101  1  0
101102  1  0
102103  2  0
104103  1  0
104108  1  0
105104  2  0
106101  2  0
106105  1  0
107106  1  0
109110  1  0
110113  1  0
110112  1  0
111109  2  0
114115  1  0
114 89  1  0
116114  1  0
M  ISO  4  18 101  19 101  79 100  87 100
M  END
>  <TORSDO>  (19) 
F 46

>  <SCORE>  (19) 
63.671

>  <name>  (19) 
19

>  <ligand_id>  (19) 
19

>  <original_smiles>  (19) 
[H]c1c([H])c([H])c2c(c1[H])C([H])([H])C([H])([H])C([H])([H])C2([H])N([H])C(=O)C1([H])N(C(=O)C([H])(N([H])C(=O)C([H])(N([H])C([H])([H])[H])C([H])([H])[H])C(C([H])([H])[H])(C([H])([H])[H])C([H])([H])[H])C([H])([H])c2c([H])c(OC([H])([H])C([H])([H])C([H])([H])N([H])C(=O)C([H])([H])C([H])([H])C([H])([H])C([H])([H])N([H])C(=O)C([H])([H])OC([H])([H])C([H])([H])OC([H])([H])C([H])([H])OC([H])([H])C([H])([H])OC([H])([H])C([H])([H])OC([H])([H])C([H])([H])OC([H])([H])C([H])([H])OC([H])([H])C([H])([H])N([H])C(=O)N3C([H])([H])C([H])([H])C([H])([H])C([H])(n4nc(-c5c([H])c([H])c(Oc6c([H])c([H])c(F)c([H])c6F)c([H])c5[H])c(C(=O)N([H])[H])c4N([H])[H])C3([H])[H])c([H])c([H])c2C1([H])[H]

>  <smiles>  (19) 
[H]c1c([H])c([H])c2c(c1[H])C([H])([H])C([H])([H])C([H])([H])C2([H])N([H])C(=O)C1([H])N(C(=O)C([H])(N([H])C(=O)C([H])(N([H])C([H])([H])[H])C([H])([H])[H])C(C([H])([H])[H])(C([H])([H])[H])C([H])([H])[H])C([H])([H])c2c([H])c(OC([H])([H])C([H])([H])C([H])([H])N([H])C(=O)C([H])([H])C([H])([H])C([H])([H])C([H])([H])N([H])C(=O)C([H])([H])OC([H])([H])C([H])([H])OC([H])([H])C([H])([H])OC([H])([H])C([H])([H])OC([H])([H])C([H])([H])OC([H])([H])C([H])([H])OC([H])([H])C([H])([H])OC([H])([H])C([H])([H])N([H])C(=O)N3C([H])([H])C([H])([H])C([H])([H])C([H])(n4nc(-c5c([H])c([H])c(Oc6c([H])c([H])c(F)c([H])c6F)c([H])c5[H])c(C(=O)N([H])[H])c4N([H])[H])C3([H])[H])c([H])c([H])c2C1([H])[H]

$$$$
21:0:0
     RDKit          3D

105112  0  0  1  0  0  0  0  0999 V2000
  -28.2940  -21.9680   23.3030 O   0  0  0  0  0  0  0  0  0  0  0  0
  -29.6770  -21.6420   23.3630 C   0  0  0  0  0  2  0  0  0  0  0  0
  -30.1100  -21.1310   21.9890 C   0  0  0  0  0  2  0  0  0  0  0  0
  -29.8010  -22.0760   20.9790 O   0  0  0  0  0  0  0  0  0  0  0  0
  -30.4170  -21.7380   19.7490 C   0  0  0  0  0  2  0  0  0  0  0  0
  -29.8510  -22.6720   18.6890 C   0  0  0  0  0  2  0  0  0  0  0  0
  -30.6350  -22.5390   17.5120 O   0  0  0  0  0  0  0  0  0  0  0  0
  -29.9870  -23.0950   16.3810 C   0  0  0  0  0  2  0  0  0  0  0  0
  -31.0200  -23.4080   15.2790 C   0  0  0  0  0  2  0  0  0  0  0  0
  -31.5700  -22.2490   14.6500 O   0  0  0  0  0  0  0  0  0  0  0  0
  -30.6190  -21.4330   13.9630 C   0  0  0  0  0  2  0  0  0  0  0  0
  -30.7530  -19.9570   14.3730 C   0  0  0  0  0  2  0  0  0  0  0  0
  -30.7440  -19.8090   15.7950 O   0  0  0  0  0  0  0  0  0  0  0  0
  -30.8470  -18.4490   16.2190 C   0  0  0  0  0  2  0  0  0  0  0  0
  -31.4190  -18.2940   17.6390 C   0  0  0  0  0  2  0  0  0  0  0  0
  -33.6430  -19.2680   17.1560 C   0  0  0  0  0  0  0  0  0  0  0  0
  -35.4830  -18.0860   16.0370 C   0  0  0  0  0  2  0  0  0  0  0  0
  -34.9340  -16.9550   15.1580 C   0  0  0  0  0  2  0  0  0  0  0  0
  -34.7710  -15.6580   15.9690 C   0  0  0  0  0  2  0  0  0  0  0  0
  -34.0420  -15.8760   17.3150 C   0  0  0  0  0  3  0  0  0  0  0  0
  -34.5890  -17.1060   18.0740 C   0  0  0  0  0  2  0  0  0  0  0  0
  -34.5520  -18.2590   17.1590 N   0  0  0  0  0  0  0  0  0  0  0  0
  -33.7290  -20.2580   16.4330 O   0  0  0  0  0  0  0  0  0  0  0  0
  -32.5790  -19.1420   17.9550 N   0  0  0  0  0  0  0  0  0  0  0  0
  -32.2530  -20.0550   18.2240 H   0  0  0  0  0  0  0  0  0  0  0  0
  -32.9800  -13.8480   18.4920 C   0  0  0  0  0  0  0  0  0  0  0  0
  -33.5260  -12.8170   19.2130 C   0  0  0  0  0  0  0  0  0  0  0  0
  -34.9300  -13.0760   19.2540 C   0  0  0  0  0  0  0  0  0  0  0  0
  -34.0430  -14.6700   18.1390 N   0  0  0  0  0  0  0  0  0  0  0  0
  -35.2150  -14.2220   18.6490 N   0  0  0  0  0  0  0  0  0  0  0  0
  -36.0280  -12.2560   19.7830 C   0  0  0  0  0  0  0  0  0  0  0  0
  -36.9660  -12.7830   20.6940 C   0  0  0  0  0  3  0  0  0  0  0  0
  -38.0070  -11.9720   21.1990 C   0  0  0  0  0  3  0  0  0  0  0  0
  -38.1150  -10.6190   20.7980 C   0  0  0  0  0  0  0  0  0  0  0  0
  -37.1890  -10.1060   19.8680 C   0  0  0  0  0  3  0  0  0  0  0  0
  -36.1590  -10.9150   19.3640 C   0  0  0  0  0  3  0  0  0  0  0  0
  -39.1180   -9.7710   21.2100 O   0  0  0  0  0  0  0  0  0  0  0  0
  -39.7470   -9.9400   22.4200 C   0  0  0  0  0  0  0  0  0  0  0  0
  -39.0340   -9.9510   23.6350 C   0  0  0  0  0  3  0  0  0  0  0  0
  -39.7280  -10.0500   24.8610 C   0  0  0  0  0  3  0  0  0  0  0  0
  -41.1340  -10.1340   24.8690 C   0  0  0  0  0  0  0  0  0  0  0  0
  -41.8470  -10.1240   23.6580 C   0  0  0  0  0  3  0  0  0  0  0  0
  -41.1570  -10.0200   22.4360 C   0  0  0  0  0  0  0  0  0  0  0  0
  -41.8450   -9.9850   21.2720 F   0  0  0  0  0  0  0  0  0  0  0  0
  -41.8050  -10.2330   26.0420 F   0  0  0  0  0  0  0  0  0  0  0  0
  -32.7990  -11.6170   19.7480 C   0  0  0  0  0  0  0  0  0  0  0  0
  -33.2380  -11.0900   20.8920 N   0  0  0  0  0  0  0  0  0  0  0  0
  -31.8150  -11.1570   19.1770 O   0  0  0  0  0  0  0  0  0  0  0  0
  -34.0400  -11.4710   21.3730 H   0  0  0  0  0  0  0  0  0  0  0  0
  -32.7690  -10.2890   21.2850 H   0  0  0  0  0  0  0  0  0  0  0  0
  -31.6780  -14.1350   18.0990 N   0  0  0  0  0  0  0  0  0  0  0  0
  -30.9110  -13.5010   18.2980 H   0  0  0  0  0  0  0  0  0  0  0  0
  -31.4130  -14.9080   17.5080 H   0  0  0  0  0  0  0  0  0  0  0  0
  -27.9840  -23.1030   24.0920 C   0  0  0  0  0  2  0  0  0  0  0  0
  -26.5640  -23.5970   23.7580 C   0  0  0  0  0  2  0  0  0  0  0  0
  -26.4950  -24.9400   23.2800 O   0  0  0  0  0  0  0  0  0  0  0  0
  -26.9750  -25.1660   21.9500 C   0  0  0  0  0  2  0  0  0  0  0  0
  -28.0130  -26.3130   21.9430 C   0  0  0  0  0  0  0  0  0  0  0  0
  -29.0830  -26.3020   21.1340 N   0  0  0  0  0  0  0  0  0  0  0  0
  -27.8330  -27.2730   22.6930 O   0  0  0  0  0  0  0  0  0  0  0  0
  -29.6370  -27.1490   21.1250 H   0  0  0  0  0  0  0  0  0  0  0  0
  -29.5580  -25.2430   20.2470 C   0  0  0  0  0  2  0  0  0  0  0  0
  -31.0420  -25.4160   19.8650 C   0  0  0  0  0  2  0  0  0  0  0  0
  -31.5770  -26.8580   19.7280 C   0  0  0  0  0  2  0  0  0  0  0  0
  -30.8930  -27.5740   18.7130 O   0  0  0  0  0  0  0  0  0  0  0  0
  -26.3020  -30.4680   23.3410 C   0  0  0  0  0  0  0  0  0  0  0  0
  -29.6090  -27.9450   19.0150 C   0  0  0  0  0  0  0  0  0  0  0  0
  -25.3100  -29.4320   21.3250 C   0  0  0  0  0  3  0  0  0  0  0  0
  -26.9610  -28.7730   19.5010 C   0  0  0  0  0  0  0  0  0  0  0  0
  -27.6850  -30.3790   21.2750 C   0  0  0  0  0  2  0  0  0  0  0  0
  -28.0150  -29.3290   20.2390 C   0  0  0  0  0  0  0  0  0  0  0  0
  -29.3450  -28.9140   20.0040 C   0  0  0  0  0  3  0  0  0  0  0  0
  -28.5460  -27.3990   18.2750 C   0  0  0  0  0  3  0  0  0  0  0  0
  -27.2200  -27.7950   18.5250 C   0  0  0  0  0  3  0  0  0  0  0  0
  -25.5670  -29.2690   19.8040 C   0  0  0  0  0  2  0  0  0  0  0  0
  -26.4510  -30.0900   22.0410 N   0  0  0  0  0  0  0  0  0  0  0  0
  -25.2270  -30.3110   23.9360 O   0  0  0  0  0  0  0  0  0  0  0  0
  -24.9490  -28.0450   21.8970 C   0  0  0  0  0  0  0  0  0  0  0  0
  -23.7580  -27.5410   21.5320 N   0  0  0  0  0  0  0  0  0  0  0  0
  -25.7380  -27.4340   22.6240 O   0  0  0  0  0  0  0  0  0  0  0  0
  -23.1640  -28.1060   20.9400 H   0  0  0  0  0  0  0  0  0  0  0  0
  -20.9680  -25.2980   21.0780 C   0  0  0  0  0  0  0  0  0  0  0  0
  -23.2250  -26.2330   21.9130 C   0  0  0  0  0  3  0  0  0  0  0  0
  -23.8880  -25.1030   21.0890 C   0  0  0  0  0  2  0  0  0  0  0  0
  -23.0950  -24.7300   19.8320 C   0  0  0  0  0  2  0  0  0  0  0  0
  -21.6780  -24.2850   20.1940 C   0  0  0  0  0  2  0  0  0  0  0  0
  -21.6940  -26.2190   21.8760 C   0  0  0  0  0  0  0  0  0  0  0  0
  -20.9880  -27.1600   22.6550 C   0  0  0  0  0  3  0  0  0  0  0  0
  -19.5800  -27.1860   22.6500 C   0  0  0  0  0  3  0  0  0  0  0  0
  -18.8640  -26.2620   21.8700 C   0  0  0  0  0  3  0  0  0  0  0  0
  -19.5580  -25.3190   21.0890 C   0  0  0  0  0  3  0  0  0  0  0  0
  -27.4680  -31.1350   24.1390 C   0  0  0  0  0  3  0  0  0  0  0  0
  -28.0920  -30.1870   25.2350 C   0  0  1  0  0  0  0  0  0  0  0  0
  -27.0400  -29.5450   26.1700 C   0  0  0  0  0  1  0  0  0  0  0  0
  -28.9010  -29.0440   24.5750 C   0  0  0  0  0  1  0  0  0  0  0  0
  -29.0830  -30.9850   26.1160 C   0  0  0  0  0  1  0  0  0  0  0  0
  -26.9400  -32.3610   24.7490 N   0  0  0  0  0  0  0  0  0  0  0  0
  -27.1360  -33.5960   24.2670 C   0  0  0  0  0  0  0  0  0  0  0  0
  -27.8530  -33.8260   23.2880 O   0  0  0  0  0  0  0  0  0  0  0  0
  -26.2990  -32.2430   25.5200 H   0  0  0  0  0  0  0  0  0  0  0  0
  -25.1690  -35.1600   24.2010 C   0  0  0  0  0  1  0  0  0  0  0  0
  -26.4280  -34.7600   24.9850 C   0  0  0  0  0  3  0  0  0  0  0  0
  -28.3740  -35.7200   26.1330 C   0  0  0  0  0  1  0  0  0  0  0  0
  -27.2910  -35.9450   25.1790 N   0  0  0  0  0  0  0  0  0  0  0  0
  -26.7450  -36.7380   25.5040 H   0  0  0  0  0  0  0  0  0  0  0  0
  1  2  1  0
  1 54  1  0
  3  2  1  0
  4  3  1  0
  5  4  1  0
  6  5  1  0
  7  6  1  0
  8  7  1  0
  9  8  1  0
 10  9  1  0
 11 12  1  0
 11 10  1  0
 12 13  1  0
 13 14  1  0
 14 15  1  0
 15 24  1  0
 16 22  1  0
 16 24  1  0
 17 22  1  0
 18 19  1  0
 18 17  1  0
 20 19  1  0
 20 21  1  0
 20 29  1  0
 22 21  1  0
 23 16  2  0
 24 25  1  0
 26 27  2  0
 27 28  1  0
 27 46  1  0
 28 31  1  0
 29 26  1  0
 29 30  1  0
 30 28  2  0
 31 32  1  0
 32 33  2  0
 34 33  1  0
 34 37  1  0
 35 34  2  0
 36 31  2  0
 36 35  1  0
 37 38  1  0
 38 43  2  0
 38 39  1  0
 39 40  2  0
 40 41  1  0
 41 45  1  0
 42 41  2  0
 43 42  1  0
 44 43  1  0
 46 47  1  0
 47 50  1  0
 47 49  1  0
 48 46  2  0
 51 52  1  0
 51 26  1  0
 53 51  1  0
 55 54  1  0
 56 55  1  0
 57 56  1  0
 58 57  1  0
 58 60  2  0
 59 58  1  0
 61 59  1  0
 62 59  1  0
 63 62  1  0
 64 63  1  0
 65 67  1  0
 65 64  1  0
 66 77  2  0
 67 72  1  0
 68 78  1  0
 68 76  1  0
 69 75  1  0
 69 71  1  0
 70 76  1  0
 71 70  1  0
 72 71  2  0
 73 74  1  0
 73 67  2  0
 74 69  2  0
 75 68  1  0
 76 66  1  0
 78 80  2  0
 79 78  1  0
 81 79  1  0
 82 91  2  0
 82 87  1  0
 83 79  1  0
 84 83  1  0
 85 86  1  0
 85 84  1  0
 86 82  1  0
 87 83  1  0
 87 88  2  0
 89 88  1  0
 90 89  2  0
 91 90  1  0
 92 66  1  0
 92 97  1  0
 92 93  1  0
 93 96  1  1
 93 94  1  0
 95 93  1  0
 97100  1  0
 98 97  1  0
 98102  1  0
 99 98  2  0
102101  1  0
102104  1  0
104105  1  0
104103  1  0
M  ISO  4  16 100  24 100  64 101  65 101
M  END
>  <TORSDO>  (20) 
F 38

>  <SCORE>  (20) 
4.579

>  <name>  (20) 
21

>  <ligand_id>  (20) 
21

>  <original_smiles>  (20) 
[H]c1c([H])c([H])c2c(c1[H])C([H])([H])C([H])([H])C([H])([H])C2([H])N([H])C(=O)C1([H])N(C(=O)C([H])(N([H])C(=O)C([H])(N([H])C([H])([H])[H])C([H])([H])[H])C(C([H])([H])[H])(C([H])([H])[H])C([H])([H])[H])C([H])([H])c2c([H])c(OC([H])([H])C([H])([H])C([H])([H])N([H])C(=O)C([H])([H])OC([H])([H])C([H])([H])OC([H])([H])C([H])([H])OC([H])([H])C([H])([H])OC([H])([H])C([H])([H])OC([H])([H])C([H])([H])OC([H])([H])C([H])([H])N([H])C(=O)N3C([H])([H])C([H])([H])C([H])([H])C([H])(n4nc(-c5c([H])c([H])c(Oc6c([H])c([H])c(F)c([H])c6F)c([H])c5[H])c(C(=O)N([H])[H])c4N([H])[H])C3([H])[H])c([H])c([H])c2C1([H])[H]

>  <smiles>  (20) 
[H]c1c([H])c([H])c2c(c1[H])C([H])([H])C([H])([H])C([H])([H])C2([H])N([H])C(=O)C1([H])N(C(=O)C([H])(N([H])C(=O)C([H])(N([H])C([H])([H])[H])C([H])([H])[H])C(C([H])([H])[H])(C([H])([H])[H])C([H])([H])[H])C([H])([H])c2c([H])c(OC([H])([H])C([H])([H])C([H])([H])N([H])C(=O)C([H])([H])OC([H])([H])C([H])([H])OC([H])([H])C([H])([H])OC([H])([H])C([H])([H])OC([H])([H])C([H])([H])OC([H])([H])C([H])([H])OC([H])([H])C([H])([H])N([H])C(=O)N3C([H])([H])C([H])([H])C([H])([H])C([H])(n4nc(-c5c([H])c([H])c(Oc6c([H])c([H])c(F)c([H])c6F)c([H])c5[H])c(C(=O)N([H])[H])c4N([H])[H])C3([H])[H])c([H])c([H])c2C1([H])[H]

$$$$
22:0:0
     RDKit          3D

103110  0  0  1  0  0  0  0  0999 V2000
  -23.4870  -19.2860   16.5590 C   0  0  0  0  0  2  0  0  0  0  0  0
  -23.3030  -20.4300   17.3910 O   0  0  0  0  0  0  0  0  0  0  0  0
  -24.0010  -21.6000   16.9770 C   0  0  0  0  0  2  0  0  0  0  0  0
  -24.9980  -22.0060   18.0700 C   0  0  0  0  0  2  0  0  0  0  0  0
  -26.0230  -21.0290   18.1440 O   0  0  0  0  0  0  0  0  0  0  0  0
  -26.9840  -21.2740   19.1610 C   0  0  0  0  0  2  0  0  0  0  0  0
  -27.7660  -19.9800   19.3710 C   0  0  0  0  0  0  0  0  0  0  0  0
  -29.0480  -19.9530   18.9840 N   0  0  0  0  0  0  0  0  0  0  0  0
  -27.1820  -18.9930   19.8150 O   0  0  0  0  0  0  0  0  0  0  0  0
  -29.4150  -20.8130   18.5960 H   0  0  0  0  0  0  0  0  0  0  0  0
  -29.8850  -18.7590   18.8400 C   0  0  0  0  0  2  0  0  0  0  0  0
  -30.1780  -18.0180   20.1620 C   0  0  0  0  0  2  0  0  0  0  0  0
  -31.4610  -17.1750   20.0990 C   0  0  0  0  0  2  0  0  0  0  0  0
  -31.7430  -16.3870   21.3920 C   0  0  0  0  0  2  0  0  0  0  0  0
  -31.6250  -13.9600   20.8660 C   0  0  0  0  0  0  0  0  0  0  0  0
  -31.3240  -11.5480   20.4480 C   0  0  0  0  0  2  0  0  0  0  0  0
  -30.5380  -11.2960   19.1480 C   0  0  0  0  0  2  0  0  0  0  0  0
  -29.0240  -11.3170   19.4190 C   0  0  0  0  0  2  0  0  0  0  0  0
  -28.5800  -12.5640   20.2280 C   0  0  0  0  0  3  0  0  0  0  0  0
  -29.4800  -12.7690   21.4650 C   0  0  0  0  0  2  0  0  0  0  0  0
  -30.8840  -12.8330   21.0140 N   0  0  0  0  0  0  0  0  0  0  0  0
  -32.7250  -13.9790   20.3070 O   0  0  0  0  0  0  0  0  0  0  0  0
  -31.0980  -15.0740   21.3930 N   0  0  0  0  0  0  0  0  0  0  0  0
  -30.2070  -14.9870   21.8610 H   0  0  0  0  0  0  0  0  0  0  0  0
  -26.2590  -13.4960   20.8400 C   0  0  0  0  0  0  0  0  0  0  0  0
  -25.0600  -12.8830   21.0760 C   0  0  0  0  0  0  0  0  0  0  0  0
  -25.3040  -11.4810   20.9540 C   0  0  0  0  0  0  0  0  0  0  0  0
  -27.1700  -12.4780   20.5980 N   0  0  0  0  0  0  0  0  0  0  0  0
  -26.5900  -11.2560   20.7190 N   0  0  0  0  0  0  0  0  0  0  0  0
  -24.3750  -10.3450   20.9900 C   0  0  0  0  0  0  0  0  0  0  0  0
  -24.5780   -9.2540   21.8650 C   0  0  0  0  0  3  0  0  0  0  0  0
  -23.6620   -8.1810   21.8940 C   0  0  0  0  0  3  0  0  0  0  0  0
  -22.5280   -8.1920   21.0470 C   0  0  0  0  0  0  0  0  0  0  0  0
  -22.3430   -9.2690   20.1620 C   0  0  0  0  0  3  0  0  0  0  0  0
  -23.2580  -10.3360   20.1300 C   0  0  0  0  0  3  0  0  0  0  0  0
  -21.5980   -7.1820   20.9900 O   0  0  0  0  0  0  0  0  0  0  0  0
  -21.3390   -6.3810   22.0730 C   0  0  0  0  0  0  0  0  0  0  0  0
  -20.8940   -6.9120   23.3040 C   0  0  0  0  0  3  0  0  0  0  0  0
  -20.5720   -6.0470   24.3680 C   0  0  0  0  0  3  0  0  0  0  0  0
  -20.6860   -4.6540   24.2030 C   0  0  0  0  0  0  0  0  0  0  0  0
  -21.1240   -4.1220   22.9770 C   0  0  0  0  0  3  0  0  0  0  0  0
  -21.4480   -4.9840   21.9140 C   0  0  0  0  0  0  0  0  0  0  0  0
  -21.8490   -4.4680   20.7280 F   0  0  0  0  0  0  0  0  0  0  0  0
  -20.3690   -3.8210   25.2230 F   0  0  0  0  0  0  0  0  0  0  0  0
  -23.7400  -13.5600   21.3110 C   0  0  0  0  0  0  0  0  0  0  0  0
  -22.8630  -12.9350   22.0880 N   0  0  0  0  0  0  0  0  0  0  0  0
  -23.4990  -14.6720   20.8440 O   0  0  0  0  0  0  0  0  0  0  0  0
  -23.0650  -12.0280   22.4840 H   0  0  0  0  0  0  0  0  0  0  0  0
  -21.9720  -13.3670   22.2900 H   0  0  0  0  0  0  0  0  0  0  0  0
  -26.6490  -14.8260   20.7910 N   0  0  0  0  0  0  0  0  0  0  0  0
  -26.0180  -15.5900   21.0080 H   0  0  0  0  0  0  0  0  0  0  0  0
  -27.6020  -15.1540   20.6850 H   0  0  0  0  0  0  0  0  0  0  0  0
  -24.9070  -18.6930   16.6150 C   0  0  0  0  0  2  0  0  0  0  0  0
  -25.8530  -19.5200   15.9350 O   0  0  0  0  0  0  0  0  0  0  0  0
  -27.1850  -19.0460   16.1160 C   0  0  0  0  0  2  0  0  0  0  0  0
  -28.2470  -20.0760   15.6820 C   0  0  0  0  0  2  0  0  0  0  0  0
  -28.3720  -21.1650   16.5980 O   0  0  0  0  0  0  0  0  0  0  0  0
  -29.5760  -21.9080   16.3830 C   0  0  0  0  0  2  0  0  0  0  0  0
  -29.4970  -23.3220   16.9800 C   0  0  0  0  0  2  0  0  0  0  0  0
  -29.6910  -23.3050   18.3970 O   0  0  0  0  0  0  0  0  0  0  0  0
  -29.8200  -24.6000   19.0080 C   0  0  0  0  0  2  0  0  0  0  0  0
  -28.5300  -25.4260   18.8830 C   0  0  0  0  0  2  0  0  0  0  0  0
  -28.4970  -26.6500   19.6360 O   0  0  0  0  0  0  0  0  0  0  0  0
  -24.3590  -31.4290   22.9600 C   0  0  0  0  0  0  0  0  0  0  0  0
  -27.2870  -27.3240   19.6510 C   0  0  0  0  0  0  0  0  0  0  0  0
  -23.2620  -30.0870   21.2020 C   0  0  0  0  0  3  0  0  0  0  0  0
  -24.8220  -28.7220   19.7250 C   0  0  0  0  0  0  0  0  0  0  0  0
  -25.7770  -30.5680   21.0980 C   0  0  0  0  0  2  0  0  0  0  0  0
  -25.9410  -29.2490   20.3750 C   0  0  0  0  0  0  0  0  0  0  0  0
  -27.1770  -28.5550   20.3450 C   0  0  0  0  0  3  0  0  0  0  0  0
  -26.1320  -26.8220   18.9980 C   0  0  0  0  0  3  0  0  0  0  0  0
  -24.9090  -27.5050   19.0410 C   0  0  0  0  0  3  0  0  0  0  0  0
  -23.5370  -29.5130   19.7880 C   0  0  0  0  0  2  0  0  0  0  0  0
  -24.4830  -30.7050   21.8120 N   0  0  0  0  0  0  0  0  0  0  0  0
  -23.2520  -31.6110   23.4840 O   0  0  0  0  0  0  0  0  0  0  0  0
  -22.6430  -28.9690   22.0740 C   0  0  0  0  0  0  0  0  0  0  0  0
  -21.3270  -28.7580   21.9260 N   0  0  0  0  0  0  0  0  0  0  0  0
  -23.3440  -28.3020   22.8390 O   0  0  0  0  0  0  0  0  0  0  0  0
  -20.8230  -29.3530   21.2820 H   0  0  0  0  0  0  0  0  0  0  0  0
  -17.9860  -27.4380   22.3230 C   0  0  0  0  0  0  0  0  0  0  0  0
  -20.5350  -27.7400   22.6150 C   0  0  0  0  0  3  0  0  0  0  0  0
  -20.6740  -26.3630   21.9280 C   0  0  0  0  0  2  0  0  0  0  0  0
  -19.5800  -26.0930   20.8890 C   0  0  0  0  0  2  0  0  0  0  0  0
  -18.1950  -26.1530   21.5420 C   0  0  0  0  0  2  0  0  0  0  0  0
  -19.0860  -28.1930   22.8140 C   0  0  0  0  0  0  0  0  0  0  0  0
  -18.8360  -29.3990   23.5030 C   0  0  0  0  0  3  0  0  0  0  0  0
  -17.5200  -29.8540   23.7030 C   0  0  0  0  0  3  0  0  0  0  0  0
  -16.4330  -29.0970   23.2270 C   0  0  0  0  0  3  0  0  0  0  0  0
  -16.6680  -27.8900   22.5460 C   0  0  0  0  0  3  0  0  0  0  0  0
  -25.5990  -32.0810   23.6490 C   0  0  0  0  0  3  0  0  0  0  0  0
  -25.2340  -33.4580   24.0070 N   0  0  0  0  0  0  0  0  0  0  0  0
  -25.5890  -34.5420   23.3090 C   0  0  0  0  0  0  0  0  0  0  0  0
  -26.3260  -34.4950   22.3210 O   0  0  0  0  0  0  0  0  0  0  0  0
  -24.6010  -33.5740   24.7820 H   0  0  0  0  0  0  0  0  0  0  0  0
  -23.8460  -36.3040   22.8900 C   0  0  0  0  0  1  0  0  0  0  0  0
  -25.0310  -35.8990   23.7800 C   0  0  0  0  0  3  0  0  0  0  0  0
  -27.0690  -36.7990   24.8100 C   0  0  0  0  0  1  0  0  0  0  0  0
  -26.0400  -36.9810   23.7920 N   0  0  0  0  0  0  0  0  0  0  0  0
  -25.5910  -37.8790   23.9520 H   0  0  0  0  0  0  0  0  0  0  0  0
  -26.0930  -31.2910   24.9240 C   0  0  1  0  0  0  0  0  0  0  0  0
  -24.9680  -31.0070   25.9470 C   0  0  0  0  0  1  0  0  0  0  0  0
  -26.7180  -29.9340   24.5130 C   0  0  0  0  0  1  0  0  0  0  0  0
  -27.1970  -32.0940   25.6520 C   0  0  0  0  0  1  0  0  0  0  0  0
  1 53  1  0
  1  2  1  0
  3  2  1  0
  3  4  1  0
  4  5  1  0
  5  6  1  0
  6  7  1  0
  7  9  2  0
  8  7  1  0
 10  8  1  0
 11  8  1  0
 11 12  1  0
 13 12  1  0
 13 14  1  0
 14 23  1  0
 15 21  1  0
 15 23  1  0
 16 21  1  0
 17 18  1  0
 17 16  1  0
 19 18  1  0
 19 28  1  0
 19 20  1  0
 21 20  1  0
 22 15  2  0
 23 24  1  0
 25 26  2  0
 26 45  1  0
 27 30  1  0
 27 26  1  0
 28 29  1  0
 28 25  1  0
 29 27  2  0
 30 31  1  0
 31 32  2  0
 33 32  1  0
 34 33  2  0
 35 34  1  0
 35 30  2  0
 36 33  1  0
 36 37  1  0
 37 38  1  0
 38 39  2  0
 40 39  1  0
 40 44  1  0
 41 40  2  0
 42 37  2  0
 42 41  1  0
 43 42  1  0
 45 46  1  0
 46 49  1  0
 46 48  1  0
 47 45  2  0
 50 25  1  0
 50 51  1  0
 52 50  1  0
 54 55  1  0
 54 53  1  0
 56 55  1  0
 56 57  1  0
 58 57  1  0
 58 59  1  0
 59 60  1  0
 60 61  1  0
 62 61  1  0
 62 63  1  0
 63 65  1  0
 64 75  2  0
 65 70  1  0
 66 74  1  0
 66 76  1  0
 67 73  1  0
 67 69  1  0
 68 74  1  0
 69 68  1  0
 70 69  2  0
 71 72  1  0
 71 65  2  0
 72 67  2  0
 73 66  1  0
 74 64  1  0
 76 78  2  0
 77 76  1  0
 79 77  1  0
 80 89  2  0
 80 85  1  0
 81 77  1  0
 81 85  1  0
 82 81  1  0
 83 84  1  0
 83 82  1  0
 84 80  1  0
 85 86  2  0
 86 87  1  0
 88 87  2  0
 89 88  1  0
 90 64  1  0
 90 91  1  0
 90100  1  0
 91 94  1  0
 92 96  1  0
 92 91  1  0
 93 92  2  0
 96 95  1  0
 96 98  1  0
 98 99  1  0
 98 97  1  0
100103  1  1
100101  1  0
102100  1  0
M  ISO  4  15 100  23 100  62 101  63 101
M  END
>  <TORSDO>  (21) 
F 36

>  <SCORE>  (21) 
-3.709

>  <name>  (21) 
22

>  <ligand_id>  (21) 
22

>  <original_smiles>  (21) 
[H]c1c([H])c([H])c2c(c1[H])C([H])([H])C([H])([H])C([H])([H])C2([H])N([H])C(=O)C1([H])N(C(=O)C([H])(N([H])C(=O)C([H])(N([H])C([H])([H])[H])C([H])([H])[H])C(C([H])([H])[H])(C([H])([H])[H])C([H])([H])[H])C([H])([H])c2c([H])c(OC([H])([H])C([H])([H])OC([H])([H])C([H])([H])OC([H])([H])C([H])([H])OC([H])([H])C([H])([H])OC([H])([H])C([H])([H])OC([H])([H])C(=O)N([H])C([H])([H])C([H])([H])C([H])([H])C([H])([H])N([H])C(=O)N3C([H])([H])C([H])([H])C([H])([H])C([H])(n4nc(-c5c([H])c([H])c(Oc6c([H])c([H])c(F)c([H])c6F)c([H])c5[H])c(C(=O)N([H])[H])c4N([H])[H])C3([H])[H])c([H])c([H])c2C1([H])[H]

>  <smiles>  (21) 
[H]c1c([H])c([H])c2c(c1[H])C([H])([H])C([H])([H])C([H])([H])C2([H])N([H])C(=O)C1([H])N(C(=O)C([H])(N([H])C(=O)C([H])(N([H])C([H])([H])[H])C([H])([H])[H])C(C([H])([H])[H])(C([H])([H])[H])C([H])([H])[H])C([H])([H])c2c([H])c(OC([H])([H])C([H])([H])OC([H])([H])C([H])([H])OC([H])([H])C([H])([H])OC([H])([H])C([H])([H])OC([H])([H])C([H])([H])OC([H])([H])C(=O)N([H])C([H])([H])C([H])([H])C([H])([H])C([H])([H])N([H])C(=O)N3C([H])([H])C([H])([H])C([H])([H])C([H])(n4nc(-c5c([H])c([H])c(Oc6c([H])c([H])c(F)c([H])c6F)c([H])c5[H])c(C(=O)N([H])[H])c4N([H])[H])C3([H])[H])c([H])c([H])c2C1([H])[H]

$$$$
23:0:0
     RDKit          3D

109116  0  0  1  0  0  0  0  0999 V2000
  -21.5570  -18.4600   20.3960 C   0  0  0  0  0  2  0  0  0  0  0  0
  -22.9630  -18.5880   20.2050 O   0  0  0  0  0  0  0  0  0  0  0  0
  -23.4090  -19.9350   20.3360 C   0  0  0  0  0  2  0  0  0  0  0  0
  -24.7750  -20.1200   19.6590 C   0  0  0  0  0  0  0  0  0  0  0  0
  -25.2050  -21.3830   19.5190 N   0  0  0  0  0  0  0  0  0  0  0  0
  -25.4510  -19.1470   19.3130 O   0  0  0  0  0  0  0  0  0  0  0  0
  -24.5830  -22.1160   19.8380 H   0  0  0  0  0  0  0  0  0  0  0  0
  -26.5640  -21.7870   19.1700 C   0  0  0  0  0  2  0  0  0  0  0  0
  -26.7980  -21.9940   17.6610 C   0  0  0  0  0  2  0  0  0  0  0  0
  -26.2640  -23.3380   17.1310 C   0  0  0  0  0  2  0  0  0  0  0  0
  -27.1450  -23.9410   16.0180 C   0  0  0  0  0  2  0  0  0  0  0  0
  -27.0010  -25.4690   15.9170 C   0  0  0  0  0  2  0  0  0  0  0  0
  -28.0590  -26.1110   15.0010 C   0  0  0  0  0  2  0  0  0  0  0  0
  -28.1480  -27.6360   15.1500 C   0  0  0  0  0  2  0  0  0  0  0  0
  -26.8770  -28.1830   14.8110 O   0  0  0  0  0  0  0  0  0  0  0  0
  -25.1260  -26.8190   21.5850 C   0  0  0  0  0  0  0  0  0  0  0  0
  -25.9260  -28.1710   15.7990 C   0  0  0  0  0  0  0  0  0  0  0  0
  -23.2440  -27.2840   20.0440 C   0  0  0  0  0  3  0  0  0  0  0  0
  -23.8900  -28.1970   17.7520 C   0  0  0  0  0  0  0  0  0  0  0  0
  -25.5580  -28.2780   19.6170 C   0  0  0  0  0  2  0  0  0  0  0  0
  -25.2350  -28.2240   18.1400 C   0  0  0  0  0  0  0  0  0  0  0  0
  -26.2580  -28.2130   17.1710 C   0  0  0  0  0  3  0  0  0  0  0  0
  -24.5700  -28.1570   15.4180 C   0  0  0  0  0  3  0  0  0  0  0  0
  -23.5480  -28.1580   16.3880 C   0  0  0  0  0  3  0  0  0  0  0  0
  -22.8640  -28.2150   18.8610 C   0  0  0  0  0  2  0  0  0  0  0  0
  -24.6820  -27.4220   20.4470 N   0  0  0  0  0  0  0  0  0  0  0  0
  -24.3520  -26.1920   22.3220 O   0  0  0  0  0  0  0  0  0  0  0  0
  -22.8490  -25.8350   19.6800 C   0  0  0  0  0  0  0  0  0  0  0  0
  -21.5350  -25.5930   19.5320 N   0  0  0  0  0  0  0  0  0  0  0  0
  -23.7090  -24.9680   19.5110 O   0  0  0  0  0  0  0  0  0  0  0  0
  -20.8920  -26.3540   19.7010 H   0  0  0  0  0  0  0  0  0  0  0  0
  -18.4450  -24.0270   18.5110 C   0  0  0  0  0  0  0  0  0  0  0  0
  -20.9330  -24.3140   19.1560 C   0  0  0  0  0  3  0  0  0  0  0  0
  -21.2500  -23.9600   17.6850 C   0  0  0  0  0  2  0  0  0  0  0  0
  -20.1720  -24.4330   16.7060 C   0  0  0  0  0  2  0  0  0  0  0  0
  -18.8170  -23.8090   17.0540 C   0  0  0  0  0  2  0  0  0  0  0  0
  -19.4370  -24.2780   19.4960 C   0  0  0  0  0  0  0  0  0  0  0  0
  -19.0360  -24.5110   20.8280 C   0  0  0  0  0  3  0  0  0  0  0  0
  -17.6730  -24.4890   21.1840 C   0  0  0  0  0  3  0  0  0  0  0  0
  -16.6980  -24.2200   20.2080 C   0  0  0  0  0  3  0  0  0  0  0  0
  -17.0850  -23.9870   18.8780 C   0  0  0  0  0  3  0  0  0  0  0  0
  -26.6200  -26.9090   22.0300 C   0  0  0  0  0  3  0  0  0  0  0  0
  -27.4700  -25.6420   21.6250 C   0  0  1  0  0  0  0  0  0  0  0  0
  -26.8300  -24.2990   22.0490 C   0  0  0  0  0  1  0  0  0  0  0  0
  -27.6840  -25.5990   20.0950 C   0  0  0  0  0  1  0  0  0  0  0  0
  -28.8740  -25.7260   22.2660 C   0  0  0  0  0  1  0  0  0  0  0  0
  -26.6420  -27.1080   23.4840 N   0  0  0  0  0  0  0  0  0  0  0  0
  -26.8510  -28.2880   24.0850 C   0  0  0  0  0  0  0  0  0  0  0  0
  -27.1250  -29.3170   23.4650 O   0  0  0  0  0  0  0  0  0  0  0  0
  -26.3790  -26.3170   24.0550 H   0  0  0  0  0  0  0  0  0  0  0  0
  -25.3720  -28.9080   26.0200 C   0  0  0  0  0  1  0  0  0  0  0  0
  -26.7390  -28.3290   25.6210 C   0  0  0  0  0  3  0  0  0  0  0  0
  -29.1310  -28.4800   26.1520 C   0  0  0  0  0  1  0  0  0  0  0  0
  -27.8170  -29.1070   26.2690 N   0  0  0  0  0  0  0  0  0  0  0  0
  -27.6190  -29.2430   27.2570 H   0  0  0  0  0  0  0  0  0  0  0  0
  -20.9720  -17.4860   19.3650 C   0  0  0  0  0  2  0  0  0  0  0  0
  -21.5530  -17.7580   18.0970 O   0  0  0  0  0  0  0  0  0  0  0  0
  -21.9850  -16.5840   17.4230 C   0  0  0  0  0  2  0  0  0  0  0  0
  -22.5420  -16.9840   16.0500 C   0  0  0  0  0  2  0  0  0  0  0  0
  -23.7740  -17.6600   16.2560 O   0  0  0  0  0  0  0  0  0  0  0  0
  -24.0610  -18.6280   15.2560 C   0  0  0  0  0  2  0  0  0  0  0  0
  -25.5620  -18.5440   14.9510 C   0  0  0  0  0  2  0  0  0  0  0  0
  -26.2740  -19.0680   16.0650 O   0  0  0  0  0  0  0  0  0  0  0  0
  -27.6770  -18.8610   15.9810 C   0  0  0  0  0  2  0  0  0  0  0  0
  -28.3410  -19.4830   17.2170 C   0  0  0  0  0  2  0  0  0  0  0  0
  -29.6260  -18.9130   17.4370 O   0  0  0  0  0  0  0  0  0  0  0  0
  -30.3150  -19.5650   18.4970 C   0  0  0  0  0  2  0  0  0  0  0  0
  -31.5440  -18.7590   18.9420 C   0  0  0  0  0  2  0  0  0  0  0  0
  -31.1400  -17.6660   19.7680 O   0  0  0  0  0  0  0  0  0  0  0  0
  -32.0500  -17.3630   20.8240 C   0  0  0  0  0  2  0  0  0  0  0  0
  -33.1110  -16.3300   20.3960 C   0  0  0  0  0  2  0  0  0  0  0  0
  -32.8840  -14.0050   19.5020 C   0  0  0  0  0  0  0  0  0  0  0  0
  -32.0060  -12.0440   18.2970 C   0  0  0  0  0  2  0  0  0  0  0  0
  -31.0400  -12.5320   17.1980 C   0  0  0  0  0  2  0  0  0  0  0  0
  -29.6170  -12.7470   17.7550 C   0  0  0  0  0  2  0  0  0  0  0  0
  -29.6090  -13.5760   19.0680 C   0  0  0  0  0  3  0  0  0  0  0  0
  -30.6450  -13.0120   20.0630 C   0  0  0  0  0  2  0  0  0  0  0  0
  -31.9610  -13.0190   19.3940 N   0  0  0  0  0  0  0  0  0  0  0  0
  -33.9510  -14.0260   18.8800 O   0  0  0  0  0  0  0  0  0  0  0  0
  -32.4880  -15.0250   20.2660 N   0  0  0  0  0  0  0  0  0  0  0  0
  -31.5880  -14.9100   20.7040 H   0  0  0  0  0  0  0  0  0  0  0  0
  -27.5200  -14.7440   20.0210 C   0  0  0  0  0  0  0  0  0  0  0  0
  -26.3180  -14.2490   20.4520 C   0  0  0  0  0  0  0  0  0  0  0  0
  -26.4020  -12.8300   20.3200 C   0  0  0  0  0  0  0  0  0  0  0  0
  -28.2720  -13.6380   19.6560 N   0  0  0  0  0  0  0  0  0  0  0  0
  -27.6060  -12.4790   19.8890 N   0  0  0  0  0  0  0  0  0  0  0  0
  -25.3890  -11.7860   20.5260 C   0  0  0  0  0  0  0  0  0  0  0  0
  -25.6200  -10.6990   21.3990 C   0  0  0  0  0  3  0  0  0  0  0  0
  -24.6270   -9.7150   21.5960 C   0  0  0  0  0  3  0  0  0  0  0  0
  -23.3870   -9.8150   20.9220 C   0  0  0  0  0  0  0  0  0  0  0  0
  -23.1710  -10.8880   20.0400 C   0  0  0  0  0  3  0  0  0  0  0  0
  -24.1620  -11.8630   19.8400 C   0  0  0  0  0  3  0  0  0  0  0  0
  -22.3720   -8.8930   21.0330 O   0  0  0  0  0  0  0  0  0  0  0  0
  -22.1610   -8.1900   22.1920 C   0  0  0  0  0  0  0  0  0  0  0  0
  -21.9290   -8.8350   23.4260 C   0  0  0  0  0  3  0  0  0  0  0  0
  -21.6510   -8.0730   24.5790 C   0  0  0  0  0  3  0  0  0  0  0  0
  -21.5940   -6.6690   24.4980 C   0  0  0  0  0  0  0  0  0  0  0  0
  -21.8180   -6.0240   23.2680 C   0  0  0  0  0  3  0  0  0  0  0  0
  -22.0990   -6.7840   22.1190 C   0  0  0  0  0  0  0  0  0  0  0  0
  -22.2940   -6.1580   20.9320 F   0  0  0  0  0  0  0  0  0  0  0  0
  -21.3170   -5.9380   25.6020 F   0  0  0  0  0  0  0  0  0  0  0  0
  -25.1180  -15.0500   20.8770 C   0  0  0  0  0  0  0  0  0  0  0  0
  -24.3190  -14.5140   21.7930 N   0  0  0  0  0  0  0  0  0  0  0  0
  -24.9090  -16.1750   20.4310 O   0  0  0  0  0  0  0  0  0  0  0  0
  -24.4930  -13.5960   22.1780 H   0  0  0  0  0  0  0  0  0  0  0  0
  -23.5170  -15.0360   22.1190 H   0  0  0  0  0  0  0  0  0  0  0  0
  -28.0330  -16.0330   19.8960 N   0  0  0  0  0  0  0  0  0  0  0  0
  -27.5090  -16.8630   20.1530 H   0  0  0  0  0  0  0  0  0  0  0  0
  -28.9830  -16.2520   19.6190 H   0  0  0  0  0  0  0  0  0  0  0  0
  2  3  1  0
  2  1  1  0
  4  3  1  0
  5  4  1  0
  5  7  1  0
  6  4  2  0
  8  5  1  0
  9  8  1  0
 10  9  1  0
 11 10  1  0
 12 11  1  0
 13 14  1  0
 13 12  1  0
 15 14  1  0
 15 17  1  0
 16 27  2  0
 17 22  1  0
 18 28  1  0
 18 26  1  0
 19 21  1  0
 19 25  1  0
 20 26  1  0
 21 20  1  0
 22 21  2  0
 23 17  2  0
 23 24  1  0
 24 19  2  0
 25 18  1  0
 26 16  1  0
 29 28  1  0
 29 31  1  0
 30 28  2  0
 32 41  2  0
 32 37  1  0
 33 37  1  0
 33 29  1  0
 34 33  1  0
 35 36  1  0
 35 34  1  0
 36 32  1  0
 37 38  2  0
 38 39  1  0
 40 39  2  0
 41 40  1  0
 42 16  1  0
 42 47  1  0
 43 42  1  0
 43 44  1  1
 43 46  1  0
 45 43  1  0
 47 50  1  0
 47 48  1  0
 48 52  1  0
 49 48  2  0
 52 51  1  0
 52 54  1  0
 53 54  1  0
 54 55  1  0
 56  1  1  0
 57 56  1  0
 58 57  1  0
 59 60  1  0
 59 58  1  0
 61 60  1  0
 62 61  1  0
 62 63  1  0
 64 63  1  0
 64 65  1  0
 65 66  1  0
 66 67  1  0
 67 68  1  0
 68 69  1  0
 69 70  1  0
 71 70  1  0
 72 80  1  0
 73 78  1  0
 74 75  1  0
 74 73  1  0
 76 75  1  0
 76 85  1  0
 76 77  1  0
 78 72  1  0
 78 77  1  0
 79 72  2  0
 80 71  1  0
 80 81  1  0
 82 83  2  0
 83102  1  0
 84 83  1  0
 84 87  1  0
 85 86  1  0
 85 82  1  0
 86 84  2  0
 87 88  1  0
 88 89  2  0
 90 93  1  0
 90 89  1  0
 91 90  2  0
 92 91  1  0
 92 87  2  0
 93 94  1  0
 94 95  1  0
 95 96  2  0
 97 96  1  0
 97101  1  0
 98 97  2  0
 99 94  2  0
 99 98  1  0
100 99  1  0
102103  1  0
103106  1  0
103105  1  0
104102  2  0
107 82  1  0
107108  1  0
109107  1  0
M  ISO  4  14 101  15 101  72 100  80 100
M  END
>  <TORSDO>  (22) 
F 42

>  <SCORE>  (22) 
27.830

>  <name>  (22) 
23

>  <ligand_id>  (22) 
23

>  <original_smiles>  (22) 
[H]c1c([H])c([H])c2c(c1[H])C([H])([H])C([H])([H])C([H])([H])C2([H])N([H])C(=O)C1([H])N(C(=O)C([H])(N([H])C(=O)C([H])(N([H])C([H])([H])[H])C([H])([H])[H])C(C([H])([H])[H])(C([H])([H])[H])C([H])([H])[H])C([H])([H])c2c([H])c(OC([H])([H])C([H])([H])C([H])([H])C([H])([H])C([H])([H])C([H])([H])C([H])([H])N([H])C(=O)C([H])([H])OC([H])([H])C([H])([H])OC([H])([H])C([H])([H])OC([H])([H])C([H])([H])OC([H])([H])C([H])([H])OC([H])([H])C([H])([H])OC([H])([H])C([H])([H])N([H])C(=O)N3C([H])([H])C([H])([H])C([H])([H])C([H])(n4nc(-c5c([H])c([H])c(Oc6c([H])c([H])c(F)c([H])c6F)c([H])c5[H])c(C(=O)N([H])[H])c4N([H])[H])C3([H])[H])c([H])c([H])c2C1([H])[H]

>  <smiles>  (22) 
[H]c1c([H])c([H])c2c(c1[H])C([H])([H])C([H])([H])C([H])([H])C2([H])N([H])C(=O)C1([H])N(C(=O)C([H])(N([H])C(=O)C([H])(N([H])C([H])([H])[H])C([H])([H])[H])C(C([H])([H])[H])(C([H])([H])[H])C([H])([H])[H])C([H])([H])c2c([H])c(OC([H])([H])C([H])([H])C([H])([H])C([H])([H])C([H])([H])C([H])([H])C([H])([H])N([H])C(=O)C([H])([H])OC([H])([H])C([H])([H])OC([H])([H])C([H])([H])OC([H])([H])C([H])([H])OC([H])([H])C([H])([H])OC([H])([H])C([H])([H])OC([H])([H])C([H])([H])N([H])C(=O)N3C([H])([H])C([H])([H])C([H])([H])C([H])(n4nc(-c5c([H])c([H])c(Oc6c([H])c([H])c(F)c([H])c6F)c([H])c5[H])c(C(=O)N([H])[H])c4N([H])[H])C3([H])[H])c([H])c([H])c2C1([H])[H]

$$$$
24:0:0
     RDKit          3D

102109  0  0  1  0  0  0  0  0999 V2000
  -26.5200  -20.8360   19.9510 C   0  0  0  0  0  2  0  0  0  0  0  0
  -26.5010  -21.6660   21.2390 C   0  0  0  0  0  2  0  0  0  0  0  0
  -27.8350  -21.9920   21.5990 O   0  0  0  0  0  0  0  0  0  0  0  0
  -27.9110  -22.7810   22.7770 C   0  0  0  0  0  2  0  0  0  0  0  0
  -29.3470  -23.2900   22.9470 C   0  0  0  0  0  2  0  0  0  0  0  0
  -29.7470  -23.1560   24.3010 O   0  0  0  0  0  0  0  0  0  0  0  0
  -31.0950  -23.5550   24.5110 C   0  0  0  0  0  2  0  0  0  0  0  0
  -31.6540  -22.7760   25.7110 C   0  0  0  0  0  2  0  0  0  0  0  0
  -31.7100  -21.3750   25.4560 O   0  0  0  0  0  0  0  0  0  0  0  0
  -32.8970  -20.9030   24.8250 C   0  0  0  0  0  2  0  0  0  0  0  0
  -32.6750  -20.7410   23.3120 C   0  0  0  0  0  2  0  0  0  0  0  0
  -33.3840  -21.7310   22.5750 O   0  0  0  0  0  0  0  0  0  0  0  0
  -33.1860  -21.6090   21.1700 C   0  0  0  0  0  2  0  0  0  0  0  0
  -34.5050  -21.9040   20.4410 C   0  0  0  0  0  2  0  0  0  0  0  0
  -36.3750  -20.3540   20.1780 C   0  0  0  0  0  0  0  0  0  0  0  0
  -36.7930  -18.1160   19.2280 C   0  0  0  0  0  2  0  0  0  0  0  0
  -36.0820  -17.9450   17.8730 C   0  0  0  0  0  2  0  0  0  0  0  0
  -34.6220  -17.4890   18.0630 C   0  0  0  0  0  2  0  0  0  0  0  0
  -33.8610  -18.3490   19.1070 C   0  0  0  0  0  3  0  0  0  0  0  0
  -34.7010  -18.4750   20.3970 C   0  0  0  0  0  2  0  0  0  0  0  0
  -36.0080  -19.0540   20.0400 N   0  0  0  0  0  0  0  0  0  0  0  0
  -37.4110  -20.8240   19.7050 O   0  0  0  0  0  0  0  0  0  0  0  0
  -35.6060  -21.0970   20.9750 N   0  0  0  0  0  0  0  0  0  0  0  0
  -36.1700  -21.6720   21.5820 H   0  0  0  0  0  0  0  0  0  0  0  0
  -31.3230  -18.4750   19.5390 C   0  0  0  0  0  0  0  0  0  0  0  0
  -30.3760  -17.4990   19.6950 C   0  0  0  0  0  0  0  0  0  0  0  0
  -31.0700  -16.2550   19.5920 C   0  0  0  0  0  0  0  0  0  0  0  0
  -32.5300  -17.8090   19.3720 N   0  0  0  0  0  0  0  0  0  0  0  0
  -32.3720  -16.4630   19.4520 N   0  0  0  0  0  0  0  0  0  0  0  0
  -30.5630  -14.8770   19.5630 C   0  0  0  0  0  0  0  0  0  0  0  0
  -30.9950  -13.9120   20.4980 C   0  0  0  0  0  3  0  0  0  0  0  0
  -30.4800  -12.5980   20.4620 C   0  0  0  0  0  3  0  0  0  0  0  0
  -29.5190  -12.2390   19.4870 C   0  0  0  0  0  0  0  0  0  0  0  0
  -29.1110  -13.1980   18.5420 C   0  0  0  0  0  3  0  0  0  0  0  0
  -29.6300  -14.5030   18.5760 C   0  0  0  0  0  3  0  0  0  0  0  0
  -28.9810  -10.9820   19.3620 O   0  0  0  0  0  0  0  0  0  0  0  0
  -28.7720  -10.1760   20.4540 C   0  0  0  0  0  0  0  0  0  0  0  0
  -27.9070  -10.5510   21.5050 C   0  0  0  0  0  3  0  0  0  0  0  0
  -27.6670   -9.6610   22.5710 C   0  0  0  0  0  3  0  0  0  0  0  0
  -28.2850   -8.3960   22.5850 C   0  0  0  0  0  0  0  0  0  0  0  0
  -29.1450   -8.0190   21.5380 C   0  0  0  0  0  3  0  0  0  0  0  0
  -29.3830   -8.9060   20.4730 C   0  0  0  0  0  0  0  0  0  0  0  0
  -30.1930   -8.5300   19.4550 F   0  0  0  0  0  0  0  0  0  0  0  0
  -28.0500   -7.5360   23.6030 F   0  0  0  0  0  0  0  0  0  0  0  0
  -28.8930  -17.7020   19.8280 C   0  0  0  0  0  0  0  0  0  0  0  0
  -28.2170  -16.8110   20.5450 N   0  0  0  0  0  0  0  0  0  0  0  0
  -28.3340  -18.6790   19.3320 O   0  0  0  0  0  0  0  0  0  0  0  0
  -28.6810  -16.0230   20.9730 H   0  0  0  0  0  0  0  0  0  0  0  0
  -27.2200  -16.9180   20.6690 H   0  0  0  0  0  0  0  0  0  0  0  0
  -31.2600  -19.8650   19.5050 N   0  0  0  0  0  0  0  0  0  0  0  0
  -30.3760  -20.3600   19.5280 H   0  0  0  0  0  0  0  0  0  0  0  0
  -32.0350  -20.4560   19.2340 H   0  0  0  0  0  0  0  0  0  0  0  0
  -27.5820  -21.2940   19.1280 O   0  0  0  0  0  0  0  0  0  0  0  0
  -27.4660  -20.8510   17.7840 C   0  0  0  0  0  2  0  0  0  0  0  0
  -28.8060  -21.0710   17.0720 C   0  0  0  0  0  2  0  0  0  0  0  0
  -29.2850  -22.3710   17.3830 O   0  0  0  0  0  0  0  0  0  0  0  0
  -30.4940  -22.6960   16.7110 C   0  0  0  0  0  2  0  0  0  0  0  0
  -31.2150  -23.7890   17.5080 C   0  0  0  0  0  2  0  0  0  0  0  0
  -30.4070  -24.9600   17.5530 O   0  0  0  0  0  0  0  0  0  0  0  0
  -30.7070  -25.7830   18.6740 C   0  0  0  0  0  2  0  0  0  0  0  0
  -29.7250  -26.9580   18.7450 C   0  0  0  0  0  2  0  0  0  0  0  0
  -28.4030  -26.4280   18.6820 O   0  0  0  0  0  0  0  0  0  0  0  0
  -25.1000  -30.7520   23.3150 C   0  0  0  0  0  0  0  0  0  0  0  0
  -27.3330  -27.2320   19.0040 C   0  0  0  0  0  0  0  0  0  0  0  0
  -23.7320  -29.9300   21.4210 C   0  0  0  0  0  3  0  0  0  0  0  0
  -25.0210  -28.7660   19.5550 C   0  0  0  0  0  0  0  0  0  0  0  0
  -26.2600  -30.2060   21.1840 C   0  0  0  0  0  2  0  0  0  0  0  0
  -26.2310  -29.0600   20.1950 C   0  0  0  0  0  0  0  0  0  0  0  0
  -27.3870  -28.3050   19.9240 C   0  0  0  0  0  3  0  0  0  0  0  0
  -26.1050  -26.9330   18.3790 C   0  0  0  0  0  3  0  0  0  0  0  0
  -24.9490  -27.6970   18.6430 C   0  0  0  0  0  3  0  0  0  0  0  0
  -23.8390  -29.6420   19.8980 C   0  0  0  0  0  2  0  0  0  0  0  0
  -25.0520  -30.2910   22.0330 N   0  0  0  0  0  0  0  0  0  0  0  0
  -24.0640  -30.9240   23.9720 O   0  0  0  0  0  0  0  0  0  0  0  0
  -23.0490  -28.7240   22.1020 C   0  0  0  0  0  0  0  0  0  0  0  0
  -21.7190  -28.6300   21.9540 N   0  0  0  0  0  0  0  0  0  0  0  0
  -23.7140  -27.8860   22.7190 O   0  0  0  0  0  0  0  0  0  0  0  0
  -21.2480  -29.3620   21.4410 H   0  0  0  0  0  0  0  0  0  0  0  0
  -18.3180  -27.4230   22.0820 C   0  0  0  0  0  0  0  0  0  0  0  0
  -20.8690  -27.5600   22.4730 C   0  0  0  0  0  3  0  0  0  0  0  0
  -20.9690  -26.2930   21.5920 C   0  0  0  0  0  2  0  0  0  0  0  0
  -19.8930  -26.2310   20.5020 C   0  0  0  0  0  2  0  0  0  0  0  0
  -18.4950  -26.2560   21.1270 C   0  0  0  0  0  2  0  0  0  0  0  0
  -19.4340  -28.0460   22.7030 C   0  0  0  0  0  0  0  0  0  0  0  0
  -19.2160  -29.1510   23.5550 C   0  0  0  0  0  3  0  0  0  0  0  0
  -17.9140  -29.6300   23.7940 C   0  0  0  0  0  3  0  0  0  0  0  0
  -16.8130  -29.0000   23.1910 C   0  0  0  0  0  3  0  0  0  0  0  0
  -17.0140  -27.8980   22.3410 C   0  0  0  0  0  3  0  0  0  0  0  0
  -26.4530  -31.1070   24.0080 C   0  0  0  0  0  3  0  0  0  0  0  0
  -26.9300  -30.0140   25.0420 C   0  0  1  0  0  0  0  0  0  0  0  0
  -25.8490  -29.6210   26.0740 C   0  0  0  0  0  1  0  0  0  0  0  0
  -27.3720  -28.7270   24.3060 C   0  0  0  0  0  1  0  0  0  0  0  0
  -28.1660  -30.5280   25.8160 C   0  0  0  0  0  1  0  0  0  0  0  0
  -26.2830  -32.4080   24.6680 N   0  0  0  0  0  0  0  0  0  0  0  0
  -26.7580  -33.5680   24.1940 C   0  0  0  0  0  0  0  0  0  0  0  0
  -27.4560  -33.6410   23.1790 O   0  0  0  0  0  0  0  0  0  0  0  0
  -25.6760  -32.4310   25.4750 H   0  0  0  0  0  0  0  0  0  0  0  0
  -25.2850  -35.6050   24.2300 C   0  0  0  0  0  1  0  0  0  0  0  0
  -26.4020  -34.8510   24.9690 C   0  0  0  0  0  3  0  0  0  0  0  0
  -28.5530  -35.2050   26.0980 C   0  0  0  0  0  1  0  0  0  0  0  0
  -27.5560  -35.7500   25.1810 N   0  0  0  0  0  0  0  0  0  0  0  0
  -27.2500  -36.6490   25.5420 H   0  0  0  0  0  0  0  0  0  0  0  0
  1  2  1  0
  2  3  1  0
  3  4  1  0
  4  5  1  0
  5  6  1  0
  6  7  1  0
  7  8  1  0
  9  8  1  0
 10  9  1  0
 11 10  1  0
 12 11  1  0
 13 12  1  0
 14 23  1  0
 14 13  1  0
 15 23  1  0
 16 21  1  0
 17 18  1  0
 17 16  1  0
 19 18  1  0
 19 28  1  0
 19 20  1  0
 21 15  1  0
 21 20  1  0
 22 15  2  0
 23 24  1  0
 25 26  2  0
 26 45  1  0
 27 26  1  0
 28 29  1  0
 28 25  1  0
 29 27  2  0
 30 27  1  0
 30 31  1  0
 32 31  2  0
 33 32  1  0
 34 35  1  0
 34 33  2  0
 35 30  2  0
 36 33  1  0
 36 37  1  0
 37 42  2  0
 37 38  1  0
 38 39  2  0
 39 40  1  0
 40 44  1  0
 41 40  2  0
 42 41  1  0
 43 42  1  0
 45 46  1  0
 46 49  1  0
 46 48  1  0
 47 45  2  0
 50 51  1  0
 50 25  1  0
 52 50  1  0
 53  1  1  0
 54 53  1  0
 55 56  1  0
 55 54  1  0
 57 56  1  0
 57 58  1  0
 58 59  1  0
 59 60  1  0
 60 61  1  0
 62 61  1  0
 62 64  1  0
 63 74  2  0
 64 69  1  0
 65 73  1  0
 65 75  1  0
 66 72  1  0
 66 68  1  0
 67 73  1  0
 68 67  1  0
 69 68  2  0
 70 71  1  0
 70 64  2  0
 71 66  2  0
 72 65  1  0
 73 63  1  0
 75 77  2  0
 76 75  1  0
 78 76  1  0
 79 88  2  0
 79 84  1  0
 80 76  1  0
 80 84  1  0
 81 80  1  0
 82 83  1  0
 82 81  1  0
 83 79  1  0
 84 85  2  0
 85 86  1  0
 87 86  2  0
 88 87  1  0
 89 63  1  0
 89 94  1  0
 89 90  1  0
 90 93  1  1
 90 91  1  0
 92 90  1  0
 94 97  1  0
 95 94  1  0
 95 99  1  0
 96 95  2  0
 99 98  1  0
 99101  1  0
101102  1  0
101100  1  0
M  ISO  4  15 100  23 100  61 101  62 101
M  END
>  <TORSDO>  (23) 
F 38

>  <SCORE>  (23) 
2.613

>  <name>  (23) 
24

>  <ligand_id>  (23) 
24

>  <original_smiles>  (23) 
[H]c1c([H])c([H])c2c(c1[H])C([H])([H])C([H])([H])C([H])([H])C2([H])N([H])C(=O)C1([H])N(C(=O)C([H])(N([H])C(=O)C([H])(N([H])C([H])([H])[H])C([H])([H])[H])C(C([H])([H])[H])(C([H])([H])[H])C([H])([H])[H])C([H])([H])c2c([H])c(OC([H])([H])C([H])([H])OC([H])([H])C([H])([H])OC([H])([H])C([H])([H])OC([H])([H])C([H])([H])OC([H])([H])C([H])([H])OC([H])([H])C([H])([H])OC([H])([H])C([H])([H])OC([H])([H])C([H])([H])N([H])C(=O)N3C([H])([H])C([H])([H])C([H])([H])C([H])(n4nc(-c5c([H])c([H])c(Oc6c([H])c([H])c(F)c([H])c6F)c([H])c5[H])c(C(=O)N([H])[H])c4N([H])[H])C3([H])[H])c([H])c([H])c2C1([H])[H]

>  <smiles>  (23) 
[H]c1c([H])c([H])c2c(c1[H])C([H])([H])C([H])([H])C([H])([H])C2([H])N([H])C(=O)C1([H])N(C(=O)C([H])(N([H])C(=O)C([H])(N([H])C([H])([H])[H])C([H])([H])[H])C(C([H])([H])[H])(C([H])([H])[H])C([H])([H])[H])C([H])([H])c2c([H])c(OC([H])([H])C([H])([H])OC([H])([H])C([H])([H])OC([H])([H])C([H])([H])OC([H])([H])C([H])([H])OC([H])([H])C([H])([H])OC([H])([H])C([H])([H])OC([H])([H])C([H])([H])OC([H])([H])C([H])([H])N([H])C(=O)N3C([H])([H])C([H])([H])C([H])([H])C([H])(n4nc(-c5c([H])c([H])c(Oc6c([H])c([H])c(F)c([H])c6F)c([H])c5[H])c(C(=O)N([H])[H])c4N([H])[H])C3([H])[H])c([H])c([H])c2C1([H])[H]

$$$$
26:0:0
     RDKit          3D

107114  0  0  1  0  0  0  0  0999 V2000
  -28.7870  -23.1440   19.3840 C   0  0  0  0  0  0  0  0  0  0  0  0
  -27.5430  -23.6400   19.4410 N   0  0  0  0  0  0  0  0  0  0  0  0
  -29.4350  -22.8230   20.3780 O   0  0  0  0  0  0  0  0  0  0  0  0
  -27.1090  -23.8780   18.5610 H   0  0  0  0  0  0  0  0  0  0  0  0
  -26.8050  -24.0060   20.6510 C   0  0  0  0  0  2  0  0  0  0  0  0
  -26.9170  -22.9700   21.7900 C   0  0  0  0  0  2  0  0  0  0  0  0
  -28.2280  -22.9070   22.3310 O   0  0  0  0  0  0  0  0  0  0  0  0
  -28.6060  -24.0630   23.0750 C   0  0  0  0  0  2  0  0  0  0  0  0
  -30.1390  -24.1220   23.1300 C   0  0  0  0  0  2  0  0  0  0  0  0
  -30.6470  -24.5140   21.8600 O   0  0  0  0  0  0  0  0  0  0  0  0
  -30.7420  -25.9200   21.6730 C   0  0  0  0  0  2  0  0  0  0  0  0
  -30.8760  -26.2240   20.1740 C   0  0  0  0  0  2  0  0  0  0  0  0
  -29.5890  -26.4860   19.6310 O   0  0  0  0  0  0  0  0  0  0  0  0
  -29.5990  -26.6870   18.2230 C   0  0  0  0  0  2  0  0  0  0  0  0
  -28.5620  -27.7610   17.8800 C   0  0  0  0  0  2  0  0  0  0  0  0
  -27.2460  -27.2020   17.8550 O   0  0  0  0  0  0  0  0  0  0  0  0
  -24.3400  -31.5290   22.7630 C   0  0  0  0  0  0  0  0  0  0  0  0
  -26.1680  -27.9300   18.3230 C   0  0  0  0  0  0  0  0  0  0  0  0
  -22.7630  -30.4490   21.1870 C   0  0  0  0  0  3  0  0  0  0  0  0
  -23.8290  -29.2850   19.1830 C   0  0  0  0  0  0  0  0  0  0  0  0
  -25.1700  -30.9430   20.4930 C   0  0  0  0  0  2  0  0  0  0  0  0
  -25.0900  -29.7320   19.5900 C   0  0  0  0  0  0  0  0  0  0  0  0
  -26.2560  -29.0670   19.1640 C   0  0  0  0  0  3  0  0  0  0  0  0
  -24.8880  -27.4960   17.9200 C   0  0  0  0  0  3  0  0  0  0  0  0
  -23.7190  -28.1600   18.3470 C   0  0  0  0  0  3  0  0  0  0  0  0
  -22.6370  -30.0680   19.6860 C   0  0  0  0  0  2  0  0  0  0  0  0
  -24.1220  -30.9760   21.5370 N   0  0  0  0  0  0  0  0  0  0  0  0
  -23.4200  -31.6480   23.5830 O   0  0  0  0  0  0  0  0  0  0  0  0
  -22.3350  -29.2360   22.0410 C   0  0  0  0  0  0  0  0  0  0  0  0
  -21.0210  -28.9600   22.0660 N   0  0  0  0  0  0  0  0  0  0  0  0
  -23.1730  -28.5500   22.6330 O   0  0  0  0  0  0  0  0  0  0  0  0
  -20.4010  -29.5780   21.5620 H   0  0  0  0  0  0  0  0  0  0  0  0
  -17.8720  -27.2650   22.5830 C   0  0  0  0  0  0  0  0  0  0  0  0
  -20.3870  -27.8420   22.7650 C   0  0  0  0  0  3  0  0  0  0  0  0
  -20.6430  -26.5060   22.0270 C   0  0  0  0  0  2  0  0  0  0  0  0
  -19.5320  -26.1380   21.0380 C   0  0  0  0  0  2  0  0  0  0  0  0
  -18.1850  -26.0280   21.7580 C   0  0  0  0  0  2  0  0  0  0  0  0
  -18.9060  -28.1250   23.0420 C   0  0  0  0  0  0  0  0  0  0  0  0
  -18.5590  -29.2820   23.7730 C   0  0  0  0  0  3  0  0  0  0  0  0
  -17.2110  -29.5810   24.0530 C   0  0  0  0  0  3  0  0  0  0  0  0
  -16.1940  -28.7140   23.6150 C   0  0  0  0  0  3  0  0  0  0  0  0
  -16.5250  -27.5590   22.8840 C   0  0  0  0  0  3  0  0  0  0  0  0
  -25.7490  -32.0550   23.1880 C   0  0  0  0  0  3  0  0  0  0  0  0
  -26.5410  -31.0410   24.0990 C   0  0  1  0  0  0  0  0  0  0  0  0
  -25.7320  -30.5390   25.3160 C   0  0  0  0  0  1  0  0  0  0  0  0
  -26.9820  -29.8070   23.2770 C   0  0  0  0  0  1  0  0  0  0  0  0
  -27.8340  -31.7090   24.6250 C   0  0  0  0  0  1  0  0  0  0  0  0
  -25.5560  -33.3330   23.8800 N   0  0  0  0  0  0  0  0  0  0  0  0
  -25.7700  -34.5340   23.3270 C   0  0  0  0  0  0  0  0  0  0  0  0
  -26.2240  -34.6760   22.1880 O   0  0  0  0  0  0  0  0  0  0  0  0
  -25.1380  -33.2930   24.7980 H   0  0  0  0  0  0  0  0  0  0  0  0
  -24.0690  -36.3410   23.7070 C   0  0  0  0  0  1  0  0  0  0  0  0
  -25.4200  -35.7740   24.1700 C   0  0  0  0  0  3  0  0  0  0  0  0
  -27.6960  -36.4570   24.7800 C   0  0  0  0  0  1  0  0  0  0  0  0
  -26.4520  -36.8310   24.1140 N   0  0  0  0  0  0  0  0  0  0  0  0
  -26.1110  -37.6890   24.5370 H   0  0  0  0  0  0  0  0  0  0  0  0
  -29.4160  -22.9880   17.9920 C   0  0  0  0  0  2  0  0  0  0  0  0
  -29.4680  -21.6070   17.6290 O   0  0  0  0  0  0  0  0  0  0  0  0
  -28.3970  -21.1890   16.7910 C   0  0  0  0  0  2  0  0  0  0  0  0
  -28.5350  -19.6850   16.4930 C   0  0  0  0  0  2  0  0  0  0  0  0
  -28.5090  -18.8760   17.6720 O   0  0  0  0  0  0  0  0  0  0  0  0
  -27.2870  -18.9340   18.4020 C   0  0  0  0  0  2  0  0  0  0  0  0
  -27.3610  -18.0840   19.6810 C   0  0  0  0  0  2  0  0  0  0  0  0
  -28.0280  -18.7380   20.7570 O   0  0  0  0  0  0  0  0  0  0  0  0
  -29.4390  -18.5690   20.7920 C   0  0  0  0  0  2  0  0  0  0  0  0
  -29.8370  -17.2620   21.5160 C   0  0  0  0  0  2  0  0  0  0  0  0
  -31.2380  -17.1100   21.7450 O   0  0  0  0  0  0  0  0  0  0  0  0
  -32.0870  -17.0460   20.5990 C   0  0  0  0  0  2  0  0  0  0  0  0
  -31.6970  -15.9790   19.5610 C   0  0  0  0  0  2  0  0  0  0  0  0
  -31.8340  -13.5390   19.9770 C   0  0  0  0  0  0  0  0  0  0  0  0
  -31.3460  -11.1440   19.7290 C   0  0  0  0  0  2  0  0  0  0  0  0
  -30.4220  -10.9530   18.5100 C   0  0  0  0  0  2  0  0  0  0  0  0
  -28.9430  -11.0950   18.9200 C   0  0  0  0  0  2  0  0  0  0  0  0
  -28.6760  -12.3740   19.7610 C   0  0  0  0  0  3  0  0  0  0  0  0
  -29.7150  -12.5170   20.8960 C   0  0  0  0  0  2  0  0  0  0  0  0
  -31.0630  -12.4680   20.2980 N   0  0  0  0  0  0  0  0  0  0  0  0
  -32.9260  -13.4460   19.4120 O   0  0  0  0  0  0  0  0  0  0  0  0
  -31.2680  -14.7290   20.1850 N   0  0  0  0  0  0  0  0  0  0  0  0
  -30.3810  -14.7340   20.6640 H   0  0  0  0  0  0  0  0  0  0  0  0
  -26.4850  -13.4790   20.5380 C   0  0  0  0  0  0  0  0  0  0  0  0
  -25.2860  -12.9570   20.9370 C   0  0  0  0  0  0  0  0  0  0  0  0
  -25.4350  -11.5380   20.8660 C   0  0  0  0  0  0  0  0  0  0  0  0
  -27.3080  -12.3960   20.2720 N   0  0  0  0  0  0  0  0  0  0  0  0
  -26.6760  -11.2200   20.5190 N   0  0  0  0  0  0  0  0  0  0  0  0
  -24.4520  -10.4660   21.0550 C   0  0  0  0  0  0  0  0  0  0  0  0
  -24.7190   -9.3540   21.8850 C   0  0  0  0  0  3  0  0  0  0  0  0
  -23.7470   -8.3460   22.0630 C   0  0  0  0  0  3  0  0  0  0  0  0
  -22.4940   -8.4460   21.4140 C   0  0  0  0  0  0  0  0  0  0  0  0
  -22.2430   -9.5420   20.5690 C   0  0  0  0  0  3  0  0  0  0  0  0
  -23.2130  -10.5420   20.3880 C   0  0  0  0  0  3  0  0  0  0  0  0
  -21.5000   -7.5010   21.5090 O   0  0  0  0  0  0  0  0  0  0  0  0
  -21.4370   -6.6280   22.5660 C   0  0  0  0  0  0  0  0  0  0  0  0
  -21.3200   -7.0790   23.8980 C   0  0  0  0  0  3  0  0  0  0  0  0
  -21.1880   -6.1470   24.9470 C   0  0  0  0  0  3  0  0  0  0  0  0
  -21.1630   -4.7680   24.6660 C   0  0  0  0  0  0  0  0  0  0  0  0
  -21.2740   -4.3170   23.3380 C   0  0  0  0  0  3  0  0  0  0  0  0
  -21.4070   -5.2460   22.2910 C   0  0  0  0  0  0  0  0  0  0  0  0
  -21.4920   -4.8060   21.0120 F   0  0  0  0  0  0  0  0  0  0  0  0
  -21.0270   -3.8740   25.6730 F   0  0  0  0  0  0  0  0  0  0  0  0
  -24.0400  -13.7290   21.2650 C   0  0  0  0  0  0  0  0  0  0  0  0
  -23.2130  -13.2040   22.1620 N   0  0  0  0  0  0  0  0  0  0  0  0
  -23.8170  -14.8290   20.7610 O   0  0  0  0  0  0  0  0  0  0  0  0
  -23.4040  -12.3100   22.5880 H   0  0  0  0  0  0  0  0  0  0  0  0
  -22.3770  -13.7030   22.4290 H   0  0  0  0  0  0  0  0  0  0  0  0
  -26.9340  -14.7800   20.3520 N   0  0  0  0  0  0  0  0  0  0  0  0
  -26.2940  -15.5640   20.4220 H   0  0  0  0  0  0  0  0  0  0  0  0
  -27.8060  -15.0070   19.8950 H   0  0  0  0  0  0  0  0  0  0  0  0
  1  2  1  0
  1  3  2  0
  2  5  1  0
  4  2  1  0
  5  6  1  0
  6  7  1  0
  7  8  1  0
  8  9  1  0
 10  9  1  0
 11 10  1  0
 12 11  1  0
 13 12  1  0
 14 13  1  0
 15 14  1  0
 16 15  1  0
 16 18  1  0
 17 28  2  0
 18 23  1  0
 19 27  1  0
 19 29  1  0
 20 22  1  0
 20 26  1  0
 21 27  1  0
 22 21  1  0
 23 22  2  0
 24 18  2  0
 24 25  1  0
 25 20  2  0
 26 19  1  0
 27 17  1  0
 29 30  1  0
 29 31  2  0
 32 30  1  0
 33 42  2  0
 33 38  1  0
 34 30  1  0
 34 38  1  0
 35 34  1  0
 36 37  1  0
 36 35  1  0
 37 33  1  0
 38 39  2  0
 39 40  1  0
 41 40  2  0
 42 41  1  0
 43 17  1  0
 43 48  1  0
 43 44  1  0
 44 47  1  1
 44 45  1  0
 46 44  1  0
 48 51  1  0
 49 48  1  0
 49 53  1  0
 50 49  2  0
 53 52  1  0
 55 53  1  0
 55 56  1  0
 55 54  1  0
 57  1  1  0
 58 57  1  0
 59 58  1  0
 60 59  1  0
 60 61  1  0
 61 62  1  0
 62 63  1  0
 63 64  1  0
 64 65  1  0
 65 66  1  0
 66 67  1  0
 68 67  1  0
 69 78  1  0
 69 68  1  0
 70 78  1  0
 70 76  1  0
 71 76  1  0
 72 73  1  0
 72 71  1  0
 74 73  1  0
 74 83  1  0
 74 75  1  0
 76 75  1  0
 77 70  2  0
 78 79  1  0
 80 81  2  0
 81100  1  0
 82 81  1  0
 82 85  1  0
 83 84  1  0
 83 80  1  0
 84 82  2  0
 85 86  1  0
 86 87  2  0
 88 91  1  0
 88 87  1  0
 89 88  2  0
 90 89  1  0
 90 85  2  0
 91 92  1  0
 92 93  1  0
 93 94  2  0
 95 94  1  0
 95 99  1  0
 96 95  2  0
 97 92  2  0
 97 96  1  0
 98 97  1  0
100101  1  0
101104  1  0
101103  1  0
102100  2  0
105106  1  0
105 80  1  0
107105  1  0
M  ISO  4  15 101  16 101  70 100  78 100
M  END
>  <TORSDO>  (24) 
F 40

>  <SCORE>  (24) 
-6.213

>  <name>  (24) 
26

>  <ligand_id>  (24) 
26

>  <original_smiles>  (24) 
[H]c1c([H])c([H])c2c(c1[H])C([H])([H])C([H])([H])C([H])([H])C2([H])N([H])C(=O)C1([H])N(C(=O)C([H])(N([H])C(=O)C([H])(N([H])C([H])([H])[H])C([H])([H])[H])C(C([H])([H])[H])(C([H])([H])[H])C([H])([H])[H])C([H])([H])c2c([H])c(OC([H])([H])C([H])([H])OC([H])([H])C([H])([H])OC([H])([H])C([H])([H])OC([H])([H])C([H])([H])N([H])C(=O)C([H])([H])OC([H])([H])C([H])([H])OC([H])([H])C([H])([H])OC([H])([H])C([H])([H])OC([H])([H])C([H])([H])N([H])C(=O)N3C([H])([H])C([H])([H])C([H])([H])C([H])(n4nc(-c5c([H])c([H])c(Oc6c([H])c([H])c(F)c([H])c6F)c([H])c5[H])c(C(=O)N([H])[H])c4N([H])[H])C3([H])[H])c([H])c([H])c2C1([H])[H]

>  <smiles>  (24) 
[H]c1c([H])c([H])c2c(c1[H])C([H])([H])C([H])([H])C([H])([H])C2([H])N([H])C(=O)C1([H])N(C(=O)C([H])(N([H])C(=O)C([H])(N([H])C([H])([H])[H])C([H])([H])[H])C(C([H])([H])[H])(C([H])([H])[H])C([H])([H])[H])C([H])([H])c2c([H])c(OC([H])([H])C([H])([H])OC([H])([H])C([H])([H])OC([H])([H])C([H])([H])OC([H])([H])C([H])([H])N([H])C(=O)C([H])([H])OC([H])([H])C([H])([H])OC([H])([H])C([H])([H])OC([H])([H])C([H])([H])OC([H])([H])C([H])([H])N([H])C(=O)N3C([H])([H])C([H])([H])C([H])([H])C([H])(n4nc(-c5c([H])c([H])c(Oc6c([H])c([H])c(F)c([H])c6F)c([H])c5[H])c(C(=O)N([H])[H])c4N([H])[H])C3([H])[H])c([H])c([H])c2C1([H])[H]

$$$$
27:0:0
     RDKit          3D

 96103  0  0  1  0  0  0  0  0999 V2000
  -23.6270  -23.5610   23.8160 C   0  0  0  0  0  2  0  0  0  0  0  0
  -23.2910  -24.6590   22.9650 O   0  0  0  0  0  0  0  0  0  0  0  0
  -24.3950  -25.4510   22.5370 C   0  0  0  0  0  2  0  0  0  0  0  0
  -24.8300  -25.0720   21.1150 C   0  0  0  0  0  2  0  0  0  0  0  0
  -26.0530  -25.7260   20.8190 O   0  0  0  0  0  0  0  0  0  0  0  0
  -26.7990  -25.0740   19.7990 C   0  0  0  0  0  2  0  0  0  0  0  0
  -27.7360  -26.0700   19.0930 C   0  0  0  0  0  2  0  0  0  0  0  0
  -27.0220  -26.8020   18.0990 O   0  0  0  0  0  0  0  0  0  0  0  0
  -24.9810  -31.4750   23.0820 C   0  0  0  0  0  0  0  0  0  0  0  0
  -26.0640  -27.6510   18.5830 C   0  0  0  0  0  0  0  0  0  0  0  0
  -23.2240  -30.7090   21.5140 C   0  0  0  0  0  3  0  0  0  0  0  0
  -24.0440  -29.3880   19.4940 C   0  0  0  0  0  0  0  0  0  0  0  0
  -25.6780  -30.7590   20.8020 C   0  0  0  0  0  2  0  0  0  0  0  0
  -25.3720  -29.5880   19.8900 C   0  0  0  0  0  0  0  0  0  0  0  0
  -26.3880  -28.7200   19.4440 C   0  0  0  0  0  3  0  0  0  0  0  0
  -24.7280  -27.4560   18.1830 C   0  0  0  0  0  3  0  0  0  0  0  0
  -23.7130  -28.3190   18.6420 C   0  0  0  0  0  3  0  0  0  0  0  0
  -23.0220  -30.3740   20.0120 C   0  0  0  0  0  2  0  0  0  0  0  0
  -24.6590  -30.9790   21.8540 N   0  0  0  0  0  0  0  0  0  0  0  0
  -24.1040  -31.7550   23.9110 O   0  0  0  0  0  0  0  0  0  0  0  0
  -22.5910  -29.5850   22.3650 C   0  0  0  0  0  0  0  0  0  0  0  0
  -21.2500  -29.5200   22.3650 N   0  0  0  0  0  0  0  0  0  0  0  0
  -23.3000  -28.7800   22.9730 O   0  0  0  0  0  0  0  0  0  0  0  0
  -20.7410  -30.2250   21.8490 H   0  0  0  0  0  0  0  0  0  0  0  0
  -17.8690  -28.3520   22.8570 C   0  0  0  0  0  0  0  0  0  0  0  0
  -20.4400  -28.5240   23.0640 C   0  0  0  0  0  3  0  0  0  0  0  0
  -20.4910  -27.1610   22.3380 C   0  0  0  0  0  2  0  0  0  0  0  0
  -19.3450  -26.9590   21.3400 C   0  0  0  0  0  2  0  0  0  0  0  0
  -17.9890  -27.0740   22.0450 C   0  0  0  0  0  2  0  0  0  0  0  0
  -19.0190  -29.0410   23.3220 C   0  0  0  0  0  0  0  0  0  0  0  0
  -18.8550  -30.2430   24.0460 C   0  0  0  0  0  3  0  0  0  0  0  0
  -17.5690  -30.7490   24.3140 C   0  0  0  0  0  3  0  0  0  0  0  0
  -16.4320  -30.0570   23.8640 C   0  0  0  0  0  3  0  0  0  0  0  0
  -16.5830  -28.8630   23.1390 C   0  0  0  0  0  3  0  0  0  0  0  0
  -26.4650  -31.7380   23.4940 C   0  0  0  0  0  3  0  0  0  0  0  0
  -26.5290  -33.0770   24.0940 N   0  0  0  0  0  0  0  0  0  0  0  0
  -26.9630  -34.1760   23.4610 C   0  0  0  0  0  0  0  0  0  0  0  0
  -27.4300  -34.1520   22.3180 O   0  0  0  0  0  0  0  0  0  0  0  0
  -26.1170  -33.1800   25.0110 H   0  0  0  0  0  0  0  0  0  0  0  0
  -25.6420  -36.3000   23.7110 C   0  0  0  0  0  1  0  0  0  0  0  0
  -26.8630  -35.5150   24.2150 C   0  0  0  0  0  3  0  0  0  0  0  0
  -29.2350  -35.7870   24.7810 C   0  0  0  0  0  1  0  0  0  0  0  0
  -28.0780  -36.3490   24.0940 N   0  0  0  0  0  0  0  0  0  0  0  0
  -27.9120  -37.2800   24.4670 H   0  0  0  0  0  0  0  0  0  0  0  0
  -27.0380  -30.6530   24.4840 C   0  0  1  0  0  0  0  0  0  0  0  0
  -26.1400  -30.4030   25.7160 C   0  0  0  0  0  1  0  0  0  0  0  0
  -27.2330  -29.3040   23.7560 C   0  0  0  0  0  1  0  0  0  0  0  0
  -28.4340  -31.0890   24.9920 C   0  0  0  0  0  1  0  0  0  0  0  0
  -24.4460  -22.4720   23.0970 C   0  0  0  0  0  2  0  0  0  0  0  0
  -25.4800  -23.0590   22.3220 O   0  0  0  0  0  0  0  0  0  0  0  0
  -26.4100  -22.1240   21.7940 C   0  0  0  0  0  2  0  0  0  0  0  0
  -26.9940  -22.7070   20.4980 C   0  0  0  0  0  2  0  0  0  0  0  0
  -28.1460  -21.9860   20.0940 O   0  0  0  0  0  0  0  0  0  0  0  0
  -28.6020  -22.3830   18.8030 C   0  0  0  0  0  2  0  0  0  0  0  0
  -29.8270  -21.5350   18.4450 C   0  0  0  0  0  2  0  0  0  0  0  0
  -29.4060  -20.1820   18.3190 O   0  0  0  0  0  0  0  0  0  0  0  0
  -30.1140  -19.2700   19.1470 C   0  0  0  0  0  2  0  0  0  0  0  0
  -29.6490  -17.8660   18.7350 C   0  0  0  0  0  2  0  0  0  0  0  0
  -30.6810  -15.9390   19.9030 C   0  0  0  0  0  0  0  0  0  0  0  0
  -30.9940  -13.5110   20.1520 C   0  0  0  0  0  2  0  0  0  0  0  0
  -30.3260  -12.8060   18.9520 C   0  0  0  0  0  2  0  0  0  0  0  0
  -28.8280  -12.5540   19.2240 C   0  0  0  0  0  2  0  0  0  0  0  0
  -28.0930  -13.8120   19.7570 C   0  0  0  0  0  3  0  0  0  0  0  0
  -28.8940  -14.4700   20.9050 C   0  0  0  0  0  2  0  0  0  0  0  0
  -30.2560  -14.7540   20.4150 N   0  0  0  0  0  0  0  0  0  0  0  0
  -31.8020  -16.1150   19.4180 O   0  0  0  0  0  0  0  0  0  0  0  0
  -29.7270  -16.8730   19.8040 N   0  0  0  0  0  0  0  0  0  0  0  0
  -28.8660  -16.6720   20.2900 H   0  0  0  0  0  0  0  0  0  0  0  0
  -25.6370  -14.3520   20.3220 C   0  0  0  0  0  0  0  0  0  0  0  0
  -24.5780  -13.5510   20.6560 C   0  0  0  0  0  0  0  0  0  0  0  0
  -25.0850  -12.2170   20.6800 C   0  0  0  0  0  0  0  0  0  0  0  0
  -26.7220  -13.5020   20.1650 N   0  0  0  0  0  0  0  0  0  0  0  0
  -26.3890  -12.2140   20.4340 N   0  0  0  0  0  0  0  0  0  0  0  0
  -24.3940  -10.9340   20.8650 C   0  0  0  0  0  0  0  0  0  0  0  0
  -24.7510  -10.0450   21.9040 C   0  0  0  0  0  3  0  0  0  0  0  0
  -24.0590   -8.8270   22.0710 C   0  0  0  0  0  3  0  0  0  0  0  0
  -22.9970   -8.4870   21.2000 C   0  0  0  0  0  0  0  0  0  0  0  0
  -22.6600   -9.3660   20.1560 C   0  0  0  0  0  3  0  0  0  0  0  0
  -23.3530  -10.5750   19.9860 C   0  0  0  0  0  3  0  0  0  0  0  0
  -22.2870   -7.3130   21.2710 O   0  0  0  0  0  0  0  0  0  0  0  0
  -22.0370   -6.6940   22.4690 C   0  0  0  0  0  0  0  0  0  0  0  0
  -21.3580   -7.3480   23.5190 C   0  0  0  0  0  3  0  0  0  0  0  0
  -21.0580   -6.6520   24.7070 C   0  0  0  0  0  3  0  0  0  0  0  0
  -21.4320   -5.3020   24.8450 C   0  0  0  0  0  0  0  0  0  0  0  0
  -22.1050   -4.6450   23.7990 C   0  0  0  0  0  3  0  0  0  0  0  0
  -22.4030   -5.3410   22.6130 C   0  0  0  0  0  0  0  0  0  0  0  0
  -23.0330   -4.6970   21.6010 F   0  0  0  0  0  0  0  0  0  0  0  0
  -21.1390   -4.6300   25.9840 F   0  0  0  0  0  0  0  0  0  0  0  0
  -23.1530  -13.9870   20.8510 C   0  0  0  0  0  0  0  0  0  0  0  0
  -22.4120  -13.2930   21.7080 N   0  0  0  0  0  0  0  0  0  0  0  0
  -22.7020  -14.9770   20.2790 O   0  0  0  0  0  0  0  0  0  0  0  0
  -22.7860  -12.4950   22.1970 H   0  0  0  0  0  0  0  0  0  0  0  0
  -21.4540  -13.5650   21.8770 H   0  0  0  0  0  0  0  0  0  0  0  0
  -25.7640  -15.7250   20.1220 N   0  0  0  0  0  0  0  0  0  0  0  0
  -24.9690  -16.3540   20.1780 H   0  0  0  0  0  0  0  0  0  0  0  0
  -26.6190  -16.1880   19.8390 H   0  0  0  0  0  0  0  0  0  0  0  0
  2  1  1  0
  3  2  1  0
  4  3  1  0
  5  4  1  0
  6  5  1  0
  7  6  1  0
  8 10  1  0
  8  7  1  0
  9 20  2  0
 10 15  1  0
 11 19  1  0
 11 21  1  0
 12 14  1  0
 12 18  1  0
 13 19  1  0
 14 13  1  0
 15 14  2  0
 16 10  2  0
 16 17  1  0
 17 12  2  0
 18 11  1  0
 19  9  1  0
 21 22  1  0
 21 23  2  0
 24 22  1  0
 25 34  2  0
 25 30  1  0
 26 22  1  0
 26 30  1  0
 27 26  1  0
 28 29  1  0
 28 27  1  0
 29 25  1  0
 30 31  2  0
 31 32  1  0
 33 32  2  0
 34 33  1  0
 35  9  1  0
 35 36  1  0
 35 45  1  0
 36 39  1  0
 37 36  1  0
 37 41  1  0
 38 37  2  0
 41 40  1  0
 43 41  1  0
 43 44  1  0
 43 42  1  0
 45 48  1  1
 45 46  1  0
 47 45  1  0
 49  1  1  0
 50 49  1  0
 51 50  1  0
 52 51  1  0
 53 52  1  0
 54 53  1  0
 55 54  1  0
 56 55  1  0
 56 57  1  0
 58 57  1  0
 58 67  1  0
 59 65  1  0
 60 65  1  0
 61 62  1  0
 61 60  1  0
 63 62  1  0
 63 72  1  0
 63 64  1  0
 65 64  1  0
 66 59  2  0
 67 59  1  0
 67 68  1  0
 69 70  2  0
 70 71  1  0
 70 89  1  0
 71 74  1  0
 72 69  1  0
 72 73  1  0
 73 71  2  0
 74 75  1  0
 75 76  2  0
 77 80  1  0
 77 76  1  0
 78 77  2  0
 79 78  1  0
 79 74  2  0
 80 81  1  0
 81 86  2  0
 81 82  1  0
 82 83  2  0
 83 84  1  0
 84 88  1  0
 85 84  2  0
 86 85  1  0
 87 86  1  0
 89 90  1  0
 90 93  1  0
 90 92  1  0
 91 89  2  0
 94 95  1  0
 94 69  1  0
 96 94  1  0
M  ISO  4   7 101   8 101  59 100  67 100
M  END
>  <TORSDO>  (25) 
F 32

>  <SCORE>  (25) 
-4.596

>  <name>  (25) 
27

>  <ligand_id>  (25) 
27

>  <original_smiles>  (25) 
[H]c1c([H])c([H])c2c(c1[H])C([H])([H])C([H])([H])C([H])([H])C2([H])N([H])C(=O)C1([H])N(C(=O)C([H])(N([H])C(=O)C([H])(N([H])C([H])([H])[H])C([H])([H])[H])C(C([H])([H])[H])(C([H])([H])[H])C([H])([H])[H])C([H])([H])c2c([H])c(OC([H])([H])C([H])([H])OC([H])([H])C([H])([H])OC([H])([H])C([H])([H])OC([H])([H])C([H])([H])OC([H])([H])C([H])([H])OC([H])([H])C([H])([H])N([H])C(=O)N3C([H])([H])C([H])([H])C([H])([H])C([H])(n4nc(-c5c([H])c([H])c(Oc6c([H])c([H])c(F)c([H])c6F)c([H])c5[H])c(C(=O)N([H])[H])c4N([H])[H])C3([H])[H])c([H])c([H])c2C1([H])[H]

>  <smiles>  (25) 
[H]c1c([H])c([H])c2c(c1[H])C([H])([H])C([H])([H])C([H])([H])C2([H])N([H])C(=O)C1([H])N(C(=O)C([H])(N([H])C(=O)C([H])(N([H])C([H])([H])[H])C([H])([H])[H])C(C([H])([H])[H])(C([H])([H])[H])C([H])([H])[H])C([H])([H])c2c([H])c(OC([H])([H])C([H])([H])OC([H])([H])C([H])([H])OC([H])([H])C([H])([H])OC([H])([H])C([H])([H])OC([H])([H])C([H])([H])OC([H])([H])C([H])([H])N([H])C(=O)N3C([H])([H])C([H])([H])C([H])([H])C([H])(n4nc(-c5c([H])c([H])c(Oc6c([H])c([H])c(F)c([H])c6F)c([H])c5[H])c(C(=O)N([H])[H])c4N([H])[H])C3([H])[H])c([H])c([H])c2C1([H])[H]

$$$$
28:0:0
     RDKit          3D

101108  0  0  1  0  0  0  0  0999 V2000
  -28.7010  -26.3360   16.3100 C   0  0  0  0  0  2  0  0  0  0  0  0
  -28.2080  -25.0290   16.5870 O   0  0  0  0  0  0  0  0  0  0  0  0
  -26.7880  -24.9730   16.6480 C   0  0  0  0  0  2  0  0  0  0  0  0
  -26.3090  -23.5150   16.5640 C   0  0  0  0  0  2  0  0  0  0  0  0
  -26.4600  -22.8310   17.8050 O   0  0  0  0  0  0  0  0  0  0  0  0
  -25.8360  -21.5490   17.7550 C   0  0  0  0  0  2  0  0  0  0  0  0
  -26.1060  -20.7250   19.0210 C   0  0  0  0  0  2  0  0  0  0  0  0
  -27.4590  -20.2880   19.0260 O   0  0  0  0  0  0  0  0  0  0  0  0
  -27.7060  -19.2710   19.9910 C   0  0  0  0  0  2  0  0  0  0  0  0
  -29.1870  -18.8820   19.9300 C   0  0  0  0  0  2  0  0  0  0  0  0
  -29.4580  -17.8100   20.8230 O   0  0  0  0  0  0  0  0  0  0  0  0
  -30.8490  -17.5200   20.8990 C   0  0  0  0  0  2  0  0  0  0  0  0
  -31.0730  -16.3020   21.8110 C   0  0  0  0  0  2  0  0  0  0  0  0
  -30.8170  -14.3460   20.2840 C   0  0  0  0  0  0  0  0  0  0  0  0
  -30.3550  -12.3410   18.9230 C   0  0  0  0  0  2  0  0  0  0  0  0
  -29.3830  -12.6550   17.7710 C   0  0  0  0  0  2  0  0  0  0  0  0
  -27.9210  -12.5340   18.2420 C   0  0  0  0  0  2  0  0  0  0  0  0
  -27.6540  -13.3120   19.5570 C   0  0  0  0  0  3  0  0  0  0  0  0
  -28.7260  -12.9740   20.6150 C   0  0  0  0  0  2  0  0  0  0  0  0
  -30.0550  -13.2510   20.0370 N   0  0  0  0  0  0  0  0  0  0  0  0
  -31.8330  -14.6300   19.6430 O   0  0  0  0  0  0  0  0  0  0  0  0
  -30.4090  -15.1010   21.3090 N   0  0  0  0  0  0  0  0  0  0  0  0
  -29.5680  -14.8080   21.7810 H   0  0  0  0  0  0  0  0  0  0  0  0
  -25.2690  -13.9590   20.2830 C   0  0  0  0  0  0  0  0  0  0  0  0
  -24.1990  -13.2040   20.6850 C   0  0  0  0  0  0  0  0  0  0  0  0
  -24.6500  -11.8490   20.6760 C   0  0  0  0  0  0  0  0  0  0  0  0
  -26.3030  -13.0630   20.0580 N   0  0  0  0  0  0  0  0  0  0  0  0
  -25.9340  -11.7910   20.3490 N   0  0  0  0  0  0  0  0  0  0  0  0
  -23.9160  -10.5970   20.9060 C   0  0  0  0  0  0  0  0  0  0  0  0
  -24.3620   -9.6400   21.8450 C   0  0  0  0  0  3  0  0  0  0  0  0
  -23.6310   -8.4520   22.0600 C   0  0  0  0  0  3  0  0  0  0  0  0
  -22.4390   -8.2120   21.3370 C   0  0  0  0  0  0  0  0  0  0  0  0
  -22.0110   -9.1560   20.3870 C   0  0  0  0  0  3  0  0  0  0  0  0
  -22.7430  -10.3350   20.1700 C   0  0  0  0  0  3  0  0  0  0  0  0
  -21.6780   -7.0750   21.4610 O   0  0  0  0  0  0  0  0  0  0  0  0
  -21.6530   -6.3490   22.6250 C   0  0  0  0  0  0  0  0  0  0  0  0
  -21.2900   -6.9300   23.8600 C   0  0  0  0  0  3  0  0  0  0  0  0
  -21.2120   -6.1310   25.0180 C   0  0  0  0  0  3  0  0  0  0  0  0
  -21.4850   -4.7530   24.9420 C   0  0  0  0  0  0  0  0  0  0  0  0
  -21.8410   -4.1710   23.7140 C   0  0  0  0  0  3  0  0  0  0  0  0
  -21.9220   -4.9660   22.5570 C   0  0  0  0  0  0  0  0  0  0  0  0
  -22.2440   -4.3970   21.3710 F   0  0  0  0  0  0  0  0  0  0  0  0
  -21.4020   -3.9830   26.0530 F   0  0  0  0  0  0  0  0  0  0  0  0
  -22.8100  -13.6990   20.9690 C   0  0  0  0  0  0  0  0  0  0  0  0
  -22.0960  -13.0340   21.8710 N   0  0  0  0  0  0  0  0  0  0  0  0
  -22.3670  -14.7110   20.4280 O   0  0  0  0  0  0  0  0  0  0  0  0
  -22.4660  -12.2160   22.3320 H   0  0  0  0  0  0  0  0  0  0  0  0
  -21.1650  -13.3480   22.1060 H   0  0  0  0  0  0  0  0  0  0  0  0
  -25.4440  -15.3240   20.0750 N   0  0  0  0  0  0  0  0  0  0  0  0
  -24.6910  -15.9920   20.1900 H   0  0  0  0  0  0  0  0  0  0  0  0
  -26.3090  -15.7480   19.7660 H   0  0  0  0  0  0  0  0  0  0  0  0
  -30.2310  -26.3360   16.4430 C   0  0  0  0  0  2  0  0  0  0  0  0
  -30.5370  -26.4690   17.8200 O   0  0  0  0  0  0  0  0  0  0  0  0
  -31.7820  -25.9060   18.2100 C   0  0  0  0  0  2  0  0  0  0  0  0
  -31.9250  -26.0410   19.7350 C   0  0  0  0  0  0  0  0  0  0  0  0
  -31.0340  -25.4560   20.5530 N   0  0  0  0  0  0  0  0  0  0  0  0
  -32.8630  -26.6870   20.2040 O   0  0  0  0  0  0  0  0  0  0  0  0
  -31.1730  -25.5980   21.5440 H   0  0  0  0  0  0  0  0  0  0  0  0
  -29.8460  -24.6900   20.1790 C   0  0  0  0  0  2  0  0  0  0  0  0
  -28.5500  -25.4250   20.5610 C   0  0  0  0  0  2  0  0  0  0  0  0
  -28.6070  -26.8000   20.1730 O   0  0  0  0  0  0  0  0  0  0  0  0
  -24.7250  -31.9130   23.2370 C   0  0  0  0  0  0  0  0  0  0  0  0
  -27.4160  -27.4890   20.1880 C   0  0  0  0  0  0  0  0  0  0  0  0
  -23.5360  -30.4910   21.5990 C   0  0  0  0  0  3  0  0  0  0  0  0
  -25.0050  -28.9620   20.1900 C   0  0  0  0  0  0  0  0  0  0  0  0
  -26.0580  -30.8760   21.4060 C   0  0  0  0  0  2  0  0  0  0  0  0
  -26.1570  -29.5030   20.7750 C   0  0  0  0  0  0  0  0  0  0  0  0
  -27.3660  -28.7760   20.7670 C   0  0  0  0  0  3  0  0  0  0  0  0
  -26.2460  -26.9600   19.5980 C   0  0  0  0  0  3  0  0  0  0  0  0
  -25.0440  -27.6890   19.5980 C   0  0  0  0  0  3  0  0  0  0  0  0
  -23.7560  -29.8100   20.2230 C   0  0  0  0  0  2  0  0  0  0  0  0
  -24.7910  -31.1090   22.1400 N   0  0  0  0  0  0  0  0  0  0  0  0
  -23.6400  -32.1770   23.7740 O   0  0  0  0  0  0  0  0  0  0  0  0
  -22.8930  -29.4680   22.5630 C   0  0  0  0  0  0  0  0  0  0  0  0
  -21.5700  -29.2800   22.4400 N   0  0  0  0  0  0  0  0  0  0  0  0
  -23.5810  -28.8460   23.3770 O   0  0  0  0  0  0  0  0  0  0  0  0
  -21.0750  -29.8350   21.7560 H   0  0  0  0  0  0  0  0  0  0  0  0
  -18.2000  -28.0690   22.9350 C   0  0  0  0  0  0  0  0  0  0  0  0
  -20.7560  -28.3400   23.2120 C   0  0  0  0  0  3  0  0  0  0  0  0
  -20.8690  -26.9070   22.6420 C   0  0  0  0  0  2  0  0  0  0  0  0
  -19.7690  -26.5740   21.6280 C   0  0  0  0  0  2  0  0  0  0  0  0
  -18.3860  -26.7160   22.2680 C   0  0  0  0  0  2  0  0  0  0  0  0
  -19.3140  -28.8380   23.3640 C   0  0  0  0  0  0  0  0  0  0  0  0
  -19.0890  -30.1040   23.9470 C   0  0  0  0  0  3  0  0  0  0  0  0
  -17.7830  -30.6020   24.1060 C   0  0  0  0  0  3  0  0  0  0  0  0
  -16.6820  -29.8310   23.6920 C   0  0  0  0  0  3  0  0  0  0  0  0
  -16.8920  -28.5660   23.1140 C   0  0  0  0  0  3  0  0  0  0  0  0
  -26.0050  -32.5590   23.8550 C   0  0  0  0  0  3  0  0  0  0  0  0
  -25.6720  -33.9460   24.2080 N   0  0  0  0  0  0  0  0  0  0  0  0
  -25.9740  -35.0140   23.4590 C   0  0  0  0  0  0  0  0  0  0  0  0
  -26.6350  -34.9360   22.4190 O   0  0  0  0  0  0  0  0  0  0  0  0
  -25.0880  -34.0780   25.0210 H   0  0  0  0  0  0  0  0  0  0  0  0
  -24.2000  -36.7690   23.1510 C   0  0  0  0  0  1  0  0  0  0  0  0
  -25.4630  -36.3850   23.9390 C   0  0  0  0  0  3  0  0  0  0  0  0
  -27.5940  -37.3070   24.7390 C   0  0  0  0  0  1  0  0  0  0  0  0
  -26.4690  -37.4620   23.8200 N   0  0  0  0  0  0  0  0  0  0  0  0
  -26.0450  -38.3710   23.9880 H   0  0  0  0  0  0  0  0  0  0  0  0
  -26.5470  -31.7790   25.1150 C   0  0  1  0  0  0  0  0  0  0  0  0
  -25.4700  -31.5100   26.1910 C   0  0  0  0  0  1  0  0  0  0  0  0
  -27.1510  -30.4200   24.6930 C   0  0  0  0  0  1  0  0  0  0  0  0
  -27.6910  -32.5840   25.7780 C   0  0  0  0  0  1  0  0  0  0  0  0
  1 52  1  0
  1  2  1  0
  2  3  1  0
  4  3  1  0
  4  5  1  0
  6  5  1  0
  6  7  1  0
  7  8  1  0
  8  9  1  0
 10  9  1  0
 10 11  1  0
 11 12  1  0
 12 13  1  0
 14 22  1  0
 15 20  1  0
 16 17  1  0
 16 15  1  0
 18 17  1  0
 18 27  1  0
 18 19  1  0
 20 14  1  0
 20 19  1  0
 21 14  2  0
 22 23  1  0
 22 13  1  0
 24 25  2  0
 25 44  1  0
 26 25  1  0
 26 29  1  0
 27 24  1  0
 27 28  1  0
 28 26  2  0
 29 30  1  0
 30 31  2  0
 32 35  1  0
 32 31  1  0
 33 32  2  0
 34 33  1  0
 34 29  2  0
 35 36  1  0
 36 37  1  0
 37 38  2  0
 39 38  1  0
 39 43  1  0
 40 39  2  0
 41 36  2  0
 41 40  1  0
 42 41  1  0
 44 45  1  0
 45 48  1  0
 45 47  1  0
 46 44  2  0
 49 50  1  0
 49 24  1  0
 51 49  1  0
 52 53  1  0
 53 54  1  0
 54 55  1  0
 55 57  2  0
 55 56  1  0
 56 58  1  0
 59 56  1  0
 59 60  1  0
 61 63  1  0
 61 60  1  0
 62 73  2  0
 63 68  1  0
 64 72  1  0
 64 74  1  0
 65 71  1  0
 65 67  1  0
 66 72  1  0
 67 66  1  0
 68 67  2  0
 69 70  1  0
 69 63  2  0
 70 65  2  0
 71 64  1  0
 72 62  1  0
 74 76  2  0
 75 74  1  0
 77 75  1  0
 78 87  2  0
 78 83  1  0
 79 75  1  0
 79 83  1  0
 80 79  1  0
 81 82  1  0
 81 80  1  0
 82 78  1  0
 83 84  2  0
 84 85  1  0
 86 85  2  0
 87 86  1  0
 88 62  1  0
 88 89  1  0
 88 98  1  0
 89 92  1  0
 90 94  1  0
 90 89  1  0
 91 90  2  0
 94 93  1  0
 96 94  1  0
 96 97  1  0
 96 95  1  0
 98101  1  1
 98 99  1  0
100 98  1  0
M  ISO  4  14 100  22 100  60 101  61 101
M  END
>  <TORSDO>  (26) 
F 34

>  <SCORE>  (26) 
-9.299

>  <name>  (26) 
28

>  <ligand_id>  (26) 
28

>  <original_smiles>  (26) 
[H]c1c([H])c([H])c2c(c1[H])C([H])([H])C([H])([H])C([H])([H])C2([H])N([H])C(=O)C1([H])N(C(=O)C([H])(N([H])C(=O)C([H])(N([H])C([H])([H])[H])C([H])([H])[H])C(C([H])([H])[H])(C([H])([H])[H])C([H])([H])[H])C([H])([H])c2c([H])c(OC([H])([H])C([H])([H])N([H])C(=O)C([H])([H])OC([H])([H])C([H])([H])OC([H])([H])C([H])([H])OC([H])([H])C([H])([H])OC([H])([H])C([H])([H])OC([H])([H])C([H])([H])N([H])C(=O)N3C([H])([H])C([H])([H])C([H])([H])C([H])(n4nc(-c5c([H])c([H])c(Oc6c([H])c([H])c(F)c([H])c6F)c([H])c5[H])c(C(=O)N([H])[H])c4N([H])[H])C3([H])[H])c([H])c([H])c2C1([H])[H]

>  <smiles>  (26) 
[H]c1c([H])c([H])c2c(c1[H])C([H])([H])C([H])([H])C([H])([H])C2([H])N([H])C(=O)C1([H])N(C(=O)C([H])(N([H])C(=O)C([H])(N([H])C([H])([H])[H])C([H])([H])[H])C(C([H])([H])[H])(C([H])([H])[H])C([H])([H])[H])C([H])([H])c2c([H])c(OC([H])([H])C([H])([H])N([H])C(=O)C([H])([H])OC([H])([H])C([H])([H])OC([H])([H])C([H])([H])OC([H])([H])C([H])([H])OC([H])([H])C([H])([H])OC([H])([H])C([H])([H])N([H])C(=O)N3C([H])([H])C([H])([H])C([H])([H])C([H])(n4nc(-c5c([H])c([H])c(Oc6c([H])c([H])c(F)c([H])c6F)c([H])c5[H])c(C(=O)N([H])[H])c4N([H])[H])C3([H])[H])c([H])c([H])c2C1([H])[H]

$$$$
30:0:0
     RDKit          3D

111118  0  0  1  0  0  0  0  0999 V2000
  -35.6540  -18.7150   19.8190 C   0  0  0  0  0  0  0  0  0  0  0  0
  -36.0270  -19.7560   19.0700 N   0  0  0  0  0  0  0  0  0  0  0  0
  -35.6410  -17.5590   19.3840 O   0  0  0  0  0  0  0  0  0  0  0  0
  -36.0120  -20.6720   19.4960 H   0  0  0  0  0  0  0  0  0  0  0  0
  -36.4360  -19.6770   17.6720 C   0  0  0  0  0  2  0  0  0  0  0  0
  -35.2170  -19.6270   16.7300 C   0  0  0  0  0  2  0  0  0  0  0  0
  -34.3180  -20.7150   16.9380 O   0  0  0  0  0  0  0  0  0  0  0  0
  -34.8280  -21.9780   16.5180 C   0  0  0  0  0  2  0  0  0  0  0  0
  -33.6920  -23.0060   16.4730 C   0  0  0  0  0  2  0  0  0  0  0  0
  -33.3460  -23.3920   17.7960 O   0  0  0  0  0  0  0  0  0  0  0  0
  -32.3570  -24.4120   17.8250 C   0  0  0  0  0  2  0  0  0  0  0  0
  -31.9970  -24.7150   19.2830 C   0  0  0  0  0  2  0  0  0  0  0  0
  -31.0410  -25.7670   19.3360 O   0  0  0  0  0  0  0  0  0  0  0  0
  -30.5970  -26.0150   20.6650 C   0  0  0  0  0  2  0  0  0  0  0  0
  -29.5560  -27.1400   20.6860 C   0  0  0  0  0  2  0  0  0  0  0  0
  -28.3790  -26.6950   20.0220 O   0  0  0  0  0  0  0  0  0  0  0  0
  -24.6080  -31.8710   23.2130 C   0  0  0  0  0  0  0  0  0  0  0  0
  -27.2500  -27.4800   20.0900 C   0  0  0  0  0  0  0  0  0  0  0  0
  -23.3920  -30.4920   21.5540 C   0  0  0  0  0  3  0  0  0  0  0  0
  -24.8420  -28.9620   20.1180 C   0  0  0  0  0  0  0  0  0  0  0  0
  -25.9130  -30.8540   21.3550 C   0  0  0  0  0  2  0  0  0  0  0  0
  -25.9960  -29.4890   20.7090 C   0  0  0  0  0  0  0  0  0  0  0  0
  -27.2010  -28.7580   20.6980 C   0  0  0  0  0  3  0  0  0  0  0  0
  -26.0770  -26.9590   19.5050 C   0  0  0  0  0  3  0  0  0  0  0  0
  -24.8740  -27.6920   19.5160 C   0  0  0  0  0  3  0  0  0  0  0  0
  -23.5970  -29.8190   20.1690 C   0  0  0  0  0  2  0  0  0  0  0  0
  -24.6560  -31.0850   22.1010 N   0  0  0  0  0  0  0  0  0  0  0  0
  -23.5290  -32.1440   23.7570 O   0  0  0  0  0  0  0  0  0  0  0  0
  -22.7360  -29.4660   22.5040 C   0  0  0  0  0  0  0  0  0  0  0  0
  -21.4100  -29.3010   22.3770 N   0  0  0  0  0  0  0  0  0  0  0  0
  -23.4160  -28.8210   23.3060 O   0  0  0  0  0  0  0  0  0  0  0  0
  -20.9240  -29.8740   21.7010 H   0  0  0  0  0  0  0  0  0  0  0  0
  -18.0250  -28.1350   22.8500 C   0  0  0  0  0  0  0  0  0  0  0  0
  -20.5840  -28.3620   23.1340 C   0  0  0  0  0  3  0  0  0  0  0  0
  -20.6730  -26.9360   22.5420 C   0  0  0  0  0  2  0  0  0  0  0  0
  -19.5720  -26.6370   21.5210 C   0  0  0  0  0  2  0  0  0  0  0  0
  -18.1890  -26.7910   22.1620 C   0  0  0  0  0  2  0  0  0  0  0  0
  -19.1500  -28.8810   23.2910 C   0  0  0  0  0  0  0  0  0  0  0  0
  -18.9440  -30.1420   23.8910 C   0  0  0  0  0  3  0  0  0  0  0  0
  -17.6450  -30.6570   24.0560 C   0  0  0  0  0  3  0  0  0  0  0  0
  -16.5330  -29.9080   23.6330 C   0  0  0  0  0  3  0  0  0  0  0  0
  -16.7240  -28.6490   23.0360 C   0  0  0  0  0  3  0  0  0  0  0  0
  -25.8990  -32.4830   23.8410 C   0  0  0  0  0  3  0  0  0  0  0  0
  -25.5870  -33.8630   24.2340 N   0  0  0  0  0  0  0  0  0  0  0  0
  -25.9020  -34.9480   23.5140 C   0  0  0  0  0  0  0  0  0  0  0  0
  -26.5590  -34.8930   22.4700 O   0  0  0  0  0  0  0  0  0  0  0  0
  -25.0000  -33.9810   25.0470 H   0  0  0  0  0  0  0  0  0  0  0  0
  -24.1470  -36.7320   23.2640 C   0  0  0  0  0  1  0  0  0  0  0  0
  -25.4090  -36.3120   24.0340 C   0  0  0  0  0  3  0  0  0  0  0  0
  -27.5570  -37.1810   24.8460 C   0  0  0  0  0  1  0  0  0  0  0  0
  -26.4280  -37.3810   23.9420 N   0  0  0  0  0  0  0  0  0  0  0  0
  -26.0170  -38.2880   24.1440 H   0  0  0  0  0  0  0  0  0  0  0  0
  -26.4450  -31.6600   25.0720 C   0  0  1  0  0  0  0  0  0  0  0  0
  -25.3740  -31.3690   26.1480 C   0  0  0  0  0  1  0  0  0  0  0  0
  -27.0270  -30.3060   24.6050 C   0  0  0  0  0  1  0  0  0  0  0  0
  -27.6020  -32.4320   25.7500 C   0  0  0  0  0  1  0  0  0  0  0  0
  -35.2160  -19.0190   21.2540 C   0  0  0  0  0  2  0  0  0  0  0  0
  -35.1440  -17.2770   23.0320 C   0  0  0  0  0  0  0  0  0  0  0  0
  -34.7070  -17.8120   21.8920 N   0  0  0  0  0  0  0  0  0  0  0  0
  -36.0350  -17.7760   23.7180 O   0  0  0  0  0  0  0  0  0  0  0  0
  -34.0340  -17.2850   21.3520 H   0  0  0  0  0  0  0  0  0  0  0  0
  -34.4440  -16.0030   23.4850 C   0  0  0  0  0  2  0  0  0  0  0  0
  -33.3900  -16.3340   24.5470 C   0  0  0  0  0  2  0  0  0  0  0  0
  -32.6550  -15.0830   25.0470 C   0  0  0  0  0  2  0  0  0  0  0  0
  -31.6170  -15.4480   25.9430 O   0  0  0  0  0  0  0  0  0  0  0  0
  -30.4100  -15.8290   25.2980 C   0  0  0  0  0  2  0  0  0  0  0  0
  -29.7400  -16.9190   26.1520 C   0  0  0  0  0  2  0  0  0  0  0  0
  -28.9720  -17.7810   25.3270 O   0  0  0  0  0  0  0  0  0  0  0  0
  -29.7460  -18.7530   24.6300 C   0  0  0  0  0  2  0  0  0  0  0  0
  -29.0570  -19.0250   23.2890 C   0  0  0  0  0  2  0  0  0  0  0  0
  -29.1720  -17.9090   22.4090 O   0  0  0  0  0  0  0  0  0  0  0  0
  -30.4310  -17.8280   21.7530 C   0  0  0  0  0  2  0  0  0  0  0  0
  -30.3100  -16.8750   20.5660 C   0  0  0  0  0  2  0  0  0  0  0  0
  -30.7210  -14.4400   20.5550 C   0  0  0  0  0  0  0  0  0  0  0  0
  -30.4300  -12.2720   19.4460 C   0  0  0  0  0  2  0  0  0  0  0  0
  -29.5120  -12.4720   18.2240 C   0  0  0  0  0  2  0  0  0  0  0  0
  -28.0320  -12.3380   18.6340 C   0  0  0  0  0  2  0  0  0  0  0  0
  -27.6690  -13.2000   19.8770 C   0  0  0  0  0  3  0  0  0  0  0  0
  -28.7060  -12.9900   21.0050 C   0  0  0  0  0  2  0  0  0  0  0  0
  -30.0430  -13.2670   20.4560 N   0  0  0  0  0  0  0  0  0  0  0  0
  -31.8580  -14.6010   20.1090 O   0  0  0  0  0  0  0  0  0  0  0  0
  -30.0020  -15.4940   20.9620 N   0  0  0  0  0  0  0  0  0  0  0  0
  -29.0820  -15.3210   21.3410 H   0  0  0  0  0  0  0  0  0  0  0  0
  -25.2630  -13.8150   20.5680 C   0  0  0  0  0  0  0  0  0  0  0  0
  -24.1880  -13.0440   20.9190 C   0  0  0  0  0  0  0  0  0  0  0  0
  -24.6430  -11.6900   20.8760 C   0  0  0  0  0  0  0  0  0  0  0  0
  -26.3080  -12.9320   20.3370 N   0  0  0  0  0  0  0  0  0  0  0  0
  -25.9350  -11.6480   20.5790 N   0  0  0  0  0  0  0  0  0  0  0  0
  -23.9110  -10.4290   21.0420 C   0  0  0  0  0  0  0  0  0  0  0  0
  -24.3630   -9.4210   21.9210 C   0  0  0  0  0  3  0  0  0  0  0  0
  -23.6290   -8.2260   22.0770 C   0  0  0  0  0  3  0  0  0  0  0  0
  -22.4280   -8.0300   21.3560 C   0  0  0  0  0  0  0  0  0  0  0  0
  -21.9930   -9.0290   20.4670 C   0  0  0  0  0  3  0  0  0  0  0  0
  -22.7270  -10.2150   20.3080 C   0  0  0  0  0  3  0  0  0  0  0  0
  -21.6630   -6.8910   21.4260 O   0  0  0  0  0  0  0  0  0  0  0  0
  -21.6850   -6.0760   22.5290 C   0  0  0  0  0  0  0  0  0  0  0  0
  -21.4000   -6.5640   23.8230 C   0  0  0  0  0  3  0  0  0  0  0  0
  -21.3640   -5.6780   24.9180 C   0  0  0  0  0  3  0  0  0  0  0  0
  -21.6040   -4.3050   24.7230 C   0  0  0  0  0  0  0  0  0  0  0  0
  -21.8820   -3.8160   23.4350 C   0  0  0  0  0  3  0  0  0  0  0  0
  -21.9200   -4.6990   22.3410 C   0  0  0  0  0  0  0  0  0  0  0  0
  -22.1660   -4.2180   21.0990 F   0  0  0  0  0  0  0  0  0  0  0  0
  -21.5630   -3.4530   25.7740 F   0  0  0  0  0  0  0  0  0  0  0  0
  -22.7890  -13.5250   21.1820 C   0  0  0  0  0  0  0  0  0  0  0  0
  -22.0480  -12.8320   22.0360 N   0  0  0  0  0  0  0  0  0  0  0  0
  -22.3610  -14.5570   20.6660 O   0  0  0  0  0  0  0  0  0  0  0  0
  -22.3970  -11.9920   22.4770 H   0  0  0  0  0  0  0  0  0  0  0  0
  -21.1140  -13.1480   22.2570 H   0  0  0  0  0  0  0  0  0  0  0  0
  -25.4360  -15.1880   20.4070 N   0  0  0  0  0  0  0  0  0  0  0  0
  -24.6670  -15.8430   20.5060 H   0  0  0  0  0  0  0  0  0  0  0  0
  -26.2960  -15.6300   20.1060 H   0  0  0  0  0  0  0  0  0  0  0  0
  1 57  1  0
  2  4  1  0
  2  1  1  0
  3  1  2  0
  5  2  1  0
  6  7  1  0
  6  5  1  0
  8  7  1  0
  9  8  1  0
  9 10  1  0
 10 11  1  0
 11 12  1  0
 12 13  1  0
 13 14  1  0
 14 15  1  0
 16 18  1  0
 16 15  1  0
 17 28  2  0
 18 23  1  0
 19 27  1  0
 19 29  1  0
 20 26  1  0
 20 22  1  0
 21 27  1  0
 22 21  1  0
 23 22  2  0
 24 25  1  0
 24 18  2  0
 25 20  2  0
 26 19  1  0
 27 17  1  0
 29 31  2  0
 30 29  1  0
 32 30  1  0
 33 42  2  0
 33 38  1  0
 34 30  1  0
 34 38  1  0
 35 34  1  0
 36 37  1  0
 36 35  1  0
 37 33  1  0
 38 39  2  0
 39 40  1  0
 41 40  2  0
 42 41  1  0
 43 17  1  0
 43 44  1  0
 43 53  1  0
 44 47  1  0
 45 49  1  0
 45 44  1  0
 46 45  2  0
 49 48  1  0
 51 49  1  0
 51 52  1  0
 51 50  1  0
 53 56  1  1
 53 54  1  0
 55 53  1  0
 57 59  1  0
 58 62  1  0
 58 60  2  0
 59 58  1  0
 61 59  1  0
 62 63  1  0
 63 64  1  0
 64 65  1  0
 66 65  1  0
 66 67  1  0
 68 67  1  0
 69 68  1  0
 70 69  1  0
 71 70  1  0
 72 71  1  0
 73 82  1  0
 73 72  1  0
 74 82  1  0
 75 80  1  0
 76 77  1  0
 76 75  1  0
 78 77  1  0
 78 87  1  0
 78 79  1  0
 80 74  1  0
 80 79  1  0
 81 74  2  0
 82 83  1  0
 84 85  2  0
 85104  1  0
 86 85  1  0
 86 89  1  0
 87 84  1  0
 87 88  1  0
 88 86  2  0
 89 90  1  0
 90 91  2  0
 92 95  1  0
 92 91  1  0
 93 92  2  0
 94 93  1  0
 94 89  2  0
 95 96  1  0
 96 97  1  0
 97 98  2  0
 99 98  1  0
 99103  1  0
100 99  2  0
101 96  2  0
101100  1  0
102101  1  0
104105  1  0
105108  1  0
105107  1  0
106104  2  0
109110  1  0
109 84  1  0
111109  1  0
M  ISO  4  15 101  16 101  74 100  82 100
M  END
>  <TORSDO>  (27) 
F 41

>  <SCORE>  (27) 
33.449

>  <name>  (27) 
30

>  <ligand_id>  (27) 
30

>  <original_smiles>  (27) 
[H]c1c([H])c([H])c2c(c1[H])C([H])([H])C([H])([H])C([H])([H])C2([H])N([H])C(=O)C1([H])N(C(=O)C([H])(N([H])C(=O)C([H])(N([H])C([H])([H])[H])C([H])([H])[H])C(C([H])([H])[H])(C([H])([H])[H])C([H])([H])[H])C([H])([H])c2c([H])c(OC([H])([H])C([H])([H])OC([H])([H])C([H])([H])OC([H])([H])C([H])([H])OC([H])([H])C([H])([H])N([H])C(=O)C([H])([H])N([H])C(=O)C([H])([H])C([H])([H])C([H])([H])OC([H])([H])C([H])([H])OC([H])([H])C([H])([H])OC([H])([H])C([H])([H])N([H])C(=O)N3C([H])([H])C([H])([H])C([H])([H])C([H])(n4nc(-c5c([H])c([H])c(Oc6c([H])c([H])c(F)c([H])c6F)c([H])c5[H])c(C(=O)N([H])[H])c4N([H])[H])C3([H])[H])c([H])c([H])c2C1([H])[H]

>  <smiles>  (27) 
[H]c1c([H])c([H])c2c(c1[H])C([H])([H])C([H])([H])C([H])([H])C2([H])N([H])C(=O)C1([H])N(C(=O)C([H])(N([H])C(=O)C([H])(N([H])C([H])([H])[H])C([H])([H])[H])C(C([H])([H])[H])(C([H])([H])[H])C([H])([H])[H])C([H])([H])c2c([H])c(OC([H])([H])C([H])([H])OC([H])([H])C([H])([H])OC([H])([H])C([H])([H])OC([H])([H])C([H])([H])N([H])C(=O)C([H])([H])N([H])C(=O)C([H])([H])C([H])([H])C([H])([H])OC([H])([H])C([H])([H])OC([H])([H])C([H])([H])OC([H])([H])C([H])([H])N([H])C(=O)N3C([H])([H])C([H])([H])C([H])([H])C([H])(n4nc(-c5c([H])c([H])c(Oc6c([H])c([H])c(F)c([H])c6F)c([H])c5[H])c(C(=O)N([H])[H])c4N([H])[H])C3([H])[H])c([H])c([H])c2C1([H])[H]

$$$$
31:0:0
     RDKit          3D

104111  0  0  1  0  0  0  0  0999 V2000
  -26.7880  -18.5780   18.7050 C   0  0  0  0  0  2  0  0  0  0  0  0
  -27.4950  -17.5010   17.8630 C   0  0  0  0  0  2  0  0  0  0  0  0
  -28.6480  -18.0270   17.2290 O   0  0  0  0  0  0  0  0  0  0  0  0
  -28.3390  -18.8210   16.0940 C   0  0  0  0  0  2  0  0  0  0  0  0
  -29.5920  -19.6140   15.7460 C   0  0  0  0  0  2  0  0  0  0  0  0
  -29.7170  -20.6260   16.7340 O   0  0  0  0  0  0  0  0  0  0  0  0
  -30.8150  -21.4900   16.5150 C   0  0  0  0  0  2  0  0  0  0  0  0
  -30.9820  -22.4000   17.7420 C   0  0  0  0  0  2  0  0  0  0  0  0
  -31.6990  -21.7540   18.7900 O   0  0  0  0  0  0  0  0  0  0  0  0
  -30.9720  -20.7610   19.5120 C   0  0  0  0  0  2  0  0  0  0  0  0
  -31.6530  -19.3870   19.3760 C   0  0  0  0  0  2  0  0  0  0  0  0
  -31.5010  -18.6280   20.5790 O   0  0  0  0  0  0  0  0  0  0  0  0
  -31.2630  -17.2480   20.3200 C   0  0  0  0  0  2  0  0  0  0  0  0
  -31.0520  -16.4630   21.6290 C   0  0  0  0  0  2  0  0  0  0  0  0
  -31.1490  -14.1350   20.6690 C   0  0  0  0  0  0  0  0  0  0  0  0
  -30.6660  -12.1010   19.3540 C   0  0  0  0  0  2  0  0  0  0  0  0
  -29.7580  -12.4410   18.1560 C   0  0  0  0  0  2  0  0  0  0  0  0
  -28.2720  -12.4370   18.5580 C   0  0  0  0  0  2  0  0  0  0  0  0
  -27.9950  -13.2260   19.8670 C   0  0  0  0  0  3  0  0  0  0  0  0
  -29.0040  -12.8340   20.9690 C   0  0  0  0  0  2  0  0  0  0  0  0
  -30.3650  -13.0490   20.4380 N   0  0  0  0  0  0  0  0  0  0  0  0
  -32.2640  -14.2890   20.1700 O   0  0  0  0  0  0  0  0  0  0  0  0
  -30.5710  -15.0980   21.4020 N   0  0  0  0  0  0  0  0  0  0  0  0
  -29.6620  -14.8760   21.7730 H   0  0  0  0  0  0  0  0  0  0  0  0
  -25.6420  -14.0180   20.5490 C   0  0  0  0  0  0  0  0  0  0  0  0
  -24.4990  -13.3240   20.8510 C   0  0  0  0  0  0  0  0  0  0  0  0
  -24.8410  -11.9430   20.7640 C   0  0  0  0  0  0  0  0  0  0  0  0
  -26.6120  -13.0580   20.3040 N   0  0  0  0  0  0  0  0  0  0  0  0
  -26.1290  -11.8030   20.4840 N   0  0  0  0  0  0  0  0  0  0  0  0
  -24.0040  -10.7420   20.8790 C   0  0  0  0  0  0  0  0  0  0  0  0
  -24.3190   -9.7110   21.7870 C   0  0  0  0  0  3  0  0  0  0  0  0
  -23.4870   -8.5750   21.8970 C   0  0  0  0  0  3  0  0  0  0  0  0
  -22.3290   -8.4650   21.0930 C   0  0  0  0  0  0  0  0  0  0  0  0
  -22.0340   -9.4860   20.1720 C   0  0  0  0  0  3  0  0  0  0  0  0
  -22.8650  -10.6110   20.0610 C   0  0  0  0  0  3  0  0  0  0  0  0
  -21.4780   -7.3850   21.1080 O   0  0  0  0  0  0  0  0  0  0  0  0
  -21.3050   -6.6220   22.2350 C   0  0  0  0  0  0  0  0  0  0  0  0
  -20.8600   -7.1830   23.4510 C   0  0  0  0  0  3  0  0  0  0  0  0
  -20.6340   -6.3550   24.5690 C   0  0  0  0  0  3  0  0  0  0  0  0
  -20.8340   -4.9650   24.4670 C   0  0  0  0  0  0  0  0  0  0  0  0
  -21.2700   -4.4030   23.2540 C   0  0  0  0  0  3  0  0  0  0  0  0
  -21.5020   -5.2290   22.1400 C   0  0  0  0  0  0  0  0  0  0  0  0
  -21.9020   -4.6820   20.9650 F   0  0  0  0  0  0  0  0  0  0  0  0
  -20.6070   -4.1650   25.5350 F   0  0  0  0  0  0  0  0  0  0  0  0
  -23.1490  -13.9130   21.1220 C   0  0  0  0  0  0  0  0  0  0  0  0
  -22.3500  -13.2430   21.9490 N   0  0  0  0  0  0  0  0  0  0  0  0
  -22.8120  -14.9950   20.6470 O   0  0  0  0  0  0  0  0  0  0  0  0
  -22.6350  -12.3630   22.3520 H   0  0  0  0  0  0  0  0  0  0  0  0
  -21.4420  -13.6210   22.1800 H   0  0  0  0  0  0  0  0  0  0  0  0
  -25.9180  -15.3740   20.4590 N   0  0  0  0  0  0  0  0  0  0  0  0
  -25.1980  -16.0660   20.6480 H   0  0  0  0  0  0  0  0  0  0  0  0
  -26.8350  -15.7690   20.3050 H   0  0  0  0  0  0  0  0  0  0  0  0
  -27.6730  -19.0580   19.7130 O   0  0  0  0  0  0  0  0  0  0  0  0
  -27.0250  -19.9700   20.5920 C   0  0  0  0  0  2  0  0  0  0  0  0
  -27.9810  -20.4030   21.7060 C   0  0  0  0  0  2  0  0  0  0  0  0
  -28.7190  -21.5280   21.2470 O   0  0  0  0  0  0  0  0  0  0  0  0
  -29.6020  -22.0370   22.2370 C   0  0  0  0  0  2  0  0  0  0  0  0
  -30.2080  -23.3350   21.6840 C   0  0  0  0  0  2  0  0  0  0  0  0
  -29.1250  -24.1960   21.1530 N   0  0  0  0  0  4  0  0  0  0  0  0
  -28.6520  -23.6320   20.4630 H   0  0  0  0  0  0  0  0  0  0  0  0
  -28.4560  -24.3570   21.8930 H   0  0  0  0  0  0  0  0  0  0  0  0
  -29.5140  -25.4990   20.5520 C   0  0  0  0  0  2  0  0  0  0  0  0
  -28.3000  -26.1220   19.8370 C   0  0  0  0  0  2  0  0  0  0  0  0
  -28.4350  -27.5250   19.5240 O   0  0  0  0  0  0  0  0  0  0  0  0
  -24.4780  -31.9940   23.3400 C   0  0  0  0  0  0  0  0  0  0  0  0
  -27.2420  -28.2170   19.5780 C   0  0  0  0  0  0  0  0  0  0  0  0
  -23.2810  -30.7040   21.6060 C   0  0  0  0  0  3  0  0  0  0  0  0
  -24.7500  -29.5090   19.9010 C   0  0  0  0  0  0  0  0  0  0  0  0
  -25.7500  -31.3150   21.3090 C   0  0  0  0  0  2  0  0  0  0  0  0
  -25.9010  -30.0530   20.4860 C   0  0  0  0  0  0  0  0  0  0  0  0
  -27.1540  -29.4170   20.3180 C   0  0  0  0  0  3  0  0  0  0  0  0
  -26.0760  -27.7100   18.9560 C   0  0  0  0  0  3  0  0  0  0  0  0
  -24.8340  -28.3420   19.1280 C   0  0  0  0  0  3  0  0  0  0  0  0
  -23.4440  -30.2300   20.1390 C   0  0  0  0  0  2  0  0  0  0  0  0
  -24.5250  -31.3430   22.1450 N   0  0  0  0  0  0  0  0  0  0  0  0
  -23.4160  -32.1020   23.9700 O   0  0  0  0  0  0  0  0  0  0  0  0
  -22.7850  -29.5140   22.4570 C   0  0  0  0  0  0  0  0  0  0  0  0
  -21.4960  -29.1690   22.3080 N   0  0  0  0  0  0  0  0  0  0  0  0
  -23.5540  -28.9110   23.2110 O   0  0  0  0  0  0  0  0  0  0  0  0
  -20.9300  -29.7140   21.6720 H   0  0  0  0  0  0  0  0  0  0  0  0
  -18.3710  -27.3670   22.5130 C   0  0  0  0  0  0  0  0  0  0  0  0
  -20.8170  -28.0620   22.9810 C   0  0  0  0  0  3  0  0  0  0  0  0
  -21.2160  -26.7040   22.3580 C   0  0  0  0  0  2  0  0  0  0  0  0
  -20.2570  -26.2430   21.2550 C   0  0  0  0  0  2  0  0  0  0  0  0
  -18.8330  -26.1070   21.8040 C   0  0  0  0  0  2  0  0  0  0  0  0
  -19.3030  -28.2930   23.0530 C   0  0  0  0  0  0  0  0  0  0  0  0
  -18.8220  -29.4670   23.6710 C   0  0  0  0  0  3  0  0  0  0  0  0
  -17.4390  -29.7200   23.7580 C   0  0  0  0  0  3  0  0  0  0  0  0
  -16.5200  -28.7910   23.2380 C   0  0  0  0  0  3  0  0  0  0  0  0
  -16.9870  -27.6160   22.6220 C   0  0  0  0  0  3  0  0  0  0  0  0
  -25.7480  -32.6560   23.9600 C   0  0  0  0  0  3  0  0  0  0  0  0
  -26.3450  -31.8380   25.1680 C   0  0  1  0  0  0  0  0  0  0  0  0
  -25.3020  -31.4890   26.2560 C   0  0  0  0  0  1  0  0  0  0  0  0
  -26.9720  -30.5140   24.6720 C   0  0  0  0  0  1  0  0  0  0  0  0
  -27.4860  -32.6440   25.8320 C   0  0  0  0  0  1  0  0  0  0  0  0
  -25.3820  -34.0140   24.3780 N   0  0  0  0  0  0  0  0  0  0  0  0
  -25.6890  -35.1260   23.6990 C   0  0  0  0  0  0  0  0  0  0  0  0
  -26.3820  -35.1180   22.6770 O   0  0  0  0  0  0  0  0  0  0  0  0
  -24.7640  -34.0970   25.1730 H   0  0  0  0  0  0  0  0  0  0  0  0
  -23.9010  -36.8700   23.4250 C   0  0  0  0  0  1  0  0  0  0  0  0
  -25.1400  -36.4610   24.2360 C   0  0  0  0  0  3  0  0  0  0  0  0
  -27.2270  -37.3590   25.1670 C   0  0  0  0  0  1  0  0  0  0  0  0
  -26.1340  -37.5570   24.2180 N   0  0  0  0  0  0  0  0  0  0  0  0
  -25.6900  -38.4480   24.4260 H   0  0  0  0  0  0  0  0  0  0  0  0
  1 53  1  0
  2  1  1  0
  3  2  1  0
  4  3  1  0
  5  4  1  0
  5  6  1  0
  7  6  1  0
  7  8  1  0
  8  9  1  0
  9 10  1  0
 11 10  1  0
 11 12  1  0
 13 12  1  0
 13 14  1  0
 15 23  1  0
 16 21  1  0
 17 18  1  0
 17 16  1  0
 19 18  1  0
 19 28  1  0
 19 20  1  0
 21 15  1  0
 21 20  1  0
 22 15  2  0
 23 14  1  0
 23 24  1  0
 25 26  2  0
 26 45  1  0
 27 26  1  0
 27 30  1  0
 28 29  1  0
 28 25  1  0
 29 27  2  0
 30 31  1  0
 31 32  2  0
 33 36  1  0
 33 32  1  0
 34 33  2  0
 35 34  1  0
 35 30  2  0
 36 37  1  0
 37 38  1  0
 38 39  2  0
 40 39  1  0
 40 44  1  0
 41 40  2  0
 42 37  2  0
 42 41  1  0
 43 42  1  0
 45 46  1  0
 46 49  1  0
 46 48  1  0
 47 45  2  0
 50 25  1  0
 50 51  1  0
 52 50  1  0
 53 54  1  0
 54 55  1  0
 56 55  1  0
 56 57  1  0
 58 57  1  0
 59 58  1  0
 59 61  1  0
 60 59  1  0
 62 59  1  0
 63 62  1  0
 64 66  1  0
 64 63  1  0
 65 76  2  0
 66 71  1  0
 67 75  1  0
 67 77  1  0
 68 74  1  0
 68 70  1  0
 69 75  1  0
 70 69  1  0
 71 70  2  0
 72 73  1  0
 72 66  2  0
 73 68  2  0
 74 67  1  0
 75 65  1  0
 77 79  2  0
 78 77  1  0
 80 78  1  0
 81 90  2  0
 81 86  1  0
 82 78  1  0
 82 86  1  0
 83 82  1  0
 84 85  1  0
 84 83  1  0
 85 81  1  0
 86 87  2  0
 87 88  1  0
 89 88  2  0
 90 89  1  0
 91 65  1  0
 91 96  1  0
 91 92  1  0
 92 95  1  1
 92 93  1  0
 94 92  1  0
 96 99  1  0
 97101  1  0
 97 96  1  0
 98 97  2  0
101100  1  0
103101  1  0
103104  1  0
103102  1  0
M  ISO  4  15 100  23 100  63 101  64 101
M  END
>  <TORSDO>  (28) 
F 38

>  <SCORE>  (28) 
-6.063

>  <name>  (28) 
31

>  <ligand_id>  (28) 
31

>  <original_smiles>  (28) 
[H]c1c([H])c([H])c2c(c1[H])C([H])([H])C([H])([H])C([H])([H])C2([H])N([H])C(=O)C1([H])N(C(=O)C([H])(N([H])C(=O)C([H])(N([H])C([H])([H])[H])C([H])([H])[H])C(C([H])([H])[H])(C([H])([H])[H])C([H])([H])[H])C([H])([H])c2c([H])c(OC([H])([H])C([H])([H])[N+]([H])([H])C([H])([H])C([H])([H])OC([H])([H])C([H])([H])OC([H])([H])C([H])([H])OC([H])([H])C([H])([H])OC([H])([H])C([H])([H])OC([H])([H])C([H])([H])OC([H])([H])C([H])([H])N([H])C(=O)N3C([H])([H])C([H])([H])C([H])([H])C([H])(n4nc(-c5c([H])c([H])c(Oc6c([H])c([H])c(F)c([H])c6F)c([H])c5[H])c(C(=O)N([H])[H])c4N([H])[H])C3([H])[H])c([H])c([H])c2C1([H])[H]

>  <smiles>  (28) 
[H]c1c([H])c([H])c2c(c1[H])C([H])([H])C([H])([H])C([H])([H])C2([H])N([H])C(=O)C1([H])N(C(=O)C([H])(N([H])C(=O)C([H])(N([H])C([H])([H])[H])C([H])([H])[H])C(C([H])([H])[H])(C([H])([H])[H])C([H])([H])[H])C([H])([H])c2c([H])c(OC([H])([H])C([H])([H])[N+]([H])([H])C([H])([H])C([H])([H])OC([H])([H])C([H])([H])OC([H])([H])C([H])([H])OC([H])([H])C([H])([H])OC([H])([H])C([H])([H])OC([H])([H])C([H])([H])OC([H])([H])C([H])([H])N([H])C(=O)N3C([H])([H])C([H])([H])C([H])([H])C([H])(n4nc(-c5c([H])c([H])c(Oc6c([H])c([H])c(F)c([H])c6F)c([H])c5[H])c(C(=O)N([H])[H])c4N([H])[H])C3([H])[H])c([H])c([H])c2C1([H])[H]

$$$$
32:0:0
     RDKit          3D

102109  0  0  1  0  0  0  0  0999 V2000
  -24.2130  -21.9410   21.6780 C   0  0  0  0  0  2  0  0  0  0  0  0
  -24.0160  -23.3500   21.6110 O   0  0  0  0  0  0  0  0  0  0  0  0
  -24.5540  -24.0610   22.7290 C   0  0  0  0  0  2  0  0  0  0  0  0
  -25.8970  -24.7200   22.3950 C   0  0  0  0  0  0  0  0  0  0  0  0
  -26.6650  -25.0260   23.4510 N   0  0  0  0  0  0  0  0  0  0  0  0
  -26.2030  -24.9880   21.2300 O   0  0  0  0  0  0  0  0  0  0  0  0
  -26.3020  -24.7600   24.3570 H   0  0  0  0  0  0  0  0  0  0  0  0
  -27.8220  -25.9150   23.4510 C   0  0  0  0  0  2  0  0  0  0  0  0
  -29.0760  -25.3000   22.7850 C   0  0  0  0  0  2  0  0  0  0  0  0
  -30.1460  -26.3230   22.3450 C   0  0  0  0  0  2  0  0  0  0  0  0
  -29.9680  -26.7610   20.9990 O   0  0  0  0  0  0  0  0  0  0  0  0
  -25.0980  -31.5000   23.1200 C   0  0  0  0  0  0  0  0  0  0  0  0
  -28.7720  -27.3800   20.7550 C   0  0  0  0  0  0  0  0  0  0  0  0
  -24.3880  -29.9230   21.3500 C   0  0  0  0  0  3  0  0  0  0  0  0
  -26.2530  -28.5440   20.2810 C   0  0  0  0  0  0  0  0  0  0  0  0
  -26.8440  -30.5830   21.6030 C   0  0  0  0  0  2  0  0  0  0  0  0
  -27.2030  -29.2210   21.0540 C   0  0  0  0  0  0  0  0  0  0  0  0
  -28.4640  -28.6420   21.3010 C   0  0  0  0  0  3  0  0  0  0  0  0
  -27.8180  -26.7110   19.9620 C   0  0  0  0  0  3  0  0  0  0  0  0
  -26.5530  -27.2830   19.7340 C   0  0  0  0  0  3  0  0  0  0  0  0
  -24.9250  -29.2330   20.0650 C   0  0  0  0  0  2  0  0  0  0  0  0
  -25.4490  -30.6830   22.0860 N   0  0  0  0  0  0  0  0  0  0  0  0
  -23.9120  -31.6530   23.4380 O   0  0  0  0  0  0  0  0  0  0  0  0
  -23.6910  -28.8540   22.2200 C   0  0  0  0  0  0  0  0  0  0  0  0
  -22.4760  -28.4550   21.8090 N   0  0  0  0  0  0  0  0  0  0  0  0
  -24.2470  -28.3840   23.2140 O   0  0  0  0  0  0  0  0  0  0  0  0
  -22.0820  -28.9030   20.9940 H   0  0  0  0  0  0  0  0  0  0  0  0
  -19.2880  -26.7710   21.6180 C   0  0  0  0  0  0  0  0  0  0  0  0
  -21.6460  -27.4320   22.4440 C   0  0  0  0  0  3  0  0  0  0  0  0
  -22.0870  -26.0130   22.0110 C   0  0  0  0  0  2  0  0  0  0  0  0
  -21.3070  -25.4730   20.8070 C   0  0  0  0  0  2  0  0  0  0  0  0
  -19.8050  -25.4390   21.1040 C   0  0  0  0  0  2  0  0  0  0  0  0
  -20.1550  -27.7140   22.2320 C   0  0  0  0  0  0  0  0  0  0  0  0
  -19.6280  -28.9530   22.6610 C   0  0  0  0  0  3  0  0  0  0  0  0
  -18.2630  -29.2520   22.4920 C   0  0  0  0  0  3  0  0  0  0  0  0
  -17.4060  -28.3080   21.8990 C   0  0  0  0  0  3  0  0  0  0  0  0
  -17.9170  -27.0710   21.4670 C   0  0  0  0  0  3  0  0  0  0  0  0
  -26.1680  -32.2940   23.9330 C   0  0  0  0  0  3  0  0  0  0  0  0
  -25.6760  -33.6700   24.0900 N   0  0  0  0  0  0  0  0  0  0  0  0
  -26.0600  -34.7060   23.3340 C   0  0  0  0  0  0  0  0  0  0  0  0
  -26.9310  -34.6150   22.4640 O   0  0  0  0  0  0  0  0  0  0  0  0
  -24.9220  -33.8090   24.7480 H   0  0  0  0  0  0  0  0  0  0  0  0
  -24.2800  -36.2760   22.5060 C   0  0  0  0  0  1  0  0  0  0  0  0
  -25.3610  -36.0600   23.5760 C   0  0  0  0  0  3  0  0  0  0  0  0
  -27.1950  -37.2050   24.7360 C   0  0  0  0  0  1  0  0  0  0  0  0
  -26.2930  -37.2090   23.5870 N   0  0  0  0  0  0  0  0  0  0  0  0
  -25.7840  -38.0880   23.5860 H   0  0  0  0  0  0  0  0  0  0  0  0
  -26.4780  -31.6520   25.3390 C   0  0  1  0  0  0  0  0  0  0  0  0
  -25.2140  -31.2780   26.1450 C   0  0  0  0  0  1  0  0  0  0  0  0
  -27.3280  -30.3720   25.1740 C   0  0  0  0  0  1  0  0  0  0  0  0
  -27.3200  -32.6300   26.1910 C   0  0  0  0  0  1  0  0  0  0  0  0
  -24.9820  -21.4460   20.4400 C   0  0  0  0  0  2  0  0  0  0  0  0
  -26.3810  -21.3360   20.6830 O   0  0  0  0  0  0  0  0  0  0  0  0
  -27.1060  -21.0060   19.5000 C   0  0  0  0  0  2  0  0  0  0  0  0
  -28.5890  -20.7800   19.8270 C   0  0  0  0  0  2  0  0  0  0  0  0
  -29.1410  -21.9110   20.4860 O   0  0  0  0  0  0  0  0  0  0  0  0
  -30.4340  -21.6570   21.0240 C   0  0  0  0  0  2  0  0  0  0  0  0
  -30.2750  -21.0700   22.4380 C   0  0  0  0  0  2  0  0  0  0  0  0
  -29.6880  -19.7720   22.4250 O   0  0  0  0  0  0  0  0  0  0  0  0
  -30.4780  -18.7700   21.8000 C   0  0  0  0  0  2  0  0  0  0  0  0
  -29.9290  -17.3970   22.2130 C   0  0  0  0  0  2  0  0  0  0  0  0
  -30.7190  -16.3720   21.6240 O   0  0  0  0  0  0  0  0  0  0  0  0
  -30.8340  -15.2310   22.4680 C   0  0  0  0  0  2  0  0  0  0  0  0
  -31.8030  -14.2240   21.8320 C   0  0  0  0  0  2  0  0  0  0  0  0
  -31.3070  -12.5900   20.0250 C   0  0  0  0  0  0  0  0  0  0  0  0
  -30.2770  -11.3920   18.1340 C   0  0  0  0  0  2  0  0  0  0  0  0
  -29.3560  -12.3590   17.3680 C   0  0  0  0  0  2  0  0  0  0  0  0
  -27.9500  -12.4000   18.0000 C   0  0  0  0  0  2  0  0  0  0  0  0
  -27.9860  -12.5960   19.5390 C   0  0  0  0  0  3  0  0  0  0  0  0
  -28.9890  -11.6130   20.1830 C   0  0  0  0  0  2  0  0  0  0  0  0
  -30.3020  -11.8170   19.5400 N   0  0  0  0  0  0  0  0  0  0  0  0
  -32.3480  -12.8330   19.4070 O   0  0  0  0  0  0  0  0  0  0  0  0
  -31.0530  -13.1350   21.2140 N   0  0  0  0  0  0  0  0  0  0  0  0
  -30.1770  -12.8840   21.6460 H   0  0  0  0  0  0  0  0  0  0  0  0
  -25.7800  -13.4620   20.5420 C   0  0  0  0  0  0  0  0  0  0  0  0
  -24.6400  -12.8140   20.9410 C   0  0  0  0  0  0  0  0  0  0  0  0
  -24.8850  -11.4240   20.7340 C   0  0  0  0  0  0  0  0  0  0  0  0
  -26.6530  -12.4700   20.1220 N   0  0  0  0  0  0  0  0  0  0  0  0
  -26.1220  -11.2330   20.2900 N   0  0  0  0  0  0  0  0  0  0  0  0
  -23.9950  -10.2630   20.8790 C   0  0  0  0  0  0  0  0  0  0  0  0
  -24.3230   -9.1850   21.7290 C   0  0  0  0  0  3  0  0  0  0  0  0
  -23.4460   -8.0880   21.8660 C   0  0  0  0  0  3  0  0  0  0  0  0
  -22.2220   -8.0660   21.1540 C   0  0  0  0  0  0  0  0  0  0  0  0
  -21.9110   -9.1320   20.2920 C   0  0  0  0  0  3  0  0  0  0  0  0
  -22.7890  -10.2190   20.1520 C   0  0  0  0  0  3  0  0  0  0  0  0
  -21.3200   -7.0300   21.2040 O   0  0  0  0  0  0  0  0  0  0  0  0
  -21.0880   -6.3350   22.3630 C   0  0  0  0  0  0  0  0  0  0  0  0
  -20.7040   -6.9840   23.5590 C   0  0  0  0  0  3  0  0  0  0  0  0
  -20.4100   -6.2230   24.7080 C   0  0  0  0  0  3  0  0  0  0  0  0
  -20.4840   -4.8190   24.6630 C   0  0  0  0  0  0  0  0  0  0  0  0
  -20.8590   -4.1720   23.4730 C   0  0  0  0  0  3  0  0  0  0  0  0
  -21.1580   -4.9290   22.3260 C   0  0  0  0  0  0  0  0  0  0  0  0
  -21.4990   -4.2990   21.1760 F   0  0  0  0  0  0  0  0  0  0  0  0
  -20.1920   -4.0880   25.7640 F   0  0  0  0  0  0  0  0  0  0  0  0
  -23.3660  -13.4550   21.4080 C   0  0  0  0  0  0  0  0  0  0  0  0
  -22.6490  -12.8040   22.3170 N   0  0  0  0  0  0  0  0  0  0  0  0
  -23.0210  -14.5640   21.0040 O   0  0  0  0  0  0  0  0  0  0  0  0
  -22.9410  -11.9040   22.6680 H   0  0  0  0  0  0  0  0  0  0  0  0
  -21.7930  -13.2130   22.6650 H   0  0  0  0  0  0  0  0  0  0  0  0
  -26.1430  -14.8020   20.4950 N   0  0  0  0  0  0  0  0  0  0  0  0
  -25.5270  -15.5360   20.8200 H   0  0  0  0  0  0  0  0  0  0  0  0
  -27.0750  -15.1230   20.2670 H   0  0  0  0  0  0  0  0  0  0  0  0
  2  1  1  0
  2  3  1  0
  4  3  1  0
  4  5  1  0
  5  7  1  0
  6  4  2  0
  8  5  1  0
  9  8  1  0
 10  9  1  0
 11 10  1  0
 12 23  2  0
 13 11  1  0
 13 18  1  0
 14 22  1  0
 14 24  1  0
 15 17  1  0
 16 22  1  0
 17 18  2  0
 17 16  1  0
 19 13  2  0
 20 19  1  0
 20 15  2  0
 21 15  1  0
 21 14  1  0
 22 12  1  0
 24 26  2  0
 25 24  1  0
 27 25  1  0
 28 33  1  0
 29 25  1  0
 30 29  1  0
 31 32  1  0
 31 30  1  0
 32 28  1  0
 33 29  1  0
 33 34  2  0
 35 34  1  0
 36 35  2  0
 37 28  2  0
 37 36  1  0
 38 12  1  0
 38 39  1  0
 38 48  1  0
 39 42  1  0
 40 44  1  0
 40 39  1  0
 41 40  2  0
 44 43  1  0
 44 46  1  0
 46 45  1  0
 47 46  1  0
 48 49  1  1
 48 51  1  0
 50 48  1  0
 52 53  1  0
 52  1  1  0
 54 55  1  0
 54 53  1  0
 55 56  1  0
 56 57  1  0
 57 58  1  0
 59 58  1  0
 60 61  1  0
 60 59  1  0
 62 61  1  0
 62 63  1  0
 64 63  1  0
 65 73  1  0
 66 71  1  0
 67 68  1  0
 67 66  1  0
 69 68  1  0
 69 78  1  0
 69 70  1  0
 71 65  1  0
 71 70  1  0
 72 65  2  0
 73 74  1  0
 73 64  1  0
 75 76  2  0
 76 95  1  0
 77 80  1  0
 77 76  1  0
 78 79  1  0
 78 75  1  0
 79 77  2  0
 80 81  1  0
 81 82  2  0
 83 86  1  0
 83 82  1  0
 84 83  2  0
 85 84  1  0
 85 80  2  0
 86 87  1  0
 87 88  1  0
 88 89  2  0
 90 89  1  0
 90 94  1  0
 91 90  2  0
 92 87  2  0
 92 91  1  0
 93 92  1  0
 95 96  1  0
 96 99  1  0
 96 98  1  0
 97 95  2  0
100 75  1  0
100101  1  0
102100  1  0
M  ISO  4  10 101  11 101  65 100  73 100
M  END
>  <TORSDO>  (29) 
F 35

>  <SCORE>  (29) 
0.722

>  <name>  (29) 
32

>  <ligand_id>  (29) 
32

>  <original_smiles>  (29) 
[H]c1c([H])c([H])c2c(c1[H])C([H])([H])C([H])([H])C([H])([H])C2([H])N([H])C(=O)C1([H])N(C(=O)C([H])(N([H])C(=O)C([H])(N([H])C([H])([H])[H])C([H])([H])[H])C(C([H])([H])[H])(C([H])([H])[H])C([H])([H])[H])C([H])([H])c2c([H])c(OC([H])([H])C([H])([H])C([H])([H])N([H])C(=O)C([H])([H])OC([H])([H])C([H])([H])OC([H])([H])C([H])([H])OC([H])([H])C([H])([H])OC([H])([H])C([H])([H])OC([H])([H])C([H])([H])N([H])C(=O)N3C([H])([H])C([H])([H])C([H])([H])C([H])(n4nc(-c5c([H])c([H])c(Oc6c([H])c([H])c(F)c([H])c6F)c([H])c5[H])c(C(=O)N([H])[H])c4N([H])[H])C3([H])[H])c([H])c([H])c2C1([H])[H]

>  <smiles>  (29) 
[H]c1c([H])c([H])c2c(c1[H])C([H])([H])C([H])([H])C([H])([H])C2([H])N([H])C(=O)C1([H])N(C(=O)C([H])(N([H])C(=O)C([H])(N([H])C([H])([H])[H])C([H])([H])[H])C(C([H])([H])[H])(C([H])([H])[H])C([H])([H])[H])C([H])([H])c2c([H])c(OC([H])([H])C([H])([H])C([H])([H])N([H])C(=O)C([H])([H])OC([H])([H])C([H])([H])OC([H])([H])C([H])([H])OC([H])([H])C([H])([H])OC([H])([H])C([H])([H])OC([H])([H])C([H])([H])N([H])C(=O)N3C([H])([H])C([H])([H])C([H])([H])C([H])(n4nc(-c5c([H])c([H])c(Oc6c([H])c([H])c(F)c([H])c6F)c([H])c5[H])c(C(=O)N([H])[H])c4N([H])[H])C3([H])[H])c([H])c([H])c2C1([H])[H]

$$$$
33:0:0
     RDKit          3D

105112  0  0  1  0  0  0  0  0999 V2000
  -26.2740  -20.5670   18.6800 O   0  0  0  0  0  0  0  0  0  0  0  0
  -25.3700  -21.0680   17.7000 C   0  0  0  0  0  2  0  0  0  0  0  0
  -24.6410  -22.3110   18.2170 C   0  0  0  0  0  2  0  0  0  0  0  0
  -25.4530  -23.4550   18.0000 O   0  0  0  0  0  0  0  0  0  0  0  0
  -25.0450  -24.6100   18.7230 C   0  0  0  0  0  2  0  0  0  0  0  0
  -25.3330  -24.4920   20.2440 C   0  0  0  0  0  2  0  0  0  0  0  0
  -26.6530  -24.9290   20.5850 O   0  0  0  0  0  0  0  0  0  0  0  0
  -27.7130  -23.9830   20.3800 C   0  0  0  0  0  2  0  0  0  0  0  0
  -28.2790  -24.0400   18.9440 C   0  0  0  0  0  2  0  0  0  0  0  0
  -29.6670  -23.7250   18.7820 O   0  0  0  0  0  0  0  0  0  0  0  0
  -30.1890  -24.4450   17.6570 C   0  0  0  0  0  3  0  0  0  0  0  0
  -31.5980  -24.0230   17.1410 C   0  0  0  0  0  3  0  0  0  0  0  0
  -32.2770  -24.9910   16.3050 O   0  0  0  0  0  0  0  0  0  0  0  0
  -35.8580  -28.6360   21.2530 C   0  0  0  0  0  0  0  0  0  0  0  0
  -32.4820  -26.2050   16.9150 C   0  0  0  0  0  0  0  0  0  0  0  0
  -33.7260  -29.6170   20.4770 C   0  0  0  0  0  3  0  0  0  0  0  0
  -32.7310  -28.6060   18.3620 C   0  0  0  0  0  0  0  0  0  0  0  0
  -35.1190  -28.1490   18.9210 C   0  0  0  0  0  2  0  0  0  0  0  0
  -33.8270  -27.7410   18.2510 C   0  0  0  0  0  0  0  0  0  0  0  0
  -33.7100  -26.5340   17.5290 C   0  0  0  0  0  3  0  0  0  0  0  0
  -31.4260  -27.1360   16.9460 C   0  0  0  0  0  3  0  0  0  0  0  0
  -31.5330  -28.3160   17.6940 C   0  0  0  0  0  3  0  0  0  0  0  0
  -32.9230  -29.8670   19.1740 C   0  0  0  0  0  2  0  0  0  0  0  0
  -34.9380  -28.7650   20.2570 N   0  0  0  0  0  0  0  0  0  0  0  0
  -35.7360  -29.2460   22.3240 O   0  0  0  0  0  0  0  0  0  0  0  0
  -32.7690  -29.0530   21.5470 C   0  0  0  0  0  0  0  0  0  0  0  0
  -31.8570  -29.9040   22.0440 N   0  0  0  0  0  0  0  0  0  0  0  0
  -32.8500  -27.8750   21.9040 O   0  0  0  0  0  0  0  0  0  0  0  0
  -31.9170  -30.8750   21.7690 H   0  0  0  0  0  0  0  0  0  0  0  0
  -28.9160  -31.1720   23.7150 C   0  0  0  0  0  0  0  0  0  0  0  0
  -30.8330  -29.5800   23.0320 C   0  0  0  0  0  3  0  0  0  0  0  0
  -29.7320  -28.6730   22.4290 C   0  0  0  0  0  2  0  0  0  0  0  0
  -28.5470  -29.4800   21.8730 C   0  0  0  0  0  2  0  0  0  0  0  0
  -27.9000  -30.3050   22.9920 C   0  0  0  0  0  2  0  0  0  0  0  0
  -30.2970  -30.8390   23.7170 C   0  0  0  0  0  0  0  0  0  0  0  0
  -31.2060  -31.6960   24.3720 C   0  0  0  0  0  3  0  0  0  0  0  0
  -30.7570  -32.8610   25.0220 C   0  0  0  0  0  3  0  0  0  0  0  0
  -29.3850  -33.1690   25.0420 C   0  0  0  0  0  3  0  0  0  0  0  0
  -28.4680  -32.3220   24.3920 C   0  0  0  0  0  3  0  0  0  0  0  0
  -37.1290  -27.7500   21.0730 C   0  0  0  0  0  3  0  0  0  0  0  0
  -36.9870  -26.3170   21.7220 C   0  0  1  0  0  0  0  0  0  0  0  0
  -36.5150  -26.3450   23.1940 C   0  0  0  0  0  1  0  0  0  0  0  0
  -35.9790  -25.4520   20.9200 C   0  0  0  0  0  1  0  0  0  0  0  0
  -38.3440  -25.5780   21.6770 C   0  0  0  0  0  1  0  0  0  0  0  0
  -38.2630  -28.4740   21.6580 N   0  0  0  0  0  0  0  0  0  0  0  0
  -39.1460  -29.1980   20.9580 C   0  0  0  0  0  0  0  0  0  0  0  0
  -39.1310  -29.2570   19.7250 O   0  0  0  0  0  0  0  0  0  0  0  0
  -38.3290  -28.4870   22.6630 H   0  0  0  0  0  0  0  0  0  0  0  0
  -39.8060  -31.4590   21.8450 C   0  0  0  0  0  1  0  0  0  0  0  0
  -40.2140  -29.9790   21.7530 C   0  0  0  0  0  3  0  0  0  0  0  0
  -42.1420  -28.5310   21.2960 C   0  0  0  0  0  1  0  0  0  0  0  0
  -41.5750  -29.8710   21.1870 N   0  0  0  0  0  0  0  0  0  0  0  0
  -42.2080  -30.5190   21.6450 H   0  0  0  0  0  0  0  0  0  0  0  0
  -27.3240  -19.7850   18.1170 C   0  0  0  0  0  2  0  0  0  0  0  0
  -28.6720  -20.4030   18.5070 C   0  0  0  0  0  2  0  0  0  0  0  0
  -29.1050  -19.8800   19.7580 O   0  0  0  0  0  0  0  0  0  0  0  0
  -29.5140  -20.8790   20.6850 C   0  0  0  0  0  2  0  0  0  0  0  0
  -30.0410  -20.2110   21.9740 C   0  0  0  0  0  2  0  0  0  0  0  0
  -31.2590  -20.7930   22.4490 O   0  0  0  0  0  0  0  0  0  0  0  0
  -32.4740  -20.1030   22.1400 C   0  0  0  0  0  2  0  0  0  0  0  0
  -33.0560  -20.5060   20.7640 C   0  0  0  0  0  2  0  0  0  0  0  0
  -33.1330  -19.3550   19.9300 O   0  0  0  0  0  0  0  0  0  0  0  0
  -33.4780  -19.5960   18.5730 C   0  0  0  0  0  2  0  0  0  0  0  0
  -33.3180  -18.2900   17.7500 C   0  0  0  0  0  2  0  0  0  0  0  0
  -31.9690  -18.0880   17.3100 O   0  0  0  0  0  0  0  0  0  0  0  0
  -31.3280  -16.9330   17.8520 C   0  0  0  0  0  2  0  0  0  0  0  0
  -30.6800  -17.2350   19.2380 C   0  0  0  0  0  2  0  0  0  0  0  0
  -31.3660  -15.1050   20.4170 C   0  0  0  0  0  0  0  0  0  0  0  0
  -31.2170  -12.7880   19.7040 C   0  0  0  0  0  2  0  0  0  0  0  0
  -30.3760  -12.7920   18.4110 C   0  0  0  0  0  2  0  0  0  0  0  0
  -28.8740  -12.6860   18.7290 C   0  0  0  0  0  2  0  0  0  0  0  0
  -28.4200  -13.7190   19.7940 C   0  0  0  0  0  3  0  0  0  0  0  0
  -29.3700  -13.7090   21.0130 C   0  0  0  0  0  2  0  0  0  0  0  0
  -30.7470  -13.9070   20.5330 N   0  0  0  0  0  0  0  0  0  0  0  0
  -32.5730  -15.2370   20.2010 O   0  0  0  0  0  0  0  0  0  0  0  0
  -30.5010  -16.0940   20.1460 N   0  0  0  0  0  0  0  0  0  0  0  0
  -29.5510  -15.9370   20.4440 H   0  0  0  0  0  0  0  0  0  0  0  0
  -26.0050  -14.4530   20.2770 C   0  0  0  0  0  0  0  0  0  0  0  0
  -24.8820  -13.7330   20.5990 C   0  0  0  0  0  0  0  0  0  0  0  0
  -25.2990  -12.3710   20.6830 C   0  0  0  0  0  0  0  0  0  0  0  0
  -27.0290  -13.5200   20.1850 N   0  0  0  0  0  0  0  0  0  0  0  0
  -26.6050  -12.2700   20.4860 N   0  0  0  0  0  0  0  0  0  0  0  0
  -24.5210  -11.1400   20.8820 C   0  0  0  0  0  0  0  0  0  0  0  0
  -24.8530  -10.2120   21.8930 C   0  0  0  0  0  3  0  0  0  0  0  0
  -24.0740   -9.0490   22.0750 C   0  0  0  0  0  3  0  0  0  0  0  0
  -22.9520   -8.8090   21.2450 C   0  0  0  0  0  0  0  0  0  0  0  0
  -22.6410   -9.7300   20.2270 C   0  0  0  0  0  3  0  0  0  0  0  0
  -23.4220  -10.8810   20.0420 C   0  0  0  0  0  3  0  0  0  0  0  0
  -22.1530   -7.6940   21.3320 O   0  0  0  0  0  0  0  0  0  0  0  0
  -21.9990   -7.0120   22.5130 C   0  0  0  0  0  0  0  0  0  0  0  0
  -21.5160   -7.6470   23.6800 C   0  0  0  0  0  3  0  0  0  0  0  0
  -21.2970   -6.8950   24.8510 C   0  0  0  0  0  3  0  0  0  0  0  0
  -21.5560   -5.5090   24.8530 C   0  0  0  0  0  0  0  0  0  0  0  0
  -22.0420   -4.8770   23.6950 C   0  0  0  0  0  3  0  0  0  0  0  0
  -22.2560   -5.6260   22.5250 C   0  0  0  0  0  0  0  0  0  0  0  0
  -22.6990   -5.0100   21.4020 F   0  0  0  0  0  0  0  0  0  0  0  0
  -21.3410   -4.7830   25.9760 F   0  0  0  0  0  0  0  0  0  0  0  0
  -23.4890  -14.2740   20.7280 C   0  0  0  0  0  0  0  0  0  0  0  0
  -22.6710  -13.6560   21.5740 N   0  0  0  0  0  0  0  0  0  0  0  0
  -23.1280  -15.2780   20.1180 O   0  0  0  0  0  0  0  0  0  0  0  0
  -22.9740  -12.8440   22.0890 H   0  0  0  0  0  0  0  0  0  0  0  0
  -21.7360  -14.0090   21.7160 H   0  0  0  0  0  0  0  0  0  0  0  0
  -26.2290  -15.8020   20.0420 N   0  0  0  0  0  0  0  0  0  0  0  0
  -25.4690  -16.4660   20.0360 H   0  0  0  0  0  0  0  0  0  0  0  0
  -27.1160  -16.1990   19.7570 H   0  0  0  0  0  0  0  0  0  0  0  0
  2  3  1  0
  2  1  1  0
  4  3  1  0
  4  5  1  0
  5  6  1  0
  6  7  1  0
  8  7  1  0
  9  8  1  0
 10  9  1  0
 11 10  1  0
 12 11  2  0
 13 15  1  0
 13 12  1  0
 14 25  2  0
 15 21  2  0
 15 20  1  0
 16 26  1  0
 17 23  1  0
 18 24  1  0
 19 17  1  0
 19 18  1  0
 20 19  2  0
 21 22  1  0
 22 17  2  0
 23 16  1  0
 24 16  1  0
 24 14  1  0
 26 28  2  0
 26 27  1  0
 29 27  1  0
 30 35  2  0
 30 39  1  0
 31 27  1  0
 31 35  1  0
 32 31  1  0
 33 32  1  0
 33 34  1  0
 34 30  1  0
 35 36  1  0
 36 37  2  0
 37 38  1  0
 39 38  2  0
 40 14  1  0
 40 45  1  0
 40 41  1  0
 41 42  1  1
 43 41  1  0
 44 41  1  0
 45 48  1  0
 46 45  1  0
 46 50  1  0
 47 46  2  0
 50 49  1  0
 52 51  1  0
 52 53  1  0
 52 50  1  0
 54 55  1  0
 54  1  1  0
 55 56  1  0
 56 57  1  0
 57 58  1  0
 58 59  1  0
 60 59  1  0
 61 60  1  0
 62 61  1  0
 63 62  1  0
 64 63  1  0
 65 64  1  0
 65 66  1  0
 66 67  1  0
 67 76  1  0
 68 74  1  0
 69 74  1  0
 70 71  1  0
 70 69  1  0
 72 71  1  0
 72 81  1  0
 72 73  1  0
 74 73  1  0
 75 68  2  0
 76 68  1  0
 76 77  1  0
 78 79  2  0
 79 80  1  0
 79 98  1  0
 80 83  1  0
 81 78  1  0
 81 82  1  0
 82 80  2  0
 83 84  1  0
 84 85  2  0
 86 89  1  0
 86 85  1  0
 87 86  2  0
 88 87  1  0
 88 83  2  0
 89 90  1  0
 90 95  2  0
 90 91  1  0
 91 92  2  0
 92 93  1  0
 93 97  1  0
 94 93  2  0
 95 94  1  0
 96 95  1  0
 98 99  1  0
 99102  1  0
 99101  1  0
100 98  2  0
103 78  1  0
104103  1  0
105103  1  0
M  ISO  4  12 101  13 101  68 100  76 100
M  END
>  <TORSDO>  (30) 
F 41

>  <SCORE>  (30) 
-5.499

>  <name>  (30) 
33

>  <ligand_id>  (30) 
33

>  <original_smiles>  (30) 
[H]c1c([H])c([H])c2c(c1[H])C([H])([H])C([H])([H])C([H])([H])C2([H])N([H])C(=O)C1([H])N(C(=O)C([H])(N([H])C(=O)C([H])(N([H])C([H])([H])[H])C([H])([H])[H])C(C([H])([H])[H])(C([H])([H])[H])C([H])([H])[H])C([H])([H])c2c([H])c(OC([H])([H])C([H])([H])OC([H])([H])C([H])([H])OC([H])([H])C([H])([H])OC([H])([H])C([H])([H])OC([H])([H])C([H])([H])OC([H])([H])C([H])([H])OC([H])([H])C([H])([H])OC([H])([H])C([H])([H])OC([H])([H])C([H])([H])N([H])C(=O)N3C([H])([H])C([H])([H])C([H])([H])C([H])(n4nc(-c5c([H])c([H])c(Oc6c([H])c([H])c(F)c([H])c6F)c([H])c5[H])c(C(=O)N([H])[H])c4N([H])[H])C3([H])[H])c([H])c([H])c2C1([H])[H]

>  <smiles>  (30) 
[H]c1c([H])c([H])c2c(c1[H])C([H])([H])C([H])([H])C([H])([H])C2([H])N([H])C(=O)C1([H])N(C(=O)C([H])(N([H])C(=O)C([H])(N([H])C([H])([H])[H])C([H])([H])[H])C(C([H])([H])[H])(C([H])([H])[H])C([H])([H])[H])C([H])([H])c2c([H])c(OC([H])([H])C([H])([H])OC([H])([H])C([H])([H])OC([H])([H])C([H])([H])OC([H])([H])C([H])([H])OC([H])([H])C([H])([H])OC([H])([H])C([H])([H])OC([H])([H])C([H])([H])OC([H])([H])C([H])([H])OC([H])([H])C([H])([H])N([H])C(=O)N3C([H])([H])C([H])([H])C([H])([H])C([H])(n4nc(-c5c([H])c([H])c(Oc6c([H])c([H])c(F)c([H])c6F)c([H])c5[H])c(C(=O)N([H])[H])c4N([H])[H])C3([H])[H])c([H])c([H])c2C1([H])[H]

$$$$
34:0:0
     RDKit          3D

103110  0  0  1  0  0  0  0  0999 V2000
  -24.9040  -22.0240   20.1640 C   0  0  0  0  0  0  0  0  0  0  0  0
  -25.3030  -22.9050   21.0930 N   0  0  0  0  0  0  0  0  0  0  0  0
  -25.6460  -21.1990   19.6300 O   0  0  0  0  0  0  0  0  0  0  0  0
  -24.6050  -23.5520   21.4310 H   0  0  0  0  0  0  0  0  0  0  0  0
  -23.3990  -22.0120   19.8630 C   0  0  0  0  0  2  0  0  0  0  0  0
  -22.7760  -20.8510   20.4290 O   0  0  0  0  0  0  0  0  0  0  0  0
  -22.8740  -20.6760   21.8480 C   0  0  0  0  0  2  0  0  0  0  0  0
  -23.6110  -19.3530   22.1390 C   0  0  0  0  0  2  0  0  0  0  0  0
  -25.0180  -19.5580   22.1190 O   0  0  0  0  0  0  0  0  0  0  0  0
  -25.7580  -18.3680   21.8650 C   0  0  0  0  0  2  0  0  0  0  0  0
  -27.2160  -18.5610   22.3120 C   0  0  0  0  0  2  0  0  0  0  0  0
  -28.0670  -17.5310   21.8000 O   0  0  0  0  0  0  0  0  0  0  0  0
  -29.3810  -17.5970   22.3550 C   0  0  0  0  0  2  0  0  0  0  0  0
  -30.3950  -16.7840   21.5240 C   0  0  0  0  0  2  0  0  0  0  0  0
  -30.6750  -14.4570   20.6530 C   0  0  0  0  0  0  0  0  0  0  0  0
  -30.4190  -12.3260   19.4230 C   0  0  0  0  0  2  0  0  0  0  0  0
  -29.4870  -12.4950   18.2030 C   0  0  0  0  0  2  0  0  0  0  0  0
  -28.0160  -12.3310   18.6240 C   0  0  0  0  0  2  0  0  0  0  0  0
  -27.6530  -13.1950   19.8600 C   0  0  0  0  0  3  0  0  0  0  0  0
  -28.6740  -12.9700   20.9960 C   0  0  0  0  0  2  0  0  0  0  0  0
  -30.0110  -13.2840   20.4640 N   0  0  0  0  0  0  0  0  0  0  0  0
  -31.7650  -14.7060   20.1310 O   0  0  0  0  0  0  0  0  0  0  0  0
  -30.0130  -15.3780   21.3760 N   0  0  0  0  0  0  0  0  0  0  0  0
  -29.1190  -15.1100   21.7620 H   0  0  0  0  0  0  0  0  0  0  0  0
  -25.2500  -13.8180   20.5400 C   0  0  0  0  0  0  0  0  0  0  0  0
  -24.1790  -13.0490   20.9100 C   0  0  0  0  0  0  0  0  0  0  0  0
  -24.6300  -11.6950   20.8620 C   0  0  0  0  0  0  0  0  0  0  0  0
  -26.2910  -12.9320   20.3150 N   0  0  0  0  0  0  0  0  0  0  0  0
  -25.9220  -11.6510   20.5650 N   0  0  0  0  0  0  0  0  0  0  0  0
  -23.8910  -10.4350   21.0300 C   0  0  0  0  0  0  0  0  0  0  0  0
  -24.3680   -9.4160   21.8840 C   0  0  0  0  0  3  0  0  0  0  0  0
  -23.6400   -8.2160   22.0390 C   0  0  0  0  0  3  0  0  0  0  0  0
  -22.4220   -8.0270   21.3460 C   0  0  0  0  0  0  0  0  0  0  0  0
  -21.9620   -9.0370   20.4840 C   0  0  0  0  0  3  0  0  0  0  0  0
  -22.6880  -10.2300   20.3240 C   0  0  0  0  0  3  0  0  0  0  0  0
  -21.6630   -6.8830   21.4180 O   0  0  0  0  0  0  0  0  0  0  0  0
  -21.6870   -6.0750   22.5240 C   0  0  0  0  0  0  0  0  0  0  0  0
  -21.4030   -6.5640   23.8180 C   0  0  0  0  0  3  0  0  0  0  0  0
  -21.3670   -5.6790   24.9160 C   0  0  0  0  0  3  0  0  0  0  0  0
  -21.6010   -4.3030   24.7220 C   0  0  0  0  0  0  0  0  0  0  0  0
  -21.8790   -3.8140   23.4330 C   0  0  0  0  0  3  0  0  0  0  0  0
  -21.9200   -4.6960   22.3390 C   0  0  0  0  0  0  0  0  0  0  0  0
  -22.1730   -4.2170   21.0970 F   0  0  0  0  0  0  0  0  0  0  0  0
  -21.5590   -3.4490   25.7710 F   0  0  0  0  0  0  0  0  0  0  0  0
  -22.7900  -13.5360   21.1930 C   0  0  0  0  0  0  0  0  0  0  0  0
  -22.0790  -12.8610   22.0930 N   0  0  0  0  0  0  0  0  0  0  0  0
  -22.3440  -14.5500   20.6610 O   0  0  0  0  0  0  0  0  0  0  0  0
  -22.4690  -12.0630   22.5710 H   0  0  0  0  0  0  0  0  0  0  0  0
  -21.1670  -13.1920   22.3680 H   0  0  0  0  0  0  0  0  0  0  0  0
  -25.4160  -15.1870   20.3570 N   0  0  0  0  0  0  0  0  0  0  0  0
  -24.6240  -15.8170   20.3920 H   0  0  0  0  0  0  0  0  0  0  0  0
  -26.2380  -15.5940   19.9260 H   0  0  0  0  0  0  0  0  0  0  0  0
  -26.5590  -22.9080   21.8440 C   0  0  0  0  0  2  0  0  0  0  0  0
  -27.8580  -22.8800   21.0300 C   0  0  0  0  0  0  0  0  0  0  0  0
  -28.9610  -22.5080   21.6970 N   0  0  0  0  0  0  0  0  0  0  0  0
  -27.8750  -23.2150   19.8430 O   0  0  0  0  0  0  0  0  0  0  0  0
  -28.8610  -22.2660   22.6730 H   0  0  0  0  0  0  0  0  0  0  0  0
  -30.3170  -22.5040   21.1510 C   0  0  0  0  0  2  0  0  0  0  0  0
  -31.0310  -23.8550   21.3620 C   0  0  0  0  0  2  0  0  0  0  0  0
  -30.1000  -24.9110   21.1880 O   0  0  0  0  0  0  0  0  0  0  0  0
  -30.5890  -26.0550   20.5130 C   0  0  0  0  0  2  0  0  0  0  0  0
  -29.5320  -27.1370   20.7160 C   0  0  0  0  0  2  0  0  0  0  0  0
  -28.3770  -26.7250   19.9980 O   0  0  0  0  0  0  0  0  0  0  0  0
  -24.6050  -31.8760   23.2150 C   0  0  0  0  0  0  0  0  0  0  0  0
  -27.2420  -27.4920   20.0890 C   0  0  0  0  0  0  0  0  0  0  0  0
  -23.3890  -30.4990   21.5570 C   0  0  0  0  0  3  0  0  0  0  0  0
  -24.8340  -28.9640   20.1250 C   0  0  0  0  0  0  0  0  0  0  0  0
  -25.9110  -30.8550   21.3650 C   0  0  0  0  0  2  0  0  0  0  0  0
  -25.9880  -29.4920   20.7140 C   0  0  0  0  0  0  0  0  0  0  0  0
  -27.1920  -28.7660   20.7000 C   0  0  0  0  0  3  0  0  0  0  0  0
  -26.0690  -26.9620   19.5140 C   0  0  0  0  0  3  0  0  0  0  0  0
  -24.8630  -27.6900   19.5310 C   0  0  0  0  0  3  0  0  0  0  0  0
  -23.5920  -29.8260   20.1720 C   0  0  0  0  0  2  0  0  0  0  0  0
  -24.6520  -31.0900   22.1030 N   0  0  0  0  0  0  0  0  0  0  0  0
  -23.5270  -32.1520   23.7580 O   0  0  0  0  0  0  0  0  0  0  0  0
  -22.7340  -29.4720   22.5070 C   0  0  0  0  0  0  0  0  0  0  0  0
  -21.4090  -29.3030   22.3780 N   0  0  0  0  0  0  0  0  0  0  0  0
  -23.4130  -28.8300   23.3110 O   0  0  0  0  0  0  0  0  0  0  0  0
  -20.9210  -29.8740   21.7030 H   0  0  0  0  0  0  0  0  0  0  0  0
  -18.0270  -28.1370   22.8530 C   0  0  0  0  0  0  0  0  0  0  0  0
  -20.5850  -28.3640   23.1360 C   0  0  0  0  0  3  0  0  0  0  0  0
  -20.6750  -26.9390   22.5430 C   0  0  0  0  0  2  0  0  0  0  0  0
  -19.5730  -26.6390   21.5220 C   0  0  0  0  0  2  0  0  0  0  0  0
  -18.1910  -26.7920   22.1640 C   0  0  0  0  0  2  0  0  0  0  0  0
  -19.1520  -28.8830   23.2940 C   0  0  0  0  0  0  0  0  0  0  0  0
  -18.9440  -30.1450   23.8940 C   0  0  0  0  0  3  0  0  0  0  0  0
  -17.6440  -30.6580   24.0580 C   0  0  0  0  0  3  0  0  0  0  0  0
  -16.5340  -29.9080   23.6330 C   0  0  0  0  0  3  0  0  0  0  0  0
  -16.7270  -28.6490   23.0370 C   0  0  0  0  0  3  0  0  0  0  0  0
  -25.8990  -32.4860   23.8420 C   0  0  0  0  0  3  0  0  0  0  0  0
  -26.4420  -31.6630   25.0750 C   0  0  1  0  0  0  0  0  0  0  0  0
  -25.3690  -31.3750   26.1500 C   0  0  0  0  0  1  0  0  0  0  0  0
  -27.0240  -30.3070   24.6140 C   0  0  0  0  0  1  0  0  0  0  0  0
  -27.6030  -32.4340   25.7470 C   0  0  0  0  0  1  0  0  0  0  0  0
  -25.5880  -33.8660   24.2360 N   0  0  0  0  0  0  0  0  0  0  0  0
  -25.9030  -34.9490   23.5150 C   0  0  0  0  0  0  0  0  0  0  0  0
  -26.5590  -34.8930   22.4700 O   0  0  0  0  0  0  0  0  0  0  0  0
  -25.0010  -33.9820   25.0490 H   0  0  0  0  0  0  0  0  0  0  0  0
  -24.1480  -36.7300   23.2640 C   0  0  0  0  0  1  0  0  0  0  0  0
  -25.4110  -36.3120   24.0350 C   0  0  0  0  0  3  0  0  0  0  0  0
  -27.5580  -37.1810   24.8470 C   0  0  0  0  0  1  0  0  0  0  0  0
  -26.4300  -37.3800   23.9410 N   0  0  0  0  0  0  0  0  0  0  0  0
  -26.0200  -38.2880   24.1390 H   0  0  0  0  0  0  0  0  0  0  0  0
  1  2  1  0
  2  4  1  0
  2 53  1  0
  3  1  2  0
  5  1  1  0
  5  6  1  0
  6  7  1  0
  7  8  1  0
  9  8  1  0
 10  9  1  0
 10 11  1  0
 12 11  1  0
 12 13  1  0
 14 13  1  0
 15 23  1  0
 16 21  1  0
 17 18  1  0
 17 16  1  0
 19 18  1  0
 19 28  1  0
 19 20  1  0
 21 15  1  0
 21 20  1  0
 22 15  2  0
 23 14  1  0
 23 24  1  0
 25 26  2  0
 26 45  1  0
 27 26  1  0
 27 30  1  0
 28 25  1  0
 28 29  1  0
 29 27  2  0
 30 31  1  0
 31 32  2  0
 33 36  1  0
 33 32  1  0
 34 33  2  0
 35 34  1  0
 35 30  2  0
 36 37  1  0
 37 38  1  0
 38 39  2  0
 40 39  1  0
 40 44  1  0
 41 40  2  0
 42 37  2  0
 42 41  1  0
 43 42  1  0
 45 46  1  0
 46 49  1  0
 46 48  1  0
 47 45  2  0
 50 51  1  0
 50 25  1  0
 52 50  1  0
 54 55  1  0
 54 53  1  0
 55 57  1  0
 56 54  2  0
 58 59  1  0
 58 55  1  0
 60 59  1  0
 61 62  1  0
 61 60  1  0
 63 65  1  0
 63 62  1  0
 64 75  2  0
 65 70  1  0
 66 74  1  0
 66 76  1  0
 67 73  1  0
 67 69  1  0
 68 74  1  0
 69 68  1  0
 70 69  2  0
 71 72  1  0
 71 65  2  0
 72 67  2  0
 73 66  1  0
 74 64  1  0
 76 78  2  0
 77 76  1  0
 79 77  1  0
 80 89  2  0
 80 85  1  0
 81 77  1  0
 81 85  1  0
 82 81  1  0
 83 84  1  0
 83 82  1  0
 84 80  1  0
 85 86  2  0
 86 87  1  0
 88 87  2  0
 89 88  1  0
 90 64  1  0
 90 95  1  0
 90 91  1  0
 91 94  1  1
 91 92  1  0
 93 91  1  0
 95 98  1  0
 96100  1  0
 96 95  1  0
 97 96  2  0
100 99  1  0
102100  1  0
102103  1  0
102101  1  0
M  ISO  4  15 100  23 100  62 101  63 101
M  END
>  <TORSDO>  (31) 
F 33

>  <SCORE>  (31) 
26.956

>  <name>  (31) 
34

>  <ligand_id>  (31) 
34

>  <original_smiles>  (31) 
[H]c1c([H])c([H])c2c(c1[H])C([H])([H])C([H])([H])C([H])([H])C2([H])N([H])C(=O)C1([H])N(C(=O)C([H])(N([H])C(=O)C([H])(N([H])C([H])([H])[H])C([H])([H])[H])C(C([H])([H])[H])(C([H])([H])[H])C([H])([H])[H])C([H])([H])c2c([H])c(OC([H])([H])C([H])([H])OC([H])([H])C([H])([H])N([H])C(=O)C([H])([H])N([H])C(=O)C([H])([H])OC([H])([H])C([H])([H])OC([H])([H])C([H])([H])OC([H])([H])C([H])([H])N([H])C(=O)N3C([H])([H])C([H])([H])C([H])([H])C([H])(n4nc(-c5c([H])c([H])c(Oc6c([H])c([H])c(F)c([H])c6F)c([H])c5[H])c(C(=O)N([H])[H])c4N([H])[H])C3([H])[H])c([H])c([H])c2C1([H])[H]

>  <smiles>  (31) 
[H]c1c([H])c([H])c2c(c1[H])C([H])([H])C([H])([H])C([H])([H])C2([H])N([H])C(=O)C1([H])N(C(=O)C([H])(N([H])C(=O)C([H])(N([H])C([H])([H])[H])C([H])([H])[H])C(C([H])([H])[H])(C([H])([H])[H])C([H])([H])[H])C([H])([H])c2c([H])c(OC([H])([H])C([H])([H])OC([H])([H])C([H])([H])N([H])C(=O)C([H])([H])N([H])C(=O)C([H])([H])OC([H])([H])C([H])([H])OC([H])([H])C([H])([H])OC([H])([H])C([H])([H])N([H])C(=O)N3C([H])([H])C([H])([H])C([H])([H])C([H])(n4nc(-c5c([H])c([H])c(Oc6c([H])c([H])c(F)c([H])c6F)c([H])c5[H])c(C(=O)N([H])[H])c4N([H])[H])C3([H])[H])c([H])c([H])c2C1([H])[H]

$$$$
36:0:0
     RDKit          3D

106114  0  0  1  0  0  0  0  0999 V2000
  -26.5750  -21.8600   20.1160 C   0  0  0  0  0  2  0  0  0  0  0  0
  -27.5810  -20.9880   20.6430 O   0  0  0  0  0  0  0  0  0  0  0  0
  -28.1230  -19.9600   19.8180 C   0  0  0  0  0  2  0  0  0  0  0  0
  -27.0940  -19.0820   19.0800 C   0  0  0  0  0  2  0  0  0  0  0  0
  -27.0900  -19.3630   17.6820 O   0  0  0  0  0  0  0  0  0  0  0  0
  -27.9270  -18.5160   16.8910 C   0  0  0  0  0  2  0  0  0  0  0  0
  -28.7880  -19.3410   15.9140 C   0  0  0  0  0  2  0  0  0  0  0  0
  -29.6530  -20.2430   16.6120 O   0  0  0  0  0  0  0  0  0  0  0  0
  -30.7750  -19.6090   17.2200 C   0  0  0  0  0  2  0  0  0  0  0  0
  -31.4890  -20.5650   18.1920 C   0  0  0  0  0  2  0  0  0  0  0  0
  -32.3220  -19.8000   19.0580 O   0  0  0  0  0  0  0  0  0  0  0  0
  -32.6770  -20.4630   20.2700 C   0  0  0  0  0  2  0  0  0  0  0  0
  -31.5680  -20.3270   21.3350 C   0  0  0  0  0  2  0  0  0  0  0  0
  -31.6830  -19.1690   22.1710 O   0  0  0  0  0  0  0  0  0  0  0  0
  -31.5690  -17.8800   21.5570 C   0  0  0  0  0  2  0  0  0  0  0  0
  -30.1100  -17.5130   21.2020 C   0  0  0  0  0  2  0  0  0  0  0  0
  -30.3690  -15.2280   20.1370 C   0  0  0  0  0  0  0  0  0  0  0  0
  -30.3080  -12.9080   19.2720 C   0  0  0  0  0  2  0  0  0  0  0  0
  -29.3360  -12.7180   18.0920 C   0  0  0  0  0  2  0  0  0  0  0  0
  -27.9110  -12.4470   18.6010 C   0  0  0  0  0  2  0  0  0  0  0  0
  -27.4550  -13.4870   19.6530 C   0  0  0  0  0  3  0  0  0  0  0  0
  -28.5160  -13.6370   20.7640 C   0  0  0  0  0  2  0  0  0  0  0  0
  -29.8080  -13.9900   20.1380 N   0  0  0  0  0  0  0  0  0  0  0  0
  -31.3140  -15.5410   19.4090 O   0  0  0  0  0  0  0  0  0  0  0  0
  -29.8420  -16.0820   21.0260 N   0  0  0  0  0  0  0  0  0  0  0  0
  -29.1130  -15.6980   21.6110 H   0  0  0  0  0  0  0  0  0  0  0  0
  -25.0960  -13.9770   20.5620 C   0  0  0  0  0  0  0  0  0  0  0  0
  -24.0770  -13.1510   20.9470 C   0  0  0  0  0  0  0  0  0  0  0  0
  -24.5690  -11.8190   20.7910 C   0  0  0  0  0  0  0  0  0  0  0  0
  -26.1450  -13.1460   20.2010 N   0  0  0  0  0  0  0  0  0  0  0  0
  -25.8350  -11.8390   20.3950 N   0  0  0  0  0  0  0  0  0  0  0  0
  -23.8940  -10.5270   20.9440 C   0  0  0  0  0  0  0  0  0  0  0  0
  -24.3550   -9.5550   21.8580 C   0  0  0  0  0  3  0  0  0  0  0  0
  -23.6780   -8.3250   21.9980 C   0  0  0  0  0  3  0  0  0  0  0  0
  -22.5220   -8.0590   21.2250 C   0  0  0  0  0  0  0  0  0  0  0  0
  -22.0810   -9.0210   20.2990 C   0  0  0  0  0  3  0  0  0  0  0  0
  -22.7590  -10.2420   20.1560 C   0  0  0  0  0  3  0  0  0  0  0  0
  -21.8150   -6.8820   21.2760 O   0  0  0  0  0  0  0  0  0  0  0  0
  -21.6740   -6.1770   22.4450 C   0  0  0  0  0  0  0  0  0  0  0  0
  -21.1000   -6.7550   23.5990 C   0  0  0  0  0  3  0  0  0  0  0  0
  -20.9100   -5.9730   24.7560 C   0  0  0  0  0  3  0  0  0  0  0  0
  -21.2840   -4.6160   24.7590 C   0  0  0  0  0  0  0  0  0  0  0  0
  -21.8490   -4.0390   23.6090 C   0  0  0  0  0  3  0  0  0  0  0  0
  -22.0420   -4.8180   22.4540 C   0  0  0  0  0  0  0  0  0  0  0  0
  -22.5680   -4.2500   21.3410 F   0  0  0  0  0  0  0  0  0  0  0  0
  -21.0940   -3.8630   25.8680 F   0  0  0  0  0  0  0  0  0  0  0  0
  -22.6900  -13.5640   21.3480 C   0  0  0  0  0  0  0  0  0  0  0  0
  -22.0510  -12.8000   22.2240 N   0  0  0  0  0  0  0  0  0  0  0  0
  -22.1850  -14.6030   20.9190 O   0  0  0  0  0  0  0  0  0  0  0  0
  -22.4740  -11.9590   22.5890 H   0  0  0  0  0  0  0  0  0  0  0  0
  -21.1240  -13.0570   22.5350 H   0  0  0  0  0  0  0  0  0  0  0  0
  -25.2180  -15.3590   20.4690 N   0  0  0  0  0  0  0  0  0  0  0  0
  -24.4440  -15.9820   20.6650 H   0  0  0  0  0  0  0  0  0  0  0  0
  -26.0530  -15.8290   20.1520 H   0  0  0  0  0  0  0  0  0  0  0  0
  -26.8520  -22.4720   18.7220 C   0  0  0  0  0  2  0  0  0  0  0  0
  -28.2810  -24.7010   16.7380 C   0  0  0  0  0  2  0  0  0  0  0  0
  -29.5440  -25.5370   16.9990 C   0  0  0  0  0  2  0  0  0  0  0  0
  -30.2260  -24.3340   19.0150 C   0  0  0  0  0  2  0  0  0  0  0  0
  -28.4740  -23.1940   16.9960 C   0  0  0  0  0  2  0  0  0  0  0  0
  -28.9700  -23.5660   19.4660 C   0  0  0  0  0  2  0  0  0  0  0  0
  -29.7950  -25.6010   18.4300 N   0  0  0  0  0  0  0  0  0  0  0  0
  -28.2800  -22.7670   18.4150 N   0  0  1  0  0  4  0  0  0  0  0  0
  -28.7310  -21.8650   18.4430 H   0  0  0  0  0  0  0  0  0  0  0  0
  -30.5340  -26.7840   18.8760 C   0  0  0  0  0  2  0  0  0  0  0  0
  -29.5000  -27.8720   19.2090 C   0  0  0  0  0  2  0  0  0  0  0  0
  -28.4840  -27.2550   19.9960 O   0  0  0  0  0  0  0  0  0  0  0  0
  -24.5870  -32.1140   23.3990 C   0  0  0  0  0  0  0  0  0  0  0  0
  -27.3050  -27.9420   20.0690 C   0  0  0  0  0  0  0  0  0  0  0  0
  -23.3790  -30.7370   21.7300 C   0  0  0  0  0  3  0  0  0  0  0  0
  -24.8470  -29.3030   20.2150 C   0  0  0  0  0  0  0  0  0  0  0  0
  -25.8780  -31.2030   21.4770 C   0  0  0  0  0  2  0  0  0  0  0  0
  -25.9960  -29.8640   20.7880 C   0  0  0  0  0  0  0  0  0  0  0  0
  -27.2300  -29.1870   20.7200 C   0  0  0  0  0  3  0  0  0  0  0  0
  -26.1440  -27.3680   19.5130 C   0  0  0  0  0  3  0  0  0  0  0  0
  -24.9140  -28.0500   19.5770 C   0  0  0  0  0  3  0  0  0  0  0  0
  -23.5720  -30.1080   20.3240 C   0  0  0  0  0  2  0  0  0  0  0  0
  -24.6340  -31.3630   22.2620 N   0  0  0  0  0  0  0  0  0  0  0  0
  -23.5120  -32.3290   23.9800 O   0  0  0  0  0  0  0  0  0  0  0  0
  -22.7880  -29.6620   22.6690 C   0  0  0  0  0  0  0  0  0  0  0  0
  -21.4870  -29.3740   22.5030 N   0  0  0  0  0  0  0  0  0  0  0  0
  -23.4980  -29.0870   23.4980 O   0  0  0  0  0  0  0  0  0  0  0  0
  -20.9730  -29.8980   21.8070 H   0  0  0  0  0  0  0  0  0  0  0  0
  -18.2370  -27.8270   22.8050 C   0  0  0  0  0  0  0  0  0  0  0  0
  -20.7270  -28.3680   23.2420 C   0  0  0  0  0  3  0  0  0  0  0  0
  -21.0220  -26.9460   22.7130 C   0  0  0  0  0  2  0  0  0  0  0  0
  -20.0360  -26.4850   21.6350 C   0  0  0  0  0  2  0  0  0  0  0  0
  -18.6050  -26.4920   22.1800 C   0  0  0  0  0  2  0  0  0  0  0  0
  -19.2350  -28.7150   23.2890 C   0  0  0  0  0  0  0  0  0  0  0  0
  -18.8420  -29.9590   23.8260 C   0  0  0  0  0  3  0  0  0  0  0  0
  -17.4830  -30.3220   23.8870 C   0  0  0  0  0  3  0  0  0  0  0  0
  -16.4990  -29.4320   23.4220 C   0  0  0  0  0  3  0  0  0  0  0  0
  -16.8760  -28.1880   22.8870 C   0  0  0  0  0  3  0  0  0  0  0  0
  -25.8700  -32.7600   24.0100 C   0  0  0  0  0  3  0  0  0  0  0  0
  -25.5670  -34.1690   24.2900 N   0  0  0  0  0  0  0  0  0  0  0  0
  -25.9080  -35.1920   23.4930 C   0  0  0  0  0  0  0  0  0  0  0  0
  -26.5820  -35.0470   22.4690 O   0  0  0  0  0  0  0  0  0  0  0  0
  -24.9690  -34.3550   25.0820 H   0  0  0  0  0  0  0  0  0  0  0  0
  -24.1790  -36.9670   23.0760 C   0  0  0  0  0  1  0  0  0  0  0  0
  -25.4250  -36.5970   23.8970 C   0  0  0  0  0  3  0  0  0  0  0  0
  -27.5660  -37.5100   24.6760 C   0  0  0  0  0  1  0  0  0  0  0  0
  -26.4570  -37.6440   23.7350 N   0  0  0  0  0  0  0  0  0  0  0  0
  -26.0540  -38.5710   23.8480 H   0  0  0  0  0  0  0  0  0  0  0  0
  -26.3780  -32.0260   25.3110 C   0  0  1  0  0  0  0  0  0  0  0  0
  -25.2760  -31.8130   26.3750 C   0  0  0  0  0  1  0  0  0  0  0  0
  -26.9690  -30.6420   24.9590 C   0  0  0  0  0  1  0  0  0  0  0  0
  -27.5220  -32.8400   25.9610 C   0  0  0  0  0  1  0  0  0  0  0  0
  1  2  1  0
  3  2  1  0
  4  3  1  0
  5  4  1  0
  6  5  1  0
  7  8  1  0
  7  6  1  0
  8  9  1  0
  9 10  1  0
 10 11  1  0
 11 12  1  0
 12 13  1  0
 13 14  1  0
 15 14  1  0
 16 15  1  0
 17 23  1  0
 17 25  1  0
 18 23  1  0
 19 20  1  0
 19 18  1  0
 21 20  1  0
 21 30  1  0
 21 22  1  0
 23 22  1  0
 24 17  2  0
 25 16  1  0
 25 26  1  0
 27 28  2  0
 28 47  1  0
 29 32  1  0
 29 28  1  0
 30 31  1  0
 30 27  1  0
 31 29  2  0
 32 33  1  0
 33 34  2  0
 35 38  1  0
 35 34  1  0
 36 35  2  0
 37 36  1  0
 37 32  2  0
 38 39  1  0
 39 44  2  0
 39 40  1  0
 40 41  2  0
 41 42  1  0
 42 46  1  0
 43 42  2  0
 44 43  1  0
 45 44  1  0
 47 48  1  0
 48 51  1  0
 48 50  1  0
 49 47  2  0
 52 27  1  0
 52 53  1  0
 54 52  1  0
 55  1  1  0
 56 59  1  0
 56 57  1  0
 57 61  1  0
 58 60  1  0
 59 62  1  0
 61 64  1  0
 61 58  1  0
 62 63  1  6
 62 55  1  0
 62 60  1  0
 64 65  1  0
 65 66  1  0
 66 68  1  0
 67 78  2  0
 68 73  1  0
 69 77  1  0
 69 79  1  0
 70 76  1  0
 70 72  1  0
 71 77  1  0
 72 71  1  0
 73 72  2  0
 74 75  1  0
 74 68  2  0
 75 70  2  0
 76 69  1  0
 77 67  1  0
 79 81  2  0
 80 79  1  0
 82 80  1  0
 83 92  2  0
 83 88  1  0
 84 80  1  0
 84 88  1  0
 85 84  1  0
 86 87  1  0
 86 85  1  0
 87 83  1  0
 88 89  2  0
 89 90  1  0
 91 90  2  0
 92 91  1  0
 93 67  1  0
 93 94  1  0
 93103  1  0
 94 97  1  0
 95 99  1  0
 95 94  1  0
 96 95  2  0
 99 98  1  0
101102  1  0
101 99  1  0
101100  1  0
103106  1  1
103104  1  0
105103  1  0
M  ISO  4  17 100  25 100  65 101  66 101
M  END
>  <TORSDO>  (32) 
F 35

>  <SCORE>  (32) 
-9.110

>  <name>  (32) 
36

>  <ligand_id>  (32) 
36

>  <original_smiles>  (32) 
[H]c1c([H])c([H])c2c(c1[H])C([H])([H])C([H])([H])C([H])([H])C2([H])N([H])C(=O)C1([H])N(C(=O)C([H])(N([H])C(=O)C([H])(N([H])C([H])([H])[H])C([H])([H])[H])C(C([H])([H])[H])(C([H])([H])[H])C([H])([H])[H])C([H])([H])c2c([H])c(OC([H])([H])C([H])([H])N3C([H])([H])C([H])([H])C([H])([H])[N+]([H])(C([H])([H])C([H])([H])OC([H])([H])C([H])([H])OC([H])([H])C([H])([H])OC([H])([H])C([H])([H])OC([H])([H])C([H])([H])OC([H])([H])C([H])([H])N([H])C(=O)N4C([H])([H])C([H])([H])C([H])([H])C([H])(n5nc(-c6c([H])c([H])c(Oc7c([H])c([H])c(F)c([H])c7F)c([H])c6[H])c(C(=O)N([H])[H])c5N([H])[H])C4([H])[H])C([H])([H])C3([H])[H])c([H])c([H])c2C1([H])[H]

>  <smiles>  (32) 
[H]c1c([H])c([H])c2c(c1[H])C([H])([H])C([H])([H])C([H])([H])C2([H])N([H])C(=O)C1([H])N(C(=O)C([H])(N([H])C(=O)C([H])(N([H])C([H])([H])[H])C([H])([H])[H])C(C([H])([H])[H])(C([H])([H])[H])C([H])([H])[H])C([H])([H])c2c([H])c(OC([H])([H])C([H])([H])N3C([H])([H])C([H])([H])C([H])([H])[N+]([H])(C([H])([H])C([H])([H])OC([H])([H])C([H])([H])OC([H])([H])C([H])([H])OC([H])([H])C([H])([H])OC([H])([H])C([H])([H])OC([H])([H])C([H])([H])N([H])C(=O)N4C([H])([H])C([H])([H])C([H])([H])C([H])(n5nc(-c6c([H])c([H])c(Oc7c([H])c([H])c(F)c([H])c7F)c([H])c6[H])c(C(=O)N([H])[H])c5N([H])[H])C4([H])[H])C([H])([H])C3([H])[H])c([H])c([H])c2C1([H])[H]

$$$$
37:0:0
     RDKit          3D

102109  0  0  1  0  0  0  0  0999 V2000
  -24.2130  -21.9410   21.6780 C   0  0  0  0  0  2  0  0  0  0  0  0
  -24.0160  -23.3500   21.6110 O   0  0  0  0  0  0  0  0  0  0  0  0
  -24.5540  -24.0610   22.7290 C   0  0  0  0  0  2  0  0  0  0  0  0
  -25.8970  -24.7200   22.3950 C   0  0  0  0  0  0  0  0  0  0  0  0
  -26.6650  -25.0260   23.4510 N   0  0  0  0  0  0  0  0  0  0  0  0
  -26.2030  -24.9880   21.2300 O   0  0  0  0  0  0  0  0  0  0  0  0
  -26.3020  -24.7600   24.3570 H   0  0  0  0  0  0  0  0  0  0  0  0
  -27.8220  -25.9150   23.4510 C   0  0  0  0  0  2  0  0  0  0  0  0
  -29.0760  -25.3000   22.7850 C   0  0  0  0  0  2  0  0  0  0  0  0
  -30.1460  -26.3230   22.3450 C   0  0  0  0  0  2  0  0  0  0  0  0
  -29.9680  -26.7610   20.9990 O   0  0  0  0  0  0  0  0  0  0  0  0
  -25.0980  -31.5000   23.1200 C   0  0  0  0  0  0  0  0  0  0  0  0
  -28.7720  -27.3800   20.7550 C   0  0  0  0  0  0  0  0  0  0  0  0
  -24.3880  -29.9230   21.3500 C   0  0  0  0  0  3  0  0  0  0  0  0
  -26.2530  -28.5440   20.2810 C   0  0  0  0  0  0  0  0  0  0  0  0
  -26.8440  -30.5830   21.6030 C   0  0  0  0  0  2  0  0  0  0  0  0
  -27.2030  -29.2210   21.0540 C   0  0  0  0  0  0  0  0  0  0  0  0
  -28.4640  -28.6420   21.3010 C   0  0  0  0  0  3  0  0  0  0  0  0
  -27.8180  -26.7110   19.9620 C   0  0  0  0  0  3  0  0  0  0  0  0
  -26.5530  -27.2830   19.7340 C   0  0  0  0  0  3  0  0  0  0  0  0
  -24.9250  -29.2330   20.0650 C   0  0  0  0  0  2  0  0  0  0  0  0
  -25.4490  -30.6830   22.0860 N   0  0  0  0  0  0  0  0  0  0  0  0
  -23.9120  -31.6530   23.4380 O   0  0  0  0  0  0  0  0  0  0  0  0
  -23.6910  -28.8540   22.2200 C   0  0  0  0  0  0  0  0  0  0  0  0
  -22.4760  -28.4550   21.8090 N   0  0  0  0  0  0  0  0  0  0  0  0
  -24.2470  -28.3840   23.2140 O   0  0  0  0  0  0  0  0  0  0  0  0
  -22.0820  -28.9030   20.9940 H   0  0  0  0  0  0  0  0  0  0  0  0
  -19.2880  -26.7710   21.6180 C   0  0  0  0  0  0  0  0  0  0  0  0
  -21.6460  -27.4320   22.4440 C   0  0  0  0  0  3  0  0  0  0  0  0
  -22.0870  -26.0130   22.0110 C   0  0  0  0  0  2  0  0  0  0  0  0
  -21.3070  -25.4730   20.8070 C   0  0  0  0  0  2  0  0  0  0  0  0
  -19.8050  -25.4390   21.1040 C   0  0  0  0  0  2  0  0  0  0  0  0
  -20.1550  -27.7140   22.2320 C   0  0  0  0  0  0  0  0  0  0  0  0
  -19.6280  -28.9530   22.6610 C   0  0  0  0  0  3  0  0  0  0  0  0
  -18.2630  -29.2520   22.4920 C   0  0  0  0  0  3  0  0  0  0  0  0
  -17.4060  -28.3080   21.8990 C   0  0  0  0  0  3  0  0  0  0  0  0
  -17.9170  -27.0710   21.4670 C   0  0  0  0  0  3  0  0  0  0  0  0
  -26.1680  -32.2940   23.9330 C   0  0  0  0  0  3  0  0  0  0  0  0
  -25.6760  -33.6700   24.0900 N   0  0  0  0  0  0  0  0  0  0  0  0
  -26.0600  -34.7060   23.3340 C   0  0  0  0  0  0  0  0  0  0  0  0
  -26.9310  -34.6150   22.4640 O   0  0  0  0  0  0  0  0  0  0  0  0
  -24.9220  -33.8090   24.7480 H   0  0  0  0  0  0  0  0  0  0  0  0
  -24.2800  -36.2760   22.5060 C   0  0  0  0  0  1  0  0  0  0  0  0
  -25.3610  -36.0600   23.5760 C   0  0  0  0  0  3  0  0  0  0  0  0
  -27.1950  -37.2050   24.7360 C   0  0  0  0  0  1  0  0  0  0  0  0
  -26.2930  -37.2090   23.5870 N   0  0  0  0  0  0  0  0  0  0  0  0
  -25.7840  -38.0880   23.5860 H   0  0  0  0  0  0  0  0  0  0  0  0
  -26.4780  -31.6520   25.3390 C   0  0  1  0  0  0  0  0  0  0  0  0
  -25.2140  -31.2780   26.1450 C   0  0  0  0  0  1  0  0  0  0  0  0
  -27.3280  -30.3720   25.1740 C   0  0  0  0  0  1  0  0  0  0  0  0
  -27.3200  -32.6300   26.1910 C   0  0  0  0  0  1  0  0  0  0  0  0
  -24.9820  -21.4460   20.4400 C   0  0  0  0  0  2  0  0  0  0  0  0
  -26.3810  -21.3360   20.6830 O   0  0  0  0  0  0  0  0  0  0  0  0
  -27.1060  -21.0060   19.5000 C   0  0  0  0  0  2  0  0  0  0  0  0
  -28.5890  -20.7800   19.8270 C   0  0  0  0  0  2  0  0  0  0  0  0
  -29.1410  -21.9110   20.4860 O   0  0  0  0  0  0  0  0  0  0  0  0
  -30.4340  -21.6570   21.0240 C   0  0  0  0  0  2  0  0  0  0  0  0
  -30.2750  -21.0700   22.4380 C   0  0  0  0  0  2  0  0  0  0  0  0
  -29.6880  -19.7720   22.4250 O   0  0  0  0  0  0  0  0  0  0  0  0
  -30.4780  -18.7700   21.8000 C   0  0  0  0  0  2  0  0  0  0  0  0
  -29.9290  -17.3970   22.2130 C   0  0  0  0  0  2  0  0  0  0  0  0
  -30.7190  -16.3720   21.6240 O   0  0  0  0  0  0  0  0  0  0  0  0
  -30.8340  -15.2310   22.4680 C   0  0  0  0  0  2  0  0  0  0  0  0
  -31.8030  -14.2240   21.8320 C   0  0  0  0  0  2  0  0  0  0  0  0
  -31.3070  -12.5900   20.0250 C   0  0  0  0  0  0  0  0  0  0  0  0
  -30.2770  -11.3920   18.1340 C   0  0  0  0  0  2  0  0  0  0  0  0
  -29.3560  -12.3590   17.3680 C   0  0  0  0  0  2  0  0  0  0  0  0
  -27.9500  -12.4000   18.0000 C   0  0  0  0  0  2  0  0  0  0  0  0
  -27.9860  -12.5960   19.5390 C   0  0  0  0  0  3  0  0  0  0  0  0
  -28.9890  -11.6130   20.1830 C   0  0  0  0  0  2  0  0  0  0  0  0
  -30.3020  -11.8170   19.5400 N   0  0  0  0  0  0  0  0  0  0  0  0
  -32.3480  -12.8330   19.4070 O   0  0  0  0  0  0  0  0  0  0  0  0
  -31.0530  -13.1350   21.2140 N   0  0  0  0  0  0  0  0  0  0  0  0
  -30.1770  -12.8840   21.6460 H   0  0  0  0  0  0  0  0  0  0  0  0
  -25.7800  -13.4620   20.5420 C   0  0  0  0  0  0  0  0  0  0  0  0
  -24.6400  -12.8140   20.9410 C   0  0  0  0  0  0  0  0  0  0  0  0
  -24.8850  -11.4240   20.7340 C   0  0  0  0  0  0  0  0  0  0  0  0
  -26.6530  -12.4700   20.1220 N   0  0  0  0  0  0  0  0  0  0  0  0
  -26.1220  -11.2330   20.2900 N   0  0  0  0  0  0  0  0  0  0  0  0
  -23.9950  -10.2630   20.8790 C   0  0  0  0  0  0  0  0  0  0  0  0
  -24.3230   -9.1850   21.7290 C   0  0  0  0  0  3  0  0  0  0  0  0
  -23.4460   -8.0880   21.8660 C   0  0  0  0  0  3  0  0  0  0  0  0
  -22.2220   -8.0660   21.1540 C   0  0  0  0  0  0  0  0  0  0  0  0
  -21.9110   -9.1320   20.2920 C   0  0  0  0  0  3  0  0  0  0  0  0
  -22.7890  -10.2190   20.1520 C   0  0  0  0  0  3  0  0  0  0  0  0
  -21.3200   -7.0300   21.2040 O   0  0  0  0  0  0  0  0  0  0  0  0
  -21.0880   -6.3350   22.3630 C   0  0  0  0  0  0  0  0  0  0  0  0
  -20.7040   -6.9840   23.5590 C   0  0  0  0  0  3  0  0  0  0  0  0
  -20.4100   -6.2230   24.7080 C   0  0  0  0  0  3  0  0  0  0  0  0
  -20.4840   -4.8190   24.6630 C   0  0  0  0  0  0  0  0  0  0  0  0
  -20.8590   -4.1720   23.4730 C   0  0  0  0  0  3  0  0  0  0  0  0
  -21.1580   -4.9290   22.3260 C   0  0  0  0  0  0  0  0  0  0  0  0
  -21.4990   -4.2990   21.1760 F   0  0  0  0  0  0  0  0  0  0  0  0
  -20.1920   -4.0880   25.7640 F   0  0  0  0  0  0  0  0  0  0  0  0
  -23.3660  -13.4550   21.4080 C   0  0  0  0  0  0  0  0  0  0  0  0
  -22.6490  -12.8040   22.3170 N   0  0  0  0  0  0  0  0  0  0  0  0
  -23.0210  -14.5640   21.0040 O   0  0  0  0  0  0  0  0  0  0  0  0
  -22.9410  -11.9040   22.6680 H   0  0  0  0  0  0  0  0  0  0  0  0
  -21.7930  -13.2130   22.6650 H   0  0  0  0  0  0  0  0  0  0  0  0
  -26.1430  -14.8020   20.4950 N   0  0  0  0  0  0  0  0  0  0  0  0
  -25.5270  -15.5360   20.8200 H   0  0  0  0  0  0  0  0  0  0  0  0
  -27.0750  -15.1230   20.2670 H   0  0  0  0  0  0  0  0  0  0  0  0
  2  1  1  0
  2  3  1  0
  4  3  1  0
  4  5  1  0
  5  7  1  0
  6  4  2  0
  8  5  1  0
  9  8  1  0
 10  9  1  0
 11 10  1  0
 12 23  2  0
 13 11  1  0
 13 18  1  0
 14 22  1  0
 14 24  1  0
 15 17  1  0
 16 22  1  0
 17 18  2  0
 17 16  1  0
 19 13  2  0
 20 19  1  0
 20 15  2  0
 21 15  1  0
 21 14  1  0
 22 12  1  0
 24 26  2  0
 25 24  1  0
 27 25  1  0
 28 33  1  0
 29 25  1  0
 30 29  1  0
 31 32  1  0
 31 30  1  0
 32 28  1  0
 33 29  1  0
 33 34  2  0
 35 34  1  0
 36 35  2  0
 37 28  2  0
 37 36  1  0
 38 12  1  0
 38 39  1  0
 38 48  1  0
 39 42  1  0
 40 44  1  0
 40 39  1  0
 41 40  2  0
 44 43  1  0
 44 46  1  0
 46 45  1  0
 47 46  1  0
 48 49  1  1
 48 51  1  0
 50 48  1  0
 52 53  1  0
 52  1  1  0
 54 55  1  0
 54 53  1  0
 55 56  1  0
 56 57  1  0
 57 58  1  0
 59 58  1  0
 60 61  1  0
 60 59  1  0
 62 61  1  0
 62 63  1  0
 64 63  1  0
 65 73  1  0
 66 71  1  0
 67 68  1  0
 67 66  1  0
 69 68  1  0
 69 78  1  0
 69 70  1  0
 71 65  1  0
 71 70  1  0
 72 65  2  0
 73 74  1  0
 73 64  1  0
 75 76  2  0
 76 95  1  0
 77 80  1  0
 77 76  1  0
 78 79  1  0
 78 75  1  0
 79 77  2  0
 80 81  1  0
 81 82  2  0
 83 86  1  0
 83 82  1  0
 84 83  2  0
 85 84  1  0
 85 80  2  0
 86 87  1  0
 87 88  1  0
 88 89  2  0
 90 89  1  0
 90 94  1  0
 91 90  2  0
 92 87  2  0
 92 91  1  0
 93 92  1  0
 95 96  1  0
 96 99  1  0
 96 98  1  0
 97 95  2  0
100 75  1  0
100101  1  0
102100  1  0
M  ISO  4  10 101  11 101  65 100  73 100
M  END
>  <TORSDO>  (33) 
F 35

>  <SCORE>  (33) 
0.722

>  <name>  (33) 
37

>  <ligand_id>  (33) 
37

>  <original_smiles>  (33) 
[H]c1c([H])c([H])c2c(c1[H])C([H])([H])C([H])([H])C([H])([H])C2([H])N([H])C(=O)C1([H])N(C(=O)C([H])(N([H])C(=O)C([H])(N([H])C([H])([H])[H])C([H])([H])[H])C(C([H])([H])[H])(C([H])([H])[H])C([H])([H])[H])C([H])([H])c2c([H])c(OC([H])([H])C([H])([H])C([H])([H])N([H])C(=O)C([H])([H])OC([H])([H])C([H])([H])OC([H])([H])C([H])([H])OC([H])([H])C([H])([H])OC([H])([H])C([H])([H])OC([H])([H])C([H])([H])N([H])C(=O)N3C([H])([H])C([H])([H])C([H])([H])C([H])(n4nc(-c5c([H])c([H])c(Oc6c([H])c([H])c(F)c([H])c6F)c([H])c5[H])c(C(=O)N([H])[H])c4N([H])[H])C3([H])[H])c([H])c([H])c2C1([H])[H]

>  <smiles>  (33) 
[H]c1c([H])c([H])c2c(c1[H])C([H])([H])C([H])([H])C([H])([H])C2([H])N([H])C(=O)C1([H])N(C(=O)C([H])(N([H])C(=O)C([H])(N([H])C([H])([H])[H])C([H])([H])[H])C(C([H])([H])[H])(C([H])([H])[H])C([H])([H])[H])C([H])([H])c2c([H])c(OC([H])([H])C([H])([H])C([H])([H])N([H])C(=O)C([H])([H])OC([H])([H])C([H])([H])OC([H])([H])C([H])([H])OC([H])([H])C([H])([H])OC([H])([H])C([H])([H])OC([H])([H])C([H])([H])N([H])C(=O)N3C([H])([H])C([H])([H])C([H])([H])C([H])(n4nc(-c5c([H])c([H])c(Oc6c([H])c([H])c(F)c([H])c6F)c([H])c5[H])c(C(=O)N([H])[H])c4N([H])[H])C3([H])[H])c([H])c([H])c2C1([H])[H]

$$$$
38:0:0
     RDKit          3D

104111  0  0  1  0  0  0  0  0999 V2000
  -22.1120  -19.0680   21.2560 C   0  0  0  0  0  2  0  0  0  0  0  0
  -20.6390  -18.8870   21.6510 C   0  0  0  0  0  2  0  0  0  0  0  0
  -20.5410  -19.0500   23.0610 O   0  0  0  0  0  0  0  0  0  0  0  0
  -19.2550  -19.4320   23.5460 C   0  0  0  0  0  2  0  0  0  0  0  0
  -19.0870  -20.9610   23.4060 C   0  0  0  0  0  2  0  0  0  0  0  0
  -18.5670  -21.4440   22.0380 C   0  0  0  0  0  2  0  0  0  0  0  0
  -18.6970  -22.8590   21.8780 O   0  0  0  0  0  0  0  0  0  0  0  0
  -19.9030  -23.2970   21.2470 C   0  0  0  0  0  2  0  0  0  0  0  0
  -19.6240  -23.9130   19.8600 C   0  0  0  0  0  2  0  0  0  0  0  0
  -18.6740  -24.9850   19.8870 O   0  0  0  0  0  0  0  0  0  0  0  0
  -19.1810  -26.2510   19.4590 C   0  0  0  0  0  2  0  0  0  0  0  0
  -18.0330  -27.2670   19.2590 C   0  0  0  0  0  2  0  0  0  0  0  0
  -17.1810  -26.8610   18.1770 O   0  0  0  0  0  0  0  0  0  0  0  0
  -13.5750  -24.0480   23.5560 C   0  0  0  0  0  0  0  0  0  0  0  0
  -16.3080  -25.8820   18.5610 C   0  0  0  0  0  0  0  0  0  0  0  0
  -13.8180  -22.6090   21.5540 C   0  0  0  0  0  3  0  0  0  0  0  0
  -14.6630  -23.7780   19.4430 C   0  0  0  0  0  0  0  0  0  0  0  0
  -13.7670  -25.1560   21.3360 C   0  0  0  0  0  2  0  0  0  0  0  0
  -14.6540  -25.0070   20.1190 C   0  0  0  0  0  0  0  0  0  0  0  0
  -15.4630  -26.0680   19.6730 C   0  0  0  0  0  3  0  0  0  0  0  0
  -16.2990  -24.6560   17.8700 C   0  0  0  0  0  3  0  0  0  0  0  0
  -15.4780  -23.6010   18.3060 C   0  0  0  0  0  3  0  0  0  0  0  0
  -13.7700  -22.6920   20.0000 C   0  0  0  0  0  2  0  0  0  0  0  0
  -13.7410  -23.9560   22.2060 N   0  0  0  0  0  0  0  0  0  0  0  0
  -13.4330  -23.0350   24.2540 O   0  0  0  0  0  0  0  0  0  0  0  0
  -15.0620  -21.7970   21.9730 C   0  0  0  0  0  0  0  0  0  0  0  0
  -14.8290  -20.6320   22.5980 N   0  0  0  0  0  0  0  0  0  0  0  0
  -16.1980  -22.2010   21.7120 O   0  0  0  0  0  0  0  0  0  0  0  0
  -13.8690  -20.3800   22.7840 H   0  0  0  0  0  0  0  0  0  0  0  0
  -15.5100  -18.0430   25.0270 C   0  0  0  0  0  0  0  0  0  0  0  0
  -15.8410  -19.6810   23.0550 C   0  0  0  0  0  3  0  0  0  0  0  0
  -15.8890  -18.4300   22.1510 C   0  0  0  0  0  2  0  0  0  0  0  0
  -15.0000  -17.2920   22.6620 C   0  0  0  0  0  2  0  0  0  0  0  0
  -15.4210  -16.8640   24.0710 C   0  0  0  0  0  2  0  0  0  0  0  0
  -15.6890  -19.3650   24.5470 C   0  0  0  0  0  0  0  0  0  0  0  0
  -15.7260  -20.4310   25.4710 C   0  0  0  0  0  3  0  0  0  0  0  0
  -15.5860  -20.1900   26.8520 C   0  0  0  0  0  3  0  0  0  0  0  0
  -15.4190  -18.8770   27.3230 C   0  0  0  0  0  3  0  0  0  0  0  0
  -15.3910  -17.8060   26.4140 C   0  0  0  0  0  3  0  0  0  0  0  0
  -13.5320  -25.4290   24.2880 C   0  0  0  0  0  3  0  0  0  0  0  0
  -14.8230  -25.7210   25.1490 C   0  0  1  0  0  0  0  0  0  0  0  0
  -15.1210  -24.6320   26.2060 C   0  0  0  0  0  1  0  0  0  0  0  0
  -16.0680  -25.8580   24.2410 C   0  0  0  0  0  1  0  0  0  0  0  0
  -14.6630  -27.0700   25.8890 C   0  0  0  0  0  1  0  0  0  0  0  0
  -12.3280  -25.4450   25.1290 N   0  0  0  0  0  0  0  0  0  0  0  0
  -11.1420  -25.9310   24.7420 C   0  0  0  0  0  0  0  0  0  0  0  0
  -10.9680  -26.4850   23.6540 O   0  0  0  0  0  0  0  0  0  0  0  0
  -12.3860  -24.9650   26.0160 H   0  0  0  0  0  0  0  0  0  0  0  0
   -9.1720  -24.5010   25.3710 C   0  0  0  0  0  1  0  0  0  0  0  0
   -9.9590  -25.7750   25.7160 C   0  0  0  0  0  3  0  0  0  0  0  0
   -9.6400  -28.1410   26.3000 C   0  0  0  0  0  1  0  0  0  0  0  0
   -9.0450  -26.9380   25.7210 N   0  0  0  0  0  0  0  0  0  0  0  0
   -8.1940  -26.7240   26.2330 H   0  0  0  0  0  0  0  0  0  0  0  0
  -22.3060  -19.5250   19.7960 C   0  0  0  0  0  2  0  0  0  0  0  0
  -23.7270  -20.0640   19.5320 C   0  0  0  0  0  2  0  0  0  0  0  0
  -23.8120  -21.0370   18.3330 C   0  0  0  0  0  2  0  0  0  0  0  0
  -25.2230  -21.2390   17.7250 C   0  0  0  0  0  2  0  0  0  0  0  0
  -27.5970  -21.4090   18.4600 C   0  0  0  0  0  0  0  0  0  0  0  0
  -26.3180  -21.0750   18.6920 N   0  0  0  0  0  0  0  0  0  0  0  0
  -27.9270  -22.0600   17.4680 O   0  0  0  0  0  0  0  0  0  0  0  0
  -26.1260  -20.5290   19.5180 H   0  0  0  0  0  0  0  0  0  0  0  0
  -28.6690  -20.8740   19.4310 C   0  0  0  0  0  2  0  0  0  0  0  0
  -28.6900  -21.6090   20.6640 O   0  0  0  0  0  0  0  0  0  0  0  0
  -29.6720  -21.0930   21.5660 C   0  0  0  0  0  2  0  0  0  0  0  0
  -30.0510  -22.0550   22.7050 C   0  0  0  0  0  2  0  0  0  0  0  0
  -31.0650  -21.5090   23.7610 C   0  0  0  0  0  2  0  0  0  0  0  0
  -33.2680  -20.5740   22.8500 C   0  0  0  0  0  0  0  0  0  0  0  0
  -34.5460  -19.5940   20.9890 C   0  0  0  0  0  2  0  0  0  0  0  0
  -33.6190  -19.6620   19.7510 C   0  0  0  0  0  2  0  0  0  0  0  0
  -32.7010  -18.4290   19.6800 C   0  0  0  0  0  2  0  0  0  0  0  0
  -31.9800  -18.1500   21.0230 C   0  0  0  0  0  3  0  0  0  0  0  0
  -32.9880  -18.1700   22.1940 C   0  0  0  0  0  2  0  0  0  0  0  0
  -33.6760  -19.4750   22.1700 N   0  0  0  0  0  0  0  0  0  0  0  0
  -33.8990  -21.6340   22.8880 O   0  0  0  0  0  0  0  0  0  0  0  0
  -31.9980  -20.4740   23.2850 N   0  0  0  0  0  0  0  0  0  0  0  0
  -31.6180  -19.5450   23.1980 H   0  0  0  0  0  0  0  0  0  0  0  0
  -29.8330  -16.7320   20.9360 C   0  0  0  0  0  0  0  0  0  0  0  0
  -29.6350  -15.3890   20.8130 C   0  0  0  0  0  0  0  0  0  0  0  0
  -30.9380  -14.8000   20.7750 C   0  0  0  0  0  0  0  0  0  0  0  0
  -31.2070  -16.9170   20.9740 N   0  0  0  0  0  0  0  0  0  0  0  0
  -31.8670  -15.7350   20.9300 N   0  0  0  0  0  0  0  0  0  0  0  0
  -31.3540  -13.4170   20.5430 C   0  0  0  0  0  0  0  0  0  0  0  0
  -32.1570  -12.7230   21.4720 C   0  0  0  0  0  3  0  0  0  0  0  0
  -32.5330  -11.3850   21.2280 C   0  0  0  0  0  3  0  0  0  0  0  0
  -32.0960  -10.7300   20.0520 C   0  0  0  0  0  0  0  0  0  0  0  0
  -31.3140  -11.4340   19.1190 C   0  0  0  0  0  3  0  0  0  0  0  0
  -30.9490  -12.7670   19.3610 C   0  0  0  0  0  3  0  0  0  0  0  0
  -32.4220   -9.4360   19.7260 O   0  0  0  0  0  0  0  0  0  0  0  0
  -32.6620   -8.4940   20.6930 C   0  0  0  0  0  0  0  0  0  0  0  0
  -31.6660   -8.0970   21.6120 C   0  0  0  0  0  3  0  0  0  0  0  0
  -31.9350   -7.0700   22.5410 C   0  0  0  0  0  3  0  0  0  0  0  0
  -33.1920   -6.4380   22.5510 C   0  0  0  0  0  0  0  0  0  0  0  0
  -34.1820   -6.8290   21.6330 C   0  0  0  0  0  3  0  0  0  0  0  0
  -33.9160   -7.8520   20.7050 C   0  0  0  0  0  0  0  0  0  0  0  0
  -34.8680   -8.2070   19.8090 F   0  0  0  0  0  0  0  0  0  0  0  0
  -33.4480   -5.4490   23.4410 F   0  0  0  0  0  0  0  0  0  0  0  0
  -28.3140  -14.6900   20.6530 C   0  0  0  0  0  0  0  0  0  0  0  0
  -28.1980  -13.4640   21.1480 N   0  0  0  0  0  0  0  0  0  0  0  0
  -27.3580  -15.2540   20.1160 O   0  0  0  0  0  0  0  0  0  0  0  0
  -28.9740  -13.0060   21.6030 H   0  0  0  0  0  0  0  0  0  0  0  0
  -27.3270  -12.9600   21.0510 H   0  0  0  0  0  0  0  0  0  0  0  0
  -28.9520  -17.8050   21.0200 N   0  0  0  0  0  0  0  0  0  0  0  0
  -27.9490  -17.6600   21.0510 H   0  0  0  0  0  0  0  0  0  0  0  0
  -29.2330  -18.7370   21.2760 H   0  0  0  0  0  0  0  0  0  0  0  0
  1  2  1  0
  2  3  1  0
  3  4  1  0
  5  4  1  0
  6  5  1  0
  7  6  1  0
  8  7  1  0
  9 10  1  0
  9  8  1  0
 11 10  1  0
 12 11  1  0
 13 15  1  0
 13 12  1  0
 14 25  2  0
 15 20  1  0
 16 26  1  0
 16 24  1  0
 17 23  1  0
 17 19  1  0
 18 24  1  0
 19 18  1  0
 20 19  2  0
 21 22  1  0
 21 15  2  0
 22 17  2  0
 23 16  1  0
 24 14  1  0
 26 27  1  0
 27 29  1  0
 28 26  2  0
 30 39  1  0
 31 27  1  0
 31 35  1  0
 32 33  1  0
 32 31  1  0
 33 34  1  0
 34 30  1  0
 35 30  2  0
 35 36  1  0
 36 37  2  0
 37 38  1  0
 39 38  2  0
 40 14  1  0
 40 45  1  0
 40 41  1  0
 41 44  1  1
 41 42  1  0
 43 41  1  0
 45 48  1  0
 46 45  1  0
 46 50  1  0
 47 46  2  0
 50 49  1  0
 50 52  1  0
 52 53  1  0
 52 51  1  0
 54  1  1  0
 55 54  1  0
 56 55  1  0
 57 56  1  0
 57 59  1  0
 58 59  1  0
 58 62  1  0
 59 61  1  0
 60 58  2  0
 62 63  1  0
 63 64  1  0
 64 65  1  0
 65 66  1  0
 67 74  2  0
 67 75  1  0
 68 73  1  0
 69 68  1  0
 70 69  1  0
 71 70  1  0
 71 72  1  0
 73 72  1  0
 73 67  1  0
 75 66  1  0
 76 75  1  0
 77 80  1  0
 77102  1  0
 78 77  2  0
 79 78  1  0
 79 81  2  0
 80 71  1  0
 81 80  1  0
 82 79  1  0
 82 83  1  0
 84 83  2  0
 85 84  1  0
 86 87  1  0
 86 85  2  0
 87 82  2  0
 88 85  1  0
 88 89  1  0
 89 94  2  0
 89 90  1  0
 90 91  2  0
 91 92  1  0
 92 96  1  0
 93 92  2  0
 94 93  1  0
 95 94  1  0
 97 78  1  0
 97 98  1  0
 98100  1  0
 99 97  2  0
101 98  1  0
102103  1  0
102104  1  0
M  ISO  4  12 101  13 101  67 100  75 100
M  END
>  <TORSDO>  (34) 
F 37

>  <SCORE>  (34) 
15.790

>  <name>  (34) 
38

>  <ligand_id>  (34) 
38

>  <original_smiles>  (34) 
[H]c1c([H])c([H])c2c(c1[H])C([H])([H])C([H])([H])C([H])([H])C2([H])N([H])C(=O)C1([H])N(C(=O)C([H])(N([H])C(=O)C([H])(N([H])C([H])([H])[H])C([H])([H])[H])C(C([H])([H])[H])(C([H])([H])[H])C([H])([H])[H])C([H])([H])c2c([H])c(OC([H])([H])C([H])([H])OC([H])([H])C([H])([H])OC([H])([H])C([H])([H])C([H])([H])OC([H])([H])C([H])([H])C([H])([H])C([H])([H])C([H])([H])C([H])([H])N([H])C(=O)C([H])([H])OC([H])([H])C([H])([H])C([H])([H])N([H])C(=O)N3C([H])([H])C([H])([H])C([H])([H])C([H])(n4nc(-c5c([H])c([H])c(Oc6c([H])c([H])c(F)c([H])c6F)c([H])c5[H])c(C(=O)N([H])[H])c4N([H])[H])C3([H])[H])c([H])c([H])c2C1([H])[H]

>  <smiles>  (34) 
[H]c1c([H])c([H])c2c(c1[H])C([H])([H])C([H])([H])C([H])([H])C2([H])N([H])C(=O)C1([H])N(C(=O)C([H])(N([H])C(=O)C([H])(N([H])C([H])([H])[H])C([H])([H])[H])C(C([H])([H])[H])(C([H])([H])[H])C([H])([H])[H])C([H])([H])c2c([H])c(OC([H])([H])C([H])([H])OC([H])([H])C([H])([H])OC([H])([H])C([H])([H])C([H])([H])OC([H])([H])C([H])([H])C([H])([H])C([H])([H])C([H])([H])C([H])([H])N([H])C(=O)C([H])([H])OC([H])([H])C([H])([H])C([H])([H])N([H])C(=O)N3C([H])([H])C([H])([H])C([H])([H])C([H])(n4nc(-c5c([H])c([H])c(Oc6c([H])c([H])c(F)c([H])c6F)c([H])c5[H])c(C(=O)N([H])[H])c4N([H])[H])C3([H])[H])c([H])c([H])c2C1([H])[H]

$$$$
39:0:0
     RDKit          3D

110117  0  0  1  0  0  0  0  0999 V2000
  -31.1380  -22.5700   20.7790 C   0  0  0  0  0  2  0  0  0  0  0  0
  -29.7500  -22.5640   20.1280 C   0  0  0  0  0  2  0  0  0  0  0  0
  -29.9110  -22.1850   18.7700 O   0  0  0  0  0  0  0  0  0  0  0  0
  -28.7070  -22.1870   18.0150 C   0  0  0  0  0  2  0  0  0  0  0  0
  -29.0090  -21.4910   16.6850 C   0  0  0  0  0  2  0  0  0  0  0  0
  -29.2710  -20.1300   16.9900 O   0  0  0  0  0  0  0  0  0  0  0  0
  -29.8350  -19.3980   15.9140 C   0  0  0  0  0  2  0  0  0  0  0  0
  -30.4090  -18.1040   16.5020 C   0  0  0  0  0  2  0  0  0  0  0  0
  -31.4430  -18.4750   17.4020 O   0  0  0  0  0  0  0  0  0  0  0  0
  -31.9370  -17.3870   18.1640 C   0  0  0  0  0  2  0  0  0  0  0  0
  -32.9790  -17.9250   19.1510 C   0  0  0  0  0  2  0  0  0  0  0  0
  -32.2960  -18.6980   20.1250 O   0  0  0  0  0  0  0  0  0  0  0  0
  -33.0930  -19.0820   21.2360 C   0  0  0  0  0  2  0  0  0  0  0  0
  -32.1750  -19.2320   22.4610 C   0  0  0  0  0  2  0  0  0  0  0  0
  -31.9600  -17.9690   23.0810 O   0  0  0  0  0  0  0  0  0  0  0  0
  -30.9960  -17.1430   22.4390 C   0  0  0  0  0  2  0  0  0  0  0  0
  -31.3660  -15.6910   22.7490 C   0  0  0  0  0  2  0  0  0  0  0  0
  -30.7980  -14.2730   20.7760 C   0  0  0  0  0  0  0  0  0  0  0  0
  -30.4180  -12.2910   19.3600 C   0  0  0  0  0  2  0  0  0  0  0  0
  -29.4710  -12.5070   18.1670 C   0  0  0  0  0  2  0  0  0  0  0  0
  -28.0000  -12.3610   18.5930 C   0  0  0  0  0  2  0  0  0  0  0  0
  -27.6590  -13.1890   19.8600 C   0  0  0  0  0  3  0  0  0  0  0  0
  -28.6920  -12.9130   20.9720 C   0  0  0  0  0  2  0  0  0  0  0  0
  -30.0420  -13.2000   20.4500 N   0  0  0  0  0  0  0  0  0  0  0  0
  -31.7510  -14.6790   20.1030 O   0  0  0  0  0  0  0  0  0  0  0  0
  -30.5400  -14.7500   22.0010 N   0  0  0  0  0  0  0  0  0  0  0  0
  -29.7640  -14.3320   22.4910 H   0  0  0  0  0  0  0  0  0  0  0  0
  -25.2580  -13.8140   20.5640 C   0  0  0  0  0  0  0  0  0  0  0  0
  -24.1810  -13.0440   20.9160 C   0  0  0  0  0  0  0  0  0  0  0  0
  -24.6310  -11.6890   20.8660 C   0  0  0  0  0  0  0  0  0  0  0  0
  -26.2970  -12.9250   20.3240 N   0  0  0  0  0  0  0  0  0  0  0  0
  -25.9220  -11.6440   20.5650 N   0  0  0  0  0  0  0  0  0  0  0  0
  -23.8980  -10.4280   21.0350 C   0  0  0  0  0  0  0  0  0  0  0  0
  -24.3550   -9.4200   21.9130 C   0  0  0  0  0  3  0  0  0  0  0  0
  -23.6260   -8.2230   22.0720 C   0  0  0  0  0  3  0  0  0  0  0  0
  -22.4250   -8.0230   21.3520 C   0  0  0  0  0  0  0  0  0  0  0  0
  -21.9850   -9.0190   20.4630 C   0  0  0  0  0  3  0  0  0  0  0  0
  -22.7150  -10.2090   20.3020 C   0  0  0  0  0  3  0  0  0  0  0  0
  -21.6630   -6.8810   21.4220 O   0  0  0  0  0  0  0  0  0  0  0  0
  -21.6860   -6.0690   22.5260 C   0  0  0  0  0  0  0  0  0  0  0  0
  -21.4010   -6.5590   23.8190 C   0  0  0  0  0  3  0  0  0  0  0  0
  -21.3670   -5.6750   24.9170 C   0  0  0  0  0  3  0  0  0  0  0  0
  -21.6060   -4.3020   24.7220 C   0  0  0  0  0  0  0  0  0  0  0  0
  -21.8820   -3.8100   23.4340 C   0  0  0  0  0  3  0  0  0  0  0  0
  -21.9190   -4.6910   22.3390 C   0  0  0  0  0  0  0  0  0  0  0  0
  -22.1660   -4.2100   21.0980 F   0  0  0  0  0  0  0  0  0  0  0  0
  -21.5650   -3.4500   25.7730 F   0  0  0  0  0  0  0  0  0  0  0  0
  -22.7840  -13.5260   21.1830 C   0  0  0  0  0  0  0  0  0  0  0  0
  -22.0470  -12.8290   22.0420 N   0  0  0  0  0  0  0  0  0  0  0  0
  -22.3520  -14.5560   20.6680 O   0  0  0  0  0  0  0  0  0  0  0  0
  -22.4090  -12.0010   22.4920 H   0  0  0  0  0  0  0  0  0  0  0  0
  -21.1060  -13.1290   22.2520 H   0  0  0  0  0  0  0  0  0  0  0  0
  -25.4360  -15.1870   20.4120 N   0  0  0  0  0  0  0  0  0  0  0  0
  -24.6860  -15.8550   20.5490 H   0  0  0  0  0  0  0  0  0  0  0  0
  -26.3110  -15.6190   20.1390 H   0  0  0  0  0  0  0  0  0  0  0  0
  -31.9710  -23.4850   20.0780 O   0  0  0  0  0  0  0  0  0  0  0  0
  -33.1520  -23.8110   20.7930 C   0  0  0  0  0  2  0  0  0  0  0  0
  -34.1660  -24.4550   19.8410 C   0  0  0  0  0  2  0  0  0  0  0  0
  -33.7790  -25.7880   19.5130 O   0  0  0  0  0  0  0  0  0  0  0  0
  -34.8790  -26.5310   18.9960 C   0  0  0  0  0  2  0  0  0  0  0  0
  -34.3680  -27.8870   18.5060 C   0  0  0  0  0  2  0  0  0  0  0  0
  -33.6020  -27.6610   17.3290 O   0  0  0  0  0  0  0  0  0  0  0  0
  -32.5020  -28.5480   17.1530 C   0  0  0  0  0  2  0  0  0  0  0  0
  -31.2220  -27.7150   17.3290 C   0  0  0  0  0  2  0  0  0  0  0  0
  -31.1590  -27.0970   18.6750 N   0  0  0  0  0  4  0  0  0  0  0  0
  -32.0990  -26.7800   18.8910 H   0  0  0  0  0  0  0  0  0  0  0  0
  -30.9000  -27.7860   19.3690 H   0  0  0  0  0  0  0  0  0  0  0  0
  -30.2840  -25.9070   18.8000 C   0  0  0  0  0  2  0  0  0  0  0  0
  -28.7820  -26.2230   18.7780 C   0  0  0  0  0  2  0  0  0  0  0  0
  -28.4470  -26.8290   20.0230 O   0  0  0  0  0  0  0  0  0  0  0  0
  -24.6110  -31.8690   23.2150 C   0  0  0  0  0  0  0  0  0  0  0  0
  -27.2450  -27.4890   20.0670 C   0  0  0  0  0  0  0  0  0  0  0  0
  -23.3950  -30.4960   21.5530 C   0  0  0  0  0  3  0  0  0  0  0  0
  -24.8410  -28.9640   20.1160 C   0  0  0  0  0  0  0  0  0  0  0  0
  -25.9180  -30.8490   21.3610 C   0  0  0  0  0  2  0  0  0  0  0  0
  -25.9940  -29.4820   20.7160 C   0  0  0  0  0  0  0  0  0  0  0  0
  -27.1940  -28.7440   20.7050 C   0  0  0  0  0  3  0  0  0  0  0  0
  -26.0680  -26.9590   19.4880 C   0  0  0  0  0  3  0  0  0  0  0  0
  -24.8670  -27.6920   19.5120 C   0  0  0  0  0  3  0  0  0  0  0  0
  -23.6020  -29.8280   20.1660 C   0  0  0  0  0  2  0  0  0  0  0  0
  -24.6590  -31.0850   22.1030 N   0  0  0  0  0  0  0  0  0  0  0  0
  -23.5320  -32.1400   23.7610 O   0  0  0  0  0  0  0  0  0  0  0  0
  -22.7380  -29.4670   22.4990 C   0  0  0  0  0  0  0  0  0  0  0  0
  -21.4110  -29.3020   22.3740 N   0  0  0  0  0  0  0  0  0  0  0  0
  -23.4180  -28.8190   23.3000 O   0  0  0  0  0  0  0  0  0  0  0  0
  -20.9260  -29.8750   21.6970 H   0  0  0  0  0  0  0  0  0  0  0  0
  -18.0260  -28.1370   22.8480 C   0  0  0  0  0  0  0  0  0  0  0  0
  -20.5850  -28.3640   23.1320 C   0  0  0  0  0  3  0  0  0  0  0  0
  -20.6760  -26.9370   22.5410 C   0  0  0  0  0  2  0  0  0  0  0  0
  -19.5750  -26.6380   21.5200 C   0  0  0  0  0  2  0  0  0  0  0  0
  -18.1920  -26.7910   22.1610 C   0  0  0  0  0  2  0  0  0  0  0  0
  -19.1510  -28.8820   23.2910 C   0  0  0  0  0  0  0  0  0  0  0  0
  -18.9440  -30.1430   23.8920 C   0  0  0  0  0  3  0  0  0  0  0  0
  -17.6450  -30.6580   24.0560 C   0  0  0  0  0  3  0  0  0  0  0  0
  -16.5340  -29.9090   23.6310 C   0  0  0  0  0  3  0  0  0  0  0  0
  -16.7260  -28.6500   23.0340 C   0  0  0  0  0  3  0  0  0  0  0  0
  -25.9020  -32.4830   23.8410 C   0  0  0  0  0  3  0  0  0  0  0  0
  -26.4480  -31.6600   25.0720 C   0  0  1  0  0  0  0  0  0  0  0  0
  -25.3770  -31.3700   26.1500 C   0  0  0  0  0  1  0  0  0  0  0  0
  -27.0270  -30.3040   24.6060 C   0  0  0  0  0  1  0  0  0  0  0  0
  -27.6060  -32.4300   25.7490 C   0  0  0  0  0  1  0  0  0  0  0  0
  -25.5880  -33.8630   24.2340 N   0  0  0  0  0  0  0  0  0  0  0  0
  -25.9020  -34.9480   23.5130 C   0  0  0  0  0  0  0  0  0  0  0  0
  -26.5570  -34.8930   22.4690 O   0  0  0  0  0  0  0  0  0  0  0  0
  -25.0070  -33.9780   25.0500 H   0  0  0  0  0  0  0  0  0  0  0  0
  -24.1470  -36.7330   23.2630 C   0  0  0  0  0  1  0  0  0  0  0  0
  -25.4080  -36.3120   24.0340 C   0  0  0  0  0  3  0  0  0  0  0  0
  -27.5570  -37.1820   24.8450 C   0  0  0  0  0  1  0  0  0  0  0  0
  -26.4270  -37.3800   23.9420 N   0  0  0  0  0  0  0  0  0  0  0  0
  -26.0170  -38.2880   24.1460 H   0  0  0  0  0  0  0  0  0  0  0  0
  2  1  1  0
  3  2  1  0
  4  3  1  0
  5  6  1  0
  5  4  1  0
  7  8  1  0
  7  6  1  0
  8  9  1  0
  9 10  1  0
 10 11  1  0
 11 12  1  0
 12 13  1  0
 13 14  1  0
 14 15  1  0
 16 17  1  0
 16 15  1  0
 18 26  1  0
 19 24  1  0
 20 21  1  0
 20 19  1  0
 22 21  1  0
 22 31  1  0
 22 23  1  0
 24 18  1  0
 24 23  1  0
 25 18  2  0
 26 27  1  0
 26 17  1  0
 28 29  2  0
 29 48  1  0
 30 29  1  0
 30 33  1  0
 31 28  1  0
 31 32  1  0
 32 30  2  0
 33 34  1  0
 34 35  2  0
 36 39  1  0
 36 35  1  0
 37 36  2  0
 38 37  1  0
 38 33  2  0
 39 40  1  0
 40 41  1  0
 41 42  2  0
 43 42  1  0
 43 47  1  0
 44 43  2  0
 45 40  2  0
 45 44  1  0
 46 45  1  0
 48 49  1  0
 49 52  1  0
 49 51  1  0
 50 48  2  0
 53 54  1  0
 53 28  1  0
 55 53  1  0
 56  1  1  0
 56 57  1  0
 58 57  1  0
 59 58  1  0
 60 59  1  0
 61 60  1  0
 62 61  1  0
 63 64  1  0
 63 62  1  0
 64 65  1  0
 65 68  1  0
 65 66  1  0
 65 67  1  0
 69 68  1  0
 69 70  1  0
 70 72  1  0
 71 82  2  0
 72 77  1  0
 73 81  1  0
 73 83  1  0
 74 80  1  0
 74 76  1  0
 75 81  1  0
 76 75  1  0
 77 76  2  0
 78 79  1  0
 78 72  2  0
 79 74  2  0
 80 73  1  0
 81 71  1  0
 83 85  2  0
 84 83  1  0
 86 84  1  0
 87 96  2  0
 87 92  1  0
 88 84  1  0
 88 92  1  0
 89 88  1  0
 90 91  1  0
 90 89  1  0
 91 87  1  0
 92 93  2  0
 93 94  1  0
 95 94  2  0
 96 95  1  0
 97 71  1  0
 97102  1  0
 97 98  1  0
 98101  1  1
 98 99  1  0
100 98  1  0
102105  1  0
103107  1  0
103102  1  0
104103  2  0
107106  1  0
109107  1  0
109110  1  0
109108  1  0
M  ISO  4  18 100  26 100  69 101  70 101
M  END
>  <TORSDO>  (35) 
F 44

>  <SCORE>  (35) 
-6.294

>  <name>  (35) 
39

>  <ligand_id>  (35) 
39

>  <original_smiles>  (35) 
[H]c1c([H])c([H])c2c(c1[H])C([H])([H])C([H])([H])C([H])([H])C2([H])N([H])C(=O)C1([H])N(C(=O)C([H])(N([H])C(=O)C([H])(N([H])C([H])([H])[H])C([H])([H])[H])C(C([H])([H])[H])(C([H])([H])[H])C([H])([H])[H])C([H])([H])c2c([H])c(OC([H])([H])C([H])([H])[N+]([H])([H])C([H])([H])C([H])([H])OC([H])([H])C([H])([H])OC([H])([H])C([H])([H])OC([H])([H])C([H])([H])OC([H])([H])C([H])([H])OC([H])([H])C([H])([H])OC([H])([H])C([H])([H])OC([H])([H])C([H])([H])OC([H])([H])C([H])([H])N([H])C(=O)N3C([H])([H])C([H])([H])C([H])([H])C([H])(n4nc(-c5c([H])c([H])c(Oc6c([H])c([H])c(F)c([H])c6F)c([H])c5[H])c(C(=O)N([H])[H])c4N([H])[H])C3([H])[H])c([H])c([H])c2C1([H])[H]

>  <smiles>  (35) 
[H]c1c([H])c([H])c2c(c1[H])C([H])([H])C([H])([H])C([H])([H])C2([H])N([H])C(=O)C1([H])N(C(=O)C([H])(N([H])C(=O)C([H])(N([H])C([H])([H])[H])C([H])([H])[H])C(C([H])([H])[H])(C([H])([H])[H])C([H])([H])[H])C([H])([H])c2c([H])c(OC([H])([H])C([H])([H])[N+]([H])([H])C([H])([H])C([H])([H])OC([H])([H])C([H])([H])OC([H])([H])C([H])([H])OC([H])([H])C([H])([H])OC([H])([H])C([H])([H])OC([H])([H])C([H])([H])OC([H])([H])C([H])([H])OC([H])([H])C([H])([H])OC([H])([H])C([H])([H])N([H])C(=O)N3C([H])([H])C([H])([H])C([H])([H])C([H])(n4nc(-c5c([H])c([H])c(Oc6c([H])c([H])c(F)c([H])c6F)c([H])c5[H])c(C(=O)N([H])[H])c4N([H])[H])C3([H])[H])c([H])c([H])c2C1([H])[H]

$$$$
40:0:0
     RDKit          3D

116120  0  0  1  0  0  0  0  0999 V2000
  -28.4910  -20.3230   20.9870 C   0  0  0  0  0  2  0  0  0  0  0  0
  -28.7520  -19.7260   19.5960 C   0  0  0  0  0  2  0  0  0  0  0  0
  -29.7420  -18.7150   19.7080 O   0  0  0  0  0  0  0  0  0  0  0  0
  -30.6290  -18.6930   18.5960 C   0  0  0  0  0  2  0  0  0  0  0  0
  -31.6720  -17.5840   18.8020 C   0  0  0  0  0  2  0  0  0  0  0  0
  -31.3460  -16.4830   17.9600 O   0  0  0  0  0  0  0  0  0  0  0  0
  -32.3560  -15.4840   17.9170 C   0  0  0  0  0  2  0  0  0  0  0  0
  -32.2180  -14.6960   16.6060 C   0  0  0  0  0  2  0  0  0  0  0  0
  -32.8170  -15.4190   15.5350 O   0  0  0  0  0  0  0  0  0  0  0  0
  -32.9050  -14.6670   14.3260 C   0  0  0  0  0  2  0  0  0  0  0  0
  -33.6300  -15.5040   13.2580 C   0  0  0  0  0  2  0  0  0  0  0  0
  -34.9620  -15.8100   13.6730 O   0  0  0  0  0  0  0  0  0  0  0  0
  -35.6440  -16.6500   12.7460 C   0  0  0  0  0  2  0  0  0  0  0  0
  -37.0400  -17.0480   13.2630 C   0  0  0  0  0  2  0  0  0  0  0  0
  -37.7920  -17.6510   12.2090 O   0  0  0  0  0  0  0  0  0  0  0  0
  -38.4500  -18.8770   12.5410 C   0  0  0  0  0  2  0  0  0  0  0  0
  -37.5610  -20.1010   12.2650 C   0  0  0  0  0  2  0  0  0  0  0  0
  -36.3640  -19.9960   13.0270 O   0  0  0  0  0  0  0  0  0  0  0  0
  -36.4420  -20.6110   14.3090 C   0  0  0  0  0  2  0  0  0  0  0  0
  -35.4130  -19.9740   15.2540 C   0  0  0  0  0  2  0  0  0  0  0  0
  -32.7040  -18.8520   14.7440 C   0  0  2  0  0  0  0  0  0  0  0  0
  -33.4480  -17.8930   15.8170 C   0  0  0  0  0  1  0  0  0  0  0  0
  -33.2090  -19.3840   16.9930 C   0  0  0  0  0  1  0  0  0  0  0  0
  -32.8210  -20.9760   16.2980 C   0  0  0  0  0  2  0  0  0  0  0  0
  -32.1420  -21.1700   14.6930 C   0  0  0  0  0  2  0  0  0  0  0  0
  -32.2120  -19.7410   13.4780 C   0  0  0  0  0  1  0  0  0  0  0  0
  -32.9270  -18.1960   14.0840 N   0  0  0  0  0  1  0  0  0  0  0  0
  -31.4540  -18.6090   15.2970 O   0  0  0  0  0  1  0  0  0  0  0  0
  -34.1680  -19.5570   14.5360 N   0  0  0  0  0  2  0  0  0  0  0  0
  -34.4410  -19.3610   13.5840 H   0  0  0  0  0  0  0  0  0  0  0  0
  -31.6690  -23.1660   13.1690 C   0  0  0  0  0  0  0  0  0  0  0  0
  -32.3010  -24.3540   12.9170 C   0  0  0  0  0  0  0  0  0  0  0  0
  -33.4650  -24.3720   13.7470 C   0  0  0  0  0  0  0  0  0  0  0  0
  -32.4380  -22.4890   14.0950 N   0  0  0  0  0  0  0  0  0  0  0  0
  -33.5490  -23.2180   14.4180 N   0  0  0  0  0  0  0  0  0  0  0  0
  -34.4580  -25.4490   13.9590 C   0  0  0  0  0  0  0  0  0  0  0  0
  -35.8190  -25.1710   14.2130 C   0  0  0  0  0  3  0  0  0  0  0  0
  -36.7540  -26.2190   14.3780 C   0  0  0  0  0  3  0  0  0  0  0  0
  -36.3360  -27.5690   14.2870 C   0  0  0  0  0  0  0  0  0  0  0  0
  -34.9770  -27.8470   14.0500 C   0  0  0  0  0  3  0  0  0  0  0  0
  -34.0490  -26.7970   13.8870 C   0  0  0  0  0  3  0  0  0  0  0  0
  -37.1610  -28.6540   14.4670 O   0  0  0  0  0  0  0  0  0  0  0  0
  -38.5300  -28.5290   14.4780 C   0  0  0  0  0  0  0  0  0  0  0  0
  -39.2190  -27.8200   13.4730 C   0  0  0  0  0  3  0  0  0  0  0  0
  -40.6270  -27.7760   13.4790 C   0  0  0  0  0  3  0  0  0  0  0  0
  -41.3500  -28.4400   14.4870 C   0  0  0  0  0  0  0  0  0  0  0  0
  -40.6640  -29.1560   15.4850 C   0  0  0  0  0  3  0  0  0  0  0  0
  -39.2620  -29.2030   15.4810 C   0  0  0  0  0  0  0  0  0  0  0  0
  -38.6090  -29.9070   16.4330 F   0  0  0  0  0  0  0  0  0  0  0  0
  -42.7030  -28.4010   14.4930 F   0  0  0  0  0  0  0  0  0  0  0  0
  -31.7990  -25.4400   12.0140 C   0  0  0  0  0  0  0  0  0  0  0  0
  -32.7020  -26.1800   11.3790 N   0  0  0  0  0  0  0  0  0  0  0  0
  -30.5960  -25.6020   11.8200 O   0  0  0  0  0  0  0  0  0  0  0  0
  -33.6910  -26.0380   11.5170 H   0  0  0  0  0  0  0  0  0  0  0  0
  -32.3900  -26.8970   10.7390 H   0  0  0  0  0  0  0  0  0  0  0  0
  -30.4960  -22.5940   12.6920 N   0  0  0  0  0  0  0  0  0  0  0  0
  -29.8570  -23.0710   12.0640 H   0  0  0  0  0  0  0  0  0  0  0  0
  -30.1500  -21.6960   13.0080 H   0  0  0  0  0  0  0  0  0  0  0  0
  -27.5450  -21.3800   20.8810 O   0  0  0  0  0  0  0  0  0  0  0  0
  -27.4660  -22.1660   22.0630 C   0  0  0  0  0  2  0  0  0  0  0  0
  -26.4700  -23.3240   21.8950 C   0  0  0  0  0  2  0  0  0  0  0  0
  -25.2630  -22.9710   22.5580 O   0  0  0  0  0  0  0  0  0  0  0  0
  -24.3030  -24.0180   22.6760 C   0  0  0  0  0  2  0  0  0  0  0  0
  -24.9980  -25.3890   22.7280 C   0  0  0  0  0  2  0  0  0  0  0  0
  -25.1740  -25.9360   21.4280 O   0  0  0  0  0  0  0  0  0  0  0  0
  -26.4650  -26.5100   21.2360 C   0  0  0  0  0  2  0  0  0  0  0  0
  -27.1770  -25.7420   20.1160 C   0  0  0  0  0  2  0  0  0  0  0  0
  -26.4500  -25.8610   18.8890 O   0  0  0  0  0  0  0  0  0  0  0  0
  -26.8370  -24.8990   17.9090 C   0  0  0  0  0  2  0  0  0  0  0  0
  -25.9050  -23.6610   17.9300 C   0  0  0  0  0  2  0  0  0  0  0  0
  -24.7460  -23.7710   16.9980 N   0  0  0  0  0  4  0  0  0  0  0  0
  -24.0120  -24.3010   17.4460 H   0  0  0  0  0  0  0  0  0  0  0  0
  -25.0470  -24.3090   16.1990 H   0  0  0  0  0  0  0  0  0  0  0  0
  -24.1840  -22.4780   16.5000 C   0  0  0  0  0  2  0  0  0  0  0  0
  -23.3340  -22.6110   15.2160 C   0  0  0  0  0  2  0  0  0  0  0  0
  -22.1190  -23.3220   15.4530 O   0  0  0  0  0  0  0  0  0  0  0  0
  -26.3730  -28.9020   16.5970 C   0  0  0  0  0  0  0  0  0  0  0  0
  -22.2560  -24.6180   15.8790 C   0  0  0  0  0  0  0  0  0  0  0  0
  -24.1180  -29.0290   17.6200 C   0  0  0  0  0  3  0  0  0  0  0  0
  -22.4620  -27.2510   16.8480 C   0  0  0  0  0  0  0  0  0  0  0  0
  -24.4960  -27.7110   15.4690 C   0  0  0  0  0  2  0  0  0  0  0  0
  -23.4040  -26.7710   15.9260 C   0  0  0  0  0  0  0  0  0  0  0  0
  -23.3080  -25.4520   15.4390 C   0  0  0  0  0  3  0  0  0  0  0  0
  -21.3050  -25.1170   16.7890 C   0  0  0  0  0  3  0  0  0  0  0  0
  -21.4080  -26.4300   17.2800 C   0  0  0  0  0  3  0  0  0  0  0  0
  -22.6360  -28.6730   17.3250 C   0  0  0  0  0  2  0  0  0  0  0  0
  -25.0620  -28.5300   16.5640 N   0  0  0  0  0  0  0  0  0  0  0  0
  -26.7910  -29.6890   17.4580 O   0  0  0  0  0  0  0  0  0  0  0  0
  -24.4620  -28.5170   19.0340 C   0  0  0  0  0  0  0  0  0  0  0  0
  -23.6620  -28.9420   20.0240 N   0  0  0  0  0  0  0  0  0  0  0  0
  -25.3980  -27.7340   19.2160 O   0  0  0  0  0  0  0  0  0  0  0  0
  -22.9060  -29.5650   19.7830 H   0  0  0  0  0  0  0  0  0  0  0  0
  -21.8860  -28.9060   23.1670 C   0  0  0  0  0  0  0  0  0  0  0  0
  -23.7620  -28.5570   21.4290 C   0  0  0  0  0  3  0  0  0  0  0  0
  -23.4970  -27.0470   21.6000 C   0  0  0  0  0  2  0  0  0  0  0  0
  -22.0380  -26.7140   21.9180 C   0  0  0  0  0  2  0  0  0  0  0  0
  -21.6080  -27.4170   23.2100 C   0  0  0  0  0  2  0  0  0  0  0  0
  -22.8880  -29.4490   22.3220 C   0  0  0  0  0  0  0  0  0  0  0  0
  -23.0800  -30.8480   22.2940 C   0  0  0  0  0  3  0  0  0  0  0  0
  -22.2950  -31.6950   23.1010 C   0  0  0  0  0  3  0  0  0  0  0  0
  -21.3110  -31.1510   23.9440 C   0  0  0  0  0  3  0  0  0  0  0  0
  -21.1090  -29.7630   23.9770 C   0  0  0  0  0  3  0  0  0  0  0  0
  -27.4040  -28.3820   15.5470 C   0  0  0  0  0  3  0  0  0  0  0  0
  -28.5680  -29.2750   15.5990 N   0  0  0  0  0  0  0  0  0  0  0  0
  -28.8500  -30.2120   14.6820 C   0  0  0  0  0  0  0  0  0  0  0  0
  -28.1780  -30.3680   13.6570 O   0  0  0  0  0  0  0  0  0  0  0  0
  -29.1140  -29.2540   16.4480 H   0  0  0  0  0  0  0  0  0  0  0  0
  -29.6040  -32.4620   15.5170 C   0  0  0  0  0  1  0  0  0  0  0  0
  -30.0700  -31.1160   14.9380 C   0  0  0  0  0  3  0  0  0  0  0  0
  -31.5800  -30.1560   13.2560 C   0  0  0  0  0  1  0  0  0  0  0  0
  -30.8890  -31.3530   13.7290 N   0  0  0  0  0  0  0  0  0  0  0  0
  -31.5820  -32.0750   13.9000 H   0  0  0  0  0  0  0  0  0  0  0  0
  -27.8350  -26.8850   15.7880 C   0  0  1  0  0  0  0  0  0  0  0  0
  -28.3600  -26.6110   17.2160 C   0  0  0  0  0  1  0  0  0  0  0  0
  -26.6420  -25.9360   15.5250 C   0  0  0  0  0  1  0  0  0  0  0  0
  -28.9460  -26.4900   14.7890 C   0  0  0  0  0  1  0  0  0  0  0  0
  2  3  1  0
  2  1  1  0
  4  5  1  0
  4  3  1  0
  6  5  1  0
  7  6  1  0
  8  7  1  0
  9  8  1  0
 10  9  1  0
 11 12  1  0
 11 10  1  0
 13 14  1  0
 13 12  1  0
 15 16  1  0
 15 14  1  0
 17 16  1  0
 17 18  1  0
 18 19  1  0
 19 20  1  0
 21 28  1  0
 21 22  1  6
 24 23  1  0
 25 24  1  0
 26 21  1  0
 27 21  1  0
 29 20  1  0
 30 29  1  0
 31 34  1  0
 32 31  2  0
 32 33  1  0
 33 36  1  0
 33 35  2  0
 34 35  1  0
 34 25  1  0
 36 37  1  0
 37 38  2  0
 39 38  1  0
 39 42  1  0
 40 39  2  0
 41 36  2  0
 41 40  1  0
 42 43  1  0
 43 48  1  0
 44 45  1  0
 44 43  2  0
 45 46  2  0
 46 50  1  0
 46 47  1  0
 48 47  2  0
 48 49  1  0
 51 32  1  0
 52 54  1  0
 52 51  1  0
 53 51  2  0
 55 52  1  0
 56 58  1  0
 56 31  1  0
 57 56  1  0
 59  1  1  0
 59 60  1  0
 61 60  1  0
 61 62  1  0
 62 63  1  0
 63 64  1  0
 65 64  1  0
 66 65  1  0
 67 66  1  0
 68 67  1  0
 69 70  1  0
 69 68  1  0
 71 72  1  0
 71 70  1  0
 73 71  1  0
 74 71  1  0
 75 76  1  0
 75 74  1  0
 76 78  1  0
 77 88  2  0
 78 84  1  0
 79 89  1  0
 80 85  1  0
 80 86  1  0
 81 82  1  0
 81 87  1  0
 82 80  2  0
 83 78  2  0
 83 82  1  0
 84 85  2  0
 86 79  1  0
 87 77  1  0
 87 79  1  0
 89 91  2  0
 89 90  1  0
 92 90  1  0
 93 97  1  0
 93102  1  0
 94 90  1  0
 94 95  1  0
 94 98  1  0
 95 96  1  0
 96 97  1  0
 98 93  2  0
 99 98  1  0
 99100  2  0
100101  1  0
101102  2  0
103104  1  0
103113  1  0
103 77  1  0
104107  1  0
105109  1  0
105104  1  0
106105  2  0
109108  1  0
110111  1  0
111112  1  0
111109  1  0
113114  1  1
115113  1  0
116113  1  0
M  ISO  4  21 100  29 100  75 101  76 101
M  END
>  <TORSDO>  (36) 
F 50

>  <SCORE>  (36) 
1.824

>  <name>  (36) 
40

>  <ligand_id>  (36) 
40

>  <original_smiles>  (36) 
[H]c1c([H])c([H])c2c(c1[H])C([H])([H])C([H])([H])C([H])([H])C2([H])N([H])C(=O)C1([H])N(C(=O)C([H])(N([H])C(=O)C([H])(N([H])C([H])([H])[H])C([H])([H])[H])C(C([H])([H])[H])(C([H])([H])[H])C([H])([H])[H])C([H])([H])c2c([H])c(OC([H])([H])C([H])([H])[N+]([H])([H])C([H])([H])C([H])([H])OC([H])([H])C([H])([H])OC([H])([H])C([H])([H])OC([H])([H])C([H])([H])OC([H])([H])C([H])([H])OC([H])([H])C([H])([H])OC([H])([H])C([H])([H])OC([H])([H])C([H])([H])OC([H])([H])C([H])([H])OC([H])([H])C([H])([H])OC([H])([H])C([H])([H])N([H])C(=O)N3C([H])([H])C([H])([H])C([H])([H])C([H])(n4nc(-c5c([H])c([H])c(Oc6c([H])c([H])c(F)c([H])c6F)c([H])c5[H])c(C(=O)N([H])[H])c4N([H])[H])C3([H])[H])c([H])c([H])c2C1([H])[H]

>  <smiles>  (36) 
[H]c1c([H])c([H])c2c(c1[H])C([H])([H])C([H])([H])C([H])([H])C2([H])N([H])C(=O)C1([H])N(C(=O)C([H])(N([H])C(=O)C([H])(N([H])C([H])([H])[H])C([H])([H])[H])C(C([H])([H])[H])(C([H])([H])[H])C([H])([H])[H])C([H])([H])c2c([H])c(OC([H])([H])C([H])([H])[N+]([H])([H])C([H])([H])C([H])([H])OC([H])([H])C([H])([H])OC([H])([H])C([H])([H])OC([H])([H])C([H])([H])OC([H])([H])C([H])([H])OC([H])([H])C([H])([H])OC([H])([H])C([H])([H])OC([H])([H])C([H])([H])OC([H])([H])C([H])([H])OC([H])([H])C([H])([H])OC([H])([H])C([H])([H])N([H])C(=O)N3C([H])([H])C([H])([H])C([H])([H])C([H])(n4nc(-c5c([H])c([H])c(Oc6c([H])c([H])c(F)c([H])c6F)c([H])c5[H])c(C(=O)N([H])[H])c4N([H])[H])C3([H])[H])c([H])c([H])c2C1([H])[H]

$$$$
41:0:0
     RDKit          3D

104111  0  0  1  0  0  0  0  0999 V2000
  -26.7880  -18.5780   18.7050 C   0  0  0  0  0  2  0  0  0  0  0  0
  -27.4950  -17.5010   17.8630 C   0  0  0  0  0  2  0  0  0  0  0  0
  -28.6480  -18.0270   17.2290 O   0  0  0  0  0  0  0  0  0  0  0  0
  -28.3390  -18.8210   16.0940 C   0  0  0  0  0  2  0  0  0  0  0  0
  -29.5920  -19.6140   15.7460 C   0  0  0  0  0  2  0  0  0  0  0  0
  -29.7170  -20.6260   16.7340 O   0  0  0  0  0  0  0  0  0  0  0  0
  -30.8150  -21.4900   16.5150 C   0  0  0  0  0  2  0  0  0  0  0  0
  -30.9820  -22.4000   17.7420 C   0  0  0  0  0  2  0  0  0  0  0  0
  -31.6990  -21.7540   18.7900 O   0  0  0  0  0  0  0  0  0  0  0  0
  -30.9720  -20.7610   19.5120 C   0  0  0  0  0  2  0  0  0  0  0  0
  -31.6530  -19.3870   19.3760 C   0  0  0  0  0  2  0  0  0  0  0  0
  -31.5010  -18.6280   20.5790 O   0  0  0  0  0  0  0  0  0  0  0  0
  -31.2630  -17.2480   20.3200 C   0  0  0  0  0  2  0  0  0  0  0  0
  -31.0520  -16.4630   21.6290 C   0  0  0  0  0  2  0  0  0  0  0  0
  -31.1490  -14.1350   20.6690 C   0  0  0  0  0  0  0  0  0  0  0  0
  -30.6660  -12.1010   19.3540 C   0  0  0  0  0  2  0  0  0  0  0  0
  -29.7580  -12.4410   18.1560 C   0  0  0  0  0  2  0  0  0  0  0  0
  -28.2720  -12.4370   18.5580 C   0  0  0  0  0  2  0  0  0  0  0  0
  -27.9950  -13.2260   19.8670 C   0  0  0  0  0  3  0  0  0  0  0  0
  -29.0040  -12.8340   20.9690 C   0  0  0  0  0  2  0  0  0  0  0  0
  -30.3650  -13.0490   20.4380 N   0  0  0  0  0  0  0  0  0  0  0  0
  -32.2640  -14.2890   20.1700 O   0  0  0  0  0  0  0  0  0  0  0  0
  -30.5710  -15.0980   21.4020 N   0  0  0  0  0  0  0  0  0  0  0  0
  -29.6620  -14.8760   21.7730 H   0  0  0  0  0  0  0  0  0  0  0  0
  -25.6420  -14.0180   20.5490 C   0  0  0  0  0  0  0  0  0  0  0  0
  -24.4990  -13.3240   20.8510 C   0  0  0  0  0  0  0  0  0  0  0  0
  -24.8410  -11.9430   20.7640 C   0  0  0  0  0  0  0  0  0  0  0  0
  -26.6120  -13.0580   20.3040 N   0  0  0  0  0  0  0  0  0  0  0  0
  -26.1290  -11.8030   20.4840 N   0  0  0  0  0  0  0  0  0  0  0  0
  -24.0040  -10.7420   20.8790 C   0  0  0  0  0  0  0  0  0  0  0  0
  -24.3190   -9.7110   21.7870 C   0  0  0  0  0  3  0  0  0  0  0  0
  -23.4870   -8.5750   21.8970 C   0  0  0  0  0  3  0  0  0  0  0  0
  -22.3290   -8.4650   21.0930 C   0  0  0  0  0  0  0  0  0  0  0  0
  -22.0340   -9.4860   20.1720 C   0  0  0  0  0  3  0  0  0  0  0  0
  -22.8650  -10.6110   20.0610 C   0  0  0  0  0  3  0  0  0  0  0  0
  -21.4780   -7.3850   21.1080 O   0  0  0  0  0  0  0  0  0  0  0  0
  -21.3050   -6.6220   22.2350 C   0  0  0  0  0  0  0  0  0  0  0  0
  -20.8600   -7.1830   23.4510 C   0  0  0  0  0  3  0  0  0  0  0  0
  -20.6340   -6.3550   24.5690 C   0  0  0  0  0  3  0  0  0  0  0  0
  -20.8340   -4.9650   24.4670 C   0  0  0  0  0  0  0  0  0  0  0  0
  -21.2700   -4.4030   23.2540 C   0  0  0  0  0  3  0  0  0  0  0  0
  -21.5020   -5.2290   22.1400 C   0  0  0  0  0  0  0  0  0  0  0  0
  -21.9020   -4.6820   20.9650 F   0  0  0  0  0  0  0  0  0  0  0  0
  -20.6070   -4.1650   25.5350 F   0  0  0  0  0  0  0  0  0  0  0  0
  -23.1490  -13.9130   21.1220 C   0  0  0  0  0  0  0  0  0  0  0  0
  -22.3500  -13.2430   21.9490 N   0  0  0  0  0  0  0  0  0  0  0  0
  -22.8120  -14.9950   20.6470 O   0  0  0  0  0  0  0  0  0  0  0  0
  -22.6350  -12.3630   22.3520 H   0  0  0  0  0  0  0  0  0  0  0  0
  -21.4420  -13.6210   22.1800 H   0  0  0  0  0  0  0  0  0  0  0  0
  -25.9180  -15.3740   20.4590 N   0  0  0  0  0  0  0  0  0  0  0  0
  -25.1980  -16.0660   20.6480 H   0  0  0  0  0  0  0  0  0  0  0  0
  -26.8350  -15.7690   20.3050 H   0  0  0  0  0  0  0  0  0  0  0  0
  -27.6730  -19.0580   19.7130 O   0  0  0  0  0  0  0  0  0  0  0  0
  -27.0250  -19.9700   20.5920 C   0  0  0  0  0  2  0  0  0  0  0  0
  -27.9810  -20.4030   21.7060 C   0  0  0  0  0  2  0  0  0  0  0  0
  -28.7190  -21.5280   21.2470 O   0  0  0  0  0  0  0  0  0  0  0  0
  -29.6020  -22.0370   22.2370 C   0  0  0  0  0  2  0  0  0  0  0  0
  -30.2080  -23.3350   21.6840 C   0  0  0  0  0  2  0  0  0  0  0  0
  -29.1250  -24.1960   21.1530 N   0  0  0  0  0  4  0  0  0  0  0  0
  -28.6520  -23.6320   20.4630 H   0  0  0  0  0  0  0  0  0  0  0  0
  -28.4560  -24.3570   21.8930 H   0  0  0  0  0  0  0  0  0  0  0  0
  -29.5140  -25.4990   20.5520 C   0  0  0  0  0  2  0  0  0  0  0  0
  -28.3000  -26.1220   19.8370 C   0  0  0  0  0  2  0  0  0  0  0  0
  -28.4350  -27.5250   19.5240 O   0  0  0  0  0  0  0  0  0  0  0  0
  -24.4780  -31.9940   23.3400 C   0  0  0  0  0  0  0  0  0  0  0  0
  -27.2420  -28.2170   19.5780 C   0  0  0  0  0  0  0  0  0  0  0  0
  -23.2810  -30.7040   21.6060 C   0  0  0  0  0  3  0  0  0  0  0  0
  -24.7500  -29.5090   19.9010 C   0  0  0  0  0  0  0  0  0  0  0  0
  -25.7500  -31.3150   21.3090 C   0  0  0  0  0  2  0  0  0  0  0  0
  -25.9010  -30.0530   20.4860 C   0  0  0  0  0  0  0  0  0  0  0  0
  -27.1540  -29.4170   20.3180 C   0  0  0  0  0  3  0  0  0  0  0  0
  -26.0760  -27.7100   18.9560 C   0  0  0  0  0  3  0  0  0  0  0  0
  -24.8340  -28.3420   19.1280 C   0  0  0  0  0  3  0  0  0  0  0  0
  -23.4440  -30.2300   20.1390 C   0  0  0  0  0  2  0  0  0  0  0  0
  -24.5250  -31.3430   22.1450 N   0  0  0  0  0  0  0  0  0  0  0  0
  -23.4160  -32.1020   23.9700 O   0  0  0  0  0  0  0  0  0  0  0  0
  -22.7850  -29.5140   22.4570 C   0  0  0  0  0  0  0  0  0  0  0  0
  -21.4960  -29.1690   22.3080 N   0  0  0  0  0  0  0  0  0  0  0  0
  -23.5540  -28.9110   23.2110 O   0  0  0  0  0  0  0  0  0  0  0  0
  -20.9300  -29.7140   21.6720 H   0  0  0  0  0  0  0  0  0  0  0  0
  -18.3710  -27.3670   22.5130 C   0  0  0  0  0  0  0  0  0  0  0  0
  -20.8170  -28.0620   22.9810 C   0  0  0  0  0  3  0  0  0  0  0  0
  -21.2160  -26.7040   22.3580 C   0  0  0  0  0  2  0  0  0  0  0  0
  -20.2570  -26.2430   21.2550 C   0  0  0  0  0  2  0  0  0  0  0  0
  -18.8330  -26.1070   21.8040 C   0  0  0  0  0  2  0  0  0  0  0  0
  -19.3030  -28.2930   23.0530 C   0  0  0  0  0  0  0  0  0  0  0  0
  -18.8220  -29.4670   23.6710 C   0  0  0  0  0  3  0  0  0  0  0  0
  -17.4390  -29.7200   23.7580 C   0  0  0  0  0  3  0  0  0  0  0  0
  -16.5200  -28.7910   23.2380 C   0  0  0  0  0  3  0  0  0  0  0  0
  -16.9870  -27.6160   22.6220 C   0  0  0  0  0  3  0  0  0  0  0  0
  -25.7480  -32.6560   23.9600 C   0  0  0  0  0  3  0  0  0  0  0  0
  -26.3450  -31.8380   25.1680 C   0  0  1  0  0  0  0  0  0  0  0  0
  -25.3020  -31.4890   26.2560 C   0  0  0  0  0  1  0  0  0  0  0  0
  -26.9720  -30.5140   24.6720 C   0  0  0  0  0  1  0  0  0  0  0  0
  -27.4860  -32.6440   25.8320 C   0  0  0  0  0  1  0  0  0  0  0  0
  -25.3820  -34.0140   24.3780 N   0  0  0  0  0  0  0  0  0  0  0  0
  -25.6890  -35.1260   23.6990 C   0  0  0  0  0  0  0  0  0  0  0  0
  -26.3820  -35.1180   22.6770 O   0  0  0  0  0  0  0  0  0  0  0  0
  -24.7640  -34.0970   25.1730 H   0  0  0  0  0  0  0  0  0  0  0  0
  -23.9010  -36.8700   23.4250 C   0  0  0  0  0  1  0  0  0  0  0  0
  -25.1400  -36.4610   24.2360 C   0  0  0  0  0  3  0  0  0  0  0  0
  -27.2270  -37.3590   25.1670 C   0  0  0  0  0  1  0  0  0  0  0  0
  -26.1340  -37.5570   24.2180 N   0  0  0  0  0  0  0  0  0  0  0  0
  -25.6900  -38.4480   24.4260 H   0  0  0  0  0  0  0  0  0  0  0  0
  1 53  1  0
  2  1  1  0
  3  2  1  0
  4  3  1  0
  5  4  1  0
  5  6  1  0
  7  6  1  0
  7  8  1  0
  8  9  1  0
  9 10  1  0
 11 10  1  0
 11 12  1  0
 13 12  1  0
 13 14  1  0
 15 23  1  0
 16 21  1  0
 17 18  1  0
 17 16  1  0
 19 18  1  0
 19 28  1  0
 19 20  1  0
 21 15  1  0
 21 20  1  0
 22 15  2  0
 23 14  1  0
 23 24  1  0
 25 26  2  0
 26 45  1  0
 27 26  1  0
 27 30  1  0
 28 29  1  0
 28 25  1  0
 29 27  2  0
 30 31  1  0
 31 32  2  0
 33 36  1  0
 33 32  1  0
 34 33  2  0
 35 34  1  0
 35 30  2  0
 36 37  1  0
 37 38  1  0
 38 39  2  0
 40 39  1  0
 40 44  1  0
 41 40  2  0
 42 37  2  0
 42 41  1  0
 43 42  1  0
 45 46  1  0
 46 49  1  0
 46 48  1  0
 47 45  2  0
 50 25  1  0
 50 51  1  0
 52 50  1  0
 53 54  1  0
 54 55  1  0
 56 55  1  0
 56 57  1  0
 58 57  1  0
 59 58  1  0
 59 61  1  0
 60 59  1  0
 62 59  1  0
 63 62  1  0
 64 66  1  0
 64 63  1  0
 65 76  2  0
 66 71  1  0
 67 75  1  0
 67 77  1  0
 68 74  1  0
 68 70  1  0
 69 75  1  0
 70 69  1  0
 71 70  2  0
 72 73  1  0
 72 66  2  0
 73 68  2  0
 74 67  1  0
 75 65  1  0
 77 79  2  0
 78 77  1  0
 80 78  1  0
 81 90  2  0
 81 86  1  0
 82 78  1  0
 82 86  1  0
 83 82  1  0
 84 85  1  0
 84 83  1  0
 85 81  1  0
 86 87  2  0
 87 88  1  0
 89 88  2  0
 90 89  1  0
 91 65  1  0
 91 96  1  0
 91 92  1  0
 92 95  1  1
 92 93  1  0
 94 92  1  0
 96 99  1  0
 97101  1  0
 97 96  1  0
 98 97  2  0
101100  1  0
103101  1  0
103104  1  0
103102  1  0
M  ISO  4  15 100  23 100  63 101  64 101
M  END
>  <TORSDO>  (37) 
F 38

>  <SCORE>  (37) 
-6.063

>  <name>  (37) 
41

>  <ligand_id>  (37) 
41

>  <original_smiles>  (37) 
[H]c1c([H])c([H])c2c(c1[H])C([H])([H])C([H])([H])C([H])([H])C2([H])N([H])C(=O)C1([H])N(C(=O)C([H])(N([H])C(=O)C([H])(N([H])C([H])([H])[H])C([H])([H])[H])C(C([H])([H])[H])(C([H])([H])[H])C([H])([H])[H])C([H])([H])c2c([H])c(OC([H])([H])C([H])([H])[N+]([H])([H])C([H])([H])C([H])([H])OC([H])([H])C([H])([H])OC([H])([H])C([H])([H])OC([H])([H])C([H])([H])OC([H])([H])C([H])([H])OC([H])([H])C([H])([H])OC([H])([H])C([H])([H])N([H])C(=O)N3C([H])([H])C([H])([H])C([H])([H])C([H])(n4nc(-c5c([H])c([H])c(Oc6c([H])c([H])c(F)c([H])c6F)c([H])c5[H])c(C(=O)N([H])[H])c4N([H])[H])C3([H])[H])c([H])c([H])c2C1([H])[H]

>  <smiles>  (37) 
[H]c1c([H])c([H])c2c(c1[H])C([H])([H])C([H])([H])C([H])([H])C2([H])N([H])C(=O)C1([H])N(C(=O)C([H])(N([H])C(=O)C([H])(N([H])C([H])([H])[H])C([H])([H])[H])C(C([H])([H])[H])(C([H])([H])[H])C([H])([H])[H])C([H])([H])c2c([H])c(OC([H])([H])C([H])([H])[N+]([H])([H])C([H])([H])C([H])([H])OC([H])([H])C([H])([H])OC([H])([H])C([H])([H])OC([H])([H])C([H])([H])OC([H])([H])C([H])([H])OC([H])([H])C([H])([H])OC([H])([H])C([H])([H])N([H])C(=O)N3C([H])([H])C([H])([H])C([H])([H])C([H])(n4nc(-c5c([H])c([H])c(Oc6c([H])c([H])c(F)c([H])c6F)c([H])c5[H])c(C(=O)N([H])[H])c4N([H])[H])C3([H])[H])c([H])c([H])c2C1([H])[H]

$$$$
42:0:0
     RDKit          3D

114121  0  0  1  0  0  0  0  0999 V2000
  -22.9670  -12.8980   16.0330 C   0  0  0  0  0  0  0  0  0  0  0  0
  -23.4400  -13.5090   14.9200 N   0  0  0  0  0  0  0  0  0  0  0  0
  -22.9510  -11.6680   16.1110 O   0  0  0  0  0  0  0  0  0  0  0  0
  -23.4520  -14.5210   14.9000 H   0  0  0  0  0  0  0  0  0  0  0  0
  -23.9620  -12.7710   13.7470 C   0  0  0  0  0  2  0  0  0  0  0  0
  -24.3400  -13.6130   12.4960 C   0  0  0  0  0  2  0  0  0  0  0  0
  -23.1880  -14.1950   11.6540 C   0  0  0  0  0  2  0  0  0  0  0  0
  -23.7410  -14.6820   10.4290 O   0  0  0  0  0  0  0  0  0  0  0  0
  -22.8540  -15.4520    9.6210 C   0  0  0  0  0  2  0  0  0  0  0  0
  -23.6500  -16.0640    8.4460 C   0  0  0  0  0  2  0  0  0  0  0  0
  -23.1780  -17.4670    8.0090 C   0  0  0  0  0  2  0  0  0  0  0  0
  -24.1000  -18.1210    6.9570 C   0  0  0  0  0  2  0  0  0  0  0  0
  -24.2210  -19.5280    7.2040 O   0  0  0  0  0  0  0  0  0  0  0  0
  -25.5530  -20.0240    7.0360 C   0  0  0  0  0  2  0  0  0  0  0  0
  -25.7210  -21.4840    7.5220 C   0  0  0  0  0  2  0  0  0  0  0  0
  -27.1320  -21.7460    8.0970 C   0  0  0  0  0  2  0  0  0  0  0  0
  -27.3780  -23.1290    8.3600 O   0  0  0  0  0  0  0  0  0  0  0  0
  -28.5500  -23.3590    9.1530 C   0  0  0  0  0  2  0  0  0  0  0  0
  -29.2020  -24.7250    8.8450 C   0  0  0  0  0  2  0  0  0  0  0  0
  -28.3920  -25.8560    9.1910 O   0  0  0  0  0  0  0  0  0  0  0  0
  -32.0820  -27.9600   14.9110 C   0  0  0  0  0  0  0  0  0  0  0  0
  -28.3810  -26.1810   10.5250 C   0  0  0  0  0  0  0  0  0  0  0  0
  -29.7610  -27.2120   15.3300 C   0  0  0  0  0  3  0  0  0  0  0  0
  -28.3120  -26.8850   13.2570 C   0  0  0  0  0  0  0  0  0  0  0  0
  -30.4220  -28.2170   13.0710 C   0  0  0  0  0  2  0  0  0  0  0  0
  -29.3520  -27.3490   12.4410 C   0  0  0  0  0  0  0  0  0  0  0  0
  -29.3920  -27.0030   11.0710 C   0  0  0  0  0  3  0  0  0  0  0  0
  -27.3340  -25.7330   11.3510 C   0  0  0  0  0  3  0  0  0  0  0  0
  -27.2990  -26.0750   12.7150 C   0  0  0  0  0  3  0  0  0  0  0  0
  -28.3420  -27.3070   14.7080 C   0  0  0  0  0  2  0  0  0  0  0  0
  -30.8170  -27.7910   14.4360 N   0  0  0  0  0  0  0  0  0  0  0  0
  -32.3650  -27.6890   16.0860 O   0  0  0  0  0  0  0  0  0  0  0  0
  -30.0320  -25.7430   15.7290 C   0  0  0  0  0  0  0  0  0  0  0  0
  -29.4940  -25.3280   16.8870 N   0  0  0  0  0  0  0  0  0  0  0  0
  -30.6840  -25.0000   14.9910 O   0  0  0  0  0  0  0  0  0  0  0  0
  -28.9820  -26.0020   17.4390 H   0  0  0  0  0  0  0  0  0  0  0  0
  -28.5540  -23.2640   19.7000 C   0  0  0  0  0  0  0  0  0  0  0  0
  -29.5880  -23.9780   17.4430 C   0  0  0  0  0  3  0  0  0  0  0  0
  -28.5530  -23.0340   16.7870 C   0  0  0  0  0  2  0  0  0  0  0  0
  -27.2350  -22.9520   17.5640 C   0  0  0  0  0  2  0  0  0  0  0  0
  -27.4830  -22.4540   18.9910 C   0  0  0  0  0  2  0  0  0  0  0  0
  -29.5340  -23.9920   18.9740 C   0  0  0  0  0  0  0  0  0  0  0  0
  -30.4860  -24.7560   19.6830 C   0  0  0  0  0  3  0  0  0  0  0  0
  -30.4710  -24.7980   21.0900 C   0  0  0  0  0  3  0  0  0  0  0  0
  -29.5060  -24.0680   21.8050 C   0  0  0  0  0  3  0  0  0  0  0  0
  -28.5560  -23.2980   21.1110 C   0  0  0  0  0  3  0  0  0  0  0  0
  -33.2250  -28.5310   14.0120 C   0  0  0  0  0  3  0  0  0  0  0  0
  -34.0620  -29.3910   14.8590 N   0  0  0  0  0  0  0  0  0  0  0  0
  -34.0020  -30.7300   14.8760 C   0  0  0  0  0  0  0  0  0  0  0  0
  -33.2740  -31.3780   14.1180 O   0  0  0  0  0  0  0  0  0  0  0  0
  -34.6430  -28.9260   15.5430 H   0  0  0  0  0  0  0  0  0  0  0  0
  -34.0300  -31.9560   17.0710 C   0  0  0  0  0  1  0  0  0  0  0  0
  -34.8910  -31.4660   15.8950 C   0  0  0  0  0  3  0  0  0  0  0  0
  -36.6880  -32.1980   14.3910 C   0  0  0  0  0  1  0  0  0  0  0  0
  -35.6330  -32.6080   15.3140 N   0  0  0  0  0  0  0  0  0  0  0  0
  -36.0530  -33.1740   16.0460 H   0  0  0  0  0  0  0  0  0  0  0  0
  -34.0940  -27.4090   13.3230 C   0  0  1  0  0  0  0  0  0  0  0  0
  -34.6290  -26.3430   14.3070 C   0  0  0  0  0  1  0  0  0  0  0  0
  -33.2740  -26.6790   12.2330 C   0  0  0  0  0  1  0  0  0  0  0  0
  -35.3030  -28.0540   12.6050 C   0  0  0  0  0  1  0  0  0  0  0  0
  -22.4260  -13.7260   17.2300 C   0  0  0  0  0  2  0  0  0  0  0  0
  -23.0010  -13.2160   18.4560 O   0  0  0  0  0  0  0  0  0  0  0  0
  -22.7080  -13.8630   19.7060 C   0  0  0  0  0  2  0  0  0  0  0  0
  -23.9300  -13.7840   20.6900 C   0  0  0  0  0  2  0  0  0  0  0  0
  -25.1740  -14.1590   20.0800 O   0  0  0  0  0  0  0  0  0  0  0  0
  -26.3250  -14.2800   20.9280 C   0  0  0  0  0  2  0  0  0  0  0  0
  -27.4640  -13.2730   20.5460 C   0  0  0  0  0  2  0  0  0  0  0  0
  -27.2190  -11.8910   20.8870 O   0  0  0  0  0  0  0  0  0  0  0  0
  -27.2240  -11.0260   19.7310 C   0  0  0  0  0  2  0  0  0  0  0  0
  -26.6950   -9.5750   19.9610 C   0  0  0  0  0  2  0  0  0  0  0  0
  -25.4280   -9.5260   20.6370 O   0  0  0  0  0  0  0  0  0  0  0  0
  -24.2410   -9.6760   19.8380 C   0  0  0  0  0  2  0  0  0  0  0  0
  -23.5670   -8.3020   19.5310 C   0  0  0  0  0  2  0  0  0  0  0  0
  -22.2380   -8.2290   20.0730 O   0  0  0  0  0  0  0  0  0  0  0  0
  -21.3950   -7.1620   19.5980 C   0  0  0  0  0  2  0  0  0  0  0  0
  -20.2850   -6.8440   20.6720 C   0  0  0  0  0  2  0  0  0  0  0  0
  -20.3920   -4.6390   22.0210 C   0  0  0  0  0  0  0  0  0  0  0  0
  -22.1950   -3.7570   23.4790 C   0  0  0  0  0  2  0  0  0  0  0  0
  -22.2480   -4.5460   24.8070 C   0  0  0  0  0  2  0  0  0  0  0  0
  -23.1270   -5.8090   24.6320 C   0  0  0  0  0  2  0  0  0  0  0  0
  -22.6690   -6.6530   23.4210 C   0  0  0  0  0  3  0  0  0  0  0  0
  -22.6660   -5.7280   22.1940 C   0  0  0  0  0  2  0  0  0  0  0  0
  -21.6900   -4.6570   22.4240 N   0  0  0  0  0  0  0  0  0  0  0  0
  -19.5900   -3.8130   22.4770 O   0  0  0  0  0  0  0  0  0  0  0  0
  -20.0490   -5.4060   20.9510 N   0  0  0  0  0  0  0  0  0  0  0  0
  -19.1680   -5.1090   20.5590 H   0  0  0  0  0  0  0  0  0  0  0  0
  -23.1250   -9.1340   22.9130 C   0  0  0  0  0  0  0  0  0  0  0  0
  -24.2790   -9.8490   22.8650 C   0  0  0  0  0  0  0  0  0  0  0  0
  -25.3460   -8.9230   23.1110 C   0  0  0  0  0  0  0  0  0  0  0  0
  -23.4990   -7.8290   23.2050 N   0  0  0  0  0  0  0  0  0  0  0  0
  -24.8480   -7.7040   23.2790 N   0  0  0  0  0  0  0  0  0  0  0  0
  -26.7920   -9.1140   23.2780 C   0  0  0  0  0  0  0  0  0  0  0  0
  -27.7200   -8.3750   22.5130 C   0  0  0  0  0  3  0  0  0  0  0  0
  -29.1060   -8.5670   22.6850 C   0  0  0  0  0  3  0  0  0  0  0  0
  -29.5800   -9.5080   23.6330 C   0  0  0  0  0  0  0  0  0  0  0  0
  -28.6600  -10.1970   24.4310 C   0  0  0  0  0  3  0  0  0  0  0  0
  -27.2790  -10.0120   24.2440 C   0  0  0  0  0  3  0  0  0  0  0  0
  -30.9060   -9.7770   23.8720 O   0  0  0  0  0  0  0  0  0  0  0  0
  -31.8600   -9.6370   22.9020 C   0  0  0  0  0  0  0  0  0  0  0  0
  -31.8160  -10.3740   21.7000 C   0  0  0  0  0  3  0  0  0  0  0  0
  -32.8490  -10.2380   20.7530 C   0  0  0  0  0  3  0  0  0  0  0  0
  -33.9440   -9.3920   21.0170 C   0  0  0  0  0  0  0  0  0  0  0  0
  -34.0020   -8.6730   22.2260 C   0  0  0  0  0  3  0  0  0  0  0  0
  -32.9600   -8.7930   23.1590 C   0  0  0  0  0  0  0  0  0  0  0  0
  -33.0240   -8.1060   24.3240 F   0  0  0  0  0  0  0  0  0  0  0  0
  -34.9430   -9.2690   20.1080 F   0  0  0  0  0  0  0  0  0  0  0  0
  -24.3790  -11.3260   22.6680 C   0  0  0  0  0  0  0  0  0  0  0  0
  -25.4230  -11.7910   22.0350 N   0  0  0  0  0  0  0  0  0  0  0  0
  -23.4810  -12.0870   23.0160 O   0  0  0  0  0  0  0  0  0  0  0  0
  -26.2110  -11.2170   21.7510 H   0  0  0  0  0  0  0  0  0  0  0  0
  -25.5550  -12.7880   22.0350 H   0  0  0  0  0  0  0  0  0  0  0  0
  -21.7780   -9.4790   22.7690 N   0  0  0  0  0  0  0  0  0  0  0  0
  -21.4560  -10.4340   22.6690 H   0  0  0  0  0  0  0  0  0  0  0  0
  -21.0170   -8.8480   22.9840 H   0  0  0  0  0  0  0  0  0  0  0  0
  1  3  2  0
  1 61  1  0
  2  1  1  0
  4  2  1  0
  5  2  1  0
  6  5  1  0
  7  6  1  0
  8  7  1  0
  9  8  1  0
 10  9  1  0
 11 10  1  0
 12 13  1  0
 12 11  1  0
 14 13  1  0
 14 15  1  0
 15 16  1  0
 16 17  1  0
 17 18  1  0
 19 18  1  0
 19 20  1  0
 20 22  1  0
 21 32  2  0
 22 27  2  0
 22 28  1  0
 23 33  1  0
 24 30  1  0
 25 31  1  0
 26 25  1  0
 26 24  2  0
 27 26  1  0
 28 29  2  0
 29 24  1  0
 30 23  1  0
 31 21  1  0
 31 23  1  0
 33 34  1  0
 34 36  1  0
 35 33  2  0
 37 46  1  0
 38 34  1  0
 38 42  1  0
 39 38  1  0
 39 40  1  0
 40 41  1  0
 41 37  1  0
 42 43  1  0
 42 37  2  0
 43 44  2  0
 44 45  1  0
 46 45  2  0
 47 48  1  0
 47 21  1  0
 48 49  1  0
 48 51  1  0
 49 53  1  0
 50 49  2  0
 53 52  1  0
 54 55  1  0
 55 53  1  0
 55 56  1  0
 57 47  1  0
 57 58  1  1
 59 57  1  0
 60 57  1  0
 61 62  1  0
 62 63  1  0
 63 64  1  0
 65 64  1  0
 65 66  1  0
 67 68  1  0
 67 66  1  0
 69 70  1  0
 69 68  1  0
 70 71  1  0
 72 71  1  0
 73 72  1  0
 73 74  1  0
 75 74  1  0
 75 76  1  0
 76 85  1  0
 77 83  1  0
 77 84  2  0
 78 79  1  0
 80 79  1  0
 81 82  1  0
 81 80  1  0
 82 83  1  0
 83 78  1  0
 85 77  1  0
 86 85  1  0
 87 90  1  0
 88 87  2  0
 88 89  1  0
 89 92  1  0
 89 91  2  0
 90 91  1  0
 90 81  1  0
 92 97  1  0
 93 94  1  0
 93 92  2  0
 94 95  2  0
 95 98  1  0
 95 96  1  0
 97 96  2  0
 99104  1  0
 99 98  1  0
100 99  2  0
101102  2  0
101100  1  0
102103  1  0
103104  2  0
104105  1  0
106102  1  0
107 88  1  0
107109  2  0
108111  1  0
108107  1  0
110108  1  0
112 87  1  0
112114  1  0
113112  1  0
M  ISO  4  19 101  20 101  77 100  85 100
M  END
>  <TORSDO>  (38) 
F 47

>  <SCORE>  (38) 
29.706

>  <name>  (38) 
42

>  <ligand_id>  (38) 
42

>  <original_smiles>  (38) 
[H]c1c([H])c([H])c2c(c1[H])C([H])([H])C([H])([H])C([H])([H])C2([H])N([H])C(=O)C1([H])N(C(=O)C([H])(N([H])C(=O)C([H])(N([H])C([H])([H])[H])C([H])([H])[H])C(C([H])([H])[H])(C([H])([H])[H])C([H])([H])[H])C([H])([H])c2c([H])c(OC([H])([H])C([H])([H])OC([H])([H])C([H])([H])C([H])([H])OC([H])([H])C([H])([H])C([H])([H])C([H])([H])OC([H])([H])C([H])([H])C([H])([H])N([H])C(=O)C([H])([H])OC([H])([H])C([H])([H])OC([H])([H])C([H])([H])OC([H])([H])C([H])([H])OC([H])([H])C([H])([H])OC([H])([H])C([H])([H])N([H])C(=O)N3C([H])([H])C([H])([H])C([H])([H])C([H])(n4nc(-c5c([H])c([H])c(Oc6c([H])c([H])c(F)c([H])c6F)c([H])c5[H])c(C(=O)N([H])[H])c4N([H])[H])C3([H])[H])c([H])c([H])c2C1([H])[H]

>  <smiles>  (38) 
[H]c1c([H])c([H])c2c(c1[H])C([H])([H])C([H])([H])C([H])([H])C2([H])N([H])C(=O)C1([H])N(C(=O)C([H])(N([H])C(=O)C([H])(N([H])C([H])([H])[H])C([H])([H])[H])C(C([H])([H])[H])(C([H])([H])[H])C([H])([H])[H])C([H])([H])c2c([H])c(OC([H])([H])C([H])([H])OC([H])([H])C([H])([H])C([H])([H])OC([H])([H])C([H])([H])C([H])([H])C([H])([H])OC([H])([H])C([H])([H])C([H])([H])N([H])C(=O)C([H])([H])OC([H])([H])C([H])([H])OC([H])([H])C([H])([H])OC([H])([H])C([H])([H])OC([H])([H])C([H])([H])OC([H])([H])C([H])([H])N([H])C(=O)N3C([H])([H])C([H])([H])C([H])([H])C([H])(n4nc(-c5c([H])c([H])c(Oc6c([H])c([H])c(F)c([H])c6F)c([H])c5[H])c(C(=O)N([H])[H])c4N([H])[H])C3([H])[H])c([H])c([H])c2C1([H])[H]

$$$$
43:0:0
     RDKit          3D

101108  0  0  1  0  0  0  0  0999 V2000
  -27.4040  -20.8100   16.8410 C   0  0  0  0  0  2  0  0  0  0  0  0
  -27.7090  -19.7030   15.9920 O   0  0  0  0  0  0  0  0  0  0  0  0
  -28.9300  -19.0160   16.2820 C   0  0  0  0  0  2  0  0  0  0  0  0
  -30.1800  -19.8710   15.9820 C   0  0  0  0  0  2  0  0  0  0  0  0
  -31.3590  -19.0950   15.7660 O   0  0  0  0  0  0  0  0  0  0  0  0
  -31.9170  -18.4720   16.9250 C   0  0  0  0  0  2  0  0  0  0  0  0
  -32.6200  -19.4610   17.8750 C   0  0  0  0  0  2  0  0  0  0  0  0
  -33.1890  -18.7160   18.9470 O   0  0  0  0  0  0  0  0  0  0  0  0
  -33.0480  -19.3060   20.2370 C   0  0  0  0  0  2  0  0  0  0  0  0
  -31.6080  -19.1760   20.7660 C   0  0  0  0  0  2  0  0  0  0  0  0
  -31.2050  -17.8150   20.6650 O   0  0  0  0  0  0  0  0  0  0  0  0
  -29.9420  -17.5570   21.2620 C   0  0  0  0  0  2  0  0  0  0  0  0
  -29.5150  -16.1280   20.8970 C   0  0  0  0  0  2  0  0  0  0  0  0
  -31.0110  -14.2910   20.3220 C   0  0  0  0  0  0  0  0  0  0  0  0
  -30.5730  -12.1880   19.1100 C   0  0  0  0  0  2  0  0  0  0  0  0
  -29.6220  -12.4220   17.9210 C   0  0  0  0  0  2  0  0  0  0  0  0
  -28.1480  -12.3550   18.3690 C   0  0  0  0  0  2  0  0  0  0  0  0
  -27.8660  -13.2000   19.6380 C   0  0  0  0  0  3  0  0  0  0  0  0
  -28.9230  -12.9220   20.7290 C   0  0  0  0  0  2  0  0  0  0  0  0
  -30.2540  -13.1750   20.1510 N   0  0  0  0  0  0  0  0  0  0  0  0
  -32.0820  -14.4790   19.7450 O   0  0  0  0  0  0  0  0  0  0  0  0
  -30.5820  -15.1790   21.2230 N   0  0  0  0  0  0  0  0  0  0  0  0
  -31.3620  -15.6930   21.6090 H   0  0  0  0  0  0  0  0  0  0  0  0
  -25.4970  -13.9120   20.3580 C   0  0  0  0  0  0  0  0  0  0  0  0
  -24.4040  -13.1860   20.7480 C   0  0  0  0  0  0  0  0  0  0  0  0
  -24.8110  -11.8160   20.7270 C   0  0  0  0  0  0  0  0  0  0  0  0
  -26.5060  -12.9880   20.1290 N   0  0  0  0  0  0  0  0  0  0  0  0
  -26.0960  -11.7250   20.4060 N   0  0  0  0  0  0  0  0  0  0  0  0
  -24.0410  -10.5860   20.9380 C   0  0  0  0  0  0  0  0  0  0  0  0
  -24.4470   -9.6090   21.8740 C   0  0  0  0  0  3  0  0  0  0  0  0
  -23.6770   -8.4430   22.0700 C   0  0  0  0  0  3  0  0  0  0  0  0
  -22.4870   -8.2440   21.3290 C   0  0  0  0  0  0  0  0  0  0  0  0
  -22.0990   -9.2100   20.3830 C   0  0  0  0  0  3  0  0  0  0  0  0
  -22.8710  -10.3690   20.1840 C   0  0  0  0  0  3  0  0  0  0  0  0
  -21.6890   -7.1310   21.4360 O   0  0  0  0  0  0  0  0  0  0  0  0
  -21.6240   -6.4030   22.5960 C   0  0  0  0  0  0  0  0  0  0  0  0
  -21.2440   -6.9880   23.8230 C   0  0  0  0  0  3  0  0  0  0  0  0
  -21.1180   -6.1880   24.9770 C   0  0  0  0  0  3  0  0  0  0  0  0
  -21.3640   -4.8030   24.9050 C   0  0  0  0  0  0  0  0  0  0  0  0
  -21.7410   -4.2190   23.6820 C   0  0  0  0  0  3  0  0  0  0  0  0
  -21.8660   -5.0160   22.5300 C   0  0  0  0  0  0  0  0  0  0  0  0
  -22.2060   -4.4430   21.3510 F   0  0  0  0  0  0  0  0  0  0  0  0
  -21.2390   -4.0320   26.0100 F   0  0  0  0  0  0  0  0  0  0  0  0
  -23.0300  -13.7210   21.0290 C   0  0  0  0  0  0  0  0  0  0  0  0
  -22.2830  -13.0640   21.9100 N   0  0  0  0  0  0  0  0  0  0  0  0
  -22.6240  -14.7540   20.5000 O   0  0  0  0  0  0  0  0  0  0  0  0
  -22.6240  -12.2300   22.3670 H   0  0  0  0  0  0  0  0  0  0  0  0
  -21.3590  -13.4050   22.1330 H   0  0  0  0  0  0  0  0  0  0  0  0
  -25.7080  -15.2740   20.1590 N   0  0  0  0  0  0  0  0  0  0  0  0
  -24.9580  -15.9480   20.2720 H   0  0  0  0  0  0  0  0  0  0  0  0
  -26.5350  -15.6730   19.7380 H   0  0  0  0  0  0  0  0  0  0  0  0
  -26.8490  -20.3780   18.2150 C   0  0  0  0  0  2  0  0  0  0  0  0
  -26.4640  -22.4550   19.5420 C   0  0  0  0  0  0  0  0  0  0  0  0
  -27.1710  -21.3590   19.2440 N   0  0  0  0  0  0  0  0  0  0  0  0
  -25.3970  -22.7360   18.9940 O   0  0  0  0  0  0  0  0  0  0  0  0
  -28.0430  -21.2390   19.7400 H   0  0  0  0  0  0  0  0  0  0  0  0
  -27.0820  -23.3810   20.5940 C   0  0  0  0  0  2  0  0  0  0  0  0
  -28.3580  -23.7990   20.1120 O   0  0  0  0  0  0  0  0  0  0  0  0
  -29.1560  -24.5440   21.0310 C   0  0  0  0  0  2  0  0  0  0  0  0
  -28.5650  -25.9200   21.3820 C   0  0  0  0  0  2  0  0  0  0  0  0
  -28.3820  -26.6640   20.1810 O   0  0  0  0  0  0  0  0  0  0  0  0
  -24.5760  -31.8290   23.2220 C   0  0  0  0  0  0  0  0  0  0  0  0
  -27.2290  -27.3980   20.1830 C   0  0  0  0  0  0  0  0  0  0  0  0
  -23.3700  -30.4160   21.5830 C   0  0  0  0  0  3  0  0  0  0  0  0
  -24.8280  -28.8660   20.1820 C   0  0  0  0  0  0  0  0  0  0  0  0
  -25.8910  -30.7830   21.3870 C   0  0  0  0  0  2  0  0  0  0  0  0
  -25.9800  -29.4080   20.7650 C   0  0  0  0  0  0  0  0  0  0  0  0
  -27.1870  -28.6780   20.7690 C   0  0  0  0  0  3  0  0  0  0  0  0
  -26.0670  -26.8560   19.6010 C   0  0  0  0  0  3  0  0  0  0  0  0
  -24.8610  -27.5800   19.6070 C   0  0  0  0  0  3  0  0  0  0  0  0
  -23.5830  -29.7200   20.2110 C   0  0  0  0  0  2  0  0  0  0  0  0
  -24.6290  -31.0240   22.1240 N   0  0  0  0  0  0  0  0  0  0  0  0
  -23.4950  -32.1070   23.7590 O   0  0  0  0  0  0  0  0  0  0  0  0
  -22.7160  -29.4060   22.5500 C   0  0  0  0  0  0  0  0  0  0  0  0
  -21.3890  -29.2390   22.4320 N   0  0  0  0  0  0  0  0  0  0  0  0
  -23.3970  -28.7700   23.3590 O   0  0  0  0  0  0  0  0  0  0  0  0
  -20.8990  -29.8040   21.7520 H   0  0  0  0  0  0  0  0  0  0  0  0
  -18.0020  -28.0970   22.9550 C   0  0  0  0  0  0  0  0  0  0  0  0
  -20.5650  -28.3120   23.2080 C   0  0  0  0  0  3  0  0  0  0  0  0
  -20.6400  -26.8800   22.6270 C   0  0  0  0  0  2  0  0  0  0  0  0
  -19.5250  -26.5790   21.6210 C   0  0  0  0  0  2  0  0  0  0  0  0
  -18.1510  -26.7460   22.2760 C   0  0  0  0  0  2  0  0  0  0  0  0
  -19.1370  -28.8400   23.3770 C   0  0  0  0  0  0  0  0  0  0  0  0
  -18.9440  -30.1060   23.9700 C   0  0  0  0  0  3  0  0  0  0  0  0
  -17.6500  -30.6300   24.1460 C   0  0  0  0  0  3  0  0  0  0  0  0
  -16.5300  -29.8850   23.7400 C   0  0  0  0  0  3  0  0  0  0  0  0
  -16.7070  -28.6200   23.1500 C   0  0  0  0  0  3  0  0  0  0  0  0
  -25.8640  -32.4580   23.8400 C   0  0  0  0  0  3  0  0  0  0  0  0
  -25.5570  -33.8540   24.1730 N   0  0  0  0  0  0  0  0  0  0  0  0
  -25.8860  -34.9070   23.4130 C   0  0  0  0  0  0  0  0  0  0  0  0
  -26.5520  -34.8050   22.3780 O   0  0  0  0  0  0  0  0  0  0  0  0
  -24.9680  -34.0080   24.9790 H   0  0  0  0  0  0  0  0  0  0  0  0
  -24.1530  -36.6960   23.0640 C   0  0  0  0  0  1  0  0  0  0  0  0
  -25.3970  -36.2940   23.8720 C   0  0  0  0  0  3  0  0  0  0  0  0
  -27.5320  -37.1820   24.6970 C   0  0  0  0  0  1  0  0  0  0  0  0
  -26.4260  -37.3490   23.7570 N   0  0  0  0  0  0  0  0  0  0  0  0
  -26.0190  -38.2680   23.9080 H   0  0  0  0  0  0  0  0  0  0  0  0
  -26.3890  -31.6820   25.1100 C   0  0  1  0  0  0  0  0  0  0  0  0
  -25.3000  -31.4450   26.1830 C   0  0  0  0  0  1  0  0  0  0  0  0
  -26.9680  -30.3060   24.7080 C   0  0  0  0  0  1  0  0  0  0  0  0
  -27.5410  -32.4750   25.7720 C   0  0  0  0  0  1  0  0  0  0  0  0
  1 52  1  0
  2  3  1  0
  2  1  1  0
  4  3  1  0
  5  4  1  0
  5  6  1  0
  6  7  1  0
  7  8  1  0
  8  9  1  0
  9 10  1  0
 11 10  1  0
 11 12  1  0
 13 22  1  0
 13 12  1  0
 14 22  1  0
 15 20  1  0
 16 17  1  0
 16 15  1  0
 18 17  1  0
 18 27  1  0
 18 19  1  0
 20 14  1  0
 20 19  1  0
 21 14  2  0
 22 23  1  0
 24 25  2  0
 25 44  1  0
 26 25  1  0
 26 29  1  0
 27 24  1  0
 27 28  1  0
 28 26  2  0
 29 30  1  0
 30 31  2  0
 32 35  1  0
 32 31  1  0
 33 32  2  0
 34 33  1  0
 34 29  2  0
 35 36  1  0
 36 37  1  0
 37 38  2  0
 39 38  1  0
 39 43  1  0
 40 39  2  0
 41 36  2  0
 41 40  1  0
 42 41  1  0
 44 45  1  0
 45 48  1  0
 45 47  1  0
 46 44  2  0
 49 50  1  0
 49 24  1  0
 51 49  1  0
 52 54  1  0
 53 57  1  0
 54 53  1  0
 54 56  1  0
 55 53  2  0
 58 57  1  0
 58 59  1  0
 59 60  1  0
 61 63  1  0
 61 60  1  0
 62 73  2  0
 63 68  1  0
 64 72  1  0
 64 74  1  0
 65 71  1  0
 65 67  1  0
 66 72  1  0
 67 68  2  0
 67 66  1  0
 69 70  1  0
 69 63  2  0
 70 65  2  0
 71 64  1  0
 72 62  1  0
 74 76  2  0
 75 74  1  0
 77 75  1  0
 78 87  2  0
 78 83  1  0
 79 75  1  0
 79 83  1  0
 80 79  1  0
 81 82  1  0
 81 80  1  0
 82 78  1  0
 83 84  2  0
 84 85  1  0
 86 85  2  0
 87 86  1  0
 88 62  1  0
 88 89  1  0
 88 98  1  0
 89 92  1  0
 90 94  1  0
 90 89  1  0
 91 90  2  0
 94 93  1  0
 96 94  1  0
 96 97  1  0
 96 95  1  0
 98101  1  1
 98 99  1  0
100 98  1  0
M  ISO  4  14 100  22 100  60 101  61 101
M  END
>  <TORSDO>  (39) 
F 34

>  <SCORE>  (39) 
-10.043

>  <name>  (39) 
43

>  <ligand_id>  (39) 
43

>  <original_smiles>  (39) 
[H]c1c([H])c([H])c2c(c1[H])C([H])([H])C([H])([H])C([H])([H])C2([H])N([H])C(=O)C1([H])N(C(=O)C([H])(N([H])C(=O)C([H])(N([H])C([H])([H])[H])C([H])([H])[H])C(C([H])([H])[H])(C([H])([H])[H])C([H])([H])[H])C([H])([H])c2c([H])c(OC([H])([H])C([H])([H])OC([H])([H])C(=O)N([H])C([H])([H])C([H])([H])OC([H])([H])C([H])([H])OC([H])([H])C([H])([H])OC([H])([H])C([H])([H])OC([H])([H])C([H])([H])N([H])C(=O)N3C([H])([H])C([H])([H])C([H])([H])C([H])(n4nc(-c5c([H])c([H])c(Oc6c([H])c([H])c(F)c([H])c6F)c([H])c5[H])c(C(=O)N([H])[H])c4N([H])[H])C3([H])[H])c([H])c([H])c2C1([H])[H]

>  <smiles>  (39) 
[H]c1c([H])c([H])c2c(c1[H])C([H])([H])C([H])([H])C([H])([H])C2([H])N([H])C(=O)C1([H])N(C(=O)C([H])(N([H])C(=O)C([H])(N([H])C([H])([H])[H])C([H])([H])[H])C(C([H])([H])[H])(C([H])([H])[H])C([H])([H])[H])C([H])([H])c2c([H])c(OC([H])([H])C([H])([H])OC([H])([H])C(=O)N([H])C([H])([H])C([H])([H])OC([H])([H])C([H])([H])OC([H])([H])C([H])([H])OC([H])([H])C([H])([H])OC([H])([H])C([H])([H])N([H])C(=O)N3C([H])([H])C([H])([H])C([H])([H])C([H])(n4nc(-c5c([H])c([H])c(Oc6c([H])c([H])c(F)c([H])c6F)c([H])c5[H])c(C(=O)N([H])[H])c4N([H])[H])C3([H])[H])c([H])c([H])c2C1([H])[H]

$$$$
44:0:0
     RDKit          3D

 97104  0  0  1  0  0  0  0  0999 V2000
  -30.5140  -22.6140   23.8090 C   0  0  0  0  0  2  0  0  0  0  0  0
  -30.0650  -21.1850   23.4710 C   0  0  0  0  0  0  0  0  0  0  0  0
  -31.0170  -20.2430   23.5240 N   0  0  0  0  0  0  0  0  0  0  0  0
  -28.8920  -20.9330   23.1780 O   0  0  0  0  0  0  0  0  0  0  0  0
  -31.9440  -20.5500   23.7850 H   0  0  0  0  0  0  0  0  0  0  0  0
  -30.8420  -18.8140   23.2680 C   0  0  0  0  0  2  0  0  0  0  0  0
  -30.5960  -18.5020   21.7790 C   0  0  0  0  0  2  0  0  0  0  0  0
  -31.8680  -18.5300   20.9130 C   0  0  0  0  0  2  0  0  0  0  0  0
  -31.9550  -17.3290   19.9580 C   0  0  0  0  0  2  0  0  0  0  0  0
  -33.3800  -17.1180   19.4210 C   0  0  0  0  0  2  0  0  0  0  0  0
  -33.6560  -15.6750   18.9700 C   0  0  0  0  0  2  0  0  0  0  0  0
  -33.8080  -13.5040   20.1730 C   0  0  0  0  0  0  0  0  0  0  0  0
  -33.3850  -11.1370   20.7060 C   0  0  0  0  0  2  0  0  0  0  0  0
  -32.5640  -10.5000   19.5660 C   0  0  0  0  0  2  0  0  0  0  0  0
  -31.0540  -10.7210   19.7880 C   0  0  0  0  0  2  0  0  0  0  0  0
  -30.7060  -12.1980   20.1150 C   0  0  0  0  0  3  0  0  0  0  0  0
  -31.6390  -12.7490   21.2170 C   0  0  0  0  0  2  0  0  0  0  0  0
  -33.0330  -12.5630   20.7730 N   0  0  0  0  0  0  0  0  0  0  0  0
  -34.9470  -13.2790   19.7570 O   0  0  0  0  0  0  0  0  0  0  0  0
  -33.1990  -14.6740   19.9350 N   0  0  0  0  0  0  0  0  0  0  0  0
  -32.2680  -14.7830   20.3110 H   0  0  0  0  0  0  0  0  0  0  0  0
  -28.5400  -13.4980   20.6200 C   0  0  0  0  0  0  0  0  0  0  0  0
  -27.2660  -13.0790   20.8990 C   0  0  0  0  0  0  0  0  0  0  0  0
  -27.3120  -11.6510   20.8990 C   0  0  0  0  0  0  0  0  0  0  0  0
  -29.2970  -12.3460   20.4750 N   0  0  0  0  0  0  0  0  0  0  0  0
  -28.5550  -11.2300   20.6960 N   0  0  0  0  0  0  0  0  0  0  0  0
  -26.2370  -10.6600   21.0250 C   0  0  0  0  0  0  0  0  0  0  0  0
  -26.2180   -9.7190   22.0790 C   0  0  0  0  0  3  0  0  0  0  0  0
  -25.1640   -8.7870   22.1880 C   0  0  0  0  0  3  0  0  0  0  0  0
  -24.1120   -8.7920   21.2420 C   0  0  0  0  0  0  0  0  0  0  0  0
  -24.1470   -9.7150   20.1820 C   0  0  0  0  0  3  0  0  0  0  0  0
  -25.1990  -10.6390   20.0720 C   0  0  0  0  0  3  0  0  0  0  0  0
  -23.0600   -7.9090   21.2540 O   0  0  0  0  0  0  0  0  0  0  0  0
  -22.5010   -7.4700   22.4280 C   0  0  0  0  0  0  0  0  0  0  0  0
  -21.9730   -8.3680   23.3820 C   0  0  0  0  0  3  0  0  0  0  0  0
  -21.3450   -7.8720   24.5420 C   0  0  0  0  0  3  0  0  0  0  0  0
  -21.2370   -6.4820   24.7470 C   0  0  0  0  0  0  0  0  0  0  0  0
  -21.7570   -5.5880   23.7950 C   0  0  0  0  0  3  0  0  0  0  0  0
  -22.3850   -6.0810   22.6380 C   0  0  0  0  0  0  0  0  0  0  0  0
  -22.8660   -5.2150   21.7140 F   0  0  0  0  0  0  0  0  0  0  0  0
  -20.6270   -6.0070   25.8570 F   0  0  0  0  0  0  0  0  0  0  0  0
  -26.0530  -13.9480   21.0620 C   0  0  0  0  0  0  0  0  0  0  0  0
  -25.1050  -13.5270   21.8930 N   0  0  0  0  0  0  0  0  0  0  0  0
  -25.9620  -15.0320   20.4870 O   0  0  0  0  0  0  0  0  0  0  0  0
  -25.1910  -12.6470   22.3790 H   0  0  0  0  0  0  0  0  0  0  0  0
  -24.2820  -14.0940   22.0440 H   0  0  0  0  0  0  0  0  0  0  0  0
  -29.1120  -14.7570   20.4630 N   0  0  0  0  0  0  0  0  0  0  0  0
  -28.5660  -15.6090   20.5130 H   0  0  0  0  0  0  0  0  0  0  0  0
  -30.0800  -14.9210   20.2150 H   0  0  0  0  0  0  0  0  0  0  0  0
  -29.6440  -23.5760   23.2120 O   0  0  0  0  0  0  0  0  0  0  0  0
  -30.3640  -24.5310   22.4410 C   0  0  0  0  0  2  0  0  0  0  0  0
  -29.4890  -25.7630   22.1680 C   0  0  0  0  0  2  0  0  0  0  0  0
  -28.2340  -25.4670   21.3370 C   0  0  0  0  0  2  0  0  0  0  0  0
  -28.5670  -25.4240   19.9540 O   0  0  0  0  0  0  0  0  0  0  0  0
  -27.4180  -25.5440   19.1260 C   0  0  0  0  0  2  0  0  0  0  0  0
  -27.8150  -26.0430   17.7200 C   0  0  0  0  0  2  0  0  0  0  0  0
  -26.6900  -26.5840   17.0200 O   0  0  0  0  0  0  0  0  0  0  0  0
  -25.1960  -29.9620   23.1110 C   0  0  0  0  0  0  0  0  0  0  0  0
  -25.8850  -27.4650   17.7090 C   0  0  0  0  0  0  0  0  0  0  0  0
  -23.4210  -30.0070   21.3820 C   0  0  0  0  0  3  0  0  0  0  0  0
  -24.1180  -29.2060   19.0630 C   0  0  0  0  0  0  0  0  0  0  0  0
  -25.8810  -29.8410   20.7230 C   0  0  0  0  0  2  0  0  0  0  0  0
  -25.4360  -29.0580   19.5080 C   0  0  0  0  0  0  0  0  0  0  0  0
  -26.3230  -28.1960   18.8380 C   0  0  0  0  0  3  0  0  0  0  0  0
  -24.5590  -27.6320   17.2600 C   0  0  0  0  0  3  0  0  0  0  0  0
  -23.6710  -28.4940   17.9350 C   0  0  0  0  0  3  0  0  0  0  0  0
  -23.2410  -30.1570   19.8470 C   0  0  0  0  0  2  0  0  0  0  0  0
  -24.8590  -29.9110   21.7910 N   0  0  0  0  0  0  0  0  0  0  0  0
  -24.3340  -30.1360   23.9830 O   0  0  0  0  0  0  0  0  0  0  0  0
  -22.5670  -28.8130   21.8630 C   0  0  0  0  0  0  0  0  0  0  0  0
  -21.2380  -29.0020   21.8880 N   0  0  0  0  0  0  0  0  0  0  0  0
  -23.0960  -27.7420   22.1730 O   0  0  0  0  0  0  0  0  0  0  0  0
  -20.8840  -29.9090   21.6210 H   0  0  0  0  0  0  0  0  0  0  0  0
  -17.6860  -28.4090   22.1430 C   0  0  0  0  0  0  0  0  0  0  0  0
  -20.2350  -28.0080   22.2670 C   0  0  0  0  0  3  0  0  0  0  0  0
  -20.0250  -26.9730   21.1380 C   0  0  0  0  0  2  0  0  0  0  0  0
  -18.8840  -27.3430   20.1850 C   0  0  0  0  0  2  0  0  0  0  0  0
  -17.5650  -27.4720   20.9520 C   0  0  0  0  0  2  0  0  0  0  0  0
  -18.9410  -28.6730   22.7500 C   0  0  0  0  0  0  0  0  0  0  0  0
  -19.0040  -29.5800   23.8300 C   0  0  0  0  0  3  0  0  0  0  0  0
  -17.8410  -30.2140   24.3070 C   0  0  0  0  0  3  0  0  0  0  0  0
  -16.5980  -29.9370   23.7110 C   0  0  0  0  0  3  0  0  0  0  0  0
  -16.5210  -29.0340   22.6360 C   0  0  0  0  0  3  0  0  0  0  0  0
  -26.6780  -29.8300   23.5860 C   0  0  0  0  0  3  0  0  0  0  0  0
  -26.9070  -30.8630   24.6060 N   0  0  0  0  0  0  0  0  0  0  0  0
  -27.6050  -31.9890   24.4020 C   0  0  0  0  0  0  0  0  0  0  0  0
  -28.1900  -32.2320   23.3430 O   0  0  0  0  0  0  0  0  0  0  0  0
  -26.4140  -30.7550   25.4810 H   0  0  0  0  0  0  0  0  0  0  0  0
  -26.6990  -34.1670   25.2690 C   0  0  0  0  0  1  0  0  0  0  0  0
  -27.6630  -33.0060   25.5570 C   0  0  0  0  0  3  0  0  0  0  0  0
  -29.9360  -32.5410   26.3600 C   0  0  0  0  0  1  0  0  0  0  0  0
  -29.0200  -33.5360   25.8070 N   0  0  0  0  0  0  0  0  0  0  0  0
  -28.9870  -34.3240   26.4490 H   0  0  0  0  0  0  0  0  0  0  0  0
  -27.0270  -28.3980   24.1490 C   0  0  1  0  0  0  0  0  0  0  0  0
  -26.0630  -27.9150   25.2580 C   0  0  0  0  0  1  0  0  0  0  0  0
  -27.0060  -27.3470   23.0140 C   0  0  0  0  0  1  0  0  0  0  0  0
  -28.4600  -28.3960   24.7300 C   0  0  0  0  0  1  0  0  0  0  0  0
  2  3  1  0
  2  1  1  0
  3  5  1  0
  4  2  2  0
  6  3  1  0
  7  6  1  0
  8  7  1  0
  9  8  1  0
 10  9  1  0
 11 10  1  0
 11 20  1  0
 12 18  1  0
 13 18  1  0
 14 15  1  0
 14 13  1  0
 16 15  1  0
 16 25  1  0
 16 17  1  0
 18 17  1  0
 19 12  2  0
 20 12  1  0
 20 21  1  0
 22 23  2  0
 23 42  1  0
 24 23  1  0
 24 27  1  0
 25 22  1  0
 25 26  1  0
 26 24  2  0
 27 28  1  0
 28 29  2  0
 30 33  1  0
 30 29  1  0
 31 30  2  0
 32 31  1  0
 32 27  2  0
 33 34  1  0
 34 39  2  0
 34 35  1  0
 35 36  2  0
 36 37  1  0
 37 41  1  0
 38 37  2  0
 39 38  1  0
 40 39  1  0
 42 43  1  0
 43 46  1  0
 43 45  1  0
 44 42  2  0
 47 48  1  0
 47 22  1  0
 49 47  1  0
 50  1  1  0
 51 50  1  0
 52 51  1  0
 53 52  1  0
 54 53  1  0
 55 54  1  0
 56 55  1  0
 57 59  1  0
 57 56  1  0
 58 69  2  0
 59 64  1  0
 60 68  1  0
 60 70  1  0
 61 63  1  0
 61 67  1  0
 62 68  1  0
 63 62  1  0
 64 63  2  0
 65 59  2  0
 65 66  1  0
 66 61  2  0
 67 60  1  0
 68 58  1  0
 70 71  1  0
 70 72  2  0
 73 71  1  0
 74 83  2  0
 74 79  1  0
 75 71  1  0
 75 79  1  0
 76 75  1  0
 77 78  1  0
 77 76  1  0
 78 74  1  0
 79 80  2  0
 80 81  1  0
 82 81  2  0
 83 82  1  0
 84 58  1  0
 84 94  1  0
 84 85  1  0
 85 88  1  0
 86 85  1  0
 86 90  1  0
 87 86  2  0
 90 89  1  0
 90 92  1  0
 92 91  1  0
 92 93  1  0
 94 97  1  1
 94 95  1  0
 96 94  1  0
M  ISO  4  12 100  20 100  56 101  57 101
M  END
>  <TORSDO>  (40) 
F 30

>  <SCORE>  (40) 
-6.164

>  <name>  (40) 
44

>  <ligand_id>  (40) 
44

>  <original_smiles>  (40) 
[H]c1c([H])c([H])c2c(c1[H])C([H])([H])C([H])([H])C([H])([H])C2([H])N([H])C(=O)C1([H])N(C(=O)C([H])(N([H])C(=O)C([H])(N([H])C([H])([H])[H])C([H])([H])[H])C(C([H])([H])[H])(C([H])([H])[H])C([H])([H])[H])C([H])([H])c2c([H])c(OC([H])([H])C([H])([H])OC([H])([H])C([H])([H])C([H])([H])OC([H])([H])C(=O)N([H])C([H])([H])C([H])([H])C([H])([H])C([H])([H])C([H])([H])C([H])([H])N([H])C(=O)N3C([H])([H])C([H])([H])C([H])([H])C([H])(n4nc(-c5c([H])c([H])c(Oc6c([H])c([H])c(F)c([H])c6F)c([H])c5[H])c(C(=O)N([H])[H])c4N([H])[H])C3([H])[H])c([H])c([H])c2C1([H])[H]

>  <smiles>  (40) 
[H]c1c([H])c([H])c2c(c1[H])C([H])([H])C([H])([H])C([H])([H])C2([H])N([H])C(=O)C1([H])N(C(=O)C([H])(N([H])C(=O)C([H])(N([H])C([H])([H])[H])C([H])([H])[H])C(C([H])([H])[H])(C([H])([H])[H])C([H])([H])[H])C([H])([H])c2c([H])c(OC([H])([H])C([H])([H])OC([H])([H])C([H])([H])C([H])([H])OC([H])([H])C(=O)N([H])C([H])([H])C([H])([H])C([H])([H])C([H])([H])C([H])([H])C([H])([H])N([H])C(=O)N3C([H])([H])C([H])([H])C([H])([H])C([H])(n4nc(-c5c([H])c([H])c(Oc6c([H])c([H])c(F)c([H])c6F)c([H])c5[H])c(C(=O)N([H])[H])c4N([H])[H])C3([H])[H])c([H])c([H])c2C1([H])[H]

$$$$
45:0:0
     RDKit          3D

 97104  0  0  1  0  0  0  0  0999 V2000
  -21.6950  -22.8740   22.1630 C   0  0  0  0  0  2  0  0  0  0  0  0
  -22.0500  -22.7830   20.7850 O   0  0  0  0  0  0  0  0  0  0  0  0
  -22.6220  -23.9510   20.1970 C   0  0  0  0  0  2  0  0  0  0  0  0
  -24.0570  -23.7360   19.6940 C   0  0  0  0  0  2  0  0  0  0  0  0
  -24.0680  -22.6890   18.7300 O   0  0  0  0  0  0  0  0  0  0  0  0
  -25.3290  -22.4870   18.1040 C   0  0  0  0  0  2  0  0  0  0  0  0
  -26.5040  -22.4130   19.0980 C   0  0  0  0  0  2  0  0  0  0  0  0
  -26.7290  -21.0700   19.5090 O   0  0  0  0  0  0  0  0  0  0  0  0
  -27.1220  -20.2120   18.4460 C   0  0  0  0  0  2  0  0  0  0  0  0
  -28.4380  -19.5070   18.8220 C   0  0  0  0  0  2  0  0  0  0  0  0
  -28.2330  -18.2680   19.7130 C   0  0  0  0  0  2  0  0  0  0  0  0
  -30.2620  -17.0660   20.4170 C   0  0  0  0  0  0  0  0  0  0  0  0
  -30.7360  -14.6430   20.5130 C   0  0  0  0  0  2  0  0  0  0  0  0
  -30.1930  -13.9400   19.2560 C   0  0  0  0  0  2  0  0  0  0  0  0
  -28.7150  -13.5440   19.4510 C   0  0  0  0  0  2  0  0  0  0  0  0
  -27.8510  -14.7150   19.9840 C   0  0  0  0  0  3  0  0  0  0  0  0
  -28.5320  -15.3940   21.1930 C   0  0  0  0  0  2  0  0  0  0  0  0
  -29.8840  -15.8110   20.7790 N   0  0  0  0  0  0  0  0  0  0  0  0
  -31.3870  -17.3370   19.9910 O   0  0  0  0  0  0  0  0  0  0  0  0
  -29.3740  -18.0500   20.6130 N   0  0  0  0  0  0  0  0  0  0  0  0
  -29.8450  -18.9210   20.8190 H   0  0  0  0  0  0  0  0  0  0  0  0
  -25.3370  -15.0300   20.4290 C   0  0  0  0  0  0  0  0  0  0  0  0
  -24.3310  -14.1340   20.6780 C   0  0  0  0  0  0  0  0  0  0  0  0
  -24.9440  -12.8450   20.6750 C   0  0  0  0  0  0  0  0  0  0  0  0
  -26.4940  -14.2790   20.3060 N   0  0  0  0  0  0  0  0  0  0  0  0
  -26.2550  -12.9580   20.5060 N   0  0  0  0  0  0  0  0  0  0  0  0
  -24.3510  -11.5050   20.7690 C   0  0  0  0  0  0  0  0  0  0  0  0
  -24.6590  -10.6360   21.8380 C   0  0  0  0  0  3  0  0  0  0  0  0
  -24.0650   -9.3580   21.9140 C   0  0  0  0  0  3  0  0  0  0  0  0
  -23.1510   -8.9410   20.9170 C   0  0  0  0  0  0  0  0  0  0  0  0
  -22.8630   -9.8040   19.8450 C   0  0  0  0  0  3  0  0  0  0  0  0
  -23.4580  -11.0730   19.7680 C   0  0  0  0  0  3  0  0  0  0  0  0
  -22.5460   -7.7080   20.8940 O   0  0  0  0  0  0  0  0  0  0  0  0
  -22.0180   -7.1410   22.0280 C   0  0  0  0  0  0  0  0  0  0  0  0
  -21.0270   -7.7960   22.7910 C   0  0  0  0  0  3  0  0  0  0  0  0
  -20.4590   -7.1530   23.9090 C   0  0  0  0  0  3  0  0  0  0  0  0
  -20.8730   -5.8550   24.2590 C   0  0  0  0  0  0  0  0  0  0  0  0
  -21.8570   -5.1990   23.4990 C   0  0  0  0  0  3  0  0  0  0  0  0
  -22.4260   -5.8400   22.3830 C   0  0  0  0  0  0  0  0  0  0  0  0
  -23.3580   -5.1960   21.6400 F   0  0  0  0  0  0  0  0  0  0  0  0
  -20.3260   -5.2320   25.3310 F   0  0  0  0  0  0  0  0  0  0  0  0
  -22.8690  -14.4470   20.8100 C   0  0  0  0  0  0  0  0  0  0  0  0
  -22.1430  -13.6720   21.6070 N   0  0  0  0  0  0  0  0  0  0  0  0
  -22.3660  -15.4150   20.2450 O   0  0  0  0  0  0  0  0  0  0  0  0
  -22.5520  -12.8870   22.0910 H   0  0  0  0  0  0  0  0  0  0  0  0
  -21.1620  -13.8720   21.7330 H   0  0  0  0  0  0  0  0  0  0  0  0
  -25.3530  -16.4120   20.2730 N   0  0  0  0  0  0  0  0  0  0  0  0
  -24.4900  -16.9400   20.2240 H   0  0  0  0  0  0  0  0  0  0  0  0
  -26.1650  -16.9310   19.9610 H   0  0  0  0  0  0  0  0  0  0  0  0
  -22.9020  -22.9010   23.1200 C   0  0  0  0  0  2  0  0  0  0  0  0
  -23.5470  -24.1530   22.9740 O   0  0  0  0  0  0  0  0  0  0  0  0
  -24.9560  -24.1650   23.1860 C   0  0  0  0  0  2  0  0  0  0  0  0
  -25.4230  -25.3750   22.3670 C   0  0  0  0  0  2  0  0  0  0  0  0
  -26.6790  -25.2620   21.6840 O   0  0  0  0  0  0  0  0  0  0  0  0
  -26.6010  -26.0480   20.4910 C   0  0  0  0  0  2  0  0  0  0  0  0
  -27.9080  -26.5120   19.7920 C   0  0  0  0  0  2  0  0  0  0  0  0
  -27.6440  -27.5540   18.8210 O   0  0  0  0  0  0  0  0  0  0  0  0
  -24.9410  -31.5720   23.9690 C   0  0  0  0  0  0  0  0  0  0  0  0
  -26.6020  -28.3710   19.1840 C   0  0  0  0  0  0  0  0  0  0  0  0
  -23.3350  -30.7830   22.2590 C   0  0  0  0  0  3  0  0  0  0  0  0
  -24.3680  -29.7920   20.1450 C   0  0  0  0  0  0  0  0  0  0  0  0
  -25.7900  -31.1760   21.6700 C   0  0  0  0  0  2  0  0  0  0  0  0
  -25.6490  -30.0880   20.6290 C   0  0  0  0  0  0  0  0  0  0  0  0
  -26.7710  -29.3720   20.1620 C   0  0  0  0  0  3  0  0  0  0  0  0
  -25.3170  -28.1250   18.6550 C   0  0  0  0  0  3  0  0  0  0  0  0
  -24.1920  -28.8040   19.1590 C   0  0  0  0  0  3  0  0  0  0  0  0
  -23.2190  -30.5850   20.7210 C   0  0  0  0  0  2  0  0  0  0  0  0
  -24.7170  -31.1700   22.6880 N   0  0  0  0  0  0  0  0  0  0  0  0
  -24.0110  -31.6630   24.7840 O   0  0  0  0  0  0  0  0  0  0  0  0
  -22.8090  -29.5100   22.9640 C   0  0  0  0  0  0  0  0  0  0  0  0
  -21.5240  -29.1860   22.7370 N   0  0  0  0  0  0  0  0  0  0  0  0
  -23.5550  -28.8280   23.6730 O   0  0  0  0  0  0  0  0  0  0  0  0
  -20.9820  -29.7920   22.1370 H   0  0  0  0  0  0  0  0  0  0  0  0
  -18.4800  -27.2650   22.4960 C   0  0  0  0  0  0  0  0  0  0  0  0
  -20.8260  -28.0190   23.2740 C   0  0  0  0  0  3  0  0  0  0  0  0
  -21.3450  -26.7120   22.6300 C   0  0  0  0  0  2  0  0  0  0  0  0
  -20.5420  -26.2960   21.3940 C   0  0  0  0  0  2  0  0  0  0  0  0
  -19.0720  -26.0730   21.7600 C   0  0  0  0  0  2  0  0  0  0  0  0
  -19.3050  -28.1870   23.1920 C   0  0  0  0  0  0  0  0  0  0  0  0
  -18.7090  -29.2970   23.8280 C   0  0  0  0  0  3  0  0  0  0  0  0
  -17.3150  -29.4920   23.7790 C   0  0  0  0  0  3  0  0  0  0  0  0
  -16.5000  -28.5700   23.1000 C   0  0  0  0  0  3  0  0  0  0  0  0
  -17.0830  -27.4590   22.4640 C   0  0  0  0  0  3  0  0  0  0  0  0
  -26.3700  -31.9580   24.4680 C   0  0  0  0  0  3  0  0  0  0  0  0
  -26.3870  -33.4110   24.6810 N   0  0  0  0  0  0  0  0  0  0  0  0
  -27.0740  -34.2810   23.9310 C   0  0  0  0  0  0  0  0  0  0  0  0
  -27.8270  -33.9270   23.0190 O   0  0  0  0  0  0  0  0  0  0  0  0
  -25.7540  -33.7730   25.3770 H   0  0  0  0  0  0  0  0  0  0  0  0
  -26.0660  -36.4360   23.1270 C   0  0  0  0  0  1  0  0  0  0  0  0
  -26.8990  -35.7800   24.2380 C   0  0  0  0  0  3  0  0  0  0  0  0
  -28.9180  -36.1170   25.5920 C   0  0  0  0  0  1  0  0  0  0  0  0
  -28.1800  -36.5030   24.3940 N   0  0  0  0  0  0  0  0  0  0  0  0
  -28.0260  -37.5090   24.4270 H   0  0  0  0  0  0  0  0  0  0  0  0
  -26.7970  -31.1960   25.7830 C   0  0  1  0  0  0  0  0  0  0  0  0
  -25.7650  -31.3080   26.9290 C   0  0  0  0  0  1  0  0  0  0  0  0
  -27.0160  -29.6930   25.4910 C   0  0  0  0  0  1  0  0  0  0  0  0
  -28.1470  -31.7450   26.2940 C   0  0  0  0  0  1  0  0  0  0  0  0
  1 50  1  0
  2  1  1  0
  3  2  1  0
  4  3  1  0
  5  4  1  0
  6  5  1  0
  6  7  1  0
  7  8  1  0
  9 10  1  0
  9  8  1  0
 10 11  1  0
 11 20  1  0
 12 20  1  0
 12 18  1  0
 13 18  1  0
 14 15  1  0
 14 13  1  0
 16 15  1  0
 16 25  1  0
 16 17  1  0
 18 17  1  0
 19 12  2  0
 20 21  1  0
 22 23  2  0
 23 42  1  0
 24 23  1  0
 24 27  1  0
 25 22  1  0
 25 26  1  0
 26 24  2  0
 27 28  1  0
 28 29  2  0
 30 29  1  0
 31 30  2  0
 32 31  1  0
 32 27  2  0
 33 30  1  0
 33 34  1  0
 34 39  2  0
 34 35  1  0
 35 36  2  0
 36 37  1  0
 37 41  1  0
 38 37  2  0
 39 38  1  0
 40 39  1  0
 42 43  1  0
 43 46  1  0
 43 45  1  0
 44 42  2  0
 47 22  1  0
 48 47  1  0
 49 47  1  0
 51 50  1  0
 51 52  1  0
 53 52  1  0
 54 53  1  0
 55 54  1  0
 56 55  1  0
 57 59  1  0
 57 56  1  0
 58 69  2  0
 59 64  1  0
 60 68  1  0
 60 70  1  0
 61 63  1  0
 61 67  1  0
 62 68  1  0
 63 62  1  0
 64 63  2  0
 65 66  1  0
 65 59  2  0
 66 61  2  0
 67 60  1  0
 68 58  1  0
 70 72  2  0
 71 70  1  0
 73 71  1  0
 74 79  1  0
 75 71  1  0
 76 75  1  0
 77 78  1  0
 77 76  1  0
 78 74  1  0
 79 75  1  0
 79 80  2  0
 81 80  1  0
 82 81  2  0
 83 74  2  0
 83 82  1  0
 84 58  1  0
 84 85  1  0
 84 94  1  0
 85 88  1  0
 86 90  1  0
 86 85  1  0
 87 86  2  0
 90 89  1  0
 90 92  1  0
 92 93  1  0
 92 91  1  0
 94 97  1  1
 94 95  1  0
 96 94  1  0
M  ISO  4  12 100  20 100  56 101  57 101
M  END
>  <TORSDO>  (41) 
F 33

>  <SCORE>  (41) 
-2.752

>  <name>  (41) 
45

>  <ligand_id>  (41) 
45

>  <original_smiles>  (41) 
[H]c1c([H])c([H])c2c(c1[H])C([H])([H])C([H])([H])C([H])([H])C2([H])N([H])C(=O)C1([H])N(C(=O)C([H])(N([H])C(=O)C([H])(N([H])C([H])([H])[H])C([H])([H])[H])C(C([H])([H])[H])(C([H])([H])[H])C([H])([H])[H])C([H])([H])c2c([H])c(OC([H])([H])C([H])([H])OC([H])([H])C([H])([H])OC([H])([H])C([H])([H])OC([H])([H])C([H])([H])OC([H])([H])C([H])([H])OC([H])([H])C([H])([H])C([H])([H])N([H])C(=O)N3C([H])([H])C([H])([H])C([H])([H])C([H])(n4nc(-c5c([H])c([H])c(Oc6c([H])c([H])c(F)c([H])c6F)c([H])c5[H])c(C(=O)N([H])[H])c4N([H])[H])C3([H])[H])c([H])c([H])c2C1([H])[H]

>  <smiles>  (41) 
[H]c1c([H])c([H])c2c(c1[H])C([H])([H])C([H])([H])C([H])([H])C2([H])N([H])C(=O)C1([H])N(C(=O)C([H])(N([H])C(=O)C([H])(N([H])C([H])([H])[H])C([H])([H])[H])C(C([H])([H])[H])(C([H])([H])[H])C([H])([H])[H])C([H])([H])c2c([H])c(OC([H])([H])C([H])([H])OC([H])([H])C([H])([H])OC([H])([H])C([H])([H])OC([H])([H])C([H])([H])OC([H])([H])C([H])([H])OC([H])([H])C([H])([H])C([H])([H])N([H])C(=O)N3C([H])([H])C([H])([H])C([H])([H])C([H])(n4nc(-c5c([H])c([H])c(Oc6c([H])c([H])c(F)c([H])c6F)c([H])c5[H])c(C(=O)N([H])[H])c4N([H])[H])C3([H])[H])c([H])c([H])c2C1([H])[H]

$$$$
46:0:0
     RDKit          3D

 93 97  0  0  1  0  0  0  0  0999 V2000
  -26.3730  -19.0040   18.1900 C   0  0  0  0  0  3  0  0  0  0  0  0
  -26.3830  -20.5560   17.8290 C   0  0  0  0  0  2  0  0  0  0  0  0
  -26.9630  -21.4620   18.8310 O   0  0  0  0  0  0  0  0  0  0  0  0
  -27.2890  -22.8280   18.4080 C   0  0  0  0  0  3  0  0  0  0  0  0
  -27.5820  -23.9000   19.5450 C   0  0  0  0  0  3  0  0  0  0  0  0
  -28.2210  -25.2920   19.0910 C   0  0  0  0  0  2  0  0  0  0  0  0
  -28.2580  -26.4700   19.9920 O   0  0  0  0  0  0  0  0  0  0  0  0
  -24.6210  -31.8650   23.2090 C   0  0  0  0  0  0  0  0  0  0  0  0
  -27.1580  -27.3250   20.0420 C   0  0  0  0  0  0  0  0  0  0  0  0
  -23.4040  -30.4990   21.5560 C   0  0  0  0  0  3  0  0  0  0  0  0
  -24.8280  -28.9610   20.1130 C   0  0  0  0  0  0  0  0  0  0  0  0
  -25.9500  -30.7820   21.3870 C   0  0  0  0  0  2  0  0  0  0  0  0
  -26.0080  -29.4190   20.7130 C   0  0  0  0  0  0  0  0  0  0  0  0
  -27.1780  -28.6020   20.6900 C   0  0  0  0  0  3  0  0  0  0  0  0
  -25.9460  -26.9170   19.4490 C   0  0  0  0  0  3  0  0  0  0  0  0
  -24.7940  -27.7100   19.4890 C   0  0  0  0  0  3  0  0  0  0  0  0
  -23.6070  -29.8460   20.1680 C   0  0  0  0  0  2  0  0  0  0  0  0
  -24.6760  -31.0640   22.1060 N   0  0  0  0  0  0  0  0  0  0  0  0
  -23.5390  -32.1510   23.7410 O   0  0  0  0  0  0  0  0  0  0  0  0
  -22.7380  -29.4700   22.4980 C   0  0  0  0  0  0  0  0  0  0  0  0
  -21.4110  -29.3030   22.3690 N   0  0  0  0  0  0  0  0  0  0  0  0
  -23.4130  -28.8250   23.3050 O   0  0  0  0  0  0  0  0  0  0  0  0
  -20.9220  -29.8740   21.6950 H   0  0  0  0  0  0  0  0  0  0  0  0
  -18.0290  -28.1360   22.8520 C   0  0  0  0  0  0  0  0  0  0  0  0
  -20.5870  -28.3650   23.1310 C   0  0  0  0  0  3  0  0  0  0  0  0
  -20.6770  -26.9400   22.5400 C   0  0  0  0  0  2  0  0  0  0  0  0
  -19.5740  -26.6380   21.5220 C   0  0  0  0  0  2  0  0  0  0  0  0
  -18.1930  -26.7910   22.1650 C   0  0  0  0  0  2  0  0  0  0  0  0
  -19.1530  -28.8820   23.2920 C   0  0  0  0  0  0  0  0  0  0  0  0
  -18.9470  -30.1450   23.8890 C   0  0  0  0  0  3  0  0  0  0  0  0
  -17.6470  -30.6590   24.0570 C   0  0  0  0  0  3  0  0  0  0  0  0
  -16.5370  -29.9070   23.6360 C   0  0  0  0  0  3  0  0  0  0  0  0
  -16.7270  -28.6480   23.0380 C   0  0  0  0  0  3  0  0  0  0  0  0
  -25.9090  -32.4790   23.8370 C   0  0  0  0  0  3  0  0  0  0  0  0
  -26.4470  -31.6610   25.0760 C   0  0  1  0  0  0  0  0  0  0  0  0
  -25.3690  -31.3790   26.1480 C   0  0  0  0  0  1  0  0  0  0  0  0
  -27.0330  -30.3010   24.6280 C   0  0  0  0  0  1  0  0  0  0  0  0
  -27.6000  -32.4380   25.7540 C   0  0  0  0  0  1  0  0  0  0  0  0
  -25.5930  -33.8590   24.2260 N   0  0  0  0  0  0  0  0  0  0  0  0
  -25.9060  -34.9450   23.5080 C   0  0  0  0  0  0  0  0  0  0  0  0
  -26.5630  -34.8920   22.4650 O   0  0  0  0  0  0  0  0  0  0  0  0
  -25.0050  -33.9780   25.0370 H   0  0  0  0  0  0  0  0  0  0  0  0
  -24.1490  -36.7270   23.2640 C   0  0  0  0  0  1  0  0  0  0  0  0
  -25.4120  -36.3060   24.0310 C   0  0  0  0  0  3  0  0  0  0  0  0
  -27.5570  -37.1800   24.8460 C   0  0  0  0  0  1  0  0  0  0  0  0
  -26.4300  -37.3760   23.9400 N   0  0  0  0  0  0  0  0  0  0  0  0
  -26.0170  -38.2830   24.1400 H   0  0  0  0  0  0  0  0  0  0  0  0
  -25.7620  -17.9590   17.1500 C   0  0  0  0  0  3  0  0  0  0  0  0
  -25.7090  -16.5700   17.5950 O   0  0  0  0  0  0  0  0  0  0  0  0
  -25.3380  -15.5160   16.6360 C   0  0  0  0  0  2  0  0  0  0  0  0
  -24.9930  -14.1820   17.4070 C   0  0  0  0  0  2  0  0  0  0  0  0
  -25.1450  -12.6680   16.8810 C   0  0  0  0  0  2  0  0  0  0  0  0
  -26.5370  -11.9890   17.1380 C   0  0  0  0  0  2  0  0  0  0  0  0
  -26.9940  -10.7490   17.9710 C   0  0  0  0  0  2  0  0  0  0  0  0
  -28.4410  -10.7110   18.7250 C   0  0  0  0  0  2  0  0  0  0  0  0
  -29.9730  -12.9580   20.2060 C   0  0  2  0  0  0  0  0  0  0  0  0
  -31.0810  -12.3190   19.2310 C   0  0  0  0  0  1  0  0  0  0  0  0
  -29.8900  -12.9380   17.8510 C   0  0  0  0  0  1  0  0  0  0  0  0
  -28.3470  -13.6930   18.4090 C   0  0  0  0  0  2  0  0  0  0  0  0
  -27.7170  -13.6930   20.1210 C   0  0  0  0  0  2  0  0  0  0  0  0
  -28.9520  -13.2020   21.4380 C   0  0  0  0  0  1  0  0  0  0  0  0
  -30.4840  -12.5000   20.9140 N   0  0  0  0  0  1  0  0  0  0  0  0
  -30.4040  -14.2720   20.0030 O   0  0  0  0  0  1  0  0  0  0  0  0
  -29.0540  -11.6020   19.8490 N   0  0  0  0  0  2  0  0  0  0  0  0
  -29.1010  -11.0220   20.6740 H   0  0  0  0  0  0  0  0  0  0  0  0
  -25.2230  -13.9080   20.6550 C   0  0  0  0  0  0  0  0  0  0  0  0
  -24.1830  -13.0710   20.9400 C   0  0  0  0  0  0  0  0  0  0  0  0
  -24.6980  -11.7410   20.8680 C   0  0  0  0  0  0  0  0  0  0  0  0
  -26.3450  -13.1390   20.4310 N   0  0  0  0  0  0  0  0  0  0  0  0
  -26.0250  -11.8070   20.6480 N   0  0  0  0  0  0  0  0  0  0  0  0
  -23.9670  -10.4540   21.0110 C   0  0  0  0  0  0  0  0  0  0  0  0
  -24.3960   -9.4440   21.9030 C   0  0  0  0  0  3  0  0  0  0  0  0
  -23.6470   -8.2550   22.0740 C   0  0  0  0  0  3  0  0  0  0  0  0
  -22.4440   -8.0530   21.3530 C   0  0  0  0  0  0  0  0  0  0  0  0
  -22.0170   -9.0530   20.4580 C   0  0  0  0  0  3  0  0  0  0  0  0
  -22.7640  -10.2380   20.2930 C   0  0  0  0  0  3  0  0  0  0  0  0
  -21.6750   -6.9120   21.4270 O   0  0  0  0  0  0  0  0  0  0  0  0
  -21.7020   -6.0850   22.5240 C   0  0  0  0  0  0  0  0  0  0  0  0
  -21.4120   -6.5720   23.8160 C   0  0  0  0  0  3  0  0  0  0  0  0
  -21.3680   -5.6880   24.9110 C   0  0  0  0  0  3  0  0  0  0  0  0
  -21.6040   -4.3120   24.7180 C   0  0  0  0  0  0  0  0  0  0  0  0
  -21.8820   -3.8210   23.4300 C   0  0  0  0  0  3  0  0  0  0  0  0
  -21.9230   -4.7040   22.3360 C   0  0  0  0  0  0  0  0  0  0  0  0
  -22.1670   -4.2190   21.0950 F   0  0  0  0  0  0  0  0  0  0  0  0
  -21.5610   -3.4570   25.7710 F   0  0  0  0  0  0  0  0  0  0  0  0
  -22.7700  -13.5040   21.1890 C   0  0  0  0  0  0  0  0  0  0  0  0
  -22.0540  -12.8140   22.0740 N   0  0  0  0  0  0  0  0  0  0  0  0
  -22.3240  -14.5200   20.6580 O   0  0  0  0  0  0  0  0  0  0  0  0
  -22.4510  -12.0350   22.5780 H   0  0  0  0  0  0  0  0  0  0  0  0
  -21.1040  -13.0890   22.2870 H   0  0  0  0  0  0  0  0  0  0  0  0
  -25.3020  -15.2920   20.5460 N   0  0  0  0  0  0  0  0  0  0  0  0
  -24.4760  -15.8740   20.5950 H   0  0  0  0  0  0  0  0  0  0  0  0
  -26.0700  -15.7670   20.0850 H   0  0  0  0  0  0  0  0  0  0  0  0
  2  1  1  0
  2  3  1  0
  4  3  1  0
  4  5  2  0
  6  5  1  0
  6  7  1  0
  7  9  1  0
  8 19  2  0
  9 14  1  0
 10 18  1  0
 10 20  1  0
 11 17  1  0
 11 13  1  0
 12 18  1  0
 13 12  1  0
 14 13  2  0
 15 16  1  0
 15  9  2  0
 16 11  2  0
 17 10  1  0
 18  8  1  0
 20 22  2  0
 21 20  1  0
 23 21  1  0
 24 33  2  0
 24 29  1  0
 25 21  1  0
 25 29  1  0
 26 25  1  0
 27 28  1  0
 27 26  1  0
 28 24  1  0
 29 30  2  0
 30 31  1  0
 32 31  2  0
 33 32  1  0
 34  8  1  0
 34 39  1  0
 34 35  1  0
 35 38  1  1
 35 36  1  0
 37 35  1  0
 39 42  1  0
 40 44  1  0
 40 39  1  0
 41 40  2  0
 44 43  1  0
 46 44  1  0
 46 47  1  0
 46 45  1  0
 48 49  1  0
 48  1  2  0
 50 51  1  0
 50 49  1  0
 52 53  1  0
 52 51  1  0
 53 54  1  0
 54 55  1  0
 55 64  1  0
 56 62  1  0
 56 61  1  6
 57 56  1  0
 58 59  1  0
 59 60  1  0
 60 69  1  0
 63 56  1  0
 64 65  1  0
 66 67  2  0
 67 86  1  0
 68 67  1  0
 68 71  1  0
 69 70  1  0
 69 66  1  0
 70 68  2  0
 71 72  1  0
 72 73  2  0
 74 77  1  0
 74 73  1  0
 75 74  2  0
 76 75  1  0
 76 71  2  0
 77 78  1  0
 78 79  1  0
 79 80  2  0
 81 80  1  0
 81 85  1  0
 82 81  2  0
 83 78  2  0
 83 82  1  0
 84 83  1  0
 86 87  1  0
 87 90  1  0
 87 89  1  0
 88 86  2  0
 91 92  1  0
 91 66  1  0
 93 91  1  0
M  ISO  4   6 101   7 101  56 100  64 100
M  END
>  <TORSDO>  (42) 
F 29

>  <SCORE>  (42) 
17.610

>  <name>  (42) 
46

>  <ligand_id>  (42) 
46

>  <original_smiles>  (42) 
[H]c1c([H])c([H])c2c(c1[H])C([H])([H])C([H])([H])C([H])([H])C2([H])N([H])C(=O)C1([H])N(C(=O)C([H])(N([H])C(=O)C([H])(N([H])C([H])([H])[H])C([H])([H])[H])C(C([H])([H])[H])(C([H])([H])[H])C([H])([H])[H])C([H])([H])c2c([H])c(OC([H])([H])C([H])([H])C([H])([H])OC([H])([H])C([H])([H])C([H])([H])OC([H])([H])C([H])([H])C([H])([H])C([H])([H])C([H])([H])C([H])([H])N([H])C(=O)N3C([H])([H])C([H])([H])C([H])([H])C([H])(n4nc(-c5c([H])c([H])c(Oc6c([H])c([H])c(F)c([H])c6F)c([H])c5[H])c(C(=O)N([H])[H])c4N([H])[H])C3([H])[H])c([H])c([H])c2C1([H])[H]

>  <smiles>  (42) 
[H]c1c([H])c([H])c2c(c1[H])C([H])([H])C([H])([H])C([H])([H])C2([H])N([H])C(=O)C1([H])N(C(=O)C([H])(N([H])C(=O)C([H])(N([H])C([H])([H])[H])C([H])([H])[H])C(C([H])([H])[H])(C([H])([H])[H])C([H])([H])[H])C([H])([H])c2c([H])c(OC([H])([H])C([H])([H])C([H])([H])OC([H])([H])C([H])([H])C([H])([H])OC([H])([H])C([H])([H])C([H])([H])C([H])([H])C([H])([H])C([H])([H])N([H])C(=O)N3C([H])([H])C([H])([H])C([H])([H])C([H])(n4nc(-c5c([H])c([H])c(Oc6c([H])c([H])c(F)c([H])c6F)c([H])c5[H])c(C(=O)N([H])[H])c4N([H])[H])C3([H])[H])c([H])c([H])c2C1([H])[H]

$$$$
47:0:0
     RDKit          3D

 97104  0  0  1  0  0  0  0  0999 V2000
  -27.2710  -22.3310   20.9100 C   0  0  0  0  0  0  0  0  0  0  0  0
  -28.1660  -23.0010   21.6400 N   0  0  0  0  0  0  0  0  0  0  0  0
  -26.2060  -22.8270   20.5310 O   0  0  0  0  0  0  0  0  0  0  0  0
  -29.0170  -22.5150   21.8840 H   0  0  0  0  0  0  0  0  0  0  0  0
  -28.0200  -24.3680   22.1180 C   0  0  0  0  0  2  0  0  0  0  0  0
  -29.0330  -24.6560   23.2360 C   0  0  0  0  0  2  0  0  0  0  0  0
  -30.5030  -24.6880   22.7560 C   0  0  0  0  0  2  0  0  0  0  0  0
  -31.2580  -25.9870   23.0930 C   0  0  0  0  0  2  0  0  0  0  0  0
  -31.3040  -26.8510   21.9590 O   0  0  0  0  0  0  0  0  0  0  0  0
  -25.8670  -31.0450   23.7510 C   0  0  0  0  0  0  0  0  0  0  0  0
  -30.0890  -27.3720   21.6110 C   0  0  0  0  0  0  0  0  0  0  0  0
  -25.4880  -29.5430   21.8170 C   0  0  0  0  0  3  0  0  0  0  0  0
  -27.5650  -28.3850   20.8940 C   0  0  0  0  0  0  0  0  0  0  0  0
  -27.8370  -30.3720   22.3880 C   0  0  0  0  0  2  0  0  0  0  0  0
  -28.3650  -29.0790   21.8130 C   0  0  0  0  0  0  0  0  0  0  0  0
  -29.6270  -28.5740   22.1820 C   0  0  0  0  0  3  0  0  0  0  0  0
  -29.2960  -26.6970   20.6630 C   0  0  0  0  0  3  0  0  0  0  0  0
  -28.0250  -27.1890   20.3170 C   0  0  0  0  0  3  0  0  0  0  0  0
  -26.2210  -28.9910   20.5640 C   0  0  0  0  0  2  0  0  0  0  0  0
  -26.3930  -30.3340   22.7140 N   0  0  0  0  0  0  0  0  0  0  0  0
  -24.6430  -31.0870   23.9400 O   0  0  0  0  0  0  0  0  0  0  0  0
  -24.7870  -28.3700   22.5370 C   0  0  0  0  0  0  0  0  0  0  0  0
  -23.5940  -27.9970   22.0460 N   0  0  0  0  0  0  0  0  0  0  0  0
  -25.3240  -27.8000   23.4900 O   0  0  0  0  0  0  0  0  0  0  0  0
  -23.2190  -28.5210   21.2680 H   0  0  0  0  0  0  0  0  0  0  0  0
  -20.3790  -26.3920   21.6910 C   0  0  0  0  0  0  0  0  0  0  0  0
  -22.7690  -26.8960   22.5370 C   0  0  0  0  0  3  0  0  0  0  0  0
  -23.1760  -25.5580   21.8750 C   0  0  0  0  0  2  0  0  0  0  0  0
  -22.3590  -25.2330   20.6200 C   0  0  0  0  0  2  0  0  0  0  0  0
  -20.8670  -25.1550   20.9570 C   0  0  0  0  0  2  0  0  0  0  0  0
  -21.2760  -27.2180   22.4200 C   0  0  0  0  0  0  0  0  0  0  0  0
  -20.7770  -28.3770   23.0550 C   0  0  0  0  0  3  0  0  0  0  0  0
  -19.4130  -28.7130   22.9730 C   0  0  0  0  0  3  0  0  0  0  0  0
  -18.5270  -27.8820   22.2660 C   0  0  0  0  0  3  0  0  0  0  0  0
  -19.0090  -26.7240   21.6310 C   0  0  0  0  0  3  0  0  0  0  0  0
  -26.7720  -31.8580   24.7300 C   0  0  0  0  0  3  0  0  0  0  0  0
  -26.2770  -33.2400   24.7460 N   0  0  0  0  0  0  0  0  0  0  0  0
  -26.7770  -34.2330   23.9980 C   0  0  0  0  0  0  0  0  0  0  0  0
  -27.7630  -34.0940   23.2680 O   0  0  0  0  0  0  0  0  0  0  0  0
  -25.4410  -33.4170   25.2810 H   0  0  0  0  0  0  0  0  0  0  0  0
  -25.1430  -35.7670   22.8550 C   0  0  0  0  0  1  0  0  0  0  0  0
  -26.0690  -35.6000   24.0710 C   0  0  0  0  0  3  0  0  0  0  0  0
  -27.7240  -36.8200   25.4130 C   0  0  0  0  0  1  0  0  0  0  0  0
  -27.0050  -36.7440   24.1450 N   0  0  0  0  0  0  0  0  0  0  0  0
  -26.5100  -37.6210   24.0060 H   0  0  0  0  0  0  0  0  0  0  0  0
  -26.8060  -31.2570   26.1880 C   0  0  1  0  0  0  0  0  0  0  0  0
  -25.4050  -30.9730   26.7760 C   0  0  0  0  0  1  0  0  0  0  0  0
  -27.6080  -29.9350   26.2160 C   0  0  0  0  0  1  0  0  0  0  0  0
  -27.5340  -32.2350   27.1430 C   0  0  0  0  0  1  0  0  0  0  0  0
  -27.6410  -20.8890   20.5600 C   0  0  0  0  0  2  0  0  0  0  0  0
  -27.1670  -20.5650   19.2560 O   0  0  0  0  0  0  0  0  0  0  0  0
  -27.6780  -19.3120   18.8190 C   0  0  0  0  0  2  0  0  0  0  0  0
  -27.7830  -19.2760   17.2860 C   0  0  0  0  0  2  0  0  0  0  0  0
  -29.0020  -19.8430   16.8030 O   0  0  0  0  0  0  0  0  0  0  0  0
  -29.6130  -19.1990   15.6900 C   0  0  0  0  0  2  0  0  0  0  0  0
  -31.1330  -19.4120   15.6320 C   0  0  0  0  0  2  0  0  0  0  0  0
  -31.8050  -18.4820   16.4770 O   0  0  0  0  0  0  0  0  0  0  0  0
  -33.1570  -18.2950   16.0930 C   0  0  0  0  0  2  0  0  0  0  0  0
  -34.0440  -18.0740   17.3290 C   0  0  0  0  0  2  0  0  0  0  0  0
  -35.5710  -16.2100   18.0940 C   0  0  0  0  0  0  0  0  0  0  0  0
  -35.6830  -14.8010   20.1100 C   0  0  0  0  0  2  0  0  0  0  0  0
  -34.8850  -13.4950   19.9110 C   0  0  0  0  0  2  0  0  0  0  0  0
  -33.3810  -13.6870   20.2140 C   0  0  0  0  0  2  0  0  0  0  0  0
  -32.7930  -14.9580   19.5480 C   0  0  0  0  0  3  0  0  0  0  0  0
  -33.7160  -16.1590   19.8450 C   0  0  0  0  0  2  0  0  0  0  0  0
  -35.0500  -15.8580   19.3050 N   0  0  0  0  0  0  0  0  0  0  0  0
  -36.6590  -15.7980   17.6910 O   0  0  0  0  0  0  0  0  0  0  0  0
  -34.7700  -16.8110   17.2030 N   0  0  0  0  0  0  0  0  0  0  0  0
  -35.1090  -16.6610   16.2630 H   0  0  0  0  0  0  0  0  0  0  0  0
  -30.8640  -16.3660   20.5270 C   0  0  0  0  0  0  0  0  0  0  0  0
  -29.5360  -16.0880   20.7110 C   0  0  0  0  0  0  0  0  0  0  0  0
  -29.3430  -14.7560   20.2330 C   0  0  0  0  0  0  0  0  0  0  0  0
  -31.4230  -15.2160   19.9860 N   0  0  0  0  0  0  0  0  0  0  0  0
  -30.5000  -14.2300   19.8550 N   0  0  0  0  0  0  0  0  0  0  0  0
  -28.1150  -13.9730   20.0580 C   0  0  0  0  0  0  0  0  0  0  0  0
  -28.0060  -12.6480   20.5330 C   0  0  0  0  0  3  0  0  0  0  0  0
  -26.8070  -11.9250   20.3650 C   0  0  0  0  0  3  0  0  0  0  0  0
  -25.7000  -12.5270   19.7200 C   0  0  0  0  0  0  0  0  0  0  0  0
  -25.8230  -13.8370   19.2260 C   0  0  0  0  0  3  0  0  0  0  0  0
  -27.0190  -14.5530   19.3890 C   0  0  0  0  0  3  0  0  0  0  0  0
  -24.5000  -11.8950   19.4960 O   0  0  0  0  0  0  0  0  0  0  0  0
  -24.1170  -10.8000   20.2260 C   0  0  0  0  0  0  0  0  0  0  0  0
  -23.8490  -10.8820   21.6090 C   0  0  0  0  0  3  0  0  0  0  0  0
  -23.3870   -9.7480   22.3060 C   0  0  0  0  0  3  0  0  0  0  0  0
  -23.1880   -8.5330   21.6220 C   0  0  0  0  0  0  0  0  0  0  0  0
  -23.4500   -8.4500   20.2430 C   0  0  0  0  0  3  0  0  0  0  0  0
  -23.9110   -9.5810   19.5480 C   0  0  0  0  0  0  0  0  0  0  0  0
  -24.1410   -9.5020   18.2150 F   0  0  0  0  0  0  0  0  0  0  0  0
  -22.7380   -7.4440   22.2900 F   0  0  0  0  0  0  0  0  0  0  0  0
  -28.4860  -17.0410   21.2010 C   0  0  0  0  0  0  0  0  0  0  0  0
  -27.4660  -16.5380   21.8890 N   0  0  0  0  0  0  0  0  0  0  0  0
  -28.5870  -18.2530   21.0140 O   0  0  0  0  0  0  0  0  0  0  0  0
  -27.3850  -15.5470   22.0610 H   0  0  0  0  0  0  0  0  0  0  0  0
  -26.7530  -17.1580   22.2500 H   0  0  0  0  0  0  0  0  0  0  0  0
  -31.6330  -17.5040   20.7560 N   0  0  0  0  0  0  0  0  0  0  0  0
  -31.2130  -18.3810   21.0450 H   0  0  0  0  0  0  0  0  0  0  0  0
  -32.5870  -17.6110   20.4380 H   0  0  0  0  0  0  0  0  0  0  0  0
  1  2  1  0
  2  4  1  0
  2  5  1  0
  3  1  2  0
  5  6  1  0
  7  8  1  0
  7  6  1  0
  9  8  1  0
 10 21  2  0
 11  9  1  0
 11 16  1  0
 12 22  1  0
 12 20  1  0
 13 15  1  0
 14 20  1  0
 15 16  2  0
 15 14  1  0
 17 11  2  0
 18 17  1  0
 18 13  2  0
 19 13  1  0
 19 12  1  0
 20 10  1  0
 22 24  2  0
 23 22  1  0
 25 23  1  0
 26 31  1  0
 27 23  1  0
 28 27  1  0
 29 30  1  0
 29 28  1  0
 30 26  1  0
 31 27  1  0
 31 32  2  0
 33 32  1  0
 34 33  2  0
 35 26  2  0
 35 34  1  0
 36 10  1  0
 36 37  1  0
 36 46  1  0
 37 40  1  0
 38 42  1  0
 38 37  1  0
 39 38  2  0
 42 41  1  0
 42 44  1  0
 44 43  1  0
 45 44  1  0
 46 48  1  6
 46 47  1  0
 46 49  1  0
 50  1  1  0
 51 50  1  0
 52 51  1  0
 53 52  1  0
 54 53  1  0
 55 54  1  0
 56 55  1  0
 56 57  1  0
 58 57  1  0
 58 59  1  0
 60 66  1  0
 62 61  1  0
 62 63  1  0
 64 65  1  0
 64 73  1  0
 64 63  1  0
 66 65  1  0
 66 61  1  0
 67 60  2  0
 68 59  1  0
 68 60  1  0
 69 68  1  0
 70 71  2  0
 70 95  1  0
 71 90  1  0
 72 71  1  0
 73 70  1  0
 74 73  1  0
 74 72  2  0
 75 72  1  0
 75 76  1  0
 77 76  2  0
 78 77  1  0
 79 80  1  0
 79 78  2  0
 80 75  2  0
 81 78  1  0
 81 82  1  0
 82 83  1  0
 83 84  2  0
 85 89  1  0
 85 84  1  0
 86 85  2  0
 87 82  2  0
 87 86  1  0
 88 87  1  0
 90 91  1  0
 91 93  1  0
 91 94  1  0
 92 90  2  0
 95 96  1  0
 97 95  1  0
M  ISO  4   8 101   9 101  60 100  68 100
M  END
>  <TORSDO>  (43) 
F 30

>  <SCORE>  (43) 
1.878

>  <name>  (43) 
47

>  <ligand_id>  (43) 
47

>  <original_smiles>  (43) 
[H]c1c([H])c([H])c2c(c1[H])C([H])([H])C([H])([H])C([H])([H])C2([H])N([H])C(=O)C1([H])N(C(=O)C([H])(N([H])C(=O)C([H])(N([H])C([H])([H])[H])C([H])([H])[H])C(C([H])([H])[H])(C([H])([H])[H])C([H])([H])[H])C([H])([H])c2c([H])c(OC([H])([H])C([H])([H])C([H])([H])C([H])([H])N([H])C(=O)C([H])([H])OC([H])([H])C([H])([H])OC([H])([H])C([H])([H])OC([H])([H])C([H])([H])N([H])C(=O)N3C([H])([H])C([H])([H])C([H])([H])C([H])(n4nc(-c5c([H])c([H])c(Oc6c([H])c([H])c(F)c([H])c6F)c([H])c5[H])c(C(=O)N([H])[H])c4N([H])[H])C3([H])[H])c([H])c([H])c2C1([H])[H]

>  <smiles>  (43) 
[H]c1c([H])c([H])c2c(c1[H])C([H])([H])C([H])([H])C([H])([H])C2([H])N([H])C(=O)C1([H])N(C(=O)C([H])(N([H])C(=O)C([H])(N([H])C([H])([H])[H])C([H])([H])[H])C(C([H])([H])[H])(C([H])([H])[H])C([H])([H])[H])C([H])([H])c2c([H])c(OC([H])([H])C([H])([H])C([H])([H])C([H])([H])N([H])C(=O)C([H])([H])OC([H])([H])C([H])([H])OC([H])([H])C([H])([H])OC([H])([H])C([H])([H])N([H])C(=O)N3C([H])([H])C([H])([H])C([H])([H])C([H])(n4nc(-c5c([H])c([H])c(Oc6c([H])c([H])c(F)c([H])c6F)c([H])c5[H])c(C(=O)N([H])[H])c4N([H])[H])C3([H])[H])c([H])c([H])c2C1([H])[H]

$$$$
48:0:0
     RDKit          3D

 96103  0  0  1  0  0  0  0  0999 V2000
  -28.2400  -21.7790   18.2940 C   0  0  0  0  0  0  0  0  0  0  0  0
  -28.0220  -22.2300   19.5330 N   0  0  0  0  0  0  0  0  0  0  0  0
  -28.3320  -22.5110   17.3060 O   0  0  0  0  0  0  0  0  0  0  0  0
  -27.9490  -21.4830   20.2150 H   0  0  0  0  0  0  0  0  0  0  0  0
  -27.7090  -23.5790   19.9760 C   0  0  0  0  0  2  0  0  0  0  0  0
  -28.7760  -24.1260   20.9390 C   0  0  0  0  0  2  0  0  0  0  0  0
  -28.4210  -25.5260   21.4580 C   0  0  0  0  0  2  0  0  0  0  0  0
  -28.3510  -26.4340   20.3660 O   0  0  0  0  0  0  0  0  0  0  0  0
  -24.5100  -31.6800   23.2450 C   0  0  0  0  0  0  0  0  0  0  0  0
  -27.1960  -27.1710   20.3420 C   0  0  0  0  0  0  0  0  0  0  0  0
  -23.3410  -30.2760   21.5760 C   0  0  0  0  0  3  0  0  0  0  0  0
  -24.8200  -28.6810   20.2490 C   0  0  0  0  0  0  0  0  0  0  0  0
  -25.8770  -30.5880   21.4780 C   0  0  0  0  0  2  0  0  0  0  0  0
  -25.9600  -29.2040   20.8710 C   0  0  0  0  0  0  0  0  0  0  0  0
  -27.1530  -28.4520   20.9240 C   0  0  0  0  0  3  0  0  0  0  0  0
  -26.0440  -26.6500   19.7180 C   0  0  0  0  0  3  0  0  0  0  0  0
  -24.8510  -27.3960   19.6770 C   0  0  0  0  0  3  0  0  0  0  0  0
  -23.5930  -29.5630   20.2220 C   0  0  0  0  0  2  0  0  0  0  0  0
  -24.5920  -30.8610   22.1590 N   0  0  0  0  0  0  0  0  0  0  0  0
  -23.4140  -31.9870   23.7350 O   0  0  0  0  0  0  0  0  0  0  0  0
  -22.6280  -29.2850   22.5250 C   0  0  0  0  0  0  0  0  0  0  0  0
  -21.3070  -29.1320   22.3420 N   0  0  0  0  0  0  0  0  0  0  0  0
  -23.2620  -28.6580   23.3770 O   0  0  0  0  0  0  0  0  0  0  0  0
  -20.8620  -29.6860   21.6260 H   0  0  0  0  0  0  0  0  0  0  0  0
  -17.8870  -28.0350   22.7130 C   0  0  0  0  0  0  0  0  0  0  0  0
  -20.4360  -28.2280   23.0920 C   0  0  0  0  0  3  0  0  0  0  0  0
  -20.5230  -26.7850   22.5410 C   0  0  0  0  0  2  0  0  0  0  0  0
  -19.4570  -26.4760   21.4860 C   0  0  0  0  0  2  0  0  0  0  0  0
  -18.0540  -26.6690   22.0700 C   0  0  0  0  0  2  0  0  0  0  0  0
  -19.0060  -28.7730   23.1800 C   0  0  0  0  0  0  0  0  0  0  0  0
  -18.7990  -30.0530   23.7380 C   0  0  0  0  0  3  0  0  0  0  0  0
  -17.5030  -30.5920   23.8380 C   0  0  0  0  0  3  0  0  0  0  0  0
  -16.3960  -29.8510   23.3900 C   0  0  0  0  0  3  0  0  0  0  0  0
  -16.5890  -28.5740   22.8330 C   0  0  0  0  0  3  0  0  0  0  0  0
  -25.7850  -32.2900   23.9080 C   0  0  0  0  0  3  0  0  0  0  0  0
  -25.4900  -33.6950   24.2190 N   0  0  0  0  0  0  0  0  0  0  0  0
  -25.8560  -34.7330   23.4560 C   0  0  0  0  0  0  0  0  0  0  0  0
  -26.5490  -34.6110   22.4430 O   0  0  0  0  0  0  0  0  0  0  0  0
  -24.8720  -33.8640   24.9990 H   0  0  0  0  0  0  0  0  0  0  0  0
  -24.1530  -36.5390   23.0500 C   0  0  0  0  0  1  0  0  0  0  0  0
  -25.3760  -36.1320   23.8870 C   0  0  0  0  0  3  0  0  0  0  0  0
  -27.5070  -37.0020   24.7410 C   0  0  0  0  0  1  0  0  0  0  0  0
  -26.4220  -37.1720   23.7790 N   0  0  0  0  0  0  0  0  0  0  0  0
  -26.0240  -38.0990   23.9110 H   0  0  0  0  0  0  0  0  0  0  0  0
  -26.2470  -31.5130   25.2020 C   0  0  1  0  0  0  0  0  0  0  0  0
  -25.1140  -31.2920   26.2300 C   0  0  0  0  0  1  0  0  0  0  0  0
  -26.8230  -30.1270   24.8300 C   0  0  0  0  0  1  0  0  0  0  0  0
  -27.3850  -32.2910   25.9040 C   0  0  0  0  0  1  0  0  0  0  0  0
  -28.3170  -20.2520   18.1760 C   0  0  0  0  0  2  0  0  0  0  0  0
  -28.4130  -19.7150   19.4950 O   0  0  0  0  0  0  0  0  0  0  0  0
  -28.3950  -18.3020   19.5690 C   0  0  0  0  0  2  0  0  0  0  0  0
  -28.7030  -17.9190   21.0290 C   0  0  0  0  0  2  0  0  0  0  0  0
  -30.0960  -17.7290   21.2490 O   0  0  0  0  0  0  0  0  0  0  0  0
  -30.9130  -18.8740   21.0240 C   0  0  0  0  0  2  0  0  0  0  0  0
  -32.3650  -18.5470   21.4160 C   0  0  0  0  0  2  0  0  0  0  0  0
  -32.8750  -17.4930   20.6020 O   0  0  0  0  0  0  0  0  0  0  0  0
  -32.5030  -16.1910   21.0330 C   0  0  0  0  0  2  0  0  0  0  0  0
  -32.7230  -15.2160   19.8710 C   0  0  0  0  0  2  0  0  0  0  0  0
  -32.1880  -12.8470   19.4000 C   0  0  0  0  0  0  0  0  0  0  0  0
  -31.3230  -10.5970   18.8990 C   0  0  0  0  0  2  0  0  0  0  0  0
  -30.2620  -10.6500   17.7810 C   0  0  0  0  0  2  0  0  0  0  0  0
  -28.8660  -10.9530   18.3580 C   0  0  0  0  0  2  0  0  0  0  0  0
  -28.8680  -12.1640   19.3260 C   0  0  0  0  0  3  0  0  0  0  0  0
  -30.0060  -12.0280   20.3610 C   0  0  0  0  0  2  0  0  0  0  0  0
  -31.2820  -11.8660   19.6350 N   0  0  0  0  0  0  0  0  0  0  0  0
  -33.1390  -12.7300   18.6210 O   0  0  0  0  0  0  0  0  0  0  0  0
  -31.9810  -13.9790   20.0760 N   0  0  0  0  0  0  0  0  0  0  0  0
  -31.2020  -13.9950   20.7180 H   0  0  0  0  0  0  0  0  0  0  0  0
  -26.9160  -13.4970   20.3560 C   0  0  0  0  0  0  0  0  0  0  0  0
  -25.7030  -13.1060   20.8550 C   0  0  0  0  0  0  0  0  0  0  0  0
  -25.6700  -11.6820   20.7370 C   0  0  0  0  0  0  0  0  0  0  0  0
  -27.5660  -12.3330   19.9730 N   0  0  0  0  0  0  0  0  0  0  0  0
  -26.8230  -11.2320   20.2580 N   0  0  0  0  0  0  0  0  0  0  0  0
  -24.5870  -10.7270   21.0030 C   0  0  0  0  0  0  0  0  0  0  0  0
  -24.7930   -9.5850   21.8080 C   0  0  0  0  0  3  0  0  0  0  0  0
  -23.7320   -8.6900   22.0650 C   0  0  0  0  0  3  0  0  0  0  0  0
  -22.4510   -8.9310   21.5170 C   0  0  0  0  0  0  0  0  0  0  0  0
  -22.2570  -10.0570   20.6960 C   0  0  0  0  0  3  0  0  0  0  0  0
  -23.3140  -10.9450   20.4390 C   0  0  0  0  0  3  0  0  0  0  0  0
  -21.3690   -8.1020   21.6890 O   0  0  0  0  0  0  0  0  0  0  0  0
  -21.2760   -7.2540   22.7610 C   0  0  0  0  0  0  0  0  0  0  0  0
  -21.2910   -7.7310   24.0910 C   0  0  0  0  0  3  0  0  0  0  0  0
  -21.1210   -6.8340   25.1630 C   0  0  0  0  0  3  0  0  0  0  0  0
  -20.9300   -5.4620   24.9110 C   0  0  0  0  0  0  0  0  0  0  0  0
  -20.9100   -4.9850   23.5880 C   0  0  0  0  0  3  0  0  0  0  0  0
  -21.0810   -5.8800   22.5180 C   0  0  0  0  0  0  0  0  0  0  0  0
  -21.0400   -5.4190   21.2430 F   0  0  0  0  0  0  0  0  0  0  0  0
  -20.7610   -4.6000   25.9410 F   0  0  0  0  0  0  0  0  0  0  0  0
  -24.5960  -14.0040   21.3240 C   0  0  0  0  0  0  0  0  0  0  0  0
  -23.8070  -13.5530   22.2930 N   0  0  0  0  0  0  0  0  0  0  0  0
  -24.4550  -15.1380   20.8670 O   0  0  0  0  0  0  0  0  0  0  0  0
  -23.9300  -12.6330   22.6870 H   0  0  0  0  0  0  0  0  0  0  0  0
  -23.0700  -14.1440   22.6470 H   0  0  0  0  0  0  0  0  0  0  0  0
  -27.5070  -14.7440   20.1770 N   0  0  0  0  0  0  0  0  0  0  0  0
  -26.9990  -15.5990   20.3660 H   0  0  0  0  0  0  0  0  0  0  0  0
  -28.3800  -14.8940   19.6910 H   0  0  0  0  0  0  0  0  0  0  0  0
  1  2  1  0
  2  5  1  0
  2  4  1  0
  3  1  2  0
  5  6  1  0
  6  7  1  0
  8  7  1  0
  9 20  2  0
 10  8  1  0
 10 15  1  0
 11 19  1  0
 11 21  1  0
 12 14  1  0
 13 19  1  0
 14 15  2  0
 14 13  1  0
 16 10  2  0
 17 16  1  0
 17 12  2  0
 18 12  1  0
 18 11  1  0
 19  9  1  0
 21 23  2  0
 22 21  1  0
 24 22  1  0
 25 34  2  0
 25 30  1  0
 26 22  1  0
 26 30  1  0
 27 26  1  0
 28 29  1  0
 28 27  1  0
 29 25  1  0
 30 31  2  0
 31 32  1  0
 33 32  2  0
 34 33  1  0
 35  9  1  0
 35 36  1  0
 35 45  1  0
 36 39  1  0
 37 41  1  0
 37 36  1  0
 38 37  2  0
 41 40  1  0
 43 41  1  0
 43 44  1  0
 43 42  1  0
 45 48  1  1
 45 46  1  0
 47 45  1  0
 49  1  1  0
 49 50  1  0
 50 51  1  0
 51 52  1  0
 52 53  1  0
 54 53  1  0
 54 55  1  0
 56 57  1  0
 56 55  1  0
 58 67  1  0
 58 57  1  0
 59 65  1  0
 59 67  1  0
 60 65  1  0
 61 62  1  0
 61 60  1  0
 63 62  1  0
 63 72  1  0
 63 64  1  0
 65 64  1  0
 66 59  2  0
 67 68  1  0
 69 70  2  0
 70 89  1  0
 71 70  1  0
 71 74  1  0
 72 73  1  0
 72 69  1  0
 73 71  2  0
 74 75  1  0
 75 76  2  0
 77 80  1  0
 77 76  1  0
 78 77  2  0
 79 78  1  0
 79 74  2  0
 80 81  1  0
 81 82  1  0
 82 83  2  0
 84 83  1  0
 84 88  1  0
 85 84  2  0
 86 81  2  0
 86 85  1  0
 87 86  1  0
 89 90  1  0
 90 93  1  0
 90 92  1  0
 91 89  2  0
 94 69  1  0
 94 95  1  0
 96 94  1  0
M  ISO  4   7 101   8 101  59 100  67 100
M  END
>  <TORSDO>  (44) 
F 29

>  <SCORE>  (44) 
-8.101

>  <name>  (44) 
48

>  <ligand_id>  (44) 
48

>  <original_smiles>  (44) 
[H]c1c([H])c([H])c2c(c1[H])C([H])([H])C([H])([H])C([H])([H])C2([H])N([H])C(=O)C1([H])N(C(=O)C([H])(N([H])C(=O)C([H])(N([H])C([H])([H])[H])C([H])([H])[H])C(C([H])([H])[H])(C([H])([H])[H])C([H])([H])[H])C([H])([H])c2c([H])c(OC([H])([H])C([H])([H])C([H])([H])N([H])C(=O)C([H])([H])OC([H])([H])C([H])([H])OC([H])([H])C([H])([H])OC([H])([H])C([H])([H])N([H])C(=O)N3C([H])([H])C([H])([H])C([H])([H])C([H])(n4nc(-c5c([H])c([H])c(Oc6c([H])c([H])c(F)c([H])c6F)c([H])c5[H])c(C(=O)N([H])[H])c4N([H])[H])C3([H])[H])c([H])c([H])c2C1([H])[H]

>  <smiles>  (44) 
[H]c1c([H])c([H])c2c(c1[H])C([H])([H])C([H])([H])C([H])([H])C2([H])N([H])C(=O)C1([H])N(C(=O)C([H])(N([H])C(=O)C([H])(N([H])C([H])([H])[H])C([H])([H])[H])C(C([H])([H])[H])(C([H])([H])[H])C([H])([H])[H])C([H])([H])c2c([H])c(OC([H])([H])C([H])([H])C([H])([H])N([H])C(=O)C([H])([H])OC([H])([H])C([H])([H])OC([H])([H])C([H])([H])OC([H])([H])C([H])([H])N([H])C(=O)N3C([H])([H])C([H])([H])C([H])([H])C([H])(n4nc(-c5c([H])c([H])c(Oc6c([H])c([H])c(F)c([H])c6F)c([H])c5[H])c(C(=O)N([H])[H])c4N([H])[H])C3([H])[H])c([H])c([H])c2C1([H])[H]

$$$$
49:0:0
     RDKit          3D

110117  0  0  1  0  0  0  0  0999 V2000
  -27.1590  -18.4520   19.4590 C   0  0  0  0  0  2  0  0  0  0  0  0
  -27.3850  -17.8760   20.8640 C   0  0  0  0  0  2  0  0  0  0  0  0
  -26.5140  -16.7880   21.1500 O   0  0  0  0  0  0  0  0  0  0  0  0
  -25.2960  -17.1790   21.7760 C   0  0  0  0  0  2  0  0  0  0  0  0
  -24.9340  -16.1620   22.8670 C   0  0  0  0  0  2  0  0  0  0  0  0
  -24.5670  -16.8960   24.0260 O   0  0  0  0  0  0  0  0  0  0  0  0
  -24.6930  -16.1900   25.2550 C   0  0  0  0  0  2  0  0  0  0  0  0
  -26.1620  -16.1020   25.7230 C   0  0  0  0  0  2  0  0  0  0  0  0
  -26.7040  -17.4150   25.7750 O   0  0  0  0  0  0  0  0  0  0  0  0
  -27.9000  -17.5220   26.5380 C   0  0  0  0  0  2  0  0  0  0  0  0
  -28.5100  -18.9300   26.3480 C   0  0  0  0  0  2  0  0  0  0  0  0
  -29.6860  -18.9420   25.5480 O   0  0  0  0  0  0  0  0  0  0  0  0
  -29.5180  -18.7280   24.1490 C   0  0  0  0  0  2  0  0  0  0  0  0
  -30.7710  -17.9840   23.6840 C   0  0  0  0  0  2  0  0  0  0  0  0
  -30.5580  -17.3240   22.4460 O   0  0  0  0  0  0  0  0  0  0  0  0
  -31.7160  -16.6000   22.0570 C   0  0  0  0  0  2  0  0  0  0  0  0
  -31.5470  -16.0730   20.6320 C   0  0  0  0  0  2  0  0  0  0  0  0
  -30.9770  -13.8910   19.6600 C   0  0  0  0  0  0  0  0  0  0  0  0
  -30.4630  -11.6340   18.8330 C   0  0  0  0  0  2  0  0  0  0  0  0
  -29.4850  -11.6960   17.6480 C   0  0  0  0  0  2  0  0  0  0  0  0
  -28.0360  -11.6750   18.1620 C   0  0  0  0  0  2  0  0  0  0  0  0
  -27.7830  -12.7150   19.2880 C   0  0  0  0  0  3  0  0  0  0  0  0
  -28.8870  -12.6690   20.3740 C   0  0  0  0  0  2  0  0  0  0  0  0
  -30.2010  -12.7780   19.7190 N   0  0  0  0  0  0  0  0  0  0  0  0
  -31.9060  -14.0120   18.8580 O   0  0  0  0  0  0  0  0  0  0  0  0
  -30.7460  -14.8450   20.5660 N   0  0  0  0  0  0  0  0  0  0  0  0
  -29.9830  -14.7350   21.2190 H   0  0  0  0  0  0  0  0  0  0  0  0
  -25.4740  -13.5080   20.1030 C   0  0  0  0  0  0  0  0  0  0  0  0
  -24.3970  -12.8390   20.6110 C   0  0  0  0  0  0  0  0  0  0  0  0
  -24.7690  -11.4610   20.6370 C   0  0  0  0  0  0  0  0  0  0  0  0
  -26.4520  -12.5550   19.8730 N   0  0  0  0  0  0  0  0  0  0  0  0
  -26.0290  -11.3170   20.2400 N   0  0  0  0  0  0  0  0  0  0  0  0
  -23.9820  -10.2660   20.9580 C   0  0  0  0  0  0  0  0  0  0  0  0
  -24.4290   -9.3120   21.9000 C   0  0  0  0  0  3  0  0  0  0  0  0
  -23.6400   -8.1820   22.2020 C   0  0  0  0  0  3  0  0  0  0  0  0
  -22.3870   -8.0000   21.5700 C   0  0  0  0  0  0  0  0  0  0  0  0
  -21.9600   -8.9390   20.6170 C   0  0  0  0  0  3  0  0  0  0  0  0
  -22.7460  -10.0620   20.3140 C   0  0  0  0  0  3  0  0  0  0  0  0
  -21.5700   -6.9160   21.7850 O   0  0  0  0  0  0  0  0  0  0  0  0
  -21.5940   -6.2230   22.9690 C   0  0  0  0  0  0  0  0  0  0  0  0
  -21.3320   -6.8500   24.2080 C   0  0  0  0  0  3  0  0  0  0  0  0
  -21.2980   -6.0830   25.3910 C   0  0  0  0  0  3  0  0  0  0  0  0
  -21.5130   -4.6920   25.3370 C   0  0  0  0  0  0  0  0  0  0  0  0
  -21.7660   -4.0670   24.1020 C   0  0  0  0  0  3  0  0  0  0  0  0
  -21.8010   -4.8310   22.9220 C   0  0  0  0  0  0  0  0  0  0  0  0
  -22.0270   -4.2200   21.7350 F   0  0  0  0  0  0  0  0  0  0  0  0
  -21.4710   -3.9530   26.4700 F   0  0  0  0  0  0  0  0  0  0  0  0
  -23.0610  -13.4310   20.9570 C   0  0  0  0  0  0  0  0  0  0  0  0
  -22.3710  -12.8600   21.9370 N   0  0  0  0  0  0  0  0  0  0  0  0
  -22.6480  -14.4380   20.3830 O   0  0  0  0  0  0  0  0  0  0  0  0
  -22.7130  -12.0390   22.4160 H   0  0  0  0  0  0  0  0  0  0  0  0
  -21.4860  -13.2550   22.2220 H   0  0  0  0  0  0  0  0  0  0  0  0
  -25.6970  -14.8460   19.7980 N   0  0  0  0  0  0  0  0  0  0  0  0
  -24.9920  -15.5590   19.9300 H   0  0  0  0  0  0  0  0  0  0  0  0
  -26.5580  -15.1970   19.4030 H   0  0  0  0  0  0  0  0  0  0  0  0
  -26.0230  -19.3040   19.4510 O   0  0  0  0  0  0  0  0  0  0  0  0
  -25.9310  -20.0380   18.2410 C   0  0  0  0  0  2  0  0  0  0  0  0
  -24.9170  -21.1720   18.4230 C   0  0  0  0  0  2  0  0  0  0  0  0
  -25.0540  -22.1040   17.3540 O   0  0  0  0  0  0  0  0  0  0  0  0
  -25.0000  -23.4770   17.7410 C   0  0  0  0  0  2  0  0  0  0  0  0
  -26.3520  -23.9600   18.3000 C   0  0  0  0  0  2  0  0  0  0  0  0
  -26.3420  -23.8350   19.7160 O   0  0  0  0  0  0  0  0  0  0  0  0
  -27.5730  -24.2100   20.3320 C   0  0  0  0  0  2  0  0  0  0  0  0
  -27.3090  -24.6520   21.7840 C   0  0  0  0  0  0  0  0  0  0  0  0
  -28.3250  -25.0710   22.5520 N   0  0  0  0  0  0  0  0  0  0  0  0
  -26.1600  -24.6380   22.2280 O   0  0  0  0  0  0  0  0  0  0  0  0
  -28.0800  -25.3330   23.4970 H   0  0  0  0  0  0  0  0  0  0  0  0
  -29.7460  -25.1730   22.1980 C   0  0  0  0  0  2  0  0  0  0  0  0
  -30.3310  -26.5590   22.5510 C   0  0  0  0  0  2  0  0  0  0  0  0
  -30.1990  -27.5130   21.4980 O   0  0  0  0  0  0  0  0  0  0  0  0
  -25.1390  -31.9990   23.7550 C   0  0  0  0  0  0  0  0  0  0  0  0
  -28.9490  -28.0510   21.3280 C   0  0  0  0  0  0  0  0  0  0  0  0
  -24.4910  -30.4560   21.9320 C   0  0  0  0  0  3  0  0  0  0  0  0
  -26.4030  -29.1670   20.8420 C   0  0  0  0  0  0  0  0  0  0  0  0
  -26.9220  -31.1880   22.2220 C   0  0  0  0  0  2  0  0  0  0  0  0
  -27.3290  -29.8500   21.6450 C   0  0  0  0  0  0  0  0  0  0  0  0
  -28.6020  -29.2940   21.8970 C   0  0  0  0  0  3  0  0  0  0  0  0
  -28.0240  -27.3850   20.5040 C   0  0  0  0  0  3  0  0  0  0  0  0
  -26.7450  -27.9270   20.2700 C   0  0  0  0  0  3  0  0  0  0  0  0
  -25.0610  -29.8300   20.6310 C   0  0  0  0  0  2  0  0  0  0  0  0
  -25.5220  -31.2340   22.6960 N   0  0  0  0  0  0  0  0  0  0  0  0
  -23.9460  -32.1050   24.0690 O   0  0  0  0  0  0  0  0  0  0  0  0
  -23.8260  -29.3380   22.7640 C   0  0  0  0  0  0  0  0  0  0  0  0
  -22.5630  -29.0190   22.4390 N   0  0  0  0  0  0  0  0  0  0  0  0
  -24.4490  -28.7620   23.6600 O   0  0  0  0  0  0  0  0  0  0  0  0
  -22.1100  -29.5540   21.7110 H   0  0  0  0  0  0  0  0  0  0  0  0
  -19.2790  -27.5230   22.4570 C   0  0  0  0  0  0  0  0  0  0  0  0
  -21.7550  -27.9660   23.0530 C   0  0  0  0  0  3  0  0  0  0  0  0
  -22.0470  -26.5890   22.4110 C   0  0  0  0  0  2  0  0  0  0  0  0
  -21.1060  -26.2670   21.2480 C   0  0  0  0  0  2  0  0  0  0  0  0
  -19.6520  -26.2410   21.7330 C   0  0  0  0  0  2  0  0  0  0  0  0
  -20.2690  -28.3440   23.0600 C   0  0  0  0  0  0  0  0  0  0  0  0
  -19.8710  -29.5470   23.6840 C   0  0  0  0  0  3  0  0  0  0  0  0
  -18.5180  -29.9320   23.7080 C   0  0  0  0  0  3  0  0  0  0  0  0
  -17.5400  -29.1060   23.1260 C   0  0  0  0  0  3  0  0  0  0  0  0
  -17.9210  -27.9020   22.5080 C   0  0  0  0  0  3  0  0  0  0  0  0
  -26.1750  -32.7990   24.6050 C   0  0  0  0  0  3  0  0  0  0  0  0
  -26.4030  -32.1910   26.0420 C   0  0  1  0  0  0  0  0  0  0  0  0
  -25.0890  -31.9300   26.8150 C   0  0  0  0  0  1  0  0  0  0  0  0
  -27.1740  -30.8510   25.9580 C   0  0  0  0  0  1  0  0  0  0  0  0
  -27.2830  -33.1470   26.8820 C   0  0  0  0  0  1  0  0  0  0  0  0
  -25.6990  -34.1840   24.6930 N   0  0  0  0  0  0  0  0  0  0  0  0
  -26.1220  -35.1820   23.9050 C   0  0  0  0  0  0  0  0  0  0  0  0
  -27.0160  -35.0420   23.0660 O   0  0  0  0  0  0  0  0  0  0  0  0
  -24.9230  -34.3590   25.3140 H   0  0  0  0  0  0  0  0  0  0  0  0
  -24.3820  -36.7390   22.9790 C   0  0  0  0  0  1  0  0  0  0  0  0
  -25.4440  -36.5540   24.0740 C   0  0  0  0  0  3  0  0  0  0  0  0
  -27.2960  -37.7150   25.1920 C   0  0  0  0  0  1  0  0  0  0  0  0
  -26.3960  -37.6860   24.0420 N   0  0  0  0  0  0  0  0  0  0  0  0
  -25.9020  -38.5750   24.0020 H   0  0  0  0  0  0  0  0  0  0  0  0
  1  2  1  0
  2  3  1  0
  3  4  1  0
  4  5  1  0
  5  6  1  0
  6  7  1  0
  7  8  1  0
  8  9  1  0
  9 10  1  0
 11 10  1  0
 12 11  1  0
 13 12  1  0
 14 13  1  0
 15 14  1  0
 16 15  1  0
 17 16  1  0
 18 24  1  0
 18 26  1  0
 19 24  1  0
 20 21  1  0
 20 19  1  0
 22 21  1  0
 22 31  1  0
 22 23  1  0
 24 23  1  0
 25 18  2  0
 26 17  1  0
 26 27  1  0
 28 29  2  0
 29 30  1  0
 29 48  1  0
 30 33  1  0
 31 28  1  0
 31 32  1  0
 32 30  2  0
 33 34  1  0
 34 35  2  0
 36 39  1  0
 36 35  1  0
 37 36  2  0
 38 37  1  0
 38 33  2  0
 39 40  1  0
 40 41  1  0
 41 42  2  0
 43 42  1  0
 43 47  1  0
 44 43  2  0
 45 40  2  0
 45 44  1  0
 46 45  1  0
 48 49  1  0
 49 52  1  0
 49 51  1  0
 50 48  2  0
 53 54  1  0
 53 28  1  0
 55 53  1  0
 56  1  1  0
 57 58  1  0
 57 56  1  0
 59 60  1  0
 59 58  1  0
 60 61  1  0
 61 62  1  0
 62 63  1  0
 63 64  1  0
 64 66  2  0
 64 65  1  0
 65 67  1  0
 68 69  1  0
 68 65  1  0
 70 69  1  0
 71 82  2  0
 72 70  1  0
 72 77  1  0
 73 81  1  0
 73 83  1  0
 74 76  1  0
 75 81  1  0
 76 77  2  0
 76 75  1  0
 78 72  2  0
 79 78  1  0
 79 74  2  0
 80 74  1  0
 80 73  1  0
 81 71  1  0
 83 85  2  0
 84 83  1  0
 86 84  1  0
 87 96  2  0
 87 92  1  0
 88 84  1  0
 88 92  1  0
 89 88  1  0
 90 91  1  0
 90 89  1  0
 91 87  1  0
 92 93  2  0
 93 94  1  0
 95 94  2  0
 96 95  1  0
 97 71  1  0
 97102  1  0
 97 98  1  0
 98 99  1  1
 98101  1  0
100 98  1  0
102105  1  0
103107  1  0
103102  1  0
104103  2  0
107106  1  0
109107  1  0
109108  1  0
110109  1  0
M  ISO  4  18 100  26 100  69 101  70 101
M  END
>  <TORSDO>  (45) 
F 43

>  <SCORE>  (45) 
15.924

>  <name>  (45) 
49

>  <ligand_id>  (45) 
49

>  <original_smiles>  (45) 
[H]c1c([H])c([H])c2c(c1[H])C([H])([H])C([H])([H])C([H])([H])C2([H])N([H])C(=O)C1([H])N(C(=O)C([H])(N([H])C(=O)C([H])(N([H])C([H])([H])[H])C([H])([H])[H])C(C([H])([H])[H])(C([H])([H])[H])C([H])([H])[H])C([H])([H])c2c([H])c(OC([H])([H])C([H])([H])N([H])C(=O)C([H])([H])OC([H])([H])C([H])([H])OC([H])([H])C([H])([H])OC([H])([H])C([H])([H])OC([H])([H])C([H])([H])OC([H])([H])C([H])([H])OC([H])([H])C([H])([H])OC([H])([H])C([H])([H])OC([H])([H])C([H])([H])N([H])C(=O)N3C([H])([H])C([H])([H])C([H])([H])C([H])(n4nc(-c5c([H])c([H])c(Oc6c([H])c([H])c(F)c([H])c6F)c([H])c5[H])c(C(=O)N([H])[H])c4N([H])[H])C3([H])[H])c([H])c([H])c2C1([H])[H]

>  <smiles>  (45) 
[H]c1c([H])c([H])c2c(c1[H])C([H])([H])C([H])([H])C([H])([H])C2([H])N([H])C(=O)C1([H])N(C(=O)C([H])(N([H])C(=O)C([H])(N([H])C([H])([H])[H])C([H])([H])[H])C(C([H])([H])[H])(C([H])([H])[H])C([H])([H])[H])C([H])([H])c2c([H])c(OC([H])([H])C([H])([H])N([H])C(=O)C([H])([H])OC([H])([H])C([H])([H])OC([H])([H])C([H])([H])OC([H])([H])C([H])([H])OC([H])([H])C([H])([H])OC([H])([H])C([H])([H])OC([H])([H])C([H])([H])OC([H])([H])C([H])([H])OC([H])([H])C([H])([H])N([H])C(=O)N3C([H])([H])C([H])([H])C([H])([H])C([H])(n4nc(-c5c([H])c([H])c(Oc6c([H])c([H])c(F)c([H])c6F)c([H])c5[H])c(C(=O)N([H])[H])c4N([H])[H])C3([H])[H])c([H])c([H])c2C1([H])[H]

$$$$
50:0:0
     RDKit          3D

108116  0  0  1  0  0  0  0  0999 V2000
  -27.3380  -19.6110   18.1960 C   0  0  0  0  0  0  0  0  0  0  0  0
  -25.9480  -20.4740   16.3340 C   0  0  0  0  0  2  0  0  0  0  0  0
  -24.5420  -20.9920   15.9790 C   0  0  0  0  0  2  0  0  0  0  0  0
  -24.0300  -21.4390   18.2990 C   0  0  0  0  0  2  0  0  0  0  0  0
  -25.4170  -20.9600   18.7920 C   0  0  0  0  0  3  0  0  0  0  0  0
  -26.2270  -20.2760   17.7750 N   0  0  0  0  0  0  0  0  0  0  0  0
  -24.0800  -21.9950   16.9440 N   0  0  0  0  0  4  0  0  0  0  0  0
  -27.5740  -19.4210   19.3960 O   0  0  0  0  0  0  0  0  0  0  0  0
  -23.1590  -22.3060   16.6810 H   0  0  0  0  0  0  0  0  0  0  0  0
  -24.6950  -22.7930   16.9380 H   0  0  0  0  0  0  0  0  0  0  0  0
  -26.1680  -22.0560   19.2420 O   0  0  0  0  0  0  0  0  0  0  0  0
  -25.8340  -22.5120   20.5530 C   0  0  0  0  0  2  0  0  0  0  0  0
  -26.8010  -23.6210   20.9810 C   0  0  0  0  0  0  0  0  0  0  0  0
  -28.0110  -23.2310   21.4080 N   0  0  0  0  0  0  0  0  0  0  0  0
  -26.4400  -24.7990   20.9750 O   0  0  0  0  0  0  0  0  0  0  0  0
  -28.2170  -22.2420   21.3270 H   0  0  0  0  0  0  0  0  0  0  0  0
  -28.9470  -24.0500   22.1770 C   0  0  0  0  0  2  0  0  0  0  0  0
  -30.1240  -24.5850   21.3420 C   0  0  0  0  0  2  0  0  0  0  0  0
  -30.7050  -25.8930   21.9250 C   0  0  0  0  0  2  0  0  0  0  0  0
  -30.5740  -27.0170   21.0550 O   0  0  0  0  0  0  0  0  0  0  0  0
  -25.4740  -31.3430   23.5010 C   0  0  0  0  0  0  0  0  0  0  0  0
  -29.3020  -27.5110   20.9010 C   0  0  0  0  0  0  0  0  0  0  0  0
  -24.8180  -29.8370   21.6510 C   0  0  0  0  0  3  0  0  0  0  0  0
  -26.7280  -28.5970   20.5060 C   0  0  0  0  0  0  0  0  0  0  0  0
  -27.2460  -30.5980   21.9140 C   0  0  0  0  0  2  0  0  0  0  0  0
  -27.6620  -29.2820   21.2920 C   0  0  0  0  0  0  0  0  0  0  0  0
  -28.9540  -28.7480   21.4850 C   0  0  0  0  0  3  0  0  0  0  0  0
  -28.3510  -26.8280   20.1180 C   0  0  0  0  0  3  0  0  0  0  0  0
  -27.0650  -27.3650   19.9190 C   0  0  0  0  0  3  0  0  0  0  0  0
  -25.3730  -29.2450   20.3290 C   0  0  0  0  0  2  0  0  0  0  0  0
  -25.8520  -30.6070   22.4180 N   0  0  0  0  0  0  0  0  0  0  0  0
  -24.2840  -31.4200   23.8400 O   0  0  0  0  0  0  0  0  0  0  0  0
  -24.1820  -28.6890   22.4670 C   0  0  0  0  0  0  0  0  0  0  0  0
  -22.9290  -28.3400   22.1330 N   0  0  0  0  0  0  0  0  0  0  0  0
  -24.8190  -28.1180   23.3550 O   0  0  0  0  0  0  0  0  0  0  0  0
  -22.4690  -28.8590   21.3980 H   0  0  0  0  0  0  0  0  0  0  0  0
  -19.6740  -26.7770   22.1660 C   0  0  0  0  0  0  0  0  0  0  0  0
  -22.1480  -27.2630   22.7400 C   0  0  0  0  0  3  0  0  0  0  0  0
  -22.4620  -25.9030   22.0750 C   0  0  0  0  0  2  0  0  0  0  0  0
  -21.5110  -25.5580   20.9250 C   0  0  0  0  0  2  0  0  0  0  0  0
  -20.0630  -25.5140   21.4190 C   0  0  0  0  0  2  0  0  0  0  0  0
  -20.6540  -27.6080   22.7730 C   0  0  0  0  0  0  0  0  0  0  0  0
  -20.2420  -28.7910   23.4220 C   0  0  0  0  0  3  0  0  0  0  0  0
  -18.8800  -29.1460   23.4750 C   0  0  0  0  0  3  0  0  0  0  0  0
  -17.9120  -28.3110   22.8890 C   0  0  0  0  0  3  0  0  0  0  0  0
  -18.3090  -27.1300   22.2380 C   0  0  0  0  0  3  0  0  0  0  0  0
  -26.5110  -32.1440   24.3500 C   0  0  0  0  0  3  0  0  0  0  0  0
  -25.9990  -33.5130   24.5040 N   0  0  0  0  0  0  0  0  0  0  0  0
  -26.3390  -34.5440   23.7190 C   0  0  0  0  0  0  0  0  0  0  0  0
  -27.1830  -34.4520   22.8220 O   0  0  0  0  0  0  0  0  0  0  0  0
  -25.2660  -33.6480   25.1850 H   0  0  0  0  0  0  0  0  0  0  0  0
  -24.4870  -36.0600   22.9470 C   0  0  0  0  0  1  0  0  0  0  0  0
  -25.6300  -35.8900   23.9620 C   0  0  0  0  0  3  0  0  0  0  0  0
  -27.5110  -37.0920   24.9820 C   0  0  0  0  0  1  0  0  0  0  0  0
  -26.5390  -37.0550   23.8920 N   0  0  0  0  0  0  0  0  0  0  0  0
  -26.0110  -37.9240   23.9070 H   0  0  0  0  0  0  0  0  0  0  0  0
  -26.7940  -31.4920   25.7580 C   0  0  1  0  0  0  0  0  0  0  0  0
  -25.5160  -31.0840   26.5270 C   0  0  0  0  0  1  0  0  0  0  0  0
  -27.6740  -30.2310   25.6080 C   0  0  0  0  0  1  0  0  0  0  0  0
  -27.5940  -32.4800   26.6410 C   0  0  0  0  0  1  0  0  0  0  0  0
  -28.3680  -19.0900   17.1730 C   0  0  0  0  0  2  0  0  0  0  0  0
  -29.5450  -19.8870   17.2540 O   0  0  0  0  0  0  0  0  0  0  0  0
  -30.6080  -19.3980   16.4490 C   0  0  0  0  0  2  0  0  0  0  0  0
  -31.9280  -19.8300   17.0920 C   0  0  0  0  0  2  0  0  0  0  0  0
  -31.6530  -19.9540   18.4760 O   0  0  0  0  0  0  0  0  0  0  0  0
  -32.7720  -20.2710   19.2850 C   0  0  0  0  0  2  0  0  0  0  0  0
  -32.3520  -19.9440   20.7190 C   0  0  0  0  0  2  0  0  0  0  0  0
  -31.8740  -18.6050   20.7160 O   0  0  0  0  0  0  0  0  0  0  0  0
  -31.1440  -18.2720   21.8790 C   0  0  0  0  0  2  0  0  0  0  0  0
  -31.2800  -16.7630   22.1070 C   0  0  0  0  0  2  0  0  0  0  0  0
  -30.3940  -15.4040   20.2090 C   0  0  0  0  0  0  0  0  0  0  0  0
  -30.3360  -13.0830   19.3860 C   0  0  0  0  0  2  0  0  0  0  0  0
  -29.4140  -12.8010   18.1920 C   0  0  0  0  0  2  0  0  0  0  0  0
  -27.9840  -12.5050   18.6750 C   0  0  0  0  0  2  0  0  0  0  0  0
  -27.4590  -13.5830   19.6540 C   0  0  0  0  0  3  0  0  0  0  0  0
  -28.4780  -13.8780   20.7750 C   0  0  0  0  0  2  0  0  0  0  0  0
  -29.7840  -14.1950   20.1670 N   0  0  0  0  0  0  0  0  0  0  0  0
  -31.2230  -15.7890   19.3820 O   0  0  0  0  0  0  0  0  0  0  0  0
  -30.2600  -15.9800   21.4100 N   0  0  0  0  0  0  0  0  0  0  0  0
  -29.5510  -15.5680   21.9980 H   0  0  0  0  0  0  0  0  0  0  0  0
  -25.0800  -14.0220   20.5380 C   0  0  0  0  0  0  0  0  0  0  0  0
  -24.0800  -13.1740   20.9290 C   0  0  0  0  0  0  0  0  0  0  0  0
  -24.6070  -11.8540   20.7990 C   0  0  0  0  0  0  0  0  0  0  0  0
  -26.1530  -13.2140   20.1990 N   0  0  0  0  0  0  0  0  0  0  0  0
  -25.8760  -11.9010   20.4110 N   0  0  0  0  0  0  0  0  0  0  0  0
  -23.9620  -10.5440   20.9620 C   0  0  0  0  0  0  0  0  0  0  0  0
  -24.3680   -9.6400   21.9680 C   0  0  0  0  0  3  0  0  0  0  0  0
  -23.7190   -8.3960   22.1180 C   0  0  0  0  0  3  0  0  0  0  0  0
  -22.6470   -8.0470   21.2600 C   0  0  0  0  0  0  0  0  0  0  0  0
  -22.2620   -8.9420   20.2450 C   0  0  0  0  0  3  0  0  0  0  0  0
  -22.9150  -10.1770   20.0940 C   0  0  0  0  0  3  0  0  0  0  0  0
  -21.9750   -6.8510   21.3120 O   0  0  0  0  0  0  0  0  0  0  0  0
  -21.7550   -6.2000   22.5000 C   0  0  0  0  0  0  0  0  0  0  0  0
  -21.0090   -6.7890   23.5450 C   0  0  0  0  0  3  0  0  0  0  0  0
  -20.7460   -6.0590   24.7210 C   0  0  0  0  0  3  0  0  0  0  0  0
  -21.2220   -4.7400   24.8520 C   0  0  0  0  0  0  0  0  0  0  0  0
  -21.9620   -4.1510   23.8110 C   0  0  0  0  0  3  0  0  0  0  0  0
  -22.2250   -4.8790   22.6380 C   0  0  0  0  0  0  0  0  0  0  0  0
  -22.9190   -4.2980   21.6290 F   0  0  0  0  0  0  0  0  0  0  0  0
  -20.9650   -4.0350   25.9780 F   0  0  0  0  0  0  0  0  0  0  0  0
  -22.6810  -13.5590   21.3140 C   0  0  0  0  0  0  0  0  0  0  0  0
  -22.0550  -12.7930   22.1990 N   0  0  0  0  0  0  0  0  0  0  0  0
  -22.1520  -14.5750   20.8650 O   0  0  0  0  0  0  0  0  0  0  0  0
  -22.4970  -11.9710   22.5820 H   0  0  0  0  0  0  0  0  0  0  0  0
  -21.1210  -13.0340   22.4980 H   0  0  0  0  0  0  0  0  0  0  0  0
  -25.1640  -15.4080   20.4290 N   0  0  0  0  0  0  0  0  0  0  0  0
  -24.4020  -16.0100   20.7210 H   0  0  0  0  0  0  0  0  0  0  0  0
  -26.0130  -15.9080   20.2050 H   0  0  0  0  0  0  0  0  0  0  0  0
  1  8  2  0
  2  6  1  0
  3  2  1  0
  3  7  1  0
  4  5  1  0
  5 11  1  0
  6  1  1  0
  6  5  1  0
  7  4  1  0
  9  7  1  0
 10  7  1  0
 11 12  1  0
 12 13  1  0
 13 14  1  0
 14 17  1  0
 15 13  2  0
 16 14  1  0
 18 19  1  0
 18 17  1  0
 20 19  1  0
 21 32  2  0
 22 20  1  0
 22 27  1  0
 23 31  1  0
 23 33  1  0
 24 26  1  0
 25 31  1  0
 26 27  2  0
 26 25  1  0
 28 22  2  0
 29 28  1  0
 29 24  2  0
 30 24  1  0
 30 23  1  0
 31 21  1  0
 33 35  2  0
 34 33  1  0
 36 34  1  0
 37 46  2  0
 37 42  1  0
 38 34  1  0
 38 42  1  0
 39 38  1  0
 40 41  1  0
 40 39  1  0
 41 37  1  0
 42 43  2  0
 43 44  1  0
 45 44  2  0
 46 45  1  0
 47 21  1  0
 47 48  1  0
 47 57  1  0
 48 51  1  0
 49 53  1  0
 49 48  1  0
 50 49  2  0
 53 52  1  0
 55 56  1  0
 55 53  1  0
 55 54  1  0
 57 58  1  1
 57 60  1  0
 59 57  1  0
 61 62  1  0
 61  1  1  0
 63 64  1  0
 63 62  1  0
 64 65  1  0
 65 66  1  0
 66 67  1  0
 68 67  1  0
 68 69  1  0
 69 70  1  0
 71 79  1  0
 72 77  1  0
 73 74  1  0
 73 72  1  0
 75 74  1  0
 75 84  1  0
 75 76  1  0
 77 71  1  0
 77 76  1  0
 78 71  2  0
 79 80  1  0
 79 70  1  0
 81 82  2  0
 82101  1  0
 83 82  1  0
 83 86  1  0
 84 85  1  0
 84 81  1  0
 85 83  2  0
 86 87  1  0
 87 88  2  0
 89 92  1  0
 89 88  1  0
 90 89  2  0
 91 90  1  0
 91 86  2  0
 92 93  1  0
 93 98  2  0
 93 94  1  0
 94 95  2  0
 95 96  1  0
 96100  1  0
 97 96  2  0
 98 97  1  0
 99 98  1  0
101102  1  0
102105  1  0
102104  1  0
103101  2  0
106 81  1  0
106107  1  0
108106  1  0
M  ISO  4  19 101  20 101  71 100  79 100
M  END
>  <TORSDO>  (46) 
F 32

>  <SCORE>  (46) 
-6.886

>  <name>  (46) 
50

>  <ligand_id>  (46) 
50

>  <original_smiles>  (46) 
[H]c1c([H])c([H])c2c(c1[H])C([H])([H])C([H])([H])C([H])([H])C2([H])N([H])C(=O)C1([H])N(C(=O)C([H])(N([H])C(=O)C([H])(N([H])C([H])([H])[H])C([H])([H])[H])C(C([H])([H])[H])(C([H])([H])[H])C([H])([H])[H])C([H])([H])c2c([H])c(OC([H])([H])C([H])([H])C([H])([H])N([H])C(=O)C([H])([H])OC3([H])N(C(=O)C([H])([H])OC([H])([H])C([H])([H])OC([H])([H])C([H])([H])OC([H])([H])C([H])([H])N([H])C(=O)N4C([H])([H])C([H])([H])C([H])([H])C([H])(n5nc(-c6c([H])c([H])c(Oc7c([H])c([H])c(F)c([H])c7F)c([H])c6[H])c(C(=O)N([H])[H])c5N([H])[H])C4([H])[H])C([H])([H])C([H])([H])[N+]([H])([H])C3([H])[H])c([H])c([H])c2C1([H])[H]

>  <smiles>  (46) 
[H]c1c([H])c([H])c2c(c1[H])C([H])([H])C([H])([H])C([H])([H])C2([H])N([H])C(=O)C1([H])N(C(=O)C([H])(N([H])C(=O)C([H])(N([H])C([H])([H])[H])C([H])([H])[H])C(C([H])([H])[H])(C([H])([H])[H])C([H])([H])[H])C([H])([H])c2c([H])c(OC([H])([H])C([H])([H])C([H])([H])N([H])C(=O)C([H])([H])OC3([H])N(C(=O)C([H])([H])OC([H])([H])C([H])([H])OC([H])([H])C([H])([H])OC([H])([H])C([H])([H])N([H])C(=O)N4C([H])([H])C([H])([H])C([H])([H])C([H])(n5nc(-c6c([H])c([H])c(Oc7c([H])c([H])c(F)c([H])c7F)c([H])c6[H])c(C(=O)N([H])[H])c5N([H])[H])C4([H])[H])C([H])([H])C([H])([H])[N+]([H])([H])C3([H])[H])c([H])c([H])c2C1([H])[H]

$$$$
51:0:0
     RDKit          3D

110117  0  0  1  0  0  0  0  0999 V2000
  -31.3880  -22.8140   14.8810 C   0  0  0  0  0  2  0  0  0  0  0  0
  -31.2460  -24.3040   16.8570 C   0  0  0  0  0  0  0  0  0  0  0  0
  -31.9540  -23.7260   15.8770 N   0  0  0  0  0  0  0  0  0  0  0  0
  -30.0210  -24.1790   16.9370 O   0  0  0  0  0  0  0  0  0  0  0  0
  -32.9600  -23.8350   15.8800 H   0  0  0  0  0  0  0  0  0  0  0  0
  -32.0190  -25.1300   17.8950 C   0  0  0  0  0  2  0  0  0  0  0  0
  -31.1460  -25.4980   18.9610 O   0  0  0  0  0  0  0  0  0  0  0  0
  -31.7870  -26.2450   19.9840 C   0  0  0  0  0  2  0  0  0  0  0  0
  -30.9110  -26.2000   21.2430 C   0  0  0  0  0  2  0  0  0  0  0  0
  -30.8240  -24.8540   21.7080 O   0  0  0  0  0  0  0  0  0  0  0  0
  -29.7220  -24.6500   22.5850 C   0  0  0  0  0  2  0  0  0  0  0  0
  -29.6310  -23.1850   23.0390 C   0  0  0  0  0  2  0  0  0  0  0  0
  -29.6390  -22.2790   21.9370 O   0  0  0  0  0  0  0  0  0  0  0  0
  -29.0080  -21.0410   22.2560 C   0  0  0  0  0  2  0  0  0  0  0  0
  -29.1080  -20.0370   21.0970 C   0  0  0  0  0  2  0  0  0  0  0  0
  -30.2350  -19.1860   21.2830 O   0  0  0  0  0  0  0  0  0  0  0  0
  -30.1260  -17.9740   20.5470 C   0  0  0  0  0  2  0  0  0  0  0  0
  -31.2730  -17.0170   20.9220 C   0  0  0  0  0  2  0  0  0  0  0  0
  -31.2730  -14.7380   19.8700 C   0  0  0  0  0  0  0  0  0  0  0  0
  -30.9390  -12.4490   19.0030 C   0  0  0  0  0  2  0  0  0  0  0  0
  -29.9640  -12.4350   17.8100 C   0  0  0  0  0  2  0  0  0  0  0  0
  -28.4980  -12.3750   18.2840 C   0  0  0  0  0  2  0  0  0  0  0  0
  -28.1840  -13.4210   19.3860 C   0  0  0  0  0  3  0  0  0  0  0  0
  -29.2520  -13.3680   20.4990 C   0  0  0  0  0  2  0  0  0  0  0  0
  -30.5820  -13.5700   19.8840 N   0  0  0  0  0  0  0  0  0  0  0  0
  -32.2400  -14.9590   19.1340 O   0  0  0  0  0  0  0  0  0  0  0  0
  -30.8420  -15.6310   20.7630 N   0  0  0  0  0  0  0  0  0  0  0  0
  -30.0960  -15.3170   21.3650 H   0  0  0  0  0  0  0  0  0  0  0  0
  -25.8690  -14.1870   20.2280 C   0  0  0  0  0  0  0  0  0  0  0  0
  -24.7690  -13.4850   20.6420 C   0  0  0  0  0  0  0  0  0  0  0  0
  -25.1300  -12.1060   20.5590 C   0  0  0  0  0  0  0  0  0  0  0  0
  -26.8370  -13.2400   19.9260 N   0  0  0  0  0  0  0  0  0  0  0  0
  -26.3940  -11.9810   20.1750 N   0  0  0  0  0  0  0  0  0  0  0  0
  -24.3280  -10.8950   20.7660 C   0  0  0  0  0  0  0  0  0  0  0  0
  -24.7400   -9.8780   21.6550 C   0  0  0  0  0  3  0  0  0  0  0  0
  -23.9440   -8.7280   21.8470 C   0  0  0  0  0  3  0  0  0  0  0  0
  -22.7200   -8.5890   21.1500 C   0  0  0  0  0  0  0  0  0  0  0  0
  -22.3270   -9.5940   20.2480 C   0  0  0  0  0  3  0  0  0  0  0  0
  -23.1220  -10.7340   20.0540 C   0  0  0  0  0  3  0  0  0  0  0  0
  -21.8890   -7.5010   21.2610 O   0  0  0  0  0  0  0  0  0  0  0  0
  -21.8230   -6.7580   22.4130 C   0  0  0  0  0  0  0  0  0  0  0  0
  -21.4880   -7.3400   23.6550 C   0  0  0  0  0  3  0  0  0  0  0  0
  -21.3610   -6.5270   24.8000 C   0  0  0  0  0  3  0  0  0  0  0  0
  -21.5590   -5.1370   24.7040 C   0  0  0  0  0  0  0  0  0  0  0  0
  -21.8880   -4.5560   23.4670 C   0  0  0  0  0  3  0  0  0  0  0  0
  -22.0170   -5.3650   22.3240 C   0  0  0  0  0  0  0  0  0  0  0  0
  -22.3120   -4.7970   21.1290 F   0  0  0  0  0  0  0  0  0  0  0  0
  -21.4320   -4.3560   25.8030 F   0  0  0  0  0  0  0  0  0  0  0  0
  -23.4260  -14.0520   21.0030 C   0  0  0  0  0  0  0  0  0  0  0  0
  -22.7060  -13.3940   21.9070 N   0  0  0  0  0  0  0  0  0  0  0  0
  -23.0260  -15.1110   20.5200 O   0  0  0  0  0  0  0  0  0  0  0  0
  -23.0450  -12.5400   22.3250 H   0  0  0  0  0  0  0  0  0  0  0  0
  -21.8040  -13.7490   22.1880 H   0  0  0  0  0  0  0  0  0  0  0  0
  -26.1210  -15.5480   20.0720 N   0  0  0  0  0  0  0  0  0  0  0  0
  -25.4130  -16.2490   20.2520 H   0  0  0  0  0  0  0  0  0  0  0  0
  -26.9850  -15.9390   19.7200 H   0  0  0  0  0  0  0  0  0  0  0  0
  -31.2380  -21.4020   15.4630 C   0  0  0  0  0  0  0  0  0  0  0  0
  -30.0940  -20.7520   15.2170 N   0  0  0  0  0  0  0  0  0  0  0  0
  -32.1490  -20.9180   16.1390 O   0  0  0  0  0  0  0  0  0  0  0  0
  -29.4160  -21.2050   14.6170 H   0  0  0  0  0  0  0  0  0  0  0  0
  -29.7080  -19.4820   15.8300 C   0  0  0  0  0  2  0  0  0  0  0  0
  -29.1380  -19.7000   17.2440 C   0  0  0  0  0  2  0  0  0  0  0  0
  -27.8590  -20.5560   17.2820 C   0  0  0  0  0  2  0  0  0  0  0  0
  -27.6200  -21.1370   18.6820 C   0  0  0  0  0  2  0  0  0  0  0  0
  -26.3560  -22.0000   18.7830 C   0  0  0  0  0  2  0  0  0  0  0  0
  -26.2360  -22.7000   20.1510 C   0  0  0  0  0  2  0  0  0  0  0  0
  -27.2780  -23.6480   20.4080 O   0  0  0  0  0  0  0  0  0  0  0  0
  -27.1210  -24.8620   19.6860 C   0  0  0  0  0  2  0  0  0  0  0  0
  -28.0240  -26.0040   20.1990 C   0  0  0  0  0  2  0  0  0  0  0  0
  -27.9460  -27.1960   19.4090 O   0  0  0  0  0  0  0  0  0  0  0  0
  -24.4990  -32.0070   23.3810 C   0  0  0  0  0  0  0  0  0  0  0  0
  -26.8130  -27.9570   19.5930 C   0  0  0  0  0  0  0  0  0  0  0  0
  -23.1610  -30.8880   21.6310 C   0  0  0  0  0  3  0  0  0  0  0  0
  -24.4850  -29.5130   19.9420 C   0  0  0  0  0  0  0  0  0  0  0  0
  -25.6890  -31.1840   21.3560 C   0  0  0  0  0  2  0  0  0  0  0  0
  -25.6900  -29.9120   20.5390 C   0  0  0  0  0  0  0  0  0  0  0  0
  -26.8590  -29.1350   20.3710 C   0  0  0  0  0  3  0  0  0  0  0  0
  -25.6030  -27.5970   18.9640 C   0  0  0  0  0  3  0  0  0  0  0  0
  -24.4330  -28.3510   19.1580 C   0  0  0  0  0  3  0  0  0  0  0  0
  -23.2790  -30.3950   20.1650 C   0  0  0  0  0  2  0  0  0  0  0  0
  -24.4710  -31.3650   22.1800 N   0  0  0  0  0  0  0  0  0  0  0  0
  -23.4550  -32.2400   24.0060 O   0  0  0  0  0  0  0  0  0  0  0  0
  -22.5200  -29.7640   22.4750 C   0  0  0  0  0  0  0  0  0  0  0  0
  -21.1860  -29.6440   22.3880 N   0  0  0  0  0  0  0  0  0  0  0  0
  -23.2170  -29.0080   23.1590 O   0  0  0  0  0  0  0  0  0  0  0  0
  -20.6900  -30.3040   21.8070 H   0  0  0  0  0  0  0  0  0  0  0  0
  -17.7910  -28.5160   22.8900 C   0  0  0  0  0  0  0  0  0  0  0  0
  -20.3660  -28.6410   23.0630 C   0  0  0  0  0  3  0  0  0  0  0  0
  -20.3820  -27.2990   22.2960 C   0  0  0  0  0  2  0  0  0  0  0  0
  -19.2230  -27.1590   21.3050 C   0  0  0  0  0  2  0  0  0  0  0  0
  -17.8780  -27.2640   22.0320 C   0  0  0  0  0  2  0  0  0  0  0  0
  -18.9600  -29.1710   23.3620 C   0  0  0  0  0  0  0  0  0  0  0  0
  -18.8240  -30.3510   24.1250 C   0  0  0  0  0  3  0  0  0  0  0  0
  -17.5510  -30.8730   24.4210 C   0  0  0  0  0  3  0  0  0  0  0  0
  -16.3960  -30.2120   23.9670 C   0  0  0  0  0  3  0  0  0  0  0  0
  -16.5170  -29.0360   23.2050 C   0  0  0  0  0  3  0  0  0  0  0  0
  -25.8380  -32.5000   24.0110 C   0  0  0  0  0  3  0  0  0  0  0  0
  -25.6170  -33.8660   24.5030 N   0  0  0  0  0  0  0  0  0  0  0  0
  -25.9970  -34.9770   23.8570 C   0  0  0  0  0  0  0  0  0  0  0  0
  -26.6460  -34.9530   22.8070 O   0  0  0  0  0  0  0  0  0  0  0  0
  -25.0470  -33.9650   25.3300 H   0  0  0  0  0  0  0  0  0  0  0  0
  -24.3700  -36.8880   23.7410 C   0  0  0  0  0  1  0  0  0  0  0  0
  -25.5960  -36.3290   24.4770 C   0  0  0  0  0  3  0  0  0  0  0  0
  -27.7930  -36.9860   25.3540 C   0  0  0  0  0  1  0  0  0  0  0  0
  -26.6850  -37.3280   24.4640 N   0  0  0  0  0  0  0  0  0  0  0  0
  -26.3360  -38.2450   24.7310 H   0  0  0  0  0  0  0  0  0  0  0  0
  -26.3660  -31.5630   25.1660 C   0  0  1  0  0  0  0  0  0  0  0  0
  -25.3050  -31.2500   26.2480 C   0  0  0  0  0  1  0  0  0  0  0  0
  -26.8640  -30.2150   24.5920 C   0  0  0  0  0  1  0  0  0  0  0  0
  -27.5820  -32.2230   25.8620 C   0  0  0  0  0  1  0  0  0  0  0  0
  1 57  1  0
  1  3  1  0
  2  4  2  0
  2  6  1  0
  3  5  1  0
  3  2  1  0
  6  7  1  0
  7  8  1  0
  8  9  1  0
  9 10  1  0
 10 11  1  0
 11 12  1  0
 13 14  1  0
 13 12  1  0
 15 16  1  0
 15 14  1  0
 17 18  1  0
 17 16  1  0
 19 25  1  0
 19 27  1  0
 20 25  1  0
 21 22  1  0
 21 20  1  0
 23 22  1  0
 23 32  1  0
 23 24  1  0
 25 24  1  0
 26 19  2  0
 27 18  1  0
 27 28  1  0
 29 30  2  0
 30 49  1  0
 31 30  1  0
 31 34  1  0
 32 33  1  0
 32 29  1  0
 33 31  2  0
 34 35  1  0
 35 36  2  0
 37 40  1  0
 37 36  1  0
 38 37  2  0
 39 38  1  0
 39 34  2  0
 40 41  1  0
 41 42  1  0
 42 43  2  0
 44 43  1  0
 44 48  1  0
 45 44  2  0
 46 41  2  0
 46 45  1  0
 47 46  1  0
 49 50  1  0
 50 53  1  0
 50 52  1  0
 51 49  2  0
 54 29  1  0
 54 55  1  0
 56 54  1  0
 57 59  2  0
 58 57  1  0
 58 61  1  0
 60 58  1  0
 61 62  1  0
 62 63  1  0
 63 64  1  0
 64 65  1  0
 65 66  1  0
 66 67  1  0
 68 69  1  0
 68 67  1  0
 70 72  1  0
 70 69  1  0
 71 82  2  0
 72 77  1  0
 73 81  1  0
 73 83  1  0
 74 80  1  0
 74 76  1  0
 75 81  1  0
 76 75  1  0
 77 76  2  0
 78 79  1  0
 78 72  2  0
 79 74  2  0
 80 73  1  0
 81 71  1  0
 83 85  2  0
 84 83  1  0
 86 84  1  0
 87 96  2  0
 87 92  1  0
 88 84  1  0
 88 92  1  0
 89 88  1  0
 90 91  1  0
 90 89  1  0
 91 87  1  0
 92 93  2  0
 93 94  1  0
 95 94  2  0
 96 95  1  0
 97 71  1  0
 97 98  1  0
 97107  1  0
 98101  1  0
 99103  1  0
 99 98  1  0
100 99  2  0
103102  1  0
105103  1  0
105106  1  0
105104  1  0
107110  1  1
107108  1  0
109107  1  0
M  ISO  4  19 100  27 100  69 101  70 101
M  END
>  <TORSDO>  (47) 
F 40

>  <SCORE>  (47) 
-7.977

>  <name>  (47) 
51

>  <ligand_id>  (47) 
51

>  <original_smiles>  (47) 
[H]c1c([H])c([H])c2c(c1[H])C([H])([H])C([H])([H])C([H])([H])C2([H])N([H])C(=O)C1([H])N(C(=O)C([H])(N([H])C(=O)C([H])(N([H])C([H])([H])[H])C([H])([H])[H])C(C([H])([H])[H])(C([H])([H])[H])C([H])([H])[H])C([H])([H])c2c([H])c(OC([H])([H])C([H])([H])OC([H])([H])C([H])([H])C([H])([H])C([H])([H])C([H])([H])C([H])([H])N([H])C(=O)C([H])([H])N([H])C(=O)C([H])([H])OC([H])([H])C([H])([H])OC([H])([H])C([H])([H])OC([H])([H])C([H])([H])OC([H])([H])C([H])([H])N([H])C(=O)N3C([H])([H])C([H])([H])C([H])([H])C([H])(n4nc(-c5c([H])c([H])c(Oc6c([H])c([H])c(F)c([H])c6F)c([H])c5[H])c(C(=O)N([H])[H])c4N([H])[H])C3([H])[H])c([H])c([H])c2C1([H])[H]

>  <smiles>  (47) 
[H]c1c([H])c([H])c2c(c1[H])C([H])([H])C([H])([H])C([H])([H])C2([H])N([H])C(=O)C1([H])N(C(=O)C([H])(N([H])C(=O)C([H])(N([H])C([H])([H])[H])C([H])([H])[H])C(C([H])([H])[H])(C([H])([H])[H])C([H])([H])[H])C([H])([H])c2c([H])c(OC([H])([H])C([H])([H])OC([H])([H])C([H])([H])C([H])([H])C([H])([H])C([H])([H])C([H])([H])N([H])C(=O)C([H])([H])N([H])C(=O)C([H])([H])OC([H])([H])C([H])([H])OC([H])([H])C([H])([H])OC([H])([H])C([H])([H])OC([H])([H])C([H])([H])N([H])C(=O)N3C([H])([H])C([H])([H])C([H])([H])C([H])(n4nc(-c5c([H])c([H])c(Oc6c([H])c([H])c(F)c([H])c6F)c([H])c5[H])c(C(=O)N([H])[H])c4N([H])[H])C3([H])[H])c([H])c([H])c2C1([H])[H]

$$$$
52:0:0
     RDKit          3D

 99106  0  0  1  0  0  0  0  0999 V2000
  -27.0780  -23.5090   22.1960 O   0  0  0  0  0  0  0  0  0  0  0  0
  -27.9490  -23.9810   23.2170 C   0  0  0  0  0  2  0  0  0  0  0  0
  -28.3120  -25.4680   23.0750 C   0  0  0  0  0  2  0  0  0  0  0  0
  -29.4390  -25.6000   22.2230 O   0  0  0  0  0  0  0  0  0  0  0  0
  -29.9080  -26.9400   22.1620 C   0  0  0  0  0  2  0  0  0  0  0  0
  -31.1440  -27.0010   21.2490 C   0  0  0  0  0  2  0  0  0  0  0  0
  -30.7740  -26.8300   19.8860 O   0  0  0  0  0  0  0  0  0  0  0  0
  -30.2660  -28.0120   19.2750 C   0  0  0  0  0  2  0  0  0  0  0  0
  -29.1510  -27.6140   18.3030 C   0  0  0  0  0  2  0  0  0  0  0  0
  -28.0960  -26.9380   18.9930 O   0  0  0  0  0  0  0  0  0  0  0  0
  -24.8210  -31.6970   23.1990 C   0  0  0  0  0  0  0  0  0  0  0  0
  -26.9860  -27.6870   19.2930 C   0  0  0  0  0  0  0  0  0  0  0  0
  -23.4070  -30.5820   21.5020 C   0  0  0  0  0  3  0  0  0  0  0  0
  -24.6550  -29.2040   19.7590 C   0  0  0  0  0  0  0  0  0  0  0  0
  -25.9130  -30.8910   21.1150 C   0  0  0  0  0  2  0  0  0  0  0  0
  -25.8800  -29.6200   20.2950 C   0  0  0  0  0  0  0  0  0  0  0  0
  -27.0490  -28.8700   20.0640 C   0  0  0  0  0  3  0  0  0  0  0  0
  -25.7410  -27.2530   18.7960 C   0  0  0  0  0  3  0  0  0  0  0  0
  -24.5760  -28.0130   19.0140 C   0  0  0  0  0  3  0  0  0  0  0  0
  -23.4610  -30.0880   20.0310 C   0  0  0  0  0  2  0  0  0  0  0  0
  -24.7370  -31.0590   21.9980 N   0  0  0  0  0  0  0  0  0  0  0  0
  -23.8060  -31.9300   23.8690 O   0  0  0  0  0  0  0  0  0  0  0  0
  -22.7940  -29.4600   22.3700 C   0  0  0  0  0  0  0  0  0  0  0  0
  -21.4630  -29.3080   22.2920 N   0  0  0  0  0  0  0  0  0  0  0  0
  -23.5100  -28.7370   23.0660 O   0  0  0  0  0  0  0  0  0  0  0  0
  -20.9470  -29.9490   21.7050 H   0  0  0  0  0  0  0  0  0  0  0  0
  -18.1110  -28.0340   22.7340 C   0  0  0  0  0  0  0  0  0  0  0  0
  -20.6700  -28.2940   22.9870 C   0  0  0  0  0  3  0  0  0  0  0  0
  -20.7780  -26.9230   22.2790 C   0  0  0  0  0  2  0  0  0  0  0  0
  -19.6610  -26.6810   21.2600 C   0  0  0  0  0  2  0  0  0  0  0  0
  -18.2900  -26.7510   21.9380 C   0  0  0  0  0  2  0  0  0  0  0  0
  -19.2300  -28.7660   23.2130 C   0  0  0  0  0  0  0  0  0  0  0  0
  -19.0100  -29.9690   23.9160 C   0  0  0  0  0  3  0  0  0  0  0  0
  -17.7040  -30.4400   24.1490 C   0  0  0  0  0  3  0  0  0  0  0  0
  -16.6000  -29.7030   23.6860 C   0  0  0  0  0  3  0  0  0  0  0  0
  -16.8050  -28.5010   22.9840 C   0  0  0  0  0  3  0  0  0  0  0  0
  -26.1860  -32.1840   23.7770 C   0  0  0  0  0  3  0  0  0  0  0  0
  -26.7910  -31.2030   24.8540 C   0  0  1  0  0  0  0  0  0  0  0  0
  -25.7930  -30.8100   25.9690 C   0  0  0  0  0  1  0  0  0  0  0  0
  -27.2870  -29.8970   24.1890 C   0  0  0  0  0  1  0  0  0  0  0  0
  -28.0240  -31.8510   25.5250 C   0  0  0  0  0  1  0  0  0  0  0  0
  -25.9700  -33.5210   24.3480 N   0  0  0  0  0  0  0  0  0  0  0  0
  -26.3170  -34.6670   23.7490 C   0  0  0  0  0  0  0  0  0  0  0  0
  -26.9250  -34.7050   22.6750 O   0  0  0  0  0  0  0  0  0  0  0  0
  -25.4180  -33.5700   25.1920 H   0  0  0  0  0  0  0  0  0  0  0  0
  -24.6870  -36.5860   23.7780 C   0  0  0  0  0  1  0  0  0  0  0  0
  -25.9290  -35.9820   24.4520 C   0  0  0  0  0  3  0  0  0  0  0  0
  -28.1420  -36.5970   25.3210 C   0  0  0  0  0  1  0  0  0  0  0  0
  -27.0180  -36.9830   24.4720 N   0  0  0  0  0  0  0  0  0  0  0  0
  -26.6720  -37.8830   24.7950 H   0  0  0  0  0  0  0  0  0  0  0  0
  -27.6040  -23.5880   20.8730 C   0  0  0  0  0  2  0  0  0  0  0  0
  -26.7740  -22.6770   19.9640 C   0  0  0  0  0  0  0  0  0  0  0  0
  -27.4460  -21.9750   19.0470 N   0  0  0  0  0  0  0  0  0  0  0  0
  -25.5580  -22.5580   20.1350 O   0  0  0  0  0  0  0  0  0  0  0  0
  -28.4340  -22.1690   18.9470 H   0  0  0  0  0  0  0  0  0  0  0  0
  -26.9290  -20.8090   18.3340 C   0  0  0  0  0  2  0  0  0  0  0  0
  -27.2030  -19.5200   19.1310 C   0  0  0  0  0  2  0  0  0  0  0  0
  -28.6990  -19.3030   19.4260 C   0  0  0  0  0  2  0  0  0  0  0  0
  -28.9770  -18.0820   20.3150 C   0  0  0  0  0  2  0  0  0  0  0  0
  -30.4790  -17.9390   20.6200 C   0  0  0  0  0  2  0  0  0  0  0  0
  -30.8180  -16.8610   21.6660 C   0  0  0  0  0  2  0  0  0  0  0  0
  -30.8210  -14.6850   20.4480 C   0  0  0  0  0  0  0  0  0  0  0  0
  -30.5420  -12.5130   19.3160 C   0  0  0  0  0  2  0  0  0  0  0  0
  -29.5860  -12.6400   18.1140 C   0  0  0  0  0  2  0  0  0  0  0  0
  -28.1210  -12.4740   18.5610 C   0  0  0  0  0  2  0  0  0  0  0  0
  -27.7660  -13.3650   19.7810 C   0  0  0  0  0  3  0  0  0  0  0  0
  -28.8240  -13.2090   20.8930 C   0  0  0  0  0  2  0  0  0  0  0  0
  -30.1500  -13.5120   20.3190 N   0  0  0  0  0  0  0  0  0  0  0  0
  -31.8480  -14.9570   19.8200 O   0  0  0  0  0  0  0  0  0  0  0  0
  -30.2890  -15.5450   21.3230 N   0  0  0  0  0  0  0  0  0  0  0  0
  -29.4560  -15.2410   21.8050 H   0  0  0  0  0  0  0  0  0  0  0  0
  -25.3780  -13.9510   20.5510 C   0  0  0  0  0  0  0  0  0  0  0  0
  -24.3170  -13.1650   20.9180 C   0  0  0  0  0  0  0  0  0  0  0  0
  -24.7790  -11.8160   20.8380 C   0  0  0  0  0  0  0  0  0  0  0  0
  -26.4200  -13.0780   20.2750 N   0  0  0  0  0  0  0  0  0  0  0  0
  -26.0620  -11.7880   20.5020 N   0  0  0  0  0  0  0  0  0  0  0  0
  -24.0580  -10.5470   21.0060 C   0  0  0  0  0  0  0  0  0  0  0  0
  -24.4720   -9.5830   21.9520 C   0  0  0  0  0  3  0  0  0  0  0  0
  -23.7530   -8.3790   22.1070 C   0  0  0  0  0  3  0  0  0  0  0  0
  -22.6060   -8.1300   21.3160 C   0  0  0  0  0  0  0  0  0  0  0  0
  -22.2120   -9.0830   20.3610 C   0  0  0  0  0  3  0  0  0  0  0  0
  -22.9330  -10.2790   20.2030 C   0  0  0  0  0  3  0  0  0  0  0  0
  -21.8610   -6.9780   21.3800 O   0  0  0  0  0  0  0  0  0  0  0  0
  -21.7360   -6.2640   22.5450 C   0  0  0  0  0  0  0  0  0  0  0  0
  -21.1970   -6.8410   23.7160 C   0  0  0  0  0  3  0  0  0  0  0  0
  -21.0220   -6.0520   24.8720 C   0  0  0  0  0  3  0  0  0  0  0  0
  -21.3740   -4.6890   24.8560 C   0  0  0  0  0  0  0  0  0  0  0  0
  -21.9050   -4.1130   23.6870 C   0  0  0  0  0  3  0  0  0  0  0  0
  -22.0820   -4.8980   22.5350 C   0  0  0  0  0  0  0  0  0  0  0  0
  -22.5740   -4.3330   21.4060 F   0  0  0  0  0  0  0  0  0  0  0  0
  -21.1990   -3.9300   25.9620 F   0  0  0  0  0  0  0  0  0  0  0  0
  -22.9260  -13.6320   21.2350 C   0  0  0  0  0  0  0  0  0  0  0  0
  -22.2170  -12.9080   22.0940 N   0  0  0  0  0  0  0  0  0  0  0  0
  -22.4750  -14.6730   20.7570 O   0  0  0  0  0  0  0  0  0  0  0  0
  -22.5940  -12.0650   22.5030 H   0  0  0  0  0  0  0  0  0  0  0  0
  -21.2840  -13.2010   22.3490 H   0  0  0  0  0  0  0  0  0  0  0  0
  -25.5390  -15.3250   20.4110 N   0  0  0  0  0  0  0  0  0  0  0  0
  -24.7780  -15.9790   20.5610 H   0  0  0  0  0  0  0  0  0  0  0  0
  -26.3910  -15.7740   20.1000 H   0  0  0  0  0  0  0  0  0  0  0  0
  1  2  1  0
  3  2  1  0
  4  3  1  0
  5  4  1  0
  6  5  1  0
  7  6  1  0
  8  7  1  0
  9 10  1  0
  9  8  1  0
 10 12  1  0
 11 22  2  0
 12 17  1  0
 13 21  1  0
 13 23  1  0
 14 20  1  0
 14 16  1  0
 15 21  1  0
 16 15  1  0
 17 16  2  0
 18 19  1  0
 18 12  2  0
 19 14  2  0
 20 13  1  0
 21 11  1  0
 23 25  2  0
 24 23  1  0
 26 24  1  0
 27 36  2  0
 27 32  1  0
 28 24  1  0
 28 32  1  0
 29 28  1  0
 30 31  1  0
 30 29  1  0
 31 27  1  0
 32 33  2  0
 33 34  1  0
 35 34  2  0
 36 35  1  0
 37 11  1  0
 37 42  1  0
 37 38  1  0
 38 41  1  1
 38 39  1  0
 40 38  1  0
 42 45  1  0
 43 42  1  0
 43 47  1  0
 44 43  2  0
 47 46  1  0
 47 49  1  0
 49 50  1  0
 49 48  1  0
 51  1  1  0
 52 54  2  0
 52 51  1  0
 53 52  1  0
 55 53  1  0
 56 53  1  0
 56 57  1  0
 57 58  1  0
 58 59  1  0
 59 60  1  0
 60 61  1  0
 62 70  1  0
 63 68  1  0
 64 65  1  0
 64 63  1  0
 66 65  1  0
 66 75  1  0
 66 67  1  0
 68 62  1  0
 68 67  1  0
 69 62  2  0
 70 61  1  0
 70 71  1  0
 72 73  2  0
 73 92  1  0
 74 73  1  0
 74 77  1  0
 75 76  1  0
 75 72  1  0
 76 74  2  0
 77 78  1  0
 78 79  2  0
 80 83  1  0
 80 79  1  0
 81 80  2  0
 82 81  1  0
 82 77  2  0
 83 84  1  0
 84 85  1  0
 85 86  2  0
 87 86  1  0
 87 91  1  0
 88 87  2  0
 89 84  2  0
 89 88  1  0
 90 89  1  0
 92 93  1  0
 93 96  1  0
 93 95  1  0
 94 92  2  0
 97 72  1  0
 97 98  1  0
 99 97  1  0
M  ISO  4   9 101  10 101  62 100  70 100
M  END
>  <TORSDO>  (48) 
F 32

>  <SCORE>  (48) 
-8.896

>  <name>  (48) 
52

>  <ligand_id>  (48) 
52

>  <original_smiles>  (48) 
[H]c1c([H])c([H])c2c(c1[H])C([H])([H])C([H])([H])C([H])([H])C2([H])N([H])C(=O)C1([H])N(C(=O)C([H])(N([H])C(=O)C([H])(N([H])C([H])([H])[H])C([H])([H])[H])C(C([H])([H])[H])(C([H])([H])[H])C([H])([H])[H])C([H])([H])c2c([H])c(OC([H])([H])C([H])([H])OC([H])([H])C([H])([H])OC([H])([H])C([H])([H])OC([H])([H])C(=O)N([H])C([H])([H])C([H])([H])C([H])([H])C([H])([H])C([H])([H])C([H])([H])N([H])C(=O)N3C([H])([H])C([H])([H])C([H])([H])C([H])(n4nc(-c5c([H])c([H])c(Oc6c([H])c([H])c(F)c([H])c6F)c([H])c5[H])c(C(=O)N([H])[H])c4N([H])[H])C3([H])[H])c([H])c([H])c2C1([H])[H]

>  <smiles>  (48) 
[H]c1c([H])c([H])c2c(c1[H])C([H])([H])C([H])([H])C([H])([H])C2([H])N([H])C(=O)C1([H])N(C(=O)C([H])(N([H])C(=O)C([H])(N([H])C([H])([H])[H])C([H])([H])[H])C(C([H])([H])[H])(C([H])([H])[H])C([H])([H])[H])C([H])([H])c2c([H])c(OC([H])([H])C([H])([H])OC([H])([H])C([H])([H])OC([H])([H])C([H])([H])OC([H])([H])C(=O)N([H])C([H])([H])C([H])([H])C([H])([H])C([H])([H])C([H])([H])C([H])([H])N([H])C(=O)N3C([H])([H])C([H])([H])C([H])([H])C([H])(n4nc(-c5c([H])c([H])c(Oc6c([H])c([H])c(F)c([H])c6F)c([H])c5[H])c(C(=O)N([H])[H])c4N([H])[H])C3([H])[H])c([H])c([H])c2C1([H])[H]

$$$$
53:0:0
     RDKit          3D

106113  0  0  1  0  0  0  0  0999 V2000
  -24.1810  -19.0500   19.6050 C   0  0  0  0  0  2  0  0  0  0  0  0
  -24.6080  -20.3660   18.9370 C   0  0  0  0  0  0  0  0  0  0  0  0
  -24.8310  -21.4130   19.7510 N   0  0  0  0  0  0  0  0  0  0  0  0
  -24.6870  -20.4460   17.7090 O   0  0  0  0  0  0  0  0  0  0  0  0
  -24.8400  -21.2470   20.7490 H   0  0  0  0  0  0  0  0  0  0  0  0
  -25.0850  -22.7930   19.3430 C   0  0  0  0  0  2  0  0  0  0  0  0
  -26.5810  -23.1330   19.2970 C   0  0  0  0  0  0  0  0  0  0  0  0
  -26.9380  -24.2980   19.8560 N   0  0  0  0  0  0  0  0  0  0  0  0
  -27.3990  -22.3660   18.7800 O   0  0  0  0  0  0  0  0  0  0  0  0
  -26.2100  -24.8790   20.2550 H   0  0  0  0  0  0  0  0  0  0  0  0
  -28.3190  -24.7690   19.9660 C   0  0  0  0  0  2  0  0  0  0  0  0
  -28.4320  -26.1100   20.7080 C   0  0  0  0  0  2  0  0  0  0  0  0
  -28.3570  -27.2330   19.8330 O   0  0  0  0  0  0  0  0  0  0  0  0
  -24.6210  -32.0580   23.4500 C   0  0  0  0  0  0  0  0  0  0  0  0
  -27.1850  -27.9340   19.9390 C   0  0  0  0  0  0  0  0  0  0  0  0
  -23.3690  -30.7660   21.7510 C   0  0  0  0  0  3  0  0  0  0  0  0
  -24.7830  -29.3840   20.1510 C   0  0  0  0  0  0  0  0  0  0  0  0
  -25.8800  -31.2040   21.4780 C   0  0  0  0  0  2  0  0  0  0  0  0
  -25.9550  -29.8900   20.7330 C   0  0  0  0  0  0  0  0  0  0  0  0
  -27.1620  -29.1720   20.6150 C   0  0  0  0  0  3  0  0  0  0  0  0
  -26.0030  -27.4330   19.3620 C   0  0  0  0  0  3  0  0  0  0  0  0
  -24.8020  -28.1540   19.4690 C   0  0  0  0  0  3  0  0  0  0  0  0
  -23.5250  -30.2020   20.3160 C   0  0  0  0  0  2  0  0  0  0  0  0
  -24.6440  -31.3480   22.2890 N   0  0  0  0  0  0  0  0  0  0  0  0
  -23.5540  -32.2620   24.0460 O   0  0  0  0  0  0  0  0  0  0  0  0
  -22.7720  -29.6650   22.6530 C   0  0  0  0  0  0  0  0  0  0  0  0
  -21.4540  -29.4350   22.5270 N   0  0  0  0  0  0  0  0  0  0  0  0
  -23.4900  -29.0250   23.4280 O   0  0  0  0  0  0  0  0  0  0  0  0
  -20.9270  -29.9920   21.8660 H   0  0  0  0  0  0  0  0  0  0  0  0
  -18.1480  -28.0230   22.9210 C   0  0  0  0  0  0  0  0  0  0  0  0
  -20.6800  -28.4380   23.2590 C   0  0  0  0  0  3  0  0  0  0  0  0
  -20.8960  -27.0320   22.6520 C   0  0  0  0  0  2  0  0  0  0  0  0
  -19.8410  -26.6760   21.5940 C   0  0  0  0  0  2  0  0  0  0  0  0
  -18.4360  -26.7110   22.2020 C   0  0  0  0  0  2  0  0  0  0  0  0
  -19.2070  -28.8460   23.3970 C   0  0  0  0  0  0  0  0  0  0  0  0
  -18.8910  -30.0770   24.0200 C   0  0  0  0  0  3  0  0  0  0  0  0
  -17.5510  -30.4860   24.1650 C   0  0  0  0  0  3  0  0  0  0  0  0
  -16.5090  -29.6570   23.7110 C   0  0  0  0  0  3  0  0  0  0  0  0
  -16.8080  -28.4270   23.0940 C   0  0  0  0  0  3  0  0  0  0  0  0
  -25.9210  -32.6680   24.0720 C   0  0  0  0  0  3  0  0  0  0  0  0
  -26.3880  -31.9250   25.3810 C   0  0  1  0  0  0  0  0  0  0  0  0
  -25.2720  -31.7840   26.4400 C   0  0  0  0  0  1  0  0  0  0  0  0
  -26.9150  -30.5130   25.0450 C   0  0  0  0  0  1  0  0  0  0  0  0
  -27.5710  -32.6800   26.0260 C   0  0  0  0  0  1  0  0  0  0  0  0
  -25.6670  -34.0910   24.3480 N   0  0  0  0  0  0  0  0  0  0  0  0
  -26.0600  -35.0990   23.5600 C   0  0  0  0  0  0  0  0  0  0  0  0
  -26.7480  -34.9280   22.5490 O   0  0  0  0  0  0  0  0  0  0  0  0
  -25.0720  -34.3090   25.1290 H   0  0  0  0  0  0  0  0  0  0  0  0
  -24.4160  -36.9430   23.1030 C   0  0  0  0  0  1  0  0  0  0  0  0
  -25.6200  -36.5190   23.9580 C   0  0  0  0  0  3  0  0  0  0  0  0
  -27.7680  -37.3450   24.8060 C   0  0  0  0  0  1  0  0  0  0  0  0
  -26.6990  -37.5230   23.8290 N   0  0  0  0  0  0  0  0  0  0  0  0
  -26.3280  -38.4630   23.9390 H   0  0  0  0  0  0  0  0  0  0  0  0
  -24.6690  -17.9040   18.8980 O   0  0  0  0  0  0  0  0  0  0  0  0
  -24.6020  -16.7350   19.7170 C   0  0  0  0  0  2  0  0  0  0  0  0
  -24.6700  -15.4190   18.9090 C   0  0  0  0  0  2  0  0  0  0  0  0
  -25.5310  -14.4630   19.5530 O   0  0  0  0  0  0  0  0  0  0  0  0
  -25.6290  -13.1950   18.8990 C   0  0  0  0  0  2  0  0  0  0  0  0
  -27.0840  -12.6370   18.8860 C   0  0  0  0  0  2  0  0  0  0  0  0
  -27.2580  -11.3420   19.5050 O   0  0  0  0  0  0  0  0  0  0  0  0
  -27.6400  -10.2100   18.6770 C   0  0  0  0  0  2  0  0  0  0  0  0
  -29.0380   -9.4970   18.8420 C   0  0  0  0  0  2  0  0  0  0  0  0
  -29.1610   -8.4820   19.8760 O   0  0  0  0  0  0  0  0  0  0  0  0
  -30.4580   -7.8300   19.9580 C   0  0  0  0  0  2  0  0  0  0  0  0
  -31.0330   -7.4730   21.3910 C   0  0  0  0  0  2  0  0  0  0  0  0
  -31.4310   -8.5680   22.2490 O   0  0  0  0  0  0  0  0  0  0  0  0
  -32.4190   -8.3610   23.2930 C   0  0  0  0  0  2  0  0  0  0  0  0
  -32.8430   -9.6230   24.1630 C   0  0  0  0  0  2  0  0  0  0  0  0
  -33.7990  -11.6020   22.7980 C   0  0  0  0  0  0  0  0  0  0  0  0
  -33.0210  -10.6950   20.7830 C   0  0  0  0  0  2  0  0  0  0  0  0
  -32.2650  -11.3460   19.6520 C   0  0  0  0  0  2  0  0  0  0  0  0
  -30.8120  -11.4780   20.0650 C   0  0  0  0  0  2  0  0  0  0  0  0
  -30.5720  -12.3170   21.3120 C   0  0  0  0  0  3  0  0  0  0  0  0
  -31.3760  -11.7520   22.4760 C   0  0  0  0  0  2  0  0  0  0  0  0
  -32.7410  -11.4060   22.0340 N   0  0  0  0  0  0  0  0  0  0  0  0
  -34.8040  -12.2330   22.4380 O   0  0  0  0  0  0  0  0  0  0  0  0
  -33.8980  -10.5600   23.6570 N   0  0  0  0  0  0  0  0  0  0  0  0
  -34.8140  -10.4510   24.0700 H   0  0  0  0  0  0  0  0  0  0  0  0
  -28.3840  -13.5310   21.8570 C   0  0  0  0  0  0  0  0  0  0  0  0
  -27.0900  -13.0970   22.0160 C   0  0  0  0  0  0  0  0  0  0  0  0
  -27.1410  -11.6770   21.8990 C   0  0  0  0  0  0  0  0  0  0  0  0
  -29.1450  -12.4010   21.6380 N   0  0  0  0  0  0  0  0  0  0  0  0
  -28.3980  -11.2740   21.7650 N   0  0  0  0  0  0  0  0  0  0  0  0
  -26.0540  -10.6800   21.8680 C   0  0  0  0  0  0  0  0  0  0  0  0
  -26.1130   -9.4930   22.6320 C   0  0  0  0  0  3  0  0  0  0  0  0
  -25.0520   -8.5650   22.5970 C   0  0  0  0  0  3  0  0  0  0  0  0
  -23.9110   -8.8190   21.8010 C   0  0  0  0  0  0  0  0  0  0  0  0
  -23.8690   -9.9840   21.0160 C   0  0  0  0  0  3  0  0  0  0  0  0
  -24.9280  -10.9080   21.0500 C   0  0  0  0  0  3  0  0  0  0  0  0
  -22.8370   -7.9690   21.6980 O   0  0  0  0  0  0  0  0  0  0  0  0
  -22.4480   -7.1630   22.7370 C   0  0  0  0  0  0  0  0  0  0  0  0
  -22.0320   -7.6980   23.9730 C   0  0  0  0  0  3  0  0  0  0  0  0
  -21.5760   -6.8390   24.9950 C   0  0  0  0  0  3  0  0  0  0  0  0
  -21.5280   -5.4500   24.7780 C   0  0  0  0  0  0  0  0  0  0  0  0
  -21.9420   -4.9150   23.5450 C   0  0  0  0  0  3  0  0  0  0  0  0
  -22.4010   -5.7710   22.5270 C   0  0  0  0  0  0  0  0  0  0  0  0
  -22.7760   -5.2530   21.3330 F   0  0  0  0  0  0  0  0  0  0  0  0
  -21.0870   -4.6230   25.7550 F   0  0  0  0  0  0  0  0  0  0  0  0
  -25.8730  -13.9600   22.1610 C   0  0  0  0  0  0  0  0  0  0  0  0
  -24.8390  -13.4540   22.8300 N   0  0  0  0  0  0  0  0  0  0  0  0
  -25.8450  -15.1070   21.7240 O   0  0  0  0  0  0  0  0  0  0  0  0
  -24.8690  -12.5270   23.2290 H   0  0  0  0  0  0  0  0  0  0  0  0
  -24.0060  -14.0130   22.9420 H   0  0  0  0  0  0  0  0  0  0  0  0
  -28.9820  -14.7780   21.8770 N   0  0  0  0  0  0  0  0  0  0  0  0
  -28.4300  -15.6250   21.8950 H   0  0  0  0  0  0  0  0  0  0  0  0
  -29.9260  -14.9190   21.5440 H   0  0  0  0  0  0  0  0  0  0  0  0
  2  1  1  0
  2  3  1  0
  3  5  1  0
  4  2  2  0
  6  3  1  0
  7  6  1  0
  7  8  1  0
  8 11  1  0
  8 10  1  0
  9  7  2  0
 11 12  1  0
 13 15  1  0
 13 12  1  0
 14 25  2  0
 15 20  1  0
 16 24  1  0
 16 26  1  0
 17 23  1  0
 17 19  1  0
 18 24  1  0
 19 18  1  0
 20 19  2  0
 21 22  1  0
 21 15  2  0
 22 17  2  0
 23 16  1  0
 24 14  1  0
 26 28  2  0
 27 26  1  0
 29 27  1  0
 30 39  2  0
 30 35  1  0
 31 27  1  0
 31 35  1  0
 32 31  1  0
 33 34  1  0
 33 32  1  0
 34 30  1  0
 35 36  2  0
 36 37  1  0
 38 37  2  0
 39 38  1  0
 40 14  1  0
 40 45  1  0
 40 41  1  0
 41 44  1  1
 41 42  1  0
 43 41  1  0
 45 48  1  0
 46 50  1  0
 46 45  1  0
 47 46  2  0
 50 49  1  0
 52 53  1  0
 52 50  1  0
 52 51  1  0
 54  1  1  0
 54 55  1  0
 56 57  1  0
 56 55  1  0
 58 57  1  0
 59 58  1  0
 59 60  1  0
 61 62  1  0
 61 60  1  0
 62 63  1  0
 63 64  1  0
 64 65  1  0
 65 66  1  0
 66 67  1  0
 67 68  1  0
 69 77  1  0
 70 75  1  0
 71 72  1  0
 71 70  1  0
 73 72  1  0
 73 82  1  0
 73 74  1  0
 75 74  1  0
 75 69  1  0
 76 69  2  0
 77 78  1  0
 77 68  1  0
 79104  1  0
 79 80  2  0
 80 99  1  0
 81 80  1  0
 82 83  1  0
 82 79  1  0
 83 81  2  0
 84 81  1  0
 84 85  1  0
 86 85  2  0
 87 86  1  0
 88 89  1  0
 88 87  2  0
 89 84  2  0
 90 87  1  0
 90 91  1  0
 91 92  1  0
 92 93  2  0
 94 93  1  0
 94 98  1  0
 95 94  2  0
 96 91  2  0
 96 95  1  0
 97 96  1  0
 99100  1  0
100103  1  0
100102  1  0
101 99  2  0
104105  1  0
106104  1  0
M  ISO  4  12 101  13 101  69 100  77 100
M  END
>  <TORSDO>  (49) 
F 36

>  <SCORE>  (49) 
1.595

>  <name>  (49) 
53

>  <ligand_id>  (49) 
53

>  <original_smiles>  (49) 
[H]c1c([H])c([H])c2c(c1[H])C([H])([H])C([H])([H])C([H])([H])C2([H])N([H])C(=O)C1([H])N(C(=O)C([H])(N([H])C(=O)C([H])(N([H])C([H])([H])[H])C([H])([H])[H])C(C([H])([H])[H])(C([H])([H])[H])C([H])([H])[H])C([H])([H])c2c([H])c(OC([H])([H])C([H])([H])N([H])C(=O)C([H])([H])N([H])C(=O)C([H])([H])OC([H])([H])C([H])([H])OC([H])([H])C([H])([H])OC([H])([H])C([H])([H])OC([H])([H])C([H])([H])OC([H])([H])C([H])([H])N([H])C(=O)N3C([H])([H])C([H])([H])C([H])([H])C([H])(n4nc(-c5c([H])c([H])c(Oc6c([H])c([H])c(F)c([H])c6F)c([H])c5[H])c(C(=O)N([H])[H])c4N([H])[H])C3([H])[H])c([H])c([H])c2C1([H])[H]

>  <smiles>  (49) 
[H]c1c([H])c([H])c2c(c1[H])C([H])([H])C([H])([H])C([H])([H])C2([H])N([H])C(=O)C1([H])N(C(=O)C([H])(N([H])C(=O)C([H])(N([H])C([H])([H])[H])C([H])([H])[H])C(C([H])([H])[H])(C([H])([H])[H])C([H])([H])[H])C([H])([H])c2c([H])c(OC([H])([H])C([H])([H])N([H])C(=O)C([H])([H])N([H])C(=O)C([H])([H])OC([H])([H])C([H])([H])OC([H])([H])C([H])([H])OC([H])([H])C([H])([H])OC([H])([H])C([H])([H])OC([H])([H])C([H])([H])N([H])C(=O)N3C([H])([H])C([H])([H])C([H])([H])C([H])(n4nc(-c5c([H])c([H])c(Oc6c([H])c([H])c(F)c([H])c6F)c([H])c5[H])c(C(=O)N([H])[H])c4N([H])[H])C3([H])[H])c([H])c([H])c2C1([H])[H]

$$$$
54:0:0
     RDKit          3D

109117  0  0  1  0  0  0  0  0999 V2000
  -34.6060  -27.6200   18.8340 C   0  0  0  0  0  2  0  0  0  0  0  0
  -34.2650  -27.7040   17.4570 O   0  0  0  0  0  0  0  0  0  0  0  0
  -33.1000  -28.4670   17.1600 C   0  0  0  0  0  2  0  0  0  0  0  0
  -32.5720  -27.9370   15.8200 C   0  0  0  0  0  2  0  0  0  0  0  0
  -29.5230  -27.3420   14.2460 C   0  0  0  0  0  2  0  0  0  0  0  0
  -29.4320  -26.3820   15.4540 C   0  0  0  0  0  2  0  0  0  0  0  0
  -29.5130  -28.3540   16.8760 C   0  0  0  0  0  2  0  0  0  0  0  0
  -30.8810  -28.0390   14.0050 C   0  0  0  0  0  2  0  0  0  0  0  0
  -30.4310  -29.3350   16.0970 C   0  0  0  0  0  2  0  0  0  0  0  0
  -29.8950  -26.9420   16.7370 N   0  0  0  0  0  0  0  0  0  0  0  0
  -31.4570  -28.7200   15.1950 N   0  0  1  0  0  4  0  0  0  0  0  0
  -31.9290  -29.5230   14.7980 H   0  0  0  0  0  0  0  0  0  0  0  0
  -29.4070  -26.0940   17.8290 C   0  0  0  0  0  2  0  0  0  0  0  0
  -29.9180  -26.5000   19.2430 C   0  0  0  0  0  2  0  0  0  0  0  0
  -28.9410  -26.4100   20.2780 O   0  0  0  0  0  0  0  0  0  0  0  0
  -24.7100  -31.5500   22.8670 C   0  0  0  0  0  0  0  0  0  0  0  0
  -27.7910  -27.1550   20.1610 C   0  0  0  0  0  0  0  0  0  0  0  0
  -23.7040  -30.0440   21.1730 C   0  0  0  0  0  3  0  0  0  0  0  0
  -25.3450  -28.5390   19.9180 C   0  0  0  0  0  0  0  0  0  0  0  0
  -26.2200  -30.5140   21.1840 C   0  0  0  0  0  2  0  0  0  0  0  0
  -26.4230  -29.1350   20.5890 C   0  0  0  0  0  0  0  0  0  0  0  0
  -27.6530  -28.4460   20.7150 C   0  0  0  0  0  3  0  0  0  0  0  0
  -26.6980  -26.5670   19.4970 C   0  0  0  0  0  3  0  0  0  0  0  0
  -25.4790  -27.2530   19.3670 C   0  0  0  0  0  3  0  0  0  0  0  0
  -24.0530  -29.3190   19.8430 C   0  0  0  0  0  2  0  0  0  0  0  0
  -24.8880  -30.7210   21.7980 N   0  0  0  0  0  0  0  0  0  0  0  0
  -23.5780  -31.7930   23.3050 O   0  0  0  0  0  0  0  0  0  0  0  0
  -23.0180  -29.0280   22.1150 C   0  0  0  0  0  0  0  0  0  0  0  0
  -21.6840  -28.9260   22.0070 N   0  0  0  0  0  0  0  0  0  0  0  0
  -23.6800  -28.3310   22.8880 O   0  0  0  0  0  0  0  0  0  0  0  0
  -21.2110  -29.5330   21.3520 H   0  0  0  0  0  0  0  0  0  0  0  0
  -18.2490  -28.0300   22.6690 C   0  0  0  0  0  0  0  0  0  0  0  0
  -20.8310  -28.0020   22.7530 C   0  0  0  0  0  3  0  0  0  0  0  0
  -20.7360  -26.6340   22.0390 C   0  0  0  0  0  2  0  0  0  0  0  0
  -19.5380  -26.5230   21.0930 C   0  0  0  0  0  2  0  0  0  0  0  0
  -18.2300  -26.7420   21.8610 C   0  0  0  0  0  2  0  0  0  0  0  0
  -19.4710  -28.6320   23.0710 C   0  0  0  0  0  0  0  0  0  0  0  0
  -19.4330  -29.8480   23.7870 C   0  0  0  0  0  3  0  0  0  0  0  0
  -18.2060  -30.4590   24.1040 C   0  0  0  0  0  3  0  0  0  0  0  0
  -16.9980  -29.8480   23.7210 C   0  0  0  0  0  3  0  0  0  0  0  0
  -17.0220  -28.6340   23.0110 C   0  0  0  0  0  3  0  0  0  0  0  0
  -25.9150  -32.2500   23.5700 C   0  0  0  0  0  3  0  0  0  0  0  0
  -26.4280  -31.4750   24.8480 C   0  0  1  0  0  0  0  0  0  0  0  0
  -25.3070  -31.1230   25.8490 C   0  0  0  0  0  1  0  0  0  0  0  0
  -27.1230  -30.1520   24.4490 C   0  0  0  0  0  1  0  0  0  0  0  0
  -27.4840  -32.3260   25.5930 C   0  0  0  0  0  1  0  0  0  0  0  0
  -25.4870  -33.6100   23.9250 N   0  0  0  0  0  0  0  0  0  0  0  0
  -25.8690  -34.7170   23.2760 C   0  0  0  0  0  0  0  0  0  0  0  0
  -26.6830  -34.7040   22.3490 O   0  0  0  0  0  0  0  0  0  0  0  0
  -24.7780  -33.6880   24.6380 H   0  0  0  0  0  0  0  0  0  0  0  0
  -24.1720  -36.4850   22.7130 C   0  0  0  0  0  1  0  0  0  0  0  0
  -25.2440  -36.0520   23.7260 C   0  0  0  0  0  3  0  0  0  0  0  0
  -27.1280  -36.9270   25.0330 C   0  0  0  0  0  1  0  0  0  0  0  0
  -26.2360  -37.1350   23.8960 N   0  0  0  0  0  0  0  0  0  0  0  0
  -25.7750  -38.0330   24.0100 H   0  0  0  0  0  0  0  0  0  0  0  0
  -33.7320  -26.5970   19.5880 C   0  0  0  0  0  2  0  0  0  0  0  0
  -34.0550  -25.2440   19.2750 O   0  0  0  0  0  0  0  0  0  0  0  0
  -33.8510  -24.8780   17.9140 C   0  0  0  0  0  2  0  0  0  0  0  0
  -33.8950  -23.3420   17.7770 C   0  0  0  0  0  2  0  0  0  0  0  0
  -32.6480  -22.7060   18.0560 O   0  0  0  0  0  0  0  0  0  0  0  0
  -31.6740  -22.8760   17.0300 C   0  0  0  0  0  2  0  0  0  0  0  0
  -30.3880  -22.0940   17.3350 C   0  0  0  0  0  2  0  0  0  0  0  0
  -29.8790  -22.3800   18.6380 O   0  0  0  0  0  0  0  0  0  0  0  0
  -28.4670  -22.5900   18.7010 C   0  0  0  0  0  2  0  0  0  0  0  0
  -27.5980  -21.4100   18.2060 C   0  0  0  0  0  2  0  0  0  0  0  0
  -27.6540  -20.2280   19.0080 O   0  0  0  0  0  0  0  0  0  0  0  0
  -28.7260  -19.3440   18.6950 C   0  0  0  0  0  2  0  0  0  0  0  0
  -28.4370  -17.9150   19.2150 C   0  0  0  0  0  2  0  0  0  0  0  0
  -28.4470  -17.7620   20.6360 O   0  0  0  0  0  0  0  0  0  0  0  0
  -29.6910  -17.9610   21.3050 C   0  0  0  0  0  2  0  0  0  0  0  0
  -30.7950  -16.9720   20.8780 C   0  0  0  0  0  2  0  0  0  0  0  0
  -30.9710  -14.5780   20.2710 C   0  0  0  0  0  0  0  0  0  0  0  0
  -30.6110  -12.4420   19.1090 C   0  0  0  0  0  2  0  0  0  0  0  0
  -29.6710  -12.6890   17.9110 C   0  0  0  0  0  2  0  0  0  0  0  0
  -28.1980  -12.5790   18.3520 C   0  0  0  0  0  2  0  0  0  0  0  0
  -27.8890  -13.4140   19.6280 C   0  0  0  0  0  3  0  0  0  0  0  0
  -28.9430  -13.1500   20.7260 C   0  0  0  0  0  2  0  0  0  0  0  0
  -30.2710  -13.4210   20.1480 N   0  0  0  0  0  0  0  0  0  0  0  0
  -32.0810  -14.7550   19.7630 O   0  0  0  0  0  0  0  0  0  0  0  0
  -30.3150  -15.5870   20.8560 N   0  0  0  0  0  0  0  0  0  0  0  0
  -29.3930  -15.4050   21.2250 H   0  0  0  0  0  0  0  0  0  0  0  0
  -25.5190  -14.0990   20.3560 C   0  0  0  0  0  0  0  0  0  0  0  0
  -24.4300  -13.3660   20.7390 C   0  0  0  0  0  0  0  0  0  0  0  0
  -24.8480  -11.9990   20.7110 C   0  0  0  0  0  0  0  0  0  0  0  0
  -26.5320  -13.1830   20.1140 N   0  0  0  0  0  0  0  0  0  0  0  0
  -26.1310  -11.9150   20.3810 N   0  0  0  0  0  0  0  0  0  0  0  0
  -24.0890  -10.7620   20.9200 C   0  0  0  0  0  0  0  0  0  0  0  0
  -24.5210   -9.7790   21.8370 C   0  0  0  0  0  3  0  0  0  0  0  0
  -23.7660   -8.6010   22.0290 C   0  0  0  0  0  3  0  0  0  0  0  0
  -22.5680   -8.3990   21.3020 C   0  0  0  0  0  0  0  0  0  0  0  0
  -22.1560   -9.3720   20.3740 C   0  0  0  0  0  3  0  0  0  0  0  0
  -22.9100  -10.5410   20.1810 C   0  0  0  0  0  3  0  0  0  0  0  0
  -21.7890   -7.2730   21.4010 O   0  0  0  0  0  0  0  0  0  0  0  0
  -21.7620   -6.5130   22.5440 C   0  0  0  0  0  0  0  0  0  0  0  0
  -21.3490   -7.0470   23.7830 C   0  0  0  0  0  3  0  0  0  0  0  0
  -21.2660   -6.2130   24.9160 C   0  0  0  0  0  3  0  0  0  0  0  0
  -21.5920   -4.8470   24.8120 C   0  0  0  0  0  0  0  0  0  0  0  0
  -21.9980   -4.3140   23.5770 C   0  0  0  0  0  3  0  0  0  0  0  0
  -22.0800   -5.1440   22.4450 C   0  0  0  0  0  0  0  0  0  0  0  0
  -22.4520   -4.6190   21.2530 F   0  0  0  0  0  0  0  0  0  0  0  0
  -21.5070   -4.0450   25.9000 F   0  0  0  0  0  0  0  0  0  0  0  0
  -23.0510  -13.8890   21.0250 C   0  0  0  0  0  0  0  0  0  0  0  0
  -22.3180  -13.2450   21.9240 N   0  0  0  0  0  0  0  0  0  0  0  0
  -22.6320  -14.9130   20.4850 O   0  0  0  0  0  0  0  0  0  0  0  0
  -22.6660  -12.4250   22.3960 H   0  0  0  0  0  0  0  0  0  0  0  0
  -21.3910  -13.5840   22.1410 H   0  0  0  0  0  0  0  0  0  0  0  0
  -25.7340  -15.4640   20.1810 N   0  0  0  0  0  0  0  0  0  0  0  0
  -25.0040  -16.1540   20.3170 H   0  0  0  0  0  0  0  0  0  0  0  0
  -26.6320  -15.8800   19.9640 H   0  0  0  0  0  0  0  0  0  0  0  0
  1 56  1  0
  2  1  1  0
  3  2  1  0
  4  3  1  0
  5  6  1  0
  6 10  1  0
  8  5  1  0
  8 11  1  0
  9  7  1  0
 10  7  1  0
 10 13  1  0
 11  4  1  0
 11  9  1  0
 11 12  1  6
 13 14  1  0
 14 15  1  0
 16 27  2  0
 17 15  1  0
 17 22  1  0
 18 26  1  0
 18 28  1  0
 19 21  1  0
 20 26  1  0
 21 22  2  0
 21 20  1  0
 23 17  2  0
 24 23  1  0
 24 19  2  0
 25 19  1  0
 25 18  1  0
 26 16  1  0
 28 30  2  0
 29 28  1  0
 31 29  1  0
 32 41  2  0
 32 37  1  0
 33 29  1  0
 33 37  1  0
 34 33  1  0
 35 36  1  0
 35 34  1  0
 36 32  1  0
 37 38  2  0
 38 39  1  0
 40 39  2  0
 41 40  1  0
 42 16  1  0
 42 47  1  0
 42 43  1  0
 43 46  1  1
 43 44  1  0
 45 43  1  0
 47 50  1  0
 48 52  1  0
 48 47  1  0
 49 48  2  0
 52 51  1  0
 52 54  1  0
 54 55  1  0
 54 53  1  0
 57 56  1  0
 58 57  1  0
 59 58  1  0
 59 60  1  0
 61 62  1  0
 61 60  1  0
 62 63  1  0
 63 64  1  0
 65 64  1  0
 65 66  1  0
 67 66  1  0
 67 68  1  0
 68 69  1  0
 69 70  1  0
 71 70  1  0
 72 80  1  0
 73 78  1  0
 74 75  1  0
 74 73  1  0
 76 75  1  0
 76 85  1  0
 76 77  1  0
 78 72  1  0
 78 77  1  0
 79 72  2  0
 80 71  1  0
 80 81  1  0
 82 83  2  0
 83102  1  0
 84 83  1  0
 84 87  1  0
 85 82  1  0
 85 86  1  0
 86 84  2  0
 87 88  1  0
 88 89  2  0
 90 93  1  0
 90 89  1  0
 91 90  2  0
 92 91  1  0
 92 87  2  0
 93 94  1  0
 94 95  1  0
 95 96  2  0
 97 96  1  0
 97101  1  0
 98 97  2  0
 99 94  2  0
 99 98  1  0
100 99  1  0
102103  1  0
103106  1  0
103105  1  0
104102  2  0
107108  1  0
107 82  1  0
109107  1  0
M  ISO  4  14 101  15 101  72 100  80 100
M  END
>  <TORSDO>  (50) 
F 38

>  <SCORE>  (50) 
-8.940

>  <name>  (50) 
54

>  <ligand_id>  (50) 
54

>  <original_smiles>  (50) 
[H]c1c([H])c([H])c2c(c1[H])C([H])([H])C([H])([H])C([H])([H])C2([H])N([H])C(=O)C1([H])N(C(=O)C([H])(N([H])C(=O)C([H])(N([H])C([H])([H])[H])C([H])([H])[H])C(C([H])([H])[H])(C([H])([H])[H])C([H])([H])[H])C([H])([H])c2c([H])c(OC([H])([H])C([H])([H])N3C([H])([H])C([H])([H])C([H])([H])[N+]([H])(C([H])([H])C([H])([H])OC([H])([H])C([H])([H])OC([H])([H])C([H])([H])OC([H])([H])C([H])([H])OC([H])([H])C([H])([H])OC([H])([H])C([H])([H])OC([H])([H])C([H])([H])N([H])C(=O)N4C([H])([H])C([H])([H])C([H])([H])C([H])(n5nc(-c6c([H])c([H])c(Oc7c([H])c([H])c(F)c([H])c7F)c([H])c6[H])c(C(=O)N([H])[H])c5N([H])[H])C4([H])[H])C([H])([H])C3([H])[H])c([H])c([H])c2C1([H])[H]

>  <smiles>  (50) 
[H]c1c([H])c([H])c2c(c1[H])C([H])([H])C([H])([H])C([H])([H])C2([H])N([H])C(=O)C1([H])N(C(=O)C([H])(N([H])C(=O)C([H])(N([H])C([H])([H])[H])C([H])([H])[H])C(C([H])([H])[H])(C([H])([H])[H])C([H])([H])[H])C([H])([H])c2c([H])c(OC([H])([H])C([H])([H])N3C([H])([H])C([H])([H])C([H])([H])[N+]([H])(C([H])([H])C([H])([H])OC([H])([H])C([H])([H])OC([H])([H])C([H])([H])OC([H])([H])C([H])([H])OC([H])([H])C([H])([H])OC([H])([H])C([H])([H])OC([H])([H])C([H])([H])N([H])C(=O)N4C([H])([H])C([H])([H])C([H])([H])C([H])(n5nc(-c6c([H])c([H])c(Oc7c([H])c([H])c(F)c([H])c7F)c([H])c6[H])c(C(=O)N([H])[H])c5N([H])[H])C4([H])[H])C([H])([H])C3([H])[H])c([H])c([H])c2C1([H])[H]

$$$$
55:0:0
     RDKit          3D

102109  0  0  1  0  0  0  0  0999 V2000
  -23.4250  -20.8730   24.1410 N   0  0  0  0  0  4  0  0  0  0  0  0
  -22.8350  -20.7000   23.3430 H   0  0  0  0  0  0  0  0  0  0  0  0
  -22.8540  -21.2790   24.8660 H   0  0  0  0  0  0  0  0  0  0  0  0
  -23.9460  -19.5740   24.6230 C   0  0  0  0  0  2  0  0  0  0  0  0
  -23.7380  -18.4610   23.5860 C   0  0  0  0  0  2  0  0  0  0  0  0
  -24.6450  -18.6810   22.5150 O   0  0  0  0  0  0  0  0  0  0  0  0
  -24.5970  -17.6690   21.5150 C   0  0  0  0  0  2  0  0  0  0  0  0
  -25.4810  -18.1240   20.3500 C   0  0  0  0  0  2  0  0  0  0  0  0
  -26.8290  -18.0040   20.7810 O   0  0  0  0  0  0  0  0  0  0  0  0
  -27.7800  -18.4120   19.8110 C   0  0  0  0  0  2  0  0  0  0  0  0
  -29.1550  -18.4670   20.4900 C   0  0  0  0  0  2  0  0  0  0  0  0
  -29.7690  -17.1800   20.4760 O   0  0  0  0  0  0  0  0  0  0  0  0
  -30.8820  -17.1010   21.3620 C   0  0  0  0  0  2  0  0  0  0  0  0
  -31.8370  -15.9980   20.8920 C   0  0  0  0  0  2  0  0  0  0  0  0
  -31.6120  -13.6970   20.0140 C   0  0  0  0  0  0  0  0  0  0  0  0
  -31.0460  -11.5380   18.9720 C   0  0  0  0  0  2  0  0  0  0  0  0
  -30.0990  -11.7600   17.7770 C   0  0  0  0  0  2  0  0  0  0  0  0
  -28.6290  -11.8070   18.2410 C   0  0  0  0  0  2  0  0  0  0  0  0
  -28.4140  -12.7590   19.4470 C   0  0  0  0  0  3  0  0  0  0  0  0
  -29.4600  -12.4880   20.5480 C   0  0  0  0  0  2  0  0  0  0  0  0
  -30.8000  -12.6110   19.9450 N   0  0  0  0  0  0  0  0  0  0  0  0
  -32.6850  -13.7810   19.4100 O   0  0  0  0  0  0  0  0  0  0  0  0
  -31.1530  -14.7150   20.7470 N   0  0  0  0  0  0  0  0  0  0  0  0
  -30.2490  -14.6170   21.1830 H   0  0  0  0  0  0  0  0  0  0  0  0
  -26.1230  -13.6730   20.1840 C   0  0  0  0  0  0  0  0  0  0  0  0
  -24.9800  -13.0480   20.6050 C   0  0  0  0  0  0  0  0  0  0  0  0
  -25.2770  -11.6500   20.6170 C   0  0  0  0  0  0  0  0  0  0  0  0
  -27.0500  -12.6660   19.9640 N   0  0  0  0  0  0  0  0  0  0  0  0
  -26.5440  -11.4460   20.2810 N   0  0  0  0  0  0  0  0  0  0  0  0
  -24.4160  -10.4890   20.8740 C   0  0  0  0  0  0  0  0  0  0  0  0
  -24.7470   -9.5220   21.8510 C   0  0  0  0  0  3  0  0  0  0  0  0
  -23.8930   -8.4250   22.0900 C   0  0  0  0  0  3  0  0  0  0  0  0
  -22.6920   -8.2880   21.3550 C   0  0  0  0  0  0  0  0  0  0  0  0
  -22.3780   -9.2400   20.3680 C   0  0  0  0  0  3  0  0  0  0  0  0
  -23.2320  -10.3290   20.1280 C   0  0  0  0  0  3  0  0  0  0  0  0
  -21.8150   -7.2410   21.5000 O   0  0  0  0  0  0  0  0  0  0  0  0
  -21.6860   -6.5700   22.6900 C   0  0  0  0  0  0  0  0  0  0  0  0
  -21.3200   -7.2300   23.8820 C   0  0  0  0  0  3  0  0  0  0  0  0
  -21.1320   -6.4910   25.0680 C   0  0  0  0  0  3  0  0  0  0  0  0
  -21.3000   -5.0930   25.0600 C   0  0  0  0  0  0  0  0  0  0  0  0
  -21.6610   -4.4340   23.8730 C   0  0  0  0  0  3  0  0  0  0  0  0
  -21.8500   -5.1700   22.6900 C   0  0  0  0  0  0  0  0  0  0  0  0
  -22.1760   -4.5260   21.5430 F   0  0  0  0  0  0  0  0  0  0  0  0
  -21.1140   -4.3820   26.1980 F   0  0  0  0  0  0  0  0  0  0  0  0
  -23.6570  -13.6980   20.8940 C   0  0  0  0  0  0  0  0  0  0  0  0
  -22.8750  -13.1250   21.8010 N   0  0  0  0  0  0  0  0  0  0  0  0
  -23.3310  -14.7530   20.3500 O   0  0  0  0  0  0  0  0  0  0  0  0
  -23.1500  -12.2720   22.2650 H   0  0  0  0  0  0  0  0  0  0  0  0
  -21.9870  -13.5480   22.0340 H   0  0  0  0  0  0  0  0  0  0  0  0
  -26.4540  -15.0040   19.9560 N   0  0  0  0  0  0  0  0  0  0  0  0
  -25.8080  -15.7650   20.1140 H   0  0  0  0  0  0  0  0  0  0  0  0
  -27.3760  -15.3230   19.6880 H   0  0  0  0  0  0  0  0  0  0  0  0
  -24.4580  -21.8610   23.7580 C   0  0  0  0  0  2  0  0  0  0  0  0
  -23.8140  -23.0970   23.0970 C   0  0  0  0  0  2  0  0  0  0  0  0
  -25.6150  -23.9780   21.6010 C   0  0  0  0  0  0  0  0  0  0  0  0
  -24.7790  -24.0940   22.6390 N   0  0  0  0  0  0  0  0  0  0  0  0
  -25.7490  -22.9320   20.9640 O   0  0  0  0  0  0  0  0  0  0  0  0
  -24.7390  -24.9960   23.0940 H   0  0  0  0  0  0  0  0  0  0  0  0
  -26.3810  -25.2470   21.2190 C   0  0  0  0  0  2  0  0  0  0  0  0
  -27.6330  -25.0130   20.3430 C   0  0  0  0  0  2  0  0  0  0  0  0
  -28.4100  -26.3050   20.0060 C   0  0  0  0  0  2  0  0  0  0  0  0
  -27.8230  -27.0030   18.9080 O   0  0  0  0  0  0  0  0  0  0  0  0
  -24.7570  -31.6800   23.3180 C   0  0  0  0  0  0  0  0  0  0  0  0
  -26.7330  -27.7730   19.2170 C   0  0  0  0  0  0  0  0  0  0  0  0
  -23.2720  -30.6410   21.6300 C   0  0  0  0  0  3  0  0  0  0  0  0
  -24.4490  -29.3170   19.7910 C   0  0  0  0  0  0  0  0  0  0  0  0
  -25.7690  -30.9310   21.1720 C   0  0  0  0  0  2  0  0  0  0  0  0
  -25.6930  -29.6880   20.3140 C   0  0  0  0  0  0  0  0  0  0  0  0
  -26.8390  -28.9150   20.0360 C   0  0  0  0  0  3  0  0  0  0  0  0
  -25.4810  -27.4180   18.6750 C   0  0  0  0  0  3  0  0  0  0  0  0
  -24.3340  -28.1790   18.9720 C   0  0  0  0  0  3  0  0  0  0  0  0
  -23.2720  -30.2020   20.1380 C   0  0  0  0  0  2  0  0  0  0  0  0
  -24.6250  -31.0880   22.0980 N   0  0  0  0  0  0  0  0  0  0  0  0
  -23.7690  -31.8990   24.0330 O   0  0  0  0  0  0  0  0  0  0  0  0
  -22.6800  -29.4950   22.4780 C   0  0  0  0  0  0  0  0  0  0  0  0
  -21.3520  -29.3090   22.3840 N   0  0  0  0  0  0  0  0  0  0  0  0
  -23.4060  -28.7820   23.1750 O   0  0  0  0  0  0  0  0  0  0  0  0
  -20.8250  -29.9420   21.8000 H   0  0  0  0  0  0  0  0  0  0  0  0
  -18.0460  -27.8990   22.7270 C   0  0  0  0  0  0  0  0  0  0  0  0
  -20.5820  -28.2690   23.0620 C   0  0  0  0  0  3  0  0  0  0  0  0
  -20.7700  -26.8970   22.3720 C   0  0  0  0  0  2  0  0  0  0  0  0
  -19.7000  -26.6030   21.3150 C   0  0  0  0  0  2  0  0  0  0  0  0
  -18.3050  -26.6200   21.9450 C   0  0  0  0  0  2  0  0  0  0  0  0
  -19.1160  -28.6800   23.2370 C   0  0  0  0  0  0  0  0  0  0  0  0
  -18.8220  -29.8790   23.9220 C   0  0  0  0  0  3  0  0  0  0  0  0
  -17.4920  -30.2950   24.1070 C   0  0  0  0  0  3  0  0  0  0  0  0
  -16.4350  -29.5110   23.6130 C   0  0  0  0  0  3  0  0  0  0  0  0
  -16.7130  -28.3140   22.9290 C   0  0  0  0  0  3  0  0  0  0  0  0
  -26.1490  -32.1330   23.8620 C   0  0  0  0  0  3  0  0  0  0  0  0
  -26.0020  -33.5050   24.3640 N   0  0  0  0  0  0  0  0  0  0  0  0
  -26.3940  -34.6020   23.7020 C   0  0  0  0  0  0  0  0  0  0  0  0
  -26.9920  -34.5560   22.6230 O   0  0  0  0  0  0  0  0  0  0  0  0
  -25.4710  -33.6200   25.2150 H   0  0  0  0  0  0  0  0  0  0  0  0
  -24.8530  -36.5880   23.6380 C   0  0  0  0  0  1  0  0  0  0  0  0
  -26.0710  -35.9670   24.3400 C   0  0  0  0  0  3  0  0  0  0  0  0
  -28.3150  -36.5230   25.1670 C   0  0  0  0  0  1  0  0  0  0  0  0
  -27.2050  -36.9170   24.3030 N   0  0  0  0  0  0  0  0  0  0  0  0
  -26.9040  -37.8480   24.5790 H   0  0  0  0  0  0  0  0  0  0  0  0
  -26.7170  -31.1810   24.9860 C   0  0  1  0  0  0  0  0  0  0  0  0
  -25.7220  -30.9210   26.1390 C   0  0  0  0  0  1  0  0  0  0  0  0
  -27.1190  -29.8110   24.3880 C   0  0  0  0  0  1  0  0  0  0  0  0
  -28.0010  -31.7940   25.5920 C   0  0  0  0  0  1  0  0  0  0  0  0
  1  4  1  0
  1  3  1  0
  2  1  1  0
  5  4  1  0
  6  5  1  0
  7  6  1  0
  8  9  1  0
  8  7  1  0
 10 11  1  0
 10  9  1  0
 12 11  1  0
 12 13  1  0
 14 13  1  0
 15 23  1  0
 16 21  1  0
 17 18  1  0
 17 16  1  0
 19 18  1  0
 19 28  1  0
 19 20  1  0
 21 15  1  0
 21 20  1  0
 22 15  2  0
 23 14  1  0
 23 24  1  0
 25 26  2  0
 26 27  1  0
 26 45  1  0
 27 30  1  0
 28 25  1  0
 28 29  1  0
 29 27  2  0
 30 31  1  0
 31 32  2  0
 33 36  1  0
 33 32  1  0
 34 33  2  0
 35 34  1  0
 35 30  2  0
 36 37  1  0
 37 38  1  0
 38 39  2  0
 40 39  1  0
 40 44  1  0
 41 40  2  0
 42 37  2  0
 42 41  1  0
 43 42  1  0
 45 46  1  0
 46 49  1  0
 46 48  1  0
 47 45  2  0
 50 51  1  0
 50 25  1  0
 52 50  1  0
 53  1  1  0
 54 53  1  0
 55 56  1  0
 56 58  1  0
 56 54  1  0
 57 55  2  0
 59 55  1  0
 60 59  1  0
 61 60  1  0
 62 64  1  0
 62 61  1  0
 63 74  2  0
 64 69  1  0
 65 73  1  0
 65 75  1  0
 66 72  1  0
 66 68  1  0
 67 73  1  0
 68 67  1  0
 69 68  2  0
 70 71  1  0
 70 64  2  0
 71 66  2  0
 72 65  1  0
 73 63  1  0
 75 77  2  0
 76 75  1  0
 78 76  1  0
 79 88  2  0
 79 84  1  0
 80 76  1  0
 80 84  1  0
 81 80  1  0
 82 83  1  0
 82 81  1  0
 83 79  1  0
 84 85  2  0
 85 86  1  0
 87 86  2  0
 88 87  1  0
 89 63  1  0
 89 90  1  0
 89 99  1  0
 90 93  1  0
 91 95  1  0
 91 90  1  0
 92 91  2  0
 95 94  1  0
 97 95  1  0
 97 98  1  0
 97 96  1  0
 99102  1  1
 99100  1  0
101 99  1  0
M  ISO  4  15 100  23 100  61 101  62 101
M  END
>  <TORSDO>  (51) 
F 33

>  <SCORE>  (51) 
19.421

>  <name>  (51) 
55

>  <ligand_id>  (51) 
55

>  <original_smiles>  (51) 
[H]c1c([H])c([H])c2c(c1[H])C([H])([H])C([H])([H])C([H])([H])C2([H])N([H])C(=O)C1([H])N(C(=O)C([H])(N([H])C(=O)C([H])(N([H])C([H])([H])[H])C([H])([H])[H])C(C([H])([H])[H])(C([H])([H])[H])C([H])([H])[H])C([H])([H])c2c([H])c(OC([H])([H])C([H])([H])C([H])([H])C(=O)N([H])C([H])([H])C([H])([H])[N+]([H])([H])C([H])([H])C([H])([H])OC([H])([H])C([H])([H])OC([H])([H])C([H])([H])OC([H])([H])C([H])([H])N([H])C(=O)N3C([H])([H])C([H])([H])C([H])([H])C([H])(n4nc(-c5c([H])c([H])c(Oc6c([H])c([H])c(F)c([H])c6F)c([H])c5[H])c(C(=O)N([H])[H])c4N([H])[H])C3([H])[H])c([H])c([H])c2C1([H])[H]

>  <smiles>  (51) 
[H]c1c([H])c([H])c2c(c1[H])C([H])([H])C([H])([H])C([H])([H])C2([H])N([H])C(=O)C1([H])N(C(=O)C([H])(N([H])C(=O)C([H])(N([H])C([H])([H])[H])C([H])([H])[H])C(C([H])([H])[H])(C([H])([H])[H])C([H])([H])[H])C([H])([H])c2c([H])c(OC([H])([H])C([H])([H])C([H])([H])C(=O)N([H])C([H])([H])C([H])([H])[N+]([H])([H])C([H])([H])C([H])([H])OC([H])([H])C([H])([H])OC([H])([H])C([H])([H])OC([H])([H])C([H])([H])N([H])C(=O)N3C([H])([H])C([H])([H])C([H])([H])C([H])(n4nc(-c5c([H])c([H])c(Oc6c([H])c([H])c(F)c([H])c6F)c([H])c5[H])c(C(=O)N([H])[H])c4N([H])[H])C3([H])[H])c([H])c([H])c2C1([H])[H]

$$$$
56:0:0
     RDKit          3D

110117  0  0  1  0  0  0  0  0999 V2000
  -26.2730  -22.4730   18.5640 C   0  0  0  0  0  0  0  0  0  0  0  0
  -26.8320  -21.3520   19.1690 N   0  0  0  0  0  0  0  0  0  0  0  0
  -25.3310  -23.0470   19.1020 O   0  0  0  0  0  0  0  0  0  0  0  0
  -27.5930  -20.9050   18.6640 H   0  0  0  0  0  0  0  0  0  0  0  0
  -26.8120  -23.1370   17.2040 C   0  0  0  0  0  2  0  0  0  0  0  0
  -27.0850  -24.6370   17.2470 N   0  0  0  0  0  4  0  0  0  0  0  0
  -26.1860  -25.0880   17.2760 H   0  0  0  0  0  0  0  0  0  0  0  0
  -27.4960  -24.8440   18.1480 H   0  0  0  0  0  0  0  0  0  0  0  0
  -28.0210  -25.4220   16.0990 C   0  0  0  0  0  2  0  0  0  0  0  0
  -28.1870  -26.8420   16.4240 O   0  0  0  0  0  0  0  0  0  0  0  0
  -29.5290  -27.4790   16.5720 C   0  0  0  0  0  2  0  0  0  0  0  0
  -30.1110  -28.3040   17.8920 C   0  0  0  0  0  2  0  0  0  0  0  0
  -30.5840  -27.8160   19.2740 O   0  0  0  0  0  0  0  0  0  0  0  0
  -29.9390  -27.4700   20.6340 C   0  0  0  0  0  2  0  0  0  0  0  0
  -29.1040  -26.1210   21.2280 C   0  0  0  0  0  2  0  0  0  0  0  0
  -28.4290  -24.9580   20.4770 O   0  0  0  0  0  0  0  0  0  0  0  0
  -28.7290  -23.5040   20.4680 C   0  0  0  0  0  2  0  0  0  0  0  0
  -29.6180  -22.4080   19.3780 C   0  0  0  0  0  2  0  0  0  0  0  0
  -29.6140  -20.8370   19.1290 O   0  0  0  0  0  0  0  0  0  0  0  0
  -30.5030  -19.6410   19.6220 C   0  0  0  0  0  2  0  0  0  0  0  0
  -30.6360  -18.0800   18.9630 C   0  0  0  0  0  2  0  0  0  0  0  0
  -31.2050  -15.4430   19.6250 C   0  0  0  0  0  0  0  0  0  0  0  0
  -31.0120  -12.9960   18.9820 C   0  0  0  0  0  2  0  0  0  0  0  0
  -30.0650  -12.8670   17.7670 C   0  0  0  0  0  2  0  0  0  0  0  0
  -28.6080  -12.7270   18.2510 C   0  0  0  0  0  2  0  0  0  0  0  0
  -28.2440  -13.7860   19.3290 C   0  0  0  0  0  3  0  0  0  0  0  0
  -29.3200  -13.8820   20.4380 C   0  0  0  0  0  2  0  0  0  0  0  0
  -30.5880  -14.1970   19.7690 N   0  0  0  0  0  0  0  0  0  0  0  0
  -32.3830  -15.4460   19.2550 O   0  0  0  0  0  0  0  0  0  0  0  0
  -30.4670  -16.6630   19.6820 N   0  0  0  0  0  0  0  0  0  0  0  0
  -29.5570  -16.5460   20.1010 H   0  0  0  0  0  0  0  0  0  0  0  0
  -25.9280  -14.5060   20.1400 C   0  0  0  0  0  0  0  0  0  0  0  0
  -24.8280  -13.7890   20.5500 C   0  0  0  0  0  0  0  0  0  0  0  0
  -25.2170  -12.4200   20.5140 C   0  0  0  0  0  0  0  0  0  0  0  0
  -26.9080  -13.5670   19.8710 N   0  0  0  0  0  0  0  0  0  0  0  0
  -26.4920  -12.3090   20.1600 N   0  0  0  0  0  0  0  0  0  0  0  0
  -24.4250  -11.1990   20.7280 C   0  0  0  0  0  0  0  0  0  0  0  0
  -24.8270  -10.2090   21.6510 C   0  0  0  0  0  3  0  0  0  0  0  0
  -24.0340   -9.0580   21.8580 C   0  0  0  0  0  3  0  0  0  0  0  0
  -22.8240   -8.8920   21.1430 C   0  0  0  0  0  0  0  0  0  0  0  0
  -22.4420   -9.8670   20.2060 C   0  0  0  0  0  3  0  0  0  0  0  0
  -23.2350  -11.0100   19.9970 C   0  0  0  0  0  3  0  0  0  0  0  0
  -22.0060   -7.7940   21.2580 O   0  0  0  0  0  0  0  0  0  0  0  0
  -21.9400   -7.0650   22.4190 C   0  0  0  0  0  0  0  0  0  0  0  0
  -21.6090   -7.6600   23.6550 C   0  0  0  0  0  3  0  0  0  0  0  0
  -21.4840   -6.8630   24.8110 C   0  0  0  0  0  3  0  0  0  0  0  0
  -21.6820   -5.4710   24.7310 C   0  0  0  0  0  0  0  0  0  0  0  0
  -22.0050   -4.8760   23.4990 C   0  0  0  0  0  3  0  0  0  0  0  0
  -22.1310   -5.6700   22.3460 C   0  0  0  0  0  0  0  0  0  0  0  0
  -22.4230   -5.0890   21.1580 F   0  0  0  0  0  0  0  0  0  0  0  0
  -21.5540   -4.7030   25.8370 F   0  0  0  0  0  0  0  0  0  0  0  0
  -23.4740  -14.3540   20.8630 C   0  0  0  0  0  0  0  0  0  0  0  0
  -22.7420  -13.7080   21.7690 N   0  0  0  0  0  0  0  0  0  0  0  0
  -23.0740  -15.3900   20.3430 O   0  0  0  0  0  0  0  0  0  0  0  0
  -23.0840  -12.8690   22.2100 H   0  0  0  0  0  0  0  0  0  0  0  0
  -21.8320  -14.0650   22.0230 H   0  0  0  0  0  0  0  0  0  0  0  0
  -26.1630  -15.8590   19.9500 N   0  0  0  0  0  0  0  0  0  0  0  0
  -25.4420  -16.5600   20.0850 H   0  0  0  0  0  0  0  0  0  0  0  0
  -27.0260  -16.2500   19.5890 H   0  0  0  0  0  0  0  0  0  0  0  0
  -26.7510  -20.8350   20.6200 C   0  0  0  0  0  2  0  0  0  0  0  0
  -28.0630  -20.3100   21.3950 C   0  0  0  0  0  0  0  0  0  0  0  0
  -28.8770  -21.2220   22.0270 N   0  0  0  0  0  0  0  0  0  0  0  0
  -28.3270  -19.1060   21.3810 O   0  0  0  0  0  0  0  0  0  0  0  0
  -28.4180  -22.1200   22.0500 H   0  0  0  0  0  0  0  0  0  0  0  0
  -30.3520  -21.4810   22.3160 C   0  0  0  0  0  2  0  0  0  0  0  0
  -31.2530  -22.7060   21.6160 C   0  0  0  0  0  2  0  0  0  0  0  0
  -30.8160  -24.1410   21.3420 O   0  0  0  0  0  0  0  0  0  0  0  0
  -30.9590  -25.0520   20.1180 C   0  0  0  0  0  2  0  0  0  0  0  0
  -29.8180  -25.6580   18.9760 C   0  0  0  0  0  2  0  0  0  0  0  0
  -28.3320  -26.3990   18.9190 O   0  0  0  0  0  0  0  0  0  0  0  0
  -24.6560  -31.6920   22.9040 C   0  0  0  0  0  0  0  0  0  0  0  0
  -27.3120  -27.4480   19.2780 C   0  0  0  0  0  0  0  0  0  0  0  0
  -23.4050  -30.3490   21.2610 C   0  0  0  0  0  3  0  0  0  0  0  0
  -24.8200  -29.0260   19.5940 C   0  0  0  0  0  0  0  0  0  0  0  0
  -25.9050  -30.8370   20.8900 C   0  0  0  0  0  2  0  0  0  0  0  0
  -26.0160  -29.5090   20.1210 C   0  0  0  0  0  0  0  0  0  0  0  0
  -27.2410  -28.7570   19.9400 C   0  0  0  0  0  3  0  0  0  0  0  0
  -26.0240  -27.0590   18.8170 C   0  0  0  0  0  3  0  0  0  0  0  0
  -24.8330  -27.8020   18.9310 C   0  0  0  0  0  3  0  0  0  0  0  0
  -23.5460  -29.8200   19.8140 C   0  0  0  0  0  2  0  0  0  0  0  0
  -24.6790  -30.9750   21.7410 N   0  0  0  0  0  0  0  0  0  0  0  0
  -23.6100  -31.8440   23.5520 O   0  0  0  0  0  0  0  0  0  0  0  0
  -22.8920  -29.2140   22.1800 C   0  0  0  0  0  0  0  0  0  0  0  0
  -21.5830  -28.9110   22.1120 N   0  0  0  0  0  0  0  0  0  0  0  0
  -23.6670  -28.6160   22.9280 O   0  0  0  0  0  0  0  0  0  0  0  0
  -21.0040  -29.4590   21.4940 H   0  0  0  0  0  0  0  0  0  0  0  0
  -18.3980  -27.2380   22.5930 C   0  0  0  0  0  0  0  0  0  0  0  0
  -20.9020  -27.8470   22.8550 C   0  0  0  0  0  3  0  0  0  0  0  0
  -21.1920  -26.4580   22.2400 C   0  0  0  0  0  2  0  0  0  0  0  0
  -20.1360  -26.0130   21.2220 C   0  0  0  0  0  2  0  0  0  0  0  0
  -18.7530  -25.9460   21.8770 C   0  0  0  0  0  2  0  0  0  0  0  0
  -19.4060  -28.1360   23.0370 C   0  0  0  0  0  0  0  0  0  0  0  0
  -19.0160  -29.3360   23.6710 C   0  0  0  0  0  3  0  0  0  0  0  0
  -17.6550  -29.6450   23.8590 C   0  0  0  0  0  3  0  0  0  0  0  0
  -16.6650  -28.7460   23.4270 C   0  0  0  0  0  3  0  0  0  0  0  0
  -17.0360  -27.5450   22.7980 C   0  0  0  0  0  3  0  0  0  0  0  0
  -25.9390  -32.3690   23.4690 C   0  0  0  0  0  3  0  0  0  0  0  0
  -26.6400  -31.5120   24.5930 C   0  0  1  0  0  0  0  0  0  0  0  0
  -25.6910  -31.0800   25.7350 C   0  0  0  0  0  1  0  0  0  0  0  0
  -27.2710  -30.2320   23.9970 C   0  0  0  0  0  1  0  0  0  0  0  0
  -27.7970  -32.3250   25.2180 C   0  0  0  0  0  1  0  0  0  0  0  0
  -25.5600  -33.6920   23.9840 N   0  0  0  0  0  0  0  0  0  0  0  0
  -25.7510  -34.8470   23.3330 C   0  0  0  0  0  0  0  0  0  0  0  0
  -26.3360  -34.9120   22.2470 O   0  0  0  0  0  0  0  0  0  0  0  0
  -25.0210  -33.7060   24.8380 H   0  0  0  0  0  0  0  0  0  0  0  0
  -23.8830  -36.5310   23.3300 C   0  0  0  0  0  1  0  0  0  0  0  0
  -25.2140  -36.1320   23.9870 C   0  0  0  0  0  3  0  0  0  0  0  0
  -27.3510  -37.0790   24.7400 C   0  0  0  0  0  1  0  0  0  0  0  0
  -26.1590  -37.2690   23.9180 N   0  0  0  0  0  0  0  0  0  0  0  0
  -25.7080  -38.1340   24.2080 H   0  0  0  0  0  0  0  0  0  0  0  0
  1  3  2  0
  1  2  1  0
  2 60  1  0
  4  2  1  0
  5  6  1  0
  5  1  1  0
  6  7  1  0
  6  8  1  0
  9 10  1  0
  9  6  1  0
 10 11  1  0
 11 12  1  0
 12 13  1  0
 13 14  1  0
 14 15  1  0
 16 15  1  0
 17 16  1  0
 18 17  1  0
 19 18  1  0
 19 20  1  0
 21 20  1  0
 21 30  1  0
 22 30  1  0
 22 28  1  0
 23 28  1  0
 24 25  1  0
 24 23  1  0
 26 25  1  0
 26 35  1  0
 26 27  1  0
 28 27  1  0
 29 22  2  0
 30 31  1  0
 32 33  2  0
 33 52  1  0
 34 33  1  0
 34 37  1  0
 35 32  1  0
 35 36  1  0
 36 34  2  0
 37 38  1  0
 38 39  2  0
 40 43  1  0
 40 39  1  0
 41 40  2  0
 42 41  1  0
 42 37  2  0
 43 44  1  0
 44 45  1  0
 45 46  2  0
 47 46  1  0
 47 51  1  0
 48 47  2  0
 49 44  2  0
 49 48  1  0
 50 49  1  0
 52 53  1  0
 53 56  1  0
 53 55  1  0
 54 52  2  0
 57 58  1  0
 57 32  1  0
 59 57  1  0
 60 61  1  0
 61 62  1  0
 62 64  1  0
 62 65  1  0
 63 61  2  0
 66 65  1  0
 67 66  1  0
 68 67  1  0
 69 68  1  0
 70 69  1  0
 70 72  1  0
 71 82  2  0
 72 77  1  0
 73 81  1  0
 73 83  1  0
 74 80  1  0
 74 76  1  0
 75 81  1  0
 76 75  1  0
 77 76  2  0
 78 79  1  0
 78 72  2  0
 79 74  2  0
 80 73  1  0
 81 71  1  0
 83 85  2  0
 84 83  1  0
 86 84  1  0
 87 96  2  0
 87 92  1  0
 88 84  1  0
 88 92  1  0
 89 88  1  0
 90 91  1  0
 90 89  1  0
 91 87  1  0
 92 93  2  0
 93 94  1  0
 95 94  2  0
 96 95  1  0
 97 71  1  0
 97102  1  0
 97 98  1  0
 98101  1  1
 98 99  1  0
100 98  1  0
102105  1  0
103102  1  0
103107  1  0
104103  2  0
107106  1  0
109107  1  0
109110  1  0
109108  1  0
M  ISO  4  22 100  30 100  69 101  70 101
M  END
>  <TORSDO>  (52) 
F 38

>  <SCORE>  (52) 
-7.098

>  <name>  (52) 
56

>  <ligand_id>  (52) 
56

>  <original_smiles>  (52) 
[H]c1c([H])c([H])c2c(c1[H])C([H])([H])C([H])([H])C([H])([H])C2([H])N([H])C(=O)C1([H])N(C(=O)C([H])(N([H])C(=O)C([H])(N([H])C([H])([H])[H])C([H])([H])[H])C(C([H])([H])[H])(C([H])([H])[H])C([H])([H])[H])C([H])([H])c2c([H])c(OC([H])([H])C([H])([H])OC([H])([H])C([H])([H])N([H])C(=O)C([H])([H])N([H])C(=O)C([H])([H])[N+]([H])([H])C([H])([H])OC([H])([H])C([H])([H])OC([H])([H])C([H])([H])OC([H])([H])C([H])([H])OC([H])([H])C([H])([H])N([H])C(=O)N3C([H])([H])C([H])([H])C([H])([H])C([H])(n4nc(-c5c([H])c([H])c(Oc6c([H])c([H])c(F)c([H])c6F)c([H])c5[H])c(C(=O)N([H])[H])c4N([H])[H])C3([H])[H])c([H])c([H])c2C1([H])[H]

>  <smiles>  (52) 
[H]c1c([H])c([H])c2c(c1[H])C([H])([H])C([H])([H])C([H])([H])C2([H])N([H])C(=O)C1([H])N(C(=O)C([H])(N([H])C(=O)C([H])(N([H])C([H])([H])[H])C([H])([H])[H])C(C([H])([H])[H])(C([H])([H])[H])C([H])([H])[H])C([H])([H])c2c([H])c(OC([H])([H])C([H])([H])OC([H])([H])C([H])([H])N([H])C(=O)C([H])([H])N([H])C(=O)C([H])([H])[N+]([H])([H])C([H])([H])OC([H])([H])C([H])([H])OC([H])([H])C([H])([H])OC([H])([H])C([H])([H])OC([H])([H])C([H])([H])N([H])C(=O)N3C([H])([H])C([H])([H])C([H])([H])C([H])(n4nc(-c5c([H])c([H])c(Oc6c([H])c([H])c(F)c([H])c6F)c([H])c5[H])c(C(=O)N([H])[H])c4N([H])[H])C3([H])[H])c([H])c([H])c2C1([H])[H]

$$$$
57:0:0
     RDKit          3D

102109  0  0  1  0  0  0  0  0999 V2000
  -32.7370  -18.6010   18.0990 C   0  0  0  0  0  2  0  0  0  0  0  0
  -32.0930  -19.1340   16.9490 O   0  0  0  0  0  0  0  0  0  0  0  0
  -32.3220  -18.3800   15.7660 C   0  0  0  0  0  2  0  0  0  0  0  0
  -31.4830  -18.9770   14.6260 C   0  0  0  0  0  2  0  0  0  0  0  0
  -30.0990  -18.8330   14.9310 O   0  0  0  0  0  0  0  0  0  0  0  0
  -29.4750  -20.0430   15.3500 C   0  0  0  0  0  2  0  0  0  0  0  0
  -28.2330  -19.7060   16.1810 C   0  0  0  0  0  2  0  0  0  0  0  0
  -28.6290  -19.3460   17.5000 O   0  0  0  0  0  0  0  0  0  0  0  0
  -27.5540  -18.8280   18.2710 C   0  0  0  0  0  2  0  0  0  0  0  0
  -27.9590  -18.7560   19.7490 C   0  0  0  0  0  2  0  0  0  0  0  0
  -28.9810  -17.7870   19.9430 O   0  0  0  0  0  0  0  0  0  0  0  0
  -29.4460  -17.7740   21.2860 C   0  0  0  0  0  2  0  0  0  0  0  0
  -31.2290  -16.8000   22.8180 C   0  0  0  0  0  1  0  0  0  0  0  0
  -30.5990  -16.7690   21.4180 C   0  0  0  0  0  3  0  0  0  0  0  0
  -30.4910  -14.6400   20.1230 C   0  0  0  0  0  0  0  0  0  0  0  0
  -30.1670  -12.4610   19.0190 C   0  0  0  0  0  2  0  0  0  0  0  0
  -29.1620  -12.5570   17.8560 C   0  0  0  0  0  2  0  0  0  0  0  0
  -27.7200  -12.3780   18.3670 C   0  0  0  0  0  2  0  0  0  0  0  0
  -27.4060  -13.2890   19.5820 C   0  0  0  0  0  3  0  0  0  0  0  0
  -28.5100  -13.1710   20.6550 C   0  0  0  0  0  2  0  0  0  0  0  0
  -29.8130  -13.4700   20.0270 N   0  0  0  0  0  0  0  0  0  0  0  0
  -31.4330  -14.9480   19.3880 O   0  0  0  0  0  0  0  0  0  0  0  0
  -30.1010  -15.4280   21.1290 N   0  0  0  0  0  0  0  0  0  0  0  0
  -29.3360  -15.0880   21.6920 H   0  0  0  0  0  0  0  0  0  0  0  0
  -25.0410  -13.8620   20.4320 C   0  0  0  0  0  0  0  0  0  0  0  0
  -24.0070  -13.0730   20.8590 C   0  0  0  0  0  0  0  0  0  0  0  0
  -24.4830  -11.7280   20.7930 C   0  0  0  0  0  0  0  0  0  0  0  0
  -26.0830  -12.9970   20.1370 N   0  0  0  0  0  0  0  0  0  0  0  0
  -25.7530  -11.7070   20.4070 N   0  0  0  0  0  0  0  0  0  0  0  0
  -23.7880  -10.4550   21.0200 C   0  0  0  0  0  0  0  0  0  0  0  0
  -24.2790   -9.4970   21.9350 C   0  0  0  0  0  3  0  0  0  0  0  0
  -23.5830   -8.2880   22.1490 C   0  0  0  0  0  3  0  0  0  0  0  0
  -22.3820   -8.0270   21.4480 C   0  0  0  0  0  0  0  0  0  0  0  0
  -21.9100   -8.9730   20.5220 C   0  0  0  0  0  3  0  0  0  0  0  0
  -22.6060  -10.1740   20.3060 C   0  0  0  0  0  3  0  0  0  0  0  0
  -21.6520   -6.8700   21.5730 O   0  0  0  0  0  0  0  0  0  0  0  0
  -21.6500   -6.1420   22.7360 C   0  0  0  0  0  0  0  0  0  0  0  0
  -21.2620   -6.7090   23.9690 C   0  0  0  0  0  3  0  0  0  0  0  0
  -21.2080   -5.9070   25.1270 C   0  0  0  0  0  3  0  0  0  0  0  0
  -21.5300   -4.5380   25.0520 C   0  0  0  0  0  0  0  0  0  0  0  0
  -21.9100   -3.9710   23.8240 C   0  0  0  0  0  3  0  0  0  0  0  0
  -21.9670   -4.7710   22.6680 C   0  0  0  0  0  0  0  0  0  0  0  0
  -22.3140   -4.2130   21.4830 F   0  0  0  0  0  0  0  0  0  0  0  0
  -21.4700   -3.7670   26.1620 F   0  0  0  0  0  0  0  0  0  0  0  0
  -22.6220  -13.5280   21.2200 C   0  0  0  0  0  0  0  0  0  0  0  0
  -21.9620  -12.8230   22.1310 N   0  0  0  0  0  0  0  0  0  0  0  0
  -22.1350  -14.5460   20.7270 O   0  0  0  0  0  0  0  0  0  0  0  0
  -22.3690  -12.0000   22.5500 H   0  0  0  0  0  0  0  0  0  0  0  0
  -21.0360  -13.1100   22.4150 H   0  0  0  0  0  0  0  0  0  0  0  0
  -25.1790  -15.2360   20.2530 N   0  0  0  0  0  0  0  0  0  0  0  0
  -24.4160  -15.8830   20.4150 H   0  0  0  0  0  0  0  0  0  0  0  0
  -26.0180  -15.6810   19.9060 H   0  0  0  0  0  0  0  0  0  0  0  0
  -32.0690  -19.2790   19.2980 C   0  0  0  0  0  2  0  0  0  0  0  0
  -32.1470  -20.7500   19.1620 N   0  0  0  0  0  4  0  0  0  0  0  0
  -32.9070  -21.1050   19.7260 H   0  0  0  0  0  0  0  0  0  0  0  0
  -32.3740  -20.9320   18.1940 H   0  0  0  0  0  0  0  0  0  0  0  0
  -30.8850  -21.4590   19.4730 C   0  0  0  0  0  2  0  0  0  0  0  0
  -31.0240  -22.9750   19.3020 C   0  0  0  0  0  2  0  0  0  0  0  0
  -29.7230  -23.5330   19.3880 O   0  0  0  0  0  0  0  0  0  0  0  0
  -29.7500  -24.9380   19.5650 C   0  0  0  0  0  2  0  0  0  0  0  0
  -28.3260  -25.4760   19.4170 C   0  0  0  0  0  2  0  0  0  0  0  0
  -28.2910  -26.7840   19.9610 O   0  0  0  0  0  0  0  0  0  0  0  0
  -24.5380  -31.8540   23.1820 C   0  0  0  0  0  0  0  0  0  0  0  0
  -27.0870  -27.4480   19.9950 C   0  0  0  0  0  0  0  0  0  0  0  0
  -23.2850  -30.4800   21.5480 C   0  0  0  0  0  3  0  0  0  0  0  0
  -24.6940  -28.9470   20.0830 C   0  0  0  0  0  0  0  0  0  0  0  0
  -25.8060  -30.8290   21.3020 C   0  0  0  0  0  2  0  0  0  0  0  0
  -25.8660  -29.4650   20.6500 C   0  0  0  0  0  0  0  0  0  0  0  0
  -27.0610  -28.7200   20.6070 C   0  0  0  0  0  3  0  0  0  0  0  0
  -25.8920  -26.9310   19.4380 C   0  0  0  0  0  3  0  0  0  0  0  0
  -24.7000  -27.6770   19.4820 C   0  0  0  0  0  3  0  0  0  0  0  0
  -23.4600  -29.8140   20.1570 C   0  0  0  0  0  2  0  0  0  0  0  0
  -24.5630  -31.0660   22.0700 N   0  0  0  0  0  0  0  0  0  0  0  0
  -23.4700  -32.1320   23.7450 O   0  0  0  0  0  0  0  0  0  0  0  0
  -22.6460  -29.4540   22.5100 C   0  0  0  0  0  0  0  0  0  0  0  0
  -21.3180  -29.2890   22.4090 N   0  0  0  0  0  0  0  0  0  0  0  0
  -23.3410  -28.8100   23.3010 O   0  0  0  0  0  0  0  0  0  0  0  0
  -20.8200  -29.8560   21.7370 H   0  0  0  0  0  0  0  0  0  0  0  0
  -17.9420  -28.1280   22.9550 C   0  0  0  0  0  0  0  0  0  0  0  0
  -20.5070  -28.3510   23.1850 C   0  0  0  0  0  3  0  0  0  0  0  0
  -20.5850  -26.9270   22.5890 C   0  0  0  0  0  2  0  0  0  0  0  0
  -19.4590  -26.6280   21.5940 C   0  0  0  0  0  2  0  0  0  0  0  0
  -18.0910  -26.7830   22.2630 C   0  0  0  0  0  2  0  0  0  0  0  0
  -19.0780  -28.8710   23.3740 C   0  0  0  0  0  0  0  0  0  0  0  0
  -18.8870  -30.1320   23.9790 C   0  0  0  0  0  3  0  0  0  0  0  0
  -17.5930  -30.6490   24.1740 C   0  0  0  0  0  3  0  0  0  0  0  0
  -16.4720  -29.9030   23.7730 C   0  0  0  0  0  3  0  0  0  0  0  0
  -16.6470  -28.6450   23.1680 C   0  0  0  0  0  3  0  0  0  0  0  0
  -25.8440  -32.4650   23.7810 C   0  0  0  0  0  3  0  0  0  0  0  0
  -25.5570  -33.8620   24.1310 N   0  0  0  0  0  0  0  0  0  0  0  0
  -25.8880  -34.9180   23.3760 C   0  0  0  0  0  0  0  0  0  0  0  0
  -26.5370  -34.8180   22.3310 O   0  0  0  0  0  0  0  0  0  0  0  0
  -24.9800  -34.0160   24.9450 H   0  0  0  0  0  0  0  0  0  0  0  0
  -24.1700  -36.7270   23.0670 C   0  0  0  0  0  1  0  0  0  0  0  0
  -25.4210  -36.3050   23.8530 C   0  0  0  0  0  3  0  0  0  0  0  0
  -27.5780  -37.1590   24.6560 C   0  0  0  0  0  1  0  0  0  0  0  0
  -26.4600  -37.3490   23.7330 N   0  0  0  0  0  0  0  0  0  0  0  0
  -26.0650  -38.2710   23.9010 H   0  0  0  0  0  0  0  0  0  0  0  0
  -26.3800  -31.6730   25.0360 C   0  0  1  0  0  0  0  0  0  0  0  0
  -25.3060  -31.4350   26.1230 C   0  0  0  0  0  1  0  0  0  0  0  0
  -26.9400  -30.2960   24.6090 C   0  0  0  0  0  1  0  0  0  0  0  0
  -27.5520  -32.4490   25.6820 C   0  0  0  0  0  1  0  0  0  0  0  0
  1 53  1  0
  2  1  1  0
  3  2  1  0
  4  5  1  0
  4  3  1  0
  5  6  1  0
  6  7  1  0
  7  8  1  0
  8  9  1  0
  9 10  1  0
 10 11  1  0
 11 12  1  0
 12 14  1  0
 14 13  1  0
 15 23  1  0
 16 21  1  0
 17 18  1  0
 17 16  1  0
 19 18  1  0
 19 28  1  0
 19 20  1  0
 21 15  1  0
 21 20  1  0
 22 15  2  0
 23 14  1  0
 23 24  1  0
 25 26  2  0
 26 45  1  0
 27 26  1  0
 27 30  1  0
 28 29  1  0
 28 25  1  0
 29 27  2  0
 30 31  1  0
 31 32  2  0
 33 36  1  0
 33 32  1  0
 34 33  2  0
 35 34  1  0
 35 30  2  0
 36 37  1  0
 37 38  1  0
 38 39  2  0
 40 39  1  0
 40 44  1  0
 41 40  2  0
 42 37  2  0
 42 41  1  0
 43 42  1  0
 45 46  1  0
 46 49  1  0
 46 48  1  0
 47 45  2  0
 50 51  1  0
 50 25  1  0
 52 50  1  0
 54 53  1  0
 54 57  1  0
 54 55  1  0
 56 54  1  0
 58 59  1  0
 58 57  1  0
 59 60  1  0
 61 60  1  0
 61 62  1  0
 62 64  1  0
 63 74  2  0
 64 69  1  0
 65 73  1  0
 65 75  1  0
 66 72  1  0
 66 68  1  0
 67 73  1  0
 68 67  1  0
 69 68  2  0
 70 71  1  0
 70 64  2  0
 71 66  2  0
 72 65  1  0
 73 63  1  0
 75 77  2  0
 76 75  1  0
 78 76  1  0
 79 88  2  0
 79 84  1  0
 80 76  1  0
 80 84  1  0
 81 80  1  0
 82 83  1  0
 82 81  1  0
 83 79  1  0
 84 85  2  0
 85 86  1  0
 87 86  2  0
 88 87  1  0
 89 63  1  0
 89 90  1  0
 89 99  1  0
 90 93  1  0
 91 95  1  0
 91 90  1  0
 92 91  2  0
 95 94  1  0
 97 95  1  0
 97 98  1  0
 97 96  1  0
 99102  1  1
 99100  1  0
101 99  1  0
M  ISO  4  15 100  23 100  61 101  62 101
M  END
>  <TORSDO>  (53) 
F 35

>  <SCORE>  (53) 
-9.431

>  <name>  (53) 
57

>  <ligand_id>  (53) 
57

>  <original_smiles>  (53) 
[H]c1c([H])c([H])c2c(c1[H])C([H])([H])C([H])([H])C([H])([H])C2([H])N([H])C(=O)C1([H])N(C(=O)C([H])(N([H])C(=O)C([H])(N([H])C([H])([H])[H])C([H])([H])[H])C(C([H])([H])[H])(C([H])([H])[H])C([H])([H])[H])C([H])([H])c2c([H])c(OC([H])([H])C([H])([H])OC([H])([H])C([H])([H])[N+]([H])([H])C([H])([H])C([H])([H])OC([H])([H])C([H])([H])OC([H])([H])C([H])([H])OC([H])([H])C([H])([H])OC([H])([H])C([H])(N([H])C(=O)N3C([H])([H])C([H])([H])C([H])([H])C([H])(n4nc(-c5c([H])c([H])c(Oc6c([H])c([H])c(F)c([H])c6F)c([H])c5[H])c(C(=O)N([H])[H])c4N([H])[H])C3([H])[H])C([H])([H])[H])c([H])c([H])c2C1([H])[H]

>  <smiles>  (53) 
[H]c1c([H])c([H])c2c(c1[H])C([H])([H])C([H])([H])C([H])([H])C2([H])N([H])C(=O)C1([H])N(C(=O)C([H])(N([H])C(=O)C([H])(N([H])C([H])([H])[H])C([H])([H])[H])C(C([H])([H])[H])(C([H])([H])[H])C([H])([H])[H])C([H])([H])c2c([H])c(OC([H])([H])C([H])([H])OC([H])([H])C([H])([H])[N+]([H])([H])C([H])([H])C([H])([H])OC([H])([H])C([H])([H])OC([H])([H])C([H])([H])OC([H])([H])C([H])([H])OC([H])([H])C([H])(N([H])C(=O)N3C([H])([H])C([H])([H])C([H])([H])C([H])(n4nc(-c5c([H])c([H])c(Oc6c([H])c([H])c(F)c([H])c6F)c([H])c5[H])c(C(=O)N([H])[H])c4N([H])[H])C3([H])[H])C([H])([H])[H])c([H])c([H])c2C1([H])[H]

$$$$
58:0:0
     RDKit          3D

105113  0  0  1  0  0  0  0  0999 V2000
  -21.4550  -25.5970   24.1850 C   0  0  0  0  0  2  0  0  0  0  0  0
  -23.8320  -24.9100   24.3710 C   0  0  0  0  0  0  0  0  0  0  0  0
  -22.8980  -25.8330   24.1070 N   0  0  0  0  0  2  0  0  0  0  0  0
  -23.5490  -23.7650   24.7320 O   0  0  0  0  0  0  0  0  0  0  0  0
  -23.2050  -26.7500   23.8030 H   0  0  0  0  0  0  0  0  0  0  0  0
  -25.2960  -25.2940   24.1740 C   0  0  0  0  0  3  0  0  0  0  0  0
  -25.7530  -24.7820   22.8690 N   0  0  0  0  0  4  0  0  0  0  0  0
  -26.5880  -24.2570   23.0840 H   0  0  0  0  0  0  0  0  0  0  0  0
  -26.0430  -25.5580   22.2990 H   0  0  0  0  0  0  0  0  0  0  0  0
  -24.7920  -23.9270   22.1420 C   0  0  0  0  0  2  0  0  0  0  0  0
  -23.3400  -24.3320   22.4540 C   0  0  0  0  0  2  0  0  0  0  0  0
  -22.3280  -23.8330   21.4110 C   0  0  0  0  0  2  0  0  0  0  0  0
  -20.9290  -24.4080   21.6600 C   0  0  0  0  0  2  0  0  0  0  0  0
  -20.8780  -25.9270   21.4540 C   0  0  0  0  0  2  0  0  0  0  0  0
  -19.4890  -26.4140   21.0230 C   0  0  0  0  0  2  0  0  0  0  0  0
  -17.2070  -25.4160   20.8740 C   0  0  0  0  0  0  0  0  0  0  0  0
  -15.7910  -23.6230   19.9780 C   0  0  0  0  0  2  0  0  0  0  0  0
  -14.3340  -23.6150   20.4570 C   0  0  0  0  0  2  0  0  0  0  0  0
  -14.2040  -22.8560   21.7870 C   0  0  0  0  0  2  0  0  0  0  0  0
  -15.2280  -23.3360   22.8480 C   0  0  0  0  0  3  0  0  0  0  0  0
  -16.6560  -23.3940   22.2610 C   0  0  0  0  0  2  0  0  0  0  0  0
  -16.6420  -24.1990   21.0240 N   0  0  0  0  0  0  0  0  0  0  0  0
  -16.8060  -26.2710   20.0740 O   0  0  0  0  0  0  0  0  0  0  0  0
  -18.4230  -25.4940   21.4230 N   0  0  0  0  0  0  0  0  0  0  0  0
  -18.6940  -24.7090   22.0010 H   0  0  0  0  0  0  0  0  0  0  0  0
  -16.1840  -21.8300   24.7090 C   0  0  0  0  0  0  0  0  0  0  0  0
  -15.6110  -21.2680   25.8160 C   0  0  0  0  0  0  0  0  0  0  0  0
  -14.2320  -21.6470   25.7840 C   0  0  0  0  0  0  0  0  0  0  0  0
  -15.1660  -22.5040   24.0520 N   0  0  0  0  0  0  0  0  0  0  0  0
  -13.9750  -22.3460   24.6860 N   0  0  0  0  0  0  0  0  0  0  0  0
  -13.1580  -21.4350   26.7620 C   0  0  0  0  0  0  0  0  0  0  0  0
  -13.0710  -20.2430   27.5170 C   0  0  0  0  0  3  0  0  0  0  0  0
  -12.0410  -20.0720   28.4670 C   0  0  0  0  0  3  0  0  0  0  0  0
  -11.0860  -21.0950   28.6740 C   0  0  0  0  0  0  0  0  0  0  0  0
  -11.1660  -22.2700   27.9060 C   0  0  0  0  0  3  0  0  0  0  0  0
  -12.1880  -22.4390   26.9570 C   0  0  0  0  0  3  0  0  0  0  0  0
  -10.0380  -21.0050   29.5560 O   0  0  0  0  0  0  0  0  0  0  0  0
  -10.2120  -21.1920   30.9040 C   0  0  0  0  0  0  0  0  0  0  0  0
  -10.1550  -22.4750   31.4910 C   0  0  0  0  0  3  0  0  0  0  0  0
  -10.2710  -22.6150   32.8890 C   0  0  0  0  0  3  0  0  0  0  0  0
  -10.4330  -21.4760   33.6990 C   0  0  0  0  0  0  0  0  0  0  0  0
  -10.4860  -20.1980   33.1170 C   0  0  0  0  0  3  0  0  0  0  0  0
  -10.3720  -20.0560   31.7220 C   0  0  0  0  0  0  0  0  0  0  0  0
  -10.4010  -18.8210   31.1690 F   0  0  0  0  0  0  0  0  0  0  0  0
  -10.5370  -21.6090   35.0430 F   0  0  0  0  0  0  0  0  0  0  0  0
  -16.3130  -20.5000   26.8990 C   0  0  0  0  0  0  0  0  0  0  0  0
  -15.5900  -19.6530   27.6210 N   0  0  0  0  0  0  0  0  0  0  0  0
  -17.5260  -20.6140   27.0790 O   0  0  0  0  0  0  0  0  0  0  0  0
  -14.5990  -19.5420   27.4600 H   0  0  0  0  0  0  0  0  0  0  0  0
  -16.0330  -19.1040   28.3450 H   0  0  0  0  0  0  0  0  0  0  0  0
  -17.4860  -21.8390   24.2160 N   0  0  0  0  0  0  0  0  0  0  0  0
  -18.2520  -21.3880   24.7040 H   0  0  0  0  0  0  0  0  0  0  0  0
  -17.7810  -22.3390   23.3870 H   0  0  0  0  0  0  0  0  0  0  0  0
  -20.6810  -26.8610   23.7770 C   0  0  0  0  0  2  0  0  0  0  0  0
  -21.5900  -28.0810   23.5140 C   0  0  0  0  0  2  0  0  0  0  0  0
  -23.0820  -27.7350   23.6320 C   0  0  0  0  0  3  0  0  0  0  0  0
  -23.9970  -28.9790   23.6070 C   0  0  0  0  0  2  0  0  0  0  0  0
  -24.8350  -29.0910   22.3230 C   0  0  0  0  0  2  0  0  0  0  0  0
  -26.3600  -29.0500   22.5650 C   0  0  0  0  0  2  0  0  0  0  0  0
  -26.8310  -28.3880   23.8870 C   0  0  0  0  0  3  0  0  0  0  0  0
  -26.1350  -27.0480   24.1900 C   0  0  0  0  0  3  0  0  0  0  0  0
  -26.3560  -26.5370   25.5200 O   0  0  0  0  0  0  0  0  0  0  0  0
  -27.1380  -27.4770   26.2610 C   0  0  0  0  0  2  0  0  0  0  0  0
  -27.4290  -28.9040   25.7080 C   0  0  0  0  0  1  0  0  0  0  0  0
  -27.5320  -28.9790   24.2620 O   0  0  0  0  0  0  0  0  0  0  0  0
  -32.4480  -33.8060   26.0200 C   0  0  0  0  0  0  0  0  0  0  0  0
  -28.5120  -29.8350   23.8110 C   0  0  0  0  0  0  0  0  0  0  0  0
  -31.6550  -33.8470   23.6810 C   0  0  0  0  0  3  0  0  0  0  0  0
  -30.3110  -31.8180   22.9300 C   0  0  0  0  0  0  0  0  0  0  0  0
  -31.6680  -31.6640   25.0200 C   0  0  0  0  0  2  0  0  0  0  0  0
  -30.4880  -31.2180   24.1840 C   0  0  0  0  0  0  0  0  0  0  0  0
  -29.5850  -30.2300   24.6380 C   0  0  0  0  0  3  0  0  0  0  0  0
  -28.4040  -30.3810   22.5130 C   0  0  0  0  0  3  0  0  0  0  0  0
  -29.2640  -31.4070   22.0930 C   0  0  0  0  0  3  0  0  0  0  0  0
  -31.3010  -32.8810   22.5200 C   0  0  0  0  0  2  0  0  0  0  0  0
  -31.9240  -33.1250   24.9650 N   0  0  0  0  0  0  0  0  0  0  0  0
  -32.7480  -35.0060   25.9260 O   0  0  0  0  0  0  0  0  0  0  0  0
  -30.5450  -34.9130   23.7990 C   0  0  0  0  0  0  0  0  0  0  0  0
  -30.0270  -35.3540   22.6410 N   0  0  0  0  0  0  0  0  0  0  0  0
  -30.1510  -35.3050   24.9030 O   0  0  0  0  0  0  0  0  0  0  0  0
  -30.4040  -34.9790   21.7810 H   0  0  0  0  0  0  0  0  0  0  0  0
  -28.0800  -37.8310   24.4080 C   0  0  0  0  0  0  0  0  0  0  0  0
  -28.9480  -36.3300   22.5000 C   0  0  0  0  0  3  0  0  0  0  0  0
  -29.4600  -37.6270   21.8280 C   0  0  0  0  0  2  0  0  0  0  0  0
  -29.8850  -38.6940   22.8420 C   0  0  0  0  0  2  0  0  0  0  0  0
  -28.7170  -39.0570   23.7720 C   0  0  0  0  0  2  0  0  0  0  0  0
  -28.2060  -36.5440   23.8220 C   0  0  0  0  0  0  0  0  0  0  0  0
  -27.6290  -35.4330   24.4780 C   0  0  0  0  0  3  0  0  0  0  0  0
  -26.9430  -35.5910   25.6970 C   0  0  0  0  0  3  0  0  0  0  0  0
  -26.8100  -36.8690   26.2660 C   0  0  0  0  0  3  0  0  0  0  0  0
  -27.3760  -37.9810   25.6200 C   0  0  0  0  0  3  0  0  0  0  0  0
  -32.7180  -33.1030   27.3880 C   0  0  0  0  0  3  0  0  0  0  0  0
  -33.0670  -34.1480   28.3560 N   0  0  0  0  0  0  0  0  0  0  0  0
  -33.9620  -35.1210   28.1300 C   0  0  0  0  0  0  0  0  0  0  0  0
  -34.6380  -35.1860   27.1000 O   0  0  0  0  0  0  0  0  0  0  0  0
  -32.5130  -34.1910   29.1980 H   0  0  0  0  0  0  0  0  0  0  0  0
  -32.9690  -37.1960   29.1430 C   0  0  0  0  0  1  0  0  0  0  0  0
  -34.1300  -36.1920   29.2240 C   0  0  0  0  0  3  0  0  0  0  0  0
  -36.5710  -36.0630   29.4460 C   0  0  0  0  0  1  0  0  0  0  0  0
  -35.4200  -36.9120   29.1500 N   0  0  0  0  0  0  0  0  0  0  0  0
  -35.4290  -37.6950   29.8000 H   0  0  0  0  0  0  0  0  0  0  0  0
  -31.4930  -32.2540   27.9040 C   0  0  1  0  0  0  0  0  0  0  0  0
  -30.1400  -32.9920   27.7780 C   0  0  0  0  0  1  0  0  0  0  0  0
  -31.3830  -30.9210   27.1270 C   0  0  0  0  0  1  0  0  0  0  0  0
  -31.6980  -31.8820   29.3930 C   0  0  0  0  0  1  0  0  0  0  0  0
  2  4  2  0
  3  1  1  0
  3  2  1  0
  6  7  1  0
  6 61  1  0
  6  2  1  0
  7  8  1  0
  9  7  1  0
 10 11  1  0
 10  7  1  0
 12 13  1  0
 12 11  1  0
 14 13  1  0
 15 24  1  0
 15 14  1  0
 16 22  1  0
 16 24  1  0
 17 18  1  0
 17 22  1  0
 18 19  1  0
 20 19  1  0
 20 29  1  0
 21 20  1  0
 22 21  1  0
 23 16  2  0
 24 25  1  0
 26 27  2  0
 27 46  1  0
 28 27  1  0
 28 31  1  0
 29 30  1  0
 29 26  1  0
 30 28  2  0
 31 36  2  0
 31 32  1  0
 32 33  2  0
 33 34  1  0
 34 37  1  0
 35 34  2  0
 36 35  1  0
 37 38  1  0
 38 39  2  0
 38 43  1  0
 39 40  1  0
 40 41  2  0
 41 45  1  0
 42 41  1  0
 43 42  2  0
 44 43  1  0
 46 48  2  0
 46 47  1  0
 47 50  1  0
 49 47  1  0
 51 52  1  0
 51 26  1  0
 53 51  1  0
 54  1  1  0
 55 56  1  0
 55 54  1  0
 56  5  1  0
 57 56  1  0
 58 59  1  0
 58 57  1  0
 59 60  1  0
 60 61  1  0
 60 65  1  0
 61 62  1  0
 62 63  1  0
 64 63  1  0
 67 65  1  0
 67 72  1  0
 68 78  1  0
 68 76  1  0
 69 71  1  0
 71 72  2  0
 71 70  1  0
 73 67  2  0
 74 73  1  0
 74 69  2  0
 75 69  1  0
 75 68  1  0
 76 70  1  0
 76 66  1  0
 77 66  2  0
 78 80  2  0
 79 78  1  0
 81 79  1  0
 82 91  1  0
 83 79  1  0
 83 87  1  0
 84 83  1  0
 84 85  1  0
 85 86  1  0
 86 82  1  0
 87 82  2  0
 87 88  1  0
 88 89  2  0
 89 90  1  0
 91 90  2  0
 92 66  1  0
 92102  1  0
 92 93  1  0
 93 96  1  0
 94 93  1  0
 94 98  1  0
 95 94  2  0
 98 97  1  0
100 98  1  0
100 99  1  0
100101  1  0
102105  1  1
103102  1  0
104102  1  0
M  ISO  4  16 100  24 100  64 101  65 101
M  END
>  <TORSDO>  (54) 
F 36

>  <SCORE>  (54) 
4.520

>  <name>  (54) 
58

>  <ligand_id>  (54) 
58

>  <original_smiles>  (54) 
[H]c1c([H])c([H])c2c(c1[H])C([H])([H])C([H])([H])C([H])([H])C2([H])N([H])C(=O)C1([H])N(C(=O)C([H])(N([H])C(=O)C([H])(N([H])C([H])([H])[H])C([H])([H])[H])C(C([H])([H])[H])(C([H])([H])[H])C([H])([H])[H])C([H])([H])c2c([H])c(OC([H])([H])C([H])([H])OC([H])([H])C([H])([H])C([H])([H])C([H])([H])C([H])([H])C([H])([H])C([H])([H])C([H])([H])C([H])([H])N([H])C(=O)C([H])([H])[N+]([H])([H])C([H])([H])C([H])([H])C([H])([H])C([H])([H])C([H])([H])C([H])([H])N([H])C(=O)N3C([H])([H])C([H])([H])C([H])([H])C([H])(n4nc(-c5c([H])c([H])c(Oc6c([H])c([H])c(F)c([H])c6F)c([H])c5[H])c(C(=O)N([H])[H])c4N([H])[H])C3([H])[H])c([H])c([H])c2C1([H])[H]

>  <smiles>  (54) 
[H]c1c([H])c([H])c2c(c1[H])C([H])([H])C([H])([H])C([H])([H])C2([H])N([H])C(=O)C1([H])N(C(=O)C([H])(N([H])C(=O)C([H])(N([H])C([H])([H])[H])C([H])([H])[H])C(C([H])([H])[H])(C([H])([H])[H])C([H])([H])[H])C([H])([H])c2c([H])c(OC([H])([H])C([H])([H])OC([H])([H])C([H])([H])C([H])([H])C([H])([H])C([H])([H])C([H])([H])C([H])([H])C([H])([H])C([H])([H])N([H])C(=O)C([H])([H])[N+]([H])([H])C([H])([H])C([H])([H])C([H])([H])C([H])([H])C([H])([H])C([H])([H])N([H])C(=O)N3C([H])([H])C([H])([H])C([H])([H])C([H])(n4nc(-c5c([H])c([H])c(Oc6c([H])c([H])c(F)c([H])c6F)c([H])c5[H])c(C(=O)N([H])[H])c4N([H])[H])C3([H])[H])c([H])c([H])c2C1([H])[H]

$$$$
59:0:0
     RDKit          3D

102109  0  0  1  0  0  0  0  0999 V2000
  -32.0800  -21.8520   17.9580 C   0  0  0  0  0  0  0  0  0  0  0  0
  -31.2330  -22.1560   18.9530 N   0  0  0  0  0  0  0  0  0  0  0  0
  -32.8030  -22.6820   17.4010 O   0  0  0  0  0  0  0  0  0  0  0  0
  -30.6810  -21.3760   19.2860 H   0  0  0  0  0  0  0  0  0  0  0  0
  -31.0080  -23.4750   19.5470 C   0  0  0  0  0  2  0  0  0  0  0  0
  -31.3060  -23.4840   21.0640 C   0  0  0  0  0  2  0  0  0  0  0  0
  -30.0970  -23.1700   21.9670 C   0  0  0  0  0  2  0  0  0  0  0  0
  -29.5060  -24.3530   22.5070 O   0  0  0  0  0  0  0  0  0  0  0  0
  -28.4400  -24.9370   21.7580 C   0  0  0  0  0  2  0  0  0  0  0  0
  -28.9010  -26.1690   20.9590 C   0  0  0  0  0  2  0  0  0  0  0  0
  -28.0210  -26.3890   19.8610 O   0  0  0  0  0  0  0  0  0  0  0  0
  -24.5310  -31.7070   23.1910 C   0  0  0  0  0  0  0  0  0  0  0  0
  -26.9160  -27.1940   20.0250 C   0  0  0  0  0  0  0  0  0  0  0  0
  -23.2310  -30.3920   21.5490 C   0  0  0  0  0  3  0  0  0  0  0  0
  -24.5850  -28.7870   20.1040 C   0  0  0  0  0  0  0  0  0  0  0  0
  -25.7660  -30.6230   21.3200 C   0  0  0  0  0  2  0  0  0  0  0  0
  -25.7720  -29.2500   20.6830 C   0  0  0  0  0  0  0  0  0  0  0  0
  -26.9400  -28.4590   20.6560 C   0  0  0  0  0  3  0  0  0  0  0  0
  -25.7140  -26.7440   19.4440 C   0  0  0  0  0  3  0  0  0  0  0  0
  -24.5450  -27.5260   19.4860 C   0  0  0  0  0  3  0  0  0  0  0  0
  -23.3900  -29.7100   20.1650 C   0  0  0  0  0  2  0  0  0  0  0  0
  -24.5290  -30.9240   22.0770 N   0  0  0  0  0  0  0  0  0  0  0  0
  -23.4740  -32.0270   23.7520 O   0  0  0  0  0  0  0  0  0  0  0  0
  -22.5390  -29.3960   22.5060 C   0  0  0  0  0  0  0  0  0  0  0  0
  -21.2040  -29.2890   22.3980 N   0  0  0  0  0  0  0  0  0  0  0  0
  -23.1990  -28.7230   23.3010 O   0  0  0  0  0  0  0  0  0  0  0  0
  -20.7300  -29.8810   21.7310 H   0  0  0  0  0  0  0  0  0  0  0  0
  -17.7790  -28.2730   22.9330 C   0  0  0  0  0  0  0  0  0  0  0  0
  -20.3510  -28.3850   23.1700 C   0  0  0  0  0  3  0  0  0  0  0  0
  -20.3650  -26.9580   22.5740 C   0  0  0  0  0  2  0  0  0  0  0  0
  -19.2330  -26.7100   21.5730 C   0  0  0  0  0  2  0  0  0  0  0  0
  -17.8710  -26.9250   22.2370 C   0  0  0  0  0  2  0  0  0  0  0  0
  -18.9440  -28.9640   23.3560 C   0  0  0  0  0  0  0  0  0  0  0  0
  -18.8070  -30.2310   23.9660 C   0  0  0  0  0  3  0  0  0  0  0  0
  -17.5380  -30.8060   24.1530 C   0  0  0  0  0  3  0  0  0  0  0  0
  -16.3840  -30.1080   23.7530 C   0  0  0  0  0  3  0  0  0  0  0  0
  -16.5070  -28.8410   23.1490 C   0  0  0  0  0  3  0  0  0  0  0  0
  -25.8580  -32.2630   23.7980 C   0  0  0  0  0  3  0  0  0  0  0  0
  -25.6280  -33.6680   24.1640 N   0  0  0  0  0  0  0  0  0  0  0  0
  -25.9960  -34.7170   23.4140 C   0  0  0  0  0  0  0  0  0  0  0  0
  -26.6410  -34.6000   22.3700 O   0  0  0  0  0  0  0  0  0  0  0  0
  -25.0680  -33.8380   24.9870 H   0  0  0  0  0  0  0  0  0  0  0  0
  -24.3460  -36.5890   23.1260 C   0  0  0  0  0  1  0  0  0  0  0  0
  -25.5830  -36.1180   23.9070 C   0  0  0  0  0  3  0  0  0  0  0  0
  -27.7800  -36.8810   24.7000 C   0  0  0  0  0  1  0  0  0  0  0  0
  -26.6620  -37.1240   23.7900 N   0  0  0  0  0  0  0  0  0  0  0  0
  -26.3040  -38.0570   23.9680 H   0  0  0  0  0  0  0  0  0  0  0  0
  -26.3640  -31.4370   25.0430 C   0  0  1  0  0  0  0  0  0  0  0  0
  -25.2860  -31.2280   26.1310 C   0  0  0  0  0  1  0  0  0  0  0  0
  -26.8690  -30.0410   24.6060 C   0  0  0  0  0  1  0  0  0  0  0  0
  -27.5720  -32.1540   25.6930 C   0  0  0  0  0  1  0  0  0  0  0  0
  -32.1140  -20.3680   17.5390 C   0  0  0  0  0  2  0  0  0  0  0  0
  -30.8650  -19.7180   17.7940 O   0  0  0  0  0  0  0  0  0  0  0  0
  -29.8320  -20.0270   16.8560 C   0  0  0  0  0  2  0  0  0  0  0  0
  -28.5310  -19.3240   17.2850 C   0  0  0  0  0  2  0  0  0  0  0  0
  -28.2470  -19.4860   18.6700 O   0  0  0  0  0  0  0  0  0  0  0  0
  -27.9590  -20.8140   19.0960 C   0  0  0  0  0  2  0  0  0  0  0  0
  -27.8430  -20.8190   20.6330 C   0  0  0  0  0  2  0  0  0  0  0  0
  -29.0910  -20.9210   21.3210 O   0  0  0  0  0  0  0  0  0  0  0  0
  -30.0590  -19.9080   21.0480 C   0  0  0  0  0  2  0  0  0  0  0  0
  -29.5980  -18.4840   21.4420 C   0  0  0  0  0  2  0  0  0  0  0  0
  -30.6860  -17.5970   21.7250 O   0  0  0  0  0  0  0  0  0  0  0  0
  -31.6000  -17.3340   20.6580 C   0  0  0  0  0  2  0  0  0  0  0  0
  -31.0120  -16.4470   19.5470 C   0  0  0  0  0  2  0  0  0  0  0  0
  -31.3070  -13.9730   19.6850 C   0  0  0  0  0  0  0  0  0  0  0  0
  -30.8740  -11.6570   18.9700 C   0  0  0  0  0  2  0  0  0  0  0  0
  -29.8900  -11.6950   17.7810 C   0  0  0  0  0  2  0  0  0  0  0  0
  -28.4360  -11.6870   18.2930 C   0  0  0  0  0  2  0  0  0  0  0  0
  -28.1840  -12.7640   19.3790 C   0  0  0  0  0  3  0  0  0  0  0  0
  -29.2780  -12.7070   20.4710 C   0  0  0  0  0  2  0  0  0  0  0  0
  -30.5880  -12.8270   19.8140 N   0  0  0  0  0  0  0  0  0  0  0  0
  -32.4120  -14.0190   19.1400 O   0  0  0  0  0  0  0  0  0  0  0  0
  -30.6580  -15.1000   20.0160 N   0  0  0  0  0  0  0  0  0  0  0  0
  -29.7610  -15.0020   20.4680 H   0  0  0  0  0  0  0  0  0  0  0  0
  -25.9190  -13.6290   20.2480 C   0  0  0  0  0  0  0  0  0  0  0  0
  -24.8000  -12.9770   20.6870 C   0  0  0  0  0  0  0  0  0  0  0  0
  -25.1050  -11.5830   20.6260 C   0  0  0  0  0  0  0  0  0  0  0  0
  -26.8450  -12.6410   19.9480 N   0  0  0  0  0  0  0  0  0  0  0  0
  -26.3590  -11.4060   20.2330 N   0  0  0  0  0  0  0  0  0  0  0  0
  -24.2560  -10.4080   20.8620 C   0  0  0  0  0  0  0  0  0  0  0  0
  -24.6310   -9.3960   21.7750 C   0  0  0  0  0  3  0  0  0  0  0  0
  -23.7860   -8.2860   21.9990 C   0  0  0  0  0  3  0  0  0  0  0  0
  -22.5550   -8.1810   21.3090 C   0  0  0  0  0  0  0  0  0  0  0  0
  -22.1980   -9.1800   20.3860 C   0  0  0  0  0  3  0  0  0  0  0  0
  -23.0410  -10.2810   20.1610 C   0  0  0  0  0  3  0  0  0  0  0  0
  -21.6840   -7.1260   21.4440 O   0  0  0  0  0  0  0  0  0  0  0  0
  -21.5960   -6.4110   22.6120 C   0  0  0  0  0  0  0  0  0  0  0  0
  -21.2990   -7.0310   23.8440 C   0  0  0  0  0  3  0  0  0  0  0  0
  -21.1490   -6.2510   25.0060 C   0  0  0  0  0  3  0  0  0  0  0  0
  -21.2870   -4.8510   24.9380 C   0  0  0  0  0  0  0  0  0  0  0  0
  -21.5780   -4.2310   23.7100 C   0  0  0  0  0  3  0  0  0  0  0  0
  -21.7280   -5.0080   22.5500 C   0  0  0  0  0  0  0  0  0  0  0  0
  -21.9890   -4.4040   21.3650 F   0  0  0  0  0  0  0  0  0  0  0  0
  -21.1330   -4.0990   26.0540 F   0  0  0  0  0  0  0  0  0  0  0  0
  -23.4840  -13.6030   21.0560 C   0  0  0  0  0  0  0  0  0  0  0  0
  -22.7490  -12.9960   21.9790 N   0  0  0  0  0  0  0  0  0  0  0  0
  -23.1260  -14.6700   20.5560 O   0  0  0  0  0  0  0  0  0  0  0  0
  -23.0520  -12.1300   22.4000 H   0  0  0  0  0  0  0  0  0  0  0  0
  -21.8720  -13.4080   22.2710 H   0  0  0  0  0  0  0  0  0  0  0  0
  -26.2220  -14.9730   20.0610 N   0  0  0  0  0  0  0  0  0  0  0  0
  -25.5270  -15.6980   20.1980 H   0  0  0  0  0  0  0  0  0  0  0  0
  -27.0830  -15.3200   19.6590 H   0  0  0  0  0  0  0  0  0  0  0  0
  1  2  1  0
  2  4  1  0
  2  5  1  0
  3  1  2  0
  5  6  1  0
  6  7  1  0
  7  8  1  0
  9  8  1  0
 10  9  1  0
 11 13  1  0
 11 10  1  0
 12 23  2  0
 13 18  1  0
 14 22  1  0
 14 24  1  0
 15 21  1  0
 15 17  1  0
 16 22  1  0
 17 16  1  0
 18 17  2  0
 19 20  1  0
 19 13  2  0
 20 15  2  0
 21 14  1  0
 22 12  1  0
 24 26  2  0
 25 24  1  0
 27 25  1  0
 28 37  2  0
 28 33  1  0
 29 25  1  0
 29 33  1  0
 30 29  1  0
 31 32  1  0
 31 30  1  0
 32 28  1  0
 33 34  2  0
 34 35  1  0
 36 35  2  0
 37 36  1  0
 38 12  1  0
 38 39  1  0
 38 48  1  0
 39 42  1  0
 40 44  1  0
 40 39  1  0
 41 40  2  0
 44 43  1  0
 46 44  1  0
 46 47  1  0
 46 45  1  0
 48 51  1  1
 48 49  1  0
 50 48  1  0
 52 53  1  0
 52  1  1  0
 54 55  1  0
 54 53  1  0
 55 56  1  0
 56 57  1  0
 57 58  1  0
 58 59  1  0
 60 59  1  0
 60 61  1  0
 61 62  1  0
 63 62  1  0
 64 73  1  0
 64 63  1  0
 65 71  1  0
 65 73  1  0
 66 71  1  0
 67 68  1  0
 67 66  1  0
 69 68  1  0
 69 78  1  0
 69 70  1  0
 71 70  1  0
 72 65  2  0
 73 74  1  0
 75 76  2  0
 76 95  1  0
 77 76  1  0
 77 80  1  0
 78 79  1  0
 78 75  1  0
 79 77  2  0
 80 81  1  0
 81 82  2  0
 83 86  1  0
 83 82  1  0
 84 83  2  0
 85 84  1  0
 85 80  2  0
 86 87  1  0
 87 88  1  0
 88 89  2  0
 90 89  1  0
 90 94  1  0
 91 90  2  0
 92 87  2  0
 92 91  1  0
 93 92  1  0
 95 96  1  0
 96 99  1  0
 96 98  1  0
 97 95  2  0
100101  1  0
100 75  1  0
102100  1  0
M  ISO  4  10 101  11 101  65 100  73 100
M  END
>  <TORSDO>  (55) 
F 35

>  <SCORE>  (55) 
-9.393

>  <name>  (55) 
59

>  <ligand_id>  (55) 
59

>  <original_smiles>  (55) 
[H]c1c([H])c([H])c2c(c1[H])C([H])([H])C([H])([H])C([H])([H])C2([H])N([H])C(=O)C1([H])N(C(=O)C([H])(N([H])C(=O)C([H])(N([H])C([H])([H])[H])C([H])([H])[H])C(C([H])([H])[H])(C([H])([H])[H])C([H])([H])[H])C([H])([H])c2c([H])c(OC([H])([H])C([H])([H])OC([H])([H])C([H])([H])C([H])([H])N([H])C(=O)C([H])([H])OC([H])([H])C([H])([H])OC([H])([H])C([H])([H])OC([H])([H])C([H])([H])OC([H])([H])C([H])([H])N([H])C(=O)N3C([H])([H])C([H])([H])C([H])([H])C([H])(n4nc(-c5c([H])c([H])c(Oc6c([H])c([H])c(F)c([H])c6F)c([H])c5[H])c(C(=O)N([H])[H])c4N([H])[H])C3([H])[H])c([H])c([H])c2C1([H])[H]

>  <smiles>  (55) 
[H]c1c([H])c([H])c2c(c1[H])C([H])([H])C([H])([H])C([H])([H])C2([H])N([H])C(=O)C1([H])N(C(=O)C([H])(N([H])C(=O)C([H])(N([H])C([H])([H])[H])C([H])([H])[H])C(C([H])([H])[H])(C([H])([H])[H])C([H])([H])[H])C([H])([H])c2c([H])c(OC([H])([H])C([H])([H])OC([H])([H])C([H])([H])C([H])([H])N([H])C(=O)C([H])([H])OC([H])([H])C([H])([H])OC([H])([H])C([H])([H])OC([H])([H])C([H])([H])OC([H])([H])C([H])([H])N([H])C(=O)N3C([H])([H])C([H])([H])C([H])([H])C([H])(n4nc(-c5c([H])c([H])c(Oc6c([H])c([H])c(F)c([H])c6F)c([H])c5[H])c(C(=O)N([H])[H])c4N([H])[H])C3([H])[H])c([H])c([H])c2C1([H])[H]

$$$$
60:0:0
     RDKit          3D

105112  0  0  1  0  0  0  0  0999 V2000
  -33.4530  -19.9110   23.9330 C   0  0  0  0  0  0  0  0  0  0  0  0
  -32.3610  -20.0530   23.1740 N   0  0  0  0  0  0  0  0  0  0  0  0
  -33.4110  -19.8560   25.1640 O   0  0  0  0  0  0  0  0  0  0  0  0
  -32.5090  -20.1000   22.1730 H   0  0  0  0  0  0  0  0  0  0  0  0
  -30.9750  -20.1230   23.6330 C   0  0  0  0  0  2  0  0  0  0  0  0
  -30.3590  -21.5100   23.3700 C   0  0  0  0  0  2  0  0  0  0  0  0
  -30.2930  -21.8670   21.8670 C   0  0  0  0  0  2  0  0  0  0  0  0
  -29.8530  -23.3180   21.5660 C   0  0  0  0  0  2  0  0  0  0  0  0
  -31.0080  -24.3450   21.5170 C   0  0  0  0  0  2  0  0  0  0  0  0
  -30.5550  -25.7200   21.1760 N   0  0  0  0  0  4  0  0  0  0  0  0
  -31.0720  -26.3400   21.7820 H   0  0  0  0  0  0  0  0  0  0  0  0
  -29.5820  -25.8400   21.4100 H   0  0  0  0  0  0  0  0  0  0  0  0
  -30.8280  -26.2040   19.7950 C   0  0  0  0  0  2  0  0  0  0  0  0
  -29.8610  -25.6680   18.7170 C   0  0  0  0  0  2  0  0  0  0  0  0
  -28.5170  -26.4120   18.6290 C   0  0  0  0  0  2  0  0  0  0  0  0
  -27.8800  -26.4760   19.9010 O   0  0  0  0  0  0  0  0  0  0  0  0
  -24.1760  -32.0590   22.3080 C   0  0  0  0  0  0  0  0  0  0  0  0
  -26.6950  -27.1680   19.8860 C   0  0  0  0  0  0  0  0  0  0  0  0
  -22.8840  -30.3760   21.0310 C   0  0  0  0  0  3  0  0  0  0  0  0
  -24.2690  -28.6050   19.8190 C   0  0  0  0  0  0  0  0  0  0  0  0
  -25.3830  -30.7050   20.6030 C   0  0  0  0  0  2  0  0  0  0  0  0
  -25.4490  -29.2420   20.2230 C   0  0  0  0  0  0  0  0  0  0  0  0
  -26.6630  -28.5250   20.2700 C   0  0  0  0  0  3  0  0  0  0  0  0
  -25.4990  -26.5330   19.4870 C   0  0  0  0  0  3  0  0  0  0  0  0
  -24.2850  -27.2470   19.4550 C   0  0  0  0  0  3  0  0  0  0  0  0
  -23.0140  -29.4510   19.7890 C   0  0  0  0  0  2  0  0  0  0  0  0
  -24.1690  -31.0720   21.3680 N   0  0  0  0  0  0  0  0  0  0  0  0
  -23.1300  -32.4210   22.8630 O   0  0  0  0  0  0  0  0  0  0  0  0
  -22.3150  -29.5460   22.2030 C   0  0  0  0  0  0  0  0  0  0  0  0
  -20.9800  -29.3920   22.2360 N   0  0  0  0  0  0  0  0  0  0  0  0
  -23.0650  -29.0350   23.0390 O   0  0  0  0  0  0  0  0  0  0  0  0
  -20.4350  -29.8560   21.5220 H   0  0  0  0  0  0  0  0  0  0  0  0
  -17.6470  -28.4750   23.2810 C   0  0  0  0  0  0  0  0  0  0  0  0
  -20.2260  -28.6180   23.2190 C   0  0  0  0  0  3  0  0  0  0  0  0
  -20.1990  -27.1160   22.8470 C   0  0  0  0  0  2  0  0  0  0  0  0
  -18.9700  -26.7210   22.0220 C   0  0  0  0  0  2  0  0  0  0  0  0
  -17.6850  -27.0350   22.7920 C   0  0  0  0  0  2  0  0  0  0  0  0
  -18.8390  -29.2230   23.4650 C   0  0  0  0  0  0  0  0  0  0  0  0
  -18.7470  -30.5670   23.8860 C   0  0  0  0  0  3  0  0  0  0  0  0
  -17.4950  -31.1630   24.1220 C   0  0  0  0  0  3  0  0  0  0  0  0
  -16.3170  -30.4140   23.9540 C   0  0  0  0  0  3  0  0  0  0  0  0
  -16.3960  -29.0710   23.5390 C   0  0  0  0  0  3  0  0  0  0  0  0
  -25.4930  -32.7930   22.7140 C   0  0  0  0  0  3  0  0  0  0  0  0
  -25.1140  -34.0220   23.4220 N   0  0  0  0  0  0  0  0  0  0  0  0
  -25.2090  -35.2550   22.9050 C   0  0  0  0  0  0  0  0  0  0  0  0
  -25.6980  -35.4820   21.7950 O   0  0  0  0  0  0  0  0  0  0  0  0
  -24.6530  -33.9100   24.3120 H   0  0  0  0  0  0  0  0  0  0  0  0
  -23.3100  -36.8720   23.2160 C   0  0  0  0  0  1  0  0  0  0  0  0
  -24.6770  -36.4240   23.7570 C   0  0  0  0  0  3  0  0  0  0  0  0
  -26.8050  -37.3220   24.5870 C   0  0  0  0  0  1  0  0  0  0  0  0
  -25.5960  -37.5810   23.8090 N   0  0  0  0  0  0  0  0  0  0  0  0
  -25.1310  -38.3930   24.2090 H   0  0  0  0  0  0  0  0  0  0  0  0
  -26.4520  -31.9070   23.6020 C   0  0  1  0  0  0  0  0  0  0  0  0
  -25.8300  -31.4680   24.9470 C   0  0  0  0  0  1  0  0  0  0  0  0
  -26.8740  -30.6300   22.8380 C   0  0  0  0  0  1  0  0  0  0  0  0
  -27.7500  -32.6890   23.9110 C   0  0  0  0  0  1  0  0  0  0  0  0
  -34.7880  -19.8220   23.1690 C   0  0  0  0  0  2  0  0  0  0  0  0
  -35.9160  -19.5760   24.0260 O   0  0  0  0  0  0  0  0  0  0  0  0
  -36.2290  -18.2080   24.2910 C   0  0  0  0  0  2  0  0  0  0  0  0
  -37.3370  -17.6340   23.3870 C   0  0  0  0  0  2  0  0  0  0  0  0
  -37.3150  -16.0950   23.4620 C   0  0  0  0  0  2  0  0  0  0  0  0
  -38.3940  -15.4110   22.8250 O   0  0  0  0  0  0  0  0  0  0  0  0
  -38.7770  -15.8520   21.5220 C   0  0  0  0  0  2  0  0  0  0  0  0
  -37.6370  -16.0980   20.5120 C   0  0  0  0  0  2  0  0  0  0  0  0
  -37.2950  -17.4830   20.5250 O   0  0  0  0  0  0  0  0  0  0  0  0
  -36.4160  -17.9180   19.4940 C   0  0  0  0  0  2  0  0  0  0  0  0
  -37.1510  -18.0760   18.1490 C   0  0  0  0  0  2  0  0  0  0  0  0
  -39.4120  -18.9680   18.5400 C   0  0  0  0  0  0  0  0  0  0  0  0
  -41.6720  -18.4690   17.6770 C   0  0  0  0  0  2  0  0  0  0  0  0
  -42.1860  -19.6490   16.8230 C   0  0  0  0  0  2  0  0  0  0  0  0
  -41.7200  -19.5180   15.3600 C   0  0  0  0  0  2  0  0  0  0  0  0
  -40.1980  -19.2310   15.2470 C   0  0  0  0  0  3  0  0  0  0  0  0
  -39.7900  -18.0820   16.1950 C   0  0  0  0  0  2  0  0  0  0  0  0
  -40.2050  -18.4370   17.5660 N   0  0  0  0  0  0  0  0  0  0  0  0
  -39.8520  -19.4120   19.6010 O   0  0  0  0  0  0  0  0  0  0  0  0
  -38.1260  -19.1620   18.2380 N   0  0  0  0  0  0  0  0  0  0  0  0
  -37.7440  -19.9200   18.7910 H   0  0  0  0  0  0  0  0  0  0  0  0
  -38.8410  -19.5720   13.0870 C   0  0  0  0  0  0  0  0  0  0  0  0
  -38.9360  -18.9880   11.8540 C   0  0  0  0  0  0  0  0  0  0  0  0
  -39.9920  -18.0310   11.9440 C   0  0  0  0  0  0  0  0  0  0  0  0
  -39.8100  -18.9570   13.8660 N   0  0  0  0  0  0  0  0  0  0  0  0
  -40.4660  -17.9870   13.1810 N   0  0  0  0  0  0  0  0  0  0  0  0
  -40.6160  -17.1980   10.9080 C   0  0  0  0  0  0  0  0  0  0  0  0
  -40.8440  -15.8190   11.1060 C   0  0  0  0  0  3  0  0  0  0  0  0
  -41.4330  -15.0380   10.0890 C   0  0  0  0  0  3  0  0  0  0  0  0
  -41.7950  -15.6330    8.8560 C   0  0  0  0  0  0  0  0  0  0  0  0
  -41.5930  -17.0120    8.6760 C   0  0  0  0  0  3  0  0  0  0  0  0
  -41.0130  -17.7910    9.6920 C   0  0  0  0  0  3  0  0  0  0  0  0
  -42.3910  -14.9530    7.8220 O   0  0  0  0  0  0  0  0  0  0  0  0
  -42.2630  -13.5940    7.6820 C   0  0  0  0  0  0  0  0  0  0  0  0
  -40.9990  -12.9630    7.6180 C   0  0  0  0  0  3  0  0  0  0  0  0
  -40.9180  -11.5730    7.3980 C   0  0  0  0  0  3  0  0  0  0  0  0
  -42.0940  -10.8120    7.2470 C   0  0  0  0  0  0  0  0  0  0  0  0
  -43.3520  -11.4380    7.3170 C   0  0  0  0  0  3  0  0  0  0  0  0
  -43.4340  -12.8250    7.5260 C   0  0  0  0  0  0  0  0  0  0  0  0
  -44.6480  -13.4290    7.5690 F   0  0  0  0  0  0  0  0  0  0  0  0
  -42.0180   -9.4780    7.0310 F   0  0  0  0  0  0  0  0  0  0  0  0
  -38.1500  -19.3510   10.6280 C   0  0  0  0  0  0  0  0  0  0  0  0
  -37.9080  -18.3920    9.7410 N   0  0  0  0  0  0  0  0  0  0  0  0
  -37.7040  -20.4900   10.4770 O   0  0  0  0  0  0  0  0  0  0  0  0
  -38.2570  -17.4520    9.8740 H   0  0  0  0  0  0  0  0  0  0  0  0
  -37.3590  -18.5970    8.9200 H   0  0  0  0  0  0  0  0  0  0  0  0
  -38.0280  -20.5780   13.6050 N   0  0  0  0  0  0  0  0  0  0  0  0
  -37.3530  -21.0680   13.0270 H   0  0  0  0  0  0  0  0  0  0  0  0
  -38.0800  -20.9450   14.5500 H   0  0  0  0  0  0  0  0  0  0  0  0
  1  3  2  0
  2  5  1  0
  2  1  1  0
  4  2  1  0
  6  5  1  0
  7  6  1  0
  8  7  1  0
  9  8  1  0
 10 12  1  0
 10  9  1  0
 10 11  1  0
 13 10  1  0
 14 13  1  0
 15 14  1  0
 15 16  1  0
 17 28  2  0
 18 16  1  0
 18 23  1  0
 19 27  1  0
 19 29  1  0
 20 22  1  0
 21 27  1  0
 22 23  2  0
 22 21  1  0
 24 18  2  0
 25 24  1  0
 25 20  2  0
 26 20  1  0
 26 19  1  0
 27 17  1  0
 29 30  1  0
 29 31  2  0
 32 30  1  0
 33 38  2  0
 33 42  1  0
 34 30  1  0
 34 38  1  0
 35 34  1  0
 36 37  1  0
 36 35  1  0
 37 33  1  0
 38 39  1  0
 39 40  2  0
 41 40  1  0
 42 41  2  0
 43 17  1  0
 43 44  1  0
 43 53  1  0
 44 47  1  0
 45 44  1  0
 45 49  1  0
 46 45  2  0
 49 48  1  0
 49 51  1  0
 51 52  1  0
 51 50  1  0
 53 56  1  1
 53 54  1  0
 55 53  1  0
 57  1  1  0
 57 58  1  0
 58 59  1  0
 60 61  1  0
 60 59  1  0
 62 61  1  0
 63 62  1  0
 64 65  1  0
 64 63  1  0
 66 65  1  0
 67 76  1  0
 67 66  1  0
 68 75  2  0
 70 69  1  0
 71 70  1  0
 72 81  1  0
 72 71  1  0
 72 73  1  0
 73 74  1  0
 74 69  1  0
 74 68  1  0
 76 68  1  0
 76 77  1  0
 78103  1  0
 78 81  1  0
 79 80  1  0
 79 78  2  0
 80 82  2  0
 82 81  1  0
 83 84  1  0
 83 80  1  0
 85 84  2  0
 86 85  1  0
 87 86  2  0
 87 88  1  0
 88 83  2  0
 89 86  1  0
 90 89  1  0
 91 90  1  0
 92 91  2  0
 93 94  2  0
 93 92  1  0
 94 95  1  0
 95 96  1  0
 95 90  2  0
 97 93  1  0
 98 79  1  0
 99101  1  0
 99 98  1  0
100 98  2  0
102 99  1  0
103105  1  0
104103  1  0
M  ISO  4  15 101  16 101  68 100  76 100
M  END
>  <TORSDO>  (56) 
F 36

>  <SCORE>  (56) 
3.408

>  <name>  (56) 
60

>  <ligand_id>  (56) 
60

>  <original_smiles>  (56) 
[H]c1c([H])c([H])c2c(c1[H])C([H])([H])C([H])([H])C([H])([H])C2([H])N([H])C(=O)C1([H])N(C(=O)C([H])(N([H])C(=O)C([H])(N([H])C([H])([H])[H])C([H])([H])[H])C(C([H])([H])[H])(C([H])([H])[H])C([H])([H])[H])C([H])([H])c2c([H])c(OC([H])([H])C([H])([H])C([H])([H])[N+]([H])([H])C([H])([H])C([H])([H])C([H])([H])C([H])([H])C([H])([H])N([H])C(=O)C([H])([H])OC([H])([H])C([H])([H])C([H])([H])OC([H])([H])C([H])([H])OC([H])([H])C([H])([H])N([H])C(=O)N3C([H])([H])C([H])([H])C([H])([H])C([H])(n4nc(-c5c([H])c([H])c(Oc6c([H])c([H])c(F)c([H])c6F)c([H])c5[H])c(C(=O)N([H])[H])c4N([H])[H])C3([H])[H])c([H])c([H])c2C1([H])[H]

>  <smiles>  (56) 
[H]c1c([H])c([H])c2c(c1[H])C([H])([H])C([H])([H])C([H])([H])C2([H])N([H])C(=O)C1([H])N(C(=O)C([H])(N([H])C(=O)C([H])(N([H])C([H])([H])[H])C([H])([H])[H])C(C([H])([H])[H])(C([H])([H])[H])C([H])([H])[H])C([H])([H])c2c([H])c(OC([H])([H])C([H])([H])C([H])([H])[N+]([H])([H])C([H])([H])C([H])([H])C([H])([H])C([H])([H])C([H])([H])N([H])C(=O)C([H])([H])OC([H])([H])C([H])([H])C([H])([H])OC([H])([H])C([H])([H])OC([H])([H])C([H])([H])N([H])C(=O)N3C([H])([H])C([H])([H])C([H])([H])C([H])(n4nc(-c5c([H])c([H])c(Oc6c([H])c([H])c(F)c([H])c6F)c([H])c5[H])c(C(=O)N([H])[H])c4N([H])[H])C3([H])[H])c([H])c([H])c2C1([H])[H]

$$$$
61:0:0
     RDKit          3D

100107  0  0  1  0  0  0  0  0999 V2000
  -31.3780  -19.3050   17.4580 C   0  0  0  0  0  2  0  0  0  0  0  0
  -30.3430  -19.0970   18.4120 O   0  0  0  0  0  0  0  0  0  0  0  0
  -29.0260  -19.2570   17.9050 C   0  0  0  0  0  2  0  0  0  0  0  0
  -28.0850  -19.4860   19.0970 C   0  0  0  0  0  2  0  0  0  0  0  0
  -28.1300  -20.8640   19.4450 O   0  0  0  0  0  0  0  0  0  0  0  0
  -27.7740  -21.1280   20.7940 C   0  0  0  0  0  2  0  0  0  0  0  0
  -27.3280  -22.5920   20.8970 C   0  0  0  0  0  2  0  0  0  0  0  0
  -28.4340  -23.4960   20.8890 O   0  0  0  0  0  0  0  0  0  0  0  0
  -28.0150  -24.7900   20.4640 C   0  0  0  0  0  2  0  0  0  0  0  0
  -28.9400  -25.9380   20.9220 C   0  0  0  0  0  2  0  0  0  0  0  0
  -28.8330  -27.1370   20.1370 O   0  0  0  0  0  0  0  0  0  0  0  0
  -24.6180  -31.9490   23.2920 C   0  0  0  0  0  0  0  0  0  0  0  0
  -27.6190  -27.7870   20.1610 C   0  0  0  0  0  0  0  0  0  0  0  0
  -23.5510  -30.5380   21.5640 C   0  0  0  0  0  3  0  0  0  0  0  0
  -25.1390  -29.1430   20.1420 C   0  0  0  0  0  0  0  0  0  0  0  0
  -26.0560  -31.0490   21.4700 C   0  0  0  0  0  2  0  0  0  0  0  0
  -26.2420  -29.7090   20.7940 C   0  0  0  0  0  0  0  0  0  0  0  0
  -27.4850  -29.0340   20.8080 C   0  0  0  0  0  3  0  0  0  0  0  0
  -26.5050  -27.2540   19.4750 C   0  0  0  0  0  3  0  0  0  0  0  0
  -25.2640  -27.9110   19.4810 C   0  0  0  0  0  3  0  0  0  0  0  0
  -23.8460  -29.9230   20.1710 C   0  0  0  0  0  2  0  0  0  0  0  0
  -24.7560  -31.1930   22.1670 N   0  0  0  0  0  0  0  0  0  0  0  0
  -23.5060  -32.1380   23.8030 O   0  0  0  0  0  0  0  0  0  0  0  0
  -22.9340  -29.4450   22.4650 C   0  0  0  0  0  0  0  0  0  0  0  0
  -21.6240  -29.2010   22.2970 N   0  0  0  0  0  0  0  0  0  0  0  0
  -23.6300  -28.8200   23.2690 O   0  0  0  0  0  0  0  0  0  0  0  0
  -21.1210  -29.7610   21.6230 H   0  0  0  0  0  0  0  0  0  0  0  0
  -18.3030  -27.8270   22.6650 C   0  0  0  0  0  0  0  0  0  0  0  0
  -20.8380  -28.1930   23.0090 C   0  0  0  0  0  3  0  0  0  0  0  0
  -21.0230  -26.7940   22.3760 C   0  0  0  0  0  2  0  0  0  0  0  0
  -19.9600  -26.4640   21.3230 C   0  0  0  0  0  2  0  0  0  0  0  0
  -18.5600  -26.5160   21.9400 C   0  0  0  0  0  2  0  0  0  0  0  0
  -19.3740  -28.6220   23.1530 C   0  0  0  0  0  0  0  0  0  0  0  0
  -19.0820  -29.8490   23.7870 C   0  0  0  0  0  3  0  0  0  0  0  0
  -17.7510  -30.2820   23.9410 C   0  0  0  0  0  3  0  0  0  0  0  0
  -16.6940  -29.4830   23.4710 C   0  0  0  0  0  3  0  0  0  0  0  0
  -16.9710  -28.2580   22.8380 C   0  0  0  0  0  3  0  0  0  0  0  0
  -25.8440  -32.6310   23.9740 C   0  0  0  0  0  3  0  0  0  0  0  0
  -25.4730  -34.0230   24.2610 N   0  0  0  0  0  0  0  0  0  0  0  0
  -25.8120  -35.0710   23.4990 C   0  0  0  0  0  0  0  0  0  0  0  0
  -26.5420  -34.9720   22.5070 O   0  0  0  0  0  0  0  0  0  0  0  0
  -24.8310  -34.1710   25.0250 H   0  0  0  0  0  0  0  0  0  0  0  0
  -24.0430  -36.7920   23.0150 C   0  0  0  0  0  1  0  0  0  0  0  0
  -25.2530  -36.4500   23.8990 C   0  0  0  0  0  3  0  0  0  0  0  0
  -27.3070  -37.4270   24.8210 C   0  0  0  0  0  1  0  0  0  0  0  0
  -26.2520  -37.5370   23.8170 N   0  0  0  0  0  0  0  0  0  0  0  0
  -25.8070  -38.4440   23.9220 H   0  0  0  0  0  0  0  0  0  0  0  0
  -26.3130  -31.8950   25.2900 C   0  0  1  0  0  0  0  0  0  0  0  0
  -25.1690  -31.6350   26.2970 C   0  0  0  0  0  1  0  0  0  0  0  0
  -26.9630  -30.5320   24.9510 C   0  0  0  0  0  1  0  0  0  0  0  0
  -27.3970  -32.7360   26.0040 C   0  0  0  0  0  1  0  0  0  0  0  0
  -31.7880  -20.7890   17.3900 C   0  0  0  0  0  2  0  0  0  0  0  0
  -32.3050  -21.2120   18.6510 O   0  0  0  0  0  0  0  0  0  0  0  0
  -31.3280  -21.8190   19.4930 C   0  0  0  0  0  2  0  0  0  0  0  0
  -31.4010  -21.2420   20.9110 C   0  0  0  0  0  2  0  0  0  0  0  0
  -31.0140  -19.8710   20.8850 O   0  0  0  0  0  0  0  0  0  0  0  0
  -30.8010  -19.3370   22.1840 C   0  0  0  0  0  2  0  0  0  0  0  0
  -30.4670  -17.8450   22.0600 C   0  0  0  0  0  2  0  0  0  0  0  0
  -31.5990  -17.0900   21.4780 N   0  0  0  0  0  4  0  0  0  0  0  0
  -32.4570  -17.4790   21.8400 H   0  0  0  0  0  0  0  0  0  0  0  0
  -31.6250  -17.2310   20.4780 H   0  0  0  0  0  0  0  0  0  0  0  0
  -31.6140  -15.6450   21.7980 C   0  0  0  0  0  2  0  0  0  0  0  0
  -30.7420  -14.1900   19.9910 C   0  0  0  0  0  0  0  0  0  0  0  0
  -30.1890  -12.1730   18.6890 C   0  0  0  0  0  2  0  0  0  0  0  0
  -29.1440  -12.4210   17.5880 C   0  0  0  0  0  2  0  0  0  0  0  0
  -27.7210  -12.2750   18.1550 C   0  0  0  0  0  2  0  0  0  0  0  0
  -27.5110  -13.1100   19.4440 C   0  0  0  0  0  3  0  0  0  0  0  0
  -28.6510  -12.8620   20.4570 C   0  0  0  0  0  2  0  0  0  0  0  0
  -29.9450  -13.1110   19.7920 N   0  0  0  0  0  0  0  0  0  0  0  0
  -31.6270  -14.5410   19.2070 O   0  0  0  0  0  0  0  0  0  0  0  0
  -30.6150  -14.7660   21.1910 N   0  0  0  0  0  0  0  0  0  0  0  0
  -29.9050  -14.3890   21.8000 H   0  0  0  0  0  0  0  0  0  0  0  0
  -25.1990  -13.7540   20.3790 C   0  0  0  0  0  0  0  0  0  0  0  0
  -24.1500  -12.9950   20.8280 C   0  0  0  0  0  0  0  0  0  0  0  0
  -24.5770  -11.6360   20.7280 C   0  0  0  0  0  0  0  0  0  0  0  0
  -26.1990  -12.8570   20.0360 N   0  0  0  0  0  0  0  0  0  0  0  0
  -25.8320  -11.5760   20.3010 N   0  0  0  0  0  0  0  0  0  0  0  0
  -23.8440  -10.3850   20.9600 C   0  0  0  0  0  0  0  0  0  0  0  0
  -24.3020   -9.4210   21.8850 C   0  0  0  0  0  3  0  0  0  0  0  0
  -23.5710   -8.2330   22.1030 C   0  0  0  0  0  3  0  0  0  0  0  0
  -22.3670   -8.0020   21.3960 C   0  0  0  0  0  0  0  0  0  0  0  0
  -21.9270   -8.9540   20.4600 C   0  0  0  0  0  3  0  0  0  0  0  0
  -22.6590  -10.1330   20.2410 C   0  0  0  0  0  3  0  0  0  0  0  0
  -21.6040   -6.8650   21.5220 O   0  0  0  0  0  0  0  0  0  0  0  0
  -21.5580   -6.1570   22.6960 C   0  0  0  0  0  0  0  0  0  0  0  0
  -21.1340   -6.7470   23.9070 C   0  0  0  0  0  3  0  0  0  0  0  0
  -21.0330   -5.9650   25.0740 C   0  0  0  0  0  3  0  0  0  0  0  0
  -21.3490   -4.5940   25.0330 C   0  0  0  0  0  0  0  0  0  0  0  0
  -21.7680   -4.0030   23.8270 C   0  0  0  0  0  3  0  0  0  0  0  0
  -21.8680   -4.7830   22.6620 C   0  0  0  0  0  0  0  0  0  0  0  0
  -22.2510   -4.2040   21.4970 F   0  0  0  0  0  0  0  0  0  0  0  0
  -21.2460   -3.8390   26.1520 F   0  0  0  0  0  0  0  0  0  0  0  0
  -22.7950  -13.4960   21.2370 C   0  0  0  0  0  0  0  0  0  0  0  0
  -22.1340  -12.7960   22.1530 N   0  0  0  0  0  0  0  0  0  0  0  0
  -22.3340  -14.5410   20.7810 O   0  0  0  0  0  0  0  0  0  0  0  0
  -22.5210  -11.9520   22.5450 H   0  0  0  0  0  0  0  0  0  0  0  0
  -21.2270  -13.1130   22.4680 H   0  0  0  0  0  0  0  0  0  0  0  0
  -25.3800  -15.1230   20.2210 N   0  0  0  0  0  0  0  0  0  0  0  0
  -24.6480  -15.7950   20.4270 H   0  0  0  0  0  0  0  0  0  0  0  0
  -26.2210  -15.5530   19.8580 H   0  0  0  0  0  0  0  0  0  0  0  0
  1  2  1  0
  3  2  1  0
  3  4  1  0
  4  5  1  0
  5  6  1  0
  6  7  1  0
  8  7  1  0
  9  8  1  0
  9 10  1  0
 11 13  1  0
 11 10  1  0
 12 23  2  0
 13 18  1  0
 14 22  1  0
 14 24  1  0
 15 21  1  0
 15 17  1  0
 16 22  1  0
 17 18  2  0
 17 16  1  0
 19 20  1  0
 19 13  2  0
 20 15  2  0
 21 14  1  0
 22 12  1  0
 24 26  2  0
 25 24  1  0
 27 25  1  0
 28 37  2  0
 28 33  1  0
 29 25  1  0
 29 33  1  0
 30 29  1  0
 31 32  1  0
 31 30  1  0
 32 28  1  0
 33 34  2  0
 34 35  1  0
 36 35  2  0
 37 36  1  0
 38 12  1  0
 38 39  1  0
 38 48  1  0
 39 42  1  0
 40 44  1  0
 40 39  1  0
 41 40  2  0
 44 43  1  0
 46 44  1  0
 46 47  1  0
 46 45  1  0
 48 51  1  1
 48 49  1  0
 50 48  1  0
 52  1  1  0
 52 53  1  0
 53 54  1  0
 54 55  1  0
 56 55  1  0
 56 57  1  0
 58 57  1  0
 59 62  1  0
 59 60  1  0
 59 58  1  0
 61 59  1  0
 63 71  1  0
 64 69  1  0
 65 66  1  0
 65 64  1  0
 67 66  1  0
 67 76  1  0
 67 68  1  0
 69 63  1  0
 69 68  1  0
 70 63  2  0
 71 62  1  0
 71 72  1  0
 73 74  2  0
 74 93  1  0
 75 74  1  0
 75 78  1  0
 76 77  1  0
 76 73  1  0
 77 75  2  0
 78 79  1  0
 79 80  2  0
 81 84  1  0
 81 80  1  0
 82 81  2  0
 83 82  1  0
 83 78  2  0
 84 85  1  0
 85 86  1  0
 86 87  2  0
 88 87  1  0
 88 92  1  0
 89 88  2  0
 90 85  2  0
 90 89  1  0
 91 90  1  0
 93 94  1  0
 94 97  1  0
 94 96  1  0
 95 93  2  0
 98 73  1  0
 98 99  1  0
100 98  1  0
M  ISO  4  10 101  11 101  63 100  71 100
M  END
>  <TORSDO>  (57) 
F 34

>  <SCORE>  (57) 
-9.254

>  <name>  (57) 
61

>  <ligand_id>  (57) 
61

>  <original_smiles>  (57) 
[H]c1c([H])c([H])c2c(c1[H])C([H])([H])C([H])([H])C([H])([H])C2([H])N([H])C(=O)C1([H])N(C(=O)C([H])(N([H])C(=O)C([H])(N([H])C([H])([H])[H])C([H])([H])[H])C(C([H])([H])[H])(C([H])([H])[H])C([H])([H])[H])C([H])([H])c2c([H])c(OC([H])([H])C([H])([H])OC([H])([H])C([H])([H])OC([H])([H])C([H])([H])OC([H])([H])C([H])([H])OC([H])([H])C([H])([H])OC([H])([H])C([H])([H])[N+]([H])([H])C([H])([H])N([H])C(=O)N3C([H])([H])C([H])([H])C([H])([H])C([H])(n4nc(-c5c([H])c([H])c(Oc6c([H])c([H])c(F)c([H])c6F)c([H])c5[H])c(C(=O)N([H])[H])c4N([H])[H])C3([H])[H])c([H])c([H])c2C1([H])[H]

>  <smiles>  (57) 
[H]c1c([H])c([H])c2c(c1[H])C([H])([H])C([H])([H])C([H])([H])C2([H])N([H])C(=O)C1([H])N(C(=O)C([H])(N([H])C(=O)C([H])(N([H])C([H])([H])[H])C([H])([H])[H])C(C([H])([H])[H])(C([H])([H])[H])C([H])([H])[H])C([H])([H])c2c([H])c(OC([H])([H])C([H])([H])OC([H])([H])C([H])([H])OC([H])([H])C([H])([H])OC([H])([H])C([H])([H])OC([H])([H])C([H])([H])OC([H])([H])C([H])([H])[N+]([H])([H])C([H])([H])N([H])C(=O)N3C([H])([H])C([H])([H])C([H])([H])C([H])(n4nc(-c5c([H])c([H])c(Oc6c([H])c([H])c(F)c([H])c6F)c([H])c5[H])c(C(=O)N([H])[H])c4N([H])[H])C3([H])[H])c([H])c([H])c2C1([H])[H]

$$$$
62:0:0
     RDKit          3D

107114  0  0  1  0  0  0  0  0999 V2000
  -35.7200  -25.3810   21.1850 C   0  0  0  0  0  2  0  0  0  0  0  0
  -34.7860  -24.1710   21.0540 C   0  0  0  0  0  0  0  0  0  0  0  0
  -34.2010  -23.9830   19.8640 N   0  0  0  0  0  0  0  0  0  0  0  0
  -34.5760  -23.4430   22.0270 O   0  0  0  0  0  0  0  0  0  0  0  0
  -34.4550  -24.6260   19.1260 H   0  0  0  0  0  0  0  0  0  0  0  0
  -33.1570  -23.0060   19.5650 C   0  0  0  0  0  2  0  0  0  0  0  0
  -31.8120  -23.7280   19.3660 C   0  0  0  0  0  2  0  0  0  0  0  0
  -30.6210  -22.7730   19.1360 C   0  0  0  0  0  2  0  0  0  0  0  0
  -29.3900  -23.4700   18.6830 N   0  0  0  0  0  4  0  0  0  0  0  0
  -29.5750  -23.9190   17.7990 H   0  0  0  0  0  0  0  0  0  0  0  0
  -28.7000  -22.7580   18.4960 H   0  0  0  0  0  0  0  0  0  0  0  0
  -28.7940  -24.4430   19.6350 C   0  0  0  0  0  2  0  0  0  0  0  0
  -28.8050  -25.8760   19.0750 C   0  0  0  0  0  2  0  0  0  0  0  0
  -28.4720  -26.8110   20.0970 O   0  0  0  0  0  0  0  0  0  0  0  0
  -24.6120  -31.8680   23.2080 C   0  0  0  0  0  0  0  0  0  0  0  0
  -27.2620  -27.4710   20.0790 C   0  0  0  0  0  0  0  0  0  0  0  0
  -23.4010  -30.4890   21.5450 C   0  0  0  0  0  3  0  0  0  0  0  0
  -24.8520  -28.9520   20.1130 C   0  0  0  0  0  0  0  0  0  0  0  0
  -25.9230  -30.8430   21.3550 C   0  0  0  0  0  2  0  0  0  0  0  0
  -26.0030  -29.4750   20.7110 C   0  0  0  0  0  0  0  0  0  0  0  0
  -27.2030  -28.7350   20.7040 C   0  0  0  0  0  3  0  0  0  0  0  0
  -26.0880  -26.9470   19.4860 C   0  0  0  0  0  3  0  0  0  0  0  0
  -24.8860  -27.6850   19.5020 C   0  0  0  0  0  3  0  0  0  0  0  0
  -23.6080  -29.8110   20.1620 C   0  0  0  0  0  2  0  0  0  0  0  0
  -24.6630  -31.0810   22.0950 N   0  0  0  0  0  0  0  0  0  0  0  0
  -23.5320  -32.1390   23.7480 O   0  0  0  0  0  0  0  0  0  0  0  0
  -22.7400  -29.4660   22.4980 C   0  0  0  0  0  0  0  0  0  0  0  0
  -21.4130  -29.3030   22.3730 N   0  0  0  0  0  0  0  0  0  0  0  0
  -23.4190  -28.8220   23.3020 O   0  0  0  0  0  0  0  0  0  0  0  0
  -20.9270  -29.8770   21.6980 H   0  0  0  0  0  0  0  0  0  0  0  0
  -18.0280  -28.1360   22.8520 C   0  0  0  0  0  0  0  0  0  0  0  0
  -20.5870  -28.3650   23.1320 C   0  0  0  0  0  3  0  0  0  0  0  0
  -20.6760  -26.9390   22.5430 C   0  0  0  0  0  2  0  0  0  0  0  0
  -19.5740  -26.6380   21.5210 C   0  0  0  0  0  2  0  0  0  0  0  0
  -18.1920  -26.7920   22.1630 C   0  0  0  0  0  2  0  0  0  0  0  0
  -19.1530  -28.8820   23.2930 C   0  0  0  0  0  0  0  0  0  0  0  0
  -18.9450  -30.1430   23.8950 C   0  0  0  0  0  3  0  0  0  0  0  0
  -17.6450  -30.6580   24.0570 C   0  0  0  0  0  3  0  0  0  0  0  0
  -16.5350  -29.9090   23.6310 C   0  0  0  0  0  3  0  0  0  0  0  0
  -16.7270  -28.6480   23.0380 C   0  0  0  0  0  3  0  0  0  0  0  0
  -25.9010  -32.4840   23.8380 C   0  0  0  0  0  3  0  0  0  0  0  0
  -26.4460  -31.6600   25.0690 C   0  0  1  0  0  0  0  0  0  0  0  0
  -25.3740  -31.3680   26.1450 C   0  0  0  0  0  1  0  0  0  0  0  0
  -27.0260  -30.3060   24.6000 C   0  0  0  0  0  1  0  0  0  0  0  0
  -27.6060  -32.4290   25.7450 C   0  0  0  0  0  1  0  0  0  0  0  0
  -25.5880  -33.8630   24.2340 N   0  0  0  0  0  0  0  0  0  0  0  0
  -25.9020  -34.9490   23.5150 C   0  0  0  0  0  0  0  0  0  0  0  0
  -26.5580  -34.8950   22.4710 O   0  0  0  0  0  0  0  0  0  0  0  0
  -25.0080  -33.9780   25.0530 H   0  0  0  0  0  0  0  0  0  0  0  0
  -24.1480  -36.7300   23.2640 C   0  0  0  0  0  1  0  0  0  0  0  0
  -25.4110  -36.3130   24.0360 C   0  0  0  0  0  3  0  0  0  0  0  0
  -27.5590  -37.1810   24.8480 C   0  0  0  0  0  1  0  0  0  0  0  0
  -26.4300  -37.3820   23.9420 N   0  0  0  0  0  0  0  0  0  0  0  0
  -26.0200  -38.2910   24.1400 H   0  0  0  0  0  0  0  0  0  0  0  0
  -35.0750  -26.4170   21.9240 O   0  0  0  0  0  0  0  0  0  0  0  0
  -34.1640  -27.2150   21.1690 C   0  0  0  0  0  2  0  0  0  0  0  0
  -33.0900  -27.7500   22.1210 C   0  0  0  0  0  2  0  0  0  0  0  0
  -32.1510  -26.7120   22.3790 O   0  0  0  0  0  0  0  0  0  0  0  0
  -31.2810  -27.0270   23.4570 C   0  0  0  0  0  2  0  0  0  0  0  0
  -30.0440  -26.1180   23.4300 C   0  0  0  0  0  2  0  0  0  0  0  0
  -30.3770  -24.7790   23.7910 O   0  0  0  0  0  0  0  0  0  0  0  0
  -29.2330  -23.9280   23.8170 C   0  0  0  0  0  2  0  0  0  0  0  0
  -29.5780  -22.5540   24.4160 C   0  0  0  0  0  2  0  0  0  0  0  0
  -30.2180  -21.7080   23.4610 O   0  0  0  0  0  0  0  0  0  0  0  0
  -30.4520  -20.3980   23.9750 C   0  0  0  0  0  2  0  0  0  0  0  0
  -30.9960  -19.4590   22.8840 C   0  0  0  0  0  2  0  0  0  0  0  0
  -31.0550  -18.1270   23.3920 O   0  0  0  0  0  0  0  0  0  0  0  0
  -31.4350  -17.1290   22.4430 C   0  0  0  0  0  2  0  0  0  0  0  0
  -30.2730  -16.7620   21.4960 C   0  0  0  0  0  2  0  0  0  0  0  0
  -30.6980  -14.4310   20.6480 C   0  0  0  0  0  0  0  0  0  0  0  0
  -30.4350  -12.3110   19.4130 C   0  0  0  0  0  2  0  0  0  0  0  0
  -29.5010  -12.5240   18.2030 C   0  0  0  0  0  2  0  0  0  0  0  0
  -28.0200  -12.3760   18.6080 C   0  0  0  0  0  2  0  0  0  0  0  0
  -27.6650  -13.1990   19.8760 C   0  0  0  0  0  3  0  0  0  0  0  0
  -28.6990  -12.9370   20.9930 C   0  0  0  0  0  2  0  0  0  0  0  0
  -30.0380  -13.2570   20.4630 N   0  0  0  0  0  0  0  0  0  0  0  0
  -31.7730  -14.7080   20.1090 O   0  0  0  0  0  0  0  0  0  0  0  0
  -30.0270  -15.3240   21.3880 N   0  0  0  0  0  0  0  0  0  0  0  0
  -29.1630  -14.9890   21.7870 H   0  0  0  0  0  0  0  0  0  0  0  0
  -25.2600  -13.8150   20.5650 C   0  0  0  0  0  0  0  0  0  0  0  0
  -24.1850  -13.0450   20.9160 C   0  0  0  0  0  0  0  0  0  0  0  0
  -24.6380  -11.6900   20.8690 C   0  0  0  0  0  0  0  0  0  0  0  0
  -26.3020  -12.9300   20.3320 N   0  0  0  0  0  0  0  0  0  0  0  0
  -25.9300  -11.6470   20.5710 N   0  0  0  0  0  0  0  0  0  0  0  0
  -23.9040  -10.4290   21.0380 C   0  0  0  0  0  0  0  0  0  0  0  0
  -24.3600   -9.4210   21.9160 C   0  0  0  0  0  3  0  0  0  0  0  0
  -23.6290   -8.2240   22.0750 C   0  0  0  0  0  3  0  0  0  0  0  0
  -22.4270   -8.0270   21.3540 C   0  0  0  0  0  0  0  0  0  0  0  0
  -21.9880   -9.0230   20.4640 C   0  0  0  0  0  3  0  0  0  0  0  0
  -22.7210  -10.2110   20.3030 C   0  0  0  0  0  3  0  0  0  0  0  0
  -21.6630   -6.8860   21.4240 O   0  0  0  0  0  0  0  0  0  0  0  0
  -21.6860   -6.0720   22.5280 C   0  0  0  0  0  0  0  0  0  0  0  0
  -21.4020   -6.5630   23.8220 C   0  0  0  0  0  3  0  0  0  0  0  0
  -21.3670   -5.6790   24.9180 C   0  0  0  0  0  3  0  0  0  0  0  0
  -21.6040   -4.3040   24.7230 C   0  0  0  0  0  0  0  0  0  0  0  0
  -21.8820   -3.8140   23.4350 C   0  0  0  0  0  3  0  0  0  0  0  0
  -21.9190   -4.6960   22.3400 C   0  0  0  0  0  0  0  0  0  0  0  0
  -22.1660   -4.2150   21.0980 F   0  0  0  0  0  0  0  0  0  0  0  0
  -21.5620   -3.4530   25.7740 F   0  0  0  0  0  0  0  0  0  0  0  0
  -22.7860  -13.5230   21.1840 C   0  0  0  0  0  0  0  0  0  0  0  0
  -22.0490  -12.8230   22.0380 N   0  0  0  0  0  0  0  0  0  0  0  0
  -22.3550  -14.5540   20.6680 O   0  0  0  0  0  0  0  0  0  0  0  0
  -22.4090  -11.9890   22.4790 H   0  0  0  0  0  0  0  0  0  0  0  0
  -21.1090  -13.1250   22.2550 H   0  0  0  0  0  0  0  0  0  0  0  0
  -25.4330  -15.1880   20.4110 N   0  0  0  0  0  0  0  0  0  0  0  0
  -24.6700  -15.8460   20.5310 H   0  0  0  0  0  0  0  0  0  0  0  0
  -26.2920  -15.6280   20.1010 H   0  0  0  0  0  0  0  0  0  0  0  0
  1 55  1  0
  2  1  1  0
  2  4  2  0
  3  2  1  0
  5  3  1  0
  6  3  1  0
  7  6  1  0
  8  7  1  0
  9  8  1  0
  9 12  1  0
 10  9  1  0
 11  9  1  0
 13 12  1  0
 13 14  1  0
 15 26  2  0
 16 14  1  0
 16 21  1  0
 17 25  1  0
 17 27  1  0
 18 24  1  0
 18 20  1  0
 19 25  1  0
 20 19  1  0
 21 20  2  0
 22 23  1  0
 22 16  2  0
 23 18  2  0
 24 17  1  0
 25 15  1  0
 27 29  2  0
 28 27  1  0
 30 28  1  0
 31 40  2  0
 31 36  1  0
 32 28  1  0
 32 36  1  0
 33 32  1  0
 34 35  1  0
 34 33  1  0
 35 31  1  0
 36 37  2  0
 37 38  1  0
 39 38  2  0
 40 39  1  0
 41 15  1  0
 41 46  1  0
 41 42  1  0
 42 45  1  1
 42 43  1  0
 44 42  1  0
 46 49  1  0
 47 51  1  0
 47 46  1  0
 48 47  2  0
 51 50  1  0
 53 51  1  0
 53 54  1  0
 53 52  1  0
 56 55  1  0
 56 57  1  0
 57 58  1  0
 58 59  1  0
 60 59  1  0
 60 61  1  0
 61 62  1  0
 62 63  1  0
 64 65  1  0
 64 63  1  0
 66 67  1  0
 66 65  1  0
 68 67  1  0
 69 68  1  0
 70 78  1  0
 71 76  1  0
 72 73  1  0
 72 71  1  0
 74 73  1  0
 74 83  1  0
 74 75  1  0
 76 70  1  0
 76 75  1  0
 77 70  2  0
 78 69  1  0
 78 79  1  0
 80 81  2  0
 81100  1  0
 82 81  1  0
 82 85  1  0
 83 80  1  0
 83 84  1  0
 84 82  2  0
 85 86  1  0
 86 87  2  0
 88 91  1  0
 88 87  1  0
 89 88  2  0
 90 89  1  0
 90 85  2  0
 91 92  1  0
 92 93  1  0
 93 94  2  0
 95 94  1  0
 95 99  1  0
 96 95  2  0
 97 92  2  0
 97 96  1  0
 98 97  1  0
100101  1  0
101104  1  0
101103  1  0
102100  2  0
105106  1  0
105 80  1  0
107105  1  0
M  ISO  4  13 101  14 101  70 100  78 100
M  END
>  <TORSDO>  (58) 
F 38

>  <SCORE>  (58) 
-5.480

>  <name>  (58) 
62

>  <ligand_id>  (58) 
62

>  <original_smiles>  (58) 
[H]c1c([H])c([H])c2c(c1[H])C([H])([H])C([H])([H])C([H])([H])C2([H])N([H])C(=O)C1([H])N(C(=O)C([H])(N([H])C(=O)C([H])(N([H])C([H])([H])[H])C([H])([H])[H])C(C([H])([H])[H])(C([H])([H])[H])C([H])([H])[H])C([H])([H])c2c([H])c(OC([H])([H])C([H])([H])[N+]([H])([H])C([H])([H])C([H])([H])C([H])([H])N([H])C(=O)C([H])([H])OC([H])([H])C([H])([H])OC([H])([H])C([H])([H])OC([H])([H])C([H])([H])OC([H])([H])C([H])([H])OC([H])([H])C([H])([H])N([H])C(=O)N3C([H])([H])C([H])([H])C([H])([H])C([H])(n4nc(-c5c([H])c([H])c(Oc6c([H])c([H])c(F)c([H])c6F)c([H])c5[H])c(C(=O)N([H])[H])c4N([H])[H])C3([H])[H])c([H])c([H])c2C1([H])[H]

>  <smiles>  (58) 
[H]c1c([H])c([H])c2c(c1[H])C([H])([H])C([H])([H])C([H])([H])C2([H])N([H])C(=O)C1([H])N(C(=O)C([H])(N([H])C(=O)C([H])(N([H])C([H])([H])[H])C([H])([H])[H])C(C([H])([H])[H])(C([H])([H])[H])C([H])([H])[H])C([H])([H])c2c([H])c(OC([H])([H])C([H])([H])[N+]([H])([H])C([H])([H])C([H])([H])C([H])([H])N([H])C(=O)C([H])([H])OC([H])([H])C([H])([H])OC([H])([H])C([H])([H])OC([H])([H])C([H])([H])OC([H])([H])C([H])([H])OC([H])([H])C([H])([H])N([H])C(=O)N3C([H])([H])C([H])([H])C([H])([H])C([H])(n4nc(-c5c([H])c([H])c(Oc6c([H])c([H])c(F)c([H])c6F)c([H])c5[H])c(C(=O)N([H])[H])c4N([H])[H])C3([H])[H])c([H])c([H])c2C1([H])[H]

$$$$
63:0:0
     RDKit          3D

116123  0  0  1  0  0  0  0  0999 V2000
  -34.2340  -23.7710   19.1400 C   0  0  0  0  0  2  0  0  0  0  0  0
  -33.0970  -23.7030   18.2850 O   0  0  0  0  0  0  0  0  0  0  0  0
  -33.3840  -23.7140   16.8830 C   0  0  0  0  0  2  0  0  0  0  0  0
  -34.1280  -22.4540   16.4230 C   0  0  0  0  0  0  0  0  0  0  0  0
  -33.8860  -21.3410   17.1110 N   0  0  0  0  0  0  0  0  0  0  0  0
  -34.8920  -22.4910   15.4560 O   0  0  0  0  0  0  0  0  0  0  0  0
  -33.2940  -21.4330   17.9280 H   0  0  0  0  0  0  0  0  0  0  0  0
  -34.4650  -20.0270   16.8890 C   0  0  0  0  0  2  0  0  0  0  0  0
  -34.8820  -19.4540   18.2480 C   0  0  0  0  0  2  0  0  0  0  0  0
  -33.8760  -19.6900   19.2300 O   0  0  0  0  0  0  0  0  0  0  0  0
  -32.7510  -18.8220   19.1680 C   0  0  0  0  0  2  0  0  0  0  0  0
  -31.5070  -19.5370   18.6030 C   0  0  0  0  0  2  0  0  0  0  0  0
  -31.1590  -20.6110   19.4680 O   0  0  0  0  0  0  0  0  0  0  0  0
  -29.8830  -21.1730   19.1900 C   0  0  0  0  0  2  0  0  0  0  0  0
  -29.6600  -22.4100   20.0750 C   0  0  0  0  0  2  0  0  0  0  0  0
  -30.1720  -23.5610   19.4110 O   0  0  0  0  0  0  0  0  0  0  0  0
  -29.9440  -24.7970   20.0870 C   0  0  0  0  0  2  0  0  0  0  0  0
  -28.5330  -25.3770   19.7990 C   0  0  0  0  0  2  0  0  0  0  0  0
  -28.4780  -26.7690   20.1270 O   0  0  0  0  0  0  0  0  0  0  0  0
  -24.6180  -31.8630   23.2060 C   0  0  0  0  0  0  0  0  0  0  0  0
  -27.2700  -27.4420   20.1040 C   0  0  0  0  0  0  0  0  0  0  0  0
  -23.4060  -30.4830   21.5490 C   0  0  0  0  0  3  0  0  0  0  0  0
  -24.8580  -28.9410   20.1110 C   0  0  0  0  0  0  0  0  0  0  0  0
  -25.9320  -30.8290   21.3560 C   0  0  0  0  0  2  0  0  0  0  0  0
  -26.0130  -29.4630   20.7090 C   0  0  0  0  0  0  0  0  0  0  0  0
  -27.2120  -28.7210   20.6990 C   0  0  0  0  0  3  0  0  0  0  0  0
  -26.0910  -26.9260   19.5120 C   0  0  0  0  0  3  0  0  0  0  0  0
  -24.8930  -27.6690   19.5100 C   0  0  0  0  0  3  0  0  0  0  0  0
  -23.6170  -29.8070   20.1630 C   0  0  0  0  0  2  0  0  0  0  0  0
  -24.6710  -31.0720   22.0980 N   0  0  0  0  0  0  0  0  0  0  0  0
  -23.5350  -32.1420   23.7430 O   0  0  0  0  0  0  0  0  0  0  0  0
  -22.7420  -29.4650   22.5030 C   0  0  0  0  0  0  0  0  0  0  0  0
  -21.4140  -29.3020   22.3710 N   0  0  0  0  0  0  0  0  0  0  0  0
  -23.4160  -28.8220   23.3120 O   0  0  0  0  0  0  0  0  0  0  0  0
  -20.9340  -29.8740   21.6900 H   0  0  0  0  0  0  0  0  0  0  0  0
  -18.0250  -28.1410   22.8480 C   0  0  0  0  0  0  0  0  0  0  0  0
  -20.5840  -28.3670   23.1330 C   0  0  0  0  0  3  0  0  0  0  0  0
  -20.6750  -26.9420   22.5420 C   0  0  0  0  0  2  0  0  0  0  0  0
  -19.5720  -26.6400   21.5230 C   0  0  0  0  0  2  0  0  0  0  0  0
  -18.1890  -26.7950   22.1640 C   0  0  0  0  0  2  0  0  0  0  0  0
  -19.1500  -28.8860   23.2900 C   0  0  0  0  0  0  0  0  0  0  0  0
  -18.9440  -30.1480   23.8900 C   0  0  0  0  0  3  0  0  0  0  0  0
  -17.6440  -30.6610   24.0590 C   0  0  0  0  0  3  0  0  0  0  0  0
  -16.5330  -29.9110   23.6340 C   0  0  0  0  0  3  0  0  0  0  0  0
  -16.7250  -28.6540   23.0340 C   0  0  0  0  0  3  0  0  0  0  0  0
  -25.9060  -32.4810   23.8370 C   0  0  0  0  0  3  0  0  0  0  0  0
  -26.4470  -31.6590   25.0710 C   0  0  1  0  0  0  0  0  0  0  0  0
  -25.3740  -31.3680   26.1450 C   0  0  0  0  0  1  0  0  0  0  0  0
  -27.0340  -30.3050   24.6100 C   0  0  0  0  0  1  0  0  0  0  0  0
  -27.6030  -32.4320   25.7470 C   0  0  0  0  0  1  0  0  0  0  0  0
  -25.5870  -33.8600   24.2280 N   0  0  0  0  0  0  0  0  0  0  0  0
  -25.9030  -34.9480   23.5120 C   0  0  0  0  0  0  0  0  0  0  0  0
  -26.5600  -34.8930   22.4700 O   0  0  0  0  0  0  0  0  0  0  0  0
  -25.0000  -33.9720   25.0400 H   0  0  0  0  0  0  0  0  0  0  0  0
  -24.1470  -36.7320   23.2650 C   0  0  0  0  0  1  0  0  0  0  0  0
  -25.4090  -36.3100   24.0350 C   0  0  0  0  0  3  0  0  0  0  0  0
  -27.5560  -37.1810   24.8470 C   0  0  0  0  0  1  0  0  0  0  0  0
  -26.4270  -37.3790   23.9420 N   0  0  0  0  0  0  0  0  0  0  0  0
  -26.0170  -38.2870   24.1420 H   0  0  0  0  0  0  0  0  0  0  0  0
  -33.8590  -24.5130   20.4370 C   0  0  0  0  0  2  0  0  0  0  0  0
  -32.9480  -23.8060   21.2770 O   0  0  0  0  0  0  0  0  0  0  0  0
  -33.4220  -22.5650   21.7840 C   0  0  0  0  0  2  0  0  0  0  0  0
  -32.7560  -22.2970   23.1410 C   0  0  0  0  0  2  0  0  0  0  0  0
  -33.1710  -21.0280   23.6200 O   0  0  0  0  0  0  0  0  0  0  0  0
  -32.2500  -19.9790   23.3550 C   0  0  0  0  0  2  0  0  0  0  0  0
  -31.3290  -19.7840   24.5720 C   0  0  0  0  0  2  0  0  0  0  0  0
  -30.2660  -20.7320   24.5920 O   0  0  0  0  0  0  0  0  0  0  0  0
  -29.2080  -20.3820   23.7150 C   0  0  0  0  0  2  0  0  0  0  0  0
  -28.0230  -21.3470   23.8970 C   0  0  0  0  0  2  0  0  0  0  0  0
  -27.4710  -21.3910   25.2170 O   0  0  0  0  0  0  0  0  0  0  0  0
  -26.9740  -20.1700   25.7720 C   0  0  0  0  0  2  0  0  0  0  0  0
  -26.0110  -19.3870   24.8550 C   0  0  0  0  0  2  0  0  0  0  0  0
  -26.7790  -18.4900   24.0750 O   0  0  0  0  0  0  0  0  0  0  0  0
  -26.0690  -17.7940   23.0620 C   0  0  0  0  0  2  0  0  0  0  0  0
  -26.8810  -17.9770   21.7800 C   0  0  0  0  0  2  0  0  0  0  0  0
  -28.0850  -17.2450   21.9670 O   0  0  0  0  0  0  0  0  0  0  0  0
  -29.0720  -17.5280   20.9950 C   0  0  0  0  0  2  0  0  0  0  0  0
  -30.3140  -16.7040   21.3420 C   0  0  0  0  0  2  0  0  0  0  0  0
  -30.6930  -14.3680   20.6100 C   0  0  0  0  0  0  0  0  0  0  0  0
  -30.4290  -12.2490   19.3920 C   0  0  0  0  0  2  0  0  0  0  0  0
  -29.4880  -12.4760   18.1920 C   0  0  0  0  0  2  0  0  0  0  0  0
  -28.0090  -12.3460   18.6100 C   0  0  0  0  0  2  0  0  0  0  0  0
  -27.6700  -13.1670   19.8810 C   0  0  0  0  0  3  0  0  0  0  0  0
  -28.7040  -12.8710   20.9880 C   0  0  0  0  0  2  0  0  0  0  0  0
  -30.0420  -13.1880   20.4530 N   0  0  0  0  0  0  0  0  0  0  0  0
  -31.7630  -14.6390   20.0560 O   0  0  0  0  0  0  0  0  0  0  0  0
  -30.0240  -15.2760   21.3230 N   0  0  0  0  0  0  0  0  0  0  0  0
  -29.1640  -14.9750   21.7610 H   0  0  0  0  0  0  0  0  0  0  0  0
  -25.2640  -13.8020   20.5580 C   0  0  0  0  0  0  0  0  0  0  0  0
  -24.1840  -13.0370   20.9140 C   0  0  0  0  0  0  0  0  0  0  0  0
  -24.6320  -11.6840   20.8700 C   0  0  0  0  0  0  0  0  0  0  0  0
  -26.3030  -12.9120   20.3340 N   0  0  0  0  0  0  0  0  0  0  0  0
  -25.9220  -11.6310   20.5700 N   0  0  0  0  0  0  0  0  0  0  0  0
  -23.8940  -10.4260   21.0430 C   0  0  0  0  0  0  0  0  0  0  0  0
  -24.3500   -9.4200   21.9230 C   0  0  0  0  0  3  0  0  0  0  0  0
  -23.6220   -8.2220   22.0790 C   0  0  0  0  0  3  0  0  0  0  0  0
  -22.4240   -8.0220   21.3530 C   0  0  0  0  0  0  0  0  0  0  0  0
  -21.9820   -9.0190   20.4670 C   0  0  0  0  0  3  0  0  0  0  0  0
  -22.7120  -10.2100   20.3080 C   0  0  0  0  0  3  0  0  0  0  0  0
  -21.6640   -6.8800   21.4240 O   0  0  0  0  0  0  0  0  0  0  0  0
  -21.6860   -6.0670   22.5290 C   0  0  0  0  0  0  0  0  0  0  0  0
  -21.4040   -6.5590   23.8220 C   0  0  0  0  0  3  0  0  0  0  0  0
  -21.3670   -5.6770   24.9190 C   0  0  0  0  0  3  0  0  0  0  0  0
  -21.6030   -4.3020   24.7280 C   0  0  0  0  0  0  0  0  0  0  0  0
  -21.8830   -3.8100   23.4410 C   0  0  0  0  0  3  0  0  0  0  0  0
  -21.9200   -4.6890   22.3450 C   0  0  0  0  0  0  0  0  0  0  0  0
  -22.1690   -4.2060   21.1040 F   0  0  0  0  0  0  0  0  0  0  0  0
  -21.5620   -3.4530   25.7800 F   0  0  0  0  0  0  0  0  0  0  0  0
  -22.7910  -13.5270   21.1840 C   0  0  0  0  0  0  0  0  0  0  0  0
  -22.0520  -12.8270   22.0390 N   0  0  0  0  0  0  0  0  0  0  0  0
  -22.3630  -14.5620   20.6770 O   0  0  0  0  0  0  0  0  0  0  0  0
  -22.4130  -11.9840   22.4630 H   0  0  0  0  0  0  0  0  0  0  0  0
  -21.1150  -13.1320   22.2630 H   0  0  0  0  0  0  0  0  0  0  0  0
  -25.4360  -15.1680   20.3890 N   0  0  0  0  0  0  0  0  0  0  0  0
  -24.6670  -15.8190   20.4950 H   0  0  0  0  0  0  0  0  0  0  0  0
  -26.2730  -15.5850   20.0030 H   0  0  0  0  0  0  0  0  0  0  0  0
  1 60  1  0
  2  1  1  0
  3  2  1  0
  4  3  1  0
  4  5  1  0
  5  7  1  0
  6  4  2  0
  8  5  1  0
  8  9  1  0
  9 10  1  0
 11 10  1  0
 12 11  1  0
 12 13  1  0
 14 13  1  0
 14 15  1  0
 16 15  1  0
 16 17  1  0
 18 17  1  0
 18 19  1  0
 20 31  2  0
 21 19  1  0
 21 26  1  0
 22 30  1  0
 22 32  1  0
 23 29  1  0
 23 25  1  0
 24 30  1  0
 25 24  1  0
 26 25  2  0
 27 21  2  0
 28 27  1  0
 28 23  2  0
 29 22  1  0
 30 20  1  0
 32 34  2  0
 33 32  1  0
 35 33  1  0
 36 45  2  0
 36 41  1  0
 37 33  1  0
 37 41  1  0
 38 37  1  0
 39 40  1  0
 39 38  1  0
 40 36  1  0
 41 42  2  0
 42 43  1  0
 44 43  2  0
 45 44  1  0
 46 20  1  0
 46 51  1  0
 46 47  1  0
 47 50  1  1
 47 48  1  0
 49 47  1  0
 51 54  1  0
 52 56  1  0
 52 51  1  0
 53 52  2  0
 56 55  1  0
 58 56  1  0
 58 59  1  0
 58 57  1  0
 60 61  1  0
 61 62  1  0
 62 63  1  0
 63 64  1  0
 65 64  1  0
 65 66  1  0
 66 67  1  0
 68 69  1  0
 68 67  1  0
 69 70  1  0
 70 71  1  0
 72 71  1  0
 73 72  1  0
 74 73  1  0
 75 76  1  0
 75 74  1  0
 77 78  1  0
 77 76  1  0
 79 87  1  0
 80 85  1  0
 81 82  1  0
 81 80  1  0
 83 82  1  0
 83 92  1  0
 83 84  1  0
 85 79  1  0
 85 84  1  0
 86 79  2  0
 87 78  1  0
 87 88  1  0
 89 90  2  0
 90109  1  0
 91 90  1  0
 91 94  1  0
 92 89  1  0
 92 93  1  0
 93 91  2  0
 94 95  1  0
 95 96  2  0
 97100  1  0
 97 96  1  0
 98 97  2  0
 99 98  1  0
 99 94  2  0
100101  1  0
101102  1  0
102103  2  0
104103  1  0
104108  1  0
105104  2  0
106101  2  0
106105  1  0
107106  1  0
109110  1  0
110113  1  0
110112  1  0
111109  2  0
114115  1  0
114 89  1  0
116114  1  0
M  ISO  4  18 101  19 101  79 100  87 100
M  END
>  <TORSDO>  (59) 
F 49

>  <SCORE>  (59) 
25.977

>  <name>  (59) 
63

>  <ligand_id>  (59) 
63

>  <original_smiles>  (59) 
[H]c1c([H])c([H])c2c(c1[H])C([H])([H])C([H])([H])C([H])([H])C2([H])N([H])C(=O)C1([H])N(C(=O)C([H])(N([H])C(=O)C([H])(N([H])C([H])([H])[H])C([H])([H])[H])C(C([H])([H])[H])(C([H])([H])[H])C([H])([H])[H])C([H])([H])c2c([H])c(OC([H])([H])C([H])([H])OC([H])([H])C([H])([H])OC([H])([H])C([H])([H])OC([H])([H])C([H])([H])N([H])C(=O)C([H])([H])OC([H])([H])C([H])([H])OC([H])([H])C([H])([H])OC([H])([H])C([H])([H])OC([H])([H])C([H])([H])OC([H])([H])C([H])([H])OC([H])([H])C([H])([H])OC([H])([H])C([H])([H])N([H])C(=O)N3C([H])([H])C([H])([H])C([H])([H])C([H])(n4nc(-c5c([H])c([H])c(Oc6c([H])c([H])c(F)c([H])c6F)c([H])c5[H])c(C(=O)N([H])[H])c4N([H])[H])C3([H])[H])c([H])c([H])c2C1([H])[H]

>  <smiles>  (59) 
[H]c1c([H])c([H])c2c(c1[H])C([H])([H])C([H])([H])C([H])([H])C2([H])N([H])C(=O)C1([H])N(C(=O)C([H])(N([H])C(=O)C([H])(N([H])C([H])([H])[H])C([H])([H])[H])C(C([H])([H])[H])(C([H])([H])[H])C([H])([H])[H])C([H])([H])c2c([H])c(OC([H])([H])C([H])([H])OC([H])([H])C([H])([H])OC([H])([H])C([H])([H])OC([H])([H])C([H])([H])N([H])C(=O)C([H])([H])OC([H])([H])C([H])([H])OC([H])([H])C([H])([H])OC([H])([H])C([H])([H])OC([H])([H])C([H])([H])OC([H])([H])C([H])([H])OC([H])([H])C([H])([H])OC([H])([H])C([H])([H])N([H])C(=O)N3C([H])([H])C([H])([H])C([H])([H])C([H])(n4nc(-c5c([H])c([H])c(Oc6c([H])c([H])c(F)c([H])c6F)c([H])c5[H])c(C(=O)N([H])[H])c4N([H])[H])C3([H])[H])c([H])c([H])c2C1([H])[H]

$$$$
64:0:0
     RDKit          3D

107114  0  0  1  0  0  0  0  0999 V2000
  -27.6010  -25.1950   23.3600 C   0  0  0  0  0  2  0  0  0  0  0  0
  -28.8420  -24.4850   23.3660 O   0  0  0  0  0  0  0  0  0  0  0  0
  -29.5690  -24.5260   22.1420 C   0  0  0  0  0  2  0  0  0  0  0  0
  -30.8610  -23.7010   22.2630 C   0  0  0  0  0  2  0  0  0  0  0  0
  -30.6740  -22.3990   22.8170 O   0  0  0  0  0  0  0  0  0  0  0  0
  -29.6370  -21.6220   22.2290 C   0  0  0  0  0  2  0  0  0  0  0  0
  -29.8170  -20.1420   22.5730 C   0  0  0  0  0  2  0  0  0  0  0  0
  -29.5840  -19.8690   23.9510 O   0  0  0  0  0  0  0  0  0  0  0  0
  -30.7350  -19.9300   24.7940 C   0  0  0  0  0  2  0  0  0  0  0  0
  -31.6660  -18.7180   24.6030 C   0  0  0  0  0  2  0  0  0  0  0  0
  -32.6710  -19.0260   23.6440 O   0  0  0  0  0  0  0  0  0  0  0  0
  -33.4200  -17.9040   23.1790 C   0  0  0  0  0  2  0  0  0  0  0  0
  -32.6080  -17.0920   22.1540 C   0  0  0  0  0  2  0  0  0  0  0  0
  -32.0990  -18.0090   21.1980 O   0  0  0  0  0  0  0  0  0  0  0  0
  -31.3320  -17.4620   20.1360 C   0  0  0  0  0  2  0  0  0  0  0  0
  -29.9990  -16.8090   20.5850 C   0  0  0  0  0  2  0  0  0  0  0  0
  -30.7250  -14.3990   20.5510 C   0  0  0  0  0  0  0  0  0  0  0  0
  -30.4100  -12.2570   19.4130 C   0  0  0  0  0  2  0  0  0  0  0  0
  -29.4880  -12.4980   18.2000 C   0  0  0  0  0  2  0  0  0  0  0  0
  -28.0090  -12.3740   18.6140 C   0  0  0  0  0  2  0  0  0  0  0  0
  -27.6660  -13.2020   19.8820 C   0  0  0  0  0  3  0  0  0  0  0  0
  -28.7070  -12.9590   21.0010 C   0  0  0  0  0  2  0  0  0  0  0  0
  -30.0470  -13.2310   20.4520 N   0  0  0  0  0  0  0  0  0  0  0  0
  -31.8410  -14.5710   20.0620 O   0  0  0  0  0  0  0  0  0  0  0  0
  -30.0090  -15.4130   21.0460 N   0  0  0  0  0  0  0  0  0  0  0  0
  -29.1630  -15.1230   21.5120 H   0  0  0  0  0  0  0  0  0  0  0  0
  -25.2600  -13.8170   20.5680 C   0  0  0  0  0  0  0  0  0  0  0  0
  -24.1840  -13.0450   20.9190 C   0  0  0  0  0  0  0  0  0  0  0  0
  -24.6390  -11.6920   20.8760 C   0  0  0  0  0  0  0  0  0  0  0  0
  -26.3040  -12.9330   20.3410 N   0  0  0  0  0  0  0  0  0  0  0  0
  -25.9310  -11.6500   20.5790 N   0  0  0  0  0  0  0  0  0  0  0  0
  -23.9060  -10.4310   21.0410 C   0  0  0  0  0  0  0  0  0  0  0  0
  -24.3610   -9.4220   21.9180 C   0  0  0  0  0  3  0  0  0  0  0  0
  -23.6290   -8.2250   22.0750 C   0  0  0  0  0  3  0  0  0  0  0  0
  -22.4270   -8.0290   21.3550 C   0  0  0  0  0  0  0  0  0  0  0  0
  -21.9910   -9.0270   20.4650 C   0  0  0  0  0  3  0  0  0  0  0  0
  -22.7240  -10.2150   20.3060 C   0  0  0  0  0  3  0  0  0  0  0  0
  -21.6640   -6.8880   21.4240 O   0  0  0  0  0  0  0  0  0  0  0  0
  -21.6860   -6.0750   22.5280 C   0  0  0  0  0  0  0  0  0  0  0  0
  -21.4020   -6.5650   23.8220 C   0  0  0  0  0  3  0  0  0  0  0  0
  -21.3650   -5.6800   24.9180 C   0  0  0  0  0  3  0  0  0  0  0  0
  -21.6030   -4.3060   24.7230 C   0  0  0  0  0  0  0  0  0  0  0  0
  -21.8820   -3.8160   23.4350 C   0  0  0  0  0  3  0  0  0  0  0  0
  -21.9190   -4.6970   22.3410 C   0  0  0  0  0  0  0  0  0  0  0  0
  -22.1660   -4.2160   21.0990 F   0  0  0  0  0  0  0  0  0  0  0  0
  -21.5620   -3.4540   25.7750 F   0  0  0  0  0  0  0  0  0  0  0  0
  -22.7870  -13.5250   21.1860 C   0  0  0  0  0  0  0  0  0  0  0  0
  -22.0510  -12.8250   22.0430 N   0  0  0  0  0  0  0  0  0  0  0  0
  -22.3550  -14.5560   20.6710 O   0  0  0  0  0  0  0  0  0  0  0  0
  -22.4130  -11.9910   22.4830 H   0  0  0  0  0  0  0  0  0  0  0  0
  -21.1120  -13.1270   22.2620 H   0  0  0  0  0  0  0  0  0  0  0  0
  -25.4350  -15.1870   20.4080 N   0  0  0  0  0  0  0  0  0  0  0  0
  -24.6770  -15.8510   20.5190 H   0  0  0  0  0  0  0  0  0  0  0  0
  -26.2960  -15.6210   20.1010 H   0  0  0  0  0  0  0  0  0  0  0  0
  -26.5940  -24.6750   22.3150 C   0  0  0  0  0  2  0  0  0  0  0  0
  -26.4490  -23.2690   22.4610 O   0  0  0  0  0  0  0  0  0  0  0  0
  -25.5210  -22.6610   21.5660 C   0  0  0  0  0  2  0  0  0  0  0  0
  -25.9070  -22.7880   20.0800 C   0  0  0  0  0  2  0  0  0  0  0  0
  -27.2630  -22.3770   19.8910 O   0  0  0  0  0  0  0  0  0  0  0  0
  -27.6700  -22.2480   18.5240 C   0  0  0  0  0  2  0  0  0  0  0  0
  -27.6720  -23.6050   17.7970 C   0  0  0  0  0  0  0  0  0  0  0  0
  -28.5230  -24.5320   18.2500 N   0  0  0  0  0  0  0  0  0  0  0  0
  -26.8970  -23.8140   16.8620 O   0  0  0  0  0  0  0  0  0  0  0  0
  -29.1120  -24.2790   19.0290 H   0  0  0  0  0  0  0  0  0  0  0  0
  -28.6440  -25.8920   17.7330 C   0  0  0  0  0  2  0  0  0  0  0  0
  -29.1490  -26.8520   18.8240 C   0  0  0  0  0  2  0  0  0  0  0  0
  -28.4000  -26.7510   20.0340 O   0  0  0  0  0  0  0  0  0  0  0  0
  -24.6110  -31.8710   23.2140 C   0  0  0  0  0  0  0  0  0  0  0  0
  -27.2380  -27.4800   20.0620 C   0  0  0  0  0  0  0  0  0  0  0  0
  -23.3960  -30.4950   21.5550 C   0  0  0  0  0  3  0  0  0  0  0  0
  -24.8410  -28.9590   20.1200 C   0  0  0  0  0  0  0  0  0  0  0  0
  -25.9230  -30.8420   21.3640 C   0  0  0  0  0  2  0  0  0  0  0  0
  -25.9990  -29.4780   20.7130 C   0  0  0  0  0  0  0  0  0  0  0  0
  -27.2010  -28.7380   20.6970 C   0  0  0  0  0  3  0  0  0  0  0  0
  -26.0640  -26.9580   19.4850 C   0  0  0  0  0  3  0  0  0  0  0  0
  -24.8630  -27.6910   19.5150 C   0  0  0  0  0  3  0  0  0  0  0  0
  -23.6000  -29.8220   20.1710 C   0  0  0  0  0  2  0  0  0  0  0  0
  -24.6620  -31.0830   22.1030 N   0  0  0  0  0  0  0  0  0  0  0  0
  -23.5320  -32.1460   23.7570 O   0  0  0  0  0  0  0  0  0  0  0  0
  -22.7400  -29.4680   22.5030 C   0  0  0  0  0  0  0  0  0  0  0  0
  -21.4140  -29.3030   22.3770 N   0  0  0  0  0  0  0  0  0  0  0  0
  -23.4210  -28.8220   23.3050 O   0  0  0  0  0  0  0  0  0  0  0  0
  -20.9310  -29.8730   21.6960 H   0  0  0  0  0  0  0  0  0  0  0  0
  -18.0270  -28.1370   22.8510 C   0  0  0  0  0  0  0  0  0  0  0  0
  -20.5870  -28.3660   23.1340 C   0  0  0  0  0  3  0  0  0  0  0  0
  -20.6770  -26.9400   22.5420 C   0  0  0  0  0  2  0  0  0  0  0  0
  -19.5750  -26.6380   21.5230 C   0  0  0  0  0  2  0  0  0  0  0  0
  -18.1930  -26.7920   22.1640 C   0  0  0  0  0  2  0  0  0  0  0  0
  -19.1520  -28.8830   23.2920 C   0  0  0  0  0  0  0  0  0  0  0  0
  -18.9450  -30.1440   23.8900 C   0  0  0  0  0  3  0  0  0  0  0  0
  -17.6450  -30.6580   24.0560 C   0  0  0  0  0  3  0  0  0  0  0  0
  -16.5350  -29.9080   23.6320 C   0  0  0  0  0  3  0  0  0  0  0  0
  -16.7260  -28.6500   23.0340 C   0  0  0  0  0  3  0  0  0  0  0  0
  -25.9030  -32.4830   23.8400 C   0  0  0  0  0  3  0  0  0  0  0  0
  -26.4450  -31.6600   25.0720 C   0  0  1  0  0  0  0  0  0  0  0  0
  -25.3730  -31.3720   26.1480 C   0  0  0  0  0  1  0  0  0  0  0  0
  -27.0260  -30.3040   24.6080 C   0  0  0  0  0  1  0  0  0  0  0  0
  -27.6030  -32.4320   25.7480 C   0  0  0  0  0  1  0  0  0  0  0  0
  -25.5910  -33.8620   24.2340 N   0  0  0  0  0  0  0  0  0  0  0  0
  -25.9030  -34.9480   23.5130 C   0  0  0  0  0  0  0  0  0  0  0  0
  -26.5580  -34.8940   22.4680 O   0  0  0  0  0  0  0  0  0  0  0  0
  -25.0050  -33.9770   25.0480 H   0  0  0  0  0  0  0  0  0  0  0  0
  -24.1490  -36.7330   23.2640 C   0  0  0  0  0  1  0  0  0  0  0  0
  -25.4110  -36.3120   24.0340 C   0  0  0  0  0  3  0  0  0  0  0  0
  -27.5590  -37.1820   24.8460 C   0  0  0  0  0  1  0  0  0  0  0  0
  -26.4300  -37.3800   23.9400 N   0  0  0  0  0  0  0  0  0  0  0  0
  -26.0190  -38.2890   24.1370 H   0  0  0  0  0  0  0  0  0  0  0  0
  1  2  1  0
  3  4  1  0
  3  2  1  0
  4  5  1  0
  6  7  1  0
  6  5  1  0
  7  8  1  0
  8  9  1  0
 10  9  1  0
 11 10  1  0
 12 11  1  0
 13 12  1  0
 14 13  1  0
 15 16  1  0
 15 14  1  0
 16 25  1  0
 17 25  1  0
 18 23  1  0
 19 20  1  0
 19 18  1  0
 21 20  1  0
 21 30  1  0
 21 22  1  0
 23 17  1  0
 23 22  1  0
 24 17  2  0
 25 26  1  0
 27 28  2  0
 28 47  1  0
 29 28  1  0
 29 32  1  0
 30 27  1  0
 30 31  1  0
 31 29  2  0
 32 33  1  0
 33 34  2  0
 35 38  1  0
 35 34  1  0
 36 35  2  0
 37 36  1  0
 37 32  2  0
 38 39  1  0
 39 40  1  0
 40 41  2  0
 42 41  1  0
 42 46  1  0
 43 42  2  0
 44 39  2  0
 44 43  1  0
 45 44  1  0
 47 48  1  0
 48 51  1  0
 48 50  1  0
 49 47  2  0
 52 53  1  0
 52 27  1  0
 54 52  1  0
 55 56  1  0
 55  1  1  0
 57 56  1  0
 58 57  1  0
 59 58  1  0
 60 59  1  0
 61 62  1  0
 61 60  1  0
 62 64  1  0
 63 61  2  0
 65 62  1  0
 65 66  1  0
 66 67  1  0
 67 69  1  0
 68 79  2  0
 69 74  1  0
 70 78  1  0
 70 80  1  0
 71 77  1  0
 71 73  1  0
 72 78  1  0
 73 72  1  0
 74 73  2  0
 75 76  1  0
 75 69  2  0
 76 71  2  0
 77 70  1  0
 78 68  1  0
 80 82  2  0
 81 80  1  0
 83 81  1  0
 84 93  2  0
 84 89  1  0
 85 81  1  0
 85 89  1  0
 86 85  1  0
 87 88  1  0
 87 86  1  0
 88 84  1  0
 89 90  2  0
 90 91  1  0
 92 91  2  0
 93 92  1  0
 94 68  1  0
 94 99  1  0
 94 95  1  0
 95 98  1  1
 95 96  1  0
 97 95  1  0
 99102  1  0
100104  1  0
100 99  1  0
101100  2  0
104103  1  0
106104  1  0
106107  1  0
106105  1  0
M  ISO  4  17 100  25 100  66 101  67 101
M  END
>  <TORSDO>  (60) 
F 40

>  <SCORE>  (60) 
1.286

>  <name>  (60) 
64

>  <ligand_id>  (60) 
64

>  <original_smiles>  (60) 
[H]c1c([H])c([H])c2c(c1[H])C([H])([H])C([H])([H])C([H])([H])C2([H])N([H])C(=O)C1([H])N(C(=O)C([H])(N([H])C(=O)C([H])(N([H])C([H])([H])[H])C([H])([H])[H])C(C([H])([H])[H])(C([H])([H])[H])C([H])([H])[H])C([H])([H])c2c([H])c(OC([H])([H])C([H])([H])N([H])C(=O)C([H])([H])OC([H])([H])C([H])([H])OC([H])([H])C([H])([H])OC([H])([H])C([H])([H])OC([H])([H])C([H])([H])OC([H])([H])C([H])([H])OC([H])([H])C([H])([H])OC([H])([H])C([H])([H])N([H])C(=O)N3C([H])([H])C([H])([H])C([H])([H])C([H])(n4nc(-c5c([H])c([H])c(Oc6c([H])c([H])c(F)c([H])c6F)c([H])c5[H])c(C(=O)N([H])[H])c4N([H])[H])C3([H])[H])c([H])c([H])c2C1([H])[H]

>  <smiles>  (60) 
[H]c1c([H])c([H])c2c(c1[H])C([H])([H])C([H])([H])C([H])([H])C2([H])N([H])C(=O)C1([H])N(C(=O)C([H])(N([H])C(=O)C([H])(N([H])C([H])([H])[H])C([H])([H])[H])C(C([H])([H])[H])(C([H])([H])[H])C([H])([H])[H])C([H])([H])c2c([H])c(OC([H])([H])C([H])([H])N([H])C(=O)C([H])([H])OC([H])([H])C([H])([H])OC([H])([H])C([H])([H])OC([H])([H])C([H])([H])OC([H])([H])C([H])([H])OC([H])([H])C([H])([H])OC([H])([H])C([H])([H])OC([H])([H])C([H])([H])N([H])C(=O)N3C([H])([H])C([H])([H])C([H])([H])C([H])(n4nc(-c5c([H])c([H])c(Oc6c([H])c([H])c(F)c([H])c6F)c([H])c5[H])c(C(=O)N([H])[H])c4N([H])[H])C3([H])[H])c([H])c([H])c2C1([H])[H]

$$$$
65:0:0
     RDKit          3D

102109  0  0  1  0  0  0  0  0999 V2000
  -32.0800  -21.8520   17.9580 C   0  0  0  0  0  0  0  0  0  0  0  0
  -31.2330  -22.1560   18.9530 N   0  0  0  0  0  0  0  0  0  0  0  0
  -32.8030  -22.6820   17.4010 O   0  0  0  0  0  0  0  0  0  0  0  0
  -30.6810  -21.3760   19.2860 H   0  0  0  0  0  0  0  0  0  0  0  0
  -31.0080  -23.4750   19.5470 C   0  0  0  0  0  2  0  0  0  0  0  0
  -31.3060  -23.4840   21.0640 C   0  0  0  0  0  2  0  0  0  0  0  0
  -30.0970  -23.1700   21.9670 C   0  0  0  0  0  2  0  0  0  0  0  0
  -29.5060  -24.3530   22.5070 O   0  0  0  0  0  0  0  0  0  0  0  0
  -28.4400  -24.9370   21.7580 C   0  0  0  0  0  2  0  0  0  0  0  0
  -28.9010  -26.1690   20.9590 C   0  0  0  0  0  2  0  0  0  0  0  0
  -28.0210  -26.3890   19.8610 O   0  0  0  0  0  0  0  0  0  0  0  0
  -24.5310  -31.7070   23.1910 C   0  0  0  0  0  0  0  0  0  0  0  0
  -26.9160  -27.1940   20.0250 C   0  0  0  0  0  0  0  0  0  0  0  0
  -23.2310  -30.3920   21.5490 C   0  0  0  0  0  3  0  0  0  0  0  0
  -24.5850  -28.7870   20.1040 C   0  0  0  0  0  0  0  0  0  0  0  0
  -25.7660  -30.6230   21.3200 C   0  0  0  0  0  2  0  0  0  0  0  0
  -25.7720  -29.2500   20.6830 C   0  0  0  0  0  0  0  0  0  0  0  0
  -26.9400  -28.4590   20.6560 C   0  0  0  0  0  3  0  0  0  0  0  0
  -25.7140  -26.7440   19.4440 C   0  0  0  0  0  3  0  0  0  0  0  0
  -24.5450  -27.5260   19.4860 C   0  0  0  0  0  3  0  0  0  0  0  0
  -23.3900  -29.7100   20.1650 C   0  0  0  0  0  2  0  0  0  0  0  0
  -24.5290  -30.9240   22.0770 N   0  0  0  0  0  0  0  0  0  0  0  0
  -23.4740  -32.0270   23.7520 O   0  0  0  0  0  0  0  0  0  0  0  0
  -22.5390  -29.3960   22.5060 C   0  0  0  0  0  0  0  0  0  0  0  0
  -21.2040  -29.2890   22.3980 N   0  0  0  0  0  0  0  0  0  0  0  0
  -23.1990  -28.7230   23.3010 O   0  0  0  0  0  0  0  0  0  0  0  0
  -20.7300  -29.8810   21.7310 H   0  0  0  0  0  0  0  0  0  0  0  0
  -17.7790  -28.2730   22.9330 C   0  0  0  0  0  0  0  0  0  0  0  0
  -20.3510  -28.3850   23.1700 C   0  0  0  0  0  3  0  0  0  0  0  0
  -20.3650  -26.9580   22.5740 C   0  0  0  0  0  2  0  0  0  0  0  0
  -19.2330  -26.7100   21.5730 C   0  0  0  0  0  2  0  0  0  0  0  0
  -17.8710  -26.9250   22.2370 C   0  0  0  0  0  2  0  0  0  0  0  0
  -18.9440  -28.9640   23.3560 C   0  0  0  0  0  0  0  0  0  0  0  0
  -18.8070  -30.2310   23.9660 C   0  0  0  0  0  3  0  0  0  0  0  0
  -17.5380  -30.8060   24.1530 C   0  0  0  0  0  3  0  0  0  0  0  0
  -16.3840  -30.1080   23.7530 C   0  0  0  0  0  3  0  0  0  0  0  0
  -16.5070  -28.8410   23.1490 C   0  0  0  0  0  3  0  0  0  0  0  0
  -25.8580  -32.2630   23.7980 C   0  0  0  0  0  3  0  0  0  0  0  0
  -25.6280  -33.6680   24.1640 N   0  0  0  0  0  0  0  0  0  0  0  0
  -25.9960  -34.7170   23.4140 C   0  0  0  0  0  0  0  0  0  0  0  0
  -26.6410  -34.6000   22.3700 O   0  0  0  0  0  0  0  0  0  0  0  0
  -25.0680  -33.8380   24.9870 H   0  0  0  0  0  0  0  0  0  0  0  0
  -24.3460  -36.5890   23.1260 C   0  0  0  0  0  1  0  0  0  0  0  0
  -25.5830  -36.1180   23.9070 C   0  0  0  0  0  3  0  0  0  0  0  0
  -27.7800  -36.8810   24.7000 C   0  0  0  0  0  1  0  0  0  0  0  0
  -26.6620  -37.1240   23.7900 N   0  0  0  0  0  0  0  0  0  0  0  0
  -26.3040  -38.0570   23.9680 H   0  0  0  0  0  0  0  0  0  0  0  0
  -26.3640  -31.4370   25.0430 C   0  0  1  0  0  0  0  0  0  0  0  0
  -25.2860  -31.2280   26.1310 C   0  0  0  0  0  1  0  0  0  0  0  0
  -26.8690  -30.0410   24.6060 C   0  0  0  0  0  1  0  0  0  0  0  0
  -27.5720  -32.1540   25.6930 C   0  0  0  0  0  1  0  0  0  0  0  0
  -32.1140  -20.3680   17.5390 C   0  0  0  0  0  2  0  0  0  0  0  0
  -30.8650  -19.7180   17.7940 O   0  0  0  0  0  0  0  0  0  0  0  0
  -29.8320  -20.0270   16.8560 C   0  0  0  0  0  2  0  0  0  0  0  0
  -28.5310  -19.3240   17.2850 C   0  0  0  0  0  2  0  0  0  0  0  0
  -28.2470  -19.4860   18.6700 O   0  0  0  0  0  0  0  0  0  0  0  0
  -27.9590  -20.8140   19.0960 C   0  0  0  0  0  2  0  0  0  0  0  0
  -27.8430  -20.8190   20.6330 C   0  0  0  0  0  2  0  0  0  0  0  0
  -29.0910  -20.9210   21.3210 O   0  0  0  0  0  0  0  0  0  0  0  0
  -30.0590  -19.9080   21.0480 C   0  0  0  0  0  2  0  0  0  0  0  0
  -29.5980  -18.4840   21.4420 C   0  0  0  0  0  2  0  0  0  0  0  0
  -30.6860  -17.5970   21.7250 O   0  0  0  0  0  0  0  0  0  0  0  0
  -31.6000  -17.3340   20.6580 C   0  0  0  0  0  2  0  0  0  0  0  0
  -31.0120  -16.4470   19.5470 C   0  0  0  0  0  2  0  0  0  0  0  0
  -31.3070  -13.9730   19.6850 C   0  0  0  0  0  0  0  0  0  0  0  0
  -30.8740  -11.6570   18.9700 C   0  0  0  0  0  2  0  0  0  0  0  0
  -29.8900  -11.6950   17.7810 C   0  0  0  0  0  2  0  0  0  0  0  0
  -28.4360  -11.6870   18.2930 C   0  0  0  0  0  2  0  0  0  0  0  0
  -28.1840  -12.7640   19.3790 C   0  0  0  0  0  3  0  0  0  0  0  0
  -29.2780  -12.7070   20.4710 C   0  0  0  0  0  2  0  0  0  0  0  0
  -30.5880  -12.8270   19.8140 N   0  0  0  0  0  0  0  0  0  0  0  0
  -32.4120  -14.0190   19.1400 O   0  0  0  0  0  0  0  0  0  0  0  0
  -30.6580  -15.1000   20.0160 N   0  0  0  0  0  0  0  0  0  0  0  0
  -29.7610  -15.0020   20.4680 H   0  0  0  0  0  0  0  0  0  0  0  0
  -25.9190  -13.6290   20.2480 C   0  0  0  0  0  0  0  0  0  0  0  0
  -24.8000  -12.9770   20.6870 C   0  0  0  0  0  0  0  0  0  0  0  0
  -25.1050  -11.5830   20.6260 C   0  0  0  0  0  0  0  0  0  0  0  0
  -26.8450  -12.6410   19.9480 N   0  0  0  0  0  0  0  0  0  0  0  0
  -26.3590  -11.4060   20.2330 N   0  0  0  0  0  0  0  0  0  0  0  0
  -24.2560  -10.4080   20.8620 C   0  0  0  0  0  0  0  0  0  0  0  0
  -24.6310   -9.3960   21.7750 C   0  0  0  0  0  3  0  0  0  0  0  0
  -23.7860   -8.2860   21.9990 C   0  0  0  0  0  3  0  0  0  0  0  0
  -22.5550   -8.1810   21.3090 C   0  0  0  0  0  0  0  0  0  0  0  0
  -22.1980   -9.1800   20.3860 C   0  0  0  0  0  3  0  0  0  0  0  0
  -23.0410  -10.2810   20.1610 C   0  0  0  0  0  3  0  0  0  0  0  0
  -21.6840   -7.1260   21.4440 O   0  0  0  0  0  0  0  0  0  0  0  0
  -21.5960   -6.4110   22.6120 C   0  0  0  0  0  0  0  0  0  0  0  0
  -21.2990   -7.0310   23.8440 C   0  0  0  0  0  3  0  0  0  0  0  0
  -21.1490   -6.2510   25.0060 C   0  0  0  0  0  3  0  0  0  0  0  0
  -21.2870   -4.8510   24.9380 C   0  0  0  0  0  0  0  0  0  0  0  0
  -21.5780   -4.2310   23.7100 C   0  0  0  0  0  3  0  0  0  0  0  0
  -21.7280   -5.0080   22.5500 C   0  0  0  0  0  0  0  0  0  0  0  0
  -21.9890   -4.4040   21.3650 F   0  0  0  0  0  0  0  0  0  0  0  0
  -21.1330   -4.0990   26.0540 F   0  0  0  0  0  0  0  0  0  0  0  0
  -23.4840  -13.6030   21.0560 C   0  0  0  0  0  0  0  0  0  0  0  0
  -22.7490  -12.9960   21.9790 N   0  0  0  0  0  0  0  0  0  0  0  0
  -23.1260  -14.6700   20.5560 O   0  0  0  0  0  0  0  0  0  0  0  0
  -23.0520  -12.1300   22.4000 H   0  0  0  0  0  0  0  0  0  0  0  0
  -21.8720  -13.4080   22.2710 H   0  0  0  0  0  0  0  0  0  0  0  0
  -26.2220  -14.9730   20.0610 N   0  0  0  0  0  0  0  0  0  0  0  0
  -25.5270  -15.6980   20.1980 H   0  0  0  0  0  0  0  0  0  0  0  0
  -27.0830  -15.3200   19.6590 H   0  0  0  0  0  0  0  0  0  0  0  0
  1  2  1  0
  2  4  1  0
  2  5  1  0
  3  1  2  0
  5  6  1  0
  6  7  1  0
  7  8  1  0
  9  8  1  0
 10  9  1  0
 11 13  1  0
 11 10  1  0
 12 23  2  0
 13 18  1  0
 14 22  1  0
 14 24  1  0
 15 21  1  0
 15 17  1  0
 16 22  1  0
 17 16  1  0
 18 17  2  0
 19 20  1  0
 19 13  2  0
 20 15  2  0
 21 14  1  0
 22 12  1  0
 24 26  2  0
 25 24  1  0
 27 25  1  0
 28 37  2  0
 28 33  1  0
 29 25  1  0
 29 33  1  0
 30 29  1  0
 31 32  1  0
 31 30  1  0
 32 28  1  0
 33 34  2  0
 34 35  1  0
 36 35  2  0
 37 36  1  0
 38 12  1  0
 38 39  1  0
 38 48  1  0
 39 42  1  0
 40 44  1  0
 40 39  1  0
 41 40  2  0
 44 43  1  0
 46 44  1  0
 46 47  1  0
 46 45  1  0
 48 51  1  1
 48 49  1  0
 50 48  1  0
 52 53  1  0
 52  1  1  0
 54 55  1  0
 54 53  1  0
 55 56  1  0
 56 57  1  0
 57 58  1  0
 58 59  1  0
 60 59  1  0
 60 61  1  0
 61 62  1  0
 63 62  1  0
 64 73  1  0
 64 63  1  0
 65 71  1  0
 65 73  1  0
 66 71  1  0
 67 68  1  0
 67 66  1  0
 69 68  1  0
 69 78  1  0
 69 70  1  0
 71 70  1  0
 72 65  2  0
 73 74  1  0
 75 76  2  0
 76 95  1  0
 77 76  1  0
 77 80  1  0
 78 79  1  0
 78 75  1  0
 79 77  2  0
 80 81  1  0
 81 82  2  0
 83 86  1  0
 83 82  1  0
 84 83  2  0
 85 84  1  0
 85 80  2  0
 86 87  1  0
 87 88  1  0
 88 89  2  0
 90 89  1  0
 90 94  1  0
 91 90  2  0
 92 87  2  0
 92 91  1  0
 93 92  1  0
 95 96  1  0
 96 99  1  0
 96 98  1  0
 97 95  2  0
100101  1  0
100 75  1  0
102100  1  0
M  ISO  4  10 101  11 101  65 100  73 100
M  END
>  <TORSDO>  (61) 
F 35

>  <SCORE>  (61) 
-9.393

>  <name>  (61) 
65

>  <ligand_id>  (61) 
65

>  <original_smiles>  (61) 
[H]c1c([H])c([H])c2c(c1[H])C([H])([H])C([H])([H])C([H])([H])C2([H])N([H])C(=O)C1([H])N(C(=O)C([H])(N([H])C(=O)C([H])(N([H])C([H])([H])[H])C([H])([H])[H])C(C([H])([H])[H])(C([H])([H])[H])C([H])([H])[H])C([H])([H])c2c([H])c(OC([H])([H])C([H])([H])OC([H])([H])C([H])([H])C([H])([H])N([H])C(=O)C([H])([H])OC([H])([H])C([H])([H])OC([H])([H])C([H])([H])OC([H])([H])C([H])([H])OC([H])([H])C([H])([H])N([H])C(=O)N3C([H])([H])C([H])([H])C([H])([H])C([H])(n4nc(-c5c([H])c([H])c(Oc6c([H])c([H])c(F)c([H])c6F)c([H])c5[H])c(C(=O)N([H])[H])c4N([H])[H])C3([H])[H])c([H])c([H])c2C1([H])[H]

>  <smiles>  (61) 
[H]c1c([H])c([H])c2c(c1[H])C([H])([H])C([H])([H])C([H])([H])C2([H])N([H])C(=O)C1([H])N(C(=O)C([H])(N([H])C(=O)C([H])(N([H])C([H])([H])[H])C([H])([H])[H])C(C([H])([H])[H])(C([H])([H])[H])C([H])([H])[H])C([H])([H])c2c([H])c(OC([H])([H])C([H])([H])OC([H])([H])C([H])([H])C([H])([H])N([H])C(=O)C([H])([H])OC([H])([H])C([H])([H])OC([H])([H])C([H])([H])OC([H])([H])C([H])([H])OC([H])([H])C([H])([H])N([H])C(=O)N3C([H])([H])C([H])([H])C([H])([H])C([H])(n4nc(-c5c([H])c([H])c(Oc6c([H])c([H])c(F)c([H])c6F)c([H])c5[H])c(C(=O)N([H])[H])c4N([H])[H])C3([H])[H])c([H])c([H])c2C1([H])[H]

$$$$
66:0:0
     RDKit          3D

105112  0  0  1  0  0  0  0  0999 V2000
  -31.9010  -21.7540   22.5890 C   0  0  0  0  0  0  0  0  0  0  0  0
  -30.8240  -22.5510   22.5520 N   0  0  0  0  0  0  0  0  0  0  0  0
  -32.1330  -21.0050   23.5390 O   0  0  0  0  0  0  0  0  0  0  0  0
  -30.6960  -23.1120   21.7260 H   0  0  0  0  0  0  0  0  0  0  0  0
  -29.8490  -22.7240   23.6240 C   0  0  0  0  0  2  0  0  0  0  0  0
  -28.9930  -23.9820   23.3820 C   0  0  0  0  0  2  0  0  0  0  0  0
  -27.9700  -23.8490   22.2380 C   0  0  0  0  0  2  0  0  0  0  0  0
  -27.0060  -25.0470   22.1280 C   0  0  0  0  0  2  0  0  0  0  0  0
  -27.3400  -26.0930   21.0400 C   0  0  0  0  0  2  0  0  0  0  0  0
  -26.6630  -25.9000   19.6670 C   0  0  0  0  0  2  0  0  0  0  0  0
  -27.2940  -24.8620   18.7180 C   0  0  0  0  0  2  0  0  0  0  0  0
  -28.7580  -25.1400   18.3160 C   0  0  0  0  0  2  0  0  0  0  0  0
  -29.0680  -26.6050   17.9830 C   0  0  0  0  0  2  0  0  0  0  0  0
  -28.1770  -27.0580   16.9630 O   0  0  0  0  0  0  0  0  0  0  0  0
  -24.5710  -29.7580   22.4640 C   0  0  0  0  0  0  0  0  0  0  0  0
  -27.0220  -27.6410   17.4200 C   0  0  0  0  0  0  0  0  0  0  0  0
  -23.2560  -29.3280   20.4130 C   0  0  0  0  0  3  0  0  0  0  0  0
  -24.6120  -28.7860   18.3240 C   0  0  0  0  0  0  0  0  0  0  0  0
  -25.7530  -29.8520   20.2780 C   0  0  0  0  0  2  0  0  0  0  0  0
  -25.8010  -29.0010   19.0330 C   0  0  0  0  0  0  0  0  0  0  0  0
  -27.0080  -28.4310   18.5890 C   0  0  0  0  0  3  0  0  0  0  0  0
  -25.8270  -27.4520   16.6960 C   0  0  0  0  0  3  0  0  0  0  0  0
  -24.6140  -28.0040   17.1550 C   0  0  0  0  0  3  0  0  0  0  0  0
  -23.3690  -29.4480   18.8710 C   0  0  0  0  0  2  0  0  0  0  0  0
  -24.5490  -29.6300   21.1090 N   0  0  0  0  0  0  0  0  0  0  0  0
  -23.5310  -29.6740   23.1320 O   0  0  0  0  0  0  0  0  0  0  0  0
  -22.6920  -27.9320   20.7560 C   0  0  0  0  0  0  0  0  0  0  0  0
  -21.3780  -27.7510   20.5470 N   0  0  0  0  0  0  0  0  0  0  0  0
  -23.4300  -27.0340   21.1700 O   0  0  0  0  0  0  0  0  0  0  0  0
  -20.8370  -28.5400   20.2200 H   0  0  0  0  0  0  0  0  0  0  0  0
  -18.1330  -26.2150   20.2020 C   0  0  0  0  0  0  0  0  0  0  0  0
  -20.6370  -26.5110   20.7660 C   0  0  0  0  0  3  0  0  0  0  0  0
  -20.9070  -25.4930   19.6350 C   0  0  0  0  0  2  0  0  0  0  0  0
  -19.8880  -25.5750   18.4940 C   0  0  0  0  0  2  0  0  0  0  0  0
  -18.4730  -25.3200   19.0220 C   0  0  0  0  0  2  0  0  0  0  0  0
  -19.1500  -26.7870   21.0110 C   0  0  0  0  0  0  0  0  0  0  0  0
  -18.7830  -27.6430   22.0710 C   0  0  0  0  0  3  0  0  0  0  0  0
  -17.4290  -27.9250   22.3330 C   0  0  0  0  0  3  0  0  0  0  0  0
  -16.4250  -27.3440   21.5380 C   0  0  0  0  0  3  0  0  0  0  0  0
  -16.7770  -26.4890   20.4790 C   0  0  0  0  0  3  0  0  0  0  0  0
  -25.8970  -30.0450   23.2370 C   0  0  0  0  0  3  0  0  0  0  0  0
  -26.3540  -28.8460   24.1560 C   0  0  1  0  0  0  0  0  0  0  0  0
  -25.2500  -28.3410   25.1110 C   0  0  0  0  0  1  0  0  0  0  0  0
  -26.8220  -27.6470   23.2970 C   0  0  0  0  0  1  0  0  0  0  0  0
  -27.5670  -29.2760   25.0150 C   0  0  0  0  0  1  0  0  0  0  0  0
  -25.6850  -31.2610   24.0350 N   0  0  0  0  0  0  0  0  0  0  0  0
  -26.1360  -32.4770   23.6990 C   0  0  0  0  0  0  0  0  0  0  0  0
  -26.8450  -32.6810   22.7100 O   0  0  0  0  0  0  0  0  0  0  0  0
  -25.0710  -31.1800   24.8320 H   0  0  0  0  0  0  0  0  0  0  0  0
  -24.5840  -34.4400   23.9580 C   0  0  0  0  0  1  0  0  0  0  0  0
  -25.7370  -33.6580   24.6060 C   0  0  0  0  0  3  0  0  0  0  0  0
  -27.8940  -33.9790   25.7400 C   0  0  0  0  0  1  0  0  0  0  0  0
  -26.8580  -34.5770   24.9010 N   0  0  0  0  0  0  0  0  0  0  0  0
  -26.5200  -35.4150   25.3650 H   0  0  0  0  0  0  0  0  0  0  0  0
  -32.8860  -21.8360   21.4100 C   0  0  0  0  0  2  0  0  0  0  0  0
  -32.2600  -21.4860   20.1720 O   0  0  0  0  0  0  0  0  0  0  0  0
  -31.9560  -22.5950   19.3330 C   0  0  0  0  0  2  0  0  0  0  0  0
  -31.6850  -22.1340   17.8910 C   0  0  0  0  0  2  0  0  0  0  0  0
  -30.7830  -21.0370   17.7800 O   0  0  0  0  0  0  0  0  0  0  0  0
  -29.5250  -21.1900   18.4280 C   0  0  0  0  0  2  0  0  0  0  0  0
  -28.7600  -19.8480   18.3780 C   0  0  0  0  0  2  0  0  0  0  0  0
  -28.2610  -19.3650   19.6270 O   0  0  0  0  0  0  0  0  0  0  0  0
  -29.2040  -19.0670   20.6580 C   0  0  0  0  0  2  0  0  0  0  0  0
  -30.1390  -17.8750   20.3710 C   0  0  0  0  0  2  0  0  0  0  0  0
  -30.9510  -18.1640   19.2450 O   0  0  0  0  0  0  0  0  0  0  0  0
  -31.7300  -17.0660   18.7950 C   0  0  0  0  0  2  0  0  0  0  0  0
  -30.8160  -15.9160   18.3460 C   0  0  0  0  0  2  0  0  0  0  0  0
  -31.3180  -13.9250   19.6970 C   0  0  0  0  0  0  0  0  0  0  0  0
  -31.1910  -11.5200   20.1490 C   0  0  0  0  0  2  0  0  0  0  0  0
  -30.3220  -10.8590   19.0580 C   0  0  0  0  0  2  0  0  0  0  0  0
  -28.8320  -10.9050   19.4510 C   0  0  0  0  0  2  0  0  0  0  0  0
  -28.3700  -12.3160   19.9040 C   0  0  0  0  0  3  0  0  0  0  0  0
  -29.3610  -12.9220   20.9250 C   0  0  0  0  0  2  0  0  0  0  0  0
  -30.7070  -12.8940   20.3290 N   0  0  0  0  0  0  0  0  0  0  0  0
  -32.4550  -13.8610   19.2260 O   0  0  0  0  0  0  0  0  0  0  0  0
  -30.5290  -14.9640   19.4170 N   0  0  0  0  0  0  0  0  0  0  0  0
  -29.5960  -14.9520   19.7970 H   0  0  0  0  0  0  0  0  0  0  0  0
  -26.1240  -13.3360   20.6450 C   0  0  0  0  0  0  0  0  0  0  0  0
  -24.9520  -12.7610   21.0640 C   0  0  0  0  0  0  0  0  0  0  0  0
  -25.1850  -11.3530   21.0660 C   0  0  0  0  0  0  0  0  0  0  0  0
  -27.0040  -12.2870   20.4230 N   0  0  0  0  0  0  0  0  0  0  0  0
  -26.4400  -11.0920   20.7290 N   0  0  0  0  0  0  0  0  0  0  0  0
  -24.2670  -10.2320   21.3130 C   0  0  0  0  0  0  0  0  0  0  0  0
  -24.6080   -9.1770   22.1880 C   0  0  0  0  0  3  0  0  0  0  0  0
  -23.7020   -8.1210   22.4230 C   0  0  0  0  0  3  0  0  0  0  0  0
  -22.4380   -8.1140   21.7860 C   0  0  0  0  0  0  0  0  0  0  0  0
  -22.1130   -9.1550   20.8980 C   0  0  0  0  0  3  0  0  0  0  0  0
  -23.0180  -10.2040   20.6600 C   0  0  0  0  0  3  0  0  0  0  0  0
  -21.5050   -7.1160   21.9340 O   0  0  0  0  0  0  0  0  0  0  0  0
  -21.5300   -6.2620   23.0070 C   0  0  0  0  0  0  0  0  0  0  0  0
  -21.4140   -6.7290   24.3340 C   0  0  0  0  0  3  0  0  0  0  0  0
  -21.3730   -5.8110   25.4020 C   0  0  0  0  0  3  0  0  0  0  0  0
  -21.4400   -4.4280   25.1460 C   0  0  0  0  0  0  0  0  0  0  0  0
  -21.5510   -3.9610   23.8250 C   0  0  0  0  0  3  0  0  0  0  0  0
  -21.5920   -4.8760   22.7580 C   0  0  0  0  0  0  0  0  0  0  0  0
  -21.6770   -4.4210   21.4850 F   0  0  0  0  0  0  0  0  0  0  0  0
  -21.3950   -3.5440   26.1710 F   0  0  0  0  0  0  0  0  0  0  0  0
  -23.6620  -13.4710   21.3560 C   0  0  0  0  0  0  0  0  0  0  0  0
  -22.8800  -12.9560   22.3010 N   0  0  0  0  0  0  0  0  0  0  0  0
  -23.3600  -14.5130   20.7780 O   0  0  0  0  0  0  0  0  0  0  0  0
  -23.1380  -12.1100   22.7890 H   0  0  0  0  0  0  0  0  0  0  0  0
  -22.0140  -13.4160   22.5400 H   0  0  0  0  0  0  0  0  0  0  0  0
  -26.5060  -14.6520   20.4180 N   0  0  0  0  0  0  0  0  0  0  0  0
  -25.8540  -15.4240   20.5050 H   0  0  0  0  0  0  0  0  0  0  0  0
  -27.3950  -14.9300   20.0230 H   0  0  0  0  0  0  0  0  0  0  0  0
  1  3  2  0
  2  1  1  0
  2  5  1  0
  4  2  1  0
  6  5  1  0
  7  6  1  0
  8  7  1  0
  9  8  1  0
 10  9  1  0
 11 10  1  0
 12 11  1  0
 13 12  1  0
 14 16  1  0
 14 13  1  0
 15 26  2  0
 16 21  1  0
 17 27  1  0
 17 25  1  0
 18 24  1  0
 18 20  1  0
 19 25  1  0
 20 19  1  0
 21 20  2  0
 22 23  1  0
 22 16  2  0
 23 18  2  0
 24 17  1  0
 25 15  1  0
 27 29  2  0
 28 27  1  0
 30 28  1  0
 31 40  2  0
 31 36  1  0
 32 28  1  0
 32 36  1  0
 33 32  1  0
 34 35  1  0
 34 33  1  0
 35 31  1  0
 36 37  2  0
 37 38  1  0
 39 38  2  0
 40 39  1  0
 41 15  1  0
 41 46  1  0
 41 42  1  0
 42 45  1  1
 42 43  1  0
 44 42  1  0
 46 49  1  0
 47 46  1  0
 47 51  1  0
 48 47  2  0
 51 50  1  0
 51 53  1  0
 53 54  1  0
 53 52  1  0
 55  1  1  0
 56 55  1  0
 57 56  1  0
 58 57  1  0
 59 58  1  0
 59 60  1  0
 61 60  1  0
 61 62  1  0
 62 63  1  0
 64 63  1  0
 65 64  1  0
 66 65  1  0
 67 66  1  0
 67 76  1  0
 68 74  1  0
 69 74  1  0
 70 71  1  0
 70 69  1  0
 72 71  1  0
 72 81  1  0
 72 73  1  0
 74 73  1  0
 75 68  2  0
 76 68  1  0
 76 77  1  0
 78 79  2  0
 79 80  1  0
 79 98  1  0
 80 83  1  0
 81 78  1  0
 81 82  1  0
 82 80  2  0
 83 84  1  0
 84 85  2  0
 86 89  1  0
 86 85  1  0
 87 86  2  0
 88 87  1  0
 88 83  2  0
 89 90  1  0
 90 91  1  0
 91 92  2  0
 93 92  1  0
 93 97  1  0
 94 93  2  0
 95 90  2  0
 95 94  1  0
 96 95  1  0
 98 99  1  0
 99102  1  0
 99101  1  0
100 98  2  0
103104  1  0
103 78  1  0
105103  1  0
M  ISO  4  13 101  14 101  68 100  76 100
M  END
>  <TORSDO>  (62) 
F 38

>  <SCORE>  (62) 
-5.405

>  <name>  (62) 
66

>  <ligand_id>  (62) 
66

>  <original_smiles>  (62) 
[H]c1c([H])c([H])c2c(c1[H])C([H])([H])C([H])([H])C([H])([H])C2([H])N([H])C(=O)C1([H])N(C(=O)C([H])(N([H])C(=O)C([H])(N([H])C([H])([H])[H])C([H])([H])[H])C(C([H])([H])[H])(C([H])([H])[H])C([H])([H])[H])C([H])([H])c2c([H])c(OC([H])([H])C([H])([H])C([H])([H])C([H])([H])C([H])([H])C([H])([H])C([H])([H])C([H])([H])C([H])([H])N([H])C(=O)C([H])([H])OC([H])([H])C([H])([H])OC([H])([H])C([H])([H])OC([H])([H])C([H])([H])OC([H])([H])C([H])([H])N([H])C(=O)N3C([H])([H])C([H])([H])C([H])([H])C([H])(n4nc(-c5c([H])c([H])c(Oc6c([H])c([H])c(F)c([H])c6F)c([H])c5[H])c(C(=O)N([H])[H])c4N([H])[H])C3([H])[H])c([H])c([H])c2C1([H])[H]

>  <smiles>  (62) 
[H]c1c([H])c([H])c2c(c1[H])C([H])([H])C([H])([H])C([H])([H])C2([H])N([H])C(=O)C1([H])N(C(=O)C([H])(N([H])C(=O)C([H])(N([H])C([H])([H])[H])C([H])([H])[H])C(C([H])([H])[H])(C([H])([H])[H])C([H])([H])[H])C([H])([H])c2c([H])c(OC([H])([H])C([H])([H])C([H])([H])C([H])([H])C([H])([H])C([H])([H])C([H])([H])C([H])([H])C([H])([H])N([H])C(=O)C([H])([H])OC([H])([H])C([H])([H])OC([H])([H])C([H])([H])OC([H])([H])C([H])([H])OC([H])([H])C([H])([H])N([H])C(=O)N3C([H])([H])C([H])([H])C([H])([H])C([H])(n4nc(-c5c([H])c([H])c(Oc6c([H])c([H])c(F)c([H])c6F)c([H])c5[H])c(C(=O)N([H])[H])c4N([H])[H])C3([H])[H])c([H])c([H])c2C1([H])[H]

$$$$
67:0:0
     RDKit          3D

119126  0  0  1  0  0  0  0  0999 V2000
  -33.4650  -20.3860   21.4000 C   0  0  0  0  0  2  0  0  0  0  0  0
  -34.5760  -20.7910   20.6090 O   0  0  0  0  0  0  0  0  0  0  0  0
  -35.0280  -19.7950   19.6990 C   0  0  0  0  0  2  0  0  0  0  0  0
  -34.2900  -19.8370   18.3450 C   0  0  0  0  0  2  0  0  0  0  0  0
  -34.7550  -20.9250   17.5520 O   0  0  0  0  0  0  0  0  0  0  0  0
  -34.0640  -22.1600   17.7260 C   0  0  0  0  0  2  0  0  0  0  0  0
  -32.8300  -22.2320   16.8140 C   0  0  0  0  0  2  0  0  0  0  0  0
  -33.2820  -22.0860   15.4700 O   0  0  0  0  0  0  0  0  0  0  0  0
  -32.5070  -21.2140   14.6540 C   0  0  0  0  0  2  0  0  0  0  0  0
  -31.1640  -21.8420   14.2640 C   0  0  0  0  0  2  0  0  0  0  0  0
  -31.4050  -22.9970   13.4720 O   0  0  0  0  0  0  0  0  0  0  0  0
  -30.2270  -23.6310   12.9840 C   0  0  0  0  0  2  0  0  0  0  0  0
  -29.3810  -24.2530   14.1130 C   0  0  0  0  0  2  0  0  0  0  0  0
  -30.2320  -24.9920   14.9880 O   0  0  0  0  0  0  0  0  0  0  0  0
  -29.5820  -25.5760   16.1140 C   0  0  0  0  0  2  0  0  0  0  0  0
  -29.1420  -24.5380   17.1620 C   0  0  0  0  0  2  0  0  0  0  0  0
  -30.2600  -23.7710   17.6150 O   0  0  0  0  0  0  0  0  0  0  0  0
  -30.7010  -24.1000   18.9280 C   0  0  0  0  0  2  0  0  0  0  0  0
  -29.7320  -23.6070   20.0320 C   0  0  0  0  0  2  0  0  0  0  0  0
  -30.0080  -22.3070   20.5530 O   0  0  0  0  0  0  0  0  0  0  0  0
  -30.1380  -21.2470   19.6120 C   0  0  0  0  0  2  0  0  0  0  0  0
  -28.9410  -21.1110   18.6690 C   0  0  0  0  0  2  0  0  0  0  0  0
  -27.0380  -19.6990   19.2130 C   0  0  0  0  0  0  0  0  0  0  0  0
  -25.0450  -19.0110   17.9850 C   0  0  0  0  0  2  0  0  0  0  0  0
  -24.9960  -19.8240   16.6740 C   0  0  0  0  0  2  0  0  0  0  0  0
  -24.2730  -21.1680   16.8870 C   0  0  0  0  0  2  0  0  0  0  0  0
  -24.7860  -21.9440   18.1290 C   0  0  0  0  0  3  0  0  0  0  0  0
  -24.8990  -21.0180   19.3660 C   0  0  0  0  0  2  0  0  0  0  0  0
  -25.7080  -19.8440   18.9970 N   0  0  0  0  0  0  0  0  0  0  0  0
  -27.6670  -18.6700   18.9650 O   0  0  0  0  0  0  0  0  0  0  0  0
  -27.6870  -20.8530   19.3710 N   0  0  0  0  0  0  0  0  0  0  0  0
  -27.1350  -21.6550   19.6320 H   0  0  0  0  0  0  0  0  0  0  0  0
  -24.3360  -24.4490   18.5150 C   0  0  0  0  0  0  0  0  0  0  0  0
  -23.1800  -25.1520   18.7010 C   0  0  0  0  0  0  0  0  0  0  0  0
  -22.1230  -24.1890   18.6800 C   0  0  0  0  0  0  0  0  0  0  0  0
  -23.9620  -23.1190   18.4020 N   0  0  0  0  0  0  0  0  0  0  0  0
  -22.6210  -22.9660   18.5570 N   0  0  0  0  0  0  0  0  0  0  0  0
  -20.6670  -24.3650   18.7190 C   0  0  0  0  0  0  0  0  0  0  0  0
  -19.8580  -23.6430   19.6240 C   0  0  0  0  0  3  0  0  0  0  0  0
  -18.4610  -23.8410   19.6540 C   0  0  0  0  0  3  0  0  0  0  0  0
  -17.8580  -24.7720   18.7730 C   0  0  0  0  0  0  0  0  0  0  0  0
  -18.6650  -25.4730   17.8590 C   0  0  0  0  0  3  0  0  0  0  0  0
  -20.0550  -25.2700   17.8280 C   0  0  0  0  0  3  0  0  0  0  0  0
  -16.5060  -25.0120   18.7140 O   0  0  0  0  0  0  0  0  0  0  0  0
  -15.6870  -24.7920   19.7930 C   0  0  0  0  0  0  0  0  0  0  0  0
  -15.9260  -25.4000   21.0450 C   0  0  0  0  0  3  0  0  0  0  0  0
  -15.0200  -25.2020   22.1070 C   0  0  0  0  0  3  0  0  0  0  0  0
  -13.8730  -24.4070   21.9170 C   0  0  0  0  0  0  0  0  0  0  0  0
  -13.6330  -23.8060   20.6690 C   0  0  0  0  0  3  0  0  0  0  0  0
  -14.5360  -24.0010   19.6100 C   0  0  0  0  0  0  0  0  0  0  0  0
  -14.2880  -23.4370   18.4030 F   0  0  0  0  0  0  0  0  0  0  0  0
  -13.0000  -24.2230   22.9350 F   0  0  0  0  0  0  0  0  0  0  0  0
  -23.0410  -26.6460   18.7940 C   0  0  0  0  0  0  0  0  0  0  0  0
  -22.0440  -27.1240   19.5280 N   0  0  0  0  0  0  0  0  0  0  0  0
  -23.8510  -27.3980   18.2540 O   0  0  0  0  0  0  0  0  0  0  0  0
  -21.3950  -26.5060   19.9940 H   0  0  0  0  0  0  0  0  0  0  0  0
  -21.9290  -28.1230   19.6310 H   0  0  0  0  0  0  0  0  0  0  0  0
  -25.6740  -24.8220   18.4130 N   0  0  0  0  0  0  0  0  0  0  0  0
  -25.9680  -25.7920   18.4430 H   0  0  0  0  0  0  0  0  0  0  0  0
  -26.4260  -24.1750   18.2250 H   0  0  0  0  0  0  0  0  0  0  0  0
  -32.9520  -21.5930   22.1890 C   0  0  0  0  0  2  0  0  0  0  0  0
  -32.7090  -22.6920   21.3170 O   0  0  0  0  0  0  0  0  0  0  0  0
  -32.4980  -23.8750   22.0690 C   0  0  0  0  0  2  0  0  0  0  0  0
  -32.6640  -25.1300   21.2060 C   0  0  0  0  0  2  0  0  0  0  0  0
  -31.4530  -25.8740   21.1720 O   0  0  0  0  0  0  0  0  0  0  0  0
  -31.6170  -27.1410   20.5390 C   0  0  0  0  0  2  0  0  0  0  0  0
  -30.4980  -28.0990   20.9530 C   0  0  0  0  0  0  0  0  0  0  0  0
  -30.7100  -29.3790   20.6430 N   0  0  0  0  0  0  0  0  0  0  0  0
  -29.5190  -27.7090   21.5950 O   0  0  0  0  0  0  0  0  0  0  0  0
  -31.5430  -29.5830   20.1060 H   0  0  0  0  0  0  0  0  0  0  0  0
  -30.0200  -30.5270   21.2170 C   0  0  0  0  0  2  0  0  0  0  0  0
  -30.6980  -31.0120   22.5210 C   0  0  0  0  0  2  0  0  0  0  0  0
  -32.2460  -31.0020   22.4870 C   0  0  0  0  0  2  0  0  0  0  0  0
  -32.8490  -29.6850   23.0250 C   0  0  0  0  0  2  0  0  0  0  0  0
  -34.1970  -29.2830   22.3950 C   0  0  0  0  0  2  0  0  0  0  0  0
  -34.6150  -27.8490   22.7970 C   0  0  0  0  0  2  0  0  0  0  0  0
  -35.8150  -27.2610   22.0180 C   0  0  0  0  0  2  0  0  0  0  0  0
  -35.5210  -26.9010   20.5280 C   0  0  0  0  0  2  0  0  0  0  0  0
  -36.6470  -26.9650   19.6490 O   0  0  0  0  0  0  0  0  0  0  0  0
  -39.7120  -32.3670   22.8920 C   0  0  0  0  0  0  0  0  0  0  0  0
  -37.0660  -28.2530   19.4840 C   0  0  0  0  0  0  0  0  0  0  0  0
  -38.4890  -32.9350   20.8160 C   0  0  0  0  0  3  0  0  0  0  0  0
  -37.8000  -30.9590   19.3610 C   0  0  0  0  0  0  0  0  0  0  0  0
  -39.5650  -30.6390   21.1140 C   0  0  0  0  0  2  0  0  0  0  0  0
  -38.4800  -30.0870   20.2190 C   0  0  0  0  0  0  0  0  0  0  0  0
  -38.1360  -28.7270   20.2620 C   0  0  0  0  0  3  0  0  0  0  0  0
  -36.3880  -29.1250   18.6090 C   0  0  0  0  0  3  0  0  0  0  0  0
  -36.7590  -30.4820   18.5400 C   0  0  0  0  0  3  0  0  0  0  0  0
  -38.2470  -32.4020   19.3780 C   0  0  0  0  0  2  0  0  0  0  0  0
  -39.2550  -31.9720   21.6710 N   0  0  0  0  0  0  0  0  0  0  0  0
  -39.5510  -33.5290   23.2890 O   0  0  0  0  0  0  0  0  0  0  0  0
  -37.1300  -33.3520   21.4230 C   0  0  0  0  0  0  0  0  0  0  0  0
  -36.6590  -34.5540   21.0550 N   0  0  0  0  0  0  0  0  0  0  0  0
  -36.5160  -32.5970   22.1800 O   0  0  0  0  0  0  0  0  0  0  0  0
  -37.2270  -35.1200   20.4410 H   0  0  0  0  0  0  0  0  0  0  0  0
  -34.5790  -37.4880   20.7400 C   0  0  0  0  0  0  0  0  0  0  0  0
  -35.3850  -35.1420   21.4670 C   0  0  0  0  0  3  0  0  0  0  0  0
  -34.2180  -34.5870   20.6190 C   0  0  0  0  0  2  0  0  0  0  0  0
  -33.8960  -35.4530   19.3970 C   0  0  0  0  0  2  0  0  0  0  0  0
  -33.5280  -36.8760   19.8300 C   0  0  0  0  0  2  0  0  0  0  0  0
  -35.4620  -36.6730   21.4970 C   0  0  0  0  0  0  0  0  0  0  0  0
  -36.4430  -37.2920   22.3000 C   0  0  0  0  0  3  0  0  0  0  0  0
  -36.5490  -38.6940   22.3590 C   0  0  0  0  0  3  0  0  0  0  0  0
  -35.6610  -39.4960   21.6210 C   0  0  0  0  0  3  0  0  0  0  0  0
  -34.6780  -38.8930   20.8170 C   0  0  0  0  0  3  0  0  0  0  0  0
  -40.4820  -31.3900   23.8370 C   0  0  0  0  0  3  0  0  0  0  0  0
  -39.5690  -30.7650   24.9640 C   0  0  1  0  0  0  0  0  0  0  0  0
  -38.7700  -31.8170   25.7690 C   0  0  0  0  0  1  0  0  0  0  0  0
  -38.5590  -29.7650   24.3530 C   0  0  0  0  0  1  0  0  0  0  0  0
  -40.4420  -29.9670   25.9610 C   0  0  0  0  0  1  0  0  0  0  0  0
  -41.6000  -32.1350   24.4280 N   0  0  0  0  0  0  0  0  0  0  0  0
  -42.8660  -32.0740   23.9950 C   0  0  0  0  0  0  0  0  0  0  0  0
  -43.2290  -31.3190   23.0900 O   0  0  0  0  0  0  0  0  0  0  0  0
  -41.3690  -32.8160   25.1380 H   0  0  0  0  0  0  0  0  0  0  0  0
  -44.1360  -34.2350   23.7960 C   0  0  0  0  0  1  0  0  0  0  0  0
  -43.8940  -32.9990   24.6770 C   0  0  0  0  0  3  0  0  0  0  0  0
  -45.0810  -31.3040   25.9980 C   0  0  0  0  0  1  0  0  0  0  0  0
  -45.1820  -32.3330   24.9660 N   0  0  0  0  0  0  0  0  0  0  0  0
  -45.8790  -33.0120   25.2620 H   0  0  0  0  0  0  0  0  0  0  0  0
  1 61  1  0
  2  1  1  0
  3  2  1  0
  4  3  1  0
  5  6  1  0
  5  4  1  0
  7  6  1  0
  8  7  1  0
  9  8  1  0
 10  9  1  0
 11 10  1  0
 12 11  1  0
 12 13  1  0
 13 14  1  0
 14 15  1  0
 15 16  1  0
 16 17  1  0
 17 18  1  0
 18 19  1  0
 19 20  1  0
 21 20  1  0
 22 31  1  0
 22 21  1  0
 23 31  1  0
 24 29  1  0
 25 26  1  0
 25 24  1  0
 27 26  1  0
 27 36  1  0
 27 28  1  0
 29 23  1  0
 29 28  1  0
 30 23  2  0
 31 32  1  0
 33 34  2  0
 34 53  1  0
 35 34  1  0
 35 38  1  0
 36 33  1  0
 36 37  1  0
 37 35  2  0
 38 39  1  0
 39 40  2  0
 41 40  1  0
 42 41  2  0
 43 42  1  0
 43 38  2  0
 44 41  1  0
 44 45  1  0
 45 46  1  0
 46 47  2  0
 48 47  1  0
 48 52  1  0
 49 48  2  0
 50 45  2  0
 50 49  1  0
 51 50  1  0
 53 54  1  0
 54 57  1  0
 54 56  1  0
 55 53  2  0
 58 59  1  0
 58 33  1  0
 60 58  1  0
 62 63  1  0
 62 61  1  0
 64 63  1  0
 65 64  1  0
 66 67  1  0
 66 65  1  0
 67 69  2  0
 68 67  1  0
 68 71  1  0
 70 68  1  0
 71 72  1  0
 73 72  1  0
 73 74  1  0
 75 76  1  0
 75 74  1  0
 77 76  1  0
 78 77  1  0
 79 78  1  0
 80 91  2  0
 81 79  1  0
 81 86  1  0
 82 92  1  0
 82 90  1  0
 83 89  1  0
 83 85  1  0
 84 90  1  0
 85 86  2  0
 85 84  1  0
 87 81  2  0
 88 87  1  0
 88 83  2  0
 89 82  1  0
 90 80  1  0
 92 94  2  0
 93 92  1  0
 95 93  1  0
 96105  2  0
 96101  1  0
 97 93  1  0
 97101  1  0
 98 97  1  0
 99100  1  0
 99 98  1  0
100 96  1  0
101102  2  0
102103  1  0
104103  2  0
105104  1  0
106 80  1  0
106111  1  0
106107  1  0
107108  1  1
107110  1  0
109107  1  0
111114  1  0
112111  1  0
112116  1  0
113112  2  0
116115  1  0
116118  1  0
118119  1  0
118117  1  0
M  ISO  4  23 100  31 100  78 101  79 101
M  END
>  <TORSDO>  (63) 
F 52

>  <SCORE>  (63) 
5.774

>  <name>  (63) 
67

>  <ligand_id>  (63) 
67

>  <original_smiles>  (63) 
[H]c1c([H])c([H])c2c(c1[H])C([H])([H])C([H])([H])C([H])([H])C2([H])N([H])C(=O)C1([H])N(C(=O)C([H])(N([H])C(=O)C([H])(N([H])C([H])([H])[H])C([H])([H])[H])C(C([H])([H])[H])(C([H])([H])[H])C([H])([H])[H])C([H])([H])c2c([H])c(OC([H])([H])C([H])([H])C([H])([H])C([H])([H])C([H])([H])C([H])([H])C([H])([H])C([H])([H])N([H])C(=O)C([H])([H])OC([H])([H])C([H])([H])OC([H])([H])C([H])([H])OC([H])([H])C([H])([H])OC([H])([H])C([H])([H])OC([H])([H])C([H])([H])OC([H])([H])C([H])([H])OC([H])([H])C([H])([H])OC([H])([H])C([H])([H])OC([H])([H])C([H])([H])N([H])C(=O)N3C([H])([H])C([H])([H])C([H])([H])C([H])(n4nc(-c5c([H])c([H])c(Oc6c([H])c([H])c(F)c([H])c6F)c([H])c5[H])c(C(=O)N([H])[H])c4N([H])[H])C3([H])[H])c([H])c([H])c2C1([H])[H]

>  <smiles>  (63) 
[H]c1c([H])c([H])c2c(c1[H])C([H])([H])C([H])([H])C([H])([H])C2([H])N([H])C(=O)C1([H])N(C(=O)C([H])(N([H])C(=O)C([H])(N([H])C([H])([H])[H])C([H])([H])[H])C(C([H])([H])[H])(C([H])([H])[H])C([H])([H])[H])C([H])([H])c2c([H])c(OC([H])([H])C([H])([H])C([H])([H])C([H])([H])C([H])([H])C([H])([H])C([H])([H])C([H])([H])N([H])C(=O)C([H])([H])OC([H])([H])C([H])([H])OC([H])([H])C([H])([H])OC([H])([H])C([H])([H])OC([H])([H])C([H])([H])OC([H])([H])C([H])([H])OC([H])([H])C([H])([H])OC([H])([H])C([H])([H])OC([H])([H])C([H])([H])OC([H])([H])C([H])([H])N([H])C(=O)N3C([H])([H])C([H])([H])C([H])([H])C([H])(n4nc(-c5c([H])c([H])c(Oc6c([H])c([H])c(F)c([H])c6F)c([H])c5[H])c(C(=O)N([H])[H])c4N([H])[H])C3([H])[H])c([H])c([H])c2C1([H])[H]

$$$$
68:0:0
     RDKit          3D

108115  0  0  1  0  0  0  0  0999 V2000
  -30.2600  -22.0990   25.1070 C   0  0  0  0  0  2  0  0  0  0  0  0
  -29.1870  -21.5950   24.2240 N   0  0  0  0  0  4  0  0  0  0  0  0
  -29.5960  -20.9160   23.6010 H   0  0  0  0  0  0  0  0  0  0  0  0
  -28.5040  -21.1160   24.7890 H   0  0  0  0  0  0  0  0  0  0  0  0
  -28.5080  -22.6180   23.4010 C   0  0  0  0  0  2  0  0  0  0  0  0
  -28.9320  -22.5350   21.9140 C   0  0  0  0  0  2  0  0  0  0  0  0
  -29.6190  -23.7880   21.3560 C   0  0  0  0  0  0  0  0  0  0  0  0
  -29.9140  -23.7620   20.0510 N   0  0  0  0  0  0  0  0  0  0  0  0
  -29.8730  -24.7510   22.0770 O   0  0  0  0  0  0  0  0  0  0  0  0
  -29.6310  -22.9400   19.5380 H   0  0  0  0  0  0  0  0  0  0  0  0
  -30.5760  -24.8210   19.2940 C   0  0  0  0  0  2  0  0  0  0  0  0
  -32.0150  -24.4120   18.9110 C   0  0  0  0  0  2  0  0  0  0  0  0
  -32.8600  -25.4700   18.1710 C   0  0  0  0  0  2  0  0  0  0  0  0
  -32.1320  -26.0840   17.1020 O   0  0  0  0  0  0  0  0  0  0  0  0
  -27.6040  -28.2320   22.1380 C   0  0  0  0  0  0  0  0  0  0  0  0
  -30.8750  -26.5350   17.4210 C   0  0  0  0  0  0  0  0  0  0  0  0
  -26.6000  -27.7140   19.9320 C   0  0  0  0  0  3  0  0  0  0  0  0
  -28.2510  -27.3840   18.0170 C   0  0  0  0  0  0  0  0  0  0  0  0
  -29.0090  -28.5380   20.1060 C   0  0  0  0  0  2  0  0  0  0  0  0
  -29.3100  -27.7200   18.8690 C   0  0  0  0  0  0  0  0  0  0  0  0
  -30.6210  -27.3040   18.5780 C   0  0  0  0  0  3  0  0  0  0  0  0
  -29.8090  -26.2240   16.5540 C   0  0  0  0  0  3  0  0  0  0  0  0
  -28.4940  -26.6290   16.8540 C   0  0  0  0  0  3  0  0  0  0  0  0
  -26.8820  -27.8860   18.4130 C   0  0  0  0  0  2  0  0  0  0  0  0
  -27.7560  -28.1430   20.7860 N   0  0  0  0  0  0  0  0  0  0  0  0
  -26.5100  -28.0070   22.6740 O   0  0  0  0  0  0  0  0  0  0  0  0
  -26.1550  -26.2560   20.1900 C   0  0  0  0  0  0  0  0  0  0  0  0
  -24.8590  -25.9800   19.9730 N   0  0  0  0  0  0  0  0  0  0  0  0
  -26.9710  -25.4010   20.5450 O   0  0  0  0  0  0  0  0  0  0  0  0
  -24.2490  -26.7410   19.7080 H   0  0  0  0  0  0  0  0  0  0  0  0
  -21.6910  -24.2580   19.8360 C   0  0  0  0  0  0  0  0  0  0  0  0
  -24.2280  -24.6690   20.1050 C   0  0  0  0  0  3  0  0  0  0  0  0
  -24.3990  -23.8360   18.8130 C   0  0  0  0  0  2  0  0  0  0  0  0
  -23.2240  -23.9670   17.8410 C   0  0  0  0  0  2  0  0  0  0  0  0
  -21.9160  -23.5430   18.5150 C   0  0  0  0  0  2  0  0  0  0  0  0
  -22.7760  -24.7950   20.5770 C   0  0  0  0  0  0  0  0  0  0  0  0
  -22.5130  -25.4700   21.7890 C   0  0  0  0  0  3  0  0  0  0  0  0
  -21.1950  -25.6080   22.2620 C   0  0  0  0  0  3  0  0  0  0  0  0
  -20.1250  -25.0690   21.5290 C   0  0  0  0  0  3  0  0  0  0  0  0
  -20.3740  -24.3900   20.3220 C   0  0  0  0  0  3  0  0  0  0  0  0
  -28.7860  -28.6420   23.0680 C   0  0  0  0  0  3  0  0  0  0  0  0
  -29.3930  -27.4270   23.8710 C   0  0  1  0  0  0  0  0  0  0  0  0
  -28.3350  -26.5800   24.6150 C   0  0  0  0  0  1  0  0  0  0  0  0
  -30.1730  -26.4810   22.9270 C   0  0  0  0  0  1  0  0  0  0  0  0
  -30.4160  -27.9440   24.9100 C   0  0  0  0  0  1  0  0  0  0  0  0
  -28.2870  -29.6770   23.9840 N   0  0  0  0  0  0  0  0  0  0  0  0
  -28.4960  -30.9910   23.8280 C   0  0  0  0  0  0  0  0  0  0  0  0
  -29.2000  -31.4550   22.9260 O   0  0  0  0  0  0  0  0  0  0  0  0
  -27.6540  -29.3740   24.7100 H   0  0  0  0  0  0  0  0  0  0  0  0
  -26.5560  -32.5520   24.1920 C   0  0  0  0  0  1  0  0  0  0  0  0
  -27.8170  -31.9460   24.8310 C   0  0  0  0  0  3  0  0  0  0  0  0
  -29.7910  -32.5550   26.1580 C   0  0  0  0  0  1  0  0  0  0  0  0
  -28.7040  -33.0310   25.3070 N   0  0  0  0  0  0  0  0  0  0  0  0
  -28.1740  -33.7270   25.8260 H   0  0  0  0  0  0  0  0  0  0  0  0
  -31.5760  -21.3900   24.7840 C   0  0  0  0  0  2  0  0  0  0  0  0
  -31.7750  -21.5470   23.3840 O   0  0  0  0  0  0  0  0  0  0  0  0
  -32.8020  -20.7060   22.8750 C   0  0  0  0  0  2  0  0  0  0  0  0
  -33.0500  -21.0480   21.4000 C   0  0  0  0  0  2  0  0  0  0  0  0
  -31.8770  -20.8050   20.6360 O   0  0  0  0  0  0  0  0  0  0  0  0
  -32.0210  -21.2030   19.2760 C   0  0  0  0  0  2  0  0  0  0  0  0
  -30.8600  -20.6420   18.4400 C   0  0  0  0  0  2  0  0  0  0  0  0
  -31.3930  -20.0240   17.2760 O   0  0  0  0  0  0  0  0  0  0  0  0
  -30.5520  -19.0180   16.7300 C   0  0  0  0  0  2  0  0  0  0  0  0
  -31.3410  -18.2550   15.6550 C   0  0  0  0  0  2  0  0  0  0  0  0
  -32.5820  -17.7480   16.1470 O   0  0  0  0  0  0  0  0  0  0  0  0
  -32.5290  -16.4990   16.8390 C   0  0  0  0  0  2  0  0  0  0  0  0
  -32.3730  -16.6650   18.3690 C   0  0  0  0  0  2  0  0  0  0  0  0
  -31.2180  -15.9810   18.8690 O   0  0  0  0  0  0  0  0  0  0  0  0
  -30.9420  -16.2340   20.2510 C   0  0  0  0  0  2  0  0  0  0  0  0
  -31.6950  -15.3240   21.2460 C   0  0  0  0  0  2  0  0  0  0  0  0
  -31.7730  -12.8080   21.1820 C   0  0  0  0  0  0  0  0  0  0  0  0
  -31.1920  -10.8100   19.8940 C   0  0  0  0  0  2  0  0  0  0  0  0
  -30.4290  -11.3040   18.6470 C   0  0  0  0  0  2  0  0  0  0  0  0
  -28.9260  -11.4990   18.9360 C   0  0  0  0  0  2  0  0  0  0  0  0
  -28.6540  -12.2560   20.2620 C   0  0  0  0  0  3  0  0  0  0  0  0
  -29.5340  -11.7280   21.4160 C   0  0  0  0  0  2  0  0  0  0  0  0
  -30.9320  -11.7720   20.9680 N   0  0  0  0  0  0  0  0  0  0  0  0
  -32.9920  -12.7560   21.0040 O   0  0  0  0  0  0  0  0  0  0  0  0
  -31.1280  -13.9810   21.3100 N   0  0  0  0  0  0  0  0  0  0  0  0
  -30.1200  -13.9280   21.3350 H   0  0  0  0  0  0  0  0  0  0  0  0
  -26.3710  -13.3130   20.7790 C   0  0  0  0  0  0  0  0  0  0  0  0
  -25.1420  -12.7560   21.0250 C   0  0  0  0  0  0  0  0  0  0  0  0
  -25.3350  -11.3440   21.0000 C   0  0  0  0  0  0  0  0  0  0  0  0
  -27.2390  -12.2450   20.6140 N   0  0  0  0  0  0  0  0  0  0  0  0
  -26.6160  -11.0560   20.8100 N   0  0  0  0  0  0  0  0  0  0  0  0
  -24.3620  -10.2450   21.0800 C   0  0  0  0  0  0  0  0  0  0  0  0
  -24.5250   -9.1840   21.9980 C   0  0  0  0  0  3  0  0  0  0  0  0
  -23.5690   -8.1480   22.0680 C   0  0  0  0  0  3  0  0  0  0  0  0
  -22.4350   -8.1710   21.2190 C   0  0  0  0  0  0  0  0  0  0  0  0
  -22.2920   -9.2150   20.2870 C   0  0  0  0  0  3  0  0  0  0  0  0
  -23.2490  -10.2420   20.2140 C   0  0  0  0  0  3  0  0  0  0  0  0
  -21.4690   -7.1940   21.2020 O   0  0  0  0  0  0  0  0  0  0  0  0
  -21.1600   -6.4650   22.3220 C   0  0  0  0  0  0  0  0  0  0  0  0
  -20.7250   -7.0820   23.5170 C   0  0  0  0  0  3  0  0  0  0  0  0
  -20.3520   -6.2900   24.6220 C   0  0  0  0  0  3  0  0  0  0  0  0
  -20.4060   -4.8860   24.5340 C   0  0  0  0  0  0  0  0  0  0  0  0
  -20.8310   -4.2710   23.3440 C   0  0  0  0  0  3  0  0  0  0  0  0
  -21.2060   -5.0580   22.2410 C   0  0  0  0  0  0  0  0  0  0  0  0
  -21.5960   -4.4590   21.0900 F   0  0  0  0  0  0  0  0  0  0  0  0
  -20.0390   -4.1260   25.5920 F   0  0  0  0  0  0  0  0  0  0  0  0
  -23.8460  -13.4960   21.1790 C   0  0  0  0  0  0  0  0  0  0  0  0
  -22.9190  -12.9440   21.9580 N   0  0  0  0  0  0  0  0  0  0  0  0
  -23.6630  -14.5880   20.6430 O   0  0  0  0  0  0  0  0  0  0  0  0
  -23.0760  -12.0520   22.4030 H   0  0  0  0  0  0  0  0  0  0  0  0
  -22.0380  -13.4180   22.1060 H   0  0  0  0  0  0  0  0  0  0  0  0
  -26.8170  -14.6250   20.6590 N   0  0  0  0  0  0  0  0  0  0  0  0
  -26.1830  -15.4180   20.6720 H   0  0  0  0  0  0  0  0  0  0  0  0
  -27.7520  -14.8730   20.3660 H   0  0  0  0  0  0  0  0  0  0  0  0
  2  4  1  0
  2  1  1  0
  3  2  1  0
  5  2  1  0
  6  5  1  0
  7  6  1  0
  7  9  2  0
  8  7  1  0
 10  8  1  0
 11  8  1  0
 12 11  1  0
 13 12  1  0
 14 16  1  0
 14 13  1  0
 15 26  2  0
 16 21  1  0
 17 27  1  0
 17 25  1  0
 18 24  1  0
 18 20  1  0
 19 25  1  0
 20 19  1  0
 21 20  2  0
 22 23  1  0
 22 16  2  0
 23 18  2  0
 24 17  1  0
 25 15  1  0
 27 29  2  0
 28 27  1  0
 30 28  1  0
 31 40  2  0
 31 36  1  0
 32 28  1  0
 32 36  1  0
 33 32  1  0
 34 35  1  0
 34 33  1  0
 35 31  1  0
 36 37  2  0
 37 38  1  0
 39 38  2  0
 40 39  1  0
 41 15  1  0
 41 42  1  0
 41 46  1  0
 42 43  1  1
 42 45  1  0
 44 42  1  0
 46 49  1  0
 47 46  1  0
 47 51  1  0
 48 47  2  0
 51 50  1  0
 51 53  1  0
 53 54  1  0
 53 52  1  0
 55  1  1  0
 56 55  1  0
 57 56  1  0
 58 57  1  0
 59 58  1  0
 60 59  1  0
 61 60  1  0
 62 61  1  0
 63 62  1  0
 64 65  1  0
 64 63  1  0
 65 66  1  0
 66 67  1  0
 67 68  1  0
 68 69  1  0
 69 70  1  0
 70 79  1  0
 71 79  1  0
 72 77  1  0
 73 74  1  0
 73 72  1  0
 75 74  1  0
 75 84  1  0
 75 76  1  0
 77 71  1  0
 77 76  1  0
 78 71  2  0
 79 80  1  0
 81 82  2  0
 82101  1  0
 83 82  1  0
 83 86  1  0
 84 81  1  0
 84 85  1  0
 85 83  2  0
 86 87  1  0
 87 88  2  0
 89 88  1  0
 90 89  2  0
 91 90  1  0
 91 86  2  0
 92 89  1  0
 92 93  1  0
 93 94  1  0
 94 95  2  0
 96 95  1  0
 96100  1  0
 97 96  2  0
 98 93  2  0
 98 97  1  0
 99 98  1  0
101102  1  0
102105  1  0
102104  1  0
103101  2  0
106107  1  0
106 81  1  0
108106  1  0
M  ISO  4  13 101  14 101  71 100  79 100
M  END
>  <TORSDO>  (64) 
F 39

>  <SCORE>  (64) 
-4.946

>  <name>  (64) 
68

>  <ligand_id>  (64) 
68

>  <original_smiles>  (64) 
[H]c1c([H])c([H])c2c(c1[H])C([H])([H])C([H])([H])C([H])([H])C2([H])N([H])C(=O)C1([H])N(C(=O)C([H])(N([H])C(=O)C([H])(N([H])C([H])([H])[H])C([H])([H])[H])C(C([H])([H])[H])(C([H])([H])[H])C([H])([H])[H])C([H])([H])c2c([H])c(OC([H])([H])C([H])([H])C([H])([H])N([H])C(=O)C([H])([H])C([H])([H])[N+]([H])([H])C([H])([H])C([H])([H])OC([H])([H])C([H])([H])OC([H])([H])C([H])([H])OC([H])([H])C([H])([H])OC([H])([H])C([H])([H])OC([H])([H])C([H])([H])N([H])C(=O)N3C([H])([H])C([H])([H])C([H])([H])C([H])(n4nc(-c5c([H])c([H])c(Oc6c([H])c([H])c(F)c([H])c6F)c([H])c5[H])c(C(=O)N([H])[H])c4N([H])[H])C3([H])[H])c([H])c([H])c2C1([H])[H]

>  <smiles>  (64) 
[H]c1c([H])c([H])c2c(c1[H])C([H])([H])C([H])([H])C([H])([H])C2([H])N([H])C(=O)C1([H])N(C(=O)C([H])(N([H])C(=O)C([H])(N([H])C([H])([H])[H])C([H])([H])[H])C(C([H])([H])[H])(C([H])([H])[H])C([H])([H])[H])C([H])([H])c2c([H])c(OC([H])([H])C([H])([H])C([H])([H])N([H])C(=O)C([H])([H])C([H])([H])[N+]([H])([H])C([H])([H])C([H])([H])OC([H])([H])C([H])([H])OC([H])([H])C([H])([H])OC([H])([H])C([H])([H])OC([H])([H])C([H])([H])OC([H])([H])C([H])([H])N([H])C(=O)N3C([H])([H])C([H])([H])C([H])([H])C([H])(n4nc(-c5c([H])c([H])c(Oc6c([H])c([H])c(F)c([H])c6F)c([H])c5[H])c(C(=O)N([H])[H])c4N([H])[H])C3([H])[H])c([H])c([H])c2C1([H])[H]

$$$$
69:0:0
     RDKit          3D

104109  0  0  1  0  0  0  0  0999 V2000
  -20.0890  -16.3610   19.9860 C   0  0  0  0  0  2  0  0  0  0  0  0
  -20.7140  -17.4980   20.6670 O   0  0  0  0  0  0  0  0  0  0  0  0
  -21.7110  -18.2720   19.8900 C   0  0  0  0  0  2  0  0  0  0  0  0
  -22.0770  -19.7270   20.4540 C   0  0  0  0  0  2  0  0  0  0  0  0
  -23.3470  -20.3400   20.0140 O   0  0  0  0  0  0  0  0  0  0  0  0
  -23.9330  -21.4650   20.7810 C   0  0  0  0  0  2  0  0  0  0  0  0
  -25.0870  -22.2200   19.9950 C   0  0  0  0  0  0  0  0  0  0  0  0
  -25.9800  -23.0570   20.6230 N   0  0  0  0  0  0  0  0  0  0  0  0
  -25.1650  -22.0430   18.7770 O   0  0  0  0  0  0  0  0  0  0  0  0
  -25.9380  -23.1010   21.6320 H   0  0  0  0  0  0  0  0  0  0  0  0
  -27.1210  -23.8060   19.9840 C   0  0  0  0  0  2  0  0  0  0  0  0
  -27.7400  -25.0470   20.7840 C   0  0  0  0  0  2  0  0  0  0  0  0
  -28.1340  -26.3500   20.1740 O   0  0  0  0  0  0  0  0  0  0  0  0
  -24.6290  -31.8580   23.1980 C   0  0  0  0  0  0  0  0  0  0  0  0
  -27.1190  -27.2890   20.1170 C   0  0  0  0  0  0  0  0  0  0  0  0
  -23.4140  -30.4920   21.5450 C   0  0  0  0  0  3  0  0  0  0  0  0
  -24.8340  -28.9520   20.1040 C   0  0  0  0  0  0  0  0  0  0  0  0
  -25.9560  -30.7880   21.3570 C   0  0  0  0  0  2  0  0  0  0  0  0
  -26.0160  -29.4140   20.7010 C   0  0  0  0  0  0  0  0  0  0  0  0
  -27.1790  -28.5890   20.6990 C   0  0  0  0  0  3  0  0  0  0  0  0
  -25.9370  -26.8940   19.4740 C   0  0  0  0  0  3  0  0  0  0  0  0
  -24.7990  -27.7040   19.4750 C   0  0  0  0  0  3  0  0  0  0  0  0
  -23.6160  -29.8410   20.1540 C   0  0  0  0  0  2  0  0  0  0  0  0
  -24.6870  -31.0640   22.0900 N   0  0  0  0  0  0  0  0  0  0  0  0
  -23.5450  -32.1360   23.7340 O   0  0  0  0  0  0  0  0  0  0  0  0
  -22.7480  -29.4620   22.4910 C   0  0  0  0  0  0  0  0  0  0  0  0
  -21.4180  -29.3050   22.3700 N   0  0  0  0  0  0  0  0  0  0  0  0
  -23.4250  -28.8120   23.2930 O   0  0  0  0  0  0  0  0  0  0  0  0
  -20.9330  -29.8840   21.6980 H   0  0  0  0  0  0  0  0  0  0  0  0
  -18.0300  -28.1370   22.8490 C   0  0  0  0  0  0  0  0  0  0  0  0
  -20.5890  -28.3680   23.1310 C   0  0  0  0  0  3  0  0  0  0  0  0
  -20.6810  -26.9410   22.5410 C   0  0  0  0  0  2  0  0  0  0  0  0
  -19.5770  -26.6400   21.5210 C   0  0  0  0  0  2  0  0  0  0  0  0
  -18.1960  -26.7910   22.1650 C   0  0  0  0  0  2  0  0  0  0  0  0
  -19.1540  -28.8840   23.2900 C   0  0  0  0  0  0  0  0  0  0  0  0
  -18.9460  -30.1440   23.8920 C   0  0  0  0  0  3  0  0  0  0  0  0
  -17.6460  -30.6570   24.0570 C   0  0  0  0  0  3  0  0  0  0  0  0
  -16.5360  -29.9070   23.6310 C   0  0  0  0  0  3  0  0  0  0  0  0
  -16.7290  -28.6490   23.0330 C   0  0  0  0  0  3  0  0  0  0  0  0
  -25.9140  -32.4760   23.8300 C   0  0  0  0  0  3  0  0  0  0  0  0
  -26.4550  -31.6540   25.0650 C   0  0  1  0  0  0  0  0  0  0  0  0
  -25.3850  -31.3640   26.1430 C   0  0  0  0  0  1  0  0  0  0  0  0
  -27.0320  -30.2980   24.5980 C   0  0  0  0  0  1  0  0  0  0  0  0
  -27.6120  -32.4250   25.7410 C   0  0  0  0  0  1  0  0  0  0  0  0
  -25.5970  -33.8560   24.2260 N   0  0  0  0  0  0  0  0  0  0  0  0
  -25.9060  -34.9430   23.5070 C   0  0  0  0  0  0  0  0  0  0  0  0
  -26.5590  -34.8900   22.4610 O   0  0  0  0  0  0  0  0  0  0  0  0
  -25.0210  -33.9710   25.0470 H   0  0  0  0  0  0  0  0  0  0  0  0
  -24.1540  -36.7330   23.2630 C   0  0  0  0  0  1  0  0  0  0  0  0
  -25.4150  -36.3070   24.0320 C   0  0  0  0  0  3  0  0  0  0  0  0
  -27.5590  -37.1860   24.8500 C   0  0  0  0  0  1  0  0  0  0  0  0
  -26.4360  -37.3740   23.9350 N   0  0  0  0  0  0  0  0  0  0  0  0
  -26.0230  -38.2850   24.1200 H   0  0  0  0  0  0  0  0  0  0  0  0
  -19.3140  -15.1530   20.7280 C   0  0  0  0  0  2  0  0  0  0  0  0
  -19.9350  -14.2600   21.7300 O   0  0  0  0  0  0  0  0  0  0  0  0
  -19.8590  -12.7800   21.5950 C   0  0  0  0  0  2  0  0  0  0  0  0
  -20.4120  -11.8470   22.8270 C   0  0  0  0  0  2  0  0  0  0  0  0
  -21.8270  -11.3550   22.8390 O   0  0  0  0  0  0  0  0  0  0  0  0
  -22.6200  -11.0590   24.0510 C   0  0  0  0  0  2  0  0  0  0  0  0
  -24.1660  -11.5470   24.1710 C   0  0  0  0  0  2  0  0  0  0  0  0
  -25.2820  -10.8510   23.5090 O   0  0  0  0  0  0  0  0  0  0  0  0
  -26.6180  -11.4580   23.4380 C   0  0  0  0  0  2  0  0  0  0  0  0
  -27.8400  -10.7850   22.6140 C   0  0  0  0  0  2  0  0  0  0  0  0
  -27.8820  -11.0520   21.1760 O   0  0  0  0  0  0  0  0  0  0  0  0
  -28.9560  -11.4760   20.2300 C   0  0  0  0  0  1  0  0  0  0  0  0
  -29.4240  -13.8660   18.9670 C   0  0  0  0  0  1  0  0  0  0  0  0
  -30.9630  -14.4020   20.5410 C   0  0  0  0  0  0  0  0  0  0  0  0
  -31.0400  -12.2160   19.4100 C   0  0  0  0  0  1  0  0  0  0  0  0
  -29.7390  -11.7570   17.9920 C   0  0  0  0  0  1  0  0  0  0  0  0
  -27.8680  -12.2290   18.2540 C   0  0  0  0  0  2  0  0  0  0  0  0
  -27.3750  -13.2100   19.8450 C   0  0  0  0  0  3  0  0  0  0  0  0
  -28.7040  -13.5780   21.2240 C   0  0  0  0  0  2  0  0  0  0  0  0
  -30.4480  -13.2150   20.8260 N   0  0  0  0  0  0  0  0  0  0  0  0
  -32.1310  -14.7320   20.4530 O   0  0  0  0  0  0  0  0  0  0  0  0
  -30.1330  -14.9280   19.6890 N   0  0  0  0  0  0  0  0  0  0  0  0
  -30.3640  -15.7920   19.2260 H   0  0  0  0  0  0  0  0  0  0  0  0
  -25.1800  -13.8420   20.6220 C   0  0  0  0  0  0  0  0  0  0  0  0
  -24.1090  -13.0810   20.8930 C   0  0  0  0  0  0  0  0  0  0  0  0
  -24.4780  -11.7000   20.7880 C   0  0  0  0  0  0  0  0  0  0  0  0
  -26.1080  -12.9260   20.3030 N   0  0  0  0  0  0  0  0  0  0  0  0
  -25.6750  -11.6590   20.3150 N   0  0  0  0  0  0  0  0  0  0  0  0
  -23.8000  -10.4120   20.9260 C   0  0  0  0  0  0  0  0  0  0  0  0
  -24.3790   -9.3110   21.6080 C   0  0  0  0  0  3  0  0  0  0  0  0
  -23.6500   -8.1490   21.8990 C   0  0  0  0  0  3  0  0  0  0  0  0
  -22.3600   -8.0150   21.3490 C   0  0  0  0  0  0  0  0  0  0  0  0
  -21.8430   -9.0490   20.5390 C   0  0  0  0  0  3  0  0  0  0  0  0
  -22.5530  -10.2390   20.3270 C   0  0  0  0  0  3  0  0  0  0  0  0
  -21.5960   -6.8880   21.4580 O   0  0  0  0  0  0  0  0  0  0  0  0
  -21.6740   -6.0720   22.5520 C   0  0  0  0  0  0  0  0  0  0  0  0
  -21.3900   -6.5480   23.8460 C   0  0  0  0  0  3  0  0  0  0  0  0
  -21.3810   -5.6550   24.9370 C   0  0  0  0  0  3  0  0  0  0  0  0
  -21.6240   -4.2870   24.7290 C   0  0  0  0  0  0  0  0  0  0  0  0
  -21.8890   -3.8080   23.4360 C   0  0  0  0  0  3  0  0  0  0  0  0
  -21.9220   -4.6990   22.3430 C   0  0  0  0  0  0  0  0  0  0  0  0
  -22.1640   -4.2350   21.0940 F   0  0  0  0  0  0  0  0  0  0  0  0
  -21.5910   -3.4240   25.7690 F   0  0  0  0  0  0  0  0  0  0  0  0
  -22.8320  -13.7160   21.1200 C   0  0  0  0  0  0  0  0  0  0  0  0
  -22.3940  -13.6880   22.3350 N   0  0  0  0  0  0  0  0  0  0  0  0
  -22.3510  -14.4790   20.3040 O   0  0  0  0  0  0  0  0  0  0  0  0
  -22.5910  -12.8850   22.9150 H   0  0  0  0  0  0  0  0  0  0  0  0
  -21.5030  -14.1650   22.4250 H   0  0  0  0  0  0  0  0  0  0  0  0
  -25.3950  -15.2220   20.5510 N   0  0  0  0  0  0  0  0  0  0  0  0
  -24.5810  -15.8300   20.4690 H   0  0  0  0  0  0  0  0  0  0  0  0
  -26.2130  -15.5820   20.0750 H   0  0  0  0  0  0  0  0  0  0  0  0
  1  2  1  0
  1 54  1  0
  3  4  1  0
  3  2  1  0
  5  4  1  0
  5  6  1  0
  7  8  1  0
  7  6  1  0
  8 10  1  0
  9  7  2  0
 11  8  1  0
 11 12  1  0
 13 12  1  0
 14 25  2  0
 15 13  1  0
 15 20  1  0
 16 24  1  0
 16 26  1  0
 17 23  1  0
 17 19  1  0
 18 24  1  0
 19 18  1  0
 20 19  2  0
 21 22  1  0
 21 15  2  0
 22 17  2  0
 23 16  1  0
 24 14  1  0
 26 28  2  0
 27 26  1  0
 29 27  1  0
 30 39  2  0
 30 35  1  0
 31 27  1  0
 31 35  1  0
 32 31  1  0
 33 34  1  0
 33 32  1  0
 34 30  1  0
 35 36  2  0
 36 37  1  0
 38 37  2  0
 39 38  1  0
 40 14  1  0
 40 45  1  0
 40 41  1  0
 41 44  1  1
 41 42  1  0
 43 41  1  0
 45 48  1  0
 46 50  1  0
 46 45  1  0
 47 46  2  0
 50 49  1  0
 52 50  1  0
 52 53  1  0
 52 51  1  0
 54 55  1  0
 56 55  1  0
 56 57  1  0
 57 58  1  0
 58 59  1  0
 59 60  1  0
 61 60  1  0
 62 61  1  0
 63 62  1  0
 64 63  1  0
 65 64  1  0
 66 75  1  0
 67 73  1  0
 68 73  1  0
 69 70  1  0
 71 70  1  0
 71 80  1  0
 71 72  1  0
 73 72  1  0
 74 67  2  0
 75 67  1  0
 76 75  1  0
 77 78  2  0
 78 97  1  0
 79 78  1  0
 79 82  1  0
 80 81  1  0
 80 77  1  0
 81 79  2  0
 82 83  1  0
 83 84  2  0
 85 88  1  0
 85 84  1  0
 86 85  2  0
 87 86  1  0
 87 82  2  0
 88 89  1  0
 89 90  1  0
 90 91  2  0
 92 91  1  0
 92 96  1  0
 93 92  2  0
 94 89  2  0
 94 93  1  0
 95 94  1  0
 97 98  1  0
 98101  1  0
 98100  1  0
 99 97  2  0
102 77  1  0
103102  1  0
104102  1  0
M  ISO  4  12 101  13 101  67 100  75 100
M  END
>  <TORSDO>  (65) 
F 37

>  <SCORE>  (65) 
40.873

>  <name>  (65) 
69

>  <ligand_id>  (65) 
69

>  <original_smiles>  (65) 
[H]c1c([H])c([H])c2c(c1[H])C([H])([H])C([H])([H])C([H])([H])C2([H])N([H])C(=O)C1([H])N(C(=O)C([H])(N([H])C(=O)C([H])(N([H])C([H])([H])[H])C([H])([H])[H])C(C([H])([H])[H])(C([H])([H])[H])C([H])([H])[H])C([H])([H])c2c([H])c(OC([H])([H])C([H])([H])N([H])C(=O)C([H])([H])OC([H])([H])C([H])([H])OC([H])([H])C([H])([H])OC([H])([H])C([H])([H])OC([H])([H])C([H])([H])OC([H])([H])C([H])([H])OC([H])([H])C([H])([H])N([H])C(=O)N3C([H])([H])C([H])([H])C([H])([H])C([H])(n4nc(-c5c([H])c([H])c(Oc6c([H])c([H])c(F)c([H])c6F)c([H])c5[H])c(C(=O)N([H])[H])c4N([H])[H])C3([H])[H])c([H])c([H])c2C1([H])[H]

>  <smiles>  (65) 
[H]c1c([H])c([H])c2c(c1[H])C([H])([H])C([H])([H])C([H])([H])C2([H])N([H])C(=O)C1([H])N(C(=O)C([H])(N([H])C(=O)C([H])(N([H])C([H])([H])[H])C([H])([H])[H])C(C([H])([H])[H])(C([H])([H])[H])C([H])([H])[H])C([H])([H])c2c([H])c(OC([H])([H])C([H])([H])N([H])C(=O)C([H])([H])OC([H])([H])C([H])([H])OC([H])([H])C([H])([H])OC([H])([H])C([H])([H])OC([H])([H])C([H])([H])OC([H])([H])C([H])([H])OC([H])([H])C([H])([H])N([H])C(=O)N3C([H])([H])C([H])([H])C([H])([H])C([H])(n4nc(-c5c([H])c([H])c(Oc6c([H])c([H])c(F)c([H])c6F)c([H])c5[H])c(C(=O)N([H])[H])c4N([H])[H])C3([H])[H])c([H])c([H])c2C1([H])[H]

$$$$
70:0:0
     RDKit          3D

100107  0  0  1  0  0  0  0  0999 V2000
  -22.9960  -21.3400   20.9070 C   0  0  0  0  0  2  0  0  0  0  0  0
  -24.2530  -22.2040   21.0220 C   0  0  0  0  0  0  0  0  0  0  0  0
  -24.9830  -22.3540   19.9110 N   0  0  0  0  0  0  0  0  0  0  0  0
  -24.5240  -22.7790   22.0790 O   0  0  0  0  0  0  0  0  0  0  0  0
  -24.7230  -21.7950   19.1090 H   0  0  0  0  0  0  0  0  0  0  0  0
  -25.8630  -23.4860   19.6670 C   0  0  0  0  0  2  0  0  0  0  0  0
  -27.3610  -23.1430   19.7390 C   0  0  0  0  0  2  0  0  0  0  0  0
  -28.2440  -24.3630   19.4020 C   0  0  0  0  0  2  0  0  0  0  0  0
  -28.3080  -25.4010   20.5450 C   0  0  0  0  0  2  0  0  0  0  0  0
  -28.4090  -26.7470   20.0660 O   0  0  0  0  0  0  0  0  0  0  0  0
  -24.6150  -31.8750   23.2150 C   0  0  0  0  0  0  0  0  0  0  0  0
  -27.2390  -27.4710   20.0720 C   0  0  0  0  0  0  0  0  0  0  0  0
  -23.3980  -30.5030   21.5580 C   0  0  0  0  0  3  0  0  0  0  0  0
  -24.8430  -28.9660   20.1230 C   0  0  0  0  0  0  0  0  0  0  0  0
  -25.9250  -30.8490   21.3560 C   0  0  0  0  0  2  0  0  0  0  0  0
  -26.0070  -29.4850   20.7050 C   0  0  0  0  0  0  0  0  0  0  0  0
  -27.2130  -28.7500   20.6680 C   0  0  0  0  0  3  0  0  0  0  0  0
  -26.0640  -26.9740   19.4710 C   0  0  0  0  0  3  0  0  0  0  0  0
  -24.8650  -27.7040   19.5040 C   0  0  0  0  0  3  0  0  0  0  0  0
  -23.6070  -29.8360   20.1720 C   0  0  0  0  0  2  0  0  0  0  0  0
  -24.6650  -31.0870   22.1030 N   0  0  0  0  0  0  0  0  0  0  0  0
  -23.5380  -32.1520   23.7580 O   0  0  0  0  0  0  0  0  0  0  0  0
  -22.7390  -29.4760   22.5060 C   0  0  0  0  0  0  0  0  0  0  0  0
  -21.4130  -29.3090   22.3740 N   0  0  0  0  0  0  0  0  0  0  0  0
  -23.4170  -28.8260   23.3050 O   0  0  0  0  0  0  0  0  0  0  0  0
  -20.9290  -29.8850   21.6980 H   0  0  0  0  0  0  0  0  0  0  0  0
  -18.0300  -28.1300   22.8430 C   0  0  0  0  0  0  0  0  0  0  0  0
  -20.5850  -28.3710   23.1320 C   0  0  0  0  0  3  0  0  0  0  0  0
  -20.6850  -26.9420   22.5520 C   0  0  0  0  0  2  0  0  0  0  0  0
  -19.5900  -26.6250   21.5270 C   0  0  0  0  0  2  0  0  0  0  0  0
  -18.2020  -26.7840   22.1580 C   0  0  0  0  0  2  0  0  0  0  0  0
  -19.1500  -28.8820   23.2840 C   0  0  0  0  0  0  0  0  0  0  0  0
  -18.9390  -30.1430   23.8820 C   0  0  0  0  0  3  0  0  0  0  0  0
  -17.6360  -30.6540   24.0440 C   0  0  0  0  0  3  0  0  0  0  0  0
  -16.5300  -29.8980   23.6210 C   0  0  0  0  0  3  0  0  0  0  0  0
  -16.7240  -28.6370   23.0300 C   0  0  0  0  0  3  0  0  0  0  0  0
  -25.9070  -32.4840   23.8420 C   0  0  0  0  0  3  0  0  0  0  0  0
  -25.5940  -33.8620   24.2390 N   0  0  0  0  0  0  0  0  0  0  0  0
  -25.9030  -34.9460   23.5170 C   0  0  0  0  0  0  0  0  0  0  0  0
  -26.5570  -34.8910   22.4720 O   0  0  0  0  0  0  0  0  0  0  0  0
  -25.0160  -33.9740   25.0590 H   0  0  0  0  0  0  0  0  0  0  0  0
  -24.1490  -36.7300   23.2620 C   0  0  0  0  0  1  0  0  0  0  0  0
  -25.4100  -36.3100   24.0340 C   0  0  0  0  0  3  0  0  0  0  0  0
  -27.5580  -37.1800   24.8460 C   0  0  0  0  0  1  0  0  0  0  0  0
  -26.4270  -37.3780   23.9440 N   0  0  0  0  0  0  0  0  0  0  0  0
  -26.0180  -38.2870   24.1440 H   0  0  0  0  0  0  0  0  0  0  0  0
  -26.4490  -31.6590   25.0730 C   0  0  1  0  0  0  0  0  0  0  0  0
  -25.3760  -31.3690   26.1500 C   0  0  0  0  0  1  0  0  0  0  0  0
  -27.0300  -30.3040   24.6030 C   0  0  0  0  0  1  0  0  0  0  0  0
  -27.6090  -32.4280   25.7480 C   0  0  0  0  0  1  0  0  0  0  0  0
  -23.1930  -20.0970   21.5680 O   0  0  0  0  0  0  0  0  0  0  0  0
  -22.1010  -19.2110   21.3490 C   0  0  0  0  0  2  0  0  0  0  0  0
  -22.2810  -17.9340   22.1770 C   0  0  0  0  0  2  0  0  0  0  0  0
  -22.0030  -18.2280   23.5390 O   0  0  0  0  0  0  0  0  0  0  0  0
  -22.2490  -17.1430   24.4270 C   0  0  0  0  0  2  0  0  0  0  0  0
  -23.7040  -17.1320   24.9200 C   0  0  0  0  0  2  0  0  0  0  0  0
  -24.5000  -16.2960   24.0950 O   0  0  0  0  0  0  0  0  0  0  0  0
  -25.8590  -16.2670   24.5080 C   0  0  0  0  0  2  0  0  0  0  0  0
  -26.4810  -14.9340   24.0610 C   0  0  0  0  0  2  0  0  0  0  0  0
  -27.9040  -14.9260   24.1190 O   0  0  0  0  0  0  0  0  0  0  0  0
  -28.5220  -15.7260   23.1180 C   0  0  0  0  0  2  0  0  0  0  0  0
  -29.9480  -15.2260   22.8410 C   0  0  0  0  0  2  0  0  0  0  0  0
  -30.7650  -14.3660   20.6570 C   0  0  0  0  0  0  0  0  0  0  0  0
  -30.4070  -12.2750   19.4050 C   0  0  0  0  0  2  0  0  0  0  0  0
  -29.4870  -12.5340   18.1950 C   0  0  0  0  0  2  0  0  0  0  0  0
  -28.0070  -12.3890   18.6020 C   0  0  0  0  0  2  0  0  0  0  0  0
  -27.6630  -13.1960   19.8830 C   0  0  0  0  0  3  0  0  0  0  0  0
  -28.6990  -12.9120   20.9890 C   0  0  0  0  0  2  0  0  0  0  0  0
  -30.0440  -13.2250   20.4690 N   0  0  0  0  0  0  0  0  0  0  0  0
  -31.8000  -14.6200   20.0390 O   0  0  0  0  0  0  0  0  0  0  0  0
  -30.2350  -15.3320   21.4140 N   0  0  0  0  0  0  0  0  0  0  0  0
  -30.6060  -16.2390   21.1660 H   0  0  0  0  0  0  0  0  0  0  0  0
  -25.2610  -13.8130   20.5780 C   0  0  0  0  0  0  0  0  0  0  0  0
  -24.1810  -13.0430   20.9280 C   0  0  0  0  0  0  0  0  0  0  0  0
  -24.6330  -11.6890   20.8730 C   0  0  0  0  0  0  0  0  0  0  0  0
  -26.3010  -12.9270   20.3410 N   0  0  0  0  0  0  0  0  0  0  0  0
  -25.9270  -11.6450   20.5830 N   0  0  0  0  0  0  0  0  0  0  0  0
  -23.9020  -10.4270   21.0370 C   0  0  0  0  0  0  0  0  0  0  0  0
  -24.3630   -9.4140   21.9060 C   0  0  0  0  0  3  0  0  0  0  0  0
  -23.6280   -8.2220   22.0700 C   0  0  0  0  0  3  0  0  0  0  0  0
  -22.4220   -8.0300   21.3560 C   0  0  0  0  0  0  0  0  0  0  0  0
  -21.9760   -9.0330   20.4770 C   0  0  0  0  0  3  0  0  0  0  0  0
  -22.7100  -10.2180   20.3140 C   0  0  0  0  0  3  0  0  0  0  0  0
  -21.6590   -6.8910   21.4240 O   0  0  0  0  0  0  0  0  0  0  0  0
  -21.6770   -6.0780   22.5270 C   0  0  0  0  0  0  0  0  0  0  0  0
  -21.3950   -6.5710   23.8200 C   0  0  0  0  0  3  0  0  0  0  0  0
  -21.3680   -5.6890   24.9190 C   0  0  0  0  0  3  0  0  0  0  0  0
  -21.6020   -4.3130   24.7220 C   0  0  0  0  0  0  0  0  0  0  0  0
  -21.8730   -3.8200   23.4330 C   0  0  0  0  0  3  0  0  0  0  0  0
  -21.9110   -4.7020   22.3390 C   0  0  0  0  0  0  0  0  0  0  0  0
  -22.1570   -4.2200   21.0970 F   0  0  0  0  0  0  0  0  0  0  0  0
  -21.5710   -3.4610   25.7740 F   0  0  0  0  0  0  0  0  0  0  0  0
  -22.7850  -13.5330   21.1960 C   0  0  0  0  0  0  0  0  0  0  0  0
  -22.0480  -12.8360   22.0570 N   0  0  0  0  0  0  0  0  0  0  0  0
  -22.3540  -14.5630   20.6800 O   0  0  0  0  0  0  0  0  0  0  0  0
  -22.4100  -12.0090   22.5060 H   0  0  0  0  0  0  0  0  0  0  0  0
  -21.1150  -13.1470   22.2850 H   0  0  0  0  0  0  0  0  0  0  0  0
  -25.4400  -15.1820   20.4290 N   0  0  0  0  0  0  0  0  0  0  0  0
  -24.7080  -15.8440   20.6550 H   0  0  0  0  0  0  0  0  0  0  0  0
  -26.2870  -15.6210   20.0900 H   0  0  0  0  0  0  0  0  0  0  0  0
  1  2  1  0
  1 51  1  0
  2  4  2  0
  3  2  1  0
  5  3  1  0
  6  7  1  0
  6  3  1  0
  8  7  1  0
  8  9  1  0
 10 12  1  0
 10  9  1  0
 11 22  2  0
 12 17  1  0
 13 21  1  0
 13 23  1  0
 14 20  1  0
 14 16  1  0
 15 21  1  0
 16 15  1  0
 17 16  2  0
 18 19  1  0
 18 12  2  0
 19 14  2  0
 20 13  1  0
 21 11  1  0
 23 25  2  0
 24 23  1  0
 26 24  1  0
 27 36  2  0
 27 32  1  0
 28 24  1  0
 28 32  1  0
 29 28  1  0
 30 31  1  0
 30 29  1  0
 31 27  1  0
 32 33  2  0
 33 34  1  0
 35 34  2  0
 36 35  1  0
 37 11  1  0
 37 38  1  0
 37 47  1  0
 38 41  1  0
 39 43  1  0
 39 38  1  0
 40 39  2  0
 43 42  1  0
 45 43  1  0
 45 46  1  0
 45 44  1  0
 47 50  1  1
 47 48  1  0
 49 47  1  0
 52 51  1  0
 52 53  1  0
 53 54  1  0
 54 55  1  0
 55 56  1  0
 57 58  1  0
 57 56  1  0
 59 60  1  0
 59 58  1  0
 61 60  1  0
 62 61  1  0
 63 71  1  0
 64 69  1  0
 65 66  1  0
 65 64  1  0
 67 66  1  0
 67 76  1  0
 67 68  1  0
 69 63  1  0
 69 68  1  0
 70 63  2  0
 71 62  1  0
 72 71  1  0
 73 74  2  0
 74 93  1  0
 75 74  1  0
 75 78  1  0
 76 73  1  0
 76 77  1  0
 77 75  2  0
 78 79  1  0
 79 80  2  0
 81 84  1  0
 81 80  1  0
 82 81  2  0
 83 82  1  0
 83 78  2  0
 84 85  1  0
 85 86  1  0
 86 87  2  0
 88 87  1  0
 88 92  1  0
 89 88  2  0
 90 85  2  0
 90 89  1  0
 91 90  1  0
 93 94  1  0
 94 97  1  0
 94 96  1  0
 95 93  2  0
 98 73  1  0
 98 99  1  0
100 98  1  0
M  ISO  4   9 101  10 101  63 100  71 100
M  END
>  <TORSDO>  (66) 
F 33

>  <SCORE>  (66) 
54.190

>  <name>  (66) 
70

>  <ligand_id>  (66) 
70

>  <original_smiles>  (66) 
[H]c1c([H])c([H])c2c(c1[H])C([H])([H])C([H])([H])C([H])([H])C2([H])N([H])C(=O)C1([H])N(C(=O)C([H])(N([H])C(=O)C([H])(N([H])C([H])([H])[H])C([H])([H])[H])C(C([H])([H])[H])(C([H])([H])[H])C([H])([H])[H])C([H])([H])c2c([H])c(OC([H])([H])C([H])([H])C([H])([H])C([H])([H])N([H])C(=O)C([H])([H])OC([H])([H])C([H])([H])OC([H])([H])C([H])([H])OC([H])([H])C([H])([H])OC([H])([H])C([H])([H])N([H])C(=O)N3C([H])([H])C([H])([H])C([H])([H])C([H])(n4nc(-c5c([H])c([H])c(Oc6c([H])c([H])c(F)c([H])c6F)c([H])c5[H])c(C(=O)N([H])[H])c4N([H])[H])C3([H])[H])c([H])c([H])c2C1([H])[H]

>  <smiles>  (66) 
[H]c1c([H])c([H])c2c(c1[H])C([H])([H])C([H])([H])C([H])([H])C2([H])N([H])C(=O)C1([H])N(C(=O)C([H])(N([H])C(=O)C([H])(N([H])C([H])([H])[H])C([H])([H])[H])C(C([H])([H])[H])(C([H])([H])[H])C([H])([H])[H])C([H])([H])c2c([H])c(OC([H])([H])C([H])([H])C([H])([H])C([H])([H])N([H])C(=O)C([H])([H])OC([H])([H])C([H])([H])OC([H])([H])C([H])([H])OC([H])([H])C([H])([H])OC([H])([H])C([H])([H])N([H])C(=O)N3C([H])([H])C([H])([H])C([H])([H])C([H])(n4nc(-c5c([H])c([H])c(Oc6c([H])c([H])c(F)c([H])c6F)c([H])c5[H])c(C(=O)N([H])[H])c4N([H])[H])C3([H])[H])c([H])c([H])c2C1([H])[H]

$$$$
71:0:0
     RDKit          3D

108115  0  0  1  0  0  0  0  0999 V2000
  -30.2530  -21.6130   24.4370 C   0  0  0  0  0  2  0  0  0  0  0  0
  -28.9320  -22.0210   24.1160 O   0  0  0  0  0  0  0  0  0  0  0  0
  -28.0730  -22.0630   25.2450 C   0  0  0  0  0  2  0  0  0  0  0  0
  -26.6830  -22.4760   24.7530 C   0  0  0  0  0  2  0  0  0  0  0  0
  -26.7340  -23.8670   24.4890 O   0  0  0  0  0  0  0  0  0  0  0  0
  -25.5440  -24.3920   23.9160 C   0  0  0  0  0  2  0  0  0  0  0  0
  -25.7130  -25.9110   23.8120 C   0  0  0  0  0  0  0  0  0  0  0  0
  -26.5490  -26.4130   22.8920 N   0  0  0  0  0  0  0  0  0  0  0  0
  -25.1290  -26.6540   24.6000 O   0  0  0  0  0  0  0  0  0  0  0  0
  -26.6800  -27.4140   22.9480 H   0  0  0  0  0  0  0  0  0  0  0  0
  -27.1140  -25.7410   21.7120 C   0  0  0  0  0  2  0  0  0  0  0  0
  -28.5230  -26.2480   21.3370 C   0  0  0  0  0  2  0  0  0  0  0  0
  -28.7280  -27.7670   21.4510 C   0  0  0  0  0  2  0  0  0  0  0  0
  -27.5120  -28.4600   21.1600 O   0  0  0  0  0  0  0  0  0  0  0  0
  -28.5470  -32.0220   27.2060 C   0  0  0  0  0  0  0  0  0  0  0  0
  -26.9390  -29.0090   22.2780 C   0  0  0  0  0  0  0  0  0  0  0  0
  -26.3500  -30.9070   26.9750 C   0  0  0  0  0  3  0  0  0  0  0  0
  -25.8010  -30.0230   24.6450 C   0  0  0  0  0  0  0  0  0  0  0  0
  -27.6360  -31.6980   24.9160 C   0  0  0  0  0  2  0  0  0  0  0  0
  -26.9930  -30.5640   24.1550 C   0  0  0  0  0  0  0  0  0  0  0  0
  -27.5670  -30.0620   22.9720 C   0  0  0  0  0  3  0  0  0  0  0  0
  -25.7250  -28.4820   22.7620 C   0  0  0  0  0  3  0  0  0  0  0  0
  -25.1600  -28.9780   23.9520 C   0  0  0  0  0  3  0  0  0  0  0  0
  -25.2480  -30.6300   25.9150 C   0  0  0  0  0  2  0  0  0  0  0  0
  -27.5710  -31.5450   26.3850 N   0  0  0  0  0  0  0  0  0  0  0  0
  -28.4230  -31.9830   28.4380 O   0  0  0  0  0  0  0  0  0  0  0  0
  -26.6520  -29.5870   27.7220 C   0  0  0  0  0  0  0  0  0  0  0  0
  -25.8610  -29.3080   28.7680 N   0  0  0  0  0  0  0  0  0  0  0  0
  -27.5520  -28.8330   27.3380 O   0  0  0  0  0  0  0  0  0  0  0  0
  -25.1630  -29.9900   29.0260 H   0  0  0  0  0  0  0  0  0  0  0  0
  -24.5280  -27.7640   31.7490 C   0  0  0  0  0  0  0  0  0  0  0  0
  -25.9270  -28.1090   29.6020 C   0  0  0  0  0  3  0  0  0  0  0  0
  -25.0980  -26.9530   28.9940 C   0  0  0  0  0  2  0  0  0  0  0  0
  -23.6660  -26.8850   29.5380 C   0  0  0  0  0  2  0  0  0  0  0  0
  -23.6740  -26.7150   31.0600 C   0  0  0  0  0  2  0  0  0  0  0  0
  -25.5770  -28.4280   31.0610 C   0  0  0  0  0  0  0  0  0  0  0  0
  -26.3260  -29.4120   31.7370 C   0  0  0  0  0  3  0  0  0  0  0  0
  -26.0430  -29.7400   33.0740 C   0  0  0  0  0  3  0  0  0  0  0  0
  -25.0170  -29.0640   33.7610 C   0  0  0  0  0  3  0  0  0  0  0  0
  -24.2660  -28.0760   33.1010 C   0  0  0  0  0  3  0  0  0  0  0  0
  -29.8500  -32.6680   26.6340 C   0  0  0  0  0  3  0  0  0  0  0  0
  -31.0860  -31.6880   26.6600 C   0  0  1  0  0  0  0  0  0  0  0  0
  -31.3260  -31.0370   28.0420 C   0  0  0  0  0  1  0  0  0  0  0  0
  -30.9000  -30.5550   25.6220 C   0  0  0  0  0  1  0  0  0  0  0  0
  -32.3710  -32.4530   26.2630 C   0  0  0  0  0  1  0  0  0  0  0  0
  -30.1260  -33.8740   27.4250 N   0  0  0  0  0  0  0  0  0  0  0  0
  -29.8170  -35.1190   27.0380 C   0  0  0  0  0  0  0  0  0  0  0  0
  -29.3370  -35.3770   25.9310 O   0  0  0  0  0  0  0  0  0  0  0  0
  -30.4690  -33.7300   28.3640 H   0  0  0  0  0  0  0  0  0  0  0  0
  -28.7830  -36.6510   28.7450 C   0  0  0  0  0  1  0  0  0  0  0  0
  -30.0910  -36.2580   28.0390 C   0  0  0  0  0  3  0  0  0  0  0  0
  -32.0640  -37.2300   26.9480 C   0  0  0  0  0  1  0  0  0  0  0  0
  -30.7000  -37.4530   27.4180 N   0  0  0  0  0  0  0  0  0  0  0  0
  -30.7170  -38.2300   28.0740 H   0  0  0  0  0  0  0  0  0  0  0  0
  -30.7100  -20.5670   23.4190 C   0  0  0  0  0  2  0  0  0  0  0  0
  -29.7860  -19.4810   23.4090 O   0  0  0  0  0  0  0  0  0  0  0  0
  -30.3110  -18.3410   22.7410 C   0  0  0  0  0  2  0  0  0  0  0  0
  -29.2050  -17.3550   22.3250 C   0  0  0  0  0  2  0  0  0  0  0  0
  -29.7850  -16.3840   21.4620 O   0  0  0  0  0  0  0  0  0  0  0  0
  -28.8910  -15.8570   20.4870 C   0  0  0  0  0  2  0  0  0  0  0  0
  -29.6040  -14.7450   19.7040 C   0  0  0  0  0  2  0  0  0  0  0  0
  -30.7970  -15.2970   19.1620 O   0  0  0  0  0  0  0  0  0  0  0  0
  -31.3730  -14.5470   18.1020 C   0  0  0  0  0  2  0  0  0  0  0  0
  -32.9040  -14.7010   18.1700 C   0  0  0  0  0  2  0  0  0  0  0  0
  -33.3130  -16.0430   17.9230 O   0  0  0  0  0  0  0  0  0  0  0  0
  -33.4750  -16.3680   16.5510 C   0  0  0  0  0  2  0  0  0  0  0  0
  -34.2900  -17.6700   16.4270 C   0  0  0  0  0  2  0  0  0  0  0  0
  -33.4940  -18.8440   16.5590 O   0  0  0  0  0  0  0  0  0  0  0  0
  -33.2850  -19.3010   17.8930 C   0  0  0  0  0  2  0  0  0  0  0  0
  -32.6750  -20.7190   17.8590 C   0  0  0  0  0  2  0  0  0  0  0  0
  -30.2720  -19.9530   17.5160 C   0  0  0  0  0  0  0  0  0  0  0  0
  -28.0680  -19.7640   16.4580 C   0  0  0  0  0  2  0  0  0  0  0  0
  -28.1520  -20.4030   15.0570 C   0  0  0  0  0  2  0  0  0  0  0  0
  -27.8520  -21.9130   15.1360 C   0  0  0  0  0  2  0  0  0  0  0  0
  -28.6760  -22.6310   16.2370 C   0  0  0  0  0  3  0  0  0  0  0  0
  -28.6090  -21.8530   17.5710 C   0  0  0  0  0  2  0  0  0  0  0  0
  -29.0310  -20.4650   17.3170 N   0  0  0  0  0  0  0  0  0  0  0  0
  -30.5470  -18.7860   17.2570 O   0  0  0  0  0  0  0  0  0  0  0  0
  -31.2050  -20.8380   17.8910 N   0  0  0  0  0  0  0  0  0  0  0  0
  -30.8510  -21.7650   18.0750 H   0  0  0  0  0  0  0  0  0  0  0  0
  -28.9260  -25.1880   16.0730 C   0  0  0  0  0  0  0  0  0  0  0  0
  -28.0650  -26.2120   16.3540 C   0  0  0  0  0  0  0  0  0  0  0  0
  -26.8700  -25.5980   16.8450 C   0  0  0  0  0  0  0  0  0  0  0  0
  -28.2530  -24.0220   16.3980 N   0  0  0  0  0  0  0  0  0  0  0  0
  -27.0270  -24.2820   16.9180 N   0  0  0  0  0  0  0  0  0  0  0  0
  -25.5720  -26.1830   17.2030 C   0  0  0  0  0  0  0  0  0  0  0  0
  -24.9360  -25.8770   18.4260 C   0  0  0  0  0  3  0  0  0  0  0  0
  -23.6960  -26.4640   18.7540 C   0  0  0  0  0  3  0  0  0  0  0  0
  -23.0800  -27.3710   17.8600 C   0  0  0  0  0  0  0  0  0  0  0  0
  -23.7070  -27.6550   16.6340 C   0  0  0  0  0  3  0  0  0  0  0  0
  -24.9390  -27.0660   16.3060 C   0  0  0  0  0  3  0  0  0  0  0  0
  -21.8660  -27.9710   18.0850 O   0  0  0  0  0  0  0  0  0  0  0  0
  -21.3980  -28.2000   19.3560 C   0  0  0  0  0  0  0  0  0  0  0  0
  -22.1720  -28.8770   20.3230 C   0  0  0  0  0  3  0  0  0  0  0  0
  -21.6260  -29.1540   21.5920 C   0  0  0  0  0  3  0  0  0  0  0  0
  -20.3090  -28.7620   21.8940 C   0  0  0  0  0  0  0  0  0  0  0  0
  -19.5350  -28.0940   20.9300 C   0  0  0  0  0  3  0  0  0  0  0  0
  -20.0770  -27.8160   19.6620 C   0  0  0  0  0  0  0  0  0  0  0  0
  -19.3200  -27.1890   18.7300 F   0  0  0  0  0  0  0  0  0  0  0  0
  -19.7810  -29.0340   23.1100 F   0  0  0  0  0  0  0  0  0  0  0  0
  -28.2920  -27.6740   16.0950 C   0  0  0  0  0  0  0  0  0  0  0  0
  -27.7170  -28.5410   16.9190 N   0  0  0  0  0  0  0  0  0  0  0  0
  -29.0290  -28.0520   15.1830 O   0  0  0  0  0  0  0  0  0  0  0  0
  -27.1330  -28.2290   17.6810 H   0  0  0  0  0  0  0  0  0  0  0  0
  -27.8640  -29.5330   16.7870 H   0  0  0  0  0  0  0  0  0  0  0  0
  -30.2150  -25.1440   15.5460 N   0  0  0  0  0  0  0  0  0  0  0  0
  -30.7160  -25.9740   15.2470 H   0  0  0  0  0  0  0  0  0  0  0  0
  -30.7250  -24.2900   15.3580 H   0  0  0  0  0  0  0  0  0  0  0  0
  2  1  1  0
  2  3  1  0
  4  3  1  0
  5  4  1  0
  6  5  1  0
  7  6  1  0
  7  9  2  0
  8 10  1  0
  8  7  1  0
 11  8  1  0
 12 13  1  0
 12 11  1  0
 14 13  1  0
 14 16  1  0
 15 26  2  0
 16 22  2  0
 16 21  1  0
 17 27  1  0
 18 24  1  0
 19 25  1  0
 20 18  1  0
 20 19  1  0
 21 20  2  0
 22 23  1  0
 23 18  2  0
 24 17  1  0
 25 17  1  0
 25 15  1  0
 27 28  1  0
 28 30  1  0
 29 27  2  0
 31 40  1  0
 32 28  1  0
 32 36  1  0
 33 34  1  0
 33 32  1  0
 34 35  1  0
 35 31  1  0
 36 37  1  0
 36 31  2  0
 37 38  2  0
 38 39  1  0
 40 39  2  0
 41 42  1  0
 41 15  1  0
 41 46  1  0
 42 43  1  1
 44 42  1  0
 45 42  1  0
 46 49  1  0
 47 46  1  0
 47 51  1  0
 48 47  2  0
 51 50  1  0
 52 53  1  0
 53 51  1  0
 53 54  1  0
 55  1  1  0
 56 55  1  0
 57 56  1  0
 58 57  1  0
 59 58  1  0
 60 59  1  0
 61 60  1  0
 62 61  1  0
 63 64  1  0
 63 62  1  0
 65 64  1  0
 66 65  1  0
 67 66  1  0
 67 68  1  0
 68 69  1  0
 70 79  1  0
 70 69  1  0
 71 79  1  0
 72 77  1  0
 73 74  1  0
 73 72  1  0
 75 74  1  0
 75 84  1  0
 75 76  1  0
 77 71  1  0
 77 76  1  0
 78 71  2  0
 79 80  1  0
 81 82  2  0
 81 84  1  0
 82 83  1  0
 83 85  2  0
 83 86  1  0
 84 85  1  0
 86 87  1  0
 87 88  2  0
 89 92  1  0
 89 88  1  0
 90 89  2  0
 91 90  1  0
 91 86  2  0
 92 93  1  0
 93 98  2  0
 93 94  1  0
 94 95  2  0
 95 96  1  0
 96100  1  0
 97 96  2  0
 98 97  1  0
 99 98  1  0
101 82  1  0
101102  1  0
102104  1  0
103101  2  0
105102  1  0
106 81  1  0
107106  1  0
108106  1  0
M  ISO  4  13 101  14 101  71 100  79 100
M  END
>  <TORSDO>  (67) 
F 41

>  <SCORE>  (67) 
16.738

>  <name>  (67) 
71

>  <ligand_id>  (67) 
71

>  <original_smiles>  (67) 
[H]c1c([H])c([H])c2c(c1[H])C([H])([H])C([H])([H])C([H])([H])C2([H])N([H])C(=O)C1([H])N(C(=O)C([H])(N([H])C(=O)C([H])(N([H])C([H])([H])[H])C([H])([H])[H])C(C([H])([H])[H])(C([H])([H])[H])C([H])([H])[H])C([H])([H])c2c([H])c(OC([H])([H])C([H])([H])C([H])([H])N([H])C(=O)C([H])([H])OC([H])([H])C([H])([H])OC([H])([H])C([H])([H])OC([H])([H])C([H])([H])OC([H])([H])C([H])([H])OC([H])([H])C([H])([H])OC([H])([H])C([H])([H])OC([H])([H])C([H])([H])N([H])C(=O)N3C([H])([H])C([H])([H])C([H])([H])C([H])(n4nc(-c5c([H])c([H])c(Oc6c([H])c([H])c(F)c([H])c6F)c([H])c5[H])c(C(=O)N([H])[H])c4N([H])[H])C3([H])[H])c([H])c([H])c2C1([H])[H]

>  <smiles>  (67) 
[H]c1c([H])c([H])c2c(c1[H])C([H])([H])C([H])([H])C([H])([H])C2([H])N([H])C(=O)C1([H])N(C(=O)C([H])(N([H])C(=O)C([H])(N([H])C([H])([H])[H])C([H])([H])[H])C(C([H])([H])[H])(C([H])([H])[H])C([H])([H])[H])C([H])([H])c2c([H])c(OC([H])([H])C([H])([H])C([H])([H])N([H])C(=O)C([H])([H])OC([H])([H])C([H])([H])OC([H])([H])C([H])([H])OC([H])([H])C([H])([H])OC([H])([H])C([H])([H])OC([H])([H])C([H])([H])OC([H])([H])C([H])([H])OC([H])([H])C([H])([H])N([H])C(=O)N3C([H])([H])C([H])([H])C([H])([H])C([H])(n4nc(-c5c([H])c([H])c(Oc6c([H])c([H])c(F)c([H])c6F)c([H])c5[H])c(C(=O)N([H])[H])c4N([H])[H])C3([H])[H])c([H])c([H])c2C1([H])[H]

$$$$
72:0:0
     RDKit          3D

 97101  0  0  1  0  0  0  0  0999 V2000
  -21.8850  -24.8050   19.3250 C   0  0  0  0  0  0  0  0  0  0  0  0
  -21.1530  -26.0800   19.7880 N   0  0  0  0  0  0  0  0  0  0  0  0
  -21.1090  -23.9610   18.8540 O   0  0  0  0  0  0  0  0  0  0  0  0
  -21.2760  -26.7740   19.0630 H   0  0  0  0  0  0  0  0  0  0  0  0
  -20.1490  -26.8430   21.1480 C   0  0  0  0  0  2  0  0  0  0  0  0
  -20.4010  -26.5900   23.1040 C   0  0  0  0  0  1  0  0  0  0  0  0
  -21.6560  -25.5670   24.0370 C   0  0  0  0  0  2  0  0  0  0  0  0
  -23.1180  -24.6930   23.6620 C   0  0  0  0  0  2  0  0  0  0  0  0
  -24.2810  -24.7470   22.4000 C   0  0  0  0  0  2  0  0  0  0  0  0
  -25.5620  -25.8020   22.0060 C   0  0  0  0  0  3  0  0  0  0  0  0
  -26.7410  -25.5470   20.8350 C   0  0  0  0  0  3  0  0  0  0  0  0
  -27.8440  -26.4970   20.2980 O   0  0  0  0  0  0  0  0  0  0  0  0
  -24.6480  -31.8160   23.0330 C   0  0  0  0  0  0  0  0  0  0  0  0
  -27.3230  -27.6490   19.7860 C   0  0  0  0  0  0  0  0  0  0  0  0
  -23.7330  -30.7890   21.0410 C   0  0  0  0  0  3  0  0  0  0  0  0
  -25.2390  -29.4330   19.5660 C   0  0  0  0  0  0  0  0  0  0  0  0
  -26.2180  -31.0510   21.2200 C   0  0  0  0  0  2  0  0  0  0  0  0
  -26.3170  -29.7670   20.3990 C   0  0  0  0  0  0  0  0  0  0  0  0
  -27.3950  -28.8620   20.5160 C   0  0  0  0  0  3  0  0  0  0  0  0
  -26.3430  -27.4520   18.8000 C   0  0  0  0  0  3  0  0  0  0  0  0
  -25.2370  -28.2860   18.7690 C   0  0  0  0  0  3  0  0  0  0  0  0
  -24.0670  -30.3650   19.5970 C   0  0  0  0  0  2  0  0  0  0  0  0
  -24.8840  -31.2450   21.8230 N   0  0  0  0  0  0  0  0  0  0  0  0
  -23.4980  -31.9720   23.4740 O   0  0  0  0  0  0  0  0  0  0  0  0
  -23.1180  -29.6290   21.7680 C   0  0  0  0  0  0  0  0  0  0  0  0
  -21.8260  -29.7190   21.7930 N   0  0  0  0  0  0  0  0  0  0  0  0
  -23.7660  -28.7020   22.2820 O   0  0  0  0  0  0  0  0  0  0  0  0
  -21.3160  -30.5110   21.4250 H   0  0  0  0  0  0  0  0  0  0  0  0
  -17.9520  -28.5510   22.6930 C   0  0  0  0  0  3  0  0  0  0  0  0
  -21.2290  -28.6270   22.3480 C   0  0  0  0  0  2  0  0  0  0  0  0
  -21.3990  -26.8960   20.9300 C   0  0  0  0  0  2  0  0  0  0  0  0
  -19.1330  -25.6090   20.6120 C   0  0  0  0  0  1  0  0  0  0  0  0
  -17.4440  -26.8430   21.6610 C   0  0  0  0  0 15  0  0  0  0  0  0
  -19.4760  -29.2450   22.9650 C   0  0  0  0  0  0  0  0  0  0  0  0
  -19.6010  -30.2340   23.9740 C   0  0  0  0  0  3  0  0  0  0  0  0
  -18.5000  -30.7470   24.6790 C   0  0  0  0  0  3  0  0  0  0  0  0
  -17.2050  -30.2790   24.3920 C   0  0  0  0  0  3  0  0  0  0  0  0
  -16.9550  -29.2280   23.4580 C   0  0  0  0  0  3  0  0  0  0  0  0
  -25.8280  -32.3130   23.9010 C   0  0  0  0  0  3  0  0  0  0  0  0
  -25.4860  -33.6760   24.3120 N   0  0  0  0  0  0  0  0  0  0  0  0
  -25.8910  -34.7700   23.6590 C   0  0  0  0  0  0  0  0  0  0  0  0
  -26.6650  -34.7240   22.6990 O   0  0  0  0  0  0  0  0  0  0  0  0
  -24.7640  -33.7810   25.0100 H   0  0  0  0  0  0  0  0  0  0  0  0
  -24.2310  -36.6140   23.2400 C   0  0  0  0  0  1  0  0  0  0  0  0
  -25.3690  -36.1310   24.1510 C   0  0  0  0  0  3  0  0  0  0  0  0
  -27.4160  -36.8890   25.2710 C   0  0  0  0  0  1  0  0  0  0  0  0
  -26.4240  -37.1650   24.2330 N   0  0  0  0  0  0  0  0  0  0  0  0
  -26.0220  -38.0820   24.4100 H   0  0  0  0  0  0  0  0  0  0  0  0
  -26.1190  -31.3890   25.1390 C   0  0  1  0  0  0  0  0  0  0  0  0
  -24.8840  -31.0910   26.0220 C   0  0  0  0  0  1  0  0  0  0  0  0
  -26.6980  -30.0310   24.6720 C   0  0  0  0  0  1  0  0  0  0  0  0
  -27.2030  -32.0620   26.0110 C   0  0  0  0  0  1  0  0  0  0  0  0
  -23.5730  -24.1850   19.1780 C   0  0  0  0  0  2  0  0  0  0  0  0
  -24.0660  -22.5750   19.0560 O   0  0  0  0  0  0  0  0  0  0  0  0
  -25.6740  -21.9700   19.2960 N   0  0  0  0  0  0  0  0  0  0  0  0
  -26.3000  -22.6240   18.8330 H   0  0  0  0  0  0  0  0  0  0  0  0
  -26.1920  -20.4200   18.9620 C   0  0  0  0  0  2  0  0  0  0  0  0
  -27.4580  -19.2600   19.6650 C   0  0  0  0  0  2  0  0  0  0  0  0
  -28.6320  -17.9410   19.1250 C   0  0  0  0  0  2  0  0  0  0  0  0
  -30.3930  -15.5350   19.7520 C   0  0  0  0  0  0  0  0  0  0  0  0
  -30.7640  -13.0390   19.1560 C   0  0  0  0  0  2  0  0  0  0  0  0
  -29.8600  -12.7830   17.9190 C   0  0  0  0  0  2  0  0  0  0  0  0
  -28.3870  -12.5780   18.3340 C   0  0  0  0  0  2  0  0  0  0  0  0
  -27.9520  -13.5720   19.4440 C   0  0  0  0  0  3  0  0  0  0  0  0
  -28.9670  -13.6470   20.5870 C   0  0  0  0  0  2  0  0  0  0  0  0
  -30.1520  -14.1650   19.9520 N   0  0  0  0  0  0  0  0  0  0  0  0
  -31.5770  -15.7350   19.3960 O   0  0  0  0  0  0  0  0  0  0  0  0
  -29.2670  -16.5340   19.8160 N   0  0  0  0  0  0  0  0  0  0  0  0
  -28.5430  -16.0940   20.3700 H   0  0  0  0  0  0  0  0  0  0  0  0
  -25.6670  -14.2740   20.2870 C   0  0  0  0  0  0  0  0  0  0  0  0
  -24.5810  -13.5470   20.6840 C   0  0  0  0  0  0  0  0  0  0  0  0
  -24.9720  -12.1740   20.6010 C   0  0  0  0  0  0  0  0  0  0  0  0
  -26.6330  -13.3390   19.9660 N   0  0  0  0  0  0  0  0  0  0  0  0
  -26.2390  -12.0730   20.2280 N   0  0  0  0  0  0  0  0  0  0  0  0
  -24.1960  -10.9500   20.7830 C   0  0  0  0  0  0  0  0  0  0  0  0
  -24.5650   -9.9770   21.7370 C   0  0  0  0  0  3  0  0  0  0  0  0
  -23.7880   -8.8110   21.9040 C   0  0  0  0  0  3  0  0  0  0  0  0
  -22.6300   -8.6140   21.1130 C   0  0  0  0  0  0  0  0  0  0  0  0
  -22.2830   -9.5740   20.1470 C   0  0  0  0  0  3  0  0  0  0  0  0
  -23.0600  -10.7310   19.9800 C   0  0  0  0  0  3  0  0  0  0  0  0
  -21.8260   -7.5030   21.1890 O   0  0  0  0  0  0  0  0  0  0  0  0
  -21.6520   -6.8210   22.3650 C   0  0  0  0  0  0  0  0  0  0  0  0
  -21.1540   -7.4520   23.5260 C   0  0  0  0  0  3  0  0  0  0  0  0
  -20.9250   -6.6980   24.6950 C   0  0  0  0  0  3  0  0  0  0  0  0
  -21.1850   -5.3140   24.7020 C   0  0  0  0  0  0  0  0  0  0  0  0
  -21.6770   -4.6830   23.5450 C   0  0  0  0  0  3  0  0  0  0  0  0
  -21.9070   -5.4360   22.3790 C   0  0  0  0  0  0  0  0  0  0  0  0
  -22.3610   -4.8200   21.2610 F   0  0  0  0  0  0  0  0  0  0  0  0
  -20.9570   -4.5860   25.8190 F   0  0  0  0  0  0  0  0  0  0  0  0
  -23.2250  -14.0920   21.0100 C   0  0  0  0  0  0  0  0  0  0  0  0
  -22.4910  -13.4170   21.8870 N   0  0  0  0  0  0  0  0  0  0  0  0
  -22.8290  -15.1490   20.5220 O   0  0  0  0  0  0  0  0  0  0  0  0
  -22.8270  -12.5620   22.3030 H   0  0  0  0  0  0  0  0  0  0  0  0
  -21.5800  -13.7630   22.1480 H   0  0  0  0  0  0  0  0  0  0  0  0
  -25.8970  -15.6410   20.1490 N   0  0  0  0  0  0  0  0  0  0  0  0
  -25.1480  -16.3010   20.3310 H   0  0  0  0  0  0  0  0  0  0  0  0
  -26.6680  -16.0540   19.6440 H   0  0  0  0  0  0  0  0  0  0  0  0
  1  2  1  0
  2 31  1  0
  3  1  2  0
  4  2  1  0
  6  7  1  0
  8  7  1  0
  9  8  1  0
 10  9  1  0
 11 10  2  0
 12 11  1  0
 13 24  2  0
 14 12  1  0
 14 19  1  0
 15 25  1  0
 15 23  1  0
 16 22  1  0
 16 18  1  0
 17 23  1  0
 18 19  2  0
 18 17  1  0
 20 14  2  0
 21 20  1  0
 21 16  2  0
 22 15  1  0
 23 13  1  0
 25 26  1  0
 25 27  2  0
 26 30  1  0
 28 26  1  0
 29 34  2  0
 29 38  1  0
 30 34  1  0
 31  5  1  0
 32  5  1  0
 34 35  1  0
 35 36  2  0
 37 36  1  0
 38 37  2  0
 39 13  1  0
 39 40  1  0
 39 49  1  0
 40 43  1  0
 41 45  1  0
 41 40  1  0
 42 41  2  0
 45 44  1  0
 45 47  1  0
 47 48  1  0
 47 46  1  0
 49 52  1  1
 49 50  1  0
 51 49  1  0
 53  1  1  0
 54 53  1  0
 54 55  1  0
 56 55  1  0
 57 55  1  0
 57 58  1  0
 59 58  1  0
 59 68  1  0
 60 68  1  0
 60 66  1  0
 61 66  1  0
 62 63  1  0
 62 61  1  0
 64 63  1  0
 64 73  1  0
 64 65  1  0
 66 65  1  0
 67 60  2  0
 68 69  1  0
 70 71  2  0
 71 90  1  0
 72 71  1  0
 72 75  1  0
 73 74  1  0
 73 70  1  0
 74 72  2  0
 75 76  1  0
 76 77  2  0
 78 81  1  0
 78 77  1  0
 79 78  2  0
 80 79  1  0
 80 75  2  0
 81 82  1  0
 82 87  2  0
 82 83  1  0
 83 84  2  0
 84 85  1  0
 85 89  1  0
 86 85  2  0
 87 86  1  0
 88 87  1  0
 90 91  1  0
 91 94  1  0
 91 93  1  0
 92 90  2  0
 95 70  1  0
 95 96  1  0
 97 95  1  0
M  ISO  4  11 101  12 101  60 100  68 100
M  END
>  <TORSDO>  (68) 
F 29

>  <SCORE>  (68) 
-11.545

>  <name>  (68) 
72

>  <ligand_id>  (68) 
72

>  <original_smiles>  (68) 
[H]c1c([H])c([H])c2c(c1[H])C([H])([H])C([H])([H])C([H])([H])C2([H])N([H])C(=O)C1([H])N(C(=O)C([H])(N([H])C(=O)C([H])(N([H])C([H])([H])[H])C([H])([H])[H])C(C([H])([H])[H])(C([H])([H])[H])C([H])([H])[H])C([H])([H])c2c([H])c(OC([H])([H])C([H])([H])C([H])([H])C([H])([H])C([H])([H])C([H])([H])C([H])([H])N([H])C(=O)C([H])([H])ON([H])C([H])([H])C([H])([H])C([H])([H])N([H])C(=O)N3C([H])([H])C([H])([H])C([H])([H])C([H])(n4nc(-c5c([H])c([H])c(Oc6c([H])c([H])c(F)c([H])c6F)c([H])c5[H])c(C(=O)N([H])[H])c4N([H])[H])C3([H])[H])c([H])c([H])c2C1([H])[H]

>  <smiles>  (68) 
[H]c1c([H])c([H])c2c(c1[H])C([H])([H])C([H])([H])C([H])([H])C2([H])N([H])C(=O)C1([H])N(C(=O)C([H])(N([H])C(=O)C([H])(N([H])C([H])([H])[H])C([H])([H])[H])C(C([H])([H])[H])(C([H])([H])[H])C([H])([H])[H])C([H])([H])c2c([H])c(OC([H])([H])C([H])([H])C([H])([H])C([H])([H])C([H])([H])C([H])([H])C([H])([H])N([H])C(=O)C([H])([H])ON([H])C([H])([H])C([H])([H])C([H])([H])N([H])C(=O)N3C([H])([H])C([H])([H])C([H])([H])C([H])(n4nc(-c5c([H])c([H])c(Oc6c([H])c([H])c(F)c([H])c6F)c([H])c5[H])c(C(=O)N([H])[H])c4N([H])[H])C3([H])[H])c([H])c([H])c2C1([H])[H]

$$$$
73:0:0
     RDKit          3D

107114  0  0  1  0  0  0  0  0999 V2000
  -34.2750  -17.7730   21.7890 C   0  0  0  0  0  2  0  0  0  0  0  0
  -33.6580  -18.7970   22.7630 C   0  0  0  0  0  0  0  0  0  0  0  0
  -32.5590  -19.4450   22.3580 N   0  0  0  0  0  0  0  0  0  0  0  0
  -34.1630  -18.9810   23.8700 O   0  0  0  0  0  0  0  0  0  0  0  0
  -32.2190  -19.2370   21.4310 H   0  0  0  0  0  0  0  0  0  0  0  0
  -31.8020  -20.4190   23.1450 C   0  0  0  0  0  2  0  0  0  0  0  0
  -31.9830  -21.8340   22.5880 C   0  0  0  0  0  2  0  0  0  0  0  0
  -31.3750  -21.9270   21.3040 O   0  0  0  0  0  0  0  0  0  0  0  0
  -31.4230  -23.2560   20.7990 C   0  0  0  0  0  2  0  0  0  0  0  0
  -30.4810  -23.4430   19.5990 C   0  0  0  0  0  2  0  0  0  0  0  0
  -29.1280  -23.2740   20.0270 O   0  0  0  0  0  0  0  0  0  0  0  0
  -28.2580  -24.3580   19.7120 C   0  0  0  0  0  2  0  0  0  0  0  0
  -28.4090  -25.5200   20.7120 C   0  0  0  0  0  2  0  0  0  0  0  0
  -28.4290  -26.7870   20.0630 O   0  0  0  0  0  0  0  0  0  0  0  0
  -24.6080  -31.8710   23.2110 C   0  0  0  0  0  0  0  0  0  0  0  0
  -27.2420  -27.4760   20.0890 C   0  0  0  0  0  0  0  0  0  0  0  0
  -23.3950  -30.4920   21.5510 C   0  0  0  0  0  3  0  0  0  0  0  0
  -24.8440  -28.9590   20.1180 C   0  0  0  0  0  0  0  0  0  0  0  0
  -25.9180  -30.8490   21.3570 C   0  0  0  0  0  2  0  0  0  0  0  0
  -26.0000  -29.4840   20.7090 C   0  0  0  0  0  0  0  0  0  0  0  0
  -27.2020  -28.7490   20.6920 C   0  0  0  0  0  3  0  0  0  0  0  0
  -26.0730  -26.9500   19.4980 C   0  0  0  0  0  3  0  0  0  0  0  0
  -24.8730  -27.6890   19.5110 C   0  0  0  0  0  3  0  0  0  0  0  0
  -23.6020  -29.8190   20.1670 C   0  0  0  0  0  2  0  0  0  0  0  0
  -24.6590  -31.0840   22.0990 N   0  0  0  0  0  0  0  0  0  0  0  0
  -23.5290  -32.1450   23.7530 O   0  0  0  0  0  0  0  0  0  0  0  0
  -22.7380  -29.4670   22.5020 C   0  0  0  0  0  0  0  0  0  0  0  0
  -21.4120  -29.3020   22.3760 N   0  0  0  0  0  0  0  0  0  0  0  0
  -23.4180  -28.8220   23.3050 O   0  0  0  0  0  0  0  0  0  0  0  0
  -20.9280  -29.8740   21.6980 H   0  0  0  0  0  0  0  0  0  0  0  0
  -18.0260  -28.1360   22.8490 C   0  0  0  0  0  0  0  0  0  0  0  0
  -20.5850  -28.3640   23.1340 C   0  0  0  0  0  3  0  0  0  0  0  0
  -20.6760  -26.9390   22.5430 C   0  0  0  0  0  2  0  0  0  0  0  0
  -19.5750  -26.6390   21.5210 C   0  0  0  0  0  2  0  0  0  0  0  0
  -18.1920  -26.7910   22.1610 C   0  0  0  0  0  2  0  0  0  0  0  0
  -19.1510  -28.8820   23.2910 C   0  0  0  0  0  0  0  0  0  0  0  0
  -18.9440  -30.1430   23.8920 C   0  0  0  0  0  3  0  0  0  0  0  0
  -17.6450  -30.6580   24.0560 C   0  0  0  0  0  3  0  0  0  0  0  0
  -16.5340  -29.9090   23.6310 C   0  0  0  0  0  3  0  0  0  0  0  0
  -16.7260  -28.6500   23.0340 C   0  0  0  0  0  3  0  0  0  0  0  0
  -25.9000  -32.4840   23.8390 C   0  0  0  0  0  3  0  0  0  0  0  0
  -26.4430  -31.6600   25.0700 C   0  0  1  0  0  0  0  0  0  0  0  0
  -25.3700  -31.3730   26.1460 C   0  0  0  0  0  1  0  0  0  0  0  0
  -27.0230  -30.3040   24.6040 C   0  0  0  0  0  1  0  0  0  0  0  0
  -27.6030  -32.4290   25.7470 C   0  0  0  0  0  1  0  0  0  0  0  0
  -25.5880  -33.8640   24.2330 N   0  0  0  0  0  0  0  0  0  0  0  0
  -25.9030  -34.9490   23.5130 C   0  0  0  0  0  0  0  0  0  0  0  0
  -26.5600  -34.8940   22.4700 O   0  0  0  0  0  0  0  0  0  0  0  0
  -25.0020  -33.9820   25.0470 H   0  0  0  0  0  0  0  0  0  0  0  0
  -24.1490  -36.7330   23.2630 C   0  0  0  0  0  1  0  0  0  0  0  0
  -25.4110  -36.3130   24.0340 C   0  0  0  0  0  3  0  0  0  0  0  0
  -27.5590  -37.1830   24.8450 C   0  0  0  0  0  1  0  0  0  0  0  0
  -26.4290  -37.3810   23.9410 N   0  0  0  0  0  0  0  0  0  0  0  0
  -26.0190  -38.2890   24.1410 H   0  0  0  0  0  0  0  0  0  0  0  0
  -35.0420  -18.3940   20.7550 O   0  0  0  0  0  0  0  0  0  0  0  0
  -36.1650  -19.1670   21.1780 C   0  0  0  0  0  2  0  0  0  0  0  0
  -37.2680  -19.0950   20.1090 C   0  0  0  0  0  2  0  0  0  0  0  0
  -36.7700  -19.4680   18.8280 O   0  0  0  0  0  0  0  0  0  0  0  0
  -36.9340  -20.8400   18.4910 C   0  0  0  0  0  2  0  0  0  0  0  0
  -36.1000  -21.1630   17.2330 C   0  0  0  0  0  2  0  0  0  0  0  0
  -34.7340  -21.4730   17.5070 O   0  0  0  0  0  0  0  0  0  0  0  0
  -34.0050  -20.5360   18.3050 C   0  0  0  0  0  2  0  0  0  0  0  0
  -33.9110  -19.1120   17.7180 C   0  0  0  0  0  2  0  0  0  0  0  0
  -32.8180  -19.0250   16.8090 O   0  0  0  0  0  0  0  0  0  0  0  0
  -32.3980  -17.6910   16.5430 C   0  0  0  0  0  2  0  0  0  0  0  0
  -31.2500  -17.2640   17.4910 C   0  0  0  0  0  2  0  0  0  0  0  0
  -31.7020  -17.2250   18.8430 O   0  0  0  0  0  0  0  0  0  0  0  0
  -30.7370  -17.5820   19.8320 C   0  0  0  0  0  2  0  0  0  0  0  0
  -29.6160  -16.5420   20.0400 C   0  0  0  0  0  2  0  0  0  0  0  0
  -30.7320  -14.4080   20.5340 C   0  0  0  0  0  0  0  0  0  0  0  0
  -30.4530  -12.2500   19.4220 C   0  0  0  0  0  2  0  0  0  0  0  0
  -29.5190  -12.4490   18.2120 C   0  0  0  0  0  2  0  0  0  0  0  0
  -28.0370  -12.3280   18.6260 C   0  0  0  0  0  2  0  0  0  0  0  0
  -27.6860  -13.1750   19.8790 C   0  0  0  0  0  3  0  0  0  0  0  0
  -28.7340  -12.9300   20.9910 C   0  0  0  0  0  2  0  0  0  0  0  0
  -30.0660  -13.2300   20.4380 N   0  0  0  0  0  0  0  0  0  0  0  0
  -31.8650  -14.5980   20.0950 O   0  0  0  0  0  0  0  0  0  0  0  0
  -29.9790  -15.4340   20.9280 N   0  0  0  0  0  0  0  0  0  0  0  0
  -30.1530  -15.7070   21.8820 H   0  0  0  0  0  0  0  0  0  0  0  0
  -25.2770  -13.8050   20.5610 C   0  0  0  0  0  0  0  0  0  0  0  0
  -24.1990  -13.0400   20.9090 C   0  0  0  0  0  0  0  0  0  0  0  0
  -24.6490  -11.6820   20.8740 C   0  0  0  0  0  0  0  0  0  0  0  0
  -26.3220  -12.9190   20.3360 N   0  0  0  0  0  0  0  0  0  0  0  0
  -25.9430  -11.6370   20.5820 N   0  0  0  0  0  0  0  0  0  0  0  0
  -23.9190  -10.4210   21.0380 C   0  0  0  0  0  0  0  0  0  0  0  0
  -24.3680   -9.4080   21.9170 C   0  0  0  0  0  3  0  0  0  0  0  0
  -23.6270   -8.2170   22.0780 C   0  0  0  0  0  3  0  0  0  0  0  0
  -22.4250   -8.0260   21.3550 C   0  0  0  0  0  0  0  0  0  0  0  0
  -21.9920   -9.0260   20.4640 C   0  0  0  0  0  3  0  0  0  0  0  0
  -22.7320  -10.2110   20.3040 C   0  0  0  0  0  3  0  0  0  0  0  0
  -21.6600   -6.8850   21.4250 O   0  0  0  0  0  0  0  0  0  0  0  0
  -21.6800   -6.0700   22.5280 C   0  0  0  0  0  0  0  0  0  0  0  0
  -21.3940   -6.5590   23.8220 C   0  0  0  0  0  3  0  0  0  0  0  0
  -21.3690   -5.6770   24.9210 C   0  0  0  0  0  3  0  0  0  0  0  0
  -21.6110   -4.3030   24.7270 C   0  0  0  0  0  0  0  0  0  0  0  0
  -21.8810   -3.8110   23.4370 C   0  0  0  0  0  3  0  0  0  0  0  0
  -21.9150   -4.6920   22.3420 C   0  0  0  0  0  0  0  0  0  0  0  0
  -22.1640   -4.2110   21.1010 F   0  0  0  0  0  0  0  0  0  0  0  0
  -21.5690   -3.4510   25.7780 F   0  0  0  0  0  0  0  0  0  0  0  0
  -22.7990  -13.5170   21.1720 C   0  0  0  0  0  0  0  0  0  0  0  0
  -22.0640  -12.8250   22.0330 N   0  0  0  0  0  0  0  0  0  0  0  0
  -22.3660  -14.5430   20.6430 O   0  0  0  0  0  0  0  0  0  0  0  0
  -22.4180  -11.9940   22.4850 H   0  0  0  0  0  0  0  0  0  0  0  0
  -21.1280  -13.1340   22.2540 H   0  0  0  0  0  0  0  0  0  0  0  0
  -25.4600  -15.1770   20.3940 N   0  0  0  0  0  0  0  0  0  0  0  0
  -24.7070  -15.8470   20.5220 H   0  0  0  0  0  0  0  0  0  0  0  0
  -26.3300  -15.5990   20.0940 H   0  0  0  0  0  0  0  0  0  0  0  0
  1  2  1  0
  2  4  2  0
  3  2  1  0
  3  6  1  0
  5  3  1  0
  7  6  1  0
  8  7  1  0
  9  8  1  0
 10 11  1  0
 10  9  1  0
 12 11  1  0
 12 13  1  0
 14 16  1  0
 14 13  1  0
 15 26  2  0
 16 21  1  0
 17 25  1  0
 17 27  1  0
 18 24  1  0
 18 20  1  0
 19 25  1  0
 20 19  1  0
 21 20  2  0
 22 23  1  0
 22 16  2  0
 23 18  2  0
 24 17  1  0
 25 15  1  0
 27 29  2  0
 28 27  1  0
 30 28  1  0
 31 40  2  0
 31 36  1  0
 32 28  1  0
 32 36  1  0
 33 32  1  0
 34 35  1  0
 34 33  1  0
 35 31  1  0
 36 37  2  0
 37 38  1  0
 39 38  2  0
 40 39  1  0
 41 15  1  0
 41 46  1  0
 41 42  1  0
 42 45  1  1
 42 43  1  0
 44 42  1  0
 46 49  1  0
 47 51  1  0
 47 46  1  0
 48 47  2  0
 51 50  1  0
 53 51  1  0
 53 54  1  0
 53 52  1  0
 55 56  1  0
 55  1  1  0
 57 56  1  0
 58 57  1  0
 59 58  1  0
 60 61  1  0
 60 59  1  0
 61 62  1  0
 63 62  1  0
 64 63  1  0
 65 64  1  0
 65 66  1  0
 66 67  1  0
 67 68  1  0
 68 69  1  0
 69 78  1  0
 70 78  1  0
 71 76  1  0
 72 73  1  0
 72 71  1  0
 74 73  1  0
 74 83  1  0
 74 75  1  0
 76 70  1  0
 76 75  1  0
 77 70  2  0
 78 79  1  0
 80 81  2  0
 81100  1  0
 82 81  1  0
 82 85  1  0
 83 80  1  0
 83 84  1  0
 84 82  2  0
 85 86  1  0
 86 87  2  0
 88 91  1  0
 88 87  1  0
 89 88  2  0
 90 89  1  0
 90 85  2  0
 91 92  1  0
 92 93  1  0
 93 94  2  0
 95 94  1  0
 95 99  1  0
 96 95  2  0
 97 92  2  0
 97 96  1  0
 98 97  1  0
100101  1  0
101104  1  0
101103  1  0
102100  2  0
105106  1  0
105 80  1  0
107105  1  0
M  ISO  4  13 101  14 101  70 100  78 100
M  END
>  <TORSDO>  (69) 
F 40

>  <SCORE>  (69) 
-3.965

>  <name>  (69) 
73

>  <ligand_id>  (69) 
73

>  <original_smiles>  (69) 
[H]c1c([H])c([H])c2c(c1[H])C([H])([H])C([H])([H])C([H])([H])C2([H])N([H])C(=O)C1([H])N(C(=O)C([H])(N([H])C(=O)C([H])(N([H])C([H])([H])[H])C([H])([H])[H])C(C([H])([H])[H])(C([H])([H])[H])C([H])([H])[H])C([H])([H])c2c([H])c(OC([H])([H])C([H])([H])OC([H])([H])C([H])([H])OC([H])([H])C([H])([H])N([H])C(=O)C([H])([H])OC([H])([H])C([H])([H])OC([H])([H])C([H])([H])OC([H])([H])C([H])([H])OC([H])([H])C([H])([H])OC([H])([H])C([H])([H])N([H])C(=O)N3C([H])([H])C([H])([H])C([H])([H])C([H])(n4nc(-c5c([H])c([H])c(Oc6c([H])c([H])c(F)c([H])c6F)c([H])c5[H])c(C(=O)N([H])[H])c4N([H])[H])C3([H])[H])c([H])c([H])c2C1([H])[H]

>  <smiles>  (69) 
[H]c1c([H])c([H])c2c(c1[H])C([H])([H])C([H])([H])C([H])([H])C2([H])N([H])C(=O)C1([H])N(C(=O)C([H])(N([H])C(=O)C([H])(N([H])C([H])([H])[H])C([H])([H])[H])C(C([H])([H])[H])(C([H])([H])[H])C([H])([H])[H])C([H])([H])c2c([H])c(OC([H])([H])C([H])([H])OC([H])([H])C([H])([H])OC([H])([H])C([H])([H])N([H])C(=O)C([H])([H])OC([H])([H])C([H])([H])OC([H])([H])C([H])([H])OC([H])([H])C([H])([H])OC([H])([H])C([H])([H])OC([H])([H])C([H])([H])N([H])C(=O)N3C([H])([H])C([H])([H])C([H])([H])C([H])(n4nc(-c5c([H])c([H])c(Oc6c([H])c([H])c(F)c([H])c6F)c([H])c5[H])c(C(=O)N([H])[H])c4N([H])[H])C3([H])[H])c([H])c([H])c2C1([H])[H]

$$$$
74:0:0
     RDKit          3D

110117  0  0  1  0  0  0  0  0999 V2000
  -29.8440  -17.2450   18.3480 C   0  0  0  0  0  2  0  0  0  0  0  0
  -29.1080  -17.1850   19.5660 O   0  0  0  0  0  0  0  0  0  0  0  0
  -28.5800  -18.4330   20.0090 C   0  0  0  0  0  2  0  0  0  0  0  0
  -27.0440  -18.3730   19.9640 C   0  0  0  0  0  2  0  0  0  0  0  0
  -26.0790  -19.7240   21.8430 C   0  0  0  0  0  0  0  0  0  0  0  0
  -26.4610  -18.5720   21.2880 N   0  0  0  0  0  0  0  0  0  0  0  0
  -25.7180  -19.7430   23.0210 O   0  0  0  0  0  0  0  0  0  0  0  0
  -26.4120  -17.7550   21.8800 H   0  0  0  0  0  0  0  0  0  0  0  0
  -26.1130  -21.0290   21.0280 C   0  0  0  0  0  2  0  0  0  0  0  0
  -25.3060  -22.0010   21.6970 O   0  0  0  0  0  0  0  0  0  0  0  0
  -25.6920  -23.3540   21.4880 C   0  0  0  0  0  2  0  0  0  0  0  0
  -26.9530  -23.6620   22.3140 C   0  0  0  0  0  2  0  0  0  0  0  0
  -27.2350  -25.0540   22.3410 O   0  0  0  0  0  0  0  0  0  0  0  0
  -28.5340  -25.3740   21.8560 C   0  0  0  0  0  2  0  0  0  0  0  0
  -28.5380  -25.4880   20.3210 C   0  0  0  0  0  2  0  0  0  0  0  0
  -28.4600  -26.8580   19.9710 O   0  0  0  0  0  0  0  0  0  0  0  0
  -24.6100  -31.8710   23.2120 C   0  0  0  0  0  0  0  0  0  0  0  0
  -27.2430  -27.4840   20.0660 C   0  0  0  0  0  0  0  0  0  0  0  0
  -23.3950  -30.4950   21.5520 C   0  0  0  0  0  3  0  0  0  0  0  0
  -24.8380  -28.9540   20.1250 C   0  0  0  0  0  0  0  0  0  0  0  0
  -25.9180  -30.8490   21.3530 C   0  0  0  0  0  2  0  0  0  0  0  0
  -25.9950  -29.4810   20.7110 C   0  0  0  0  0  0  0  0  0  0  0  0
  -27.1990  -28.7510   20.6810 C   0  0  0  0  0  3  0  0  0  0  0  0
  -26.0700  -26.9520   19.4860 C   0  0  0  0  0  3  0  0  0  0  0  0
  -24.8660  -27.6840   19.5200 C   0  0  0  0  0  3  0  0  0  0  0  0
  -23.6000  -29.8200   20.1690 C   0  0  0  0  0  2  0  0  0  0  0  0
  -24.6600  -31.0850   22.0990 N   0  0  0  0  0  0  0  0  0  0  0  0
  -23.5300  -32.1440   23.7540 O   0  0  0  0  0  0  0  0  0  0  0  0
  -22.7370  -29.4690   22.5010 C   0  0  0  0  0  0  0  0  0  0  0  0
  -21.4110  -29.3040   22.3750 N   0  0  0  0  0  0  0  0  0  0  0  0
  -23.4160  -28.8230   23.3040 O   0  0  0  0  0  0  0  0  0  0  0  0
  -20.9230  -29.8780   21.7010 H   0  0  0  0  0  0  0  0  0  0  0  0
  -18.0260  -28.1360   22.8510 C   0  0  0  0  0  0  0  0  0  0  0  0
  -20.5860  -28.3640   23.1330 C   0  0  0  0  0  3  0  0  0  0  0  0
  -20.6750  -26.9380   22.5420 C   0  0  0  0  0  2  0  0  0  0  0  0
  -19.5730  -26.6380   21.5210 C   0  0  0  0  0  2  0  0  0  0  0  0
  -18.1910  -26.7910   22.1630 C   0  0  0  0  0  2  0  0  0  0  0  0
  -19.1520  -28.8810   23.2930 C   0  0  0  0  0  0  0  0  0  0  0  0
  -18.9450  -30.1410   23.8930 C   0  0  0  0  0  3  0  0  0  0  0  0
  -17.6450  -30.6570   24.0570 C   0  0  0  0  0  3  0  0  0  0  0  0
  -16.5340  -29.9090   23.6310 C   0  0  0  0  0  3  0  0  0  0  0  0
  -16.7250  -28.6500   23.0340 C   0  0  0  0  0  3  0  0  0  0  0  0
  -25.9000  -32.4840   23.8400 C   0  0  0  0  0  3  0  0  0  0  0  0
  -26.4450  -31.6590   25.0700 C   0  0  1  0  0  0  0  0  0  0  0  0
  -25.3740  -31.3660   26.1480 C   0  0  0  0  0  1  0  0  0  0  0  0
  -27.0270  -30.3060   24.5990 C   0  0  0  0  0  1  0  0  0  0  0  0
  -27.6050  -32.4290   25.7450 C   0  0  0  0  0  1  0  0  0  0  0  0
  -25.5880  -33.8640   24.2350 N   0  0  0  0  0  0  0  0  0  0  0  0
  -25.9020  -34.9490   23.5150 C   0  0  0  0  0  0  0  0  0  0  0  0
  -26.5590  -34.8940   22.4720 O   0  0  0  0  0  0  0  0  0  0  0  0
  -25.0040  -33.9800   25.0510 H   0  0  0  0  0  0  0  0  0  0  0  0
  -24.1490  -36.7330   23.2650 C   0  0  0  0  0  1  0  0  0  0  0  0
  -25.4100  -36.3130   24.0360 C   0  0  0  0  0  3  0  0  0  0  0  0
  -27.5580  -37.1820   24.8470 C   0  0  0  0  0  1  0  0  0  0  0  0
  -26.4300  -37.3800   23.9420 N   0  0  0  0  0  0  0  0  0  0  0  0
  -26.0210  -38.2900   24.1380 H   0  0  0  0  0  0  0  0  0  0  0  0
  -28.9330  -17.3760   17.1080 C   0  0  0  0  0  2  0  0  0  0  0  0
  -28.4350  -18.7010   16.9590 O   0  0  0  0  0  0  0  0  0  0  0  0
  -29.3360  -19.6100   16.3310 C   0  0  0  0  0  2  0  0  0  0  0  0
  -28.8340  -21.0430   16.5870 C   0  0  0  0  0  2  0  0  0  0  0  0
  -29.0310  -21.4170   17.9520 O   0  0  0  0  0  0  0  0  0  0  0  0
  -30.3200  -21.9660   18.2200 C   0  0  0  0  0  2  0  0  0  0  0  0
  -30.4490  -22.3330   19.7010 C   0  0  0  0  0  2  0  0  0  0  0  0
  -30.8990  -21.2300   20.4780 O   0  0  0  0  0  0  0  0  0  0  0  0
  -31.1420  -21.6210   21.8250 C   0  0  0  0  0  2  0  0  0  0  0  0
  -31.8570  -20.5190   22.6120 C   0  0  0  0  0  2  0  0  0  0  0  0
  -30.9120  -19.5260   22.9890 O   0  0  0  0  0  0  0  0  0  0  0  0
  -31.0920  -19.0560   24.3200 C   0  0  0  0  0  2  0  0  0  0  0  0
  -30.0010  -18.0210   24.6180 C   0  0  0  0  0  2  0  0  0  0  0  0
  -30.4640  -16.7080   24.3080 O   0  0  0  0  0  0  0  0  0  0  0  0
  -29.4340  -15.8290   23.8740 C   0  0  0  0  0  2  0  0  0  0  0  0
  -29.5280  -15.7330   22.3450 C   0  0  0  0  0  2  0  0  0  0  0  0
  -30.7800  -14.3180   20.7460 C   0  0  0  0  0  0  0  0  0  0  0  0
  -30.4210  -12.3030   19.3660 C   0  0  0  0  0  2  0  0  0  0  0  0
  -29.4760  -12.5620   18.1790 C   0  0  0  0  0  2  0  0  0  0  0  0
  -28.0040  -12.4070   18.6030 C   0  0  0  0  0  2  0  0  0  0  0  0
  -27.6740  -13.2010   19.8920 C   0  0  0  0  0  3  0  0  0  0  0  0
  -28.7120  -12.8740   20.9870 C   0  0  0  0  0  2  0  0  0  0  0  0
  -30.0510  -13.2040   20.4690 N   0  0  0  0  0  0  0  0  0  0  0  0
  -31.7520  -14.6710   20.0760 O   0  0  0  0  0  0  0  0  0  0  0  0
  -30.6170  -14.8300   21.9700 N   0  0  0  0  0  0  0  0  0  0  0  0
  -31.4920  -15.1910   22.3220 H   0  0  0  0  0  0  0  0  0  0  0  0
  -25.2640  -13.8150   20.5670 C   0  0  0  0  0  0  0  0  0  0  0  0
  -24.1860  -13.0440   20.9160 C   0  0  0  0  0  0  0  0  0  0  0  0
  -24.6400  -11.6910   20.8710 C   0  0  0  0  0  0  0  0  0  0  0  0
  -26.3090  -12.9310   20.3420 N   0  0  0  0  0  0  0  0  0  0  0  0
  -25.9330  -11.6470   20.5780 N   0  0  0  0  0  0  0  0  0  0  0  0
  -23.9070  -10.4300   21.0370 C   0  0  0  0  0  0  0  0  0  0  0  0
  -24.3610   -9.4220   21.9150 C   0  0  0  0  0  3  0  0  0  0  0  0
  -23.6280   -8.2260   22.0730 C   0  0  0  0  0  3  0  0  0  0  0  0
  -22.4270   -8.0310   21.3530 C   0  0  0  0  0  0  0  0  0  0  0  0
  -21.9900   -9.0280   20.4630 C   0  0  0  0  0  3  0  0  0  0  0  0
  -22.7240  -10.2150   20.3030 C   0  0  0  0  0  3  0  0  0  0  0  0
  -21.6650   -6.8900   21.4230 O   0  0  0  0  0  0  0  0  0  0  0  0
  -21.6860   -6.0750   22.5270 C   0  0  0  0  0  0  0  0  0  0  0  0
  -21.4020   -6.5640   23.8210 C   0  0  0  0  0  3  0  0  0  0  0  0
  -21.3650   -5.6790   24.9170 C   0  0  0  0  0  3  0  0  0  0  0  0
  -21.6040   -4.3060   24.7210 C   0  0  0  0  0  0  0  0  0  0  0  0
  -21.8830   -3.8160   23.4330 C   0  0  0  0  0  3  0  0  0  0  0  0
  -21.9190   -4.6980   22.3390 C   0  0  0  0  0  0  0  0  0  0  0  0
  -22.1660   -4.2160   21.0970 F   0  0  0  0  0  0  0  0  0  0  0  0
  -21.5590   -3.4530   25.7710 F   0  0  0  0  0  0  0  0  0  0  0  0
  -22.7880  -13.5270   21.1820 C   0  0  0  0  0  0  0  0  0  0  0  0
  -22.0520  -12.8250   22.0410 N   0  0  0  0  0  0  0  0  0  0  0  0
  -22.3560  -14.5570   20.6700 O   0  0  0  0  0  0  0  0  0  0  0  0
  -22.4100  -11.9920   22.4830 H   0  0  0  0  0  0  0  0  0  0  0  0
  -21.1130  -13.1290   22.2560 H   0  0  0  0  0  0  0  0  0  0  0  0
  -25.4340  -15.1820   20.4010 N   0  0  0  0  0  0  0  0  0  0  0  0
  -24.6500  -15.8240   20.4520 H   0  0  0  0  0  0  0  0  0  0  0  0
  -26.2690  -15.5910   20.0020 H   0  0  0  0  0  0  0  0  0  0  0  0
  1  2  1  0
  2  3  1  0
  4  3  1  0
  4  6  1  0
  5  7  2  0
  6  5  1  0
  6  8  1  0
  9 10  1  0
  9  5  1  0
 11 10  1  0
 11 12  1  0
 12 13  1  0
 14 13  1  0
 15 14  1  0
 16 18  1  0
 16 15  1  0
 17 28  2  0
 18 23  1  0
 19 27  1  0
 19 29  1  0
 20 26  1  0
 20 22  1  0
 21 27  1  0
 22 21  1  0
 23 22  2  0
 24 25  1  0
 24 18  2  0
 25 20  2  0
 26 19  1  0
 27 17  1  0
 29 31  2  0
 30 29  1  0
 32 30  1  0
 33 42  2  0
 33 38  1  0
 34 30  1  0
 34 38  1  0
 35 34  1  0
 36 37  1  0
 36 35  1  0
 37 33  1  0
 38 39  2  0
 39 40  1  0
 41 40  2  0
 42 41  1  0
 43 17  1  0
 43 48  1  0
 43 44  1  0
 44 47  1  1
 44 45  1  0
 46 44  1  0
 48 51  1  0
 49 53  1  0
 49 48  1  0
 50 49  2  0
 53 52  1  0
 55 53  1  0
 55 56  1  0
 55 54  1  0
 57  1  1  0
 58 57  1  0
 59 60  1  0
 59 58  1  0
 60 61  1  0
 61 62  1  0
 62 63  1  0
 63 64  1  0
 64 65  1  0
 65 66  1  0
 66 67  1  0
 67 68  1  0
 68 69  1  0
 70 69  1  0
 71 70  1  0
 72 71  1  0
 73 81  1  0
 74 79  1  0
 75 76  1  0
 75 74  1  0
 77 76  1  0
 77 86  1  0
 77 78  1  0
 79 73  1  0
 79 78  1  0
 80 73  2  0
 81 82  1  0
 81 72  1  0
 83 84  2  0
 84103  1  0
 85 84  1  0
 85 88  1  0
 86 83  1  0
 86 87  1  0
 87 85  2  0
 88 89  1  0
 89 90  2  0
 91 94  1  0
 91 90  1  0
 92 91  2  0
 93 92  1  0
 93 88  2  0
 94 95  1  0
 95 96  1  0
 96 97  2  0
 98 97  1  0
 98102  1  0
 99 98  2  0
100 95  2  0
100 99  1  0
101100  1  0
103104  1  0
104107  1  0
104106  1  0
105103  2  0
108109  1  0
108 83  1  0
110108  1  0
M  ISO  4  15 101  16 101  73 100  81 100
M  END
>  <TORSDO>  (70) 
F 43

>  <SCORE>  (70) 
14.382

>  <name>  (70) 
74

>  <ligand_id>  (70) 
74

>  <original_smiles>  (70) 
[H]c1c([H])c([H])c2c(c1[H])C([H])([H])C([H])([H])C([H])([H])C2([H])N([H])C(=O)C1([H])N(C(=O)C([H])(N([H])C(=O)C([H])(N([H])C([H])([H])[H])C([H])([H])[H])C(C([H])([H])[H])(C([H])([H])[H])C([H])([H])[H])C([H])([H])c2c([H])c(OC([H])([H])C([H])([H])OC([H])([H])C([H])([H])OC([H])([H])C(=O)N([H])C([H])([H])C([H])([H])OC([H])([H])C([H])([H])OC([H])([H])C([H])([H])OC([H])([H])C([H])([H])OC([H])([H])C([H])([H])OC([H])([H])C([H])([H])OC([H])([H])C([H])([H])N([H])C(=O)N3C([H])([H])C([H])([H])C([H])([H])C([H])(n4nc(-c5c([H])c([H])c(Oc6c([H])c([H])c(F)c([H])c6F)c([H])c5[H])c(C(=O)N([H])[H])c4N([H])[H])C3([H])[H])c([H])c([H])c2C1([H])[H]

>  <smiles>  (70) 
[H]c1c([H])c([H])c2c(c1[H])C([H])([H])C([H])([H])C([H])([H])C2([H])N([H])C(=O)C1([H])N(C(=O)C([H])(N([H])C(=O)C([H])(N([H])C([H])([H])[H])C([H])([H])[H])C(C([H])([H])[H])(C([H])([H])[H])C([H])([H])[H])C([H])([H])c2c([H])c(OC([H])([H])C([H])([H])OC([H])([H])C([H])([H])OC([H])([H])C(=O)N([H])C([H])([H])C([H])([H])OC([H])([H])C([H])([H])OC([H])([H])C([H])([H])OC([H])([H])C([H])([H])OC([H])([H])C([H])([H])OC([H])([H])C([H])([H])OC([H])([H])C([H])([H])N([H])C(=O)N3C([H])([H])C([H])([H])C([H])([H])C([H])(n4nc(-c5c([H])c([H])c(Oc6c([H])c([H])c(F)c([H])c6F)c([H])c5[H])c(C(=O)N([H])[H])c4N([H])[H])C3([H])[H])c([H])c([H])c2C1([H])[H]

$$$$
75:0:0
     RDKit          3D

110117  0  0  1  0  0  0  0  0999 V2000
  -19.3940  -22.9890   21.8140 C   0  0  0  0  0  0  0  0  0  0  0  0
  -20.4420  -23.7350   22.1870 N   0  0  0  0  0  0  0  0  0  0  0  0
  -19.3280  -21.7800   22.0530 O   0  0  0  0  0  0  0  0  0  0  0  0
  -20.4080  -24.7210   21.9600 H   0  0  0  0  0  0  0  0  0  0  0  0
  -21.5540  -23.2740   23.0140 C   0  0  0  0  0  2  0  0  0  0  0  0
  -22.8720  -23.1390   22.2330 C   0  0  0  0  0  2  0  0  0  0  0  0
  -23.4680  -24.4730   21.7520 C   0  0  0  0  0  2  0  0  0  0  0  0
  -24.7990  -24.2630   21.0110 C   0  0  0  0  0  2  0  0  0  0  0  0
  -25.4280  -25.5710   20.4990 C   0  0  0  0  0  2  0  0  0  0  0  0
  -26.7000  -25.3140   19.7830 N   0  0  0  0  0  4  0  0  0  0  0  0
  -26.5110  -24.8470   18.9120 H   0  0  0  0  0  0  0  0  0  0  0  0
  -27.2320  -24.6730   20.3500 H   0  0  0  0  0  0  0  0  0  0  0  0
  -27.5640  -26.4990   19.5560 C   0  0  0  0  0  2  0  0  0  0  0  0
  -27.0360  -27.5010   18.5040 C   0  0  0  0  0  2  0  0  0  0  0  0
  -27.2880  -28.8340   18.9550 O   0  0  0  0  0  0  0  0  0  0  0  0
  -25.1990  -30.4090   25.5650 C   0  0  0  0  0  0  0  0  0  0  0  0
  -26.3290  -29.4220   19.7490 C   0  0  0  0  0  0  0  0  0  0  0  0
  -23.5500  -30.8730   23.7800 C   0  0  0  0  0  3  0  0  0  0  0  0
  -24.4310  -30.7130   21.3940 C   0  0  0  0  0  0  0  0  0  0  0  0
  -26.0590  -30.9060   23.2820 C   0  0  0  0  0  2  0  0  0  0  0  0
  -25.7210  -30.4660   21.8750 C   0  0  0  0  0  0  0  0  0  0  0  0
  -26.6760  -29.8280   21.0540 C   0  0  0  0  0  3  0  0  0  0  0  0
  -25.0230  -29.6800   19.2740 C   0  0  0  0  0  3  0  0  0  0  0  0
  -24.0750  -30.3200   20.0920 C   0  0  0  0  0  3  0  0  0  0  0  0
  -23.4740  -31.4170   22.3290 C   0  0  0  0  0  2  0  0  0  0  0  0
  -24.9610  -30.6950   24.2540 N   0  0  0  0  0  0  0  0  0  0  0  0
  -24.2730  -30.3390   26.3850 O   0  0  0  0  0  0  0  0  0  0  0  0
  -22.7070  -29.5810   23.8640 C   0  0  0  0  0  0  0  0  0  0  0  0
  -21.4060  -29.6960   23.5490 N   0  0  0  0  0  0  0  0  0  0  0  0
  -23.2270  -28.5060   24.1730 O   0  0  0  0  0  0  0  0  0  0  0  0
  -21.0570  -30.6140   23.3130 H   0  0  0  0  0  0  0  0  0  0  0  0
  -18.1230  -28.7700   22.3680 C   0  0  0  0  0  0  0  0  0  0  0  0
  -20.4290  -28.6100   23.5250 C   0  0  0  0  0  3  0  0  0  0  0  0
  -20.7840  -27.5620   22.4440 C   0  0  0  0  0  2  0  0  0  0  0  0
  -20.1020  -27.8270   21.0980 C   0  0  0  0  0  2  0  0  0  0  0  0
  -18.5790  -27.8360   21.2570 C   0  0  0  0  0  2  0  0  0  0  0  0
  -18.9970  -29.1460   23.4220 C   0  0  0  0  0  0  0  0  0  0  0  0
  -18.5350  -30.0470   24.4060 C   0  0  0  0  0  3  0  0  0  0  0  0
  -17.2260  -30.5630   24.3530 C   0  0  0  0  0  3  0  0  0  0  0  0
  -16.3600  -30.1740   23.3170 C   0  0  0  0  0  3  0  0  0  0  0  0
  -16.8080  -29.2770   22.3300 C   0  0  0  0  0  3  0  0  0  0  0  0
  -26.6470  -30.1830   26.1030 C   0  0  0  0  0  3  0  0  0  0  0  0
  -26.9040  -31.2080   27.1250 N   0  0  0  0  0  0  0  0  0  0  0  0
  -27.6770  -32.2880   26.9420 C   0  0  0  0  0  0  0  0  0  0  0  0
  -28.3140  -32.4850   25.9040 O   0  0  0  0  0  0  0  0  0  0  0  0
  -26.3730  -31.1370   27.9810 H   0  0  0  0  0  0  0  0  0  0  0  0
  -26.9120  -34.5430   27.7430 C   0  0  0  0  0  1  0  0  0  0  0  0
  -27.7550  -33.3070   28.0940 C   0  0  0  0  0  3  0  0  0  0  0  0
  -29.9300  -32.6580   29.0280 C   0  0  0  0  0  1  0  0  0  0  0  0
  -29.1360  -33.7220   28.4200 N   0  0  0  0  0  0  0  0  0  0  0  0
  -29.1340  -34.5160   29.0520 H   0  0  0  0  0  0  0  0  0  0  0  0
  -26.8740  -28.7370   26.6940 C   0  0  1  0  0  0  0  0  0  0  0  0
  -25.8190  -28.3230   27.7450 C   0  0  0  0  0  1  0  0  0  0  0  0
  -26.8580  -27.6790   25.5660 C   0  0  0  0  0  1  0  0  0  0  0  0
  -28.2690  -28.6540   27.3570 C   0  0  0  0  0  1  0  0  0  0  0  0
  -18.2400  -23.7210   21.1050 C   0  0  0  0  0  2  0  0  0  0  0  0
  -17.7580  -23.0110   19.9590 O   0  0  0  0  0  0  0  0  0  0  0  0
  -18.6770  -22.9060   18.8750 C   0  0  0  0  0  2  0  0  0  0  0  0
  -18.3070  -23.9580   17.8230 C   0  0  0  0  0  2  0  0  0  0  0  0
  -19.1370  -23.8260   16.5420 C   0  0  0  0  0  2  0  0  0  0  0  0
  -20.5180  -23.8370   16.8780 O   0  0  0  0  0  0  0  0  0  0  0  0
  -21.3240  -23.1490   15.9310 C   0  0  0  0  0  2  0  0  0  0  0  0
  -22.8080  -23.3850   16.2340 C   0  0  0  0  0  2  0  0  0  0  0  0
  -23.2180  -22.4650   17.2420 O   0  0  0  0  0  0  0  0  0  0  0  0
  -24.5230  -22.7290   17.7390 C   0  0  0  0  0  2  0  0  0  0  0  0
  -24.8340  -21.7450   18.8830 C   0  0  0  0  0  2  0  0  0  0  0  0
  -26.0470  -21.0180   18.7130 O   0  0  0  0  0  0  0  0  0  0  0  0
  -25.9740  -19.9600   17.7670 C   0  0  0  0  0  2  0  0  0  0  0  0
  -26.7340  -18.7340   18.3000 C   0  0  0  0  0  2  0  0  0  0  0  0
  -28.1230  -18.8760   18.0100 O   0  0  0  0  0  0  0  0  0  0  0  0
  -28.9830  -18.6950   19.1300 C   0  0  0  0  0  2  0  0  0  0  0  0
  -29.0850  -17.1920   19.4240 C   0  0  0  0  0  2  0  0  0  0  0  0
  -30.9570  -15.7860   20.0420 C   0  0  0  0  0  0  0  0  0  0  0  0
  -30.9890  -13.3690   19.5770 C   0  0  0  0  0  2  0  0  0  0  0  0
  -30.1520  -13.0720   18.3180 C   0  0  0  0  0  2  0  0  0  0  0  0
  -28.6800  -12.8300   18.6990 C   0  0  0  0  0  2  0  0  0  0  0  0
  -28.1100  -13.9410   19.6170 C   0  0  0  0  0  3  0  0  0  0  0  0
  -29.0760  -14.2590   20.7860 C   0  0  0  0  0  2  0  0  0  0  0  0
  -30.4060  -14.5530   20.2220 N   0  0  0  0  0  0  0  0  0  0  0  0
  -32.0860  -15.9790   19.6010 O   0  0  0  0  0  0  0  0  0  0  0  0
  -30.1880  -16.8430   20.3150 N   0  0  0  0  0  0  0  0  0  0  0  0
  -30.7480  -17.6530   20.5380 H   0  0  0  0  0  0  0  0  0  0  0  0
  -25.6900  -14.4840   20.2850 C   0  0  0  0  0  0  0  0  0  0  0  0
  -24.6480  -13.6780   20.6530 C   0  0  0  0  0  0  0  0  0  0  0  0
  -25.1600  -12.3450   20.6440 C   0  0  0  0  0  0  0  0  0  0  0  0
  -26.7670  -13.6330   20.0810 N   0  0  0  0  0  0  0  0  0  0  0  0
  -26.4520  -12.3440   20.3520 N   0  0  0  0  0  0  0  0  0  0  0  0
  -24.4780  -11.0620   20.8390 C   0  0  0  0  0  0  0  0  0  0  0  0
  -24.7190  -10.2680   21.9800 C   0  0  0  0  0  3  0  0  0  0  0  0
  -24.0390   -9.0420   22.1510 C   0  0  0  0  0  3  0  0  0  0  0  0
  -23.1060   -8.6080   21.1810 C   0  0  0  0  0  0  0  0  0  0  0  0
  -22.8900   -9.3910   20.0340 C   0  0  0  0  0  3  0  0  0  0  0  0
  -23.5710  -10.6070   19.8610 C   0  0  0  0  0  3  0  0  0  0  0  0
  -22.4170   -7.4210   21.2520 O   0  0  0  0  0  0  0  0  0  0  0  0
  -21.8620   -6.9830   22.4260 C   0  0  0  0  0  0  0  0  0  0  0  0
  -20.9180   -7.7520   23.1390 C   0  0  0  0  0  3  0  0  0  0  0  0
  -20.3230   -7.2330   24.3060 C   0  0  0  0  0  3  0  0  0  0  0  0
  -20.6630   -5.9430   24.7560 C   0  0  0  0  0  0  0  0  0  0  0  0
  -21.5980   -5.1720   24.0420 C   0  0  0  0  0  3  0  0  0  0  0  0
  -22.1930   -5.6900   22.8800 C   0  0  0  0  0  0  0  0  0  0  0  0
  -23.0800   -4.9360   22.1850 F   0  0  0  0  0  0  0  0  0  0  0  0
  -20.0870   -5.4380   25.8720 F   0  0  0  0  0  0  0  0  0  0  0  0
  -23.2330  -14.1030   20.9080 C   0  0  0  0  0  0  0  0  0  0  0  0
  -22.5370  -13.4160   21.8050 N   0  0  0  0  0  0  0  0  0  0  0  0
  -22.7500  -15.0850   20.3510 O   0  0  0  0  0  0  0  0  0  0  0  0
  -22.9340  -12.6170   22.2760 H   0  0  0  0  0  0  0  0  0  0  0  0
  -21.5910  -13.6920   22.0240 H   0  0  0  0  0  0  0  0  0  0  0  0
  -25.8080  -15.8540   20.0830 N   0  0  0  0  0  0  0  0  0  0  0  0
  -25.0030  -16.4650   20.1560 H   0  0  0  0  0  0  0  0  0  0  0  0
  -26.6240  -16.2970   19.6900 H   0  0  0  0  0  0  0  0  0  0  0  0
  1  3  2  0
  1  2  1  0
  2  5  1  0
  4  2  1  0
  6  5  1  0
  7  6  1  0
  8  7  1  0
  9  8  1  0
 10 12  1  0
 10  9  1  0
 11 10  1  0
 13 10  1  0
 14 15  1  0
 14 13  1  0
 15 17  1  0
 16 27  2  0
 17 22  1  0
 18 28  1  0
 18 26  1  0
 19 21  1  0
 19 25  1  0
 20 26  1  0
 21 20  1  0
 22 21  2  0
 23 17  2  0
 23 24  1  0
 24 19  2  0
 25 18  1  0
 26 16  1  0
 28 30  2  0
 29 28  1  0
 31 29  1  0
 32 37  1  0
 33 29  1  0
 34 33  1  0
 35 36  1  0
 35 34  1  0
 36 32  1  0
 37 33  1  0
 37 38  2  0
 39 38  1  0
 40 39  2  0
 41 32  2  0
 41 40  1  0
 42 16  1  0
 42 52  1  0
 42 43  1  0
 43 46  1  0
 44 43  1  0
 44 48  1  0
 45 44  2  0
 48 47  1  0
 48 50  1  0
 50 49  1  0
 50 51  1  0
 52 55  1  1
 52 53  1  0
 54 52  1  0
 56  1  1  0
 57 56  1  0
 58 57  1  0
 59 58  1  0
 60 61  1  0
 60 59  1  0
 62 63  1  0
 62 61  1  0
 63 64  1  0
 64 65  1  0
 65 66  1  0
 67 66  1  0
 68 69  1  0
 68 67  1  0
 70 69  1  0
 70 71  1  0
 71 72  1  0
 72 81  1  0
 73 79  1  0
 73 81  1  0
 74 79  1  0
 75 76  1  0
 75 74  1  0
 77 76  1  0
 77 86  1  0
 77 78  1  0
 79 78  1  0
 80 73  2  0
 81 82  1  0
 83 84  2  0
 84103  1  0
 85 84  1  0
 85 88  1  0
 86 83  1  0
 86 87  1  0
 87 85  2  0
 88 89  1  0
 89 90  2  0
 91 94  1  0
 91 90  1  0
 92 91  2  0
 93 92  1  0
 93 88  2  0
 94 95  1  0
 95100  2  0
 95 96  1  0
 96 97  2  0
 97 98  1  0
 98102  1  0
 99 98  2  0
100 99  1  0
101100  1  0
103104  1  0
104107  1  0
104106  1  0
105103  2  0
108109  1  0
108 83  1  0
110108  1  0
M  ISO  4  14 101  15 101  73 100  81 100
M  END
>  <TORSDO>  (71) 
F 41

>  <SCORE>  (71) 
-2.406

>  <name>  (71) 
75

>  <ligand_id>  (71) 
75

>  <original_smiles>  (71) 
[H]c1c([H])c([H])c2c(c1[H])C([H])([H])C([H])([H])C([H])([H])C2([H])N([H])C(=O)C1([H])N(C(=O)C([H])(N([H])C(=O)C([H])(N([H])C([H])([H])[H])C([H])([H])[H])C(C([H])([H])[H])(C([H])([H])[H])C([H])([H])[H])C([H])([H])c2c([H])c(OC([H])([H])C([H])([H])[N+]([H])([H])C([H])([H])C([H])([H])C([H])([H])C([H])([H])C([H])([H])N([H])C(=O)C([H])([H])OC([H])([H])C([H])([H])C([H])([H])OC([H])([H])C([H])([H])OC([H])([H])C([H])([H])OC([H])([H])C([H])([H])OC([H])([H])C([H])([H])N([H])C(=O)N3C([H])([H])C([H])([H])C([H])([H])C([H])(n4nc(-c5c([H])c([H])c(Oc6c([H])c([H])c(F)c([H])c6F)c([H])c5[H])c(C(=O)N([H])[H])c4N([H])[H])C3([H])[H])c([H])c([H])c2C1([H])[H]

>  <smiles>  (71) 
[H]c1c([H])c([H])c2c(c1[H])C([H])([H])C([H])([H])C([H])([H])C2([H])N([H])C(=O)C1([H])N(C(=O)C([H])(N([H])C(=O)C([H])(N([H])C([H])([H])[H])C([H])([H])[H])C(C([H])([H])[H])(C([H])([H])[H])C([H])([H])[H])C([H])([H])c2c([H])c(OC([H])([H])C([H])([H])[N+]([H])([H])C([H])([H])C([H])([H])C([H])([H])C([H])([H])C([H])([H])N([H])C(=O)C([H])([H])OC([H])([H])C([H])([H])C([H])([H])OC([H])([H])C([H])([H])OC([H])([H])C([H])([H])OC([H])([H])C([H])([H])OC([H])([H])C([H])([H])N([H])C(=O)N3C([H])([H])C([H])([H])C([H])([H])C([H])(n4nc(-c5c([H])c([H])c(Oc6c([H])c([H])c(F)c([H])c6F)c([H])c5[H])c(C(=O)N([H])[H])c4N([H])[H])C3([H])[H])c([H])c([H])c2C1([H])[H]

$$$$
76:0:0
     RDKit          3D

 95102  0  0  1  0  0  0  0  0999 V2000
  -30.4970  -22.3390   16.9770 C   0  0  0  0  0  2  0  0  0  0  0  0
  -30.2930  -23.8660   16.9450 C   0  0  0  0  0  2  0  0  0  0  0  0
  -28.6160  -24.8460   18.5120 C   0  0  0  0  0  0  0  0  0  0  0  0
  -29.8400  -24.3770   18.2390 N   0  0  0  0  0  0  0  0  0  0  0  0
  -27.7330  -24.9110   17.6550 O   0  0  0  0  0  0  0  0  0  0  0  0
  -30.5190  -24.3930   18.9910 H   0  0  0  0  0  0  0  0  0  0  0  0
  -28.3380  -25.2830   19.9610 C   0  0  0  0  0  2  0  0  0  0  0  0
  -28.3840  -26.7120   20.0910 O   0  0  0  0  0  0  0  0  0  0  0  0
  -24.6040  -31.8590   23.2340 C   0  0  0  0  0  0  0  0  0  0  0  0
  -27.1940  -27.4130   20.1090 C   0  0  0  0  0  0  0  0  0  0  0  0
  -23.3760  -30.4630   21.6040 C   0  0  0  0  0  3  0  0  0  0  0  0
  -24.8040  -28.9280   20.1630 C   0  0  0  0  0  0  0  0  0  0  0  0
  -25.9040  -30.8130   21.3830 C   0  0  0  0  0  2  0  0  0  0  0  0
  -25.9740  -29.4470   20.7320 C   0  0  0  0  0  0  0  0  0  0  0  0
  -27.1730  -28.6990   20.6940 C   0  0  0  0  0  3  0  0  0  0  0  0
  -25.9960  -26.9040   19.5530 C   0  0  0  0  0  3  0  0  0  0  0  0
  -24.8090  -27.6550   19.5700 C   0  0  0  0  0  3  0  0  0  0  0  0
  -23.5680  -29.7920   20.2200 C   0  0  0  0  0  2  0  0  0  0  0  0
  -24.6470  -31.0560   22.1310 N   0  0  0  0  0  0  0  0  0  0  0  0
  -23.5280  -32.1360   23.7820 O   0  0  0  0  0  0  0  0  0  0  0  0
  -22.7330  -29.4390   22.5650 C   0  0  0  0  0  0  0  0  0  0  0  0
  -21.4070  -29.2620   22.4470 N   0  0  0  0  0  0  0  0  0  0  0  0
  -23.4200  -28.8100   23.3740 O   0  0  0  0  0  0  0  0  0  0  0  0
  -20.9120  -29.8270   21.7700 H   0  0  0  0  0  0  0  0  0  0  0  0
  -18.0310  -28.0810   22.9570 C   0  0  0  0  0  0  0  0  0  0  0  0
  -20.5920  -28.3250   23.2190 C   0  0  0  0  0  3  0  0  0  0  0  0
  -20.6840  -26.8940   22.6400 C   0  0  0  0  0  2  0  0  0  0  0  0
  -19.5750  -26.5790   21.6310 C   0  0  0  0  0  2  0  0  0  0  0  0
  -18.1980  -26.7310   22.2820 C   0  0  0  0  0  2  0  0  0  0  0  0
  -19.1550  -28.8380   23.3830 C   0  0  0  0  0  0  0  0  0  0  0  0
  -18.9470  -30.1040   23.9690 C   0  0  0  0  0  3  0  0  0  0  0  0
  -17.6450  -30.6130   24.1400 C   0  0  0  0  0  3  0  0  0  0  0  0
  -16.5350  -29.8540   23.7340 C   0  0  0  0  0  3  0  0  0  0  0  0
  -16.7290  -28.5900   23.1470 C   0  0  0  0  0  3  0  0  0  0  0  0
  -25.9000  -32.4810   23.8420 C   0  0  0  0  0  3  0  0  0  0  0  0
  -26.4270  -31.7030   25.1090 C   0  0  1  0  0  0  0  0  0  0  0  0
  -25.3460  -31.4640   26.1880 C   0  0  0  0  0  1  0  0  0  0  0  0
  -26.9990  -30.3250   24.7010 C   0  0  0  0  0  1  0  0  0  0  0  0
  -27.5880  -32.4890   25.7600 C   0  0  0  0  0  1  0  0  0  0  0  0
  -25.6010  -33.8800   24.1780 N   0  0  0  0  0  0  0  0  0  0  0  0
  -25.9340  -34.9320   23.4180 C   0  0  0  0  0  0  0  0  0  0  0  0
  -26.5990  -34.8260   22.3830 O   0  0  0  0  0  0  0  0  0  0  0  0
  -25.0100  -34.0360   24.9810 H   0  0  0  0  0  0  0  0  0  0  0  0
  -24.2130  -36.7310   23.0780 C   0  0  0  0  0  1  0  0  0  0  0  0
  -25.4570  -36.3200   23.8820 C   0  0  0  0  0  3  0  0  0  0  0  0
  -27.6000  -37.1880   24.7040 C   0  0  0  0  0  1  0  0  0  0  0  0
  -26.4920  -37.3690   23.7700 N   0  0  0  0  0  0  0  0  0  0  0  0
  -26.0920  -38.2890   23.9290 H   0  0  0  0  0  0  0  0  0  0  0  0
  -29.1830  -21.5340   17.0570 C   0  0  0  0  0  2  0  0  0  0  0  0
  -29.3890  -20.0050   17.0620 C   0  0  0  0  0  2  0  0  0  0  0  0
  -29.5820  -19.4470   18.4220 N   0  0  0  0  0  4  0  0  0  0  0  0
  -28.7600  -19.6570   18.9640 H   0  0  0  0  0  0  0  0  0  0  0  0
  -30.3680  -19.8960   18.8680 H   0  0  0  0  0  0  0  0  0  0  0  0
  -29.7990  -17.9810   18.4510 C   0  0  0  0  0  2  0  0  0  0  0  0
  -28.9400  -17.2760   19.5210 C   0  0  0  0  0  2  0  0  0  0  0  0
  -29.3650  -17.4910   20.9930 C   0  0  0  0  0  2  0  0  0  0  0  0
  -30.5270  -16.6020   21.4890 C   0  0  0  0  0  2  0  0  0  0  0  0
  -30.7720  -14.3210   20.4790 C   0  0  0  0  0  0  0  0  0  0  0  0
  -30.4010  -12.2400   19.2080 C   0  0  0  0  0  2  0  0  0  0  0  0
  -29.4520  -12.4980   18.0200 C   0  0  0  0  0  2  0  0  0  0  0  0
  -27.9810  -12.3660   18.4570 C   0  0  0  0  0  2  0  0  0  0  0  0
  -27.6680  -13.1850   19.7380 C   0  0  0  0  0  3  0  0  0  0  0  0
  -28.7190  -12.9020   20.8360 C   0  0  0  0  0  2  0  0  0  0  0  0
  -30.0610  -13.1810   20.2840 N   0  0  0  0  0  0  0  0  0  0  0  0
  -31.8150  -14.5870   19.8730 O   0  0  0  0  0  0  0  0  0  0  0  0
  -30.2050  -15.1880   21.3270 N   0  0  0  0  0  0  0  0  0  0  0  0
  -29.3820  -14.8510   21.8040 H   0  0  0  0  0  0  0  0  0  0  0  0
  -25.2810  -13.8380   20.4470 C   0  0  0  0  0  0  0  0  0  0  0  0
  -24.2020  -13.0830   20.8250 C   0  0  0  0  0  0  0  0  0  0  0  0
  -24.6460  -11.7260   20.8070 C   0  0  0  0  0  0  0  0  0  0  0  0
  -26.3110  -12.9390   20.2180 N   0  0  0  0  0  0  0  0  0  0  0  0
  -25.9340  -11.6660   20.4920 N   0  0  0  0  0  0  0  0  0  0  0  0
  -23.9060  -10.4750   21.0120 C   0  0  0  0  0  0  0  0  0  0  0  0
  -24.3440   -9.5010   21.9390 C   0  0  0  0  0  3  0  0  0  0  0  0
  -23.6050   -8.3140   22.1310 C   0  0  0  0  0  3  0  0  0  0  0  0
  -22.4160   -8.0910   21.3960 C   0  0  0  0  0  0  0  0  0  0  0  0
  -21.9980   -9.0520   20.4590 C   0  0  0  0  0  3  0  0  0  0  0  0
  -22.7370  -10.2310   20.2650 C   0  0  0  0  0  3  0  0  0  0  0  0
  -21.6490   -6.9540   21.4970 O   0  0  0  0  0  0  0  0  0  0  0  0
  -21.6250   -6.2010   22.6430 C   0  0  0  0  0  0  0  0  0  0  0  0
  -21.2520   -6.7540   23.8880 C   0  0  0  0  0  3  0  0  0  0  0  0
  -21.1720   -5.9300   25.0270 C   0  0  0  0  0  3  0  0  0  0  0  0
  -21.4560   -4.5540   24.9250 C   0  0  0  0  0  0  0  0  0  0  0  0
  -21.8190   -4.0010   23.6840 C   0  0  0  0  0  3  0  0  0  0  0  0
  -21.9010   -4.8220   22.5470 C   0  0  0  0  0  0  0  0  0  0  0  0
  -22.2330   -4.2810   21.3500 F   0  0  0  0  0  0  0  0  0  0  0  0
  -21.3720   -3.7610   26.0180 F   0  0  0  0  0  0  0  0  0  0  0  0
  -22.8130  -13.5810   21.0990 C   0  0  0  0  0  0  0  0  0  0  0  0
  -22.0800  -12.9020   21.9750 N   0  0  0  0  0  0  0  0  0  0  0  0
  -22.3850  -14.6070   20.5730 O   0  0  0  0  0  0  0  0  0  0  0  0
  -22.4410  -12.0710   22.4230 H   0  0  0  0  0  0  0  0  0  0  0  0
  -21.1480  -13.2170   22.2050 H   0  0  0  0  0  0  0  0  0  0  0  0
  -25.4640  -15.2040   20.2630 N   0  0  0  0  0  0  0  0  0  0  0  0
  -24.7100  -15.8720   20.3840 H   0  0  0  0  0  0  0  0  0  0  0  0
  -26.3320  -15.6320   19.9670 H   0  0  0  0  0  0  0  0  0  0  0  0
  1 49  1  0
  2  1  1  0
  2  4  1  0
  3  7  1  0
  4  3  1  0
  4  6  1  0
  5  3  2  0
  7  8  1  0
  8 10  1  0
  9 20  2  0
 10 15  1  0
 11 19  1  0
 11 21  1  0
 12 18  1  0
 12 14  1  0
 13 19  1  0
 14 13  1  0
 15 14  2  0
 16 17  1  0
 16 10  2  0
 17 12  2  0
 18 11  1  0
 19  9  1  0
 21 23  2  0
 22 21  1  0
 24 22  1  0
 25 34  2  0
 25 30  1  0
 26 22  1  0
 26 30  1  0
 27 26  1  0
 28 29  1  0
 28 27  1  0
 29 25  1  0
 30 31  2  0
 31 32  1  0
 33 32  2  0
 34 33  1  0
 35  9  1  0
 35 40  1  0
 35 36  1  0
 36 39  1  1
 36 37  1  0
 38 36  1  0
 40 43  1  0
 41 45  1  0
 41 40  1  0
 42 41  2  0
 45 44  1  0
 47 45  1  0
 47 48  1  0
 47 46  1  0
 49 50  1  0
 50 51  1  0
 51 54  1  0
 51 53  1  0
 51 52  1  0
 54 55  1  0
 55 56  1  0
 56 57  1  0
 58 66  1  0
 59 64  1  0
 60 61  1  0
 60 59  1  0
 62 61  1  0
 62 71  1  0
 62 63  1  0
 64 58  1  0
 64 63  1  0
 65 58  2  0
 66 57  1  0
 66 67  1  0
 68 69  2  0
 69 88  1  0
 70 69  1  0
 70 73  1  0
 71 68  1  0
 71 72  1  0
 72 70  2  0
 73 74  1  0
 74 75  2  0
 76 79  1  0
 76 75  1  0
 77 76  2  0
 78 77  1  0
 78 73  2  0
 79 80  1  0
 80 81  1  0
 81 82  2  0
 83 82  1  0
 83 87  1  0
 84 83  2  0
 85 80  2  0
 85 84  1  0
 86 85  1  0
 88 89  1  0
 89 92  1  0
 89 91  1  0
 90 88  2  0
 93 94  1  0
 93 68  1  0
 95 93  1  0
M  ISO  4   7 101   8 101  58 100  66 100
M  END
>  <TORSDO>  (72) 
F 26

>  <SCORE>  (72) 
-11.832

>  <name>  (72) 
76

>  <ligand_id>  (72) 
76

>  <original_smiles>  (72) 
[H]c1c([H])c([H])c2c(c1[H])C([H])([H])C([H])([H])C([H])([H])C2([H])N([H])C(=O)C1([H])N(C(=O)C([H])(N([H])C(=O)C([H])(N([H])C([H])([H])[H])C([H])([H])[H])C(C([H])([H])[H])(C([H])([H])[H])C([H])([H])[H])C([H])([H])c2c([H])c(OC([H])([H])C(=O)N([H])C([H])([H])C([H])([H])C([H])([H])C([H])([H])[N+]([H])([H])C([H])([H])C([H])([H])C([H])([H])C([H])([H])N([H])C(=O)N3C([H])([H])C([H])([H])C([H])([H])C([H])(n4nc(-c5c([H])c([H])c(Oc6c([H])c([H])c(F)c([H])c6F)c([H])c5[H])c(C(=O)N([H])[H])c4N([H])[H])C3([H])[H])c([H])c([H])c2C1([H])[H]

>  <smiles>  (72) 
[H]c1c([H])c([H])c2c(c1[H])C([H])([H])C([H])([H])C([H])([H])C2([H])N([H])C(=O)C1([H])N(C(=O)C([H])(N([H])C(=O)C([H])(N([H])C([H])([H])[H])C([H])([H])[H])C(C([H])([H])[H])(C([H])([H])[H])C([H])([H])[H])C([H])([H])c2c([H])c(OC([H])([H])C(=O)N([H])C([H])([H])C([H])([H])C([H])([H])C([H])([H])[N+]([H])([H])C([H])([H])C([H])([H])C([H])([H])C([H])([H])N([H])C(=O)N3C([H])([H])C([H])([H])C([H])([H])C([H])(n4nc(-c5c([H])c([H])c(Oc6c([H])c([H])c(F)c([H])c6F)c([H])c5[H])c(C(=O)N([H])[H])c4N([H])[H])C3([H])[H])c([H])c([H])c2C1([H])[H]

$$$$
77:0:0
     RDKit          3D

 95102  0  0  1  0  0  0  0  0999 V2000
  -26.4820  -22.0030   20.1930 C   0  0  0  0  0  2  0  0  0  0  0  0
  -26.9310  -22.4510   18.9240 O   0  0  0  0  0  0  0  0  0  0  0  0
  -26.0440  -22.1390   17.8580 C   0  0  0  0  0  2  0  0  0  0  0  0
  -26.5220  -22.8960   16.6180 C   0  0  0  0  0  2  0  0  0  0  0  0
  -26.3900  -24.2950   16.8440 O   0  0  0  0  0  0  0  0  0  0  0  0
  -27.4510  -25.0330   16.2490 C   0  0  0  0  0  2  0  0  0  0  0  0
  -27.3390  -26.5250   16.5860 C   0  0  0  0  0  2  0  0  0  0  0  0
  -27.3920  -26.7020   18.0000 O   0  0  0  0  0  0  0  0  0  0  0  0
  -25.4200  -30.5610   23.6240 C   0  0  0  0  0  0  0  0  0  0  0  0
  -26.4430  -27.5320   18.5390 C   0  0  0  0  0  0  0  0  0  0  0  0
  -23.7100  -30.2930   21.8530 C   0  0  0  0  0  3  0  0  0  0  0  0
  -24.5350  -29.2780   19.6620 C   0  0  0  0  0  0  0  0  0  0  0  0
  -26.1990  -30.2010   21.2880 C   0  0  0  0  0  2  0  0  0  0  0  0
  -25.8440  -29.2570   20.1590 C   0  0  0  0  0  0  0  0  0  0  0  0
  -26.7990  -28.3760   19.6100 C   0  0  0  0  0  3  0  0  0  0  0  0
  -25.1170  -27.5450   18.0560 C   0  0  0  0  0  3  0  0  0  0  0  0
  -24.1620  -28.4160   18.6160 C   0  0  0  0  0  3  0  0  0  0  0  0
  -23.5800  -30.2560   20.3060 C   0  0  0  0  0  2  0  0  0  0  0  0
  -25.1370  -30.3360   22.3110 N   0  0  0  0  0  0  0  0  0  0  0  0
  -24.5170  -30.7770   24.4430 O   0  0  0  0  0  0  0  0  0  0  0  0
  -22.9130  -29.1080   22.4400 C   0  0  0  0  0  0  0  0  0  0  0  0
  -21.5770  -29.1760   22.3350 N   0  0  0  0  0  0  0  0  0  0  0  0
  -23.4940  -28.1460   22.9500 O   0  0  0  0  0  0  0  0  0  0  0  0
  -21.1770  -30.0010   21.9120 H   0  0  0  0  0  0  0  0  0  0  0  0
  -18.0840  -28.2570   22.3280 C   0  0  0  0  0  0  0  0  0  0  0  0
  -20.6260  -28.1590   22.7820 C   0  0  0  0  0  3  0  0  0  0  0  0
  -20.6440  -26.9310   21.8430 C   0  0  0  0  0  2  0  0  0  0  0  0
  -19.5970  -27.0090   20.7280 C   0  0  0  0  0  2  0  0  0  0  0  0
  -18.1890  -27.1260   21.3210 C   0  0  0  0  0  2  0  0  0  0  0  0
  -19.2310  -28.7530   23.0030 C   0  0  0  0  0  0  0  0  0  0  0  0
  -19.0850  -29.8310   23.9030 C   0  0  0  0  0  3  0  0  0  0  0  0
  -17.8220  -30.4080   24.1370 C   0  0  0  0  0  3  0  0  0  0  0  0
  -16.6870  -29.9020   23.4780 C   0  0  0  0  0  3  0  0  0  0  0  0
  -16.8190  -28.8280   22.5810 C   0  0  0  0  0  3  0  0  0  0  0  0
  -26.8870  -30.5830   24.1550 C   0  0  0  0  0  3  0  0  0  0  0  0
  -27.3050  -29.2460   24.8810 C   0  0  1  0  0  0  0  0  0  0  0  0
  -26.3130  -28.8010   25.9800 C   0  0  0  0  0  1  0  0  0  0  0  0
  -27.4330  -28.0910   23.8630 C   0  0  0  0  0  1  0  0  0  0  0  0
  -28.6970  -29.4180   25.5340 C   0  0  0  0  0  1  0  0  0  0  0  0
  -27.0120  -31.7310   25.0630 N   0  0  0  0  0  0  0  0  0  0  0  0
  -27.5800  -32.9000   24.7360 C   0  0  0  0  0  0  0  0  0  0  0  0
  -28.1240  -33.0980   23.6470 O   0  0  0  0  0  0  0  0  0  0  0  0
  -26.5400  -31.6580   25.9530 H   0  0  0  0  0  0  0  0  0  0  0  0
  -26.4360  -35.0340   25.4130 C   0  0  0  0  0  1  0  0  0  0  0  0
  -27.5360  -34.0260   25.7850 C   0  0  0  0  0  3  0  0  0  0  0  0
  -29.8670  -33.9060   26.5470 C   0  0  0  0  0  1  0  0  0  0  0  0
  -28.8250  -34.7340   25.9440 N   0  0  0  0  0  0  0  0  0  0  0  0
  -28.7100  -35.5650   26.5180 H   0  0  0  0  0  0  0  0  0  0  0  0
  -27.6150  -22.2310   21.2050 C   0  0  0  0  0  2  0  0  0  0  0  0
  -28.3290  -21.0190   21.4190 O   0  0  0  0  0  0  0  0  0  0  0  0
  -28.9970  -20.4790   20.2800 C   0  0  0  0  0  2  0  0  0  0  0  0
  -29.1640  -18.9830   20.5670 C   0  0  0  0  0  2  0  0  0  0  0  0
  -30.4100  -18.3750   20.0250 N   0  0  0  0  0  4  0  0  0  0  0  0
  -30.3000  -18.1640   19.0430 H   0  0  0  0  0  0  0  0  0  0  0  0
  -31.1820  -19.0220   20.1210 H   0  0  0  0  0  0  0  0  0  0  0  0
  -30.7320  -17.1330   20.7570 C   0  0  0  0  0  2  0  0  0  0  0  0
  -32.0170  -16.4070   20.3110 C   0  0  0  0  0  2  0  0  0  0  0  0
  -32.1460  -13.9410   19.9650 C   0  0  0  0  0  0  0  0  0  0  0  0
  -31.8270  -11.4970   19.9360 C   0  0  0  0  0  2  0  0  0  0  0  0
  -30.8900  -10.9450   18.8460 C   0  0  0  0  0  2  0  0  0  0  0  0
  -29.4180  -11.0360   19.2800 C   0  0  0  0  0  2  0  0  0  0  0  0
  -29.0330  -12.4420   19.8060 C   0  0  0  0  0  3  0  0  0  0  0  0
  -30.0480  -12.9120   20.8720 C   0  0  0  0  0  2  0  0  0  0  0  0
  -31.4190  -12.8520   20.3190 N   0  0  0  0  0  0  0  0  0  0  0  0
  -33.0420  -13.9380   19.1190 O   0  0  0  0  0  0  0  0  0  0  0  0
  -31.8870  -15.0090   20.7270 N   0  0  0  0  0  0  0  0  0  0  0  0
  -31.2600  -14.8260   21.4990 H   0  0  0  0  0  0  0  0  0  0  0  0
  -26.8570  -13.5280   20.6840 C   0  0  0  0  0  0  0  0  0  0  0  0
  -25.6510  -12.9890   21.0400 C   0  0  0  0  0  0  0  0  0  0  0  0
  -25.7850  -11.5760   20.8800 C   0  0  0  0  0  0  0  0  0  0  0  0
  -27.6640  -12.4560   20.3290 N   0  0  0  0  0  0  0  0  0  0  0  0
  -27.0210  -11.2720   20.5120 N   0  0  0  0  0  0  0  0  0  0  0  0
  -24.7920  -10.5020   20.9960 C   0  0  0  0  0  0  0  0  0  0  0  0
  -24.9860   -9.4180   21.8780 C   0  0  0  0  0  3  0  0  0  0  0  0
  -24.0130   -8.4020   21.9870 C   0  0  0  0  0  3  0  0  0  0  0  0
  -22.8290   -8.4670   21.2170 C   0  0  0  0  0  0  0  0  0  0  0  0
  -22.6520   -9.5360   20.3220 C   0  0  0  0  0  3  0  0  0  0  0  0
  -23.6230  -10.5450   20.2090 C   0  0  0  0  0  3  0  0  0  0  0  0
  -21.8350   -7.5200   21.2440 O   0  0  0  0  0  0  0  0  0  0  0  0
  -21.5700   -6.7860   22.3710 C   0  0  0  0  0  0  0  0  0  0  0  0
  -21.2090   -7.3970   23.5920 C   0  0  0  0  0  3  0  0  0  0  0  0
  -20.8820   -6.5990   24.7060 C   0  0  0  0  0  3  0  0  0  0  0  0
  -20.9000   -5.1950   24.5990 C   0  0  0  0  0  0  0  0  0  0  0  0
  -21.2520   -4.5870   23.3820 C   0  0  0  0  0  3  0  0  0  0  0  0
  -21.5830   -5.3810   22.2710 C   0  0  0  0  0  0  0  0  0  0  0  0
  -21.9010   -4.7880   21.0940 F   0  0  0  0  0  0  0  0  0  0  0  0
  -20.5760   -4.4290   25.6670 F   0  0  0  0  0  0  0  0  0  0  0  0
  -24.4070  -13.7460   21.4080 C   0  0  0  0  0  0  0  0  0  0  0  0
  -23.5730  -13.1760   22.2710 N   0  0  0  0  0  0  0  0  0  0  0  0
  -24.1890  -14.8740   20.9680 O   0  0  0  0  0  0  0  0  0  0  0  0
  -23.7570  -12.2580   22.6570 H   0  0  0  0  0  0  0  0  0  0  0  0
  -22.7330  -13.6630   22.5480 H   0  0  0  0  0  0  0  0  0  0  0  0
  -27.3270  -14.8360   20.6030 N   0  0  0  0  0  0  0  0  0  0  0  0
  -26.7210  -15.6290   20.7930 H   0  0  0  0  0  0  0  0  0  0  0  0
  -28.2170  -15.1040   20.2070 H   0  0  0  0  0  0  0  0  0  0  0  0
  1 49  1  0
  2  1  1  0
  3  2  1  0
  4  5  1  0
  4  3  1  0
  6  7  1  0
  6  5  1  0
  7  8  1  0
  8 10  1  0
  9 20  2  0
 10 15  1  0
 11 19  1  0
 11 21  1  0
 12 14  1  0
 12 18  1  0
 13 19  1  0
 14 13  1  0
 15 14  2  0
 16 10  2  0
 16 17  1  0
 17 12  2  0
 18 11  1  0
 19  9  1  0
 21 23  2  0
 22 21  1  0
 24 22  1  0
 25 34  2  0
 25 30  1  0
 26 22  1  0
 26 30  1  0
 27 26  1  0
 28 29  1  0
 28 27  1  0
 29 25  1  0
 30 31  2  0
 31 32  1  0
 33 32  2  0
 34 33  1  0
 35  9  1  0
 35 36  1  0
 35 40  1  0
 36 39  1  1
 36 37  1  0
 38 36  1  0
 40 43  1  0
 41 40  1  0
 41 45  1  0
 42 41  2  0
 45 44  1  0
 45 47  1  0
 47 48  1  0
 47 46  1  0
 49 50  1  0
 51 52  1  0
 51 50  1  0
 53 55  1  0
 53 52  1  0
 53 56  1  0
 54 53  1  0
 57 66  1  0
 57 56  1  0
 58 64  1  0
 58 66  1  0
 59 64  1  0
 60 61  1  0
 60 59  1  0
 62 61  1  0
 62 71  1  0
 62 63  1  0
 64 63  1  0
 65 58  2  0
 66 67  1  0
 68 69  2  0
 69 88  1  0
 70 73  1  0
 70 69  1  0
 71 72  1  0
 71 68  1  0
 72 70  2  0
 73 74  1  0
 74 75  2  0
 76 79  1  0
 76 75  1  0
 77 76  2  0
 78 77  1  0
 78 73  2  0
 79 80  1  0
 80 81  1  0
 81 82  2  0
 83 82  1  0
 83 87  1  0
 84 83  2  0
 85 80  2  0
 85 84  1  0
 86 85  1  0
 88 89  1  0
 89 92  1  0
 89 91  1  0
 90 88  2  0
 93 68  1  0
 93 94  1  0
 95 93  1  0
M  ISO  4   7 101   8 101  58 100  66 100
M  END
>  <TORSDO>  (73) 
F 29

>  <SCORE>  (73) 
-7.486

>  <name>  (73) 
77

>  <ligand_id>  (73) 
77

>  <original_smiles>  (73) 
[H]c1c([H])c([H])c2c(c1[H])C([H])([H])C([H])([H])C([H])([H])C2([H])N([H])C(=O)C1([H])N(C(=O)C([H])(N([H])C(=O)C([H])(N([H])C([H])([H])[H])C([H])([H])[H])C(C([H])([H])[H])(C([H])([H])[H])C([H])([H])[H])C([H])([H])c2c([H])c(OC([H])([H])C([H])([H])OC([H])([H])C([H])([H])OC([H])([H])C([H])([H])OC([H])([H])C([H])([H])[N+]([H])([H])C([H])([H])C([H])([H])N([H])C(=O)N3C([H])([H])C([H])([H])C([H])([H])C([H])(n4nc(-c5c([H])c([H])c(Oc6c([H])c([H])c(F)c([H])c6F)c([H])c5[H])c(C(=O)N([H])[H])c4N([H])[H])C3([H])[H])c([H])c([H])c2C1([H])[H]

>  <smiles>  (73) 
[H]c1c([H])c([H])c2c(c1[H])C([H])([H])C([H])([H])C([H])([H])C2([H])N([H])C(=O)C1([H])N(C(=O)C([H])(N([H])C(=O)C([H])(N([H])C([H])([H])[H])C([H])([H])[H])C(C([H])([H])[H])(C([H])([H])[H])C([H])([H])[H])C([H])([H])c2c([H])c(OC([H])([H])C([H])([H])OC([H])([H])C([H])([H])OC([H])([H])C([H])([H])OC([H])([H])C([H])([H])[N+]([H])([H])C([H])([H])C([H])([H])N([H])C(=O)N3C([H])([H])C([H])([H])C([H])([H])C([H])(n4nc(-c5c([H])c([H])c(Oc6c([H])c([H])c(F)c([H])c6F)c([H])c5[H])c(C(=O)N([H])[H])c4N([H])[H])C3([H])[H])c([H])c([H])c2C1([H])[H]

$$$$
78:0:0
     RDKit          3D

100107  0  0  1  0  0  0  0  0999 V2000
  -22.9960  -21.3400   20.9070 C   0  0  0  0  0  2  0  0  0  0  0  0
  -24.2530  -22.2040   21.0220 C   0  0  0  0  0  0  0  0  0  0  0  0
  -24.9830  -22.3540   19.9110 N   0  0  0  0  0  0  0  0  0  0  0  0
  -24.5240  -22.7790   22.0790 O   0  0  0  0  0  0  0  0  0  0  0  0
  -24.7230  -21.7950   19.1090 H   0  0  0  0  0  0  0  0  0  0  0  0
  -25.8630  -23.4860   19.6670 C   0  0  0  0  0  2  0  0  0  0  0  0
  -27.3610  -23.1430   19.7390 C   0  0  0  0  0  2  0  0  0  0  0  0
  -28.2440  -24.3630   19.4020 C   0  0  0  0  0  2  0  0  0  0  0  0
  -28.3080  -25.4010   20.5450 C   0  0  0  0  0  2  0  0  0  0  0  0
  -28.4090  -26.7470   20.0660 O   0  0  0  0  0  0  0  0  0  0  0  0
  -24.6150  -31.8750   23.2150 C   0  0  0  0  0  0  0  0  0  0  0  0
  -27.2390  -27.4710   20.0720 C   0  0  0  0  0  0  0  0  0  0  0  0
  -23.3980  -30.5030   21.5580 C   0  0  0  0  0  3  0  0  0  0  0  0
  -24.8430  -28.9660   20.1230 C   0  0  0  0  0  0  0  0  0  0  0  0
  -25.9250  -30.8490   21.3560 C   0  0  0  0  0  2  0  0  0  0  0  0
  -26.0070  -29.4850   20.7050 C   0  0  0  0  0  0  0  0  0  0  0  0
  -27.2130  -28.7500   20.6680 C   0  0  0  0  0  3  0  0  0  0  0  0
  -26.0640  -26.9740   19.4710 C   0  0  0  0  0  3  0  0  0  0  0  0
  -24.8650  -27.7040   19.5040 C   0  0  0  0  0  3  0  0  0  0  0  0
  -23.6070  -29.8360   20.1720 C   0  0  0  0  0  2  0  0  0  0  0  0
  -24.6650  -31.0870   22.1030 N   0  0  0  0  0  0  0  0  0  0  0  0
  -23.5380  -32.1520   23.7580 O   0  0  0  0  0  0  0  0  0  0  0  0
  -22.7390  -29.4760   22.5060 C   0  0  0  0  0  0  0  0  0  0  0  0
  -21.4130  -29.3090   22.3740 N   0  0  0  0  0  0  0  0  0  0  0  0
  -23.4170  -28.8260   23.3050 O   0  0  0  0  0  0  0  0  0  0  0  0
  -20.9290  -29.8850   21.6980 H   0  0  0  0  0  0  0  0  0  0  0  0
  -18.0300  -28.1300   22.8430 C   0  0  0  0  0  0  0  0  0  0  0  0
  -20.5850  -28.3710   23.1320 C   0  0  0  0  0  3  0  0  0  0  0  0
  -20.6850  -26.9420   22.5520 C   0  0  0  0  0  2  0  0  0  0  0  0
  -19.5900  -26.6250   21.5270 C   0  0  0  0  0  2  0  0  0  0  0  0
  -18.2020  -26.7840   22.1580 C   0  0  0  0  0  2  0  0  0  0  0  0
  -19.1500  -28.8820   23.2840 C   0  0  0  0  0  0  0  0  0  0  0  0
  -18.9390  -30.1430   23.8820 C   0  0  0  0  0  3  0  0  0  0  0  0
  -17.6360  -30.6540   24.0440 C   0  0  0  0  0  3  0  0  0  0  0  0
  -16.5300  -29.8980   23.6210 C   0  0  0  0  0  3  0  0  0  0  0  0
  -16.7240  -28.6370   23.0300 C   0  0  0  0  0  3  0  0  0  0  0  0
  -25.9070  -32.4840   23.8420 C   0  0  0  0  0  3  0  0  0  0  0  0
  -25.5940  -33.8620   24.2390 N   0  0  0  0  0  0  0  0  0  0  0  0
  -25.9030  -34.9460   23.5170 C   0  0  0  0  0  0  0  0  0  0  0  0
  -26.5570  -34.8910   22.4720 O   0  0  0  0  0  0  0  0  0  0  0  0
  -25.0160  -33.9740   25.0590 H   0  0  0  0  0  0  0  0  0  0  0  0
  -24.1490  -36.7300   23.2620 C   0  0  0  0  0  1  0  0  0  0  0  0
  -25.4100  -36.3100   24.0340 C   0  0  0  0  0  3  0  0  0  0  0  0
  -27.5580  -37.1800   24.8460 C   0  0  0  0  0  1  0  0  0  0  0  0
  -26.4270  -37.3780   23.9440 N   0  0  0  0  0  0  0  0  0  0  0  0
  -26.0180  -38.2870   24.1440 H   0  0  0  0  0  0  0  0  0  0  0  0
  -26.4490  -31.6590   25.0730 C   0  0  1  0  0  0  0  0  0  0  0  0
  -25.3760  -31.3690   26.1500 C   0  0  0  0  0  1  0  0  0  0  0  0
  -27.0300  -30.3040   24.6030 C   0  0  0  0  0  1  0  0  0  0  0  0
  -27.6090  -32.4280   25.7480 C   0  0  0  0  0  1  0  0  0  0  0  0
  -23.1930  -20.0970   21.5680 O   0  0  0  0  0  0  0  0  0  0  0  0
  -22.1010  -19.2110   21.3490 C   0  0  0  0  0  2  0  0  0  0  0  0
  -22.2810  -17.9340   22.1770 C   0  0  0  0  0  2  0  0  0  0  0  0
  -22.0030  -18.2280   23.5390 O   0  0  0  0  0  0  0  0  0  0  0  0
  -22.2490  -17.1430   24.4270 C   0  0  0  0  0  2  0  0  0  0  0  0
  -23.7040  -17.1320   24.9200 C   0  0  0  0  0  2  0  0  0  0  0  0
  -24.5000  -16.2960   24.0950 O   0  0  0  0  0  0  0  0  0  0  0  0
  -25.8590  -16.2670   24.5080 C   0  0  0  0  0  2  0  0  0  0  0  0
  -26.4810  -14.9340   24.0610 C   0  0  0  0  0  2  0  0  0  0  0  0
  -27.9040  -14.9260   24.1190 O   0  0  0  0  0  0  0  0  0  0  0  0
  -28.5220  -15.7260   23.1180 C   0  0  0  0  0  2  0  0  0  0  0  0
  -29.9480  -15.2260   22.8410 C   0  0  0  0  0  2  0  0  0  0  0  0
  -30.7650  -14.3660   20.6570 C   0  0  0  0  0  0  0  0  0  0  0  0
  -30.4070  -12.2750   19.4050 C   0  0  0  0  0  2  0  0  0  0  0  0
  -29.4870  -12.5340   18.1950 C   0  0  0  0  0  2  0  0  0  0  0  0
  -28.0070  -12.3890   18.6020 C   0  0  0  0  0  2  0  0  0  0  0  0
  -27.6630  -13.1960   19.8830 C   0  0  0  0  0  3  0  0  0  0  0  0
  -28.6990  -12.9120   20.9890 C   0  0  0  0  0  2  0  0  0  0  0  0
  -30.0440  -13.2250   20.4690 N   0  0  0  0  0  0  0  0  0  0  0  0
  -31.8000  -14.6200   20.0390 O   0  0  0  0  0  0  0  0  0  0  0  0
  -30.2350  -15.3320   21.4140 N   0  0  0  0  0  0  0  0  0  0  0  0
  -30.6060  -16.2390   21.1660 H   0  0  0  0  0  0  0  0  0  0  0  0
  -25.2610  -13.8130   20.5780 C   0  0  0  0  0  0  0  0  0  0  0  0
  -24.1810  -13.0430   20.9280 C   0  0  0  0  0  0  0  0  0  0  0  0
  -24.6330  -11.6890   20.8730 C   0  0  0  0  0  0  0  0  0  0  0  0
  -26.3010  -12.9270   20.3410 N   0  0  0  0  0  0  0  0  0  0  0  0
  -25.9270  -11.6450   20.5830 N   0  0  0  0  0  0  0  0  0  0  0  0
  -23.9020  -10.4270   21.0370 C   0  0  0  0  0  0  0  0  0  0  0  0
  -24.3630   -9.4140   21.9060 C   0  0  0  0  0  3  0  0  0  0  0  0
  -23.6280   -8.2220   22.0700 C   0  0  0  0  0  3  0  0  0  0  0  0
  -22.4220   -8.0300   21.3560 C   0  0  0  0  0  0  0  0  0  0  0  0
  -21.9760   -9.0330   20.4770 C   0  0  0  0  0  3  0  0  0  0  0  0
  -22.7100  -10.2180   20.3140 C   0  0  0  0  0  3  0  0  0  0  0  0
  -21.6590   -6.8910   21.4240 O   0  0  0  0  0  0  0  0  0  0  0  0
  -21.6770   -6.0780   22.5270 C   0  0  0  0  0  0  0  0  0  0  0  0
  -21.3950   -6.5710   23.8200 C   0  0  0  0  0  3  0  0  0  0  0  0
  -21.3680   -5.6890   24.9190 C   0  0  0  0  0  3  0  0  0  0  0  0
  -21.6020   -4.3130   24.7220 C   0  0  0  0  0  0  0  0  0  0  0  0
  -21.8730   -3.8200   23.4330 C   0  0  0  0  0  3  0  0  0  0  0  0
  -21.9110   -4.7020   22.3390 C   0  0  0  0  0  0  0  0  0  0  0  0
  -22.1570   -4.2200   21.0970 F   0  0  0  0  0  0  0  0  0  0  0  0
  -21.5710   -3.4610   25.7740 F   0  0  0  0  0  0  0  0  0  0  0  0
  -22.7850  -13.5330   21.1960 C   0  0  0  0  0  0  0  0  0  0  0  0
  -22.0480  -12.8360   22.0570 N   0  0  0  0  0  0  0  0  0  0  0  0
  -22.3540  -14.5630   20.6800 O   0  0  0  0  0  0  0  0  0  0  0  0
  -22.4100  -12.0090   22.5060 H   0  0  0  0  0  0  0  0  0  0  0  0
  -21.1150  -13.1470   22.2850 H   0  0  0  0  0  0  0  0  0  0  0  0
  -25.4400  -15.1820   20.4290 N   0  0  0  0  0  0  0  0  0  0  0  0
  -24.7080  -15.8440   20.6550 H   0  0  0  0  0  0  0  0  0  0  0  0
  -26.2870  -15.6210   20.0900 H   0  0  0  0  0  0  0  0  0  0  0  0
  1  2  1  0
  1 51  1  0
  2  4  2  0
  3  2  1  0
  5  3  1  0
  6  7  1  0
  6  3  1  0
  8  7  1  0
  8  9  1  0
 10 12  1  0
 10  9  1  0
 11 22  2  0
 12 17  1  0
 13 21  1  0
 13 23  1  0
 14 20  1  0
 14 16  1  0
 15 21  1  0
 16 15  1  0
 17 16  2  0
 18 19  1  0
 18 12  2  0
 19 14  2  0
 20 13  1  0
 21 11  1  0
 23 25  2  0
 24 23  1  0
 26 24  1  0
 27 36  2  0
 27 32  1  0
 28 24  1  0
 28 32  1  0
 29 28  1  0
 30 31  1  0
 30 29  1  0
 31 27  1  0
 32 33  2  0
 33 34  1  0
 35 34  2  0
 36 35  1  0
 37 11  1  0
 37 38  1  0
 37 47  1  0
 38 41  1  0
 39 43  1  0
 39 38  1  0
 40 39  2  0
 43 42  1  0
 45 43  1  0
 45 46  1  0
 45 44  1  0
 47 50  1  1
 47 48  1  0
 49 47  1  0
 52 51  1  0
 52 53  1  0
 53 54  1  0
 54 55  1  0
 55 56  1  0
 57 58  1  0
 57 56  1  0
 59 60  1  0
 59 58  1  0
 61 60  1  0
 62 61  1  0
 63 71  1  0
 64 69  1  0
 65 66  1  0
 65 64  1  0
 67 66  1  0
 67 76  1  0
 67 68  1  0
 69 63  1  0
 69 68  1  0
 70 63  2  0
 71 62  1  0
 72 71  1  0
 73 74  2  0
 74 93  1  0
 75 74  1  0
 75 78  1  0
 76 73  1  0
 76 77  1  0
 77 75  2  0
 78 79  1  0
 79 80  2  0
 81 84  1  0
 81 80  1  0
 82 81  2  0
 83 82  1  0
 83 78  2  0
 84 85  1  0
 85 86  1  0
 86 87  2  0
 88 87  1  0
 88 92  1  0
 89 88  2  0
 90 85  2  0
 90 89  1  0
 91 90  1  0
 93 94  1  0
 94 97  1  0
 94 96  1  0
 95 93  2  0
 98 73  1  0
 98 99  1  0
100 98  1  0
M  ISO  4   9 101  10 101  63 100  71 100
M  END
>  <TORSDO>  (74) 
F 33

>  <SCORE>  (74) 
54.190

>  <name>  (74) 
78

>  <ligand_id>  (74) 
78

>  <original_smiles>  (74) 
[H]c1c([H])c([H])c2c(c1[H])C([H])([H])C([H])([H])C([H])([H])C2([H])N([H])C(=O)C1([H])N(C(=O)C([H])(N([H])C(=O)C([H])(N([H])C([H])([H])[H])C([H])([H])[H])C(C([H])([H])[H])(C([H])([H])[H])C([H])([H])[H])C([H])([H])c2c([H])c(OC([H])([H])C([H])([H])C([H])([H])C([H])([H])N([H])C(=O)C([H])([H])OC([H])([H])C([H])([H])OC([H])([H])C([H])([H])OC([H])([H])C([H])([H])OC([H])([H])C([H])([H])N([H])C(=O)N3C([H])([H])C([H])([H])C([H])([H])C([H])(n4nc(-c5c([H])c([H])c(Oc6c([H])c([H])c(F)c([H])c6F)c([H])c5[H])c(C(=O)N([H])[H])c4N([H])[H])C3([H])[H])c([H])c([H])c2C1([H])[H]

>  <smiles>  (74) 
[H]c1c([H])c([H])c2c(c1[H])C([H])([H])C([H])([H])C([H])([H])C2([H])N([H])C(=O)C1([H])N(C(=O)C([H])(N([H])C(=O)C([H])(N([H])C([H])([H])[H])C([H])([H])[H])C(C([H])([H])[H])(C([H])([H])[H])C([H])([H])[H])C([H])([H])c2c([H])c(OC([H])([H])C([H])([H])C([H])([H])C([H])([H])N([H])C(=O)C([H])([H])OC([H])([H])C([H])([H])OC([H])([H])C([H])([H])OC([H])([H])C([H])([H])OC([H])([H])C([H])([H])N([H])C(=O)N3C([H])([H])C([H])([H])C([H])([H])C([H])(n4nc(-c5c([H])c([H])c(Oc6c([H])c([H])c(F)c([H])c6F)c([H])c5[H])c(C(=O)N([H])[H])c4N([H])[H])C3([H])[H])c([H])c([H])c2C1([H])[H]

$$$$
79:0:0
     RDKit          3D

109116  0  0  1  0  0  0  0  0999 V2000
  -29.7630  -14.2190   26.2460 C   0  0  0  0  0  0  0  0  0  0  0  0
  -29.8520  -15.2490   25.4000 N   0  0  0  0  0  0  0  0  0  0  0  0
  -30.6390  -13.9650   27.0760 O   0  0  0  0  0  0  0  0  0  0  0  0
  -29.1200  -15.3770   24.7140 H   0  0  0  0  0  0  0  0  0  0  0  0
  -28.5050  -13.3440   26.1380 C   0  0  0  0  0  2  0  0  0  0  0  0
  -28.8780  -11.9900   25.9050 O   0  0  0  0  0  0  0  0  0  0  0  0
  -27.7590  -11.1330   25.7140 C   0  0  0  0  0  2  0  0  0  0  0  0
  -28.2400   -9.6720   25.7540 C   0  0  0  0  0  2  0  0  0  0  0  0
  -28.5590   -9.1980   24.4520 O   0  0  0  0  0  0  0  0  0  0  0  0
  -27.4460   -8.7010   23.7210 C   0  0  0  0  0  2  0  0  0  0  0  0
  -27.9040   -7.6040   22.7520 C   0  0  0  0  0  2  0  0  0  0  0  0
  -28.8650   -8.1020   21.8220 O   0  0  0  0  0  0  0  0  0  0  0  0
  -30.1770   -7.5520   21.9180 C   0  0  0  0  0  2  0  0  0  0  0  0
  -30.9690   -8.1370   23.1060 C   0  0  0  0  0  2  0  0  0  0  0  0
  -31.9620   -9.0820   22.7130 O   0  0  0  0  0  0  0  0  0  0  0  0
  -31.4950  -10.0660   21.8050 C   0  0  0  0  0  2  0  0  0  0  0  0
  -32.3580  -11.3350   21.9020 C   0  0  0  0  0  2  0  0  0  0  0  0
  -31.5290  -12.4950   19.9280 C   0  0  0  0  0  0  0  0  0  0  0  0
  -30.4150  -11.2350   18.1330 C   0  0  0  0  0  2  0  0  0  0  0  0
  -29.3860  -12.0520   17.3380 C   0  0  0  0  0  2  0  0  0  0  0  0
  -28.0120  -11.9660   18.0160 C   0  0  0  0  0  2  0  0  0  0  0  0
  -28.0810  -12.3560   19.5140 C   0  0  0  0  0  3  0  0  0  0  0  0
  -29.2060  -11.5910   20.2410 C   0  0  0  0  0  2  0  0  0  0  0  0
  -30.4770  -11.7510   19.5070 N   0  0  0  0  0  0  0  0  0  0  0  0
  -32.3420  -13.0290   19.1710 O   0  0  0  0  0  0  0  0  0  0  0  0
  -31.7440  -12.4920   21.2450 N   0  0  0  0  0  0  0  0  0  0  0  0
  -32.2130  -13.3390   21.5330 H   0  0  0  0  0  0  0  0  0  0  0  0
  -25.8830  -13.1180   20.6230 C   0  0  0  0  0  0  0  0  0  0  0  0
  -24.8050  -12.4170   21.0930 C   0  0  0  0  0  0  0  0  0  0  0  0
  -25.1070  -11.0370   20.8820 C   0  0  0  0  0  0  0  0  0  0  0  0
  -26.7870  -12.1690   20.1700 N   0  0  0  0  0  0  0  0  0  0  0  0
  -26.3280  -10.9070   20.3760 N   0  0  0  0  0  0  0  0  0  0  0  0
  -24.2830   -9.8380   21.0770 C   0  0  0  0  0  0  0  0  0  0  0  0
  -24.6970   -8.7870   21.9240 C   0  0  0  0  0  3  0  0  0  0  0  0
  -23.8770   -7.6540   22.1130 C   0  0  0  0  0  3  0  0  0  0  0  0
  -22.6320   -7.5610   21.4500 C   0  0  0  0  0  0  0  0  0  0  0  0
  -22.2340   -8.5980   20.5880 C   0  0  0  0  0  3  0  0  0  0  0  0
  -23.0520   -9.7260   20.3990 C   0  0  0  0  0  3  0  0  0  0  0  0
  -21.7830   -6.4870   21.5510 O   0  0  0  0  0  0  0  0  0  0  0  0
  -21.7750   -5.6760   22.6580 C   0  0  0  0  0  0  0  0  0  0  0  0
  -21.4450   -6.1680   23.9400 C   0  0  0  0  0  3  0  0  0  0  0  0
  -21.3750   -5.2890   25.0370 C   0  0  0  0  0  3  0  0  0  0  0  0
  -21.6280   -3.9150   24.8580 C   0  0  0  0  0  0  0  0  0  0  0  0
  -21.9570   -3.4230   23.5820 C   0  0  0  0  0  3  0  0  0  0  0  0
  -22.0250   -4.3010   22.4860 C   0  0  0  0  0  0  0  0  0  0  0  0
  -22.3170   -3.8140   21.2560 F   0  0  0  0  0  0  0  0  0  0  0  0
  -21.5560   -3.0670   25.9110 F   0  0  0  0  0  0  0  0  0  0  0  0
  -23.5240  -12.9940   21.6230 C   0  0  0  0  0  0  0  0  0  0  0  0
  -22.9090  -12.3320   22.5970 N   0  0  0  0  0  0  0  0  0  0  0  0
  -23.0880  -14.0670   21.2080 O   0  0  0  0  0  0  0  0  0  0  0  0
  -23.2770  -11.4610   22.9520 H   0  0  0  0  0  0  0  0  0  0  0  0
  -22.0530  -12.6980   22.9940 H   0  0  0  0  0  0  0  0  0  0  0  0
  -26.1590  -14.4770   20.5140 N   0  0  0  0  0  0  0  0  0  0  0  0
  -25.4630  -15.1830   20.7250 H   0  0  0  0  0  0  0  0  0  0  0  0
  -26.9610  -14.8460   20.0210 H   0  0  0  0  0  0  0  0  0  0  0  0
  -30.9380  -16.2220   25.3350 C   0  0  0  0  0  2  0  0  0  0  0  0
  -30.9650  -16.9120   23.9650 C   0  0  0  0  0  0  0  0  0  0  0  0
  -31.8560  -17.8980   23.8000 N   0  0  0  0  0  0  0  0  0  0  0  0
  -30.1820  -16.5600   23.0780 O   0  0  0  0  0  0  0  0  0  0  0  0
  -32.4510  -18.1150   24.5880 H   0  0  0  0  0  0  0  0  0  0  0  0
  -31.9900  -18.7400   22.6100 C   0  0  0  0  0  2  0  0  0  0  0  0
  -32.5910  -20.1150   22.9640 C   0  0  0  0  0  2  0  0  0  0  0  0
  -34.1270  -20.1650   22.8960 C   0  0  0  0  0  2  0  0  0  0  0  0
  -34.5750  -21.4390   23.3510 O   0  0  0  0  0  0  0  0  0  0  0  0
  -35.9330  -21.7130   23.0280 C   0  0  0  0  0  2  0  0  0  0  0  0
  -36.4270  -22.9200   23.8430 C   0  0  0  0  0  2  0  0  0  0  0  0
  -37.9000  -23.2770   23.5630 C   0  0  0  0  0  2  0  0  0  0  0  0
  -38.4840  -24.2840   24.5690 C   0  0  0  0  0  2  0  0  0  0  0  0
  -39.8980  -24.4270   24.3890 O   0  0  0  0  0  0  0  0  0  0  0  0
  -40.7090  -31.1480   26.5000 C   0  0  0  0  0  0  0  0  0  0  0  0
  -40.2660  -25.7000   24.0360 C   0  0  0  0  0  0  0  0  0  0  0  0
  -40.7570  -30.7730   24.0530 C   0  0  0  0  0  3  0  0  0  0  0  0
  -40.9360  -28.3380   23.3090 C   0  0  0  0  0  0  0  0  0  0  0  0
  -41.5120  -28.9420   25.6700 C   0  0  0  0  0  2  0  0  0  0  0  0
  -41.0460  -27.9300   24.6450 C   0  0  0  0  0  0  0  0  0  0  0  0
  -40.7180  -26.6100   25.0140 C   0  0  0  0  0  3  0  0  0  0  0  0
  -40.1640  -26.1150   22.6930 C   0  0  0  0  0  3  0  0  0  0  0  0
  -40.4950  -27.4340   22.3250 C   0  0  0  0  0  3  0  0  0  0  0  0
  -41.3090  -29.7710   23.0020 C   0  0  0  0  0  2  0  0  0  0  0  0
  -40.9640  -30.3010   25.4610 N   0  0  0  0  0  0  0  0  0  0  0  0
  -40.3520  -32.3170   26.3000 O   0  0  0  0  0  0  0  0  0  0  0  0
  -39.2790  -31.0750   23.7180 C   0  0  0  0  0  0  0  0  0  0  0  0
  -39.0560  -32.0490   22.8200 N   0  0  0  0  0  0  0  0  0  0  0  0
  -38.3680  -30.4230   24.2340 O   0  0  0  0  0  0  0  0  0  0  0  0
  -39.8580  -32.5430   22.4520 H   0  0  0  0  0  0  0  0  0  0  0  0
  -37.4000  -34.4650   20.7070 C   0  0  0  0  0  0  0  0  0  0  0  0
  -37.7510  -32.4770   22.3210 C   0  0  0  0  0  3  0  0  0  0  0  0
  -37.2760  -31.5800   21.1550 C   0  0  0  0  0  2  0  0  0  0  0  0
  -37.6610  -32.1260   19.7760 C   0  0  0  0  0  2  0  0  0  0  0  0
  -37.0620  -33.5190   19.5670 C   0  0  0  0  0  2  0  0  0  0  0  0
  -37.7390  -33.9760   21.9960 C   0  0  0  0  0  0  0  0  0  0  0  0
  -38.0800  -34.8950   23.0110 C   0  0  0  0  0  3  0  0  0  0  0  0
  -38.0830  -36.2800   22.7560 C   0  0  0  0  0  3  0  0  0  0  0  0
  -37.7310  -36.7600   21.4830 C   0  0  0  0  0  3  0  0  0  0  0  0
  -37.3860  -35.8550   20.4630 C   0  0  0  0  0  3  0  0  0  0  0  0
  -40.8760  -30.6940   27.9850 C   0  0  0  0  0  3  0  0  0  0  0  0
  -39.5060  -30.3520   28.6900 C   0  0  1  0  0  0  0  0  0  0  0  0
  -38.4310  -31.4520   28.5260 C   0  0  0  0  0  1  0  0  0  0  0  0
  -38.9210  -29.0330   28.1340 C   0  0  0  0  0  1  0  0  0  0  0  0
  -39.7360  -30.1330   30.2040 C   0  0  0  0  0  1  0  0  0  0  0  0
  -41.5770  -31.7700   28.6990 N   0  0  0  0  0  0  0  0  0  0  0  0
  -42.8880  -31.7710   28.9710 C   0  0  0  0  0  0  0  0  0  0  0  0
  -43.6290  -30.8230   28.7030 O   0  0  0  0  0  0  0  0  0  0  0  0
  -41.0400  -32.6000   28.9030 H   0  0  0  0  0  0  0  0  0  0  0  0
  -44.1670  -33.9010   28.5870 C   0  0  0  0  0  1  0  0  0  0  0  0
  -43.4700  -33.0290   29.6430 C   0  0  0  0  0  3  0  0  0  0  0  0
  -43.7700  -32.1270   31.9070 C   0  0  0  0  0  1  0  0  0  0  0  0
  -44.4130  -32.7260   30.7410 N   0  0  0  0  0  0  0  0  0  0  0  0
  -44.8990  -33.5670   31.0440 H   0  0  0  0  0  0  0  0  0  0  0  0
  1  3  2  0
  2  1  1  0
  4  2  1  0
  5  1  1  0
  6  5  1  0
  7  8  1  0
  7  6  1  0
  9  8  1  0
 10  9  1  0
 11 10  1  0
 12 13  1  0
 12 11  1  0
 13 14  1  0
 15 14  1  0
 16 17  1  0
 16 15  1  0
 18 26  1  0
 19 24  1  0
 20 21  1  0
 20 19  1  0
 22 21  1  0
 22 31  1  0
 22 23  1  0
 24 18  1  0
 24 23  1  0
 25 18  2  0
 26 27  1  0
 26 17  1  0
 28 29  2  0
 29 48  1  0
 30 33  1  0
 30 29  1  0
 31 32  1  0
 31 28  1  0
 32 30  2  0
 33 34  1  0
 34 35  2  0
 36 39  1  0
 36 35  1  0
 37 36  2  0
 38 37  1  0
 38 33  2  0
 39 40  1  0
 40 41  1  0
 41 42  2  0
 43 42  1  0
 43 47  1  0
 44 43  2  0
 45 40  2  0
 45 44  1  0
 46 45  1  0
 48 49  1  0
 49 51  1  0
 49 52  1  0
 50 48  2  0
 53 28  1  0
 53 54  1  0
 55 53  1  0
 56  2  1  0
 57 56  1  0
 58 57  1  0
 58 60  1  0
 59 57  2  0
 61 62  1  0
 61 58  1  0
 63 62  1  0
 63 64  1  0
 65 64  1  0
 65 66  1  0
 67 66  1  0
 67 68  1  0
 69 68  1  0
 71 69  1  0
 71 76  1  0
 72 82  1  0
 72 80  1  0
 73 75  1  0
 75 76  2  0
 75 74  1  0
 77 71  2  0
 78 77  1  0
 78 73  2  0
 79 73  1  0
 79 72  1  0
 80 74  1  0
 80 70  1  0
 81 70  2  0
 82 84  2  0
 83 82  1  0
 85 83  1  0
 86 91  1  0
 87 83  1  0
 88 87  1  0
 89 88  1  0
 90 89  1  0
 90 86  1  0
 91 87  1  0
 91 92  2  0
 93 92  1  0
 94 93  2  0
 95 86  2  0
 95 94  1  0
 96 70  1  0
 96 97  1  0
 96101  1  0
 97100  1  1
 98 97  1  0
 99 97  1  0
101104  1  0
101102  1  0
102106  1  0
103102  2  0
106105  1  0
106108  1  0
108109  1  0
108107  1  0
M  ISO  4  18 100  26 100  68 101  69 101
M  END
>  <TORSDO>  (75) 
F 39

>  <SCORE>  (75) 
29.536

>  <name>  (75) 
79

>  <ligand_id>  (75) 
79

>  <original_smiles>  (75) 
[H]c1c([H])c([H])c2c(c1[H])C([H])([H])C([H])([H])C([H])([H])C2([H])N([H])C(=O)C1([H])N(C(=O)C([H])(N([H])C(=O)C([H])(N([H])C([H])([H])[H])C([H])([H])[H])C(C([H])([H])[H])(C([H])([H])[H])C([H])([H])[H])C([H])([H])c2c([H])c(OC([H])([H])C([H])([H])C([H])([H])C([H])([H])OC([H])([H])C([H])([H])C([H])([H])N([H])C(=O)C([H])([H])N([H])C(=O)C([H])([H])OC([H])([H])C([H])([H])OC([H])([H])C([H])([H])OC([H])([H])C([H])([H])OC([H])([H])C([H])([H])N([H])C(=O)N3C([H])([H])C([H])([H])C([H])([H])C([H])(n4nc(-c5c([H])c([H])c(Oc6c([H])c([H])c(F)c([H])c6F)c([H])c5[H])c(C(=O)N([H])[H])c4N([H])[H])C3([H])[H])c([H])c([H])c2C1([H])[H]

>  <smiles>  (75) 
[H]c1c([H])c([H])c2c(c1[H])C([H])([H])C([H])([H])C([H])([H])C2([H])N([H])C(=O)C1([H])N(C(=O)C([H])(N([H])C(=O)C([H])(N([H])C([H])([H])[H])C([H])([H])[H])C(C([H])([H])[H])(C([H])([H])[H])C([H])([H])[H])C([H])([H])c2c([H])c(OC([H])([H])C([H])([H])C([H])([H])C([H])([H])OC([H])([H])C([H])([H])C([H])([H])N([H])C(=O)C([H])([H])N([H])C(=O)C([H])([H])OC([H])([H])C([H])([H])OC([H])([H])C([H])([H])OC([H])([H])C([H])([H])OC([H])([H])C([H])([H])N([H])C(=O)N3C([H])([H])C([H])([H])C([H])([H])C([H])(n4nc(-c5c([H])c([H])c(Oc6c([H])c([H])c(F)c([H])c6F)c([H])c5[H])c(C(=O)N([H])[H])c4N([H])[H])C3([H])[H])c([H])c([H])c2C1([H])[H]

$$$$
80:0:0
     RDKit          3D

125132  0  0  1  0  0  0  0  0999 V2000
  -32.9820  -21.5160   18.5810 C   0  0  0  0  0  0  0  0  0  0  0  0
  -33.7790  -22.5620   18.8230 N   0  0  0  0  0  0  0  0  0  0  0  0
  -32.4780  -20.8490   19.4880 O   0  0  0  0  0  0  0  0  0  0  0  0
  -34.1320  -23.0880   18.0360 H   0  0  0  0  0  0  0  0  0  0  0  0
  -34.0680  -23.0910   20.1550 C   0  0  0  0  0  2  0  0  0  0  0  0
  -32.9370  -24.0060   20.6360 C   0  0  0  0  0  0  0  0  0  0  0  0
  -32.5370  -23.8590   21.9020 N   0  0  0  0  0  0  0  0  0  0  0  0
  -32.4480  -24.8380   19.8680 O   0  0  0  0  0  0  0  0  0  0  0  0
  -32.9540  -23.0970   22.4360 H   0  0  0  0  0  0  0  0  0  0  0  0
  -31.4030  -24.5380   22.5220 C   0  0  0  0  0  2  0  0  0  0  0  0
  -30.2850  -23.5240   22.7980 C   0  0  0  0  0  2  0  0  0  0  0  0
  -29.9270  -22.9000   21.5730 O   0  0  0  0  0  0  0  0  0  0  0  0
  -29.0170  -21.8240   21.7380 C   0  0  0  0  0  2  0  0  0  0  0  0
  -28.8200  -21.1370   20.3820 C   0  0  0  0  0  2  0  0  0  0  0  0
  -28.0840  -21.9870   19.5140 O   0  0  0  0  0  0  0  0  0  0  0  0
  -27.9200  -21.4190   18.2210 C   0  0  0  0  0  2  0  0  0  0  0  0
  -27.1810  -22.4120   17.3160 C   0  0  0  0  0  2  0  0  0  0  0  0
  -28.0340  -23.5150   17.0380 O   0  0  0  0  0  0  0  0  0  0  0  0
  -27.4040  -24.4970   16.2270 C   0  0  0  0  0  2  0  0  0  0  0  0
  -28.3690  -25.6620   15.9570 C   0  0  0  0  0  2  0  0  0  0  0  0
  -28.4340  -26.5430   17.0720 O   0  0  0  0  0  0  0  0  0  0  0  0
  -29.4990  -26.2560   17.9700 C   0  0  0  0  0  2  0  0  0  0  0  0
  -29.4110  -27.1890   19.1860 C   0  0  0  0  0  2  0  0  0  0  0  0
  -28.3920  -26.7260   20.0640 O   0  0  0  0  0  0  0  0  0  0  0  0
  -24.6110  -31.8690   23.2110 C   0  0  0  0  0  0  0  0  0  0  0  0
  -27.2450  -27.4770   20.0790 C   0  0  0  0  0  0  0  0  0  0  0  0
  -23.3980  -30.4900   21.5500 C   0  0  0  0  0  3  0  0  0  0  0  0
  -24.8480  -28.9580   20.1170 C   0  0  0  0  0  0  0  0  0  0  0  0
  -25.9220  -30.8470   21.3570 C   0  0  0  0  0  2  0  0  0  0  0  0
  -26.0050  -29.4830   20.7080 C   0  0  0  0  0  0  0  0  0  0  0  0
  -27.2090  -28.7470   20.6920 C   0  0  0  0  0  3  0  0  0  0  0  0
  -26.0740  -26.9460   19.5060 C   0  0  0  0  0  3  0  0  0  0  0  0
  -24.8750  -27.6850   19.5150 C   0  0  0  0  0  3  0  0  0  0  0  0
  -23.6060  -29.8180   20.1660 C   0  0  0  0  0  2  0  0  0  0  0  0
  -24.6620  -31.0810   22.0990 N   0  0  0  0  0  0  0  0  0  0  0  0
  -23.5310  -32.1420   23.7520 O   0  0  0  0  0  0  0  0  0  0  0  0
  -22.7390  -29.4660   22.5000 C   0  0  0  0  0  0  0  0  0  0  0  0
  -21.4130  -29.3020   22.3730 N   0  0  0  0  0  0  0  0  0  0  0  0
  -23.4170  -28.8210   23.3050 O   0  0  0  0  0  0  0  0  0  0  0  0
  -20.9280  -29.8740   21.6950 H   0  0  0  0  0  0  0  0  0  0  0  0
  -18.0270  -28.1380   22.8480 C   0  0  0  0  0  0  0  0  0  0  0  0
  -20.5860  -28.3660   23.1330 C   0  0  0  0  0  3  0  0  0  0  0  0
  -20.6770  -26.9400   22.5420 C   0  0  0  0  0  2  0  0  0  0  0  0
  -19.5760  -26.6390   21.5210 C   0  0  0  0  0  2  0  0  0  0  0  0
  -18.1920  -26.7930   22.1610 C   0  0  0  0  0  2  0  0  0  0  0  0
  -19.1520  -28.8830   23.2900 C   0  0  0  0  0  0  0  0  0  0  0  0
  -18.9450  -30.1440   23.8910 C   0  0  0  0  0  3  0  0  0  0  0  0
  -17.6450  -30.6580   24.0570 C   0  0  0  0  0  3  0  0  0  0  0  0
  -16.5350  -29.9080   23.6330 C   0  0  0  0  0  3  0  0  0  0  0  0
  -16.7260  -28.6500   23.0340 C   0  0  0  0  0  3  0  0  0  0  0  0
  -25.9010  -32.4830   23.8400 C   0  0  0  0  0  3  0  0  0  0  0  0
  -26.4470  -31.6600   25.0700 C   0  0  1  0  0  0  0  0  0  0  0  0
  -25.3760  -31.3700   26.1470 C   0  0  0  0  0  1  0  0  0  0  0  0
  -27.0280  -30.3050   24.6050 C   0  0  0  0  0  1  0  0  0  0  0  0
  -27.6050  -32.4320   25.7460 C   0  0  0  0  0  1  0  0  0  0  0  0
  -25.5890  -33.8630   24.2330 N   0  0  0  0  0  0  0  0  0  0  0  0
  -25.9030  -34.9490   23.5140 C   0  0  0  0  0  0  0  0  0  0  0  0
  -26.5590  -34.8930   22.4690 O   0  0  0  0  0  0  0  0  0  0  0  0
  -25.0080  -33.9810   25.0500 H   0  0  0  0  0  0  0  0  0  0  0  0
  -24.1490  -36.7320   23.2640 C   0  0  0  0  0  1  0  0  0  0  0  0
  -25.4110  -36.3120   24.0340 C   0  0  0  0  0  3  0  0  0  0  0  0
  -27.5590  -37.1810   24.8470 C   0  0  0  0  0  1  0  0  0  0  0  0
  -26.4300  -37.3800   23.9420 N   0  0  0  0  0  0  0  0  0  0  0  0
  -26.0190  -38.2880   24.1430 H   0  0  0  0  0  0  0  0  0  0  0  0
  -32.7200  -21.1620   17.1110 C   0  0  0  0  0  2  0  0  0  0  0  0
  -32.2630  -19.8170   17.0250 O   0  0  0  0  0  0  0  0  0  0  0  0
  -32.0600  -19.3670   15.6940 C   0  0  0  0  0  2  0  0  0  0  0  0
  -31.8000  -17.8570   15.7470 C   0  0  0  0  0  2  0  0  0  0  0  0
  -32.9980  -17.2270   16.1800 O   0  0  0  0  0  0  0  0  0  0  0  0
  -32.8500  -15.8370   16.4320 C   0  0  0  0  0  2  0  0  0  0  0  0
  -34.1470  -15.3300   17.0720 C   0  0  0  0  0  2  0  0  0  0  0  0
  -34.2600  -15.8980   18.3690 O   0  0  0  0  0  0  0  0  0  0  0  0
  -35.4580  -15.5300   19.0340 C   0  0  0  0  0  2  0  0  0  0  0  0
  -35.4200  -16.0680   20.4710 C   0  0  0  0  0  2  0  0  0  0  0  0
  -35.5640  -17.4840   20.4640 O   0  0  0  0  0  0  0  0  0  0  0  0
  -35.6050  -18.0250   21.7760 C   0  0  0  0  0  2  0  0  0  0  0  0
  -35.6860  -19.5560   21.6980 C   0  0  0  0  0  2  0  0  0  0  0  0
  -35.9020  -20.2360   23.0660 C   0  0  0  0  0  2  0  0  0  0  0  0
  -33.6470  -20.5560   24.0690 C   0  0  0  0  0  0  0  0  0  0  0  0
  -34.8300  -19.9340   24.0090 N   0  0  0  0  0  0  0  0  0  0  0  0
  -33.3780  -21.5450   23.3860 O   0  0  0  0  0  0  0  0  0  0  0  0
  -34.9770  -19.1570   24.6390 H   0  0  0  0  0  0  0  0  0  0  0  0
  -32.6140  -19.9790   25.0380 C   0  0  0  0  0  2  0  0  0  0  0  0
  -32.2160  -18.5190   24.7250 C   0  0  0  0  0  2  0  0  0  0  0  0
  -31.5430  -18.3160   23.3550 C   0  0  0  0  0  2  0  0  0  0  0  0
  -31.1510  -16.8520   23.1020 C   0  0  0  0  0  2  0  0  0  0  0  0
  -30.5540  -16.6490   21.7010 C   0  0  0  0  0  2  0  0  0  0  0  0
  -30.7370  -14.3860   20.6530 C   0  0  0  0  0  0  0  0  0  0  0  0
  -30.4220  -12.2880   19.3980 C   0  0  0  0  0  2  0  0  0  0  0  0
  -29.4890  -12.5260   18.1940 C   0  0  0  0  0  2  0  0  0  0  0  0
  -28.0100  -12.3850   18.6080 C   0  0  0  0  0  2  0  0  0  0  0  0
  -27.6670  -13.2020   19.8820 C   0  0  0  0  0  3  0  0  0  0  0  0
  -28.7050  -12.9320   20.9950 C   0  0  0  0  0  2  0  0  0  0  0  0
  -30.0460  -13.2340   20.4580 N   0  0  0  0  0  0  0  0  0  0  0  0
  -31.7960  -14.6460   20.0790 O   0  0  0  0  0  0  0  0  0  0  0  0
  -30.1500  -15.2620   21.4800 N   0  0  0  0  0  0  0  0  0  0  0  0
  -29.2860  -14.9590   21.9070 H   0  0  0  0  0  0  0  0  0  0  0  0
  -25.2610  -13.8150   20.5680 C   0  0  0  0  0  0  0  0  0  0  0  0
  -24.1850  -13.0430   20.9160 C   0  0  0  0  0  0  0  0  0  0  0  0
  -24.6390  -11.6900   20.8720 C   0  0  0  0  0  0  0  0  0  0  0  0
  -26.3050  -12.9310   20.3390 N   0  0  0  0  0  0  0  0  0  0  0  0
  -25.9320  -11.6480   20.5760 N   0  0  0  0  0  0  0  0  0  0  0  0
  -23.9070  -10.4290   21.0400 C   0  0  0  0  0  0  0  0  0  0  0  0
  -24.3620   -9.4200   21.9180 C   0  0  0  0  0  3  0  0  0  0  0  0
  -23.6290   -8.2240   22.0760 C   0  0  0  0  0  3  0  0  0  0  0  0
  -22.4270   -8.0280   21.3550 C   0  0  0  0  0  0  0  0  0  0  0  0
  -21.9910   -9.0250   20.4650 C   0  0  0  0  0  3  0  0  0  0  0  0
  -22.7240  -10.2120   20.3050 C   0  0  0  0  0  3  0  0  0  0  0  0
  -21.6640   -6.8880   21.4240 O   0  0  0  0  0  0  0  0  0  0  0  0
  -21.6850   -6.0740   22.5280 C   0  0  0  0  0  0  0  0  0  0  0  0
  -21.4010   -6.5640   23.8210 C   0  0  0  0  0  3  0  0  0  0  0  0
  -21.3660   -5.6790   24.9170 C   0  0  0  0  0  3  0  0  0  0  0  0
  -21.6050   -4.3060   24.7220 C   0  0  0  0  0  0  0  0  0  0  0  0
  -21.8820   -3.8140   23.4340 C   0  0  0  0  0  3  0  0  0  0  0  0
  -21.9190   -4.6970   22.3400 C   0  0  0  0  0  0  0  0  0  0  0  0
  -22.1660   -4.2150   21.0980 F   0  0  0  0  0  0  0  0  0  0  0  0
  -21.5630   -3.4540   25.7740 F   0  0  0  0  0  0  0  0  0  0  0  0
  -22.7870  -13.5240   21.1830 C   0  0  0  0  0  0  0  0  0  0  0  0
  -22.0520  -12.8230   22.0390 N   0  0  0  0  0  0  0  0  0  0  0  0
  -22.3550  -14.5550   20.6690 O   0  0  0  0  0  0  0  0  0  0  0  0
  -22.4120  -11.9870   22.4760 H   0  0  0  0  0  0  0  0  0  0  0  0
  -21.1140  -13.1260   22.2610 H   0  0  0  0  0  0  0  0  0  0  0  0
  -25.4340  -15.1870   20.4090 N   0  0  0  0  0  0  0  0  0  0  0  0
  -24.6700  -15.8460   20.5190 H   0  0  0  0  0  0  0  0  0  0  0  0
  -26.2950  -15.6260   20.1080 H   0  0  0  0  0  0  0  0  0  0  0  0
  1  2  1  0
  1  3  2  0
  2  5  1  0
  4  2  1  0
  5  6  1  0
  6  7  1  0
  7  9  1  0
  7 10  1  0
  8  6  2  0
 10 11  1  0
 12 13  1  0
 12 11  1  0
 14 13  1  0
 15 14  1  0
 16 15  1  0
 17 16  1  0
 18 17  1  0
 19 18  1  0
 20 19  1  0
 20 21  1  0
 21 22  1  0
 22 23  1  0
 23 24  1  0
 24 26  1  0
 25 36  2  0
 26 31  1  0
 27 35  1  0
 27 37  1  0
 28 34  1  0
 28 30  1  0
 29 35  1  0
 30 29  1  0
 31 30  2  0
 32 33  1  0
 32 26  2  0
 33 28  2  0
 34 27  1  0
 35 25  1  0
 37 39  2  0
 38 37  1  0
 40 38  1  0
 41 50  2  0
 41 46  1  0
 42 38  1  0
 42 46  1  0
 43 42  1  0
 44 45  1  0
 44 43  1  0
 45 41  1  0
 46 47  2  0
 47 48  1  0
 49 48  2  0
 50 49  1  0
 51 25  1  0
 51 56  1  0
 51 52  1  0
 52 55  1  1
 52 53  1  0
 54 52  1  0
 56 59  1  0
 57 61  1  0
 57 56  1  0
 58 57  2  0
 61 60  1  0
 63 61  1  0
 63 64  1  0
 63 62  1  0
 65  1  1  0
 66 65  1  0
 67 68  1  0
 67 66  1  0
 68 69  1  0
 69 70  1  0
 70 71  1  0
 71 72  1  0
 72 73  1  0
 73 74  1  0
 75 74  1  0
 75 76  1  0
 77 76  1  0
 77 78  1  0
 78 80  1  0
 79 83  1  0
 80 79  1  0
 80 82  1  0
 81 79  2  0
 84 83  1  0
 85 84  1  0
 86 85  1  0
 87 86  1  0
 88 96  1  0
 89 94  1  0
 90 91  1  0
 90 89  1  0
 92 91  1  0
 92101  1  0
 92 93  1  0
 94 88  1  0
 94 93  1  0
 95 88  2  0
 96 87  1  0
 96 97  1  0
 98 99  2  0
 99118  1  0
100 99  1  0
100103  1  0
101 98  1  0
101102  1  0
102100  2  0
103104  1  0
104105  2  0
106109  1  0
106105  1  0
107106  2  0
108107  1  0
108103  2  0
109110  1  0
110111  1  0
111112  2  0
113112  1  0
113117  1  0
114113  2  0
115110  2  0
115114  1  0
116115  1  0
118119  1  0
119122  1  0
119121  1  0
120118  2  0
123124  1  0
123 98  1  0
125123  1  0
M  ISO  4  23 101  24 101  88 100  96 100
M  END
>  <TORSDO>  (76) 
F 52

>  <SCORE>  (76) 
3.202

>  <name>  (76) 
80

>  <ligand_id>  (76) 
80

>  <original_smiles>  (76) 
[H]c1c([H])c([H])c2c(c1[H])C([H])([H])C([H])([H])C([H])([H])C2([H])N([H])C(=O)C1([H])N(C(=O)C([H])(N([H])C(=O)C([H])(N([H])C([H])([H])[H])C([H])([H])[H])C(C([H])([H])[H])(C([H])([H])[H])C([H])([H])[H])C([H])([H])c2c([H])c(OC([H])([H])C([H])([H])OC([H])([H])C([H])([H])OC([H])([H])C([H])([H])OC([H])([H])C([H])([H])OC([H])([H])C([H])([H])N([H])C(=O)C([H])([H])N([H])C(=O)C([H])([H])OC([H])([H])C([H])([H])OC([H])([H])C([H])([H])OC([H])([H])C([H])([H])OC([H])([H])C([H])([H])C([H])([H])N([H])C(=O)C([H])([H])C([H])([H])C([H])([H])C([H])([H])C([H])([H])N([H])C(=O)N3C([H])([H])C([H])([H])C([H])([H])C([H])(n4nc(-c5c([H])c([H])c(Oc6c([H])c([H])c(F)c([H])c6F)c([H])c5[H])c(C(=O)N([H])[H])c4N([H])[H])C3([H])[H])c([H])c([H])c2C1([H])[H]

>  <smiles>  (76) 
[H]c1c([H])c([H])c2c(c1[H])C([H])([H])C([H])([H])C([H])([H])C2([H])N([H])C(=O)C1([H])N(C(=O)C([H])(N([H])C(=O)C([H])(N([H])C([H])([H])[H])C([H])([H])[H])C(C([H])([H])[H])(C([H])([H])[H])C([H])([H])[H])C([H])([H])c2c([H])c(OC([H])([H])C([H])([H])OC([H])([H])C([H])([H])OC([H])([H])C([H])([H])OC([H])([H])C([H])([H])OC([H])([H])C([H])([H])N([H])C(=O)C([H])([H])N([H])C(=O)C([H])([H])OC([H])([H])C([H])([H])OC([H])([H])C([H])([H])OC([H])([H])C([H])([H])OC([H])([H])C([H])([H])C([H])([H])N([H])C(=O)C([H])([H])C([H])([H])C([H])([H])C([H])([H])C([H])([H])N([H])C(=O)N3C([H])([H])C([H])([H])C([H])([H])C([H])(n4nc(-c5c([H])c([H])c(Oc6c([H])c([H])c(F)c([H])c6F)c([H])c5[H])c(C(=O)N([H])[H])c4N([H])[H])C3([H])[H])c([H])c([H])c2C1([H])[H]

$$$$
81:0:0
     RDKit          3D

108115  0  0  1  0  0  0  0  0999 V2000
  -23.8300  -23.1300   15.5640 C   0  0  0  0  0  2  0  0  0  0  0  0
  -23.9670  -22.1670   16.5970 O   0  0  0  0  0  0  0  0  0  0  0  0
  -24.6070  -20.9710   16.1870 C   0  0  0  0  0  2  0  0  0  0  0  0
  -24.8420  -20.1300   17.4450 C   0  0  0  0  0  2  0  0  0  0  0  0
  -26.0470  -20.5690   18.0510 O   0  0  0  0  0  0  0  0  0  0  0  0
  -26.3150  -19.9360   19.2920 C   0  0  0  0  0  2  0  0  0  0  0  0
  -27.7450  -20.3030   19.6980 C   0  0  0  0  0  2  0  0  0  0  0  0
  -29.9830  -19.8700   18.7350 C   0  0  0  0  0  0  0  0  0  0  0  0
  -28.6910  -19.5700   18.8700 N   0  0  0  0  0  0  0  0  0  0  0  0
  -30.5150  -20.8200   19.3070 O   0  0  0  0  0  0  0  0  0  0  0  0
  -28.3510  -18.7380   18.4110 H   0  0  0  0  0  0  0  0  0  0  0  0
  -30.8340  -18.9320   17.8740 C   0  0  0  0  0  2  0  0  0  0  0  0
  -31.1690  -16.9050   19.2400 C   0  0  0  0  0  0  0  0  0  0  0  0
  -31.6160  -18.0590   18.7430 N   0  0  0  0  0  0  0  0  0  0  0  0
  -30.0870  -16.4150   18.9020 O   0  0  0  0  0  0  0  0  0  0  0  0
  -32.4990  -18.4190   19.0780 H   0  0  0  0  0  0  0  0  0  0  0  0
  -32.0520  -16.2230   20.2900 C   0  0  0  0  0  2  0  0  0  0  0  0
  -32.0170  -13.7850   19.9010 C   0  0  0  0  0  0  0  0  0  0  0  0
  -31.5180  -11.4440   19.3220 C   0  0  0  0  0  2  0  0  0  0  0  0
  -30.5580  -11.3900   18.1190 C   0  0  0  0  0  2  0  0  0  0  0  0
  -29.0890  -11.4690   18.5790 C   0  0  0  0  0  2  0  0  0  0  0  0
  -28.8420  -12.6370   19.5720 C   0  0  0  0  0  3  0  0  0  0  0  0
  -29.9100  -12.6440   20.6910 C   0  0  0  0  0  2  0  0  0  0  0  0
  -31.2470  -12.6800   20.0650 N   0  0  0  0  0  0  0  0  0  0  0  0
  -33.0270  -13.8210   19.1900 O   0  0  0  0  0  0  0  0  0  0  0  0
  -31.5960  -14.8630   20.5640 N   0  0  0  0  0  0  0  0  0  0  0  0
  -30.7730  -14.7540   21.1350 H   0  0  0  0  0  0  0  0  0  0  0  0
  -26.6400  -13.6380   20.4650 C   0  0  0  0  0  0  0  0  0  0  0  0
  -25.4640  -13.0590   20.8590 C   0  0  0  0  0  0  0  0  0  0  0  0
  -25.6550  -11.6490   20.7220 C   0  0  0  0  0  0  0  0  0  0  0  0
  -27.4840  -12.5940   20.1200 N   0  0  0  0  0  0  0  0  0  0  0  0
  -26.8940  -11.3880   20.3240 N   0  0  0  0  0  0  0  0  0  0  0  0
  -24.7130  -10.5370   20.8890 C   0  0  0  0  0  0  0  0  0  0  0  0
  -24.9550   -9.4940   21.8110 C   0  0  0  0  0  3  0  0  0  0  0  0
  -24.0250   -8.4420   21.9640 C   0  0  0  0  0  3  0  0  0  0  0  0
  -22.8360   -8.4300   21.1970 C   0  0  0  0  0  0  0  0  0  0  0  0
  -22.6120   -9.4560   20.2630 C   0  0  0  0  0  3  0  0  0  0  0  0
  -23.5410  -10.4980   20.1060 C   0  0  0  0  0  3  0  0  0  0  0  0
  -21.8850   -7.4410   21.2640 O   0  0  0  0  0  0  0  0  0  0  0  0
  -21.6250   -6.7700   22.4300 C   0  0  0  0  0  0  0  0  0  0  0  0
  -21.1680   -7.4360   23.5890 C   0  0  0  0  0  3  0  0  0  0  0  0
  -20.8490   -6.6960   24.7460 C   0  0  0  0  0  3  0  0  0  0  0  0
  -20.9710   -5.2940   24.7410 C   0  0  0  0  0  0  0  0  0  0  0  0
  -21.4160   -4.6290   23.5860 C   0  0  0  0  0  3  0  0  0  0  0  0
  -21.7380   -5.3650   22.4320 C   0  0  0  0  0  0  0  0  0  0  0  0
  -22.1490   -4.7170   21.3150 F   0  0  0  0  0  0  0  0  0  0  0  0
  -20.6540   -4.5830   25.8490 F   0  0  0  0  0  0  0  0  0  0  0  0
  -24.2040  -13.7690   21.2570 C   0  0  0  0  0  0  0  0  0  0  0  0
  -23.4200  -13.1770   22.1520 N   0  0  0  0  0  0  0  0  0  0  0  0
  -23.9300  -14.8820   20.8110 O   0  0  0  0  0  0  0  0  0  0  0  0
  -23.6520  -12.2700   22.5310 H   0  0  0  0  0  0  0  0  0  0  0  0
  -22.5740  -13.6350   22.4590 H   0  0  0  0  0  0  0  0  0  0  0  0
  -27.0540  -14.9620   20.3550 N   0  0  0  0  0  0  0  0  0  0  0  0
  -26.4290  -15.7350   20.5500 H   0  0  0  0  0  0  0  0  0  0  0  0
  -27.9680  -15.2510   20.0270 H   0  0  0  0  0  0  0  0  0  0  0  0
  -22.8710  -24.2010   16.0940 C   0  0  0  0  0  2  0  0  0  0  0  0
  -23.5470  -25.0250   17.0330 O   0  0  0  0  0  0  0  0  0  0  0  0
  -22.6720  -25.7240   17.9110 C   0  0  0  0  0  2  0  0  0  0  0  0
  -22.7450  -25.0750   19.3030 C   0  0  0  0  0  2  0  0  0  0  0  0
  -24.1000  -24.9910   19.7480 O   0  0  0  0  0  0  0  0  0  0  0  0
  -24.2150  -24.3530   21.0210 C   0  0  0  0  0  2  0  0  0  0  0  0
  -25.6890  -24.0770   21.3800 C   0  0  0  0  0  0  0  0  0  0  0  0
  -26.6180  -24.9560   20.9800 N   0  0  0  0  0  0  0  0  0  0  0  0
  -25.9810  -23.0730   22.0280 O   0  0  0  0  0  0  0  0  0  0  0  0
  -26.2860  -25.7450   20.4380 H   0  0  0  0  0  0  0  0  0  0  0  0
  -28.0660  -24.8720   21.1860 C   0  0  0  0  0  2  0  0  0  0  0  0
  -28.7420  -26.2620   21.2720 C   0  0  0  0  0  2  0  0  0  0  0  0
  -28.6320  -27.0480   20.0750 O   0  0  0  0  0  0  0  0  0  0  0  0
  -24.6370  -31.8520   23.4570 C   0  0  0  0  0  0  0  0  0  0  0  0
  -27.4990  -27.8150   20.0570 C   0  0  0  0  0  0  0  0  0  0  0  0
  -23.5190  -30.5700   21.6620 C   0  0  0  0  0  3  0  0  0  0  0  0
  -25.0650  -29.2330   20.1380 C   0  0  0  0  0  0  0  0  0  0  0  0
  -26.0360  -31.0270   21.5740 C   0  0  0  0  0  2  0  0  0  0  0  0
  -26.1830  -29.7260   20.8190 C   0  0  0  0  0  0  0  0  0  0  0  0
  -27.4070  -29.0160   20.7950 C   0  0  0  0  0  3  0  0  0  0  0  0
  -26.3910  -27.3730   19.3110 C   0  0  0  0  0  3  0  0  0  0  0  0
  -25.1680  -28.0580   19.3830 C   0  0  0  0  0  3  0  0  0  0  0  0
  -23.7870  -30.0310   20.2330 C   0  0  0  0  0  2  0  0  0  0  0  0
  -24.7460  -31.1550   22.2920 N   0  0  0  0  0  0  0  0  0  0  0  0
  -23.5360  -32.0410   23.9900 O   0  0  0  0  0  0  0  0  0  0  0  0
  -22.8760  -29.4460   22.5020 C   0  0  0  0  0  0  0  0  0  0  0  0
  -21.5630  -29.2360   22.3120 N   0  0  0  0  0  0  0  0  0  0  0  0
  -23.5550  -28.7680   23.2790 O   0  0  0  0  0  0  0  0  0  0  0  0
  -21.0690  -29.8450   21.6740 H   0  0  0  0  0  0  0  0  0  0  0  0
  -18.2210  -27.8950   22.5740 C   0  0  0  0  0  0  0  0  0  0  0  0
  -20.7570  -28.2050   22.9600 C   0  0  0  0  0  3  0  0  0  0  0  0
  -20.9340  -26.8350   22.2580 C   0  0  0  0  0  2  0  0  0  0  0  0
  -19.8720  -26.5620   21.1890 C   0  0  0  0  0  2  0  0  0  0  0  0
  -18.4700  -26.6130   21.7990 C   0  0  0  0  0  2  0  0  0  0  0  0
  -19.2970  -28.6500   23.1080 C   0  0  0  0  0  0  0  0  0  0  0  0
  -19.0160  -29.8530   23.7920 C   0  0  0  0  0  3  0  0  0  0  0  0
  -17.6890  -30.2960   23.9520 C   0  0  0  0  0  3  0  0  0  0  0  0
  -16.6270  -29.5330   23.4360 C   0  0  0  0  0  3  0  0  0  0  0  0
  -16.8920  -28.3350   22.7480 C   0  0  0  0  0  3  0  0  0  0  0  0
  -25.8890  -32.4560   24.1640 C   0  0  0  0  0  3  0  0  0  0  0  0
  -26.2550  -31.7190   25.5080 C   0  0  1  0  0  0  0  0  0  0  0  0
  -25.0590  -31.5600   26.4740 C   0  0  0  0  0  1  0  0  0  0  0  0
  -26.8250  -30.3130   25.2150 C   0  0  0  0  0  1  0  0  0  0  0  0
  -27.3710  -32.5000   26.2420 C   0  0  0  0  0  1  0  0  0  0  0  0
  -25.6150  -33.8780   24.4020 N   0  0  0  0  0  0  0  0  0  0  0  0
  -26.0550  -34.8730   23.6210 C   0  0  0  0  0  0  0  0  0  0  0  0
  -26.8000  -34.6880   22.6560 O   0  0  0  0  0  0  0  0  0  0  0  0
  -24.9720  -34.0990   25.1490 H   0  0  0  0  0  0  0  0  0  0  0  0
  -24.4440  -36.7110   23.0300 C   0  0  0  0  0  1  0  0  0  0  0  0
  -25.5930  -36.3030   23.9660 C   0  0  0  0  0  3  0  0  0  0  0  0
  -27.6820  -37.1490   24.9460 C   0  0  0  0  0  1  0  0  0  0  0  0
  -26.6780  -37.3070   23.8960 N   0  0  0  0  0  0  0  0  0  0  0  0
  -26.2970  -38.2470   23.9650 H   0  0  0  0  0  0  0  0  0  0  0  0
  1 56  1  0
  1  2  1  0
  3  2  1  0
  3  4  1  0
  4  5  1  0
  5  6  1  0
  6  7  1  0
  8  9  1  0
  8 10  2  0
  9  7  1  0
 11  9  1  0
 12  8  1  0
 12 14  1  0
 13 17  1  0
 14 16  1  0
 14 13  1  0
 15 13  2  0
 17 26  1  0
 18 24  1  0
 18 26  1  0
 19 24  1  0
 20 21  1  0
 20 19  1  0
 22 21  1  0
 22 31  1  0
 22 23  1  0
 24 23  1  0
 25 18  2  0
 26 27  1  0
 28 29  2  0
 29 48  1  0
 30 29  1  0
 30 33  1  0
 31 32  1  0
 31 28  1  0
 32 30  2  0
 33 34  1  0
 34 35  2  0
 36 39  1  0
 36 35  1  0
 37 36  2  0
 38 37  1  0
 38 33  2  0
 39 40  1  0
 40 45  2  0
 40 41  1  0
 41 42  2  0
 43 42  1  0
 43 47  1  0
 44 43  2  0
 45 44  1  0
 46 45  1  0
 48 49  1  0
 49 52  1  0
 49 51  1  0
 50 48  2  0
 53 28  1  0
 53 54  1  0
 55 53  1  0
 56 57  1  0
 57 58  1  0
 58 59  1  0
 59 60  1  0
 60 61  1  0
 61 62  1  0
 62 64  2  0
 63 66  1  0
 63 62  1  0
 65 63  1  0
 66 67  1  0
 68 67  1  0
 69 80  2  0
 70 68  1  0
 70 75  1  0
 71 79  1  0
 71 81  1  0
 72 78  1  0
 72 74  1  0
 73 79  1  0
 74 73  1  0
 75 74  2  0
 76 77  1  0
 76 70  2  0
 77 72  2  0
 78 71  1  0
 79 69  1  0
 81 83  2  0
 82 81  1  0
 84 82  1  0
 85 94  2  0
 85 90  1  0
 86 82  1  0
 86 90  1  0
 87 86  1  0
 88 89  1  0
 88 87  1  0
 89 85  1  0
 90 91  2  0
 91 92  1  0
 93 92  2  0
 94 93  1  0
 95 69  1  0
 95100  1  0
 95 96  1  0
 96 99  1  1
 96 97  1  0
 98 96  1  0
100103  1  0
101105  1  0
101100  1  0
102101  2  0
105104  1  0
107108  1  0
107105  1  0
107106  1  0
M  ISO  4  18 100  26 100  67 101  68 101
M  END
>  <TORSDO>  (77) 
F 35

>  <SCORE>  (77) 
-8.184

>  <name>  (77) 
81

>  <ligand_id>  (77) 
81

>  <original_smiles>  (77) 
[H]c1c([H])c([H])c2c(c1[H])C([H])([H])C([H])([H])C([H])([H])C2([H])N([H])C(=O)C1([H])N(C(=O)C([H])(N([H])C(=O)C([H])(N([H])C([H])([H])[H])C([H])([H])[H])C(C([H])([H])[H])(C([H])([H])[H])C([H])([H])[H])C([H])([H])c2c([H])c(OC([H])([H])C([H])([H])N([H])C(=O)C([H])([H])OC([H])([H])C([H])([H])OC([H])([H])C([H])([H])OC([H])([H])C([H])([H])OC([H])([H])C([H])([H])N([H])C(=O)C([H])([H])N([H])C(=O)C([H])([H])N([H])C(=O)N3C([H])([H])C([H])([H])C([H])([H])C([H])(n4nc(-c5c([H])c([H])c(Oc6c([H])c([H])c(F)c([H])c6F)c([H])c5[H])c(C(=O)N([H])[H])c4N([H])[H])C3([H])[H])c([H])c([H])c2C1([H])[H]

>  <smiles>  (77) 
[H]c1c([H])c([H])c2c(c1[H])C([H])([H])C([H])([H])C([H])([H])C2([H])N([H])C(=O)C1([H])N(C(=O)C([H])(N([H])C(=O)C([H])(N([H])C([H])([H])[H])C([H])([H])[H])C(C([H])([H])[H])(C([H])([H])[H])C([H])([H])[H])C([H])([H])c2c([H])c(OC([H])([H])C([H])([H])N([H])C(=O)C([H])([H])OC([H])([H])C([H])([H])OC([H])([H])C([H])([H])OC([H])([H])C([H])([H])OC([H])([H])C([H])([H])N([H])C(=O)C([H])([H])N([H])C(=O)C([H])([H])N([H])C(=O)N3C([H])([H])C([H])([H])C([H])([H])C([H])(n4nc(-c5c([H])c([H])c(Oc6c([H])c([H])c(F)c([H])c6F)c([H])c5[H])c(C(=O)N([H])[H])c4N([H])[H])C3([H])[H])c([H])c([H])c2C1([H])[H]

$$$$
83:0:0
     RDKit          3D

105113  0  0  1  0  0  0  0  0999 V2000
  -28.4340  -21.3470   23.3880 O   0  0  0  0  0  0  0  0  0  0  0  0
  -29.4490  -21.3630   24.3810 C   0  0  0  0  0  2  0  0  0  0  0  0
  -30.7950  -21.0470   23.7220 C   0  0  0  0  0  2  0  0  0  0  0  0
  -30.9010  -21.8110   22.5270 O   0  0  0  0  0  0  0  0  0  0  0  0
  -32.2180  -21.8420   21.9980 C   0  0  0  0  0  2  0  0  0  0  0  0
  -32.1500  -22.2260   20.5150 C   0  0  0  0  0  2  0  0  0  0  0  0
  -31.5930  -23.5250   20.3630 O   0  0  0  0  0  0  0  0  0  0  0  0
  -31.4440  -23.8850   18.9940 C   0  0  0  0  0  2  0  0  0  0  0  0
  -31.0940  -25.3710   18.8790 C   0  0  0  0  0  2  0  0  0  0  0  0
  -29.7240  -25.5470   19.2140 O   0  0  0  0  0  0  0  0  0  0  0  0
  -29.2610  -26.8600   18.9310 C   0  0  0  0  0  2  0  0  0  0  0  0
  -27.7690  -26.9680   19.2690 C   0  0  0  0  0  2  0  0  0  0  0  0
  -27.1840  -27.9450   18.4220 O   0  0  0  0  0  0  0  0  0  0  0  0
  -24.9080  -31.6250   24.0770 C   0  0  0  0  0  0  0  0  0  0  0  0
  -26.1940  -28.6820   19.0100 C   0  0  0  0  0  0  0  0  0  0  0  0
  -23.2360  -31.2140   22.3010 C   0  0  0  0  0  3  0  0  0  0  0  0
  -24.1530  -30.2750   20.1150 C   0  0  0  0  0  0  0  0  0  0  0  0
  -25.7290  -31.3310   21.7460 C   0  0  0  0  0  2  0  0  0  0  0  0
  -25.4570  -30.3620   20.6160 C   0  0  0  0  0  0  0  0  0  0  0  0
  -26.4850  -29.5670   20.0690 C   0  0  0  0  0  3  0  0  0  0  0  0
  -24.8800  -28.5960   18.5120 C   0  0  0  0  0  3  0  0  0  0  0  0
  -23.8550  -29.3870   19.0650 C   0  0  0  0  0  3  0  0  0  0  0  0
  -23.1150  -31.1690   20.7530 C   0  0  0  0  0  2  0  0  0  0  0  0
  -24.6520  -31.3760   22.7630 N   0  0  0  0  0  0  0  0  0  0  0  0
  -23.9870  -31.7670   24.8930 O   0  0  0  0  0  0  0  0  0  0  0  0
  -22.5410  -29.9630   22.8840 C   0  0  0  0  0  0  0  0  0  0  0  0
  -21.2040  -29.9200   22.7740 N   0  0  0  0  0  0  0  0  0  0  0  0
  -23.1990  -29.0520   23.3910 O   0  0  0  0  0  0  0  0  0  0  0  0
  -20.7410  -30.7130   22.3510 H   0  0  0  0  0  0  0  0  0  0  0  0
  -17.8070  -28.6980   22.7110 C   0  0  0  0  0  0  0  0  0  0  0  0
  -20.3380  -28.8290   23.2140 C   0  0  0  0  0  3  0  0  0  0  0  0
  -20.4820  -27.5960   22.2930 C   0  0  0  0  0  2  0  0  0  0  0  0
  -19.4550  -27.5680   21.1570 C   0  0  0  0  0  2  0  0  0  0  0  0
  -18.0310  -27.5670   21.7200 C   0  0  0  0  0  2  0  0  0  0  0  0
  -18.8910  -29.3020   23.4000 C   0  0  0  0  0  0  0  0  0  0  0  0
  -18.6320  -30.3750   24.2800 C   0  0  0  0  0  3  0  0  0  0  0  0
  -17.3190  -30.8390   24.4810 C   0  0  0  0  0  3  0  0  0  0  0  0
  -16.2460  -30.2260   23.8100 C   0  0  0  0  0  3  0  0  0  0  0  0
  -16.4920  -29.1560   22.9300 C   0  0  0  0  0  3  0  0  0  0  0  0
  -26.3680  -31.7690   24.6140 C   0  0  0  0  0  3  0  0  0  0  0  0
  -26.3910  -32.9220   25.5240 N   0  0  0  0  0  0  0  0  0  0  0  0
  -26.9410  -34.1080   25.2310 C   0  0  0  0  0  0  0  0  0  0  0  0
  -27.5510  -34.3240   24.1790 O   0  0  0  0  0  0  0  0  0  0  0  0
  -25.8610  -32.8370   26.3780 H   0  0  0  0  0  0  0  0  0  0  0  0
  -25.7430  -36.2520   25.7790 C   0  0  0  0  0  1  0  0  0  0  0  0
  -26.7870  -35.2360   26.2690 C   0  0  0  0  0  3  0  0  0  0  0  0
  -29.0130  -35.1000   27.2960 C   0  0  0  0  0  1  0  0  0  0  0  0
  -28.0560  -35.9330   26.5720 N   0  0  0  0  0  0  0  0  0  0  0  0
  -27.8830  -36.7670   27.1240 H   0  0  0  0  0  0  0  0  0  0  0  0
  -26.8960  -30.4710   25.3420 C   0  0  1  0  0  0  0  0  0  0  0  0
  -25.9380  -29.9420   26.4340 C   0  0  0  0  0  1  0  0  0  0  0  0
  -27.1290  -29.3320   24.3220 C   0  0  0  0  0  1  0  0  0  0  0  0
  -28.2650  -30.7580   26.0030 C   0  0  0  0  0  1  0  0  0  0  0  0
  -27.8110  -22.6140   23.2190 C   0  0  0  0  0  2  0  0  0  0  0  0
  -27.1220  -22.6290   21.8500 C   0  0  0  0  0  2  0  0  0  0  0  0
  -28.1320  -22.4940   20.8600 O   0  0  0  0  0  0  0  0  0  0  0  0
  -27.6250  -22.5280   19.5360 C   0  0  0  0  0  2  0  0  0  0  0  0
  -28.7970  -22.3520   18.5620 C   0  0  0  0  0  2  0  0  0  0  0  0
  -29.2440  -21.0030   18.6630 O   0  0  0  0  0  0  0  0  0  0  0  0
  -29.7140  -20.4680   17.4340 C   0  0  0  0  0  2  0  0  0  0  0  0
  -30.8480  -19.4790   17.7690 C   0  0  0  0  0  2  0  0  0  0  0  0
  -30.6640  -14.3510   19.2250 C   0  0  0  0  0  0  0  0  0  0  0  0
  -30.3000  -12.0240   18.4860 C   0  0  0  0  0  2  0  0  0  0  0  0
  -29.1990  -11.9610   17.4100 C   0  0  0  0  0  2  0  0  0  0  0  0
  -27.8110  -11.8320   18.0630 C   0  0  0  0  0  2  0  0  0  0  0  0
  -27.5840  -12.8920   19.1680 C   0  0  0  0  0  3  0  0  0  0  0  0
  -28.7810  -12.9480   20.1460 C   0  0  0  0  0  2  0  0  0  0  0  0
  -30.0080  -13.1670   19.3620 N   0  0  0  0  0  0  0  0  0  0  0  0
  -31.6580  -14.4960   18.5080 O   0  0  0  0  0  0  0  0  0  0  0  0
  -30.9460  -17.5170   21.0540 C   0  0  0  0  0  2  0  0  0  0  0  0
  -30.8190  -15.9760   21.0400 C   0  0  0  0  0  2  0  0  0  0  0  0
  -29.1790  -16.2910   19.1710 C   0  0  0  0  0  2  0  0  0  0  0  0
  -31.4990  -18.1440   19.7570 C   0  0  0  0  0  2  0  0  0  0  0  0
  -29.8480  -17.2320   18.1460 C   0  0  0  0  0  2  0  0  0  0  0  0
  -30.1250  -15.4080   19.8740 N   0  0  0  0  0  0  0  0  0  0  0  0
  -30.4320  -18.4500   18.7660 N   0  0  2  0  0  4  0  0  0  0  0  0
  -29.6800  -18.9070   19.2640 H   0  0  0  0  0  0  0  0  0  0  0  0
  -25.4050  -13.6260   20.3210 C   0  0  0  0  0  0  0  0  0  0  0  0
  -24.3650  -12.9050   20.8440 C   0  0  0  0  0  0  0  0  0  0  0  0
  -24.7180  -11.5300   20.6790 C   0  0  0  0  0  0  0  0  0  0  0  0
  -26.3240  -12.6900   19.8720 N   0  0  0  0  0  0  0  0  0  0  0  0
  -25.9260  -11.4230   20.1450 N   0  0  0  0  0  0  0  0  0  0  0  0
  -23.9520  -10.3080   20.9460 C   0  0  0  0  0  0  0  0  0  0  0  0
  -24.4370   -9.3090   21.8170 C   0  0  0  0  0  3  0  0  0  0  0  0
  -23.6750   -8.1490   22.0700 C   0  0  0  0  0  3  0  0  0  0  0  0
  -22.4110   -7.9830   21.4530 C   0  0  0  0  0  0  0  0  0  0  0  0
  -21.9440   -8.9700   20.5690 C   0  0  0  0  0  3  0  0  0  0  0  0
  -22.7070  -10.1210   20.3140 C   0  0  0  0  0  3  0  0  0  0  0  0
  -21.6120   -6.8780   21.6180 O   0  0  0  0  0  0  0  0  0  0  0  0
  -21.5980   -6.1690   22.7930 C   0  0  0  0  0  0  0  0  0  0  0  0
  -21.2830   -6.7750   24.0280 C   0  0  0  0  0  3  0  0  0  0  0  0
  -21.2150   -5.9940   25.1990 C   0  0  0  0  0  3  0  0  0  0  0  0
  -21.4520   -4.6080   25.1360 C   0  0  0  0  0  0  0  0  0  0  0  0
  -21.7590   -4.0020   23.9050 C   0  0  0  0  0  3  0  0  0  0  0  0
  -21.8290   -4.7800   22.7380 C   0  0  0  0  0  0  0  0  0  0  0  0
  -22.1080   -4.1870   21.5510 F   0  0  0  0  0  0  0  0  0  0  0  0
  -21.3750   -3.8560   26.2580 F   0  0  0  0  0  0  0  0  0  0  0  0
  -23.0750  -13.4550   21.3780 C   0  0  0  0  0  0  0  0  0  0  0  0
  -22.4730  -12.7720   22.3450 N   0  0  0  0  0  0  0  0  0  0  0  0
  -22.6160  -14.5210   20.9730 O   0  0  0  0  0  0  0  0  0  0  0  0
  -22.8540  -11.9030   22.6870 H   0  0  0  0  0  0  0  0  0  0  0  0
  -21.6140  -13.1240   22.7440 H   0  0  0  0  0  0  0  0  0  0  0  0
  -25.6330  -14.9920   20.1670 N   0  0  0  0  0  0  0  0  0  0  0  0
  -24.9450  -15.6890   20.4310 H   0  0  0  0  0  0  0  0  0  0  0  0
  -26.4400  -15.3880   19.7030 H   0  0  0  0  0  0  0  0  0  0  0  0
  1  2  1  0
  3  2  1  0
  4  3  1  0
  5  4  1  0
  6  5  1  0
  7  6  1  0
  8  7  1  0
  9  8  1  0
  9 10  1  0
 11 10  1  0
 11 12  1  0
 13 15  1  0
 13 12  1  0
 14 25  2  0
 15 20  1  0
 16 24  1  0
 16 26  1  0
 17 19  1  0
 17 23  1  0
 18 24  1  0
 19 18  1  0
 20 19  2  0
 21 15  2  0
 21 22  1  0
 22 17  2  0
 23 16  1  0
 24 14  1  0
 26 28  2  0
 27 26  1  0
 29 27  1  0
 30 39  2  0
 30 35  1  0
 31 27  1  0
 31 35  1  0
 32 31  1  0
 33 34  1  0
 33 32  1  0
 34 30  1  0
 35 36  2  0
 36 37  1  0
 38 37  2  0
 39 38  1  0
 40 14  1  0
 40 50  1  0
 40 41  1  0
 41 44  1  0
 42 41  1  0
 42 46  1  0
 43 42  2  0
 46 45  1  0
 46 48  1  0
 48 49  1  0
 48 47  1  0
 50 53  1  1
 50 51  1  0
 52 50  1  0
 54  1  1  0
 55 54  1  0
 56 55  1  0
 57 56  1  0
 58 59  1  0
 58 57  1  0
 60 61  1  0
 60 59  1  0
 61 76  1  0
 62 68  1  0
 62 75  1  0
 63 68  1  0
 64 65  1  0
 64 63  1  0
 66 65  1  0
 66 81  1  0
 66 67  1  0
 68 67  1  0
 69 62  2  0
 71 70  1  0
 72 75  1  0
 73 70  1  0
 74 76  1  0
 74 72  1  0
 75 71  1  0
 76 77  1  1
 76 73  1  0
 78 79  2  0
 79 98  1  0
 80 79  1  0
 80 83  1  0
 81 82  1  0
 81 78  1  0
 82 80  2  0
 83 84  1  0
 84 85  2  0
 86 89  1  0
 86 85  1  0
 87 86  2  0
 88 87  1  0
 88 83  2  0
 89 90  1  0
 90 91  1  0
 91 92  2  0
 93 92  1  0
 93 97  1  0
 94 93  2  0
 95 90  2  0
 95 94  1  0
 96 95  1  0
 98 99  1  0
 99101  1  0
 99102  1  0
100 98  2  0
103 78  1  0
103104  1  0
105103  1  0
M  ISO  4  12 101  13 101  62 100  75 100
M  END
>  <TORSDO>  (78) 
F 35

>  <SCORE>  (78) 
-3.264

>  <name>  (78) 
83

>  <ligand_id>  (78) 
83

>  <original_smiles>  (78) 
[H]c1c([H])c([H])c2c(c1[H])C([H])([H])C([H])([H])C([H])([H])C2([H])N([H])C(=O)C1([H])N(C(=O)C([H])(N([H])C(=O)C([H])(N([H])C([H])([H])[H])C([H])([H])[H])C(C([H])([H])[H])(C([H])([H])[H])C([H])([H])[H])C([H])([H])c2c([H])c(OC([H])([H])C([H])([H])OC([H])([H])C([H])([H])OC([H])([H])C([H])([H])OC([H])([H])C([H])([H])OC([H])([H])C([H])([H])OC([H])([H])C([H])([H])OC([H])([H])C([H])([H])[N+]3([H])C([H])([H])C([H])([H])N(C(=O)N4C([H])([H])C([H])([H])C([H])([H])C([H])(n5nc(-c6c([H])c([H])c(Oc7c([H])c([H])c(F)c([H])c7F)c([H])c6[H])c(C(=O)N([H])[H])c5N([H])[H])C4([H])[H])C([H])([H])C([H])([H])C3([H])[H])c([H])c([H])c2C1([H])[H]

>  <smiles>  (78) 
[H]c1c([H])c([H])c2c(c1[H])C([H])([H])C([H])([H])C([H])([H])C2([H])N([H])C(=O)C1([H])N(C(=O)C([H])(N([H])C(=O)C([H])(N([H])C([H])([H])[H])C([H])([H])[H])C(C([H])([H])[H])(C([H])([H])[H])C([H])([H])[H])C([H])([H])c2c([H])c(OC([H])([H])C([H])([H])OC([H])([H])C([H])([H])OC([H])([H])C([H])([H])OC([H])([H])C([H])([H])OC([H])([H])C([H])([H])OC([H])([H])C([H])([H])OC([H])([H])C([H])([H])[N+]3([H])C([H])([H])C([H])([H])N(C(=O)N4C([H])([H])C([H])([H])C([H])([H])C([H])(n5nc(-c6c([H])c([H])c(Oc7c([H])c([H])c(F)c([H])c7F)c([H])c6[H])c(C(=O)N([H])[H])c5N([H])[H])C4([H])[H])C([H])([H])C([H])([H])C3([H])[H])c([H])c([H])c2C1([H])[H]

$$$$
84:0:0
     RDKit          3D

120127  0  0  1  0  0  0  0  0999 V2000
  -21.1850  -24.5060   21.2240 C   0  0  0  0  0  0  0  0  0  0  0  0
  -20.6940  -25.0480   20.1060 N   0  0  0  0  0  0  0  0  0  0  0  0
  -22.2260  -24.9070   21.7530 O   0  0  0  0  0  0  0  0  0  0  0  0
  -19.8100  -24.6990   19.7630 H   0  0  0  0  0  0  0  0  0  0  0  0
  -21.2520  -26.2010   19.4010 C   0  0  0  0  0  2  0  0  0  0  0  0
  -21.0840  -27.5040   20.1950 C   0  0  0  0  0  0  0  0  0  0  0  0
  -22.0550  -27.7980   21.0670 N   0  0  0  0  0  0  0  0  0  0  0  0
  -20.1150  -28.2420   19.9970 O   0  0  0  0  0  0  0  0  0  0  0  0
  -22.8020  -27.1240   21.1670 H   0  0  0  0  0  0  0  0  0  0  0  0
  -22.1660  -29.0210   21.8570 C   0  0  0  0  0  2  0  0  0  0  0  0
  -23.6300  -29.4810   21.9960 C   0  0  0  0  0  2  0  0  0  0  0  0
  -24.5790  -28.3460   22.4160 C   0  0  0  0  0  2  0  0  0  0  0  0
  -25.2860  -28.5810   23.7550 C   0  0  0  0  0  2  0  0  0  0  0  0
  -26.1670  -27.4900   24.0230 O   0  0  0  0  0  0  0  0  0  0  0  0
  -27.4280  -27.8490   24.5940 C   0  0  0  0  0  2  0  0  0  0  0  0
  -28.5600  -27.8260   23.5540 C   0  0  0  0  0  2  0  0  0  0  0  0
  -28.1250  -27.2950   22.3040 O   0  0  0  0  0  0  0  0  0  0  0  0
  -28.6690  -26.0010   22.0400 C   0  0  0  0  0  2  0  0  0  0  0  0
  -29.4420  -25.9540   20.7030 C   0  0  0  0  0  2  0  0  0  0  0  0
  -29.0600  -24.8670   19.8510 O   0  0  0  0  0  0  0  0  0  0  0  0
  -33.6840  -19.4780   20.5600 C   0  0  0  0  0  0  0  0  0  0  0  0
  -29.3480  -23.6310   20.3700 C   0  0  0  0  0  0  0  0  0  0  0  0
  -31.4160  -19.0970   21.4680 C   0  0  0  0  0  3  0  0  0  0  0  0
  -29.9150  -21.1460   21.5700 C   0  0  0  0  0  0  0  0  0  0  0  0
  -32.3780  -21.4600   21.3080 C   0  0  0  0  0  2  0  0  0  0  0  0
  -30.9620  -21.9580   21.1170 C   0  0  0  0  0  0  0  0  0  0  0  0
  -30.6840  -23.2020   20.5080 C   0  0  0  0  0  3  0  0  0  0  0  0
  -28.3000  -22.7820   20.7820 C   0  0  0  0  0  3  0  0  0  0  0  0
  -28.5810  -21.5490   21.3920 C   0  0  0  0  0  3  0  0  0  0  0  0
  -30.2910  -19.8390   22.2310 C   0  0  0  0  0  2  0  0  0  0  0  0
  -32.5350  -20.0070   21.0650 N   0  0  0  0  0  0  0  0  0  0  0  0
  -33.8370  -18.2540   20.4670 O   0  0  0  0  0  0  0  0  0  0  0  0
  -30.7830  -18.3370   20.2800 C   0  0  0  0  0  0  0  0  0  0  0  0
  -29.9420  -17.3370   20.5920 N   0  0  0  0  0  0  0  0  0  0  0  0
  -31.0240  -18.6650   19.1150 O   0  0  0  0  0  0  0  0  0  0  0  0
  -29.8030  -17.1270   21.5700 H   0  0  0  0  0  0  0  0  0  0  0  0
  -27.6570  -14.5500   20.3330 C   0  0  0  0  0  0  0  0  0  0  0  0
  -29.1980  -16.5060   19.6450 C   0  0  0  0  0  3  0  0  0  0  0  0
  -27.9120  -17.2190   19.1660 C   0  0  0  0  0  2  0  0  0  0  0  0
  -26.6790  -16.8600   20.0020 C   0  0  0  0  0  2  0  0  0  0  0  0
  -26.4210  -15.3510   19.9560 C   0  0  0  0  0  2  0  0  0  0  0  0
  -28.9600  -15.0970   20.2020 C   0  0  0  0  0  0  0  0  0  0  0  0
  -30.0710  -14.3240   20.5990 C   0  0  0  0  0  3  0  0  0  0  0  0
  -29.8970  -13.0270   21.1180 C   0  0  0  0  0  3  0  0  0  0  0  0
  -28.6070  -12.4830   21.2290 C   0  0  0  0  0  3  0  0  0  0  0  0
  -27.4900  -13.2420   20.8330 C   0  0  0  0  0  3  0  0  0  0  0  0
  -34.8670  -20.3840   20.0940 C   0  0  0  0  0  3  0  0  0  0  0  0
  -35.0890  -20.3580   18.5330 C   0  0  1  0  0  0  0  0  0  0  0  0
  -35.9270  -19.1540   18.0430 C   0  0  0  0  0  1  0  0  0  0  0  0
  -33.7310  -20.3200   17.7920 C   0  0  0  0  0  1  0  0  0  0  0  0
  -35.8020  -21.6550   18.0820 C   0  0  0  0  0  1  0  0  0  0  0  0
  -36.0720  -19.9350   20.8020 N   0  0  0  0  0  0  0  0  0  0  0  0
  -36.4660  -20.3960   21.9960 C   0  0  0  0  0  0  0  0  0  0  0  0
  -35.8800  -21.3070   22.5890 O   0  0  0  0  0  0  0  0  0  0  0  0
  -36.5670  -19.1510   20.4010 H   0  0  0  0  0  0  0  0  0  0  0  0
  -37.2620  -18.8080   23.7750 C   0  0  0  0  0  1  0  0  0  0  0  0
  -37.7050  -19.7410   22.6370 C   0  0  0  0  0  3  0  0  0  0  0  0
  -39.4380  -21.3910   22.0910 C   0  0  0  0  0  1  0  0  0  0  0  0
  -38.6880  -20.7190   23.1490 N   0  0  0  0  0  0  0  0  0  0  0  0
  -39.3520  -20.2710   23.7740 H   0  0  0  0  0  0  0  0  0  0  0  0
  -20.3860  -23.3440   21.8310 C   0  0  0  0  0  2  0  0  0  0  0  0
  -19.0030  -23.4720   21.5120 O   0  0  0  0  0  0  0  0  0  0  0  0
  -18.3310  -22.2190   21.4810 C   0  0  0  0  0  2  0  0  0  0  0  0
  -17.3610  -22.1300   22.6650 C   0  0  0  0  0  2  0  0  0  0  0  0
  -16.7390  -20.8540   22.6490 O   0  0  0  0  0  0  0  0  0  0  0  0
  -15.3390  -20.9140   22.4060 C   0  0  0  0  0  2  0  0  0  0  0  0
  -14.7260  -19.5610   22.7870 C   0  0  0  0  0  2  0  0  0  0  0  0
  -15.7260  -18.5560   22.6980 O   0  0  0  0  0  0  0  0  0  0  0  0
  -15.5120  -17.4910   23.6160 C   0  0  0  0  0  2  0  0  0  0  0  0
  -15.0110  -18.0650   24.9460 C   0  0  0  0  0  2  0  0  0  0  0  0
  -13.6370  -17.7410   25.1080 O   0  0  0  0  0  0  0  0  0  0  0  0
  -13.4250  -16.7310   26.0840 C   0  0  0  0  0  2  0  0  0  0  0  0
  -13.6690  -17.3180   27.4800 C   0  0  0  0  0  2  0  0  0  0  0  0
  -12.5110  -17.1230   28.2780 O   0  0  0  0  0  0  0  0  0  0  0  0
  -11.3070  -17.3410   27.5570 C   0  0  0  0  0  2  0  0  0  0  0  0
  -10.9000  -18.8120   27.6990 C   0  0  0  0  0  2  0  0  0  0  0  0
  -10.9980  -19.4480   26.4310 O   0  0  0  0  0  0  0  0  0  0  0  0
  -11.0780  -20.8620   26.5350 C   0  0  0  0  0  2  0  0  0  0  0  0
   -9.7210  -21.4720   26.1590 C   0  0  0  0  0  2  0  0  0  0  0  0
   -9.2950  -22.3580   27.1870 O   0  0  0  0  0  0  0  0  0  0  0  0
  -10.3880  -22.8860   27.9270 C   0  0  0  0  0  2  0  0  0  0  0  0
  -10.6760  -24.3220   27.4580 C   0  0  0  0  0  2  0  0  0  0  0  0
  -12.9880  -25.2230   27.2290 C   0  0  0  0  0  0  0  0  0  0  0  0
  -15.2610  -26.0390   26.7380 C   0  0  0  0  0  2  0  0  0  0  0  0
  -15.2260  -27.2120   25.7410 C   0  0  0  0  0  2  0  0  0  0  0  0
  -15.2170  -26.6970   24.2900 C   0  0  0  0  0  2  0  0  0  0  0  0
  -14.1460  -25.6000   24.0550 C   0  0  0  0  0  3  0  0  0  0  0  0
  -14.2280  -24.5140   25.1490 C   0  0  0  0  0  2  0  0  0  0  0  0
  -14.1080  -25.1710   26.4660 N   0  0  0  0  0  0  0  0  0  0  0  0
  -12.8810  -25.9250   28.2380 O   0  0  0  0  0  0  0  0  0  0  0  0
  -11.9850  -24.4400   26.8210 N   0  0  0  0  0  0  0  0  0  0  0  0
  -12.1390  -23.9010   25.9800 H   0  0  0  0  0  0  0  0  0  0  0  0
  -13.3300  -24.2890   21.9930 C   0  0  0  0  0  0  0  0  0  0  0  0
  -13.9040  -24.0530   20.7730 C   0  0  0  0  0  0  0  0  0  0  0  0
  -15.1870  -24.6810   20.8140 C   0  0  0  0  0  0  0  0  0  0  0  0
  -14.2580  -25.0240   22.7150 N   0  0  0  0  0  0  0  0  0  0  0  0
  -15.4010  -25.2120   22.0100 N   0  0  0  0  0  0  0  0  0  0  0  0
  -16.2000  -24.8550   19.7650 C   0  0  0  0  0  0  0  0  0  0  0  0
  -16.7610  -23.7490   19.0890 C   0  0  0  0  0  3  0  0  0  0  0  0
  -17.7210  -23.9430   18.0730 C   0  0  0  0  0  3  0  0  0  0  0  0
  -18.1260  -25.2520   17.7200 C   0  0  0  0  0  0  0  0  0  0  0  0
  -17.5820  -26.3480   18.4110 C   0  0  0  0  0  3  0  0  0  0  0  0
  -16.6310  -26.1540   19.4270 C   0  0  0  0  0  3  0  0  0  0  0  0
  -19.0710  -25.5350   16.7630 O   0  0  0  0  0  0  0  0  0  0  0  0
  -18.9000  -25.1710   15.4520 C   0  0  0  0  0  0  0  0  0  0  0  0
  -18.0160  -25.8630   14.5960 C   0  0  0  0  0  3  0  0  0  0  0  0
  -17.9210  -25.5000   13.2370 C   0  0  0  0  0  3  0  0  0  0  0  0
  -18.7150  -24.4530   12.7310 C   0  0  0  0  0  0  0  0  0  0  0  0
  -19.6010  -23.7660   13.5810 C   0  0  0  0  0  3  0  0  0  0  0  0
  -19.6950  -24.1270   14.9360 C   0  0  0  0  0  0  0  0  0  0  0  0
  -20.5640  -23.4760   15.7460 F   0  0  0  0  0  0  0  0  0  0  0  0
  -18.6310  -24.1090   11.4250 F   0  0  0  0  0  0  0  0  0  0  0  0
  -13.2640  -23.3700   19.6000 C   0  0  0  0  0  0  0  0  0  0  0  0
  -13.4490  -23.9090   18.4000 N   0  0  0  0  0  0  0  0  0  0  0  0
  -12.6270  -22.3270   19.7370 O   0  0  0  0  0  0  0  0  0  0  0  0
  -13.9800  -24.7600   18.2840 H   0  0  0  0  0  0  0  0  0  0  0  0
  -13.0340  -23.4710   17.5920 H   0  0  0  0  0  0  0  0  0  0  0  0
  -12.0960  -23.9570   22.5420 N   0  0  0  0  0  0  0  0  0  0  0  0
  -11.3960  -23.4390   22.0220 H   0  0  0  0  0  0  0  0  0  0  0  0
  -11.8060  -24.1870   23.4840 H   0  0  0  0  0  0  0  0  0  0  0  0
  1  3  2  0
  1 61  1  0
  2  1  1  0
  4  2  1  0
  5  2  1  0
  5  6  1  0
  6  7  1  0
  7  9  1  0
  7 10  1  0
  8  6  2  0
 10 11  1  0
 11 12  1  0
 12 13  1  0
 13 14  1  0
 14 15  1  0
 16 15  1  0
 17 16  1  0
 18 17  1  0
 19 18  1  0
 20 22  1  0
 20 19  1  0
 21 31  1  0
 22 27  2  0
 22 28  1  0
 23 33  1  0
 23 30  1  0
 24 30  1  0
 26 25  1  0
 26 24  2  0
 27 26  1  0
 28 29  2  0
 29 24  1  0
 31 25  1  0
 31 23  1  0
 32 21  2  0
 33 34  1  0
 34 36  1  0
 35 33  2  0
 37 46  1  0
 38 42  1  0
 38 34  1  0
 39 38  1  0
 39 40  1  0
 41 40  1  0
 41 37  1  0
 42 37  2  0
 42 43  1  0
 43 44  2  0
 44 45  1  0
 46 45  2  0
 47 21  1  0
 47 52  1  0
 48 47  1  0
 48 49  1  1
 50 48  1  0
 51 48  1  0
 52 53  1  0
 53 54  2  0
 53 57  1  0
 55 52  1  0
 57 59  1  0
 57 56  1  0
 58 59  1  0
 59 60  1  0
 62 61  1  0
 63 62  1  0
 63 64  1  0
 65 64  1  0
 66 65  1  0
 66 67  1  0
 68 67  1  0
 68 69  1  0
 69 70  1  0
 70 71  1  0
 71 72  1  0
 72 73  1  0
 73 74  1  0
 75 76  1  0
 75 74  1  0
 77 78  1  0
 77 76  1  0
 79 78  1  0
 79 80  1  0
 80 81  1  0
 82 81  1  0
 83 90  2  0
 85 84  1  0
 86 85  1  0
 87 96  1  0
 87 86  1  0
 87 88  1  0
 88 89  1  0
 89 84  1  0
 89 83  1  0
 91 83  1  0
 91 82  1  0
 92 91  1  0
 93118  1  0
 93 96  1  0
 94 95  1  0
 94 93  2  0
 95 97  2  0
 97 96  1  0
 98 95  1  0
 99 98  2  0
100 99  1  0
101100  2  0
101102  1  0
102103  2  0
103 98  1  0
104101  1  0
105104  1  0
106105  2  0
107106  1  0
108107  2  0
108109  1  0
109110  2  0
110105  1  0
110111  1  0
112108  1  0
113115  2  0
113 94  1  0
114113  1  0
116114  1  0
117114  1  0
118120  1  0
119118  1  0
M  ISO  4  19 101  20 101  83 100  91 100
M  END
>  <TORSDO>  (79) 
F 50

>  <SCORE>  (79) 
-5.004

>  <name>  (79) 
84

>  <ligand_id>  (79) 
84

>  <original_smiles>  (79) 
[H]c1c([H])c([H])c2c(c1[H])C([H])([H])C([H])([H])C([H])([H])C2([H])N([H])C(=O)C1([H])N(C(=O)C([H])(N([H])C(=O)C([H])(N([H])C([H])([H])[H])C([H])([H])[H])C(C([H])([H])[H])(C([H])([H])[H])C([H])([H])[H])C([H])([H])c2c([H])c(OC([H])([H])C([H])([H])OC([H])([H])C([H])([H])OC([H])([H])C([H])([H])C([H])([H])C([H])([H])N([H])C(=O)C([H])([H])N([H])C(=O)C([H])([H])OC([H])([H])C([H])([H])OC([H])([H])C([H])([H])OC([H])([H])C([H])([H])OC([H])([H])C([H])([H])OC([H])([H])C([H])([H])OC([H])([H])C([H])([H])OC([H])([H])C([H])([H])N([H])C(=O)N3C([H])([H])C([H])([H])C([H])([H])C([H])(n4nc(-c5c([H])c([H])c(Oc6c([H])c([H])c(F)c([H])c6F)c([H])c5[H])c(C(=O)N([H])[H])c4N([H])[H])C3([H])[H])c([H])c([H])c2C1([H])[H]

>  <smiles>  (79) 
[H]c1c([H])c([H])c2c(c1[H])C([H])([H])C([H])([H])C([H])([H])C2([H])N([H])C(=O)C1([H])N(C(=O)C([H])(N([H])C(=O)C([H])(N([H])C([H])([H])[H])C([H])([H])[H])C(C([H])([H])[H])(C([H])([H])[H])C([H])([H])[H])C([H])([H])c2c([H])c(OC([H])([H])C([H])([H])OC([H])([H])C([H])([H])OC([H])([H])C([H])([H])C([H])([H])C([H])([H])N([H])C(=O)C([H])([H])N([H])C(=O)C([H])([H])OC([H])([H])C([H])([H])OC([H])([H])C([H])([H])OC([H])([H])C([H])([H])OC([H])([H])C([H])([H])OC([H])([H])C([H])([H])OC([H])([H])C([H])([H])OC([H])([H])C([H])([H])N([H])C(=O)N3C([H])([H])C([H])([H])C([H])([H])C([H])(n4nc(-c5c([H])c([H])c(Oc6c([H])c([H])c(F)c([H])c6F)c([H])c5[H])c(C(=O)N([H])[H])c4N([H])[H])C3([H])[H])c([H])c([H])c2C1([H])[H]

$$$$
85:0:0
     RDKit          3D

117123  0  0  1  0  0  0  0  0999 V2000
  -19.4170  -13.8080   25.4440 C   0  0  0  0  0  2  0  0  0  0  0  0
  -18.4280  -14.9720   25.1580 C   0  0  0  0  0  0  0  0  0  0  0  0
  -18.6950  -16.1170   25.8140 N   0  0  0  0  0  0  0  0  0  0  0  0
  -17.4470  -14.8220   24.4250 O   0  0  0  0  0  0  0  0  0  0  0  0
  -19.5530  -16.1050   26.3510 H   0  0  0  0  0  0  0  0  0  0  0  0
  -17.8230  -17.2750   26.0800 C   0  0  0  0  0  2  0  0  0  0  0  0
  -17.3060  -18.0100   24.8150 C   0  0  0  0  0  3  0  0  0  0  0  0
  -17.0320  -19.5390   24.9990 C   0  0  0  0  0  3  0  0  0  0  0  0
  -16.5990  -20.3340   23.7240 C   0  0  0  0  0  3  0  0  0  0  0  0
  -17.6010  -21.4320   23.2330 C   0  0  0  0  0  3  0  0  0  0  0  0
  -17.2130  -22.2240   21.9540 C   0  0  0  0  0  0  0  0  0  0  0  0
  -18.1310  -22.3560   20.9680 N   0  0  0  0  0  0  0  0  0  0  0  0
  -16.1220  -22.7960   21.8980 O   0  0  0  0  0  0  0  0  0  0  0  0
  -18.9710  -21.7930   21.0520 H   0  0  0  0  0  0  0  0  0  0  0  0
  -18.1790  -23.4710   19.9950 C   0  0  0  0  0  2  0  0  0  0  0  0
  -18.4680  -23.0740   18.5110 C   0  0  0  0  0  2  0  0  0  0  0  0
  -19.2990  -24.1480   17.7400 C   0  0  0  0  0  2  0  0  0  0  0  0
  -19.0190  -24.3280   16.1990 C   0  0  0  0  0  2  0  0  0  0  0  0
  -19.4010  -25.6040   15.6090 O   0  0  0  0  0  0  0  0  0  0  0  0
  -24.4520  -26.2670   20.5080 C   0  0  0  0  0  0  0  0  0  0  0  0
  -20.0050  -26.4840   16.4800 C   0  0  0  0  0  0  0  0  0  0  0  0
  -22.5750  -27.8680   20.6430 C   0  0  0  0  0  3  0  0  0  0  0  0
  -21.0900  -28.0230   18.5740 C   0  0  0  0  0  0  0  0  0  0  0  0
  -23.3150  -26.9100   18.3920 C   0  0  0  0  0  2  0  0  0  0  0  0
  -21.8860  -27.0690   17.9220 C   0  0  0  0  0  0  0  0  0  0  0  0
  -21.3480  -26.2890   16.8770 C   0  0  0  0  0  3  0  0  0  0  0  0
  -19.2650  -27.5310   17.0570 C   0  0  0  0  0  3  0  0  0  0  0  0
  -19.7820  -28.2700   18.1350 C   0  0  0  0  0  3  0  0  0  0  0  0
  -21.7090  -28.7750   19.7290 C   0  0  0  0  0  2  0  0  0  0  0  0
  -23.4770  -26.9620   19.8620 N   0  0  0  0  0  0  0  0  0  0  0  0
  -24.6310  -26.4010   21.7270 O   0  0  0  0  0  0  0  0  0  0  0  0
  -21.6490  -27.1160   21.6250 C   0  0  0  0  0  0  0  0  0  0  0  0
  -20.5080  -27.7390   21.9600 N   0  0  0  0  0  0  0  0  0  0  0  0
  -21.9470  -25.9980   22.0510 O   0  0  0  0  0  0  0  0  0  0  0  0
  -20.3490  -28.6610   21.5770 H   0  0  0  0  0  0  0  0  0  0  0  0
  -17.0390  -28.1030   22.8930 C   0  0  0  0  0  0  0  0  0  0  0  0
  -19.4690  -27.2230   22.8470 C   0  0  0  0  0  3  0  0  0  0  0  0
  -18.8780  -25.9040   22.2960 C   0  0  0  0  0  2  0  0  0  0  0  0
  -17.6310  -26.1200   21.4320 C   0  0  0  0  0  2  0  0  0  0  0  0
  -16.5360  -26.8290   22.2360 C   0  0  0  0  0  2  0  0  0  0  0  0
  -18.4190  -28.2950   23.1640 C   0  0  0  0  0  0  0  0  0  0  0  0
  -18.8420  -29.5130   23.7440 C   0  0  0  0  0  3  0  0  0  0  0  0
  -17.9120  -30.5200   24.0580 C   0  0  0  0  0  3  0  0  0  0  0  0
  -16.5440  -30.3170   23.8080 C   0  0  0  0  0  3  0  0  0  0  0  0
  -16.1120  -29.1110   23.2280 C   0  0  0  0  0  3  0  0  0  0  0  0
  -25.4030  -25.2890   19.7510 C   0  0  0  0  0  3  0  0  0  0  0  0
  -26.7550  -25.4700   20.2990 N   0  0  0  0  0  0  0  0  0  0  0  0
  -27.7240  -26.1870   19.7140 C   0  0  0  0  0  0  0  0  0  0  0  0
  -27.5910  -26.7090   18.6040 O   0  0  0  0  0  0  0  0  0  0  0  0
  -26.9180  -25.1130   21.2300 H   0  0  0  0  0  0  0  0  0  0  0  0
  -29.1000  -27.7390   21.1360 C   0  0  0  0  0  1  0  0  0  0  0  0
  -29.0510  -26.3480   20.4820 C   0  0  0  0  0  3  0  0  0  0  0  0
  -30.4280  -24.7630   19.2100 C   0  0  0  0  0  1  0  0  0  0  0  0
  -30.2470  -26.1490   19.6350 N   0  0  0  0  0  0  0  0  0  0  0  0
  -31.0900  -26.4400   20.1240 H   0  0  0  0  0  0  0  0  0  0  0  0
  -24.9540  -23.7810   19.8630 C   0  0  1  0  0  0  0  0  0  0  0  0
  -24.6750  -23.3210   21.3140 C   0  0  0  0  0  1  0  0  0  0  0  0
  -23.6740  -23.5350   19.0330 C   0  0  0  0  0  1  0  0  0  0  0  0
  -26.0450  -22.8590   19.2680 C   0  0  0  0  0  1  0  0  0  0  0  0
  -19.2830  -12.6610   24.5830 O   0  0  0  0  0  0  0  0  0  0  0  0
  -19.9000  -12.6840   23.2900 C   0  0  0  0  0  2  0  0  0  0  0  0
  -21.4520  -12.4930   23.2870 C   0  0  0  0  0  2  0  0  0  0  0  0
  -22.2680  -13.6600   22.8210 N   0  0  0  0  0  4  0  0  0  0  0  0
  -22.9030  -13.8930   23.5740 H   0  0  0  0  0  0  0  0  0  0  0  0
  -21.6740  -14.4680   22.7000 H   0  0  0  0  0  0  0  0  0  0  0  0
  -23.0720  -13.3960   21.6000 C   0  0  0  0  0  2  0  0  0  0  0  0
  -23.7210  -14.6080   20.8900 C   0  0  0  0  0  2  0  0  0  0  0  0
  -25.1570  -14.4500   20.8620 O   0  0  0  0  0  0  0  0  0  0  0  0
  -25.8000  -14.9390   19.6640 C   0  0  0  0  0  2  0  0  0  0  0  0
  -27.0100  -15.9240   19.8720 C   0  0  0  0  0  2  0  0  0  0  0  0
  -28.1470  -15.6050   19.0290 O   0  0  0  0  0  0  0  0  0  0  0  0
  -29.4620  -16.0130   19.4790 C   0  0  0  0  0  2  0  0  0  0  0  0
  -30.7420  -15.5400   18.6270 C   0  0  0  0  0  2  0  0  0  0  0  0
  -31.5090  -14.3210   18.9650 O   0  0  0  0  0  0  0  0  0  0  0  0
  -31.5880  -13.0540   18.2000 C   0  0  0  0  0  2  0  0  0  0  0  0
  -31.8690  -11.6170   18.8940 C   0  0  0  0  0  2  0  0  0  0  0  0
  -30.9530  -10.8550   19.8420 O   0  0  0  0  0  1  0  0  0  0  0  0
  -31.1160  -10.2370   23.0610 C   0  0  0  0  0  1  0  0  0  0  0  0
  -32.6190   -9.8620   23.9370 C   0  0  0  0  0  2  0  0  0  0  0  0
  -34.6960   -7.9750   23.1570 C   0  0  0  0  0  0  0  0  0  0  0  0
  -34.1580   -6.1750   21.4610 C   0  0  0  0  0  2  0  0  0  0  0  0
  -33.9820   -6.8170   20.0380 C   0  0  0  0  0  2  0  0  0  0  0  0
  -32.8140   -7.8240   19.8770 C   0  0  0  0  0  2  0  0  0  0  0  0
  -32.8160   -8.6540   21.1250 C   0  0  0  0  0  3  0  0  0  0  0  0
  -32.5630   -7.6070   22.2560 C   0  0  0  0  0  2  0  0  0  0  0  0
  -33.8590   -7.1480   22.5140 N   0  0  0  0  0  0  0  0  0  0  0  0
  -35.9140   -7.6790   23.1310 O   0  0  0  0  0  0  0  0  0  0  0  0
  -34.0600   -9.1750   23.6230 N   0  0  0  0  0  0  0  0  0  0  0  0
  -34.7820   -9.7960   23.9580 H   0  0  0  0  0  0  0  0  0  0  0  0
  -31.7540  -11.3310   21.5230 C   0  0  0  0  0  0  0  0  0  0  0  0
  -30.1320  -11.6410   21.8620 C   0  0  0  0  0  0  0  0  0  0  0  0
  -29.2680  -10.1510   21.7520 C   0  0  0  0  0  0  0  0  0  0  0  0
  -31.8380   -9.5790   21.1670 N   0  0  0  0  0  0  0  0  0  0  0  0
  -30.2720   -8.9300   21.3580 N   0  0  0  0  0  0  0  0  0  0  0  0
  -27.8660   -9.8540   21.5860 C   0  0  0  0  0  0  0  0  0  0  0  0
  -27.2970   -8.8130   22.3320 C   0  0  0  0  0  3  0  0  0  0  0  0
  -25.9400   -8.5110   22.1870 C   0  0  0  0  0  3  0  0  0  0  0  0
  -25.1320   -9.2540   21.2980 C   0  0  0  0  0  0  0  0  0  0  0  0
  -25.7190  -10.2620   20.5100 C   0  0  0  0  0  3  0  0  0  0  0  0
  -27.0880  -10.5560   20.6440 C   0  0  0  0  0  3  0  0  0  0  0  0
  -23.7910   -9.0260   21.1170 O   0  0  0  0  0  0  0  0  0  0  0  0
  -23.1090   -8.1900   21.9640 C   0  0  0  0  0  0  0  0  0  0  0  0
  -23.1660   -8.3460   23.3670 C   0  0  0  0  0  3  0  0  0  0  0  0
  -22.3910   -7.5070   24.2000 C   0  0  0  0  0  3  0  0  0  0  0  0
  -21.5580   -6.5290   23.6300 C   0  0  0  0  0  0  0  0  0  0  0  0
  -21.4980   -6.3740   22.2350 C   0  0  0  0  0  3  0  0  0  0  0  0
  -22.2720   -7.2050   21.4030 C   0  0  0  0  0  0  0  0  0  0  0  0
  -22.2000   -7.0680   20.0580 F   0  0  0  0  0  0  0  0  0  0  0  0
  -20.8150   -5.7230   24.4270 F   0  0  0  0  0  0  0  0  0  0  0  0
  -29.3050  -12.8570   21.6060 C   0  0  0  0  0  0  0  0  0  0  0  0
  -28.1450  -12.9130   22.1960 N   0  0  0  0  0  0  0  0  0  0  0  0
  -29.5600  -13.7360   20.8220 O   0  0  0  0  0  0  0  0  0  0  0  0
  -27.8800  -12.2030   22.8590 H   0  0  0  0  0  0  0  0  0  0  0  0
  -27.5150  -13.6450   21.9350 H   0  0  0  0  0  0  0  0  0  0  0  0
  -32.9620  -11.9570   21.5000 N   0  0  0  0  0  0  0  0  0  0  0  0
  -32.8600  -12.8120   20.9570 H   0  0  0  0  0  0  0  0  0  0  0  0
  -33.7260  -11.4100   21.1120 H   0  0  0  0  0  0  0  0  0  0  0  0
  2  1  1  0
  2  3  1  0
  3  6  1  0
  3  5  1  0
  4  2  2  0
  7  8  2  0
  7  6  1  0
  9  8  1  0
 10  9  2  0
 11 10  1  0
 12 14  1  0
 12 11  1  0
 13 11  2  0
 15 12  1  0
 16 15  1  0
 17 16  1  0
 18 17  1  0
 19 18  1  0
 19 21  1  0
 20 31  2  0
 21 26  2  0
 21 27  1  0
 22 32  1  0
 23 29  1  0
 24 30  1  0
 25 24  1  0
 25 23  2  0
 26 25  1  0
 27 28  2  0
 28 23  1  0
 29 22  1  0
 30 20  1  0
 30 22  1  0
 32 33  1  0
 32 34  2  0
 35 33  1  0
 36 41  2  0
 36 45  1  0
 37 33  1  0
 37 41  1  0
 38 37  1  0
 39 40  1  0
 39 38  1  0
 40 36  1  0
 41 42  1  0
 42 43  2  0
 44 43  1  0
 45 44  2  0
 46 56  1  0
 46 47  1  0
 46 20  1  0
 47 50  1  0
 48 47  1  0
 48 52  1  0
 49 48  2  0
 52 51  1  0
 53 54  1  0
 54 55  1  0
 54 52  1  0
 56 57  1  1
 58 56  1  0
 59 56  1  0
 60  1  1  0
 61 60  1  0
 62 61  1  0
 63 62  1  0
 63 64  1  0
 65 63  1  0
 66 63  1  0
 67 66  1  0
 68 67  1  0
 69 70  1  0
 69 68  1  0
 71 72  1  0
 71 70  1  0
 73 74  1  0
 73 72  1  0
 75 76  1  0
 75 74  1  0
 76 77  1  0
 78 79  1  0
 80 88  1  0
 81 86  1  0
 82 81  1  0
 83 82  1  0
 84 83  1  0
 84 93  1  0
 84 85  1  0
 85 86  1  0
 86 80  1  0
 87 80  2  0
 88 79  1  0
 88 89  1  0
 90 91  2  0
 92 91  1  0
 93 94  1  0
 93 90  1  0
 94 92  2  0
 95 92  1  0
 95 96  1  0
 97 96  2  0
 98 97  1  0
 99100  1  0
 99 98  2  0
100 95  2  0
101 98  1  0
101102  1  0
102103  1  0
103104  2  0
105104  1  0
105109  1  0
106105  2  0
107102  2  0
107106  1  0
108107  1  0
110 91  1  0
110111  1  0
111113  1  0
112110  2  0
114111  1  0
115 90  1  0
116115  1  0
117115  1  0
M  ISO  4  18 101  19 101  80 100  88 100
M  END
>  <TORSDO>  (80) 
F 45

>  <SCORE>  (80) 
7.958

>  <name>  (80) 
85

>  <ligand_id>  (80) 
85

>  <original_smiles>  (80) 
[H]c1c([H])c([H])c2c(c1[H])C([H])([H])C([H])([H])C([H])([H])C2([H])N([H])C(=O)C1([H])N(C(=O)C([H])(N([H])C(=O)C([H])(N([H])C([H])([H])[H])C([H])([H])[H])C(C([H])([H])[H])(C([H])([H])[H])C([H])([H])[H])C([H])([H])c2c([H])c(OC([H])([H])C([H])([H])C([H])([H])C([H])([H])N([H])C(=O)C([H])([H])C([H])([H])C([H])([H])C([H])([H])C([H])([H])N([H])C(=O)C([H])([H])OC([H])([H])C([H])([H])[N+]([H])([H])C([H])([H])C([H])([H])OC([H])([H])C([H])([H])OC([H])([H])C([H])([H])OC([H])([H])C([H])([H])OC([H])([H])C([H])([H])N([H])C(=O)N3C([H])([H])C([H])([H])C([H])([H])C([H])(n4nc(-c5c([H])c([H])c(Oc6c([H])c([H])c(F)c([H])c6F)c([H])c5[H])c(C(=O)N([H])[H])c4N([H])[H])C3([H])[H])c([H])c([H])c2C1([H])[H]

>  <smiles>  (80) 
[H]c1c([H])c([H])c2c(c1[H])C([H])([H])C([H])([H])C([H])([H])C2([H])N([H])C(=O)C1([H])N(C(=O)C([H])(N([H])C(=O)C([H])(N([H])C([H])([H])[H])C([H])([H])[H])C(C([H])([H])[H])(C([H])([H])[H])C([H])([H])[H])C([H])([H])c2c([H])c(OC([H])([H])C([H])([H])C([H])([H])C([H])([H])N([H])C(=O)C([H])([H])C([H])([H])C([H])([H])C([H])([H])C([H])([H])N([H])C(=O)C([H])([H])OC([H])([H])C([H])([H])[N+]([H])([H])C([H])([H])C([H])([H])OC([H])([H])C([H])([H])OC([H])([H])C([H])([H])OC([H])([H])C([H])([H])OC([H])([H])C([H])([H])N([H])C(=O)N3C([H])([H])C([H])([H])C([H])([H])C([H])(n4nc(-c5c([H])c([H])c(Oc6c([H])c([H])c(F)c([H])c6F)c([H])c5[H])c(C(=O)N([H])[H])c4N([H])[H])C3([H])[H])c([H])c([H])c2C1([H])[H]

$$$$
86:0:0
     RDKit          3D

111118  0  0  1  0  0  0  0  0999 V2000
  -30.9410  -19.7750   19.1170 O   0  0  0  0  0  0  0  0  0  0  0  0
  -32.1290  -20.3100   19.6840 C   0  0  0  0  0  2  0  0  0  0  0  0
  -32.4370  -21.6760   19.0580 C   0  0  0  0  0  2  0  0  0  0  0  0
  -31.4230  -22.6030   19.4280 O   0  0  0  0  0  0  0  0  0  0  0  0
  -31.6840  -23.9210   18.9600 C   0  0  0  0  0  2  0  0  0  0  0  0
  -30.8960  -24.9340   19.8020 C   0  0  0  0  0  2  0  0  0  0  0  0
  -31.1080  -24.6810   21.1860 O   0  0  0  0  0  0  0  0  0  0  0  0
  -30.0810  -25.2250   22.0060 C   0  0  0  0  0  2  0  0  0  0  0  0
  -30.2120  -24.6540   23.4260 C   0  0  0  0  0  2  0  0  0  0  0  0
  -29.9990  -23.2510   23.3730 O   0  0  0  0  0  0  0  0  0  0  0  0
  -30.3580  -22.5810   24.5750 C   0  0  0  0  0  2  0  0  0  0  0  0
  -29.9330  -21.1120   24.4450 C   0  0  0  0  0  2  0  0  0  0  0  0
  -30.7230  -20.5460   23.4110 O   0  0  0  0  0  0  0  0  0  0  0  0
  -30.4960  -19.1640   23.1960 C   0  0  0  0  0  2  0  0  0  0  0  0
  -31.2810  -18.7800   21.9380 C   0  0  0  0  0  2  0  0  0  0  0  0
  -31.3620  -17.3710   21.8000 O   0  0  0  0  0  0  0  0  0  0  0  0
  -32.2610  -16.9940   20.7640 C   0  0  0  0  0  2  0  0  0  0  0  0
  -32.7820  -15.5840   21.0410 C   0  0  0  0  0  2  0  0  0  0  0  0
  -31.8150  -13.7650   19.6320 C   0  0  0  0  0  0  0  0  0  0  0  0
  -31.2560  -11.4260   19.1070 C   0  0  0  0  0  2  0  0  0  0  0  0
  -30.2650  -11.2370   17.9490 C   0  0  0  0  0  2  0  0  0  0  0  0
  -28.8160  -11.3210   18.4610 C   0  0  0  0  0  2  0  0  0  0  0  0
  -28.5670  -12.5890   19.3150 C   0  0  0  0  0  3  0  0  0  0  0  0
  -29.6510  -12.7490   20.4020 C   0  0  0  0  0  2  0  0  0  0  0  0
  -30.9830  -12.7070   19.7670 N   0  0  0  0  0  0  0  0  0  0  0  0
  -32.6860  -13.8580   18.7630 O   0  0  0  0  0  0  0  0  0  0  0  0
  -31.7860  -14.5800   20.6880 N   0  0  0  0  0  0  0  0  0  0  0  0
  -31.0620  -14.4060   21.3690 H   0  0  0  0  0  0  0  0  0  0  0  0
  -26.4040  -13.6500   20.2270 C   0  0  0  0  0  0  0  0  0  0  0  0
  -25.2260  -13.1010   20.6570 C   0  0  0  0  0  0  0  0  0  0  0  0
  -25.3900  -11.6850   20.5510 C   0  0  0  0  0  0  0  0  0  0  0  0
  -27.2230  -12.5830   19.8910 N   0  0  0  0  0  0  0  0  0  0  0  0
  -26.6170  -11.3930   20.1400 N   0  0  0  0  0  0  0  0  0  0  0  0
  -24.4310  -10.5930   20.7620 C   0  0  0  0  0  0  0  0  0  0  0  0
  -24.6860   -9.5550   21.6850 C   0  0  0  0  0  3  0  0  0  0  0  0
  -23.7400   -8.5250   21.8840 C   0  0  0  0  0  3  0  0  0  0  0  0
  -22.5250   -8.5280   21.1570 C   0  0  0  0  0  0  0  0  0  0  0  0
  -22.2870   -9.5520   20.2240 C   0  0  0  0  0  3  0  0  0  0  0  0
  -23.2310  -10.5730   20.0230 C   0  0  0  0  0  3  0  0  0  0  0  0
  -21.5600   -7.5560   21.2650 O   0  0  0  0  0  0  0  0  0  0  0  0
  -21.3420   -6.8870   22.4430 C   0  0  0  0  0  0  0  0  0  0  0  0
  -20.9990   -7.5640   23.6340 C   0  0  0  0  0  3  0  0  0  0  0  0
  -20.7150   -6.8320   24.8040 C   0  0  0  0  0  3  0  0  0  0  0  0
  -20.7620   -5.4260   24.7840 C   0  0  0  0  0  0  0  0  0  0  0  0
  -21.0970   -4.7490   23.5970 C   0  0  0  0  0  3  0  0  0  0  0  0
  -21.3820   -5.4780   22.4290 C   0  0  0  0  0  0  0  0  0  0  0  0
  -21.6830   -4.8200   21.2840 F   0  0  0  0  0  0  0  0  0  0  0  0
  -20.4820   -4.7210   25.9050 F   0  0  0  0  0  0  0  0  0  0  0  0
  -23.9830  -13.8420   21.0550 C   0  0  0  0  0  0  0  0  0  0  0  0
  -23.2130  -13.2930   21.9870 N   0  0  0  0  0  0  0  0  0  0  0  0
  -23.7140  -14.9430   20.5740 O   0  0  0  0  0  0  0  0  0  0  0  0
  -23.4450  -12.4000   22.3960 H   0  0  0  0  0  0  0  0  0  0  0  0
  -22.3790  -13.7730   22.2950 H   0  0  0  0  0  0  0  0  0  0  0  0
  -26.8400  -14.9650   20.0790 N   0  0  0  0  0  0  0  0  0  0  0  0
  -26.2420  -15.7590   20.2720 H   0  0  0  0  0  0  0  0  0  0  0  0
  -27.7490  -15.2290   19.7190 H   0  0  0  0  0  0  0  0  0  0  0  0
  -30.6450  -18.4650   19.5860 C   0  0  0  0  0  2  0  0  0  0  0  0
  -29.4770  -17.8940   18.7770 C   0  0  0  0  0  2  0  0  0  0  0  0
  -28.3120  -18.6370   19.1020 O   0  0  0  0  0  0  0  0  0  0  0  0
  -27.2270  -18.3820   18.2230 C   0  0  0  0  0  2  0  0  0  0  0  0
  -26.0740  -19.3220   18.5940 C   0  0  0  0  0  2  0  0  0  0  0  0
  -26.5000  -20.6620   18.3720 O   0  0  0  0  0  0  0  0  0  0  0  0
  -25.4760  -21.6170   18.6020 C   0  0  0  0  0  2  0  0  0  0  0  0
  -26.0880  -23.0240   18.6180 C   0  0  0  0  0  2  0  0  0  0  0  0
  -26.7070  -23.4410   17.2660 C   0  0  0  0  0  2  0  0  0  0  0  0
  -27.2180  -24.8320   17.2720 N   0  0  0  0  0  4  0  0  0  0  0  0
  -26.5030  -25.4390   17.6400 H   0  0  0  0  0  0  0  0  0  0  0  0
  -27.3600  -25.1100   16.3110 H   0  0  0  0  0  0  0  0  0  0  0  0
  -28.4950  -25.0280   18.0020 C   0  0  0  0  0  2  0  0  0  0  0  0
  -28.7130  -26.4820   18.4700 C   0  0  0  0  0  2  0  0  0  0  0  0
  -28.1930  -26.6870   19.7840 O   0  0  0  0  0  0  0  0  0  0  0  0
  -24.5390  -31.8260   23.0730 C   0  0  0  0  0  0  0  0  0  0  0  0
  -27.0300  -27.4080   19.8570 C   0  0  0  0  0  0  0  0  0  0  0  0
  -23.2570  -30.4470   21.4660 C   0  0  0  0  0  3  0  0  0  0  0  0
  -24.6420  -28.9030   19.9870 C   0  0  0  0  0  0  0  0  0  0  0  0
  -25.7760  -30.7900   21.1760 C   0  0  0  0  0  2  0  0  0  0  0  0
  -25.8260  -29.4220   20.5290 C   0  0  0  0  0  0  0  0  0  0  0  0
  -27.0230  -28.6790   20.4690 C   0  0  0  0  0  3  0  0  0  0  0  0
  -25.8230  -26.8760   19.3590 C   0  0  0  0  0  3  0  0  0  0  0  0
  -24.6330  -27.6230   19.4070 C   0  0  0  0  0  3  0  0  0  0  0  0
  -23.4080  -29.7720   20.0780 C   0  0  0  0  0  2  0  0  0  0  0  0
  -24.5440  -31.0360   21.9620 N   0  0  0  0  0  0  0  0  0  0  0  0
  -23.4800  -32.1070   23.6530 O   0  0  0  0  0  0  0  0  0  0  0  0
  -22.6320  -29.4270   22.4440 C   0  0  0  0  0  0  0  0  0  0  0  0
  -21.3020  -29.2600   22.3620 N   0  0  0  0  0  0  0  0  0  0  0  0
  -23.3370  -28.7890   23.2300 O   0  0  0  0  0  0  0  0  0  0  0  0
  -20.7950  -29.8220   21.6920 H   0  0  0  0  0  0  0  0  0  0  0  0
  -17.9340  -28.1060   22.9720 C   0  0  0  0  0  0  0  0  0  0  0  0
  -20.5030  -28.3280   23.1560 C   0  0  0  0  0  3  0  0  0  0  0  0
  -20.5670  -26.9000   22.5660 C   0  0  0  0  0  2  0  0  0  0  0  0
  -19.4260  -26.5980   21.5900 C   0  0  0  0  0  2  0  0  0  0  0  0
  -18.0690  -26.7580   22.2820 C   0  0  0  0  0  2  0  0  0  0  0  0
  -19.0770  -28.8500   23.3670 C   0  0  0  0  0  0  0  0  0  0  0  0
  -18.8960  -30.1120   23.9720 C   0  0  0  0  0  3  0  0  0  0  0  0
  -17.6060  -30.6300   24.1850 C   0  0  0  0  0  3  0  0  0  0  0  0
  -16.4760  -29.8830   23.8050 C   0  0  0  0  0  3  0  0  0  0  0  0
  -16.6430  -28.6220   23.2050 C   0  0  0  0  0  3  0  0  0  0  0  0
  -25.8540  -32.4360   23.6490 C   0  0  0  0  0  3  0  0  0  0  0  0
  -26.4570  -31.6030   24.8470 C   0  0  1  0  0  0  0  0  0  0  0  0
  -25.4230  -31.2550   25.9440 C   0  0  0  0  0  1  0  0  0  0  0  0
  -27.0690  -30.2770   24.3370 C   0  0  0  0  0  1  0  0  0  0  0  0
  -27.6090  -32.3970   25.5090 C   0  0  0  0  0  1  0  0  0  0  0  0
  -25.5560  -33.8120   24.0670 N   0  0  0  0  0  0  0  0  0  0  0  0
  -25.8350  -34.9040   23.3440 C   0  0  0  0  0  0  0  0  0  0  0  0
  -26.4440  -34.8600   22.2710 O   0  0  0  0  0  0  0  0  0  0  0  0
  -25.0070  -33.9210   24.9070 H   0  0  0  0  0  0  0  0  0  0  0  0
  -24.0680  -36.6860   23.1880 C   0  0  0  0  0  1  0  0  0  0  0  0
  -25.3630  -36.2610   23.8980 C   0  0  0  0  0  3  0  0  0  0  0  0
  -27.5380  -37.1330   24.6280 C   0  0  0  0  0  1  0  0  0  0  0  0
  -26.3730  -37.3340   23.7720 N   0  0  0  0  0  0  0  0  0  0  0  0
  -25.9690  -38.2380   23.9950 H   0  0  0  0  0  0  0  0  0  0  0  0
  1 57  1  0
  1  2  1  0
  3  4  1  0
  3  2  1  0
  5  4  1  0
  5  6  1  0
  6  7  1  0
  7  8  1  0
  8  9  1  0
 10  9  1  0
 10 11  1  0
 12 11  1  0
 13 12  1  0
 14 13  1  0
 15 14  1  0
 16 15  1  0
 17 18  1  0
 17 16  1  0
 19 25  1  0
 19 27  1  0
 20 25  1  0
 21 22  1  0
 21 20  1  0
 23 22  1  0
 23 32  1  0
 23 24  1  0
 25 24  1  0
 26 19  2  0
 27 18  1  0
 27 28  1  0
 29 30  2  0
 30 49  1  0
 31 30  1  0
 31 34  1  0
 32 33  1  0
 32 29  1  0
 33 31  2  0
 34 35  1  0
 35 36  2  0
 37 40  1  0
 37 36  1  0
 38 37  2  0
 39 38  1  0
 39 34  2  0
 40 41  1  0
 41 42  1  0
 42 43  2  0
 44 43  1  0
 44 48  1  0
 45 44  2  0
 46 41  2  0
 46 45  1  0
 47 46  1  0
 49 50  1  0
 50 53  1  0
 50 52  1  0
 51 49  2  0
 54 29  1  0
 54 55  1  0
 56 54  1  0
 58 59  1  0
 58 57  1  0
 60 61  1  0
 60 59  1  0
 62 61  1  0
 62 63  1  0
 63 64  1  0
 65 66  1  0
 65 64  1  0
 66 67  1  0
 66 69  1  0
 68 66  1  0
 69 70  1  0
 70 71  1  0
 71 73  1  0
 72 83  2  0
 73 78  1  0
 74 82  1  0
 74 84  1  0
 75 81  1  0
 75 77  1  0
 76 82  1  0
 77 76  1  0
 78 77  2  0
 79 80  1  0
 79 73  2  0
 80 75  2  0
 81 74  1  0
 82 72  1  0
 84 86  2  0
 85 84  1  0
 87 85  1  0
 88 97  2  0
 88 93  1  0
 89 85  1  0
 89 93  1  0
 90 89  1  0
 91 92  1  0
 91 90  1  0
 92 88  1  0
 93 94  2  0
 94 95  1  0
 96 95  2  0
 97 96  1  0
 98 72  1  0
 98103  1  0
 98 99  1  0
 99102  1  1
 99100  1  0
101 99  1  0
103106  1  0
104108  1  0
104103  1  0
105104  2  0
108107  1  0
110108  1  0
110111  1  0
110109  1  0
M  ISO  4  19 100  27 100  70 101  71 101
M  END
>  <TORSDO>  (81) 
F 45

>  <SCORE>  (81) 
-5.750

>  <name>  (81) 
86

>  <ligand_id>  (81) 
86

>  <original_smiles>  (81) 
[H]c1c([H])c([H])c2c(c1[H])C([H])([H])C([H])([H])C([H])([H])C2([H])N([H])C(=O)C1([H])N(C(=O)C([H])(N([H])C(=O)C([H])(N([H])C([H])([H])[H])C([H])([H])[H])C(C([H])([H])[H])(C([H])([H])[H])C([H])([H])[H])C([H])([H])c2c([H])c(OC([H])([H])C([H])([H])[N+]([H])([H])C([H])([H])C([H])([H])C([H])([H])OC([H])([H])C([H])([H])OC([H])([H])C([H])([H])OC([H])([H])C([H])([H])OC([H])([H])C([H])([H])OC([H])([H])C([H])([H])OC([H])([H])C([H])([H])OC([H])([H])C([H])([H])OC([H])([H])C([H])([H])N([H])C(=O)N3C([H])([H])C([H])([H])C([H])([H])C([H])(n4nc(-c5c([H])c([H])c(Oc6c([H])c([H])c(F)c([H])c6F)c([H])c5[H])c(C(=O)N([H])[H])c4N([H])[H])C3([H])[H])c([H])c([H])c2C1([H])[H]

>  <smiles>  (81) 
[H]c1c([H])c([H])c2c(c1[H])C([H])([H])C([H])([H])C([H])([H])C2([H])N([H])C(=O)C1([H])N(C(=O)C([H])(N([H])C(=O)C([H])(N([H])C([H])([H])[H])C([H])([H])[H])C(C([H])([H])[H])(C([H])([H])[H])C([H])([H])[H])C([H])([H])c2c([H])c(OC([H])([H])C([H])([H])[N+]([H])([H])C([H])([H])C([H])([H])C([H])([H])OC([H])([H])C([H])([H])OC([H])([H])C([H])([H])OC([H])([H])C([H])([H])OC([H])([H])C([H])([H])OC([H])([H])C([H])([H])OC([H])([H])C([H])([H])OC([H])([H])C([H])([H])OC([H])([H])C([H])([H])N([H])C(=O)N3C([H])([H])C([H])([H])C([H])([H])C([H])(n4nc(-c5c([H])c([H])c(Oc6c([H])c([H])c(F)c([H])c6F)c([H])c5[H])c(C(=O)N([H])[H])c4N([H])[H])C3([H])[H])c([H])c([H])c2C1([H])[H]

$$$$
87:0:0
     RDKit          3D

102109  0  0  1  0  0  0  0  0999 V2000
  -25.6500  -16.4650   18.6280 C   0  0  0  0  0  0  0  0  0  0  0  0
  -26.2310  -17.6940   18.6500 N   0  0  0  0  0  0  0  0  0  0  0  0
  -24.4840  -16.2750   18.9870 O   0  0  0  0  0  0  0  0  0  0  0  0
  -27.2240  -17.7230   18.4430 H   0  0  0  0  0  0  0  0  0  0  0  0
  -25.5750  -19.0240   18.7130 C   0  0  0  0  0  2  0  0  0  0  0  0
  -26.2770  -20.0300   19.6670 C   0  0  0  0  0  2  0  0  0  0  0  0
  -26.0690  -21.5480   19.3650 C   0  0  0  0  0  2  0  0  0  0  0  0
  -27.1820  -22.4070   20.0300 C   0  0  0  0  0  2  0  0  0  0  0  0
  -27.1610  -23.9620   19.8490 C   0  0  0  0  0  2  0  0  0  0  0  0
  -28.5880  -24.5940   20.0160 C   0  0  0  0  0  2  0  0  0  0  0  0
  -28.7800  -25.9430   20.7960 C   0  0  0  0  0  2  0  0  0  0  0  0
  -28.8660  -27.2140   20.0880 O   0  0  0  0  0  0  0  0  0  0  0  0
  -24.5230  -31.8160   23.4420 C   0  0  0  0  0  0  0  0  0  0  0  0
  -27.6840  -27.9190   20.0950 C   0  0  0  0  0  0  0  0  0  0  0  0
  -23.5140  -30.3970   21.6920 C   0  0  0  0  0  3  0  0  0  0  0  0
  -25.1510  -29.1610   20.1810 C   0  0  0  0  0  0  0  0  0  0  0  0
  -25.9790  -31.0690   21.5560 C   0  0  0  0  0  2  0  0  0  0  0  0
  -26.2400  -29.7620   20.8220 C   0  0  0  0  0  0  0  0  0  0  0  0
  -27.5190  -29.1500   20.7780 C   0  0  0  0  0  3  0  0  0  0  0  0
  -26.5830  -27.3540   19.4280 C   0  0  0  0  0  3  0  0  0  0  0  0
  -25.3180  -27.9610   19.4730 C   0  0  0  0  0  3  0  0  0  0  0  0
  -23.8130  -29.8600   20.2710 C   0  0  0  0  0  2  0  0  0  0  0  0
  -24.6900  -31.1020   22.2930 N   0  0  0  0  0  0  0  0  0  0  0  0
  -23.4110  -31.9160   23.9800 O   0  0  0  0  0  0  0  0  0  0  0  0
  -22.9930  -29.2310   22.5640 C   0  0  0  0  0  0  0  0  0  0  0  0
  -21.7720  -28.7580   22.2630 N   0  0  0  0  0  0  0  0  0  0  0  0
  -23.6790  -28.7600   23.4740 O   0  0  0  0  0  0  0  0  0  0  0  0
  -21.2590  -29.2130   21.5230 H   0  0  0  0  0  0  0  0  0  0  0  0
  -18.8290  -26.6610   22.1540 C   0  0  0  0  0  0  0  0  0  0  0  0
  -21.0950  -27.6430   22.9240 C   0  0  0  0  0  3  0  0  0  0  0  0
  -21.7040  -26.2840   22.5080 C   0  0  0  0  0  2  0  0  0  0  0  0
  -20.9870  -25.6370   21.3200 C   0  0  0  0  0  2  0  0  0  0  0  0
  -19.5110  -25.4000   21.6500 C   0  0  0  0  0  2  0  0  0  0  0  0
  -19.5760  -27.7200   22.7390 C   0  0  0  0  0  0  0  0  0  0  0  0
  -18.8950  -28.8850   23.1580 C   0  0  0  0  0  3  0  0  0  0  0  0
  -17.5030  -29.0020   23.0030 C   0  0  0  0  0  3  0  0  0  0  0  0
  -16.7680  -27.9460   22.4360 C   0  0  0  0  0  3  0  0  0  0  0  0
  -17.4310  -26.7770   22.0190 C   0  0  0  0  0  3  0  0  0  0  0  0
  -25.7150  -32.5610   24.1240 C   0  0  0  0  0  3  0  0  0  0  0  0
  -26.2200  -31.8420   25.4360 C   0  0  1  0  0  0  0  0  0  0  0  0
  -25.0910  -31.5050   26.4400 C   0  0  0  0  0  1  0  0  0  0  0  0
  -26.9570  -30.5270   25.0880 C   0  0  0  0  0  1  0  0  0  0  0  0
  -27.2410  -32.7440   26.1680 C   0  0  0  0  0  1  0  0  0  0  0  0
  -25.2680  -33.9260   24.4210 N   0  0  0  0  0  0  0  0  0  0  0  0
  -25.5860  -35.0050   23.6930 C   0  0  0  0  0  0  0  0  0  0  0  0
  -26.3550  -34.9570   22.7300 O   0  0  0  0  0  0  0  0  0  0  0  0
  -24.5890  -34.0310   25.1600 H   0  0  0  0  0  0  0  0  0  0  0  0
  -23.7850  -36.6770   23.1420 C   0  0  0  0  0  1  0  0  0  0  0  0
  -24.9470  -36.3480   24.0940 C   0  0  0  0  0  3  0  0  0  0  0  0
  -26.9050  -37.3690   25.1710 C   0  0  0  0  0  1  0  0  0  0  0  0
  -25.9060  -37.4750   24.1090 N   0  0  0  0  0  0  0  0  0  0  0  0
  -25.4190  -38.3600   24.2190 H   0  0  0  0  0  0  0  0  0  0  0  0
  -26.5040  -15.3070   18.0110 C   0  0  0  0  0  2  0  0  0  0  0  0
  -26.8530  -12.8110   17.7750 C   0  0  0  0  0  0  0  0  0  0  0  0
  -26.3100  -13.8880   18.4230 N   0  0  0  0  0  0  0  0  0  0  0  0
  -27.1370  -12.8690   16.5770 O   0  0  0  0  0  0  0  0  0  0  0  0
  -25.9220  -13.7690   19.3480 H   0  0  0  0  0  0  0  0  0  0  0  0
  -27.2190  -11.4920   18.5600 C   0  0  0  0  0  2  0  0  0  0  0  0
  -28.5880  -10.9990   18.2860 O   0  0  0  0  0  0  0  0  0  0  0  0
  -29.1360   -9.8960   19.0980 C   0  0  0  0  0  2  0  0  0  0  0  0
  -30.6630   -9.9370   19.6300 C   0  0  0  0  0  2  0  0  0  0  0  0
  -31.0180  -10.8260   20.7570 O   0  0  0  0  0  0  0  0  0  0  0  0
  -32.4050  -10.9220   21.2400 C   0  0  0  0  0  2  0  0  0  0  0  0
  -32.8910  -12.2540   22.0290 C   0  0  0  0  0  2  0  0  0  0  0  0
  -32.8760  -14.4830   20.6490 C   0  0  0  0  0  0  0  0  0  0  0  0
  -32.1560  -13.0680   19.0410 C   0  0  0  0  0  2  0  0  0  0  0  0
  -31.0430  -13.0480   18.0800 C   0  0  0  0  0  2  0  0  0  0  0  0
  -29.6940  -12.9300   18.7790 C   0  0  0  0  0  2  0  0  0  0  0  0
  -29.3620  -13.8980   19.8940 C   0  0  0  0  0  3  0  0  0  0  0  0
  -30.5100  -13.9260   20.8880 C   0  0  0  0  0  2  0  0  0  0  0  0
  -31.7960  -13.9420   20.1690 N   0  0  0  0  0  0  0  0  0  0  0  0
  -33.4890  -15.3800   20.0490 O   0  0  0  0  0  0  0  0  0  0  0  0
  -33.4920  -13.4950   21.3680 N   0  0  0  0  0  0  0  0  0  0  0  0
  -34.4670  -13.6640   21.5690 H   0  0  0  0  0  0  0  0  0  0  0  0
  -27.2040  -14.4760   21.1270 C   0  0  0  0  0  0  0  0  0  0  0  0
  -26.0990  -13.7450   21.4880 C   0  0  0  0  0  0  0  0  0  0  0  0
  -26.3610  -12.4000   21.1150 C   0  0  0  0  0  0  0  0  0  0  0  0
  -28.0750  -13.5790   20.5430 N   0  0  0  0  0  0  0  0  0  0  0  0
  -27.5920  -12.3030   20.6140 N   0  0  0  0  0  0  0  0  0  0  0  0
  -25.4870  -11.2150   21.1490 C   0  0  0  0  0  0  0  0  0  0  0  0
  -25.7230  -10.1580   22.0560 C   0  0  0  0  0  3  0  0  0  0  0  0
  -24.8540   -9.0460   22.0980 C   0  0  0  0  0  3  0  0  0  0  0  0
  -23.7330   -8.9900   21.2380 C   0  0  0  0  0  0  0  0  0  0  0  0
  -23.5300  -10.0230   20.3100 C   0  0  0  0  0  3  0  0  0  0  0  0
  -24.3970  -11.1270   20.2580 C   0  0  0  0  0  3  0  0  0  0  0  0
  -22.8390   -7.9440   21.2040 O   0  0  0  0  0  0  0  0  0  0  0  0
  -22.2060   -7.4840   22.3330 C   0  0  0  0  0  0  0  0  0  0  0  0
  -21.4540   -8.3380   23.1690 C   0  0  0  0  0  3  0  0  0  0  0  0
  -20.7690   -7.8190   24.2840 C   0  0  0  0  0  3  0  0  0  0  0  0
  -20.8080   -6.4400   24.5600 C   0  0  0  0  0  0  0  0  0  0  0  0
  -21.5400   -5.5800   23.7180 C   0  0  0  0  0  3  0  0  0  0  0  0
  -22.2330   -6.1000   22.6110 C   0  0  0  0  0  0  0  0  0  0  0  0
  -22.9280   -5.2670   21.7970 F   0  0  0  0  0  0  0  0  0  0  0  0
  -20.1330   -5.9380   25.6250 F   0  0  0  0  0  0  0  0  0  0  0  0
  -24.8420  -14.2950   22.0800 C   0  0  0  0  0  0  0  0  0  0  0  0
  -24.2000  -13.4920   22.9260 N   0  0  0  0  0  0  0  0  0  0  0  0
  -24.4670  -15.4350   21.8390 O   0  0  0  0  0  0  0  0  0  0  0  0
  -24.5710  -12.5740   23.1250 H   0  0  0  0  0  0  0  0  0  0  0  0
  -23.3550  -13.7900   23.3800 H   0  0  0  0  0  0  0  0  0  0  0  0
  -27.5230  -15.8190   21.2480 N   0  0  0  0  0  0  0  0  0  0  0  0
  -26.8460  -16.4870   21.6120 H   0  0  0  0  0  0  0  0  0  0  0  0
  -28.4020  -16.2580   21.0030 H   0  0  0  0  0  0  0  0  0  0  0  0
  1  2  1  0
  1  3  2  0
  2  5  1  0
  4  2  1  0
  5  6  1  0
  7  6  1  0
  7  8  1  0
  9 10  1  0
  9  8  1  0
 10 11  1  0
 12 14  1  0
 12 11  1  0
 13 24  2  0
 14 19  1  0
 15 23  1  0
 15 25  1  0
 16 22  1  0
 16 18  1  0
 17 23  1  0
 18 17  1  0
 19 18  2  0
 20 21  1  0
 20 14  2  0
 21 16  2  0
 22 15  1  0
 23 13  1  0
 25 27  2  0
 26 25  1  0
 28 26  1  0
 29 34  1  0
 30 26  1  0
 31 30  1  0
 32 33  1  0
 32 31  1  0
 33 29  1  0
 34 30  1  0
 34 35  2  0
 36 35  1  0
 37 36  2  0
 38 29  2  0
 38 37  1  0
 39 13  1  0
 39 44  1  0
 39 40  1  0
 40 43  1  1
 40 41  1  0
 42 40  1  0
 44 47  1  0
 45 49  1  0
 45 44  1  0
 46 45  2  0
 49 48  1  0
 49 51  1  0
 51 52  1  0
 51 50  1  0
 53 55  1  0
 53  1  1  0
 54 55  1  0
 54 58  1  0
 55 57  1  0
 56 54  2  0
 59 58  1  0
 59 60  1  0
 60 61  1  0
 61 62  1  0
 62 63  1  0
 63 64  1  0
 65 73  1  0
 66 71  1  0
 67 68  1  0
 67 66  1  0
 69 68  1  0
 69 78  1  0
 69 70  1  0
 71 65  1  0
 71 70  1  0
 72 65  2  0
 73 74  1  0
 73 64  1  0
 75100  1  0
 75 76  2  0
 76 95  1  0
 77 80  1  0
 77 76  1  0
 78 79  1  0
 78 75  1  0
 79 77  2  0
 80 81  1  0
 81 82  2  0
 83 82  1  0
 84 83  2  0
 85 84  1  0
 85 80  2  0
 86 83  1  0
 86 87  1  0
 87 92  2  0
 87 88  1  0
 88 89  2  0
 89 90  1  0
 90 94  1  0
 91 90  2  0
 92 91  1  0
 93 92  1  0
 95 96  1  0
 96 98  1  0
 96 99  1  0
 97 95  2  0
100101  1  0
102100  1  0
M  ISO  4  11 101  12 101  65 100  73 100
M  END
>  <TORSDO>  (82) 
F 32

>  <SCORE>  (82) 
4.485

>  <name>  (82) 
87

>  <ligand_id>  (82) 
87

>  <original_smiles>  (82) 
[H]c1c([H])c([H])c2c(c1[H])C([H])([H])C([H])([H])C([H])([H])C2([H])N([H])C(=O)C1([H])N(C(=O)C([H])(N([H])C(=O)C([H])(N([H])C([H])([H])[H])C([H])([H])[H])C(C([H])([H])[H])(C([H])([H])[H])C([H])([H])[H])C([H])([H])c2c([H])c(OC([H])([H])C([H])([H])C([H])([H])C([H])([H])C([H])([H])C([H])([H])C([H])([H])N([H])C(=O)C([H])([H])N([H])C(=O)C([H])([H])OC([H])([H])C([H])([H])OC([H])([H])C([H])([H])N([H])C(=O)N3C([H])([H])C([H])([H])C([H])([H])C([H])(n4nc(-c5c([H])c([H])c(Oc6c([H])c([H])c(F)c([H])c6F)c([H])c5[H])c(C(=O)N([H])[H])c4N([H])[H])C3([H])[H])c([H])c([H])c2C1([H])[H]

>  <smiles>  (82) 
[H]c1c([H])c([H])c2c(c1[H])C([H])([H])C([H])([H])C([H])([H])C2([H])N([H])C(=O)C1([H])N(C(=O)C([H])(N([H])C(=O)C([H])(N([H])C([H])([H])[H])C([H])([H])[H])C(C([H])([H])[H])(C([H])([H])[H])C([H])([H])[H])C([H])([H])c2c([H])c(OC([H])([H])C([H])([H])C([H])([H])C([H])([H])C([H])([H])C([H])([H])C([H])([H])N([H])C(=O)C([H])([H])N([H])C(=O)C([H])([H])OC([H])([H])C([H])([H])OC([H])([H])C([H])([H])N([H])C(=O)N3C([H])([H])C([H])([H])C([H])([H])C([H])(n4nc(-c5c([H])c([H])c(Oc6c([H])c([H])c(F)c([H])c6F)c([H])c5[H])c(C(=O)N([H])[H])c4N([H])[H])C3([H])[H])c([H])c([H])c2C1([H])[H]

$$$$
88:0:0
     RDKit          3D

113120  0  0  1  0  0  0  0  0999 V2000
  -32.3310  -30.6380   24.0810 C   0  0  0  0  0  2  0  0  0  0  0  0
  -31.7370  -29.7250   23.1720 O   0  0  0  0  0  0  0  0  0  0  0  0
  -32.5780  -29.3410   22.0910 C   0  0  0  0  0  2  0  0  0  0  0  0
  -31.9060  -28.1340   21.4290 C   0  0  0  0  0  2  0  0  0  0  0  0
  -32.7120  -27.5230   20.4220 O   0  0  0  0  0  0  0  0  0  0  0  0
  -32.1590  -26.2670   20.0390 C   0  0  0  0  0  2  0  0  0  0  0  0
  -32.9130  -25.5860   18.8950 C   0  0  0  0  0  2  0  0  0  0  0  0
  -32.6190  -24.1930   18.9620 O   0  0  0  0  0  0  0  0  0  0  0  0
  -33.0830  -23.4650   17.8350 C   0  0  0  0  0  2  0  0  0  0  0  0
  -33.0870  -21.9540   18.1300 C   0  0  0  0  0  2  0  0  0  0  0  0
  -31.7640  -21.4210   18.1900 O   0  0  0  0  0  0  0  0  0  0  0  0
  -31.7680  -19.9940   18.2110 C   0  0  0  0  0  2  0  0  0  0  0  0
  -30.3410  -19.4210   18.1950 C   0  0  0  0  0  2  0  0  0  0  0  0
  -29.8200  -19.2990   19.5160 O   0  0  0  0  0  0  0  0  0  0  0  0
  -28.5500  -18.6560   19.5210 C   0  0  0  0  0  2  0  0  0  0  0  0
  -27.9480  -18.6010   20.9330 C   0  0  0  0  0  2  0  0  0  0  0  0
  -28.3540  -17.4470   21.6640 O   0  0  0  0  0  0  0  0  0  0  0  0
  -29.6200  -17.5470   22.3080 C   0  0  0  0  0  2  0  0  0  0  0  0
  -30.6540  -16.6800   21.5800 C   0  0  0  0  0  2  0  0  0  0  0  0
  -30.7460  -14.3980   20.6350 C   0  0  0  0  0  0  0  0  0  0  0  0
  -30.4180  -12.2890   19.4060 C   0  0  0  0  0  2  0  0  0  0  0  0
  -29.4830  -12.4990   18.2000 C   0  0  0  0  0  2  0  0  0  0  0  0
  -28.0080  -12.3630   18.6210 C   0  0  0  0  0  2  0  0  0  0  0  0
  -27.6650  -13.2020   19.8810 C   0  0  0  0  0  3  0  0  0  0  0  0
  -28.7030  -12.9600   20.9980 C   0  0  0  0  0  2  0  0  0  0  0  0
  -30.0420  -13.2510   20.4530 N   0  0  0  0  0  0  0  0  0  0  0  0
  -31.8190  -14.6350   20.0760 O   0  0  0  0  0  0  0  0  0  0  0  0
  -30.1660  -15.3120   21.4170 N   0  0  0  0  0  0  0  0  0  0  0  0
  -29.2740  -15.0850   21.8320 H   0  0  0  0  0  0  0  0  0  0  0  0
  -25.2590  -13.8160   20.5680 C   0  0  0  0  0  0  0  0  0  0  0  0
  -24.1840  -13.0440   20.9190 C   0  0  0  0  0  0  0  0  0  0  0  0
  -24.6370  -11.6900   20.8740 C   0  0  0  0  0  0  0  0  0  0  0  0
  -26.3030  -12.9320   20.3390 N   0  0  0  0  0  0  0  0  0  0  0  0
  -25.9300  -11.6490   20.5770 N   0  0  0  0  0  0  0  0  0  0  0  0
  -23.9040  -10.4290   21.0400 C   0  0  0  0  0  0  0  0  0  0  0  0
  -24.3600   -9.4210   21.9190 C   0  0  0  0  0  3  0  0  0  0  0  0
  -23.6290   -8.2240   22.0740 C   0  0  0  0  0  3  0  0  0  0  0  0
  -22.4270   -8.0280   21.3530 C   0  0  0  0  0  0  0  0  0  0  0  0
  -21.9890   -9.0250   20.4640 C   0  0  0  0  0  3  0  0  0  0  0  0
  -22.7210  -10.2140   20.3050 C   0  0  0  0  0  3  0  0  0  0  0  0
  -21.6620   -6.8890   21.4250 O   0  0  0  0  0  0  0  0  0  0  0  0
  -21.6840   -6.0740   22.5290 C   0  0  0  0  0  0  0  0  0  0  0  0
  -21.4020   -6.5640   23.8230 C   0  0  0  0  0  3  0  0  0  0  0  0
  -21.3650   -5.6790   24.9190 C   0  0  0  0  0  3  0  0  0  0  0  0
  -21.6040   -4.3060   24.7230 C   0  0  0  0  0  0  0  0  0  0  0  0
  -21.8820   -3.8150   23.4340 C   0  0  0  0  0  3  0  0  0  0  0  0
  -21.9190   -4.6970   22.3410 C   0  0  0  0  0  0  0  0  0  0  0  0
  -22.1650   -4.2150   21.0990 F   0  0  0  0  0  0  0  0  0  0  0  0
  -21.5620   -3.4540   25.7740 F   0  0  0  0  0  0  0  0  0  0  0  0
  -22.7860  -13.5230   21.1870 C   0  0  0  0  0  0  0  0  0  0  0  0
  -22.0490  -12.8230   22.0440 N   0  0  0  0  0  0  0  0  0  0  0  0
  -22.3530  -14.5530   20.6700 O   0  0  0  0  0  0  0  0  0  0  0  0
  -22.4060  -11.9880   22.4840 H   0  0  0  0  0  0  0  0  0  0  0  0
  -21.1110  -13.1300   22.2640 H   0  0  0  0  0  0  0  0  0  0  0  0
  -25.4360  -15.1880   20.4070 N   0  0  0  0  0  0  0  0  0  0  0  0
  -24.6810  -15.8540   20.5310 H   0  0  0  0  0  0  0  0  0  0  0  0
  -26.3080  -15.6240   20.1320 H   0  0  0  0  0  0  0  0  0  0  0  0
  -31.3860  -30.8010   25.2810 C   0  0  0  0  0  2  0  0  0  0  0  0
  -31.2720  -29.5450   25.9390 O   0  0  0  0  0  0  0  0  0  0  0  0
  -30.5470  -29.6040   27.1590 C   0  0  0  0  0  2  0  0  0  0  0  0
  -30.3980  -28.1580   27.6420 C   0  0  0  0  0  2  0  0  0  0  0  0
  -29.5180  -27.3980   26.7250 N   0  0  0  0  0  4  0  0  0  0  0  0
  -28.5540  -27.5620   26.9690 H   0  0  0  0  0  0  0  0  0  0  0  0
  -29.6650  -27.7510   25.7850 H   0  0  0  0  0  0  0  0  0  0  0  0
  -29.7820  -25.9410   26.6630 C   0  0  0  0  0  2  0  0  0  0  0  0
  -28.9240  -25.2090   25.6010 C   0  0  0  0  0  2  0  0  0  0  0  0
  -29.1150  -25.7330   24.1710 C   0  0  0  0  0  0  0  0  0  0  0  0
  -29.1240  -24.8430   23.1700 N   0  0  0  0  0  0  0  0  0  0  0  0
  -29.2640  -26.9420   23.9820 O   0  0  0  0  0  0  0  0  0  0  0  0
  -28.9790  -23.8660   23.3880 H   0  0  0  0  0  0  0  0  0  0  0  0
  -29.4060  -25.1830   21.7760 C   0  0  0  0  0  2  0  0  0  0  0  0
  -28.1460  -25.5080   20.9600 C   0  0  0  0  0  2  0  0  0  0  0  0
  -28.3550  -26.6910   20.1770 O   0  0  0  0  0  0  0  0  0  0  0  0
  -24.6130  -31.8710   23.2120 C   0  0  0  0  0  0  0  0  0  0  0  0
  -27.2250  -27.4630   20.1040 C   0  0  0  0  0  0  0  0  0  0  0  0
  -23.3990  -30.4940   21.5520 C   0  0  0  0  0  3  0  0  0  0  0  0
  -24.8460  -28.9680   20.1090 C   0  0  0  0  0  0  0  0  0  0  0  0
  -25.9240  -30.8490   21.3580 C   0  0  0  0  0  2  0  0  0  0  0  0
  -26.0050  -29.4870   20.7030 C   0  0  0  0  0  0  0  0  0  0  0  0
  -27.2030  -28.7420   20.6960 C   0  0  0  0  0  3  0  0  0  0  0  0
  -26.0600  -26.9530   19.4970 C   0  0  0  0  0  3  0  0  0  0  0  0
  -24.8670  -27.7010   19.5000 C   0  0  0  0  0  3  0  0  0  0  0  0
  -23.6050  -29.8280   20.1650 C   0  0  0  0  0  2  0  0  0  0  0  0
  -24.6640  -31.0840   22.1000 N   0  0  0  0  0  0  0  0  0  0  0  0
  -23.5330  -32.1440   23.7530 O   0  0  0  0  0  0  0  0  0  0  0  0
  -22.7400  -29.4680   22.5000 C   0  0  0  0  0  0  0  0  0  0  0  0
  -21.4130  -29.3030   22.3740 N   0  0  0  0  0  0  0  0  0  0  0  0
  -23.4190  -28.8230   23.3040 O   0  0  0  0  0  0  0  0  0  0  0  0
  -20.9280  -29.8750   21.6970 H   0  0  0  0  0  0  0  0  0  0  0  0
  -18.0270  -28.1370   22.8500 C   0  0  0  0  0  0  0  0  0  0  0  0
  -20.5860  -28.3650   23.1330 C   0  0  0  0  0  3  0  0  0  0  0  0
  -20.6760  -26.9390   22.5420 C   0  0  0  0  0  2  0  0  0  0  0  0
  -19.5740  -26.6380   21.5220 C   0  0  0  0  0  2  0  0  0  0  0  0
  -18.1920  -26.7930   22.1630 C   0  0  0  0  0  2  0  0  0  0  0  0
  -19.1530  -28.8840   23.2910 C   0  0  0  0  0  0  0  0  0  0  0  0
  -18.9450  -30.1450   23.8910 C   0  0  0  0  0  3  0  0  0  0  0  0
  -17.6450  -30.6580   24.0570 C   0  0  0  0  0  3  0  0  0  0  0  0
  -16.5350  -29.9090   23.6330 C   0  0  0  0  0  3  0  0  0  0  0  0
  -16.7260  -28.6510   23.0350 C   0  0  0  0  0  3  0  0  0  0  0  0
  -25.9040  -32.4850   23.8410 C   0  0  0  0  0  3  0  0  0  0  0  0
  -25.5880  -33.8640   24.2340 N   0  0  0  0  0  0  0  0  0  0  0  0
  -25.9010  -34.9490   23.5120 C   0  0  0  0  0  0  0  0  0  0  0  0
  -26.5560  -34.8920   22.4680 O   0  0  0  0  0  0  0  0  0  0  0  0
  -25.0100  -33.9810   25.0530 H   0  0  0  0  0  0  0  0  0  0  0  0
  -24.1470  -36.7320   23.2630 C   0  0  0  0  0  1  0  0  0  0  0  0
  -25.4090  -36.3120   24.0330 C   0  0  0  0  0  3  0  0  0  0  0  0
  -27.5560  -37.1800   24.8460 C   0  0  0  0  0  1  0  0  0  0  0  0
  -26.4280  -37.3790   23.9400 N   0  0  0  0  0  0  0  0  0  0  0  0
  -26.0170  -38.2880   24.1380 H   0  0  0  0  0  0  0  0  0  0  0  0
  -26.4490  -31.6610   25.0720 C   0  0  1  0  0  0  0  0  0  0  0  0
  -25.3740  -31.3630   26.1440 C   0  0  0  0  0  1  0  0  0  0  0  0
  -27.0430  -30.3110   24.6050 C   0  0  0  0  0  1  0  0  0  0  0  0
  -27.5990  -32.4370   25.7560 C   0  0  0  0  0  1  0  0  0  0  0  0
  1 58  1  0
  2  1  1  0
  3  2  1  0
  4  3  1  0
  5  4  1  0
  6  5  1  0
  7  8  1  0
  7  6  1  0
  9 10  1  0
  9  8  1  0
 10 11  1  0
 11 12  1  0
 13 12  1  0
 13 14  1  0
 14 15  1  0
 15 16  1  0
 16 17  1  0
 17 18  1  0
 19 18  1  0
 20 28  1  0
 21 26  1  0
 22 23  1  0
 22 21  1  0
 24 23  1  0
 24 33  1  0
 24 25  1  0
 26 20  1  0
 26 25  1  0
 27 20  2  0
 28 19  1  0
 28 29  1  0
 30 31  2  0
 31 50  1  0
 32 31  1  0
 32 35  1  0
 33 30  1  0
 33 34  1  0
 34 32  2  0
 35 36  1  0
 36 37  2  0
 38 41  1  0
 38 37  1  0
 39 38  2  0
 40 39  1  0
 40 35  2  0
 41 42  1  0
 42 43  1  0
 43 44  2  0
 45 44  1  0
 45 49  1  0
 46 45  2  0
 47 42  2  0
 47 46  1  0
 48 47  1  0
 50 51  1  0
 51 54  1  0
 51 53  1  0
 52 50  2  0
 55 56  1  0
 55 30  1  0
 57 55  1  0
 58 59  1  0
 59 60  1  0
 60 61  1  0
 62 63  1  0
 62 61  1  0
 64 62  1  0
 65 62  1  0
 66 65  1  0
 67 66  1  0
 68 70  1  0
 68 67  1  0
 69 67  2  0
 71 68  1  0
 72 71  1  0
 73 72  1  0
 74 85  2  0
 75 73  1  0
 75 80  1  0
 76 84  1  0
 76 86  1  0
 77 83  1  0
 77 79  1  0
 78 84  1  0
 79 78  1  0
 80 79  2  0
 81 82  1  0
 81 75  2  0
 82 77  2  0
 83 76  1  0
 84 74  1  0
 86 88  2  0
 87 86  1  0
 89 87  1  0
 90 99  2  0
 90 95  1  0
 91 87  1  0
 91 95  1  0
 92 91  1  0
 93 94  1  0
 93 92  1  0
 94 90  1  0
 95 96  2  0
 96 97  1  0
 98 97  2  0
 99 98  1  0
100 74  1  0
100101  1  0
100110  1  0
101104  1  0
102106  1  0
102101  1  0
103102  2  0
106105  1  0
108106  1  0
108109  1  0
108107  1  0
110113  1  1
110111  1  0
112110  1  0
M  ISO  4  20 100  28 100  72 101  73 101
M  END
>  <TORSDO>  (83) 
F 44

>  <SCORE>  (83) 
0.820

>  <name>  (83) 
88

>  <ligand_id>  (83) 
88

>  <original_smiles>  (83) 
[H]c1c([H])c([H])c2c(c1[H])C([H])([H])C([H])([H])C([H])([H])C2([H])N([H])C(=O)C1([H])N(C(=O)C([H])(N([H])C(=O)C([H])(N([H])C([H])([H])[H])C([H])([H])[H])C(C([H])([H])[H])(C([H])([H])[H])C([H])([H])[H])C([H])([H])c2c([H])c(OC([H])([H])C([H])([H])N([H])C(=O)C([H])([H])C([H])([H])[N+]([H])([H])C([H])([H])C([H])([H])OC([H])([H])C([H])([H])OC([H])([H])C([H])([H])OC([H])([H])C([H])([H])OC([H])([H])C([H])([H])OC([H])([H])C([H])([H])OC([H])([H])C([H])([H])OC([H])([H])C([H])([H])N([H])C(=O)N3C([H])([H])C([H])([H])C([H])([H])C([H])(n4nc(-c5c([H])c([H])c(Oc6c([H])c([H])c(F)c([H])c6F)c([H])c5[H])c(C(=O)N([H])[H])c4N([H])[H])C3([H])[H])c([H])c([H])c2C1([H])[H]

>  <smiles>  (83) 
[H]c1c([H])c([H])c2c(c1[H])C([H])([H])C([H])([H])C([H])([H])C2([H])N([H])C(=O)C1([H])N(C(=O)C([H])(N([H])C(=O)C([H])(N([H])C([H])([H])[H])C([H])([H])[H])C(C([H])([H])[H])(C([H])([H])[H])C([H])([H])[H])C([H])([H])c2c([H])c(OC([H])([H])C([H])([H])N([H])C(=O)C([H])([H])C([H])([H])[N+]([H])([H])C([H])([H])C([H])([H])OC([H])([H])C([H])([H])OC([H])([H])C([H])([H])OC([H])([H])C([H])([H])OC([H])([H])C([H])([H])OC([H])([H])C([H])([H])OC([H])([H])C([H])([H])OC([H])([H])C([H])([H])N([H])C(=O)N3C([H])([H])C([H])([H])C([H])([H])C([H])(n4nc(-c5c([H])c([H])c(Oc6c([H])c([H])c(F)c([H])c6F)c([H])c5[H])c(C(=O)N([H])[H])c4N([H])[H])C3([H])[H])c([H])c([H])c2C1([H])[H]

$$$$
89:0:0
     RDKit          3D

104111  0  0  1  0  0  0  0  0999 V2000
  -28.9630  -16.6110   23.6760 C   0  0  0  0  0  2  0  0  0  0  0  0
  -28.7040  -15.6010   21.4280 C   0  0  0  0  0  0  0  0  0  0  0  0
  -29.3280  -15.6980   22.6040 N   0  0  0  0  0  0  0  0  0  0  0  0
  -27.6240  -16.1410   21.1860 O   0  0  0  0  0  0  0  0  0  0  0  0
  -30.2090  -15.2080   22.6890 H   0  0  0  0  0  0  0  0  0  0  0  0
  -29.4670  -14.8450   20.3470 C   0  0  0  0  0  2  0  0  0  0  0  0
  -30.8220  -15.2680   20.4090 O   0  0  0  0  0  0  0  0  0  0  0  0
  -31.6060  -14.8320   19.3100 C   0  0  0  0  0  2  0  0  0  0  0  0
  -32.9830  -14.4660   19.8660 C   0  0  0  0  0  2  0  0  0  0  0  0
  -32.9180  -13.1520   20.4220 O   0  0  0  0  0  0  0  0  0  0  0  0
  -33.8170  -12.9370   21.5070 C   0  0  0  0  0  2  0  0  0  0  0  0
  -34.2520  -11.4570   21.5850 C   0  0  0  0  0  2  0  0  0  0  0  0
  -33.6250  -10.7150   22.6370 O   0  0  0  0  0  0  0  0  0  0  0  0
  -34.2190  -10.9130   23.9170 C   0  0  0  0  0  2  0  0  0  0  0  0
  -34.6750   -9.5920   24.5350 C   0  0  0  0  0  2  0  0  0  0  0  0
  -33.5690   -7.4020   24.4470 C   0  0  0  0  0  0  0  0  0  0  0  0
  -32.3240   -5.6330   23.2850 C   0  0  0  0  0  2  0  0  0  0  0  0
  -32.2570   -6.0240   21.7920 C   0  0  0  0  0  2  0  0  0  0  0  0
  -31.0200   -6.9010   21.5140 C   0  0  0  0  0  2  0  0  0  0  0  0
  -30.9040   -8.0830   22.5140 C   0  0  0  0  0  3  0  0  0  0  0  0
  -31.1010   -7.6070   23.9730 C   0  0  0  0  0  2  0  0  0  0  0  0
  -32.3780   -6.8740   24.0650 N   0  0  0  0  0  0  0  0  0  0  0  0
  -34.6400   -6.7920   24.4090 O   0  0  0  0  0  0  0  0  0  0  0  0
  -33.5320   -8.7060   24.7250 N   0  0  0  0  0  0  0  0  0  0  0  0
  -32.6210   -9.1340   24.7800 H   0  0  0  0  0  0  0  0  0  0  0  0
  -29.4310  -10.1580   22.1390 C   0  0  0  0  0  0  0  0  0  0  0  0
  -28.0750  -10.3060   21.9920 C   0  0  0  0  0  0  0  0  0  0  0  0
  -27.5210   -8.9970   22.1360 C   0  0  0  0  0  0  0  0  0  0  0  0
  -29.6420   -8.8050   22.3570 N   0  0  0  0  0  0  0  0  0  0  0  0
  -28.4740   -8.1170   22.4080 N   0  0  0  0  0  0  0  0  0  0  0  0
  -26.1390   -8.5180   21.9780 C   0  0  0  0  0  0  0  0  0  0  0  0
  -25.5530   -7.6390   22.9140 C   0  0  0  0  0  3  0  0  0  0  0  0
  -24.2180   -7.2060   22.7500 C   0  0  0  0  0  3  0  0  0  0  0  0
  -23.4560   -7.6590   21.6450 C   0  0  0  0  0  0  0  0  0  0  0  0
  -24.0540   -8.5240   20.7110 C   0  0  0  0  0  3  0  0  0  0  0  0
  -25.3830   -8.9500   20.8730 C   0  0  0  0  0  3  0  0  0  0  0  0
  -22.1610   -7.2760   21.3910 O   0  0  0  0  0  0  0  0  0  0  0  0
  -21.3270   -6.8490   22.3950 C   0  0  0  0  0  0  0  0  0  0  0  0
  -21.0420   -7.6520   23.5220 C   0  0  0  0  0  3  0  0  0  0  0  0
  -20.1230   -7.2020   24.4890 C   0  0  0  0  0  3  0  0  0  0  0  0
  -19.4850   -5.9580   24.3340 C   0  0  0  0  0  0  0  0  0  0  0  0
  -19.7630   -5.1600   23.2110 C   0  0  0  0  0  3  0  0  0  0  0  0
  -20.6790   -5.6060   22.2400 C   0  0  0  0  0  0  0  0  0  0  0  0
  -20.9280   -4.8410   21.1510 F   0  0  0  0  0  0  0  0  0  0  0  0
  -18.6000   -5.5290   25.2640 F   0  0  0  0  0  0  0  0  0  0  0  0
  -27.3480  -11.5790   21.6570 C   0  0  0  0  0  0  0  0  0  0  0  0
  -26.1490  -11.7580   22.2070 N   0  0  0  0  0  0  0  0  0  0  0  0
  -27.8630  -12.4430   20.9540 O   0  0  0  0  0  0  0  0  0  0  0  0
  -25.7390  -11.0530   22.8030 H   0  0  0  0  0  0  0  0  0  0  0  0
  -25.6470  -12.6160   22.0360 H   0  0  0  0  0  0  0  0  0  0  0  0
  -30.5000  -11.0450   22.0970 N   0  0  0  0  0  0  0  0  0  0  0  0
  -30.4260  -12.0230   21.8430 H   0  0  0  0  0  0  0  0  0  0  0  0
  -31.4670  -10.7580   22.2330 H   0  0  0  0  0  0  0  0  0  0  0  0
  -29.3470  -18.0540   23.3060 C   0  0  0  0  0  2  0  0  0  0  0  0
  -30.4720  -18.4540   24.0770 O   0  0  0  0  0  0  0  0  0  0  0  0
  -31.1520  -19.5890   23.5470 C   0  0  0  0  0  2  0  0  0  0  0  0
  -31.5180  -19.3650   22.0700 C   0  0  0  0  0  2  0  0  0  0  0  0
  -31.6440  -20.5960   21.3770 O   0  0  0  0  0  0  0  0  0  0  0  0
  -31.4960  -20.4340   19.9680 C   0  0  0  0  0  2  0  0  0  0  0  0
  -31.6100  -21.8030   19.2890 C   0  0  0  0  0  2  0  0  0  0  0  0
  -30.4320  -22.5610   19.5600 O   0  0  0  0  0  0  0  0  0  0  0  0
  -30.6360  -23.9560   19.3620 C   0  0  0  0  0  2  0  0  0  0  0  0
  -29.3020  -24.7120   19.4420 C   0  0  0  0  0  2  0  0  0  0  0  0
  -29.6100  -26.0870   19.6350 O   0  0  0  0  0  0  0  0  0  0  0  0
  -26.2670  -29.9140   24.5700 C   0  0  0  0  0  0  0  0  0  0  0  0
  -28.5680  -26.9460   19.8900 C   0  0  0  0  0  0  0  0  0  0  0  0
  -25.1310  -29.7830   22.3740 C   0  0  0  0  0  3  0  0  0  0  0  0
  -26.5050  -28.7820   20.4760 C   0  0  0  0  0  0  0  0  0  0  0  0
  -27.6710  -29.5780   22.5420 C   0  0  0  0  0  2  0  0  0  0  0  0
  -27.6200  -28.6890   21.3190 C   0  0  0  0  0  0  0  0  0  0  0  0
  -28.6580  -27.7830   21.0210 C   0  0  0  0  0  3  0  0  0  0  0  0
  -27.4350  -27.0380   19.0510 C   0  0  0  0  0  3  0  0  0  0  0  0
  -26.4070  -27.9590   19.3390 C   0  0  0  0  0  3  0  0  0  0  0  0
  -25.4490  -29.7940   20.8560 C   0  0  0  0  0  2  0  0  0  0  0  0
  -26.3650  -29.7380   23.2220 N   0  0  0  0  0  0  0  0  0  0  0  0
  -25.1770  -30.1550   25.1030 O   0  0  0  0  0  0  0  0  0  0  0  0
  -24.1470  -28.6270   22.6610 C   0  0  0  0  0  0  0  0  0  0  0  0
  -22.8490  -28.8780   22.4350 N   0  0  0  0  0  0  0  0  0  0  0  0
  -24.5570  -27.5310   23.0520 O   0  0  0  0  0  0  0  0  0  0  0  0
  -22.5930  -29.8050   22.1270 H   0  0  0  0  0  0  0  0  0  0  0  0
  -19.2550  -28.5370   22.2810 C   0  0  0  0  0  0  0  0  0  0  0  0
  -21.7480  -27.9280   22.5930 C   0  0  0  0  0  3  0  0  0  0  0  0
  -21.5840  -27.0460   21.3340 C   0  0  0  0  0  2  0  0  0  0  0  0
  -20.5730  -27.6080   20.3300 C   0  0  0  0  0  2  0  0  0  0  0  0
  -19.1940  -27.7520   20.9810 C   0  0  0  0  0  2  0  0  0  0  0  0
  -20.4580  -28.6330   23.0300 C   0  0  0  0  0  0  0  0  0  0  0  0
  -20.4700  -29.4040   24.2120 C   0  0  0  0  0  3  0  0  0  0  0  0
  -19.3090  -30.0700   24.6490 C   0  0  0  0  0  3  0  0  0  0  0  0
  -18.1160  -29.9590   23.9130 C   0  0  0  0  0  3  0  0  0  0  0  0
  -18.0900  -29.1910   22.7350 C   0  0  0  0  0  3  0  0  0  0  0  0
  -27.5180  -29.8420   25.5020 C   0  0  0  0  0  3  0  0  0  0  0  0
  -27.7350  -28.4180   26.1470 C   0  0  1  0  0  0  0  0  0  0  0  0
  -26.4620  -27.8310   26.8000 C   0  0  0  0  0  1  0  0  0  0  0  0
  -28.2290  -27.4110   25.0830 C   0  0  0  0  0  1  0  0  0  0  0  0
  -28.8320  -28.4960   27.2340 C   0  0  0  0  0  1  0  0  0  0  0  0
  -27.3510  -30.8660   26.5420 N   0  0  0  0  0  0  0  0  0  0  0  0
  -27.9800  -32.0490   26.5520 C   0  0  0  0  0  0  0  0  0  0  0  0
  -28.8250  -32.3660   25.7100 O   0  0  0  0  0  0  0  0  0  0  0  0
  -26.6340  -30.6960   27.2320 H   0  0  0  0  0  0  0  0  0  0  0  0
  -26.6610  -34.1150   27.1210 C   0  0  0  0  0  1  0  0  0  0  0  0
  -27.6100  -33.0410   27.6730 C   0  0  0  0  0  3  0  0  0  0  0  0
  -29.6070  -32.7650   29.0780 C   0  0  0  0  0  1  0  0  0  0  0  0
  -28.7850  -33.6870   28.2970 N   0  0  0  0  0  0  0  0  0  0  0  0
  -28.4960  -34.4470   28.9060 H   0  0  0  0  0  0  0  0  0  0  0  0
  2  3  1  0
  3  5  1  0
  3  1  1  0
  4  2  2  0
  6  7  1  0
  6  2  1  0
  8  9  1  0
  8  7  1  0
  9 10  1  0
 10 11  1  0
 11 12  1  0
 12 13  1  0
 13 14  1  0
 14 15  1  0
 15 24  1  0
 16 24  1  0
 17 22  1  0
 18 17  1  0
 19 18  1  0
 20 19  1  0
 20 21  1  0
 21 22  1  0
 22 16  1  0
 23 16  2  0
 24 25  1  0
 26 29  1  0
 27 28  1  0
 27 26  2  0
 28 30  2  0
 29 30  1  0
 29 20  1  0
 31 28  1  0
 31 32  1  0
 33 32  2  0
 34 33  1  0
 35 36  1  0
 35 34  2  0
 36 31  2  0
 37 34  1  0
 37 38  1  0
 38 39  1  0
 39 40  2  0
 41 40  1  0
 41 45  1  0
 42 41  2  0
 43 38  2  0
 43 42  1  0
 44 43  1  0
 46 27  1  0
 46 47  1  0
 47 49  1  0
 48 46  2  0
 50 47  1  0
 51 26  1  0
 51 53  1  0
 52 51  1  0
 54  1  1  0
 54 55  1  0
 56 55  1  0
 57 56  1  0
 58 57  1  0
 59 58  1  0
 60 61  1  0
 60 59  1  0
 62 63  1  0
 62 61  1  0
 63 64  1  0
 64 66  1  0
 65 76  2  0
 66 71  1  0
 67 77  1  0
 67 75  1  0
 68 74  1  0
 68 70  1  0
 69 75  1  0
 70 69  1  0
 71 70  2  0
 72 73  1  0
 72 66  2  0
 73 68  2  0
 74 67  1  0
 75 65  1  0
 77 79  2  0
 78 77  1  0
 80 78  1  0
 81 90  2  0
 81 86  1  0
 82 78  1  0
 82 86  1  0
 83 82  1  0
 84 85  1  0
 84 83  1  0
 85 81  1  0
 86 87  2  0
 87 88  1  0
 89 88  2  0
 90 89  1  0
 91 65  1  0
 91 92  1  0
 91 96  1  0
 92 93  1  1
 92 95  1  0
 94 92  1  0
 96 97  1  0
 96 99  1  0
 97101  1  0
 98 97  2  0
101100  1  0
101103  1  0
103104  1  0
103102  1  0
M  ISO  4  16 100  24 100  63 101  64 101
M  END
>  <TORSDO>  (84) 
F 37

>  <SCORE>  (84) 
6.024

>  <name>  (84) 
89

>  <ligand_id>  (84) 
89

>  <original_smiles>  (84) 
[H]c1c([H])c([H])c2c(c1[H])C([H])([H])C([H])([H])C([H])([H])C2([H])N([H])C(=O)C1([H])N(C(=O)C([H])(N([H])C(=O)C([H])(N([H])C([H])([H])[H])C([H])([H])[H])C(C([H])([H])[H])(C([H])([H])[H])C([H])([H])[H])C([H])([H])c2c([H])c(OC([H])([H])C([H])([H])OC([H])([H])C([H])([H])OC([H])([H])C([H])([H])OC([H])([H])C([H])([H])N([H])C(=O)C([H])([H])OC([H])([H])C([H])([H])OC([H])([H])C([H])([H])OC([H])([H])C([H])([H])N([H])C(=O)N3C([H])([H])C([H])([H])C([H])([H])C([H])(n4nc(-c5c([H])c([H])c(Oc6c([H])c([H])c(F)c([H])c6F)c([H])c5[H])c(C(=O)N([H])[H])c4N([H])[H])C3([H])[H])c([H])c([H])c2C1([H])[H]

>  <smiles>  (84) 
[H]c1c([H])c([H])c2c(c1[H])C([H])([H])C([H])([H])C([H])([H])C2([H])N([H])C(=O)C1([H])N(C(=O)C([H])(N([H])C(=O)C([H])(N([H])C([H])([H])[H])C([H])([H])[H])C(C([H])([H])[H])(C([H])([H])[H])C([H])([H])[H])C([H])([H])c2c([H])c(OC([H])([H])C([H])([H])OC([H])([H])C([H])([H])OC([H])([H])C([H])([H])OC([H])([H])C([H])([H])N([H])C(=O)C([H])([H])OC([H])([H])C([H])([H])OC([H])([H])C([H])([H])OC([H])([H])C([H])([H])N([H])C(=O)N3C([H])([H])C([H])([H])C([H])([H])C([H])(n4nc(-c5c([H])c([H])c(Oc6c([H])c([H])c(F)c([H])c6F)c([H])c5[H])c(C(=O)N([H])[H])c4N([H])[H])C3([H])[H])c([H])c([H])c2C1([H])[H]

$$$$
90:0:0
     RDKit          3D

 98105  0  0  1  0  0  0  0  0999 V2000
  -32.8590  -23.3970   20.5260 C   0  0  0  0  0  2  0  0  0  0  0  0
  -32.6610  -23.6480   19.1390 O   0  0  0  0  0  0  0  0  0  0  0  0
  -33.6070  -23.0140   18.2740 C   0  0  0  0  0  2  0  0  0  0  0  0
  -33.4370  -21.4830   18.3050 C   0  0  0  0  0  2  0  0  0  0  0  0
  -32.0480  -21.1720   18.2540 O   0  0  0  0  0  0  0  0  0  0  0  0
  -31.7350  -19.9060   18.8050 C   0  0  0  0  0  2  0  0  0  0  0  0
  -31.4670  -19.9870   20.3190 C   0  0  0  0  0  2  0  0  0  0  0  0
  -30.7850  -17.7500   21.0820 C   0  0  0  0  0  0  0  0  0  0  0  0
  -31.7220  -18.6960   20.9480 N   0  0  0  0  0  0  0  0  0  0  0  0
  -29.6240  -17.9160   20.6990 O   0  0  0  0  0  0  0  0  0  0  0  0
  -32.6680  -18.5080   21.2570 H   0  0  0  0  0  0  0  0  0  0  0  0
  -31.1830  -16.4350   21.7510 C   0  0  0  0  0  2  0  0  0  0  0  0
  -30.4450  -14.6290   20.2390 C   0  0  0  0  0  0  0  0  0  0  0  0
  -30.1550  -12.3840   19.2760 C   0  0  0  0  0  2  0  0  0  0  0  0
  -29.1770  -12.3410   18.0900 C   0  0  0  0  0  2  0  0  0  0  0  0
  -27.7430  -12.1140   18.5950 C   0  0  0  0  0  2  0  0  0  0  0  0
  -27.3530  -13.1220   19.7060 C   0  0  0  0  0  3  0  0  0  0  0  0
  -28.4390  -13.1970   20.8090 C   0  0  0  0  0  2  0  0  0  0  0  0
  -29.7520  -13.4640   20.1910 N   0  0  0  0  0  0  0  0  0  0  0  0
  -31.3060  -14.9390   19.4130 O   0  0  0  0  0  0  0  0  0  0  0  0
  -30.2990  -15.3360   21.3630 N   0  0  0  0  0  0  0  0  0  0  0  0
  -29.5660  -15.0780   21.9990 H   0  0  0  0  0  0  0  0  0  0  0  0
  -24.9960  -13.6740   20.5770 C   0  0  0  0  0  0  0  0  0  0  0  0
  -23.9590  -12.8740   20.9870 C   0  0  0  0  0  0  0  0  0  0  0  0
  -24.4340  -11.5310   20.8880 C   0  0  0  0  0  0  0  0  0  0  0  0
  -26.0350  -12.8120   20.2590 N   0  0  0  0  0  0  0  0  0  0  0  0
  -25.7040  -11.5170   20.5020 N   0  0  0  0  0  0  0  0  0  0  0  0
  -23.7380  -10.2530   21.0860 C   0  0  0  0  0  0  0  0  0  0  0  0
  -24.1780   -9.3260   22.0540 C   0  0  0  0  0  3  0  0  0  0  0  0
  -23.4900   -8.1060   22.2460 C   0  0  0  0  0  3  0  0  0  0  0  0
  -22.3450   -7.8140   21.4690 C   0  0  0  0  0  0  0  0  0  0  0  0
  -21.9220   -8.7330   20.4930 C   0  0  0  0  0  3  0  0  0  0  0  0
  -22.6100   -9.9420   20.3010 C   0  0  0  0  0  3  0  0  0  0  0  0
  -21.6230   -6.6490   21.5680 O   0  0  0  0  0  0  0  0  0  0  0  0
  -21.5250   -5.9590   22.7510 C   0  0  0  0  0  0  0  0  0  0  0  0
  -20.9470   -6.5350   23.9050 C   0  0  0  0  0  3  0  0  0  0  0  0
  -20.8030   -5.7680   25.0770 C   0  0  0  0  0  3  0  0  0  0  0  0
  -21.2220   -4.4240   25.0940 C   0  0  0  0  0  0  0  0  0  0  0  0
  -21.7860   -3.8460   23.9460 C   0  0  0  0  0  3  0  0  0  0  0  0
  -21.9330   -4.6100   22.7750 C   0  0  0  0  0  0  0  0  0  0  0  0
  -22.4630   -4.0410   21.6650 F   0  0  0  0  0  0  0  0  0  0  0  0
  -21.0760   -3.6850   26.2180 F   0  0  0  0  0  0  0  0  0  0  0  0
  -22.5740  -13.3230   21.3600 C   0  0  0  0  0  0  0  0  0  0  0  0
  -21.9310  -12.6150   22.2830 N   0  0  0  0  0  0  0  0  0  0  0  0
  -22.0730  -14.3330   20.8700 O   0  0  0  0  0  0  0  0  0  0  0  0
  -22.3510  -11.8020   22.7050 H   0  0  0  0  0  0  0  0  0  0  0  0
  -21.0030  -12.8870   22.5680 H   0  0  0  0  0  0  0  0  0  0  0  0
  -25.1350  -15.0510   20.4310 N   0  0  0  0  0  0  0  0  0  0  0  0
  -24.3960  -15.7120   20.6550 H   0  0  0  0  0  0  0  0  0  0  0  0
  -25.9890  -15.5040   20.1240 H   0  0  0  0  0  0  0  0  0  0  0  0
  -31.5700  -23.6860   21.3180 C   0  0  0  0  0  2  0  0  0  0  0  0
  -30.5630  -22.6830   21.1570 O   0  0  0  0  0  0  0  0  0  0  0  0
  -29.5950  -22.9120   20.1320 C   0  0  0  0  0  2  0  0  0  0  0  0
  -28.6420  -24.0860   20.4540 C   0  0  0  0  0  2  0  0  0  0  0  0
  -27.4780  -24.0990   19.6300 O   0  0  0  0  0  0  0  0  0  0  0  0
  -27.6710  -24.4580   18.2580 C   0  0  0  0  0  2  0  0  0  0  0  0
  -28.1910  -25.9010   18.0240 C   0  0  0  0  0  2  0  0  0  0  0  0
  -28.0330  -26.8130   19.1250 O   0  0  0  0  0  0  0  0  0  0  0  0
  -24.4970  -31.5900   23.0530 C   0  0  0  0  0  0  0  0  0  0  0  0
  -26.8620  -27.5260   19.2790 C   0  0  0  0  0  0  0  0  0  0  0  0
  -23.1820  -30.4480   21.3000 C   0  0  0  0  0  3  0  0  0  0  0  0
  -24.5210  -29.0860   19.6150 C   0  0  0  0  0  0  0  0  0  0  0  0
  -25.7090  -30.7590   21.0420 C   0  0  0  0  0  2  0  0  0  0  0  0
  -25.7170  -29.4860   20.2190 C   0  0  0  0  0  0  0  0  0  0  0  0
  -26.8860  -28.7070   20.0580 C   0  0  0  0  0  3  0  0  0  0  0  0
  -25.6390  -27.1330   18.6900 C   0  0  0  0  0  3  0  0  0  0  0  0
  -24.4740  -27.9050   18.8580 C   0  0  0  0  0  3  0  0  0  0  0  0
  -23.3100  -29.9650   19.8320 C   0  0  0  0  0  2  0  0  0  0  0  0
  -24.4840  -30.9410   21.8550 N   0  0  0  0  0  0  0  0  0  0  0  0
  -23.4500  -31.8150   23.6720 O   0  0  0  0  0  0  0  0  0  0  0  0
  -22.5470  -29.3170   22.1400 C   0  0  0  0  0  0  0  0  0  0  0  0
  -21.2120  -29.1960   22.0660 N   0  0  0  0  0  0  0  0  0  0  0  0
  -23.2500  -28.5640   22.8170 O   0  0  0  0  0  0  0  0  0  0  0  0
  -20.7060  -29.8570   21.4930 H   0  0  0  0  0  0  0  0  0  0  0  0
  -17.8240  -28.0620   22.6060 C   0  0  0  0  0  0  0  0  0  0  0  0
  -20.4020  -28.1880   22.7480 C   0  0  0  0  0  3  0  0  0  0  0  0
  -20.4080  -26.8530   21.9710 C   0  0  0  0  0  2  0  0  0  0  0  0
  -19.2380  -26.7170   20.9930 C   0  0  0  0  0  2  0  0  0  0  0  0
  -17.9020  -26.8170   21.7360 C   0  0  0  0  0  2  0  0  0  0  0  0
  -18.9980  -28.7140   23.0670 C   0  0  0  0  0  0  0  0  0  0  0  0
  -18.8720  -29.8880   23.8410 C   0  0  0  0  0  3  0  0  0  0  0  0
  -17.6030  -30.4110   24.1530 C   0  0  0  0  0  3  0  0  0  0  0  0
  -16.4430  -29.7540   23.7060 C   0  0  0  0  0  3  0  0  0  0  0  0
  -16.5550  -28.5790   22.9400 C   0  0  0  0  0  3  0  0  0  0  0  0
  -25.8270  -32.1060   23.6880 C   0  0  0  0  0  3  0  0  0  0  0  0
  -26.3290  -31.2120   24.8870 C   0  0  1  0  0  0  0  0  0  0  0  0
  -25.2530  -30.9600   25.9680 C   0  0  0  0  0  1  0  0  0  0  0  0
  -26.8150  -29.8340   24.3820 C   0  0  0  0  0  1  0  0  0  0  0  0
  -27.5460  -31.8830   25.5690 C   0  0  0  0  0  1  0  0  0  0  0  0
  -25.6000  -33.4880   24.1290 N   0  0  0  0  0  0  0  0  0  0  0  0
  -25.9580  -34.5760   23.4350 C   0  0  0  0  0  0  0  0  0  0  0  0
  -26.5900  -34.5190   22.3770 O   0  0  0  0  0  0  0  0  0  0  0  0
  -25.0260  -33.6140   24.9510 H   0  0  0  0  0  0  0  0  0  0  0  0
  -24.2910  -36.4530   23.2810 C   0  0  0  0  0  1  0  0  0  0  0  0
  -25.5480  -35.9470   24.0060 C   0  0  0  0  0  3  0  0  0  0  0  0
  -27.7470  -36.6890   24.8050 C   0  0  0  0  0  1  0  0  0  0  0  0
  -26.6180  -36.9650   23.9190 N   0  0  0  0  0  0  0  0  0  0  0  0
  -26.2530  -37.8870   24.1450 H   0  0  0  0  0  0  0  0  0  0  0  0
  1 51  1  0
  2  1  1  0
  3  4  1  0
  3  2  1  0
  5  4  1  0
  5  6  1  0
  6  7  1  0
  7  9  1  0
  8 12  1  0
  9  8  1  0
  9 11  1  0
 10  8  2  0
 13 21  1  0
 14 19  1  0
 15 16  1  0
 15 14  1  0
 17 16  1  0
 17 26  1  0
 17 18  1  0
 19 13  1  0
 19 18  1  0
 20 13  2  0
 21 12  1  0
 21 22  1  0
 23 24  2  0
 24 43  1  0
 25 24  1  0
 25 28  1  0
 26 27  1  0
 26 23  1  0
 27 25  2  0
 28 29  1  0
 29 30  2  0
 31 34  1  0
 31 30  1  0
 32 31  2  0
 33 32  1  0
 33 28  2  0
 34 35  1  0
 35 40  2  0
 35 36  1  0
 36 37  2  0
 37 38  1  0
 38 42  1  0
 39 38  2  0
 40 39  1  0
 41 40  1  0
 43 44  1  0
 44 47  1  0
 44 46  1  0
 45 43  2  0
 48 23  1  0
 48 49  1  0
 50 48  1  0
 52 51  1  0
 53 54  1  0
 53 52  1  0
 55 54  1  0
 56 55  1  0
 57 56  1  0
 57 58  1  0
 58 60  1  0
 59 70  2  0
 60 65  1  0
 61 69  1  0
 61 71  1  0
 62 68  1  0
 62 64  1  0
 63 69  1  0
 64 63  1  0
 65 64  2  0
 66 67  1  0
 66 60  2  0
 67 62  2  0
 68 61  1  0
 69 59  1  0
 71 73  2  0
 72 71  1  0
 74 72  1  0
 75 84  2  0
 75 80  1  0
 76 72  1  0
 76 80  1  0
 77 76  1  0
 78 79  1  0
 78 77  1  0
 79 75  1  0
 80 81  2  0
 81 82  1  0
 83 82  2  0
 84 83  1  0
 85 59  1  0
 85 90  1  0
 85 86  1  0
 86 89  1  1
 86 87  1  0
 88 86  1  0
 90 93  1  0
 91 95  1  0
 91 90  1  0
 92 91  2  0
 95 94  1  0
 97 95  1  0
 97 98  1  0
 97 96  1  0
M  ISO  4  13 100  21 100  57 101  58 101
M  END
>  <TORSDO>  (85) 
F 31

>  <SCORE>  (85) 
-9.368

>  <name>  (85) 
90

>  <ligand_id>  (85) 
90

>  <original_smiles>  (85) 
[H]c1c([H])c([H])c2c(c1[H])C([H])([H])C([H])([H])C([H])([H])C2([H])N([H])C(=O)C1([H])N(C(=O)C([H])(N([H])C(=O)C([H])(N([H])C([H])([H])[H])C([H])([H])[H])C(C([H])([H])[H])(C([H])([H])[H])C([H])([H])[H])C([H])([H])c2c([H])c(OC([H])([H])C([H])([H])OC([H])([H])C([H])([H])OC([H])([H])C([H])([H])OC([H])([H])C([H])([H])OC([H])([H])C([H])([H])N([H])C(=O)C([H])([H])N([H])C(=O)N3C([H])([H])C([H])([H])C([H])([H])C([H])(n4nc(-c5c([H])c([H])c(Oc6c([H])c([H])c(F)c([H])c6F)c([H])c5[H])c(C(=O)N([H])[H])c4N([H])[H])C3([H])[H])c([H])c([H])c2C1([H])[H]

>  <smiles>  (85) 
[H]c1c([H])c([H])c2c(c1[H])C([H])([H])C([H])([H])C([H])([H])C2([H])N([H])C(=O)C1([H])N(C(=O)C([H])(N([H])C(=O)C([H])(N([H])C([H])([H])[H])C([H])([H])[H])C(C([H])([H])[H])(C([H])([H])[H])C([H])([H])[H])C([H])([H])c2c([H])c(OC([H])([H])C([H])([H])OC([H])([H])C([H])([H])OC([H])([H])C([H])([H])OC([H])([H])C([H])([H])OC([H])([H])C([H])([H])N([H])C(=O)C([H])([H])N([H])C(=O)N3C([H])([H])C([H])([H])C([H])([H])C([H])(n4nc(-c5c([H])c([H])c(Oc6c([H])c([H])c(F)c([H])c6F)c([H])c5[H])c(C(=O)N([H])[H])c4N([H])[H])C3([H])[H])c([H])c([H])c2C1([H])[H]

$$$$
91:0:0
     RDKit          3D

 99106  0  0  1  0  0  0  0  0999 V2000
  -28.2410  -18.3890   18.9350 C   0  0  0  0  0  0  0  0  0  0  0  0
  -28.3560  -19.7050   18.7390 N   0  0  0  0  0  0  0  0  0  0  0  0
  -27.2500  -17.8590   19.4400 O   0  0  0  0  0  0  0  0  0  0  0  0
  -29.2170  -19.9820   18.2820 H   0  0  0  0  0  0  0  0  0  0  0  0
  -27.5000  -20.7510   19.2700 C   0  0  0  0  0  2  0  0  0  0  0  0
  -28.1020  -22.1280   18.9390 C   0  0  0  0  0  2  0  0  0  0  0  0
  -29.4410  -22.3970   19.6600 C   0  0  0  0  0  2  0  0  0  0  0  0
  -30.2010  -23.6440   19.1610 C   0  0  0  0  0  2  0  0  0  0  0  0
  -29.8740  -24.9250   19.9350 C   0  0  0  0  0  2  0  0  0  0  0  0
  -28.4730  -25.4710   19.6420 C   0  0  0  0  0  2  0  0  0  0  0  0
  -28.4370  -26.8080   20.1100 O   0  0  0  0  0  0  0  0  0  0  0  0
  -24.6060  -31.8720   23.2150 C   0  0  0  0  0  0  0  0  0  0  0  0
  -27.2360  -27.4760   20.0930 C   0  0  0  0  0  0  0  0  0  0  0  0
  -23.3920  -30.4930   21.5540 C   0  0  0  0  0  3  0  0  0  0  0  0
  -24.8390  -28.9670   20.1170 C   0  0  0  0  0  0  0  0  0  0  0  0
  -25.9150  -30.8530   21.3590 C   0  0  0  0  0  2  0  0  0  0  0  0
  -25.9950  -29.4880   20.7120 C   0  0  0  0  0  0  0  0  0  0  0  0
  -27.1930  -28.7470   20.7010 C   0  0  0  0  0  3  0  0  0  0  0  0
  -26.0590  -26.9560   19.5030 C   0  0  0  0  0  3  0  0  0  0  0  0
  -24.8630  -27.6970   19.5170 C   0  0  0  0  0  3  0  0  0  0  0  0
  -23.5990  -29.8270   20.1670 C   0  0  0  0  0  2  0  0  0  0  0  0
  -24.6570  -31.0830   22.1050 N   0  0  0  0  0  0  0  0  0  0  0  0
  -23.5250  -32.1490   23.7550 O   0  0  0  0  0  0  0  0  0  0  0  0
  -22.7330  -29.4650   22.5010 C   0  0  0  0  0  0  0  0  0  0  0  0
  -21.4070  -29.3020   22.3780 N   0  0  0  0  0  0  0  0  0  0  0  0
  -23.4120  -28.8170   23.3020 O   0  0  0  0  0  0  0  0  0  0  0  0
  -20.9170  -29.8800   21.7120 H   0  0  0  0  0  0  0  0  0  0  0  0
  -18.0240  -28.1370   22.8510 C   0  0  0  0  0  0  0  0  0  0  0  0
  -20.5820  -28.3640   23.1390 C   0  0  0  0  0  3  0  0  0  0  0  0
  -20.6720  -26.9380   22.5490 C   0  0  0  0  0  2  0  0  0  0  0  0
  -19.5710  -26.6370   21.5270 C   0  0  0  0  0  2  0  0  0  0  0  0
  -18.1870  -26.7920   22.1650 C   0  0  0  0  0  2  0  0  0  0  0  0
  -19.1490  -28.8830   23.2940 C   0  0  0  0  0  0  0  0  0  0  0  0
  -18.9420  -30.1440   23.8940 C   0  0  0  0  0  3  0  0  0  0  0  0
  -17.6430  -30.6590   24.0590 C   0  0  0  0  0  3  0  0  0  0  0  0
  -16.5320  -29.9100   23.6350 C   0  0  0  0  0  3  0  0  0  0  0  0
  -16.7230  -28.6540   23.0340 C   0  0  0  0  0  3  0  0  0  0  0  0
  -25.8960  -32.4840   23.8450 C   0  0  0  0  0  3  0  0  0  0  0  0
  -26.4430  -31.6610   25.0750 C   0  0  1  0  0  0  0  0  0  0  0  0
  -25.3720  -31.3690   26.1520 C   0  0  0  0  0  1  0  0  0  0  0  0
  -27.0250  -30.3060   24.6100 C   0  0  0  0  0  1  0  0  0  0  0  0
  -27.6050  -32.4300   25.7500 C   0  0  0  0  0  1  0  0  0  0  0  0
  -25.5870  -33.8660   24.2350 N   0  0  0  0  0  0  0  0  0  0  0  0
  -25.9020  -34.9490   23.5120 C   0  0  0  0  0  0  0  0  0  0  0  0
  -26.5580  -34.8920   22.4670 O   0  0  0  0  0  0  0  0  0  0  0  0
  -25.0070  -33.9910   25.0510 H   0  0  0  0  0  0  0  0  0  0  0  0
  -24.1480  -36.7340   23.2650 C   0  0  0  0  0  1  0  0  0  0  0  0
  -25.4110  -36.3130   24.0320 C   0  0  0  0  0  3  0  0  0  0  0  0
  -27.5580  -37.1820   24.8450 C   0  0  0  0  0  1  0  0  0  0  0  0
  -26.4300  -37.3810   23.9390 N   0  0  0  0  0  0  0  0  0  0  0  0
  -26.0170  -38.2870   24.1450 H   0  0  0  0  0  0  0  0  0  0  0  0
  -29.4740  -17.5730   18.5470 C   0  0  0  0  0  2  0  0  0  0  0  0
  -30.3480  -18.3990   17.7670 O   0  0  0  0  0  0  0  0  0  0  0  0
  -31.7300  -18.1180   17.9400 C   0  0  0  0  0  2  0  0  0  0  0  0
  -32.3200  -19.0230   19.0380 C   0  0  0  0  0  2  0  0  0  0  0  0
  -31.7570  -18.6620   20.2880 O   0  0  0  0  0  0  0  0  0  0  0  0
  -32.4140  -19.2440   21.4060 C   0  0  0  0  0  2  0  0  0  0  0  0
  -31.9720  -18.4820   22.6580 C   0  0  0  0  0  2  0  0  0  0  0  0
  -32.1430  -17.1000   22.3810 O   0  0  0  0  0  0  0  0  0  0  0  0
  -31.8120  -16.2670   23.4710 C   0  0  0  0  0  2  0  0  0  0  0  0
  -31.9370  -14.8160   23.0040 C   0  0  0  0  0  2  0  0  0  0  0  0
  -30.8690  -14.2160   20.8240 C   0  0  0  0  0  0  0  0  0  0  0  0
  -30.4050  -12.3060   19.3470 C   0  0  0  0  0  2  0  0  0  0  0  0
  -29.4580  -12.5500   18.1650 C   0  0  0  0  0  2  0  0  0  0  0  0
  -27.9970  -12.3720   18.6030 C   0  0  0  0  0  2  0  0  0  0  0  0
  -27.6590  -13.2060   19.8640 C   0  0  0  0  0  3  0  0  0  0  0  0
  -28.6970  -12.9720   20.9820 C   0  0  0  0  0  2  0  0  0  0  0  0
  -30.0480  -13.2130   20.4440 N   0  0  0  0  0  0  0  0  0  0  0  0
  -31.7610  -14.6870   20.1130 O   0  0  0  0  0  0  0  0  0  0  0  0
  -30.8290  -14.3990   22.1480 N   0  0  0  0  0  0  0  0  0  0  0  0
  -30.0690  -13.9270   22.6160 H   0  0  0  0  0  0  0  0  0  0  0  0
  -25.2570  -13.8170   20.5660 C   0  0  0  0  0  0  0  0  0  0  0  0
  -24.1850  -13.0440   20.9170 C   0  0  0  0  0  0  0  0  0  0  0  0
  -24.6390  -11.6900   20.8710 C   0  0  0  0  0  0  0  0  0  0  0  0
  -26.3000  -12.9350   20.3300 N   0  0  0  0  0  0  0  0  0  0  0  0
  -25.9310  -11.6500   20.5710 N   0  0  0  0  0  0  0  0  0  0  0  0
  -23.9070  -10.4290   21.0390 C   0  0  0  0  0  0  0  0  0  0  0  0
  -24.3620   -9.4210   21.9170 C   0  0  0  0  0  3  0  0  0  0  0  0
  -23.6300   -8.2250   22.0750 C   0  0  0  0  0  3  0  0  0  0  0  0
  -22.4280   -8.0280   21.3540 C   0  0  0  0  0  0  0  0  0  0  0  0
  -21.9910   -9.0260   20.4650 C   0  0  0  0  0  3  0  0  0  0  0  0
  -22.7240  -10.2130   20.3050 C   0  0  0  0  0  3  0  0  0  0  0  0
  -21.6640   -6.8880   21.4240 O   0  0  0  0  0  0  0  0  0  0  0  0
  -21.6860   -6.0740   22.5270 C   0  0  0  0  0  0  0  0  0  0  0  0
  -21.4020   -6.5640   23.8210 C   0  0  0  0  0  3  0  0  0  0  0  0
  -21.3660   -5.6800   24.9170 C   0  0  0  0  0  3  0  0  0  0  0  0
  -21.6040   -4.3060   24.7220 C   0  0  0  0  0  0  0  0  0  0  0  0
  -21.8820   -3.8150   23.4350 C   0  0  0  0  0  3  0  0  0  0  0  0
  -21.9200   -4.6970   22.3400 C   0  0  0  0  0  0  0  0  0  0  0  0
  -22.1660   -4.2160   21.0980 F   0  0  0  0  0  0  0  0  0  0  0  0
  -21.5620   -3.4540   25.7730 F   0  0  0  0  0  0  0  0  0  0  0  0
  -22.7860  -13.5220   21.1880 C   0  0  0  0  0  0  0  0  0  0  0  0
  -22.0520  -12.8190   22.0420 N   0  0  0  0  0  0  0  0  0  0  0  0
  -22.3530  -14.5530   20.6740 O   0  0  0  0  0  0  0  0  0  0  0  0
  -22.4180  -11.9870   22.4810 H   0  0  0  0  0  0  0  0  0  0  0  0
  -21.1130  -13.1170   22.2650 H   0  0  0  0  0  0  0  0  0  0  0  0
  -25.4230  -15.1910   20.4100 N   0  0  0  0  0  0  0  0  0  0  0  0
  -24.6510  -15.8350   20.5430 H   0  0  0  0  0  0  0  0  0  0  0  0
  -26.2670  -15.6580   20.0970 H   0  0  0  0  0  0  0  0  0  0  0  0
  1  3  2  0
  2  1  1  0
  2  5  1  0
  4  2  1  0
  6  5  1  0
  6  7  1  0
  8  7  1  0
  8  9  1  0
 10  9  1  0
 10 11  1  0
 12 23  2  0
 13 11  1  0
 13 18  1  0
 14 22  1  0
 14 24  1  0
 15 21  1  0
 15 17  1  0
 16 22  1  0
 17 16  1  0
 18 17  2  0
 19 20  1  0
 19 13  2  0
 20 15  2  0
 21 14  1  0
 22 12  1  0
 24 26  2  0
 25 24  1  0
 27 25  1  0
 28 37  2  0
 28 33  1  0
 29 25  1  0
 29 33  1  0
 30 29  1  0
 31 32  1  0
 31 30  1  0
 32 28  1  0
 33 34  2  0
 34 35  1  0
 36 35  2  0
 37 36  1  0
 38 12  1  0
 38 43  1  0
 38 39  1  0
 39 42  1  1
 39 40  1  0
 41 39  1  0
 43 46  1  0
 44 48  1  0
 44 43  1  0
 45 44  2  0
 48 47  1  0
 50 48  1  0
 50 51  1  0
 50 49  1  0
 52  1  1  0
 53 54  1  0
 53 52  1  0
 54 55  1  0
 55 56  1  0
 56 57  1  0
 57 58  1  0
 59 58  1  0
 59 60  1  0
 61 60  1  0
 62 70  1  0
 63 68  1  0
 64 65  1  0
 64 63  1  0
 66 65  1  0
 66 75  1  0
 66 67  1  0
 68 62  1  0
 68 67  1  0
 69 62  2  0
 70 71  1  0
 70 61  1  0
 72 73  2  0
 73 92  1  0
 74 73  1  0
 74 77  1  0
 75 72  1  0
 75 76  1  0
 76 74  2  0
 77 78  1  0
 78 79  2  0
 80 83  1  0
 80 79  1  0
 81 80  2  0
 82 81  1  0
 82 77  2  0
 83 84  1  0
 84 85  1  0
 85 86  2  0
 87 86  1  0
 87 91  1  0
 88 87  2  0
 89 84  2  0
 89 88  1  0
 90 89  1  0
 92 93  1  0
 93 96  1  0
 93 95  1  0
 94 92  2  0
 97 98  1  0
 97 72  1  0
 99 97  1  0
M  ISO  4  10 101  11 101  62 100  70 100
M  END
>  <TORSDO>  (86) 
F 32

>  <SCORE>  (86) 
-5.112

>  <name>  (86) 
91

>  <ligand_id>  (86) 
91

>  <original_smiles>  (86) 
[H]c1c([H])c([H])c2c(c1[H])C([H])([H])C([H])([H])C([H])([H])C2([H])N([H])C(=O)C1([H])N(C(=O)C([H])(N([H])C(=O)C([H])(N([H])C([H])([H])[H])C([H])([H])[H])C(C([H])([H])[H])(C([H])([H])[H])C([H])([H])[H])C([H])([H])c2c([H])c(OC([H])([H])C([H])([H])C([H])([H])C([H])([H])C([H])([H])C([H])([H])N([H])C(=O)C([H])([H])OC([H])([H])C([H])([H])OC([H])([H])C([H])([H])OC([H])([H])C([H])([H])N([H])C(=O)N3C([H])([H])C([H])([H])C([H])([H])C([H])(n4nc(-c5c([H])c([H])c(Oc6c([H])c([H])c(F)c([H])c6F)c([H])c5[H])c(C(=O)N([H])[H])c4N([H])[H])C3([H])[H])c([H])c([H])c2C1([H])[H]

>  <smiles>  (86) 
[H]c1c([H])c([H])c2c(c1[H])C([H])([H])C([H])([H])C([H])([H])C2([H])N([H])C(=O)C1([H])N(C(=O)C([H])(N([H])C(=O)C([H])(N([H])C([H])([H])[H])C([H])([H])[H])C(C([H])([H])[H])(C([H])([H])[H])C([H])([H])[H])C([H])([H])c2c([H])c(OC([H])([H])C([H])([H])C([H])([H])C([H])([H])C([H])([H])C([H])([H])N([H])C(=O)C([H])([H])OC([H])([H])C([H])([H])OC([H])([H])C([H])([H])OC([H])([H])C([H])([H])N([H])C(=O)N3C([H])([H])C([H])([H])C([H])([H])C([H])(n4nc(-c5c([H])c([H])c(Oc6c([H])c([H])c(F)c([H])c6F)c([H])c5[H])c(C(=O)N([H])[H])c4N([H])[H])C3([H])[H])c([H])c([H])c2C1([H])[H]

$$$$
92:0:0
     RDKit          3D

106113  0  0  1  0  0  0  0  0999 V2000
  -32.0310  -20.1700   20.2450 C   0  0  0  0  0  2  0  0  0  0  0  0
  -32.5170  -21.2770   21.1980 C   0  0  0  0  0  0  0  0  0  0  0  0
  -31.6380  -21.7110   22.1080 N   0  0  0  0  0  0  0  0  0  0  0  0
  -33.6560  -21.7380   21.0950 O   0  0  0  0  0  0  0  0  0  0  0  0
  -30.7360  -21.2540   22.1490 H   0  0  0  0  0  0  0  0  0  0  0  0
  -31.8500  -22.8440   23.0050 C   0  0  0  0  0  2  0  0  0  0  0  0
  -30.8710  -23.9920   22.7030 C   0  0  0  0  0  2  0  0  0  0  0  0
  -30.6840  -24.3130   21.2080 C   0  0  0  0  0  2  0  0  0  0  0  0
  -30.2050  -25.7610   21.0170 C   0  0  0  0  0  2  0  0  0  0  0  0
  -29.7600  -26.0860   19.5860 C   0  0  0  0  0  2  0  0  0  0  0  0
  -28.2560  -25.8690   19.3690 C   0  0  0  0  0  2  0  0  0  0  0  0
  -27.7870  -26.4320   18.0270 C   0  0  0  0  0  2  0  0  0  0  0  0
  -26.4010  -26.1540   17.8760 O   0  0  0  0  0  0  0  0  0  0  0  0
  -24.0150  -30.8860   22.7120 C   0  0  0  0  0  0  0  0  0  0  0  0
  -25.4450  -27.0240   18.3440 C   0  0  0  0  0  0  0  0  0  0  0  0
  -22.3730  -30.0830   21.0440 C   0  0  0  0  0  3  0  0  0  0  0  0
  -23.3390  -28.7480   19.1050 C   0  0  0  0  0  0  0  0  0  0  0  0
  -24.8700  -30.1430   20.5010 C   0  0  0  0  0  2  0  0  0  0  0  0
  -24.6350  -28.9600   19.5920 C   0  0  0  0  0  0  0  0  0  0  0  0
  -25.6870  -28.0920   19.2400 C   0  0  0  0  0  3  0  0  0  0  0  0
  -24.1330  -26.8280   17.8620 C   0  0  0  0  0  3  0  0  0  0  0  0
  -23.0760  -27.6680   18.2490 C   0  0  0  0  0  3  0  0  0  0  0  0
  -22.2720  -29.7260   19.5370 C   0  0  0  0  0  2  0  0  0  0  0  0
  -23.7800  -30.3680   21.4750 N   0  0  0  0  0  0  0  0  0  0  0  0
  -23.0820  -31.1660   23.4760 O   0  0  0  0  0  0  0  0  0  0  0  0
  -21.7040  -28.9560   21.8630 C   0  0  0  0  0  0  0  0  0  0  0  0
  -20.3630  -28.9800   21.9220 N   0  0  0  0  0  0  0  0  0  0  0  0
  -22.3800  -28.0770   22.4030 O   0  0  0  0  0  0  0  0  0  0  0  0
  -19.8820  -29.7360   21.4520 H   0  0  0  0  0  0  0  0  0  0  0  0
  -16.9380  -28.1520   22.7150 C   0  0  0  0  0  0  0  0  0  0  0  0
  -19.5160  -28.0050   22.6060 C   0  0  0  0  0  3  0  0  0  0  0  0
  -19.3070  -26.7450   21.7360 C   0  0  0  0  0  2  0  0  0  0  0  0
  -18.0410  -26.8100   20.8760 C   0  0  0  0  0  2  0  0  0  0  0  0
  -16.8000  -26.9820   21.7560 C   0  0  0  0  0  2  0  0  0  0  0  0
  -18.2130  -28.6420   23.1010 C   0  0  0  0  0  0  0  0  0  0  0  0
  -18.2860  -29.7540   23.9680 C   0  0  0  0  0  3  0  0  0  0  0  0
  -17.1160  -30.3690   24.4490 C   0  0  0  0  0  3  0  0  0  0  0  0
  -15.8560  -29.8730   24.0730 C   0  0  0  0  0  3  0  0  0  0  0  0
  -15.7690  -28.7630   23.2130 C   0  0  0  0  0  3  0  0  0  0  0  0
  -25.4670  -31.1770   23.2140 C   0  0  0  0  0  3  0  0  0  0  0  0
  -26.0300  -30.0530   24.1680 C   0  0  1  0  0  0  0  0  0  0  0  0
  -25.0820  -29.6950   25.3360 C   0  0  0  0  0  1  0  0  0  0  0  0
  -26.3170  -28.7530   23.3810 C   0  0  0  0  0  1  0  0  0  0  0  0
  -27.3830  -30.5060   24.7650 C   0  0  0  0  0  1  0  0  0  0  0  0
  -25.4430  -32.4780   23.8950 N   0  0  0  0  0  0  0  0  0  0  0  0
  -25.8850  -33.6230   23.3570 C   0  0  0  0  0  0  0  0  0  0  0  0
  -26.4280  -33.6800   22.2500 O   0  0  0  0  0  0  0  0  0  0  0  0
  -24.9630  -32.5190   24.7810 H   0  0  0  0  0  0  0  0  0  0  0  0
  -24.4870  -35.6930   23.6360 C   0  0  0  0  0  1  0  0  0  0  0  0
  -25.6930  -34.9110   24.1790 C   0  0  0  0  0  3  0  0  0  0  0  0
  -28.0100  -35.2100   24.9300 C   0  0  0  0  0  1  0  0  0  0  0  0
  -26.8880  -35.7840   24.1910 N   0  0  0  0  0  0  0  0  0  0  0  0
  -26.6700  -36.6900   24.5970 H   0  0  0  0  0  0  0  0  0  0  0  0
  -32.9180  -20.0270   19.1320 O   0  0  0  0  0  0  0  0  0  0  0  0
  -32.9250  -21.1350   18.2360 C   0  0  0  0  0  2  0  0  0  0  0  0
  -32.0190  -20.8380   17.0310 C   0  0  0  0  0  2  0  0  0  0  0  0
  -32.2390  -21.7900   15.9990 O   0  0  0  0  0  0  0  0  0  0  0  0
  -31.6500  -23.0620   16.2510 C   0  0  0  0  0  2  0  0  0  0  0  0
  -30.1440  -23.0230   15.9410 C   0  0  0  0  0  2  0  0  0  0  0  0
  -29.4270  -22.0030   16.6270 O   0  0  0  0  0  0  0  0  0  0  0  0
  -29.2440  -22.2590   18.0160 C   0  0  0  0  0  2  0  0  0  0  0  0
  -28.5980  -21.0220   18.6480 C   0  0  0  0  0  2  0  0  0  0  0  0
  -29.4750  -19.9200   18.4620 O   0  0  0  0  0  0  0  0  0  0  0  0
  -28.8110  -18.6660   18.3540 C   0  0  0  0  0  2  0  0  0  0  0  0
  -29.8130  -17.6390   17.7950 C   0  0  0  0  0  2  0  0  0  0  0  0
  -30.4580  -16.8320   18.7760 O   0  0  0  0  0  0  0  0  0  0  0  0
  -31.1850  -17.5510   19.7700 C   0  0  0  0  0  2  0  0  0  0  0  0
  -32.2090  -16.6300   20.4470 C   0  0  0  0  0  2  0  0  0  0  0  0
  -32.1940  -14.1630   20.1200 C   0  0  0  0  0  0  0  0  0  0  0  0
  -31.6410  -11.8670   19.4080 C   0  0  0  0  0  2  0  0  0  0  0  0
  -30.7240  -11.9350   18.1710 C   0  0  0  0  0  2  0  0  0  0  0  0
  -29.2480  -12.0520   18.5990 C   0  0  0  0  0  2  0  0  0  0  0  0
  -29.0170  -13.1680   19.6540 C   0  0  0  0  0  3  0  0  0  0  0  0
  -30.0430  -13.0450   20.8000 C   0  0  0  0  0  2  0  0  0  0  0  0
  -31.3930  -13.0720   20.2100 N   0  0  0  0  0  0  0  0  0  0  0  0
  -33.2860  -14.1640   19.5450 O   0  0  0  0  0  0  0  0  0  0  0  0
  -31.6740  -15.2810   20.6340 N   0  0  0  0  0  0  0  0  0  0  0  0
  -30.7410  -15.2080   21.0130 H   0  0  0  0  0  0  0  0  0  0  0  0
  -26.8350  -14.2070   20.5430 C   0  0  0  0  0  0  0  0  0  0  0  0
  -25.6260  -13.6570   20.8640 C   0  0  0  0  0  0  0  0  0  0  0  0
  -25.7660  -12.2510   20.6570 C   0  0  0  0  0  0  0  0  0  0  0  0
  -27.6480  -13.1510   20.1600 N   0  0  0  0  0  0  0  0  0  0  0  0
  -27.0050  -11.9620   20.2860 N   0  0  0  0  0  0  0  0  0  0  0  0
  -24.7780  -11.1700   20.7400 C   0  0  0  0  0  0  0  0  0  0  0  0
  -25.0050  -10.0220   21.5300 C   0  0  0  0  0  3  0  0  0  0  0  0
  -24.0300   -9.0050   21.6090 C   0  0  0  0  0  3  0  0  0  0  0  0
  -22.8140   -9.1300   20.8960 C   0  0  0  0  0  0  0  0  0  0  0  0
  -22.6020  -10.2650   20.0950 C   0  0  0  0  0  3  0  0  0  0  0  0
  -23.5760  -11.2740   20.0120 C   0  0  0  0  0  3  0  0  0  0  0  0
  -21.8230   -8.1760   20.8910 O   0  0  0  0  0  0  0  0  0  0  0  0
  -21.6350   -7.3280   21.9530 C   0  0  0  0  0  0  0  0  0  0  0  0
  -21.3770   -7.8110   23.2550 C   0  0  0  0  0  3  0  0  0  0  0  0
  -21.1160   -6.9060   24.3030 C   0  0  0  0  0  3  0  0  0  0  0  0
  -21.1060   -5.5210   24.0540 C   0  0  0  0  0  0  0  0  0  0  0  0
  -21.3600   -5.0370   22.7570 C   0  0  0  0  0  3  0  0  0  0  0  0
  -21.6200   -5.9380   21.7110 C   0  0  0  0  0  0  0  0  0  0  0  0
  -21.8400   -5.4690   20.4590 F   0  0  0  0  0  0  0  0  0  0  0  0
  -20.8500   -4.6520   25.0600 F   0  0  0  0  0  0  0  0  0  0  0  0
  -24.3800  -14.3970   21.2630 C   0  0  0  0  0  0  0  0  0  0  0  0
  -23.5470  -13.7830   22.0940 N   0  0  0  0  0  0  0  0  0  0  0  0
  -24.1670  -15.5470   20.8790 O   0  0  0  0  0  0  0  0  0  0  0  0
  -23.7350  -12.8460   22.4210 H   0  0  0  0  0  0  0  0  0  0  0  0
  -22.7090  -14.2520   22.4090 H   0  0  0  0  0  0  0  0  0  0  0  0
  -27.3140  -15.5120   20.5300 N   0  0  0  0  0  0  0  0  0  0  0  0
  -26.7460  -16.3090   20.7960 H   0  0  0  0  0  0  0  0  0  0  0  0
  -28.2820  -15.7470   20.3510 H   0  0  0  0  0  0  0  0  0  0  0  0
  1  2  1  0
  2  3  1  0
  3  5  1  0
  3  6  1  0
  4  2  2  0
  7  6  1  0
  8  7  1  0
  9  8  1  0
 10  9  1  0
 11 10  1  0
 12 11  1  0
 13 12  1  0
 13 15  1  0
 14 25  2  0
 15 20  1  0
 16 24  1  0
 16 26  1  0
 17 23  1  0
 17 19  1  0
 18 24  1  0
 19 18  1  0
 20 19  2  0
 21 22  1  0
 21 15  2  0
 22 17  2  0
 23 16  1  0
 24 14  1  0
 26 27  1  0
 26 28  2  0
 29 27  1  0
 30 35  2  0
 30 39  1  0
 31 27  1  0
 31 35  1  0
 32 31  1  0
 33 32  1  0
 33 34  1  0
 34 30  1  0
 35 36  1  0
 36 37  2  0
 38 37  1  0
 39 38  2  0
 40 14  1  0
 40 45  1  0
 40 41  1  0
 41 44  1  1
 41 42  1  0
 43 41  1  0
 45 48  1  0
 46 45  1  0
 46 50  1  0
 47 46  2  0
 50 49  1  0
 50 52  1  0
 52 53  1  0
 52 51  1  0
 54  1  1  0
 55 54  1  0
 56 55  1  0
 57 58  1  0
 57 56  1  0
 59 58  1  0
 59 60  1  0
 60 61  1  0
 61 62  1  0
 63 62  1  0
 64 63  1  0
 65 64  1  0
 65 66  1  0
 66 67  1  0
 67 68  1  0
 68 77  1  0
 69 75  1  0
 69 77  1  0
 70 75  1  0
 71 72  1  0
 71 70  1  0
 73 72  1  0
 73 82  1  0
 73 74  1  0
 75 74  1  0
 76 69  2  0
 77 78  1  0
 79 80  2  0
 80 99  1  0
 81 84  1  0
 81 80  1  0
 82 83  1  0
 82 79  1  0
 83 81  2  0
 84 85  1  0
 85 86  2  0
 87 86  1  0
 88 87  2  0
 89 88  1  0
 89 84  2  0
 90 87  1  0
 90 91  1  0
 91 92  1  0
 92 93  2  0
 94 93  1  0
 94 98  1  0
 95 94  2  0
 96 91  2  0
 96 95  1  0
 97 96  1  0
 99100  1  0
100103  1  0
100102  1  0
101 99  2  0
104 79  1  0
104105  1  0
106104  1  0
M  ISO  4  12 101  13 101  69 100  77 100
M  END
>  <TORSDO>  (87) 
F 39

>  <SCORE>  (87) 
-3.895

>  <name>  (87) 
92

>  <ligand_id>  (87) 
92

>  <original_smiles>  (87) 
[H]c1c([H])c([H])c2c(c1[H])C([H])([H])C([H])([H])C([H])([H])C2([H])N([H])C(=O)C1([H])N(C(=O)C([H])(N([H])C(=O)C([H])(N([H])C([H])([H])[H])C([H])([H])[H])C(C([H])([H])[H])(C([H])([H])[H])C([H])([H])[H])C([H])([H])c2c([H])c(OC([H])([H])C([H])([H])C([H])([H])C([H])([H])C([H])([H])C([H])([H])C([H])([H])N([H])C(=O)C([H])([H])OC([H])([H])C([H])([H])OC([H])([H])C([H])([H])OC([H])([H])C([H])([H])OC([H])([H])C([H])([H])OC([H])([H])C([H])([H])N([H])C(=O)N3C([H])([H])C([H])([H])C([H])([H])C([H])(n4nc(-c5c([H])c([H])c(Oc6c([H])c([H])c(F)c([H])c6F)c([H])c5[H])c(C(=O)N([H])[H])c4N([H])[H])C3([H])[H])c([H])c([H])c2C1([H])[H]

>  <smiles>  (87) 
[H]c1c([H])c([H])c2c(c1[H])C([H])([H])C([H])([H])C([H])([H])C2([H])N([H])C(=O)C1([H])N(C(=O)C([H])(N([H])C(=O)C([H])(N([H])C([H])([H])[H])C([H])([H])[H])C(C([H])([H])[H])(C([H])([H])[H])C([H])([H])[H])C([H])([H])c2c([H])c(OC([H])([H])C([H])([H])C([H])([H])C([H])([H])C([H])([H])C([H])([H])C([H])([H])N([H])C(=O)C([H])([H])OC([H])([H])C([H])([H])OC([H])([H])C([H])([H])OC([H])([H])C([H])([H])OC([H])([H])C([H])([H])OC([H])([H])C([H])([H])N([H])C(=O)N3C([H])([H])C([H])([H])C([H])([H])C([H])(n4nc(-c5c([H])c([H])c(Oc6c([H])c([H])c(F)c([H])c6F)c([H])c5[H])c(C(=O)N([H])[H])c4N([H])[H])C3([H])[H])c([H])c([H])c2C1([H])[H]

$$$$
93:0:0
     RDKit          3D

113120  0  0  1  0  0  0  0  0999 V2000
  -22.1230  -25.0760   18.7560 C   0  0  0  0  0  2  0  0  0  0  0  0
  -21.6210  -23.8260   18.3100 O   0  0  0  0  0  0  0  0  0  0  0  0
  -20.8350  -23.8950   17.1320 C   0  0  0  0  0  2  0  0  0  0  0  0
  -20.5990  -22.4630   16.6350 C   0  0  0  0  0  2  0  0  0  0  0  0
  -21.8780  -21.9090   16.3580 O   0  0  0  0  0  0  0  0  0  0  0  0
  -21.8100  -20.5930   15.8300 C   0  0  0  0  0  2  0  0  0  0  0  0
  -23.1890  -19.9370   15.9540 C   0  0  0  0  0  2  0  0  0  0  0  0
  -23.4510  -19.6140   17.3190 O   0  0  0  0  0  0  0  0  0  0  0  0
  -24.5670  -18.7420   17.4510 C   0  0  0  0  0  2  0  0  0  0  0  0
  -24.8300  -18.3700   18.9170 C   0  0  0  0  0  2  0  0  0  0  0  0
  -25.8620  -19.1880   19.4740 O   0  0  0  0  0  0  0  0  0  0  0  0
  -26.5670  -18.5390   20.5300 C   0  0  0  0  0  2  0  0  0  0  0  0
  -27.7670  -19.3690   21.0100 C   0  0  0  0  0  2  0  0  0  0  0  0
  -28.7530  -19.4420   19.9870 O   0  0  0  0  0  0  0  0  0  0  0  0
  -30.0800  -19.5410   20.4920 C   0  0  0  0  0  2  0  0  0  0  0  0
  -30.7520  -18.1600   20.4750 C   0  0  0  0  0  2  0  0  0  0  0  0
  -30.0630  -17.2130   21.2860 O   0  0  0  0  0  0  0  0  0  0  0  0
  -30.5480  -17.0720   22.6190 C   0  0  0  0  0  2  0  0  0  0  0  0
  -31.3230  -15.7490   22.7770 C   0  0  0  0  0  2  0  0  0  0  0  0
  -30.8210  -14.2460   20.8310 C   0  0  0  0  0  0  0  0  0  0  0  0
  -30.4270  -12.2800   19.3940 C   0  0  0  0  0  2  0  0  0  0  0  0
  -29.4960  -12.5590   18.2070 C   0  0  0  0  0  2  0  0  0  0  0  0
  -28.0250  -12.3730   18.6090 C   0  0  0  0  0  2  0  0  0  0  0  0
  -27.6720  -13.1940   19.8740 C   0  0  0  0  0  3  0  0  0  0  0  0
  -28.6900  -12.9330   21.0020 C   0  0  0  0  0  2  0  0  0  0  0  0
  -30.0580  -13.1780   20.4980 N   0  0  0  0  0  0  0  0  0  0  0  0
  -31.7270  -14.6950   20.1250 O   0  0  0  0  0  0  0  0  0  0  0  0
  -30.6400  -14.6450   22.1000 N   0  0  0  0  0  0  0  0  0  0  0  0
  -29.9680  -14.1170   22.6370 H   0  0  0  0  0  0  0  0  0  0  0  0
  -25.2680  -13.8060   20.5680 C   0  0  0  0  0  0  0  0  0  0  0  0
  -24.1870  -13.0380   20.9110 C   0  0  0  0  0  0  0  0  0  0  0  0
  -24.6430  -11.6870   20.8650 C   0  0  0  0  0  0  0  0  0  0  0  0
  -26.3080  -12.9230   20.3250 N   0  0  0  0  0  0  0  0  0  0  0  0
  -25.9330  -11.6420   20.5580 N   0  0  0  0  0  0  0  0  0  0  0  0
  -23.9050  -10.4290   21.0350 C   0  0  0  0  0  0  0  0  0  0  0  0
  -24.3610   -9.4220   21.9140 C   0  0  0  0  0  3  0  0  0  0  0  0
  -23.6310   -8.2240   22.0720 C   0  0  0  0  0  3  0  0  0  0  0  0
  -22.4300   -8.0270   21.3480 C   0  0  0  0  0  0  0  0  0  0  0  0
  -21.9890   -9.0250   20.4620 C   0  0  0  0  0  3  0  0  0  0  0  0
  -22.7230  -10.2120   20.3020 C   0  0  0  0  0  3  0  0  0  0  0  0
  -21.6640   -6.8880   21.4220 O   0  0  0  0  0  0  0  0  0  0  0  0
  -21.6880   -6.0750   22.5250 C   0  0  0  0  0  0  0  0  0  0  0  0
  -21.4070   -6.5640   23.8200 C   0  0  0  0  0  3  0  0  0  0  0  0
  -21.3690   -5.6760   24.9130 C   0  0  0  0  0  3  0  0  0  0  0  0
  -21.6050   -4.3030   24.7170 C   0  0  0  0  0  0  0  0  0  0  0  0
  -21.8830   -3.8130   23.4290 C   0  0  0  0  0  3  0  0  0  0  0  0
  -21.9210   -4.6970   22.3360 C   0  0  0  0  0  0  0  0  0  0  0  0
  -22.1640   -4.2140   21.0940 F   0  0  0  0  0  0  0  0  0  0  0  0
  -21.5610   -3.4540   25.7690 F   0  0  0  0  0  0  0  0  0  0  0  0
  -22.7920  -13.5270   21.1750 C   0  0  0  0  0  0  0  0  0  0  0  0
  -22.0520  -12.8300   22.0350 N   0  0  0  0  0  0  0  0  0  0  0  0
  -22.3670  -14.5620   20.6680 O   0  0  0  0  0  0  0  0  0  0  0  0
  -22.4120  -11.9960   22.4730 H   0  0  0  0  0  0  0  0  0  0  0  0
  -21.1170  -13.1370   22.2520 H   0  0  0  0  0  0  0  0  0  0  0  0
  -25.4510  -15.1740   20.4290 N   0  0  0  0  0  0  0  0  0  0  0  0
  -24.7070  -15.8410   20.5910 H   0  0  0  0  0  0  0  0  0  0  0  0
  -26.3410  -15.5940   20.1980 H   0  0  0  0  0  0  0  0  0  0  0  0
  -23.0550  -24.7660   19.9380 C   0  0  0  0  0  2  0  0  0  0  0  0
  -23.1510  -25.8280   20.8820 O   0  0  0  0  0  0  0  0  0  0  0  0
  -24.2120  -25.7320   21.8450 C   0  0  0  0  0  2  0  0  0  0  0  0
  -23.8110  -25.5030   23.3220 C   0  0  0  0  0  2  0  0  0  0  0  0
  -23.6880  -24.1270   23.6580 O   0  0  0  0  0  0  0  0  0  0  0  0
  -22.5060  -23.4890   23.1960 C   0  0  0  0  0  2  0  0  0  0  0  0
  -22.8610  -22.1190   22.5800 C   0  0  0  0  0  2  0  0  0  0  0  0
  -23.8250  -22.2450   21.5320 O   0  0  0  0  0  0  0  0  0  0  0  0
  -25.1880  -22.1250   21.9440 C   0  0  0  0  0  2  0  0  0  0  0  0
  -26.1210  -22.7310   20.8790 C   0  0  0  0  0  0  0  0  0  0  0  0
  -27.1730  -23.4480   21.3190 N   0  0  0  0  0  0  0  0  0  0  0  0
  -25.8670  -22.5970   19.6820 O   0  0  0  0  0  0  0  0  0  0  0  0
  -27.3230  -23.4880   22.3200 H   0  0  0  0  0  0  0  0  0  0  0  0
  -28.0480  -24.2840   20.4880 C   0  0  0  0  0  2  0  0  0  0  0  0
  -28.2490  -25.6860   21.1080 C   0  0  0  0  0  2  0  0  0  0  0  0
  -28.3480  -26.7050   20.1090 O   0  0  0  0  0  0  0  0  0  0  0  0
  -24.6090  -31.8740   23.2180 C   0  0  0  0  0  0  0  0  0  0  0  0
  -27.2210  -27.4830   20.0610 C   0  0  0  0  0  0  0  0  0  0  0  0
  -23.3910  -30.4970   21.5600 C   0  0  0  0  0  3  0  0  0  0  0  0
  -24.8420  -28.9900   20.0900 C   0  0  0  0  0  0  0  0  0  0  0  0
  -25.9180  -30.8450   21.3700 C   0  0  0  0  0  2  0  0  0  0  0  0
  -25.9930  -29.4880   20.7110 C   0  0  0  0  0  0  0  0  0  0  0  0
  -27.1890  -28.7430   20.6960 C   0  0  0  0  0  3  0  0  0  0  0  0
  -26.0700  -27.0030   19.4080 C   0  0  0  0  0  3  0  0  0  0  0  0
  -24.8840  -27.7620   19.4080 C   0  0  0  0  0  3  0  0  0  0  0  0
  -23.5950  -29.8400   20.1690 C   0  0  0  0  0  2  0  0  0  0  0  0
  -24.6570  -31.0860   22.1080 N   0  0  0  0  0  0  0  0  0  0  0  0
  -23.5310  -32.1540   23.7580 O   0  0  0  0  0  0  0  0  0  0  0  0
  -22.7340  -29.4690   22.5100 C   0  0  0  0  0  0  0  0  0  0  0  0
  -21.4040  -29.3220   22.4010 N   0  0  0  0  0  0  0  0  0  0  0  0
  -23.4190  -28.8180   23.3050 O   0  0  0  0  0  0  0  0  0  0  0  0
  -20.9170  -29.9180   21.7470 H   0  0  0  0  0  0  0  0  0  0  0  0
  -18.0140  -28.1460   22.8650 C   0  0  0  0  0  0  0  0  0  0  0  0
  -20.5660  -28.3910   23.1600 C   0  0  0  0  0  3  0  0  0  0  0  0
  -20.6400  -26.9710   22.5750 C   0  0  0  0  0  2  0  0  0  0  0  0
  -19.5580  -26.6670   21.5400 C   0  0  0  0  0  2  0  0  0  0  0  0
  -18.1820  -26.7940   22.1930 C   0  0  0  0  0  2  0  0  0  0  0  0
  -19.1340  -28.9010   23.3030 C   0  0  0  0  0  0  0  0  0  0  0  0
  -18.9260  -30.1620   23.9010 C   0  0  0  0  0  3  0  0  0  0  0  0
  -17.6260  -30.6730   24.0600 C   0  0  0  0  0  3  0  0  0  0  0  0
  -16.5180  -29.9170   23.6370 C   0  0  0  0  0  3  0  0  0  0  0  0
  -16.7120  -28.6540   23.0480 C   0  0  0  0  0  3  0  0  0  0  0  0
  -25.9020  -32.4860   23.8470 C   0  0  0  0  0  3  0  0  0  0  0  0
  -25.5910  -33.8680   24.2410 N   0  0  0  0  0  0  0  0  0  0  0  0
  -25.9030  -34.9500   23.5170 C   0  0  0  0  0  0  0  0  0  0  0  0
  -26.5570  -34.8950   22.4730 O   0  0  0  0  0  0  0  0  0  0  0  0
  -25.0130  -33.9940   25.0600 H   0  0  0  0  0  0  0  0  0  0  0  0
  -24.1470  -36.7280   23.2620 C   0  0  0  0  0  1  0  0  0  0  0  0
  -25.4090  -36.3130   24.0360 C   0  0  0  0  0  3  0  0  0  0  0  0
  -27.5580  -37.1800   24.8480 C   0  0  0  0  0  1  0  0  0  0  0  0
  -26.4280  -37.3800   23.9430 N   0  0  0  0  0  0  0  0  0  0  0  0
  -26.0180  -38.2870   24.1440 H   0  0  0  0  0  0  0  0  0  0  0  0
  -26.4460  -31.6610   25.0760 C   0  0  1  0  0  0  0  0  0  0  0  0
  -25.3750  -31.3740   26.1520 C   0  0  0  0  0  1  0  0  0  0  0  0
  -27.0230  -30.3020   24.6110 C   0  0  0  0  0  1  0  0  0  0  0  0
  -27.6020  -32.4350   25.7560 C   0  0  0  0  0  1  0  0  0  0  0  0
  1 58  1  0
  2  1  1  0
  3  2  1  0
  4  3  1  0
  5  4  1  0
  6  7  1  0
  6  5  1  0
  7  8  1  0
  8  9  1  0
  9 10  1  0
 10 11  1  0
 11 12  1  0
 12 13  1  0
 14 15  1  0
 14 13  1  0
 16 15  1  0
 16 17  1  0
 17 18  1  0
 18 19  1  0
 20 28  1  0
 21 26  1  0
 22 23  1  0
 22 21  1  0
 24 23  1  0
 24 33  1  0
 24 25  1  0
 26 20  1  0
 26 25  1  0
 27 20  2  0
 28 29  1  0
 28 19  1  0
 30 31  2  0
 31 50  1  0
 32 31  1  0
 32 35  1  0
 33 34  1  0
 33 30  1  0
 34 32  2  0
 35 36  1  0
 36 37  2  0
 38 41  1  0
 38 37  1  0
 39 38  2  0
 40 39  1  0
 40 35  2  0
 41 42  1  0
 42 43  1  0
 43 44  2  0
 45 44  1  0
 45 49  1  0
 46 45  2  0
 47 42  2  0
 47 46  1  0
 48 47  1  0
 50 51  1  0
 51 54  1  0
 51 53  1  0
 52 50  2  0
 55 30  1  0
 55 56  1  0
 57 55  1  0
 58 59  1  0
 59 60  1  0
 60 61  1  0
 61 62  1  0
 63 62  1  0
 64 63  1  0
 65 66  1  0
 65 64  1  0
 67 68  1  0
 67 66  1  0
 68 70  1  0
 69 67  2  0
 71 72  1  0
 71 68  1  0
 73 72  1  0
 74 85  2  0
 75 73  1  0
 75 80  1  0
 76 84  1  0
 76 86  1  0
 77 83  1  0
 77 79  1  0
 78 84  1  0
 79 78  1  0
 80 79  2  0
 81 75  2  0
 82 81  1  0
 82 77  2  0
 83 76  1  0
 84 74  1  0
 86 88  2  0
 87 86  1  0
 89 87  1  0
 90 99  2  0
 90 95  1  0
 91 87  1  0
 91 95  1  0
 92 91  1  0
 93 94  1  0
 93 92  1  0
 94 90  1  0
 95 96  2  0
 96 97  1  0
 98 97  2  0
 99 98  1  0
100 74  1  0
100101  1  0
100110  1  0
101104  1  0
102106  1  0
102101  1  0
103102  2  0
106105  1  0
108106  1  0
108109  1  0
108107  1  0
110113  1  1
110111  1  0
112110  1  0
M  ISO  4  20 100  28 100  72 101  73 101
M  END
>  <TORSDO>  (88) 
F 46

>  <SCORE>  (88) 
4.077

>  <name>  (88) 
93

>  <ligand_id>  (88) 
93

>  <original_smiles>  (88) 
[H]c1c([H])c([H])c2c(c1[H])C([H])([H])C([H])([H])C([H])([H])C2([H])N([H])C(=O)C1([H])N(C(=O)C([H])(N([H])C(=O)C([H])(N([H])C([H])([H])[H])C([H])([H])[H])C(C([H])([H])[H])(C([H])([H])[H])C([H])([H])[H])C([H])([H])c2c([H])c(OC([H])([H])C([H])([H])N([H])C(=O)C([H])([H])OC([H])([H])C([H])([H])OC([H])([H])C([H])([H])OC([H])([H])C([H])([H])OC([H])([H])C([H])([H])OC([H])([H])C([H])([H])OC([H])([H])C([H])([H])OC([H])([H])C([H])([H])OC([H])([H])C([H])([H])OC([H])([H])C([H])([H])N([H])C(=O)N3C([H])([H])C([H])([H])C([H])([H])C([H])(n4nc(-c5c([H])c([H])c(Oc6c([H])c([H])c(F)c([H])c6F)c([H])c5[H])c(C(=O)N([H])[H])c4N([H])[H])C3([H])[H])c([H])c([H])c2C1([H])[H]

>  <smiles>  (88) 
[H]c1c([H])c([H])c2c(c1[H])C([H])([H])C([H])([H])C([H])([H])C2([H])N([H])C(=O)C1([H])N(C(=O)C([H])(N([H])C(=O)C([H])(N([H])C([H])([H])[H])C([H])([H])[H])C(C([H])([H])[H])(C([H])([H])[H])C([H])([H])[H])C([H])([H])c2c([H])c(OC([H])([H])C([H])([H])N([H])C(=O)C([H])([H])OC([H])([H])C([H])([H])OC([H])([H])C([H])([H])OC([H])([H])C([H])([H])OC([H])([H])C([H])([H])OC([H])([H])C([H])([H])OC([H])([H])C([H])([H])OC([H])([H])C([H])([H])OC([H])([H])C([H])([H])OC([H])([H])C([H])([H])N([H])C(=O)N3C([H])([H])C([H])([H])C([H])([H])C([H])(n4nc(-c5c([H])c([H])c(Oc6c([H])c([H])c(F)c([H])c6F)c([H])c5[H])c(C(=O)N([H])[H])c4N([H])[H])C3([H])[H])c([H])c([H])c2C1([H])[H]

$$$$
94:0:0
     RDKit          3D

104111  0  0  1  0  0  0  0  0999 V2000
  -27.6450  -13.9970   23.5880 C   0  0  0  0  0  2  0  0  0  0  0  0
  -27.0600  -12.6160   24.0260 C   0  0  0  0  0  2  0  0  0  0  0  0
  -26.9650  -11.6390   22.9510 O   0  0  0  0  0  0  0  0  0  0  0  0
  -27.8550  -10.5050   22.9720 C   0  0  0  0  0  2  0  0  0  0  0  0
  -27.8230   -9.3510   21.8750 C   0  0  0  0  0  2  0  0  0  0  0  0
  -27.8000   -9.6780   20.4650 O   0  0  0  0  0  0  0  0  0  0  0  0
  -26.8250   -9.0130   19.5970 C   0  0  0  0  0  2  0  0  0  0  0  0
  -26.4490   -9.6750   18.1800 C   0  0  0  0  0  2  0  0  0  0  0  0
  -25.7490  -10.9660   18.0860 O   0  0  0  0  0  0  0  0  0  0  0  0
  -25.7530  -11.6850   16.8170 C   0  0  0  0  0  2  0  0  0  0  0  0
  -25.7910  -13.2960   16.7530 C   0  0  0  0  0  2  0  0  0  0  0  0
  -26.6600  -14.1620   17.5580 O   0  0  0  0  0  0  0  0  0  0  0  0
  -27.9110  -14.7300   17.0570 C   0  0  0  0  0  2  0  0  0  0  0  0
  -28.8070  -15.5640   18.0980 C   0  0  0  0  0  2  0  0  0  0  0  0
  -30.6150  -14.5600   19.8590 C   0  0  0  0  0  0  0  0  0  0  0  0
  -30.5780  -12.1810   19.4750 C   0  0  0  0  0  2  0  0  0  0  0  0
  -29.7110  -12.1650   18.2310 C   0  0  0  0  0  2  0  0  0  0  0  0
  -28.2500  -12.2270   18.6970 C   0  0  0  0  0  2  0  0  0  0  0  0
  -27.7360  -13.1520   19.8820 C   0  0  0  0  0  3  0  0  0  0  0  0
  -28.8650  -13.1690   20.9070 C   0  0  0  0  0  2  0  0  0  0  0  0
  -30.1120  -13.3540   20.1990 N   0  0  0  0  0  0  0  0  0  0  0  0
  -31.7740  -14.8430   20.1460 O   0  0  0  0  0  0  0  0  0  0  0  0
  -30.1240  -15.0700   18.6710 N   0  0  0  0  0  0  0  0  0  0  0  0
  -30.8890  -15.5200   18.1780 H   0  0  0  0  0  0  0  0  0  0  0  0
  -25.2900  -13.8080   20.5790 C   0  0  0  0  0  0  0  0  0  0  0  0
  -24.1970  -13.0630   20.9230 C   0  0  0  0  0  0  0  0  0  0  0  0
  -24.6190  -11.7020   20.8790 C   0  0  0  0  0  0  0  0  0  0  0  0
  -26.3400  -12.9150   20.3400 N   0  0  0  0  0  0  0  0  0  0  0  0
  -25.8990  -11.6610   20.5750 N   0  0  0  0  0  0  0  0  0  0  0  0
  -23.8830  -10.4330   21.0560 C   0  0  0  0  0  0  0  0  0  0  0  0
  -24.3070   -9.4220   21.9580 C   0  0  0  0  0  3  0  0  0  0  0  0
  -23.5830   -8.2190   22.0980 C   0  0  0  0  0  3  0  0  0  0  0  0
  -22.4000   -8.0240   21.3570 C   0  0  0  0  0  0  0  0  0  0  0  0
  -21.9980   -8.9960   20.4300 C   0  0  0  0  0  3  0  0  0  0  0  0
  -22.7240  -10.1920   20.2800 C   0  0  0  0  0  3  0  0  0  0  0  0
  -21.6340   -6.8940   21.4470 O   0  0  0  0  0  0  0  0  0  0  0  0
  -21.6580   -6.0870   22.5550 C   0  0  0  0  0  0  0  0  0  0  0  0
  -21.3790   -6.5700   23.8600 C   0  0  0  0  0  3  0  0  0  0  0  0
  -21.3590   -5.6870   24.9550 C   0  0  0  0  0  3  0  0  0  0  0  0
  -21.5820   -4.3090   24.7580 C   0  0  0  0  0  0  0  0  0  0  0  0
  -21.8370   -3.8230   23.4630 C   0  0  0  0  0  3  0  0  0  0  0  0
  -21.8790   -4.7060   22.3730 C   0  0  0  0  0  0  0  0  0  0  0  0
  -22.1360   -4.2240   21.1320 F   0  0  0  0  0  0  0  0  0  0  0  0
  -21.5580   -3.4530   25.8040 F   0  0  0  0  0  0  0  0  0  0  0  0
  -22.7950  -13.5490   21.1930 C   0  0  0  0  0  0  0  0  0  0  0  0
  -22.0490  -12.8670   22.0590 N   0  0  0  0  0  0  0  0  0  0  0  0
  -22.3750  -14.5770   20.6540 O   0  0  0  0  0  0  0  0  0  0  0  0
  -22.4030  -12.0580   22.5490 H   0  0  0  0  0  0  0  0  0  0  0  0
  -21.0970  -13.1590   22.2520 H   0  0  0  0  0  0  0  0  0  0  0  0
  -25.4880  -15.1870   20.4310 N   0  0  0  0  0  0  0  0  0  0  0  0
  -24.7460  -15.8750   20.4970 H   0  0  0  0  0  0  0  0  0  0  0  0
  -26.3670  -15.5770   20.1230 H   0  0  0  0  0  0  0  0  0  0  0  0
  -27.4050  -15.3870   24.2910 C   0  0  0  0  0  2  0  0  0  0  0  0
  -27.8170  -16.4740   23.3920 O   0  0  0  0  0  0  0  0  0  0  0  0
  -27.1970  -17.8070   23.4450 C   0  0  0  0  0  2  0  0  0  0  0  0
  -27.8270  -18.7990   22.3900 C   0  0  0  0  0  0  0  0  0  0  0  0
  -27.2150  -19.9960   22.1330 N   0  0  0  0  0  0  0  0  0  0  0  0
  -28.8620  -18.4700   21.8020 O   0  0  0  0  0  0  0  0  0  0  0  0
  -26.3210  -20.1000   22.6000 H   0  0  0  0  0  0  0  0  0  0  0  0
  -27.4770  -20.9990   21.0360 C   0  0  0  0  0  2  0  0  0  0  0  0
  -28.0010  -22.4600   21.4210 C   0  0  0  0  0  2  0  0  0  0  0  0
  -27.6590  -23.7320   20.4910 C   0  0  0  0  0  3  0  0  0  0  0  0
  -28.3000  -25.1390   20.9300 C   0  0  0  0  0  3  0  0  0  0  0  0
  -28.2820  -26.4100   20.1510 O   0  0  0  0  0  0  0  0  0  0  0  0
  -24.6270  -31.8600   23.2010 C   0  0  0  0  0  0  0  0  0  0  0  0
  -27.1810  -27.2670   20.1750 C   0  0  0  0  0  0  0  0  0  0  0  0
  -23.4210  -30.4890   21.5390 C   0  0  0  0  0  3  0  0  0  0  0  0
  -24.8580  -28.9230   20.1220 C   0  0  0  0  0  0  0  0  0  0  0  0
  -25.9660  -30.7740   21.3810 C   0  0  0  0  0  2  0  0  0  0  0  0
  -26.0300  -29.3970   20.7270 C   0  0  0  0  0  0  0  0  0  0  0  0
  -27.2000  -28.5810   20.7400 C   0  0  0  0  0  3  0  0  0  0  0  0
  -25.9980  -26.8450   19.5430 C   0  0  0  0  0  3  0  0  0  0  0  0
  -24.8460  -27.6560   19.5170 C   0  0  0  0  0  3  0  0  0  0  0  0
  -23.6370  -29.8210   20.1550 C   0  0  0  0  0  2  0  0  0  0  0  0
  -24.6890  -31.0600   22.0940 N   0  0  0  0  0  0  0  0  0  0  0  0
  -23.5420  -32.1420   23.7330 O   0  0  0  0  0  0  0  0  0  0  0  0
  -22.7450  -29.4690   22.4890 C   0  0  0  0  0  0  0  0  0  0  0  0
  -21.4160  -29.3080   22.3590 N   0  0  0  0  0  0  0  0  0  0  0  0
  -23.4170  -28.8230   23.2980 O   0  0  0  0  0  0  0  0  0  0  0  0
  -20.9340  -29.8780   21.6780 H   0  0  0  0  0  0  0  0  0  0  0  0
  -18.0290  -28.1400   22.8480 C   0  0  0  0  0  0  0  0  0  0  0  0
  -20.5890  -28.3740   23.1250 C   0  0  0  0  0  3  0  0  0  0  0  0
  -20.6790  -26.9460   22.5400 C   0  0  0  0  0  2  0  0  0  0  0  0
  -19.5760  -26.6400   21.5210 C   0  0  0  0  0  2  0  0  0  0  0  0
  -18.1930  -26.7950   22.1620 C   0  0  0  0  0  2  0  0  0  0  0  0
  -19.1540  -28.8870   23.2870 C   0  0  0  0  0  0  0  0  0  0  0  0
  -18.9480  -30.1470   23.8900 C   0  0  0  0  0  3  0  0  0  0  0  0
  -17.6480  -30.6600   24.0570 C   0  0  0  0  0  3  0  0  0  0  0  0
  -16.5370  -29.9100   23.6330 C   0  0  0  0  0  3  0  0  0  0  0  0
  -16.7290  -28.6500   23.0370 C   0  0  0  0  0  3  0  0  0  0  0  0
  -25.9130  -32.4740   23.8320 C   0  0  0  0  0  3  0  0  0  0  0  0
  -26.4510  -31.6570   25.0730 C   0  0  1  0  0  0  0  0  0  0  0  0
  -25.3720  -31.3770   26.1450 C   0  0  0  0  0  1  0  0  0  0  0  0
  -27.0370  -30.2960   24.6270 C   0  0  0  0  0  1  0  0  0  0  0  0
  -27.6070  -32.4330   25.7470 C   0  0  0  0  0  1  0  0  0  0  0  0
  -25.5950  -33.8550   24.2260 N   0  0  0  0  0  0  0  0  0  0  0  0
  -25.9070  -34.9410   23.5090 C   0  0  0  0  0  0  0  0  0  0  0  0
  -26.5640  -34.8910   22.4670 O   0  0  0  0  0  0  0  0  0  0  0  0
  -25.0090  -33.9680   25.0400 H   0  0  0  0  0  0  0  0  0  0  0  0
  -24.1500  -36.7250   23.2650 C   0  0  0  0  0  1  0  0  0  0  0  0
  -25.4120  -36.3050   24.0330 C   0  0  0  0  0  3  0  0  0  0  0  0
  -27.5580  -37.1780   24.8460 C   0  0  0  0  0  1  0  0  0  0  0  0
  -26.4290  -37.3740   23.9410 N   0  0  0  0  0  0  0  0  0  0  0  0
  -26.0160  -38.2820   24.1400 H   0  0  0  0  0  0  0  0  0  0  0  0
  1  2  1  0
  1 53  1  0
  3  4  1  0
  3  2  1  0
  5  4  1  0
  6  5  1  0
  7  6  1  0
  8  7  1  0
  9  8  1  0
 10  9  1  0
 11 10  1  0
 11 12  1  0
 13 12  1  0
 13 14  1  0
 14 23  1  0
 15 22  2  0
 15 21  1  0
 16 21  1  0
 17 18  1  0
 17 16  1  0
 19 18  1  0
 19 28  1  0
 19 20  1  0
 21 20  1  0
 23 15  1  0
 24 23  1  0
 25 26  2  0
 26 45  1  0
 27 26  1  0
 27 30  1  0
 28 29  1  0
 28 25  1  0
 29 27  2  0
 30 31  1  0
 31 32  2  0
 33 36  1  0
 33 32  1  0
 34 33  2  0
 35 34  1  0
 35 30  2  0
 36 37  1  0
 37 38  1  0
 38 39  2  0
 40 39  1  0
 40 44  1  0
 41 40  2  0
 42 37  2  0
 42 41  1  0
 43 42  1  0
 45 46  1  0
 46 49  1  0
 46 48  1  0
 47 45  2  0
 50 51  1  0
 50 25  1  0
 52 50  1  0
 54 55  1  0
 54 53  1  0
 56 55  1  0
 57 56  1  0
 57 59  1  0
 58 56  2  0
 60 61  1  0
 60 57  1  0
 62 63  2  0
 62 61  1  0
 64 66  1  0
 64 63  1  0
 65 76  2  0
 66 71  1  0
 67 75  1  0
 67 77  1  0
 68 74  1  0
 68 70  1  0
 69 75  1  0
 70 71  2  0
 70 69  1  0
 72 66  2  0
 73 72  1  0
 73 68  2  0
 74 67  1  0
 75 65  1  0
 77 79  2  0
 78 77  1  0
 80 78  1  0
 81 90  2  0
 81 86  1  0
 82 78  1  0
 82 86  1  0
 83 82  1  0
 84 85  1  0
 84 83  1  0
 85 81  1  0
 86 87  2  0
 87 88  1  0
 89 88  2  0
 90 89  1  0
 91 65  1  0
 91 96  1  0
 91 92  1  0
 92 95  1  1
 92 93  1  0
 94 92  1  0
 96 99  1  0
 97101  1  0
 97 96  1  0
 98 97  2  0
101100  1  0
103101  1  0
103104  1  0
103102  1  0
M  ISO  4  15 100  23 100  63 101  64 101
M  END
>  <TORSDO>  (89) 
F 37

>  <SCORE>  (89) 
42.103

>  <name>  (89) 
94

>  <ligand_id>  (89) 
94

>  <original_smiles>  (89) 
[H]c1c([H])c([H])c2c(c1[H])C([H])([H])C([H])([H])C([H])([H])C2([H])N([H])C(=O)C1([H])N(C(=O)C([H])(N([H])C(=O)C([H])(N([H])C([H])([H])[H])C([H])([H])[H])C(C([H])([H])[H])(C([H])([H])[H])C([H])([H])[H])C([H])([H])c2c([H])c(OC([H])([H])C([H])([H])C([H])([H])C([H])([H])N([H])C(=O)C([H])([H])OC([H])([H])C([H])([H])C([H])([H])OC([H])([H])C([H])([H])OC([H])([H])C([H])([H])OC([H])([H])C([H])([H])OC([H])([H])C([H])([H])N([H])C(=O)N3C([H])([H])C([H])([H])C([H])([H])C([H])(n4nc(-c5c([H])c([H])c(Oc6c([H])c([H])c(F)c([H])c6F)c([H])c5[H])c(C(=O)N([H])[H])c4N([H])[H])C3([H])[H])c([H])c([H])c2C1([H])[H]

>  <smiles>  (89) 
[H]c1c([H])c([H])c2c(c1[H])C([H])([H])C([H])([H])C([H])([H])C2([H])N([H])C(=O)C1([H])N(C(=O)C([H])(N([H])C(=O)C([H])(N([H])C([H])([H])[H])C([H])([H])[H])C(C([H])([H])[H])(C([H])([H])[H])C([H])([H])[H])C([H])([H])c2c([H])c(OC([H])([H])C([H])([H])C([H])([H])C([H])([H])N([H])C(=O)C([H])([H])OC([H])([H])C([H])([H])C([H])([H])OC([H])([H])C([H])([H])OC([H])([H])C([H])([H])OC([H])([H])C([H])([H])OC([H])([H])C([H])([H])N([H])C(=O)N3C([H])([H])C([H])([H])C([H])([H])C([H])(n4nc(-c5c([H])c([H])c(Oc6c([H])c([H])c(F)c([H])c6F)c([H])c5[H])c(C(=O)N([H])[H])c4N([H])[H])C3([H])[H])c([H])c([H])c2C1([H])[H]

$$$$
