0:0:0
     RDKit          3D

110117  0  0  1  0  0  0  0  0999 V2000
  -20.7390  -13.5550   18.4670 C   0  0  0  0  0  0  0  0  0  0  0  0
  -21.1960  -14.7890   18.1480 N   0  0  0  0  0  0  0  0  0  0  0  0
  -21.2020  -12.5340   17.9500 O   0  0  0  0  0  0  0  0  0  0  0  0
  -20.8060  -15.5590   18.6790 H   0  0  0  0  0  0  0  0  0  0  0  0
  -22.2870  -15.1460   17.2020 C   0  0  0  0  0  2  0  0  0  0  0  0
  -22.8790  -16.5910   17.4130 C   0  0  0  0  0  2  0  0  0  0  0  0
  -24.3910  -16.8390   17.1430 C   0  0  0  0  0  0  0  0  0  0  0  0
  -24.9230  -18.0110   17.5740 N   0  0  0  0  0  0  0  0  0  0  0  0
  -25.0740  -15.9720   16.5870 O   0  0  0  0  0  0  0  0  0  0  0  0
  -24.2770  -18.7260   17.8930 H   0  0  0  0  0  0  0  0  0  0  0  0
  -26.3660  -18.2910   17.7910 C   0  0  0  0  0  2  0  0  0  0  0  0
  -26.8850  -19.7290   17.4460 C   0  0  0  0  0  2  0  0  0  0  0  0
  -27.1400  -20.7040   18.6380 C   0  0  0  0  0  2  0  0  0  0  0  0
  -28.0000  -21.9660   18.2860 C   0  0  0  0  0  3  0  0  0  0  0  0
  -27.9960  -23.1560   19.3140 C   0  0  0  0  0  3  0  0  0  0  0  0
  -29.0580  -24.2860   19.0650 C   0  0  0  0  0  2  0  0  0  0  0  0
  -28.5910  -25.7640   18.8280 C   0  0  0  0  0  2  0  0  0  0  0  0
  -28.3690  -26.6140   19.9900 O   0  0  0  0  0  0  0  0  0  0  0  0
  -24.6210  -31.8640   23.2060 C   0  0  0  0  0  0  0  0  0  0  0  0
  -27.2180  -27.3910   20.0370 C   0  0  0  0  0  0  0  0  0  0  0  0
  -23.4070  -30.4880   21.5530 C   0  0  0  0  0  3  0  0  0  0  0  0
  -24.8450  -28.9520   20.1130 C   0  0  0  0  0  0  0  0  0  0  0  0
  -25.9460  -30.8040   21.3720 C   0  0  0  0  0  2  0  0  0  0  0  0
  -26.0160  -29.4400   20.7050 C   0  0  0  0  0  0  0  0  0  0  0  0
  -27.2040  -28.6630   20.6730 C   0  0  0  0  0  3  0  0  0  0  0  0
  -26.0100  -26.9150   19.4830 C   0  0  0  0  0  3  0  0  0  0  0  0
  -24.8380  -27.6880   19.5060 C   0  0  0  0  0  3  0  0  0  0  0  0
  -23.6120  -29.8240   20.1680 C   0  0  0  0  0  2  0  0  0  0  0  0
  -24.6760  -31.0680   22.1000 N   0  0  0  0  0  0  0  0  0  0  0  0
  -23.5400  -32.1430   23.7400 O   0  0  0  0  0  0  0  0  0  0  0  0
  -22.7430  -29.4630   22.5000 C   0  0  0  0  0  0  0  0  0  0  0  0
  -21.4160  -29.3010   22.3710 N   0  0  0  0  0  0  0  0  0  0  0  0
  -23.4180  -28.8170   23.3050 O   0  0  0  0  0  0  0  0  0  0  0  0
  -20.9330  -29.8700   21.6920 H   0  0  0  0  0  0  0  0  0  0  0  0
  -18.0260  -28.1350   22.8480 C   0  0  0  0  0  0  0  0  0  0  0  0
  -20.5880  -28.3660   23.1300 C   0  0  0  0  0  3  0  0  0  0  0  0
  -20.6770  -26.9380   22.5410 C   0  0  0  0  0  2  0  0  0  0  0  0
  -19.5740  -26.6370   21.5200 C   0  0  0  0  0  2  0  0  0  0  0  0
  -18.1920  -26.7900   22.1620 C   0  0  0  0  0  2  0  0  0  0  0  0
  -19.1520  -28.8820   23.2890 C   0  0  0  0  0  0  0  0  0  0  0  0
  -18.9450  -30.1440   23.8890 C   0  0  0  0  0  3  0  0  0  0  0  0
  -17.6450  -30.6560   24.0560 C   0  0  0  0  0  3  0  0  0  0  0  0
  -16.5340  -29.9060   23.6340 C   0  0  0  0  0  3  0  0  0  0  0  0
  -16.7260  -28.6480   23.0350 C   0  0  0  0  0  3  0  0  0  0  0  0
  -25.9090  -32.4780   23.8360 C   0  0  0  0  0  3  0  0  0  0  0  0
  -26.4490  -31.6570   25.0710 C   0  0  1  0  0  0  0  0  0  0  0  0
  -25.3730  -31.3700   26.1440 C   0  0  0  0  0  1  0  0  0  0  0  0
  -27.0330  -30.2990   24.6160 C   0  0  0  0  0  1  0  0  0  0  0  0
  -27.6080  -32.4280   25.7460 C   0  0  0  0  0  1  0  0  0  0  0  0
  -25.5920  -33.8580   24.2290 N   0  0  0  0  0  0  0  0  0  0  0  0
  -25.9050  -34.9450   23.5110 C   0  0  0  0  0  0  0  0  0  0  0  0
  -26.5630  -34.8910   22.4680 O   0  0  0  0  0  0  0  0  0  0  0  0
  -25.0060  -33.9730   25.0430 H   0  0  0  0  0  0  0  0  0  0  0  0
  -24.1490  -36.7280   23.2640 C   0  0  0  0  0  1  0  0  0  0  0  0
  -25.4100  -36.3080   24.0330 C   0  0  0  0  0  3  0  0  0  0  0  0
  -27.5580  -37.1780   24.8460 C   0  0  0  0  0  1  0  0  0  0  0  0
  -26.4280  -37.3770   23.9420 N   0  0  0  0  0  0  0  0  0  0  0  0
  -26.0150  -38.2840   24.1430 H   0  0  0  0  0  0  0  0  0  0  0  0
  -19.5930  -13.4440   19.5100 C   0  0  0  0  0  2  0  0  0  0  0  0
  -19.2450  -12.3640   21.7680 C   0  0  0  0  0  0  0  0  0  0  0  0
  -19.6950  -12.3270   20.4850 N   0  0  0  0  0  0  0  0  0  0  0  0
  -18.4480  -13.2280   22.1220 O   0  0  0  0  0  0  0  0  0  0  0  0
  -20.2240  -11.5300   20.1680 H   0  0  0  0  0  0  0  0  0  0  0  0
  -19.7670  -11.3340   22.8290 C   0  0  0  0  0  2  0  0  0  0  0  0
  -20.6960  -11.9120   23.7940 O   0  0  0  0  0  0  0  0  0  0  0  0
  -21.7850  -11.0190   24.1560 C   0  0  0  0  0  2  0  0  0  0  0  0
  -23.0400  -11.6130   24.9480 C   0  0  0  0  0  2  0  0  0  0  0  0
  -24.0560  -12.7620   24.4690 C   0  0  0  0  0  2  0  0  0  0  0  0
  -25.2120  -12.4600   23.6120 O   0  0  0  0  0  0  0  0  0  0  0  0
  -26.5820  -12.8380   24.0330 C   0  0  0  0  0  2  0  0  0  0  0  0
  -27.3560  -14.0820   23.3620 C   0  0  0  0  0  2  0  0  0  0  0  0
  -28.9760  -14.0650   23.3530 C   0  0  0  0  0  2  0  0  0  0  0  0
  -30.4190  -14.2090   21.0500 C   0  0  0  0  0  0  0  0  0  0  0  0
  -30.3790  -12.3060   19.3760 C   0  0  0  0  0  2  0  0  0  0  0  0
  -29.4720  -12.6060   18.1560 C   0  0  0  0  0  2  0  0  0  0  0  0
  -27.9720  -12.4570   18.5080 C   0  0  0  0  0  2  0  0  0  0  0  0
  -27.6420  -13.1540   19.8330 C   0  0  0  0  0  3  0  0  0  0  0  0
  -28.5870  -12.5490   20.8430 C   0  0  0  0  0  2  0  0  0  0  0  0
  -29.9140  -13.0520   20.5580 N   0  0  0  0  0  0  0  0  0  0  0  0
  -31.3810  -14.7560   20.4640 O   0  0  0  0  0  0  0  0  0  0  0  0
  -29.7850  -14.6920   22.2010 N   0  0  0  0  0  0  0  0  0  0  0  0
  -30.2260  -15.5490   22.5110 H   0  0  0  0  0  0  0  0  0  0  0  0
  -25.2660  -13.8140   20.4530 C   0  0  0  0  0  0  0  0  0  0  0  0
  -24.2000  -13.0590   20.8170 C   0  0  0  0  0  0  0  0  0  0  0  0
  -24.6220  -11.6990   20.8060 C   0  0  0  0  0  0  0  0  0  0  0  0
  -26.2760  -12.9020   20.2410 N   0  0  0  0  0  0  0  0  0  0  0  0
  -25.9040  -11.6260   20.5070 N   0  0  0  0  0  0  0  0  0  0  0  0
  -23.8830  -10.4480   21.0260 C   0  0  0  0  0  0  0  0  0  0  0  0
  -24.3710   -9.4490   21.8950 C   0  0  0  0  0  3  0  0  0  0  0  0
  -23.6410   -8.2500   22.0750 C   0  0  0  0  0  3  0  0  0  0  0  0
  -22.4220   -8.0450   21.3730 C   0  0  0  0  0  0  0  0  0  0  0  0
  -21.9640   -9.0480   20.4900 C   0  0  0  0  0  3  0  0  0  0  0  0
  -22.6770  -10.2500   20.3360 C   0  0  0  0  0  3  0  0  0  0  0  0
  -21.6750   -6.8910   21.4620 O   0  0  0  0  0  0  0  0  0  0  0  0
  -21.6880   -6.0820   22.5770 C   0  0  0  0  0  0  0  0  0  0  0  0
  -21.3880   -6.5540   23.8820 C   0  0  0  0  0  3  0  0  0  0  0  0
  -21.3590   -5.6490   24.9670 C   0  0  0  0  0  3  0  0  0  0  0  0
  -21.6110   -4.2820   24.7450 C   0  0  0  0  0  0  0  0  0  0  0  0
  -21.8830   -3.8050   23.4530 C   0  0  0  0  0  3  0  0  0  0  0  0
  -21.9160   -4.7020   22.3750 C   0  0  0  0  0  0  0  0  0  0  0  0
  -22.1720   -4.2350   21.1290 F   0  0  0  0  0  0  0  0  0  0  0  0
  -21.5610   -3.4100   25.7740 F   0  0  0  0  0  0  0  0  0  0  0  0
  -22.8760  -13.6100   21.1370 C   0  0  0  0  0  0  0  0  0  0  0  0
  -22.2320  -12.9140   22.0190 N   0  0  0  0  0  0  0  0  0  0  0  0
  -22.4480  -14.6690   20.7240 O   0  0  0  0  0  0  0  0  0  0  0  0
  -21.4000  -13.2790   22.4650 H   0  0  0  0  0  0  0  0  0  0  0  0
  -22.7010  -12.0980   22.3890 H   0  0  0  0  0  0  0  0  0  0  0  0
  -25.4360  -15.1670   20.2520 N   0  0  0  0  0  0  0  0  0  0  0  0
  -24.5710  -15.7160   20.3030 H   0  0  0  0  0  0  0  0  0  0  0  0
  -25.8760  -15.2290   19.3380 H   0  0  0  0  0  0  0  0  0  0  0  0
  1 59  1  0
  2  1  1  0
  2  4  1  0
  3  1  2  0
  5  6  1  0
  5  2  1  0
  7  6  1  0
  7  8  1  0
  8 11  1  0
  8 10  1  0
  9  7  2  0
 12 11  1  0
 12 13  1  0
 14 13  1  0
 14 15  2  0
 16 15  1  0
 17 16  1  0
 17 18  1  0
 18 20  1  0
 19 30  2  0
 20 25  1  0
 21 29  1  0
 21 31  1  0
 22 28  1  0
 22 24  1  0
 23 29  1  0
 24 23  1  0
 25 24  2  0
 26 27  1  0
 26 20  2  0
 27 22  2  0
 28 21  1  0
 29 19  1  0
 31 33  2  0
 32 31  1  0
 34 32  1  0
 35 44  2  0
 35 40  1  0
 36 32  1  0
 36 40  1  0
 37 36  1  0
 38 39  1  0
 38 37  1  0
 39 35  1  0
 40 41  2  0
 41 42  1  0
 43 42  2  0
 44 43  1  0
 45 19  1  0
 45 50  1  0
 45 46  1  0
 46 49  1  1
 46 47  1  0
 48 46  1  0
 50 53  1  0
 51 55  1  0
 51 50  1  0
 52 51  2  0
 55 54  1  0
 57 55  1  0
 57 58  1  0
 57 56  1  0
 59 61  1  0
 60 62  2  0
 60 64  1  0
 61 60  1  0
 63 61  1  0
 64 65  1  0
 65 66  1  0
 66 67  1  0
 68 67  1  0
 69 70  1  0
 69 68  1  0
 71 70  1  0
 72 71  1  0
 73 81  1  0
 74 79  1  0
 75 76  1  0
 75 74  1  0
 77 76  1  0
 77 86  1  0
 77 78  1  0
 79 78  1  0
 79 73  1  0
 80 73  2  0
 81 82  1  0
 81 72  1  0
 83 84  2  0
 84103  1  0
 85 84  1  0
 85 88  1  0
 86 83  1  0
 86 87  1  0
 87 85  2  0
 88 89  1  0
 89 90  2  0
 91 94  1  0
 91 90  1  0
 92 91  2  0
 93 92  1  0
 93 88  2  0
 94 95  1  0
 95 96  1  0
 96 97  2  0
 98 97  1  0
 98102  1  0
 99 98  2  0
100 95  2  0
100 99  1  0
101100  1  0
103104  1  0
104107  1  0
104106  1  0
105103  2  0
108109  1  0
108 83  1  0
110108  1  0
M  ISO  4  17 101  18 101  73 100  81 100
M  END
>  <TORSDO>  (1) 
F 37

>  <SCORE>  (1) 
55.165

>  <name>  (1) 
0

>  <ligand_id>  (1) 
0

>  <original_smiles>  (1) 
[H]c1c([H])c([H])c2c(c1[H])C([H])([H])C([H])([H])C([H])([H])C2([H])N([H])C(=O)C1([H])N(C(=O)C([H])(N([H])C(=O)C([H])(N([H])C([H])([H])[H])C([H])([H])[H])C(C([H])([H])[H])(C([H])([H])[H])C([H])([H])[H])C([H])([H])c2c([H])c(OC([H])([H])C([H])([H])C([H])([H])C([H])([H])C([H])([H])C([H])([H])C([H])([H])N([H])C(=O)C([H])([H])C([H])([H])N([H])C(=O)C([H])([H])N([H])C(=O)C([H])([H])OC([H])([H])C([H])([H])C([H])([H])OC([H])([H])C([H])([H])C([H])([H])N([H])C(=O)N3C([H])([H])C([H])([H])C([H])([H])C([H])(n4nc(-c5c([H])c([H])c(Oc6c([H])c([H])c(F)c([H])c6F)c([H])c5[H])c(C(=O)N([H])[H])c4N([H])[H])C3([H])[H])c([H])c([H])c2C1([H])[H]

>  <smiles>  (1) 
[H]c1c([H])c([H])c2c(c1[H])C([H])([H])C([H])([H])C([H])([H])C2([H])N([H])C(=O)C1([H])N(C(=O)C([H])(N([H])C(=O)C([H])(N([H])C([H])([H])[H])C([H])([H])[H])C(C([H])([H])[H])(C([H])([H])[H])C([H])([H])[H])C([H])([H])c2c([H])c(OC([H])([H])C([H])([H])C([H])([H])C([H])([H])C([H])([H])C([H])([H])C([H])([H])N([H])C(=O)C([H])([H])C([H])([H])N([H])C(=O)C([H])([H])N([H])C(=O)C([H])([H])OC([H])([H])C([H])([H])C([H])([H])OC([H])([H])C([H])([H])C([H])([H])N([H])C(=O)N3C([H])([H])C([H])([H])C([H])([H])C([H])(n4nc(-c5c([H])c([H])c(Oc6c([H])c([H])c(F)c([H])c6F)c([H])c5[H])c(C(=O)N([H])[H])c4N([H])[H])C3([H])[H])c([H])c([H])c2C1([H])[H]

$$$$
2:0:0
     RDKit          3D

124131  0  0  1  0  0  0  0  0999 V2000
  -25.6290  -14.1090   16.5950 N   0  0  0  0  0  4  0  0  0  0  0  0
  -25.3510  -13.2280   16.1870 H   0  0  0  0  0  0  0  0  0  0  0  0
  -24.7850  -14.4940   16.9940 H   0  0  0  0  0  0  0  0  0  0  0  0
  -26.6100  -13.7980   17.6690 C   0  0  0  0  0  2  0  0  0  0  0  0
  -27.8010  -12.9050   17.2090 C   0  0  0  0  0  2  0  0  0  0  0  0
  -30.0540  -12.3100   17.9900 C   0  0  0  0  0  0  0  0  0  0  0  0
  -29.0760  -13.2210   17.8580 N   0  0  0  0  0  0  0  0  0  0  0  0
  -29.9120  -11.1480   17.6010 O   0  0  0  0  0  0  0  0  0  0  0  0
  -29.2540  -14.1750   18.1520 H   0  0  0  0  0  0  0  0  0  0  0  0
  -31.3900  -12.7140   18.6190 C   0  0  0  0  0  2  0  0  0  0  0  0
  -33.4780  -13.3690   17.4770 C   0  0  0  0  0  0  0  0  0  0  0  0
  -32.2110  -13.6450   17.8320 N   0  0  0  0  0  0  0  0  0  0  0  0
  -33.9980  -12.2980   17.7900 O   0  0  0  0  0  0  0  0  0  0  0  0
  -31.7980  -14.5360   17.5820 H   0  0  0  0  0  0  0  0  0  0  0  0
  -34.3280  -14.3880   16.6930 C   0  0  0  0  0  2  0  0  0  0  0  0
  -35.5580  -16.4520   17.3710 C   0  0  0  0  0  0  0  0  0  0  0  0
  -34.4420  -15.7190   17.2910 N   0  0  0  0  0  0  0  0  0  0  0  0
  -36.6500  -16.0270   16.9950 O   0  0  0  0  0  0  0  0  0  0  0  0
  -33.5830  -16.1440   17.6250 H   0  0  0  0  0  0  0  0  0  0  0  0
  -35.4370  -17.8920   17.9090 C   0  0  0  0  0  2  0  0  0  0  0  0
  -36.6890  -18.5650   17.7590 O   0  0  0  0  0  0  0  0  0  0  0  0
  -36.8350  -19.7700   18.5090 C   0  0  0  0  0  2  0  0  0  0  0  0
  -36.3830  -21.0160   17.7370 C   0  0  0  0  0  2  0  0  0  0  0  0
  -37.2470  -21.2970   16.4880 C   0  0  0  0  0  2  0  0  0  0  0  0
  -36.4400  -21.8940   15.3180 C   0  0  0  0  0  2  0  0  0  0  0  0
  -36.8710  -21.4060   13.9210 C   0  0  0  0  0  2  0  0  0  0  0  0
  -35.3050  -20.3880   12.2790 C   0  0  0  0  0  0  0  0  0  0  0  0
  -33.6580  -18.5670   12.2210 C   0  0  0  0  0  2  0  0  0  0  0  0
  -32.2550  -19.1680   12.4300 C   0  0  0  0  0  2  0  0  0  0  0  0
  -31.9220  -19.2900   13.9210 C   0  0  0  0  0  2  0  0  0  0  0  0
  -33.0290  -20.0060   14.7410 C   0  0  0  0  0  3  0  0  0  0  0  0
  -34.3770  -19.3450   14.3870 C   0  0  0  0  0  2  0  0  0  0  0  0
  -34.6020  -19.4300   12.9400 N   0  0  0  0  0  0  0  0  0  0  0  0
  -35.3660  -20.4550   11.0490 O   0  0  0  0  0  0  0  0  0  0  0  0
  -35.7260  -21.4300   13.0110 N   0  0  0  0  0  0  0  0  0  0  0  0
  -35.6820  -22.3010   12.5020 H   0  0  0  0  0  0  0  0  0  0  0  0
  -33.0240  -20.9570   17.1460 C   0  0  0  0  0  0  0  0  0  0  0  0
  -32.5370  -20.4560   18.3290 C   0  0  0  0  0  0  0  0  0  0  0  0
  -31.9750  -19.1840   18.0260 C   0  0  0  0  0  0  0  0  0  0  0  0
  -32.7640  -19.9830   16.1890 N   0  0  0  0  0  0  0  0  0  0  0  0
  -32.1550  -18.8980   16.7360 N   0  0  0  0  0  0  0  0  0  0  0  0
  -31.2180  -18.2380   18.8680 C   0  0  0  0  0  0  0  0  0  0  0  0
  -31.3780  -16.8400   18.7520 C   0  0  0  0  0  3  0  0  0  0  0  0
  -30.6310  -15.9530   19.5520 C   0  0  0  0  0  3  0  0  0  0  0  0
  -29.7220  -16.4590   20.5060 C   0  0  0  0  0  0  0  0  0  0  0  0
  -29.5520  -17.8530   20.6140 C   0  0  0  0  0  3  0  0  0  0  0  0
  -30.2860  -18.7310   19.8000 C   0  0  0  0  0  3  0  0  0  0  0  0
  -28.9610  -15.6690   21.3350 O   0  0  0  0  0  0  0  0  0  0  0  0
  -29.1140  -14.3050   21.3770 C   0  0  0  0  0  0  0  0  0  0  0  0
  -30.3540  -13.6970   21.6670 C   0  0  0  0  0  3  0  0  0  0  0  0
  -30.4440  -12.2960   21.7790 C   0  0  0  0  0  3  0  0  0  0  0  0
  -29.2970  -11.4980   21.5950 C   0  0  0  0  0  0  0  0  0  0  0  0
  -28.0610  -12.1020   21.3030 C   0  0  0  0  0  3  0  0  0  0  0  0
  -27.9690  -13.5020   21.1960 C   0  0  0  0  0  0  0  0  0  0  0  0
  -26.7720  -14.0810   20.9380 F   0  0  0  0  0  0  0  0  0  0  0  0
  -29.3720  -10.1550   21.7240 F   0  0  0  0  0  0  0  0  0  0  0  0
  -32.4770  -21.1730   19.6480 C   0  0  0  0  0  0  0  0  0  0  0  0
  -32.5310  -20.4300   20.7490 N   0  0  0  0  0  0  0  0  0  0  0  0
  -32.4220  -22.3970   19.7170 O   0  0  0  0  0  0  0  0  0  0  0  0
  -32.6120  -19.4270   20.7010 H   0  0  0  0  0  0  0  0  0  0  0  0
  -32.4850  -20.8780   21.6560 H   0  0  0  0  0  0  0  0  0  0  0  0
  -33.6250  -22.1580   16.7920 N   0  0  0  0  0  0  0  0  0  0  0  0
  -33.7790  -22.9020   17.4630 H   0  0  0  0  0  0  0  0  0  0  0  0
  -33.9440  -22.3890   15.8580 H   0  0  0  0  0  0  0  0  0  0  0  0
  -26.0970  -14.9840   15.4810 C   0  0  0  0  0  2  0  0  0  0  0  0
  -26.1540  -16.5110   15.7440 C   0  0  0  0  0  0  0  0  0  0  0  0
  -26.6850  -16.9970   16.8810 N   0  0  0  0  0  0  0  0  0  0  0  0
  -25.6870  -17.2640   14.8860 O   0  0  0  0  0  0  0  0  0  0  0  0
  -27.2120  -16.3910   17.4950 H   0  0  0  0  0  0  0  0  0  0  0  0
  -26.6890  -18.4310   17.2380 C   0  0  0  0  0  2  0  0  0  0  0  0
  -28.0210  -19.1450   16.9550 C   0  0  0  0  0  0  0  0  0  0  0  0
  -28.1180  -20.4300   17.3320 N   0  0  0  0  0  0  0  0  0  0  0  0
  -28.9570  -18.5340   16.4250 O   0  0  0  0  0  0  0  0  0  0  0  0
  -27.3080  -20.8910   17.7290 H   0  0  0  0  0  0  0  0  0  0  0  0
  -29.3140  -21.2500   17.1530 C   0  0  0  0  0  2  0  0  0  0  0  0
  -29.0550  -22.7330   17.4480 C   0  0  0  0  0  0  0  0  0  0  0  0
  -28.4590  -23.0580   18.6110 N   0  0  0  0  0  0  0  0  0  0  0  0
  -29.3640  -23.5790   16.6070 O   0  0  0  0  0  0  0  0  0  0  0  0
  -28.2340  -22.3000   19.2430 H   0  0  0  0  0  0  0  0  0  0  0  0
  -28.0830  -24.4190   19.0200 C   0  0  0  0  0  2  0  0  0  0  0  0
  -29.2560  -25.2190   19.6370 C   0  0  0  0  0  2  0  0  0  0  0  0
  -29.0440  -25.7640   21.0710 C   0  0  0  0  0  2  0  0  0  0  0  0
  -28.2340  -27.0760   21.1490 C   0  0  0  0  0  2  0  0  0  0  0  0
  -28.8410  -27.9840   22.0810 O   0  0  0  0  0  0  0  0  0  0  0  0
  -28.8710  -33.1770   26.9410 C   0  0  0  0  0  0  0  0  0  0  0  0
  -28.0950  -28.6370   23.0400 C   0  0  0  0  0  0  0  0  0  0  0  0
  -26.8870  -31.6970   26.9710 C   0  0  0  0  0  3  0  0  0  0  0  0
  -26.6550  -30.1090   24.9860 C   0  0  0  0  0  0  0  0  0  0  0  0
  -28.2080  -32.0600   24.8100 C   0  0  0  0  0  2  0  0  0  0  0  0
  -27.7940  -30.6650   24.3910 C   0  0  0  0  0  0  0  0  0  0  0  0
  -28.5160  -29.9320   23.4240 C   0  0  0  0  0  3  0  0  0  0  0  0
  -26.9620  -28.0780   23.6730 C   0  0  0  0  0  3  0  0  0  0  0  0
  -26.2440  -28.8090   24.6410 C   0  0  0  0  0  3  0  0  0  0  0  0
  -25.9250  -30.9570   26.0010 C   0  0  0  0  0  2  0  0  0  0  0  0
  -28.0440  -32.3310   26.2590 N   0  0  0  0  0  0  0  0  0  0  0  0
  -28.6590  -33.4630   28.1270 O   0  0  0  0  0  0  0  0  0  0  0  0
  -27.3180  -30.7130   28.0830 C   0  0  0  0  0  0  0  0  0  0  0  0
  -26.5280  -30.6500   29.1670 N   0  0  0  0  0  0  0  0  0  0  0  0
  -28.3230  -30.0090   27.9460 O   0  0  0  0  0  0  0  0  0  0  0  0
  -25.7250  -31.2620   29.2070 H   0  0  0  0  0  0  0  0  0  0  0  0
  -25.2950  -29.8790   32.4720 C   0  0  0  0  0  0  0  0  0  0  0  0
  -26.7200  -29.7670   30.3170 C   0  0  0  0  0  3  0  0  0  0  0  0
  -26.0610  -28.3890   30.0730 C   0  0  0  0  0  2  0  0  0  0  0  0
  -24.6270  -28.3030   30.6070 C   0  0  0  0  0  2  0  0  0  0  0  0
  -24.5960  -28.5790   32.1130 C   0  0  0  0  0  2  0  0  0  0  0  0
  -26.2820  -30.4450   31.6220 C   0  0  0  0  0  0  0  0  0  0  0  0
  -26.8750  -31.6740   31.9830 C   0  0  0  0  0  3  0  0  0  0  0  0
  -26.5040  -32.3300   33.1720 C   0  0  0  0  0  3  0  0  0  0  0  0
  -25.5400  -31.7560   34.0190 C   0  0  0  0  0  3  0  0  0  0  0  0
  -24.9400  -30.5340   33.6690 C   0  0  0  0  0  3  0  0  0  0  0  0
  -30.1030  -33.8420   26.2520 C   0  0  0  0  0  3  0  0  0  0  0  0
  -31.4850  -33.3010   26.7900 C   0  0  1  0  0  0  0  0  0  0  0  0
  -31.5990  -33.3120   28.3310 C   0  0  0  0  0  1  0  0  0  0  0  0
  -31.7290  -31.8520   26.3110 C   0  0  0  0  0  1  0  0  0  0  0  0
  -32.6430  -34.1580   26.2220 C   0  0  0  0  0  1  0  0  0  0  0  0
  -29.9970  -35.2920   26.4580 N   0  0  0  0  0  0  0  0  0  0  0  0
  -29.6650  -36.1740   25.5050 C   0  0  0  0  0  0  0  0  0  0  0  0
  -29.4860  -35.8540   24.3270 O   0  0  0  0  0  0  0  0  0  0  0  0
  -30.0750  -35.6220   27.4090 H   0  0  0  0  0  0  0  0  0  0  0  0
  -28.0180  -38.0060   26.0030 C   0  0  0  0  0  1  0  0  0  0  0  0
  -29.5110  -37.6470   25.9250 C   0  0  0  0  0  3  0  0  0  0  0  0
  -31.6590  -38.4970   25.0950 C   0  0  0  0  0  1  0  0  0  0  0  0
  -30.2040  -38.5920   25.0250 N   0  0  0  0  0  0  0  0  0  0  0  0
  -29.9390  -39.5500   25.2360 H   0  0  0  0  0  0  0  0  0  0  0  0
  1  3  1  0
  1  4  1  0
  2  1  1  0
  5  4  1  0
  5  7  1  0
  6 10  1  0
  7  6  1  0
  7  9  1  0
  8  6  2  0
 11 13  2  0
 11 12  1  0
 12 10  1  0
 14 12  1  0
 15 17  1  0
 15 11  1  0
 16 20  1  0
 17 16  1  0
 17 19  1  0
 18 16  2  0
 21 20  1  0
 21 22  1  0
 23 22  1  0
 24 23  1  0
 25 24  1  0
 26 25  1  0
 27 33  1  0
 27 35  1  0
 28 29  1  0
 28 33  1  0
 29 30  1  0
 31 30  1  0
 31 40  1  0
 32 31  1  0
 33 32  1  0
 34 27  2  0
 35 26  1  0
 36 35  1  0
 37 38  2  0
 38 57  1  0
 39 38  1  0
 39 42  1  0
 40 41  1  0
 40 37  1  0
 41 39  2  0
 42 47  1  0
 43 42  2  0
 43 44  1  0
 44 45  2  0
 45 46  1  0
 45 48  1  0
 47 46  2  0
 48 49  1  0
 49 50  1  0
 50 51  2  0
 52 56  1  0
 52 51  1  0
 53 52  2  0
 54 53  1  0
 54 49  2  0
 55 54  1  0
 57 59  2  0
 57 58  1  0
 58 61  1  0
 60 58  1  0
 62 37  1  0
 62 63  1  0
 64 62  1  0
 65 66  1  0
 65  1  1  0
 66 67  1  0
 67 70  1  0
 67 69  1  0
 68 66  2  0
 71 70  1  0
 71 72  1  0
 72 74  1  0
 73 71  2  0
 75 72  1  0
 75 76  1  0
 76 77  1  0
 77 80  1  0
 77 79  1  0
 78 76  2  0
 80 81  1  0
 81 82  1  0
 82 83  1  0
 83 84  1  0
 84 86  1  0
 85 96  2  0
 86 91  2  0
 86 92  1  0
 87 97  1  0
 88 94  1  0
 89 95  1  0
 90 89  1  0
 90 88  2  0
 91 90  1  0
 92 93  2  0
 93 88  1  0
 94 87  1  0
 95 85  1  0
 95 87  1  0
 97 98  1  0
 98100  1  0
 99 97  2  0
101110  1  0
102 98  1  0
102106  1  0
103102  1  0
103104  1  0
104105  1  0
105101  1  0
106107  1  0
106101  2  0
107108  2  0
108109  1  0
110109  2  0
111116  1  0
111112  1  0
111 85  1  0
112113  1  1
114112  1  0
115112  1  0
116119  1  0
117121  1  0
117116  1  0
118117  2  0
121120  1  0
123122  1  0
123124  1  0
123121  1  0
M  ISO  4  27 100  35 100  83 101  84 101
M  END
>  <TORSDO>  (2) 
F 40

>  <SCORE>  (2) 
19.881

>  <name>  (2) 
2

>  <ligand_id>  (2) 
2

>  <original_smiles>  (2) 
[H]c1c([H])c([H])c2c(c1[H])C([H])([H])C([H])([H])C([H])([H])C2([H])N([H])C(=O)C1([H])N(C(=O)C([H])(N([H])C(=O)C([H])(N([H])C([H])([H])[H])C([H])([H])[H])C(C([H])([H])[H])(C([H])([H])[H])C([H])([H])[H])C([H])([H])c2c([H])c(OC([H])([H])C([H])([H])C([H])([H])C([H])([H])N([H])C(=O)C([H])([H])N([H])C(=O)C([H])([H])N([H])C(=O)C([H])([H])[N+]([H])([H])C([H])([H])C([H])([H])N([H])C(=O)C([H])([H])N([H])C(=O)C([H])([H])N([H])C(=O)C([H])([H])OC([H])([H])C([H])([H])C([H])([H])C([H])([H])C([H])([H])N([H])C(=O)N3C([H])([H])C([H])([H])C([H])([H])C([H])(n4nc(-c5c([H])c([H])c(Oc6c([H])c([H])c(F)c([H])c6F)c([H])c5[H])c(C(=O)N([H])[H])c4N([H])[H])C3([H])[H])c([H])c([H])c2C1([H])[H]

>  <smiles>  (2) 
[H]c1c([H])c([H])c2c(c1[H])C([H])([H])C([H])([H])C([H])([H])C2([H])N([H])C(=O)C1([H])N(C(=O)C([H])(N([H])C(=O)C([H])(N([H])C([H])([H])[H])C([H])([H])[H])C(C([H])([H])[H])(C([H])([H])[H])C([H])([H])[H])C([H])([H])c2c([H])c(OC([H])([H])C([H])([H])C([H])([H])C([H])([H])N([H])C(=O)C([H])([H])N([H])C(=O)C([H])([H])N([H])C(=O)C([H])([H])[N+]([H])([H])C([H])([H])C([H])([H])N([H])C(=O)C([H])([H])N([H])C(=O)C([H])([H])N([H])C(=O)C([H])([H])OC([H])([H])C([H])([H])C([H])([H])C([H])([H])C([H])([H])N([H])C(=O)N3C([H])([H])C([H])([H])C([H])([H])C([H])(n4nc(-c5c([H])c([H])c(Oc6c([H])c([H])c(F)c([H])c6F)c([H])c5[H])c(C(=O)N([H])[H])c4N([H])[H])C3([H])[H])c([H])c([H])c2C1([H])[H]

$$$$
3:0:0
     RDKit          3D

 92 99  0  0  1  0  0  0  0  0999 V2000
  -28.8670  -20.7410   18.0910 C   0  0  0  0  0  0  0  0  0  0  0  0
  -29.1190  -19.4300   18.0060 N   0  0  0  0  0  0  0  0  0  0  0  0
  -27.7330  -21.2150   17.9600 O   0  0  0  0  0  0  0  0  0  0  0  0
  -30.0840  -19.1410   18.1020 H   0  0  0  0  0  0  0  0  0  0  0  0
  -30.0610  -21.6420   18.4170 C   0  0  0  0  0  2  0  0  0  0  0  0
  -29.6370  -23.0010   18.4970 O   0  0  0  0  0  0  0  0  0  0  0  0
  -30.5030  -23.7890   19.2970 C   0  0  0  0  0  2  0  0  0  0  0  0
  -30.0630  -25.2570   19.2800 C   0  0  0  0  0  2  0  0  0  0  0  0
  -28.5890  -25.4750   19.6650 C   0  0  0  0  0  2  0  0  0  0  0  0
  -28.4630  -26.8200   20.1140 O   0  0  0  0  0  0  0  0  0  0  0  0
  -24.6060  -31.8880   23.2310 C   0  0  0  0  0  0  0  0  0  0  0  0
  -27.2380  -27.4480   20.1430 C   0  0  0  0  0  0  0  0  0  0  0  0
  -23.3850  -30.4780   21.6040 C   0  0  0  0  0  3  0  0  0  0  0  0
  -24.8260  -28.9270   20.1860 C   0  0  0  0  0  0  0  0  0  0  0  0
  -25.9070  -30.8380   21.3840 C   0  0  0  0  0  2  0  0  0  0  0  0
  -25.9860  -29.4620   20.7560 C   0  0  0  0  0  0  0  0  0  0  0  0
  -27.1880  -28.7280   20.7340 C   0  0  0  0  0  3  0  0  0  0  0  0
  -26.0500  -26.9050   19.5950 C   0  0  0  0  0  3  0  0  0  0  0  0
  -24.8510  -27.6450   19.6090 C   0  0  0  0  0  3  0  0  0  0  0  0
  -23.5820  -29.7840   20.2300 C   0  0  0  0  0  2  0  0  0  0  0  0
  -24.6510  -31.0840   22.1320 N   0  0  0  0  0  0  0  0  0  0  0  0
  -23.5290  -32.1660   23.7770 O   0  0  0  0  0  0  0  0  0  0  0  0
  -22.7390  -29.4660   22.5760 C   0  0  0  0  0  0  0  0  0  0  0  0
  -21.4140  -29.2860   22.4560 N   0  0  0  0  0  0  0  0  0  0  0  0
  -23.4270  -28.8430   23.3890 O   0  0  0  0  0  0  0  0  0  0  0  0
  -20.9220  -29.8410   21.7700 H   0  0  0  0  0  0  0  0  0  0  0  0
  -18.0400  -28.1030   22.9690 C   0  0  0  0  0  0  0  0  0  0  0  0
  -20.5990  -28.3550   23.2350 C   0  0  0  0  0  3  0  0  0  0  0  0
  -20.6980  -26.9210   22.6670 C   0  0  0  0  0  2  0  0  0  0  0  0
  -19.5930  -26.5950   21.6580 C   0  0  0  0  0  2  0  0  0  0  0  0
  -18.2120  -26.7470   22.3040 C   0  0  0  0  0  2  0  0  0  0  0  0
  -19.1610  -28.8650   23.3920 C   0  0  0  0  0  0  0  0  0  0  0  0
  -18.9490  -30.1340   23.9720 C   0  0  0  0  0  3  0  0  0  0  0  0
  -17.6450  -30.6410   24.1360 C   0  0  0  0  0  3  0  0  0  0  0  0
  -16.5380  -29.8750   23.7300 C   0  0  0  0  0  3  0  0  0  0  0  0
  -16.7370  -28.6090   23.1530 C   0  0  0  0  0  3  0  0  0  0  0  0
  -25.8980  -32.5180   23.8400 C   0  0  0  0  0  3  0  0  0  0  0  0
  -26.4350  -31.7400   25.1030 C   0  0  1  0  0  0  0  0  0  0  0  0
  -25.3580  -31.4940   26.1840 C   0  0  0  0  0  1  0  0  0  0  0  0
  -27.0140  -30.3670   24.6910 C   0  0  0  0  0  1  0  0  0  0  0  0
  -27.5940  -32.5320   25.7540 C   0  0  0  0  0  1  0  0  0  0  0  0
  -25.5920  -33.9140   24.1800 N   0  0  0  0  0  0  0  0  0  0  0  0
  -25.9150  -34.9690   23.4220 C   0  0  0  0  0  0  0  0  0  0  0  0
  -26.5760  -34.8720   22.3830 O   0  0  0  0  0  0  0  0  0  0  0  0
  -25.0040  -34.0640   24.9880 H   0  0  0  0  0  0  0  0  0  0  0  0
  -24.1760  -36.7570   23.0940 C   0  0  0  0  0  1  0  0  0  0  0  0
  -25.4290  -36.3550   23.8900 C   0  0  0  0  0  3  0  0  0  0  0  0
  -27.5730  -37.2380   24.6940 C   0  0  0  0  0  1  0  0  0  0  0  0
  -26.4570  -37.4110   23.7690 N   0  0  0  0  0  0  0  0  0  0  0  0
  -26.0510  -38.3290   23.9290 H   0  0  0  0  0  0  0  0  0  0  0  0
  -28.1150  -18.3760   17.9230 C   0  0  0  0  0  2  0  0  0  0  0  0
  -27.9670  -17.6610   19.2770 C   0  0  0  0  0  2  0  0  0  0  0  0
  -29.2010  -16.8280   19.6610 C   0  0  0  0  0  2  0  0  0  0  0  0
  -29.1080  -16.2030   21.0720 C   0  0  0  0  0  2  0  0  0  0  0  0
  -30.7310  -14.3890   20.5730 C   0  0  0  0  0  0  0  0  0  0  0  0
  -30.3600  -12.2880   19.3380 C   0  0  0  0  0  2  0  0  0  0  0  0
  -29.4210  -12.5160   18.1390 C   0  0  0  0  0  2  0  0  0  0  0  0
  -27.9450  -12.3930   18.5650 C   0  0  0  0  0  2  0  0  0  0  0  0
  -27.6200  -13.2230   19.8340 C   0  0  0  0  0  3  0  0  0  0  0  0
  -28.6690  -12.9660   20.9400 C   0  0  0  0  0  2  0  0  0  0  0  0
  -30.0000  -13.2570   20.3830 N   0  0  0  0  0  0  0  0  0  0  0  0
  -31.8290  -14.5790   20.0520 O   0  0  0  0  0  0  0  0  0  0  0  0
  -30.2330  -15.3190   21.3970 N   0  0  0  0  0  0  0  0  0  0  0  0
  -30.9840  -15.8440   21.8250 H   0  0  0  0  0  0  0  0  0  0  0  0
  -25.2200  -13.8630   20.5200 C   0  0  0  0  0  0  0  0  0  0  0  0
  -24.1420  -13.1040   20.8820 C   0  0  0  0  0  0  0  0  0  0  0  0
  -24.5930  -11.7490   20.8700 C   0  0  0  0  0  0  0  0  0  0  0  0
  -26.2610  -12.9710   20.3070 N   0  0  0  0  0  0  0  0  0  0  0  0
  -25.8860  -11.6960   20.5760 N   0  0  0  0  0  0  0  0  0  0  0  0
  -23.8560  -10.4950   21.0670 C   0  0  0  0  0  0  0  0  0  0  0  0
  -24.2960   -9.5180   21.9870 C   0  0  0  0  0  3  0  0  0  0  0  0
  -23.5600   -8.3280   22.1730 C   0  0  0  0  0  3  0  0  0  0  0  0
  -22.3700   -8.1080   21.4380 C   0  0  0  0  0  0  0  0  0  0  0  0
  -21.9520   -9.0720   20.5050 C   0  0  0  0  0  3  0  0  0  0  0  0
  -22.6880  -10.2540   20.3190 C   0  0  0  0  0  3  0  0  0  0  0  0
  -21.6050   -6.9690   21.5320 O   0  0  0  0  0  0  0  0  0  0  0  0
  -21.5930   -6.2050   22.6700 C   0  0  0  0  0  0  0  0  0  0  0  0
  -21.2440   -6.7440   23.9280 C   0  0  0  0  0  3  0  0  0  0  0  0
  -21.1750   -5.9080   25.0590 C   0  0  0  0  0  3  0  0  0  0  0  0
  -21.4430   -4.5320   24.9350 C   0  0  0  0  0  0  0  0  0  0  0  0
  -21.7830   -3.9900   23.6840 C   0  0  0  0  0  3  0  0  0  0  0  0
  -21.8550   -4.8250   22.5540 C   0  0  0  0  0  0  0  0  0  0  0  0
  -22.1630   -4.2950   21.3460 F   0  0  0  0  0  0  0  0  0  0  0  0
  -21.3680   -3.7270   26.0200 F   0  0  0  0  0  0  0  0  0  0  0  0
  -22.7470  -13.5970   21.1390 C   0  0  0  0  0  0  0  0  0  0  0  0
  -22.0080  -12.9190   22.0110 N   0  0  0  0  0  0  0  0  0  0  0  0
  -22.3210  -14.6180   20.6010 O   0  0  0  0  0  0  0  0  0  0  0  0
  -22.3670  -12.0940   22.4680 H   0  0  0  0  0  0  0  0  0  0  0  0
  -21.0710  -13.2290   22.2220 H   0  0  0  0  0  0  0  0  0  0  0  0
  -25.3970  -15.2290   20.3370 N   0  0  0  0  0  0  0  0  0  0  0  0
  -24.6330  -15.8920   20.4130 H   0  0  0  0  0  0  0  0  0  0  0  0
  -26.2700  -15.6550   20.0620 H   0  0  0  0  0  0  0  0  0  0  0  0
  1  5  1  0
  2  1  1  0
  2  4  1  0
  3  1  2  0
  5  6  1  0
  6  7  1  0
  8  7  1  0
  8  9  1  0
  9 10  1  0
 10 12  1  0
 11 22  2  0
 12 17  1  0
 13 21  1  0
 13 23  1  0
 14 20  1  0
 14 16  1  0
 15 21  1  0
 16 15  1  0
 17 16  2  0
 18 19  1  0
 18 12  2  0
 19 14  2  0
 20 13  1  0
 21 11  1  0
 23 25  2  0
 24 23  1  0
 26 24  1  0
 27 36  2  0
 27 32  1  0
 28 24  1  0
 28 32  1  0
 29 28  1  0
 30 31  1  0
 30 29  1  0
 31 27  1  0
 32 33  2  0
 33 34  1  0
 35 34  2  0
 36 35  1  0
 37 11  1  0
 37 42  1  0
 37 38  1  0
 38 41  1  1
 38 39  1  0
 40 38  1  0
 42 45  1  0
 43 47  1  0
 43 42  1  0
 44 43  2  0
 47 46  1  0
 49 47  1  0
 49 50  1  0
 49 48  1  0
 51  2  1  0
 51 52  1  0
 52 53  1  0
 53 54  1  0
 54 63  1  0
 55 63  1  0
 56 61  1  0
 57 58  1  0
 57 56  1  0
 59 58  1  0
 59 68  1  0
 59 60  1  0
 61 55  1  0
 61 60  1  0
 62 55  2  0
 63 64  1  0
 65 66  2  0
 66 85  1  0
 67 66  1  0
 67 70  1  0
 68 65  1  0
 68 69  1  0
 69 67  2  0
 70 71  1  0
 71 72  2  0
 73 76  1  0
 73 72  1  0
 74 73  2  0
 75 74  1  0
 75 70  2  0
 76 77  1  0
 77 78  1  0
 78 79  2  0
 80 79  1  0
 80 84  1  0
 81 80  2  0
 82 77  2  0
 82 81  1  0
 83 82  1  0
 85 86  1  0
 86 89  1  0
 86 88  1  0
 87 85  2  0
 90 91  1  0
 90 65  1  0
 92 90  1  0
M  ISO  4   9 101  10 101  55 100  63 100
M  END
>  <TORSDO>  (3) 
F 25

>  <SCORE>  (3) 
-12.187

>  <name>  (3) 
3

>  <ligand_id>  (3) 
3

>  <original_smiles>  (3) 
[H]c1c([H])c([H])c2c(c1[H])C([H])([H])C([H])([H])C([H])([H])C2([H])N([H])C(=O)C1([H])N(C(=O)C([H])(N([H])C(=O)C([H])(N([H])C([H])([H])[H])C([H])([H])[H])C(C([H])([H])[H])(C([H])([H])[H])C([H])([H])[H])C([H])([H])c2c([H])c(OC([H])([H])C([H])([H])C([H])([H])OC([H])([H])C(=O)N([H])C([H])([H])C([H])([H])C([H])([H])C([H])([H])N([H])C(=O)N3C([H])([H])C([H])([H])C([H])([H])C([H])(n4nc(-c5c([H])c([H])c(Oc6c([H])c([H])c(F)c([H])c6F)c([H])c5[H])c(C(=O)N([H])[H])c4N([H])[H])C3([H])[H])c([H])c([H])c2C1([H])[H]

>  <smiles>  (3) 
[H]c1c([H])c([H])c2c(c1[H])C([H])([H])C([H])([H])C([H])([H])C2([H])N([H])C(=O)C1([H])N(C(=O)C([H])(N([H])C(=O)C([H])(N([H])C([H])([H])[H])C([H])([H])[H])C(C([H])([H])[H])(C([H])([H])[H])C([H])([H])[H])C([H])([H])c2c([H])c(OC([H])([H])C([H])([H])C([H])([H])OC([H])([H])C(=O)N([H])C([H])([H])C([H])([H])C([H])([H])C([H])([H])N([H])C(=O)N3C([H])([H])C([H])([H])C([H])([H])C([H])(n4nc(-c5c([H])c([H])c(Oc6c([H])c([H])c(F)c([H])c6F)c([H])c5[H])c(C(=O)N([H])[H])c4N([H])[H])C3([H])[H])c([H])c([H])c2C1([H])[H]

$$$$
4:0:0
     RDKit          3D

156157  0  0  1  0  0  0  0  0999 V2000
  -24.6120  -13.0880   17.2110 C   0  0  0  0  0  2  0  0  0  0  0  0
  -23.8380  -14.6430   15.2810 C   0  0  0  0  0  0  0  0  0  0  0  0
  -24.7230  -14.2130   16.2260 N   0  0  0  0  0  0  0  0  0  0  0  0
  -22.7380  -14.1190   15.0790 O   0  0  0  0  0  0  0  0  0  0  0  0
  -25.6740  -14.5270   16.0020 H   0  0  0  0  0  0  0  0  0  0  0  0
  -24.2590  -15.8600   14.4350 C   0  0  0  0  0  2  0  0  0  0  0  0
  -26.3980  -16.5810   15.4800 C   0  0  0  0  0  0  0  0  0  0  0  0
  -25.1150  -16.7930   15.1600 N   0  0  0  0  0  0  0  0  0  0  0  0
  -26.9860  -15.5400   15.1780 O   0  0  0  0  0  0  0  0  0  0  0  0
  -24.6930  -17.6910   15.3460 H   0  0  0  0  0  0  0  0  0  0  0  0
  -27.0910  -17.6160   16.3600 C   0  0  0  0  0  2  0  0  0  0  0  0
  -26.2200  -18.0120   17.4930 N   0  0  0  0  0  4  0  0  0  0  0  0
  -26.7610  -17.9620   18.3420 H   0  0  0  0  0  0  0  0  0  0  0  0
  -25.5110  -17.2980   17.5330 H   0  0  0  0  0  0  0  0  0  0  0  0
  -24.4670  -19.3240   18.5410 C   0  0  0  0  0  1  0  0  0  0  0  0
  -25.4940  -19.2930   17.3900 C   0  0  0  0  0  3  0  0  0  0  0  0
  -26.4120  -20.5400   17.4100 C   0  0  0  0  0  2  0  0  0  0  0  0
  -27.7090  -22.0050   15.8060 C   0  0  0  0  0  0  0  0  0  0  0  0
  -27.1100  -20.8520   16.1570 N   0  0  0  0  0  0  0  0  0  0  0  0
  -28.3290  -22.0670   14.7440 O   0  0  0  0  0  0  0  0  0  0  0  0
  -27.3140  -20.0830   15.5340 H   0  0  0  0  0  0  0  0  0  0  0  0
  -27.6620  -23.2530   16.7250 C   0  0  0  0  0  2  0  0  0  0  0  0
  -25.1350  -23.6830   16.6140 C   0  0  0  0  0  0  0  0  0  0  0  0
  -26.3400  -23.7020   17.2160 N   0  0  0  0  0  0  0  0  0  0  0  0
  -24.9800  -23.3100   15.4510 O   0  0  0  0  0  0  0  0  0  0  0  0
  -26.3350  -24.1360   18.1290 H   0  0  0  0  0  0  0  0  0  0  0  0
  -23.8900  -24.1490   17.4210 C   0  0  0  0  0  2  0  0  0  0  0  0
  -23.9410  -23.1810   19.8260 C   0  0  0  0  0  0  0  0  0  0  0  0
  -23.9540  -24.1910   18.9210 N   0  0  0  0  0  0  0  0  0  0  0  0
  -23.8330  -22.0290   19.4340 O   0  0  0  0  0  0  0  0  0  0  0  0
  -24.0170  -25.1350   19.2900 H   0  0  0  0  0  0  0  0  0  0  0  0
  -23.9820  -23.4400   21.3880 C   0  0  0  0  0  2  0  0  0  0  0  0
  -25.5260  -22.3850   23.2210 C   0  0  0  0  0  0  0  0  0  0  0  0
  -25.2750  -23.1920   22.1330 N   0  0  0  0  0  0  0  0  0  0  0  0
  -24.5670  -22.1280   23.9580 O   0  0  0  0  0  0  0  0  0  0  0  0
  -26.0900  -23.4980   21.5980 H   0  0  0  0  0  0  0  0  0  0  0  0
  -26.9710  -21.8780   23.7720 C   0  0  0  0  0  2  0  0  0  0  0  0
  -28.3070  -21.0940   23.1570 C   0  0  0  0  0  3  0  0  0  0  0  0
  -28.7020  -19.5100   23.2730 C   0  0  0  0  0  3  0  0  0  0  0  0
  -29.8430  -18.8270   22.2200 C   0  0  0  0  0  2  0  0  0  0  0  0
  -30.5570  -17.2990   22.2110 C   0  0  0  0  0  2  0  0  0  0  0  0
  -30.7930  -14.9920   20.6310 C   0  0  0  0  0  0  0  0  0  0  0  0
  -30.4910  -12.9130   19.2240 C   0  0  0  0  0  2  0  0  0  0  0  0
  -29.6830  -12.5640   17.9270 C   0  0  0  0  0  2  0  0  0  0  0  0
  -28.1520  -12.8580   17.7810 C   0  0  0  0  0  2  0  0  0  0  0  0
  -27.5060  -13.8600   18.7600 C   0  0  0  0  0  3  0  0  0  0  0  0
  -28.6730  -14.6300   19.4530 C   0  0  0  0  0  2  0  0  0  0  0  0
  -29.9890  -14.1110   19.9430 N   0  0  0  0  0  0  0  0  0  0  0  0
  -31.9930  -14.8800   20.4520 O   0  0  0  0  0  0  0  0  0  0  0  0
  -30.1660  -16.1220   21.2690 N   0  0  0  0  0  0  0  0  0  0  0  0
  -29.1740  -16.1120   21.1230 H   0  0  0  0  0  0  0  0  0  0  0  0
  -24.9630  -14.6050   20.3670 C   0  0  0  0  0  0  0  0  0  0  0  0
  -23.7100  -13.6060   20.9840 C   0  0  0  0  0  3  0  0  0  0  0  0
  -24.0070  -11.8650   20.5270 C   0  0  0  0  0  3  0  0  0  0  0  0
  -26.1940  -13.5440   19.4260 N   0  0  0  0  0  2  0  0  0  0  0  0
  -25.4870  -11.7970   19.5230 N   0  0  0  0  0  1  0  0  0  0  0  0
  -23.4600  -10.8170   21.2870 C   0  0  0  0  0  0  0  0  0  0  0  0
  -23.6880  -10.2230   22.5820 C   0  0  0  0  0  3  0  0  0  0  0  0
  -23.4410   -8.8680   22.8030 C   0  0  0  0  0  3  0  0  0  0  0  0
  -22.4680   -8.3100   22.0270 C   0  0  0  0  0  0  0  0  0  0  0  0
  -21.8360   -9.2710   21.1190 C   0  0  0  0  0  3  0  0  0  0  0  0
  -22.4170  -10.3280   20.6310 C   0  0  0  0  0  3  0  0  0  0  0  0
  -22.3660   -6.9120   21.9720 O   0  0  0  0  0  0  0  0  0  0  0  0
  -21.7890   -5.9340   22.7570 C   0  0  0  0  0  0  0  0  0  0  0  0
  -20.9270   -6.0590   23.8230 C   0  0  0  0  0  3  0  0  0  0  0  0
  -20.9460   -5.1980   24.8950 C   0  0  0  0  0  3  0  0  0  0  0  0
  -21.6120   -4.0100   24.7380 C   0  0  0  0  0  0  0  0  0  0  0  0
  -22.0920   -3.6410   23.4730 C   0  0  0  0  0  3  0  0  0  0  0  0
  -22.1340   -4.6070   22.4600 C   0  0  0  0  0  0  0  0  0  0  0  0
  -22.4680   -4.2420   21.2080 F   0  0  0  0  0  0  0  0  0  0  0  0
  -21.6340   -3.1900   25.8130 F   0  0  0  0  0  0  0  0  0  0  0  0
  -22.4370  -13.9170   21.5480 C   0  0  0  0  0  0  0  0  0  0  0  0
  -21.8550  -13.0100   22.3490 N   0  0  0  0  0  0  0  0  0  0  0  0
  -21.9170  -14.9390   21.1370 O   0  0  0  0  0  0  0  0  0  0  0  0
  -20.9620  -13.1740   22.7890 H   0  0  0  0  0  0  0  0  0  0  0  0
  -22.3670  -12.1830   22.6040 H   0  0  0  0  0  0  0  0  0  0  0  0
  -25.2110  -15.9150   20.4000 N   0  0  0  0  0  4  0  0  0  0  0  0
  -24.4440  -16.4730   20.7580 H   0  0  0  0  0  0  0  0  0  0  0  0
  -25.4980  -16.0790   19.4610 H   0  0  0  0  0  0  0  0  0  0  0  0
  -24.0870  -13.4090   18.7120 C   0  0  0  0  0  2  0  0  0  0  0  0
  -22.4990  -13.6910   18.4260 C   0  0  0  0  0  2  0  0  0  0  0  0
  -21.6270  -12.4840   18.6210 C   0  0  0  0  0  2  0  0  0  0  0  0
  -20.7030  -11.8490   17.5970 C   0  0  0  0  0  2  0  0  0  0  0  0
  -21.0420  -10.2990   17.2660 C   0  0  0  0  0  2  0  0  0  0  0  0
  -22.3710   -9.6540   17.5940 O   0  0  0  0  0  0  0  0  0  0  0  0
  -23.5470   -9.7350   16.7190 C   0  0  0  0  0  2  0  0  0  0  0  0
  -25.0460   -9.2400   17.1630 C   0  0  0  0  0  0  0  0  0  0  0  0
  -25.9130   -9.8870   18.0430 N   0  0  0  0  0  0  0  0  0  0  0  0
  -25.4740   -8.2710   16.5100 O   0  0  0  0  0  0  0  0  0  0  0  0
  -25.3820  -10.6560   18.4700 H   0  0  0  0  0  0  0  0  0  0  0  0
  -27.4090   -9.9010   18.6090 C   0  0  0  0  0  2  0  0  0  0  0  0
  -28.2660  -10.8430   19.8000 C   0  0  0  0  0  0  0  0  0  0  0  0
  -27.9890  -12.0280   20.5970 N   0  0  0  0  0  0  0  0  0  0  0  0
  -29.3270  -10.2980   19.9590 O   0  0  0  0  0  0  0  0  0  0  0  0
  -27.1120  -12.2290   20.1100 H   0  0  0  0  0  0  0  0  0  0  0  0
  -28.3540  -13.2850   21.7180 C   0  0  0  0  0  2  0  0  0  0  0  0
  -27.3500  -14.8680   21.8920 C   0  0  0  0  0  2  0  0  0  0  0  0
  -26.4200  -13.6260   22.6390 N   0  0  0  0  0  4  0  0  0  0  0  0
  -26.7580  -13.7460   23.5770 H   0  0  0  0  0  0  0  0  0  0  0  0
  -25.5070  -14.0520   22.7940 H   0  0  0  0  0  0  0  0  0  0  0  0
  -26.2630  -11.8150   22.6590 C   0  0  0  0  0  1  0  0  0  0  0  0
  -26.0910  -10.1120   21.5990 C   0  0  0  0  0  1  0  0  0  0  0  0
  -25.0890   -8.6730   20.7170 C   0  0  0  0  0  2  0  0  0  0  0  0
  -23.7230   -8.2680   19.7440 O   0  0  0  0  0  0  0  0  0  0  0  0
  -22.2980   -7.3010   19.5570 C   0  0  0  0  0  2  0  0  0  0  0  0
  -20.6050   -7.0890   20.3840 C   0  0  0  0  0  3  0  0  0  0  0  0
  -19.7820   -7.8570   21.8360 C   0  0  0  0  0  3  0  0  0  0  0  0
  -20.2760   -8.7660   23.0990 O   0  0  0  0  0  0  0  0  0  0  0  0
  -20.9180   -8.7620   24.5850 C   0  0  0  0  0  2  0  0  0  0  0  0
  -22.2050   -7.9270   25.3030 C   0  0  0  0  0  2  0  0  0  0  0  0
  -24.5080   -7.1050   26.1970 C   0  0  0  0  0  1  0  0  0  0  0  0
  -23.5820   -8.3610   25.9610 C   0  0  0  0  0  2  0  0  0  0  0  0
  -27.3500  -17.2550   21.6210 C   0  0  0  0  0 15  0  0  0  0  0  0
  -27.1220  -19.5540   20.8360 C   0  0  0  0  0 15  0  0  0  0  0  0
  -27.3870  -21.9740   20.4610 C   0  0  0  0  0 15  0  0  0  0  0  0
  -27.5230  -24.1650   20.6300 O   0  0  0  0  0  1  0  0  0  0  0  0
  -24.7320  -31.7150   23.1110 C   0  0  0  0  0  0  0  0  0  0  0  0
  -26.9090  -25.8550   20.4170 C   0  0  0  0  0  0  0  0  0  0  0  0
  -23.5770  -30.3060   21.4820 C   0  0  0  0  0  3  0  0  0  0  0  0
  -24.9920  -28.4870   20.1380 C   0  0  0  0  0  0  0  0  0  0  0  0
  -26.1620  -30.1500   21.5260 C   0  0  0  0  0  2  0  0  0  0  0  0
  -26.1410  -28.6280   20.9120 C   0  0  0  0  0  0  0  0  0  0  0  0
  -27.0640  -27.3450   21.0270 C   0  0  0  0  0  3  0  0  0  0  0  0
  -25.9440  -26.2420   19.4200 C   0  0  0  0  0  3  0  0  0  0  0  0
  -24.9950  -27.3430   19.3490 C   0  0  0  0  0  3  0  0  0  0  0  0
  -23.8550  -29.5660   20.1310 C   0  0  0  0  0  2  0  0  0  0  0  0
  -24.8570  -30.7830   22.0830 N   0  0  0  0  0  0  0  0  0  0  0  0
  -23.6260  -32.0690   23.5590 O   0  0  0  0  0  0  0  0  0  0  0  0
  -22.7920  -29.3860   22.4550 C   0  0  0  0  0  0  0  0  0  0  0  0
  -21.4520  -29.2930   22.3310 N   0  0  0  0  0  0  0  0  0  0  0  0
  -23.4070  -28.7600   23.3190 O   0  0  0  0  0  0  0  0  0  0  0  0
  -20.9930  -29.8440   21.6180 H   0  0  0  0  0  0  0  0  0  0  0  0
  -18.0340  -28.1430   22.8430 C   0  0  0  0  0  0  0  0  0  0  0  0
  -20.6010  -28.3840   23.1050 C   0  0  0  0  0  3  0  0  0  0  0  0
  -20.6770  -26.9430   22.5470 C   0  0  0  0  0  2  0  0  0  0  0  0
  -19.5780  -26.6340   21.5250 C   0  0  0  0  0  2  0  0  0  0  0  0
  -18.1970  -26.7950   22.1630 C   0  0  0  0  0  2  0  0  0  0  0  0
  -19.1620  -28.8990   23.2690 C   0  0  0  0  0  0  0  0  0  0  0  0
  -18.9520  -30.1570   23.8750 C   0  0  0  0  0  3  0  0  0  0  0  0
  -17.6510  -30.6630   24.0530 C   0  0  0  0  0  3  0  0  0  0  0  0
  -16.5400  -29.9110   23.6380 C   0  0  0  0  0  3  0  0  0  0  0  0
  -16.7330  -28.6520   23.0430 C   0  0  0  0  0  3  0  0  0  0  0  0
  -25.9690  -32.4040   23.7800 C   0  0  0  0  0  3  0  0  0  0  0  0
  -26.4670  -31.6360   25.0670 C   0  0  1  0  0  0  0  0  0  0  0  0
  -25.3560  -31.3830   26.1140 C   0  0  0  0  0  1  0  0  0  0  0  0
  -27.0770  -30.2610   24.7230 C   0  0  0  0  0  1  0  0  0  0  0  0
  -27.6040  -32.4410   25.7420 C   0  0  0  0  0  1  0  0  0  0  0  0
  -25.5980  -33.7920   24.1550 N   0  0  0  0  0  0  0  0  0  0  0  0
  -25.9210  -34.9070   23.4790 C   0  0  0  0  0  0  0  0  0  0  0  0
  -26.6020  -34.8790   22.4510 O   0  0  0  0  0  0  0  0  0  0  0  0
  -24.9680  -33.8880   24.9400 H   0  0  0  0  0  0  0  0  0  0  0  0
  -24.1460  -36.6970   23.2680 C   0  0  0  0  0  1  0  0  0  0  0  0
  -25.4170  -36.2680   24.0210 C   0  0  0  0  0  3  0  0  0  0  0  0
  -27.5510  -37.1650   24.8460 C   0  0  0  0  0  1  0  0  0  0  0  0
  -26.4230  -37.3520   23.9410 N   0  0  0  0  0  0  0  0  0  0  0  0
  -25.9970  -38.2520   24.1490 H   0  0  0  0  0  0  0  0  0  0  0  0
  1 80  1  0
  2  3  1  0
  3  1  1  0
  4  2  2  0
  5  3  1  0
  6  8  1  0
  6  2  1  0
  7 11  1  0
  8 10  1  0
  8  7  1  0
  9  7  2  0
 11 12  1  0
 12 14  1  0
 12 13  1  0
 16 17  1  0
 16 12  1  0
 16 15  1  0
 18 19  1  0
 18 22  1  0
 19 17  1  0
 20 18  2  0
 21 19  1  0
 22 24  1  0
 23 24  1  0
 23 27  1  0
 24 26  1  0
 25 23  2  0
 27 29  1  0
 28 32  1  0
 29 31  1  0
 29 28  1  0
 30 28  2  0
 32 34  1  0
 33 37  1  0
 33 35  2  0
 34 33  1  0
 36 34  1  0
 38 39  2  0
 38 37  1  0
 40 39  1  0
 41 40  1  0
 42 50  1  0
 43 48  1  0
 44 43  1  0
 45 44  1  0
 45 46  1  0
 46 55  1  0
 46 47  1  0
 47 48  1  0
 48 42  1  0
 49 42  2  0
 50 41  1  0
 51 50  1  0
 52 77  2  0
 53 52  1  0
 53 72  1  0
 54 56  1  0
 54 53  1  0
 54 57  1  0
 55 52  1  0
 57 58  1  0
 58 59  2  0
 60 59  1  0
 61 60  2  0
 62 61  1  0
 62 57  2  0
 63 60  1  0
 63 64  1  0
 64 65  1  0
 65 66  2  0
 67 66  1  0
 67 71  1  0
 68 67  2  0
 69 64  2  0
 69 68  1  0
 70 69  1  0
 72 73  1  0
 73 76  1  0
 73 75  1  0
 74 72  2  0
 77 78  1  0
 79 77  1  0
 81 82  1  0
 81 80  1  0
 83 82  1  0
 84 85  1  0
 84 83  1  0
 86 87  1  0
 86 85  1  0
 87 88  1  0
 88 90  1  0
 88 91  1  0
 89 87  2  0
 91 92  1  0
 92 94  2  0
 92 93  1  0
 93 96  1  0
 95 93  1  0
 96 97  1  0
 97 98  1  0
 98101  1  0
 98100  1  0
 98 99  1  0
103102  1  0
104103  1  0
105104  1  0
105106  1  0
106107  2  0
107108  1  0
108109  1  0
109110  1  0
110112  1  0
112111  1  0
117128  2  0
118116  1  0
118123  1  0
119127  1  0
119129  1  0
120122  1  0
121127  1  0
122123  2  0
122121  1  0
124118  2  0
125124  1  0
125120  2  0
126120  1  0
126119  1  0
127117  1  0
129131  2  0
130129  1  0
132130  1  0
133142  2  0
133138  1  0
134130  1  0
134138  1  0
135134  1  0
136137  1  0
136135  1  0
137133  1  0
138139  2  0
139140  1  0
141140  2  0
142141  1  0
143117  1  0
143148  1  0
143144  1  0
144147  1  1
144145  1  0
146144  1  0
148151  1  0
149153  1  0
149148  1  0
150149  2  0
153152  1  0
155153  1  0
155156  1  0
155154  1  0
M  ISO  4  42 100  50 100 115 101 116 101
M  END
>  <TORSDO>  (4) 
F 62

>  <SCORE>  (4) 
90.890

>  <name>  (4) 
4

>  <ligand_id>  (4) 
4

>  <original_smiles>  (4) 
[H]c1c([H])c([H])c2c(c1[H])C([H])([H])C([H])([H])C([H])([H])C2([H])N([H])C(=O)C1([H])N(C(=O)C([H])(N([H])C(=O)C([H])(N([H])C([H])([H])[H])C([H])([H])[H])C(C([H])([H])[H])(C([H])([H])[H])C([H])([H])[H])C([H])([H])c2c([H])c(OC([H])([H])C([H])([H])C([H])([H])C([H])(C([H])([H])N([H])C(=O)C([H])([H])N([H])C(=O)C([H])([H])OC([H])([H])C([H])([H])C([H])([H])C([H])([H])C([H])([H])C([H])([H])N([H])C(=O)C([H])([H])N([H])C(=O)C([H])([H])[N+]([H])([H])C([H])(C([H])([H])[H])C([H])([H])N([H])C(=O)C([H])([H])N([H])C(=O)C([H])([H])N([H])C(=O)C([H])([H])N([H])C(=O)C([H])([H])C([H])([H])C([H])([H])C([H])([H])C([H])([H])N([H])C(=O)N3C([H])([H])C([H])([H])C([H])([H])C([H])(n4nc(-c5c([H])c([H])c(Oc6c([H])c([H])c(F)c([H])c6F)c([H])c5[H])c(C(=O)N([H])[H])c4N([H])[H])C3([H])[H])[N+]([H])([H])C([H])([H])C([H])([H])C([H])([H])OC([H])([H])C([H])([H])C([H])([H])OC([H])([H])C([H])([H])C([H])([H])C([H])([H])[H])c([H])c([H])c2C1([H])[H]

>  <smiles>  (4) 
[H]c1c([H])c([H])c2c(c1[H])C([H])([H])C([H])([H])C([H])([H])C2([H])N([H])C(=O)C1([H])N(C(=O)C([H])(N([H])C(=O)C([H])(N([H])C([H])([H])[H])C([H])([H])[H])C(C([H])([H])[H])(C([H])([H])[H])C([H])([H])[H])C([H])([H])c2c([H])c(OC([H])([H])C([H])([H])C([H])([H])C([H])(C([H])([H])N([H])C(=O)C([H])([H])N([H])C(=O)C([H])([H])OC([H])([H])C([H])([H])C([H])([H])C([H])([H])C([H])([H])C([H])([H])N([H])C(=O)C([H])([H])N([H])C(=O)C([H])([H])[N+]([H])([H])C([H])(C([H])([H])[H])C([H])([H])N([H])C(=O)C([H])([H])N([H])C(=O)C([H])([H])N([H])C(=O)C([H])([H])N([H])C(=O)C([H])([H])C([H])([H])C([H])([H])C([H])([H])C([H])([H])N([H])C(=O)N3C([H])([H])C([H])([H])C([H])([H])C([H])(n4nc(-c5c([H])c([H])c(Oc6c([H])c([H])c(F)c([H])c6F)c([H])c5[H])c(C(=O)N([H])[H])c4N([H])[H])C3([H])[H])[N+]([H])([H])C([H])([H])C([H])([H])C([H])([H])OC([H])([H])C([H])([H])C([H])([H])OC([H])([H])C([H])([H])C([H])([H])C([H])([H])[H])c([H])c([H])c2C1([H])[H]

$$$$
5:0:0
     RDKit          3D

117119  0  0  1  0  0  0  0  0999 V2000
  -28.4230   -8.7680   17.6240 C   0  0  0  0  0  0  0  0  0  0  0  0
  -29.4470   -8.9620   16.7790 N   0  0  0  0  0  0  0  0  0  0  0  0
  -27.2800   -8.5230   17.2290 O   0  0  0  0  0  0  0  0  0  0  0  0
  -30.3370   -9.1790   17.2090 H   0  0  0  0  0  0  0  0  0  0  0  0
  -29.4060   -9.1670   15.3170 C   0  0  0  0  0  2  0  0  0  0  0  0
  -28.9570  -10.5830   14.8600 C   0  0  0  0  0  0  0  0  0  0  0  0
  -29.8970  -11.4700   14.4580 N   0  0  0  0  0  0  0  0  0  0  0  0
  -27.7570  -10.8510   14.8260 O   0  0  0  0  0  0  0  0  0  0  0  0
  -30.8590  -11.1580   14.5220 H   0  0  0  0  0  0  0  0  0  0  0  0
  -29.6770  -12.7510   13.7400 C   0  0  0  0  0  2  0  0  0  0  0  0
  -29.0390  -13.9370   14.5300 C   0  0  0  0  0  2  0  0  0  0  0  0
  -29.9650  -15.1340   14.9050 C   0  0  0  0  0  2  0  0  0  0  0  0
  -29.1980  -16.4090   15.3820 C   0  0  0  0  0  2  0  0  0  0  0  0
  -30.0590  -17.6780   15.6790 C   0  0  0  0  0  3  0  0  0  0  0  0
  -29.2420  -18.9790   15.9700 C   0  0  0  0  0  3  0  0  0  0  0  0
  -30.0440  -20.2420   16.4110 C   0  0  0  0  0  2  0  0  0  0  0  0
  -29.1340  -21.4870   16.6590 C   0  0  0  0  0  2  0  0  0  0  0  0
  -29.8070  -22.7200   17.3340 C   0  0  0  0  0  2  0  0  0  0  0  0
  -28.8510  -23.9110   17.6270 C   0  0  0  0  0  2  0  0  0  0  0  0
  -29.5400  -25.0940   18.3610 C   0  0  0  0  0  2  0  0  0  0  0  0
  -28.6840  -26.3760   18.5150 C   0  0  0  0  0  2  0  0  0  0  0  0
  -28.3830  -26.7290   19.8840 O   0  0  0  0  0  0  0  0  0  0  0  0
  -24.6160  -31.8700   23.2150 C   0  0  0  0  0  0  0  0  0  0  0  0
  -27.2160  -27.4490   20.0290 C   0  0  0  0  0  0  0  0  0  0  0  0
  -23.3990  -30.4990   21.5600 C   0  0  0  0  0  3  0  0  0  0  0  0
  -24.8330  -28.9630   20.1240 C   0  0  0  0  0  0  0  0  0  0  0  0
  -25.9320  -30.8290   21.3690 C   0  0  0  0  0  2  0  0  0  0  0  0
  -26.0020  -29.4630   20.7150 C   0  0  0  0  0  0  0  0  0  0  0  0
  -27.1980  -28.7070   20.6780 C   0  0  0  0  0  3  0  0  0  0  0  0
  -26.0110  -26.9360   19.5040 C   0  0  0  0  0  3  0  0  0  0  0  0
  -24.8280  -27.6920   19.5310 C   0  0  0  0  0  3  0  0  0  0  0  0
  -23.6030  -29.8380   20.1730 C   0  0  0  0  0  2  0  0  0  0  0  0
  -24.6680  -31.0800   22.1060 N   0  0  0  0  0  0  0  0  0  0  0  0
  -23.5350  -32.1460   23.7540 O   0  0  0  0  0  0  0  0  0  0  0  0
  -22.7390  -29.4680   22.5050 C   0  0  0  0  0  0  0  0  0  0  0  0
  -21.4120  -29.3020   22.3750 N   0  0  0  0  0  0  0  0  0  0  0  0
  -23.4180  -28.8210   23.3060 O   0  0  0  0  0  0  0  0  0  0  0  0
  -20.9280  -29.8760   21.6990 H   0  0  0  0  0  0  0  0  0  0  0  0
  -18.0260  -28.1370   22.8500 C   0  0  0  0  0  0  0  0  0  0  0  0
  -20.5850  -28.3650   23.1340 C   0  0  0  0  0  3  0  0  0  0  0  0
  -20.6760  -26.9390   22.5420 C   0  0  0  0  0  2  0  0  0  0  0  0
  -19.5730  -26.6380   21.5220 C   0  0  0  0  0  2  0  0  0  0  0  0
  -18.1910  -26.7920   22.1620 C   0  0  0  0  0  2  0  0  0  0  0  0
  -19.1510  -28.8830   23.2910 C   0  0  0  0  0  0  0  0  0  0  0  0
  -18.9450  -30.1440   23.8920 C   0  0  0  0  0  3  0  0  0  0  0  0
  -17.6450  -30.6590   24.0570 C   0  0  0  0  0  3  0  0  0  0  0  0
  -16.5340  -29.9090   23.6330 C   0  0  0  0  0  3  0  0  0  0  0  0
  -16.7250  -28.6500   23.0350 C   0  0  0  0  0  3  0  0  0  0  0  0
  -25.9050  -32.4840   23.8420 C   0  0  0  0  0  3  0  0  0  0  0  0
  -25.5900  -33.8630   24.2340 N   0  0  0  0  0  0  0  0  0  0  0  0
  -25.9030  -34.9480   23.5130 C   0  0  0  0  0  0  0  0  0  0  0  0
  -26.5580  -34.8930   22.4690 O   0  0  0  0  0  0  0  0  0  0  0  0
  -25.0060  -33.9800   25.0490 H   0  0  0  0  0  0  0  0  0  0  0  0
  -24.1480  -36.7310   23.2650 C   0  0  0  0  0  1  0  0  0  0  0  0
  -25.4110  -36.3120   24.0340 C   0  0  0  0  0  3  0  0  0  0  0  0
  -27.5560  -37.1840   24.8490 C   0  0  0  0  0  1  0  0  0  0  0  0
  -26.4300  -37.3790   23.9380 N   0  0  0  0  0  0  0  0  0  0  0  0
  -26.0200  -38.2890   24.1300 H   0  0  0  0  0  0  0  0  0  0  0  0
  -26.4470  -31.6610   25.0750 C   0  0  1  0  0  0  0  0  0  0  0  0
  -25.3730  -31.3700   26.1490 C   0  0  0  0  0  1  0  0  0  0  0  0
  -27.0310  -30.3060   24.6120 C   0  0  0  0  0  1  0  0  0  0  0  0
  -27.6030  -32.4340   25.7520 C   0  0  0  0  0  1  0  0  0  0  0  0
  -28.6800   -9.0020   19.1330 C   0  0  0  0  0  2  0  0  0  0  0  0
  -29.0150  -11.4850   19.9040 C   0  0  0  0  0  2  0  0  0  0  0  0
  -28.3750  -10.4260   19.3040 N   0  0  0  0  0  0  0  0  0  0  0  0
  -29.5100  -10.9920   20.9430 O   0  0  0  0  0  1  0  0  0  0  0  0
  -27.8410  -10.7390   18.5070 H   0  0  0  0  0  0  0  0  0  0  0  0
  -29.3630  -13.9540   18.9540 C   0  0  0  0  0  1  0  0  0  0  0  0
  -28.4680  -16.4940   19.2710 C   0  0  0  0  0  0  0  0  0  0  0  0
  -28.6550  -15.2770   18.7140 N   0  0  0  0  0  0  0  0  0  0  0  0
  -27.9600  -17.3520   18.5590 O   0  0  0  0  0  0  0  0  0  0  0  0
  -28.3450  -15.3020   17.7500 H   0  0  0  0  0  0  0  0  0  0  0  0
  -28.7720  -16.8950   20.7230 C   0  0  0  0  0  2  0  0  0  0  0  0
  -28.8990  -18.3220   20.8160 O   0  0  0  0  0  0  0  0  0  0  0  0
  -28.4810  -18.9650   22.0200 C   0  0  0  0  0  2  0  0  0  0  0  0
  -28.8040  -18.2040   23.3350 C   0  0  0  0  0  2  0  0  0  0  0  0
  -30.2090  -17.9620   23.4160 O   0  0  0  0  0  0  0  0  0  0  0  0
  -30.6000  -16.7060   23.9880 C   0  0  0  0  0  2  0  0  0  0  0  0
  -31.6270  -16.0370   23.0420 C   0  0  0  0  0  2  0  0  0  0  0  0
  -31.2360  -14.3550   21.2130 C   0  0  0  0  0  0  0  0  0  0  0  0
  -31.1530  -12.4810   19.3040 C   0  0  0  0  0  1  0  0  0  0  0  0
  -29.9090  -12.0810   17.7200 C   0  0  0  0  0 15  0  0  0  0  0  0
  -27.8580  -12.4850   17.9620 C   0  0  0  0  0 15  0  0  0  0  0  0
  -27.3140  -13.2350   19.7750 C   0  0  0  0  0  1  0  0  0  0  0  0
  -28.7080  -13.5570   21.1960 C   0  0  0  0  0  1  0  0  0  0  0  0
  -30.4960  -13.2880   20.8570 N   0  0  0  0  0  0  0  0  0  0  0  0
  -32.0730  -14.8440   20.4490 O   0  0  0  0  0  0  0  0  0  0  0  0
  -31.0230  -14.8270   22.4520 N   0  0  0  0  0  0  0  0  0  0  0  0
  -30.2820  -14.3850   22.9740 H   0  0  0  0  0  0  0  0  0  0  0  0
  -25.1040  -13.8040   20.6560 C   0  0  0  0  0  0  0  0  0  0  0  0
  -24.0610  -13.0170   20.9910 C   0  0  0  0  0  0  0  0  0  0  0  0
  -24.5350  -11.6680   20.9180 C   0  0  0  0  0  0  0  0  0  0  0  0
  -26.0930  -12.9060   20.3270 N   0  0  0  0  0  0  0  0  0  0  0  0
  -25.8060  -11.6240   20.5590 N   0  0  0  0  0  0  0  0  0  0  0  0
  -23.8440  -10.4060   21.0690 C   0  0  0  0  0  0  0  0  0  0  0  0
  -24.3250   -9.4050   21.9400 C   0  0  0  0  0  3  0  0  0  0  0  0
  -23.6120   -8.1990   22.0770 C   0  0  0  0  0  3  0  0  0  0  0  0
  -22.4110   -8.0050   21.3560 C   0  0  0  0  0  0  0  0  0  0  0  0
  -21.9640   -8.9980   20.4680 C   0  0  0  0  0  3  0  0  0  0  0  0
  -22.6740  -10.1940   20.3230 C   0  0  0  0  0  3  0  0  0  0  0  0
  -21.6500   -6.8690   21.4300 O   0  0  0  0  0  0  0  0  0  0  0  0
  -21.6750   -6.0640   22.5380 C   0  0  0  0  0  0  0  0  0  0  0  0
  -21.3930   -6.5620   23.8310 C   0  0  0  0  0  3  0  0  0  0  0  0
  -21.3690   -5.6770   24.9270 C   0  0  0  0  0  3  0  0  0  0  0  0
  -21.6050   -4.3030   24.7310 C   0  0  0  0  0  0  0  0  0  0  0  0
  -21.8760   -3.8130   23.4420 C   0  0  0  0  0  3  0  0  0  0  0  0
  -21.9110   -4.6900   22.3470 C   0  0  0  0  0  0  0  0  0  0  0  0
  -22.1590   -4.2090   21.1060 F   0  0  0  0  0  0  0  0  0  0  0  0
  -21.5680   -3.4530   25.7820 F   0  0  0  0  0  0  0  0  0  0  0  0
  -22.6820  -13.5100   21.2340 C   0  0  0  0  0  0  0  0  0  0  0  0
  -21.9410  -12.8200   22.0840 N   0  0  0  0  0  0  0  0  0  0  0  0
  -22.2820  -14.5500   20.7030 O   0  0  0  0  0  0  0  0  0  0  0  0
  -22.2790  -11.9750   22.5150 H   0  0  0  0  0  0  0  0  0  0  0  0
  -21.0090  -13.1520   22.2960 H   0  0  0  0  0  0  0  0  0  0  0  0
  -25.2470  -15.1910   20.5380 N   0  0  0  0  0  0  0  0  0  0  0  0
  -24.4130  -15.7430   20.7160 H   0  0  0  0  0  0  0  0  0  0  0  0
  -25.8520  -15.6290   19.8600 H   0  0  0  0  0  0  0  0  0  0  0  0
  1 63  1  0
  2  4  1  0
  2  1  1  0
  3  1  2  0
  5  2  1  0
  6  5  1  0
  7  9  1  0
  7  6  1  0
  8  6  2  0
 10  7  1  0
 10 11  1  0
 11 12  1  0
 12 13  1  0
 13 14  1  0
 14 15  2  0
 15 16  1  0
 16 17  1  0
 17 18  1  0
 18 19  1  0
 19 20  1  0
 20 21  1  0
 21 22  1  0
 22 24  1  0
 23 34  2  0
 24 29  1  0
 25 33  1  0
 25 35  1  0
 26 32  1  0
 26 28  1  0
 27 33  1  0
 28 27  1  0
 29 28  2  0
 30 31  1  0
 30 24  2  0
 31 26  2  0
 32 25  1  0
 33 23  1  0
 35 37  2  0
 36 35  1  0
 38 36  1  0
 39 48  2  0
 39 44  1  0
 40 36  1  0
 40 44  1  0
 41 40  1  0
 42 43  1  0
 42 41  1  0
 43 39  1  0
 44 45  2  0
 45 46  1  0
 47 46  2  0
 48 47  1  0
 49 23  1  0
 49 50  1  0
 49 59  1  0
 50 53  1  0
 51 55  1  0
 51 50  1  0
 52 51  2  0
 55 54  1  0
 57 55  1  0
 57 58  1  0
 57 56  1  0
 59 62  1  1
 59 60  1  0
 61 59  1  0
 63 65  1  0
 64 66  1  0
 65 64  1  0
 67 65  1  0
 69 73  1  0
 70 68  1  0
 70 69  1  0
 71 69  2  0
 72 70  1  0
 73 74  1  0
 74 75  1  0
 75 76  1  0
 76 77  1  0
 77 78  1  0
 79 78  1  0
 80 88  1  0
 81 86  1  0
 84 93  1  0
 86 85  1  0
 86 80  1  0
 87 80  2  0
 88 89  1  0
 88 79  1  0
 90 91  2  0
 91110  1  0
 92 91  1  0
 92 95  1  0
 93 94  1  0
 93 90  1  0
 94 92  2  0
 95 96  1  0
 96 97  2  0
 98101  1  0
 98 97  1  0
 99 98  2  0
100 99  1  0
100 95  2  0
101102  1  0
102103  1  0
103104  2  0
105104  1  0
105109  1  0
106105  2  0
107102  2  0
107106  1  0
108107  1  0
110111  1  0
111114  1  0
111113  1  0
112110  2  0
115 90  1  0
115116  1  0
117115  1  0
M  ISO  4  21 101  22 101  80 100  88 100
M  END
>  <TORSDO>  (5) 
F 41

>  <SCORE>  (5) 
42.443

>  <name>  (5) 
5

>  <ligand_id>  (5) 
5

>  <original_smiles>  (5) 
[H]c1c([H])c([H])c2c(c1[H])C([H])([H])C([H])([H])C([H])([H])C2([H])N([H])C(=O)C1([H])N(C(=O)C([H])(N([H])C(=O)C([H])(N([H])C([H])([H])[H])C([H])([H])[H])C(C([H])([H])[H])(C([H])([H])[H])C([H])([H])[H])C([H])([H])c2c([H])c(OC([H])([H])C([H])([H])C([H])([H])C([H])([H])C([H])([H])C([H])([H])C([H])([H])C([H])([H])C([H])([H])C([H])([H])C([H])([H])C([H])([H])N([H])C(=O)C([H])([H])N([H])C(=O)C([H])([H])N([H])C(=O)C([H])([H])N([H])C(=O)C([H])([H])OC([H])([H])C([H])([H])OC([H])([H])C([H])([H])N([H])C(=O)N3C([H])([H])C([H])([H])C([H])([H])C([H])(n4nc(-c5c([H])c([H])c(Oc6c([H])c([H])c(F)c([H])c6F)c([H])c5[H])c(C(=O)N([H])[H])c4N([H])[H])C3([H])[H])c([H])c([H])c2C1([H])[H]

>  <smiles>  (5) 
[H]c1c([H])c([H])c2c(c1[H])C([H])([H])C([H])([H])C([H])([H])C2([H])N([H])C(=O)C1([H])N(C(=O)C([H])(N([H])C(=O)C([H])(N([H])C([H])([H])[H])C([H])([H])[H])C(C([H])([H])[H])(C([H])([H])[H])C([H])([H])[H])C([H])([H])c2c([H])c(OC([H])([H])C([H])([H])C([H])([H])C([H])([H])C([H])([H])C([H])([H])C([H])([H])C([H])([H])C([H])([H])C([H])([H])C([H])([H])C([H])([H])N([H])C(=O)C([H])([H])N([H])C(=O)C([H])([H])N([H])C(=O)C([H])([H])N([H])C(=O)C([H])([H])OC([H])([H])C([H])([H])OC([H])([H])C([H])([H])N([H])C(=O)N3C([H])([H])C([H])([H])C([H])([H])C([H])(n4nc(-c5c([H])c([H])c(Oc6c([H])c([H])c(F)c([H])c6F)c([H])c5[H])c(C(=O)N([H])[H])c4N([H])[H])C3([H])[H])c([H])c([H])c2C1([H])[H]

$$$$
6:0:0
     RDKit          3D

147154  0  0  1  0  0  0  0  0999 V2000
  -28.7740  -26.3120   15.3500 C   0  0  0  0  0  0  0  0  0  0  0  0
  -28.1760  -27.4430   14.9650 N   0  0  0  0  0  0  0  0  0  0  0  0
  -29.6540  -25.7530   14.6900 O   0  0  0  0  0  0  0  0  0  0  0  0
  -27.5020  -27.8490   15.6000 H   0  0  0  0  0  0  0  0  0  0  0  0
  -28.3010  -25.7140   16.6800 C   0  0  0  0  0  2  0  0  0  0  0  0
  -30.5020  -25.8570   17.8390 C   0  0  0  0  0  0  0  0  0  0  0  0
  -29.1750  -26.0270   17.8120 N   0  0  0  0  0  0  0  0  0  0  0  0
  -31.1170  -25.2860   16.9370 O   0  0  0  0  0  0  0  0  0  0  0  0
  -28.7410  -26.4700   18.6100 H   0  0  0  0  0  0  0  0  0  0  0  0
  -31.2590  -26.4580   19.0280 C   0  0  0  0  0  2  0  0  0  0  0  0
  -32.5620  -24.3410   19.1430 C   0  0  0  0  0  0  0  0  0  0  0  0
  -32.4550  -25.6630   19.2920 N   0  0  0  0  0  0  0  0  0  0  0  0
  -31.5880  -23.6100   18.9470 O   0  0  0  0  0  0  0  0  0  0  0  0
  -33.3110  -26.1890   19.3910 H   0  0  0  0  0  0  0  0  0  0  0  0
  -33.9760  -23.7460   19.2380 C   0  0  0  0  0  2  0  0  0  0  0  0
  -35.9710  -24.4730   17.9610 C   0  0  0  0  0  0  0  0  0  0  0  0
  -34.7460  -23.9340   18.0070 N   0  0  0  0  0  0  0  0  0  0  0  0
  -36.5800  -24.7950   18.9850 O   0  0  0  0  0  0  0  0  0  0  0  0
  -34.2970  -23.6830   17.1370 H   0  0  0  0  0  0  0  0  0  0  0  0
  -36.6150  -24.6940   16.5860 C   0  0  0  0  0  2  0  0  0  0  0  0
  -35.8130  -25.6420   15.8990 O   0  0  0  0  0  0  0  0  0  0  0  0
  -36.3240  -26.9580   15.8420 C   0  0  0  0  0  2  0  0  0  0  0  0
  -35.7830  -27.6220   17.1130 C   0  0  0  0  0  2  0  0  0  0  0  0
  -36.3050  -29.0460   17.3470 C   0  0  0  0  0  2  0  0  0  0  0  0
  -36.7320  -29.7150   16.0280 C   0  0  0  0  0  2  0  0  0  0  0  0
  -36.2870  -31.1220   15.9450 N   0  0  0  0  0  4  0  0  0  0  0  0
  -36.4300  -31.5440   16.8500 H   0  0  0  0  0  0  0  0  0  0  0  0
  -36.8740  -31.6260   15.2990 H   0  0  0  0  0  0  0  0  0  0  0  0
  -34.8620  -31.3080   15.5700 C   0  0  0  0  0  2  0  0  0  0  0  0
  -34.3090  -32.6950   15.9870 C   0  0  0  0  0  2  0  0  0  0  0  0
  -34.3210  -32.9750   17.5020 C   0  0  0  0  0  2  0  0  0  0  0  0
  -35.5320  -32.3350   18.2220 C   0  0  0  0  0  2  0  0  0  0  0  0
  -35.6960  -32.7740   19.6930 C   0  0  0  0  0  2  0  0  0  0  0  0
  -36.8000  -33.8220   19.9180 C   0  0  0  0  0  2  0  0  0  0  0  0
  -38.0000  -33.7630   18.9460 C   0  0  0  0  0  2  0  0  0  0  0  0
  -38.6280  -32.3550   18.9590 C   0  0  0  0  0  2  0  0  0  0  0  0
  -39.7860  -32.0740   17.9700 C   0  0  0  0  0  2  0  0  0  0  0  0
  -40.3570  -30.0740   19.3390 C   0  0  0  0  0  0  0  0  0  0  0  0
  -40.6020  -29.0020   21.5550 C   0  0  0  0  0  2  0  0  0  0  0  0
  -39.3740  -29.2700   22.4500 C   0  0  0  0  0  2  0  0  0  0  0  0
  -39.4750  -30.6350   23.1570 C   0  0  0  0  0  2  0  0  0  0  0  0
  -39.8420  -31.7820   22.1860 C   0  0  0  0  0  3  0  0  0  0  0  0
  -41.0790  -31.3790   21.3560 C   0  0  0  0  0  2  0  0  0  0  0  0
  -40.7780  -30.1260   20.6270 N   0  0  0  0  0  0  0  0  0  0  0  0
  -39.7750  -29.1090   18.8310 O   0  0  0  0  0  0  0  0  0  0  0  0
  -40.7050  -31.1630   18.6450 N   0  0  0  0  0  0  0  0  0  0  0  0
  -41.4500  -31.6600   19.1090 H   0  0  0  0  0  0  0  0  0  0  0  0
  -40.5040  -34.2670   22.4190 C   0  0  0  0  0  0  0  0  0  0  0  0
  -40.4520  -35.1270   23.4880 C   0  0  0  0  0  0  0  0  0  0  0  0
  -39.9420  -34.3690   24.5820 C   0  0  0  0  0  0  0  0  0  0  0  0
  -40.0500  -33.0460   22.8960 N   0  0  0  0  0  0  0  0  0  0  0  0
  -39.7470  -33.1070   24.2190 N   0  0  0  0  0  0  0  0  0  0  0  0
  -39.5690  -34.7840   25.9410 C   0  0  0  0  0  0  0  0  0  0  0  0
  -38.3860  -34.3170   26.5560 C   0  0  0  0  0  3  0  0  0  0  0  0
  -38.0490  -34.7300   27.8650 C   0  0  0  0  0  3  0  0  0  0  0  0
  -38.9030  -35.6110   28.5720 C   0  0  0  0  0  0  0  0  0  0  0  0
  -40.0710  -36.0850   27.9460 C   0  0  0  0  0  3  0  0  0  0  0  0
  -40.4030  -35.6790   26.6430 C   0  0  0  0  0  3  0  0  0  0  0  0
  -38.6540  -36.0790   29.8400 O   0  0  0  0  0  0  0  0  0  0  0  0
  -39.0400  -35.3760   30.9530 C   0  0  0  0  0  0  0  0  0  0  0  0
  -40.3860  -35.0180   31.1780 C   0  0  0  0  0  3  0  0  0  0  0  0
  -40.7480  -34.3420   32.3620 C   0  0  0  0  0  3  0  0  0  0  0  0
  -39.7730  -34.0480   33.3300 C   0  0  0  0  0  0  0  0  0  0  0  0
  -38.4320  -34.4140   33.1130 C   0  0  0  0  0  3  0  0  0  0  0  0
  -38.0670  -35.0740   31.9270 C   0  0  0  0  0  0  0  0  0  0  0  0
  -36.7770  -35.4360   31.7290 F   0  0  0  0  0  0  0  0  0  0  0  0
  -40.1250  -33.4200   34.4760 F   0  0  0  0  0  0  0  0  0  0  0  0
  -40.7520  -36.5970   23.4670 C   0  0  0  0  0  0  0  0  0  0  0  0
  -41.9040  -37.0030   23.9990 N   0  0  0  0  0  0  0  0  0  0  0  0
  -39.9840  -37.3930   22.9360 O   0  0  0  0  0  0  0  0  0  0  0  0
  -42.5680  -36.3560   24.3980 H   0  0  0  0  0  0  0  0  0  0  0  0
  -42.1450  -37.9810   23.9500 H   0  0  0  0  0  0  0  0  0  0  0  0
  -40.8780  -34.4200   21.0880 N   0  0  0  0  0  0  0  0  0  0  0  0
  -41.1810  -35.3050   20.6960 H   0  0  0  0  0  0  0  0  0  0  0  0
  -40.8750  -33.6640   20.4150 H   0  0  0  0  0  0  0  0  0  0  0  0
  -28.5700  -28.2880   13.8430 C   0  0  0  0  0  2  0  0  0  0  0  0
  -29.9240  -28.9540   14.1150 C   0  0  0  0  0  0  0  0  0  0  0  0
  -30.5360  -28.6300   15.2570 N   0  0  0  0  0  0  0  0  0  0  0  0
  -30.4160  -29.7690   13.3290 O   0  0  0  0  0  0  0  0  0  0  0  0
  -30.0800  -27.9460   15.8460 H   0  0  0  0  0  0  0  0  0  0  0  0
  -31.8180  -29.1530   15.7330 C   0  0  0  0  0  2  0  0  0  0  0  0
  -33.4690  -29.0970   17.7090 C   0  0  0  0  0  1  0  0  0  0  0  0
  -32.4660  -28.3080   16.8590 C   0  0  0  0  0  3  0  0  0  0  0  0
  -33.0890  -27.0750   16.3260 N   0  0  0  0  0  4  0  0  0  0  0  0
  -34.0970  -27.1570   16.4630 H   0  0  0  0  0  0  0  0  0  0  0  0
  -32.7800  -26.2900   16.8770 H   0  0  0  0  0  0  0  0  0  0  0  0
  -32.7590  -26.8150   14.9060 C   0  0  0  0  0  2  0  0  0  0  0  0
  -32.4420  -25.3450   14.6180 C   0  0  0  0  0  2  0  0  0  0  0  0
  -33.7040  -24.4760   14.6870 C   0  0  0  0  0  2  0  0  0  0  0  0
  -33.3500  -23.1490   15.0380 O   0  0  0  0  0  0  0  0  0  0  0  0
  -32.3170  -23.1090   16.0140 C   0  0  0  0  0  2  0  0  0  0  0  0
  -31.5920  -21.7670   15.9210 C   0  0  0  0  0  0  0  0  0  0  0  0
  -32.0470  -20.8030   16.7310 N   0  0  0  0  0  0  0  0  0  0  0  0
  -30.6740  -21.5950   15.1140 O   0  0  0  0  0  0  0  0  0  0  0  0
  -32.7710  -21.0700   17.3830 H   0  0  0  0  0  0  0  0  0  0  0  0
  -31.6840  -19.3940   16.6930 C   0  0  0  0  0  2  0  0  0  0  0  0
  -30.2330  -19.1800   16.2380 C   0  0  0  0  0  2  0  0  0  0  0  0
  -29.2130  -20.0440   17.0100 C   0  0  0  0  0  2  0  0  0  0  0  0
  -29.8070  -20.9400   18.1160 C   0  0  0  0  0  2  0  0  0  0  0  0
  -28.9200  -21.0760   19.3650 C   0  0  0  0  0  2  0  0  0  0  0  0
  -29.1530  -22.4010   20.1150 C   0  0  0  0  0  2  0  0  0  0  0  0
  -29.9460  -22.2840   21.4320 C   0  0  0  0  0  2  0  0  0  0  0  0
  -31.1160  -21.4990   21.2480 O   0  0  0  0  0  0  0  0  0  0  0  0
  -31.4080  -20.6440   22.3440 C   0  0  0  0  0  2  0  0  0  0  0  0
  -30.4220  -19.4690   22.3190 C   0  0  0  0  0  2  0  0  0  0  0  0
  -29.9440  -19.0420   20.9160 C   0  0  0  0  0  2  0  0  0  0  0  0
  -31.0180  -18.6530   20.0530 O   0  0  0  0  0  0  0  0  0  0  0  0
  -30.1720  -11.6300   21.1390 C   0  0  0  0  0  0  0  0  0  0  0  0
  -31.0960  -17.3540   19.5980 C   0  0  0  0  0  0  0  0  0  0  0  0
  -31.3670  -12.2730   19.0690 C   0  0  0  0  0  3  0  0  0  0  0  0
  -31.2970  -14.7580   18.4860 C   0  0  0  0  0  0  0  0  0  0  0  0
  -29.6460  -13.8380   20.1170 C   0  0  0  0  0  2  0  0  0  0  0  0
  -30.4580  -14.9930   19.5800 C   0  0  0  0  0  0  0  0  0  0  0  0
  -30.3640  -16.2780   20.1480 C   0  0  0  0  0  3  0  0  0  0  0  0
  -31.9580  -17.1040   18.5120 C   0  0  0  0  0  3  0  0  0  0  0  0
  -32.0590  -15.8120   17.9550 C   0  0  0  0  0  3  0  0  0  0  0  0
  -31.3300  -13.3420   17.9430 C   0  0  0  0  0  2  0  0  0  0  0  0
  -30.3940  -12.5620   20.1710 N   0  0  0  0  0  0  0  0  0  0  0  0
  -30.7280  -10.5250   21.1040 O   0  0  0  0  0  0  0  0  0  0  0  0
  -32.8240  -12.1230   19.5590 C   0  0  0  0  0  0  0  0  0  0  0  0
  -33.4000  -10.9250   19.3600 N   0  0  0  0  0  0  0  0  0  0  0  0
  -33.4180  -13.0750   20.0720 O   0  0  0  0  0  0  0  0  0  0  0  0
  -32.8440  -10.1930   18.9410 H   0  0  0  0  0  0  0  0  0  0  0  0
  -35.8290   -8.2510   19.2420 C   0  0  0  0  0  0  0  0  0  0  0  0
  -34.7770  -10.5660   19.6990 C   0  0  0  0  0  3  0  0  0  0  0  0
  -35.7680  -11.1150   18.6480 C   0  0  0  0  0  2  0  0  0  0  0  0
  -36.0940  -10.1060   17.5420 C   0  0  0  0  0  2  0  0  0  0  0  0
  -36.6990   -8.8330   18.1400 C   0  0  0  0  0  2  0  0  0  0  0  0
  -34.9150   -9.0630   19.9650 C   0  0  0  0  0  0  0  0  0  0  0  0
  -34.1060   -8.4680   20.9580 C   0  0  0  0  0  3  0  0  0  0  0  0
  -34.2000   -7.0900   21.2310 C   0  0  0  0  0  3  0  0  0  0  0  0
  -35.1160   -6.2930   20.5220 C   0  0  0  0  0  3  0  0  0  0  0  0
  -35.9320   -6.8750   19.5340 C   0  0  0  0  0  3  0  0  0  0  0  0
  -29.1910  -11.8990   22.3240 C   0  0  0  0  0  3  0  0  0  0  0  0
  -28.8360  -10.5960   23.1400 C   0  0  1  0  0  0  0  0  0  0  0  0
  -29.9890   -9.5670   23.2100 C   0  0  0  0  0  1  0  0  0  0  0  0
  -28.4400  -10.9610   24.5910 C   0  0  0  0  0  1  0  0  0  0  0  0
  -27.6060   -9.9000   22.5120 C   0  0  0  0  0  1  0  0  0  0  0  0
  -27.9800  -12.5150   21.7650 N   0  0  0  0  0  0  0  0  0  0  0  0
  -27.2010  -11.9430   20.8360 C   0  0  0  0  0  0  0  0  0  0  0  0
  -27.4700  -10.8620   20.3060 O   0  0  0  0  0  0  0  0  0  0  0  0
  -27.6860  -13.3860   22.1800 H   0  0  0  0  0  0  0  0  0  0  0  0
  -24.9500  -11.7030   19.7490 C   0  0  0  0  0  1  0  0  0  0  0  0
  -25.9150  -12.6870   20.4310 C   0  0  0  0  0  3  0  0  0  0  0  0
  -26.4270  -13.4720   18.1550 C   0  0  0  0  0  1  0  0  0  0  0  0
  -26.1580  -13.8450   19.5440 N   0  0  0  0  0  0  0  0  0  0  0  0
  -26.9390  -14.4000   19.8790 H   0  0  0  0  0  0  0  0  0  0  0  0
  1  5  1  0
  2  1  1  0
  2  4  1  0
  3  1  2  0
  5  7  1  0
  6 10  1  0
  7  6  1  0
  7  9  1  0
  8  6  2  0
 10 12  1  0
 11 15  1  0
 11 12  1  0
 12 14  1  0
 13 11  2  0
 16 17  1  0
 16 18  2  0
 17 15  1  0
 19 17  1  0
 20 16  1  0
 21 20  1  0
 22 21  1  0
 22 23  1  0
 23 24  1  0
 25 24  1  0
 26 25  1  0
 26 27  1  0
 28 26  1  0
 29 26  1  0
 29 30  1  0
 30 31  1  0
 31 32  1  0
 32 33  1  0
 33 34  1  0
 35 36  1  0
 35 34  1  0
 37 46  1  0
 37 36  1  0
 38 44  1  0
 39 40  1  0
 40 41  1  0
 42 43  1  0
 42 51  1  0
 42 41  1  0
 44 43  1  0
 44 39  1  0
 45 38  2  0
 46 47  1  0
 46 38  1  0
 48 51  1  0
 48 49  2  0
 49 50  1  0
 50 53  1  0
 51 52  1  0
 52 50  2  0
 53 54  2  0
 53 58  1  0
 54 55  1  0
 55 56  2  0
 56 59  1  0
 57 56  1  0
 58 57  2  0
 59 60  1  0
 60 61  2  0
 60 65  1  0
 61 62  1  0
 62 63  2  0
 63 67  1  0
 64 63  1  0
 65 64  2  0
 66 65  1  0
 68 49  1  0
 68 69  1  0
 69 71  1  0
 70 68  2  0
 72 69  1  0
 73 48  1  0
 74 73  1  0
 75 73  1  0
 76 77  1  0
 76  2  1  0
 77 78  1  0
 78 81  1  0
 78 80  1  0
 79 77  2  0
 81 83  1  0
 83 82  1  0
 84 85  1  0
 84 83  1  0
 84 86  1  0
 87 84  1  0
 88 89  1  0
 88 87  1  0
 89 90  1  0
 90 91  1  0
 92 91  1  0
 92 93  1  0
 93 95  1  0
 94 92  2  0
 96 93  1  0
 97 96  1  0
 97 98  1  0
 98 99  1  0
 99100  1  0
100101  1  0
101102  1  0
103102  1  0
103104  1  0
105104  1  0
106105  1  0
107106  1  0
109107  1  0
109114  1  0
110120  1  0
110118  1  0
111113  1  0
112118  1  0
113112  1  0
113114  2  0
115109  2  0
116111  2  0
116115  1  0
117111  1  0
117110  1  0
118108  1  0
119108  2  0
120122  2  0
121120  1  0
123121  1  0
124133  2  0
124129  1  0
125121  1  0
125129  1  0
126125  1  0
127128  1  0
127126  1  0
128124  1  0
129130  2  0
130131  1  0
132131  2  0
133132  1  0
134108  1  0
134135  1  0
135136  1  1
135137  1  0
138135  1  0
139142  1  0
139134  1  0
140139  1  0
141140  2  0
144143  1  0
144140  1  0
145146  1  0
146147  1  0
146144  1  0
M  ISO  4  38 100  46 100 106 101 107 101
M  END
>  <TORSDO>  (6) 
F 60

>  <SCORE>  (6) 
-1.702

>  <name>  (6) 
6

>  <ligand_id>  (6) 
6

>  <original_smiles>  (6) 
[H]c1c([H])c([H])c2c(c1[H])C([H])([H])C([H])([H])C([H])([H])C2([H])N([H])C(=O)C1([H])N(C(=O)C([H])(N([H])C(=O)C([H])(N([H])C([H])([H])[H])C([H])([H])[H])C(C([H])([H])[H])(C([H])([H])[H])C([H])([H])[H])C([H])([H])c2c([H])c(OC([H])([H])C([H])([H])C([H])([H])OC([H])([H])C([H])([H])C([H])([H])C([H])([H])C([H])([H])C([H])([H])C([H])([H])N([H])C(=O)C([H])([H])OC([H])([H])C([H])([H])C([H])([H])[N+]([H])([H])C([H])(C([H])([H])[H])C([H])([H])N([H])C(=O)C([H])([H])N([H])C(=O)C([H])([H])N([H])C(=O)C([H])([H])N([H])C(=O)C([H])([H])N([H])C(=O)C([H])([H])OC([H])([H])C([H])([H])C([H])([H])C([H])([H])[N+]([H])([H])C([H])([H])C([H])([H])C([H])([H])C([H])([H])C([H])([H])C([H])([H])C([H])([H])C([H])([H])C([H])([H])N([H])C(=O)N3C([H])([H])C([H])([H])C([H])([H])C([H])(n4nc(-c5c([H])c([H])c(Oc6c([H])c([H])c(F)c([H])c6F)c([H])c5[H])c(C(=O)N([H])[H])c4N([H])[H])C3([H])[H])c([H])c([H])c2C1([H])[H]

>  <smiles>  (6) 
[H]c1c([H])c([H])c2c(c1[H])C([H])([H])C([H])([H])C([H])([H])C2([H])N([H])C(=O)C1([H])N(C(=O)C([H])(N([H])C(=O)C([H])(N([H])C([H])([H])[H])C([H])([H])[H])C(C([H])([H])[H])(C([H])([H])[H])C([H])([H])[H])C([H])([H])c2c([H])c(OC([H])([H])C([H])([H])C([H])([H])OC([H])([H])C([H])([H])C([H])([H])C([H])([H])C([H])([H])C([H])([H])C([H])([H])N([H])C(=O)C([H])([H])OC([H])([H])C([H])([H])C([H])([H])[N+]([H])([H])C([H])(C([H])([H])[H])C([H])([H])N([H])C(=O)C([H])([H])N([H])C(=O)C([H])([H])N([H])C(=O)C([H])([H])N([H])C(=O)C([H])([H])N([H])C(=O)C([H])([H])OC([H])([H])C([H])([H])C([H])([H])C([H])([H])[N+]([H])([H])C([H])([H])C([H])([H])C([H])([H])C([H])([H])C([H])([H])C([H])([H])C([H])([H])C([H])([H])C([H])([H])N([H])C(=O)N3C([H])([H])C([H])([H])C([H])([H])C([H])(n4nc(-c5c([H])c([H])c(Oc6c([H])c([H])c(F)c([H])c6F)c([H])c5[H])c(C(=O)N([H])[H])c4N([H])[H])C3([H])[H])c([H])c([H])c2C1([H])[H]

$$$$
7:0:0
     RDKit          3D

112119  0  0  1  0  0  0  0  0999 V2000
  -23.7250  -17.7050   18.5970 C   0  0  0  0  0  0  0  0  0  0  0  0
  -24.5650  -16.6700   18.5780 N   0  0  0  0  0  0  0  0  0  0  0  0
  -23.2810  -18.1870   19.6430 O   0  0  0  0  0  0  0  0  0  0  0  0
  -24.9810  -16.4290   17.6810 H   0  0  0  0  0  0  0  0  0  0  0  0
  -25.2020  -16.0640   19.7470 C   0  0  0  0  0  2  0  0  0  0  0  0
  -26.5870  -16.6830   19.9820 C   0  0  0  0  0  0  0  0  0  0  0  0
  -26.9940  -16.8140   21.2490 N   0  0  0  0  0  0  0  0  0  0  0  0
  -27.2830  -17.0350   19.0290 O   0  0  0  0  0  0  0  0  0  0  0  0
  -26.3960  -16.4490   21.9800 H   0  0  0  0  0  0  0  0  0  0  0  0
  -28.2940  -17.3490   21.6600 C   0  0  0  0  0  2  0  0  0  0  0  0
  -28.7540  -18.5550   20.8110 C   0  0  0  0  0  2  0  0  0  0  0  0
  -28.3940  -19.9120   21.4290 C   0  0  0  0  0  2  0  0  0  0  0  0
  -29.0830  -21.0840   20.7180 C   0  0  0  0  0  2  0  0  0  0  0  0
  -28.9830  -22.3910   21.5110 C   0  0  0  0  0  2  0  0  0  0  0  0
  -30.1530  -23.3370   21.2120 C   0  0  0  0  0  2  0  0  0  0  0  0
  -29.9060  -24.7330   21.7800 C   0  0  0  0  0  2  0  0  0  0  0  0
  -31.1090  -25.6730   21.6080 C   0  0  0  0  0  2  0  0  0  0  0  0
  -30.6810  -27.1410   21.5860 C   0  0  0  0  0  2  0  0  0  0  0  0
  -29.8090  -27.3280   20.4660 O   0  0  0  0  0  0  0  0  0  0  0  0
  -25.7740  -30.7840   25.1740 C   0  0  0  0  0  0  0  0  0  0  0  0
  -28.6090  -27.9350   20.7430 C   0  0  0  0  0  0  0  0  0  0  0  0
  -24.6070  -30.0010   23.1330 C   0  0  0  0  0  3  0  0  0  0  0  0
  -26.1180  -29.1490   21.2610 C   0  0  0  0  0  0  0  0  0  0  0  0
  -27.0970  -30.5630   23.0830 C   0  0  0  0  0  2  0  0  0  0  0  0
  -27.2460  -29.5180   22.0020 C   0  0  0  0  0  0  0  0  0  0  0  0
  -28.4940  -28.9260   21.7410 C   0  0  0  0  0  3  0  0  0  0  0  0
  -27.4690  -27.5730   19.9950 C   0  0  0  0  0  3  0  0  0  0  0  0
  -26.2190  -28.1710   20.2540 C   0  0  0  0  0  3  0  0  0  0  0  0
  -24.8290  -29.8610   21.6000 C   0  0  0  0  0  2  0  0  0  0  0  0
  -25.8430  -30.4420   23.8570 N   0  0  0  0  0  0  0  0  0  0  0  0
  -24.6920  -30.7840   25.7770 O   0  0  0  0  0  0  0  0  0  0  0  0
  -24.0290  -28.6720   23.6660 C   0  0  0  0  0  0  0  0  0  0  0  0
  -22.8480  -28.2860   23.1580 N   0  0  0  0  0  0  0  0  0  0  0  0
  -24.6500  -28.0010   24.4950 O   0  0  0  0  0  0  0  0  0  0  0  0
  -22.3920  -28.9000   22.4960 H   0  0  0  0  0  0  0  0  0  0  0  0
  -20.1490  -26.1300   22.1070 C   0  0  0  0  0  0  0  0  0  0  0  0
  -22.1330  -27.0550   23.4830 C   0  0  0  0  0  3  0  0  0  0  0  0
  -22.9130  -25.8090   23.0020 C   0  0  0  0  0  2  0  0  0  0  0  0
  -22.4990  -25.3410   21.6010 C   0  0  0  0  0  2  0  0  0  0  0  0
  -21.0070  -24.9990   21.5680 C   0  0  0  0  0  2  0  0  0  0  0  0
  -20.6800  -27.1050   22.9920 C   0  0  0  0  0  0  0  0  0  0  0  0
  -19.8460  -28.1580   23.4310 C   0  0  0  0  0  3  0  0  0  0  0  0
  -18.5050  -28.2390   23.0050 C   0  0  0  0  0  3  0  0  0  0  0  0
  -17.9830  -27.2650   22.1390 C   0  0  0  0  0  3  0  0  0  0  0  0
  -18.8020  -26.2110   21.6930 C   0  0  0  0  0  3  0  0  0  0  0  0
  -27.0390  -31.2200   25.9780 C   0  0  0  0  0  3  0  0  0  0  0  0
  -27.2230  -30.4310   27.3330 C   0  0  1  0  0  0  0  0  0  0  0  0
  -25.9880  -30.4850   28.2620 C   0  0  0  0  0  1  0  0  0  0  0  0
  -27.5420  -28.9430   27.0550 C   0  0  0  0  0  1  0  0  0  0  0  0
  -28.4320  -31.0030   28.1110 C   0  0  0  0  0  1  0  0  0  0  0  0
  -26.9360  -32.6650   26.2240 N   0  0  0  0  0  0  0  0  0  0  0  0
  -27.7630  -33.5830   25.7070 C   0  0  0  0  0  0  0  0  0  0  0  0
  -28.7490  -33.2910   25.0220 O   0  0  0  0  0  0  0  0  0  0  0  0
  -26.1330  -32.9810   26.7480 H   0  0  0  0  0  0  0  0  0  0  0  0
  -26.9430  -35.7340   24.7060 C   0  0  0  0  0  1  0  0  0  0  0  0
  -27.4470  -35.0610   25.9910 C   0  0  0  0  0  3  0  0  0  0  0  0
  -28.9730  -35.4100   27.8830 C   0  0  0  0  0  1  0  0  0  0  0  0
  -28.5970  -35.8160   26.5330 N   0  0  0  0  0  0  0  0  0  0  0  0
  -28.3930  -36.8110   26.5480 H   0  0  0  0  0  0  0  0  0  0  0  0
  -23.3040  -18.2950   17.2520 C   0  0  0  0  0  2  0  0  0  0  0  0
  -25.2370  -18.9220   15.8210 C   0  0  0  0  0  0  0  0  0  0  0  0
  -24.3590  -19.1870   16.7900 N   0  0  0  0  0  0  0  0  0  0  0  0
  -25.1270  -17.9600   15.0580 O   0  0  0  0  0  0  0  0  0  0  0  0
  -24.5590  -19.9710   17.4000 H   0  0  0  0  0  0  0  0  0  0  0  0
  -26.4170  -19.8870   15.6780 C   0  0  0  0  0  2  0  0  0  0  0  0
  -28.4190  -19.0680   16.8840 C   0  0  0  0  0  0  0  0  0  0  0  0
  -27.6930  -19.1770   15.7640 N   0  0  0  0  0  0  0  0  0  0  0  0
  -28.0600  -19.5710   17.9520 O   0  0  0  0  0  0  0  0  0  0  0  0
  -28.0200  -18.7040   14.9320 H   0  0  0  0  0  0  0  0  0  0  0  0
  -29.7510  -18.3160   16.8070 C   0  0  0  0  0  2  0  0  0  0  0  0
  -29.6700  -17.1020   17.5510 O   0  0  0  0  0  0  0  0  0  0  0  0
  -30.9630  -16.5510   17.7690 C   0  0  0  0  0  2  0  0  0  0  0  0
  -31.1660  -16.1090   19.2340 C   0  0  0  0  0  2  0  0  0  0  0  0
  -30.9780  -14.6050   19.5090 C   0  0  0  0  0  2  0  0  0  0  0  0
  -32.8580  -13.1460   20.5350 C   0  0  0  0  0  0  0  0  0  0  0  0
  -32.6490  -10.9110   21.5280 C   0  0  0  0  0  2  0  0  0  0  0  0
  -32.0450   -9.9500   20.4860 C   0  0  0  0  0  2  0  0  0  0  0  0
  -30.5030   -9.9800   20.5530 C   0  0  0  0  0  2  0  0  0  0  0  0
  -29.9380  -11.4240   20.5430 C   0  0  0  0  0  3  0  0  0  0  0  0
  -30.6850  -12.3100   21.5730 C   0  0  0  0  0  2  0  0  0  0  0  0
  -32.1130  -12.2510   21.2440 N   0  0  0  0  0  0  0  0  0  0  0  0
  -34.0800  -13.0550   20.4410 O   0  0  0  0  0  0  0  0  0  0  0  0
  -32.2640  -13.9140   19.6020 N   0  0  0  0  0  0  0  0  0  0  0  0
  -32.9460  -14.2790   18.9510 H   0  0  0  0  0  0  0  0  0  0  0  0
  -27.6180  -12.5280   20.7520 C   0  0  0  0  0  0  0  0  0  0  0  0
  -26.3700  -11.9930   20.9260 C   0  0  0  0  0  0  0  0  0  0  0  0
  -26.5590  -10.5790   21.0230 C   0  0  0  0  0  0  0  0  0  0  0  0
  -28.4940  -11.4500   20.7500 N   0  0  0  0  0  0  0  0  0  0  0  0
  -27.8470  -10.2780   20.9690 N   0  0  0  0  0  0  0  0  0  0  0  0
  -25.5800   -9.4890   21.0960 C   0  0  0  0  0  0  0  0  0  0  0  0
  -25.5300   -8.6160   22.2050 C   0  0  0  0  0  3  0  0  0  0  0  0
  -24.5680   -7.5840   22.2600 C   0  0  0  0  0  3  0  0  0  0  0  0
  -23.6380   -7.4260   21.2040 C   0  0  0  0  0  0  0  0  0  0  0  0
  -23.7070   -8.2820   20.0920 C   0  0  0  0  0  3  0  0  0  0  0  0
  -24.6700   -9.3040   20.0360 C   0  0  0  0  0  3  0  0  0  0  0  0
  -22.6800   -6.4410   21.1600 O   0  0  0  0  0  0  0  0  0  0  0  0
  -21.9750   -6.0760   22.2770 C   0  0  0  0  0  0  0  0  0  0  0  0
  -21.2180   -7.0050   23.0250 C   0  0  0  0  0  3  0  0  0  0  0  0
  -20.4580   -6.5690   24.1280 C   0  0  0  0  0  3  0  0  0  0  0  0
  -20.4420   -5.2050   24.4760 C   0  0  0  0  0  0  0  0  0  0  0  0
  -21.1900   -4.2760   23.7310 C   0  0  0  0  0  3  0  0  0  0  0  0
  -21.9530   -4.7110   22.6320 C   0  0  0  0  0  0  0  0  0  0  0  0
  -22.6540   -3.8110   21.9030 F   0  0  0  0  0  0  0  0  0  0  0  0
  -19.7060   -4.7830   25.5310 F   0  0  0  0  0  0  0  0  0  0  0  0
  -25.0610  -12.7260   20.8980 C   0  0  0  0  0  0  0  0  0  0  0  0
  -24.0640  -12.2260   21.6220 N   0  0  0  0  0  0  0  0  0  0  0  0
  -24.9150  -13.7660   20.2600 O   0  0  0  0  0  0  0  0  0  0  0  0
  -24.1840  -11.3850   22.1650 H   0  0  0  0  0  0  0  0  0  0  0  0
  -23.1640  -12.6810   21.6190 H   0  0  0  0  0  0  0  0  0  0  0  0
  -28.0770  -13.8290   20.5870 N   0  0  0  0  0  0  0  0  0  0  0  0
  -27.4400  -14.6200   20.6800 H   0  0  0  0  0  0  0  0  0  0  0  0
  -29.0340  -14.1140   20.4270 H   0  0  0  0  0  0  0  0  0  0  0  0
  1  3  2  0
  2  1  1  0
  2  5  1  0
  4  2  1  0
  5  6  1  0
  6  7  1  0
  7 10  1  0
  7  9  1  0
  8  6  2  0
 11 12  1  0
 11 10  1  0
 13 12  1  0
 13 14  1  0
 15 14  1  0
 15 16  1  0
 17 16  1  0
 18 17  1  0
 19 21  1  0
 19 18  1  0
 20 31  2  0
 21 26  1  0
 22 32  1  0
 22 30  1  0
 23 29  1  0
 23 25  1  0
 24 30  1  0
 25 24  1  0
 26 25  2  0
 27 28  1  0
 27 21  2  0
 28 23  2  0
 29 22  1  0
 30 20  1  0
 32 34  2  0
 33 32  1  0
 35 33  1  0
 36 41  1  0
 37 33  1  0
 38 37  1  0
 39 38  1  0
 40 39  1  0
 40 36  1  0
 41 42  2  0
 41 37  1  0
 43 42  1  0
 44 43  2  0
 45 36  2  0
 45 44  1  0
 46 20  1  0
 46 51  1  0
 46 47  1  0
 47 50  1  1
 47 48  1  0
 49 47  1  0
 51 54  1  0
 52 56  1  0
 52 51  1  0
 53 52  2  0
 56 55  1  0
 56 58  1  0
 58 59  1  0
 58 57  1  0
 60  1  1  0
 61 62  1  0
 62 60  1  0
 62 64  1  0
 63 61  2  0
 65 67  1  0
 65 61  1  0
 66 68  2  0
 67 66  1  0
 69 67  1  0
 70 66  1  0
 70 71  1  0
 71 72  1  0
 72 73  1  0
 73 74  1  0
 74 83  1  0
 75 81  1  0
 77 78  1  0
 77 76  1  0
 79 78  1  0
 79 88  1  0
 79 80  1  0
 81 76  1  0
 81 80  1  0
 82 75  2  0
 83 75  1  0
 84 83  1  0
 85 86  2  0
 86 87  1  0
 87 90  1  0
 88 85  1  0
 88 89  1  0
 89 87  2  0
 90 91  1  0
 91 92  2  0
 93 92  1  0
 94 93  2  0
 95 94  1  0
 95 90  2  0
 96 93  1  0
 96 97  1  0
 97102  2  0
 97 98  1  0
 98 99  2  0
 99100  1  0
100104  1  0
101100  2  0
102101  1  0
103102  1  0
105 86  1  0
105106  1  0
106108  1  0
107105  2  0
109106  1  0
110111  1  0
110 85  1  0
112110  1  0
M  ISO  4  18 101  19 101  75 100  83 100
M  END
>  <TORSDO>  (7) 
F 36

>  <SCORE>  (7) 
9.167

>  <name>  (7) 
7

>  <ligand_id>  (7) 
7

>  <original_smiles>  (7) 
[H]c1c([H])c([H])c2c(c1[H])C([H])([H])C([H])([H])C([H])([H])C2([H])N([H])C(=O)C1([H])N(C(=O)C([H])(N([H])C(=O)C([H])(N([H])C([H])([H])[H])C([H])([H])[H])C(C([H])([H])[H])(C([H])([H])[H])C([H])([H])[H])C([H])([H])c2c([H])c(OC([H])([H])C([H])([H])C([H])([H])C([H])([H])C([H])([H])C([H])([H])C([H])([H])C([H])([H])C([H])([H])N([H])C(=O)C([H])([H])N([H])C(=O)C([H])([H])N([H])C(=O)C([H])([H])N([H])C(=O)C([H])([H])OC([H])([H])C([H])([H])C([H])([H])N([H])C(=O)N3C([H])([H])C([H])([H])C([H])([H])C([H])(n4nc(-c5c([H])c([H])c(Oc6c([H])c([H])c(F)c([H])c6F)c([H])c5[H])c(C(=O)N([H])[H])c4N([H])[H])C3([H])[H])c([H])c([H])c2C1([H])[H]

>  <smiles>  (7) 
[H]c1c([H])c([H])c2c(c1[H])C([H])([H])C([H])([H])C([H])([H])C2([H])N([H])C(=O)C1([H])N(C(=O)C([H])(N([H])C(=O)C([H])(N([H])C([H])([H])[H])C([H])([H])[H])C(C([H])([H])[H])(C([H])([H])[H])C([H])([H])[H])C([H])([H])c2c([H])c(OC([H])([H])C([H])([H])C([H])([H])C([H])([H])C([H])([H])C([H])([H])C([H])([H])C([H])([H])C([H])([H])N([H])C(=O)C([H])([H])N([H])C(=O)C([H])([H])N([H])C(=O)C([H])([H])N([H])C(=O)C([H])([H])OC([H])([H])C([H])([H])C([H])([H])N([H])C(=O)N3C([H])([H])C([H])([H])C([H])([H])C([H])(n4nc(-c5c([H])c([H])c(Oc6c([H])c([H])c(F)c([H])c6F)c([H])c5[H])c(C(=O)N([H])[H])c4N([H])[H])C3([H])[H])c([H])c([H])c2C1([H])[H]

$$$$
8:0:0
     RDKit          3D

113120  0  0  1  0  0  0  0  0999 V2000
  -30.4610  -21.0720   17.5060 C   0  0  0  0  0  0  0  0  0  0  0  0
  -31.6470  -21.2180   18.1170 N   0  0  0  0  0  0  0  0  0  0  0  0
  -29.6460  -21.9940   17.4410 O   0  0  0  0  0  0  0  0  0  0  0  0
  -32.2590  -20.4080   18.1150 H   0  0  0  0  0  0  0  0  0  0  0  0
  -32.1620  -22.4850   18.6520 C   0  0  0  0  0  2  0  0  0  0  0  0
  -32.8470  -21.5430   20.9150 C   0  0  0  0  0  1  0  0  0  0  0  0
  -33.3310  -22.2950   19.6540 C   0  0  0  0  0  3  0  0  0  0  0  0
  -33.9560  -23.5980   20.0270 N   0  0  0  0  0  4  0  0  0  0  0  0
  -33.2360  -24.2780   20.2130 H   0  0  0  0  0  0  0  0  0  0  0  0
  -34.4640  -23.4830   20.8920 H   0  0  0  0  0  0  0  0  0  0  0  0
  -34.8790  -24.1950   19.0210 C   0  0  0  0  0  2  0  0  0  0  0  0
  -34.8060  -25.7320   19.0260 C   0  0  0  0  0  2  0  0  0  0  0  0
  -33.4810  -26.0700   18.6370 O   0  0  0  0  0  0  0  0  0  0  0  0
  -33.1710  -27.4590   18.6660 C   0  0  0  0  0  2  0  0  0  0  0  0
  -31.9110  -27.6770   17.8090 C   0  0  0  0  0  2  0  0  0  0  0  0
  -30.6980  -27.3580   18.4880 O   0  0  0  0  0  0  0  0  0  0  0  0
  -30.5020  -25.9770   18.7710 C   0  0  0  0  0  2  0  0  0  0  0  0
  -29.0440  -25.7650   19.2120 C   0  0  0  0  0  2  0  0  0  0  0  0
  -28.7490  -26.5270   20.3990 O   0  0  0  0  0  0  0  0  0  0  0  0
  -24.6820  -31.6810   23.2620 C   0  0  0  0  0  0  0  0  0  0  0  0
  -27.5280  -27.1700   20.4300 C   0  0  0  0  0  0  0  0  0  0  0  0
  -23.5600  -30.1830   21.6450 C   0  0  0  0  0  3  0  0  0  0  0  0
  -25.0880  -28.5960   20.3670 C   0  0  0  0  0  0  0  0  0  0  0  0
  -26.0860  -30.5740   21.5230 C   0  0  0  0  0  2  0  0  0  0  0  0
  -26.2200  -29.1740   20.9590 C   0  0  0  0  0  0  0  0  0  0  0  0
  -27.4420  -28.4620   20.9970 C   0  0  0  0  0  3  0  0  0  0  0  0
  -26.3620  -26.5830   19.8910 C   0  0  0  0  0  3  0  0  0  0  0  0
  -25.1490  -27.2920   19.8470 C   0  0  0  0  0  3  0  0  0  0  0  0
  -23.8300  -29.4320   20.3150 C   0  0  0  0  0  2  0  0  0  0  0  0
  -24.7930  -30.8300   22.2030 N   0  0  0  0  0  0  0  0  0  0  0  0
  -23.5790  -31.9630   23.7490 O   0  0  0  0  0  0  0  0  0  0  0  0
  -22.8910  -29.1970   22.6320 C   0  0  0  0  0  0  0  0  0  0  0  0
  -21.5730  -28.9980   22.4790 N   0  0  0  0  0  0  0  0  0  0  0  0
  -23.5590  -28.6070   23.4880 O   0  0  0  0  0  0  0  0  0  0  0  0
  -21.0980  -29.5260   21.7600 H   0  0  0  0  0  0  0  0  0  0  0  0
  -18.1870  -27.8450   22.9810 C   0  0  0  0  0  0  0  0  0  0  0  0
  -20.7440  -28.0850   23.2640 C   0  0  0  0  0  3  0  0  0  0  0  0
  -20.8360  -26.6380   22.7240 C   0  0  0  0  0  2  0  0  0  0  0  0
  -19.7410  -26.3020   21.7070 C   0  0  0  0  0  2  0  0  0  0  0  0
  -18.3550  -26.4790   22.3350 C   0  0  0  0  0  2  0  0  0  0  0  0
  -19.3110  -28.6040   23.4010 C   0  0  0  0  0  0  0  0  0  0  0  0
  -19.1000  -29.8860   23.9560 C   0  0  0  0  0  3  0  0  0  0  0  0
  -17.8000  -30.4060   24.0960 C   0  0  0  0  0  3  0  0  0  0  0  0
  -16.6910  -29.6400   23.6940 C   0  0  0  0  0  3  0  0  0  0  0  0
  -16.8850  -28.3620   23.1410 C   0  0  0  0  0  3  0  0  0  0  0  0
  -25.9350  -32.3620   23.9000 C   0  0  0  0  0  3  0  0  0  0  0  0
  -26.4450  -31.6370   25.2070 C   0  0  1  0  0  0  0  0  0  0  0  0
  -25.3320  -31.3750   26.2490 C   0  0  0  0  0  1  0  0  0  0  0  0
  -27.0910  -30.2770   24.8570 C   0  0  0  0  0  1  0  0  0  0  0  0
  -27.5480  -32.4840   25.8850 C   0  0  0  0  0  1  0  0  0  0  0  0
  -25.5780  -33.7560   24.1890 N   0  0  0  0  0  0  0  0  0  0  0  0
  -25.8910  -34.7990   23.4050 C   0  0  0  0  0  0  0  0  0  0  0  0
  -26.5790  -34.6890   22.3850 O   0  0  0  0  0  0  0  0  0  0  0  0
  -24.9680  -33.9130   24.9770 H   0  0  0  0  0  0  0  0  0  0  0  0
  -24.1020  -36.5130   22.9830 C   0  0  0  0  0  1  0  0  0  0  0  0
  -25.3510  -36.1820   23.8140 C   0  0  0  0  0  3  0  0  0  0  0  0
  -27.4480  -37.1640   24.6330 C   0  0  0  0  0  1  0  0  0  0  0  0
  -26.3470  -37.2660   23.6770 N   0  0  0  0  0  0  0  0  0  0  0  0
  -25.9100  -38.1760   23.7970 H   0  0  0  0  0  0  0  0  0  0  0  0
  -30.1220  -19.7210   16.8480 C   0  0  0  0  0  2  0  0  0  0  0  0
  -32.0860  -18.8070   15.6020 C   0  0  0  0  0  0  0  0  0  0  0  0
  -31.2760  -18.8400   16.6680 N   0  0  0  0  0  0  0  0  0  0  0  0
  -31.9130  -19.5330   14.6230 O   0  0  0  0  0  0  0  0  0  0  0  0
  -31.4860  -18.2050   17.4360 H   0  0  0  0  0  0  0  0  0  0  0  0
  -33.2880  -17.8470   15.6340 C   0  0  0  0  0  2  0  0  0  0  0  0
  -34.1730  -18.1280   17.9480 C   0  0  0  0  0  0  0  0  0  0  0  0
  -33.6630  -17.3670   16.9680 N   0  0  0  0  0  0  0  0  0  0  0  0
  -34.3060  -19.3460   17.8360 O   0  0  0  0  0  0  0  0  0  0  0  0
  -33.5400  -16.3800   17.1530 H   0  0  0  0  0  0  0  0  0  0  0  0
  -34.5650  -17.4280   19.2630 C   0  0  0  0  0  2  0  0  0  0  0  0
  -32.1760  -16.9420   20.0210 C   0  0  0  0  0  0  0  0  0  0  0  0
  -33.5080  -16.7850   20.0600 N   0  0  0  0  0  0  0  0  0  0  0  0
  -31.5910  -17.6640   19.2150 O   0  0  0  0  0  0  0  0  0  0  0  0
  -33.8550  -16.1660   20.7800 H   0  0  0  0  0  0  0  0  0  0  0  0
  -31.3480  -16.1760   21.0620 C   0  0  0  0  0  2  0  0  0  0  0  0
  -31.1330  -13.9950   19.7570 C   0  0  0  0  0  0  0  0  0  0  0  0
  -30.6630  -11.7780   18.7810 C   0  0  0  0  0  2  0  0  0  0  0  0
  -29.6590  -11.8640   17.6150 C   0  0  0  0  0  2  0  0  0  0  0  0
  -28.2120  -11.8180   18.1370 C   0  0  0  0  0  2  0  0  0  0  0  0
  -27.9640  -12.8120   19.3020 C   0  0  0  0  0  3  0  0  0  0  0  0
  -29.0620  -12.6740   20.3750 C   0  0  0  0  0  2  0  0  0  0  0  0
  -30.3720  -12.8700   19.7220 N   0  0  0  0  0  0  0  0  0  0  0  0
  -32.1550  -14.1280   19.0800 O   0  0  0  0  0  0  0  0  0  0  0  0
  -30.6990  -14.9370   20.6090 N   0  0  0  0  0  0  0  0  0  0  0  0
  -29.8150  -14.7300   21.0520 H   0  0  0  0  0  0  0  0  0  0  0  0
  -25.6560  -13.5920   20.1310 C   0  0  0  0  0  0  0  0  0  0  0  0
  -24.5680  -12.8930   20.5910 C   0  0  0  0  0  0  0  0  0  0  0  0
  -24.9490  -11.5200   20.5840 C   0  0  0  0  0  0  0  0  0  0  0  0
  -26.6300  -12.6410   19.8700 N   0  0  0  0  0  0  0  0  0  0  0  0
  -26.2120  -11.3910   20.1980 N   0  0  0  0  0  0  0  0  0  0  0  0
  -24.1630  -10.3090   20.8640 C   0  0  0  0  0  0  0  0  0  0  0  0
  -24.5690   -9.3750   21.8440 C   0  0  0  0  0  3  0  0  0  0  0  0
  -23.7900   -8.2310   22.1100 C   0  0  0  0  0  3  0  0  0  0  0  0
  -22.5910   -8.0080   21.3940 C   0  0  0  0  0  0  0  0  0  0  0  0
  -22.2010   -8.9270   20.4030 C   0  0  0  0  0  3  0  0  0  0  0  0
  -22.9800  -10.0650   20.1360 C   0  0  0  0  0  3  0  0  0  0  0  0
  -21.7810   -6.9110   21.5660 O   0  0  0  0  0  0  0  0  0  0  0  0
  -21.6940   -6.2590   22.7690 C   0  0  0  0  0  0  0  0  0  0  0  0
  -21.2770   -6.9230   23.9440 C   0  0  0  0  0  3  0  0  0  0  0  0
  -21.1360   -6.2020   25.1470 C   0  0  0  0  0  3  0  0  0  0  0  0
  -21.4020   -4.8200   25.1750 C   0  0  0  0  0  0  0  0  0  0  0  0
  -21.8150   -4.1560   24.0060 C   0  0  0  0  0  3  0  0  0  0  0  0
  -21.9580   -4.8760   22.8040 C   0  0  0  0  0  0  0  0  0  0  0  0
  -22.3340   -4.2290   21.6760 F   0  0  0  0  0  0  0  0  0  0  0  0
  -21.2590   -4.1240   26.3270 F   0  0  0  0  0  0  0  0  0  0  0  0
  -23.2210  -13.4630   20.9310 C   0  0  0  0  0  0  0  0  0  0  0  0
  -22.5150  -12.8470   21.8750 N   0  0  0  0  0  0  0  0  0  0  0  0
  -22.8070  -14.4860   20.3910 O   0  0  0  0  0  0  0  0  0  0  0  0
  -22.8700  -12.0180   22.3310 H   0  0  0  0  0  0  0  0  0  0  0  0
  -21.6110  -13.2100   22.1400 H   0  0  0  0  0  0  0  0  0  0  0  0
  -25.8910  -14.9400   19.8970 N   0  0  0  0  0  0  0  0  0  0  0  0
  -25.1740  -15.6460   20.0140 H   0  0  0  0  0  0  0  0  0  0  0  0
  -26.7490  -15.3130   19.5060 H   0  0  0  0  0  0  0  0  0  0  0  0
  1  2  1  0
  2  5  1  0
  3  1  2  0
  4  2  1  0
  5  7  1  0
  7  8  1  0
  7  6  1  0
  8  9  1  0
  8 10  1  0
 11 12  1  0
 11  8  1  0
 13 14  1  0
 13 12  1  0
 15 16  1  0
 15 14  1  0
 16 17  1  0
 17 18  1  0
 18 19  1  0
 19 21  1  0
 20 31  2  0
 21 26  1  0
 22 30  1  0
 22 32  1  0
 23 25  1  0
 24 30  1  0
 25 26  2  0
 25 24  1  0
 27 21  2  0
 28 27  1  0
 28 23  2  0
 29 23  1  0
 29 22  1  0
 30 20  1  0
 32 34  2  0
 33 32  1  0
 35 33  1  0
 36 45  2  0
 36 41  1  0
 37 33  1  0
 37 41  1  0
 38 37  1  0
 39 40  1  0
 39 38  1  0
 40 36  1  0
 41 42  2  0
 42 43  1  0
 44 43  2  0
 45 44  1  0
 46 20  1  0
 46 51  1  0
 46 47  1  0
 47 50  1  1
 47 48  1  0
 49 47  1  0
 51 54  1  0
 52 56  1  0
 52 51  1  0
 53 52  2  0
 56 55  1  0
 58 59  1  0
 58 56  1  0
 58 57  1  0
 60  1  1  0
 61 65  1  0
 61 62  1  0
 62 60  1  0
 62 64  1  0
 63 61  2  0
 65 67  1  0
 66 70  1  0
 67 69  1  0
 67 66  1  0
 68 66  2  0
 70 72  1  0
 71 72  1  0
 71 75  1  0
 72 74  1  0
 73 71  2  0
 76 84  1  0
 77 82  1  0
 78 79  1  0
 78 77  1  0
 80 79  1  0
 80 89  1  0
 80 81  1  0
 82 76  1  0
 82 81  1  0
 83 76  2  0
 84 85  1  0
 84 75  1  0
 86 87  2  0
 87106  1  0
 88 87  1  0
 88 91  1  0
 89 86  1  0
 89 90  1  0
 90 88  2  0
 91 92  1  0
 92 93  2  0
 94 97  1  0
 94 93  1  0
 95 94  2  0
 96 95  1  0
 96 91  2  0
 97 98  1  0
 98103  2  0
 98 99  1  0
 99100  2  0
100101  1  0
101105  1  0
102101  2  0
103102  1  0
104103  1  0
106107  1  0
107110  1  0
107109  1  0
108106  2  0
111112  1  0
111 86  1  0
113111  1  0
M  ISO  4  18 101  19 101  76 100  84 100
M  END
>  <TORSDO>  (8) 
F 34

>  <SCORE>  (8) 
-9.137

>  <name>  (8) 
8

>  <ligand_id>  (8) 
8

>  <original_smiles>  (8) 
[H]c1c([H])c([H])c2c(c1[H])C([H])([H])C([H])([H])C([H])([H])C2([H])N([H])C(=O)C1([H])N(C(=O)C([H])(N([H])C(=O)C([H])(N([H])C([H])([H])[H])C([H])([H])[H])C(C([H])([H])[H])(C([H])([H])[H])C([H])([H])[H])C([H])([H])c2c([H])c(OC([H])([H])C([H])([H])OC([H])([H])C([H])([H])OC([H])([H])C([H])([H])[N+]([H])([H])C([H])(C([H])([H])[H])C([H])([H])N([H])C(=O)C([H])([H])N([H])C(=O)C([H])([H])N([H])C(=O)C([H])([H])N([H])C(=O)C([H])([H])N([H])C(=O)N3C([H])([H])C([H])([H])C([H])([H])C([H])(n4nc(-c5c([H])c([H])c(Oc6c([H])c([H])c(F)c([H])c6F)c([H])c5[H])c(C(=O)N([H])[H])c4N([H])[H])C3([H])[H])c([H])c([H])c2C1([H])[H]

>  <smiles>  (8) 
[H]c1c([H])c([H])c2c(c1[H])C([H])([H])C([H])([H])C([H])([H])C2([H])N([H])C(=O)C1([H])N(C(=O)C([H])(N([H])C(=O)C([H])(N([H])C([H])([H])[H])C([H])([H])[H])C(C([H])([H])[H])(C([H])([H])[H])C([H])([H])[H])C([H])([H])c2c([H])c(OC([H])([H])C([H])([H])OC([H])([H])C([H])([H])OC([H])([H])C([H])([H])[N+]([H])([H])C([H])(C([H])([H])[H])C([H])([H])N([H])C(=O)C([H])([H])N([H])C(=O)C([H])([H])N([H])C(=O)C([H])([H])N([H])C(=O)C([H])([H])N([H])C(=O)N3C([H])([H])C([H])([H])C([H])([H])C([H])(n4nc(-c5c([H])c([H])c(Oc6c([H])c([H])c(F)c([H])c6F)c([H])c5[H])c(C(=O)N([H])[H])c4N([H])[H])C3([H])[H])c([H])c([H])c2C1([H])[H]

$$$$
9:0:0
     RDKit          3D

107114  0  0  1  0  0  0  0  0999 V2000
  -24.9540  -20.4510   25.2320 C   0  0  0  0  0  2  0  0  0  0  0  0
  -24.8260  -21.1450   23.8610 C   0  0  0  0  0  2  0  0  0  0  0  0
  -23.5440  -21.9940   23.6990 C   0  0  0  0  0  2  0  0  0  0  0  0
  -23.4530  -22.6480   22.3700 N   0  0  0  0  0  4  0  0  0  0  0  0
  -23.8350  -22.0370   21.6630 H   0  0  0  0  0  0  0  0  0  0  0  0
  -22.4790  -22.7930   22.1600 H   0  0  0  0  0  0  0  0  0  0  0  0
  -24.1660  -23.9360   22.2200 C   0  0  0  0  0  2  0  0  0  0  0  0
  -25.5380  -23.7150   21.5870 C   0  0  0  0  0  0  0  0  0  0  0  0
  -26.4600  -24.6790   21.7170 N   0  0  0  0  0  0  0  0  0  0  0  0
  -25.7590  -22.6630   20.9820 O   0  0  0  0  0  0  0  0  0  0  0  0
  -26.2060  -25.5350   22.1900 H   0  0  0  0  0  0  0  0  0  0  0  0
  -27.8380  -24.5690   21.2380 C   0  0  0  0  0  2  0  0  0  0  0  0
  -28.5850  -25.9180   21.2490 C   0  0  0  0  0  2  0  0  0  0  0  0
  -28.3620  -26.7000   20.0740 O   0  0  0  0  0  0  0  0  0  0  0  0
  -24.6130  -31.8680   23.2120 C   0  0  0  0  0  0  0  0  0  0  0  0
  -27.2210  -27.4550   20.1030 C   0  0  0  0  0  0  0  0  0  0  0  0
  -23.3990  -30.4940   21.5510 C   0  0  0  0  0  3  0  0  0  0  0  0
  -24.8440  -28.9610   20.1150 C   0  0  0  0  0  0  0  0  0  0  0  0
  -25.9260  -30.8390   21.3670 C   0  0  0  0  0  2  0  0  0  0  0  0
  -26.0020  -29.4740   20.7180 C   0  0  0  0  0  0  0  0  0  0  0  0
  -27.1950  -28.7220   20.7200 C   0  0  0  0  0  3  0  0  0  0  0  0
  -26.0620  -26.9580   19.4790 C   0  0  0  0  0  3  0  0  0  0  0  0
  -24.8660  -27.6980   19.4950 C   0  0  0  0  0  3  0  0  0  0  0  0
  -23.6080  -29.8270   20.1640 C   0  0  0  0  0  2  0  0  0  0  0  0
  -24.6640  -31.0800   22.1020 N   0  0  0  0  0  0  0  0  0  0  0  0
  -23.5320  -32.1410   23.7530 O   0  0  0  0  0  0  0  0  0  0  0  0
  -22.7400  -29.4660   22.4980 C   0  0  0  0  0  0  0  0  0  0  0  0
  -21.4130  -29.3020   22.3720 N   0  0  0  0  0  0  0  0  0  0  0  0
  -23.4190  -28.8190   23.3010 O   0  0  0  0  0  0  0  0  0  0  0  0
  -20.9270  -29.8680   21.6910 H   0  0  0  0  0  0  0  0  0  0  0  0
  -18.0270  -28.1370   22.8520 C   0  0  0  0  0  0  0  0  0  0  0  0
  -20.5870  -28.3660   23.1340 C   0  0  0  0  0  3  0  0  0  0  0  0
  -20.6770  -26.9380   22.5450 C   0  0  0  0  0  2  0  0  0  0  0  0
  -19.5740  -26.6390   21.5240 C   0  0  0  0  0  2  0  0  0  0  0  0
  -18.1910  -26.7930   22.1650 C   0  0  0  0  0  2  0  0  0  0  0  0
  -19.1520  -28.8830   23.2930 C   0  0  0  0  0  0  0  0  0  0  0  0
  -18.9440  -30.1450   23.8920 C   0  0  0  0  0  3  0  0  0  0  0  0
  -17.6430  -30.6580   24.0570 C   0  0  0  0  0  3  0  0  0  0  0  0
  -16.5320  -29.9060   23.6350 C   0  0  0  0  0  3  0  0  0  0  0  0
  -16.7250  -28.6490   23.0370 C   0  0  0  0  0  3  0  0  0  0  0  0
  -25.9030  -32.4820   23.8380 C   0  0  0  0  0  3  0  0  0  0  0  0
  -25.5910  -33.8610   24.2320 N   0  0  0  0  0  0  0  0  0  0  0  0
  -25.9040  -34.9470   23.5120 C   0  0  0  0  0  0  0  0  0  0  0  0
  -26.5590  -34.8940   22.4670 O   0  0  0  0  0  0  0  0  0  0  0  0
  -25.0120  -33.9760   25.0490 H   0  0  0  0  0  0  0  0  0  0  0  0
  -24.1500  -36.7300   23.2640 C   0  0  0  0  0  1  0  0  0  0  0  0
  -25.4120  -36.3110   24.0350 C   0  0  0  0  0  3  0  0  0  0  0  0
  -27.5580  -37.1800   24.8470 C   0  0  0  0  0  1  0  0  0  0  0  0
  -26.4310  -37.3790   23.9400 N   0  0  0  0  0  0  0  0  0  0  0  0
  -26.0210  -38.2870   24.1390 H   0  0  0  0  0  0  0  0  0  0  0  0
  -26.4480  -31.6590   25.0680 C   0  0  1  0  0  0  0  0  0  0  0  0
  -25.3740  -31.3670   26.1420 C   0  0  0  0  0  1  0  0  0  0  0  0
  -27.0300  -30.3050   24.6000 C   0  0  0  0  0  1  0  0  0  0  0  0
  -27.6080  -32.4300   25.7420 C   0  0  0  0  0  1  0  0  0  0  0  0
  -26.1540  -19.4840   25.2880 C   0  0  0  0  0  2  0  0  0  0  0  0
  -26.4600  -18.9650   26.7040 C   0  0  0  0  0  2  0  0  0  0  0  0
  -27.6960  -18.0450   26.7440 C   0  0  0  0  0  2  0  0  0  0  0  0
  -28.1840  -17.6970   28.1690 C   0  0  0  0  0  2  0  0  0  0  0  0
  -27.2650  -16.7660   28.9860 C   0  0  0  0  0  2  0  0  0  0  0  0
  -27.2120  -15.4040   28.4110 N   0  0  0  0  0  4  0  0  0  0  0  0
  -27.6970  -14.7600   29.0170 H   0  0  0  0  0  0  0  0  0  0  0  0
  -27.6990  -15.4210   27.5260 H   0  0  0  0  0  0  0  0  0  0  0  0
  -25.8630  -14.8830   28.0970 C   0  0  0  0  0  2  0  0  0  0  0  0
  -25.9400  -13.9870   26.8570 C   0  0  0  0  0  2  0  0  0  0  0  0
  -26.6460  -14.7540   25.8830 O   0  0  0  0  0  0  0  0  0  0  0  0
  -26.4240  -14.3170   24.5530 C   0  0  0  0  0  2  0  0  0  0  0  0
  -27.1480  -15.2670   23.5890 C   0  0  0  0  0  2  0  0  0  0  0  0
  -28.6850  -15.1700   23.6230 C   0  0  0  0  0  2  0  0  0  0  0  0
  -29.3320  -15.6710   22.3060 C   0  0  0  0  0  2  0  0  0  0  0  0
  -30.7630  -14.3320   20.7640 C   0  0  0  0  0  0  0  0  0  0  0  0
  -30.4310  -12.3140   19.3750 C   0  0  0  0  0  2  0  0  0  0  0  0
  -29.4880  -12.5600   18.1820 C   0  0  0  0  0  2  0  0  0  0  0  0
  -28.0100  -12.3980   18.5880 C   0  0  0  0  0  2  0  0  0  0  0  0
  -27.6670  -13.1900   19.8750 C   0  0  0  0  0  3  0  0  0  0  0  0
  -28.7010  -12.8590   20.9680 C   0  0  0  0  0  2  0  0  0  0  0  0
  -30.0450  -13.2110   20.4760 N   0  0  0  0  0  0  0  0  0  0  0  0
  -31.7530  -14.6770   20.1120 O   0  0  0  0  0  0  0  0  0  0  0  0
  -30.5350  -14.9080   21.9590 N   0  0  0  0  0  0  0  0  0  0  0  0
  -31.3700  -15.3500   22.3140 H   0  0  0  0  0  0  0  0  0  0  0  0
  -25.2560  -13.8130   20.5470 C   0  0  0  0  0  0  0  0  0  0  0  0
  -24.1840  -13.0410   20.9120 C   0  0  0  0  0  0  0  0  0  0  0  0
  -24.6380  -11.6880   20.8690 C   0  0  0  0  0  0  0  0  0  0  0  0
  -26.3020  -12.9270   20.3300 N   0  0  0  0  0  0  0  0  0  0  0  0
  -25.9290  -11.6460   20.5730 N   0  0  0  0  0  0  0  0  0  0  0  0
  -23.9020  -10.4280   21.0400 C   0  0  0  0  0  0  0  0  0  0  0  0
  -24.3580   -9.4220   21.9180 C   0  0  0  0  0  3  0  0  0  0  0  0
  -23.6280   -8.2240   22.0750 C   0  0  0  0  0  3  0  0  0  0  0  0
  -22.4260   -8.0270   21.3550 C   0  0  0  0  0  0  0  0  0  0  0  0
  -21.9880   -9.0240   20.4660 C   0  0  0  0  0  3  0  0  0  0  0  0
  -22.7180  -10.2130   20.3060 C   0  0  0  0  0  3  0  0  0  0  0  0
  -21.6630   -6.8870   21.4250 O   0  0  0  0  0  0  0  0  0  0  0  0
  -21.6850   -6.0730   22.5290 C   0  0  0  0  0  0  0  0  0  0  0  0
  -21.4010   -6.5640   23.8220 C   0  0  0  0  0  3  0  0  0  0  0  0
  -21.3660   -5.6790   24.9190 C   0  0  0  0  0  3  0  0  0  0  0  0
  -21.6050   -4.3040   24.7230 C   0  0  0  0  0  0  0  0  0  0  0  0
  -21.8820   -3.8150   23.4350 C   0  0  0  0  0  3  0  0  0  0  0  0
  -21.9190   -4.6970   22.3410 C   0  0  0  0  0  0  0  0  0  0  0  0
  -22.1660   -4.2150   21.0980 F   0  0  0  0  0  0  0  0  0  0  0  0
  -21.5640   -3.4530   25.7740 F   0  0  0  0  0  0  0  0  0  0  0  0
  -22.7860  -13.5260   21.1790 C   0  0  0  0  0  0  0  0  0  0  0  0
  -22.0450  -12.8250   22.0320 N   0  0  0  0  0  0  0  0  0  0  0  0
  -22.3570  -14.5590   20.6700 O   0  0  0  0  0  0  0  0  0  0  0  0
  -22.3900  -11.9780   22.4580 H   0  0  0  0  0  0  0  0  0  0  0  0
  -21.1090  -13.1390   22.2480 H   0  0  0  0  0  0  0  0  0  0  0  0
  -25.4200  -15.1820   20.3670 N   0  0  0  0  0  0  0  0  0  0  0  0
  -24.6410  -15.8250   20.4530 H   0  0  0  0  0  0  0  0  0  0  0  0
  -26.2550  -15.6180   19.9960 H   0  0  0  0  0  0  0  0  0  0  0  0
  1 55  1  0
  2  1  1  0
  3  2  1  0
  4  3  1  0
  5  4  1  0
  6  4  1  0
  7  4  1  0
  8  9  1  0
  8  7  1  0
  9 11  1  0
 10  8  2  0
 12 13  1  0
 12  9  1  0
 14 16  1  0
 14 13  1  0
 15 26  2  0
 16 21  1  0
 17 25  1  0
 17 27  1  0
 18 24  1  0
 18 20  1  0
 19 25  1  0
 20 21  2  0
 20 19  1  0
 22 23  1  0
 22 16  2  0
 23 18  2  0
 24 17  1  0
 25 15  1  0
 27 29  2  0
 28 27  1  0
 30 28  1  0
 31 40  2  0
 31 36  1  0
 32 28  1  0
 32 36  1  0
 33 32  1  0
 34 35  1  0
 34 33  1  0
 35 31  1  0
 36 37  2  0
 37 38  1  0
 39 38  2  0
 40 39  1  0
 41 15  1  0
 41 42  1  0
 41 51  1  0
 42 45  1  0
 43 47  1  0
 43 42  1  0
 44 43  2  0
 47 46  1  0
 49 47  1  0
 49 50  1  0
 49 48  1  0
 51 54  1  1
 51 52  1  0
 53 51  1  0
 55 56  1  0
 56 57  1  0
 57 58  1  0
 58 59  1  0
 60 59  1  0
 60 61  1  0
 62 60  1  0
 63 60  1  0
 64 63  1  0
 65 64  1  0
 66 65  1  0
 67 68  1  0
 67 66  1  0
 69 68  1  0
 70 78  1  0
 71 76  1  0
 72 73  1  0
 72 71  1  0
 74 73  1  0
 74 83  1  0
 74 75  1  0
 76 70  1  0
 76 75  1  0
 77 70  2  0
 78 69  1  0
 78 79  1  0
 80 81  2  0
 81100  1  0
 82 81  1  0
 82 85  1  0
 83 80  1  0
 83 84  1  0
 84 82  2  0
 85 86  1  0
 86 87  2  0
 88 91  1  0
 88 87  1  0
 89 88  2  0
 90 89  1  0
 90 85  2  0
 91 92  1  0
 92 93  1  0
 93 94  2  0
 95 94  1  0
 95 99  1  0
 96 95  2  0
 97 92  2  0
 97 96  1  0
 98 97  1  0
100101  1  0
101104  1  0
101103  1  0
102100  2  0
105106  1  0
105 80  1  0
107105  1  0
M  ISO  4  13 101  14 101  70 100  78 100
M  END
>  <TORSDO>  (9) 
F 36

>  <SCORE>  (9) 
58.842

>  <name>  (9) 
9

>  <ligand_id>  (9) 
9

>  <original_smiles>  (9) 
[H]c1c([H])c([H])c2c(c1[H])C([H])([H])C([H])([H])C([H])([H])C2([H])N([H])C(=O)C1([H])N(C(=O)C([H])(N([H])C(=O)C([H])(N([H])C([H])([H])[H])C([H])([H])[H])C(C([H])([H])[H])(C([H])([H])[H])C([H])([H])[H])C([H])([H])c2c([H])c(OC([H])([H])C([H])([H])N([H])C(=O)C([H])([H])[N+]([H])([H])C([H])([H])C([H])([H])C([H])([H])C([H])([H])C([H])([H])C([H])([H])C([H])([H])C([H])([H])[N+]([H])([H])C([H])([H])C([H])([H])OC([H])([H])C([H])([H])C([H])([H])C([H])([H])N([H])C(=O)N3C([H])([H])C([H])([H])C([H])([H])C([H])(n4nc(-c5c([H])c([H])c(Oc6c([H])c([H])c(F)c([H])c6F)c([H])c5[H])c(C(=O)N([H])[H])c4N([H])[H])C3([H])[H])c([H])c([H])c2C1([H])[H]

>  <smiles>  (9) 
[H]c1c([H])c([H])c2c(c1[H])C([H])([H])C([H])([H])C([H])([H])C2([H])N([H])C(=O)C1([H])N(C(=O)C([H])(N([H])C(=O)C([H])(N([H])C([H])([H])[H])C([H])([H])[H])C(C([H])([H])[H])(C([H])([H])[H])C([H])([H])[H])C([H])([H])c2c([H])c(OC([H])([H])C([H])([H])N([H])C(=O)C([H])([H])[N+]([H])([H])C([H])([H])C([H])([H])C([H])([H])C([H])([H])C([H])([H])C([H])([H])C([H])([H])C([H])([H])[N+]([H])([H])C([H])([H])C([H])([H])OC([H])([H])C([H])([H])C([H])([H])C([H])([H])N([H])C(=O)N3C([H])([H])C([H])([H])C([H])([H])C([H])(n4nc(-c5c([H])c([H])c(Oc6c([H])c([H])c(F)c([H])c6F)c([H])c5[H])c(C(=O)N([H])[H])c4N([H])[H])C3([H])[H])c([H])c([H])c2C1([H])[H]

$$$$
10:0:0
     RDKit          3D

 90 97  0  0  1  0  0  0  0  0999 V2000
  -28.7600  -24.4870   20.7740 C   0  0  0  0  0  0  0  0  0  0  0  0
  -28.8400  -23.1890   20.4400 N   0  0  0  0  0  0  0  0  0  0  0  0
  -28.9070  -24.8760   21.9360 O   0  0  0  0  0  0  0  0  0  0  0  0
  -28.6860  -22.9500   19.4690 H   0  0  0  0  0  0  0  0  0  0  0  0
  -28.5590  -25.4920   19.6270 C   0  0  0  0  0  2  0  0  0  0  0  0
  -28.4220  -26.8280   20.1370 O   0  0  0  0  0  0  0  0  0  0  0  0
  -24.5720  -31.9090   23.2700 C   0  0  0  0  0  0  0  0  0  0  0  0
  -27.2050  -27.4800   20.1550 C   0  0  0  0  0  0  0  0  0  0  0  0
  -23.3580  -30.5160   21.6250 C   0  0  0  0  0  3  0  0  0  0  0  0
  -24.8030  -28.9820   20.1940 C   0  0  0  0  0  0  0  0  0  0  0  0
  -25.8830  -30.8740   21.4190 C   0  0  0  0  0  2  0  0  0  0  0  0
  -25.9630  -29.5040   20.7770 C   0  0  0  0  0  0  0  0  0  0  0  0
  -27.1630  -28.7590   20.7570 C   0  0  0  0  0  3  0  0  0  0  0  0
  -26.0150  -26.9630   19.5850 C   0  0  0  0  0  3  0  0  0  0  0  0
  -24.8230  -27.7100   19.6000 C   0  0  0  0  0  3  0  0  0  0  0  0
  -23.5620  -29.8440   20.2420 C   0  0  0  0  0  2  0  0  0  0  0  0
  -24.6230  -31.1150   22.1630 N   0  0  0  0  0  0  0  0  0  0  0  0
  -23.4910  -32.1800   23.8140 O   0  0  0  0  0  0  0  0  0  0  0  0
  -22.7120  -29.4900   22.5830 C   0  0  0  0  0  0  0  0  0  0  0  0
  -21.3880  -29.3050   22.4550 N   0  0  0  0  0  0  0  0  0  0  0  0
  -23.3970  -28.8630   23.3960 O   0  0  0  0  0  0  0  0  0  0  0  0
  -20.8960  -29.8610   21.7710 H   0  0  0  0  0  0  0  0  0  0  0  0
  -18.0170  -28.0980   22.9390 C   0  0  0  0  0  0  0  0  0  0  0  0
  -20.5720  -28.3620   23.2220 C   0  0  0  0  0  3  0  0  0  0  0  0
  -20.6830  -26.9330   22.6450 C   0  0  0  0  0  2  0  0  0  0  0  0
  -19.5860  -26.6070   21.6260 C   0  0  0  0  0  2  0  0  0  0  0  0
  -18.2010  -26.7490   22.2650 C   0  0  0  0  0  2  0  0  0  0  0  0
  -19.1310  -28.8630   23.3740 C   0  0  0  0  0  0  0  0  0  0  0  0
  -18.9060  -30.1280   23.9610 C   0  0  0  0  0  3  0  0  0  0  0  0
  -17.6000  -30.6260   24.1200 C   0  0  0  0  0  3  0  0  0  0  0  0
  -16.5000  -29.8580   23.7010 C   0  0  0  0  0  3  0  0  0  0  0  0
  -16.7090  -28.5950   23.1160 C   0  0  0  0  0  3  0  0  0  0  0  0
  -25.8590  -32.5360   23.8890 C   0  0  0  0  0  3  0  0  0  0  0  0
  -25.5590  -33.9370   24.2110 N   0  0  0  0  0  0  0  0  0  0  0  0
  -25.8990  -34.9830   23.4480 C   0  0  0  0  0  0  0  0  0  0  0  0
  -26.5710  -34.8710   22.4180 O   0  0  0  0  0  0  0  0  0  0  0  0
  -24.9660  -34.1000   25.0120 H   0  0  0  0  0  0  0  0  0  0  0  0
  -24.1760  -36.7770   23.0820 C   0  0  0  0  0  1  0  0  0  0  0  0
  -25.4150  -36.3750   23.8960 C   0  0  0  0  0  3  0  0  0  0  0  0
  -27.5550  -37.2540   24.7210 C   0  0  0  0  0  1  0  0  0  0  0  0
  -26.4520  -37.4240   23.7790 N   0  0  0  0  0  0  0  0  0  0  0  0
  -26.0500  -38.3460   23.9230 H   0  0  0  0  0  0  0  0  0  0  0  0
  -26.3740  -31.7670   25.1650 C   0  0  1  0  0  0  0  0  0  0  0  0
  -25.2830  -31.5360   26.2360 C   0  0  0  0  0  1  0  0  0  0  0  0
  -26.9500  -30.3870   24.7720 C   0  0  0  0  0  1  0  0  0  0  0  0
  -27.5290  -32.5580   25.8250 C   0  0  0  0  0  1  0  0  0  0  0  0
  -29.3690  -22.1490   21.3200 C   0  0  0  0  0  2  0  0  0  0  0  0
  -29.1820  -20.7220   20.7580 C   0  0  0  0  0  2  0  0  0  0  0  0
  -30.2840  -19.7780   21.2770 C   0  0  0  0  0  2  0  0  0  0  0  0
  -30.0640  -18.2720   21.0230 C   0  0  0  0  0  2  0  0  0  0  0  0
  -31.3710  -17.4790   21.2410 C   0  0  0  0  0  2  0  0  0  0  0  0
  -31.2260  -16.1090   21.9340 C   0  0  0  0  0  2  0  0  0  0  0  0
  -30.7900  -14.3600   20.2000 C   0  0  0  0  0  0  0  0  0  0  0  0
  -30.3380  -12.2880   18.9310 C   0  0  0  0  0  2  0  0  0  0  0  0
  -29.3430  -12.5170   17.7800 C   0  0  0  0  0  2  0  0  0  0  0  0
  -27.8900  -12.3970   18.2800 C   0  0  0  0  0  2  0  0  0  0  0  0
  -27.6280  -13.2380   19.5570 C   0  0  0  0  0  3  0  0  0  0  0  0
  -28.7200  -12.9750   20.6150 C   0  0  0  0  0  2  0  0  0  0  0  0
  -30.0330  -13.2500   20.0010 N   0  0  0  0  0  0  0  0  0  0  0  0
  -31.8000  -14.6210   19.5400 O   0  0  0  0  0  0  0  0  0  0  0  0
  -30.4030  -15.1280   21.2290 N   0  0  0  0  0  0  0  0  0  0  0  0
  -29.5530  -14.8390   21.6890 H   0  0  0  0  0  0  0  0  0  0  0  0
  -25.2750  -13.8960   20.3720 C   0  0  0  0  0  0  0  0  0  0  0  0
  -24.2080  -13.1450   20.7870 C   0  0  0  0  0  0  0  0  0  0  0  0
  -24.6380  -11.7830   20.7310 C   0  0  0  0  0  0  0  0  0  0  0  0
  -26.2900  -12.9930   20.0930 N   0  0  0  0  0  0  0  0  0  0  0  0
  -25.9110  -11.7180   20.3640 N   0  0  0  0  0  0  0  0  0  0  0  0
  -23.8950  -10.5360   20.9490 C   0  0  0  0  0  0  0  0  0  0  0  0
  -24.3430   -9.5610   21.8670 C   0  0  0  0  0  3  0  0  0  0  0  0
  -23.6010   -8.3780   22.0720 C   0  0  0  0  0  3  0  0  0  0  0  0
  -22.3970   -8.1630   21.3620 C   0  0  0  0  0  0  0  0  0  0  0  0
  -21.9680   -9.1260   20.4310 C   0  0  0  0  0  3  0  0  0  0  0  0
  -22.7100  -10.3010   20.2240 C   0  0  0  0  0  3  0  0  0  0  0  0
  -21.6240   -7.0320   21.4770 O   0  0  0  0  0  0  0  0  0  0  0  0
  -21.5990   -6.2930   22.6330 C   0  0  0  0  0  0  0  0  0  0  0  0
  -21.2400   -6.8620   23.8740 C   0  0  0  0  0  3  0  0  0  0  0  0
  -21.1600   -6.0510   25.0240 C   0  0  0  0  0  3  0  0  0  0  0  0
  -21.4270   -4.6720   24.9330 C   0  0  0  0  0  0  0  0  0  0  0  0
  -21.7800   -4.1030   23.6970 C   0  0  0  0  0  3  0  0  0  0  0  0
  -21.8620   -4.9110   22.5500 C   0  0  0  0  0  0  0  0  0  0  0  0
  -22.1820   -4.3530   21.3570 F   0  0  0  0  0  0  0  0  0  0  0  0
  -21.3420   -3.8920   26.0350 F   0  0  0  0  0  0  0  0  0  0  0  0
  -22.8340  -13.6500   21.1220 C   0  0  0  0  0  0  0  0  0  0  0  0
  -22.1300  -12.9660   22.0170 N   0  0  0  0  0  0  0  0  0  0  0  0
  -22.3950  -14.6870   20.6260 O   0  0  0  0  0  0  0  0  0  0  0  0
  -22.4970  -12.1270   22.4410 H   0  0  0  0  0  0  0  0  0  0  0  0
  -21.2090  -13.2860   22.2820 H   0  0  0  0  0  0  0  0  0  0  0  0
  -25.4620  -15.2640   20.1920 N   0  0  0  0  0  0  0  0  0  0  0  0
  -24.7180  -15.9370   20.3440 H   0  0  0  0  0  0  0  0  0  0  0  0
  -26.3130  -15.6850   19.8390 H   0  0  0  0  0  0  0  0  0  0  0  0
  1  3  2  0
  2  1  1  0
  2 47  1  0
  4  2  1  0
  5  6  1  0
  5  1  1  0
  6  8  1  0
  7 18  2  0
  8 13  1  0
  9 17  1  0
  9 19  1  0
 10 16  1  0
 10 12  1  0
 11 17  1  0
 12 11  1  0
 13 12  2  0
 14 15  1  0
 14  8  2  0
 15 10  2  0
 16  9  1  0
 17  7  1  0
 19 21  2  0
 20 19  1  0
 22 20  1  0
 23 32  2  0
 23 28  1  0
 24 20  1  0
 24 28  1  0
 25 24  1  0
 26 27  1  0
 26 25  1  0
 27 23  1  0
 28 29  2  0
 29 30  1  0
 31 30  2  0
 32 31  1  0
 33  7  1  0
 33 34  1  0
 33 43  1  0
 34 37  1  0
 35 39  1  0
 35 34  1  0
 36 35  2  0
 39 38  1  0
 41 39  1  0
 41 42  1  0
 41 40  1  0
 43 46  1  1
 43 44  1  0
 45 43  1  0
 48 49  1  0
 48 47  1  0
 50 51  1  0
 50 49  1  0
 51 52  1  0
 53 61  1  0
 54 59  1  0
 55 56  1  0
 55 54  1  0
 57 56  1  0
 57 66  1  0
 57 58  1  0
 59 53  1  0
 59 58  1  0
 60 53  2  0
 61 62  1  0
 61 52  1  0
 63 64  2  0
 64 83  1  0
 65 64  1  0
 65 68  1  0
 66 67  1  0
 66 63  1  0
 67 65  2  0
 68 69  1  0
 69 70  2  0
 71 74  1  0
 71 70  1  0
 72 71  2  0
 73 72  1  0
 73 68  2  0
 74 75  1  0
 75 76  1  0
 76 77  2  0
 78 77  1  0
 78 82  1  0
 79 78  2  0
 80 75  2  0
 80 79  1  0
 81 80  1  0
 83 84  1  0
 84 87  1  0
 84 86  1  0
 85 83  2  0
 88 89  1  0
 88 63  1  0
 90 88  1  0
M  ISO  4   5 101   6 101  53 100  61 100
M  END
>  <TORSDO>  (10) 
F 23

>  <SCORE>  (10) 
-12.625

>  <name>  (10) 
10

>  <ligand_id>  (10) 
10

>  <original_smiles>  (10) 
[H]c1c([H])c([H])c2c(c1[H])C([H])([H])C([H])([H])C([H])([H])C2([H])N([H])C(=O)C1([H])N(C(=O)C([H])(N([H])C(=O)C([H])(N([H])C([H])([H])[H])C([H])([H])[H])C(C([H])([H])[H])(C([H])([H])[H])C([H])([H])[H])C([H])([H])c2c([H])c(OC([H])([H])C(=O)N([H])C([H])([H])C([H])([H])C([H])([H])C([H])([H])C([H])([H])C([H])([H])N([H])C(=O)N3C([H])([H])C([H])([H])C([H])([H])C([H])(n4nc(-c5c([H])c([H])c(Oc6c([H])c([H])c(F)c([H])c6F)c([H])c5[H])c(C(=O)N([H])[H])c4N([H])[H])C3([H])[H])c([H])c([H])c2C1([H])[H]

>  <smiles>  (10) 
[H]c1c([H])c([H])c2c(c1[H])C([H])([H])C([H])([H])C([H])([H])C2([H])N([H])C(=O)C1([H])N(C(=O)C([H])(N([H])C(=O)C([H])(N([H])C([H])([H])[H])C([H])([H])[H])C(C([H])([H])[H])(C([H])([H])[H])C([H])([H])[H])C([H])([H])c2c([H])c(OC([H])([H])C(=O)N([H])C([H])([H])C([H])([H])C([H])([H])C([H])([H])C([H])([H])C([H])([H])N([H])C(=O)N3C([H])([H])C([H])([H])C([H])([H])C([H])(n4nc(-c5c([H])c([H])c(Oc6c([H])c([H])c(F)c([H])c6F)c([H])c5[H])c(C(=O)N([H])[H])c4N([H])[H])C3([H])[H])c([H])c([H])c2C1([H])[H]

$$$$
12:0:0
     RDKit          3D

124131  0  0  1  0  0  0  0  0999 V2000
  -25.9290  -19.0230   19.4640 C   0  0  0  0  0  2  0  0  0  0  0  0
  -25.9190  -20.2730   21.6120 C   0  0  0  0  0  0  0  0  0  0  0  0
  -25.7560  -20.2190   20.2870 N   0  0  0  0  0  0  0  0  0  0  0  0
  -26.2120  -19.2870   22.2910 O   0  0  0  0  0  0  0  0  0  0  0  0
  -25.5510  -21.0770   19.7930 H   0  0  0  0  0  0  0  0  0  0  0  0
  -25.7220  -21.6330   22.2750 C   0  0  0  0  0  2  0  0  0  0  0  0
  -25.8600  -21.5320   23.7410 N   0  0  0  0  0  4  0  0  0  0  0  0
  -26.7480  -21.0930   23.9250 H   0  0  0  0  0  0  0  0  0  0  0  0
  -25.1490  -20.9000   24.0760 H   0  0  0  0  0  0  0  0  0  0  0  0
  -25.7650  -22.8270   24.4450 C   0  0  0  0  0  2  0  0  0  0  0  0
  -26.0240  -22.7110   25.9610 C   0  0  0  0  0  2  0  0  0  0  0  0
  -27.4390  -22.2520   26.3710 C   0  0  0  0  0  2  0  0  0  0  0  0
  -28.5800  -23.0650   25.7350 C   0  0  0  0  0  2  0  0  0  0  0  0
  -29.9310  -22.8480   26.4390 C   0  0  0  0  0  2  0  0  0  0  0  0
  -31.1250  -23.4100   25.6490 C   0  0  0  0  0  2  0  0  0  0  0  0
  -32.0950  -21.5320   24.3300 C   0  0  0  0  0  0  0  0  0  0  0  0
  -31.3620  -22.6480   24.4260 N   0  0  0  0  0  0  0  0  0  0  0  0
  -32.7060  -21.0470   25.2860 O   0  0  0  0  0  0  0  0  0  0  0  0
  -30.9020  -22.9630   23.5810 H   0  0  0  0  0  0  0  0  0  0  0  0
  -32.1050  -20.8340   22.9690 C   0  0  0  0  0  2  0  0  0  0  0  0
  -30.9820  -19.9670   22.9120 O   0  0  0  0  0  0  0  0  0  0  0  0
  -30.9270  -19.1910   21.7260 C   0  0  0  0  0  2  0  0  0  0  0  0
  -29.8540  -18.1100   21.9240 C   0  0  0  0  0  2  0  0  0  0  0  0
  -30.2360  -17.1060   23.0260 C   0  0  0  0  0  2  0  0  0  0  0  0
  -31.1820  -15.9970   22.5370 C   0  0  0  0  0  2  0  0  0  0  0  0
  -30.7890  -14.3290   20.7190 C   0  0  0  0  0  0  0  0  0  0  0  0
  -30.4170  -12.3000   19.3690 C   0  0  0  0  0  2  0  0  0  0  0  0
  -29.4730  -12.5330   18.1770 C   0  0  0  0  0  2  0  0  0  0  0  0
  -28.0000  -12.3820   18.5990 C   0  0  0  0  0  2  0  0  0  0  0  0
  -27.6640  -13.2000   19.8730 C   0  0  0  0  0  3  0  0  0  0  0  0
  -28.7030  -12.9420   20.9830 C   0  0  0  0  0  2  0  0  0  0  0  0
  -30.0480  -13.2270   20.4460 N   0  0  0  0  0  0  0  0  0  0  0  0
  -31.7690  -14.6800   20.0550 O   0  0  0  0  0  0  0  0  0  0  0  0
  -30.4410  -14.9480   21.8490 N   0  0  0  0  0  0  0  0  0  0  0  0
  -29.6440  -14.5570   22.3300 H   0  0  0  0  0  0  0  0  0  0  0  0
  -25.2630  -13.8150   20.5700 C   0  0  0  0  0  0  0  0  0  0  0  0
  -24.1840  -13.0440   20.9130 C   0  0  0  0  0  0  0  0  0  0  0  0
  -24.6370  -11.6910   20.8670 C   0  0  0  0  0  0  0  0  0  0  0  0
  -26.3050  -12.9300   20.3350 N   0  0  0  0  0  0  0  0  0  0  0  0
  -25.9300  -11.6470   20.5700 N   0  0  0  0  0  0  0  0  0  0  0  0
  -23.9040  -10.4300   21.0360 C   0  0  0  0  0  0  0  0  0  0  0  0
  -24.3620   -9.4240   21.9150 C   0  0  0  0  0  3  0  0  0  0  0  0
  -23.6310   -8.2270   22.0750 C   0  0  0  0  0  3  0  0  0  0  0  0
  -22.4290   -8.0270   21.3550 C   0  0  0  0  0  0  0  0  0  0  0  0
  -21.9900   -9.0240   20.4660 C   0  0  0  0  0  3  0  0  0  0  0  0
  -22.7200  -10.2120   20.3030 C   0  0  0  0  0  3  0  0  0  0  0  0
  -21.6670   -6.8860   21.4250 O   0  0  0  0  0  0  0  0  0  0  0  0
  -21.6870   -6.0730   22.5300 C   0  0  0  0  0  0  0  0  0  0  0  0
  -21.4010   -6.5650   23.8230 C   0  0  0  0  0  3  0  0  0  0  0  0
  -21.3640   -5.6810   24.9200 C   0  0  0  0  0  3  0  0  0  0  0  0
  -21.6030   -4.3070   24.7260 C   0  0  0  0  0  0  0  0  0  0  0  0
  -21.8820   -3.8160   23.4390 C   0  0  0  0  0  3  0  0  0  0  0  0
  -21.9200   -4.6960   22.3430 C   0  0  0  0  0  0  0  0  0  0  0  0
  -22.1680   -4.2140   21.1020 F   0  0  0  0  0  0  0  0  0  0  0  0
  -21.5610   -3.4550   25.7760 F   0  0  0  0  0  0  0  0  0  0  0  0
  -22.7880  -13.5270   21.1810 C   0  0  0  0  0  0  0  0  0  0  0  0
  -22.0560  -12.8240   22.0380 N   0  0  0  0  0  0  0  0  0  0  0  0
  -22.3560  -14.5580   20.6680 O   0  0  0  0  0  0  0  0  0  0  0  0
  -22.4220  -11.9910   22.4760 H   0  0  0  0  0  0  0  0  0  0  0  0
  -21.1170  -13.1220   22.2600 H   0  0  0  0  0  0  0  0  0  0  0  0
  -25.4420  -15.1860   20.4240 N   0  0  0  0  0  0  0  0  0  0  0  0
  -24.7000  -15.8450   20.6270 H   0  0  0  0  0  0  0  0  0  0  0  0
  -26.3440  -15.6190   20.2900 H   0  0  0  0  0  0  0  0  0  0  0  0
  -27.3790  -18.8220   19.0030 C   0  0  0  0  0  0  0  0  0  0  0  0
  -27.6390  -17.6950   18.3320 N   0  0  0  0  0  0  0  0  0  0  0  0
  -28.2430  -19.6720   19.2310 O   0  0  0  0  0  0  0  0  0  0  0  0
  -26.8650  -17.0790   18.1270 H   0  0  0  0  0  0  0  0  0  0  0  0
  -28.9180  -17.3700   17.7020 C   0  0  0  0  0  2  0  0  0  0  0  0
  -29.0780  -18.0980   16.3600 C   0  0  0  0  0  0  0  0  0  0  0  0
  -30.3210  -18.4150   15.9820 N   0  0  0  0  0  0  0  0  0  0  0  0
  -28.0870  -18.3670   15.6740 O   0  0  0  0  0  0  0  0  0  0  0  0
  -31.0810  -18.1340   16.5890 H   0  0  0  0  0  0  0  0  0  0  0  0
  -30.6720  -19.1890   14.7950 C   0  0  0  0  0  2  0  0  0  0  0  0
  -30.5200  -20.7040   15.0350 C   0  0  0  0  0  2  0  0  0  0  0  0
  -31.3860  -21.2330   16.1920 C   0  0  0  0  0  2  0  0  0  0  0  0
  -31.2270  -22.7450   16.4130 C   0  0  0  0  0  2  0  0  0  0  0  0
  -32.0750  -23.2510   17.5930 C   0  0  0  0  0  2  0  0  0  0  0  0
  -31.9570  -24.7650   17.8480 C   0  0  0  0  0  2  0  0  0  0  0  0
  -29.9610  -25.0760   19.3090 C   0  0  0  0  0  0  0  0  0  0  0  0
  -30.5840  -25.1720   18.1280 N   0  0  0  0  0  0  0  0  0  0  0  0
  -30.5120  -24.6410   20.3240 O   0  0  0  0  0  0  0  0  0  0  0  0
  -30.0560  -25.5670   17.3600 H   0  0  0  0  0  0  0  0  0  0  0  0
  -28.5040  -25.5430   19.3580 C   0  0  0  0  0  2  0  0  0  0  0  0
  -28.4390  -26.7880   20.0520 O   0  0  0  0  0  0  0  0  0  0  0  0
  -24.6110  -31.8700   23.2130 C   0  0  0  0  0  0  0  0  0  0  0  0
  -27.2360  -27.4610   20.0740 C   0  0  0  0  0  0  0  0  0  0  0  0
  -23.3970  -30.4960   21.5540 C   0  0  0  0  0  3  0  0  0  0  0  0
  -24.8400  -28.9630   20.1190 C   0  0  0  0  0  0  0  0  0  0  0  0
  -25.9240  -30.8410   21.3630 C   0  0  0  0  0  2  0  0  0  0  0  0
  -25.9990  -29.4760   20.7120 C   0  0  0  0  0  0  0  0  0  0  0  0
  -27.1960  -28.7290   20.6930 C   0  0  0  0  0  3  0  0  0  0  0  0
  -26.0490  -26.9490   19.4970 C   0  0  0  0  0  3  0  0  0  0  0  0
  -24.8580  -27.6950   19.5150 C   0  0  0  0  0  3  0  0  0  0  0  0
  -23.6030  -29.8290   20.1680 C   0  0  0  0  0  2  0  0  0  0  0  0
  -24.6630  -31.0830   22.1020 N   0  0  0  0  0  0  0  0  0  0  0  0
  -23.5320  -32.1440   23.7540 O   0  0  0  0  0  0  0  0  0  0  0  0
  -22.7380  -29.4680   22.5010 C   0  0  0  0  0  0  0  0  0  0  0  0
  -21.4120  -29.3030   22.3750 N   0  0  0  0  0  0  0  0  0  0  0  0
  -23.4180  -28.8220   23.3030 O   0  0  0  0  0  0  0  0  0  0  0  0
  -20.9270  -29.8770   21.6980 H   0  0  0  0  0  0  0  0  0  0  0  0
  -18.0260  -28.1370   22.8500 C   0  0  0  0  0  0  0  0  0  0  0  0
  -20.5850  -28.3660   23.1330 C   0  0  0  0  0  3  0  0  0  0  0  0
  -20.6750  -26.9390   22.5420 C   0  0  0  0  0  2  0  0  0  0  0  0
  -19.5740  -26.6390   21.5210 C   0  0  0  0  0  2  0  0  0  0  0  0
  -18.1920  -26.7920   22.1620 C   0  0  0  0  0  2  0  0  0  0  0  0
  -19.1510  -28.8830   23.2910 C   0  0  0  0  0  0  0  0  0  0  0  0
  -18.9440  -30.1440   23.8920 C   0  0  0  0  0  3  0  0  0  0  0  0
  -17.6450  -30.6580   24.0560 C   0  0  0  0  0  3  0  0  0  0  0  0
  -16.5340  -29.9090   23.6320 C   0  0  0  0  0  3  0  0  0  0  0  0
  -16.7260  -28.6500   23.0350 C   0  0  0  0  0  3  0  0  0  0  0  0
  -25.9020  -32.4830   23.8420 C   0  0  0  0  0  3  0  0  0  0  0  0
  -26.4460  -31.6600   25.0730 C   0  0  1  0  0  0  0  0  0  0  0  0
  -25.3750  -31.3700   26.1500 C   0  0  0  0  0  1  0  0  0  0  0  0
  -27.0280  -30.3050   24.6080 C   0  0  0  0  0  1  0  0  0  0  0  0
  -27.6050  -32.4310   25.7480 C   0  0  0  0  0  1  0  0  0  0  0  0
  -25.5900  -33.8630   24.2350 N   0  0  0  0  0  0  0  0  0  0  0  0
  -25.9040  -34.9490   23.5140 C   0  0  0  0  0  0  0  0  0  0  0  0
  -26.5590  -34.8930   22.4700 O   0  0  0  0  0  0  0  0  0  0  0  0
  -25.0070  -33.9810   25.0510 H   0  0  0  0  0  0  0  0  0  0  0  0
  -24.1480  -36.7320   23.2640 C   0  0  0  0  0  1  0  0  0  0  0  0
  -25.4100  -36.3120   24.0340 C   0  0  0  0  0  3  0  0  0  0  0  0
  -27.5580  -37.1800   24.8460 C   0  0  0  0  0  1  0  0  0  0  0  0
  -26.4280  -37.3810   23.9420 N   0  0  0  0  0  0  0  0  0  0  0  0
  -26.0170  -38.2880   24.1450 H   0  0  0  0  0  0  0  0  0  0  0  0
  1  3  1  0
  2  6  1  0
  2  4  2  0
  3  2  1  0
  5  3  1  0
  6  7  1  0
  7  8  1  0
  7  9  1  0
  7 10  1  0
 10 11  1  0
 11 12  1  0
 13 12  1  0
 13 14  1  0
 15 14  1  0
 16 17  1  0
 16 18  2  0
 17 15  1  0
 19 17  1  0
 20 16  1  0
 21 20  1  0
 22 23  1  0
 22 21  1  0
 23 24  1  0
 25 24  1  0
 26 34  1  0
 27 32  1  0
 28 29  1  0
 28 27  1  0
 30 29  1  0
 30 39  1  0
 30 31  1  0
 32 26  1  0
 32 31  1  0
 33 26  2  0
 34 35  1  0
 34 25  1  0
 36 37  2  0
 37 56  1  0
 38 37  1  0
 38 41  1  0
 39 40  1  0
 39 36  1  0
 40 38  2  0
 41 42  1  0
 42 43  2  0
 44 47  1  0
 44 43  1  0
 45 44  2  0
 46 45  1  0
 46 41  2  0
 47 48  1  0
 48 49  1  0
 49 50  2  0
 51 50  1  0
 51 55  1  0
 52 51  2  0
 53 48  2  0
 53 52  1  0
 54 53  1  0
 56 57  1  0
 57 60  1  0
 57 59  1  0
 58 56  2  0
 61 36  1  0
 61 62  1  0
 63 61  1  0
 64 66  2  0
 64  1  1  0
 65 64  1  0
 67 65  1  0
 68 65  1  0
 69 68  1  0
 70 69  1  0
 70 72  1  0
 71 69  2  0
 73 74  1  0
 73 70  1  0
 74 75  1  0
 75 76  1  0
 76 77  1  0
 77 78  1  0
 78 80  1  0
 79 83  1  0
 79 81  2  0
 80 79  1  0
 82 80  1  0
 83 84  1  0
 84 86  1  0
 85 96  2  0
 86 91  1  0
 87 95  1  0
 87 97  1  0
 88 94  1  0
 88 90  1  0
 89 95  1  0
 90 89  1  0
 91 90  2  0
 92 93  1  0
 92 86  2  0
 93 88  2  0
 94 87  1  0
 95 85  1  0
 97 99  2  0
 98 97  1  0
100 98  1  0
101110  2  0
101106  1  0
102 98  1  0
102106  1  0
103102  1  0
104105  1  0
104103  1  0
105101  1  0
106107  2  0
107108  1  0
109108  2  0
110109  1  0
111 85  1  0
111116  1  0
111112  1  0
112115  1  1
112113  1  0
114112  1  0
116119  1  0
117121  1  0
117116  1  0
118117  2  0
121120  1  0
123121  1  0
123124  1  0
123122  1  0
M  ISO  4  26 100  34 100  83 101  84 101
M  END
>  <TORSDO>  (11) 
F 43

>  <SCORE>  (11) 
31.233

>  <name>  (11) 
12

>  <ligand_id>  (11) 
12

>  <original_smiles>  (11) 
[H]c1c([H])c([H])c2c(c1[H])C([H])([H])C([H])([H])C([H])([H])C2([H])N([H])C(=O)C1([H])N(C(=O)C([H])(N([H])C(=O)C([H])(N([H])C([H])([H])[H])C([H])([H])[H])C(C([H])([H])[H])(C([H])([H])[H])C([H])([H])[H])C([H])([H])c2c([H])c(OC([H])([H])C(=O)N([H])C([H])([H])C([H])([H])C([H])([H])C([H])([H])C([H])([H])C([H])([H])N([H])C(=O)C([H])([H])N([H])C(=O)C([H])([H])N([H])C(=O)C([H])([H])[N+]([H])([H])C([H])([H])C([H])([H])C([H])([H])C([H])([H])C([H])([H])C([H])([H])N([H])C(=O)C([H])([H])OC([H])([H])C([H])([H])C([H])([H])C([H])([H])N([H])C(=O)N3C([H])([H])C([H])([H])C([H])([H])C([H])(n4nc(-c5c([H])c([H])c(Oc6c([H])c([H])c(F)c([H])c6F)c([H])c5[H])c(C(=O)N([H])[H])c4N([H])[H])C3([H])[H])c([H])c([H])c2C1([H])[H]

>  <smiles>  (11) 
[H]c1c([H])c([H])c2c(c1[H])C([H])([H])C([H])([H])C([H])([H])C2([H])N([H])C(=O)C1([H])N(C(=O)C([H])(N([H])C(=O)C([H])(N([H])C([H])([H])[H])C([H])([H])[H])C(C([H])([H])[H])(C([H])([H])[H])C([H])([H])[H])C([H])([H])c2c([H])c(OC([H])([H])C(=O)N([H])C([H])([H])C([H])([H])C([H])([H])C([H])([H])C([H])([H])C([H])([H])N([H])C(=O)C([H])([H])N([H])C(=O)C([H])([H])N([H])C(=O)C([H])([H])[N+]([H])([H])C([H])([H])C([H])([H])C([H])([H])C([H])([H])C([H])([H])C([H])([H])N([H])C(=O)C([H])([H])OC([H])([H])C([H])([H])C([H])([H])C([H])([H])N([H])C(=O)N3C([H])([H])C([H])([H])C([H])([H])C([H])(n4nc(-c5c([H])c([H])c(Oc6c([H])c([H])c(F)c([H])c6F)c([H])c5[H])c(C(=O)N([H])[H])c4N([H])[H])C3([H])[H])c([H])c([H])c2C1([H])[H]

$$$$
13:0:0
     RDKit          3D

127134  0  0  1  0  0  0  0  0999 V2000
  -25.9460  -25.3750   13.3210 C   0  0  0  0  0  0  0  0  0  0  0  0
  -26.4640  -25.0530   14.5090 N   0  0  0  0  0  0  0  0  0  0  0  0
  -26.2850  -24.8220   12.2730 O   0  0  0  0  0  0  0  0  0  0  0  0
  -26.1540  -25.5850   15.3110 H   0  0  0  0  0  0  0  0  0  0  0  0
  -24.8160  -26.4200   13.3200 C   0  0  0  0  0  2  0  0  0  0  0  0
  -23.5370  -25.8220   13.0470 O   0  0  0  0  0  0  0  0  0  0  0  0
  -23.1380  -24.6970   13.8450 C   0  0  0  0  0  2  0  0  0  0  0  0
  -23.1050  -25.0380   15.3640 C   0  0  0  0  0  2  0  0  0  0  0  0
  -22.0180  -24.6400   16.4030 C   0  0  0  0  0  2  0  0  0  0  0  0
  -21.5790  -25.8010   17.1020 O   0  0  0  0  0  0  0  0  0  0  0  0
  -20.8250  -25.5610   18.2830 C   0  0  0  0  0  2  0  0  0  0  0  0
  -19.3060  -25.4390   18.0320 C   0  0  0  0  0  2  0  0  0  0  0  0
  -18.7530  -24.0900   17.5240 C   0  0  0  0  0  2  0  0  0  0  0  0
  -18.6970  -22.9360   18.5440 C   0  0  0  0  0  2  0  0  0  0  0  0
  -19.6050  -21.7370   18.2090 C   0  0  0  0  0  2  0  0  0  0  0  0
  -21.9680  -21.1310   18.7370 C   0  0  0  0  0  0  0  0  0  0  0  0
  -20.8090  -21.7320   19.0280 N   0  0  0  0  0  0  0  0  0  0  0  0
  -22.2250  -20.6590   17.6270 O   0  0  0  0  0  0  0  0  0  0  0  0
  -20.7240  -22.0870   19.9710 H   0  0  0  0  0  0  0  0  0  0  0  0
  -22.9590  -21.0440   19.9100 C   0  0  0  0  0  2  0  0  0  0  0  0
  -24.2530  -20.5900   19.5110 O   0  0  0  0  0  0  0  0  0  0  0  0
  -24.3860  -19.1840   19.3230 C   0  0  0  0  0  2  0  0  0  0  0  0
  -25.3520  -18.6040   20.3780 C   0  0  0  0  0  2  0  0  0  0  0  0
  -26.6970  -18.1110   19.7900 C   0  0  0  0  0  2  0  0  0  0  0  0
  -28.6030  -16.7010   20.5990 C   0  0  0  0  0  0  0  0  0  0  0  0
  -27.5130  -17.4500   20.8130 N   0  0  0  0  0  0  0  0  0  0  0  0
  -29.0950  -16.5500   19.4800 O   0  0  0  0  0  0  0  0  0  0  0  0
  -27.1930  -17.5260   21.7710 H   0  0  0  0  0  0  0  0  0  0  0  0
  -29.1770  -16.0090   21.8540 C   0  0  0  0  0  2  0  0  0  0  0  0
  -30.7360  -14.3960   20.6610 C   0  0  0  0  0  0  0  0  0  0  0  0
  -30.4130  -12.3160   19.3690 C   0  0  0  0  0  2  0  0  0  0  0  0
  -29.4730  -12.5620   18.1730 C   0  0  0  0  0  2  0  0  0  0  0  0
  -28.0000  -12.3820   18.5890 C   0  0  0  0  0  2  0  0  0  0  0  0
  -27.6590  -13.1920   19.8670 C   0  0  0  0  0  3  0  0  0  0  0  0
  -28.7070  -12.9030   20.9670 C   0  0  0  0  0  2  0  0  0  0  0  0
  -30.0370  -13.2490   20.4440 N   0  0  0  0  0  0  0  0  0  0  0  0
  -31.7880  -14.6640   20.0740 O   0  0  0  0  0  0  0  0  0  0  0  0
  -30.3790  -15.1650   21.6990 N   0  0  0  0  0  0  0  0  0  0  0  0
  -31.1960  -15.6680   22.0140 H   0  0  0  0  0  0  0  0  0  0  0  0
  -25.2550  -13.8010   20.5640 C   0  0  0  0  0  0  0  0  0  0  0  0
  -24.1820  -13.0350   20.9210 C   0  0  0  0  0  0  0  0  0  0  0  0
  -24.6370  -11.6810   20.8750 C   0  0  0  0  0  0  0  0  0  0  0  0
  -26.3030  -12.9210   20.3340 N   0  0  0  0  0  0  0  0  0  0  0  0
  -25.9310  -11.6390   20.5780 N   0  0  0  0  0  0  0  0  0  0  0  0
  -23.9060  -10.4230   21.0430 C   0  0  0  0  0  0  0  0  0  0  0  0
  -24.3610   -9.4140   21.9200 C   0  0  0  0  0  3  0  0  0  0  0  0
  -23.6270   -8.2180   22.0780 C   0  0  0  0  0  3  0  0  0  0  0  0
  -22.4240   -8.0230   21.3580 C   0  0  0  0  0  0  0  0  0  0  0  0
  -21.9880   -9.0230   20.4700 C   0  0  0  0  0  3  0  0  0  0  0  0
  -22.7230  -10.2090   20.3090 C   0  0  0  0  0  3  0  0  0  0  0  0
  -21.6580   -6.8850   21.4280 O   0  0  0  0  0  0  0  0  0  0  0  0
  -21.6810   -6.0730   22.5320 C   0  0  0  0  0  0  0  0  0  0  0  0
  -21.3970   -6.5650   23.8250 C   0  0  0  0  0  3  0  0  0  0  0  0
  -21.3660   -5.6810   24.9220 C   0  0  0  0  0  3  0  0  0  0  0  0
  -21.6040   -4.3080   24.7250 C   0  0  0  0  0  0  0  0  0  0  0  0
  -21.8820   -3.8160   23.4380 C   0  0  0  0  0  3  0  0  0  0  0  0
  -21.9170   -4.6970   22.3430 C   0  0  0  0  0  0  0  0  0  0  0  0
  -22.1640   -4.2150   21.1000 F   0  0  0  0  0  0  0  0  0  0  0  0
  -21.5610   -3.4550   25.7760 F   0  0  0  0  0  0  0  0  0  0  0  0
  -22.7840  -13.5170   21.1900 C   0  0  0  0  0  0  0  0  0  0  0  0
  -22.0440  -12.8220   22.0470 N   0  0  0  0  0  0  0  0  0  0  0  0
  -22.3530  -14.5500   20.6760 O   0  0  0  0  0  0  0  0  0  0  0  0
  -22.3880  -11.9770   22.4800 H   0  0  0  0  0  0  0  0  0  0  0  0
  -21.1140  -13.1430   22.2730 H   0  0  0  0  0  0  0  0  0  0  0  0
  -25.4080  -15.1690   20.3860 N   0  0  0  0  0  0  0  0  0  0  0  0
  -24.6340  -15.8110   20.5010 H   0  0  0  0  0  0  0  0  0  0  0  0
  -26.2330  -15.6150   20.0050 H   0  0  0  0  0  0  0  0  0  0  0  0
  -27.2790  -23.8700   14.7770 C   0  0  0  0  0  2  0  0  0  0  0  0
  -26.6130  -23.0320   15.8660 C   0  0  0  0  0  0  0  0  0  0  0  0
  -26.5990  -23.5570   17.0970 N   0  0  0  0  0  0  0  0  0  0  0  0
  -26.0980  -21.9510   15.5880 O   0  0  0  0  0  0  0  0  0  0  0  0
  -27.0150  -24.4670   17.2210 H   0  0  0  0  0  0  0  0  0  0  0  0
  -26.1290  -22.8760   18.3030 C   0  0  0  0  0  2  0  0  0  0  0  0
  -27.2040  -21.9420   18.8890 C   0  0  0  0  0  0  0  0  0  0  0  0
  -27.4270  -22.0220   20.2070 N   0  0  0  0  0  0  0  0  0  0  0  0
  -27.8270  -21.1650   18.1610 O   0  0  0  0  0  0  0  0  0  0  0  0
  -26.8340  -22.6520   20.7300 H   0  0  0  0  0  0  0  0  0  0  0  0
  -28.4170  -21.2670   20.9850 C   0  0  0  0  0  2  0  0  0  0  0  0
  -29.7450  -22.0240   21.1500 C   0  0  0  0  0  2  0  0  0  0  0  0
  -30.6450  -21.9730   19.9010 C   0  0  0  0  0  2  0  0  0  0  0  0
  -31.8010  -22.9890   19.9600 C   0  0  0  0  0  2  0  0  0  0  0  0
  -32.3220  -23.4370   18.5810 C   0  0  0  0  0  2  0  0  0  0  0  0
  -31.2870  -24.2070   17.7430 C   0  0  0  0  0  2  0  0  0  0  0  0
  -30.7420  -25.2770   18.5120 O   0  0  0  0  0  0  0  0  0  0  0  0
  -29.5300  -25.7790   17.9620 C   0  0  0  0  0  2  0  0  0  0  0  0
  -29.0650  -27.0500   18.6940 C   0  0  0  0  0  2  0  0  0  0  0  0
  -28.4110  -26.7760   19.9380 O   0  0  0  0  0  0  0  0  0  0  0  0
  -24.6120  -31.8720   23.2140 C   0  0  0  0  0  0  0  0  0  0  0  0
  -27.2330  -27.4680   20.0660 C   0  0  0  0  0  0  0  0  0  0  0  0
  -23.3970  -30.4890   21.5610 C   0  0  0  0  0  3  0  0  0  0  0  0
  -24.8410  -28.9510   20.1280 C   0  0  0  0  0  0  0  0  0  0  0  0
  -25.9230  -30.8340   21.3700 C   0  0  0  0  0  2  0  0  0  0  0  0
  -25.9980  -29.4660   20.7240 C   0  0  0  0  0  0  0  0  0  0  0  0
  -27.1980  -28.7250   20.7110 C   0  0  0  0  0  3  0  0  0  0  0  0
  -26.0630  -26.9470   19.4860 C   0  0  0  0  0  3  0  0  0  0  0  0
  -24.8630  -27.6850   19.5130 C   0  0  0  0  0  3  0  0  0  0  0  0
  -23.6010  -29.8080   20.1790 C   0  0  0  0  0  2  0  0  0  0  0  0
  -24.6630  -31.0780   22.1060 N   0  0  0  0  0  0  0  0  0  0  0  0
  -23.5340  -32.1490   23.7560 O   0  0  0  0  0  0  0  0  0  0  0  0
  -22.7370  -29.4660   22.5120 C   0  0  0  0  0  0  0  0  0  0  0  0
  -21.4090  -29.3140   22.3990 N   0  0  0  0  0  0  0  0  0  0  0  0
  -23.4170  -28.8120   23.3090 O   0  0  0  0  0  0  0  0  0  0  0  0
  -20.9200  -29.9110   21.7470 H   0  0  0  0  0  0  0  0  0  0  0  0
  -18.0200  -28.1420   22.8520 C   0  0  0  0  0  0  0  0  0  0  0  0
  -20.5810  -28.3620   23.1420 C   0  0  0  0  0  3  0  0  0  0  0  0
  -20.6770  -26.9420   22.5320 C   0  0  0  0  0  2  0  0  0  0  0  0
  -19.5620  -26.6210   21.5340 C   0  0  0  0  0  2  0  0  0  0  0  0
  -18.1780  -26.8000   22.1590 C   0  0  0  0  0  2  0  0  0  0  0  0
  -19.1490  -28.8800   23.2990 C   0  0  0  0  0  0  0  0  0  0  0  0
  -18.9420  -30.1360   23.9080 C   0  0  0  0  0  3  0  0  0  0  0  0
  -17.6440  -30.6540   24.0810 C   0  0  0  0  0  3  0  0  0  0  0  0
  -16.5320  -29.9130   23.6450 C   0  0  0  0  0  3  0  0  0  0  0  0
  -16.7210  -28.6610   23.0350 C   0  0  0  0  0  3  0  0  0  0  0  0
  -25.9050  -32.4830   23.8380 C   0  0  0  0  0  3  0  0  0  0  0  0
  -26.4500  -31.6590   25.0700 C   0  0  1  0  0  0  0  0  0  0  0  0
  -25.3740  -31.3700   26.1400 C   0  0  0  0  0  1  0  0  0  0  0  0
  -27.0270  -30.3000   24.6080 C   0  0  0  0  0  1  0  0  0  0  0  0
  -27.6110  -32.4260   25.7450 C   0  0  0  0  0  1  0  0  0  0  0  0
  -25.5920  -33.8630   24.2290 N   0  0  0  0  0  0  0  0  0  0  0  0
  -25.9030  -34.9470   23.5070 C   0  0  0  0  0  0  0  0  0  0  0  0
  -26.5600  -34.8930   22.4630 O   0  0  0  0  0  0  0  0  0  0  0  0
  -24.9970  -33.9780   25.0370 H   0  0  0  0  0  0  0  0  0  0  0  0
  -24.1500  -36.7330   23.2630 C   0  0  0  0  0  1  0  0  0  0  0  0
  -25.4110  -36.3090   24.0320 C   0  0  0  0  0  3  0  0  0  0  0  0
  -27.5570  -37.1820   24.8440 C   0  0  0  0  0  1  0  0  0  0  0  0
  -26.4270  -37.3780   23.9370 N   0  0  0  0  0  0  0  0  0  0  0  0
  -26.0150  -38.2840   24.1400 H   0  0  0  0  0  0  0  0  0  0  0  0
  1  2  1  0
  2 68  1  0
  2  4  1  0
  3  1  2  0
  5  1  1  0
  6  5  1  0
  6  7  1  0
  7  8  1  0
  8  9  1  0
  9 10  1  0
 10 11  1  0
 12 11  1  0
 13 12  1  0
 13 14  1  0
 15 14  1  0
 15 17  1  0
 16 17  1  0
 16 20  1  0
 17 19  1  0
 18 16  2  0
 21 20  1  0
 22 21  1  0
 22 23  1  0
 24 23  1  0
 24 26  1  0
 25 26  1  0
 25 29  1  0
 26 28  1  0
 27 25  2  0
 30 38  1  0
 31 36  1  0
 32 33  1  0
 32 31  1  0
 34 33  1  0
 34 43  1  0
 34 35  1  0
 36 30  1  0
 36 35  1  0
 37 30  2  0
 38 29  1  0
 38 39  1  0
 40 41  2  0
 41 60  1  0
 42 41  1  0
 42 45  1  0
 43 40  1  0
 43 44  1  0
 44 42  2  0
 45 46  1  0
 46 47  2  0
 48 51  1  0
 48 47  1  0
 49 48  2  0
 50 49  1  0
 50 45  2  0
 51 52  1  0
 52 53  1  0
 53 54  2  0
 55 54  1  0
 55 59  1  0
 56 55  2  0
 57 52  2  0
 57 56  1  0
 58 57  1  0
 60 61  1  0
 61 64  1  0
 61 63  1  0
 62 60  2  0
 65 66  1  0
 65 40  1  0
 67 65  1  0
 68 69  1  0
 69 70  1  0
 70 72  1  0
 70 73  1  0
 71 69  2  0
 73 74  1  0
 74 75  1  0
 75 77  1  0
 75 78  1  0
 76 74  2  0
 78 79  1  0
 80 81  1  0
 80 79  1  0
 82 81  1  0
 83 84  1  0
 83 82  1  0
 85 84  1  0
 85 86  1  0
 86 87  1  0
 87 89  1  0
 88 99  2  0
 89 94  1  0
 90 98  1  0
 90100  1  0
 91 97  1  0
 91 93  1  0
 92 98  1  0
 93 92  1  0
 94 93  2  0
 95 96  1  0
 95 89  2  0
 96 91  2  0
 97 90  1  0
 98 88  1  0
100102  2  0
101100  1  0
103101  1  0
104113  2  0
104109  1  0
105101  1  0
105109  1  0
106105  1  0
107108  1  0
107106  1  0
108104  1  0
109110  2  0
110111  1  0
112111  2  0
113112  1  0
114 88  1  0
114119  1  0
114115  1  0
115118  1  1
115116  1  0
117115  1  0
119122  1  0
120124  1  0
120119  1  0
121120  2  0
124123  1  0
126124  1  0
126127  1  0
126125  1  0
M  ISO  4  30 100  38 100  86 101  87 101
M  END
>  <TORSDO>  (12) 
F 48

>  <SCORE>  (12) 
6.940

>  <name>  (12) 
13

>  <ligand_id>  (12) 
13

>  <original_smiles>  (12) 
[H]c1c([H])c([H])c2c(c1[H])C([H])([H])C([H])([H])C([H])([H])C2([H])N([H])C(=O)C1([H])N(C(=O)C([H])(N([H])C(=O)C([H])(N([H])C([H])([H])[H])C([H])([H])[H])C(C([H])([H])[H])(C([H])([H])[H])C([H])([H])[H])C([H])([H])c2c([H])c(OC([H])([H])C([H])([H])OC([H])([H])C([H])([H])C([H])([H])C([H])([H])C([H])([H])C([H])([H])N([H])C(=O)C([H])([H])N([H])C(=O)C([H])([H])N([H])C(=O)C([H])([H])OC([H])([H])C([H])([H])C([H])([H])OC([H])([H])C([H])([H])C([H])([H])C([H])([H])C([H])([H])N([H])C(=O)C([H])([H])OC([H])([H])C([H])([H])C([H])([H])N([H])C(=O)C([H])([H])N([H])C(=O)N3C([H])([H])C([H])([H])C([H])([H])C([H])(n4nc(-c5c([H])c([H])c(Oc6c([H])c([H])c(F)c([H])c6F)c([H])c5[H])c(C(=O)N([H])[H])c4N([H])[H])C3([H])[H])c([H])c([H])c2C1([H])[H]

>  <smiles>  (12) 
[H]c1c([H])c([H])c2c(c1[H])C([H])([H])C([H])([H])C([H])([H])C2([H])N([H])C(=O)C1([H])N(C(=O)C([H])(N([H])C(=O)C([H])(N([H])C([H])([H])[H])C([H])([H])[H])C(C([H])([H])[H])(C([H])([H])[H])C([H])([H])[H])C([H])([H])c2c([H])c(OC([H])([H])C([H])([H])OC([H])([H])C([H])([H])C([H])([H])C([H])([H])C([H])([H])C([H])([H])N([H])C(=O)C([H])([H])N([H])C(=O)C([H])([H])N([H])C(=O)C([H])([H])OC([H])([H])C([H])([H])C([H])([H])OC([H])([H])C([H])([H])C([H])([H])C([H])([H])C([H])([H])N([H])C(=O)C([H])([H])OC([H])([H])C([H])([H])C([H])([H])N([H])C(=O)C([H])([H])N([H])C(=O)N3C([H])([H])C([H])([H])C([H])([H])C([H])(n4nc(-c5c([H])c([H])c(Oc6c([H])c([H])c(F)c([H])c6F)c([H])c5[H])c(C(=O)N([H])[H])c4N([H])[H])C3([H])[H])c([H])c([H])c2C1([H])[H]

$$$$
15:0:0
     RDKit          3D

116123  0  0  1  0  0  0  0  0999 V2000
  -21.9720  -20.4470   21.6240 C   0  0  0  0  0  2  0  0  0  0  0  0
  -20.8470  -18.2670   21.1430 C   0  0  0  0  0  0  0  0  0  0  0  0
  -20.9590  -19.5930   21.0040 N   0  0  0  0  0  0  0  0  0  0  0  0
  -21.5330  -17.6240   21.9370 O   0  0  0  0  0  0  0  0  0  0  0  0
  -20.3110  -20.0430   20.3700 H   0  0  0  0  0  0  0  0  0  0  0  0
  -19.8390  -17.5700   20.2240 C   0  0  0  0  0  2  0  0  0  0  0  0
  -20.2700  -17.5600   18.7360 C   0  0  0  0  0  2  0  0  0  0  0  0
  -21.5270  -16.7110   18.4590 C   0  0  0  0  0  2  0  0  0  0  0  0
  -21.9780  -16.6640   16.9900 C   0  0  0  0  0  2  0  0  0  0  0  0
  -23.3730  -16.0140   16.8220 C   0  0  0  0  0  2  0  0  0  0  0  0
  -25.7350  -16.6040   17.3970 C   0  0  0  0  0  0  0  0  0  0  0  0
  -24.4550  -16.9420   17.1630 N   0  0  0  0  0  0  0  0  0  0  0  0
  -26.1550  -15.4520   17.2860 O   0  0  0  0  0  0  0  0  0  0  0  0
  -24.2300  -17.9250   17.1760 H   0  0  0  0  0  0  0  0  0  0  0  0
  -26.6770  -17.7560   17.8020 C   0  0  0  0  0  2  0  0  0  0  0  0
  -28.3710  -17.0410   19.4800 C   0  0  0  0  0  0  0  0  0  0  0  0
  -28.0190  -17.3380   18.2250 N   0  0  0  0  0  0  0  0  0  0  0  0
  -27.5600  -17.0350   20.4080 O   0  0  0  0  0  0  0  0  0  0  0  0
  -28.7270  -17.2760   17.5060 H   0  0  0  0  0  0  0  0  0  0  0  0
  -29.8290  -16.6750   19.7580 C   0  0  0  0  0  2  0  0  0  0  0  0
  -30.6640  -14.4750   20.4780 C   0  0  0  0  0  0  0  0  0  0  0  0
  -30.4170  -12.2810   19.4390 C   0  0  0  0  0  2  0  0  0  0  0  0
  -29.4920  -12.4780   18.2180 C   0  0  0  0  0  2  0  0  0  0  0  0
  -28.0110  -12.3470   18.6280 C   0  0  0  0  0  2  0  0  0  0  0  0
  -27.6500  -13.2010   19.8750 C   0  0  0  0  0  3  0  0  0  0  0  0
  -28.6980  -13.0100   21.0030 C   0  0  0  0  0  2  0  0  0  0  0  0
  -30.0320  -13.2790   20.4400 N   0  0  0  0  0  0  0  0  0  0  0  0
  -31.8240  -14.6560   20.0960 O   0  0  0  0  0  0  0  0  0  0  0  0
  -29.8250  -15.5040   20.6300 N   0  0  0  0  0  0  0  0  0  0  0  0
  -28.9010  -15.2720   20.9760 H   0  0  0  0  0  0  0  0  0  0  0  0
  -25.2510  -13.8060   20.5830 C   0  0  0  0  0  0  0  0  0  0  0  0
  -24.1790  -13.0310   20.9230 C   0  0  0  0  0  0  0  0  0  0  0  0
  -24.6350  -11.6800   20.8710 C   0  0  0  0  0  0  0  0  0  0  0  0
  -26.2960  -12.9270   20.3380 N   0  0  0  0  0  0  0  0  0  0  0  0
  -25.9270  -11.6440   20.5730 N   0  0  0  0  0  0  0  0  0  0  0  0
  -23.9060  -10.4210   21.0360 C   0  0  0  0  0  0  0  0  0  0  0  0
  -24.3620   -9.4170   21.9160 C   0  0  0  0  0  3  0  0  0  0  0  0
  -23.6270   -8.2240   22.0780 C   0  0  0  0  0  3  0  0  0  0  0  0
  -22.4240   -8.0290   21.3560 C   0  0  0  0  0  0  0  0  0  0  0  0
  -21.9880   -9.0230   20.4640 C   0  0  0  0  0  3  0  0  0  0  0  0
  -22.7230  -10.2070   20.3010 C   0  0  0  0  0  3  0  0  0  0  0  0
  -21.6660   -6.8850   21.4250 O   0  0  0  0  0  0  0  0  0  0  0  0
  -21.6860   -6.0710   22.5280 C   0  0  0  0  0  0  0  0  0  0  0  0
  -21.4010   -6.5610   23.8190 C   0  0  0  0  0  3  0  0  0  0  0  0
  -21.3660   -5.6770   24.9160 C   0  0  0  0  0  3  0  0  0  0  0  0
  -21.6030   -4.3040   24.7220 C   0  0  0  0  0  0  0  0  0  0  0  0
  -21.8810   -3.8130   23.4370 C   0  0  0  0  0  3  0  0  0  0  0  0
  -21.9190   -4.6930   22.3400 C   0  0  0  0  0  0  0  0  0  0  0  0
  -22.1670   -4.2110   21.0980 F   0  0  0  0  0  0  0  0  0  0  0  0
  -21.5680   -3.4540   25.7750 F   0  0  0  0  0  0  0  0  0  0  0  0
  -22.7830  -13.5060   21.1980 C   0  0  0  0  0  0  0  0  0  0  0  0
  -22.0390  -12.7880   22.0270 N   0  0  0  0  0  0  0  0  0  0  0  0
  -22.3590  -14.5450   20.7040 O   0  0  0  0  0  0  0  0  0  0  0  0
  -22.3850  -11.9300   22.4320 H   0  0  0  0  0  0  0  0  0  0  0  0
  -21.0970  -13.0860   22.2330 H   0  0  0  0  0  0  0  0  0  0  0  0
  -25.4080  -15.1830   20.4700 N   0  0  0  0  0  0  0  0  0  0  0  0
  -24.6310  -15.8090   20.6450 H   0  0  0  0  0  0  0  0  0  0  0  0
  -26.2820  -15.6790   20.2980 H   0  0  0  0  0  0  0  0  0  0  0  0
  -23.4130  -20.1980   21.0960 C   0  0  0  0  0  3  0  0  0  0  0  0
  -24.3670  -21.2090   21.6080 N   0  0  0  0  0  4  0  0  0  0  0  0
  -25.2820  -21.0650   21.1940 H   0  0  0  0  0  0  0  0  0  0  0  0
  -24.0790  -22.1320   21.3240 H   0  0  0  0  0  0  0  0  0  0  0  0
  -24.6910  -21.1890   23.0440 C   0  0  0  0  0  2  0  0  0  0  0  0
  -26.1550  -21.6010   23.1650 C   0  0  0  0  0  0  0  0  0  0  0  0
  -26.5690  -22.0860   24.3380 N   0  0  0  0  0  0  0  0  0  0  0  0
  -26.8910  -21.4880   22.1800 O   0  0  0  0  0  0  0  0  0  0  0  0
  -25.9040  -22.1020   25.1020 H   0  0  0  0  0  0  0  0  0  0  0  0
  -27.8890  -22.6520   24.6030 C   0  0  0  0  0  2  0  0  0  0  0  0
  -27.9830  -24.1110   24.1130 C   0  0  0  0  0  2  0  0  0  0  0  0
  -28.1490  -24.1450   22.7010 O   0  0  0  0  0  0  0  0  0  0  0  0
  -28.0580  -25.4590   22.1630 C   0  0  0  0  0  2  0  0  0  0  0  0
  -28.3290  -25.4270   20.6460 C   0  0  0  0  0  2  0  0  0  0  0  0
  -28.4060  -26.7480   20.1020 O   0  0  0  0  0  0  0  0  0  0  0  0
  -24.6140  -31.8690   23.2110 C   0  0  0  0  0  0  0  0  0  0  0  0
  -27.2330  -27.4620   20.0980 C   0  0  0  0  0  0  0  0  0  0  0  0
  -23.3990  -30.4940   21.5490 C   0  0  0  0  0  3  0  0  0  0  0  0
  -24.8450  -28.9610   20.1150 C   0  0  0  0  0  0  0  0  0  0  0  0
  -25.9250  -30.8470   21.3550 C   0  0  0  0  0  2  0  0  0  0  0  0
  -26.0040  -29.4830   20.7050 C   0  0  0  0  0  0  0  0  0  0  0  0
  -27.2040  -28.7410   20.6880 C   0  0  0  0  0  3  0  0  0  0  0  0
  -26.0620  -26.9450   19.5030 C   0  0  0  0  0  3  0  0  0  0  0  0
  -24.8680  -27.6910   19.5120 C   0  0  0  0  0  3  0  0  0  0  0  0
  -23.6050  -29.8240   20.1650 C   0  0  0  0  0  2  0  0  0  0  0  0
  -24.6640  -31.0840   22.0970 N   0  0  0  0  0  0  0  0  0  0  0  0
  -23.5340  -32.1420   23.7540 O   0  0  0  0  0  0  0  0  0  0  0  0
  -22.7410  -29.4680   22.4980 C   0  0  0  0  0  0  0  0  0  0  0  0
  -21.4130  -29.3040   22.3720 N   0  0  0  0  0  0  0  0  0  0  0  0
  -23.4190  -28.8210   23.3000 O   0  0  0  0  0  0  0  0  0  0  0  0
  -20.9280  -29.8770   21.6960 H   0  0  0  0  0  0  0  0  0  0  0  0
  -18.0270  -28.1370   22.8490 C   0  0  0  0  0  0  0  0  0  0  0  0
  -20.5850  -28.3660   23.1310 C   0  0  0  0  0  3  0  0  0  0  0  0
  -20.6750  -26.9380   22.5420 C   0  0  0  0  0  2  0  0  0  0  0  0
  -19.5740  -26.6380   21.5210 C   0  0  0  0  0  2  0  0  0  0  0  0
  -18.1920  -26.7920   22.1610 C   0  0  0  0  0  2  0  0  0  0  0  0
  -19.1510  -28.8820   23.2910 C   0  0  0  0  0  0  0  0  0  0  0  0
  -18.9460  -30.1430   23.8920 C   0  0  0  0  0  3  0  0  0  0  0  0
  -17.6450  -30.6570   24.0550 C   0  0  0  0  0  3  0  0  0  0  0  0
  -16.5340  -29.9080   23.6310 C   0  0  0  0  0  3  0  0  0  0  0  0
  -16.7260  -28.6490   23.0350 C   0  0  0  0  0  3  0  0  0  0  0  0
  -25.9040  -32.4830   23.8400 C   0  0  0  0  0  3  0  0  0  0  0  0
  -26.4500  -31.6580   25.0700 C   0  0  1  0  0  0  0  0  0  0  0  0
  -25.3800  -31.3650   26.1480 C   0  0  0  0  0  1  0  0  0  0  0  0
  -27.0320  -30.3030   24.6040 C   0  0  0  0  0  1  0  0  0  0  0  0
  -27.6090  -32.4290   25.7450 C   0  0  0  0  0  1  0  0  0  0  0  0
  -25.5910  -33.8620   24.2350 N   0  0  0  0  0  0  0  0  0  0  0  0
  -25.9030  -34.9490   23.5140 C   0  0  0  0  0  0  0  0  0  0  0  0
  -26.5580  -34.8940   22.4700 O   0  0  0  0  0  0  0  0  0  0  0  0
  -25.0080  -33.9780   25.0510 H   0  0  0  0  0  0  0  0  0  0  0  0
  -24.1490  -36.7330   23.2640 C   0  0  0  0  0  1  0  0  0  0  0  0
  -25.4100  -36.3120   24.0340 C   0  0  0  0  0  3  0  0  0  0  0  0
  -27.5580  -37.1810   24.8470 C   0  0  0  0  0  1  0  0  0  0  0  0
  -26.4300  -37.3790   23.9410 N   0  0  0  0  0  0  0  0  0  0  0  0
  -26.0200  -38.2870   24.1400 H   0  0  0  0  0  0  0  0  0  0  0  0
  -23.5130  -20.1830   19.5610 C   0  0  0  0  0  2  0  0  0  0  0  0
  -23.1830  -21.5620   17.6740 C   0  0  0  0  0  1  0  0  0  0  0  0
  -23.0870  -21.4510   19.0840 O   0  0  0  0  0  0  0  0  0  0  0  0
  2  4  2  0
  3  2  1  0
  3  1  1  0
  5  3  1  0
  6  2  1  0
  7  6  1  0
  8  7  1  0
  9  8  1  0
 10  9  1  0
 10 12  1  0
 11 15  1  0
 12 14  1  0
 12 11  1  0
 13 11  2  0
 15 17  1  0
 16 20  1  0
 16 18  2  0
 17 16  1  0
 19 17  1  0
 20 29  1  0
 21 29  1  0
 22 27  1  0
 23 24  1  0
 23 22  1  0
 25 24  1  0
 25 34  1  0
 25 26  1  0
 27 21  1  0
 27 26  1  0
 28 21  2  0
 29 30  1  0
 31 32  2  0
 32 51  1  0
 33 32  1  0
 33 36  1  0
 34 35  1  0
 34 31  1  0
 35 33  2  0
 36 37  1  0
 37 38  2  0
 39 42  1  0
 39 38  1  0
 40 39  2  0
 41 40  1  0
 41 36  2  0
 42 43  1  0
 43 44  1  0
 44 45  2  0
 46 45  1  0
 46 50  1  0
 47 46  2  0
 48 43  2  0
 48 47  1  0
 49 48  1  0
 51 52  1  0
 52 55  1  0
 52 54  1  0
 53 51  2  0
 56 31  1  0
 56 57  1  0
 58 56  1  0
 59114  1  0
 59 60  1  0
 59  1  1  0
 60 63  1  0
 61 60  1  0
 62 60  1  0
 63 64  1  0
 64 65  1  0
 65 68  1  0
 65 67  1  0
 66 64  2  0
 69 68  1  0
 70 69  1  0
 71 70  1  0
 72 71  1  0
 73 72  1  0
 74 85  2  0
 75 73  1  0
 75 80  1  0
 76 84  1  0
 76 86  1  0
 77 83  1  0
 77 79  1  0
 78 84  1  0
 79 78  1  0
 80 79  2  0
 81 82  1  0
 81 75  2  0
 82 77  2  0
 83 76  1  0
 84 74  1  0
 86 88  2  0
 87 86  1  0
 89 87  1  0
 90 99  2  0
 90 95  1  0
 91 87  1  0
 91 95  1  0
 92 91  1  0
 93 94  1  0
 93 92  1  0
 94 90  1  0
 95 96  2  0
 96 97  1  0
 98 97  2  0
 99 98  1  0
100 74  1  0
100105  1  0
100101  1  0
101104  1  1
101102  1  0
103101  1  0
105108  1  0
106110  1  0
106105  1  0
107106  2  0
110109  1  0
112110  1  0
112113  1  0
112111  1  0
115116  1  0
116114  1  0
M  ISO  4  21 100  29 100  72 101  73 101
M  END
>  <TORSDO>  (13) 
F 37

>  <SCORE>  (13) 
85.778

>  <name>  (13) 
15

>  <ligand_id>  (13) 
15

>  <original_smiles>  (13) 
[H]c1c([H])c([H])c2c(c1[H])C([H])([H])C([H])([H])C([H])([H])C2([H])N([H])C(=O)C1([H])N(C(=O)C([H])(N([H])C(=O)C([H])(N([H])C([H])([H])[H])C([H])([H])[H])C(C([H])([H])[H])(C([H])([H])[H])C([H])([H])[H])C([H])([H])c2c([H])c(OC([H])([H])C([H])([H])OC([H])([H])C([H])([H])N([H])C(=O)C([H])([H])[N+]([H])([H])C([H])(C([H])([H])OC([H])([H])[H])C([H])([H])N([H])C(=O)C([H])([H])C([H])([H])C([H])([H])C([H])([H])C([H])([H])N([H])C(=O)C([H])([H])N([H])C(=O)C([H])([H])N([H])C(=O)N3C([H])([H])C([H])([H])C([H])([H])C([H])(n4nc(-c5c([H])c([H])c(Oc6c([H])c([H])c(F)c([H])c6F)c([H])c5[H])c(C(=O)N([H])[H])c4N([H])[H])C3([H])[H])c([H])c([H])c2C1([H])[H]

>  <smiles>  (13) 
[H]c1c([H])c([H])c2c(c1[H])C([H])([H])C([H])([H])C([H])([H])C2([H])N([H])C(=O)C1([H])N(C(=O)C([H])(N([H])C(=O)C([H])(N([H])C([H])([H])[H])C([H])([H])[H])C(C([H])([H])[H])(C([H])([H])[H])C([H])([H])[H])C([H])([H])c2c([H])c(OC([H])([H])C([H])([H])OC([H])([H])C([H])([H])N([H])C(=O)C([H])([H])[N+]([H])([H])C([H])(C([H])([H])OC([H])([H])[H])C([H])([H])N([H])C(=O)C([H])([H])C([H])([H])C([H])([H])C([H])([H])C([H])([H])N([H])C(=O)C([H])([H])N([H])C(=O)C([H])([H])N([H])C(=O)N3C([H])([H])C([H])([H])C([H])([H])C([H])(n4nc(-c5c([H])c([H])c(Oc6c([H])c([H])c(F)c([H])c6F)c([H])c5[H])c(C(=O)N([H])[H])c4N([H])[H])C3([H])[H])c([H])c([H])c2C1([H])[H]

$$$$
16:0:0
     RDKit          3D

112116  0  0  1  0  0  0  0  0999 V2000
  -19.4430  -15.4860   20.1650 C   0  0  0  0  0  0  0  0  0  0  0  0
  -18.7420  -16.5690   20.5140 N   0  0  0  0  0  0  0  0  0  0  0  0
  -19.5940  -14.5100   20.9180 O   0  0  0  0  0  0  0  0  0  0  0  0
  -18.7310  -17.3330   19.8540 H   0  0  0  0  0  0  0  0  0  0  0  0
  -17.9890  -16.8380   21.7410 C   0  0  0  0  0  2  0  0  0  0  0  0
  -18.1770  -18.3110   22.1650 C   0  0  0  0  0  0  0  0  0  0  0  0
  -17.6240  -18.7250   23.3280 N   0  0  0  0  0  0  0  0  0  0  0  0
  -18.7980  -19.0550   21.3960 O   0  0  0  0  0  0  0  0  0  0  0  0
  -17.1370  -18.0180   23.8730 H   0  0  0  0  0  0  0  0  0  0  0  0
  -17.7460  -20.0210   24.0290 C   0  0  0  0  0  2  0  0  0  0  0  0
  -18.3530  -21.1660   23.1870 C   0  0  0  0  0  2  0  0  0  0  0  0
  -17.9880  -22.5980   23.6140 C   0  0  0  0  0  2  0  0  0  0  0  0
  -18.6450  -23.6520   22.7040 C   0  0  0  0  0  2  0  0  0  0  0  0
  -17.8400  -24.9570   22.6340 C   0  0  0  0  0  2  0  0  0  0  0  0
  -18.3910  -25.8560   21.5120 C   0  0  0  0  0  2  0  0  0  0  0  0
  -17.3110  -26.7040   20.8490 C   0  0  0  0  0  2  0  0  0  0  0  0
  -17.6060  -27.0110   19.3710 C   0  0  0  0  0  2  0  0  0  0  0  0
  -16.4300  -26.8540   18.6040 O   0  0  0  0  0  0  0  0  0  0  0  0
   -9.7020  -24.7700   18.5230 C   0  0  0  0  0  0  0  0  0  0  0  0
  -15.5860  -25.8190   18.9130 C   0  0  0  0  0  0  0  0  0  0  0  0
  -11.2280  -23.2850   19.7720 C   0  0  0  0  0  3  0  0  0  0  0  0
  -13.7220  -23.7740   19.4690 C   0  0  0  0  0  0  0  0  0  0  0  0
  -12.0800  -24.6950   17.8220 C   0  0  0  0  0  2  0  0  0  0  0  0
  -13.4200  -24.7630   18.5180 C   0  0  0  0  0  0  0  0  0  0  0  0
  -14.3470  -25.7860   18.2460 C   0  0  0  0  0  3  0  0  0  0  0  0
  -15.8850  -24.8080   19.8590 C   0  0  0  0  0  3  0  0  0  0  0  0
  -14.9520  -23.7980   20.1460 C   0  0  0  0  0  3  0  0  0  0  0  0
  -12.6720  -22.7170   19.7250 C   0  0  0  0  0  2  0  0  0  0  0  0
  -10.9670  -24.3070   18.7100 N   0  0  0  0  0  0  0  0  0  0  0  0
   -8.7540  -24.3210   19.1730 O   0  0  0  0  0  0  0  0  0  0  0  0
  -10.9910  -23.8130   21.1950 C   0  0  0  0  0  0  0  0  0  0  0  0
  -10.6410  -22.9040   22.1150 N   0  0  0  0  0  0  0  0  0  0  0  0
  -11.1530  -25.0070   21.4630 O   0  0  0  0  0  0  0  0  0  0  0  0
  -10.5570  -21.9470   21.8150 H   0  0  0  0  0  0  0  0  0  0  0  0
   -9.7040  -21.3010   25.2030 C   0  0  0  0  0  0  0  0  0  0  0  0
  -10.4020  -23.1460   23.5320 C   0  0  0  0  0  3  0  0  0  0  0  0
  -11.7420  -23.2080   24.3080 C   0  0  0  0  0  2  0  0  0  0  0  0
  -12.1520  -21.8600   24.9060 C   0  0  0  0  0  2  0  0  0  0  0  0
  -11.0740  -21.3330   25.8540 C   0  0  0  0  0  2  0  0  0  0  0  0
   -9.3920  -22.1410   24.1000 C   0  0  0  0  0  0  0  0  0  0  0  0
   -8.1180  -22.0330   23.4960 C   0  0  0  0  0  3  0  0  0  0  0  0
   -7.1600  -21.1290   23.9940 C   0  0  0  0  0  3  0  0  0  0  0  0
   -7.4690  -20.3140   25.0990 C   0  0  0  0  0  3  0  0  0  0  0  0
   -8.7410  -20.3990   25.6960 C   0  0  0  0  0  3  0  0  0  0  0  0
   -9.3850  -25.8660   17.4590 C   0  0  0  0  0  3  0  0  0  0  0  0
   -8.9990  -27.2560   18.1000 C   0  0  1  0  0  0  0  0  0  0  0  0
   -7.8980  -27.1420   19.1830 C   0  0  0  0  0  1  0  0  0  0  0  0
  -10.2430  -27.9170   18.7400 C   0  0  0  0  0  1  0  0  0  0  0  0
   -8.5070  -28.2250   16.9990 C   0  0  0  0  0  1  0  0  0  0  0  0
   -8.2920  -25.3600   16.6170 N   0  0  0  0  0  0  0  0  0  0  0  0
   -8.4690  -24.7150   15.4560 C   0  0  0  0  0  0  0  0  0  0  0  0
   -9.5800  -24.5470   14.9410 O   0  0  0  0  0  0  0  0  0  0  0  0
   -7.3660  -25.3960   17.0160 H   0  0  0  0  0  0  0  0  0  0  0  0
   -7.0840  -22.6630   15.0400 C   0  0  0  0  0  1  0  0  0  0  0  0
   -7.2130  -24.1670   14.7540 C   0  0  0  0  0  3  0  0  0  0  0  0
   -7.3610  -25.8170   12.9430 C   0  0  0  0  0  1  0  0  0  0  0  0
   -7.2120  -24.4070   13.2920 N   0  0  0  0  0  0  0  0  0  0  0  0
   -6.3540  -24.0640   12.8710 H   0  0  0  0  0  0  0  0  0  0  0  0
  -19.9600  -15.4890   18.7130 C   0  0  0  0  0  2  0  0  0  0  0  0
  -21.9990  -14.2830   17.9660 C   0  0  0  0  0  0  0  0  0  0  0  0
  -20.7080  -14.2840   18.3510 N   0  0  0  0  0  0  0  0  0  0  0  0
  -22.7040  -15.2920   18.0380 O   0  0  0  0  0  0  0  0  0  0  0  0
  -20.1750  -13.4270   18.4310 H   0  0  0  0  0  0  0  0  0  0  0  0
  -22.6420  -13.0230   17.3540 C   0  0  0  0  0  2  0  0  0  0  0  0
  -24.8850  -11.8700   17.4530 C   0  0  0  0  0  0  0  0  0  0  0  0
  -24.0800  -12.9250   17.6990 N   0  0  0  0  0  0  0  0  0  0  0  0
  -24.4220  -10.8230   17.0110 O   0  0  0  0  0  0  0  0  0  0  0  0
  -24.4940  -13.7760   18.0610 H   0  0  0  0  0  0  0  0  0  0  0  0
  -26.4060  -12.0160   17.6870 C   0  0  0  0  0  2  0  0  0  0  0  0
  -27.9950  -10.3590   18.9730 C   0  0  0  0  0  0  0  0  0  0  0  0
  -26.9130  -11.1490   18.7870 N   0  0  0  0  0  0  0  0  0  0  0  0
  -28.6190   -9.8580   18.0400 O   0  0  0  0  0  0  0  0  0  0  0  0
  -26.5890  -11.4650   19.7000 H   0  0  0  0  0  0  0  0  0  0  0  0
  -28.4100  -10.0630   20.4730 C   0  0  0  0  0  2  0  0  0  0  0  0
  -29.9420  -12.1760   22.1170 C   0  0  2  0  0  0  0  0  0  0  0  0
  -31.2560  -12.0290   21.2110 C   0  0  0  0  0  1  0  0  0  0  0  0
  -30.1520  -12.7770   19.8550 C   0  0  0  0  0  1  0  0  0  0  0  0
  -28.4390  -13.0910   20.2270 C   0  0  0  0  0  2  0  0  0  0  0  0
  -27.6630  -12.7570   21.7810 C   0  0  0  0  0  2  0  0  0  0  0  0
  -28.6900  -11.9860   23.1470 C   0  0  0  0  0  1  0  0  0  0  0  0
  -30.4200  -11.6420   22.7760 N   0  0  0  0  0  1  0  0  0  0  0  0
  -30.1280  -13.5270   22.3570 O   0  0  0  0  0  1  0  0  0  0  0  0
  -29.3930  -10.8000   21.3570 N   0  0  0  0  0  2  0  0  0  0  0  0
  -30.0850  -10.0870   21.6210 H   0  0  0  0  0  0  0  0  0  0  0  0
  -25.1090  -13.0780   21.8440 C   0  0  0  0  0  0  0  0  0  0  0  0
  -24.0400  -12.2240   21.7920 C   0  0  0  0  0  0  0  0  0  0  0  0
  -24.5680  -10.9230   21.5760 C   0  0  0  0  0  0  0  0  0  0  0  0
  -26.2460  -12.3100   21.7250 N   0  0  0  0  0  0  0  0  0  0  0  0
  -25.8850  -11.0100   21.6050 N   0  0  0  0  0  0  0  0  0  0  0  0
  -23.8900   -9.6320   21.3010 C   0  0  0  0  0  0  0  0  0  0  0  0
  -24.3100   -8.3830   21.8000 C   0  0  0  0  0  3  0  0  0  0  0  0
  -23.5580   -7.2140   21.5170 C   0  0  0  0  0  3  0  0  0  0  0  0
  -22.3860   -7.2650   20.7270 C   0  0  0  0  0  0  0  0  0  0  0  0
  -21.9980   -8.5020   20.1890 C   0  0  0  0  0  3  0  0  0  0  0  0
  -22.7500   -9.6490   20.4920 C   0  0  0  0  0  3  0  0  0  0  0  0
  -21.6310   -6.1610   20.4020 O   0  0  0  0  0  0  0  0  0  0  0  0
  -21.7940   -4.9580   21.0520 C   0  0  0  0  0  0  0  0  0  0  0  0
  -21.6000   -4.8430   22.4460 C   0  0  0  0  0  3  0  0  0  0  0  0
  -21.6900   -3.5900   23.0770 C   0  0  0  0  0  3  0  0  0  0  0  0
  -21.9750   -2.4370   22.3200 C   0  0  0  0  0  0  0  0  0  0  0  0
  -22.1590   -2.5410   20.9250 C   0  0  0  0  0  3  0  0  0  0  0  0
  -22.0590   -3.7970   20.2950 C   0  0  0  0  0  0  0  0  0  0  0  0
  -22.1990   -3.8840   18.9540 F   0  0  0  0  0  0  0  0  0  0  0  0
  -22.0620   -1.2280   22.9240 F   0  0  0  0  0  0  0  0  0  0  0  0
  -22.6070  -12.6130   21.8330 C   0  0  0  0  0  0  0  0  0  0  0  0
  -21.7740  -11.6670   22.2560 N   0  0  0  0  0  0  0  0  0  0  0  0
  -22.2330  -13.7230   21.4960 O   0  0  0  0  0  0  0  0  0  0  0  0
  -22.1770  -10.7700   22.4840 H   0  0  0  0  0  0  0  0  0  0  0  0
  -20.7760  -11.7660   22.1910 H   0  0  0  0  0  0  0  0  0  0  0  0
  -25.1900  -14.4480   22.0060 N   0  0  0  0  0  0  0  0  0  0  0  0
  -24.3310  -14.9860   22.0900 H   0  0  0  0  0  0  0  0  0  0  0  0
  -26.0250  -15.0240   22.0550 H   0  0  0  0  0  0  0  0  0  0  0  0
  1  2  1  0
  1  3  2  0
  2  5  1  0
  4  2  1  0
  5  6  1  0
  6  7  1  0
  7  9  1  0
  7 10  1  0
  8  6  2  0
 11 12  1  0
 11 10  1  0
 13 12  1  0
 14 13  1  0
 15 14  1  0
 16 15  1  0
 17 16  1  0
 18 20  1  0
 18 17  1  0
 19 29  1  0
 19 30  2  0
 20 26  1  0
 21 31  1  0
 22 28  1  0
 22 27  1  0
 23 24  1  0
 23 29  1  0
 24 22  2  0
 25 24  1  0
 25 20  2  0
 26 27  2  0
 28 21  1  0
 29 21  1  0
 31 33  2  0
 31 32  1  0
 34 32  1  0
 35 44  1  0
 35 39  1  0
 36 32  1  0
 36 40  1  0
 36 37  1  0
 37 38  1  0
 38 39  1  0
 40 35  2  0
 41 42  2  0
 41 40  1  0
 42 43  1  0
 43 44  2  0
 45 46  1  0
 45 19  1  0
 46 48  1  1
 46 47  1  0
 49 46  1  0
 50 53  1  0
 50 45  1  0
 51 50  1  0
 52 51  2  0
 55 54  1  0
 55 51  1  0
 56 57  1  0
 57 55  1  0
 58 57  1  0
 59  1  1  0
 60 62  2  0
 60 61  1  0
 61 63  1  0
 61 59  1  0
 64 66  1  0
 64 60  1  0
 65 69  1  0
 65 66  1  0
 66 68  1  0
 67 65  2  0
 69 71  1  0
 70 74  1  0
 71 70  1  0
 71 73  1  0
 72 70  2  0
 74 83  1  0
 75 82  1  0
 75 81  1  0
 75 80  1  6
 76 75  1  0
 77 78  1  0
 78 79  1  0
 83 84  1  0
 85110  1  0
 86105  1  0
 86 85  2  0
 87 89  2  0
 87 86  1  0
 88 79  1  0
 88 85  1  0
 89 88  1  0
 90 87  1  0
 90 91  1  0
 92 91  2  0
 93 92  1  0
 94 95  1  0
 94 93  2  0
 95 90  2  0
 96 93  1  0
 96 97  1  0
 97 98  1  0
 98 99  2  0
100104  1  0
100 99  1  0
101100  2  0
102101  1  0
102 97  2  0
103102  1  0
105106  1  0
106108  1  0
107105  2  0
109106  1  0
110112  1  0
110111  1  0
M  ISO  4  17 101  18 101  75 100  83 100
M  END
>  <TORSDO>  (14) 
F 33

>  <SCORE>  (14) 
55.870

>  <name>  (14) 
16

>  <ligand_id>  (14) 
16

>  <original_smiles>  (14) 
[H]c1c([H])c([H])c2c(c1[H])C([H])([H])C([H])([H])C([H])([H])C2([H])N([H])C(=O)C1([H])N(C(=O)C([H])(N([H])C(=O)C([H])(N([H])C([H])([H])[H])C([H])([H])[H])C(C([H])([H])[H])(C([H])([H])[H])C([H])([H])[H])C([H])([H])c2c([H])c(OC([H])([H])C([H])([H])C([H])([H])C([H])([H])C([H])([H])C([H])([H])C([H])([H])C([H])([H])N([H])C(=O)C([H])([H])N([H])C(=O)C([H])([H])N([H])C(=O)C([H])([H])N([H])C(=O)C([H])([H])N([H])C(=O)C([H])([H])N([H])C(=O)N3C([H])([H])C([H])([H])C([H])([H])C([H])(n4nc(-c5c([H])c([H])c(Oc6c([H])c([H])c(F)c([H])c6F)c([H])c5[H])c(C(=O)N([H])[H])c4N([H])[H])C3([H])[H])c([H])c([H])c2C1([H])[H]

>  <smiles>  (14) 
[H]c1c([H])c([H])c2c(c1[H])C([H])([H])C([H])([H])C([H])([H])C2([H])N([H])C(=O)C1([H])N(C(=O)C([H])(N([H])C(=O)C([H])(N([H])C([H])([H])[H])C([H])([H])[H])C(C([H])([H])[H])(C([H])([H])[H])C([H])([H])[H])C([H])([H])c2c([H])c(OC([H])([H])C([H])([H])C([H])([H])C([H])([H])C([H])([H])C([H])([H])C([H])([H])C([H])([H])N([H])C(=O)C([H])([H])N([H])C(=O)C([H])([H])N([H])C(=O)C([H])([H])N([H])C(=O)C([H])([H])N([H])C(=O)C([H])([H])N([H])C(=O)N3C([H])([H])C([H])([H])C([H])([H])C([H])(n4nc(-c5c([H])c([H])c(Oc6c([H])c([H])c(F)c([H])c6F)c([H])c5[H])c(C(=O)N([H])[H])c4N([H])[H])C3([H])[H])c([H])c([H])c2C1([H])[H]

$$$$
17:0:0
     RDKit          3D

107114  0  0  1  0  0  0  0  0999 V2000
  -32.0390  -22.6020   20.1010 C   0  0  0  0  0  0  0  0  0  0  0  0
  -32.2380  -22.2960   18.8080 N   0  0  0  0  0  0  0  0  0  0  0  0
  -32.6430  -23.5230   20.6510 O   0  0  0  0  0  0  0  0  0  0  0  0
  -31.7460  -21.5110   18.4150 H   0  0  0  0  0  0  0  0  0  0  0  0
  -33.0920  -23.0660   17.8930 C   0  0  0  0  0  2  0  0  0  0  0  0
  -32.3150  -24.1970   17.2050 C   0  0  0  0  0  0  0  0  0  0  0  0
  -31.0300  -23.9500   16.9250 N   0  0  0  0  0  0  0  0  0  0  0  0
  -32.8510  -25.2840   16.9830 O   0  0  0  0  0  0  0  0  0  0  0  0
  -30.7060  -23.0140   17.1140 H   0  0  0  0  0  0  0  0  0  0  0  0
  -30.0210  -24.9100   16.4870 C   0  0  0  0  0  2  0  0  0  0  0  0
  -29.3310  -25.6330   17.6680 C   0  0  0  0  0  2  0  0  0  0  0  0
  -29.4270  -24.8990   19.0220 C   0  0  0  0  0  2  0  0  0  0  0  0
  -28.4340  -25.3680   20.0840 C   0  0  0  0  0  2  0  0  0  0  0  0
  -28.4320  -26.7920   20.1170 O   0  0  0  0  0  0  0  0  0  0  0  0
  -24.6120  -31.8720   23.2130 C   0  0  0  0  0  0  0  0  0  0  0  0
  -27.2310  -27.4610   20.1010 C   0  0  0  0  0  0  0  0  0  0  0  0
  -23.3950  -30.4970   21.5530 C   0  0  0  0  0  3  0  0  0  0  0  0
  -24.8370  -28.9630   20.1190 C   0  0  0  0  0  0  0  0  0  0  0  0
  -25.9200  -30.8440   21.3600 C   0  0  0  0  0  2  0  0  0  0  0  0
  -25.9940  -29.4790   20.7150 C   0  0  0  0  0  0  0  0  0  0  0  0
  -27.1900  -28.7360   20.7020 C   0  0  0  0  0  3  0  0  0  0  0  0
  -26.0570  -26.9560   19.4910 C   0  0  0  0  0  3  0  0  0  0  0  0
  -24.8620  -27.6980   19.5080 C   0  0  0  0  0  3  0  0  0  0  0  0
  -23.5990  -29.8280   20.1680 C   0  0  0  0  0  2  0  0  0  0  0  0
  -24.6600  -31.0870   22.0990 N   0  0  0  0  0  0  0  0  0  0  0  0
  -23.5330  -32.1450   23.7560 O   0  0  0  0  0  0  0  0  0  0  0  0
  -22.7370  -29.4700   22.5010 C   0  0  0  0  0  0  0  0  0  0  0  0
  -21.4100  -29.3030   22.3740 N   0  0  0  0  0  0  0  0  0  0  0  0
  -23.4160  -28.8240   23.3040 O   0  0  0  0  0  0  0  0  0  0  0  0
  -20.9240  -29.8750   21.6980 H   0  0  0  0  0  0  0  0  0  0  0  0
  -18.0270  -28.1360   22.8510 C   0  0  0  0  0  0  0  0  0  0  0  0
  -20.5850  -28.3650   23.1330 C   0  0  0  0  0  3  0  0  0  0  0  0
  -20.6750  -26.9390   22.5420 C   0  0  0  0  0  2  0  0  0  0  0  0
  -19.5740  -26.6380   21.5210 C   0  0  0  0  0  2  0  0  0  0  0  0
  -18.1920  -26.7920   22.1620 C   0  0  0  0  0  2  0  0  0  0  0  0
  -19.1510  -28.8820   23.2930 C   0  0  0  0  0  0  0  0  0  0  0  0
  -18.9450  -30.1430   23.8930 C   0  0  0  0  0  3  0  0  0  0  0  0
  -17.6450  -30.6580   24.0560 C   0  0  0  0  0  3  0  0  0  0  0  0
  -16.5330  -29.9080   23.6320 C   0  0  0  0  0  3  0  0  0  0  0  0
  -16.7260  -28.6490   23.0360 C   0  0  0  0  0  3  0  0  0  0  0  0
  -25.9040  -32.4830   23.8410 C   0  0  0  0  0  3  0  0  0  0  0  0
  -26.4470  -31.6590   25.0720 C   0  0  1  0  0  0  0  0  0  0  0  0
  -25.3760  -31.3690   26.1490 C   0  0  0  0  0  1  0  0  0  0  0  0
  -27.0270  -30.3030   24.6080 C   0  0  0  0  0  1  0  0  0  0  0  0
  -27.6070  -32.4280   25.7480 C   0  0  0  0  0  1  0  0  0  0  0  0
  -25.5920  -33.8620   24.2350 N   0  0  0  0  0  0  0  0  0  0  0  0
  -25.9040  -34.9480   23.5140 C   0  0  0  0  0  0  0  0  0  0  0  0
  -26.5590  -34.8910   22.4690 O   0  0  0  0  0  0  0  0  0  0  0  0
  -25.0120  -33.9800   25.0530 H   0  0  0  0  0  0  0  0  0  0  0  0
  -24.1490  -36.7320   23.2630 C   0  0  0  0  0  1  0  0  0  0  0  0
  -25.4110  -36.3110   24.0340 C   0  0  0  0  0  3  0  0  0  0  0  0
  -27.5590  -37.1810   24.8460 C   0  0  0  0  0  1  0  0  0  0  0  0
  -26.4300  -37.3790   23.9410 N   0  0  0  0  0  0  0  0  0  0  0  0
  -26.0180  -38.2860   24.1410 H   0  0  0  0  0  0  0  0  0  0  0  0
  -30.9950  -21.8020   20.8950 C   0  0  0  0  0  2  0  0  0  0  0  0
  -28.6370  -21.4120   20.1700 C   0  0  0  0  0  0  0  0  0  0  0  0
  -29.9560  -21.2070   20.0470 N   0  0  0  0  0  0  0  0  0  0  0  0
  -28.1610  -22.1100   21.0660 O   0  0  0  0  0  0  0  0  0  0  0  0
  -30.2560  -20.5920   19.3090 H   0  0  0  0  0  0  0  0  0  0  0  0
  -27.7020  -20.7710   19.1270 C   0  0  0  0  0  2  0  0  0  0  0  0
  -27.8560  -19.3500   19.0540 O   0  0  0  0  0  0  0  0  0  0  0  0
  -28.9140  -18.8790   18.2240 C   0  0  0  0  0  2  0  0  0  0  0  0
  -29.8780  -18.0480   19.0810 C   0  0  0  0  0  2  0  0  0  0  0  0
  -31.2550  -17.8580   18.4200 C   0  0  0  0  0  2  0  0  0  0  0  0
  -32.2450  -17.3420   19.3080 O   0  0  0  0  0  0  0  0  0  0  0  0
  -32.6050  -18.1810   20.4020 C   0  0  0  0  0  2  0  0  0  0  0  0
  -32.0110  -17.6250   21.7110 C   0  0  0  0  0  2  0  0  0  0  0  0
  -32.7320  -16.3600   22.2020 C   0  0  0  0  0  2  0  0  0  0  0  0
  -31.8040  -15.3040   22.8480 C   0  0  0  0  0  2  0  0  0  0  0  0
  -30.8730  -14.2480   20.7460 C   0  0  0  0  0  0  0  0  0  0  0  0
  -30.3890  -12.2660   19.3760 C   0  0  0  0  0  2  0  0  0  0  0  0
  -29.4640  -12.5310   18.1780 C   0  0  0  0  0  2  0  0  0  0  0  0
  -27.9950  -12.3850   18.6070 C   0  0  0  0  0  2  0  0  0  0  0  0
  -27.6630  -13.2130   19.8750 C   0  0  0  0  0  3  0  0  0  0  0  0
  -28.7030  -12.9820   20.9950 C   0  0  0  0  0  2  0  0  0  0  0  0
  -30.0540  -13.2090   20.4530 N   0  0  0  0  0  0  0  0  0  0  0  0
  -31.8010  -14.5780   20.0090 O   0  0  0  0  0  0  0  0  0  0  0  0
  -30.7550  -14.7160   21.9980 N   0  0  0  0  0  0  0  0  0  0  0  0
  -29.9430  -14.3760   22.4920 H   0  0  0  0  0  0  0  0  0  0  0  0
  -25.2570  -13.8160   20.5670 C   0  0  0  0  0  0  0  0  0  0  0  0
  -24.1830  -13.0440   20.9150 C   0  0  0  0  0  0  0  0  0  0  0  0
  -24.6410  -11.6910   20.8720 C   0  0  0  0  0  0  0  0  0  0  0  0
  -26.3030  -12.9370   20.3380 N   0  0  0  0  0  0  0  0  0  0  0  0
  -25.9340  -11.6510   20.5770 N   0  0  0  0  0  0  0  0  0  0  0  0
  -23.9060  -10.4290   21.0380 C   0  0  0  0  0  0  0  0  0  0  0  0
  -24.3600   -9.4200   21.9160 C   0  0  0  0  0  3  0  0  0  0  0  0
  -23.6280   -8.2250   22.0760 C   0  0  0  0  0  3  0  0  0  0  0  0
  -22.4270   -8.0270   21.3540 C   0  0  0  0  0  0  0  0  0  0  0  0
  -21.9890   -9.0250   20.4650 C   0  0  0  0  0  3  0  0  0  0  0  0
  -22.7230  -10.2120   20.3040 C   0  0  0  0  0  3  0  0  0  0  0  0
  -21.6630   -6.8870   21.4230 O   0  0  0  0  0  0  0  0  0  0  0  0
  -21.6860   -6.0720   22.5270 C   0  0  0  0  0  0  0  0  0  0  0  0
  -21.4020   -6.5630   23.8200 C   0  0  0  0  0  3  0  0  0  0  0  0
  -21.3660   -5.6790   24.9160 C   0  0  0  0  0  3  0  0  0  0  0  0
  -21.6050   -4.3050   24.7230 C   0  0  0  0  0  0  0  0  0  0  0  0
  -21.8820   -3.8140   23.4350 C   0  0  0  0  0  3  0  0  0  0  0  0
  -21.9200   -4.6950   22.3400 C   0  0  0  0  0  0  0  0  0  0  0  0
  -22.1650   -4.2140   21.0980 F   0  0  0  0  0  0  0  0  0  0  0  0
  -21.5640   -3.4530   25.7740 F   0  0  0  0  0  0  0  0  0  0  0  0
  -22.7850  -13.5210   21.1830 C   0  0  0  0  0  0  0  0  0  0  0  0
  -22.0490  -12.8210   22.0380 N   0  0  0  0  0  0  0  0  0  0  0  0
  -22.3540  -14.5520   20.6680 O   0  0  0  0  0  0  0  0  0  0  0  0
  -22.4110  -11.9870   22.4760 H   0  0  0  0  0  0  0  0  0  0  0  0
  -21.1120  -13.1260   22.2610 H   0  0  0  0  0  0  0  0  0  0  0  0
  -25.4270  -15.1890   20.4100 N   0  0  0  0  0  0  0  0  0  0  0  0
  -24.6600  -15.8430   20.5200 H   0  0  0  0  0  0  0  0  0  0  0  0
  -26.2900  -15.6300   20.1190 H   0  0  0  0  0  0  0  0  0  0  0  0
  1  3  2  0
  1 55  1  0
  2  1  1  0
  4  2  1  0
  5  2  1  0
  6  5  1  0
  7  9  1  0
  7  6  1  0
  8  6  2  0
 10  7  1  0
 10 11  1  0
 11 12  1  0
 12 13  1  0
 13 14  1  0
 15 26  2  0
 16 14  1  0
 16 21  1  0
 17 25  1  0
 17 27  1  0
 18 24  1  0
 18 20  1  0
 19 25  1  0
 20 19  1  0
 21 20  2  0
 22 23  1  0
 22 16  2  0
 23 18  2  0
 24 17  1  0
 25 15  1  0
 27 29  2  0
 28 27  1  0
 30 28  1  0
 31 40  2  0
 31 36  1  0
 32 28  1  0
 32 36  1  0
 33 32  1  0
 34 35  1  0
 34 33  1  0
 35 31  1  0
 36 37  2  0
 37 38  1  0
 39 38  2  0
 40 39  1  0
 41 15  1  0
 41 46  1  0
 41 42  1  0
 42 45  1  1
 42 43  1  0
 44 42  1  0
 46 49  1  0
 47 51  1  0
 47 46  1  0
 48 47  2  0
 51 50  1  0
 53 51  1  0
 53 54  1  0
 53 52  1  0
 56 58  2  0
 57 56  1  0
 57 55  1  0
 59 57  1  0
 60 56  1  0
 61 60  1  0
 62 61  1  0
 62 63  1  0
 64 63  1  0
 64 65  1  0
 65 66  1  0
 66 67  1  0
 67 68  1  0
 68 69  1  0
 70 78  1  0
 71 76  1  0
 72 73  1  0
 72 71  1  0
 74 73  1  0
 74 83  1  0
 74 75  1  0
 76 70  1  0
 76 75  1  0
 77 70  2  0
 78 79  1  0
 78 69  1  0
 80 81  2  0
 81100  1  0
 82 81  1  0
 82 85  1  0
 83 80  1  0
 83 84  1  0
 84 82  2  0
 85 86  1  0
 86 87  2  0
 88 91  1  0
 88 87  1  0
 89 88  2  0
 90 89  1  0
 90 85  2  0
 91 92  1  0
 92 93  1  0
 93 94  2  0
 95 94  1  0
 95 99  1  0
 96 95  2  0
 97 92  2  0
 97 96  1  0
 98 97  1  0
100101  1  0
101104  1  0
101103  1  0
102100  2  0
105106  1  0
105 80  1  0
107105  1  0
M  ISO  4  13 101  14 101  70 100  78 100
M  END
>  <TORSDO>  (15) 
F 34

>  <SCORE>  (15) 
-5.448

>  <name>  (15) 
17

>  <ligand_id>  (15) 
17

>  <original_smiles>  (15) 
[H]c1c([H])c([H])c2c(c1[H])C([H])([H])C([H])([H])C([H])([H])C2([H])N([H])C(=O)C1([H])N(C(=O)C([H])(N([H])C(=O)C([H])(N([H])C([H])([H])[H])C([H])([H])[H])C(C([H])([H])[H])(C([H])([H])[H])C([H])([H])[H])C([H])([H])c2c([H])c(OC([H])([H])C([H])([H])C([H])([H])C([H])([H])N([H])C(=O)C([H])([H])N([H])C(=O)C([H])([H])N([H])C(=O)C([H])([H])OC([H])([H])C([H])([H])C([H])([H])OC([H])([H])C([H])([H])C([H])([H])C([H])([H])N([H])C(=O)N3C([H])([H])C([H])([H])C([H])([H])C([H])(n4nc(-c5c([H])c([H])c(Oc6c([H])c([H])c(F)c([H])c6F)c([H])c5[H])c(C(=O)N([H])[H])c4N([H])[H])C3([H])[H])c([H])c([H])c2C1([H])[H]

>  <smiles>  (15) 
[H]c1c([H])c([H])c2c(c1[H])C([H])([H])C([H])([H])C([H])([H])C2([H])N([H])C(=O)C1([H])N(C(=O)C([H])(N([H])C(=O)C([H])(N([H])C([H])([H])[H])C([H])([H])[H])C(C([H])([H])[H])(C([H])([H])[H])C([H])([H])[H])C([H])([H])c2c([H])c(OC([H])([H])C([H])([H])C([H])([H])C([H])([H])N([H])C(=O)C([H])([H])N([H])C(=O)C([H])([H])N([H])C(=O)C([H])([H])OC([H])([H])C([H])([H])C([H])([H])OC([H])([H])C([H])([H])C([H])([H])C([H])([H])N([H])C(=O)N3C([H])([H])C([H])([H])C([H])([H])C([H])(n4nc(-c5c([H])c([H])c(Oc6c([H])c([H])c(F)c([H])c6F)c([H])c5[H])c(C(=O)N([H])[H])c4N([H])[H])C3([H])[H])c([H])c([H])c2C1([H])[H]

$$$$
19:0:0
     RDKit          3D

147154  0  0  1  0  0  0  0  0999 V2000
  -22.1180  -13.2220   26.6450 C   0  0  0  0  0  2  0  0  0  0  0  0
  -23.1170  -12.3610   27.3240 N   0  0  0  0  0  4  0  0  0  0  0  0
  -22.9150  -12.3500   28.3130 H   0  0  0  0  0  0  0  0  0  0  0  0
  -24.0200  -12.7840   27.1990 H   0  0  0  0  0  0  0  0  0  0  0  0
  -23.1340  -10.9690   26.7980 C   0  0  0  0  0  2  0  0  0  0  0  0
  -24.4380  -10.1750   27.0600 C   0  0  0  0  0  2  0  0  0  0  0  0
  -25.6140  -10.4670   26.0970 C   0  0  0  0  0  2  0  0  0  0  0  0
  -26.8920   -9.9210   26.6120 N   0  0  0  0  0  4  0  0  0  0  0  0
  -26.8200   -9.8610   27.6160 H   0  0  0  0  0  0  0  0  0  0  0  0
  -27.0370   -8.9800   26.2790 H   0  0  0  0  0  0  0  0  0  0  0  0
  -28.1010  -10.7360   26.3400 C   0  0  0  0  0  2  0  0  0  0  0  0
  -29.1900   -9.9830   25.5440 C   0  0  0  0  0  2  0  0  0  0  0  0
  -29.6120  -10.6600   24.2250 C   0  0  0  0  0  2  0  0  0  0  0  0
  -31.0650  -10.3150   23.8390 C   0  0  0  0  0  2  0  0  0  0  0  0
  -31.4810  -10.9340   22.5620 N   0  0  0  0  0  4  0  0  0  0  0  0
  -31.5730  -11.9320   22.6830 H   0  0  0  0  0  0  0  0  0  0  0  0
  -30.7290  -10.7490   21.9010 H   0  0  0  0  0  0  0  0  0  0  0  0
  -32.7460  -10.3810   22.0180 C   0  0  0  0  0  2  0  0  0  0  0  0
  -32.9780  -10.6550   20.5110 C   0  0  0  0  0  2  0  0  0  0  0  0
  -31.7810  -10.4850   19.5430 C   0  0  0  0  0  2  0  0  0  0  0  0
  -30.8120   -9.4210   19.9160 N   0  0  0  0  0  4  0  0  0  0  0  0
  -31.2650   -8.5210   19.9680 H   0  0  0  0  0  0  0  0  0  0  0  0
  -30.4320   -9.6560   20.8210 H   0  0  0  0  0  0  0  0  0  0  0  0
  -29.6510   -9.3490   18.9990 C   0  0  0  0  0  2  0  0  0  0  0  0
  -28.4060   -8.7000   19.6470 C   0  0  0  0  0  2  0  0  0  0  0  0
  -27.7680   -9.4330   20.8560 C   0  0  0  0  0  2  0  0  0  0  0  0
  -28.6510  -11.7340   21.2500 C   0  0  0  0  0  0  0  0  0  0  0  0
  -27.7280  -10.8950   20.7640 N   0  0  0  0  0  0  0  0  0  0  0  0
  -29.7330  -11.3230   21.6800 O   0  0  0  0  0  0  0  0  0  0  0  0
  -26.8590  -11.3000   20.4430 H   0  0  0  0  0  0  0  0  0  0  0  0
  -28.3260  -13.2330   21.2790 C   0  0  0  0  0  2  0  0  0  0  0  0
  -29.4970  -13.9830   21.5980 O   0  0  0  0  0  0  0  0  0  0  0  0
  -29.2180  -15.3690   21.7300 C   0  0  0  0  0  2  0  0  0  0  0  0
  -30.4020  -16.1040   22.3720 C   0  0  0  0  0  2  0  0  0  0  0  0
  -31.3700  -16.7320   21.3550 C   0  0  0  0  0  2  0  0  0  0  0  0
  -32.5010  -15.8060   20.8670 C   0  0  0  0  0  2  0  0  0  0  0  0
  -32.5380  -15.1470   18.4080 C   0  0  0  0  0  0  0  0  0  0  0  0
  -31.7710  -12.8740   17.8470 C   0  0  0  0  0  2  0  0  0  0  0  0
  -30.6920  -12.7880   16.7480 C   0  0  0  0  0  2  0  0  0  0  0  0
  -29.2890  -12.9170   17.3640 C   0  0  0  0  0  2  0  0  0  0  0  0
  -29.1740  -14.1780   18.2550 C   0  0  0  0  0  3  0  0  0  0  0  0
  -30.3340  -14.2490   19.2670 C   0  0  0  0  0  2  0  0  0  0  0  0
  -31.6400  -14.1390   18.5850 N   0  0  0  0  0  0  0  0  0  0  0  0
  -33.2780  -15.2300   17.4230 O   0  0  0  0  0  0  0  0  0  0  0  0
  -32.7480  -15.9910   19.4320 N   0  0  0  0  0  0  0  0  0  0  0  0
  -33.4350  -16.7010   19.2130 H   0  0  0  0  0  0  0  0  0  0  0  0
  -27.1420  -15.3410   19.3320 C   0  0  0  0  0  0  0  0  0  0  0  0
  -25.9640  -14.8480   19.8360 C   0  0  0  0  0  0  0  0  0  0  0  0
  -26.0480  -13.4290   19.7070 C   0  0  0  0  0  0  0  0  0  0  0  0
  -27.8770  -14.2360   18.9310 N   0  0  0  0  0  0  0  0  0  0  0  0
  -27.2280  -13.0770   19.2140 N   0  0  0  0  0  0  0  0  0  0  0  0
  -25.0530  -12.3830   19.9740 C   0  0  0  0  0  0  0  0  0  0  0  0
  -25.3230  -11.3220   20.8630 C   0  0  0  0  0  3  0  0  0  0  0  0
  -24.3530  -10.3280   21.1160 C   0  0  0  0  0  3  0  0  0  0  0  0
  -23.0880  -10.4040   20.4850 C   0  0  0  0  0  0  0  0  0  0  0  0
  -22.8280  -11.4550   19.5900 C   0  0  0  0  0  3  0  0  0  0  0  0
  -23.8030  -12.4330   19.3260 C   0  0  0  0  0  3  0  0  0  0  0  0
  -22.0880   -9.4760   20.6460 O   0  0  0  0  0  0  0  0  0  0  0  0
  -21.9940   -8.7070   21.7770 C   0  0  0  0  0  0  0  0  0  0  0  0
  -21.8320   -9.2810   23.0560 C   0  0  0  0  0  3  0  0  0  0  0  0
  -21.6880   -8.4520   24.1850 C   0  0  0  0  0  3  0  0  0  0  0  0
  -21.6820   -7.0520   24.0360 C   0  0  0  0  0  0  0  0  0  0  0  0
  -21.8370   -6.4780   22.7620 C   0  0  0  0  0  3  0  0  0  0  0  0
  -21.9910   -7.3050   21.6340 C   0  0  0  0  0  0  0  0  0  0  0  0
  -22.1160   -6.7490   20.4060 F   0  0  0  0  0  0  0  0  0  0  0  0
  -21.5390   -6.2530   25.1210 F   0  0  0  0  0  0  0  0  0  0  0  0
  -24.7870  -15.6510   20.3100 C   0  0  0  0  0  0  0  0  0  0  0  0
  -24.0070  -15.1230   21.2500 N   0  0  0  0  0  0  0  0  0  0  0  0
  -24.5670  -16.7780   19.8710 O   0  0  0  0  0  0  0  0  0  0  0  0
  -24.1550  -14.1830   21.5890 H   0  0  0  0  0  0  0  0  0  0  0  0
  -23.2020  -15.6450   21.5660 H   0  0  0  0  0  0  0  0  0  0  0  0
  -27.6380  -16.6270   19.1530 N   0  0  0  0  0  0  0  0  0  0  0  0
  -27.0790  -17.4480   19.3290 H   0  0  0  0  0  0  0  0  0  0  0  0
  -28.5310  -16.8400   18.7270 H   0  0  0  0  0  0  0  0  0  0  0  0
  -22.2140  -14.7210   27.0230 C   0  0  0  0  0  2  0  0  0  0  0  0
  -21.8760  -15.6420   25.8300 C   0  0  0  0  0  2  0  0  0  0  0  0
  -21.1600  -16.9540   26.2110 C   0  0  0  0  0  2  0  0  0  0  0  0
  -20.7250  -17.7630   24.9700 C   0  0  0  0  0  2  0  0  0  0  0  0
  -19.6690  -18.8470   25.2720 C   0  0  0  0  0  2  0  0  0  0  0  0
  -19.2320  -19.5670   24.0560 N   0  0  0  0  0  4  0  0  0  0  0  0
  -20.0190  -20.0230   23.6250 H   0  0  0  0  0  0  0  0  0  0  0  0
  -18.8660  -18.9210   23.3740 H   0  0  0  0  0  0  0  0  0  0  0  0
  -18.2090  -20.6060   24.2950 C   0  0  0  0  0  2  0  0  0  0  0  0
  -17.9890  -21.4660   23.0500 C   0  0  0  0  0  0  0  0  0  0  0  0
  -17.4320  -22.6680   23.2350 N   0  0  0  0  0  0  0  0  0  0  0  0
  -18.3200  -21.0490   21.9380 O   0  0  0  0  0  0  0  0  0  0  0  0
  -17.2060  -22.9500   24.1790 H   0  0  0  0  0  0  0  0  0  0  0  0
  -17.2190  -23.6790   22.1950 C   0  0  0  0  0  2  0  0  0  0  0  0
  -18.4760  -24.5210   21.9240 C   0  0  0  0  0  0  0  0  0  0  0  0
  -18.2770  -25.7950   21.5660 N   0  0  0  0  0  0  0  0  0  0  0  0
  -19.6030  -24.0330   22.0360 O   0  0  0  0  0  0  0  0  0  0  0  0
  -17.3250  -26.1300   21.5200 H   0  0  0  0  0  0  0  0  0  0  0  0
  -19.3300  -26.7810   21.3150 C   0  0  0  0  0  2  0  0  0  0  0  0
  -19.9440  -27.3500   22.6050 C   0  0  0  0  0  0  0  0  0  0  0  0
  -20.8710  -28.3000   22.4580 N   0  0  0  0  0  0  0  0  0  0  0  0
  -19.5830  -26.9470   23.7150 O   0  0  0  0  0  0  0  0  0  0  0  0
  -21.1300  -28.5630   21.5170 H   0  0  0  0  0  0  0  0  0  0  0  0
  -21.6630  -28.8930   23.5380 C   0  0  0  0  0  2  0  0  0  0  0  0
  -23.0060  -28.1720   23.7200 C   0  0  0  0  0  0  0  0  0  0  0  0
  -23.7810  -28.5790   24.7340 N   0  0  0  0  0  0  0  0  0  0  0  0
  -23.3490  -27.2700   22.9500 O   0  0  0  0  0  0  0  0  0  0  0  0
  -23.4400  -29.3360   25.3130 H   0  0  0  0  0  0  0  0  0  0  0  0
  -25.0710  -27.9920   25.0900 C   0  0  0  0  0  2  0  0  0  0  0  0
  -24.9030  -26.8770   26.1340 C   0  0  0  0  0  2  0  0  0  0  0  0
  -25.0330  -27.3700   27.5880 C   0  0  0  0  0  2  0  0  0  0  0  0
  -24.0730  -26.6810   28.5660 C   0  0  0  0  0  2  0  0  0  0  0  0
  -22.8370  -27.4010   28.5990 O   0  0  0  0  0  0  0  0  0  0  0  0
  -22.5520  -25.9030   35.5680 C   0  0  0  0  0  0  0  0  0  0  0  0
  -22.1380  -27.4170   29.7840 C   0  0  0  0  0  0  0  0  0  0  0  0
  -20.4070  -26.5460   34.5080 C   0  0  0  0  0  3  0  0  0  0  0  0
  -20.5850  -27.4980   32.1470 C   0  0  0  0  0  0  0  0  0  0  0  0
  -22.6270  -27.4140   33.5930 C   0  0  0  0  0  2  0  0  0  0  0  0
  -21.9810  -27.4390   32.2250 C   0  0  0  0  0  0  0  0  0  0  0  0
  -22.7600  -27.4090   31.0540 C   0  0  0  0  0  3  0  0  0  0  0  0
  -20.7300  -27.4910   29.7170 C   0  0  0  0  0  3  0  0  0  0  0  0
  -19.9500  -27.5250   30.8920 C   0  0  0  0  0  3  0  0  0  0  0  0
  -19.8330  -27.5390   33.4590 C   0  0  0  0  0  2  0  0  0  0  0  0
  -21.9040  -26.5770   34.5760 N   0  0  0  0  0  0  0  0  0  0  0  0
  -21.9210  -25.3000   36.4480 O   0  0  0  0  0  0  0  0  0  0  0  0
  -19.8380  -25.1400   34.2120 C   0  0  0  0  0  0  0  0  0  0  0  0
  -18.7960  -24.7500   34.9650 N   0  0  0  0  0  0  0  0  0  0  0  0
  -20.3080  -24.4430   33.3110 O   0  0  0  0  0  0  0  0  0  0  0  0
  -18.4750  -25.3780   35.6900 H   0  0  0  0  0  0  0  0  0  0  0  0
  -16.3690  -22.6220   36.5830 C   0  0  0  0  0  0  0  0  0  0  0  0
  -18.0720  -23.4860   34.8420 C   0  0  0  0  0  3  0  0  0  0  0  0
  -16.8670  -23.6280   33.8840 C   0  0  0  0  0  2  0  0  0  0  0  0
  -15.5600  -23.9760   34.6040 C   0  0  0  0  0  2  0  0  0  0  0  0
  -15.2130  -22.8990   35.6360 C   0  0  0  0  0  2  0  0  0  0  0  0
  -17.7100  -22.9120   36.2160 C   0  0  0  0  0  0  0  0  0  0  0  0
  -18.7430  -22.6670   37.1460 C   0  0  0  0  0  3  0  0  0  0  0  0
  -18.4560  -22.1410   38.4190 C   0  0  0  0  0  3  0  0  0  0  0  0
  -17.1290  -21.8400   38.7710 C   0  0  0  0  0  3  0  0  0  0  0  0
  -16.0900  -22.0750   37.8530 C   0  0  0  0  0  3  0  0  0  0  0  0
  -24.1100  -25.8770   35.6610 C   0  0  0  0  0  3  0  0  0  0  0  0
  -24.7480  -24.5560   35.0780 C   0  0  1  0  0  0  0  0  0  0  0  0
  -24.0190  -23.2660   35.5180 C   0  0  0  0  0  1  0  0  0  0  0  0
  -24.7550  -24.5930   33.5310 C   0  0  0  0  0  1  0  0  0  0  0  0
  -26.2260  -24.4470   35.5220 C   0  0  0  0  0  1  0  0  0  0  0  0
  -24.4720  -26.0510   37.0730 N   0  0  0  0  0  0  0  0  0  0  0  0
  -24.5800  -27.2350   37.6900 C   0  0  0  0  0  0  0  0  0  0  0  0
  -24.4530  -28.3120   37.1000 O   0  0  0  0  0  0  0  0  0  0  0  0
  -24.5350  -25.2100   37.6300 H   0  0  0  0  0  0  0  0  0  0  0  0
  -23.5570  -27.3370   39.9840 C   0  0  0  0  0  1  0  0  0  0  0  0
  -24.8750  -27.2240   39.2020 C   0  0  0  0  0  3  0  0  0  0  0  0
  -27.1600  -28.1180   39.1200 C   0  0  0  0  0  1  0  0  0  0  0  0
  -25.8030  -28.2940   39.6280 N   0  0  0  0  0  0  0  0  0  0  0  0
  -25.8470  -28.3490   40.6410 H   0  0  0  0  0  0  0  0  0  0  0  0
  1 75  1  0
  1  2  1  0
  2  3  1  0
  4  2  1  0
  5  6  1  0
  5  2  1  0
  7  8  1  0
  7  6  1  0
  8  9  1  0
 10  8  1  0
 11  8  1  0
 12 11  1  0
 13 12  1  0
 14 13  1  0
 15 16  1  0
 15 14  1  0
 17 15  1  0
 18 15  1  0
 19 18  1  0
 20 21  1  0
 20 19  1  0
 21 22  1  0
 21 23  1  0
 24 25  1  0
 24 21  1  0
 25 26  1  0
 27 31  1  0
 27 29  2  0
 28 26  1  0
 28 27  1  0
 30 28  1  0
 31 32  1  0
 32 33  1  0
 33 34  1  0
 35 34  1  0
 36 35  1  0
 37 43  1  0
 37 45  1  0
 38 43  1  0
 39 40  1  0
 39 38  1  0
 41 40  1  0
 41 50  1  0
 41 42  1  0
 43 42  1  0
 44 37  2  0
 45 36  1  0
 46 45  1  0
 47 48  2  0
 48 67  1  0
 49 48  1  0
 49 52  1  0
 50 51  1  0
 50 47  1  0
 51 49  2  0
 52 53  1  0
 53 54  2  0
 55 58  1  0
 55 54  1  0
 56 55  2  0
 57 56  1  0
 57 52  2  0
 58 59  1  0
 59 60  1  0
 60 61  2  0
 62 61  1  0
 62 66  1  0
 63 62  2  0
 64 59  2  0
 64 63  1  0
 65 64  1  0
 67 68  1  0
 68 71  1  0
 68 70  1  0
 69 67  2  0
 72 73  1  0
 72 47  1  0
 74 72  1  0
 76 77  1  0
 76 75  1  0
 78 79  1  0
 78 77  1  0
 80 83  1  0
 80 79  1  0
 81 80  1  0
 82 80  1  0
 84 85  1  0
 84 83  1  0
 85 87  1  0
 86 84  2  0
 88 85  1  0
 89 91  2  0
 89 88  1  0
 90 89  1  0
 92 90  1  0
 93 90  1  0
 93 94  1  0
 94 96  2  0
 95 94  1  0
 95 98  1  0
 97 95  1  0
 98 99  1  0
 99100  1  0
100103  1  0
100102  1  0
101 99  2  0
103104  1  0
104105  1  0
105106  1  0
106107  1  0
107109  1  0
108119  2  0
109114  1  0
110120  1  0
110118  1  0
111113  1  0
111117  1  0
112118  1  0
113112  1  0
114113  2  0
115109  2  0
115116  1  0
116111  2  0
117110  1  0
118108  1  0
120121  1  0
121123  1  0
122120  2  0
124133  1  0
125121  1  0
125129  1  0
126127  1  0
126125  1  0
127128  1  0
128124  1  0
129124  2  0
129130  1  0
130131  2  0
131132  1  0
133132  2  0
134108  1  0
134139  1  0
135136  1  6
135138  1  0
135134  1  0
137135  1  0
139142  1  0
139140  1  0
140144  1  0
141140  2  0
144146  1  0
144143  1  0
145146  1  0
146147  1  0
M  ISO  4  37 100  45 100 106 101 107 101
M  END
>  <TORSDO>  (16) 
F 58

>  <SCORE>  (16) 
25.759

>  <name>  (16) 
19

>  <ligand_id>  (16) 
19

>  <original_smiles>  (16) 
[H]c1c([H])c([H])c2c(c1[H])C([H])([H])C([H])([H])C([H])([H])C2([H])N([H])C(=O)C1([H])N(C(=O)C([H])(N([H])C(=O)C([H])(N([H])C([H])([H])[H])C([H])([H])[H])C(C([H])([H])[H])(C([H])([H])[H])C([H])([H])[H])C([H])([H])c2c([H])c(OC([H])([H])C([H])([H])C([H])([H])C([H])([H])N([H])C(=O)C([H])([H])N([H])C(=O)C([H])([H])N([H])C(=O)C([H])([H])N([H])C(=O)C([H])([H])[N+]([H])([H])C([H])([H])C([H])([H])C([H])([H])C([H])([H])C([H])([H])C([H])([H])[N+]([H])([H])C([H])([H])C([H])([H])C([H])([H])[N+]([H])([H])C([H])([H])C([H])([H])C([H])([H])C([H])([H])[N+]([H])([H])C([H])([H])C([H])([H])C([H])([H])[N+]([H])([H])C([H])([H])C([H])([H])C([H])([H])N([H])C(=O)C([H])([H])OC([H])([H])C([H])([H])C([H])([H])C([H])([H])N([H])C(=O)N3C([H])([H])C([H])([H])C([H])([H])C([H])(n4nc(-c5c([H])c([H])c(Oc6c([H])c([H])c(F)c([H])c6F)c([H])c5[H])c(C(=O)N([H])[H])c4N([H])[H])C3([H])[H])c([H])c([H])c2C1([H])[H]

>  <smiles>  (16) 
[H]c1c([H])c([H])c2c(c1[H])C([H])([H])C([H])([H])C([H])([H])C2([H])N([H])C(=O)C1([H])N(C(=O)C([H])(N([H])C(=O)C([H])(N([H])C([H])([H])[H])C([H])([H])[H])C(C([H])([H])[H])(C([H])([H])[H])C([H])([H])[H])C([H])([H])c2c([H])c(OC([H])([H])C([H])([H])C([H])([H])C([H])([H])N([H])C(=O)C([H])([H])N([H])C(=O)C([H])([H])N([H])C(=O)C([H])([H])N([H])C(=O)C([H])([H])[N+]([H])([H])C([H])([H])C([H])([H])C([H])([H])C([H])([H])C([H])([H])C([H])([H])[N+]([H])([H])C([H])([H])C([H])([H])C([H])([H])[N+]([H])([H])C([H])([H])C([H])([H])C([H])([H])C([H])([H])[N+]([H])([H])C([H])([H])C([H])([H])C([H])([H])[N+]([H])([H])C([H])([H])C([H])([H])C([H])([H])N([H])C(=O)C([H])([H])OC([H])([H])C([H])([H])C([H])([H])C([H])([H])N([H])C(=O)N3C([H])([H])C([H])([H])C([H])([H])C([H])(n4nc(-c5c([H])c([H])c(Oc6c([H])c([H])c(F)c([H])c6F)c([H])c5[H])c(C(=O)N([H])[H])c4N([H])[H])C3([H])[H])c([H])c([H])c2C1([H])[H]

$$$$
20:0:0
     RDKit          3D

124131  0  0  1  0  0  0  0  0999 V2000
  -22.5750  -13.6860   28.4890 C   0  0  0  0  0  0  0  0  0  0  0  0
  -21.8520  -13.5820   27.3690 N   0  0  0  0  0  0  0  0  0  0  0  0
  -23.6670  -13.1310   28.6340 O   0  0  0  0  0  0  0  0  0  0  0  0
  -20.9610  -14.0610   27.3400 H   0  0  0  0  0  0  0  0  0  0  0  0
  -22.2850  -12.9090   26.1480 C   0  0  0  0  0  2  0  0  0  0  0  0
  -23.2630  -13.7780   25.3340 C   0  0  0  0  0  2  0  0  0  0  0  0
  -22.6470  -15.1050   24.8570 C   0  0  0  0  0  2  0  0  0  0  0  0
  -23.6310  -15.9470   24.0320 C   0  0  0  0  0  2  0  0  0  0  0  0
  -22.9290  -17.0690   23.2560 C   0  0  0  0  0  2  0  0  0  0  0  0
  -23.9100  -17.8810   22.3980 C   0  0  0  0  0  2  0  0  0  0  0  0
  -23.2180  -18.6630   21.2710 C   0  0  0  0  0  2  0  0  0  0  0  0
  -24.2280  -19.2390   20.2680 C   0  0  0  0  0  2  0  0  0  0  0  0
  -23.5570  -19.9610   19.0910 C   0  0  0  0  0  2  0  0  0  0  0  0
  -24.5820  -20.4080   18.0400 C   0  0  0  0  0  2  0  0  0  0  0  0
  -23.9530  -21.2180   16.8920 C   0  0  0  0  0  2  0  0  0  0  0  0
  -24.9260  -21.5030   15.7310 C   0  0  0  0  0  2  0  0  0  0  0  0
  -26.4100  -23.3470   16.5220 C   0  0  0  0  0  0  0  0  0  0  0  0
  -26.1910  -22.0700   16.1880 N   0  0  0  0  0  0  0  0  0  0  0  0
  -25.5380  -24.2170   16.4330 O   0  0  0  0  0  0  0  0  0  0  0  0
  -26.9720  -21.4320   16.2780 H   0  0  0  0  0  0  0  0  0  0  0  0
  -27.8140  -23.6810   17.0410 C   0  0  0  0  0  2  0  0  0  0  0  0
  -27.8210  -24.9750   17.6350 O   0  0  0  0  0  0  0  0  0  0  0  0
  -29.0840  -25.3170   18.1860 C   0  0  0  0  0  2  0  0  0  0  0  0
  -29.0420  -26.7420   18.7570 C   0  0  0  0  0  2  0  0  0  0  0  0
  -28.4130  -26.7700   20.0370 O   0  0  0  0  0  0  0  0  0  0  0  0
  -24.6110  -31.8710   23.2130 C   0  0  0  0  0  0  0  0  0  0  0  0
  -27.2410  -27.4780   20.0760 C   0  0  0  0  0  0  0  0  0  0  0  0
  -23.3970  -30.4930   21.5530 C   0  0  0  0  0  3  0  0  0  0  0  0
  -24.8450  -28.9600   20.1190 C   0  0  0  0  0  0  0  0  0  0  0  0
  -25.9220  -30.8440   21.3630 C   0  0  0  0  0  2  0  0  0  0  0  0
  -26.0010  -29.4790   20.7160 C   0  0  0  0  0  0  0  0  0  0  0  0
  -27.2010  -28.7390   20.7040 C   0  0  0  0  0  3  0  0  0  0  0  0
  -26.0680  -26.9540   19.4940 C   0  0  0  0  0  3  0  0  0  0  0  0
  -24.8690  -27.6920   19.5120 C   0  0  0  0  0  3  0  0  0  0  0  0
  -23.6050  -29.8240   20.1680 C   0  0  0  0  0  2  0  0  0  0  0  0
  -24.6610  -31.0830   22.1020 N   0  0  0  0  0  0  0  0  0  0  0  0
  -23.5310  -32.1450   23.7540 O   0  0  0  0  0  0  0  0  0  0  0  0
  -22.7380  -29.4670   22.5010 C   0  0  0  0  0  0  0  0  0  0  0  0
  -21.4120  -29.3030   22.3750 N   0  0  0  0  0  0  0  0  0  0  0  0
  -23.4170  -28.8220   23.3050 O   0  0  0  0  0  0  0  0  0  0  0  0
  -20.9270  -29.8760   21.6980 H   0  0  0  0  0  0  0  0  0  0  0  0
  -18.0270  -28.1380   22.8500 C   0  0  0  0  0  0  0  0  0  0  0  0
  -20.5850  -28.3650   23.1330 C   0  0  0  0  0  3  0  0  0  0  0  0
  -20.6760  -26.9390   22.5420 C   0  0  0  0  0  2  0  0  0  0  0  0
  -19.5740  -26.6380   21.5220 C   0  0  0  0  0  2  0  0  0  0  0  0
  -18.1910  -26.7930   22.1620 C   0  0  0  0  0  2  0  0  0  0  0  0
  -19.1510  -28.8830   23.2910 C   0  0  0  0  0  0  0  0  0  0  0  0
  -18.9450  -30.1440   23.8920 C   0  0  0  0  0  3  0  0  0  0  0  0
  -17.6450  -30.6590   24.0570 C   0  0  0  0  0  3  0  0  0  0  0  0
  -16.5340  -29.9090   23.6330 C   0  0  0  0  0  3  0  0  0  0  0  0
  -16.7260  -28.6510   23.0350 C   0  0  0  0  0  3  0  0  0  0  0  0
  -25.9020  -32.4840   23.8420 C   0  0  0  0  0  3  0  0  0  0  0  0
  -26.4460  -31.6610   25.0730 C   0  0  1  0  0  0  0  0  0  0  0  0
  -25.3740  -31.3700   26.1490 C   0  0  0  0  0  1  0  0  0  0  0  0
  -27.0290  -30.3060   24.6080 C   0  0  0  0  0  1  0  0  0  0  0  0
  -27.6040  -32.4320   25.7490 C   0  0  0  0  0  1  0  0  0  0  0  0
  -25.5890  -33.8640   24.2350 N   0  0  0  0  0  0  0  0  0  0  0  0
  -25.9030  -34.9490   23.5140 C   0  0  0  0  0  0  0  0  0  0  0  0
  -26.5590  -34.8930   22.4700 O   0  0  0  0  0  0  0  0  0  0  0  0
  -25.0050  -33.9810   25.0500 H   0  0  0  0  0  0  0  0  0  0  0  0
  -24.1480  -36.7320   23.2640 C   0  0  0  0  0  1  0  0  0  0  0  0
  -25.4110  -36.3120   24.0340 C   0  0  0  0  0  3  0  0  0  0  0  0
  -27.5590  -37.1810   24.8460 C   0  0  0  0  0  1  0  0  0  0  0  0
  -26.4290  -37.3810   23.9420 N   0  0  0  0  0  0  0  0  0  0  0  0
  -26.0180  -38.2880   24.1440 H   0  0  0  0  0  0  0  0  0  0  0  0
  -21.9990  -14.5510   29.6150 C   0  0  0  0  0  2  0  0  0  0  0  0
  -23.3100  -16.6450   29.4180 C   0  0  0  0  0  0  0  0  0  0  0  0
  -22.9920  -15.5220   30.0700 N   0  0  0  0  0  0  0  0  0  0  0  0
  -22.7100  -17.0120   28.4040 O   0  0  0  0  0  0  0  0  0  0  0  0
  -23.5400  -15.2690   30.8820 H   0  0  0  0  0  0  0  0  0  0  0  0
  -24.4530  -17.4880   29.9950 C   0  0  0  0  0  2  0  0  0  0  0  0
  -26.0330  -17.9540   28.1290 C   0  0  0  0  0  0  0  0  0  0  0  0
  -25.0690  -18.3360   28.9740 N   0  0  0  0  0  0  0  0  0  0  0  0
  -26.5330  -16.8260   28.1630 O   0  0  0  0  0  0  0  0  0  0  0  0
  -24.6800  -19.2620   28.8620 H   0  0  0  0  0  0  0  0  0  0  0  0
  -26.5090  -18.9930   27.1080 C   0  0  0  0  0  2  0  0  0  0  0  0
  -28.3790  -18.3270   25.5890 C   0  0  0  0  0  0  0  0  0  0  0  0
  -27.9130  -18.7870   26.7540 N   0  0  0  0  0  0  0  0  0  0  0  0
  -27.6440  -18.0730   24.6310 O   0  0  0  0  0  0  0  0  0  0  0  0
  -28.5850  -18.9460   27.4930 H   0  0  0  0  0  0  0  0  0  0  0  0
  -29.9030  -18.1540   25.4930 C   0  0  0  0  0  2  0  0  0  0  0  0
  -30.3860  -16.4930   23.7060 C   0  0  0  0  0  0  0  0  0  0  0  0
  -30.3650  -17.7470   24.1650 N   0  0  0  0  0  0  0  0  0  0  0  0
  -30.0290  -15.5290   24.3880 O   0  0  0  0  0  0  0  0  0  0  0  0
  -30.6430  -18.4880   23.5360 H   0  0  0  0  0  0  0  0  0  0  0  0
  -30.8860  -16.2840   22.2770 C   0  0  0  0  0  2  0  0  0  0  0  0
  -30.7600  -14.3440   20.7150 C   0  0  0  0  0  0  0  0  0  0  0  0
  -30.4250  -12.2910   19.3860 C   0  0  0  0  0  2  0  0  0  0  0  0
  -29.4850  -12.5370   18.1900 C   0  0  0  0  0  2  0  0  0  0  0  0
  -28.0090  -12.3880   18.6070 C   0  0  0  0  0  2  0  0  0  0  0  0
  -27.6700  -13.1960   19.8860 C   0  0  0  0  0  3  0  0  0  0  0  0
  -28.7060  -12.9100   20.9930 C   0  0  0  0  0  2  0  0  0  0  0  0
  -30.0510  -13.2140   20.4660 N   0  0  0  0  0  0  0  0  0  0  0  0
  -31.7660  -14.6780   20.0800 O   0  0  0  0  0  0  0  0  0  0  0  0
  -30.3080  -15.0590   21.7440 N   0  0  0  0  0  0  0  0  0  0  0  0
  -29.5280  -14.6860   22.2650 H   0  0  0  0  0  0  0  0  0  0  0  0
  -25.2620  -13.8120   20.5650 C   0  0  0  0  0  0  0  0  0  0  0  0
  -24.1860  -13.0430   20.9180 C   0  0  0  0  0  0  0  0  0  0  0  0
  -24.6400  -11.6890   20.8750 C   0  0  0  0  0  0  0  0  0  0  0  0
  -26.3070  -12.9280   20.3400 N   0  0  0  0  0  0  0  0  0  0  0  0
  -25.9330  -11.6440   20.5780 N   0  0  0  0  0  0  0  0  0  0  0  0
  -23.9060  -10.4290   21.0410 C   0  0  0  0  0  0  0  0  0  0  0  0
  -24.3610   -9.4200   21.9200 C   0  0  0  0  0  3  0  0  0  0  0  0
  -23.6270   -8.2240   22.0760 C   0  0  0  0  0  3  0  0  0  0  0  0
  -22.4270   -8.0280   21.3530 C   0  0  0  0  0  0  0  0  0  0  0  0
  -21.9910   -9.0240   20.4630 C   0  0  0  0  0  3  0  0  0  0  0  0
  -22.7250  -10.2120   20.3050 C   0  0  0  0  0  3  0  0  0  0  0  0
  -21.6630   -6.8880   21.4240 O   0  0  0  0  0  0  0  0  0  0  0  0
  -21.6850   -6.0740   22.5280 C   0  0  0  0  0  0  0  0  0  0  0  0
  -21.4010   -6.5640   23.8210 C   0  0  0  0  0  3  0  0  0  0  0  0
  -21.3660   -5.6780   24.9170 C   0  0  0  0  0  3  0  0  0  0  0  0
  -21.6040   -4.3050   24.7220 C   0  0  0  0  0  0  0  0  0  0  0  0
  -21.8820   -3.8140   23.4340 C   0  0  0  0  0  3  0  0  0  0  0  0
  -21.9200   -4.6970   22.3400 C   0  0  0  0  0  0  0  0  0  0  0  0
  -22.1680   -4.2160   21.0980 F   0  0  0  0  0  0  0  0  0  0  0  0
  -21.5610   -3.4530   25.7730 F   0  0  0  0  0  0  0  0  0  0  0  0
  -22.7880  -13.5240   21.1820 C   0  0  0  0  0  0  0  0  0  0  0  0
  -22.0470  -12.8160   22.0280 N   0  0  0  0  0  0  0  0  0  0  0  0
  -22.3580  -14.5550   20.6670 O   0  0  0  0  0  0  0  0  0  0  0  0
  -22.3990  -11.9700   22.4480 H   0  0  0  0  0  0  0  0  0  0  0  0
  -21.1050  -13.1140   22.2350 H   0  0  0  0  0  0  0  0  0  0  0  0
  -25.4370  -15.1810   20.3940 N   0  0  0  0  0  0  0  0  0  0  0  0
  -24.6720  -15.8340   20.5160 H   0  0  0  0  0  0  0  0  0  0  0  0
  -26.3020  -15.6210   20.1090 H   0  0  0  0  0  0  0  0  0  0  0  0
  1  3  2  0
  1 66  1  0
  2  1  1  0
  4  2  1  0
  5  2  1  0
  6  5  1  0
  7  6  1  0
  8  7  1  0
  9  8  1  0
 10  9  1  0
 11 10  1  0
 12 11  1  0
 13 12  1  0
 14 13  1  0
 15 14  1  0
 16 18  1  0
 16 15  1  0
 17 21  1  0
 18 20  1  0
 18 17  1  0
 19 17  2  0
 21 22  1  0
 22 23  1  0
 23 24  1  0
 24 25  1  0
 25 27  1  0
 26 37  2  0
 27 32  1  0
 28 36  1  0
 28 38  1  0
 29 35  1  0
 29 31  1  0
 30 36  1  0
 31 30  1  0
 32 31  2  0
 33 34  1  0
 33 27  2  0
 34 29  2  0
 35 28  1  0
 36 26  1  0
 38 40  2  0
 39 38  1  0
 41 39  1  0
 42 51  2  0
 42 47  1  0
 43 39  1  0
 43 47  1  0
 44 43  1  0
 45 46  1  0
 45 44  1  0
 46 42  1  0
 47 48  2  0
 48 49  1  0
 50 49  2  0
 51 50  1  0
 52 26  1  0
 52 57  1  0
 52 53  1  0
 53 56  1  1
 53 54  1  0
 55 53  1  0
 57 60  1  0
 58 62  1  0
 58 57  1  0
 59 58  2  0
 62 61  1  0
 64 62  1  0
 64 65  1  0
 64 63  1  0
 66 68  1  0
 67 71  1  0
 67 68  1  0
 68 70  1  0
 69 67  2  0
 72 74  2  0
 72 73  1  0
 73 71  1  0
 75 73  1  0
 76 72  1  0
 77 78  1  0
 78 76  1  0
 78 80  1  0
 79 77  2  0
 81 77  1  0
 82 83  1  0
 82 84  2  0
 83 81  1  0
 85 83  1  0
 86 82  1  0
 87 95  1  0
 88 93  1  0
 89 90  1  0
 89 88  1  0
 91 90  1  0
 91100  1  0
 91 92  1  0
 93 87  1  0
 93 92  1  0
 94 87  2  0
 95 96  1  0
 95 86  1  0
 97 98  2  0
 98117  1  0
 99 98  1  0
 99102  1  0
100 97  1  0
100101  1  0
101 99  2  0
102103  1  0
103104  2  0
105108  1  0
105104  1  0
106105  2  0
107106  1  0
107102  2  0
108109  1  0
109110  1  0
110111  2  0
112111  1  0
112116  1  0
113112  2  0
114109  2  0
114113  1  0
115114  1  0
117118  1  0
118121  1  0
118120  1  0
119117  2  0
122123  1  0
122 97  1  0
124122  1  0
M  ISO  4  24 101  25 101  87 100  95 100
M  END
>  <TORSDO>  (17) 
F 42

>  <SCORE>  (17) 
81.855

>  <name>  (17) 
20

>  <ligand_id>  (17) 
20

>  <original_smiles>  (17) 
[H]c1c([H])c([H])c2c(c1[H])C([H])([H])C([H])([H])C([H])([H])C2([H])N([H])C(=O)C1([H])N(C(=O)C([H])(N([H])C(=O)C([H])(N([H])C([H])([H])[H])C([H])([H])[H])C(C([H])([H])[H])(C([H])([H])[H])C([H])([H])[H])C([H])([H])c2c([H])c(OC([H])([H])C([H])([H])OC([H])([H])C(=O)N([H])C([H])([H])C([H])([H])C([H])([H])C([H])([H])C([H])([H])C([H])([H])C([H])([H])C([H])([H])C([H])([H])C([H])([H])C([H])([H])C([H])([H])N([H])C(=O)C([H])([H])N([H])C(=O)C([H])([H])N([H])C(=O)C([H])([H])N([H])C(=O)C([H])([H])N([H])C(=O)C([H])([H])N([H])C(=O)N3C([H])([H])C([H])([H])C([H])([H])C([H])(n4nc(-c5c([H])c([H])c(Oc6c([H])c([H])c(F)c([H])c6F)c([H])c5[H])c(C(=O)N([H])[H])c4N([H])[H])C3([H])[H])c([H])c([H])c2C1([H])[H]

>  <smiles>  (17) 
[H]c1c([H])c([H])c2c(c1[H])C([H])([H])C([H])([H])C([H])([H])C2([H])N([H])C(=O)C1([H])N(C(=O)C([H])(N([H])C(=O)C([H])(N([H])C([H])([H])[H])C([H])([H])[H])C(C([H])([H])[H])(C([H])([H])[H])C([H])([H])[H])C([H])([H])c2c([H])c(OC([H])([H])C([H])([H])OC([H])([H])C(=O)N([H])C([H])([H])C([H])([H])C([H])([H])C([H])([H])C([H])([H])C([H])([H])C([H])([H])C([H])([H])C([H])([H])C([H])([H])C([H])([H])C([H])([H])N([H])C(=O)C([H])([H])N([H])C(=O)C([H])([H])N([H])C(=O)C([H])([H])N([H])C(=O)C([H])([H])N([H])C(=O)C([H])([H])N([H])C(=O)N3C([H])([H])C([H])([H])C([H])([H])C([H])(n4nc(-c5c([H])c([H])c(Oc6c([H])c([H])c(F)c([H])c6F)c([H])c5[H])c(C(=O)N([H])[H])c4N([H])[H])C3([H])[H])c([H])c([H])c2C1([H])[H]

$$$$
21:0:0
     RDKit          3D

153160  0  0  1  0  0  0  0  0999 V2000
  -22.2860  -20.6480   12.8850 C   0  0  0  0  0  2  0  0  0  0  0  0
  -23.7270  -20.3520   12.6530 N   0  0  0  0  0  4  0  0  0  0  0  0
  -24.3300  -20.9520   13.1840 H   0  0  0  0  0  0  0  0  0  0  0  0
  -23.9170  -20.5900   11.6880 H   0  0  0  0  0  0  0  0  0  0  0  0
  -24.1980  -18.9390   12.7880 C   0  0  0  0  0  2  0  0  0  0  0  0
  -25.9070  -19.2290   14.3700 C   0  0  0  0  0  1  0  0  0  0  0  0
  -24.6280  -18.4070   14.2280 C   0  0  0  0  0  3  0  0  0  0  0  0
  -24.8100  -16.9210   14.3760 N   0  0  0  0  0  0  0  0  0  0  0  0
  -25.7940  -16.7720   14.1920 H   0  0  0  0  0  0  0  0  0  0  0  0
  -24.5560  -16.0830   15.6040 C   0  0  0  0  0  2  0  0  0  0  0  0
  -25.0070  -14.5510   15.4300 C   0  0  0  0  0  3  0  0  0  0  0  0
  -24.8350  -13.4500   16.5540 C   0  0  0  0  0  3  0  0  0  0  0  0
  -25.5850  -12.0470   16.2790 C   0  0  0  0  0  2  0  0  0  0  0  0
  -25.5240  -10.9500   17.4520 C   0  0  0  0  0  2  0  0  0  0  0  0
  -26.8200  -10.2860   18.1730 C   0  0  0  0  0  0  0  0  0  0  0  0
  -26.7830   -9.8870   19.5140 N   0  0  0  0  0  0  0  0  0  0  0  0
  -27.8250  -10.1610   17.4780 O   0  0  0  0  0  0  0  0  0  0  0  0
  -25.8140   -9.7720   19.7670 H   0  0  0  0  0  0  0  0  0  0  0  0
  -27.6970  -10.1090   20.8010 C   0  0  0  0  0  2  0  0  0  0  0  0
  -27.5200  -10.9460   22.3100 C   0  0  0  0  0  0  0  0  0  0  0  0
  -27.0060  -12.2490   22.7500 N   0  0  0  0  0  0  0  0  0  0  0  0
  -27.8280  -10.2040   23.2390 O   0  0  0  0  0  0  0  0  0  0  0  0
  -26.6620  -11.9980   23.6770 H   0  0  0  0  0  0  0  0  0  0  0  0
  -27.4890  -13.7640   23.1230 C   0  0  0  0  0  2  0  0  0  0  0  0
  -27.0360  -15.3310   22.6200 C   0  0  0  0  0  0  0  0  0  0  0  0
  -27.8180  -16.3450   21.9520 N   0  0  0  0  0  0  0  0  0  0  0  0
  -25.9060  -15.6870   22.9460 O   0  0  0  0  0  0  0  0  0  0  0  0
  -28.7740  -16.0670   21.7950 H   0  0  0  0  0  0  0  0  0  0  0  0
  -27.5100  -17.8480   21.4430 C   0  0  0  0  0  2  0  0  0  0  0  0
  -28.4980  -19.0130   20.6990 C   0  0  0  0  0  0  0  0  0  0  0  0
  -28.3840  -20.4340   20.8410 N   0  0  0  0  0  0  0  0  0  0  0  0
  -29.3080  -18.6070   19.8710 O   0  0  0  0  0  0  0  0  0  0  0  0
  -27.8020  -20.7500   21.6130 H   0  0  0  0  0  0  0  0  0  0  0  0
  -28.7670  -21.7300   20.0420 C   0  0  0  0  0  2  0  0  0  0  0  0
  -28.8170  -23.3070   20.6510 C   0  0  0  0  0  3  0  0  0  0  0  0
  -28.2110  -24.6880   19.9280 C   0  0  0  0  0  3  0  0  0  0  0  0
  -28.3400  -26.1810   20.3210 O   0  0  0  0  0  0  0  0  0  0  0  0
  -24.6420  -31.8330   23.1900 C   0  0  0  0  0  0  0  0  0  0  0  0
  -27.2750  -27.1390   20.1770 C   0  0  0  0  0  0  0  0  0  0  0  0
  -23.4670  -30.4300   21.5230 C   0  0  0  0  0  3  0  0  0  0  0  0
  -24.9430  -28.8670   20.1250 C   0  0  0  0  0  0  0  0  0  0  0  0
  -26.0400  -30.7010   21.4160 C   0  0  0  0  0  2  0  0  0  0  0  0
  -26.1170  -29.3140   20.7560 C   0  0  0  0  0  0  0  0  0  0  0  0
  -27.2770  -28.4560   20.7710 C   0  0  0  0  0  3  0  0  0  0  0  0
  -26.0880  -26.8020   19.4870 C   0  0  0  0  0  3  0  0  0  0  0  0
  -24.9460  -27.6300   19.4670 C   0  0  0  0  0  3  0  0  0  0  0  0
  -23.7100  -29.7420   20.1490 C   0  0  0  0  0  2  0  0  0  0  0  0
  -24.7360  -31.0090   22.1000 N   0  0  0  0  0  0  0  0  0  0  0  0
  -23.5450  -32.1280   23.7010 O   0  0  0  0  0  0  0  0  0  0  0  0
  -22.7670  -29.4320   22.4810 C   0  0  0  0  0  0  0  0  0  0  0  0
  -21.4310  -29.2980   22.3780 N   0  0  0  0  0  0  0  0  0  0  0  0
  -23.4390  -28.7850   23.2880 O   0  0  0  0  0  0  0  0  0  0  0  0
  -20.9610  -29.8880   21.7050 H   0  0  0  0  0  0  0  0  0  0  0  0
  -18.0310  -28.1370   22.8490 C   0  0  0  0  0  0  0  0  0  0  0  0
  -20.5930  -28.3610   23.1330 C   0  0  0  0  0  3  0  0  0  0  0  0
  -20.6740  -26.9310   22.5410 C   0  0  0  0  0  2  0  0  0  0  0  0
  -19.5700  -26.6350   21.5230 C   0  0  0  0  0  2  0  0  0  0  0  0
  -18.1930  -26.7920   22.1660 C   0  0  0  0  0  2  0  0  0  0  0  0
  -19.1580  -28.8850   23.2880 C   0  0  0  0  0  0  0  0  0  0  0  0
  -18.9460  -30.1480   23.8860 C   0  0  0  0  0  3  0  0  0  0  0  0
  -17.6450  -30.6570   24.0570 C   0  0  0  0  0  3  0  0  0  0  0  0
  -16.5360  -29.9040   23.6330 C   0  0  0  0  0  3  0  0  0  0  0  0
  -16.7300  -28.6480   23.0340 C   0  0  0  0  0  3  0  0  0  0  0  0
  -25.9220  -32.4620   23.8280 C   0  0  0  0  0  3  0  0  0  0  0  0
  -25.5920  -33.8440   24.2160 N   0  0  0  0  0  0  0  0  0  0  0  0
  -25.9070  -34.9350   23.5040 C   0  0  0  0  0  0  0  0  0  0  0  0
  -26.5670  -34.8840   22.4630 O   0  0  0  0  0  0  0  0  0  0  0  0
  -25.0000  -33.9600   25.0260 H   0  0  0  0  0  0  0  0  0  0  0  0
  -24.1520  -36.7230   23.2650 C   0  0  0  0  0  1  0  0  0  0  0  0
  -25.4160  -36.2980   24.0300 C   0  0  0  0  0  3  0  0  0  0  0  0
  -27.5590  -37.1790   24.8470 C   0  0  0  0  0  1  0  0  0  0  0  0
  -26.4320  -37.3700   23.9390 N   0  0  0  0  0  0  0  0  0  0  0  0
  -26.0150  -38.2770   24.1370 H   0  0  0  0  0  0  0  0  0  0  0  0
  -26.4610  -31.6550   25.0730 C   0  0  1  0  0  0  0  0  0  0  0  0
  -25.3860  -31.3750   26.1430 C   0  0  0  0  0  1  0  0  0  0  0  0
  -27.0410  -30.2910   24.6390 C   0  0  0  0  0  1  0  0  0  0  0  0
  -27.6090  -32.4330   25.7580 C   0  0  0  0  0  1  0  0  0  0  0  0
  -21.7210  -20.0020   14.1700 C   0  0  0  0  0  2  0  0  0  0  0  0
  -20.2320  -19.6040   14.1570 C   0  0  0  0  0  2  0  0  0  0  0  0
  -20.0120  -18.1850   14.7870 C   0  0  0  0  0  2  0  0  0  0  0  0
  -19.7790  -17.0750   13.8130 N   0  0  0  0  0  4  0  0  0  0  0  0
  -19.0570  -16.5240   14.2540 H   0  0  0  0  0  0  0  0  0  0  0  0
  -19.3640  -17.4380   12.9700 H   0  0  0  0  0  0  0  0  0  0  0  0
  -20.8830  -16.1040   13.5020 C   0  0  0  0  0  2  0  0  0  0  0  0
  -21.7870  -16.5630   12.3370 C   0  0  0  0  0  2  0  0  0  0  0  0
  -22.8250  -15.5930   11.6300 C   0  0  0  0  0  2  0  0  0  0  0  0
  -24.1480  -16.1030   10.9090 C   0  0  0  0  0  2  0  0  0  0  0  0
  -26.5890  -15.7390   11.6670 C   0  0  0  0  0  0  0  0  0  0  0  0
  -25.2980  -16.0830   11.8230 N   0  0  0  0  0  0  0  0  0  0  0  0
  -27.1010  -15.5010   10.5770 O   0  0  0  0  0  0  0  0  0  0  0  0
  -25.0490  -16.3060   12.7860 H   0  0  0  0  0  0  0  0  0  0  0  0
  -27.4190  -15.6250   12.9620 C   0  0  0  0  0  2  0  0  0  0  0  0
  -28.6740  -16.5050   13.0590 C   0  0  0  0  0  2  0  0  0  0  0  0
  -29.1920  -16.5770   14.5210 C   0  0  0  0  0  2  0  0  0  0  0  0
  -28.0680  -17.6570   16.5660 C   0  0  0  0  0  0  0  0  0  0  0  0
  -28.5710  -17.6430   15.3200 N   0  0  0  0  0  0  0  0  0  0  0  0
  -27.7000  -16.6380   17.1510 O   0  0  0  0  0  0  0  0  0  0  0  0
  -28.7280  -18.5670   14.9720 H   0  0  0  0  0  0  0  0  0  0  0  0
  -28.0170  -19.0700   17.2200 C   0  0  0  0  0  2  0  0  0  0  0  0
  -26.9990  -19.2460   18.2430 O   0  0  0  0  0  0  0  0  0  0  0  0
  -25.9040  -20.0930   17.8430 C   0  0  0  0  0  2  0  0  0  0  0  0
  -25.1600  -21.0420   18.8400 C   0  0  0  0  0  2  0  0  0  0  0  0
  -24.6270  -20.6670   20.2670 C   0  0  0  0  0  2  0  0  0  0  0  0
  -25.7500  -20.4110   21.2010 N   0  0  0  0  0  4  0  0  0  0  0  0
  -25.7710  -19.4070   21.1900 H   0  0  0  0  0  0  0  0  0  0  0  0
  -26.5460  -20.7600   20.6890 H   0  0  0  0  0  0  0  0  0  0  0  0
  -25.8600  -20.9510   22.6160 C   0  0  0  0  0  2  0  0  0  0  0  0
  -27.2910  -21.0050   23.3940 C   0  0  0  0  0  2  0  0  0  0  0  0
  -27.8330  -19.8290   24.2930 C   0  0  0  0  0  2  0  0  0  0  0  0
  -29.2300  -19.3640   23.9860 N   0  0  0  0  0  4  0  0  0  0  0  0
  -29.7400  -19.8380   24.7100 H   0  0  0  0  0  0  0  0  0  0  0  0
  -29.6050  -19.7470   23.1270 H   0  0  0  0  0  0  0  0  0  0  0  0
  -29.5730  -17.9230   24.2330 C   0  0  0  0  0  2  0  0  0  0  0  0
  -30.8990  -17.3660   23.5790 C   0  0  0  0  0  2  0  0  0  0  0  0
  -30.9930  -16.7190   22.1310 C   0  0  0  0  0  2  0  0  0  0  0  0
  -31.0060  -14.5750   20.7530 C   0  0  0  0  0  0  0  0  0  0  0  0
  -30.5290  -12.5630   19.3270 C   0  0  0  0  0  2  0  0  0  0  0  0
  -29.5810  -12.7410   18.0980 C   0  0  0  0  0  2  0  0  0  0  0  0
  -28.1090  -13.2160   18.3560 C   0  0  0  0  0  2  0  0  0  0  0  0
  -27.6870  -13.1640   19.7870 C   0  0  0  0  0  0  0  0  0  0  0  0
  -28.8570  -13.3390   20.7880 C   0  0  0  0  0  3  0  0  0  0  0  0
  -30.1920  -13.5430   20.3370 N   0  0  0  0  0  0  0  0  0  0  0  0
  -32.0000  -14.8660   20.1140 O   0  0  0  0  0  0  0  0  0  0  0  0
  -30.6880  -15.2720   21.9060 N   0  0  0  0  0  0  0  0  0  0  0  0
  -30.0520  -14.8380   22.5530 H   0  0  0  0  0  0  0  0  0  0  0  0
  -25.1590  -14.0180   20.3900 C   0  0  0  0  0  0  0  0  0  0  0  0
  -24.0730  -13.2330   20.8440 C   0  0  0  0  0  0  0  0  0  0  0  0
  -24.4780  -11.8930   20.8560 C   0  0  0  0  0  0  0  0  0  0  0  0
  -26.2100  -13.1360   20.1920 N   0  0  0  0  0  0  0  0  0  0  0  0
  -25.6750  -11.9400   20.4320 N   0  0  0  0  0  0  0  0  0  0  0  0
  -23.8260  -10.5520   21.0430 C   0  0  0  0  0  0  0  0  0  0  0  0
  -24.3170   -9.5360   21.9030 C   0  0  0  0  0  3  0  0  0  0  0  0
  -23.6320   -8.3040   22.0570 C   0  0  0  0  0  3  0  0  0  0  0  0
  -22.4360   -8.0660   21.3500 C   0  0  0  0  0  0  0  0  0  0  0  0
  -21.9920   -9.0350   20.4430 C   0  0  0  0  0  3  0  0  0  0  0  0
  -22.6720  -10.2560   20.2920 C   0  0  0  0  0  3  0  0  0  0  0  0
  -21.7000   -6.9040   21.4250 O   0  0  0  0  0  0  0  0  0  0  0  0
  -21.7070   -6.0910   22.5390 C   0  0  0  0  0  0  0  0  0  0  0  0
  -21.4160   -6.5790   23.8300 C   0  0  0  0  0  3  0  0  0  0  0  0
  -21.3560   -5.6850   24.9200 C   0  0  0  0  0  3  0  0  0  0  0  0
  -21.6000   -4.3110   24.7250 C   0  0  0  0  0  0  0  0  0  0  0  0
  -21.8850   -3.8290   23.4400 C   0  0  0  0  0  3  0  0  0  0  0  0
  -21.9280   -4.7140   22.3500 C   0  0  0  0  0  0  0  0  0  0  0  0
  -22.1710   -4.2360   21.1010 F   0  0  0  0  0  0  0  0  0  0  0  0
  -21.5440   -3.4560   25.7700 F   0  0  0  0  0  0  0  0  0  0  0  0
  -22.7030  -13.6810   21.1610 C   0  0  0  0  0  0  0  0  0  0  0  0
  -22.0260  -12.9210   22.0340 N   0  0  0  0  0  0  0  0  0  0  0  0
  -22.2220  -14.6880   20.6880 O   0  0  0  0  0  0  0  0  0  0  0  0
  -22.4130  -12.0820   22.4360 H   0  0  0  0  0  0  0  0  0  0  0  0
  -21.1090  -13.2070   22.3090 H   0  0  0  0  0  0  0  0  0  0  0  0
  -25.3190  -15.3590   20.1050 N   0  0  0  0  0  0  0  0  0  0  0  0
  -24.5880  -16.0680   20.2020 H   0  0  0  0  0  0  0  0  0  0  0  0
  -26.1890  -15.7400   19.7400 H   0  0  0  0  0  0  0  0  0  0  0  0
  1 78  1  0
  2  5  1  0
  2  1  1  0
  2  3  1  0
  4  2  1  0
  5  7  1  0
  7  6  1  0
  7  8  1  0
  8 10  1  0
  9  8  1  0
 11 10  1  0
 11 12  2  0
 13 12  1  0
 13 14  1  0
 14 15  1  0
 15 16  1  0
 16 18  1  0
 16 19  1  0
 17 15  2  0
 19 20  1  0
 20 21  1  0
 20 22  2  0
 21 24  1  0
 21 23  1  0
 25 27  2  0
 25 24  1  0
 26 25  1  0
 28 26  1  0
 29 26  1  0
 30 31  1  0
 30 29  1  0
 31 33  1  0
 32 30  2  0
 34 35  1  0
 34 31  1  0
 36 37  1  0
 36 35  2  0
 38 49  2  0
 39 37  1  0
 39 44  1  0
 40 48  1  0
 40 50  1  0
 41 47  1  0
 41 43  1  0
 42 48  1  0
 43 44  2  0
 43 42  1  0
 45 39  2  0
 46 45  1  0
 46 41  2  0
 47 40  1  0
 48 38  1  0
 50 52  2  0
 51 50  1  0
 53 51  1  0
 54 63  2  0
 54 59  1  0
 55 51  1  0
 55 59  1  0
 56 55  1  0
 57 58  1  0
 57 56  1  0
 58 54  1  0
 59 60  2  0
 60 61  1  0
 62 61  2  0
 63 62  1  0
 64 38  1  0
 64 65  1  0
 64 74  1  0
 65 68  1  0
 66 70  1  0
 66 65  1  0
 67 66  2  0
 70 69  1  0
 72 70  1  0
 72 73  1  0
 72 71  1  0
 74 77  1  1
 74 75  1  0
 76 74  1  0
 79 78  1  0
 79 80  1  0
 81 82  1  0
 81 80  1  0
 83 81  1  0
 84 81  1  0
 85 84  1  0
 86 85  1  0
 87 86  1  0
 87 89  1  0
 88 89  1  0
 88 92  1  0
 89 91  1  0
 90 88  2  0
 92 93  1  0
 93 94  1  0
 94 96  1  0
 95 97  2  0
 95 99  1  0
 96 95  1  0
 98 96  1  0
 99100  1  0
101100  1  0
101102  1  0
102103  1  0
103104  1  0
104107  1  0
105104  1  0
106104  1  0
107108  1  0
108109  1  0
110113  1  0
110109  1  0
110111  1  0
112110  1  0
114113  1  0
115114  1  0
116124  1  0
117122  1  0
118119  1  0
118117  1  0
119120  1  0
120129  1  0
120121  2  0
122116  1  0
122121  1  0
123116  2  0
124115  1  0
124125  1  0
126127  2  0
127128  1  0
127146  1  0
128131  1  0
129126  1  0
129130  1  0
130128  2  0
131132  1  0
132133  2  0
134137  1  0
134133  1  0
135134  2  0
136135  1  0
136131  2  0
137138  1  0
138139  1  0
139140  2  0
141140  1  0
141145  1  0
142141  2  0
143138  2  0
143142  1  0
144143  1  0
146147  1  0
147150  1  0
147149  1  0
148146  2  0
151152  1  0
151126  1  0
153151  1  0
M  ISO  4  36 101  37 101 116 100 124 100
M  END
>  <TORSDO>  (18) 
F 61

>  <SCORE>  (18) 
112.076

>  <name>  (18) 
21

>  <ligand_id>  (18) 
21

>  <original_smiles>  (18) 
[H]c1c([H])c([H])c2c(c1[H])C([H])([H])C([H])([H])C([H])([H])C2([H])N([H])C(=O)C1([H])N(C(=O)C([H])(N([H])C(=O)C([H])(N([H])C([H])([H])[H])C([H])([H])[H])C(C([H])([H])[H])(C([H])([H])[H])C([H])([H])[H])C([H])([H])c2c([H])c(OC([H])([H])C([H])([H])C([H])([H])N([H])C(=O)C([H])([H])N([H])C(=O)C([H])([H])N([H])C(=O)C([H])([H])N([H])C(=O)C([H])([H])C([H])([H])C([H])([H])C([H])([H])C([H])([H])N([H])C([H])(C([H])([H])[H])C([H])([H])[N+]([H])([H])C([H])([H])C([H])([H])C([H])([H])C([H])([H])[N+]([H])([H])C([H])([H])C([H])([H])C([H])([H])C([H])([H])N([H])C(=O)C([H])([H])C([H])([H])C([H])([H])N([H])C(=O)C([H])([H])OC([H])([H])C([H])([H])C([H])([H])[N+]([H])([H])C([H])([H])C([H])([H])C([H])([H])[N+]([H])([H])C([H])([H])C([H])([H])C([H])([H])N([H])C(=O)N3C([H])([H])C([H])([H])C([H])([H])C([H])(n4nc(-c5c([H])c([H])c(Oc6c([H])c([H])c(F)c([H])c6F)c([H])c5[H])c(C(=O)N([H])[H])c4N([H])[H])C3([H])[H])c([H])c([H])c2C1([H])[H]

>  <smiles>  (18) 
[H]c1c([H])c([H])c2c(c1[H])C([H])([H])C([H])([H])C([H])([H])C2([H])N([H])C(=O)C1([H])N(C(=O)C([H])(N([H])C(=O)C([H])(N([H])C([H])([H])[H])C([H])([H])[H])C(C([H])([H])[H])(C([H])([H])[H])C([H])([H])[H])C([H])([H])c2c([H])c(OC([H])([H])C([H])([H])C([H])([H])N([H])C(=O)C([H])([H])N([H])C(=O)C([H])([H])N([H])C(=O)C([H])([H])N([H])C(=O)C([H])([H])C([H])([H])C([H])([H])C([H])([H])C([H])([H])N([H])C([H])(C([H])([H])[H])C([H])([H])[N+]([H])([H])C([H])([H])C([H])([H])C([H])([H])C([H])([H])[N+]([H])([H])C([H])([H])C([H])([H])C([H])([H])C([H])([H])N([H])C(=O)C([H])([H])C([H])([H])C([H])([H])N([H])C(=O)C([H])([H])OC([H])([H])C([H])([H])C([H])([H])[N+]([H])([H])C([H])([H])C([H])([H])C([H])([H])[N+]([H])([H])C([H])([H])C([H])([H])C([H])([H])N([H])C(=O)N3C([H])([H])C([H])([H])C([H])([H])C([H])(n4nc(-c5c([H])c([H])c(Oc6c([H])c([H])c(F)c([H])c6F)c([H])c5[H])c(C(=O)N([H])[H])c4N([H])[H])C3([H])[H])c([H])c([H])c2C1([H])[H]

$$$$
22:0:0
     RDKit          3D

143150  0  0  1  0  0  0  0  0999 V2000
  -23.0860  -13.0070   16.6890 C   0  0  0  0  0  2  0  0  0  0  0  0
  -22.5110  -14.2680   17.3440 C   0  0  0  0  0  0  0  0  0  0  0  0
  -22.8590  -15.4460   16.8130 N   0  0  0  0  0  0  0  0  0  0  0  0
  -21.7560  -14.1810   18.3140 O   0  0  0  0  0  0  0  0  0  0  0  0
  -23.4740  -15.4510   16.0090 H   0  0  0  0  0  0  0  0  0  0  0  0
  -22.3860  -16.7430   17.2840 C   0  0  0  0  0  2  0  0  0  0  0  0
  -23.4380  -17.8400   17.0610 C   0  0  0  0  0  2  0  0  0  0  0  0
  -22.9140  -19.2270   17.4610 C   0  0  0  0  0  2  0  0  0  0  0  0
  -23.6210  -20.3710   16.7200 C   0  0  0  0  0  2  0  0  0  0  0  0
  -23.1800  -21.7590   17.2240 C   0  0  0  0  0  2  0  0  0  0  0  0
  -23.7330  -22.9060   16.3760 C   0  0  0  0  0  0  0  0  0  0  0  0
  -24.0730  -24.0350   17.0120 N   0  0  0  0  0  0  0  0  0  0  0  0
  -23.8470  -22.7860   15.1540 O   0  0  0  0  0  0  0  0  0  0  0  0
  -23.9860  -24.0540   18.0210 H   0  0  0  0  0  0  0  0  0  0  0  0
  -24.6510  -25.2110   16.3600 C   0  0  0  0  0  2  0  0  0  0  0  0
  -23.6140  -26.0290   15.5360 C   0  0  0  0  0  3  0  0  0  0  0  0
  -24.2690  -27.0840   14.7100 N   0  0  0  0  0  4  0  0  0  0  0  0
  -23.5390  -27.7230   14.4310 H   0  0  0  0  0  0  0  0  0  0  0  0
  -24.9220  -27.6120   15.2710 H   0  0  0  0  0  0  0  0  0  0  0  0
  -24.9560  -26.5760   13.4940 C   0  0  0  0  0  2  0  0  0  0  0  0
  -25.4360  -27.6760   12.5260 C   0  0  0  0  0  2  0  0  0  0  0  0
  -25.9290  -27.0520   11.2070 C   0  0  0  0  0  2  0  0  0  0  0  0
  -26.5170  -28.0200   10.3450 O   0  0  0  0  0  0  0  0  0  0  0  0
  -27.0090  -27.4210    9.1510 C   0  0  0  0  0  2  0  0  0  0  0  0
  -27.7140  -28.4600    8.2690 C   0  0  0  0  0  2  0  0  0  0  0  0
  -29.0680  -28.8430    6.1280 C   0  0  0  0  0  1  0  0  0  0  0  0
  -28.3230  -27.8300    7.0050 C   0  0  0  0  0  2  0  0  0  0  0  0
  -22.5240  -26.6580   16.4340 C   0  0  0  0  0  2  0  0  0  0  0  0
  -21.3320  -26.8750   15.6760 O   0  0  0  0  0  0  0  0  0  0  0  0
  -20.2050  -26.1310   16.1510 C   0  0  0  0  0  2  0  0  0  0  0  0
  -18.9670  -26.3310   15.2430 C   0  0  0  0  0  2  0  0  0  0  0  0
  -18.8520  -25.3980   14.1630 O   0  0  0  0  0  0  0  0  0  0  0  0
  -18.8920  -26.3900    7.0970 C   0  0  0  0  0  0  0  0  0  0  0  0
  -19.5380  -25.7640   13.0340 C   0  0  0  0  0  0  0  0  0  0  0  0
  -21.0750  -26.5920    8.2390 C   0  0  0  0  0  3  0  0  0  0  0  0
  -20.9860  -26.6330   10.7820 C   0  0  0  0  0  0  0  0  0  0  0  0
  -18.8980  -27.0930    9.4880 C   0  0  0  0  0  2  0  0  0  0  0  0
  -19.5860  -26.6220   10.7530 C   0  0  0  0  0  0  0  0  0  0  0  0
  -18.8530  -26.1840   11.8770 C   0  0  0  0  0  3  0  0  0  0  0  0
  -20.9450  -25.7190   13.0310 C   0  0  0  0  0  3  0  0  0  0  0  0
  -21.6710  -26.1610   11.9120 C   0  0  0  0  0  3  0  0  0  0  0  0
  -21.6910  -27.1490    9.5490 C   0  0  0  0  0  2  0  0  0  0  0  0
  -19.5770  -26.6580    8.2430 N   0  0  0  0  0  0  0  0  0  0  0  0
  -19.4860  -26.1310    6.0420 O   0  0  0  0  0  0  0  0  0  0  0  0
  -21.6250  -25.1680    8.0020 C   0  0  0  0  0  0  0  0  0  0  0  0
  -22.8060  -25.0820    7.3650 N   0  0  0  0  0  0  0  0  0  0  0  0
  -21.0120  -24.1770    8.4090 O   0  0  0  0  0  0  0  0  0  0  0  0
  -23.2310  -25.9410    7.0460 H   0  0  0  0  0  0  0  0  0  0  0  0
  -25.7490  -23.7730    5.7280 C   0  0  0  0  0  0  0  0  0  0  0  0
  -23.5370  -23.8510    7.0640 C   0  0  0  0  0  3  0  0  0  0  0  0
  -24.3730  -23.3830    8.2790 C   0  0  0  0  0  2  0  0  0  0  0  0
  -25.8120  -23.9040    8.2550 C   0  0  0  0  0  2  0  0  0  0  0  0
  -26.5340  -23.4400    6.9860 C   0  0  0  0  0  2  0  0  0  0  0  0
  -24.3450  -23.9820    5.7680 C   0  0  0  0  0  0  0  0  0  0  0  0
  -23.6680  -24.3240    4.5780 C   0  0  0  0  0  3  0  0  0  0  0  0
  -24.3690  -24.4560    3.3640 C   0  0  0  0  0  3  0  0  0  0  0  0
  -25.7560  -24.2330    3.3280 C   0  0  0  0  0  3  0  0  0  0  0  0
  -26.4430  -23.8890    4.5060 C   0  0  0  0  0  3  0  0  0  0  0  0
  -17.3300  -26.4160    7.0510 C   0  0  0  0  0  3  0  0  0  0  0  0
  -16.6810  -24.9940    7.2660 C   0  0  1  0  0  0  0  0  0  0  0  0
  -17.2680  -23.8900    6.3550 C   0  0  0  0  0  1  0  0  0  0  0  0
  -16.8540  -24.5380    8.7330 C   0  0  0  0  0  1  0  0  0  0  0  0
  -15.1600  -25.0690    7.0010 C   0  0  0  0  0  1  0  0  0  0  0  0
  -16.9360  -26.9750    5.7530 N   0  0  0  0  0  0  0  0  0  0  0  0
  -16.5490  -28.2440    5.5590 C   0  0  0  0  0  0  0  0  0  0  0  0
  -16.4170  -29.0500    6.4840 O   0  0  0  0  0  0  0  0  0  0  0  0
  -17.0810  -26.3860    4.9470 H   0  0  0  0  0  0  0  0  0  0  0  0
  -17.4430  -29.5230    3.5860 C   0  0  0  0  0  1  0  0  0  0  0  0
  -16.2630  -28.6900    4.1120 C   0  0  0  0  0  3  0  0  0  0  0  0
  -13.8110  -28.6610    4.2020 C   0  0  0  0  0  1  0  0  0  0  0  0
  -15.0100  -29.4620    3.9720 N   0  0  0  0  0  0  0  0  0  0  0  0
  -14.9420  -29.8780    3.0450 H   0  0  0  0  0  0  0  0  0  0  0  0
  -22.0260  -11.8990   16.5010 C   0  0  0  0  0  2  0  0  0  0  0  0
  -22.5650  -10.2770   14.6800 C   0  0  0  0  0  0  0  0  0  0  0  0
  -21.9920  -11.4000   15.1270 N   0  0  0  0  0  0  0  0  0  0  0  0
  -23.2130   -9.5160   15.4040 O   0  0  0  0  0  0  0  0  0  0  0  0
  -21.4660  -11.9440   14.4560 H   0  0  0  0  0  0  0  0  0  0  0  0
  -22.3560   -9.9550   13.1940 C   0  0  0  0  0  2  0  0  0  0  0  0
  -24.7150  -10.6500   12.7690 C   0  0  0  0  0  0  0  0  0  0  0  0
  -23.5190  -10.2240   12.3470 N   0  0  0  0  0  0  0  0  0  0  0  0
  -24.9990  -10.7640   13.9630 O   0  0  0  0  0  0  0  0  0  0  0  0
  -23.3830  -10.1260   11.3500 H   0  0  0  0  0  0  0  0  0  0  0  0
  -25.7310  -11.0490   11.6960 C   0  0  0  0  0  2  0  0  0  0  0  0
  -27.0390  -10.9870   12.2580 O   0  0  0  0  0  0  0  0  0  0  0  0
  -27.8980  -12.0180   11.7970 C   0  0  0  0  0  2  0  0  0  0  0  0
  -29.2570  -11.3650   11.5250 C   0  0  0  0  0  2  0  0  0  0  0  0
  -29.4410  -10.1630   12.3700 N   0  0  0  0  0  4  0  0  0  0  0  0
  -30.3930  -10.1460   12.6980 H   0  0  0  0  0  0  0  0  0  0  0  0
  -28.8430  -10.2660   13.1770 H   0  0  0  0  0  0  0  0  0  0  0  0
  -29.1510   -8.8830   11.6870 C   0  0  0  0  0  2  0  0  0  0  0  0
  -29.2980   -7.6730   12.6350 C   0  0  0  0  0  2  0  0  0  0  0  0
  -29.7120   -8.0230   14.0780 C   0  0  0  0  0  2  0  0  0  0  0  0
  -28.5750   -8.6670   14.8950 C   0  0  0  0  0  2  0  0  0  0  0  0
  -29.0280   -9.1620   16.2780 C   0  0  0  0  0  2  0  0  0  0  0  0
  -27.9110   -9.8860   17.0600 C   0  0  0  0  0  2  0  0  0  0  0  0
  -29.3530  -11.2860   18.5590 C   0  0  0  0  0  0  0  0  0  0  0  0
  -28.3610  -11.1360   17.6720 N   0  0  0  0  0  0  0  0  0  0  0  0
  -30.0200  -10.3350   18.9780 O   0  0  0  0  0  0  0  0  0  0  0  0
  -27.8610  -11.9720   17.4000 H   0  0  0  0  0  0  0  0  0  0  0  0
  -29.6340  -12.7220   19.0250 C   0  0  0  0  0  2  0  0  0  0  0  0
  -30.9750  -12.4590   21.1000 C   0  0  0  0  0  0  0  0  0  0  0  0
  -30.8510  -12.8410   19.8240 N   0  0  0  0  0  0  0  0  0  0  0  0
  -30.0400  -11.9820   21.7470 O   0  0  0  0  0  0  0  0  0  0  0  0
  -31.6710  -13.1710   19.3300 H   0  0  0  0  0  0  0  0  0  0  0  0
  -32.3450  -12.6570   21.7560 C   0  0  0  0  0  2  0  0  0  0  0  0
  -34.1230  -11.1830   22.6820 C   0  0  0  0  0  0  0  0  0  0  0  0
  -36.4320  -10.6740   21.9620 C   0  0  0  0  0  2  0  0  0  0  0  0
  -37.2930  -11.9500   21.8310 C   0  0  0  0  0  2  0  0  0  0  0  0
  -37.1100  -12.6030   20.4470 C   0  0  0  0  0  2  0  0  0  0  0  0
  -35.6210  -12.7510   20.0520 C   0  0  0  0  0  3  0  0  0  0  0  0
  -34.8740  -11.4150   20.2690 C   0  0  0  0  0  2  0  0  0  0  0  0
  -35.0300  -11.0240   21.6790 N   0  0  0  0  0  0  0  0  0  0  0  0
  -34.3990  -10.9760   23.8650 O   0  0  0  0  0  0  0  0  0  0  0  0
  -32.8490  -11.4110   22.3440 N   0  0  0  0  0  0  0  0  0  0  0  0
  -32.2050  -11.0670   23.0420 H   0  0  0  0  0  0  0  0  0  0  0  0
  -34.7150  -14.2890   18.1960 C   0  0  0  0  0  0  0  0  0  0  0  0
  -34.9830  -14.3530   16.8530 C   0  0  0  0  0  0  0  0  0  0  0  0
  -35.9000  -13.2940   16.5850 C   0  0  0  0  0  0  0  0  0  0  0  0
  -35.4700  -13.2350   18.6820 N   0  0  0  0  0  0  0  0  0  0  0  0
  -36.1470  -12.6050   17.6910 N   0  0  0  0  0  0  0  0  0  0  0  0
  -36.6140  -12.9310   15.3550 C   0  0  0  0  0  0  0  0  0  0  0  0
  -36.5750  -11.6190   14.8300 C   0  0  0  0  0  3  0  0  0  0  0  0
  -37.2610  -11.3080   13.6360 C   0  0  0  0  0  3  0  0  0  0  0  0
  -37.9940  -12.3080   12.9540 C   0  0  0  0  0  0  0  0  0  0  0  0
  -38.0430  -13.6040   13.4910 C   0  0  0  0  0  3  0  0  0  0  0  0
  -37.3670  -13.9130   14.6820 C   0  0  0  0  0  3  0  0  0  0  0  0
  -38.7140  -12.0970   11.8040 O   0  0  0  0  0  0  0  0  0  0  0  0
  -38.3770  -11.1030   10.9210 C   0  0  0  0  0  0  0  0  0  0  0  0
  -37.0950  -11.0290   10.3350 C   0  0  0  0  0  3  0  0  0  0  0  0
  -36.8090  -10.0250    9.3890 C   0  0  0  0  0  3  0  0  0  0  0  0
  -37.8080   -9.1080    9.0130 C   0  0  0  0  0  0  0  0  0  0  0  0
  -39.0920   -9.1880    9.5870 C   0  0  0  0  0  3  0  0  0  0  0  0
  -39.3730  -10.1830   10.5390 C   0  0  0  0  0  0  0  0  0  0  0  0
  -40.6140  -10.2670   11.0760 F   0  0  0  0  0  0  0  0  0  0  0  0
  -37.5390   -8.1490    8.0970 F   0  0  0  0  0  0  0  0  0  0  0  0
  -34.4860  -15.3950   15.8910 C   0  0  0  0  0  0  0  0  0  0  0  0
  -34.3310  -15.0390   14.6200 N   0  0  0  0  0  0  0  0  0  0  0  0
  -34.1870  -16.5230   16.2720 O   0  0  0  0  0  0  0  0  0  0  0  0
  -34.5890  -14.1200   14.2960 H   0  0  0  0  0  0  0  0  0  0  0  0
  -33.9570  -15.7100   13.9680 H   0  0  0  0  0  0  0  0  0  0  0  0
  -33.9200  -15.0510   19.0490 N   0  0  0  0  0  0  0  0  0  0  0  0
  -33.3990  -15.8550   18.7130 H   0  0  0  0  0  0  0  0  0  0  0  0
  -33.9560  -14.9820   20.0560 H   0  0  0  0  0  0  0  0  0  0  0  0
  1  2  1  0
  2  4  2  0
  3  6  1  0
  3  2  1  0
  5  3  1  0
  7  6  1  0
  7  8  1  0
  9 10  1  0
  9  8  1  0
 11 12  1  0
 11 10  1  0
 12 14  1  0
 13 11  2  0
 15 12  1  0
 16 15  1  0
 16 28  1  0
 17 19  1  0
 17 16  1  0
 18 17  1  0
 20 17  1  0
 21 20  1  0
 22 21  1  0
 23 22  1  0
 24 23  1  0
 25 24  1  0
 26 27  1  0
 27 25  1  0
 29 30  1  0
 29 28  1  0
 31 30  1  0
 32 31  1  0
 33 43  1  0
 34 32  1  0
 35 45  1  0
 35 43  1  0
 35 42  1  0
 36 41  1  0
 37 38  1  0
 38 36  2  0
 38 39  1  0
 39 34  2  0
 40 34  1  0
 41 40  2  0
 42 36  1  0
 43 37  1  0
 44 33  2  0
 45 47  2  0
 46 45  1  0
 48 46  1  0
 49 54  1  0
 49 53  1  0
 50 46  1  0
 50 51  1  0
 52 51  1  0
 53 52  1  0
 54 50  1  0
 55 54  2  0
 56 55  1  0
 57 56  2  0
 57 58  1  0
 58 49  2  0
 59 33  1  0
 59 60  1  0
 60 62  1  1
 61 60  1  0
 63 60  1  0
 64 59  1  0
 65 64  1  0
 65 66  2  0
 67 64  1  0
 69 68  1  0
 69 65  1  0
 71 69  1  0
 71 70  1  0
 72 71  1  0
 73  1  1  0
 74 75  1  0
 74 76  2  0
 75 73  1  0
 77 75  1  0
 78 74  1  0
 79 81  2  0
 80 79  1  0
 80 78  1  0
 82 80  1  0
 83 84  1  0
 83 79  1  0
 85 84  1  0
 86 85  1  0
 86 87  1  0
 87 88  1  0
 87 89  1  0
 90 87  1  0
 90 91  1  0
 91 92  1  0
 92 93  1  0
 93 94  1  0
 94 95  1  0
 95 97  1  0
 96 98  2  0
 96100  1  0
 97 96  1  0
 99 97  1  0
100102  1  0
101103  2  0
101105  1  0
102101  1  0
104102  1  0
105114  1  0
106113  2  0
108107  1  0
109108  1  0
110119  1  0
110111  1  0
110109  1  0
111112  1  0
112107  1  0
112106  1  0
114106  1  0
114115  1  0
116119  1  0
116141  1  0
117116  2  0
118117  1  0
118120  2  0
120119  1  0
121118  1  0
122121  1  0
123122  2  0
124125  2  0
124123  1  0
125126  1  0
126121  2  0
127124  1  0
128127  1  0
129128  2  0
130129  1  0
131130  2  0
131132  1  0
132133  2  0
133128  1  0
133134  1  0
135131  1  0
136138  2  0
136117  1  0
137136  1  0
139137  1  0
140137  1  0
141143  1  0
142141  1  0
M  ISO  4  31 101  32 101 106 100 114 100
M  END
>  <TORSDO>  (19) 
F 56

>  <SCORE>  (19) 
46.474

>  <name>  (19) 
22

>  <ligand_id>  (19) 
22

>  <original_smiles>  (19) 
[H]c1c([H])c([H])c2c(c1[H])C([H])([H])C([H])([H])C([H])([H])C2([H])N([H])C(=O)C1([H])N(C(=O)C([H])(N([H])C(=O)C([H])(N([H])C([H])([H])[H])C([H])([H])[H])C(C([H])([H])[H])(C([H])([H])[H])C([H])([H])[H])C([H])([H])c2c([H])c(OC([H])([H])C([H])([H])OC([H])([H])C([H])(C([H])([H])N([H])C(=O)C([H])([H])C([H])([H])C([H])([H])C([H])([H])C([H])([H])N([H])C(=O)C([H])([H])C([H])([H])N([H])C(=O)C([H])([H])N([H])C(=O)C([H])([H])OC([H])([H])C([H])([H])[N+]([H])([H])C([H])([H])C([H])([H])C([H])([H])C([H])([H])C([H])([H])C([H])([H])N([H])C(=O)C([H])([H])N([H])C(=O)C([H])([H])N([H])C(=O)N3C([H])([H])C([H])([H])C([H])([H])C([H])(n4nc(-c5c([H])c([H])c(Oc6c([H])c([H])c(F)c([H])c6F)c([H])c5[H])c(C(=O)N([H])[H])c4N([H])[H])C3([H])[H])[N+]([H])([H])C([H])([H])C([H])([H])C([H])([H])OC([H])([H])C([H])([H])C([H])([H])C([H])([H])[H])c([H])c([H])c2C1([H])[H]

>  <smiles>  (19) 
[H]c1c([H])c([H])c2c(c1[H])C([H])([H])C([H])([H])C([H])([H])C2([H])N([H])C(=O)C1([H])N(C(=O)C([H])(N([H])C(=O)C([H])(N([H])C([H])([H])[H])C([H])([H])[H])C(C([H])([H])[H])(C([H])([H])[H])C([H])([H])[H])C([H])([H])c2c([H])c(OC([H])([H])C([H])([H])OC([H])([H])C([H])(C([H])([H])N([H])C(=O)C([H])([H])C([H])([H])C([H])([H])C([H])([H])C([H])([H])N([H])C(=O)C([H])([H])C([H])([H])N([H])C(=O)C([H])([H])N([H])C(=O)C([H])([H])OC([H])([H])C([H])([H])[N+]([H])([H])C([H])([H])C([H])([H])C([H])([H])C([H])([H])C([H])([H])C([H])([H])N([H])C(=O)C([H])([H])N([H])C(=O)C([H])([H])N([H])C(=O)N3C([H])([H])C([H])([H])C([H])([H])C([H])(n4nc(-c5c([H])c([H])c(Oc6c([H])c([H])c(F)c([H])c6F)c([H])c5[H])c(C(=O)N([H])[H])c4N([H])[H])C3([H])[H])[N+]([H])([H])C([H])([H])C([H])([H])C([H])([H])OC([H])([H])C([H])([H])C([H])([H])C([H])([H])[H])c([H])c([H])c2C1([H])[H]

$$$$
23:0:0
     RDKit          3D

112118  0  0  1  0  0  0  0  0999 V2000
  -19.9830  -17.8150   23.2750 C   0  0  0  0  0  2  0  0  0  0  0  0
  -21.3110  -18.4290   23.7410 C   0  0  0  0  0  0  0  0  0  0  0  0
  -21.9950  -19.1270   22.8310 N   0  0  0  0  0  0  0  0  0  0  0  0
  -21.7020  -18.2870   24.9030 O   0  0  0  0  0  0  0  0  0  0  0  0
  -21.5780  -19.2590   21.9190 H   0  0  0  0  0  0  0  0  0  0  0  0
  -23.2410  -19.8530   23.0650 C   0  0  0  0  0  2  0  0  0  0  0  0
  -23.1630  -21.2790   22.5080 C   0  0  0  0  0  0  0  0  0  0  0  0
  -24.2230  -22.0590   22.7330 N   0  0  0  0  0  0  0  0  0  0  0  0
  -22.1730  -21.6610   21.8790 O   0  0  0  0  0  0  0  0  0  0  0  0
  -24.9810  -21.6600   23.2710 H   0  0  0  0  0  0  0  0  0  0  0  0
  -24.4130  -23.4260   22.2520 C   0  0  0  0  0  2  0  0  0  0  0  0
  -25.5400  -23.4910   21.2040 C   0  0  0  0  0  2  0  0  0  0  0  0
  -26.3880  -24.5980   21.4800 O   0  0  0  0  0  0  0  0  0  0  0  0
  -27.6550  -24.4990   20.8370 C   0  0  0  0  0  2  0  0  0  0  0  0
  -28.4980  -25.7680   21.0950 C   0  0  0  0  0  2  0  0  0  0  0  0
  -28.3820  -26.7400   20.0570 O   0  0  0  0  0  0  0  0  0  0  0  0
  -24.6100  -31.8740   23.2150 C   0  0  0  0  0  0  0  0  0  0  0  0
  -27.2230  -27.4680   20.0950 C   0  0  0  0  0  0  0  0  0  0  0  0
  -23.3950  -30.4980   21.5570 C   0  0  0  0  0  3  0  0  0  0  0  0
  -24.8380  -28.9650   20.1190 C   0  0  0  0  0  0  0  0  0  0  0  0
  -25.9200  -30.8440   21.3650 C   0  0  0  0  0  2  0  0  0  0  0  0
  -25.9950  -29.4770   20.7230 C   0  0  0  0  0  0  0  0  0  0  0  0
  -27.1900  -28.7300   20.7190 C   0  0  0  0  0  3  0  0  0  0  0  0
  -26.0640  -26.9700   19.4670 C   0  0  0  0  0  3  0  0  0  0  0  0
  -24.8660  -27.7080   19.4880 C   0  0  0  0  0  3  0  0  0  0  0  0
  -23.5990  -29.8280   20.1710 C   0  0  0  0  0  2  0  0  0  0  0  0
  -24.6600  -31.0850   22.1050 N   0  0  0  0  0  0  0  0  0  0  0  0
  -23.5300  -32.1510   23.7560 O   0  0  0  0  0  0  0  0  0  0  0  0
  -22.7390  -29.4700   22.5060 C   0  0  0  0  0  0  0  0  0  0  0  0
  -21.4130  -29.3060   22.3800 N   0  0  0  0  0  0  0  0  0  0  0  0
  -23.4170  -28.8240   23.3100 O   0  0  0  0  0  0  0  0  0  0  0  0
  -20.9270  -29.8780   21.7020 H   0  0  0  0  0  0  0  0  0  0  0  0
  -18.0310  -28.1350   22.8510 C   0  0  0  0  0  0  0  0  0  0  0  0
  -20.5870  -28.3650   23.1360 C   0  0  0  0  0  3  0  0  0  0  0  0
  -20.6810  -26.9400   22.5410 C   0  0  0  0  0  2  0  0  0  0  0  0
  -19.5780  -26.6390   21.5220 C   0  0  0  0  0  2  0  0  0  0  0  0
  -18.1960  -26.7900   22.1660 C   0  0  0  0  0  2  0  0  0  0  0  0
  -19.1530  -28.8820   23.2930 C   0  0  0  0  0  0  0  0  0  0  0  0
  -18.9440  -30.1430   23.8920 C   0  0  0  0  0  3  0  0  0  0  0  0
  -17.6430  -30.6550   24.0560 C   0  0  0  0  0  3  0  0  0  0  0  0
  -16.5340  -29.9030   23.6310 C   0  0  0  0  0  3  0  0  0  0  0  0
  -16.7290  -28.6450   23.0340 C   0  0  0  0  0  3  0  0  0  0  0  0
  -25.9020  -32.4860   23.8440 C   0  0  0  0  0  3  0  0  0  0  0  0
  -26.4460  -31.6590   25.0730 C   0  0  1  0  0  0  0  0  0  0  0  0
  -25.3720  -31.3670   26.1470 C   0  0  0  0  0  1  0  0  0  0  0  0
  -27.0300  -30.3050   24.6030 C   0  0  0  0  0  1  0  0  0  0  0  0
  -27.6060  -32.4290   25.7470 C   0  0  0  0  0  1  0  0  0  0  0  0
  -25.5900  -33.8650   24.2380 N   0  0  0  0  0  0  0  0  0  0  0  0
  -25.9030  -34.9500   23.5160 C   0  0  0  0  0  0  0  0  0  0  0  0
  -26.5590  -34.8930   22.4720 O   0  0  0  0  0  0  0  0  0  0  0  0
  -25.0080  -33.9810   25.0540 H   0  0  0  0  0  0  0  0  0  0  0  0
  -24.1480  -36.7320   23.2640 C   0  0  0  0  0  1  0  0  0  0  0  0
  -25.4100  -36.3140   24.0350 C   0  0  0  0  0  3  0  0  0  0  0  0
  -27.5580  -37.1820   24.8480 C   0  0  0  0  0  1  0  0  0  0  0  0
  -26.4300  -37.3820   23.9410 N   0  0  0  0  0  0  0  0  0  0  0  0
  -26.0210  -38.2910   24.1370 H   0  0  0  0  0  0  0  0  0  0  0  0
  -19.7530  -15.5740   24.3090 C   0  0  0  0  0  0  0  0  0  0  0  0
  -19.4250  -16.8680   24.2430 N   0  0  0  0  0  0  0  0  0  0  0  0
  -20.5520  -15.0520   23.5330 O   0  0  0  0  0  0  0  0  0  0  0  0
  -18.7770  -17.2430   24.9210 H   0  0  0  0  0  0  0  0  0  0  0  0
  -19.0880  -14.7100   25.3810 C   0  0  0  0  0  2  0  0  0  0  0  0
  -18.5690  -13.3730   24.8060 C   0  0  0  0  0  2  0  0  0  0  0  0
  -19.6560  -12.4120   24.4920 N   0  0  0  0  0  4  0  0  0  0  0  0
  -20.0610  -12.0960   25.3600 H   0  0  0  0  0  0  0  0  0  0  0  0
  -20.3730  -12.9170   23.9890 H   0  0  0  0  0  0  0  0  0  0  0  0
  -19.2080  -11.2450   23.6920 C   0  0  0  0  0  2  0  0  0  0  0  0
  -20.2930  -10.1660   23.5310 C   0  0  0  0  0  2  0  0  0  0  0  0
  -21.1790  -10.4710   22.4510 O   0  0  0  0  0  0  0  0  0  0  0  0
  -22.4060   -9.6820   22.3910 C   0  0  0  0  0  1  0  0  0  0  0  0
  -24.0680   -9.0040   19.6780 C   0  0  0  0  0  1  0  0  0  0  0  0
  -25.2600  -10.0140   18.8090 C   0  0  0  0  0  3  0  0  0  0  0  0
  -25.3670  -11.6240   18.0870 C   0  0  0  0  0  3  0  0  0  0  0  0
  -26.6950  -12.5740   17.3670 C   0  0  0  0  0  2  0  0  0  0  0  0
  -27.6580  -14.0360   17.7260 C   0  0  0  0  0  2  0  0  0  0  0  0
  -30.0800  -14.3950   19.4910 C   0  0  0  0  0  0  0  0  0  0  0  0
  -30.5700  -12.1660   19.6170 C   0  0  0  0  0  2  0  0  0  0  0  0
  -29.5540  -11.7130   18.5770 C   0  0  0  0  0  2  0  0  0  0  0  0
  -28.2130  -11.6860   19.3500 C   0  0  0  0  0  2  0  0  0  0  0  0
  -27.7190  -12.9410   20.2330 C   0  0  0  0  0  3  0  0  0  0  0  0
  -28.8530  -13.1150   21.2010 C   0  0  0  0  0  2  0  0  0  0  0  0
  -29.9880  -13.3270   20.2850 N   0  0  0  0  0  0  0  0  0  0  0  0
  -31.1630  -15.0080   19.5990 O   0  0  0  0  0  0  0  0  0  0  0  0
  -29.1660  -14.4430   18.3350 N   0  0  0  0  0  0  0  0  0  0  0  0
  -29.5750  -15.1130   17.6970 H   0  0  0  0  0  0  0  0  0  0  0  0
  -25.3510  -13.9140   20.6860 C   0  0  0  0  0  0  0  0  0  0  0  0
  -24.2260  -13.2340   21.0350 C   0  0  0  0  0  0  0  0  0  0  0  0
  -24.6790  -11.9220   21.1180 C   0  0  0  0  0  0  0  0  0  0  0  0
  -26.3670  -12.9400   20.6640 N   0  0  0  0  0  0  0  0  0  0  0  0
  -25.9590  -11.7610   21.0400 N   0  0  0  0  0  0  0  0  0  0  0  0
  -23.9720  -10.7700   21.1300 C   0  0  0  0  0  0  0  0  0  0  0  0
  -24.6730   -9.4380   21.8920 C   0  0  0  0  0  3  0  0  0  0  0  0
  -23.9080   -7.9730   21.8230 C   0  0  0  0  0  3  0  0  0  0  0  0
  -22.4730   -7.8070   21.0100 C   0  0  0  0  0  0  0  0  0  0  0  0
  -21.7810   -9.0980   20.2200 C   0  0  0  0  0  3  0  0  0  0  0  0
  -22.5210  -10.6030   20.2580 C   0  0  0  0  0  3  0  0  0  0  0  0
  -21.6290   -6.7550   21.2760 O   0  0  0  0  0  0  0  0  0  0  0  0
  -21.6860   -6.0240   22.4500 C   0  0  0  0  0  0  0  0  0  0  0  0
  -21.3490   -6.5140   23.7410 C   0  0  0  0  0  3  0  0  0  0  0  0
  -21.3430   -5.6600   24.8610 C   0  0  0  0  0  3  0  0  0  0  0  0
  -21.6240   -4.2930   24.7000 C   0  0  0  0  0  0  0  0  0  0  0  0
  -21.9210   -3.7890   23.4230 C   0  0  0  0  0  3  0  0  0  0  0  0
  -21.9520   -4.6510   22.3120 C   0  0  0  0  0  0  0  0  0  0  0  0
  -22.1960   -4.1510   21.0780 F   0  0  0  0  0  0  0  0  0  0  0  0
  -21.5800   -3.4580   25.7650 F   0  0  0  0  0  0  0  0  0  0  0  0
  -22.8120  -13.7030   21.1740 C   0  0  0  0  0  0  0  0  0  0  0  0
  -22.0130  -13.0120   21.9750 N   0  0  0  0  0  0  0  0  0  0  0  0
  -22.4040  -14.7070   20.6070 O   0  0  0  0  0  0  0  0  0  0  0  0
  -22.2460  -12.0820   22.2980 H   0  0  0  0  0  0  0  0  0  0  0  0
  -21.0830  -13.3820   22.0970 H   0  0  0  0  0  0  0  0  0  0  0  0
  -25.5600  -15.2510   20.3800 N   0  0  0  0  0  0  0  0  0  0  0  0
  -24.8130  -15.9360   20.3610 H   0  0  0  0  0  0  0  0  0  0  0  0
  -26.4590  -15.6450   20.1360 H   0  0  0  0  0  0  0  0  0  0  0  0
  1  2  1  0
  1 58  1  0
  2  4  2  0
  3  6  1  0
  3  2  1  0
  5  3  1  0
  7  8  1  0
  7  6  1  0
  8 10  1  0
  9  7  2  0
 11  8  1  0
 12 13  1  0
 12 11  1  0
 14 15  1  0
 14 13  1  0
 16 18  1  0
 16 15  1  0
 17 28  2  0
 18 23  1  0
 19 27  1  0
 19 29  1  0
 20 26  1  0
 20 22  1  0
 21 27  1  0
 22 21  1  0
 23 22  2  0
 24 25  1  0
 24 18  2  0
 25 20  2  0
 26 19  1  0
 27 17  1  0
 29 31  2  0
 30 29  1  0
 32 30  1  0
 33 42  2  0
 33 38  1  0
 34 30  1  0
 34 38  1  0
 35 34  1  0
 36 37  1  0
 36 35  1  0
 37 33  1  0
 38 39  2  0
 39 40  1  0
 41 40  2  0
 42 41  1  0
 43 17  1  0
 43 48  1  0
 43 44  1  0
 44 47  1  1
 44 45  1  0
 46 44  1  0
 48 51  1  0
 49 53  1  0
 49 48  1  0
 50 49  2  0
 53 52  1  0
 55 53  1  0
 55 56  1  0
 55 54  1  0
 57 61  1  0
 58 57  1  0
 58 60  1  0
 59 57  2  0
 62 61  1  0
 63 62  1  0
 63 64  1  0
 65 63  1  0
 66 63  1  0
 67 66  1  0
 68 67  1  0
 69 68  1  0
 71 70  1  0
 72 71  2  0
 73 74  1  0
 73 72  1  0
 74 83  1  0
 75 82  2  0
 75 81  1  0
 76 81  1  0
 77 78  1  0
 77 76  1  0
 79 78  1  0
 79 88  1  0
 79 80  1  0
 81 80  1  0
 83 75  1  0
 84 83  1  0
 85 86  2  0
 86 87  1  0
 86105  1  0
 87 90  1  0
 88 85  1  0
 88 89  1  0
 89 87  2  0
 90 91  1  0
 92 91  2  0
 93 96  1  0
 93 92  1  0
 94 95  1  0
 94 93  2  0
 95 90  2  0
 96 97  1  0
 97 98  1  0
 98 99  2  0
100 99  1  0
100104  1  0
101100  2  0
102 97  2  0
102101  1  0
103102  1  0
105106  1  0
106109  1  0
106108  1  0
107105  2  0
110 85  1  0
111110  1  0
112110  1  0
M  ISO  4  15 101  16 101  75 100  83 100
M  END
>  <TORSDO>  (20) 
F 37

>  <SCORE>  (20) 
69.056

>  <name>  (20) 
23

>  <ligand_id>  (20) 
23

>  <original_smiles>  (20) 
[H]c1c([H])c([H])c2c(c1[H])C([H])([H])C([H])([H])C([H])([H])C2([H])N([H])C(=O)C1([H])N(C(=O)C([H])(N([H])C(=O)C([H])(N([H])C([H])([H])[H])C([H])([H])[H])C(C([H])([H])[H])(C([H])([H])[H])C([H])([H])[H])C([H])([H])c2c([H])c(OC([H])([H])C([H])([H])OC([H])([H])C([H])([H])N([H])C(=O)C([H])([H])N([H])C(=O)C([H])([H])N([H])C(=O)C([H])([H])C([H])([H])[N+]([H])([H])C([H])([H])C([H])([H])OC([H])([H])C([H])([H])C([H])([H])C([H])([H])C([H])([H])C([H])([H])N([H])C(=O)N3C([H])([H])C([H])([H])C([H])([H])C([H])(n4nc(-c5c([H])c([H])c(Oc6c([H])c([H])c(F)c([H])c6F)c([H])c5[H])c(C(=O)N([H])[H])c4N([H])[H])C3([H])[H])c([H])c([H])c2C1([H])[H]

>  <smiles>  (20) 
[H]c1c([H])c([H])c2c(c1[H])C([H])([H])C([H])([H])C([H])([H])C2([H])N([H])C(=O)C1([H])N(C(=O)C([H])(N([H])C(=O)C([H])(N([H])C([H])([H])[H])C([H])([H])[H])C(C([H])([H])[H])(C([H])([H])[H])C([H])([H])[H])C([H])([H])c2c([H])c(OC([H])([H])C([H])([H])OC([H])([H])C([H])([H])N([H])C(=O)C([H])([H])N([H])C(=O)C([H])([H])N([H])C(=O)C([H])([H])C([H])([H])[N+]([H])([H])C([H])([H])C([H])([H])OC([H])([H])C([H])([H])C([H])([H])C([H])([H])C([H])([H])C([H])([H])N([H])C(=O)N3C([H])([H])C([H])([H])C([H])([H])C([H])(n4nc(-c5c([H])c([H])c(Oc6c([H])c([H])c(F)c([H])c6F)c([H])c5[H])c(C(=O)N([H])[H])c4N([H])[H])C3([H])[H])c([H])c([H])c2C1([H])[H]

$$$$
24:0:0
     RDKit          3D

119126  0  0  1  0  0  0  0  0999 V2000
  -23.7520  -28.9870   30.3260 C   0  0  0  0  0  0  0  0  0  0  0  0
  -23.6340  -29.9680   31.2280 N   0  0  0  0  0  0  0  0  0  0  0  0
  -23.2770  -27.8750   30.5560 O   0  0  0  0  0  0  0  0  0  0  0  0
  -23.1480  -29.7520   32.0890 H   0  0  0  0  0  0  0  0  0  0  0  0
  -24.2240  -31.3030   31.1930 C   0  0  0  0  0  2  0  0  0  0  0  0
  -24.0980  -31.9550   32.5780 C   0  0  0  0  0  0  0  0  0  0  0  0
  -24.9600  -32.9180   32.9400 N   0  0  0  0  0  0  0  0  0  0  0  0
  -23.1980  -31.5990   33.3380 O   0  0  0  0  0  0  0  0  0  0  0  0
  -24.8360  -33.3170   33.8610 H   0  0  0  0  0  0  0  0  0  0  0  0
  -26.0290  -33.5000   32.1290 C   0  0  0  0  0  2  0  0  0  0  0  0
  -27.3960  -32.8240   32.3800 C   0  0  0  0  0  2  0  0  0  0  0  0
  -28.4890  -33.3080   31.4040 C   0  0  0  0  0  2  0  0  0  0  0  0
  -29.1970  -32.1760   30.6180 C   0  0  0  0  0  2  0  0  0  0  0  0
  -30.2620  -32.6920   29.6210 C   0  0  0  0  0  2  0  0  0  0  0  0
  -31.1080  -31.5960   28.9340 C   0  0  0  0  0  2  0  0  0  0  0  0
  -31.8610  -32.0920   27.6780 C   0  0  0  0  0  2  0  0  0  0  0  0
  -32.8740  -31.0760   27.1150 C   0  0  0  0  0  2  0  0  0  0  0  0
  -32.2740  -29.9460   26.2460 C   0  0  0  0  0  2  0  0  0  0  0  0
  -32.2750  -30.2860   24.7410 C   0  0  0  0  0  2  0  0  0  0  0  0
  -31.7060  -29.1540   23.8630 C   0  0  0  0  0  2  0  0  0  0  0  0
  -31.6740  -29.4860   22.4640 O   0  0  0  0  0  0  0  0  0  0  0  0
  -25.4900  -32.4750   24.0070 C   0  0  0  0  0  0  0  0  0  0  0  0
  -30.3890  -29.6870   22.0330 C   0  0  0  0  0  0  0  0  0  0  0  0
  -25.4120  -30.6960   22.2940 C   0  0  0  0  0  3  0  0  0  0  0  0
  -27.6700  -29.9530   21.3640 C   0  0  0  0  0  0  0  0  0  0  0  0
  -27.4960  -32.1410   22.5690 C   0  0  0  0  0  2  0  0  0  0  0  0
  -28.3090  -30.9470   22.1140 C   0  0  0  0  0  0  0  0  0  0  0  0
  -29.6670  -30.8250   22.4440 C   0  0  0  0  0  3  0  0  0  0  0  0
  -29.7530  -28.7000   21.2550 C   0  0  0  0  0  3  0  0  0  0  0  0
  -28.3880  -28.8250   20.9200 C   0  0  0  0  0  3  0  0  0  0  0  0
  -26.2050  -30.1770   21.0640 C   0  0  0  0  0  2  0  0  0  0  0  0
  -26.1320  -31.7900   23.0200 N   0  0  0  0  0  0  0  0  0  0  0  0
  -24.3020  -32.2500   24.2760 O   0  0  0  0  0  0  0  0  0  0  0  0
  -25.0490  -29.4890   23.1900 C   0  0  0  0  0  0  0  0  0  0  0  0
  -23.9950  -28.7620   22.7940 N   0  0  0  0  0  0  0  0  0  0  0  0
  -25.7210  -29.2140   24.1870 O   0  0  0  0  0  0  0  0  0  0  0  0
  -23.4780  -29.0760   21.9840 H   0  0  0  0  0  0  0  0  0  0  0  0
  -21.4620  -26.1890   22.6090 C   0  0  0  0  0  0  0  0  0  0  0  0
  -23.4930  -27.5520   23.4390 C   0  0  0  0  0  3  0  0  0  0  0  0
  -24.3470  -26.3150   23.0600 C   0  0  0  0  0  2  0  0  0  0  0  0
  -23.7930  -25.5300   21.8650 C   0  0  0  0  0  2  0  0  0  0  0  0
  -22.3710  -25.0510   22.1690 C   0  0  0  0  0  2  0  0  0  0  0  0
  -21.9930  -27.3700   23.1930 C   0  0  0  0  0  0  0  0  0  0  0  0
  -21.1110  -28.4080   23.5640 C   0  0  0  0  0  3  0  0  0  0  0  0
  -19.7230  -28.2740   23.3680 C   0  0  0  0  0  3  0  0  0  0  0  0
  -19.1990  -27.0960   22.8050 C   0  0  0  0  0  3  0  0  0  0  0  0
  -20.0690  -26.0560   22.4290 C   0  0  0  0  0  3  0  0  0  0  0  0
  -26.2030  -33.5890   24.8280 C   0  0  0  0  0  3  0  0  0  0  0  0
  -26.6970  -33.0800   26.2330 C   0  0  1  0  0  0  0  0  0  0  0  0
  -25.6100  -32.3550   27.0660 C   0  0  0  0  0  1  0  0  0  0  0  0
  -27.8830  -32.0990   26.0730 C   0  0  0  0  0  1  0  0  0  0  0  0
  -27.2120  -34.2740   27.0540 C   0  0  0  0  0  1  0  0  0  0  0  0
  -25.2620  -34.7070   24.9780 N   0  0  0  0  0  0  0  0  0  0  0  0
  -25.2710  -35.8190   24.2360 C   0  0  0  0  0  0  0  0  0  0  0  0
  -26.1350  -36.0560   23.3850 O   0  0  0  0  0  0  0  0  0  0  0  0
  -24.5020  -34.5650   25.6250 H   0  0  0  0  0  0  0  0  0  0  0  0
  -23.0560  -36.6910   23.4120 C   0  0  0  0  0  1  0  0  0  0  0  0
  -24.1520  -36.8490   24.4780 C   0  0  0  0  0  3  0  0  0  0  0  0
  -25.4110  -38.5860   25.6470 C   0  0  0  0  0  1  0  0  0  0  0  0
  -24.6660  -38.2280   24.4450 N   0  0  0  0  0  0  0  0  0  0  0  0
  -25.2950  -38.3140   23.6490 H   0  0  0  0  0  0  0  0  0  0  0  0
  -24.4530  -29.2500   28.9840 C   0  0  0  0  0  2  0  0  0  0  0  0
  -25.7470  -27.9450   27.3380 C   0  0  0  0  0  0  0  0  0  0  0  0
  -25.0760  -28.0280   28.4890 N   0  0  0  0  0  0  0  0  0  0  0  0
  -25.8850  -28.9220   26.5960 O   0  0  0  0  0  0  0  0  0  0  0  0
  -24.9360  -27.2030   29.0590 H   0  0  0  0  0  0  0  0  0  0  0  0
  -26.3400  -26.5830   26.9440 C   0  0  0  0  0  2  0  0  0  0  0  0
  -27.9750  -26.8270   25.0710 C   0  0  0  0  0  0  0  0  0  0  0  0
  -26.7430  -26.5830   25.5350 N   0  0  0  0  0  0  0  0  0  0  0  0
  -28.9610  -26.8870   25.8100 O   0  0  0  0  0  0  0  0  0  0  0  0
  -25.9850  -26.5940   24.8700 H   0  0  0  0  0  0  0  0  0  0  0  0
  -28.1090  -27.0790   23.5600 C   0  0  0  0  0  2  0  0  0  0  0  0
  -30.2360  -26.4490   22.4030 C   0  0  0  0  0  0  0  0  0  0  0  0
  -29.5060  -27.2770   23.1570 N   0  0  0  0  0  0  0  0  0  0  0  0
  -29.7710  -25.4200   21.9000 O   0  0  0  0  0  0  0  0  0  0  0  0
  -29.9790  -28.0710   23.5620 H   0  0  0  0  0  0  0  0  0  0  0  0
  -31.7120  -26.8390   22.1860 C   0  0  0  0  0  2  0  0  0  0  0  0
  -32.3330  -25.9600   21.2510 O   0  0  0  0  0  0  0  0  0  0  0  0
  -33.7070  -26.2520   21.0150 C   0  0  0  0  0  2  0  0  0  0  0  0
  -34.2470  -25.2070   20.0300 C   0  0  0  0  0  2  0  0  0  0  0  0
  -35.7150  -25.4330   19.6280 C   0  0  0  0  0  2  0  0  0  0  0  0
  -37.0870  -24.4520   17.7700 C   0  0  0  0  0  0  0  0  0  0  0  0
  -37.9000  -23.4450   15.6700 C   0  0  0  0  0  2  0  0  0  0  0  0
  -36.9870  -23.8530   14.4970 C   0  0  0  0  0  2  0  0  0  0  0  0
  -35.7950  -22.8890   14.3710 C   0  0  0  0  0  2  0  0  0  0  0  0
  -35.0620  -22.6680   15.7200 C   0  0  0  0  0  3  0  0  0  0  0  0
  -36.0770  -22.3370   16.8360 C   0  0  0  0  0  2  0  0  0  0  0  0
  -37.0820  -23.4170   16.8910 N   0  0  0  0  0  0  0  0  0  0  0  0
  -37.8590  -25.4100   17.6950 O   0  0  0  0  0  0  0  0  0  0  0  0
  -36.1360  -24.3770   18.7110 N   0  0  0  0  0  0  0  0  0  0  0  0
  -35.5800  -23.5370   18.7010 H   0  0  0  0  0  0  0  0  0  0  0  0
  -32.6760  -21.7150   15.9100 C   0  0  0  0  0  0  0  0  0  0  0  0
  -32.1480  -20.4970   15.5650 C   0  0  0  0  0  0  0  0  0  0  0  0
  -33.2360  -19.7270   15.0520 C   0  0  0  0  0  0  0  0  0  0  0  0
  -34.0290  -21.6410   15.6100 N   0  0  0  0  0  0  0  0  0  0  0  0
  -34.3680  -20.4150   15.1390 N   0  0  0  0  0  0  0  0  0  0  0  0
  -33.2550  -18.3950   14.4310 C   0  0  0  0  0  0  0  0  0  0  0  0
  -34.1510  -17.3940   14.8640 C   0  0  0  0  0  3  0  0  0  0  0  0
  -34.1400  -16.1150   14.2660 C   0  0  0  0  0  3  0  0  0  0  0  0
  -33.2260  -15.8280   13.2260 C   0  0  0  0  0  0  0  0  0  0  0  0
  -32.3480  -16.8330   12.7850 C   0  0  0  0  0  3  0  0  0  0  0  0
  -32.3630  -18.1060   13.3790 C   0  0  0  0  0  3  0  0  0  0  0  0
  -33.1670  -14.6250   12.5640 O   0  0  0  0  0  0  0  0  0  0  0  0
  -33.5850  -13.4570   13.1510 C   0  0  0  0  0  0  0  0  0  0  0  0
  -33.0610  -13.0160   14.3850 C   0  0  0  0  0  3  0  0  0  0  0  0
  -33.4670  -11.7760   14.9220 C   0  0  0  0  0  3  0  0  0  0  0  0
  -34.3880  -10.9740   14.2200 C   0  0  0  0  0  0  0  0  0  0  0  0
  -34.9050  -11.4090   12.9870 C   0  0  0  0  0  3  0  0  0  0  0  0
  -34.5000  -12.6450   12.4530 C   0  0  0  0  0  0  0  0  0  0  0  0
  -34.9880  -13.0500   11.2550 F   0  0  0  0  0  0  0  0  0  0  0  0
  -34.7690   -9.7800   14.7290 F   0  0  0  0  0  0  0  0  0  0  0  0
  -30.7010  -20.1030   15.6210 C   0  0  0  0  0  0  0  0  0  0  0  0
  -30.4180  -18.8210   15.8370 N   0  0  0  0  0  0  0  0  0  0  0  0
  -29.8050  -20.9390   15.5210 O   0  0  0  0  0  0  0  0  0  0  0  0
  -31.1510  -18.1370   15.9480 H   0  0  0  0  0  0  0  0  0  0  0  0
  -29.4540  -18.5280   15.9050 H   0  0  0  0  0  0  0  0  0  0  0  0
  -32.1150  -22.8740   16.4330 N   0  0  0  0  0  0  0  0  0  0  0  0
  -31.1200  -22.9430   16.6170 H   0  0  0  0  0  0  0  0  0  0  0  0
  -32.6200  -23.7320   16.6150 H   0  0  0  0  0  0  0  0  0  0  0  0
  1  3  2  0
  1  2  1  0
  2  4  1  0
  5  2  1  0
  5  6  1  0
  6  7  1  0
  6  8  2  0
  7  9  1  0
 10 11  1  0
 10  7  1  0
 12 11  1  0
 13 12  1  0
 14 13  1  0
 15 14  1  0
 16 15  1  0
 17 16  1  0
 18 17  1  0
 19 18  1  0
 20 19  1  0
 21 20  1  0
 22 33  2  0
 23 28  1  0
 23 21  1  0
 24 32  1  0
 24 34  1  0
 25 27  1  0
 26 32  1  0
 27 28  2  0
 27 26  1  0
 29 23  2  0
 30 29  1  0
 30 25  2  0
 31 25  1  0
 31 24  1  0
 32 22  1  0
 34 36  2  0
 35 34  1  0
 37 35  1  0
 38 43  1  0
 39 35  1  0
 40 39  1  0
 41 42  1  0
 41 40  1  0
 42 38  1  0
 43 39  1  0
 43 44  2  0
 45 44  1  0
 46 45  2  0
 47 38  2  0
 47 46  1  0
 48 22  1  0
 48 53  1  0
 48 49  1  0
 49 52  1  1
 49 50  1  0
 51 49  1  0
 53 56  1  0
 54 58  1  0
 54 53  1  0
 55 54  2  0
 58 57  1  0
 60 58  1  0
 60 59  1  0
 61 60  1  0
 62  1  1  0
 63 64  1  0
 64 62  1  0
 64 66  1  0
 65 63  2  0
 67 63  1  0
 68 69  1  0
 68 70  2  0
 69 67  1  0
 71 69  1  0
 72 68  1  0
 73 74  1  0
 74 72  1  0
 74 76  1  0
 75 73  2  0
 77 73  1  0
 78 77  1  0
 79 78  1  0
 80 79  1  0
 81 80  1  0
 82 90  1  0
 83 88  1  0
 84 83  1  0
 85 84  1  0
 86 85  1  0
 86 87  1  0
 87 88  1  0
 88 82  1  0
 89 82  2  0
 90 81  1  0
 91 90  1  0
 92117  1  0
 93112  1  0
 93 92  2  0
 94 96  2  0
 94 93  1  0
 95 86  1  0
 95 92  1  0
 96 95  1  0
 97 98  1  0
 97 94  1  0
 99 98  2  0
100 99  1  0
101100  2  0
101102  1  0
102 97  2  0
103104  1  0
103100  1  0
104105  1  0
105106  2  0
107111  1  0
107106  1  0
108107  2  0
109108  1  0
109104  2  0
110109  1  0
112113  1  0
113116  1  0
113115  1  0
114112  2  0
117119  1  0
117118  1  0
M  ISO  4  20 101  21 101  82 100  90 100
M  END
>  <TORSDO>  (21) 
F 40

>  <SCORE>  (21) 
7.021

>  <name>  (21) 
24

>  <ligand_id>  (21) 
24

>  <original_smiles>  (21) 
[H]c1c([H])c([H])c2c(c1[H])C([H])([H])C([H])([H])C([H])([H])C2([H])N([H])C(=O)C1([H])N(C(=O)C([H])(N([H])C(=O)C([H])(N([H])C([H])([H])[H])C([H])([H])[H])C(C([H])([H])[H])(C([H])([H])[H])C([H])([H])[H])C([H])([H])c2c([H])c(OC([H])([H])C([H])([H])C([H])([H])C([H])([H])C([H])([H])C([H])([H])C([H])([H])C([H])([H])C([H])([H])C([H])([H])C([H])([H])N([H])C(=O)C([H])([H])N([H])C(=O)C([H])([H])N([H])C(=O)C([H])([H])N([H])C(=O)C([H])([H])N([H])C(=O)C([H])([H])OC([H])([H])C([H])([H])C([H])([H])N([H])C(=O)N3C([H])([H])C([H])([H])C([H])([H])C([H])(n4nc(-c5c([H])c([H])c(Oc6c([H])c([H])c(F)c([H])c6F)c([H])c5[H])c(C(=O)N([H])[H])c4N([H])[H])C3([H])[H])c([H])c([H])c2C1([H])[H]

>  <smiles>  (21) 
[H]c1c([H])c([H])c2c(c1[H])C([H])([H])C([H])([H])C([H])([H])C2([H])N([H])C(=O)C1([H])N(C(=O)C([H])(N([H])C(=O)C([H])(N([H])C([H])([H])[H])C([H])([H])[H])C(C([H])([H])[H])(C([H])([H])[H])C([H])([H])[H])C([H])([H])c2c([H])c(OC([H])([H])C([H])([H])C([H])([H])C([H])([H])C([H])([H])C([H])([H])C([H])([H])C([H])([H])C([H])([H])C([H])([H])C([H])([H])N([H])C(=O)C([H])([H])N([H])C(=O)C([H])([H])N([H])C(=O)C([H])([H])N([H])C(=O)C([H])([H])N([H])C(=O)C([H])([H])OC([H])([H])C([H])([H])C([H])([H])N([H])C(=O)N3C([H])([H])C([H])([H])C([H])([H])C([H])(n4nc(-c5c([H])c([H])c(Oc6c([H])c([H])c(F)c([H])c6F)c([H])c5[H])c(C(=O)N([H])[H])c4N([H])[H])C3([H])[H])c([H])c([H])c2C1([H])[H]

$$$$
25:0:0
     RDKit          3D

116123  0  0  1  0  0  0  0  0999 V2000
  -35.7120  -28.0380   19.8340 C   0  0  0  0  0  2  0  0  0  0  0  0
  -34.8350  -28.1970   21.0830 C   0  0  0  0  0  0  0  0  0  0  0  0
  -34.1470  -29.3360   21.1980 N   0  0  0  0  0  0  0  0  0  0  0  0
  -34.7940  -27.3160   21.9470 O   0  0  0  0  0  0  0  0  0  0  0  0
  -34.1920  -30.0050   20.4420 H   0  0  0  0  0  0  0  0  0  0  0  0
  -33.2660  -29.6560   22.3190 C   0  0  0  0  0  2  0  0  0  0  0  0
  -31.8590  -29.1190   22.0630 C   0  0  0  0  0  0  0  0  0  0  0  0
  -31.4440  -28.1080   22.8360 N   0  0  0  0  0  0  0  0  0  0  0  0
  -31.1620  -29.6160   21.1760 O   0  0  0  0  0  0  0  0  0  0  0  0
  -32.0900  -27.7620   23.5340 H   0  0  0  0  0  0  0  0  0  0  0  0
  -30.1380  -27.4650   22.7580 C   0  0  0  0  0  2  0  0  0  0  0  0
  -29.9460  -26.6700   21.4550 C   0  0  0  0  0  2  0  0  0  0  0  0
  -30.4330  -25.2090   21.5120 C   0  0  0  0  0  2  0  0  0  0  0  0
  -29.7100  -24.3290   20.4770 C   0  0  0  0  0  2  0  0  0  0  0  0
  -29.9140  -22.8160   20.6680 C   0  0  0  0  0  2  0  0  0  0  0  0
  -28.7480  -21.9560   20.1260 C   0  0  0  0  0  2  0  0  0  0  0  0
  -28.6180  -21.8810   18.5880 C   0  0  0  0  0  2  0  0  0  0  0  0
  -28.6570  -23.1600   17.9620 O   0  0  0  0  0  0  0  0  0  0  0  0
  -25.0670  -27.6730   22.0860 C   0  0  0  0  0  0  0  0  0  0  0  0
  -27.5430  -23.9520   18.0960 C   0  0  0  0  0  0  0  0  0  0  0  0
  -23.9140  -26.9880   20.0030 C   0  0  0  0  0  3  0  0  0  0  0  0
  -25.3360  -25.6960   18.3270 C   0  0  0  0  0  0  0  0  0  0  0  0
  -26.4640  -27.0180   20.1330 C   0  0  0  0  0  2  0  0  0  0  0  0
  -26.4630  -25.8800   19.1350 C   0  0  0  0  0  0  0  0  0  0  0  0
  -27.5730  -25.0250   19.0060 C   0  0  0  0  0  3  0  0  0  0  0  0
  -26.3990  -23.7640   17.2890 C   0  0  0  0  0  3  0  0  0  0  0  0
  -25.2970  -24.6380   17.3990 C   0  0  0  0  0  3  0  0  0  0  0  0
  -24.2060  -26.6820   18.5090 C   0  0  0  0  0  2  0  0  0  0  0  0
  -25.1600  -27.2190   20.8030 N   0  0  0  0  0  0  0  0  0  0  0  0
  -23.9670  -27.9430   22.5880 O   0  0  0  0  0  0  0  0  0  0  0  0
  -23.0270  -25.8560   20.5660 C   0  0  0  0  0  0  0  0  0  0  0  0
  -21.7100  -25.9510   20.3170 N   0  0  0  0  0  0  0  0  0  0  0  0
  -23.5230  -24.9070   21.1780 O   0  0  0  0  0  0  0  0  0  0  0  0
  -21.3820  -26.7630   19.8130 H   0  0  0  0  0  0  0  0  0  0  0  0
  -18.1640  -25.2730   20.2380 C   0  0  0  0  0  0  0  0  0  0  0  0
  -20.6890  -24.9820   20.7090 C   0  0  0  0  0  3  0  0  0  0  0  0
  -20.6360  -23.7990   19.7140 C   0  0  0  0  0  2  0  0  0  0  0  0
  -19.6080  -23.9980   18.5960 C   0  0  0  0  0  2  0  0  0  0  0  0
  -18.2050  -24.1830   19.1810 C   0  0  0  0  0  2  0  0  0  0  0  0
  -19.3350  -25.6600   20.9440 C   0  0  0  0  0  0  0  0  0  0  0  0
  -19.2510  -26.7040   21.8900 C   0  0  0  0  0  3  0  0  0  0  0  0
  -18.0270  -27.3540   22.1380 C   0  0  0  0  0  3  0  0  0  0  0  0
  -16.8690  -26.9550   21.4500 C   0  0  0  0  0  3  0  0  0  0  0  0
  -16.9380  -25.9170   20.5050 C   0  0  0  0  0  3  0  0  0  0  0  0
  -26.3300  -27.8960   22.9760 C   0  0  0  0  0  3  0  0  0  0  0  0
  -26.5860  -26.7220   23.9980 C   0  0  1  0  0  0  0  0  0  0  0  0
  -25.3510  -26.3650   24.8550 C   0  0  0  0  0  1  0  0  0  0  0  0
  -27.0190  -25.4410   23.2480 C   0  0  0  0  0  1  0  0  0  0  0  0
  -27.7410  -27.1030   24.9540 C   0  0  0  0  0  1  0  0  0  0  0  0
  -26.1560  -29.1750   23.6770 N   0  0  0  0  0  0  0  0  0  0  0  0
  -26.7640  -30.3190   23.3350 C   0  0  0  0  0  0  0  0  0  0  0  0
  -27.5920  -30.3890   22.4220 O   0  0  0  0  0  0  0  0  0  0  0  0
  -25.4380  -29.2060   24.3870 H   0  0  0  0  0  0  0  0  0  0  0  0
  -25.3770  -32.4180   23.3330 C   0  0  0  0  0  1  0  0  0  0  0  0
  -26.3940  -31.5860   24.1300 C   0  0  0  0  0  3  0  0  0  0  0  0
  -28.4490  -31.8050   25.4580 C   0  0  0  0  0  1  0  0  0  0  0  0
  -27.5630  -32.4250   24.4750 N   0  0  0  0  0  0  0  0  0  0  0  0
  -27.2660  -33.3270   24.8390 H   0  0  0  0  0  0  0  0  0  0  0  0
  -35.2320  -25.7460   18.9900 C   0  0  0  0  0  0  0  0  0  0  0  0
  -36.0390  -26.6370   19.5750 N   0  0  0  0  0  0  0  0  0  0  0  0
  -34.1390  -26.0560   18.5090 O   0  0  0  0  0  0  0  0  0  0  0  0
  -36.9070  -26.3010   19.9670 H   0  0  0  0  0  0  0  0  0  0  0  0
  -35.7370  -24.2980   18.9440 C   0  0  0  0  0  2  0  0  0  0  0  0
  -33.7260  -22.8820   18.5410 C   0  0  0  0  0  0  0  0  0  0  0  0
  -34.8760  -23.4330   18.1390 N   0  0  0  0  0  0  0  0  0  0  0  0
  -33.2720  -23.0440   19.6770 O   0  0  0  0  0  0  0  0  0  0  0  0
  -35.1630  -23.2810   17.1820 H   0  0  0  0  0  0  0  0  0  0  0  0
  -32.9760  -22.0250   17.5110 C   0  0  0  0  0  2  0  0  0  0  0  0
  -32.0980  -20.1050   18.8280 C   0  0  0  0  0  0  0  0  0  0  0  0
  -31.9140  -21.2220   18.1170 N   0  0  0  0  0  0  0  0  0  0  0  0
  -33.2140  -19.6040   18.9970 O   0  0  0  0  0  0  0  0  0  0  0  0
  -30.9730  -21.5820   18.0450 H   0  0  0  0  0  0  0  0  0  0  0  0
  -30.8450  -19.4690   19.4450 C   0  0  0  0  0  2  0  0  0  0  0  0
  -30.8670  -17.0510   20.0590 C   0  0  0  0  0  0  0  0  0  0  0  0
  -31.1700  -18.3280   20.3020 N   0  0  0  0  0  0  0  0  0  0  0  0
  -30.2220  -16.6930   19.0710 O   0  0  0  0  0  0  0  0  0  0  0  0
  -31.7380  -18.5290   21.1140 H   0  0  0  0  0  0  0  0  0  0  0  0
  -31.3500  -16.0330   21.1000 C   0  0  0  0  0  2  0  0  0  0  0  0
  -31.0700  -13.8410   19.9570 C   0  0  0  0  0  0  0  0  0  0  0  0
  -30.5250  -11.6660   18.9280 C   0  0  0  0  0  2  0  0  0  0  0  0
  -29.5070  -11.8240   17.7840 C   0  0  0  0  0  2  0  0  0  0  0  0
  -28.0660  -11.8050   18.3250 C   0  0  0  0  0  2  0  0  0  0  0  0
  -27.8670  -12.7750   19.5190 C   0  0  0  0  0  3  0  0  0  0  0  0
  -28.9780  -12.5740   20.5730 C   0  0  0  0  0  2  0  0  0  0  0  0
  -30.2870  -12.7330   19.9100 N   0  0  0  0  0  0  0  0  0  0  0  0
  -32.0400  -14.0250   19.2150 O   0  0  0  0  0  0  0  0  0  0  0  0
  -30.7430  -14.7180   20.9110 N   0  0  0  0  0  0  0  0  0  0  0  0
  -29.9410  -14.4960   21.4800 H   0  0  0  0  0  0  0  0  0  0  0  0
  -25.6030  -13.6070   20.4230 C   0  0  0  0  0  0  0  0  0  0  0  0
  -24.4970  -12.9360   20.8790 C   0  0  0  0  0  0  0  0  0  0  0  0
  -24.8210  -11.5470   20.8030 C   0  0  0  0  0  0  0  0  0  0  0  0
  -26.5350  -12.6310   20.1040 N   0  0  0  0  0  0  0  0  0  0  0  0
  -26.0700  -11.3860   20.3860 N   0  0  0  0  0  0  0  0  0  0  0  0
  -23.9940  -10.3590   21.0490 C   0  0  0  0  0  0  0  0  0  0  0  0
  -24.4340   -9.3140   21.8920 C   0  0  0  0  0  3  0  0  0  0  0  0
  -23.6140   -8.1900   22.1270 C   0  0  0  0  0  3  0  0  0  0  0  0
  -22.3380   -8.1020   21.5210 C   0  0  0  0  0  0  0  0  0  0  0  0
  -21.9140   -9.1350   20.6650 C   0  0  0  0  0  3  0  0  0  0  0  0
  -22.7340  -10.2500   20.4280 C   0  0  0  0  0  3  0  0  0  0  0  0
  -21.4850   -7.0370   21.6710 O   0  0  0  0  0  0  0  0  0  0  0  0
  -21.5620   -6.2000   22.7550 C   0  0  0  0  0  0  0  0  0  0  0  0
  -21.3890   -6.6700   24.0740 C   0  0  0  0  0  3  0  0  0  0  0  0
  -21.4080   -5.7640   25.1530 C   0  0  0  0  0  3  0  0  0  0  0  0
  -21.5900   -4.3890   24.9150 C   0  0  0  0  0  0  0  0  0  0  0  0
  -21.7560   -3.9170   23.6020 C   0  0  0  0  0  3  0  0  0  0  0  0
  -21.7390   -4.8200   22.5240 C   0  0  0  0  0  0  0  0  0  0  0  0
  -21.8800   -4.3580   21.2590 F   0  0  0  0  0  0  0  0  0  0  0  0
  -21.5990   -3.5170   25.9510 F   0  0  0  0  0  0  0  0  0  0  0  0
  -23.1820  -13.5430   21.2730 C   0  0  0  0  0  0  0  0  0  0  0  0
  -22.4790  -12.9240   22.2160 N   0  0  0  0  0  0  0  0  0  0  0  0
  -22.7900  -14.6000   20.7790 O   0  0  0  0  0  0  0  0  0  0  0  0
  -22.8100  -12.0680   22.6360 H   0  0  0  0  0  0  0  0  0  0  0  0
  -21.5990  -13.3130   22.5220 H   0  0  0  0  0  0  0  0  0  0  0  0
  -25.8850  -14.9560   20.2400 N   0  0  0  0  0  0  0  0  0  0  0  0
  -25.2040  -15.6860   20.4190 H   0  0  0  0  0  0  0  0  0  0  0  0
  -26.7570  -15.3130   19.8660 H   0  0  0  0  0  0  0  0  0  0  0  0
  1  2  1  0
  2  3  1  0
  2  4  2  0
  3  6  1  0
  5  3  1  0
  7  6  1  0
  7  8  1  0
  8 10  1  0
  9  7  2  0
 11  8  1  0
 12 13  1  0
 12 11  1  0
 14 15  1  0
 14 13  1  0
 16 15  1  0
 17 16  1  0
 18 20  1  0
 18 17  1  0
 19 30  2  0
 20 25  1  0
 21 31  1  0
 21 29  1  0
 22 28  1  0
 22 24  1  0
 23 29  1  0
 24 23  1  0
 25 24  2  0
 26 27  1  0
 26 20  2  0
 27 22  2  0
 28 21  1  0
 29 19  1  0
 31 33  2  0
 32 31  1  0
 34 32  1  0
 35 44  2  0
 35 40  1  0
 36 32  1  0
 36 40  1  0
 37 36  1  0
 38 39  1  0
 38 37  1  0
 39 35  1  0
 40 41  2  0
 41 42  1  0
 43 42  2  0
 44 43  1  0
 45 19  1  0
 45 50  1  0
 45 46  1  0
 46 47  1  1
 46 49  1  0
 48 46  1  0
 50 53  1  0
 51 50  1  0
 51 55  1  0
 52 51  2  0
 55 54  1  0
 55 57  1  0
 57 58  1  0
 57 56  1  0
 59 60  1  0
 60  1  1  0
 60 62  1  0
 61 59  2  0
 63 59  1  0
 64 66  2  0
 65 64  1  0
 65 63  1  0
 67 65  1  0
 68 70  1  0
 68 64  1  0
 69 71  2  0
 69 73  1  0
 70 69  1  0
 72 70  1  0
 73 75  1  0
 74 75  1  0
 74 78  1  0
 75 77  1  0
 76 74  2  0
 79 87  1  0
 80 85  1  0
 81 82  1  0
 81 80  1  0
 83 82  1  0
 83 92  1  0
 83 84  1  0
 85 79  1  0
 85 84  1  0
 86 79  2  0
 87 78  1  0
 87 88  1  0
 89 90  2  0
 90109  1  0
 91 90  1  0
 91 94  1  0
 92 93  1  0
 92 89  1  0
 93 91  2  0
 94 95  1  0
 95 96  2  0
 97100  1  0
 97 96  1  0
 98 97  2  0
 99 98  1  0
 99 94  2  0
100101  1  0
101102  1  0
102103  2  0
104103  1  0
104108  1  0
105104  2  0
106101  2  0
106105  1  0
107106  1  0
109110  1  0
110113  1  0
110112  1  0
111109  2  0
114115  1  0
114 89  1  0
116114  1  0
M  ISO  4  17 101  18 101  79 100  87 100
M  END
>  <TORSDO>  (22) 
F 34

>  <SCORE>  (22) 
-6.631

>  <name>  (22) 
25

>  <ligand_id>  (22) 
25

>  <original_smiles>  (22) 
[H]c1c([H])c([H])c2c(c1[H])C([H])([H])C([H])([H])C([H])([H])C2([H])N([H])C(=O)C1([H])N(C(=O)C([H])(N([H])C(=O)C([H])(N([H])C([H])([H])[H])C([H])([H])[H])C(C([H])([H])[H])(C([H])([H])[H])C([H])([H])[H])C([H])([H])c2c([H])c(OC([H])([H])C([H])([H])C([H])([H])C([H])([H])C([H])([H])C([H])([H])C([H])([H])N([H])C(=O)C([H])([H])N([H])C(=O)C([H])([H])N([H])C(=O)C([H])([H])N([H])C(=O)C([H])([H])N([H])C(=O)C([H])([H])N([H])C(=O)C([H])([H])N([H])C(=O)N3C([H])([H])C([H])([H])C([H])([H])C([H])(n4nc(-c5c([H])c([H])c(Oc6c([H])c([H])c(F)c([H])c6F)c([H])c5[H])c(C(=O)N([H])[H])c4N([H])[H])C3([H])[H])c([H])c([H])c2C1([H])[H]

>  <smiles>  (22) 
[H]c1c([H])c([H])c2c(c1[H])C([H])([H])C([H])([H])C([H])([H])C2([H])N([H])C(=O)C1([H])N(C(=O)C([H])(N([H])C(=O)C([H])(N([H])C([H])([H])[H])C([H])([H])[H])C(C([H])([H])[H])(C([H])([H])[H])C([H])([H])[H])C([H])([H])c2c([H])c(OC([H])([H])C([H])([H])C([H])([H])C([H])([H])C([H])([H])C([H])([H])C([H])([H])N([H])C(=O)C([H])([H])N([H])C(=O)C([H])([H])N([H])C(=O)C([H])([H])N([H])C(=O)C([H])([H])N([H])C(=O)C([H])([H])N([H])C(=O)C([H])([H])N([H])C(=O)N3C([H])([H])C([H])([H])C([H])([H])C([H])(n4nc(-c5c([H])c([H])c(Oc6c([H])c([H])c(F)c([H])c6F)c([H])c5[H])c(C(=O)N([H])[H])c4N([H])[H])C3([H])[H])c([H])c([H])c2C1([H])[H]

$$$$
27:0:0
     RDKit          3D

107114  0  0  1  0  0  0  0  0999 V2000
  -23.7880  -24.5010   22.8150 C   0  0  0  0  0  2  0  0  0  0  0  0
  -23.5970  -24.6090   21.2950 C   0  0  0  0  0  2  0  0  0  0  0  0
  -22.9160  -23.4610   20.8000 O   0  0  0  0  0  0  0  0  0  0  0  0
  -23.0710  -23.2900   19.3940 C   0  0  0  0  0  2  0  0  0  0  0  0
  -24.1430  -22.2160   19.1420 C   0  0  0  0  0  2  0  0  0  0  0  0
  -24.8100  -22.3170   17.7590 C   0  0  0  0  0  2  0  0  0  0  0  0
  -25.2920  -20.9640   17.1960 C   0  0  0  0  0  2  0  0  0  0  0  0
  -27.1270  -20.0500   18.6330 C   0  0  0  0  0  0  0  0  0  0  0  0
  -25.8570  -20.0750   18.2100 N   0  0  0  0  0  0  0  0  0  0  0  0
  -27.9770  -20.8510   18.2360 O   0  0  0  0  0  0  0  0  0  0  0  0
  -25.2350  -19.3750   18.5920 H   0  0  0  0  0  0  0  0  0  0  0  0
  -27.4800  -18.9430   19.6380 C   0  0  0  0  0  2  0  0  0  0  0  0
  -28.8960  -18.8070   19.7550 O   0  0  0  0  0  0  0  0  0  0  0  0
  -29.2640  -17.7480   20.6260 C   0  0  0  0  0  2  0  0  0  0  0  0
  -30.7960  -17.6170   20.6550 C   0  0  0  0  0  2  0  0  0  0  0  0
  -31.3190  -16.4680   21.5420 C   0  0  0  0  0  2  0  0  0  0  0  0
  -31.1290  -14.3790   20.1820 C   0  0  0  0  0  0  0  0  0  0  0  0
  -30.6320  -12.3080   18.9360 C   0  0  0  0  0  2  0  0  0  0  0  0
  -29.6490  -12.5730   17.7800 C   0  0  0  0  0  2  0  0  0  0  0  0
  -28.1920  -12.4980   18.2720 C   0  0  0  0  0  2  0  0  0  0  0  0
  -27.9490  -13.3490   19.5440 C   0  0  0  0  0  3  0  0  0  0  0  0
  -29.0260  -13.0510   20.6100 C   0  0  0  0  0  2  0  0  0  0  0  0
  -30.3570  -13.2750   20.0080 N   0  0  0  0  0  0  0  0  0  0  0  0
  -32.1180  -14.6380   19.4920 O   0  0  0  0  0  0  0  0  0  0  0  0
  -30.7420  -15.1740   21.1870 N   0  0  0  0  0  0  0  0  0  0  0  0
  -29.9620  -14.8460   21.7380 H   0  0  0  0  0  0  0  0  0  0  0  0
  -25.6380  -14.0870   20.4100 C   0  0  0  0  0  0  0  0  0  0  0  0
  -24.5330  -13.3720   20.7880 C   0  0  0  0  0  0  0  0  0  0  0  0
  -24.8860  -11.9960   20.6460 C   0  0  0  0  0  0  0  0  0  0  0  0
  -26.6000  -13.1500   20.0710 N   0  0  0  0  0  0  0  0  0  0  0  0
  -26.1530  -11.8830   20.2660 N   0  0  0  0  0  0  0  0  0  0  0  0
  -24.0760  -10.7800   20.7950 C   0  0  0  0  0  0  0  0  0  0  0  0
  -24.4620   -9.7390   21.6680 C   0  0  0  0  0  3  0  0  0  0  0  0
  -23.6580   -8.5880   21.8070 C   0  0  0  0  0  3  0  0  0  0  0  0
  -22.4540   -8.4700   21.0730 C   0  0  0  0  0  0  0  0  0  0  0  0
  -22.0860   -9.4980   20.1890 C   0  0  0  0  0  3  0  0  0  0  0  0
  -22.8910  -10.6420   20.0470 C   0  0  0  0  0  3  0  0  0  0  0  0
  -21.6230   -7.3770   21.1250 O   0  0  0  0  0  0  0  0  0  0  0  0
  -21.5170   -6.6060   22.2560 C   0  0  0  0  0  0  0  0  0  0  0  0
  -21.1300   -7.1550   23.4980 C   0  0  0  0  0  3  0  0  0  0  0  0
  -20.9660   -6.3160   24.6170 C   0  0  0  0  0  3  0  0  0  0  0  0
  -21.1780   -4.9290   24.4970 C   0  0  0  0  0  0  0  0  0  0  0  0
  -21.5560   -4.3800   23.2590 C   0  0  0  0  0  3  0  0  0  0  0  0
  -21.7220   -5.2160   22.1420 C   0  0  0  0  0  0  0  0  0  0  0  0
  -22.0670   -4.6800   20.9460 F   0  0  0  0  0  0  0  0  0  0  0  0
  -21.0120   -4.1220   25.5690 F   0  0  0  0  0  0  0  0  0  0  0  0
  -23.1900  -13.9320   21.1660 C   0  0  0  0  0  0  0  0  0  0  0  0
  -22.4610  -13.2380   22.0340 N   0  0  0  0  0  0  0  0  0  0  0  0
  -22.8020  -15.0140   20.7290 O   0  0  0  0  0  0  0  0  0  0  0  0
  -22.7880  -12.3600   22.4070 H   0  0  0  0  0  0  0  0  0  0  0  0
  -21.5620  -13.5920   22.3280 H   0  0  0  0  0  0  0  0  0  0  0  0
  -25.8980  -15.4500   20.3090 N   0  0  0  0  0  0  0  0  0  0  0  0
  -25.1870  -16.1490   20.4900 H   0  0  0  0  0  0  0  0  0  0  0  0
  -26.7590  -15.8340   19.9450 H   0  0  0  0  0  0  0  0  0  0  0  0
  -24.5050  -25.7380   23.3960 C   0  0  0  0  0  2  0  0  0  0  0  0
  -25.1310  -25.4610   24.7160 N   0  0  0  0  0  4  0  0  0  0  0  0
  -24.4280  -25.4530   25.4360 H   0  0  0  0  0  0  0  0  0  0  0  0
  -25.5620  -24.5490   24.6800 H   0  0  0  0  0  0  0  0  0  0  0  0
  -26.2320  -26.3710   25.0980 C   0  0  0  0  0  2  0  0  0  0  0  0
  -27.4910  -26.0010   24.3180 C   0  0  0  0  0  0  0  0  0  0  0  0
  -28.3100  -27.0010   23.9690 N   0  0  0  0  0  0  0  0  0  0  0  0
  -27.6510  -24.8400   23.9430 O   0  0  0  0  0  0  0  0  0  0  0  0
  -28.1620  -27.9020   24.4050 H   0  0  0  0  0  0  0  0  0  0  0  0
  -29.2090  -26.9650   22.8150 C   0  0  0  0  0  2  0  0  0  0  0  0
  -28.3700  -26.8100   21.5290 C   0  0  0  0  0  2  0  0  0  0  0  0
  -29.0990  -27.0240   20.1890 C   0  0  0  0  0  2  0  0  0  0  0  0
  -28.1540  -27.0520   19.1140 O   0  0  0  0  0  0  0  0  0  0  0  0
  -24.4250  -31.7500   22.9920 C   0  0  0  0  0  0  0  0  0  0  0  0
  -26.9980  -27.7780   19.2970 C   0  0  0  0  0  0  0  0  0  0  0  0
  -23.1520  -30.4870   21.2830 C   0  0  0  0  0  3  0  0  0  0  0  0
  -24.5550  -29.1530   19.6210 C   0  0  0  0  0  0  0  0  0  0  0  0
  -25.6420  -30.9600   20.9670 C   0  0  0  0  0  2  0  0  0  0  0  0
  -25.7280  -29.6630   20.1930 C   0  0  0  0  0  0  0  0  0  0  0  0
  -26.9500  -28.9830   20.0330 C   0  0  0  0  0  3  0  0  0  0  0  0
  -25.8140  -27.2750   18.7230 C   0  0  0  0  0  3  0  0  0  0  0  0
  -24.5900  -27.9520   18.8880 C   0  0  0  0  0  3  0  0  0  0  0  0
  -23.2910  -29.9550   19.8300 C   0  0  0  0  0  2  0  0  0  0  0  0
  -24.4280  -31.0770   21.8070 N   0  0  0  0  0  0  0  0  0  0  0  0
  -23.3750  -31.9280   23.6240 O   0  0  0  0  0  0  0  0  0  0  0  0
  -22.5890  -29.3530   22.1670 C   0  0  0  0  0  0  0  0  0  0  0  0
  -21.2650  -29.1430   22.0920 N   0  0  0  0  0  0  0  0  0  0  0  0
  -23.3350  -28.6650   22.8700 O   0  0  0  0  0  0  0  0  0  0  0  0
  -20.7270  -29.7580   21.4980 H   0  0  0  0  0  0  0  0  0  0  0  0
  -17.9580  -27.7810   22.6090 C   0  0  0  0  0  0  0  0  0  0  0  0
  -20.5150  -28.1060   22.7980 C   0  0  0  0  0  3  0  0  0  0  0  0
  -20.6380  -26.7390   22.0850 C   0  0  0  0  0  2  0  0  0  0  0  0
  -19.5040  -26.4680   21.0930 C   0  0  0  0  0  2  0  0  0  0  0  0
  -18.1470  -26.5070   21.8020 C   0  0  0  0  0  2  0  0  0  0  0  0
  -19.0710  -28.5390   23.0620 C   0  0  0  0  0  0  0  0  0  0  0  0
  -18.8380  -29.7300   23.7840 C   0  0  0  0  0  3  0  0  0  0  0  0
  -17.5260  -30.1630   24.0550 C   0  0  0  0  0  3  0  0  0  0  0  0
  -16.4300  -29.4030   23.6130 C   0  0  0  0  0  3  0  0  0  0  0  0
  -16.6480  -28.2120   22.8980 C   0  0  0  0  0  3  0  0  0  0  0  0
  -25.7340  -32.3450   23.6020 C   0  0  0  0  0  3  0  0  0  0  0  0
  -25.4420  -33.7250   24.0110 N   0  0  0  0  0  0  0  0  0  0  0  0
  -25.8030  -34.8140   23.3210 C   0  0  0  0  0  0  0  0  0  0  0  0
  -26.4880  -34.7590   22.2940 O   0  0  0  0  0  0  0  0  0  0  0  0
  -24.8380  -33.8430   24.8110 H   0  0  0  0  0  0  0  0  0  0  0  0
  -24.1150  -36.6560   23.0300 C   0  0  0  0  0  1  0  0  0  0  0  0
  -25.3270  -36.1810   23.8470 C   0  0  0  0  0  3  0  0  0  0  0  0
  -27.4580  -36.9650   24.7820 C   0  0  0  0  0  1  0  0  0  0  0  0
  -26.3820  -37.2190   23.8270 N   0  0  0  0  0  0  0  0  0  0  0  0
  -25.9910  -38.1360   24.0240 H   0  0  0  0  0  0  0  0  0  0  0  0
  -26.2900  -31.5050   24.8190 C   0  0  1  0  0  0  0  0  0  0  0  0
  -25.2300  -31.2160   25.9050 C   0  0  0  0  0  1  0  0  0  0  0  0
  -26.8510  -30.1510   24.3270 C   0  0  0  0  0  1  0  0  0  0  0  0
  -27.4610  -32.2610   25.4870 C   0  0  0  0  0  1  0  0  0  0  0  0
  1 55  1  0
  2  1  1  0
  3  2  1  0
  4  3  1  0
  5  4  1  0
  6  5  1  0
  7  6  1  0
  7  9  1  0
  8 12  1  0
  9 11  1  0
  9  8  1  0
 10  8  2  0
 12 13  1  0
 13 14  1  0
 14 15  1  0
 15 16  1  0
 17 25  1  0
 18 23  1  0
 19 20  1  0
 19 18  1  0
 21 20  1  0
 21 30  1  0
 21 22  1  0
 23 17  1  0
 23 22  1  0
 24 17  2  0
 25 16  1  0
 25 26  1  0
 27 28  2  0
 28 47  1  0
 29 28  1  0
 29 32  1  0
 30 31  1  0
 30 27  1  0
 31 29  2  0
 32 33  1  0
 33 34  2  0
 35 38  1  0
 35 34  1  0
 36 35  2  0
 37 36  1  0
 37 32  2  0
 38 39  1  0
 39 40  1  0
 40 41  2  0
 42 41  1  0
 42 46  1  0
 43 42  2  0
 44 39  2  0
 44 43  1  0
 45 44  1  0
 47 48  1  0
 48 51  1  0
 48 50  1  0
 49 47  2  0
 52 27  1  0
 52 53  1  0
 54 52  1  0
 55 56  1  0
 56 59  1  0
 56 57  1  0
 58 56  1  0
 60 59  1  0
 61 60  1  0
 61 63  1  0
 62 60  2  0
 64 61  1  0
 65 64  1  0
 66 65  1  0
 67 69  1  0
 67 66  1  0
 68 79  2  0
 69 74  1  0
 70 78  1  0
 70 80  1  0
 71 77  1  0
 71 73  1  0
 72 78  1  0
 73 72  1  0
 74 73  2  0
 75 76  1  0
 75 69  2  0
 76 71  2  0
 77 70  1  0
 78 68  1  0
 80 82  2  0
 81 80  1  0
 83 81  1  0
 84 93  2  0
 84 89  1  0
 85 81  1  0
 85 89  1  0
 86 85  1  0
 87 88  1  0
 87 86  1  0
 88 84  1  0
 89 90  2  0
 90 91  1  0
 92 91  2  0
 93 92  1  0
 94 68  1  0
 94 95  1  0
 94104  1  0
 95 98  1  0
 96100  1  0
 96 95  1  0
 97 96  2  0
100 99  1  0
102100  1  0
102103  1  0
102101  1  0
104107  1  1
104105  1  0
106104  1  0
M  ISO  4  17 100  25 100  66 101  67 101
M  END
>  <TORSDO>  (23) 
F 35

>  <SCORE>  (23) 
-9.034

>  <name>  (23) 
27

>  <ligand_id>  (23) 
27

>  <original_smiles>  (23) 
[H]c1c([H])c([H])c2c(c1[H])C([H])([H])C([H])([H])C([H])([H])C2([H])N([H])C(=O)C1([H])N(C(=O)C([H])(N([H])C(=O)C([H])(N([H])C([H])([H])[H])C([H])([H])[H])C(C([H])([H])[H])(C([H])([H])[H])C([H])([H])[H])C([H])([H])c2c([H])c(OC([H])([H])C([H])([H])C([H])([H])N([H])C(=O)C([H])([H])[N+]([H])([H])C([H])([H])C([H])([H])C([H])([H])OC([H])([H])C([H])([H])C([H])([H])C([H])([H])N([H])C(=O)C([H])([H])OC([H])([H])C([H])([H])C([H])([H])N([H])C(=O)N3C([H])([H])C([H])([H])C([H])([H])C([H])(n4nc(-c5c([H])c([H])c(Oc6c([H])c([H])c(F)c([H])c6F)c([H])c5[H])c(C(=O)N([H])[H])c4N([H])[H])C3([H])[H])c([H])c([H])c2C1([H])[H]

>  <smiles>  (23) 
[H]c1c([H])c([H])c2c(c1[H])C([H])([H])C([H])([H])C([H])([H])C2([H])N([H])C(=O)C1([H])N(C(=O)C([H])(N([H])C(=O)C([H])(N([H])C([H])([H])[H])C([H])([H])[H])C(C([H])([H])[H])(C([H])([H])[H])C([H])([H])[H])C([H])([H])c2c([H])c(OC([H])([H])C([H])([H])C([H])([H])N([H])C(=O)C([H])([H])[N+]([H])([H])C([H])([H])C([H])([H])C([H])([H])OC([H])([H])C([H])([H])C([H])([H])C([H])([H])N([H])C(=O)C([H])([H])OC([H])([H])C([H])([H])C([H])([H])N([H])C(=O)N3C([H])([H])C([H])([H])C([H])([H])C([H])(n4nc(-c5c([H])c([H])c(Oc6c([H])c([H])c(F)c([H])c6F)c([H])c5[H])c(C(=O)N([H])[H])c4N([H])[H])C3([H])[H])c([H])c([H])c2C1([H])[H]

$$$$
28:0:0
     RDKit          3D

117124  0  0  1  0  0  0  0  0999 V2000
  -26.4930  -26.0900   29.3690 C   0  0  0  0  0  0  0  0  0  0  0  0
  -27.5120  -25.9910   30.2270 N   0  0  0  0  0  0  0  0  0  0  0  0
  -25.3200  -26.1810   29.7460 O   0  0  0  0  0  0  0  0  0  0  0  0
  -28.4510  -25.9440   29.8590 H   0  0  0  0  0  0  0  0  0  0  0  0
  -27.3710  -26.0640   31.6770 C   0  0  0  0  0  2  0  0  0  0  0  0
  -28.0040  -27.3510   32.2120 C   0  0  0  0  0  0  0  0  0  0  0  0
  -27.1770  -28.3590   32.5050 N   0  0  0  0  0  0  0  0  0  0  0  0
  -29.2230  -27.4180   32.3460 O   0  0  0  0  0  0  0  0  0  0  0  0
  -26.1940  -28.2050   32.3180 H   0  0  0  0  0  0  0  0  0  0  0  0
  -27.5410  -29.6540   33.0690 C   0  0  0  0  0  2  0  0  0  0  0  0
  -27.5290  -30.7910   32.0270 C   0  0  0  0  0  2  0  0  0  0  0  0
  -28.6600  -30.7220   30.9780 C   0  0  0  0  0  2  0  0  0  0  0  0
  -28.2170  -30.2590   29.5780 C   0  0  0  0  0  2  0  0  0  0  0  0
  -29.1450  -30.8390   28.4890 C   0  0  0  0  0  2  0  0  0  0  0  0
  -27.4770  -29.8360   26.8250 C   0  0  0  0  0  1  0  0  0  0  0  0
  -28.9060  -30.3800   27.0330 C   0  0  0  0  0  3  0  0  0  0  0  0
  -29.1800  -31.5290   26.1310 N   0  0  0  0  0  4  0  0  0  0  0  0
  -28.4140  -32.1800   26.2180 H   0  0  0  0  0  0  0  0  0  0  0  0
  -30.0110  -31.9970   26.4630 H   0  0  0  0  0  0  0  0  0  0  0  0
  -29.3940  -31.2250   24.6950 C   0  0  0  0  0  2  0  0  0  0  0  0
  -28.8170  -32.3140   23.7550 C   0  0  0  0  0  2  0  0  0  0  0  0
  -29.5930  -33.5190   23.7190 O   0  0  0  0  0  0  0  0  0  0  0  0
  -32.7250  -36.3970   29.3670 C   0  0  0  0  0  0  0  0  0  0  0  0
  -29.4400  -34.3850   24.7740 C   0  0  0  0  0  0  0  0  0  0  0  0
  -30.2780  -36.7340   29.2210 C   0  0  0  0  0  3  0  0  0  0  0  0
  -29.2080  -36.1130   26.9930 C   0  0  0  0  0  0  0  0  0  0  0  0
  -31.6830  -36.4540   27.1040 C   0  0  0  0  0  2  0  0  0  0  0  0
  -30.4690  -35.8310   26.4530 C   0  0  0  0  0  0  0  0  0  0  0  0
  -30.5880  -34.9780   25.3370 C   0  0  0  0  0  3  0  0  0  0  0  0
  -28.1700  -34.6960   25.3110 C   0  0  0  0  0  3  0  0  0  0  0  0
  -28.0510  -35.5500   26.4240 C   0  0  0  0  0  3  0  0  0  0  0  0
  -29.1690  -37.0470   28.1820 C   0  0  0  0  0  2  0  0  0  0  0  0
  -31.6130  -36.4940   28.5830 N   0  0  0  0  0  0  0  0  0  0  0  0
  -32.6600  -36.5470   30.5940 O   0  0  0  0  0  0  0  0  0  0  0  0
  -29.8020  -35.5610   30.1030 C   0  0  0  0  0  0  0  0  0  0  0  0
  -28.9980  -35.8720   31.1320 N   0  0  0  0  0  0  0  0  0  0  0  0
  -30.1270  -34.4010   29.8380 O   0  0  0  0  0  0  0  0  0  0  0  0
  -28.7850  -36.8470   31.2900 H   0  0  0  0  0  0  0  0  0  0  0  0
  -27.0950  -35.6210   34.1880 C   0  0  0  0  0  0  0  0  0  0  0  0
  -28.4070  -34.9220   32.0740 C   0  0  0  0  0  3  0  0  0  0  0  0
  -27.0590  -34.3760   31.5450 C   0  0  0  0  0  2  0  0  0  0  0  0
  -25.8540  -35.1890   32.0310 C   0  0  0  0  0  2  0  0  0  0  0  0
  -25.7850  -35.1760   33.5600 C   0  0  0  0  0  2  0  0  0  0  0  0
  -28.3250  -35.5150   33.4850 C   0  0  0  0  0  0  0  0  0  0  0  0
  -29.5080  -35.9800   34.1010 C   0  0  0  0  0  3  0  0  0  0  0  0
  -29.4790  -36.5290   35.3980 C   0  0  0  0  0  3  0  0  0  0  0  0
  -28.2600  -36.6170   36.0930 C   0  0  0  0  0  3  0  0  0  0  0  0
  -27.0750  -36.1620   35.4900 C   0  0  0  0  0  3  0  0  0  0  0  0
  -34.1320  -36.1210   28.7500 C   0  0  0  0  0  3  0  0  0  0  0  0
  -34.5380  -34.5990   28.7870 C   0  0  1  0  0  0  0  0  0  0  0  0
  -34.4910  -33.9880   30.2040 C   0  0  0  0  0  1  0  0  0  0  0  0
  -33.6100  -33.7640   27.8740 C   0  0  0  0  0  1  0  0  0  0  0  0
  -35.9730  -34.4220   28.2370 C   0  0  0  0  0  1  0  0  0  0  0  0
  -35.1020  -36.9370   29.4880 N   0  0  0  0  0  0  0  0  0  0  0  0
  -35.5500  -38.1330   29.0830 C   0  0  0  0  0  0  0  0  0  0  0  0
  -35.2350  -38.6370   28.0020 O   0  0  0  0  0  0  0  0  0  0  0  0
  -35.3540  -36.6160   30.4120 H   0  0  0  0  0  0  0  0  0  0  0  0
  -35.7180  -39.9990   30.7590 C   0  0  0  0  0  1  0  0  0  0  0  0
  -36.4960  -38.8900   30.0340 C   0  0  0  0  0  3  0  0  0  0  0  0
  -38.6430  -38.4700   28.9200 C   0  0  0  0  0  1  0  0  0  0  0  0
  -37.6710  -39.4720   29.3490 N   0  0  0  0  0  0  0  0  0  0  0  0
  -38.1490  -40.1360   29.9520 H   0  0  0  0  0  0  0  0  0  0  0  0
  -26.8250  -26.0910   27.8770 C   0  0  0  0  0  2  0  0  0  0  0  0
  -25.4800  -26.8420   25.9210 C   0  0  0  0  0  0  0  0  0  0  0  0
  -25.5930  -26.2590   27.1150 N   0  0  0  0  0  0  0  0  0  0  0  0
  -26.4570  -27.2460   25.2850 O   0  0  0  0  0  0  0  0  0  0  0  0
  -24.7500  -25.9790   27.6020 H   0  0  0  0  0  0  0  0  0  0  0  0
  -24.0640  -26.9910   25.3520 C   0  0  0  0  0  2  0  0  0  0  0  0
  -24.0900  -26.7620   23.9490 O   0  0  0  0  0  0  0  0  0  0  0  0
  -23.2270  -25.7010   23.5670 C   0  0  0  0  0  2  0  0  0  0  0  0
  -22.5370  -26.0610   22.2470 C   0  0  0  0  0  2  0  0  0  0  0  0
  -21.2020  -26.7950   22.4530 C   0  0  0  0  0  2  0  0  0  0  0  0
  -20.2540  -26.6300   21.2530 C   0  0  0  0  0  2  0  0  0  0  0  0
  -18.9970  -27.5160   21.3310 C   0  0  0  0  0  2  0  0  0  0  0  0
  -17.0590  -26.2780   22.2790 C   0  0  0  0  0  0  0  0  0  0  0  0
  -18.1010  -27.1050   22.4070 N   0  0  0  0  0  0  0  0  0  0  0  0
  -16.7210  -25.7910   21.1970 O   0  0  0  0  0  0  0  0  0  0  0  0
  -18.2970  -27.4670   23.3320 H   0  0  0  0  0  0  0  0  0  0  0  0
  -16.2980  -25.9430   23.5640 C   0  0  0  0  0  2  0  0  0  0  0  0
  -13.8690  -25.5160   23.2100 C   0  0  0  0  0  0  0  0  0  0  0  0
  -11.5290  -24.7490   23.1100 C   0  0  0  0  0  2  0  0  0  0  0  0
  -11.1130  -24.1460   24.4660 C   0  0  0  0  0  2  0  0  0  0  0  0
  -11.5020  -22.6560   24.5510 C   0  0  0  0  0  2  0  0  0  0  0  0
  -12.9750  -22.3990   24.1360 C   0  0  0  0  0  3  0  0  0  0  0  0
  -13.2870  -23.1000   22.7960 C   0  0  0  0  0  2  0  0  0  0  0  0
  -12.9720  -24.5340   22.9450 N   0  0  0  0  0  0  0  0  0  0  0  0
  -13.5530  -26.6910   23.4240 O   0  0  0  0  0  0  0  0  0  0  0  0
  -15.1360  -25.1020   23.2960 N   0  0  0  0  0  0  0  0  0  0  0  0
  -15.3120  -24.1310   23.0930 H   0  0  0  0  0  0  0  0  0  0  0  0
  -14.4920  -20.3190   24.1900 C   0  0  0  0  0  0  0  0  0  0  0  0
  -14.2080  -18.9780   24.1380 C   0  0  0  0  0  0  0  0  0  0  0  0
  -12.7890  -18.8820   24.0050 C   0  0  0  0  0  0  0  0  0  0  0  0
  -13.2730  -20.9690   24.0800 N   0  0  0  0  0  0  0  0  0  0  0  0
  -12.2510  -20.0910   23.9170 N   0  0  0  0  0  0  0  0  0  0  0  0
  -11.9060  -17.7090   24.0130 C   0  0  0  0  0  0  0  0  0  0  0  0
  -11.0980  -17.3860   22.9000 C   0  0  0  0  0  3  0  0  0  0  0  0
  -10.2700  -16.2420   22.9250 C   0  0  0  0  0  3  0  0  0  0  0  0
  -10.2460  -15.4090   24.0680 C   0  0  0  0  0  0  0  0  0  0  0  0
  -11.0360  -15.7470   25.1800 C   0  0  0  0  0  3  0  0  0  0  0  0
  -11.8550  -16.8870   25.1570 C   0  0  0  0  0  3  0  0  0  0  0  0
   -9.4540  -14.2930   24.1910 O   0  0  0  0  0  0  0  0  0  0  0  0
   -8.8970  -13.6810   23.0970 C   0  0  0  0  0  0  0  0  0  0  0  0
   -9.6510  -13.3940   21.9390 C   0  0  0  0  0  3  0  0  0  0  0  0
   -9.0550  -12.7020   20.8650 C   0  0  0  0  0  3  0  0  0  0  0  0
   -7.7130  -12.2890   20.9500 C   0  0  0  0  0  0  0  0  0  0  0  0
   -6.9620  -12.5700   22.1060 C   0  0  0  0  0  3  0  0  0  0  0  0
   -7.5530  -13.2610   23.1770 C   0  0  0  0  0  0  0  0  0  0  0  0
   -6.8310  -13.5110   24.2960 F   0  0  0  0  0  0  0  0  0  0  0  0
   -7.1430  -11.6180   19.9220 F   0  0  0  0  0  0  0  0  0  0  0  0
  -15.1840  -17.8490   24.3010 C   0  0  0  0  0  0  0  0  0  0  0  0
  -15.2590  -16.9590   23.3170 N   0  0  0  0  0  0  0  0  0  0  0  0
  -15.9240  -17.7780   25.2820 O   0  0  0  0  0  0  0  0  0  0  0  0
  -14.6670  -17.0290   22.5040 H   0  0  0  0  0  0  0  0  0  0  0  0
  -15.9190  -16.1960   23.3800 H   0  0  0  0  0  0  0  0  0  0  0  0
  -15.6770  -21.0330   24.3370 N   0  0  0  0  0  0  0  0  0  0  0  0
  -16.5720  -20.5760   24.4750 H   0  0  0  0  0  0  0  0  0  0  0  0
  -15.7340  -22.0420   24.4030 H   0  0  0  0  0  0  0  0  0  0  0  0
  1  3  2  0
  1  2  1  0
  2  5  1  0
  4  2  1  0
  5  6  1  0
  6  8  2  0
  6  7  1  0
  7 10  1  0
  9  7  1  0
 11 10  1  0
 12 11  1  0
 13 12  1  0
 14 13  1  0
 16 15  1  0
 16 14  1  0
 17 18  1  0
 17 19  1  0
 17 16  1  0
 20 17  1  0
 21 20  1  0
 22 21  1  0
 22 24  1  0
 23 34  2  0
 24 30  2  0
 24 29  1  0
 25 35  1  0
 26 32  1  0
 27 33  1  0
 28 26  1  0
 28 27  1  0
 29 28  2  0
 30 31  1  0
 31 26  2  0
 32 25  1  0
 33 25  1  0
 33 23  1  0
 35 36  1  0
 36 38  1  0
 37 35  2  0
 39 48  1  0
 40 36  1  0
 40 44  1  0
 41 42  1  0
 41 40  1  0
 42 43  1  0
 43 39  1  0
 44 45  1  0
 44 39  2  0
 45 46  2  0
 46 47  1  0
 48 47  2  0
 49 50  1  0
 49 23  1  0
 49 54  1  0
 50 51  1  1
 52 50  1  0
 53 50  1  0
 54 57  1  0
 55 54  1  0
 55 59  1  0
 56 55  2  0
 59 58  1  0
 60 61  1  0
 61 62  1  0
 61 59  1  0
 63  1  1  0
 64 65  1  0
 65 67  1  0
 65 63  1  0
 66 64  2  0
 68 64  1  0
 69 68  1  0
 70 69  1  0
 71 72  1  0
 71 70  1  0
 73 74  1  0
 73 72  1  0
 74 76  1  0
 75 76  1  0
 75 79  1  0
 76 78  1  0
 77 75  2  0
 80 88  1  0
 80 87  2  0
 81 82  1  0
 82 83  1  0
 84 85  1  0
 84 83  1  0
 85 86  1  0
 86 81  1  0
 86 80  1  0
 88 79  1  0
 89 88  1  0
 90115  1  0
 91 90  2  0
 91110  1  0
 92 95  1  0
 92 91  1  0
 93 84  1  0
 93 90  1  0
 94 92  2  0
 94 93  1  0
 95100  1  0
 96 97  1  0
 96 95  2  0
 97 98  2  0
 98101  1  0
 98 99  1  0
100 99  2  0
102107  1  0
102101  1  0
103102  2  0
104105  2  0
104103  1  0
105106  1  0
106107  2  0
107108  1  0
109105  1  0
110112  2  0
111114  1  0
111110  1  0
113111  1  0
115117  1  0
115116  1  0
M  ISO  4  21 101  22 101  80 100  88 100
M  END
>  <TORSDO>  (24) 
F 38

>  <SCORE>  (24) 
-5.337

>  <name>  (24) 
28

>  <ligand_id>  (24) 
28

>  <original_smiles>  (24) 
[H]c1c([H])c([H])c2c(c1[H])C([H])([H])C([H])([H])C([H])([H])C2([H])N([H])C(=O)C1([H])N(C(=O)C([H])(N([H])C(=O)C([H])(N([H])C([H])([H])[H])C([H])([H])[H])C(C([H])([H])[H])(C([H])([H])[H])C([H])([H])[H])C([H])([H])c2c([H])c(OC([H])([H])C([H])([H])[N+]([H])([H])C([H])(C([H])([H])[H])C([H])([H])C([H])([H])C([H])([H])C([H])([H])C([H])([H])N([H])C(=O)C([H])([H])N([H])C(=O)C([H])([H])N([H])C(=O)C([H])([H])OC([H])([H])C([H])([H])C([H])([H])C([H])([H])C([H])([H])N([H])C(=O)C([H])([H])N([H])C(=O)N3C([H])([H])C([H])([H])C([H])([H])C([H])(n4nc(-c5c([H])c([H])c(Oc6c([H])c([H])c(F)c([H])c6F)c([H])c5[H])c(C(=O)N([H])[H])c4N([H])[H])C3([H])[H])c([H])c([H])c2C1([H])[H]

>  <smiles>  (24) 
[H]c1c([H])c([H])c2c(c1[H])C([H])([H])C([H])([H])C([H])([H])C2([H])N([H])C(=O)C1([H])N(C(=O)C([H])(N([H])C(=O)C([H])(N([H])C([H])([H])[H])C([H])([H])[H])C(C([H])([H])[H])(C([H])([H])[H])C([H])([H])[H])C([H])([H])c2c([H])c(OC([H])([H])C([H])([H])[N+]([H])([H])C([H])(C([H])([H])[H])C([H])([H])C([H])([H])C([H])([H])C([H])([H])C([H])([H])N([H])C(=O)C([H])([H])N([H])C(=O)C([H])([H])N([H])C(=O)C([H])([H])OC([H])([H])C([H])([H])C([H])([H])C([H])([H])C([H])([H])N([H])C(=O)C([H])([H])N([H])C(=O)N3C([H])([H])C([H])([H])C([H])([H])C([H])(n4nc(-c5c([H])c([H])c(Oc6c([H])c([H])c(F)c([H])c6F)c([H])c5[H])c(C(=O)N([H])[H])c4N([H])[H])C3([H])[H])c([H])c([H])c2C1([H])[H]

$$$$
29:0:0
     RDKit          3D

114121  0  0  1  0  0  0  0  0999 V2000
  -22.8170  -21.6430   18.6670 C   0  0  0  0  0  0  0  0  0  0  0  0
  -22.9260  -21.7690   17.3420 N   0  0  0  0  0  0  0  0  0  0  0  0
  -23.5740  -20.9440   19.3420 O   0  0  0  0  0  0  0  0  0  0  0  0
  -22.2730  -22.3860   16.8800 H   0  0  0  0  0  0  0  0  0  0  0  0
  -23.9510  -21.1560   16.5000 C   0  0  0  0  0  2  0  0  0  0  0  0
  -25.3920  -21.5080   16.9030 C   0  0  0  0  0  0  0  0  0  0  0  0
  -25.6780  -21.7100   18.2010 N   0  0  0  0  0  0  0  0  0  0  0  0
  -26.2480  -21.6100   16.0220 O   0  0  0  0  0  0  0  0  0  0  0  0
  -24.9160  -21.6470   18.8710 H   0  0  0  0  0  0  0  0  0  0  0  0
  -26.9950  -22.0900   18.7200 C   0  0  0  0  0  2  0  0  0  0  0  0
  -28.0200  -20.9390   18.6480 C   0  0  0  0  0  2  0  0  0  0  0  0
  -28.2650  -20.2160   19.9820 C   0  0  0  0  0  2  0  0  0  0  0  0
  -29.5230  -20.6290   20.4940 O   0  0  0  0  0  0  0  0  0  0  0  0
  -29.8610  -20.0030   21.7320 C   0  0  0  0  0  2  0  0  0  0  0  0
  -31.2710  -20.4380   22.1550 C   0  0  0  0  0  0  0  0  0  0  0  0
  -32.2410  -20.2190   21.4200 O   0  0  0  0  0  0  0  0  0  0  0  0
  -31.4810  -21.1330   23.5100 C   0  0  0  0  0  2  0  0  0  0  0  0
  -30.2960  -21.7480   24.0160 O   0  0  0  0  0  0  0  0  0  0  0  0
  -26.9460  -27.9920   24.6550 C   0  0  0  0  0  0  0  0  0  0  0  0
  -30.0160  -22.9690   23.4570 C   0  0  0  0  0  0  0  0  0  0  0  0
  -27.8710  -27.4830   22.4160 C   0  0  0  0  0  3  0  0  0  0  0  0
  -29.4360  -25.4730   22.2990 C   0  0  0  0  0  0  0  0  0  0  0  0
  -28.9310  -26.4950   24.5230 C   0  0  0  0  0  2  0  0  0  0  0  0
  -29.3390  -25.3030   23.6870 C   0  0  0  0  0  0  0  0  0  0  0  0
  -29.6210  -24.0500   24.2710 C   0  0  0  0  0  3  0  0  0  0  0  0
  -30.1050  -23.1490   22.0620 C   0  0  0  0  0  3  0  0  0  0  0  0
  -29.8160  -24.3970   21.4800 C   0  0  0  0  0  3  0  0  0  0  0  0
  -29.1190  -26.8450   21.7510 C   0  0  0  0  0  2  0  0  0  0  0  0
  -27.8700  -27.3250   23.9060 N   0  0  0  0  0  0  0  0  0  0  0  0
  -26.1350  -28.7640   24.1290 O   0  0  0  0  0  0  0  0  0  0  0  0
  -26.6070  -26.9140   21.7350 C   0  0  0  0  0  0  0  0  0  0  0  0
  -26.5220  -27.0720   20.4020 N   0  0  0  0  0  0  0  0  0  0  0  0
  -25.7460  -26.3250   22.3930 O   0  0  0  0  0  0  0  0  0  0  0  0
  -27.2750  -27.5590   19.9350 H   0  0  0  0  0  0  0  0  0  0  0  0
  -25.3240  -26.9740   16.9950 C   0  0  0  0  0  0  0  0  0  0  0  0
  -25.4330  -26.5950   19.5490 C   0  0  0  0  0  3  0  0  0  0  0  0
  -25.6040  -25.1000   19.2100 C   0  0  0  0  0  2  0  0  0  0  0  0
  -26.3770  -24.8630   17.9080 C   0  0  0  0  0  2  0  0  0  0  0  0
  -25.6430  -25.5120   16.7310 C   0  0  0  0  0  2  0  0  0  0  0  0
  -25.2450  -27.4870   18.3180 C   0  0  0  0  0  0  0  0  0  0  0  0
  -24.9850  -28.8630   18.5050 C   0  0  0  0  0  3  0  0  0  0  0  0
  -24.8070  -29.7180   17.4030 C   0  0  0  0  0  3  0  0  0  0  0  0
  -24.8720  -29.2010   16.0960 C   0  0  0  0  0  3  0  0  0  0  0  0
  -25.1210  -27.8320   15.8950 C   0  0  0  0  0  3  0  0  0  0  0  0
  -26.8800  -27.8320   26.2070 C   0  0  0  0  0  3  0  0  0  0  0  0
  -25.7250  -26.8720   26.6880 C   0  0  1  0  0  0  0  0  0  0  0  0
  -24.3450  -27.2170   26.0850 C   0  0  0  0  0  1  0  0  0  0  0  0
  -26.0450  -25.4050   26.3160 C   0  0  0  0  0  1  0  0  0  0  0  0
  -25.6030  -26.9250   28.2290 C   0  0  0  0  0  1  0  0  0  0  0  0
  -26.7140  -29.1740   26.7810 N   0  0  0  0  0  0  0  0  0  0  0  0
  -27.7100  -29.9100   27.2950 C   0  0  0  0  0  0  0  0  0  0  0  0
  -28.8650  -29.4910   27.4020 O   0  0  0  0  0  0  0  0  0  0  0  0
  -25.8070  -29.6040   26.6760 H   0  0  0  0  0  0  0  0  0  0  0  0
  -27.9700  -32.3590   26.7900 C   0  0  0  0  0  1  0  0  0  0  0  0
  -27.3670  -31.3360   27.7660 C   0  0  0  0  0  3  0  0  0  0  0  0
  -27.0520  -30.9360   30.1680 C   0  0  0  0  0  1  0  0  0  0  0  0
  -27.8280  -31.6270   29.1410 N   0  0  0  0  0  0  0  0  0  0  0  0
  -27.7870  -32.6240   29.3290 H   0  0  0  0  0  0  0  0  0  0  0  0
  -21.6940  -22.4480   19.3320 C   0  0  0  0  0  2  0  0  0  0  0  0
  -20.8590  -24.3470   17.9560 C   0  0  0  0  0  0  0  0  0  0  0  0
  -21.6760  -23.8410   18.8880 N   0  0  0  0  0  0  0  0  0  0  0  0
  -20.0540  -23.6440   17.3390 O   0  0  0  0  0  0  0  0  0  0  0  0
  -22.3510  -24.4600   19.3140 H   0  0  0  0  0  0  0  0  0  0  0  0
  -20.8840  -25.8540   17.6920 C   0  0  0  0  0  2  0  0  0  0  0  0
  -22.1840  -26.4460   17.1080 C   0  0  0  0  0  2  0  0  0  0  0  0
  -22.4030  -25.9510   14.6730 C   0  0  0  0  0  0  0  0  0  0  0  0
  -22.1050  -26.7760   15.6840 N   0  0  0  0  0  0  0  0  0  0  0  0
  -22.6050  -24.7470   14.8360 O   0  0  0  0  0  0  0  0  0  0  0  0
  -21.9750  -27.7540   15.4520 H   0  0  0  0  0  0  0  0  0  0  0  0
  -22.5520  -26.6020   13.2890 C   0  0  0  0  0  2  0  0  0  0  0  0
  -22.1740  -25.7140   12.2360 O   0  0  0  0  0  0  0  0  0  0  0  0
  -20.7960  -25.7440   11.8830 C   0  0  0  0  0  2  0  0  0  0  0  0
  -20.7310  -26.1250   10.3950 C   0  0  0  0  0  2  0  0  0  0  0  0
  -19.3030  -26.3350    9.8700 C   0  0  0  0  0  2  0  0  0  0  0  0
  -19.2570  -26.8150    8.4070 C   0  0  0  0  0  2  0  0  0  0  0  0
  -17.8100  -26.9310    7.9060 C   0  0  0  0  0  2  0  0  0  0  0  0
  -16.7000  -28.0560    6.0370 C   0  0  0  0  0  0  0  0  0  0  0  0
  -14.2990  -28.1330    5.4640 C   0  0  0  0  0  2  0  0  0  0  0  0
  -13.4450  -28.2650    6.7410 C   0  0  0  0  0  2  0  0  0  0  0  0
  -13.1440  -26.8760    7.3370 C   0  0  0  0  0  2  0  0  0  0  0  0
  -14.4130  -26.0000    7.4800 C   0  0  0  0  0  3  0  0  0  0  0  0
  -15.2280  -26.0020    6.1640 C   0  0  0  0  0  2  0  0  0  0  0  0
  -15.5270  -27.4020    5.8160 N   0  0  0  0  0  0  0  0  0  0  0  0
  -16.8670  -29.2490    5.7790 O   0  0  0  0  0  0  0  0  0  0  0  0
  -17.7290  -27.3320    6.5000 N   0  0  0  0  0  0  0  0  0  0  0  0
  -18.6080  -27.7190    6.1850 H   0  0  0  0  0  0  0  0  0  0  0  0
  -14.4900  -23.9590    9.0490 C   0  0  0  0  0  0  0  0  0  0  0  0
  -13.8490  -22.7500    9.0070 C   0  0  0  0  0  0  0  0  0  0  0  0
  -13.0600  -22.7650    7.8160 C   0  0  0  0  0  0  0  0  0  0  0  0
  -14.0880  -24.6440    7.9130 N   0  0  0  0  0  0  0  0  0  0  0  0
  -13.2600  -23.8920    7.1440 N   0  0  0  0  0  0  0  0  0  0  0  0
  -12.0820  -21.7990    7.3040 C   0  0  0  0  0  0  0  0  0  0  0  0
  -12.1140  -21.3540    5.9630 C   0  0  0  0  0  3  0  0  0  0  0  0
  -11.1750  -20.4100    5.4990 C   0  0  0  0  0  3  0  0  0  0  0  0
  -10.1910  -19.8990    6.3790 C   0  0  0  0  0  0  0  0  0  0  0  0
  -10.1480  -20.3600    7.7050 C   0  0  0  0  0  3  0  0  0  0  0  0
  -11.0830  -21.3040    8.1650 C   0  0  0  0  0  3  0  0  0  0  0  0
   -9.2190  -19.0030    6.0080 O   0  0  0  0  0  0  0  0  0  0  0  0
   -9.3890  -18.1530    4.9450 C   0  0  0  0  0  0  0  0  0  0  0  0
  -10.5040  -17.2910    4.8520 C   0  0  0  0  0  3  0  0  0  0  0  0
  -10.6080  -16.3880    3.7770 C   0  0  0  0  0  3  0  0  0  0  0  0
   -9.5950  -16.3380    2.8000 C   0  0  0  0  0  0  0  0  0  0  0  0
   -8.4810  -17.1910    2.8930 C   0  0  0  0  0  3  0  0  0  0  0  0
   -8.3780  -18.0960    3.9640 C   0  0  0  0  0  0  0  0  0  0  0  0
   -7.2950  -18.9040    4.0610 F   0  0  0  0  0  0  0  0  0  0  0  0
   -9.6880  -15.4640    1.7700 F   0  0  0  0  0  0  0  0  0  0  0  0
  -13.8850  -21.6790   10.0610 C   0  0  0  0  0  0  0  0  0  0  0  0
  -13.7700  -20.4200    9.6550 N   0  0  0  0  0  0  0  0  0  0  0  0
  -14.0640  -21.9510   11.2480 O   0  0  0  0  0  0  0  0  0  0  0  0
  -13.6440  -20.1950    8.6790 H   0  0  0  0  0  0  0  0  0  0  0  0
  -13.8130  -19.6710   10.3310 H   0  0  0  0  0  0  0  0  0  0  0  0
  -15.3600  -24.5350    9.9710 N   0  0  0  0  0  0  0  0  0  0  0  0
  -15.6250  -24.0550   10.8230 H   0  0  0  0  0  0  0  0  0  0  0  0
  -15.7100  -25.4820    9.9180 H   0  0  0  0  0  0  0  0  0  0  0  0
  1 59  1  0
  1  3  2  0
  2  1  1  0
  4  2  1  0
  5  6  1  0
  5  2  1  0
  6  7  1  0
  7 10  1  0
  7  9  1  0
  8  6  2  0
 11 10  1  0
 11 12  1  0
 12 13  1  0
 13 14  1  0
 14 15  1  0
 15 17  1  0
 16 15  2  0
 17 18  1  0
 20 18  1  0
 20 25  1  0
 21 31  1  0
 21 29  1  0
 22 24  1  0
 24 25  2  0
 24 23  1  0
 26 20  2  0
 27 26  1  0
 27 22  2  0
 28 22  1  0
 28 21  1  0
 29 23  1  0
 29 19  1  0
 30 19  2  0
 31 33  2  0
 32 31  1  0
 34 32  1  0
 35 40  1  0
 36 32  1  0
 37 36  1  0
 38 37  1  0
 39 35  1  0
 39 38  1  0
 40 41  2  0
 40 36  1  0
 42 41  1  0
 43 42  2  0
 44 43  1  0
 44 35  2  0
 45 19  1  0
 45 46  1  0
 45 50  1  0
 46 49  1  1
 47 46  1  0
 48 46  1  0
 50 51  1  0
 51 52  2  0
 51 55  1  0
 53 50  1  0
 55 54  1  0
 55 57  1  0
 57 58  1  0
 57 56  1  0
 60 61  1  0
 61 63  1  0
 61 59  1  0
 62 60  2  0
 64 60  1  0
 65 64  1  0
 66 68  2  0
 66 67  1  0
 67 65  1  0
 69 67  1  0
 70 66  1  0
 71 70  1  0
 72 71  1  0
 73 72  1  0
 74 73  1  0
 75 74  1  0
 76 75  1  0
 77 85  1  0
 78 83  1  0
 78 79  1  0
 79 80  1  0
 80 81  1  0
 81 82  1  0
 81 90  1  0
 83 77  1  0
 83 82  1  0
 84 77  2  0
 85 76  1  0
 86 85  1  0
 87112  1  0
 88 87  2  0
 88107  1  0
 89 88  1  0
 90 87  1  0
 91 89  2  0
 91 90  1  0
 92 89  1  0
 92 97  1  0
 93 92  2  0
 94 93  1  0
 94 95  2  0
 95 96  1  0
 96 97  2  0
 98 95  1  0
 99 98  1  0
100 99  1  0
101100  2  0
102103  2  0
102101  1  0
103104  1  0
104105  1  0
104 99  2  0
106102  1  0
107109  2  0
108107  1  0
108111  1  0
110108  1  0
112113  1  0
114112  1  0
M  ISO  4  17 101  18 101  77 100  85 100
M  END
>  <TORSDO>  (25) 
F 37

>  <SCORE>  (25) 
0.937

>  <name>  (25) 
29

>  <ligand_id>  (25) 
29

>  <original_smiles>  (25) 
[H]c1c([H])c([H])c2c(c1[H])C([H])([H])C([H])([H])C([H])([H])C2([H])N([H])C(=O)C1([H])N(C(=O)C([H])(N([H])C(=O)C([H])(N([H])C([H])([H])[H])C([H])([H])[H])C(C([H])([H])[H])(C([H])([H])[H])C([H])([H])[H])C([H])([H])c2c([H])c(OC([H])([H])C(=O)C([H])([H])OC([H])([H])C([H])([H])C([H])([H])N([H])C(=O)C([H])([H])N([H])C(=O)C([H])([H])N([H])C(=O)C([H])([H])C([H])([H])N([H])C(=O)C([H])([H])OC([H])([H])C([H])([H])C([H])([H])C([H])([H])C([H])([H])N([H])C(=O)N3C([H])([H])C([H])([H])C([H])([H])C([H])(n4nc(-c5c([H])c([H])c(Oc6c([H])c([H])c(F)c([H])c6F)c([H])c5[H])c(C(=O)N([H])[H])c4N([H])[H])C3([H])[H])c([H])c([H])c2C1([H])[H]

>  <smiles>  (25) 
[H]c1c([H])c([H])c2c(c1[H])C([H])([H])C([H])([H])C([H])([H])C2([H])N([H])C(=O)C1([H])N(C(=O)C([H])(N([H])C(=O)C([H])(N([H])C([H])([H])[H])C([H])([H])[H])C(C([H])([H])[H])(C([H])([H])[H])C([H])([H])[H])C([H])([H])c2c([H])c(OC([H])([H])C(=O)C([H])([H])OC([H])([H])C([H])([H])C([H])([H])N([H])C(=O)C([H])([H])N([H])C(=O)C([H])([H])N([H])C(=O)C([H])([H])C([H])([H])N([H])C(=O)C([H])([H])OC([H])([H])C([H])([H])C([H])([H])C([H])([H])C([H])([H])N([H])C(=O)N3C([H])([H])C([H])([H])C([H])([H])C([H])(n4nc(-c5c([H])c([H])c(Oc6c([H])c([H])c(F)c([H])c6F)c([H])c5[H])c(C(=O)N([H])[H])c4N([H])[H])C3([H])[H])c([H])c([H])c2C1([H])[H]

$$$$
30:0:0
     RDKit          3D

131138  0  0  1  0  0  0  0  0999 V2000
  -23.0780  -23.5880   22.1510 C   0  0  0  0  0  0  0  0  0  0  0  0
  -24.0400  -24.4990   21.9690 N   0  0  0  0  0  0  0  0  0  0  0  0
  -22.3790  -23.5620   23.1640 O   0  0  0  0  0  0  0  0  0  0  0  0
  -24.5520  -24.4090   21.1050 H   0  0  0  0  0  0  0  0  0  0  0  0
  -22.8240  -22.5700   21.0200 C   0  0  0  0  0  2  0  0  0  0  0  0
  -24.5270  -22.9110   19.2330 C   0  0  0  0  0  0  0  0  0  0  0  0
  -23.2790  -23.0140   19.6960 N   0  0  0  0  0  0  0  0  0  0  0  0
  -25.4410  -22.4550   19.9270 O   0  0  0  0  0  0  0  0  0  0  0  0
  -22.5770  -23.4040   19.0810 H   0  0  0  0  0  0  0  0  0  0  0  0
  -24.8110  -23.4250   17.8150 C   0  0  0  0  0  2  0  0  0  0  0  0
  -26.7970  -23.1810   16.3270 C   0  0  0  0  0  0  0  0  0  0  0  0
  -26.2160  -23.1840   17.5240 N   0  0  0  0  0  0  0  0  0  0  0  0
  -26.2190  -23.5320   15.2950 O   0  0  0  0  0  0  0  0  0  0  0  0
  -26.7410  -22.8340   18.3160 H   0  0  0  0  0  0  0  0  0  0  0  0
  -28.2390  -22.6800   16.2940 C   0  0  0  0  0  2  0  0  0  0  0  0
  -28.2900  -21.1710   15.9790 C   0  0  0  0  0  2  0  0  0  0  0  0
  -29.6680  -20.5300   16.2230 C   0  0  0  0  0  2  0  0  0  0  0  0
  -29.6160  -18.9990   16.0550 C   0  0  0  0  0  2  0  0  0  0  0  0
  -30.9750  -18.2890   16.2060 C   0  0  0  0  0  2  0  0  0  0  0  0
  -31.2910  -18.2520   18.6780 C   0  0  0  0  0  0  0  0  0  0  0  0
  -31.6640  -18.6230   17.4480 N   0  0  0  0  0  0  0  0  0  0  0  0
  -30.2610  -17.6130   18.9080 O   0  0  0  0  0  0  0  0  0  0  0  0
  -32.5290  -19.1410   17.3700 H   0  0  0  0  0  0  0  0  0  0  0  0
  -32.2140  -18.6660   19.8240 C   0  0  0  0  0  2  0  0  0  0  0  0
  -31.5130  -19.5610   20.6860 O   0  0  0  0  0  0  0  0  0  0  0  0
  -32.1510  -19.7270   21.9470 C   0  0  0  0  0  2  0  0  0  0  0  0
  -31.5480  -18.7530   22.9720 C   0  0  0  0  0  2  0  0  0  0  0  0
  -31.8330  -17.4160   22.5820 O   0  0  0  0  0  0  0  0  0  0  0  0
  -31.4480  -16.4580   23.5500 C   0  0  0  0  0  2  0  0  0  0  0  0
  -31.7670  -15.0600   23.0050 C   0  0  0  0  0  2  0  0  0  0  0  0
  -30.8490  -14.2550   20.8140 C   0  0  0  0  0  0  0  0  0  0  0  0
  -30.4120  -12.3110   19.3630 C   0  0  0  0  0  2  0  0  0  0  0  0
  -29.4690  -12.5480   18.1750 C   0  0  0  0  0  2  0  0  0  0  0  0
  -28.0030  -12.3740   18.6070 C   0  0  0  0  0  2  0  0  0  0  0  0
  -27.6610  -13.2040   19.8680 C   0  0  0  0  0  3  0  0  0  0  0  0
  -28.6970  -12.9670   20.9860 C   0  0  0  0  0  2  0  0  0  0  0  0
  -30.0480  -13.2240   20.4530 N   0  0  0  0  0  0  0  0  0  0  0  0
  -31.7760  -14.6850   20.1210 O   0  0  0  0  0  0  0  0  0  0  0  0
  -30.7270  -14.5470   22.1150 N   0  0  0  0  0  0  0  0  0  0  0  0
  -29.9430  -14.1060   22.5720 H   0  0  0  0  0  0  0  0  0  0  0  0
  -25.2590  -13.8160   20.5670 C   0  0  0  0  0  0  0  0  0  0  0  0
  -24.1840  -13.0440   20.9160 C   0  0  0  0  0  0  0  0  0  0  0  0
  -24.6390  -11.6900   20.8710 C   0  0  0  0  0  0  0  0  0  0  0  0
  -26.3020  -12.9320   20.3300 N   0  0  0  0  0  0  0  0  0  0  0  0
  -25.9310  -11.6490   20.5730 N   0  0  0  0  0  0  0  0  0  0  0  0
  -23.9060  -10.4290   21.0400 C   0  0  0  0  0  0  0  0  0  0  0  0
  -24.3610   -9.4220   21.9180 C   0  0  0  0  0  3  0  0  0  0  0  0
  -23.6290   -8.2250   22.0750 C   0  0  0  0  0  3  0  0  0  0  0  0
  -22.4280   -8.0280   21.3540 C   0  0  0  0  0  0  0  0  0  0  0  0
  -21.9910   -9.0250   20.4650 C   0  0  0  0  0  3  0  0  0  0  0  0
  -22.7230  -10.2130   20.3050 C   0  0  0  0  0  3  0  0  0  0  0  0
  -21.6640   -6.8880   21.4240 O   0  0  0  0  0  0  0  0  0  0  0  0
  -21.6850   -6.0730   22.5280 C   0  0  0  0  0  0  0  0  0  0  0  0
  -21.4020   -6.5640   23.8220 C   0  0  0  0  0  3  0  0  0  0  0  0
  -21.3660   -5.6790   24.9180 C   0  0  0  0  0  3  0  0  0  0  0  0
  -21.6050   -4.3050   24.7230 C   0  0  0  0  0  0  0  0  0  0  0  0
  -21.8820   -3.8140   23.4350 C   0  0  0  0  0  3  0  0  0  0  0  0
  -21.9200   -4.6960   22.3410 C   0  0  0  0  0  0  0  0  0  0  0  0
  -22.1660   -4.2150   21.0980 F   0  0  0  0  0  0  0  0  0  0  0  0
  -21.5630   -3.4540   25.7740 F   0  0  0  0  0  0  0  0  0  0  0  0
  -22.7860  -13.5230   21.1840 C   0  0  0  0  0  0  0  0  0  0  0  0
  -22.0510  -12.8230   22.0390 N   0  0  0  0  0  0  0  0  0  0  0  0
  -22.3540  -14.5560   20.6690 O   0  0  0  0  0  0  0  0  0  0  0  0
  -22.4120  -11.9870   22.4770 H   0  0  0  0  0  0  0  0  0  0  0  0
  -21.1120  -13.1240   22.2610 H   0  0  0  0  0  0  0  0  0  0  0  0
  -25.4320  -15.1880   20.4070 N   0  0  0  0  0  0  0  0  0  0  0  0
  -24.6700  -15.8480   20.5230 H   0  0  0  0  0  0  0  0  0  0  0  0
  -26.2980  -15.6250   20.1140 H   0  0  0  0  0  0  0  0  0  0  0  0
  -24.3810  -25.6210   22.8460 C   0  0  0  0  0  2  0  0  0  0  0  0
  -25.3240  -25.2480   24.0070 C   0  0  0  0  0  2  0  0  0  0  0  0
  -25.7250  -26.4820   24.8320 C   0  0  0  0  0  2  0  0  0  0  0  0
  -26.3880  -26.0810   26.0290 O   0  0  0  0  0  0  0  0  0  0  0  0
  -26.5000  -27.1500   26.9670 C   0  0  0  0  0  2  0  0  0  0  0  0
  -27.0870  -26.6710   28.3070 C   0  0  0  0  0  2  0  0  0  0  0  0
  -28.5060  -26.7520   28.2850 O   0  0  0  0  0  0  0  0  0  0  0  0
  -29.1180  -26.3370   29.5050 C   0  0  0  0  0  2  0  0  0  0  0  0
  -30.4140  -25.6000   29.1470 C   0  0  0  0  0  2  0  0  0  0  0  0
  -30.0470  -24.4660   28.3740 O   0  0  0  0  0  0  0  0  0  0  0  0
  -31.1490  -23.6650   27.9870 C   0  0  0  0  0  2  0  0  0  0  0  0
  -30.6220  -22.5610   27.0680 C   0  0  0  0  0  2  0  0  0  0  0  0
  -29.8490  -22.5380   24.7220 C   0  0  0  0  0  0  0  0  0  0  0  0
  -29.1960  -23.2630   23.8120 N   0  0  0  0  0  0  0  0  0  0  0  0
  -29.9630  -23.1450   25.9010 N   0  0  0  0  0  0  0  0  0  0  0  0
  -30.2970  -21.4120   24.5090 O   0  0  0  0  0  0  0  0  0  0  0  0
  -28.9090  -24.1960   24.0670 H   0  0  0  0  0  0  0  0  0  0  0  0
  -29.5460  -24.0560   26.0360 H   0  0  0  0  0  0  0  0  0  0  0  0
  -28.8070  -22.7880   22.4810 C   0  0  0  0  0  2  0  0  0  0  0  0
  -29.6750  -23.3840   21.3580 C   0  0  0  0  0  2  0  0  0  0  0  0
  -29.5670  -24.9130   21.1900 C   0  0  0  0  0  2  0  0  0  0  0  0
  -28.2850  -25.3720   20.4740 C   0  0  0  0  0  2  0  0  0  0  0  0
  -28.4090  -26.7550   20.1470 O   0  0  0  0  0  0  0  0  0  0  0  0
  -24.6080  -31.8720   23.2090 C   0  0  0  0  0  0  0  0  0  0  0  0
  -27.2400  -27.4730   20.1030 C   0  0  0  0  0  0  0  0  0  0  0  0
  -23.3960  -30.4960   21.5460 C   0  0  0  0  0  3  0  0  0  0  0  0
  -24.8430  -28.9640   20.1110 C   0  0  0  0  0  0  0  0  0  0  0  0
  -25.9220  -30.8500   21.3560 C   0  0  0  0  0  2  0  0  0  0  0  0
  -26.0000  -29.4850   20.7060 C   0  0  0  0  0  0  0  0  0  0  0  0
  -27.2010  -28.7500   20.6950 C   0  0  0  0  0  3  0  0  0  0  0  0
  -26.0770  -26.9590   19.4890 C   0  0  0  0  0  3  0  0  0  0  0  0
  -24.8770  -27.6960   19.4980 C   0  0  0  0  0  3  0  0  0  0  0  0
  -23.6050  -29.8280   20.1600 C   0  0  0  0  0  2  0  0  0  0  0  0
  -24.6610  -31.0870   22.0960 N   0  0  0  0  0  0  0  0  0  0  0  0
  -23.5260  -32.1390   23.7500 O   0  0  0  0  0  0  0  0  0  0  0  0
  -22.7400  -29.4670   22.4940 C   0  0  0  0  0  0  0  0  0  0  0  0
  -21.4130  -29.3090   22.3690 N   0  0  0  0  0  0  0  0  0  0  0  0
  -23.4210  -28.8200   23.2940 O   0  0  0  0  0  0  0  0  0  0  0  0
  -20.9310  -29.8900   21.6970 H   0  0  0  0  0  0  0  0  0  0  0  0
  -18.0270  -28.1400   22.8540 C   0  0  0  0  0  0  0  0  0  0  0  0
  -20.5860  -28.3680   23.1230 C   0  0  0  0  0  3  0  0  0  0  0  0
  -20.6770  -26.9500   22.5170 C   0  0  0  0  0  2  0  0  0  0  0  0
  -19.5620  -26.6470   21.5120 C   0  0  0  0  0  2  0  0  0  0  0  0
  -18.1870  -26.7940   22.1700 C   0  0  0  0  0  2  0  0  0  0  0  0
  -19.1540  -28.8860   23.2900 C   0  0  0  0  0  0  0  0  0  0  0  0
  -18.9500  -30.1450   23.8940 C   0  0  0  0  0  3  0  0  0  0  0  0
  -17.6520  -30.6630   24.0600 C   0  0  0  0  0  3  0  0  0  0  0  0
  -16.5390  -29.9160   23.6380 C   0  0  0  0  0  3  0  0  0  0  0  0
  -16.7270  -28.6550   23.0460 C   0  0  0  0  0  3  0  0  0  0  0  0
  -25.8960  -32.4870   23.8370 C   0  0  0  0  0  3  0  0  0  0  0  0
  -26.4530  -31.6690   25.0650 C   0  0  1  0  0  0  0  0  0  0  0  0
  -25.3850  -31.3550   26.1410 C   0  0  0  0  0  1  0  0  0  0  0  0
  -27.0540  -30.3240   24.5960 C   0  0  0  0  0  1  0  0  0  0  0  0
  -27.6100  -32.4500   25.7330 C   0  0  0  0  0  1  0  0  0  0  0  0
  -25.5830  -33.8660   24.2310 N   0  0  0  0  0  0  0  0  0  0  0  0
  -25.9050  -34.9530   23.5170 C   0  0  0  0  0  0  0  0  0  0  0  0
  -26.5660  -34.8980   22.4750 O   0  0  0  0  0  0  0  0  0  0  0  0
  -24.9920  -33.9860   25.0410 H   0  0  0  0  0  0  0  0  0  0  0  0
  -24.1490  -36.7320   23.2660 C   0  0  0  0  0  1  0  0  0  0  0  0
  -25.4120  -36.3160   24.0380 C   0  0  0  0  0  3  0  0  0  0  0  0
  -27.5610  -37.1810   24.8500 C   0  0  0  0  0  1  0  0  0  0  0  0
  -26.4310  -37.3850   23.9470 N   0  0  0  0  0  0  0  0  0  0  0  0
  -26.0210  -38.2960   24.1380 H   0  0  0  0  0  0  0  0  0  0  0  0
  1  3  2  0
  2  1  1  0
  2 69  1  0
  4  2  1  0
  5  1  1  0
  6  7  1  0
  6  8  2  0
  7  5  1  0
  9  7  1  0
 10  6  1  0
 11 12  1  0
 12 10  1  0
 12 14  1  0
 13 11  2  0
 15 11  1  0
 16 17  1  0
 16 15  1  0
 18 19  1  0
 18 17  1  0
 19 21  1  0
 20 22  2  0
 20 24  1  0
 21 20  1  0
 23 21  1  0
 24 25  1  0
 25 26  1  0
 26 27  1  0
 28 27  1  0
 28 29  1  0
 30 29  1  0
 31 39  1  0
 32 37  1  0
 33 34  1  0
 33 32  1  0
 35 34  1  0
 35 44  1  0
 35 36  1  0
 37 31  1  0
 37 36  1  0
 38 31  2  0
 39 40  1  0
 39 30  1  0
 41 42  2  0
 42 61  1  0
 43 42  1  0
 43 46  1  0
 44 41  1  0
 44 45  1  0
 45 43  2  0
 46 47  1  0
 47 48  2  0
 49 52  1  0
 49 48  1  0
 50 49  2  0
 51 50  1  0
 51 46  2  0
 52 53  1  0
 53 54  1  0
 54 55  2  0
 56 55  1  0
 56 60  1  0
 57 56  2  0
 58 53  2  0
 58 57  1  0
 59 58  1  0
 61 62  1  0
 62 65  1  0
 62 64  1  0
 63 61  2  0
 66 67  1  0
 66 41  1  0
 68 66  1  0
 69 70  1  0
 70 71  1  0
 71 72  1  0
 72 73  1  0
 73 74  1  0
 75 74  1  0
 75 76  1  0
 77 76  1  0
 78 77  1  0
 79 78  1  0
 80 79  1  0
 81 83  1  0
 82 85  1  0
 82 81  1  0
 83 86  1  0
 83 80  1  0
 84 81  2  0
 87 82  1  0
 88 87  1  0
 89 88  1  0
 90 89  1  0
 91 90  1  0
 92103  2  0
 93 91  1  0
 93 98  1  0
 94102  1  0
 94104  1  0
 95101  1  0
 95 97  1  0
 96102  1  0
 97 96  1  0
 98 97  2  0
 99100  1  0
 99 93  2  0
100 95  2  0
101 94  1  0
102 92  1  0
104106  2  0
105104  1  0
107105  1  0
108117  2  0
108113  1  0
109105  1  0
109113  1  0
110109  1  0
111112  1  0
111110  1  0
112108  1  0
113114  2  0
114115  1  0
116115  2  0
117116  1  0
118 92  1  0
118123  1  0
118119  1  0
119122  1  1
119120  1  0
121119  1  0
123126  1  0
124128  1  0
124123  1  0
125124  2  0
128127  1  0
130128  1  0
130131  1  0
130129  1  0
M  ISO  4  31 100  39 100  90 101  91 101
M  END
>  <TORSDO>  (26) 
F 50

>  <SCORE>  (26) 
18.553

>  <name>  (26) 
30

>  <ligand_id>  (26) 
30

>  <original_smiles>  (26) 
[H]c1c([H])c([H])c2c(c1[H])C([H])([H])C([H])([H])C([H])([H])C2([H])N([H])C(=O)C1([H])N(C(=O)C([H])(N([H])C(=O)C([H])(N([H])C([H])([H])[H])C([H])([H])[H])C(C([H])([H])[H])(C([H])([H])[H])C([H])([H])[H])C([H])([H])c2c([H])c(OC([H])([H])C([H])([H])C([H])([H])C([H])([H])N([H])C(=O)N([H])C([H])([H])C([H])([H])OC([H])([H])C([H])([H])OC([H])([H])C([H])([H])OC([H])([H])C([H])([H])C([H])([H])N([H])C(=O)C([H])([H])N([H])C(=O)C([H])([H])N([H])C(=O)C([H])([H])C([H])([H])C([H])([H])C([H])([H])C([H])([H])N([H])C(=O)C([H])([H])OC([H])([H])C([H])([H])OC([H])([H])C([H])([H])N([H])C(=O)N3C([H])([H])C([H])([H])C([H])([H])C([H])(n4nc(-c5c([H])c([H])c(Oc6c([H])c([H])c(F)c([H])c6F)c([H])c5[H])c(C(=O)N([H])[H])c4N([H])[H])C3([H])[H])c([H])c([H])c2C1([H])[H]

>  <smiles>  (26) 
[H]c1c([H])c([H])c2c(c1[H])C([H])([H])C([H])([H])C([H])([H])C2([H])N([H])C(=O)C1([H])N(C(=O)C([H])(N([H])C(=O)C([H])(N([H])C([H])([H])[H])C([H])([H])[H])C(C([H])([H])[H])(C([H])([H])[H])C([H])([H])[H])C([H])([H])c2c([H])c(OC([H])([H])C([H])([H])C([H])([H])C([H])([H])N([H])C(=O)N([H])C([H])([H])C([H])([H])OC([H])([H])C([H])([H])OC([H])([H])C([H])([H])OC([H])([H])C([H])([H])C([H])([H])N([H])C(=O)C([H])([H])N([H])C(=O)C([H])([H])N([H])C(=O)C([H])([H])C([H])([H])C([H])([H])C([H])([H])C([H])([H])N([H])C(=O)C([H])([H])OC([H])([H])C([H])([H])OC([H])([H])C([H])([H])N([H])C(=O)N3C([H])([H])C([H])([H])C([H])([H])C([H])(n4nc(-c5c([H])c([H])c(Oc6c([H])c([H])c(F)c([H])c6F)c([H])c5[H])c(C(=O)N([H])[H])c4N([H])[H])C3([H])[H])c([H])c([H])c2C1([H])[H]

$$$$
31:0:0
     RDKit          3D

112116  0  0  1  0  0  0  0  0999 V2000
  -35.3640  -13.1700   21.2890 C   0  0  0  0  0  0  0  0  0  0  0  0
  -34.1240  -13.4000   21.7410 N   0  0  0  0  0  0  0  0  0  0  0  0
  -36.3300  -13.8610   21.6260 O   0  0  0  0  0  0  0  0  0  0  0  0
  -33.3840  -12.7950   21.4020 H   0  0  0  0  0  0  0  0  0  0  0  0
  -33.7900  -14.3880   22.7700 C   0  0  0  0  0  2  0  0  0  0  0  0
  -33.2850  -15.7060   22.1590 C   0  0  0  0  0  2  0  0  0  0  0  0
  -33.0110  -16.8180   23.1860 C   0  0  0  0  0  2  0  0  0  0  0  0
  -32.4470  -18.0660   22.4900 C   0  0  0  0  0  2  0  0  0  0  0  0
  -31.9810  -19.1690   23.4490 C   0  0  0  0  0  2  0  0  0  0  0  0
  -31.2150  -20.2780   22.7040 C   0  0  0  0  0  2  0  0  0  0  0  0
  -30.5780  -21.3110   23.6420 C   0  0  0  0  0  2  0  0  0  0  0  0
  -29.8840  -22.4540   22.8790 C   0  0  0  0  0  2  0  0  0  0  0  0
  -29.0870  -23.3800   23.8150 C   0  0  0  0  0  2  0  0  0  0  0  0
  -28.4010  -24.5620   23.1070 C   0  0  0  0  0  2  0  0  0  0  0  0
  -27.6540  -25.4740   24.0960 C   0  0  0  0  0  2  0  0  0  0  0  0
  -27.0470  -26.5620   23.4030 O   0  0  0  0  0  0  0  0  0  0  0  0
  -28.6560  -33.2120   25.2970 C   0  0  0  0  0  0  0  0  0  0  0  0
  -26.7140  -27.6440   24.1820 C   0  0  0  0  0  0  0  0  0  0  0  0
  -26.8860  -32.1190   26.6400 C   0  0  0  0  0  3  0  0  0  0  0  0
  -26.0030  -29.9090   25.7140 C   0  0  0  0  0  0  0  0  0  0  0  0
  -27.2790  -31.4460   24.2050 C   0  0  0  0  0  2  0  0  0  0  0  0
  -26.8060  -30.0560   24.5750 C   0  0  0  0  0  0  0  0  0  0  0  0
  -27.1520  -28.9300   23.8010 C   0  0  0  0  0  3  0  0  0  0  0  0
  -25.9100  -27.5050   25.3360 C   0  0  0  0  0  3  0  0  0  0  0  0
  -25.5530  -28.6340   26.1020 C   0  0  0  0  0  3  0  0  0  0  0  0
  -25.6650  -31.1720   26.4750 C   0  0  0  0  0  2  0  0  0  0  0  0
  -27.6680  -32.2750   25.3710 N   0  0  0  0  0  0  0  0  0  0  0  0
  -28.8890  -33.9710   26.2460 O   0  0  0  0  0  0  0  0  0  0  0  0
  -27.7390  -31.6170   27.8260 C   0  0  0  0  0  0  0  0  0  0  0  0
  -27.3990  -32.0730   29.0420 N   0  0  0  0  0  0  0  0  0  0  0  0
  -28.6610  -30.8150   27.6490 O   0  0  0  0  0  0  0  0  0  0  0  0
  -26.6380  -32.7350   29.1030 H   0  0  0  0  0  0  0  0  0  0  0  0
  -27.4540  -32.7870   32.5830 C   0  0  0  0  0  0  0  0  0  0  0  0
  -28.0320  -31.7040   30.3070 C   0  0  0  0  0  3  0  0  0  0  0  0
  -27.4150  -30.4080   30.8830 C   0  0  0  0  0  2  0  0  0  0  0  0
  -26.2680  -30.6690   31.8650 C   0  0  0  0  0  2  0  0  0  0  0  0
  -26.7530  -31.5200   33.0420 C   0  0  0  0  0  2  0  0  0  0  0  0
  -28.0400  -32.8800   31.2920 C   0  0  0  0  0  0  0  0  0  0  0  0
  -28.6470  -34.0930   30.9010 C   0  0  0  0  0  3  0  0  0  0  0  0
  -28.6780  -35.1970   31.7740 C   0  0  0  0  0  3  0  0  0  0  0  0
  -28.1090  -35.0950   33.0550 C   0  0  0  0  0  3  0  0  0  0  0  0
  -27.5020  -33.8920   33.4590 C   0  0  0  0  0  3  0  0  0  0  0  0
  -29.5190  -33.3920   24.0090 C   0  0  0  0  0  3  0  0  0  0  0  0
  -29.6850  -34.8350   23.7840 N   0  0  0  0  0  0  0  0  0  0  0  0
  -28.9590  -35.5560   22.9180 C   0  0  0  0  0  0  0  0  0  0  0  0
  -28.1170  -35.0530   22.1680 O   0  0  0  0  0  0  0  0  0  0  0  0
  -30.3180  -35.3190   24.4040 H   0  0  0  0  0  0  0  0  0  0  0  0
  -28.1100  -37.7900   23.6940 C   0  0  0  0  0  1  0  0  0  0  0  0
  -29.2030  -37.0760   22.8840 C   0  0  0  0  0  3  0  0  0  0  0  0
  -30.4200  -37.1920   20.7550 C   0  0  0  0  0  1  0  0  0  0  0  0
  -29.2530  -37.6310   21.5140 N   0  0  0  0  0  0  0  0  0  0  0  0
  -29.2510  -38.6480   21.5370 H   0  0  0  0  0  0  0  0  0  0  0  0
  -30.9230  -32.6740   24.0950 C   0  0  1  0  0  0  0  0  0  0  0  0
  -31.7260  -33.0300   25.3680 C   0  0  0  0  0  1  0  0  0  0  0  0
  -30.7460  -31.1380   24.0580 C   0  0  0  0  0  1  0  0  0  0  0  0
  -31.7810  -33.0520   22.8660 C   0  0  0  0  0  1  0  0  0  0  0  0
  -35.5800  -11.9630   20.3660 C   0  0  0  0  0  2  0  0  0  0  0  0
  -35.2100  -12.2590   19.0180 O   0  0  0  0  0  0  0  0  0  0  0  0
  -35.3710  -11.1040   18.1930 C   0  0  0  0  0  2  0  0  0  0  0  0
  -35.3220  -11.4350   16.6960 C   0  0  0  0  0  2  0  0  0  0  0  0
  -36.6970  -11.6520   16.0490 C   0  0  0  0  0  2  0  0  0  0  0  0
  -36.4780  -12.4360   14.8880 O   0  0  0  0  0  0  0  0  0  0  0  0
  -37.5100  -12.3460   13.9120 C   0  0  0  0  0  2  0  0  0  0  0  0
  -37.6120  -13.6910   13.1690 C   0  0  0  0  0  2  0  0  0  0  0  0
  -36.2920  -14.1990   12.5460 C   0  0  0  0  0  2  0  0  0  0  0  0
  -35.2560  -16.0860   13.8250 C   0  0  0  0  0  0  0  0  0  0  0  0
  -35.4110  -14.7860   13.5540 N   0  0  0  0  0  0  0  0  0  0  0  0
  -35.7120  -16.9820   13.1130 O   0  0  0  0  0  0  0  0  0  0  0  0
  -34.9920  -14.1390   14.2110 H   0  0  0  0  0  0  0  0  0  0  0  0
  -34.4780  -16.4140   15.1030 C   0  0  0  0  0  2  0  0  0  0  0  0
  -35.1760  -17.4160   16.0520 C   0  0  0  0  0  2  0  0  0  0  0  0
  -36.6430  -17.1130   16.4020 C   0  0  0  0  0  2  0  0  0  0  0  0
  -37.2190  -18.1420   17.3860 C   0  0  0  0  0  2  0  0  0  0  0  0
  -38.7540  -18.2360   17.3960 C   0  0  0  0  0  2  0  0  0  0  0  0
  -40.4930  -16.0300   18.4730 C   0  0  2  0  0  0  0  0  0  0  0  0
  -39.2580  -15.0310   18.2000 C   0  0  0  0  0  1  0  0  0  0  0  0
  -39.5940  -15.4230   16.3710 C   0  0  0  0  0  1  0  0  0  0  0  0
  -40.7610  -16.6770   15.9440 C   0  0  0  0  0  2  0  0  0  0  0  0
  -41.7620  -17.5210   17.1080 C   0  0  0  0  0  2  0  0  0  0  0  0
  -41.5370  -17.1940   18.9380 C   0  0  0  0  0  1  0  0  0  0  0  0
  -40.2580  -15.9920   19.3960 N   0  0  0  0  0  1  0  0  0  0  0  0
  -41.4500  -15.0750   18.1640 O   0  0  0  0  0  1  0  0  0  0  0  0
  -39.4130  -17.2400   18.2690 N   0  0  0  0  0  2  0  0  0  0  0  0
  -39.0460  -17.3770   19.1990 H   0  0  0  0  0  0  0  0  0  0  0  0
  -43.3090  -19.4350   16.3980 C   0  0  0  0  0  0  0  0  0  0  0  0
  -43.1210  -20.7540   16.0900 C   0  0  0  0  0  0  0  0  0  0  0  0
  -41.7200  -20.9980   16.2090 C   0  0  0  0  0  0  0  0  0  0  0  0
  -42.0670  -18.9190   16.7250 N   0  0  0  0  0  0  0  0  0  0  0  0
  -41.1090  -19.8880   16.6220 N   0  0  0  0  0  0  0  0  0  0  0  0
  -40.9410  -22.2200   15.9090 C   0  0  0  0  0  0  0  0  0  0  0  0
  -40.0460  -22.7840   16.8470 C   0  0  0  0  0  3  0  0  0  0  0  0
  -39.3410  -23.9730   16.5480 C   0  0  0  0  0  3  0  0  0  0  0  0
  -39.5300  -24.6180   15.3020 C   0  0  0  0  0  0  0  0  0  0  0  0
  -40.4070  -24.0440   14.3640 C   0  0  0  0  0  3  0  0  0  0  0  0
  -41.1040  -22.8610   14.6630 C   0  0  0  0  0  3  0  0  0  0  0  0
  -38.8670  -25.7570   14.9100 O   0  0  0  0  0  0  0  0  0  0  0  0
  -38.3870  -26.6660   15.8200 C   0  0  0  0  0  0  0  0  0  0  0  0
  -39.2280  -27.2640   16.7840 C   0  0  0  0  0  3  0  0  0  0  0  0
  -38.7140  -28.2440   17.6570 C   0  0  0  0  0  3  0  0  0  0  0  0
  -37.3630  -28.6360   17.5610 C   0  0  0  0  0  0  0  0  0  0  0  0
  -36.5280  -28.0480   16.5950 C   0  0  0  0  0  3  0  0  0  0  0  0
  -37.0420  -27.0680   15.7240 C   0  0  0  0  0  0  0  0  0  0  0  0
  -36.2340  -26.5200   14.7830 F   0  0  0  0  0  0  0  0  0  0  0  0
  -36.8700  -29.5810   18.3940 F   0  0  0  0  0  0  0  0  0  0  0  0
  -44.1820  -21.7160   15.6400 C   0  0  0  0  0  0  0  0  0  0  0  0
  -44.0350  -22.9930   15.9750 N   0  0  0  0  0  0  0  0  0  0  0  0
  -45.1820  -21.3260   15.0380 O   0  0  0  0  0  0  0  0  0  0  0  0
  -43.2330  -23.3050   16.5020 H   0  0  0  0  0  0  0  0  0  0  0  0
  -44.7370  -23.6690   15.7040 H   0  0  0  0  0  0  0  0  0  0  0  0
  -44.4370  -18.6220   16.4160 N   0  0  0  0  0  0  0  0  0  0  0  0
  -45.3580  -18.9470   16.1360 H   0  0  0  0  0  0  0  0  0  0  0  0
  -44.4230  -17.6340   16.6410 H   0  0  0  0  0  0  0  0  0  0  0  0
  1  3  2  0
  1  2  1  0
  2  5  1  0
  4  2  1  0
  6  5  1  0
  6  7  1  0
  8  7  1  0
  8  9  1  0
 10  9  1  0
 10 11  1  0
 12 11  1  0
 12 13  1  0
 14 13  1  0
 14 15  1  0
 16 15  1  0
 16 18  1  0
 17 27  1  0
 17 28  2  0
 18 24  1  0
 19 29  1  0
 20 25  1  0
 20 26  1  0
 21 22  1  0
 21 27  1  0
 22 20  2  0
 23 18  2  0
 23 22  1  0
 24 25  2  0
 26 19  1  0
 27 19  1  0
 29 30  1  0
 30 32  1  0
 31 29  2  0
 33 37  1  0
 33 42  1  0
 34 30  1  0
 34 35  1  0
 34 38  1  0
 35 36  1  0
 36 37  1  0
 38 33  2  0
 39 38  1  0
 39 40  2  0
 40 41  1  0
 41 42  2  0
 43 53  1  0
 43 17  1  0
 44 43  1  0
 44 47  1  0
 45 44  1  0
 46 45  2  0
 49 45  1  0
 49 48  1  0
 50 51  1  0
 51 52  1  0
 51 49  1  0
 53 54  1  1
 55 53  1  0
 56 53  1  0
 57  1  1  0
 58 57  1  0
 59 58  1  0
 60 59  1  0
 61 60  1  0
 62 61  1  0
 63 62  1  0
 64 63  1  0
 65 64  1  0
 65 67  1  0
 66 70  1  0
 67 66  1  0
 67 69  1  0
 68 66  2  0
 70 71  1  0
 71 72  1  0
 72 73  1  0
 73 74  1  0
 74 83  1  0
 75 80  1  6
 75 81  1  0
 76 75  1  0
 78 77  1  0
 78 79  1  0
 82 75  1  0
 83 84  1  0
 85110  1  0
 85 88  1  0
 86 87  1  0
 86 85  2  0
 87 89  2  0
 88 79  1  0
 89 88  1  0
 90 87  1  0
 90 91  1  0
 92 91  2  0
 93 92  1  0
 94 95  1  0
 94 93  2  0
 95 90  2  0
 96 93  1  0
 96 97  1  0
 97 98  1  0
 98 99  2  0
100 99  1  0
100104  1  0
101100  2  0
102 97  2  0
102101  1  0
103102  1  0
105106  1  0
105 86  1  0
106108  1  0
107105  2  0
109106  1  0
110112  1  0
111110  1  0
M  ISO  4  15 101  16 101  75 100  83 100
M  END
>  <TORSDO>  (27) 
F 42

>  <SCORE>  (27) 
11.289

>  <name>  (27) 
31

>  <ligand_id>  (27) 
31

>  <original_smiles>  (27) 
[H]c1c([H])c([H])c2c(c1[H])C([H])([H])C([H])([H])C([H])([H])C2([H])N([H])C(=O)C1([H])N(C(=O)C([H])(N([H])C(=O)C([H])(N([H])C([H])([H])[H])C([H])([H])[H])C(C([H])([H])[H])(C([H])([H])[H])C([H])([H])[H])C([H])([H])c2c([H])c(OC([H])([H])C([H])([H])C([H])([H])C([H])([H])C([H])([H])C([H])([H])C([H])([H])C([H])([H])C([H])([H])C([H])([H])C([H])([H])N([H])C(=O)C([H])([H])OC([H])([H])C([H])([H])C([H])([H])OC([H])([H])C([H])([H])C([H])([H])N([H])C(=O)C([H])([H])C([H])([H])C([H])([H])C([H])([H])C([H])([H])N([H])C(=O)N3C([H])([H])C([H])([H])C([H])([H])C([H])(n4nc(-c5c([H])c([H])c(Oc6c([H])c([H])c(F)c([H])c6F)c([H])c5[H])c(C(=O)N([H])[H])c4N([H])[H])C3([H])[H])c([H])c([H])c2C1([H])[H]

>  <smiles>  (27) 
[H]c1c([H])c([H])c2c(c1[H])C([H])([H])C([H])([H])C([H])([H])C2([H])N([H])C(=O)C1([H])N(C(=O)C([H])(N([H])C(=O)C([H])(N([H])C([H])([H])[H])C([H])([H])[H])C(C([H])([H])[H])(C([H])([H])[H])C([H])([H])[H])C([H])([H])c2c([H])c(OC([H])([H])C([H])([H])C([H])([H])C([H])([H])C([H])([H])C([H])([H])C([H])([H])C([H])([H])C([H])([H])C([H])([H])C([H])([H])N([H])C(=O)C([H])([H])OC([H])([H])C([H])([H])C([H])([H])OC([H])([H])C([H])([H])C([H])([H])N([H])C(=O)C([H])([H])C([H])([H])C([H])([H])C([H])([H])C([H])([H])N([H])C(=O)N3C([H])([H])C([H])([H])C([H])([H])C([H])(n4nc(-c5c([H])c([H])c(Oc6c([H])c([H])c(F)c([H])c6F)c([H])c5[H])c(C(=O)N([H])[H])c4N([H])[H])C3([H])[H])c([H])c([H])c2C1([H])[H]

$$$$
33:0:0
     RDKit          3D

150157  0  0  1  0  0  0  0  0999 V2000
  -24.9790  -13.7380   28.4010 C   0  0  0  0  0  2  0  0  0  0  0  0
  -24.4010  -15.4250   26.6630 C   0  0  0  0  0  0  0  0  0  0  0  0
  -24.7180  -14.1800   27.0340 N   0  0  0  0  0  0  0  0  0  0  0  0
  -24.3340  -16.3630   27.4620 O   0  0  0  0  0  0  0  0  0  0  0  0
  -24.7460  -13.4690   26.3140 H   0  0  0  0  0  0  0  0  0  0  0  0
  -24.1110  -15.6370   25.1680 C   0  0  0  0  0  2  0  0  0  0  0  0
  -22.4770  -17.5120   24.9920 C   0  0  0  0  0  0  0  0  0  0  0  0
  -23.7070  -17.0060   24.8490 N   0  0  0  0  0  0  0  0  0  0  0  0
  -21.5260  -16.8450   25.4030 O   0  0  0  0  0  0  0  0  0  0  0  0
  -24.4510  -17.6060   24.5110 H   0  0  0  0  0  0  0  0  0  0  0  0
  -22.2750  -18.9740   24.5980 C   0  0  0  0  0  2  0  0  0  0  0  0
  -20.8410  -19.3340   24.5560 N   0  0  0  0  0  4  0  0  0  0  0  0
  -20.4920  -19.3040   25.5020 H   0  0  0  0  0  0  0  0  0  0  0  0
  -20.3720  -18.5990   24.0520 H   0  0  0  0  0  0  0  0  0  0  0  0
  -20.5760  -20.6600   23.9450 C   0  0  0  0  0  2  0  0  0  0  0  0
  -19.0830  -21.0720   23.9330 C   0  0  0  0  0  2  0  0  0  0  0  0
  -18.1810  -20.3870   22.8770 C   0  0  0  0  0  2  0  0  0  0  0  0
  -18.4830  -20.8080   21.4880 N   0  0  0  0  0  4  0  0  0  0  0  0
  -19.4090  -20.5050   21.2270 H   0  0  0  0  0  0  0  0  0  0  0  0
  -18.4510  -21.8130   21.4140 H   0  0  0  0  0  0  0  0  0  0  0  0
  -17.6040  -20.2220   20.4530 C   0  0  0  0  0  2  0  0  0  0  0  0
  -18.3340  -20.2390   19.1080 C   0  0  0  0  0  2  0  0  0  0  0  0
  -19.5430  -19.5220   19.3410 O   0  0  0  0  0  0  0  0  0  0  0  0
  -20.4250  -19.5070   18.2300 C   0  0  0  0  0  2  0  0  0  0  0  0
  -21.5860  -18.5550   18.5490 C   0  0  0  0  0  2  0  0  0  0  0  0
  -22.4030  -18.9520   19.7940 C   0  0  0  0  0  2  0  0  0  0  0  0
  -23.6460  -18.0640   19.9880 C   0  0  0  0  0  2  0  0  0  0  0  0
  -24.3900  -18.3090   21.3180 C   0  0  0  0  0  2  0  0  0  0  0  0
  -26.5920  -17.5480   22.2270 C   0  0  0  0  0  0  0  0  0  0  0  0
  -25.7870  -17.9000   21.2160 N   0  0  0  0  0  0  0  0  0  0  0  0
  -26.2610  -17.6470   23.4090 O   0  0  0  0  0  0  0  0  0  0  0  0
  -26.1520  -17.8050   20.2780 H   0  0  0  0  0  0  0  0  0  0  0  0
  -27.9860  -17.0340   21.8520 C   0  0  0  0  0  2  0  0  0  0  0  0
  -28.9450  -17.2210   22.9660 N   0  0  0  0  0  4  0  0  0  0  0  0
  -28.8030  -16.5200   23.6760 H   0  0  0  0  0  0  0  0  0  0  0  0
  -28.6800  -18.0950   23.3910 H   0  0  0  0  0  0  0  0  0  0  0  0
  -30.3790  -17.3110   22.5900 C   0  0  0  0  0  2  0  0  0  0  0  0
  -31.1340  -15.9610   22.6070 C   0  0  0  0  0  2  0  0  0  0  0  0
  -30.7840  -14.3120   20.7430 C   0  0  0  0  0  0  0  0  0  0  0  0
  -30.4200  -12.2950   19.3650 C   0  0  0  0  0  2  0  0  0  0  0  0
  -29.4800  -12.5420   18.1720 C   0  0  0  0  0  2  0  0  0  0  0  0
  -28.0090  -12.3790   18.5910 C   0  0  0  0  0  2  0  0  0  0  0  0
  -27.6680  -13.1860   19.8680 C   0  0  0  0  0  3  0  0  0  0  0  0
  -28.7040  -12.9120   20.9780 C   0  0  0  0  0  2  0  0  0  0  0  0
  -30.0510  -13.2090   20.4530 N   0  0  0  0  0  0  0  0  0  0  0  0
  -31.7460  -14.7000   20.0750 O   0  0  0  0  0  0  0  0  0  0  0  0
  -30.4420  -14.8780   21.9080 N   0  0  0  0  0  0  0  0  0  0  0  0
  -29.7230  -14.3790   22.4100 H   0  0  0  0  0  0  0  0  0  0  0  0
  -25.2590  -13.7890   20.5390 C   0  0  0  0  0  0  0  0  0  0  0  0
  -24.1880  -13.0330   20.9170 C   0  0  0  0  0  0  0  0  0  0  0  0
  -24.6420  -11.6810   20.8760 C   0  0  0  0  0  0  0  0  0  0  0  0
  -26.3060  -12.9120   20.3240 N   0  0  0  0  0  0  0  0  0  0  0  0
  -25.9350  -11.6330   20.5770 N   0  0  0  0  0  0  0  0  0  0  0  0
  -23.9060  -10.4250   21.0430 C   0  0  0  0  0  0  0  0  0  0  0  0
  -24.3610   -9.4180   21.9210 C   0  0  0  0  0  3  0  0  0  0  0  0
  -23.6290   -8.2220   22.0770 C   0  0  0  0  0  3  0  0  0  0  0  0
  -22.4270   -8.0270   21.3550 C   0  0  0  0  0  0  0  0  0  0  0  0
  -21.9900   -9.0250   20.4660 C   0  0  0  0  0  3  0  0  0  0  0  0
  -22.7230  -10.2120   20.3080 C   0  0  0  0  0  3  0  0  0  0  0  0
  -21.6650   -6.8880   21.4240 O   0  0  0  0  0  0  0  0  0  0  0  0
  -21.6860   -6.0730   22.5280 C   0  0  0  0  0  0  0  0  0  0  0  0
  -21.4020   -6.5640   23.8200 C   0  0  0  0  0  3  0  0  0  0  0  0
  -21.3650   -5.6790   24.9170 C   0  0  0  0  0  3  0  0  0  0  0  0
  -21.6040   -4.3060   24.7220 C   0  0  0  0  0  0  0  0  0  0  0  0
  -21.8830   -3.8150   23.4350 C   0  0  0  0  0  3  0  0  0  0  0  0
  -21.9210   -4.6970   22.3400 C   0  0  0  0  0  0  0  0  0  0  0  0
  -22.1680   -4.2150   21.0980 F   0  0  0  0  0  0  0  0  0  0  0  0
  -21.5620   -3.4540   25.7730 F   0  0  0  0  0  0  0  0  0  0  0  0
  -22.7920  -13.5210   21.1840 C   0  0  0  0  0  0  0  0  0  0  0  0
  -22.0560  -12.8220   22.0400 N   0  0  0  0  0  0  0  0  0  0  0  0
  -22.3650  -14.5550   20.6710 O   0  0  0  0  0  0  0  0  0  0  0  0
  -22.4110  -11.9790   22.4660 H   0  0  0  0  0  0  0  0  0  0  0  0
  -21.1170  -13.1240   22.2570 H   0  0  0  0  0  0  0  0  0  0  0  0
  -25.4310  -15.1430   20.3210 N   0  0  0  0  0  0  0  0  0  0  0  0
  -24.6220  -15.7510   20.3440 H   0  0  0  0  0  0  0  0  0  0  0  0
  -26.1470  -15.4560   19.6820 H   0  0  0  0  0  0  0  0  0  0  0  0
  -26.4800  -13.6950   28.7330 C   0  0  0  0  0  2  0  0  0  0  0  0
  -27.0240  -15.0100   28.7600 O   0  0  0  0  0  0  0  0  0  0  0  0
  -28.2820  -15.0690   29.4220 C   0  0  0  0  0  2  0  0  0  0  0  0
  -28.7620  -16.5230   29.5050 C   0  0  0  0  0  2  0  0  0  0  0  0
  -29.3970  -17.0340   28.2090 C   0  0  0  0  0  2  0  0  0  0  0  0
  -29.6200  -18.4300   28.3390 O   0  0  0  0  0  0  0  0  0  0  0  0
  -30.4350  -18.9650   27.3020 C   0  0  0  0  0  2  0  0  0  0  0  0
  -30.1560  -20.4670   27.1510 C   0  0  0  0  0  0  0  0  0  0  0  0
  -30.8330  -21.1050   26.1900 N   0  0  0  0  0  0  0  0  0  0  0  0
  -29.3050  -21.0330   27.8420 O   0  0  0  0  0  0  0  0  0  0  0  0
  -31.5310  -20.5860   25.6760 H   0  0  0  0  0  0  0  0  0  0  0  0
  -30.5900  -22.4820   25.7430 C   0  0  0  0  0  2  0  0  0  0  0  0
  -29.5470  -22.5670   24.6140 C   0  0  0  0  0  0  0  0  0  0  0  0
  -28.8530  -21.4540   24.3330 N   0  0  0  0  0  0  0  0  0  0  0  0
  -29.3790  -23.6200   24.0000 O   0  0  0  0  0  0  0  0  0  0  0  0
  -29.0200  -20.6690   24.9430 H   0  0  0  0  0  0  0  0  0  0  0  0
  -27.8430  -21.2930   23.2930 C   0  0  0  0  0  2  0  0  0  0  0  0
  -28.4320  -21.0460   21.8950 C   0  0  0  0  0  0  0  0  0  0  0  0
  -27.6030  -20.4800   21.0190 N   0  0  0  0  0  0  0  0  0  0  0  0
  -29.5780  -21.3870   21.6040 O   0  0  0  0  0  0  0  0  0  0  0  0
  -26.6630  -20.2750   21.3310 H   0  0  0  0  0  0  0  0  0  0  0  0
  -27.7140  -20.5160   19.5660 C   0  0  0  0  0  2  0  0  0  0  0  0
  -26.4140  -21.1820   19.1350 C   0  0  0  0  0  0  0  0  0  0  0  0
  -26.5070  -22.3310   18.4670 N   0  0  0  0  0  0  0  0  0  0  0  0
  -25.3370  -20.7310   19.5210 O   0  0  0  0  0  0  0  0  0  0  0  0
  -27.4150  -22.6120   18.1190 H   0  0  0  0  0  0  0  0  0  0  0  0
  -25.4230  -23.3070   18.4220 C   0  0  0  0  0  2  0  0  0  0  0  0
  -25.0070  -23.8220   19.8360 C   0  0  0  0  0  2  0  0  0  0  0  0
  -26.0560  -24.4350   20.7110 N   0  0  0  0  0  4  0  0  0  0  0  0
  -25.9530  -24.0470   21.6360 H   0  0  0  0  0  0  0  0  0  0  0  0
  -25.7900  -25.4080   20.7890 H   0  0  0  0  0  0  0  0  0  0  0  0
  -27.4950  -24.4280   20.3060 C   0  0  0  0  0  2  0  0  0  0  0  0
  -28.2970  -25.5840   20.9460 C   0  0  0  0  0  2  0  0  0  0  0  0
  -28.3690  -26.7370   20.0920 O   0  0  0  0  0  0  0  0  0  0  0  0
  -24.6080  -31.8730   23.2240 C   0  0  0  0  0  0  0  0  0  0  0  0
  -27.2290  -27.5000   20.0720 C   0  0  0  0  0  0  0  0  0  0  0  0
  -23.3920  -30.5060   21.5610 C   0  0  0  0  0  3  0  0  0  0  0  0
  -24.8400  -28.9890   20.1150 C   0  0  0  0  0  0  0  0  0  0  0  0
  -25.9170  -30.8560   21.3700 C   0  0  0  0  0  2  0  0  0  0  0  0
  -25.9960  -29.4940   20.7230 C   0  0  0  0  0  0  0  0  0  0  0  0
  -27.1940  -28.7500   20.7190 C   0  0  0  0  0  3  0  0  0  0  0  0
  -26.0820  -27.0510   19.3850 C   0  0  0  0  0  3  0  0  0  0  0  0
  -24.8730  -27.7580   19.4460 C   0  0  0  0  0  3  0  0  0  0  0  0
  -23.5990  -29.8490   20.1700 C   0  0  0  0  0  2  0  0  0  0  0  0
  -24.6570  -31.0890   22.1120 N   0  0  0  0  0  0  0  0  0  0  0  0
  -23.5310  -32.1530   23.7660 O   0  0  0  0  0  0  0  0  0  0  0  0
  -22.7380  -29.4710   22.5050 C   0  0  0  0  0  0  0  0  0  0  0  0
  -21.4110  -29.3040   22.3780 N   0  0  0  0  0  0  0  0  0  0  0  0
  -23.4230  -28.8190   23.2990 O   0  0  0  0  0  0  0  0  0  0  0  0
  -20.9250  -29.8900   21.7120 H   0  0  0  0  0  0  0  0  0  0  0  0
  -18.0260  -28.1360   22.8510 C   0  0  0  0  0  0  0  0  0  0  0  0
  -20.5830  -28.3660   23.1350 C   0  0  0  0  0  3  0  0  0  0  0  0
  -20.6720  -26.9410   22.5430 C   0  0  0  0  0  2  0  0  0  0  0  0
  -19.5730  -26.6390   21.5220 C   0  0  0  0  0  2  0  0  0  0  0  0
  -18.1920  -26.7900   22.1640 C   0  0  0  0  0  2  0  0  0  0  0  0
  -19.1500  -28.8830   23.2910 C   0  0  0  0  0  0  0  0  0  0  0  0
  -18.9420  -30.1440   23.8920 C   0  0  0  0  0  3  0  0  0  0  0  0
  -17.6420  -30.6560   24.0590 C   0  0  0  0  0  3  0  0  0  0  0  0
  -16.5320  -29.9080   23.6310 C   0  0  0  0  0  3  0  0  0  0  0  0
  -16.7250  -28.6500   23.0330 C   0  0  0  0  0  3  0  0  0  0  0  0
  -25.9010  -32.4870   23.8490 C   0  0  0  0  0  3  0  0  0  0  0  0
  -26.4450  -31.6600   25.0770 C   0  0  1  0  0  0  0  0  0  0  0  0
  -25.3780  -31.3600   26.1540 C   0  0  0  0  0  1  0  0  0  0  0  0
  -27.0240  -30.3050   24.6090 C   0  0  0  0  0  1  0  0  0  0  0  0
  -27.6090  -32.4250   25.7490 C   0  0  0  0  0  1  0  0  0  0  0  0
  -25.5920  -33.8680   24.2430 N   0  0  0  0  0  0  0  0  0  0  0  0
  -25.9010  -34.9520   23.5180 C   0  0  0  0  0  0  0  0  0  0  0  0
  -26.5530  -34.8920   22.4710 O   0  0  0  0  0  0  0  0  0  0  0  0
  -25.0000  -33.9840   25.0530 H   0  0  0  0  0  0  0  0  0  0  0  0
  -24.1450  -36.7380   23.2640 C   0  0  0  0  0  1  0  0  0  0  0  0
  -25.4050  -36.3150   24.0360 C   0  0  0  0  0  3  0  0  0  0  0  0
  -27.5550  -37.1830   24.8460 C   0  0  0  0  0  1  0  0  0  0  0  0
  -26.4240  -37.3830   23.9430 N   0  0  0  0  0  0  0  0  0  0  0  0
  -26.0140  -38.2890   24.1520 H   0  0  0  0  0  0  0  0  0  0  0  0
  1 77  1  0
  2  3  1  0
  2  4  2  0
  3  1  1  0
  5  3  1  0
  6  2  1  0
  7  9  2  0
  8  7  1  0
  8  6  1  0
 10  8  1  0
 11  7  1  0
 12 11  1  0
 12 13  1  0
 14 12  1  0
 15 12  1  0
 16 15  1  0
 17 16  1  0
 18 17  1  0
 19 18  1  0
 20 18  1  0
 21 18  1  0
 22 23  1  0
 22 21  1  0
 24 25  1  0
 24 23  1  0
 25 26  1  0
 26 27  1  0
 27 28  1  0
 29 31  2  0
 30 28  1  0
 30 29  1  0
 32 30  1  0
 33 29  1  0
 33 34  1  0
 34 36  1  0
 34 35  1  0
 37 38  1  0
 37 34  1  0
 39 47  1  0
 40 45  1  0
 41 42  1  0
 41 40  1  0
 43 42  1  0
 43 52  1  0
 43 44  1  0
 45 39  1  0
 45 44  1  0
 46 39  2  0
 47 48  1  0
 47 38  1  0
 49 50  2  0
 50 69  1  0
 51 50  1  0
 51 54  1  0
 52 49  1  0
 52 53  1  0
 53 51  2  0
 54 55  1  0
 55 56  2  0
 57 60  1  0
 57 56  1  0
 58 57  2  0
 59 58  1  0
 59 54  2  0
 60 61  1  0
 61 62  1  0
 62 63  2  0
 64 63  1  0
 64 68  1  0
 65 64  2  0
 66 61  2  0
 66 65  1  0
 67 66  1  0
 69 70  1  0
 70 73  1  0
 70 72  1  0
 71 69  2  0
 74 75  1  0
 74 49  1  0
 76 74  1  0
 77 78  1  0
 78 79  1  0
 79 80  1  0
 81 82  1  0
 81 80  1  0
 83 82  1  0
 84 83  1  0
 84 86  2  0
 85 84  1  0
 87 85  1  0
 88 85  1  0
 89 88  1  0
 90 89  1  0
 90 92  1  0
 91 89  2  0
 93 90  1  0
 94 93  1  0
 95 97  1  0
 95 94  1  0
 96 94  2  0
 98 95  1  0
 99101  2  0
 99 98  1  0
100 99  1  0
102100  1  0
103100  1  0
103104  1  0
104105  1  0
105107  1  0
105106  1  0
108105  1  0
108109  1  0
110109  1  0
111122  2  0
112110  1  0
112117  1  0
113121  1  0
113123  1  0
114120  1  0
114116  1  0
115121  1  0
116115  1  0
117116  2  0
118119  1  0
118112  2  0
119114  2  0
120113  1  0
121111  1  0
123125  2  0
124123  1  0
126124  1  0
127136  2  0
127132  1  0
128124  1  0
128132  1  0
129128  1  0
130131  1  0
130129  1  0
131127  1  0
132133  2  0
133134  1  0
135134  2  0
136135  1  0
137111  1  0
137142  1  0
137138  1  0
138141  1  1
138139  1  0
140138  1  0
142145  1  0
143147  1  0
143142  1  0
144143  2  0
147146  1  0
149147  1  0
149150  1  0
149148  1  0
M  ISO  4  39 100  47 100 109 101 110 101
M  END
>  <TORSDO>  (28) 
F 57

>  <SCORE>  (28) 
93.870

>  <name>  (28) 
33

>  <ligand_id>  (28) 
33

>  <original_smiles>  (28) 
[H]c1c([H])c([H])c2c(c1[H])C([H])([H])C([H])([H])C([H])([H])C2([H])N([H])C(=O)C1([H])N(C(=O)C([H])(N([H])C(=O)C([H])(N([H])C([H])([H])[H])C([H])([H])[H])C(C([H])([H])[H])(C([H])([H])[H])C([H])([H])[H])C([H])([H])c2c([H])c(OC([H])([H])C([H])([H])[N+]([H])([H])C([H])([H])C([H])([H])N([H])C(=O)C([H])([H])N([H])C(=O)C([H])([H])N([H])C(=O)C([H])([H])N([H])C(=O)C([H])([H])OC([H])([H])C([H])([H])C([H])([H])OC([H])([H])C([H])([H])N([H])C(=O)C([H])([H])N([H])C(=O)C([H])([H])[N+]([H])([H])C([H])([H])C([H])([H])C([H])([H])[N+]([H])([H])C([H])([H])C([H])([H])OC([H])([H])C([H])([H])C([H])([H])C([H])([H])C([H])([H])N([H])C(=O)C([H])([H])[N+]([H])([H])C([H])([H])C([H])([H])N([H])C(=O)N3C([H])([H])C([H])([H])C([H])([H])C([H])(n4nc(-c5c([H])c([H])c(Oc6c([H])c([H])c(F)c([H])c6F)c([H])c5[H])c(C(=O)N([H])[H])c4N([H])[H])C3([H])[H])c([H])c([H])c2C1([H])[H]

>  <smiles>  (28) 
[H]c1c([H])c([H])c2c(c1[H])C([H])([H])C([H])([H])C([H])([H])C2([H])N([H])C(=O)C1([H])N(C(=O)C([H])(N([H])C(=O)C([H])(N([H])C([H])([H])[H])C([H])([H])[H])C(C([H])([H])[H])(C([H])([H])[H])C([H])([H])[H])C([H])([H])c2c([H])c(OC([H])([H])C([H])([H])[N+]([H])([H])C([H])([H])C([H])([H])N([H])C(=O)C([H])([H])N([H])C(=O)C([H])([H])N([H])C(=O)C([H])([H])N([H])C(=O)C([H])([H])OC([H])([H])C([H])([H])C([H])([H])OC([H])([H])C([H])([H])N([H])C(=O)C([H])([H])N([H])C(=O)C([H])([H])[N+]([H])([H])C([H])([H])C([H])([H])C([H])([H])[N+]([H])([H])C([H])([H])C([H])([H])OC([H])([H])C([H])([H])C([H])([H])C([H])([H])C([H])([H])N([H])C(=O)C([H])([H])[N+]([H])([H])C([H])([H])C([H])([H])N([H])C(=O)N3C([H])([H])C([H])([H])C([H])([H])C([H])(n4nc(-c5c([H])c([H])c(Oc6c([H])c([H])c(F)c([H])c6F)c([H])c5[H])c(C(=O)N([H])[H])c4N([H])[H])C3([H])[H])c([H])c([H])c2C1([H])[H]

$$$$
34:0:0
     RDKit          3D

161167  0  0  1  0  0  0  0  0999 V2000
  -28.6370  -35.5490   27.7790 C   0  0  0  0  0  0  0  0  0  0  0  0
  -29.9740  -35.5110   27.7260 N   0  0  0  0  0  0  0  0  0  0  0  0
  -27.9830  -35.3800   26.7590 O   0  0  0  0  0  0  0  0  0  0  0  0
  -30.5070  -35.6000   28.5800 H   0  0  0  0  0  0  0  0  0  0  0  0
  -30.7230  -35.5020   26.4590 C   0  0  0  0  0  2  0  0  0  0  0  0
  -30.9260  -34.1290   25.7960 C   0  0  0  0  0  0  0  0  0  0  0  0
  -31.0850  -34.1210   24.4560 N   0  0  0  0  0  0  0  0  0  0  0  0
  -31.0440  -33.1200   26.4960 O   0  0  0  0  0  0  0  0  0  0  0  0
  -30.9330  -35.0140   24.0070 H   0  0  0  0  0  0  0  0  0  0  0  0
  -31.9440  -33.1500   23.7610 C   0  0  0  0  0  2  0  0  0  0  0  0
  -31.4290  -32.4320   22.4730 C   0  0  0  0  0  3  0  0  0  0  0  0
  -30.7360  -33.3190   21.4760 N   0  0  0  0  0  4  0  0  0  0  0  0
  -30.3590  -34.0940   21.9940 H   0  0  0  0  0  0  0  0  0  0  0  0
  -31.4270  -33.7070   20.8500 H   0  0  0  0  0  0  0  0  0  0  0  0
  -29.6190  -32.6970   20.6800 C   0  0  0  0  0  3  0  0  0  0  0  0
  -28.8490  -33.6720   19.7120 C   0  0  0  0  0  3  0  0  0  0  0  0
  -27.7350  -33.1480   18.9200 O   0  0  0  0  0  0  0  0  0  0  0  0
  -26.8480  -32.3480   19.7010 C   0  0  0  0  0  3  0  0  0  0  0  0
  -25.5780  -31.5680   19.2100 C   0  0  0  0  0  3  0  0  0  0  0  0
  -24.8000  -30.8080   20.2920 O   0  0  0  0  0  1  0  0  0  0  0  0
  -24.7110  -28.8460   21.8290 C   0  0  0  0  0  1  0  0  0  0  0  0
  -24.9220  -27.2400   21.9050 C   0  0  0  0  0  2  0  0  0  0  0  0
  -26.2330  -26.6250   22.2510 N   0  0  0  0  0  4  0  0  0  0  0  0
  -26.8430  -26.7470   21.4500 H   0  0  0  0  0  0  0  0  0  0  0  0
  -26.6460  -27.0770   23.0530 H   0  0  0  0  0  0  0  0  0  0  0  0
  -26.0670  -25.1690   22.5310 C   0  0  0  0  0  2  0  0  0  0  0  0
  -27.3120  -24.2960   22.2850 C   0  0  0  0  0  2  0  0  0  0  0  0
  -28.5150  -24.5680   23.2040 C   0  0  0  0  0  2  0  0  0  0  0  0
  -29.4660  -23.0220   26.4110 C   0  0  0  0  0  2  0  0  0  0  0  0
  -28.9240  -24.3610   26.9090 C   0  0  0  0  0  2  0  0  0  0  0  0
  -28.8920  -22.8530   24.9970 C   0  0  0  0  0  2  0  0  0  0  0  0
  -28.7360  -25.1540   25.6200 C   0  0  0  0  0  3  0  0  0  0  0  0
  -27.7660  -26.3380   25.7860 C   0  0  0  0  0  1  0  0  0  0  0  0
  -28.2850  -24.1580   24.6200 N   0  0  1  0  0  4  0  0  0  0  0  0
  -27.2940  -24.0120   24.7920 H   0  0  0  0  0  0  0  0  0  0  0  0
  -32.6880  -31.7380   21.8730 C   0  0  0  0  0  2  0  0  0  0  0  0
  -32.5010  -30.7240   20.7400 C   0  0  0  0  0  2  0  0  0  0  0  0
  -31.7910  -29.4540   21.2110 C   0  0  0  0  0  2  0  0  0  0  0  0
  -31.2330  -28.6650   20.0320 C   0  0  0  0  0  2  0  0  0  0  0  0
  -30.6730  -27.3210   20.4940 C   0  0  0  0  0  2  0  0  0  0  0  0
  -29.7670  -26.6750   19.4460 C   0  0  0  0  0  2  0  0  0  0  0  0
  -28.4890  -26.4180   19.9980 O   0  0  0  0  0  0  0  0  0  0  0  0
  -24.6140  -32.0140   23.4030 C   0  0  0  0  0  0  0  0  0  0  0  0
  -27.4940  -27.3150   19.7730 C   0  0  0  0  0  0  0  0  0  0  0  0
  -23.1060  -30.5850   21.6580 C   0  0  0  0  0  2  0  0  0  0  0  0
  -25.0510  -28.7650   19.5210 C   0  0  0  0  0  0  0  0  0  0  0  0
  -26.3400  -30.5550   21.8180 C   0  0  0  0  0  2  0  0  0  0  0  0
  -26.4300  -29.3260   20.3430 C   0  0  0  0  0  0  0  0  0  0  0  0
  -27.5700  -28.5760   20.3530 C   0  0  0  0  0  3  0  0  0  0  0  0
  -26.3400  -26.8080   19.1370 C   0  0  0  0  0  3  0  0  0  0  0  0
  -25.1460  -27.5140   18.9510 C   0  0  0  0  0  3  0  0  0  0  0  0
  -23.2570  -29.3560   19.9960 C   0  0  0  0  0  1  0  0  0  0  0  0
  -24.6900  -31.1460   22.4340 N   0  0  0  0  0  0  0  0  0  0  0  0
  -23.5240  -32.3840   23.8400 O   0  0  0  0  0  0  0  0  0  0  0  0
  -22.3280  -29.8150   22.7440 C   0  0  0  0  0  0  0  0  0  0  0  0
  -21.1770  -29.3210   22.3600 N   0  0  0  0  0  0  0  0  0  0  0  0
  -22.9280  -29.3450   23.7220 O   0  0  0  0  0  0  0  0  0  0  0  0
  -20.7620  -29.6220   21.4870 H   0  0  0  0  0  0  0  0  0  0  0  0
  -17.9390  -28.1230   22.8530 C   0  0  0  0  0  0  0  0  0  0  0  0
  -20.4590  -28.3490   23.1460 C   0  0  0  0  0  3  0  0  0  0  0  0
  -20.6020  -26.9370   22.5430 C   0  0  0  0  0  2  0  0  0  0  0  0
  -19.5160  -26.6470   21.5140 C   0  0  0  0  0  2  0  0  0  0  0  0
  -18.1220  -26.7910   22.1400 C   0  0  0  0  0  2  0  0  0  0  0  0
  -19.0510  -28.8630   23.3130 C   0  0  0  0  0  0  0  0  0  0  0  0
  -18.8630  -30.1320   23.8970 C   0  0  0  0  0  3  0  0  0  0  0  0
  -17.5700  -30.6600   24.0460 C   0  0  0  0  0  3  0  0  0  0  0  0
  -16.4600  -29.9080   23.6240 C   0  0  0  0  0  3  0  0  0  0  0  0
  -16.6420  -28.6460   23.0260 C   0  0  0  0  0  3  0  0  0  0  0  0
  -25.9310  -32.5480   23.9810 C   0  0  0  0  0  3  0  0  0  0  0  0
  -26.4650  -31.6960   25.1970 C   0  0  1  0  0  0  0  0  0  0  0  0
  -25.3730  -31.3650   26.2320 C   0  0  0  0  0  1  0  0  0  0  0  0
  -27.0990  -30.3400   24.8260 C   0  0  0  0  0  1  0  0  0  0  0  0
  -27.5910  -32.4770   25.8690 C   0  0  0  0  0  1  0  0  0  0  0  0
  -25.6490  -33.9340   24.3320 N   0  0  0  0  0  0  0  0  0  0  0  0
  -25.9270  -34.9870   23.5530 C   0  0  0  0  0  0  0  0  0  0  0  0
  -26.5700  -34.9090   22.4970 O   0  0  0  0  0  0  0  0  0  0  0  0
  -25.1250  -34.0820   25.1800 H   0  0  0  0  0  0  0  0  0  0  0  0
  -24.1280  -36.7260   23.2970 C   0  0  0  0  0  1  0  0  0  0  0  0
  -25.4260  -36.3590   24.0370 C   0  0  0  0  0  3  0  0  0  0  0  0
  -27.5640  -37.3490   24.7070 C   0  0  0  0  0  1  0  0  0  0  0  0
  -26.4180  -37.4230   23.8160 N   0  0  0  0  0  0  0  0  0  0  0  0
  -26.7640  -37.3610   22.8610 H   0  0  0  0  0  0  0  0  0  0  0  0
  -27.9130  -35.8440   29.1110 C   0  0  0  0  0  2  0  0  0  0  0  0
  -25.5440  -36.2490   28.3770 C   0  0  0  0  0  0  0  0  0  0  0  0
  -26.7140  -36.6650   28.8860 N   0  0  0  0  0  0  0  0  0  0  0  0
  -25.2800  -35.0570   28.1950 O   0  0  0  0  0  0  0  0  0  0  0  0
  -26.8140  -37.6590   29.0320 H   0  0  0  0  0  0  0  0  0  0  0  0
  -24.5470  -37.3360   27.9540 C   0  0  0  0  0  2  0  0  0  0  0  0
  -23.2720  -36.7510   27.7100 O   0  0  0  0  0  0  0  0  0  0  0  0
  -22.3960  -37.5980   26.9750 C   0  0  0  0  0  2  0  0  0  0  0  0
  -21.0330  -36.9000   26.9540 C   0  0  0  0  0  2  0  0  0  0  0  0
  -21.1860  -35.4680   26.6030 N   0  0  0  0  0  4  0  0  0  0  0  0
  -21.4960  -35.4040   25.6480 H   0  0  0  0  0  0  0  0  0  0  0  0
  -21.9220  -35.1100   27.1930 H   0  0  0  0  0  0  0  0  0  0  0  0
  -19.9590  -34.6550   26.7610 C   0  0  0  0  0  2  0  0  0  0  0  0
  -20.0780  -33.2550   26.1050 C   0  0  0  0  0  2  0  0  0  0  0  0
  -20.6280  -32.1100   27.0000 C   0  0  0  0  0  2  0  0  0  0  0  0
  -21.7900  -31.3750   26.3050 C   0  0  0  0  0  2  0  0  0  0  0  0
  -22.1150  -28.9620   26.8910 C   0  0  0  0  0  0  0  0  0  0  0  0
  -22.4220  -30.2640   27.0270 N   0  0  0  0  0  0  0  0  0  0  0  0
  -20.9860  -28.5670   26.5960 O   0  0  0  0  0  0  0  0  0  0  0  0
  -23.3500  -30.4620   27.3790 H   0  0  0  0  0  0  0  0  0  0  0  0
  -23.2780  -27.9680   27.0850 C   0  0  0  0  0  2  0  0  0  0  0  0
  -23.4780  -25.6790   26.0730 C   0  0  0  0  0  0  0  0  0  0  0  0
  -22.9270  -26.5480   26.9380 N   0  0  0  0  0  0  0  0  0  0  0  0
  -24.2500  -26.0340   25.1840 O   0  0  0  0  0  0  0  0  0  0  0  0
  -22.2420  -26.1940   27.5910 H   0  0  0  0  0  0  0  0  0  0  0  0
  -23.1600  -24.1850   26.2850 C   0  0  0  0  0  2  0  0  0  0  0  0
  -24.6300  -22.5980   24.9440 C   0  0  0  0  0  0  0  0  0  0  0  0
  -23.4670  -23.2300   25.2010 N   0  0  0  0  0  0  0  0  0  0  0  0
  -25.7220  -23.0440   25.3080 O   0  0  0  0  0  0  0  0  0  0  0  0
  -22.6480  -22.8640   24.7330 H   0  0  0  0  0  0  0  0  0  0  0  0
  -24.5280  -21.2200   24.2400 C   0  0  0  0  0  2  0  0  0  0  0  0
  -26.4700  -19.8710   23.3360 C   0  0  0  0  0  0  0  0  0  0  0  0
  -25.5410  -20.8460   23.2270 N   0  0  0  0  0  0  0  0  0  0  0  0
  -26.7870  -19.3870   24.4250 O   0  0  0  0  0  0  0  0  0  0  0  0
  -25.3610  -21.1880   22.2930 H   0  0  0  0  0  0  0  0  0  0  0  0
  -27.1100  -19.3200   22.0340 C   0  0  0  0  0  2  0  0  0  0  0  0
  -28.6690  -17.4330   21.4050 C   0  0  0  0  0  0  0  0  0  0  0  0
  -28.2610  -18.4130   22.2370 N   0  0  0  0  0  0  0  0  0  0  0  0
  -28.0320  -17.1220   20.3960 O   0  0  0  0  0  0  0  0  0  0  0  0
  -28.7840  -18.5500   23.0920 H   0  0  0  0  0  0  0  0  0  0  0  0
  -29.9910  -16.7000   21.7200 C   0  0  0  0  0  2  0  0  0  0  0  0
  -30.6210  -14.4430   20.6810 C   0  0  0  0  0  0  0  0  0  0  0  0
  -30.4410  -12.3230   19.4020 C   0  0  0  0  0  2  0  0  0  0  0  0
  -29.4950  -12.5310   18.1970 C   0  0  0  0  0  2  0  0  0  0  0  0
  -28.0140  -12.3720   18.6040 C   0  0  0  0  0  2  0  0  0  0  0  0
  -27.6610  -13.1850   19.8770 C   0  0  0  0  0  3  0  0  0  0  0  0
  -28.6880  -12.8760   20.9850 C   0  0  0  0  0  2  0  0  0  0  0  0
  -30.0200  -13.2440   20.4690 N   0  0  0  0  0  0  0  0  0  0  0  0
  -31.7010  -14.7640   20.1680 O   0  0  0  0  0  0  0  0  0  0  0  0
  -29.8740  -15.2680   21.4390 N   0  0  0  0  0  0  0  0  0  0  0  0
  -29.0040  -14.8610   21.7450 H   0  0  0  0  0  0  0  0  0  0  0  0
  -25.2610  -13.8130   20.5630 C   0  0  0  0  0  0  0  0  0  0  0  0
  -24.1840  -13.0440   20.9160 C   0  0  0  0  0  0  0  0  0  0  0  0
  -24.6350  -11.6890   20.8690 C   0  0  0  0  0  0  0  0  0  0  0  0
  -26.2980  -12.9240   20.3270 N   0  0  0  0  0  0  0  0  0  0  0  0
  -25.9250  -11.6420   20.5670 N   0  0  0  0  0  0  0  0  0  0  0  0
  -23.9010  -10.4290   21.0410 C   0  0  0  0  0  0  0  0  0  0  0  0
  -24.3590   -9.4200   21.9180 C   0  0  0  0  0  3  0  0  0  0  0  0
  -23.6280   -8.2230   22.0740 C   0  0  0  0  0  3  0  0  0  0  0  0
  -22.4250   -8.0270   21.3540 C   0  0  0  0  0  0  0  0  0  0  0  0
  -21.9880   -9.0240   20.4640 C   0  0  0  0  0  3  0  0  0  0  0  0
  -22.7200  -10.2120   20.3050 C   0  0  0  0  0  3  0  0  0  0  0  0
  -21.6640   -6.8850   21.4240 O   0  0  0  0  0  0  0  0  0  0  0  0
  -21.6840   -6.0710   22.5290 C   0  0  0  0  0  0  0  0  0  0  0  0
  -21.4020   -6.5630   23.8220 C   0  0  0  0  0  3  0  0  0  0  0  0
  -21.3660   -5.6790   24.9180 C   0  0  0  0  0  3  0  0  0  0  0  0
  -21.6040   -4.3050   24.7240 C   0  0  0  0  0  0  0  0  0  0  0  0
  -21.8820   -3.8140   23.4360 C   0  0  0  0  0  3  0  0  0  0  0  0
  -21.9190   -4.6940   22.3420 C   0  0  0  0  0  0  0  0  0  0  0  0
  -22.1660   -4.2130   21.0990 F   0  0  0  0  0  0  0  0  0  0  0  0
  -21.5630   -3.4540   25.7750 F   0  0  0  0  0  0  0  0  0  0  0  0
  -22.7880  -13.5260   21.1870 C   0  0  0  0  0  0  0  0  0  0  0  0
  -22.0510  -12.8220   22.0420 N   0  0  0  0  0  0  0  0  0  0  0  0
  -22.3560  -14.5580   20.6750 O   0  0  0  0  0  0  0  0  0  0  0  0
  -22.4100  -11.9850   22.4760 H   0  0  0  0  0  0  0  0  0  0  0  0
  -21.1130  -13.1260   22.2660 H   0  0  0  0  0  0  0  0  0  0  0  0
  -25.4420  -15.1850   20.4070 N   0  0  0  0  0  0  0  0  0  0  0  0
  -24.6890  -15.8500   20.5480 H   0  0  0  0  0  0  0  0  0  0  0  0
  -26.3090  -15.6300   20.1220 H   0  0  0  0  0  0  0  0  0  0  0  0
  1 83  1  0
  2  1  1  0
  2  4  1  0
  3  1  2  0
  5  2  1  0
  6  5  1  0
  6  8  2  0
  7  6  1  0
  9  7  1  0
 10  7  1  0
 11 36  1  0
 11 10  1  0
 12 13  1  0
 12 11  1  0
 14 12  1  0
 15 12  1  0
 16 15  2  0
 17 18  1  0
 17 16  1  0
 19 18  2  0
 19 20  1  0
 21 22  1  0
 22 23  1  0
 23 26  1  0
 23 25  1  0
 24 23  1  0
 27 26  1  0
 27 28  1  0
 28 34  1  0
 29 30  1  0
 31 29  1  0
 32 33  1  0
 32 30  1  0
 34 35  1  6
 34 31  1  0
 34 32  1  0
 37 38  1  0
 37 36  1  0
 39 40  1  0
 39 38  1  0
 41 42  1  0
 41 40  1  0
 43 54  2  0
 44 42  1  0
 44 49  1  0
 45 53  1  0
 45 55  1  0
 46 52  1  0
 46 48  1  0
 47 53  1  0
 48 49  2  0
 48 47  1  0
 50 44  2  0
 51 50  1  0
 51 46  2  0
 53 43  1  0
 55 57  2  0
 56 55  1  0
 58 56  1  0
 59 68  2  0
 59 64  1  0
 60 56  1  0
 60 64  1  0
 61 60  1  0
 62 63  1  0
 62 61  1  0
 63 59  1  0
 64 65  2  0
 65 66  1  0
 67 66  2  0
 68 67  1  0
 69 43  1  0
 69 74  1  0
 69 70  1  0
 70 73  1  1
 70 71  1  0
 72 70  1  0
 74 77  1  0
 75 79  1  0
 75 74  1  0
 76 75  2  0
 79 78  1  0
 81 79  1  0
 81 80  1  0
 82 81  1  0
 84 85  1  0
 85 87  1  0
 85 83  1  0
 86 84  2  0
 88 84  1  0
 89 88  1  0
 90 89  1  0
 91 90  1  0
 92 95  1  0
 92 91  1  0
 92 94  1  0
 93 92  1  0
 96 95  1  0
 96 97  1  0
 98 97  1  0
 98100  1  0
 99100  1  0
 99103  1  0
100102  1  0
101 99  2  0
104108  1  0
104105  1  0
105103  1  0
105107  1  0
106104  2  0
109110  1  0
109111  2  0
110108  1  0
112110  1  0
113109  1  0
114116  2  0
115114  1  0
115113  1  0
117115  1  0
118120  1  0
118114  1  0
119123  1  0
119120  1  0
120122  1  0
121119  2  0
124132  1  0
125130  1  0
126127  1  0
126125  1  0
128127  1  0
128137  1  0
128129  1  0
130124  1  0
130129  1  0
131124  2  0
132123  1  0
132133  1  0
134135  2  0
135154  1  0
136135  1  0
136139  1  0
137134  1  0
137138  1  0
138136  2  0
139140  1  0
140141  2  0
142145  1  0
142141  1  0
143142  2  0
144143  1  0
144139  2  0
145146  1  0
146147  1  0
147148  2  0
149148  1  0
149153  1  0
150149  2  0
151146  2  0
151150  1  0
152151  1  0
154155  1  0
155158  1  0
155157  1  0
156154  2  0
159160  1  0
159134  1  0
161159  1  0
M  ISO  4  41 101  42 101 124 100 132 100
M  END
>  <TORSDO>  (29) 
F 61

>  <SCORE>  (29) 
107.507

>  <name>  (29) 
34

>  <ligand_id>  (29) 
34

>  <original_smiles>  (29) 
[H]c1c([H])c([H])c2c(c1[H])C([H])([H])C([H])([H])C([H])([H])C2([H])N([H])C(=O)C1([H])N(C(=O)C([H])(N([H])C(=O)C([H])(N([H])C([H])([H])[H])C([H])([H])[H])C(C([H])([H])[H])(C([H])([H])[H])C([H])([H])[H])C([H])([H])c2c([H])c(OC([H])([H])C([H])([H])C([H])([H])C([H])([H])C([H])([H])C([H])([H])C([H])(C([H])([H])N([H])C(=O)C([H])([H])N([H])C(=O)C([H])([H])N([H])C(=O)C([H])([H])OC([H])([H])C([H])([H])[N+]([H])([H])C([H])([H])C([H])([H])C([H])([H])C([H])([H])N([H])C(=O)C([H])([H])N([H])C(=O)C([H])([H])N([H])C(=O)C([H])([H])N([H])C(=O)C([H])([H])N([H])C(=O)C([H])([H])N([H])C(=O)N3C([H])([H])C([H])([H])C([H])([H])C([H])(n4nc(-c5c([H])c([H])c(Oc6c([H])c([H])c(F)c([H])c6F)c([H])c5[H])c(C(=O)N([H])[H])c4N([H])[H])C3([H])[H])[N+]([H])([H])C([H])([H])C([H])([H])OC([H])([H])C([H])([H])OC([H])([H])C([H])([H])[N+]([H])([H])C([H])([H])C([H])([H])C([H])([H])[N+]3([H])C([H])([H])C([H])([H])C([H])([H])C3([H])C([H])([H])[H])c([H])c([H])c2C1([H])[H]

>  <smiles>  (29) 
[H]c1c([H])c([H])c2c(c1[H])C([H])([H])C([H])([H])C([H])([H])C2([H])N([H])C(=O)C1([H])N(C(=O)C([H])(N([H])C(=O)C([H])(N([H])C([H])([H])[H])C([H])([H])[H])C(C([H])([H])[H])(C([H])([H])[H])C([H])([H])[H])C([H])([H])c2c([H])c(OC([H])([H])C([H])([H])C([H])([H])C([H])([H])C([H])([H])C([H])([H])C([H])(C([H])([H])N([H])C(=O)C([H])([H])N([H])C(=O)C([H])([H])N([H])C(=O)C([H])([H])OC([H])([H])C([H])([H])[N+]([H])([H])C([H])([H])C([H])([H])C([H])([H])C([H])([H])N([H])C(=O)C([H])([H])N([H])C(=O)C([H])([H])N([H])C(=O)C([H])([H])N([H])C(=O)C([H])([H])N([H])C(=O)C([H])([H])N([H])C(=O)N3C([H])([H])C([H])([H])C([H])([H])C([H])(n4nc(-c5c([H])c([H])c(Oc6c([H])c([H])c(F)c([H])c6F)c([H])c5[H])c(C(=O)N([H])[H])c4N([H])[H])C3([H])[H])[N+]([H])([H])C([H])([H])C([H])([H])OC([H])([H])C([H])([H])OC([H])([H])C([H])([H])[N+]([H])([H])C([H])([H])C([H])([H])C([H])([H])[N+]3([H])C([H])([H])C([H])([H])C([H])([H])C3([H])C([H])([H])[H])c([H])c([H])c2C1([H])[H]

$$$$
35:0:0
     RDKit          3D

137143  0  0  1  0  0  0  0  0999 V2000
  -26.4330  -18.6780   16.0790 C   0  0  0  0  0  2  0  0  0  0  0  0
  -27.7200  -18.3850   15.2890 C   0  0  0  0  0  0  0  0  0  0  0  0
  -28.5270  -17.4390   15.7830 N   0  0  0  0  0  0  0  0  0  0  0  0
  -27.9760  -18.9890   14.2430 O   0  0  0  0  0  0  0  0  0  0  0  0
  -28.2320  -16.9830   16.6350 H   0  0  0  0  0  0  0  0  0  0  0  0
  -29.7740  -16.9780   15.1690 C   0  0  0  0  0  2  0  0  0  0  0  0
  -31.0170  -17.6920   15.7340 C   0  0  0  0  0  2  0  0  0  0  0  0
  -31.2820  -17.3610   17.2050 C   0  0  0  0  0  2  0  0  0  0  0  0
  -32.4250  -18.0660   17.6770 O   0  0  0  0  0  0  0  0  0  0  0  0
  -32.7690  -17.6610   18.9950 C   0  0  0  0  0  2  0  0  0  0  0  0
  -33.8060  -18.5920   19.6280 C   0  0  0  0  0  2  0  0  0  0  0  0
  -34.0500  -18.2040   21.0930 C   0  0  0  0  0  2  0  0  0  0  0  0
  -35.0410  -19.0490   21.6580 O   0  0  0  0  0  0  0  0  0  0  0  0
  -35.2040  -18.8460   23.0560 C   0  0  0  0  0  2  0  0  0  0  0  0
  -36.7050  -19.3100   25.0400 C   0  0  0  0  0  1  0  0  0  0  0  0
  -36.4150  -19.6570   23.5690 C   0  0  0  0  0  3  0  0  0  0  0  0
  -36.2020  -21.1220   23.4500 N   0  0  0  0  0  4  0  0  0  0  0  0
  -35.2450  -21.3390   23.6790 H   0  0  0  0  0  0  0  0  0  0  0  0
  -36.7910  -21.5770   24.1290 H   0  0  0  0  0  0  0  0  0  0  0  0
  -36.5210  -21.7210   22.1360 C   0  0  0  0  0  2  0  0  0  0  0  0
  -36.2040  -23.2240   22.0960 C   0  0  0  0  0  2  0  0  0  0  0  0
  -34.7820  -23.5830   22.5740 C   0  0  0  0  0  2  0  0  0  0  0  0
  -34.2370  -24.8230   21.8570 C   0  0  0  0  0  2  0  0  0  0  0  0
  -33.0140  -25.4510   22.5420 C   0  0  0  0  0  2  0  0  0  0  0  0
  -32.3300  -26.4840   21.6400 C   0  0  0  0  0  2  0  0  0  0  0  0
  -31.6480  -25.7940   20.5970 O   0  0  0  0  0  0  0  0  0  0  0  0
  -31.1480  -26.6340   19.5580 C   0  0  0  0  0  2  0  0  0  0  0  0
  -29.8950  -27.4260   19.9710 C   0  0  0  0  0  2  0  0  0  0  0  0
  -28.7240  -26.6090   19.9280 O   0  0  0  0  0  0  0  0  0  0  0  0
  -24.5920  -31.8960   23.2440 C   0  0  0  0  0  0  0  0  0  0  0  0
  -27.5530  -27.2900   20.0260 C   0  0  0  0  0  0  0  0  0  0  0  0
  -23.3520  -30.5330   21.5830 C   0  0  0  0  0  3  0  0  0  0  0  0
  -24.6570  -28.9950   20.0860 C   0  0  0  0  0  0  0  0  0  0  0  0
  -25.8890  -30.9870   21.3680 C   0  0  0  0  0  2  0  0  0  0  0  0
  -26.0200  -29.6510   20.7610 C   0  0  0  0  0  0  0  0  0  0  0  0
  -27.4730  -28.8230   20.7420 C   0  0  0  0  0  3  0  0  0  0  0  0
  -26.1550  -26.6100   19.3380 C   0  0  0  0  0  3  0  0  0  0  0  0
  -24.6970  -27.4710   19.3800 C   0  0  0  0  0  3  0  0  0  0  0  0
  -23.4650  -29.8790   20.1790 C   0  0  0  0  0  2  0  0  0  0  0  0
  -24.6290  -31.1330   22.1200 N   0  0  0  0  0  0  0  0  0  0  0  0
  -23.5170  -32.1570   23.7990 O   0  0  0  0  0  0  0  0  0  0  0  0
  -22.7020  -29.5050   22.5350 C   0  0  0  0  0  0  0  0  0  0  0  0
  -21.3890  -29.3000   22.3720 N   0  0  0  0  0  0  0  0  0  0  0  0
  -23.3610  -28.9020   23.3840 O   0  0  0  0  0  0  0  0  0  0  0  0
  -20.9070  -29.8360   21.6640 H   0  0  0  0  0  0  0  0  0  0  0  0
  -18.0200  -28.1360   22.8490 C   0  0  0  0  0  0  0  0  0  0  0  0
  -20.5750  -28.3610   23.1360 C   0  0  0  0  0  3  0  0  0  0  0  0
  -20.6720  -26.9380   22.5440 C   0  0  0  0  0  2  0  0  0  0  0  0
  -19.5700  -26.6360   21.5220 C   0  0  0  0  0  2  0  0  0  0  0  0
  -18.1870  -26.7910   22.1620 C   0  0  0  0  0  2  0  0  0  0  0  0
  -19.1430  -28.8800   23.2950 C   0  0  0  0  0  0  0  0  0  0  0  0
  -18.9380  -30.1420   23.8930 C   0  0  0  0  0  3  0  0  0  0  0  0
  -17.6390  -30.6580   24.0570 C   0  0  0  0  0  3  0  0  0  0  0  0
  -16.5290  -29.9080   23.6310 C   0  0  0  0  0  3  0  0  0  0  0  0
  -16.7200  -28.6510   23.0310 C   0  0  0  0  0  3  0  0  0  0  0  0
  -25.8900  -32.5010   23.8670 C   0  0  0  0  0  3  0  0  0  0  0  0
  -26.4420  -31.6660   25.0860 C   0  0  1  0  0  0  0  0  0  0  0  0
  -25.3800  -31.3670   26.1690 C   0  0  0  0  0  1  0  0  0  0  0  0
  -27.0160  -30.3150   24.5980 C   0  0  0  0  0  1  0  0  0  0  0  0
  -27.6050  -32.4300   25.7580 C   0  0  0  0  0  1  0  0  0  0  0  0
  -25.5850  -33.8800   24.2580 N   0  0  0  0  0  0  0  0  0  0  0  0
  -25.8960  -34.9590   23.5250 C   0  0  0  0  0  0  0  0  0  0  0  0
  -26.5480  -34.8950   22.4780 O   0  0  0  0  0  0  0  0  0  0  0  0
  -25.0060  -34.0030   25.0770 H   0  0  0  0  0  0  0  0  0  0  0  0
  -24.1470  -36.7410   23.2630 C   0  0  0  0  0  1  0  0  0  0  0  0
  -25.4080  -36.3250   24.0370 C   0  0  0  0  0  3  0  0  0  0  0  0
  -27.5570  -37.1880   24.8470 C   0  0  0  0  0  1  0  0  0  0  0  0
  -26.4310  -37.3870   23.9390 N   0  0  0  0  0  0  0  0  0  0  0  0
  -26.0250  -38.2980   24.1320 H   0  0  0  0  0  0  0  0  0  0  0  0
  -25.9620  -21.0860   15.6750 C   0  0  0  0  0  0  0  0  0  0  0  0
  -25.6700  -19.7910   15.5130 N   0  0  0  0  0  0  0  0  0  0  0  0
  -26.8860  -21.4690   16.3980 O   0  0  0  0  0  0  0  0  0  0  0  0
  -24.9200  -19.5520   14.8790 H   0  0  0  0  0  0  0  0  0  0  0  0
  -25.0900  -22.0950   14.9160 C   0  0  0  0  0  2  0  0  0  0  0  0
  -25.6310  -24.5020   15.2830 C   0  0  0  0  0  0  0  0  0  0  0  0
  -25.8120  -23.3400   14.6500 N   0  0  0  0  0  0  0  0  0  0  0  0
  -24.7770  -24.6720   16.1540 O   0  0  0  0  0  0  0  0  0  0  0  0
  -26.5640  -23.2830   13.9770 H   0  0  0  0  0  0  0  0  0  0  0  0
  -26.5450  -25.6570   14.8890 C   0  0  0  0  0  2  0  0  0  0  0  0
  -25.9380  -26.9360   15.3010 N   0  0  0  0  0  4  0  0  0  0  0  0
  -25.5010  -26.7360   16.1890 H   0  0  0  0  0  0  0  0  0  0  0  0
  -25.1980  -27.1630   14.6570 H   0  0  0  0  0  0  0  0  0  0  0  0
  -26.8860  -28.0650   15.4240 C   0  0  0  0  0  2  0  0  0  0  0  0
  -26.2450  -29.3420   16.0230 C   0  0  0  0  0  2  0  0  0  0  0  0
  -25.5290  -29.1730   17.3900 C   0  0  0  0  0  2  0  0  0  0  0  0
  -26.4700  -28.7990   18.6320 C   0  0  0  0  0  1  0  0  0  0  0  0
  -25.7330  -27.4420   21.4650 C   0  0  0  0  0  1  0  0  0  0  0  0
  -26.6610  -26.9180   22.6600 C   0  0  0  0  0  2  0  0  0  0  0  0
  -27.0240  -24.4150   22.4360 C   0  0  0  0  0  0  0  0  0  0  0  0
  -27.4400  -25.6900   22.4330 N   0  0  0  0  0  0  0  0  0  0  0  0
  -25.8450  -24.0930   22.5920 O   0  0  0  0  0  0  0  0  0  0  0  0
  -28.4250  -25.8290   22.2520 H   0  0  0  0  0  0  0  0  0  0  0  0
  -28.1090  -23.3400   22.2560 C   0  0  0  0  0  2  0  0  0  0  0  0
  -28.0400  -22.5970   20.9020 C   0  0  0  0  0  2  0  0  0  0  0  0
  -27.5520  -21.1360   20.9700 C   0  0  0  0  0  2  0  0  0  0  0  0
  -28.5580  -20.2450   21.4700 O   0  0  0  0  0  0  0  0  0  0  0  0
  -28.3840  -18.9130   20.9810 C   0  0  0  0  0  2  0  0  0  0  0  0
  -29.3950  -17.8780   21.5380 C   0  0  0  0  0  2  0  0  0  0  0  0
  -29.3630  -16.5870   20.6800 C   0  0  0  0  0  2  0  0  0  0  0  0
  -30.6350  -14.4540   20.6220 C   0  0  0  0  0  0  0  0  0  0  0  0
  -30.4350  -12.3090   19.4270 C   0  0  0  0  0  2  0  0  0  0  0  0
  -29.5040  -12.5190   18.2120 C   0  0  0  0  0  2  0  0  0  0  0  0
  -28.0200  -12.3680   18.6100 C   0  0  0  0  0  2  0  0  0  0  0  0
  -27.6620  -13.1900   19.8760 C   0  0  0  0  0  3  0  0  0  0  0  0
  -28.6900  -12.9150   20.9980 C   0  0  0  0  0  2  0  0  0  0  0  0
  -30.0330  -13.2440   20.4880 N   0  0  0  0  0  0  0  0  0  0  0  0
  -31.6960  -14.7510   20.0650 O   0  0  0  0  0  0  0  0  0  0  0  0
  -29.9000  -15.3630   21.2940 N   0  0  0  0  0  0  0  0  0  0  0  0
  -29.2370  -14.9240   21.9150 H   0  0  0  0  0  0  0  0  0  0  0  0
  -25.2550  -13.8120   20.5580 C   0  0  0  0  0  0  0  0  0  0  0  0
  -24.1830  -13.0430   20.9200 C   0  0  0  0  0  0  0  0  0  0  0  0
  -24.6370  -11.6910   20.8780 C   0  0  0  0  0  0  0  0  0  0  0  0
  -26.2970  -12.9280   20.3270 N   0  0  0  0  0  0  0  0  0  0  0  0
  -25.9270  -11.6460   20.5730 N   0  0  0  0  0  0  0  0  0  0  0  0
  -23.9060  -10.4310   21.0470 C   0  0  0  0  0  0  0  0  0  0  0  0
  -24.3630   -9.4220   21.9220 C   0  0  0  0  0  3  0  0  0  0  0  0
  -23.6340   -8.2240   22.0770 C   0  0  0  0  0  3  0  0  0  0  0  0
  -22.4320   -8.0290   21.3560 C   0  0  0  0  0  0  0  0  0  0  0  0
  -21.9950   -9.0260   20.4650 C   0  0  0  0  0  3  0  0  0  0  0  0
  -22.7260  -10.2150   20.3100 C   0  0  0  0  0  3  0  0  0  0  0  0
  -21.6640   -6.8930   21.4290 O   0  0  0  0  0  0  0  0  0  0  0  0
  -21.6840   -6.0790   22.5320 C   0  0  0  0  0  0  0  0  0  0  0  0
  -21.4000   -6.5680   23.8260 C   0  0  0  0  0  3  0  0  0  0  0  0
  -21.3650   -5.6810   24.9190 C   0  0  0  0  0  3  0  0  0  0  0  0
  -21.6060   -4.3080   24.7240 C   0  0  0  0  0  0  0  0  0  0  0  0
  -21.8810   -3.8200   23.4340 C   0  0  0  0  0  3  0  0  0  0  0  0
  -21.9200   -4.7030   22.3410 C   0  0  0  0  0  0  0  0  0  0  0  0
  -22.1660   -4.2240   21.0980 F   0  0  0  0  0  0  0  0  0  0  0  0
  -21.5620   -3.4540   25.7720 F   0  0  0  0  0  0  0  0  0  0  0  0
  -22.7850  -13.5260   21.1840 C   0  0  0  0  0  0  0  0  0  0  0  0
  -22.0470  -12.8290   22.0390 N   0  0  0  0  0  0  0  0  0  0  0  0
  -22.3580  -14.5590   20.6680 O   0  0  0  0  0  0  0  0  0  0  0  0
  -22.4050  -11.9950   22.4790 H   0  0  0  0  0  0  0  0  0  0  0  0
  -21.1080  -13.1340   22.2560 H   0  0  0  0  0  0  0  0  0  0  0  0
  -25.4180  -15.1830   20.3850 N   0  0  0  0  0  0  0  0  0  0  0  0
  -24.6220  -15.8080   20.4450 H   0  0  0  0  0  0  0  0  0  0  0  0
  -26.2340  -15.6190   19.9820 H   0  0  0  0  0  0  0  0  0  0  0  0
  2  3  1  0
  2  1  1  0
  3  5  1  0
  4  2  2  0
  6  7  1  0
  6  3  1  0
  7  8  1  0
  8  9  1  0
  9 10  1  0
 10 11  1  0
 11 12  1  0
 12 13  1  0
 13 14  1  0
 14 16  1  0
 16 15  1  0
 17 16  1  0
 17 18  1  0
 17 19  1  0
 20 17  1  0
 21 20  1  0
 21 22  1  0
 23 24  1  0
 23 22  1  0
 25 24  1  0
 26 25  1  0
 27 28  1  0
 27 26  1  0
 29 28  1  0
 29 31  1  0
 30 41  2  0
 31 36  1  0
 32 40  1  0
 32 42  1  0
 33 39  1  0
 33 35  1  0
 34 40  1  0
 35 34  1  0
 36 35  2  0
 37 38  1  0
 37 31  2  0
 38 33  2  0
 39 32  1  0
 40 30  1  0
 42 44  2  0
 43 42  1  0
 45 43  1  0
 46 55  2  0
 46 51  1  0
 47 43  1  0
 47 51  1  0
 48 47  1  0
 49 50  1  0
 49 48  1  0
 50 46  1  0
 51 52  2  0
 52 53  1  0
 54 53  2  0
 55 54  1  0
 56 30  1  0
 56 61  1  0
 56 57  1  0
 57 60  1  1
 57 58  1  0
 59 57  1  0
 61 64  1  0
 62 66  1  0
 62 61  1  0
 63 62  2  0
 66 65  1  0
 68 66  1  0
 68 69  1  0
 68 67  1  0
 70 72  2  0
 71 70  1  0
 71  1  1  0
 73 71  1  0
 74 70  1  0
 75 77  2  0
 76 74  1  0
 76 75  1  0
 78 76  1  0
 79 75  1  0
 79 80  1  0
 80 83  1  0
 80 81  1  0
 82 80  1  0
 83 84  1  0
 84 85  1  0
 85 86  1  0
 87 88  1  0
 89 91  2  0
 90 89  1  0
 90 88  1  0
 92 90  1  0
 93 89  1  0
 94 95  1  0
 94 93  1  0
 95 96  1  0
 97 96  1  0
 97 98  1  0
 99108  1  0
 99 98  1  0
100108  1  0
101106  1  0
102103  1  0
102101  1  0
104103  1  0
104113  1  0
104105  1  0
106100  1  0
106105  1  0
107100  2  0
108109  1  0
110111  2  0
111130  1  0
112111  1  0
112115  1  0
113110  1  0
113114  1  0
114112  2  0
115116  1  0
116117  2  0
118121  1  0
118117  1  0
119118  2  0
120119  1  0
120115  2  0
121122  1  0
122123  1  0
123124  2  0
125124  1  0
125129  1  0
126125  2  0
127122  2  0
127126  1  0
128127  1  0
130131  1  0
131134  1  0
131133  1  0
132130  2  0
135136  1  0
135110  1  0
137135  1  0
M  ISO  4  28 101  29 101 100 100 108 100
M  END
>  <TORSDO>  (30) 
F 56

>  <SCORE>  (30) 
10.549

>  <name>  (30) 
35

>  <ligand_id>  (30) 
35

>  <original_smiles>  (30) 
[H]c1c([H])c([H])c2c(c1[H])C([H])([H])C([H])([H])C([H])([H])C2([H])N([H])C(=O)C1([H])N(C(=O)C([H])(N([H])C(=O)C([H])(N([H])C([H])([H])[H])C([H])([H])[H])C(C([H])([H])[H])(C([H])([H])[H])C([H])([H])[H])C([H])([H])c2c([H])c(OC([H])([H])C([H])([H])OC([H])([H])C([H])([H])C([H])([H])C([H])([H])C([H])([H])C([H])([H])[N+]([H])([H])C([H])(C([H])([H])[H])C([H])([H])OC([H])([H])C([H])([H])C([H])([H])OC([H])([H])C([H])([H])C([H])([H])N([H])C(=O)C([H])([H])N([H])C(=O)C([H])([H])N([H])C(=O)C([H])([H])[N+]([H])([H])C([H])([H])C([H])([H])C([H])([H])C([H])([H])C([H])([H])C([H])([H])N([H])C(=O)C([H])([H])C([H])([H])C([H])([H])OC([H])([H])C([H])([H])C([H])([H])N([H])C(=O)N3C([H])([H])C([H])([H])C([H])([H])C([H])(n4nc(-c5c([H])c([H])c(Oc6c([H])c([H])c(F)c([H])c6F)c([H])c5[H])c(C(=O)N([H])[H])c4N([H])[H])C3([H])[H])c([H])c([H])c2C1([H])[H]

>  <smiles>  (30) 
[H]c1c([H])c([H])c2c(c1[H])C([H])([H])C([H])([H])C([H])([H])C2([H])N([H])C(=O)C1([H])N(C(=O)C([H])(N([H])C(=O)C([H])(N([H])C([H])([H])[H])C([H])([H])[H])C(C([H])([H])[H])(C([H])([H])[H])C([H])([H])[H])C([H])([H])c2c([H])c(OC([H])([H])C([H])([H])OC([H])([H])C([H])([H])C([H])([H])C([H])([H])C([H])([H])C([H])([H])[N+]([H])([H])C([H])(C([H])([H])[H])C([H])([H])OC([H])([H])C([H])([H])C([H])([H])OC([H])([H])C([H])([H])C([H])([H])N([H])C(=O)C([H])([H])N([H])C(=O)C([H])([H])N([H])C(=O)C([H])([H])[N+]([H])([H])C([H])([H])C([H])([H])C([H])([H])C([H])([H])C([H])([H])C([H])([H])N([H])C(=O)C([H])([H])C([H])([H])C([H])([H])OC([H])([H])C([H])([H])C([H])([H])N([H])C(=O)N3C([H])([H])C([H])([H])C([H])([H])C([H])(n4nc(-c5c([H])c([H])c(Oc6c([H])c([H])c(F)c([H])c6F)c([H])c5[H])c(C(=O)N([H])[H])c4N([H])[H])C3([H])[H])c([H])c([H])c2C1([H])[H]

$$$$
36:0:0
     RDKit          3D

 98105  0  0  1  0  0  0  0  0999 V2000
  -30.3900  -19.7780   13.0670 C   0  0  0  0  0  2  0  0  0  0  0  0
  -30.0170  -18.4810   13.7920 C   0  0  0  0  0  0  0  0  0  0  0  0
  -30.4550  -18.3610   15.0530 N   0  0  0  0  0  0  0  0  0  0  0  0
  -29.3670  -17.6070   13.2170 O   0  0  0  0  0  0  0  0  0  0  0  0
  -30.9620  -19.1490   15.4300 H   0  0  0  0  0  0  0  0  0  0  0  0
  -30.3660  -17.1640   15.8850 C   0  0  0  0  0  2  0  0  0  0  0  0
  -29.4020  -17.3310   17.0750 C   0  0  0  0  0  2  0  0  0  0  0  0
  -29.8790  -18.2980   18.1790 C   0  0  0  0  0  2  0  0  0  0  0  0
  -28.9080  -18.3220   19.3750 C   0  0  0  0  0  2  0  0  0  0  0  0
  -29.4900  -18.8480   20.7060 C   0  0  0  0  0  2  0  0  0  0  0  0
  -30.5980  -17.9950   21.3670 C   0  0  0  0  0  2  0  0  0  0  0  0
  -31.0810  -15.5640   21.0760 C   0  0  0  0  0  0  0  0  0  0  0  0
  -30.9490  -13.4410   19.8610 C   0  0  0  0  0  2  0  0  0  0  0  0
  -30.1280  -13.7180   18.5880 C   0  0  0  0  0  2  0  0  0  0  0  0
  -28.6210  -13.5250   18.8670 C   0  0  0  0  0  2  0  0  0  0  0  0
  -28.1420  -14.2610   20.1500 C   0  0  0  0  0  3  0  0  0  0  0  0
  -29.1080  -14.0100   21.3280 C   0  0  0  0  0  2  0  0  0  0  0  0
  -30.4670  -14.3690   20.8920 N   0  0  0  0  0  0  0  0  0  0  0  0
  -32.2510  -15.7820   20.7570 O   0  0  0  0  0  0  0  0  0  0  0  0
  -30.2630  -16.5670   21.4340 N   0  0  0  0  0  0  0  0  0  0  0  0
  -29.3180  -16.3130   21.6690 H   0  0  0  0  0  0  0  0  0  0  0  0
  -25.6790  -14.7590   20.7200 C   0  0  0  0  0  0  0  0  0  0  0  0
  -24.6080  -13.9340   20.9380 C   0  0  0  0  0  0  0  0  0  0  0  0
  -25.1060  -12.6000   20.8220 C   0  0  0  0  0  0  0  0  0  0  0  0
  -26.7630  -13.9220   20.4940 N   0  0  0  0  0  0  0  0  0  0  0  0
  -26.4150  -12.6140   20.6100 N   0  0  0  0  0  0  0  0  0  0  0  0
  -24.3990  -11.3130   20.8460 C   0  0  0  0  0  0  0  0  0  0  0  0
  -24.7850  -10.2770   21.7230 C   0  0  0  0  0  3  0  0  0  0  0  0
  -24.0800   -9.0550   21.7400 C   0  0  0  0  0  3  0  0  0  0  0  0
  -22.9740   -8.8630   20.8790 C   0  0  0  0  0  0  0  0  0  0  0  0
  -22.6020   -9.8930   19.9950 C   0  0  0  0  0  3  0  0  0  0  0  0
  -23.3110  -11.1060   19.9740 C   0  0  0  0  0  3  0  0  0  0  0  0
  -22.2500   -7.6980   20.8060 O   0  0  0  0  0  0  0  0  0  0  0  0
  -22.0800   -6.8860   21.9000 C   0  0  0  0  0  0  0  0  0  0  0  0
  -21.5240   -7.3640   23.1070 C   0  0  0  0  0  3  0  0  0  0  0  0
  -21.3010   -6.4770   24.1790 C   0  0  0  0  0  3  0  0  0  0  0  0
  -21.6290   -5.1140   24.0470 C   0  0  0  0  0  0  0  0  0  0  0  0
  -22.1800   -4.6370   22.8450 C   0  0  0  0  0  3  0  0  0  0  0  0
  -22.4020   -5.5200   21.7720 C   0  0  0  0  0  0  0  0  0  0  0  0
  -22.9090   -5.0480   20.6090 F   0  0  0  0  0  0  0  0  0  0  0  0
  -21.4120   -4.2570   25.0720 F   0  0  0  0  0  0  0  0  0  0  0  0
  -23.1830  -14.3600   21.1400 C   0  0  0  0  0  0  0  0  0  0  0  0
  -22.4070  -13.5860   21.8900 N   0  0  0  0  0  0  0  0  0  0  0  0
  -22.7630  -15.4180   20.6740 O   0  0  0  0  0  0  0  0  0  0  0  0
  -22.7540  -12.7270   22.2880 H   0  0  0  0  0  0  0  0  0  0  0  0
  -21.4590  -13.8720   22.0900 H   0  0  0  0  0  0  0  0  0  0  0  0
  -25.8120  -16.1450   20.6790 N   0  0  0  0  0  0  0  0  0  0  0  0
  -25.0150  -16.7600   20.8190 H   0  0  0  0  0  0  0  0  0  0  0  0
  -26.6560  -16.6500   20.4420 H   0  0  0  0  0  0  0  0  0  0  0  0
  -29.7540  -20.8850   13.6970 O   0  0  0  0  0  0  0  0  0  0  0  0
  -30.2750  -22.1190   13.2240 C   0  0  0  0  0  2  0  0  0  0  0  0
  -29.5960  -23.2960   13.9280 C   0  0  0  0  0  2  0  0  0  0  0  0
  -29.7590  -23.2580   15.4470 C   0  0  0  0  0  2  0  0  0  0  0  0
  -29.1600  -24.4200   15.9910 O   0  0  0  0  0  0  0  0  0  0  0  0
  -29.1300  -24.3670   17.4050 C   0  0  0  0  0  2  0  0  0  0  0  0
  -28.7050  -25.7250   17.9580 C   0  0  0  0  0  2  0  0  0  0  0  0
  -28.5140  -25.6510   19.4780 C   0  0  0  0  0  2  0  0  0  0  0  0
  -28.3810  -26.9400   20.0560 O   0  0  0  0  0  0  0  0  0  0  0  0
  -24.5050  -31.9100   23.2620 C   0  0  0  0  0  0  0  0  0  0  0  0
  -27.1600  -27.5780   20.0600 C   0  0  0  0  0  0  0  0  0  0  0  0
  -23.2930  -30.5400   21.5930 C   0  0  0  0  0  3  0  0  0  0  0  0
  -24.7430  -29.0410   20.1290 C   0  0  0  0  0  0  0  0  0  0  0  0
  -25.8090  -30.9260   21.3800 C   0  0  0  0  0  2  0  0  0  0  0  0
  -25.8970  -29.5680   20.7210 C   0  0  0  0  0  0  0  0  0  0  0  0
  -27.1040  -28.8400   20.6850 C   0  0  0  0  0  3  0  0  0  0  0  0
  -25.9820  -27.0500   19.4770 C   0  0  0  0  0  3  0  0  0  0  0  0
  -24.7790  -27.7800   19.5090 C   0  0  0  0  0  3  0  0  0  0  0  0
  -23.4950  -29.8900   20.1970 C   0  0  0  0  0  2  0  0  0  0  0  0
  -24.5550  -31.1370   22.1400 N   0  0  0  0  0  0  0  0  0  0  0  0
  -23.4250  -32.1630   23.8140 O   0  0  0  0  0  0  0  0  0  0  0  0
  -22.6540  -29.4940   22.5340 C   0  0  0  0  0  0  0  0  0  0  0  0
  -21.3270  -29.3230   22.4230 N   0  0  0  0  0  0  0  0  0  0  0  0
  -23.3480  -28.8430   23.3180 O   0  0  0  0  0  0  0  0  0  0  0  0
  -20.8300  -29.9030   21.7610 H   0  0  0  0  0  0  0  0  0  0  0  0
  -17.9560  -28.1330   22.9290 C   0  0  0  0  0  0  0  0  0  0  0  0
  -20.5180  -28.3670   23.1770 C   0  0  0  0  0  3  0  0  0  0  0  0
  -20.6050  -26.9520   22.5600 C   0  0  0  0  0  2  0  0  0  0  0  0
  -19.4880  -26.6630   21.5520 C   0  0  0  0  0  2  0  0  0  0  0  0
  -18.1160  -26.8000   22.2160 C   0  0  0  0  0  2  0  0  0  0  0  0
  -19.0830  -28.8740   23.3670 C   0  0  0  0  0  0  0  0  0  0  0  0
  -18.8800  -30.1250   23.9930 C   0  0  0  0  0  3  0  0  0  0  0  0
  -17.5800  -30.6300   24.1870 C   0  0  0  0  0  3  0  0  0  0  0  0
  -16.4670  -29.8830   23.7650 C   0  0  0  0  0  3  0  0  0  0  0  0
  -16.6560  -28.6360   23.1420 C   0  0  0  0  0  3  0  0  0  0  0  0
  -25.7930  -32.5330   23.8870 C   0  0  0  0  0  3  0  0  0  0  0  0
  -26.2880  -31.7690   25.1750 C   0  0  1  0  0  0  0  0  0  0  0  0
  -25.1850  -31.5570   26.2380 C   0  0  0  0  0  1  0  0  0  0  0  0
  -26.8500  -30.3810   24.7930 C   0  0  0  0  0  1  0  0  0  0  0  0
  -27.4480  -32.5510   25.8360 C   0  0  0  0  0  1  0  0  0  0  0  0
  -25.4980  -33.9370   24.1980 N   0  0  0  0  0  0  0  0  0  0  0  0
  -25.8610  -34.9760   23.4350 C   0  0  0  0  0  0  0  0  0  0  0  0
  -26.5500  -34.8530   22.4180 O   0  0  0  0  0  0  0  0  0  0  0  0
  -24.8920  -34.1090   24.9860 H   0  0  0  0  0  0  0  0  0  0  0  0
  -24.1660  -36.7870   23.0220 C   0  0  0  0  0  1  0  0  0  0  0  0
  -25.3810  -36.3750   23.8660 C   0  0  0  0  0  3  0  0  0  0  0  0
  -27.5160  -37.2280   24.7290 C   0  0  0  0  0  1  0  0  0  0  0  0
  -26.4290  -37.4140   23.7710 N   0  0  0  0  0  0  0  0  0  0  0  0
  -26.0340  -38.3390   23.9180 H   0  0  0  0  0  0  0  0  0  0  0  0
  1 50  1  0
  1  2  1  0
  2  3  1  0
  3  5  1  0
  3  6  1  0
  4  2  2  0
  6  7  1  0
  7  8  1  0
  8  9  1  0
  9 10  1  0
 10 11  1  0
 11 20  1  0
 12 20  1  0
 13 18  1  0
 14 15  1  0
 14 13  1  0
 16 15  1  0
 16 25  1  0
 16 17  1  0
 18 12  1  0
 18 17  1  0
 19 12  2  0
 20 21  1  0
 22 23  2  0
 23 42  1  0
 24 27  1  0
 24 23  1  0
 25 26  1  0
 25 22  1  0
 26 24  2  0
 27 28  1  0
 28 29  2  0
 30 29  1  0
 31 30  2  0
 32 31  1  0
 32 27  2  0
 33 30  1  0
 33 34  1  0
 34 35  1  0
 35 36  2  0
 37 36  1  0
 37 41  1  0
 38 37  2  0
 39 34  2  0
 39 38  1  0
 40 39  1  0
 42 43  1  0
 43 46  1  0
 43 45  1  0
 44 42  2  0
 47 22  1  0
 47 48  1  0
 49 47  1  0
 51 50  1  0
 51 52  1  0
 52 53  1  0
 53 54  1  0
 54 55  1  0
 55 56  1  0
 56 57  1  0
 57 58  1  0
 58 60  1  0
 59 70  2  0
 60 65  1  0
 61 69  1  0
 61 71  1  0
 62 68  1  0
 62 64  1  0
 63 69  1  0
 64 63  1  0
 65 64  2  0
 66 67  1  0
 66 60  2  0
 67 62  2  0
 68 61  1  0
 69 59  1  0
 71 73  2  0
 72 71  1  0
 74 72  1  0
 75 84  2  0
 75 80  1  0
 76 72  1  0
 76 80  1  0
 77 76  1  0
 78 79  1  0
 78 77  1  0
 79 75  1  0
 80 81  2  0
 81 82  1  0
 83 82  2  0
 84 83  1  0
 85 59  1  0
 85 90  1  0
 85 86  1  0
 86 89  1  1
 86 87  1  0
 88 86  1  0
 90 93  1  0
 91 95  1  0
 91 90  1  0
 92 91  2  0
 95 94  1  0
 97 95  1  0
 97 98  1  0
 97 96  1  0
M  ISO  4  12 100  20 100  57 101  58 101
M  END
>  <TORSDO>  (31) 
F 31

>  <SCORE>  (31) 
-6.949

>  <name>  (31) 
36

>  <ligand_id>  (31) 
36

>  <original_smiles>  (31) 
[H]c1c([H])c([H])c2c(c1[H])C([H])([H])C([H])([H])C([H])([H])C2([H])N([H])C(=O)C1([H])N(C(=O)C([H])(N([H])C(=O)C([H])(N([H])C([H])([H])[H])C([H])([H])[H])C(C([H])([H])[H])(C([H])([H])[H])C([H])([H])[H])C([H])([H])c2c([H])c(OC([H])([H])C([H])([H])C([H])([H])OC([H])([H])C([H])([H])C([H])([H])OC([H])([H])C(=O)N([H])C([H])([H])C([H])([H])C([H])([H])C([H])([H])C([H])([H])C([H])([H])N([H])C(=O)N3C([H])([H])C([H])([H])C([H])([H])C([H])(n4nc(-c5c([H])c([H])c(Oc6c([H])c([H])c(F)c([H])c6F)c([H])c5[H])c(C(=O)N([H])[H])c4N([H])[H])C3([H])[H])c([H])c([H])c2C1([H])[H]

>  <smiles>  (31) 
[H]c1c([H])c([H])c2c(c1[H])C([H])([H])C([H])([H])C([H])([H])C2([H])N([H])C(=O)C1([H])N(C(=O)C([H])(N([H])C(=O)C([H])(N([H])C([H])([H])[H])C([H])([H])[H])C(C([H])([H])[H])(C([H])([H])[H])C([H])([H])[H])C([H])([H])c2c([H])c(OC([H])([H])C([H])([H])C([H])([H])OC([H])([H])C([H])([H])C([H])([H])OC([H])([H])C(=O)N([H])C([H])([H])C([H])([H])C([H])([H])C([H])([H])C([H])([H])C([H])([H])N([H])C(=O)N3C([H])([H])C([H])([H])C([H])([H])C([H])(n4nc(-c5c([H])c([H])c(Oc6c([H])c([H])c(F)c([H])c6F)c([H])c5[H])c(C(=O)N([H])[H])c4N([H])[H])C3([H])[H])c([H])c([H])c2C1([H])[H]

$$$$
37:0:0
     RDKit          3D

116123  0  0  1  0  0  0  0  0999 V2000
  -24.5790  -31.2390   16.9440 C   0  0  0  0  0  2  0  0  0  0  0  0
  -25.5060  -28.8100   16.5540 C   0  0  0  0  0  0  0  0  0  0  0  0
  -25.3140  -29.9590   17.2870 N   0  0  0  0  0  0  0  0  0  0  0  0
  -24.7870  -28.5520   15.5900 O   0  0  0  0  0  0  0  0  0  0  0  0
  -25.8830  -30.0050   18.1220 H   0  0  0  0  0  0  0  0  0  0  0  0
  -26.7270  -27.8500   16.8520 C   0  0  0  0  0  2  0  0  0  0  0  0
  -27.4670  -25.3870   17.1070 C   0  0  0  0  0  0  0  0  0  0  0  0
  -26.5190  -26.3570   16.8880 N   0  0  0  0  0  0  0  0  0  0  0  0
  -28.6690  -25.6540   17.0760 O   0  0  0  0  0  0  0  0  0  0  0  0
  -25.5540  -26.0610   16.8090 H   0  0  0  0  0  0  0  0  0  0  0  0
  -27.0220  -23.9110   17.4570 C   0  0  0  0  0  2  0  0  0  0  0  0
  -28.0870  -21.7250   18.3700 C   0  0  0  0  0  0  0  0  0  0  0  0
  -28.0190  -22.7700   17.4790 N   0  0  0  0  0  0  0  0  0  0  0  0
  -27.4530  -21.7580   19.4250 O   0  0  0  0  0  0  0  0  0  0  0  0
  -28.6100  -22.7120   16.6610 H   0  0  0  0  0  0  0  0  0  0  0  0
  -28.9290  -20.4240   18.0490 C   0  0  0  0  0  2  0  0  0  0  0  0
  -29.4120  -18.0620   19.0270 C   0  0  0  0  0  0  0  0  0  0  0  0
  -29.2000  -19.4140   19.1440 N   0  0  0  0  0  0  0  0  0  0  0  0
  -29.2210  -17.4830   17.9580 O   0  0  0  0  0  0  0  0  0  0  0  0
  -29.3160  -19.8100   20.0690 H   0  0  0  0  0  0  0  0  0  0  0  0
  -29.9650  -17.2170   20.2370 C   0  0  0  0  0  2  0  0  0  0  0  0
  -30.5730  -14.6740   20.3470 C   0  0  0  0  0  0  0  0  0  0  0  0
  -30.4290  -12.3850   19.4310 C   0  0  0  0  0  2  0  0  0  0  0  0
  -29.4950  -12.4850   18.2050 C   0  0  0  0  0  2  0  0  0  0  0  0
  -28.0190  -12.3270   18.6250 C   0  0  0  0  0  2  0  0  0  0  0  0
  -27.6380  -13.2150   19.8400 C   0  0  0  0  0  3  0  0  0  0  0  0
  -28.6920  -13.1130   20.9640 C   0  0  0  0  0  2  0  0  0  0  0  0
  -29.9960  -13.4340   20.3650 N   0  0  0  0  0  0  0  0  0  0  0  0
  -31.7810  -14.8190   20.1510 O   0  0  0  0  0  0  0  0  0  0  0  0
  -29.7060  -15.7340   20.3040 N   0  0  0  0  0  0  0  0  0  0  0  0
  -28.7310  -15.4860   20.3390 H   0  0  0  0  0  0  0  0  0  0  0  0
  -25.2510  -13.8190   20.5680 C   0  0  0  0  0  0  0  0  0  0  0  0
  -24.1770  -13.0420   20.9220 C   0  0  0  0  0  0  0  0  0  0  0  0
  -24.6350  -11.6910   20.8730 C   0  0  0  0  0  0  0  0  0  0  0  0
  -26.2890  -12.9340   20.3240 N   0  0  0  0  0  0  0  0  0  0  0  0
  -25.9280  -11.6500   20.5740 N   0  0  0  0  0  0  0  0  0  0  0  0
  -23.9070  -10.4260   21.0400 C   0  0  0  0  0  0  0  0  0  0  0  0
  -24.3620   -9.4190   21.9170 C   0  0  0  0  0  3  0  0  0  0  0  0
  -23.6290   -8.2240   22.0730 C   0  0  0  0  0  3  0  0  0  0  0  0
  -22.4270   -8.0260   21.3540 C   0  0  0  0  0  0  0  0  0  0  0  0
  -21.9920   -9.0240   20.4650 C   0  0  0  0  0  3  0  0  0  0  0  0
  -22.7240  -10.2120   20.3060 C   0  0  0  0  0  3  0  0  0  0  0  0
  -21.6610   -6.8870   21.4240 O   0  0  0  0  0  0  0  0  0  0  0  0
  -21.6840   -6.0740   22.5280 C   0  0  0  0  0  0  0  0  0  0  0  0
  -21.4020   -6.5640   23.8220 C   0  0  0  0  0  3  0  0  0  0  0  0
  -21.3670   -5.6780   24.9170 C   0  0  0  0  0  3  0  0  0  0  0  0
  -21.6020   -4.3050   24.7200 C   0  0  0  0  0  0  0  0  0  0  0  0
  -21.8810   -3.8150   23.4330 C   0  0  0  0  0  3  0  0  0  0  0  0
  -21.9190   -4.6970   22.3400 C   0  0  0  0  0  0  0  0  0  0  0  0
  -22.1640   -4.2150   21.0980 F   0  0  0  0  0  0  0  0  0  0  0  0
  -21.5620   -3.4540   25.7730 F   0  0  0  0  0  0  0  0  0  0  0  0
  -22.7800  -13.5260   21.1840 C   0  0  0  0  0  0  0  0  0  0  0  0
  -22.0460  -12.8200   22.0410 N   0  0  0  0  0  0  0  0  0  0  0  0
  -22.3480  -14.5540   20.6680 O   0  0  0  0  0  0  0  0  0  0  0  0
  -22.4090  -11.9890   22.4790 H   0  0  0  0  0  0  0  0  0  0  0  0
  -21.1100  -13.1200   22.2690 H   0  0  0  0  0  0  0  0  0  0  0  0
  -25.4180  -15.1900   20.4090 N   0  0  0  0  0  0  0  0  0  0  0  0
  -24.6410  -15.8350   20.5140 H   0  0  0  0  0  0  0  0  0  0  0  0
  -26.2410  -15.6350   20.0310 H   0  0  0  0  0  0  0  0  0  0  0  0
  -23.1900  -31.6800   17.6450 C   0  0  0  0  0  2  0  0  0  0  0  0
  -23.1220  -32.6660   18.9270 C   0  0  0  0  0  3  0  0  0  0  0  0
  -21.8000  -32.6810   19.8520 C   0  0  0  0  0  3  0  0  0  0  0  0
  -21.8280  -33.3620   21.3240 C   0  0  0  0  0  2  0  0  0  0  0  0
  -20.8860  -32.9010   22.5760 C   0  0  0  0  0  2  0  0  0  0  0  0
  -21.5020  -31.7030   24.9030 C   0  0  0  0  0  0  0  0  0  0  0  0
  -21.2550  -31.7890   23.5400 N   0  0  0  0  0  0  0  0  0  0  0  0
  -21.4330  -32.7080   25.6110 O   0  0  0  0  0  0  0  0  0  0  0  0
  -21.3210  -30.8810   23.1040 H   0  0  0  0  0  0  0  0  0  0  0  0
  -21.7970  -30.2920   25.6170 C   0  0  0  0  0  2  0  0  0  0  0  0
  -23.2520  -29.6000   25.6520 C   0  0  0  0  0  3  0  0  0  0  0  0
  -23.6220  -28.0340   25.6350 C   0  0  0  0  0  3  0  0  0  0  0  0
  -25.1230  -27.5420   25.2270 C   0  0  0  0  0  3  0  0  0  0  0  0
  -25.6310  -27.1730   23.7280 C   0  0  0  0  0  3  0  0  0  0  0  0
  -27.1540  -26.8030   23.4280 C   0  0  0  0  0  2  0  0  0  0  0  0
  -27.6140  -25.9920   22.1080 C   0  0  0  0  0  2  0  0  0  0  0  0
  -28.1330  -26.6090   20.8600 O   0  0  0  0  0  0  0  0  0  0  0  0
  -24.7900  -31.8820   23.1620 C   0  0  0  0  0  0  0  0  0  0  0  0
  -27.1880  -27.4240   20.3450 C   0  0  0  0  0  0  0  0  0  0  0  0
  -23.4640  -30.4360   21.5510 C   0  0  0  0  0  3  0  0  0  0  0  0
  -24.8760  -28.9170   20.1530 C   0  0  0  0  0  0  0  0  0  0  0  0
  -25.9650  -30.8630   21.2970 C   0  0  0  0  0  2  0  0  0  0  0  0
  -26.0410  -29.4980   20.6750 C   0  0  0  0  0  0  0  0  0  0  0  0
  -27.2280  -28.7660   20.7290 C   0  0  0  0  0  3  0  0  0  0  0  0
  -26.0390  -26.8630   19.7650 C   0  0  0  0  0  3  0  0  0  0  0  0
  -24.8670  -27.6160   19.6410 C   0  0  0  0  0  3  0  0  0  0  0  0
  -23.6610  -29.7620   20.1860 C   0  0  0  0  0  2  0  0  0  0  0  0
  -24.7490  -31.0290   22.1010 N   0  0  0  0  0  0  0  0  0  0  0  0
  -23.7780  -32.2970   23.6540 O   0  0  0  0  0  0  0  0  0  0  0  0
  -22.7070  -29.3970   22.3750 C   0  0  0  0  0  0  0  0  0  0  0  0
  -21.3640  -29.2850   22.2820 N   0  0  0  0  0  0  0  0  0  0  0  0
  -23.3360  -28.6320   23.0490 O   0  0  0  0  0  0  0  0  0  0  0  0
  -20.8760  -29.8480   21.5980 H   0  0  0  0  0  0  0  0  0  0  0  0
  -17.9770  -28.0780   22.7980 C   0  0  0  0  0  0  0  0  0  0  0  0
  -20.5420  -28.3390   23.0520 C   0  0  0  0  0  3  0  0  0  0  0  0
  -20.6440  -26.9110   22.4810 C   0  0  0  0  0  2  0  0  0  0  0  0
  -19.5420  -26.6050   21.4720 C   0  0  0  0  0  2  0  0  0  0  0  0
  -18.1700  -26.7330   22.1340 C   0  0  0  0  0  2  0  0  0  0  0  0
  -19.0850  -28.8300   23.2500 C   0  0  0  0  0  0  0  0  0  0  0  0
  -18.7840  -30.0460   23.8970 C   0  0  0  0  0  3  0  0  0  0  0  0
  -17.4970  -30.5650   24.0320 C   0  0  0  0  0  3  0  0  0  0  0  0
  -16.4190  -29.8080   23.5790 C   0  0  0  0  0  3  0  0  0  0  0  0
  -16.6620  -28.5630   22.9750 C   0  0  0  0  0  3  0  0  0  0  0  0
  -26.0600  -32.4970   23.8200 C   0  0  0  0  0  3  0  0  0  0  0  0
  -26.5750  -31.6990   25.0740 C   0  0  1  0  0  0  0  0  0  0  0  0
  -25.5540  -31.4860   26.2120 C   0  0  0  0  0  1  0  0  0  0  0  0
  -27.1290  -30.3430   24.5980 C   0  0  0  0  0  1  0  0  0  0  0  0
  -27.7450  -32.4570   25.7340 C   0  0  0  0  0  1  0  0  0  0  0  0
  -25.7100  -33.8670   24.2290 N   0  0  0  0  0  0  0  0  0  0  0  0
  -25.9400  -34.9560   23.4930 C   0  0  0  0  0  0  0  0  0  0  0  0
  -26.5720  -34.9150   22.4340 O   0  0  0  0  0  0  0  0  0  0  0  0
  -25.1240  -33.9530   25.0450 H   0  0  0  0  0  0  0  0  0  0  0  0
  -24.1570  -36.7060   23.2310 C   0  0  0  0  0  1  0  0  0  0  0  0
  -25.4130  -36.3020   24.0200 C   0  0  0  0  0  3  0  0  0  0  0  0
  -27.5550  -37.1800   24.8370 C   0  0  0  0  0  1  0  0  0  0  0  0
  -26.4160  -37.3860   23.9480 N   0  0  0  0  0  0  0  0  0  0  0  0
  -25.9910  -38.2800   24.1770 H   0  0  0  0  0  0  0  0  0  0  0  0
  1  3  1  0
  1 60  1  0
  2  6  1  0
  2  3  1  0
  3  5  1  0
  4  2  2  0
  6  8  1  0
  7 11  1  0
  8  7  1  0
  9  7  2  0
 10  8  1  0
 11 13  1  0
 12 14  2  0
 13 12  1  0
 15 13  1  0
 16 12  1  0
 16 18  1  0
 17 18  1  0
 17 21  1  0
 18 20  1  0
 19 17  2  0
 21 30  1  0
 22 28  1  0
 23 28  1  0
 24 25  1  0
 24 23  1  0
 26 25  1  0
 26 35  1  0
 26 27  1  0
 28 27  1  0
 29 22  2  0
 30 31  1  0
 30 22  1  0
 32 33  2  0
 33 52  1  0
 34 33  1  0
 34 37  1  0
 35 32  1  0
 35 36  1  0
 36 34  2  0
 37 38  1  0
 38 39  2  0
 40 43  1  0
 40 39  1  0
 41 40  2  0
 42 41  1  0
 42 37  2  0
 43 44  1  0
 44 45  1  0
 45 46  2  0
 47 46  1  0
 47 51  1  0
 48 47  2  0
 49 44  2  0
 49 48  1  0
 50 49  1  0
 52 53  1  0
 53 56  1  0
 53 55  1  0
 54 52  2  0
 57 58  1  0
 57 32  1  0
 59 57  1  0
 60 61  1  0
 61 62  2  0
 62 63  1  0
 63 64  1  0
 64 66  1  0
 65 67  2  0
 65 69  1  0
 66 65  1  0
 68 66  1  0
 69 70  1  0
 71 70  2  0
 72 71  1  0
 73 72  2  0
 74 73  1  0
 75 74  1  0
 76 75  1  0
 77 88  2  0
 78 83  1  0
 78 76  1  0
 79 87  1  0
 79 89  1  0
 80 86  1  0
 80 82  1  0
 81 87  1  0
 82 83  2  0
 82 81  1  0
 84 78  2  0
 85 84  1  0
 85 80  2  0
 86 79  1  0
 87 77  1  0
 89 91  2  0
 90 89  1  0
 92 90  1  0
 93102  2  0
 93 98  1  0
 94 90  1  0
 94 98  1  0
 95 94  1  0
 96 97  1  0
 96 95  1  0
 97 93  1  0
 98 99  2  0
 99100  1  0
101100  2  0
102101  1  0
103 77  1  0
103108  1  0
103104  1  0
104107  1  1
104105  1  0
106104  1  0
108111  1  0
109113  1  0
109108  1  0
110109  2  0
113112  1  0
115113  1  0
115116  1  0
115114  1  0
M  ISO  4  22 100  30 100  75 101  76 101
M  END
>  <TORSDO>  (32) 
F 37

>  <SCORE>  (32) 
28.015

>  <name>  (32) 
37

>  <ligand_id>  (32) 
37

>  <original_smiles>  (32) 
[H]c1c([H])c([H])c2c(c1[H])C([H])([H])C([H])([H])C([H])([H])C2([H])N([H])C(=O)C1([H])N(C(=O)C([H])(N([H])C(=O)C([H])(N([H])C([H])([H])[H])C([H])([H])[H])C(C([H])([H])[H])(C([H])([H])[H])C([H])([H])[H])C([H])([H])c2c([H])c(OC([H])([H])C([H])([H])C([H])([H])C([H])([H])C([H])([H])C([H])([H])C([H])([H])C(=O)N([H])C([H])([H])C([H])([H])C([H])([H])C([H])([H])C([H])([H])C([H])([H])N([H])C(=O)C([H])([H])N([H])C(=O)C([H])([H])N([H])C(=O)C([H])([H])N([H])C(=O)C([H])([H])N([H])C(=O)N3C([H])([H])C([H])([H])C([H])([H])C([H])(n4nc(-c5c([H])c([H])c(Oc6c([H])c([H])c(F)c([H])c6F)c([H])c5[H])c(C(=O)N([H])[H])c4N([H])[H])C3([H])[H])c([H])c([H])c2C1([H])[H]

>  <smiles>  (32) 
[H]c1c([H])c([H])c2c(c1[H])C([H])([H])C([H])([H])C([H])([H])C2([H])N([H])C(=O)C1([H])N(C(=O)C([H])(N([H])C(=O)C([H])(N([H])C([H])([H])[H])C([H])([H])[H])C(C([H])([H])[H])(C([H])([H])[H])C([H])([H])[H])C([H])([H])c2c([H])c(OC([H])([H])C([H])([H])C([H])([H])C([H])([H])C([H])([H])C([H])([H])C([H])([H])C(=O)N([H])C([H])([H])C([H])([H])C([H])([H])C([H])([H])C([H])([H])C([H])([H])N([H])C(=O)C([H])([H])N([H])C(=O)C([H])([H])N([H])C(=O)C([H])([H])N([H])C(=O)C([H])([H])N([H])C(=O)N3C([H])([H])C([H])([H])C([H])([H])C([H])(n4nc(-c5c([H])c([H])c(Oc6c([H])c([H])c(F)c([H])c6F)c([H])c5[H])c(C(=O)N([H])[H])c4N([H])[H])C3([H])[H])c([H])c([H])c2C1([H])[H]

$$$$
38:0:0
     RDKit          3D

111118  0  0  1  0  0  0  0  0999 V2000
  -28.2740  -11.5820   23.7730 C   0  0  0  0  0  0  0  0  0  0  0  0
  -27.6420  -12.2950   22.8180 N   0  0  0  0  0  0  0  0  0  0  0  0
  -28.9450  -12.1450   24.6420 O   0  0  0  0  0  0  0  0  0  0  0  0
  -27.1210  -11.8270   22.0860 H   0  0  0  0  0  0  0  0  0  0  0  0
  -27.6750  -13.7630   22.7450 C   0  0  0  0  0  2  0  0  0  0  0  0
  -27.2270  -14.3140   21.3820 C   0  0  0  0  0  0  0  0  0  0  0  0
  -27.9030  -15.3540   20.8590 N   0  0  0  0  0  0  0  0  0  0  0  0
  -26.2500  -13.8120   20.8190 O   0  0  0  0  0  0  0  0  0  0  0  0
  -28.6770  -15.7340   21.3900 H   0  0  0  0  0  0  0  0  0  0  0  0
  -27.7660  -15.7750   19.4600 C   0  0  0  0  0  2  0  0  0  0  0  0
  -28.1810  -17.2370   19.1410 C   0  0  0  0  0  2  0  0  0  0  0  0
  -28.9160  -17.3280   17.7800 C   0  0  0  0  0  2  0  0  0  0  0  0
  -29.3650  -18.7350   17.3050 C   0  0  0  0  0  2  0  0  0  0  0  0
  -30.5810  -18.6270   16.3540 C   0  0  0  0  0  2  0  0  0  0  0  0
  -31.1760  -19.9680   15.8600 C   0  0  0  0  0  2  0  0  0  0  0  0
  -32.6730  -19.8470   15.4600 C   0  0  0  0  0  2  0  0  0  0  0  0
  -33.4320  -21.1940   15.3340 C   0  0  0  0  0  2  0  0  0  0  0  0
  -34.1860  -21.3580   14.1230 O   0  0  0  0  0  0  0  0  0  0  0  0
  -31.8920  -27.6790   11.7730 C   0  0  0  0  0  0  0  0  0  0  0  0
  -33.5540  -22.0730   13.1340 C   0  0  0  0  0  0  0  0  0  0  0  0
  -31.0650  -25.7000   10.5520 C   0  0  0  0  0  3  0  0  0  0  0  0
  -32.2450  -23.4940   11.0750 C   0  0  0  0  0  0  0  0  0  0  0  0
  -33.3390  -25.6500   11.7230 C   0  0  0  0  0  2  0  0  0  0  0  0
  -33.1320  -24.1610   11.9320 C   0  0  0  0  0  0  0  0  0  0  0  0
  -33.7940  -23.4540   12.9600 C   0  0  0  0  0  3  0  0  0  0  0  0
  -32.6710  -21.4080   12.2590 C   0  0  0  0  0  3  0  0  0  0  0  0
  -32.0220  -22.1140   11.2290 C   0  0  0  0  0  3  0  0  0  0  0  0
  -31.5630  -24.3300   10.0160 C   0  0  0  0  0  2  0  0  0  0  0  0
  -32.0940  -26.3890   11.3950 N   0  0  0  0  0  0  0  0  0  0  0  0
  -30.8960  -28.3120   11.3940 O   0  0  0  0  0  0  0  0  0  0  0  0
  -29.7140  -25.4880   11.2770 C   0  0  0  0  0  0  0  0  0  0  0  0
  -28.6210  -25.4240   10.4990 N   0  0  0  0  0  0  0  0  0  0  0  0
  -29.6660  -25.3580   12.5020 O   0  0  0  0  0  0  0  0  0  0  0  0
  -28.7420  -25.5440    9.5040 H   0  0  0  0  0  0  0  0  0  0  0  0
  -25.1850  -25.1710    9.4040 C   0  0  0  0  0  0  0  0  0  0  0  0
  -27.2520  -25.1960   10.9610 C   0  0  0  0  0  3  0  0  0  0  0  0
  -26.9780  -23.6920   11.1790 C   0  0  0  0  0  2  0  0  0  0  0  0
  -26.3710  -23.0050    9.9490 C   0  0  0  0  0  2  0  0  0  0  0  0
  -25.0480  -23.6660    9.5580 C   0  0  0  0  0  2  0  0  0  0  0  0
  -26.2280  -25.8870   10.0500 C   0  0  0  0  0  0  0  0  0  0  0  0
  -26.3310  -27.2820    9.8460 C   0  0  0  0  0  3  0  0  0  0  0  0
  -25.4160  -27.9550    9.0140 C   0  0  0  0  0  3  0  0  0  0  0  0
  -24.3770  -27.2450    8.3910 C   0  0  0  0  0  3  0  0  0  0  0  0
  -24.2570  -25.8580    8.5920 C   0  0  0  0  0  3  0  0  0  0  0  0
  -32.9190  -28.4360   12.6680 C   0  0  0  0  0  3  0  0  0  0  0  0
  -32.4860  -28.4890   14.1880 C   0  0  1  0  0  0  0  0  0  0  0  0
  -31.0480  -29.0100   14.4120 C   0  0  0  0  0  1  0  0  0  0  0  0
  -32.5900  -27.0870   14.8320 C   0  0  0  0  0  1  0  0  0  0  0  0
  -33.4470  -29.4160   14.9740 C   0  0  0  0  0  1  0  0  0  0  0  0
  -33.0600  -29.7930   12.1250 N   0  0  0  0  0  0  0  0  0  0  0  0
  -34.0560  -30.1910   11.3250 C   0  0  0  0  0  0  0  0  0  0  0  0
  -35.0070  -29.4640   11.0290 O   0  0  0  0  0  0  0  0  0  0  0  0
  -32.2930  -30.4250   12.2960 H   0  0  0  0  0  0  0  0  0  0  0  0
  -33.4750  -31.6010    9.3270 C   0  0  0  0  0  1  0  0  0  0  0  0
  -33.9890  -31.6260   10.7750 C   0  0  0  0  0  3  0  0  0  0  0  0
  -35.7290  -32.6400   12.1820 C   0  0  0  0  0  1  0  0  0  0  0  0
  -35.2820  -32.3390   10.8240 N   0  0  0  0  0  0  0  0  0  0  0  0
  -35.2300  -33.2160   10.3140 H   0  0  0  0  0  0  0  0  0  0  0  0
  -28.1090  -10.0470   23.8030 C   0  0  0  0  0  2  0  0  0  0  0  0
  -29.5170   -7.9590   23.8390 C   0  0  0  0  0  0  0  0  0  0  0  0
  -29.1870   -9.1430   23.2810 N   0  0  0  0  0  0  0  0  0  0  0  0
  -29.0480   -7.6890   24.9430 O   0  0  0  0  0  0  0  0  0  0  0  0
  -29.5080   -9.3300   22.3310 H   0  0  0  0  0  0  0  0  0  0  0  0
  -30.4060   -6.8510   23.1740 C   0  0  0  0  0  2  0  0  0  0  0  0
  -32.4930   -6.4410   21.7600 C   0  0  0  0  0  0  0  0  0  0  0  0
  -31.3080   -7.0850   22.0090 N   0  0  0  0  0  0  0  0  0  0  0  0
  -32.8850   -5.5720   22.5390 O   0  0  0  0  0  0  0  0  0  0  0  0
  -31.0170   -7.8010   21.3600 H   0  0  0  0  0  0  0  0  0  0  0  0
  -33.3870   -6.7380   20.4790 C   0  0  0  0  0  2  0  0  0  0  0  0
  -34.0890   -8.0220   20.3670 O   0  0  0  0  0  0  0  0  0  0  0  0
  -35.4250   -8.2900   20.8880 C   0  0  0  0  0  2  0  0  0  0  0  0
  -36.0880   -9.7790   20.6950 C   0  0  0  0  0  2  0  0  0  0  0  0
  -35.6220  -11.2910   21.1640 C   0  0  0  0  0  2  0  0  0  0  0  0
  -34.7610  -12.5200   23.3810 C   0  0  0  0  0  0  0  0  0  0  0  0
  -33.5480  -10.6010   24.0420 C   0  0  0  0  0  2  0  0  0  0  0  0
  -33.5460   -9.7860   22.7950 C   0  0  0  0  0  3  0  0  0  0  0  0
  -32.7070  -10.2990   21.5450 C   0  0  0  0  0  3  0  0  0  0  0  0
  -32.1440  -11.7230   21.5540 C   0  0  0  0  0  3  0  0  0  0  0  0
  -32.2510  -12.2980   22.9660 C   0  0  0  0  0  2  0  0  0  0  0  0
  -33.5500  -11.9480   23.5490 N   0  0  0  0  0  0  0  0  0  0  0  0
  -35.2660  -13.2240   24.2460 O   0  0  0  0  0  0  0  0  0  0  0  0
  -35.6530  -11.8230   22.5890 N   0  0  0  0  0  0  0  0  0  0  0  0
  -36.5920  -11.9670   22.9380 H   0  0  0  0  0  0  0  0  0  0  0  0
  -30.4130  -12.4400   19.7770 C   0  0  0  0  0  0  0  0  0  0  0  0
  -29.1430  -12.0400   19.4900 C   0  0  0  0  0  0  0  0  0  0  0  0
  -28.8160  -11.0340   20.4580 C   0  0  0  0  0  0  0  0  0  0  0  0
  -30.8140  -11.7500   20.9070 N   0  0  0  0  0  0  0  0  0  0  0  0
  -29.8220  -10.9050   21.3120 N   0  0  0  0  0  0  0  0  0  0  0  0
  -27.6290  -10.1590   20.5770 C   0  0  0  0  0  0  0  0  0  0  0  0
  -26.9840   -9.9030   21.8060 C   0  0  0  0  0  3  0  0  0  0  0  0
  -25.8240   -9.1070   21.8860 C   0  0  0  0  0  3  0  0  0  0  0  0
  -25.2760   -8.5540   20.7110 C   0  0  0  0  0  0  0  0  0  0  0  0
  -25.9320   -8.7750   19.4850 C   0  0  0  0  0  3  0  0  0  0  0  0
  -27.0960   -9.5630   19.4210 C   0  0  0  0  0  3  0  0  0  0  0  0
  -24.1620   -7.7420   20.7010 O   0  0  0  0  0  0  0  0  0  0  0  0
  -23.2030   -7.8250   21.6810 C   0  0  0  0  0  0  0  0  0  0  0  0
  -22.5310   -9.0320   21.9640 C   0  0  0  0  0  3  0  0  0  0  0  0
  -21.5010   -9.0590   22.9270 C   0  0  0  0  0  3  0  0  0  0  0  0
  -21.1350   -7.8780   23.6030 C   0  0  0  0  0  0  0  0  0  0  0  0
  -21.8060   -6.6710   23.3210 C   0  0  0  0  0  3  0  0  0  0  0  0
  -22.8330   -6.6470   22.3590 C   0  0  0  0  0  0  0  0  0  0  0  0
  -23.4540   -5.4840   22.0700 F   0  0  0  0  0  0  0  0  0  0  0  0
  -20.1280   -7.8840   24.5090 F   0  0  0  0  0  0  0  0  0  0  0  0
  -28.3010  -12.4990   18.3330 C   0  0  0  0  0  0  0  0  0  0  0  0
  -26.9860  -12.5040   18.5090 N   0  0  0  0  0  0  0  0  0  0  0  0
  -28.8250  -12.8930   17.2860 O   0  0  0  0  0  0  0  0  0  0  0  0
  -26.5820  -12.1850   19.3760 H   0  0  0  0  0  0  0  0  0  0  0  0
  -26.3610  -12.8130   17.7760 H   0  0  0  0  0  0  0  0  0  0  0  0
  -31.2900  -13.3430   19.1800 N   0  0  0  0  0  0  0  0  0  0  0  0
  -31.0490  -13.8490   18.3390 H   0  0  0  0  0  0  0  0  0  0  0  0
  -32.1740  -13.6160   19.5770 H   0  0  0  0  0  0  0  0  0  0  0  0
  1 59  1  0
  1  3  2  0
  2  1  1  0
  4  2  1  0
  5  2  1  0
  6  5  1  0
  7  6  1  0
  7  9  1  0
  8  6  2  0
 10  7  1  0
 11 10  1  0
 12 11  1  0
 13 12  1  0
 14 13  1  0
 15 14  1  0
 16 15  1  0
 17 16  1  0
 18 17  1  0
 20 18  1  0
 21 31  1  0
 21 29  1  0
 22 27  2  0
 22 24  1  0
 23 24  1  0
 24 25  2  0
 25 20  1  0
 26 20  2  0
 27 26  1  0
 28 21  1  0
 28 22  1  0
 29 23  1  0
 29 19  1  0
 30 19  2  0
 31 33  2  0
 32 31  1  0
 34 32  1  0
 35 39  1  0
 35 40  1  0
 36 32  1  0
 36 37  1  0
 38 37  1  0
 39 38  1  0
 40 36  1  0
 41 40  2  0
 42 41  1  0
 43 44  1  0
 43 42  2  0
 44 35  2  0
 45 19  1  0
 45 46  1  0
 46 47  1  6
 46 48  1  0
 46 49  1  0
 50 53  1  0
 50 45  1  0
 51 50  1  0
 52 51  2  0
 55 54  1  0
 55 57  1  0
 55 51  1  0
 57 56  1  0
 58 57  1  0
 60 62  2  0
 61 59  1  0
 61 60  1  0
 63 61  1  0
 64 60  1  0
 65 66  1  0
 65 67  2  0
 66 64  1  0
 68 66  1  0
 69 65  1  0
 70 69  1  0
 70 71  1  0
 72 71  1  0
 72 73  1  0
 73 82  1  0
 74 80  1  0
 74 81  2  0
 76 75  1  0
 77 78  1  0
 77 76  2  0
 78 87  1  0
 78 79  1  0
 79 80  1  0
 80 75  1  0
 82 83  1  0
 82 74  1  0
 84 87  1  0
 85 84  2  0
 85 86  1  0
 86 89  1  0
 86 88  2  0
 87 88  1  0
 89 90  1  0
 90 91  2  0
 92 91  1  0
 93 92  2  0
 94 93  1  0
 94 89  2  0
 95 92  1  0
 95 96  1  0
 96 97  2  0
 96101  1  0
 97 98  1  0
 98 99  2  0
 99103  1  0
100 99  1  0
101100  2  0
102101  1  0
104105  1  0
104 85  1  0
105107  1  0
106104  2  0
108105  1  0
109111  1  0
109 84  1  0
110109  1  0
M  ISO  4  17 101  18 101  74 100  82 100
M  END
>  <TORSDO>  (33) 
F 35

>  <SCORE>  (33) 
4.344

>  <name>  (33) 
38

>  <ligand_id>  (33) 
38

>  <original_smiles>  (33) 
[H]c1c([H])c([H])c2c(c1[H])C([H])([H])C([H])([H])C([H])([H])C2([H])N([H])C(=O)C1([H])N(C(=O)C([H])(N([H])C(=O)C([H])(N([H])C([H])([H])[H])C([H])([H])[H])C(C([H])([H])[H])(C([H])([H])[H])C([H])([H])[H])C([H])([H])c2c([H])c(OC([H])([H])C([H])([H])C([H])([H])C([H])([H])C([H])([H])C([H])([H])C([H])([H])C([H])([H])N([H])C(=O)C([H])([H])N([H])C(=O)C([H])([H])N([H])C(=O)C([H])([H])N([H])C(=O)C([H])([H])OC([H])([H])C([H])([H])C([H])([H])N([H])C(=O)N3C([H])([H])C([H])([H])C([H])([H])C([H])(n4nc(-c5c([H])c([H])c(Oc6c([H])c([H])c(F)c([H])c6F)c([H])c5[H])c(C(=O)N([H])[H])c4N([H])[H])C3([H])[H])c([H])c([H])c2C1([H])[H]

>  <smiles>  (33) 
[H]c1c([H])c([H])c2c(c1[H])C([H])([H])C([H])([H])C([H])([H])C2([H])N([H])C(=O)C1([H])N(C(=O)C([H])(N([H])C(=O)C([H])(N([H])C([H])([H])[H])C([H])([H])[H])C(C([H])([H])[H])(C([H])([H])[H])C([H])([H])[H])C([H])([H])c2c([H])c(OC([H])([H])C([H])([H])C([H])([H])C([H])([H])C([H])([H])C([H])([H])C([H])([H])C([H])([H])N([H])C(=O)C([H])([H])N([H])C(=O)C([H])([H])N([H])C(=O)C([H])([H])N([H])C(=O)C([H])([H])OC([H])([H])C([H])([H])C([H])([H])N([H])C(=O)N3C([H])([H])C([H])([H])C([H])([H])C([H])(n4nc(-c5c([H])c([H])c(Oc6c([H])c([H])c(F)c([H])c6F)c([H])c5[H])c(C(=O)N([H])[H])c4N([H])[H])C3([H])[H])c([H])c([H])c2C1([H])[H]

$$$$
39:0:0
     RDKit          3D

105112  0  0  1  0  0  0  0  0999 V2000
  -24.5790  -24.9450   26.0830 C   0  0  0  0  0  2  0  0  0  0  0  0
  -25.6010  -25.8300   26.8050 C   0  0  0  0  0  0  0  0  0  0  0  0
  -25.5960  -27.1190   26.4550 N   0  0  0  0  0  0  0  0  0  0  0  0
  -26.3980  -25.3550   27.6150 O   0  0  0  0  0  0  0  0  0  0  0  0
  -24.9340  -27.3510   25.7240 H   0  0  0  0  0  0  0  0  0  0  0  0
  -26.6790  -28.0710   26.6680 C   0  0  0  0  0  2  0  0  0  0  0  0
  -27.4500  -28.1980   25.3500 C   0  0  0  0  0  0  0  0  0  0  0  0
  -28.7730  -28.3710   25.4140 N   0  0  0  0  0  0  0  0  0  0  0  0
  -26.8460  -28.1170   24.2770 O   0  0  0  0  0  0  0  0  0  0  0  0
  -29.2010  -28.4310   26.3280 H   0  0  0  0  0  0  0  0  0  0  0  0
  -29.6560  -28.4330   24.2490 C   0  0  0  0  0  2  0  0  0  0  0  0
  -30.6030  -29.6400   24.3090 C   0  0  0  0  0  2  0  0  0  0  0  0
  -29.9240  -30.8160   23.8610 O   0  0  0  0  0  0  0  0  0  0  0  0
  -32.4040  -35.2990   28.8140 C   0  0  0  0  0  0  0  0  0  0  0  0
  -29.6760  -31.7880   24.7990 C   0  0  0  0  0  0  0  0  0  0  0  0
  -29.9440  -35.0350   28.7270 C   0  0  0  0  0  3  0  0  0  0  0  0
  -29.0420  -33.7760   26.6980 C   0  0  0  0  0  0  0  0  0  0  0  0
  -31.3690  -34.7000   26.6340 C   0  0  0  0  0  2  0  0  0  0  0  0
  -30.3360  -33.6990   26.1670 C   0  0  0  0  0  0  0  0  0  0  0  0
  -30.6590  -32.7090   25.2190 C   0  0  0  0  0  3  0  0  0  0  0  0
  -28.3740  -31.8810   25.3280 C   0  0  0  0  0  3  0  0  0  0  0  0
  -28.0550  -32.8630   26.2850 C   0  0  0  0  0  3  0  0  0  0  0  0
  -28.7840  -34.8760   27.7050 C   0  0  0  0  0  2  0  0  0  0  0  0
  -31.2950  -34.9950   28.0810 N   0  0  0  0  0  0  0  0  0  0  0  0
  -32.3120  -35.6490   29.9980 O   0  0  0  0  0  0  0  0  0  0  0  0
  -29.7630  -33.9660   29.8280 C   0  0  0  0  0  0  0  0  0  0  0  0
  -28.6930  -34.1090   30.6260 N   0  0  0  0  0  0  0  0  0  0  0  0
  -30.5520  -33.0230   29.9280 O   0  0  0  0  0  0  0  0  0  0  0  0
  -28.1020  -34.9170   30.4860 H   0  0  0  0  0  0  0  0  0  0  0  0
  -26.0200  -33.3180   32.9200 C   0  0  0  0  0  0  0  0  0  0  0  0
  -28.2990  -33.2050   31.7040 C   0  0  0  0  0  3  0  0  0  0  0  0
  -27.8180  -31.8450   31.1450 C   0  0  0  0  0  2  0  0  0  0  0  0
  -26.3030  -31.7850   30.9250 C   0  0  0  0  0  2  0  0  0  0  0  0
  -25.5580  -32.0400   32.2390 C   0  0  0  0  0  2  0  0  0  0  0  0
  -27.3000  -33.8720   32.6570 C   0  0  0  0  0  0  0  0  0  0  0  0
  -27.6670  -35.0810   33.2870 C   0  0  0  0  0  3  0  0  0  0  0  0
  -26.7820  -35.7320   34.1670 C   0  0  0  0  0  3  0  0  0  0  0  0
  -25.5230  -35.1690   34.4390 C   0  0  0  0  0  3  0  0  0  0  0  0
  -25.1470  -33.9640   33.8190 C   0  0  0  0  0  3  0  0  0  0  0  0
  -33.8370  -35.2400   28.1940 C   0  0  0  0  0  3  0  0  0  0  0  0
  -34.4880  -33.8040   28.2650 C   0  0  1  0  0  0  0  0  0  0  0  0
  -34.4140  -33.1550   29.6660 C   0  0  0  0  0  1  0  0  0  0  0  0
  -33.8030  -32.8440   27.2630 C   0  0  0  0  0  1  0  0  0  0  0  0
  -35.9800  -33.8820   27.8600 C   0  0  0  0  0  1  0  0  0  0  0  0
  -34.6650  -36.2230   28.9040 N   0  0  0  0  0  0  0  0  0  0  0  0
  -34.9520  -37.4480   28.4440 C   0  0  0  0  0  0  0  0  0  0  0  0
  -34.6010  -37.8460   27.3300 O   0  0  0  0  0  0  0  0  0  0  0  0
  -34.9370  -35.9860   29.8460 H   0  0  0  0  0  0  0  0  0  0  0  0
  -34.7960  -39.3500   30.0840 C   0  0  0  0  0  1  0  0  0  0  0  0
  -35.7560  -38.3830   29.3690 C   0  0  0  0  0  3  0  0  0  0  0  0
  -37.9100  -38.3260   28.1980 C   0  0  0  0  0  1  0  0  0  0  0  0
  -36.8010  -39.1540   28.6640 N   0  0  0  0  0  0  0  0  0  0  0  0
  -37.1770  -39.8840   29.2620 H   0  0  0  0  0  0  0  0  0  0  0  0
  -23.9120  -25.7490   25.1090 O   0  0  0  0  0  0  0  0  0  0  0  0
  -23.7280  -25.1590   23.8320 C   0  0  0  0  0  2  0  0  0  0  0  0
  -24.0890  -26.1350   22.6980 C   0  0  0  0  0  2  0  0  0  0  0  0
  -23.1290  -26.0260   21.5080 C   0  0  0  0  0  2  0  0  0  0  0  0
  -23.5580  -26.9030   20.4740 O   0  0  0  0  0  0  0  0  0  0  0  0
  -22.9610  -26.6250   19.2120 C   0  0  0  0  0  2  0  0  0  0  0  0
  -21.5450  -27.2150   19.1230 C   0  0  0  0  0  2  0  0  0  0  0  0
  -20.7350  -26.6110   17.9620 C   0  0  0  0  0  2  0  0  0  0  0  0
  -19.4500  -27.3930   17.6260 C   0  0  0  0  0  2  0  0  0  0  0  0
  -17.9310  -26.6950   19.4700 C   0  0  0  0  0  0  0  0  0  0  0  0
  -18.6160  -27.6270   18.8010 N   0  0  0  0  0  0  0  0  0  0  0  0
  -17.9350  -25.5040   19.1490 O   0  0  0  0  0  0  0  0  0  0  0  0
  -18.5450  -28.5820   19.1310 H   0  0  0  0  0  0  0  0  0  0  0  0
  -17.1350  -27.1800   20.6850 C   0  0  0  0  0  2  0  0  0  0  0  0
  -15.6650  -25.1770   20.4970 C   0  0  0  0  0  0  0  0  0  0  0  0
  -14.2700  -23.1440   20.6210 C   0  0  0  0  0  2  0  0  0  0  0  0
  -12.7930  -23.5020   20.8720 C   0  0  0  0  0  2  0  0  0  0  0  0
  -12.5140  -23.6660   22.3790 C   0  0  0  0  0  2  0  0  0  0  0  0
  -13.5460  -24.5910   23.0770 C   0  0  0  0  0  3  0  0  0  0  0  0
  -14.9840  -24.1720   22.7070 C   0  0  0  0  0  2  0  0  0  0  0  0
  -15.1020  -24.1870   21.2360 N   0  0  0  0  0  0  0  0  0  0  0  0
  -15.6110  -25.2250   19.2640 O   0  0  0  0  0  0  0  0  0  0  0  0
  -16.2890  -26.1150   21.2130 N   0  0  0  0  0  0  0  0  0  0  0  0
  -16.3090  -25.9790   22.2110 H   0  0  0  0  0  0  0  0  0  0  0  0
  -13.5700  -25.6430   25.4290 C   0  0  0  0  0  0  0  0  0  0  0  0
  -13.1590  -25.1670   26.6460 C   0  0  0  0  0  0  0  0  0  0  0  0
  -12.6870  -23.8400   26.4120 C   0  0  0  0  0  0  0  0  0  0  0  0
  -13.3460  -24.6150   24.5250 N   0  0  0  0  0  0  0  0  0  0  0  0
  -12.8590  -23.5070   25.1400 N   0  0  0  0  0  0  0  0  0  0  0  0
  -12.0290  -22.8870   27.3140 C   0  0  0  0  0  0  0  0  0  0  0  0
  -12.6940  -21.7300   27.7780 C   0  0  0  0  0  3  0  0  0  0  0  0
  -12.0460  -20.8370   28.6590 C   0  0  0  0  0  3  0  0  0  0  0  0
  -10.7220  -21.0970   29.0850 C   0  0  0  0  0  0  0  0  0  0  0  0
  -10.0570  -22.2380   28.6030 C   0  0  0  0  0  3  0  0  0  0  0  0
  -10.7010  -23.1230   27.7230 C   0  0  0  0  0  3  0  0  0  0  0  0
  -10.0050  -20.2730   29.9190 O   0  0  0  0  0  0  0  0  0  0  0  0
  -10.5460  -19.7690   31.0740 C   0  0  0  0  0  0  0  0  0  0  0  0
  -11.0280  -20.6110   32.1000 C   0  0  0  0  0  3  0  0  0  0  0  0
  -11.5110  -20.0520   33.3000 C   0  0  0  0  0  3  0  0  0  0  0  0
  -11.5080  -18.6560   33.4790 C   0  0  0  0  0  0  0  0  0  0  0  0
  -11.0240  -17.8160   32.4610 C   0  0  0  0  0  3  0  0  0  0  0  0
  -10.5430  -18.3720   31.2620 C   0  0  0  0  0  0  0  0  0  0  0  0
  -10.0570  -17.5600   30.2920 F   0  0  0  0  0  0  0  0  0  0  0  0
  -11.9650  -18.1190   34.6340 F   0  0  0  0  0  0  0  0  0  0  0  0
  -13.1190  -25.9330   27.9370 C   0  0  0  0  0  0  0  0  0  0  0  0
  -13.4330  -25.2750   29.0490 N   0  0  0  0  0  0  0  0  0  0  0  0
  -12.8500  -27.1330   27.9630 O   0  0  0  0  0  0  0  0  0  0  0  0
  -13.6720  -24.2950   29.0260 H   0  0  0  0  0  0  0  0  0  0  0  0
  -13.4370  -25.7600   29.9350 H   0  0  0  0  0  0  0  0  0  0  0  0
  -14.0950  -26.8620   25.0120 N   0  0  0  0  0  0  0  0  0  0  0  0
  -14.2180  -27.6470   25.6420 H   0  0  0  0  0  0  0  0  0  0  0  0
  -14.3230  -27.0870   24.0510 H   0  0  0  0  0  0  0  0  0  0  0  0
  1  2  1  0
  2  4  2  0
  3  6  1  0
  3  2  1  0
  5  3  1  0
  7  8  1  0
  7  6  1  0
  8 10  1  0
  9  7  2  0
 11 12  1  0
 11  8  1  0
 13 12  1  0
 13 15  1  0
 14 25  2  0
 15 20  2  0
 15 21  1  0
 16 26  1  0
 17 23  1  0
 18 24  1  0
 19 18  1  0
 19 17  2  0
 20 19  1  0
 21 22  2  0
 22 17  1  0
 23 16  1  0
 24 16  1  0
 24 14  1  0
 26 28  2  0
 26 27  1  0
 29 27  1  0
 30 39  1  0
 31 27  1  0
 31 35  1  0
 32 31  1  0
 33 32  1  0
 33 34  1  0
 34 30  1  0
 35 30  2  0
 35 36  1  0
 36 37  2  0
 37 38  1  0
 39 38  2  0
 40 41  1  0
 40 14  1  0
 40 45  1  0
 41 42  1  1
 43 41  1  0
 44 41  1  0
 45 48  1  0
 46 45  1  0
 46 50  1  0
 47 46  2  0
 50 49  1  0
 51 52  1  0
 52 53  1  0
 52 50  1  0
 54  1  1  0
 55 54  1  0
 56 55  1  0
 57 56  1  0
 58 57  1  0
 59 58  1  0
 60 59  1  0
 61 60  1  0
 62 61  1  0
 62 64  1  0
 63 67  1  0
 64 66  1  0
 64 63  1  0
 65 63  2  0
 67 76  1  0
 68 76  1  0
 68 74  1  0
 69 70  1  0
 69 74  1  0
 70 71  1  0
 72 71  1  0
 72 81  1  0
 73 72  1  0
 74 73  1  0
 75 68  2  0
 76 77  1  0
 78 79  2  0
 79 98  1  0
 80 79  1  0
 80 83  1  0
 81 82  1  0
 81 78  1  0
 82 80  2  0
 83 88  2  0
 83 84  1  0
 84 85  2  0
 85 86  1  0
 86 89  1  0
 87 86  2  0
 88 87  1  0
 89 90  1  0
 90 95  2  0
 90 91  1  0
 91 92  2  0
 92 93  1  0
 93 97  1  0
 94 93  2  0
 95 94  1  0
 96 95  1  0
 98100  2  0
 98 99  1  0
 99102  1  0
101 99  1  0
103 78  1  0
103104  1  0
105103  1  0
M  ISO  4  12 101  13 101  68 100  76 100
M  END
>  <TORSDO>  (34) 
F 32

>  <SCORE>  (34) 
-2.440

>  <name>  (34) 
39

>  <ligand_id>  (34) 
39

>  <original_smiles>  (34) 
[H]c1c([H])c([H])c2c(c1[H])C([H])([H])C([H])([H])C([H])([H])C2([H])N([H])C(=O)C1([H])N(C(=O)C([H])(N([H])C(=O)C([H])(N([H])C([H])([H])[H])C([H])([H])[H])C(C([H])([H])[H])(C([H])([H])[H])C([H])([H])[H])C([H])([H])c2c([H])c(OC([H])([H])C([H])([H])N([H])C(=O)C([H])([H])N([H])C(=O)C([H])([H])OC([H])([H])C([H])([H])C([H])([H])OC([H])([H])C([H])([H])C([H])([H])C([H])([H])N([H])C(=O)C([H])([H])N([H])C(=O)N3C([H])([H])C([H])([H])C([H])([H])C([H])(n4nc(-c5c([H])c([H])c(Oc6c([H])c([H])c(F)c([H])c6F)c([H])c5[H])c(C(=O)N([H])[H])c4N([H])[H])C3([H])[H])c([H])c([H])c2C1([H])[H]

>  <smiles>  (34) 
[H]c1c([H])c([H])c2c(c1[H])C([H])([H])C([H])([H])C([H])([H])C2([H])N([H])C(=O)C1([H])N(C(=O)C([H])(N([H])C(=O)C([H])(N([H])C([H])([H])[H])C([H])([H])[H])C(C([H])([H])[H])(C([H])([H])[H])C([H])([H])[H])C([H])([H])c2c([H])c(OC([H])([H])C([H])([H])N([H])C(=O)C([H])([H])N([H])C(=O)C([H])([H])OC([H])([H])C([H])([H])C([H])([H])OC([H])([H])C([H])([H])C([H])([H])C([H])([H])N([H])C(=O)C([H])([H])N([H])C(=O)N3C([H])([H])C([H])([H])C([H])([H])C([H])(n4nc(-c5c([H])c([H])c(Oc6c([H])c([H])c(F)c([H])c6F)c([H])c5[H])c(C(=O)N([H])[H])c4N([H])[H])C3([H])[H])c([H])c([H])c2C1([H])[H]

$$$$
40:0:0
     RDKit          3D

126133  0  0  1  0  0  0  0  0999 V2000
  -23.1660  -21.3190   17.0410 C   0  0  0  0  0  2  0  0  0  0  0  0
  -23.4760  -21.6630   18.5090 C   0  0  0  0  0  2  0  0  0  0  0  0
  -23.9540  -20.4460   19.3120 C   0  0  0  0  0  2  0  0  0  0  0  0
  -25.1380  -19.9180   18.7290 O   0  0  0  0  0  0  0  0  0  0  0  0
  -25.4770  -18.6400   19.2630 C   0  0  0  0  0  2  0  0  0  0  0  0
  -26.8650  -18.2000   18.7720 C   0  0  0  0  0  0  0  0  0  0  0  0
  -27.3790  -17.1070   19.3540 N   0  0  0  0  0  0  0  0  0  0  0  0
  -27.4650  -18.8330   17.8990 O   0  0  0  0  0  0  0  0  0  0  0  0
  -26.8120  -16.6430   20.0500 H   0  0  0  0  0  0  0  0  0  0  0  0
  -28.6930  -16.5300   19.0750 C   0  0  0  0  0  2  0  0  0  0  0  0
  -29.8040  -17.2130   19.8900 C   0  0  0  0  0  2  0  0  0  0  0  0
  -29.6490  -17.0730   21.4120 C   0  0  0  0  0  2  0  0  0  0  0  0
  -30.6150  -17.9960   22.1670 C   0  0  0  0  0  2  0  0  0  0  0  0
  -30.4180  -17.9370   23.6890 C   0  0  0  0  0  2  0  0  0  0  0  0
  -31.2410  -18.9910   24.4520 C   0  0  0  0  0  2  0  0  0  0  0  0
  -30.4160  -20.1990   24.9370 C   0  0  0  0  0  2  0  0  0  0  0  0
  -29.9510  -21.1650   23.8340 C   0  0  0  0  0  2  0  0  0  0  0  0
  -31.0790  -22.0320   23.2550 C   0  0  0  0  0  2  0  0  0  0  0  0
  -30.5880  -22.9090   22.0980 C   0  0  0  0  0  2  0  0  0  0  0  0
  -31.6780  -23.8480   21.5560 C   0  0  0  0  0  2  0  0  0  0  0  0
  -31.1350  -24.7660   20.4560 C   0  0  0  0  0  2  0  0  0  0  0  0
  -32.1470  -25.8260   19.9630 C   0  0  0  0  0  2  0  0  0  0  0  0
  -31.6230  -26.5820   18.8650 O   0  0  0  0  0  0  0  0  0  0  0  0
  -27.2870  -29.1310   23.8580 C   0  0  0  0  0  0  0  0  0  0  0  0
  -30.4020  -27.1410   19.1420 C   0  0  0  0  0  0  0  0  0  0  0  0
  -26.2260  -28.5360   21.7040 C   0  0  0  0  0  3  0  0  0  0  0  0
  -27.8240  -28.0860   19.7680 C   0  0  0  0  0  0  0  0  0  0  0  0
  -28.6640  -29.2940   21.7920 C   0  0  0  0  0  2  0  0  0  0  0  0
  -28.9130  -28.4190   20.5850 C   0  0  0  0  0  0  0  0  0  0  0  0
  -30.2060  -27.9500   20.2800 C   0  0  0  0  0  3  0  0  0  0  0  0
  -29.3070  -26.8290   18.3110 C   0  0  0  0  0  3  0  0  0  0  0  0
  -28.0160  -27.2890   18.6260 C   0  0  0  0  0  3  0  0  0  0  0  0
  -26.4740  -28.6310   20.1730 C   0  0  0  0  0  2  0  0  0  0  0  0
  -27.4100  -28.9730   22.5110 N   0  0  0  0  0  0  0  0  0  0  0  0
  -26.1980  -28.9660   24.4250 O   0  0  0  0  0  0  0  0  0  0  0  0
  -25.7520  -27.1030   22.0380 C   0  0  0  0  0  0  0  0  0  0  0  0
  -24.4880  -26.7980   21.7020 N   0  0  0  0  0  0  0  0  0  0  0  0
  -26.5180  -26.2880   22.5590 O   0  0  0  0  0  0  0  0  0  0  0  0
  -23.9160  -27.5200   21.2890 H   0  0  0  0  0  0  0  0  0  0  0  0
  -21.4210  -24.9820   21.1290 C   0  0  0  0  0  0  0  0  0  0  0  0
  -23.8390  -25.4990   21.8850 C   0  0  0  0  0  3  0  0  0  0  0  0
  -24.2870  -24.4970   20.7960 C   0  0  0  0  0  2  0  0  0  0  0  0
  -23.3560  -24.4730   19.5790 C   0  0  0  0  0  2  0  0  0  0  0  0
  -21.9300  -24.1020   20.0010 C   0  0  0  0  0  2  0  0  0  0  0  0
  -22.3170  -25.6510   22.0050 C   0  0  0  0  0  0  0  0  0  0  0  0
  -21.7920  -26.4880   23.0130 C   0  0  0  0  0  3  0  0  0  0  0  0
  -20.4020  -26.6560   23.1590 C   0  0  0  0  0  3  0  0  0  0  0  0
  -19.5180  -25.9750   22.3020 C   0  0  0  0  0  3  0  0  0  0  0  0
  -20.0290  -25.1410   21.2930 C   0  0  0  0  0  3  0  0  0  0  0  0
  -28.4990  -29.5510   24.7480 C   0  0  0  0  0  3  0  0  0  0  0  0
  -29.1600  -28.3380   25.5100 C   0  0  1  0  0  0  0  0  0  0  0  0
  -28.1470  -27.4670   26.2880 C   0  0  0  0  0  1  0  0  0  0  0  0
  -29.9130  -27.4200   24.5180 C   0  0  0  0  0  1  0  0  0  0  0  0
  -30.2150  -28.8620   26.5130 C   0  0  0  0  0  1  0  0  0  0  0  0
  -28.0180  -30.5640   25.6970 N   0  0  0  0  0  0  0  0  0  0  0  0
  -28.2080  -31.8830   25.5580 C   0  0  0  0  0  0  0  0  0  0  0  0
  -28.8790  -32.3720   24.6450 O   0  0  0  0  0  0  0  0  0  0  0  0
  -27.4080  -30.2420   26.4340 H   0  0  0  0  0  0  0  0  0  0  0  0
  -26.2590  -33.4050   26.0180 C   0  0  0  0  0  1  0  0  0  0  0  0
  -27.5500  -32.8070   26.6010 C   0  0  0  0  0  3  0  0  0  0  0  0
  -29.5690  -33.4170   27.8590 C   0  0  0  0  0  1  0  0  0  0  0  0
  -28.4360  -33.8930   27.0650 N   0  0  0  0  0  0  0  0  0  0  0  0
  -27.9180  -34.5650   27.6250 H   0  0  0  0  0  0  0  0  0  0  0  0
  -22.6730  -22.5200   16.2110 C   0  0  0  0  0  2  0  0  0  0  0  0
  -24.7030  -23.7520   15.4630 C   0  0  0  0  0  0  0  0  0  0  0  0
  -23.6110  -23.6380   16.2270 N   0  0  0  0  0  0  0  0  0  0  0  0
  -25.0420  -22.8900   14.6480 O   0  0  0  0  0  0  0  0  0  0  0  0
  -23.4050  -24.3980   16.8620 H   0  0  0  0  0  0  0  0  0  0  0  0
  -25.5270  -25.0380   15.6210 C   0  0  0  0  0  2  0  0  0  0  0  0
  -27.7280  -24.2630   16.4550 C   0  0  0  0  0  0  0  0  0  0  0  0
  -26.9670  -24.8030   15.4970 N   0  0  0  0  0  0  0  0  0  0  0  0
  -27.2550  -23.8990   17.5350 O   0  0  0  0  0  0  0  0  0  0  0  0
  -27.3990  -25.0510   14.6180 H   0  0  0  0  0  0  0  0  0  0  0  0
  -29.2320  -24.1290   16.1690 C   0  0  0  0  0  2  0  0  0  0  0  0
  -29.9950  -22.4560   17.8330 C   0  0  0  0  0  0  0  0  0  0  0  0
  -29.9570  -23.7070   17.3670 N   0  0  0  0  0  0  0  0  0  0  0  0
  -29.6110  -21.4890   17.1690 O   0  0  0  0  0  0  0  0  0  0  0  0
  -30.2780  -24.4490   17.9710 H   0  0  0  0  0  0  0  0  0  0  0  0
  -30.5010  -22.2740   19.2680 C   0  0  0  0  0  2  0  0  0  0  0  0
  -31.7820  -20.1860   19.6760 C   0  0  0  0  0  0  0  0  0  0  0  0
  -30.6360  -20.8620   19.5940 N   0  0  0  0  0  0  0  0  0  0  0  0
  -32.8890  -20.7300   19.6530 O   0  0  0  0  0  0  0  0  0  0  0  0
  -29.7770  -20.3270   19.5790 H   0  0  0  0  0  0  0  0  0  0  0  0
  -31.6440  -18.6670   19.7640 C   0  0  0  0  0  2  0  0  0  0  0  0
  -32.6540  -18.1150   20.6060 O   0  0  0  0  0  0  0  0  0  0  0  0
  -32.4690  -16.7200   20.8050 C   0  0  0  0  0  2  0  0  0  0  0  0
  -33.1540  -15.9260   19.6780 C   0  0  0  0  0  2  0  0  0  0  0  0
  -32.9700  -14.4060   19.7980 C   0  0  0  0  0  2  0  0  0  0  0  0
  -31.1010  -13.6610   18.3400 C   0  0  0  0  0  0  0  0  0  0  0  0
  -30.0450  -11.6530   17.4120 C   0  0  0  0  0  2  0  0  0  0  0  0
  -28.7940  -11.8810   16.5540 C   0  0  0  0  0  2  0  0  0  0  0  0
  -27.5410  -11.9370   17.4400 C   0  0  0  0  0  2  0  0  0  0  0  0
  -27.6960  -12.9360   18.6140 C   0  0  0  0  0  3  0  0  0  0  0  0
  -29.0230  -12.7140   19.3760 C   0  0  0  0  0  2  0  0  0  0  0  0
  -30.1410  -12.7160   18.4160 N   0  0  0  0  0  0  0  0  0  0  0  0
  -31.6960  -13.9650   17.3010 O   0  0  0  0  0  0  0  0  0  0  0  0
  -31.5950  -13.9710   19.5460 N   0  0  0  0  0  0  0  0  0  0  0  0
  -31.0800  -13.6060   20.3340 H   0  0  0  0  0  0  0  0  0  0  0  0
  -25.8540  -13.9060   20.1280 C   0  0  0  0  0  0  0  0  0  0  0  0
  -24.8130  -13.3180   20.7950 C   0  0  0  0  0  0  0  0  0  0  0  0
  -24.9160  -11.9180   20.5300 C   0  0  0  0  0  0  0  0  0  0  0  0
  -26.5420  -12.8740   19.5100 N   0  0  0  0  0  0  0  0  0  0  0  0
  -25.9960  -11.6660   19.8010 N   0  0  0  0  0  0  0  0  0  0  0  0
  -24.0190  -10.8090   20.8820 C   0  0  0  0  0  0  0  0  0  0  0  0
  -24.4870   -9.6780   21.5880 C   0  0  0  0  0  3  0  0  0  0  0  0
  -23.6020   -8.6330   21.9300 C   0  0  0  0  0  3  0  0  0  0  0  0
  -22.2350   -8.7130   21.5730 C   0  0  0  0  0  0  0  0  0  0  0  0
  -21.7800   -9.8310   20.8510 C   0  0  0  0  0  3  0  0  0  0  0  0
  -22.6630  -10.8680   20.5070 C   0  0  0  0  0  3  0  0  0  0  0  0
  -21.3090   -7.7350   21.8390 O   0  0  0  0  0  0  0  0  0  0  0  0
  -21.4350   -6.9010   22.9220 C   0  0  0  0  0  0  0  0  0  0  0  0
  -21.5340   -7.4000   24.2400 C   0  0  0  0  0  3  0  0  0  0  0  0
  -21.5920   -6.5060   25.3280 C   0  0  0  0  0  3  0  0  0  0  0  0
  -21.5420   -5.1170   25.1030 C   0  0  0  0  0  0  0  0  0  0  0  0
  -21.4390   -4.6200   23.7920 C   0  0  0  0  0  3  0  0  0  0  0  0
  -21.3830   -5.5100   22.7050 C   0  0  0  0  0  0  0  0  0  0  0  0
  -21.2610   -5.0260   21.4450 F   0  0  0  0  0  0  0  0  0  0  0  0
  -21.5910   -4.2580   26.1470 F   0  0  0  0  0  0  0  0  0  0  0  0
  -23.7250  -14.0220   21.5520 C   0  0  0  0  0  0  0  0  0  0  0  0
  -23.1830  -13.3800   22.5840 N   0  0  0  0  0  0  0  0  0  0  0  0
  -23.3830  -15.1680   21.2670 O   0  0  0  0  0  0  0  0  0  0  0  0
  -23.4780  -12.4470   22.8300 H   0  0  0  0  0  0  0  0  0  0  0  0
  -22.4640  -13.8280   23.1330 H   0  0  0  0  0  0  0  0  0  0  0  0
  -26.2640  -15.2270   19.9790 N   0  0  0  0  0  0  0  0  0  0  0  0
  -25.7480  -16.0000   20.3800 H   0  0  0  0  0  0  0  0  0  0  0  0
  -27.0410  -15.5210   19.4020 H   0  0  0  0  0  0  0  0  0  0  0  0
  1  2  1  0
  2  3  1  0
  4  5  1  0
  4  3  1  0
  6  5  1  0
  6  7  1  0
  7  9  1  0
  8  6  2  0
 10  7  1  0
 10 11  1  0
 11 12  1  0
 12 13  1  0
 13 14  1  0
 14 15  1  0
 15 16  1  0
 17 16  1  0
 18 17  1  0
 19 18  1  0
 20 19  1  0
 21 20  1  0
 22 21  1  0
 23 25  1  0
 23 22  1  0
 24 35  2  0
 25 30  1  0
 26 36  1  0
 26 34  1  0
 27 33  1  0
 27 29  1  0
 28 34  1  0
 29 28  1  0
 30 29  2  0
 31 32  1  0
 31 25  2  0
 32 27  2  0
 33 26  1  0
 34 24  1  0
 36 38  2  0
 37 36  1  0
 39 37  1  0
 40 49  2  0
 40 45  1  0
 41 37  1  0
 41 45  1  0
 42 41  1  0
 43 44  1  0
 43 42  1  0
 44 40  1  0
 45 46  2  0
 46 47  1  0
 48 47  2  0
 49 48  1  0
 50 24  1  0
 50 51  1  0
 50 55  1  0
 51 52  1  1
 51 54  1  0
 53 51  1  0
 55 58  1  0
 56 55  1  0
 56 60  1  0
 57 56  2  0
 60 59  1  0
 60 62  1  0
 62 63  1  0
 62 61  1  0
 64 66  1  0
 64  1  1  0
 65 69  1  0
 65 66  1  0
 66 68  1  0
 67 65  2  0
 70 72  2  0
 71 69  1  0
 71 70  1  0
 73 71  1  0
 74 70  1  0
 74 76  1  0
 75 79  1  0
 76 75  1  0
 76 78  1  0
 77 75  2  0
 79 81  1  0
 80 84  1  0
 81 80  1  0
 82 80  2  0
 83 81  1  0
 84 85  1  0
 85 86  1  0
 87 88  1  0
 87 86  1  0
 89 95  1  0
 89 97  1  0
 90 95  1  0
 91 90  1  0
 91 92  1  0
 93 92  1  0
 93 94  1  0
 93102  1  0
 95 94  1  0
 96 89  2  0
 97 88  1  0
 97 98  1  0
 99100  2  0
100119  1  0
101100  1  0
101104  1  0
102103  1  0
102 99  1  0
103101  2  0
104105  1  0
105106  2  0
107110  1  0
107106  1  0
108107  2  0
109108  1  0
109104  2  0
110111  1  0
111112  1  0
112113  2  0
114113  1  0
114118  1  0
115114  2  0
116111  2  0
116115  1  0
117116  1  0
119120  1  0
120122  1  0
120123  1  0
121119  2  0
124 99  1  0
124125  1  0
126124  1  0
M  ISO  4  22 101  23 101  89 100  97 100
M  END
>  <TORSDO>  (35) 
F 47

>  <SCORE>  (35) 
3.305

>  <name>  (35) 
40

>  <ligand_id>  (35) 
40

>  <original_smiles>  (35) 
[H]c1c([H])c([H])c2c(c1[H])C([H])([H])C([H])([H])C([H])([H])C2([H])N([H])C(=O)C1([H])N(C(=O)C([H])(N([H])C(=O)C([H])(N([H])C([H])([H])[H])C([H])([H])[H])C(C([H])([H])[H])(C([H])([H])[H])C([H])([H])[H])C([H])([H])c2c([H])c(OC([H])([H])C([H])([H])C([H])([H])C([H])([H])C([H])([H])C([H])([H])C([H])([H])C([H])([H])C([H])([H])C([H])([H])C([H])([H])C([H])([H])C([H])([H])N([H])C(=O)C([H])([H])OC([H])([H])C([H])([H])C([H])([H])C([H])([H])N([H])C(=O)C([H])([H])N([H])C(=O)C([H])([H])N([H])C(=O)C([H])([H])N([H])C(=O)C([H])([H])OC([H])([H])C([H])([H])C([H])([H])N([H])C(=O)N3C([H])([H])C([H])([H])C([H])([H])C([H])(n4nc(-c5c([H])c([H])c(Oc6c([H])c([H])c(F)c([H])c6F)c([H])c5[H])c(C(=O)N([H])[H])c4N([H])[H])C3([H])[H])c([H])c([H])c2C1([H])[H]

>  <smiles>  (35) 
[H]c1c([H])c([H])c2c(c1[H])C([H])([H])C([H])([H])C([H])([H])C2([H])N([H])C(=O)C1([H])N(C(=O)C([H])(N([H])C(=O)C([H])(N([H])C([H])([H])[H])C([H])([H])[H])C(C([H])([H])[H])(C([H])([H])[H])C([H])([H])[H])C([H])([H])c2c([H])c(OC([H])([H])C([H])([H])C([H])([H])C([H])([H])C([H])([H])C([H])([H])C([H])([H])C([H])([H])C([H])([H])C([H])([H])C([H])([H])C([H])([H])C([H])([H])N([H])C(=O)C([H])([H])OC([H])([H])C([H])([H])C([H])([H])C([H])([H])N([H])C(=O)C([H])([H])N([H])C(=O)C([H])([H])N([H])C(=O)C([H])([H])N([H])C(=O)C([H])([H])OC([H])([H])C([H])([H])C([H])([H])N([H])C(=O)N3C([H])([H])C([H])([H])C([H])([H])C([H])(n4nc(-c5c([H])c([H])c(Oc6c([H])c([H])c(F)c([H])c6F)c([H])c5[H])c(C(=O)N([H])[H])c4N([H])[H])C3([H])[H])c([H])c([H])c2C1([H])[H]

$$$$
41:0:0
     RDKit          3D

124131  0  0  1  0  0  0  0  0999 V2000
  -21.1770  -31.9380   13.6450 C   0  0  0  0  0  2  0  0  0  0  0  0
  -21.7640  -32.6520   12.4770 N   0  0  0  0  0  4  0  0  0  0  0  0
  -21.5490  -33.6320   12.5980 H   0  0  0  0  0  0  0  0  0  0  0  0
  -22.7700  -32.5790   12.4560 H   0  0  0  0  0  0  0  0  0  0  0  0
  -21.2110  -32.2340   11.1620 C   0  0  0  0  0  2  0  0  0  0  0  0
  -21.9340  -31.0130   10.5650 C   0  0  0  0  0  2  0  0  0  0  0  0
  -21.6710  -29.8740   11.3790 O   0  0  0  0  0  0  0  0  0  0  0  0
  -22.5140  -28.7630   11.1020 C   0  0  0  0  0  2  0  0  0  0  0  0
  -22.2500  -27.7010   12.1750 C   0  0  0  0  0  2  0  0  0  0  0  0
  -23.4040  -26.6960   12.3370 C   0  0  0  0  0  2  0  0  0  0  0  0
  -23.1230  -25.6930   13.4670 C   0  0  0  0  0  2  0  0  0  0  0  0
  -24.3210  -24.9250   13.8580 N   0  0  0  0  0  4  0  0  0  0  0  0
  -25.0820  -25.5670   13.9940 H   0  0  0  0  0  0  0  0  0  0  0  0
  -24.5760  -24.3150   13.0990 H   0  0  0  0  0  0  0  0  0  0  0  0
  -24.1360  -24.1350   15.0920 C   0  0  0  0  0  2  0  0  0  0  0  0
  -25.4300  -23.4210   15.5230 C   0  0  0  0  0  2  0  0  0  0  0  0
  -25.2100  -22.5690   16.7830 C   0  0  0  0  0  2  0  0  0  0  0  0
  -26.4390  -21.9510   17.1450 O   0  0  0  0  0  0  0  0  0  0  0  0
  -26.3080  -21.0320   18.2250 C   0  0  0  0  0  2  0  0  0  0  0  0
  -27.6980  -20.4500   18.5270 C   0  0  0  0  0  2  0  0  0  0  0  0
  -27.7040  -19.3550   19.6040 C   0  0  0  0  0  2  0  0  0  0  0  0
  -29.0500  -18.9500   19.8300 O   0  0  0  0  0  0  0  0  0  0  0  0
  -29.1530  -17.9120   20.7940 C   0  0  0  0  0  2  0  0  0  0  0  0
  -30.6310  -17.5680   21.0280 C   0  0  0  0  0  2  0  0  0  0  0  0
  -30.8460  -16.4390   22.0570 C   0  0  0  0  0  2  0  0  0  0  0  0
  -30.7610  -14.3600   20.6820 C   0  0  0  0  0  0  0  0  0  0  0  0
  -30.4180  -12.2890   19.3910 C   0  0  0  0  0  2  0  0  0  0  0  0
  -29.4840  -12.5320   18.1910 C   0  0  0  0  0  2  0  0  0  0  0  0
  -28.0080  -12.3870   18.6040 C   0  0  0  0  0  2  0  0  0  0  0  0
  -27.6660  -13.2020   19.8790 C   0  0  0  0  0  3  0  0  0  0  0  0
  -28.7030  -12.9330   20.9920 C   0  0  0  0  0  2  0  0  0  0  0  0
  -30.0470  -13.2290   20.4590 N   0  0  0  0  0  0  0  0  0  0  0  0
  -31.7960  -14.6440   20.0690 O   0  0  0  0  0  0  0  0  0  0  0  0
  -30.2710  -15.1620   21.6350 N   0  0  0  0  0  0  0  0  0  0  0  0
  -29.4400  -14.8400   22.1140 H   0  0  0  0  0  0  0  0  0  0  0  0
  -25.2580  -13.8140   20.5650 C   0  0  0  0  0  0  0  0  0  0  0  0
  -24.1850  -13.0460   20.9150 C   0  0  0  0  0  0  0  0  0  0  0  0
  -24.6380  -11.6900   20.8710 C   0  0  0  0  0  0  0  0  0  0  0  0
  -26.3050  -12.9320   20.3360 N   0  0  0  0  0  0  0  0  0  0  0  0
  -25.9310  -11.6490   20.5740 N   0  0  0  0  0  0  0  0  0  0  0  0
  -23.9050  -10.4300   21.0390 C   0  0  0  0  0  0  0  0  0  0  0  0
  -24.3610   -9.4210   21.9180 C   0  0  0  0  0  3  0  0  0  0  0  0
  -23.6290   -8.2250   22.0760 C   0  0  0  0  0  3  0  0  0  0  0  0
  -22.4270   -8.0270   21.3550 C   0  0  0  0  0  0  0  0  0  0  0  0
  -21.9900   -9.0250   20.4650 C   0  0  0  0  0  3  0  0  0  0  0  0
  -22.7220  -10.2130   20.3040 C   0  0  0  0  0  3  0  0  0  0  0  0
  -21.6640   -6.8870   21.4240 O   0  0  0  0  0  0  0  0  0  0  0  0
  -21.6850   -6.0720   22.5290 C   0  0  0  0  0  0  0  0  0  0  0  0
  -21.4020   -6.5640   23.8220 C   0  0  0  0  0  3  0  0  0  0  0  0
  -21.3650   -5.6790   24.9170 C   0  0  0  0  0  3  0  0  0  0  0  0
  -21.6050   -4.3060   24.7230 C   0  0  0  0  0  0  0  0  0  0  0  0
  -21.8820   -3.8140   23.4350 C   0  0  0  0  0  3  0  0  0  0  0  0
  -21.9190   -4.6960   22.3400 C   0  0  0  0  0  0  0  0  0  0  0  0
  -22.1660   -4.2150   21.0980 F   0  0  0  0  0  0  0  0  0  0  0  0
  -21.5630   -3.4540   25.7740 F   0  0  0  0  0  0  0  0  0  0  0  0
  -22.7850  -13.5240   21.1850 C   0  0  0  0  0  0  0  0  0  0  0  0
  -22.0510  -12.8230   22.0370 N   0  0  0  0  0  0  0  0  0  0  0  0
  -22.3550  -14.5560   20.6670 O   0  0  0  0  0  0  0  0  0  0  0  0
  -22.4130  -11.9890   22.4780 H   0  0  0  0  0  0  0  0  0  0  0  0
  -21.1120  -13.1250   22.2590 H   0  0  0  0  0  0  0  0  0  0  0  0
  -25.4330  -15.1870   20.4070 N   0  0  0  0  0  0  0  0  0  0  0  0
  -24.6680  -15.8440   20.5090 H   0  0  0  0  0  0  0  0  0  0  0  0
  -26.2910  -15.6230   20.0970 H   0  0  0  0  0  0  0  0  0  0  0  0
  -21.5890  -32.5180   15.0250 C   0  0  0  0  0  3  0  0  0  0  0  0
  -22.9730  -32.0460   15.5840 C   0  0  0  0  0  0  0  0  0  0  0  0
  -23.8430  -32.8960   15.8120 O   0  0  0  0  0  0  0  0  0  0  0  0
  -23.2510  -30.5120   15.8630 C   0  0  0  0  0  3  0  0  0  0  0  0
  -24.7300  -30.3510   16.0740 N   0  0  0  0  0  4  0  0  0  0  0  0
  -25.2020  -30.8830   15.3570 H   0  0  0  0  0  0  0  0  0  0  0  0
  -24.9920  -30.8020   16.9350 H   0  0  0  0  0  0  0  0  0  0  0  0
  -25.2260  -28.9430   16.0550 C   0  0  0  0  0  2  0  0  0  0  0  0
  -26.7680  -28.7520   16.0310 C   0  0  0  0  0  2  0  0  0  0  0  0
  -27.3130  -28.6040   17.3490 O   0  0  0  0  0  0  0  0  0  0  0  0
  -28.4680  -27.7510   17.4080 C   0  0  0  0  0  2  0  0  0  0  0  0
  -29.1300  -27.6560   18.8110 C   0  0  0  0  0  2  0  0  0  0  0  0
  -28.4010  -26.8870   19.7860 O   0  0  0  0  0  0  0  0  0  0  0  0
  -24.6040  -31.8820   23.2180 C   0  0  0  0  0  0  0  0  0  0  0  0
  -27.2110  -27.4970   20.0560 C   0  0  0  0  0  0  0  0  0  0  0  0
  -23.3900  -30.5120   21.5590 C   0  0  0  0  0  3  0  0  0  0  0  0
  -24.8250  -28.9700   20.1350 C   0  0  0  0  0  0  0  0  0  0  0  0
  -25.9130  -30.8550   21.3670 C   0  0  0  0  0  2  0  0  0  0  0  0
  -25.9800  -29.4790   20.7430 C   0  0  0  0  0  0  0  0  0  0  0  0
  -27.1740  -28.7380   20.7270 C   0  0  0  0  0  3  0  0  0  0  0  0
  -26.0310  -26.9600   19.5020 C   0  0  0  0  0  3  0  0  0  0  0  0
  -24.8350  -27.7000   19.5290 C   0  0  0  0  0  3  0  0  0  0  0  0
  -23.6050  -29.8620   20.1690 C   0  0  0  0  0  2  0  0  0  0  0  0
  -24.6550  -31.0990   22.1080 N   0  0  0  0  0  0  0  0  0  0  0  0
  -23.5270  -32.1560   23.7640 O   0  0  0  0  0  0  0  0  0  0  0  0
  -22.7410  -29.4740   22.5000 C   0  0  0  0  0  0  0  0  0  0  0  0
  -21.4150  -29.3110   22.3770 N   0  0  0  0  0  0  0  0  0  0  0  0
  -23.4230  -28.8240   23.3010 O   0  0  0  0  0  0  0  0  0  0  0  0
  -20.9220  -29.8960   21.7180 H   0  0  0  0  0  0  0  0  0  0  0  0
  -18.0430  -28.1390   22.8320 C   0  0  0  0  0  0  0  0  0  0  0  0
  -20.5950  -28.3800   23.1510 C   0  0  0  0  0  3  0  0  0  0  0  0
  -20.7080  -26.9370   22.6130 C   0  0  0  0  0  2  0  0  0  0  0  0
  -19.6370  -26.5820   21.5830 C   0  0  0  0  0  2  0  0  0  0  0  0
  -18.2220  -26.7910   22.1480 C   0  0  0  0  0  2  0  0  0  0  0  0
  -19.1590  -28.8850   23.2920 C   0  0  0  0  0  0  0  0  0  0  0  0
  -18.9480  -30.1440   23.8920 C   0  0  0  0  0  3  0  0  0  0  0  0
  -17.6480  -30.6570   24.0490 C   0  0  0  0  0  3  0  0  0  0  0  0
  -16.5420  -29.9040   23.6170 C   0  0  0  0  0  3  0  0  0  0  0  0
  -16.7390  -28.6520   23.0100 C   0  0  0  0  0  3  0  0  0  0  0  0
  -25.8950  -32.4910   23.8500 C   0  0  0  0  0  3  0  0  0  0  0  0
  -25.5810  -33.8730   24.2370 N   0  0  0  0  0  0  0  0  0  0  0  0
  -25.9010  -34.9560   23.5180 C   0  0  0  0  0  0  0  0  0  0  0  0
  -26.5660  -34.8970   22.4790 O   0  0  0  0  0  0  0  0  0  0  0  0
  -24.9740  -33.9980   25.0340 H   0  0  0  0  0  0  0  0  0  0  0  0
  -24.1430  -36.7350   23.2660 C   0  0  0  0  0  1  0  0  0  0  0  0
  -25.4090  -36.3220   24.0320 C   0  0  0  0  0  3  0  0  0  0  0  0
  -27.5570  -37.1790   24.8460 C   0  0  0  0  0  1  0  0  0  0  0  0
  -26.4320  -37.3860   23.9360 N   0  0  0  0  0  0  0  0  0  0  0  0
  -26.0240  -38.2960   24.1350 H   0  0  0  0  0  0  0  0  0  0  0  0
  -26.4430  -31.6670   25.0780 C   0  0  1  0  0  0  0  0  0  0  0  0
  -25.3800  -31.3750   26.1600 C   0  0  0  0  0  1  0  0  0  0  0  0
  -27.0230  -30.3150   24.6020 C   0  0  0  0  0  1  0  0  0  0  0  0
  -27.6000  -32.4380   25.7560 C   0  0  0  0  0  1  0  0  0  0  0  0
  -22.5080  -29.7960   16.9650 N   0  0  0  0  0  0  0  0  0  0  0  0
  -22.5240  -28.7940   16.7990 H   0  0  0  0  0  0  0  0  0  0  0  0
  -21.1050  -30.1800   17.0890 C   0  0  0  0  0  2  0  0  0  0  0  0
  -18.9290  -29.2310   17.8530 C   0  0  0  0  0  3  0  0  0  0  0  0
  -20.2550  -29.3740   18.0510 C   0  0  0  0  0  3  0  0  0  0  0  0
  -17.9510  -28.5260   18.7690 C   0  0  0  0  0  1  0  0  0  0  0  0
  -20.1630  -34.4040   15.2810 C   0  0  0  0  0  1  0  0  0  0  0  0
  -21.4850  -33.9450   14.9860 O   0  0  0  0  0  0  0  0  0  0  0  0
  2  3  1  0
  2  1  1  0
  4  2  1  0
  5  2  1  0
  6  5  1  0
  6  7  1  0
  8  7  1  0
  8  9  1  0
  9 10  1  0
 10 11  1  0
 11 12  1  0
 12 13  1  0
 12 15  1  0
 14 12  1  0
 15 16  1  0
 16 17  1  0
 17 18  1  0
 18 19  1  0
 19 20  1  0
 20 21  1  0
 21 22  1  0
 22 23  1  0
 23 24  1  0
 24 25  1  0
 26 34  1  0
 27 32  1  0
 28 29  1  0
 28 27  1  0
 30 29  1  0
 30 39  1  0
 30 31  1  0
 32 26  1  0
 32 31  1  0
 33 26  2  0
 34 25  1  0
 34 35  1  0
 36 37  2  0
 37 56  1  0
 38 37  1  0
 38 41  1  0
 39 36  1  0
 39 40  1  0
 40 38  2  0
 41 42  1  0
 42 43  2  0
 44 47  1  0
 44 43  1  0
 45 44  2  0
 46 45  1  0
 46 41  2  0
 47 48  1  0
 48 49  1  0
 49 50  2  0
 51 50  1  0
 51 55  1  0
 52 51  2  0
 53 48  2  0
 53 52  1  0
 54 53  1  0
 56 57  1  0
 57 60  1  0
 57 59  1  0
 58 56  2  0
 61 62  1  0
 61 36  1  0
 63 61  1  0
 64  1  1  0
 64 65  1  0
 65 66  2  0
 67 65  1  0
 67 68  1  0
 67117  1  0
 68 70  1  0
 69 68  1  0
 71 68  1  0
 72 71  1  0
 72 73  1  0
 73 74  1  0
 74 75  1  0
 75 76  1  0
 76 78  1  0
 77 88  2  0
 78 83  1  0
 79 87  1  0
 79 89  1  0
 80 86  1  0
 80 82  1  0
 81 87  1  0
 82 81  1  0
 83 82  2  0
 84 85  1  0
 84 78  2  0
 85 80  2  0
 86 79  1  0
 87 77  1  0
 89 91  2  0
 90 89  1  0
 92 90  1  0
 93102  2  0
 93 98  1  0
 94 90  1  0
 94 98  1  0
 95 94  1  0
 96 97  1  0
 96 95  1  0
 97 93  1  0
 98 99  2  0
 99100  1  0
101100  2  0
102101  1  0
103 77  1  0
103104  1  0
103113  1  0
104107  1  0
105109  1  0
105104  1  0
106105  2  0
109108  1  0
111109  1  0
111112  1  0
111110  1  0
113116  1  1
113114  1  0
115113  1  0
117119  1  0
118117  1  0
119121  1  0
120121  2  0
120122  1  0
124 64  1  0
124123  1  0
M  ISO  4  26 100  34 100  75 101  76 101
M  END
>  <TORSDO>  (36) 
F 49

>  <SCORE>  (36) 
42.081

>  <name>  (36) 
41

>  <ligand_id>  (36) 
41

>  <original_smiles>  (36) 
[H]C(=C([H])C([H])([H])N([H])C([H])(C(=O)C([H])(OC([H])([H])[H])C([H])([H])[N+]([H])([H])C([H])([H])C([H])([H])OC([H])([H])C([H])([H])C([H])([H])C([H])([H])[N+]([H])([H])C([H])([H])C([H])([H])C([H])([H])OC([H])([H])C([H])([H])C([H])([H])OC([H])([H])C([H])([H])C([H])([H])N([H])C(=O)N1C([H])([H])C([H])([H])C([H])([H])C([H])(n2nc(-c3c([H])c([H])c(Oc4c([H])c([H])c(F)c([H])c4F)c([H])c3[H])c(C(=O)N([H])[H])c2N([H])[H])C1([H])[H])[N+]([H])([H])C([H])([H])C([H])([H])OC([H])([H])C([H])([H])Oc1c([H])c([H])c2c(c1[H])C([H])([H])N(C(=O)C([H])(N([H])C(=O)C([H])(N([H])C([H])([H])[H])C([H])([H])[H])C(C([H])([H])[H])(C([H])([H])[H])C([H])([H])[H])C([H])(C(=O)N([H])C1([H])c3c([H])c([H])c([H])c([H])c3C([H])([H])C([H])([H])C1([H])[H])C2([H])[H])C([H])([H])[H]

>  <smiles>  (36) 
[H]C(=C([H])C([H])([H])N([H])C([H])(C(=O)C([H])(OC([H])([H])[H])C([H])([H])[N+]([H])([H])C([H])([H])C([H])([H])OC([H])([H])C([H])([H])C([H])([H])C([H])([H])[N+]([H])([H])C([H])([H])C([H])([H])C([H])([H])OC([H])([H])C([H])([H])C([H])([H])OC([H])([H])C([H])([H])C([H])([H])N([H])C(=O)N1C([H])([H])C([H])([H])C([H])([H])C([H])(n2nc(-c3c([H])c([H])c(Oc4c([H])c([H])c(F)c([H])c4F)c([H])c3[H])c(C(=O)N([H])[H])c2N([H])[H])C1([H])[H])[N+]([H])([H])C([H])([H])C([H])([H])OC([H])([H])C([H])([H])Oc1c([H])c([H])c2c(c1[H])C([H])([H])N(C(=O)C([H])(N([H])C(=O)C([H])(N([H])C([H])([H])[H])C([H])([H])[H])C(C([H])([H])[H])(C([H])([H])[H])C([H])([H])[H])C([H])(C(=O)N([H])C1([H])c3c([H])c([H])c([H])c([H])c3C([H])([H])C([H])([H])C1([H])[H])C2([H])[H])C([H])([H])[H]

$$$$
42:0:0
     RDKit          3D

132139  0  0  1  0  0  0  0  0999 V2000
  -29.9900  -17.7960   14.5630 C   0  0  0  0  0  0  0  0  0  0  0  0
  -30.9240  -16.9250   14.9560 N   0  0  0  0  0  0  0  0  0  0  0  0
  -30.2290  -18.7120   13.7700 O   0  0  0  0  0  0  0  0  0  0  0  0
  -30.6570  -16.2160   15.6240 H   0  0  0  0  0  0  0  0  0  0  0  0
  -28.5830  -17.6060   15.1440 C   0  0  0  0  0  2  0  0  0  0  0  0
  -27.9820  -18.8740   15.3920 O   0  0  0  0  0  0  0  0  0  0  0  0
  -26.7360  -18.7520   16.0560 C   0  0  0  0  0  2  0  0  0  0  0  0
  -26.1160  -20.1430   16.2200 C   0  0  0  0  0  2  0  0  0  0  0  0
  -24.7120  -20.0820   16.8400 C   0  0  0  0  0  2  0  0  0  0  0  0
  -23.9820  -21.4340   16.8120 C   0  0  0  0  0  2  0  0  0  0  0  0
  -22.5970  -21.3620   17.4830 C   0  0  0  0  0  2  0  0  0  0  0  0
  -21.8190  -22.6980   17.5000 C   0  0  0  0  0  2  0  0  0  0  0  0
  -23.0600  -24.0440   19.1890 C   0  0  0  0  0  0  0  0  0  0  0  0
  -22.6320  -23.8300   17.9400 N   0  0  0  0  0  0  0  0  0  0  0  0
  -22.7270  -23.3400   20.1430 O   0  0  0  0  0  0  0  0  0  0  0  0
  -22.9350  -24.4730   17.2190 H   0  0  0  0  0  0  0  0  0  0  0  0
  -24.0680  -25.1720   19.4040 C   0  0  0  0  0  2  0  0  0  0  0  0
  -25.5290  -24.6730   19.3340 C   0  0  0  0  0  2  0  0  0  0  0  0
  -25.8190  -23.5220   20.2280 N   0  0  0  0  0  4  0  0  0  0  0  0
  -25.0480  -22.8740   20.1850 H   0  0  0  0  0  0  0  0  0  0  0  0
  -25.8860  -23.8510   21.1780 H   0  0  0  0  0  0  0  0  0  0  0  0
  -27.0630  -22.8040   19.8780 C   0  0  0  0  0  2  0  0  0  0  0  0
  -27.2030  -21.4660   20.6290 C   0  0  0  0  0  2  0  0  0  0  0  0
  -28.4710  -20.7000   20.2090 C   0  0  0  0  0  2  0  0  0  0  0  0
  -28.6170  -19.3260   20.8900 C   0  0  0  0  0  2  0  0  0  0  0  0
  -29.8880  -18.6700   20.5120 N   0  0  0  0  0  4  0  0  0  0  0  0
  -30.6460  -19.2830   20.7610 H   0  0  0  0  0  0  0  0  0  0  0  0
  -29.9050  -18.5470   19.5120 H   0  0  0  0  0  0  0  0  0  0  0  0
  -30.1220  -17.3580   21.1510 C   0  0  0  0  0  2  0  0  0  0  0  0
  -31.5240  -16.8140   20.8150 C   0  0  0  0  0  2  0  0  0  0  0  0
  -31.8870  -15.4990   21.5350 C   0  0  0  0  0  2  0  0  0  0  0  0
  -31.4380  -13.5480   20.0420 C   0  0  0  0  0  0  0  0  0  0  0  0
  -30.7490  -11.5890   18.7110 C   0  0  0  0  0  2  0  0  0  0  0  0
  -29.7940  -11.9930   17.5730 C   0  0  0  0  0  2  0  0  0  0  0  0
  -28.3350  -12.0330   18.0680 C   0  0  0  0  0  2  0  0  0  0  0  0
  -28.1760  -12.8470   19.3790 C   0  0  0  0  0  3  0  0  0  0  0  0
  -29.2220  -12.4030   20.4230 C   0  0  0  0  0  2  0  0  0  0  0  0
  -30.5640  -12.5320   19.8230 N   0  0  0  0  0  0  0  0  0  0  0  0
  -32.4630  -13.7240   19.3790 O   0  0  0  0  0  0  0  0  0  0  0  0
  -31.1120  -14.3550   21.0600 N   0  0  0  0  0  0  0  0  0  0  0  0
  -30.2810  -14.1080   21.5760 H   0  0  0  0  0  0  0  0  0  0  0  0
  -25.8870  -13.7540   20.1380 C   0  0  0  0  0  0  0  0  0  0  0  0
  -24.7510  -13.1220   20.5680 C   0  0  0  0  0  0  0  0  0  0  0  0
  -25.0510  -11.7250   20.5650 C   0  0  0  0  0  0  0  0  0  0  0  0
  -26.8150  -12.7500   19.9040 N   0  0  0  0  0  0  0  0  0  0  0  0
  -26.3150  -11.5270   20.2150 N   0  0  0  0  0  0  0  0  0  0  0  0
  -24.1920  -10.5620   20.8190 C   0  0  0  0  0  0  0  0  0  0  0  0
  -24.5490   -9.5730   21.7620 C   0  0  0  0  0  3  0  0  0  0  0  0
  -23.6990   -8.4730   22.0010 C   0  0  0  0  0  3  0  0  0  0  0  0
  -22.4760   -8.3540   21.2990 C   0  0  0  0  0  0  0  0  0  0  0  0
  -22.1360   -9.3290   20.3440 C   0  0  0  0  0  3  0  0  0  0  0  0
  -22.9870  -10.4210   20.1030 C   0  0  0  0  0  3  0  0  0  0  0  0
  -21.5990   -7.3060   21.4470 O   0  0  0  0  0  0  0  0  0  0  0  0
  -21.5300   -6.5860   22.6120 C   0  0  0  0  0  0  0  0  0  0  0  0
  -21.2380   -7.1980   23.8500 C   0  0  0  0  0  3  0  0  0  0  0  0
  -21.1080   -6.4100   25.0120 C   0  0  0  0  0  3  0  0  0  0  0  0
  -21.2590   -5.0120   24.9350 C   0  0  0  0  0  0  0  0  0  0  0  0
  -21.5430   -4.4000   23.7030 C   0  0  0  0  0  3  0  0  0  0  0  0
  -21.6750   -5.1850   22.5430 C   0  0  0  0  0  0  0  0  0  0  0  0
  -21.9290   -4.5890   21.3530 F   0  0  0  0  0  0  0  0  0  0  0  0
  -21.1250   -4.2540   26.0490 F   0  0  0  0  0  0  0  0  0  0  0  0
  -23.4280  -13.7660   20.8720 C   0  0  0  0  0  0  0  0  0  0  0  0
  -22.6700  -13.1980   21.8020 N   0  0  0  0  0  0  0  0  0  0  0  0
  -23.0820  -14.8080   20.3170 O   0  0  0  0  0  0  0  0  0  0  0  0
  -22.9620  -12.3540   22.2710 H   0  0  0  0  0  0  0  0  0  0  0  0
  -21.7820  -13.6130   22.0490 H   0  0  0  0  0  0  0  0  0  0  0  0
  -26.2030  -15.0890   19.9080 N   0  0  0  0  0  0  0  0  0  0  0  0
  -25.5150  -15.8280   20.0040 H   0  0  0  0  0  0  0  0  0  0  0  0
  -27.0740  -15.4040   19.5040 H   0  0  0  0  0  0  0  0  0  0  0  0
  -32.3280  -16.9550   14.5520 C   0  0  0  0  0  2  0  0  0  0  0  0
  -33.1430  -18.0130   15.3090 C   0  0  0  0  0  0  0  0  0  0  0  0
  -34.2630  -18.4350   14.7150 N   0  0  0  0  0  0  0  0  0  0  0  0
  -32.7830  -18.4200   16.4180 O   0  0  0  0  0  0  0  0  0  0  0  0
  -34.4730  -18.0710   13.7960 H   0  0  0  0  0  0  0  0  0  0  0  0
  -35.1950  -19.4250   15.2530 C   0  0  0  0  0  2  0  0  0  0  0  0
  -34.8000  -20.8720   14.9200 C   0  0  0  0  0  0  0  0  0  0  0  0
  -35.5200  -21.8390   15.5020 N   0  0  0  0  0  0  0  0  0  0  0  0
  -33.8730  -21.1180   14.1440 O   0  0  0  0  0  0  0  0  0  0  0  0
  -36.3040  -21.5530   16.0750 H   0  0  0  0  0  0  0  0  0  0  0  0
  -35.3740  -23.2700   15.2250 C   0  0  0  0  0  2  0  0  0  0  0  0
  -34.0000  -25.3840   15.4960 C   0  0  0  0  0  1  0  0  0  0  0  0
  -34.0540  -23.8670   15.7610 C   0  0  0  0  0  3  0  0  0  0  0  0
  -33.8710  -23.5540   17.2000 N   0  0  0  0  0  4  0  0  0  0  0  0
  -34.1410  -22.5930   17.3360 H   0  0  0  0  0  0  0  0  0  0  0  0
  -34.5020  -24.1250   17.7400 H   0  0  0  0  0  0  0  0  0  0  0  0
  -32.4870  -23.7270   17.7040 C   0  0  0  0  0  2  0  0  0  0  0  0
  -32.3670  -23.4590   19.2140 C   0  0  0  0  0  2  0  0  0  0  0  0
  -30.9720  -23.7650   19.7770 C   0  0  0  0  0  2  0  0  0  0  0  0
  -30.6340  -25.1240   19.5230 O   0  0  0  0  0  0  0  0  0  0  0  0
  -29.7170  -25.6440   20.4770 C   0  0  0  0  0  2  0  0  0  0  0  0
  -29.1970  -27.0230   20.0480 C   0  0  0  0  0  2  0  0  0  0  0  0
  -28.0310  -26.8650   19.2270 O   0  0  0  0  0  0  0  0  0  0  0  0
  -24.6030  -31.6920   23.2320 C   0  0  0  0  0  0  0  0  0  0  0  0
  -26.9170  -27.6430   19.4690 C   0  0  0  0  0  0  0  0  0  0  0  0
  -23.2310  -30.5080   21.5420 C   0  0  0  0  0  3  0  0  0  0  0  0
  -24.5310  -29.1230   19.8430 C   0  0  0  0  0  0  0  0  0  0  0  0
  -25.7300  -30.8730   21.1710 C   0  0  0  0  0  2  0  0  0  0  0  0
  -25.7370  -29.5830   20.3830 C   0  0  0  0  0  0  0  0  0  0  0  0
  -26.9280  -28.8600   20.1900 C   0  0  0  0  0  3  0  0  0  0  0  0
  -25.6930  -27.1920   18.9270 C   0  0  0  0  0  3  0  0  0  0  0  0
  -24.5010  -27.9220   19.1100 C   0  0  0  0  0  3  0  0  0  0  0  0
  -23.3110  -29.9800   20.0820 C   0  0  0  0  0  2  0  0  0  0  0  0
  -24.5440  -31.0320   22.0400 N   0  0  0  0  0  0  0  0  0  0  0  0
  -23.5780  -31.9110   23.8920 O   0  0  0  0  0  0  0  0  0  0  0  0
  -22.6390  -29.3930   22.4340 C   0  0  0  0  0  0  0  0  0  0  0  0
  -21.3050  -29.2450   22.3970 N   0  0  0  0  0  0  0  0  0  0  0  0
  -23.3730  -28.6680   23.1110 O   0  0  0  0  0  0  0  0  0  0  0  0
  -20.7750  -29.8830   21.8220 H   0  0  0  0  0  0  0  0  0  0  0  0
  -17.9570  -28.0400   23.0090 C   0  0  0  0  0  0  0  0  0  0  0  0
  -20.5320  -28.2370   23.1190 C   0  0  0  0  0  3  0  0  0  0  0  0
  -20.5660  -26.8740   22.3860 C   0  0  0  0  0  2  0  0  0  0  0  0
  -19.3890  -26.6780   21.4260 C   0  0  0  0  0  2  0  0  0  0  0  0
  -18.0590  -26.7710   22.1800 C   0  0  0  0  0  2  0  0  0  0  0  0
  -19.1190  -28.7370   23.4350 C   0  0  0  0  0  0  0  0  0  0  0  0
  -18.9660  -29.9320   24.1700 C   0  0  0  0  0  3  0  0  0  0  0  0
  -17.6860  -30.4280   24.4830 C   0  0  0  0  0  3  0  0  0  0  0  0
  -16.5410  -29.7270   24.0710 C   0  0  0  0  0  3  0  0  0  0  0  0
  -16.6770  -28.5340   23.3370 C   0  0  0  0  0  3  0  0  0  0  0  0
  -25.9520  -32.2240   23.8090 C   0  0  0  0  0  3  0  0  0  0  0  0
  -26.4970  -31.3670   25.0160 C   0  0  1  0  0  0  0  0  0  0  0  0
  -25.4570  -31.1410   26.1380 C   0  0  0  0  0  1  0  0  0  0  0  0
  -26.9740  -29.9820   24.5240 C   0  0  0  0  0  1  0  0  0  0  0  0
  -27.7280  -32.0630   25.6440 C   0  0  0  0  0  1  0  0  0  0  0  0
  -25.7380  -33.6190   24.2170 N   0  0  0  0  0  0  0  0  0  0  0  0
  -26.1120  -34.6850   23.4970 C   0  0  0  0  0  0  0  0  0  0  0  0
  -26.7460  -34.5940   22.4410 O   0  0  0  0  0  0  0  0  0  0  0  0
  -25.1830  -33.7710   25.0460 H   0  0  0  0  0  0  0  0  0  0  0  0
  -24.5090  -36.6030   23.2540 C   0  0  0  0  0  1  0  0  0  0  0  0
  -25.7230  -36.0740   24.0350 C   0  0  0  0  0  3  0  0  0  0  0  0
  -27.9160  -36.7630   24.8950 C   0  0  0  0  0  1  0  0  0  0  0  0
  -26.8230  -37.0610   23.9730 N   0  0  0  0  0  0  0  0  0  0  0  0
  -26.4810  -37.9950   24.1790 H   0  0  0  0  0  0  0  0  0  0  0  0
  1  2  1  0
  1  5  1  0
  2  4  1  0
  3  1  2  0
  5  6  1  0
  6  7  1  0
  7  8  1  0
  8  9  1  0
 10  9  1  0
 10 11  1  0
 11 12  1  0
 12 14  1  0
 13 17  1  0
 13 15  2  0
 14 13  1  0
 16 14  1  0
 18 17  1  0
 18 19  1  0
 19 21  1  0
 20 19  1  0
 22 19  1  0
 22 23  1  0
 24 23  1  0
 24 25  1  0
 26 27  1  0
 26 25  1  0
 26 29  1  0
 28 26  1  0
 30 29  1  0
 30 31  1  0
 32 40  1  0
 33 38  1  0
 34 35  1  0
 34 33  1  0
 36 35  1  0
 36 45  1  0
 36 37  1  0
 38 32  1  0
 38 37  1  0
 39 32  2  0
 40 31  1  0
 40 41  1  0
 42 43  2  0
 43 62  1  0
 44 43  1  0
 44 47  1  0
 45 42  1  0
 45 46  1  0
 46 44  2  0
 47 48  1  0
 48 49  2  0
 50 53  1  0
 50 49  1  0
 51 50  2  0
 52 51  1  0
 52 47  2  0
 53 54  1  0
 54 55  1  0
 55 56  2  0
 57 56  1  0
 57 61  1  0
 58 57  2  0
 59 54  2  0
 59 58  1  0
 60 59  1  0
 62 63  1  0
 63 66  1  0
 63 65  1  0
 64 62  2  0
 67 68  1  0
 67 42  1  0
 69 67  1  0
 70  2  1  0
 70 71  1  0
 71 73  2  0
 72 75  1  0
 72 71  1  0
 74 72  1  0
 76 75  1  0
 76 77  1  0
 77 79  1  0
 78 76  2  0
 80 77  1  0
 80 82  1  0
 82 81  1  0
 82 83  1  0
 83 84  1  0
 83 86  1  0
 83 85  1  0
 86 87  1  0
 87 88  1  0
 89 88  1  0
 89 90  1  0
 91 90  1  0
 92 94  1  0
 92 91  1  0
 93104  2  0
 94 99  1  0
 95103  1  0
 95105  1  0
 96102  1  0
 96 98  1  0
 97103  1  0
 98 97  1  0
 99 98  2  0
100101  1  0
100 94  2  0
101 96  2  0
102 95  1  0
103 93  1  0
105107  2  0
106105  1  0
108106  1  0
109118  2  0
109114  1  0
110106  1  0
110114  1  0
111110  1  0
112113  1  0
112111  1  0
113109  1  0
114115  2  0
115116  1  0
117116  2  0
118117  1  0
119 93  1  0
119124  1  0
119120  1  0
120123  1  1
120121  1  0
122120  1  0
124127  1  0
125129  1  0
125124  1  0
126125  2  0
129128  1  0
131129  1  0
131132  1  0
131130  1  0
M  ISO  4  32 100  40 100  91 101  92 101
M  END
>  <TORSDO>  (37) 
F 49

>  <SCORE>  (37) 
-3.280

>  <name>  (37) 
42

>  <ligand_id>  (37) 
42

>  <original_smiles>  (37) 
[H]c1c([H])c([H])c2c(c1[H])C([H])([H])C([H])([H])C([H])([H])C2([H])N([H])C(=O)C1([H])N(C(=O)C([H])(N([H])C(=O)C([H])(N([H])C([H])([H])[H])C([H])([H])[H])C(C([H])([H])[H])(C([H])([H])[H])C([H])([H])[H])C([H])([H])c2c([H])c(OC([H])([H])C([H])([H])OC([H])([H])C([H])([H])C([H])([H])[N+]([H])([H])C([H])(C([H])([H])[H])C([H])([H])N([H])C(=O)C([H])([H])N([H])C(=O)C([H])([H])N([H])C(=O)C([H])([H])OC([H])([H])C([H])([H])C([H])([H])C([H])([H])C([H])([H])C([H])([H])N([H])C(=O)C([H])([H])C([H])([H])[N+]([H])([H])C([H])([H])C([H])([H])C([H])([H])C([H])([H])[N+]([H])([H])C([H])([H])C([H])([H])C([H])([H])N([H])C(=O)N3C([H])([H])C([H])([H])C([H])([H])C([H])(n4nc(-c5c([H])c([H])c(Oc6c([H])c([H])c(F)c([H])c6F)c([H])c5[H])c(C(=O)N([H])[H])c4N([H])[H])C3([H])[H])c([H])c([H])c2C1([H])[H]

>  <smiles>  (37) 
[H]c1c([H])c([H])c2c(c1[H])C([H])([H])C([H])([H])C([H])([H])C2([H])N([H])C(=O)C1([H])N(C(=O)C([H])(N([H])C(=O)C([H])(N([H])C([H])([H])[H])C([H])([H])[H])C(C([H])([H])[H])(C([H])([H])[H])C([H])([H])[H])C([H])([H])c2c([H])c(OC([H])([H])C([H])([H])OC([H])([H])C([H])([H])C([H])([H])[N+]([H])([H])C([H])(C([H])([H])[H])C([H])([H])N([H])C(=O)C([H])([H])N([H])C(=O)C([H])([H])N([H])C(=O)C([H])([H])OC([H])([H])C([H])([H])C([H])([H])C([H])([H])C([H])([H])C([H])([H])N([H])C(=O)C([H])([H])C([H])([H])[N+]([H])([H])C([H])([H])C([H])([H])C([H])([H])C([H])([H])[N+]([H])([H])C([H])([H])C([H])([H])C([H])([H])N([H])C(=O)N3C([H])([H])C([H])([H])C([H])([H])C([H])(n4nc(-c5c([H])c([H])c(Oc6c([H])c([H])c(F)c([H])c6F)c([H])c5[H])c(C(=O)N([H])[H])c4N([H])[H])C3([H])[H])c([H])c([H])c2C1([H])[H]

$$$$
43:0:0
     RDKit          3D

154162  0  0  1  0  0  0  0  0999 V2000
  -20.5260  -21.4570   20.8420 C   0  0  0  0  0  2  0  0  0  0  0  0
  -19.4530  -22.2200   20.0560 C   0  0  0  0  0  0  0  0  0  0  0  0
  -19.2180  -21.7950   18.8120 N   0  0  0  0  0  0  0  0  0  0  0  0
  -18.8430  -23.1640   20.5660 O   0  0  0  0  0  0  0  0  0  0  0  0
  -19.7860  -21.0360   18.4630 H   0  0  0  0  0  0  0  0  0  0  0  0
  -18.3500  -22.4540   17.8390 C   0  0  0  0  0  2  0  0  0  0  0  0
  -19.1390  -23.4560   16.9860 C   0  0  0  0  0  0  0  0  0  0  0  0
  -18.4720  -24.0830   16.0130 N   0  0  0  0  0  0  0  0  0  0  0  0
  -20.3420  -23.6500   17.1860 O   0  0  0  0  0  0  0  0  0  0  0  0
  -17.4840  -23.8850   15.8990 H   0  0  0  0  0  0  0  0  0  0  0  0
  -19.0600  -25.0550   15.0970 C   0  0  0  0  0  2  0  0  0  0  0  0
  -18.7050  -26.4910   15.5000 C   0  0  0  0  0  0  0  0  0  0  0  0
  -19.5330  -27.1080   16.3480 N   0  0  0  0  0  0  0  0  0  0  0  0
  -17.6930  -27.0240   15.0440 O   0  0  0  0  0  0  0  0  0  0  0  0
  -20.3080  -26.5640   16.7030 H   0  0  0  0  0  0  0  0  0  0  0  0
  -19.3900  -28.4740   16.8450 C   0  0  0  0  0  2  0  0  0  0  0  0
  -19.8350  -28.6000   18.3150 C   0  0  0  0  0  2  0  0  0  0  0  0
  -21.3620  -28.6030   18.4960 C   0  0  0  0  0  2  0  0  0  0  0  0
  -21.8090  -28.4630   19.9630 C   0  0  0  0  0  2  0  0  0  0  0  0
  -23.3430  -28.4420   20.0850 C   0  0  0  0  0  2  0  0  0  0  0  0
  -23.8770  -27.6890   21.3110 C   0  0  0  0  0  2  0  0  0  0  0  0
  -23.7610  -28.4980   22.4730 O   0  0  0  0  0  0  0  0  0  0  0  0
  -24.4720  -27.9420   23.5770 C   0  0  0  0  0  2  0  0  0  0  0  0
  -24.3350  -28.8390   24.8150 C   0  0  0  0  0  0  0  0  0  0  0  0
  -24.9680  -28.4290   25.9230 N   0  0  0  0  0  0  0  0  0  0  0  0
  -23.6730  -29.8800   24.7760 O   0  0  0  0  0  0  0  0  0  0  0  0
  -25.5220  -27.5870   25.8520 H   0  0  0  0  0  0  0  0  0  0  0  0
  -24.9770  -29.1150   27.2130 C   0  0  0  0  0  2  0  0  0  0  0  0
  -23.7070  -28.8370   28.0430 C   0  0  0  0  0  2  0  0  0  0  0  0
  -23.4790  -27.3430   28.3590 C   0  0  0  0  0  2  0  0  0  0  0  0
  -22.4330  -27.0940   29.4630 C   0  0  0  0  0  2  0  0  0  0  0  0
  -21.0470  -27.2110   28.9510 N   0  0  0  0  0  4  0  0  0  0  0  0
  -20.9640  -26.6810   28.0970 H   0  0  0  0  0  0  0  0  0  0  0  0
  -20.8690  -28.1770   28.7260 H   0  0  0  0  0  0  0  0  0  0  0  0
  -20.0000  -26.7320   29.8840 C   0  0  0  0  0  2  0  0  0  0  0  0
  -18.5960  -27.0760   29.3660 C   0  0  0  0  0  2  0  0  0  0  0  0
  -18.2820  -26.1660   28.3150 O   0  0  0  0  0  0  0  0  0  0  0  0
  -11.3050  -25.4620   29.7790 C   0  0  0  0  0  0  0  0  0  0  0  0
  -16.9710  -26.1020   27.8960 C   0  0  0  0  0  0  0  0  0  0  0  0
  -11.9460  -25.3270   27.3900 C   0  0  0  0  0  3  0  0  0  0  0  0
  -14.3460  -25.9920   26.8550 C   0  0  0  0  0  0  0  0  0  0  0  0
  -13.3520  -26.6700   29.0480 C   0  0  0  0  0  2  0  0  0  0  0  0
  -14.5570  -26.3430   28.1950 C   0  0  0  0  0  0  0  0  0  0  0  0
  -15.8620  -26.3920   28.7250 C   0  0  0  0  0  3  0  0  0  0  0  0
  -16.7430  -25.7390   26.5540 C   0  0  0  0  0  3  0  0  0  0  0  0
  -15.4380  -25.6780   26.0280 C   0  0  0  0  0  3  0  0  0  0  0  0
  -12.9170  -25.9800   26.3690 C   0  0  0  0  0  2  0  0  0  0  0  0
  -12.1870  -25.7930   28.7940 N   0  0  0  0  0  0  0  0  0  0  0  0
  -10.2770  -24.8180   29.5260 O   0  0  0  0  0  0  0  0  0  0  0  0
  -12.0270  -23.7930   27.2320 C   0  0  0  0  0  0  0  0  0  0  0  0
  -11.1640  -23.2380   26.3660 N   0  0  0  0  0  0  0  0  0  0  0  0
  -12.8660  -23.1350   27.8530 O   0  0  0  0  0  0  0  0  0  0  0  0
  -10.4980  -23.8430   25.9050 H   0  0  0  0  0  0  0  0  0  0  0  0
   -9.2510  -20.7940   24.5170 C   0  0  0  0  0  0  0  0  0  0  0  0
  -11.0840  -21.8190   26.0220 C   0  0  0  0  0  3  0  0  0  0  0  0
  -12.0740  -21.4610   24.8890 C   0  0  0  0  0  2  0  0  0  0  0  0
  -11.4430  -21.5320   23.4950 C   0  0  0  0  0  2  0  0  0  0  0  0
  -10.2520  -20.5750   23.3960 C   0  0  0  0  0  2  0  0  0  0  0  0
   -9.6380  -21.3900   25.7470 C   0  0  0  0  0  0  0  0  0  0  0  0
   -8.6600  -21.6010   26.7440 C   0  0  0  0  0  3  0  0  0  0  0  0
   -7.3210  -21.2220   26.5310 C   0  0  0  0  0  3  0  0  0  0  0  0
   -6.9460  -20.6190   25.3180 C   0  0  0  0  0  3  0  0  0  0  0  0
   -7.9100  -20.4020   24.3160 C   0  0  0  0  0  3  0  0  0  0  0  0
  -11.5310  -25.8940   31.2620 C   0  0  0  0  0  3  0  0  0  0  0  0
  -12.2200  -24.7780   32.1380 C   0  0  1  0  0  0  0  0  0  0  0  0
  -11.5330  -23.3960   32.0360 C   0  0  0  0  0  1  0  0  0  0  0  0
  -13.7010  -24.6010   31.7300 C   0  0  0  0  0  1  0  0  0  0  0  0
  -12.2190  -25.2030   33.6260 C   0  0  0  0  0  1  0  0  0  0  0  0
  -10.2210  -26.2620   31.8180 N   0  0  0  0  0  0  0  0  0  0  0  0
   -9.7760  -27.5200   31.9430 C   0  0  0  0  0  0  0  0  0  0  0  0
  -10.4640  -28.5050   31.6640 O   0  0  0  0  0  0  0  0  0  0  0  0
   -9.5860  -25.5040   32.0170 H   0  0  0  0  0  0  0  0  0  0  0  0
   -7.4000  -27.9960   31.2760 C   0  0  0  0  0  1  0  0  0  0  0  0
   -8.3370  -27.7120   32.4600 C   0  0  0  0  0  3  0  0  0  0  0  0
   -8.8550  -28.4740   34.7350 C   0  0  0  0  0  1  0  0  0  0  0  0
   -8.2120  -28.7910   33.4630 N   0  0  0  0  0  0  0  0  0  0  0  0
   -7.2340  -29.0020   33.6460 H   0  0  0  0  0  0  0  0  0  0  0  0
  -22.3000  -23.0350   21.5720 C   0  0  0  0  0  3  0  0  0  0  0  0
  -21.2130  -22.3000   21.8190 N   0  0  0  0  0  0  0  0  0  0  0  0
  -22.8650  -23.0420   20.4740 O   0  0  0  0  0  0  0  0  0  0  0  0
  -20.7810  -22.3810   22.7280 H   0  0  0  0  0  0  0  0  0  0  0  0
  -22.8100  -23.9000   22.7320 C   0  0  0  0  0  2  0  0  0  0  0  0
  -25.2100  -24.3870   22.3170 C   0  0  0  0  0  0  0  0  0  0  0  0
  -23.9230  -24.7490   22.3230 N   0  0  0  0  0  0  0  0  0  0  0  0
  -25.5970  -23.2930   22.7380 O   0  0  0  0  0  0  0  0  0  0  0  0
  -23.6800  -25.6460   21.9190 H   0  0  0  0  0  0  0  0  0  0  0  0
  -26.2000  -25.4180   21.7640 C   0  0  0  0  0  2  0  0  0  0  0  0
  -28.4930  -25.0780   20.8800 C   0  0  0  0  0  0  0  0  0  0  0  0
  -27.5930  -24.9860   21.8600 N   0  0  0  0  0  0  0  0  0  0  0  0
  -28.2360  -25.5740   19.7790 O   0  0  0  0  0  0  0  0  0  0  0  0
  -27.8660  -24.5280   22.7180 H   0  0  0  0  0  0  0  0  0  0  0  0
  -29.9030  -24.5690   21.1890 C   0  0  0  0  0  2  0  0  0  0  0  0
  -32.1600  -24.9440   20.2260 C   0  0  0  0  0  0  0  0  0  0  0  0
  -30.8740  -25.2710   20.3660 N   0  0  0  0  0  0  0  0  0  0  0  0
  -32.6610  -23.9620   20.7720 O   0  0  0  0  0  0  0  0  0  0  0  0
  -30.4880  -26.0150   19.7990 H   0  0  0  0  0  0  0  0  0  0  0  0
  -33.0100  -25.8560   19.3360 C   0  0  0  0  0  2  0  0  0  0  0  0
  -33.0980  -25.0430   17.0050 C   0  0  0  0  0  0  0  0  0  0  0  0
  -33.6060  -25.0980   18.2410 N   0  0  0  0  0  0  0  0  0  0  0  0
  -32.0960  -25.6810   16.6770 O   0  0  0  0  0  0  0  0  0  0  0  0
  -34.4240  -24.5440   18.4600 H   0  0  0  0  0  0  0  0  0  0  0  0
  -33.8060  -24.1540   15.9860 C   0  0  0  0  0  2  0  0  0  0  0  0
  -32.9960  -24.0710   14.7560 N   0  0  0  0  0  4  0  0  0  0  0  0
  -32.7810  -25.0230   14.4940 H   0  0  0  0  0  0  0  0  0  0  0  0
  -32.1150  -23.6270   15.0010 H   0  0  0  0  0  0  0  0  0  0  0  0
  -33.6150  -23.3330   13.6330 C   0  0  0  0  0  2  0  0  0  0  0  0
  -32.6830  -23.2260   12.4100 C   0  0  0  0  0  2  0  0  0  0  0  0
  -31.4950  -22.5140   12.7430 O   0  0  0  0  0  0  0  0  0  0  0  0
  -30.4490  -23.3050   13.3010 C   0  0  0  0  0  2  0  0  0  0  0  0
  -30.0700  -22.6710   14.6410 C   0  0  0  0  0  2  0  0  0  0  0  0
  -31.2500  -22.3310   15.3870 O   0  0  0  0  0  0  0  0  0  0  0  0
  -30.9140  -21.4270   16.4380 C   0  0  0  0  0  2  0  0  0  0  0  0
  -32.1160  -20.8220   17.1880 C   0  0  0  0  0  2  0  0  0  0  0  0
  -31.6950  -20.1510   18.3770 O   0  0  0  0  0  0  0  0  0  0  0  0
  -31.7880  -20.9350   19.5690 C   0  0  0  0  0  2  0  0  0  0  0  0
  -31.1730  -20.1730   20.7540 C   0  0  0  0  0  2  0  0  0  0  0  0
  -29.0630  -19.0030   20.1870 C   0  0  0  0  0  0  0  0  0  0  0  0
  -27.3680  -18.3670   18.5360 C   0  0  0  0  0  2  0  0  0  0  0  0
  -27.8540  -18.8580   17.1570 C   0  0  0  0  0  2  0  0  0  0  0  0
  -27.4480  -20.3280   16.9130 C   0  0  0  0  0  2  0  0  0  0  0  0
  -27.7590  -21.2600   18.1170 C   0  0  0  0  0  3  0  0  0  0  0  0
  -27.2850  -20.6220   19.4440 C   0  0  0  0  0  2  0  0  0  0  0  0
  -27.9030  -19.2860   19.5470 N   0  0  0  0  0  0  0  0  0  0  0  0
  -29.5660  -17.8780   20.2410 O   0  0  0  0  0  0  0  0  0  0  0  0
  -29.7220  -20.0840   20.6100 N   0  0  0  0  0  0  0  0  0  0  0  0
  -29.2150  -20.9530   20.5550 H   0  0  0  0  0  0  0  0  0  0  0  0
  -27.7580  -23.7150   17.3370 C   0  0  0  0  0  0  0  0  0  0  0  0
  -26.7810  -24.6740   17.3360 C   0  0  0  0  0  0  0  0  0  0  0  0
  -25.6430  -24.0770   17.9550 C   0  0  0  0  0  0  0  0  0  0  0  0
  -27.1910  -22.5940   17.9220 N   0  0  0  0  0  0  0  0  0  0  0  0
  -25.9260  -22.8390   18.3440 N   0  0  0  0  0  0  0  0  0  0  0  0
  -24.2830  -24.5930   18.1570 C   0  0  0  0  0  0  0  0  0  0  0  0
  -23.5650  -24.3370   19.3450 C   0  0  0  0  0  0  0  0  0  0  0  0
  -22.2660  -24.8610   19.5220 C   0  0  0  0  0  3  0  0  0  0  0  0
  -21.6750  -25.6510   18.5070 C   0  0  0  0  0  0  0  0  0  0  0  0
  -22.3890  -25.8840   17.3180 C   0  0  0  0  0  3  0  0  0  0  0  0
  -23.6790  -25.3590   17.1420 C   0  0  0  0  0  3  0  0  0  0  0  0
  -20.4090  -26.1780   18.5790 O   0  0  0  0  0  0  0  0  0  0  0  0
  -19.6530  -26.0790   19.7190 C   0  0  0  0  0  0  0  0  0  0  0  0
  -20.1570  -26.4570   20.9820 C   0  0  0  0  0  3  0  0  0  0  0  0
  -19.3210  -26.4050   22.1160 C   0  0  0  0  0  3  0  0  0  0  0  0
  -17.9840  -25.9830   21.9910 C   0  0  0  0  0  0  0  0  0  0  0  0
  -17.4790  -25.6150   20.7310 C   0  0  0  0  0  3  0  0  0  0  0  0
  -18.3120  -25.6640   19.5990 C   0  0  0  0  0  0  0  0  0  0  0  0
  -17.8140  -25.3250   18.3850 F   0  0  0  0  0  0  0  0  0  0  0  0
  -17.1770  -25.9420   23.0790 F   0  0  0  0  0  0  0  0  0  0  0  0
  -26.8720  -26.0410   16.7230 C   0  0  0  0  0  0  0  0  0  0  0  0
  -26.2120  -27.0270   17.3210 N   0  0  0  0  0  0  0  0  0  0  0  0
  -27.5680  -26.2540   15.7320 O   0  0  0  0  0  0  0  0  0  0  0  0
  -25.6560  -26.8590   18.1470 H   0  0  0  0  0  0  0  0  0  0  0  0
  -26.2640  -27.9620   16.9450 H   0  0  0  0  0  0  0  0  0  0  0  0
  -29.0730  -23.7060   16.8910 N   0  0  0  0  0  0  0  0  0  0  0  0
  -29.5230  -24.5350   16.5200 H   0  0  0  0  0  0  0  0  0  0  0  0
  -29.7190  -22.9580   17.1020 H   0  0  0  0  0  0  0  0  0  0  0  0
  1 79  1  0
  2  4  2  0
  2  1  1  0
  3  2  1  0
  5  3  1  0
  6  3  1  0
  7  9  2  0
  7  6  1  0
  8  7  1  0
 10  8  1  0
 11 12  1  0
 11  8  1  0
 12 13  1  0
 13 15  1  0
 13 16  1  0
 14 12  2  0
 16 17  1  0
 17 18  1  0
 18 19  1  0
 19 20  1  0
 20 21  1  0
 21 22  1  0
 22 23  1  0
 23 24  1  0
 24 25  1  0
 25 28  1  0
 26 24  2  0
 27 25  1  0
 28 29  1  0
 29 30  1  0
 30 31  1  0
 32 31  1  0
 32 35  1  0
 33 32  1  0
 34 32  1  0
 36 35  1  0
 37 36  1  0
 39 37  1  0
 39 44  1  0
 40 50  1  0
 40 48  1  0
 41 43  1  0
 43 44  2  0
 43 42  1  0
 45 39  2  0
 46 45  1  0
 46 41  2  0
 47 41  1  0
 47 40  1  0
 48 42  1  0
 48 38  1  0
 49 38  2  0
 50 52  2  0
 51 50  1  0
 53 51  1  0
 54 59  1  0
 55 51  1  0
 56 55  1  0
 57 56  1  0
 58 57  1  0
 58 54  1  0
 59 55  1  0
 59 60  2  0
 61 60  1  0
 62 61  2  0
 63 54  2  0
 63 62  1  0
 64 38  1  0
 64 69  1  0
 64 65  1  0
 65 68  1  1
 66 65  1  0
 67 65  1  0
 69 70  1  0
 69 72  1  0
 70 74  1  0
 71 70  2  0
 74 73  1  0
 74 76  1  0
 76 77  1  0
 76 75  1  0
 78 79  1  0
 78 82  1  0
 79 81  1  0
 80 78  1  0
 83 84  1  0
 83 85  2  0
 84 82  1  0
 86 84  1  0
 87 89  1  0
 87 83  1  0
 88 92  1  0
 88 89  1  0
 89 91  1  0
 90 88  2  0
 93 94  1  0
 93 95  2  0
 94 92  1  0
 96 94  1  0
 97 93  1  0
 98 99  1  0
 99101  1  0
 99 97  1  0
100 98  2  0
102 98  1  0
103105  1  0
103102  1  0
104103  1  0
106103  1  0
107108  1  0
107106  1  0
108109  1  0
109110  1  0
110111  1  0
111112  1  0
112113  1  0
113114  1  0
114115  1  0
115116  1  0
117124  2  0
117125  1  0
118123  1  0
119118  1  0
120119  1  0
121120  1  0
121122  1  0
122123  1  0
123117  1  0
125116  1  0
126125  1  0
127130  1  0
128127  2  0
128129  1  0
129132  1  0
129131  2  0
130121  1  0
130131  1  0
132133  1  0
133134  2  0
133 80  1  0
135138  1  0
135134  1  0
136135  2  0
137136  1  0
137132  2  0
138139  1  0
139140  1  0
140141  2  0
142141  1  0
142146  1  0
143142  2  0
144139  2  0
144143  1  0
145144  1  0
147148  1  0
147128  1  0
148150  1  0
149147  2  0
151148  1  0
152154  1  0
152127  1  0
153152  1  0
M  ISO  4  36 101  37 101 117 100 125 100
M  END
>  <TORSDO>  (38) 
F 59

>  <SCORE>  (38) 
7.475

>  <name>  (38) 
43

>  <ligand_id>  (38) 
43

>  <original_smiles>  (38) 
[H]c1c([H])c([H])c2c(c1[H])C([H])([H])C([H])([H])C([H])([H])C2([H])N([H])C(=O)C1([H])N(C(=O)C([H])(N([H])C(=O)C([H])(N([H])C([H])([H])[H])C([H])([H])[H])C(C([H])([H])[H])(C([H])([H])[H])C([H])([H])[H])C([H])([H])c2c([H])c(OC([H])([H])C([H])([H])[N+]([H])([H])C([H])([H])C([H])([H])C([H])([H])C([H])([H])N([H])C(=O)C([H])([H])OC([H])([H])C([H])([H])C([H])([H])C([H])([H])C([H])([H])C([H])([H])N([H])C(=O)C([H])([H])N([H])C(=O)C([H])([H])N([H])C(=O)C([H])([H])N([H])C(=O)C([H])([H])N([H])C(=O)C([H])([H])N([H])C(=O)C([H])([H])N([H])C(=O)C([H])([H])N([H])C(=O)C([H])([H])[N+]([H])([H])C([H])([H])C([H])([H])OC([H])([H])C([H])([H])OC([H])([H])C([H])([H])OC([H])([H])C([H])([H])N([H])C(=O)N3C([H])([H])C([H])([H])C([H])([H])C([H])(n4nc(-c5c([H])c([H])c(Oc6c([H])c([H])c(F)c([H])c6F)c([H])c5[H])c(C(=O)N([H])[H])c4N([H])[H])C3([H])[H])c([H])c([H])c2C1([H])[H]

>  <smiles>  (38) 
[H]c1c([H])c([H])c2c(c1[H])C([H])([H])C([H])([H])C([H])([H])C2([H])N([H])C(=O)C1([H])N(C(=O)C([H])(N([H])C(=O)C([H])(N([H])C([H])([H])[H])C([H])([H])[H])C(C([H])([H])[H])(C([H])([H])[H])C([H])([H])[H])C([H])([H])c2c([H])c(OC([H])([H])C([H])([H])[N+]([H])([H])C([H])([H])C([H])([H])C([H])([H])C([H])([H])N([H])C(=O)C([H])([H])OC([H])([H])C([H])([H])C([H])([H])C([H])([H])C([H])([H])C([H])([H])N([H])C(=O)C([H])([H])N([H])C(=O)C([H])([H])N([H])C(=O)C([H])([H])N([H])C(=O)C([H])([H])N([H])C(=O)C([H])([H])N([H])C(=O)C([H])([H])N([H])C(=O)C([H])([H])N([H])C(=O)C([H])([H])[N+]([H])([H])C([H])([H])C([H])([H])OC([H])([H])C([H])([H])OC([H])([H])C([H])([H])OC([H])([H])C([H])([H])N([H])C(=O)N3C([H])([H])C([H])([H])C([H])([H])C([H])(n4nc(-c5c([H])c([H])c(Oc6c([H])c([H])c(F)c([H])c6F)c([H])c5[H])c(C(=O)N([H])[H])c4N([H])[H])C3([H])[H])c([H])c([H])c2C1([H])[H]

$$$$
45:0:0
     RDKit          3D

126134  0  0  1  0  0  0  0  0999 V2000
  -20.5700  -34.1520   22.7150 C   0  0  0  0  0  0  0  0  0  0  0  0
  -21.8060  -34.1820   23.2510 N   0  0  0  0  0  0  0  0  0  0  0  0
  -19.5700  -34.4380   23.3760 O   0  0  0  0  0  0  0  0  0  0  0  0
  -22.5740  -33.8550   22.6760 H   0  0  0  0  0  0  0  0  0  0  0  0
  -22.1660  -34.4330   24.6620 C   0  0  0  0  0  2  0  0  0  0  0  0
  -23.3420  -35.4230   24.8380 C   0  0  0  0  0  0  0  0  0  0  0  0
  -24.4930  -34.9720   25.3790 N   0  0  2  0  0  4  0  0  0  0  0  0
  -23.1930  -36.5990   24.5090 O   0  0  0  0  0  0  0  0  0  0  0  0
  -24.5040  -34.0010   25.6580 H   0  0  0  0  0  0  0  0  0  0  0  0
  -25.6910  -35.7900   25.6810 C   0  0  0  0  0  2  0  0  0  0  0  0
  -27.0010  -34.9520   25.7900 C   0  0  0  0  0  2  0  0  0  0  0  0
  -28.2790  -35.6820   25.3040 C   0  0  0  0  0  2  0  0  0  0  0  0
  -29.6190  -34.8610   25.2250 C   0  0  0  0  0  2  0  0  0  0  0  0
  -29.6430  -33.7310   24.3290 O   0  0  0  0  0  0  0  0  0  0  0  0
  -30.7740  -32.8250   24.4460 C   0  0  0  0  0  2  0  0  0  0  0  0
  -30.5120  -31.4180   23.7980 C   0  0  0  0  0  0  0  0  0  0  0  0
  -30.7990  -30.2920   24.5080 N   0  0  0  0  0  0  0  0  0  0  0  0
  -30.0840  -31.3580   22.6470 O   0  0  0  0  0  0  0  0  0  0  0  0
  -31.2110  -30.4540   25.4160 H   0  0  0  0  0  0  0  0  0  0  0  0
  -30.7440  -28.8660   24.0870 C   0  0  0  0  0  2  0  0  0  0  0  0
  -29.9590  -27.8660   25.0180 C   0  0  0  0  0  2  0  0  0  0  0  0
  -30.4270  -26.3660   24.9170 C   0  0  0  0  0  2  0  0  0  0  0  0
  -29.4710  -25.1780   25.3080 C   0  0  0  0  0  2  0  0  0  0  0  0
  -29.2780  -24.7780   26.8140 C   0  0  0  0  0  2  0  0  0  0  0  0
  -27.9980  -24.1630   27.1520 O   0  0  0  0  0  0  0  0  0  0  0  0
  -25.9100  -30.8490   27.3120 C   0  0  0  0  0  0  0  0  0  0  0  0
  -26.9190  -25.0210   27.2890 C   0  0  0  0  0  0  0  0  0  0  0  0
  -24.1740  -29.2430   28.0170 C   0  0  0  0  0  3  0  0  0  0  0  0
  -24.7190  -26.7960   27.5450 C   0  0  0  0  0  0  0  0  0  0  0  0
  -26.0000  -28.5910   26.3600 C   0  0  0  0  0  2  0  0  0  0  0  0
  -25.8910  -27.1970   26.9080 C   0  0  0  0  0  0  0  0  0  0  0  0
  -26.9810  -26.3360   26.8090 C   0  0  0  0  0  3  0  0  0  0  0  0
  -25.7220  -24.6020   27.9120 C   0  0  0  0  0  3  0  0  0  0  0  0
  -24.6270  -25.4870   28.0550 C   0  0  0  0  0  3  0  0  0  0  0  0
  -23.6390  -27.8460   27.6360 C   0  0  0  0  0  2  0  0  0  0  0  0
  -25.3960  -29.5990   27.2370 N   0  0  0  0  0  0  0  0  0  0  0  0
  -25.3450  -31.7290   27.9610 O   0  0  0  0  0  0  0  0  0  0  0  0
  -24.3670  -29.3100   29.5490 C   0  0  0  0  0  0  0  0  0  0  0  0
  -23.2740  -29.5710   30.2810 N   0  0  0  0  0  0  0  0  0  0  0  0
  -25.4690  -29.0980   30.0580 O   0  0  0  0  0  0  0  0  0  0  0  0
  -22.3830  -29.6820   29.7880 H   0  0  0  0  0  0  0  0  0  0  0  0
  -20.9770  -30.2750   32.9790 C   0  0  0  0  0  0  0  0  0  0  0  0
  -23.1660  -29.6840   31.7320 C   0  0  0  0  0  3  0  0  0  0  0  0
  -23.0370  -28.2890   32.3880 C   0  0  0  0  0  2  0  0  0  0  0  0
  -21.5830  -27.8530   32.6070 C   0  0  0  0  0  2  0  0  0  0  0  0
  -20.8420  -28.8540   33.4920 C   0  0  0  0  0  2  0  0  0  0  0  0
  -22.0580  -30.6630   32.1430 C   0  0  0  0  0  0  0  0  0  0  0  0
  -22.1150  -31.9930   31.6730 C   0  0  0  0  0  3  0  0  0  0  0  0
  -21.1220  -32.9260   32.0350 C   0  0  0  0  0  3  0  0  0  0  0  0
  -20.0640  -32.5390   32.8730 C   0  0  0  0  0  3  0  0  0  0  0  0
  -19.9920  -31.2180   33.3470 C   0  0  0  0  0  3  0  0  0  0  0  0
  -27.2250  -31.2360   26.5760 C   0  0  0  0  0  3  0  0  0  0  0  0
  -28.4480  -31.2940   27.5830 C   0  0  1  0  0  0  0  0  0  0  0  0
  -28.2040  -32.1830   28.8180 C   0  0  0  0  0  1  0  0  0  0  0  0
  -28.8140  -29.8920   28.1170 C   0  0  0  0  0  1  0  0  0  0  0  0
  -29.7130  -31.7900   26.8800 C   0  0  0  0  0  1  0  0  0  0  0  0
  -26.9610  -32.5150   25.8900 N   0  0  0  0  0  0  0  0  0  0  0  0
  -26.6840  -32.6610   24.5830 C   0  0  0  0  0  0  0  0  0  0  0  0
  -26.6520  -31.7090   23.7980 O   0  0  0  0  0  0  0  0  0  0  0  0
  -26.9320  -33.3400   26.4700 H   0  0  0  0  0  0  0  0  0  0  0  0
  -24.8610  -34.3140   23.9720 C   0  0  0  0  0  2  0  0  0  0  0  0
  -26.3800  -34.0830   24.0530 C   0  0  0  0  0  3  0  0  0  0  0  0
  -28.3950  -34.3700   22.6310 C   0  0  0  0  0  1  0  0  0  0  0  0
  -26.9450  -34.3810   22.7230 N   0  0  0  0  0  0  0  0  0  0  0  0
  -26.6120  -35.2760   22.3690 H   0  0  0  0  0  0  0  0  0  0  0  0
  -20.4110  -33.7570   21.2260 C   0  0  0  0  0  2  0  0  0  0  0  0
  -19.2100  -32.7880   20.9420 C   0  0  0  0  0  2  0  0  0  0  0  0
  -19.8230  -30.4970   20.0840 C   0  0  0  0  0  0  0  0  0  0  0  0
  -19.4400  -31.7760   19.8880 N   0  0  0  0  0  0  0  0  0  0  0  0
  -20.0950  -30.0800   21.2030 O   0  0  0  0  0  0  0  0  0  0  0  0
  -19.1500  -32.0300   18.9510 H   0  0  0  0  0  0  0  0  0  0  0  0
  -19.8970  -29.5410   18.8750 C   0  0  0  0  0  2  0  0  0  0  0  0
  -19.6480  -28.0210   19.1460 C   0  0  0  0  0  2  0  0  0  0  0  0
  -20.9150  -27.1330   19.3350 C   0  0  0  0  0  3  0  0  0  0  0  0
  -20.7860  -25.6470   18.9120 C   0  0  0  0  0  3  0  0  0  0  0  0
  -22.0520  -24.7560   19.1160 C   0  0  0  0  0  2  0  0  0  0  0  0
  -22.6250  -24.2150   17.7750 C   0  0  0  0  0  2  0  0  0  0  0  0
  -24.6720  -22.7830   18.0780 C   0  0  0  0  0  0  0  0  0  0  0  0
  -23.3510  -22.9420   17.8880 N   0  0  0  0  0  0  0  0  0  0  0  0
  -25.4140  -23.7300   18.3170 O   0  0  0  0  0  0  0  0  0  0  0  0
  -22.8210  -22.1120   17.6510 H   0  0  0  0  0  0  0  0  0  0  0  0
  -25.2870  -21.3820   17.9190 C   0  0  0  0  0  2  0  0  0  0  0  0
  -26.2250  -21.1180   18.9720 O   0  0  0  0  0  0  0  0  0  0  0  0
  -26.9260  -19.8820   18.8070 C   0  0  0  0  0  2  0  0  0  0  0  0
  -27.9350  -19.6420   19.9590 C   0  0  0  0  0  2  0  0  0  0  0  0
  -29.0490  -18.8030   19.6010 O   0  0  0  0  0  0  0  0  0  0  0  0
  -28.9360  -17.4170   19.9480 C   0  0  0  0  0  2  0  0  0  0  0  0
  -30.3280  -16.7280   20.0230 C   0  0  0  0  0  2  0  0  0  0  0  0
  -30.9620  -14.2950   19.7960 C   0  0  0  0  0  0  0  0  0  0  0  0
  -30.6370  -12.1340   18.6590 C   0  0  0  0  0  2  0  0  0  0  0  0
  -29.6380  -12.3900   17.5100 C   0  0  0  0  0  2  0  0  0  0  0  0
  -28.1800  -12.2730   18.0080 C   0  0  0  0  0  2  0  0  0  0  0  0
  -27.9180  -13.0650   19.3160 C   0  0  0  0  0  3  0  0  0  0  0  0
  -29.0280  -12.7920   20.3570 C   0  0  0  0  0  2  0  0  0  0  0  0
  -30.3230  -13.0960   19.7270 N   0  0  0  0  0  0  0  0  0  0  0  0
  -32.0570  -14.5160   19.2790 O   0  0  0  0  0  0  0  0  0  0  0  0
  -30.1970  -15.2880   20.2840 N   0  0  0  0  0  0  0  0  0  0  0  0
  -29.3470  -14.9900   20.7400 H   0  0  0  0  0  0  0  0  0  0  0  0
  -25.5760  -13.6640   20.2080 C   0  0  0  0  0  0  0  0  0  0  0  0
  -24.5170  -12.8920   20.5890 C   0  0  0  0  0  0  0  0  0  0  0  0
  -24.9430  -11.5350   20.4430 C   0  0  0  0  0  0  0  0  0  0  0  0
  -26.5860  -12.7850   19.8560 N   0  0  0  0  0  0  0  0  0  0  0  0
  -26.2130  -11.4930   20.0520 N   0  0  0  0  0  0  0  0  0  0  0  0
  -24.1990  -10.2770   20.5990 C   0  0  0  0  0  0  0  0  0  0  0  0
  -24.6870   -9.2240   21.4070 C   0  0  0  0  0  3  0  0  0  0  0  0
  -23.9430   -8.0340   21.5570 C   0  0  0  0  0  3  0  0  0  0  0  0
  -22.6960   -7.8880   20.9030 C   0  0  0  0  0  0  0  0  0  0  0  0
  -22.2250   -8.9290   20.0840 C   0  0  0  0  0  3  0  0  0  0  0  0
  -22.9710  -10.1110   19.9300 C   0  0  0  0  0  3  0  0  0  0  0  0
  -21.9190   -6.7570   20.9710 O   0  0  0  0  0  0  0  0  0  0  0  0
  -21.9840   -5.9030   22.0460 C   0  0  0  0  0  0  0  0  0  0  0  0
  -21.7740   -6.3520   23.3670 C   0  0  0  0  0  3  0  0  0  0  0  0
  -21.7700   -5.4280   24.4300 C   0  0  0  0  0  3  0  0  0  0  0  0
  -21.9790   -4.0600   24.1760 C   0  0  0  0  0  0  0  0  0  0  0  0
  -22.1930   -3.6130   22.8610 C   0  0  0  0  0  3  0  0  0  0  0  0
  -22.1920   -4.5340   21.7980 C   0  0  0  0  0  0  0  0  0  0  0  0
  -22.3750   -4.0950   20.5290 F   0  0  0  0  0  0  0  0  0  0  0  0
  -21.9740   -3.1700   25.1960 F   0  0  0  0  0  0  0  0  0  0  0  0
  -23.1500  -13.3770   20.9850 C   0  0  0  0  0  0  0  0  0  0  0  0
  -22.4690  -12.6500   21.8620 N   0  0  0  0  0  0  0  0  0  0  0  0
  -22.7010  -14.4430   20.5550 O   0  0  0  0  0  0  0  0  0  0  0  0
  -22.8490  -11.7900   22.2300 H   0  0  0  0  0  0  0  0  0  0  0  0
  -21.5610  -12.9600   22.1710 H   0  0  0  0  0  0  0  0  0  0  0  0
  -25.7610  -15.0420   20.1170 N   0  0  0  0  0  0  0  0  0  0  0  0
  -25.0050  -15.6950   20.2960 H   0  0  0  0  0  0  0  0  0  0  0  0
  -26.6120  -15.4870   19.8080 H   0  0  0  0  0  0  0  0  0  0  0  0
  1  2  1  0
  1  3  2  0
  2  5  1  0
  4  2  1  0
  5  6  1  0
  6  7  1  0
  7  9  1  1
  7 10  1  0
  8  6  2  0
 10 11  1  0
 12 11  1  0
 13 12  1  0
 14 15  1  0
 14 13  1  0
 16 15  1  0
 16 17  1  0
 17 19  1  0
 18 16  2  0
 20 17  1  0
 20 21  1  0
 22 21  1  0
 22 23  1  0
 23 24  1  0
 24 25  1  0
 25 27  1  0
 26 37  2  0
 27 33  1  0
 28 38  1  0
 29 35  1  0
 29 34  1  0
 30 31  1  0
 30 36  1  0
 31 29  2  0
 32 31  1  0
 32 27  2  0
 33 34  2  0
 35 28  1  0
 36 26  1  0
 36 28  1  0
 38 40  2  0
 38 39  1  0
 41 39  1  0
 42 51  1  0
 42 46  1  0
 43 39  1  0
 43 47  1  0
 43 44  1  0
 44 45  1  0
 45 46  1  0
 47 42  2  0
 48 49  2  0
 48 47  1  0
 49 50  1  0
 50 51  2  0
 52 26  1  0
 52 53  1  0
 53 55  1  1
 53 54  1  0
 56 53  1  0
 57 60  1  0
 57 52  1  0
 58 57  1  0
 59 58  2  0
 61 62  1  0
 61  7  1  0
 62 64  1  0
 62 58  1  0
 63 64  1  0
 65 64  1  0
 66  1  1  0
 67 66  1  0
 68 70  2  0
 69 68  1  0
 69 67  1  0
 71 69  1  0
 72 73  1  0
 72 68  1  0
 73 74  1  0
 75 76  1  0
 75 74  2  0
 77 79  1  0
 77 76  1  0
 78 80  2  0
 79 78  1  0
 81 79  1  0
 82 78  1  0
 82 83  1  0
 84 83  1  0
 84 85  1  0
 86 87  1  0
 86 85  1  0
 87 88  1  0
 88 97  1  0
 89 97  1  0
 90 95  1  0
 91 92  1  0
 91 90  1  0
 93 92  1  0
 93102  1  0
 93 94  1  0
 95 89  1  0
 95 94  1  0
 96 89  2  0
 97 98  1  0
 99100  2  0
100119  1  0
101100  1  0
101104  1  0
102103  1  0
102 99  1  0
103101  2  0
104105  1  0
105106  2  0
107110  1  0
107106  1  0
108107  2  0
109108  1  0
109104  2  0
110111  1  0
111112  1  0
112113  2  0
114113  1  0
114118  1  0
115114  2  0
116111  2  0
116115  1  0
117116  1  0
119120  1  0
120123  1  0
120122  1  0
121119  2  0
124 99  1  0
124125  1  0
126124  1  0
M  ISO  4  24 101  25 101  89 100  97 100
M  END
>  <TORSDO>  (39) 
F 47

>  <SCORE>  (39) 
50.053

>  <name>  (39) 
45

>  <ligand_id>  (39) 
45

>  <original_smiles>  (39) 
[H]c1c([H])c([H])c2c(c1[H])C([H])([H])C([H])([H])C([H])([H])C2([H])N([H])C(=O)C1([H])N(C(=O)C([H])(N([H])C(=O)C([H])(N([H])C([H])([H])[H])C([H])([H])[H])C(C([H])([H])[H])(C([H])([H])[H])C([H])([H])[H])C([H])([H])c2c([H])c(OC([H])([H])C([H])([H])C([H])([H])C([H])([H])C([H])([H])N([H])C(=O)C([H])([H])OC([H])([H])C([H])([H])C([H])([H])C([H])([H])N([H])C(=O)C([H])([H])N([H])C(=O)C([H])([H])C([H])([H])N([H])C(=O)C([H])([H])C([H])([H])C([H])([H])C([H])([H])C([H])([H])C([H])([H])N([H])C(=O)C([H])([H])OC([H])([H])C([H])([H])OC([H])([H])C([H])([H])N([H])C(=O)N3C([H])([H])C([H])([H])C([H])([H])C([H])(n4nc(-c5c([H])c([H])c(Oc6c([H])c([H])c(F)c([H])c6F)c([H])c5[H])c(C(=O)N([H])[H])c4N([H])[H])C3([H])[H])c([H])c([H])c2C1([H])[H]

>  <smiles>  (39) 
[H]c1c([H])c([H])c2c(c1[H])C([H])([H])C([H])([H])C([H])([H])C2([H])N([H])C(=O)C1([H])N(C(=O)C([H])(N([H])C(=O)C([H])(N([H])C([H])([H])[H])C([H])([H])[H])C(C([H])([H])[H])(C([H])([H])[H])C([H])([H])[H])C([H])([H])c2c([H])c(OC([H])([H])C([H])([H])C([H])([H])C([H])([H])C([H])([H])N([H])C(=O)C([H])([H])OC([H])([H])C([H])([H])C([H])([H])C([H])([H])N([H])C(=O)C([H])([H])N([H])C(=O)C([H])([H])C([H])([H])N([H])C(=O)C([H])([H])C([H])([H])C([H])([H])C([H])([H])C([H])([H])C([H])([H])N([H])C(=O)C([H])([H])OC([H])([H])C([H])([H])OC([H])([H])C([H])([H])N([H])C(=O)N3C([H])([H])C([H])([H])C([H])([H])C([H])(n4nc(-c5c([H])c([H])c(Oc6c([H])c([H])c(F)c([H])c6F)c([H])c5[H])c(C(=O)N([H])[H])c4N([H])[H])C3([H])[H])c([H])c([H])c2C1([H])[H]

$$$$
46:0:0
     RDKit          3D

109116  0  0  1  0  0  0  0  0999 V2000
  -23.2570  -25.1330   16.4220 C   0  0  0  0  0  2  0  0  0  0  0  0
  -22.0260  -24.2050   16.3770 C   0  0  0  0  0  2  0  0  0  0  0  0
  -23.2220  -22.1080   17.0520 C   0  0  0  0  0  0  0  0  0  0  0  0
  -22.3910  -22.7960   16.2610 N   0  0  0  0  0  0  0  0  0  0  0  0
  -23.8060  -22.6180   18.0110 O   0  0  0  0  0  0  0  0  0  0  0  0
  -21.9440  -22.2820   15.5120 H   0  0  0  0  0  0  0  0  0  0  0  0
  -23.4240  -20.6260   16.7050 C   0  0  0  0  0  2  0  0  0  0  0  0
  -25.5460  -19.8430   17.7610 C   0  0  0  0  0  0  0  0  0  0  0  0
  -24.8380  -20.2560   16.7040 N   0  0  0  0  0  0  0  0  0  0  0  0
  -25.0470  -19.6840   18.8790 O   0  0  0  0  0  0  0  0  0  0  0  0
  -25.3300  -20.3710   15.8290 H   0  0  0  0  0  0  0  0  0  0  0  0
  -27.0350  -19.5630   17.5160 C   0  0  0  0  0  2  0  0  0  0  0  0
  -27.5630  -18.7560   18.5650 O   0  0  0  0  0  0  0  0  0  0  0  0
  -28.9750  -18.6480   18.4980 C   0  0  0  0  0  2  0  0  0  0  0  0
  -29.4710  -17.8360   19.6980 C   0  0  0  0  0  2  0  0  0  0  0  0
  -31.0050  -17.7410   19.7350 C   0  0  0  0  0  2  0  0  0  0  0  0
  -31.5410  -16.7860   20.8180 C   0  0  0  0  0  2  0  0  0  0  0  0
  -31.4100  -14.4680   19.8990 C   0  0  0  0  0  0  0  0  0  0  0  0
  -31.0140  -12.1640   19.1120 C   0  0  0  0  0  2  0  0  0  0  0  0
  -30.0550  -12.1400   17.9060 C   0  0  0  0  0  2  0  0  0  0  0  0
  -28.5880  -12.1250   18.3690 C   0  0  0  0  0  2  0  0  0  0  0  0
  -28.2870  -13.2160   19.4300 C   0  0  0  0  0  3  0  0  0  0  0  0
  -29.3420  -13.1840   20.5570 C   0  0  0  0  0  2  0  0  0  0  0  0
  -30.6800  -13.3260   19.9480 N   0  0  0  0  0  0  0  0  0  0  0  0
  -32.4140  -14.6100   19.1950 O   0  0  0  0  0  0  0  0  0  0  0  0
  -30.9730  -15.4450   20.7020 N   0  0  0  0  0  0  0  0  0  0  0  0
  -30.1680  -15.2340   21.2720 H   0  0  0  0  0  0  0  0  0  0  0  0
  -26.0000  -14.0640   20.2620 C   0  0  0  0  0  0  0  0  0  0  0  0
  -24.8700  -13.4010   20.6590 C   0  0  0  0  0  0  0  0  0  0  0  0
  -25.1750  -12.0080   20.5660 C   0  0  0  0  0  0  0  0  0  0  0  0
  -26.9310  -13.0810   19.9590 N   0  0  0  0  0  0  0  0  0  0  0  0
  -26.4360  -11.8370   20.1940 N   0  0  0  0  0  0  0  0  0  0  0  0
  -24.3210  -10.8280   20.7560 C   0  0  0  0  0  0  0  0  0  0  0  0
  -24.6730   -9.7990   21.6550 C   0  0  0  0  0  3  0  0  0  0  0  0
  -23.8280   -8.6830   21.8330 C   0  0  0  0  0  3  0  0  0  0  0  0
  -22.6160   -8.5880   21.1090 C   0  0  0  0  0  0  0  0  0  0  0  0
  -22.2800   -9.6060   20.1990 C   0  0  0  0  0  3  0  0  0  0  0  0
  -23.1250  -10.7150   20.0200 C   0  0  0  0  0  3  0  0  0  0  0  0
  -21.7450   -7.5280   21.1970 O   0  0  0  0  0  0  0  0  0  0  0  0
  -21.6450   -6.7720   22.3380 C   0  0  0  0  0  0  0  0  0  0  0  0
  -21.2820   -7.3420   23.5780 C   0  0  0  0  0  3  0  0  0  0  0  0
  -21.1190   -6.5190   24.7110 C   0  0  0  0  0  3  0  0  0  0  0  0
  -21.3130   -5.1280   24.6050 C   0  0  0  0  0  0  0  0  0  0  0  0
  -21.6700   -4.5590   23.3700 C   0  0  0  0  0  3  0  0  0  0  0  0
  -21.8320   -5.3790   22.2390 C   0  0  0  0  0  0  0  0  0  0  0  0
  -22.1550   -4.8230   21.0470 F   0  0  0  0  0  0  0  0  0  0  0  0
  -21.1510   -4.3360   25.6900 F   0  0  0  0  0  0  0  0  0  0  0  0
  -23.5480  -14.0200   21.0120 C   0  0  0  0  0  0  0  0  0  0  0  0
  -22.7930  -13.3810   21.8990 N   0  0  0  0  0  0  0  0  0  0  0  0
  -23.2000  -15.1010   20.5390 O   0  0  0  0  0  0  0  0  0  0  0  0
  -23.0900  -12.5050   22.3010 H   0  0  0  0  0  0  0  0  0  0  0  0
  -21.9060  -13.7760   22.1790 H   0  0  0  0  0  0  0  0  0  0  0  0
  -26.3090  -15.4120   20.1180 N   0  0  0  0  0  0  0  0  0  0  0  0
  -25.6260  -16.1420   20.2890 H   0  0  0  0  0  0  0  0  0  0  0  0
  -27.1920  -15.7700   19.7780 H   0  0  0  0  0  0  0  0  0  0  0  0
  -22.9260  -26.5870   16.0300 C   0  0  0  0  0  2  0  0  0  0  0  0
  -24.1510  -27.5200   16.0010 C   0  0  0  0  0  2  0  0  0  0  0  0
  -25.3950  -26.8060   15.6200 N   0  0  0  0  0  4  0  0  0  0  0  0
  -25.5770  -26.9530   14.6370 H   0  0  0  0  0  0  0  0  0  0  0  0
  -25.2010  -25.8270   15.7430 H   0  0  0  0  0  0  0  0  0  0  0  0
  -26.6000  -27.1470   16.4320 C   0  0  0  0  0  3  0  0  0  0  0  0
  -27.2230  -25.8700   17.0390 C   0  0  0  0  0  2  0  0  0  0  0  0
  -27.9610  -26.2380   18.1970 O   0  0  0  0  0  0  0  0  0  0  0  0
  -28.5850  -25.1410   18.8610 C   0  0  0  0  0  2  0  0  0  0  0  0
  -28.8850  -25.5080   20.3290 C   0  0  0  0  0  2  0  0  0  0  0  0
  -27.7980  -25.1680   21.1930 O   0  0  0  0  0  0  0  0  0  0  0  0
  -24.3570  -31.0410   23.3340 C   0  0  0  0  0  0  0  0  0  0  0  0
  -26.7180  -26.0070   21.0810 C   0  0  0  0  0  0  0  0  0  0  0  0
  -23.1410  -29.5840   21.7450 C   0  0  0  0  0  3  0  0  0  0  0  0
  -24.5150  -27.7170   20.6960 C   0  0  0  0  0  0  0  0  0  0  0  0
  -25.6990  -29.6410   21.7680 C   0  0  0  0  0  2  0  0  0  0  0  0
  -25.6750  -28.1980   21.3180 C   0  0  0  0  0  0  0  0  0  0  0  0
  -26.7840  -27.3480   21.5120 C   0  0  0  0  0  3  0  0  0  0  0  0
  -25.5300  -25.5170   20.5040 C   0  0  0  0  0  3  0  0  0  0  0  0
  -24.4270  -26.3680   20.3060 C   0  0  0  0  0  3  0  0  0  0  0  0
  -23.3930  -28.7080   20.4900 C   0  0  0  0  0  2  0  0  0  0  0  0
  -24.4150  -30.1090   22.3410 N   0  0  0  0  0  0  0  0  0  0  0  0
  -23.2730  -31.5000   23.7190 O   0  0  0  0  0  0  0  0  0  0  0  0
  -22.2840  -28.7740   22.7440 C   0  0  0  0  0  0  0  0  0  0  0  0
  -20.9610  -28.7570   22.5160 N   0  0  0  0  0  0  0  0  0  0  0  0
  -22.8110  -28.1570   23.6740 O   0  0  0  0  0  0  0  0  0  0  0  0
  -20.6070  -29.2930   21.7380 H   0  0  0  0  0  0  0  0  0  0  0  0
  -17.4110  -28.2120   22.9180 C   0  0  0  0  0  0  0  0  0  0  0  0
  -19.9630  -28.0280   23.2970 C   0  0  0  0  0  3  0  0  0  0  0  0
  -19.8300  -26.5680   22.8030 C   0  0  0  0  0  2  0  0  0  0  0  0
  -18.7220  -26.3800   21.7630 C   0  0  0  0  0  2  0  0  0  0  0  0
  -17.3670  -26.8090   22.3380 C   0  0  0  0  0  2  0  0  0  0  0  0
  -18.6340  -28.7890   23.3570 C   0  0  0  0  0  0  0  0  0  0  0  0
  -18.6270  -30.1070   23.8600 C   0  0  0  0  0  3  0  0  0  0  0  0
  -17.4300  -30.8450   23.9320 C   0  0  0  0  0  3  0  0  0  0  0  0
  -16.2220  -30.2640   23.5120 C   0  0  0  0  0  3  0  0  0  0  0  0
  -16.2110  -28.9500   23.0090 C   0  0  0  0  0  3  0  0  0  0  0  0
  -25.6480  -31.5940   24.0130 C   0  0  0  0  0  3  0  0  0  0  0  0
  -25.4460  -33.0320   24.2410 N   0  0  0  0  0  0  0  0  0  0  0  0
  -25.9170  -34.0000   23.4430 C   0  0  0  0  0  0  0  0  0  0  0  0
  -26.6370  -33.7710   22.4680 O   0  0  0  0  0  0  0  0  0  0  0  0
  -24.8170  -33.2930   24.9860 H   0  0  0  0  0  0  0  0  0  0  0  0
  -24.3660  -35.8960   22.8770 C   0  0  0  0  0  1  0  0  0  0  0  0
  -25.5250  -35.4500   23.7830 C   0  0  0  0  0  3  0  0  0  0  0  0
  -27.6760  -36.2100   24.6820 C   0  0  0  0  0  1  0  0  0  0  0  0
  -26.6470  -36.4070   23.6660 N   0  0  0  0  0  0  0  0  0  0  0  0
  -26.3130  -37.3650   23.7270 H   0  0  0  0  0  0  0  0  0  0  0  0
  -26.0090  -30.8580   25.3630 C   0  0  1  0  0  0  0  0  0  0  0  0
  -24.8280  -30.7730   26.3560 C   0  0  0  0  0  1  0  0  0  0  0  0
  -26.4970  -29.4180   25.0810 C   0  0  0  0  0  1  0  0  0  0  0  0
  -27.1790  -31.5890   26.0650 C   0  0  0  0  0  1  0  0  0  0  0  0
  -27.6200  -27.9500   15.6100 C   0  0  0  0  0  2  0  0  0  0  0  0
  -27.8660  -29.9610   14.4020 C   0  0  0  0  0  1  0  0  0  0  0  0
  -26.9870  -29.1380   15.1540 O   0  0  0  0  0  0  0  0  0  0  0  0
  2  1  1  0
  3  5  2  0
  4  2  1  0
  4  3  1  0
  6  4  1  0
  7  3  1  0
  8 10  2  0
  9  7  1  0
  9  8  1  0
 11  9  1  0
 12  8  1  0
 12 13  1  0
 14 13  1  0
 14 15  1  0
 15 16  1  0
 16 17  1  0
 18 24  1  0
 18 26  1  0
 19 24  1  0
 20 21  1  0
 20 19  1  0
 22 21  1  0
 22 31  1  0
 22 23  1  0
 24 23  1  0
 25 18  2  0
 26 17  1  0
 26 27  1  0
 28 29  2  0
 29 48  1  0
 30 29  1  0
 30 33  1  0
 31 32  1  0
 31 28  1  0
 32 30  2  0
 33 34  1  0
 34 35  2  0
 36 39  1  0
 36 35  1  0
 37 36  2  0
 38 37  1  0
 38 33  2  0
 39 40  1  0
 40 41  1  0
 41 42  2  0
 43 42  1  0
 43 47  1  0
 44 43  2  0
 45 40  2  0
 45 44  1  0
 46 45  1  0
 48 49  1  0
 49 52  1  0
 49 51  1  0
 50 48  2  0
 53 28  1  0
 53 54  1  0
 55 53  1  0
 56  1  1  0
 57 56  1  0
 58 60  1  0
 58 57  1  0
 58 61  1  0
 59 58  1  0
 61107  1  0
 61 62  1  0
 62 63  1  0
 63 64  1  0
 64 65  1  0
 65 66  1  0
 67 78  2  0
 68 66  1  0
 68 73  1  0
 69 77  1  0
 69 79  1  0
 70 72  1  0
 71 77  1  0
 72 73  2  0
 72 71  1  0
 74 68  2  0
 75 74  1  0
 75 70  2  0
 76 70  1  0
 76 69  1  0
 77 67  1  0
 79 81  2  0
 80 79  1  0
 82 80  1  0
 83 92  2  0
 83 88  1  0
 84 80  1  0
 84 88  1  0
 85 84  1  0
 86 87  1  0
 86 85  1  0
 87 83  1  0
 88 89  2  0
 89 90  1  0
 91 90  2  0
 92 91  1  0
 93 67  1  0
 93 94  1  0
 93103  1  0
 94 97  1  0
 95 99  1  0
 95 94  1  0
 96 95  2  0
 99 98  1  0
101102  1  0
101 99  1  0
101100  1  0
103106  1  1
103104  1  0
105103  1  0
108109  1  0
109107  1  0
M  ISO  4  18 100  26 100  65 101  66 101
M  END
>  <TORSDO>  (40) 
F 36

>  <SCORE>  (40) 
-7.972

>  <name>  (40) 
46

>  <ligand_id>  (40) 
46

>  <original_smiles>  (40) 
[H]c1c([H])c([H])c2c(c1[H])C([H])([H])C([H])([H])C([H])([H])C2([H])N([H])C(=O)C1([H])N(C(=O)C([H])(N([H])C(=O)C([H])(N([H])C([H])([H])[H])C([H])([H])[H])C(C([H])([H])[H])(C([H])([H])[H])C([H])([H])[H])C([H])([H])c2c([H])c(OC([H])([H])C([H])([H])OC([H])([H])C([H])(C([H])([H])OC([H])([H])[H])[N+]([H])([H])C([H])([H])C([H])([H])C([H])([H])C([H])([H])N([H])C(=O)C([H])([H])N([H])C(=O)C([H])([H])OC([H])([H])C([H])([H])C([H])([H])C([H])([H])N([H])C(=O)N3C([H])([H])C([H])([H])C([H])([H])C([H])(n4nc(-c5c([H])c([H])c(Oc6c([H])c([H])c(F)c([H])c6F)c([H])c5[H])c(C(=O)N([H])[H])c4N([H])[H])C3([H])[H])c([H])c([H])c2C1([H])[H]

>  <smiles>  (40) 
[H]c1c([H])c([H])c2c(c1[H])C([H])([H])C([H])([H])C([H])([H])C2([H])N([H])C(=O)C1([H])N(C(=O)C([H])(N([H])C(=O)C([H])(N([H])C([H])([H])[H])C([H])([H])[H])C(C([H])([H])[H])(C([H])([H])[H])C([H])([H])[H])C([H])([H])c2c([H])c(OC([H])([H])C([H])([H])OC([H])([H])C([H])(C([H])([H])OC([H])([H])[H])[N+]([H])([H])C([H])([H])C([H])([H])C([H])([H])C([H])([H])N([H])C(=O)C([H])([H])N([H])C(=O)C([H])([H])OC([H])([H])C([H])([H])C([H])([H])C([H])([H])N([H])C(=O)N3C([H])([H])C([H])([H])C([H])([H])C([H])(n4nc(-c5c([H])c([H])c(Oc6c([H])c([H])c(F)c([H])c6F)c([H])c5[H])c(C(=O)N([H])[H])c4N([H])[H])C3([H])[H])c([H])c([H])c2C1([H])[H]

$$$$
47:0:0
     RDKit          3D

137144  0  0  1  0  0  0  0  0999 V2000
  -26.5410  -30.8410   16.8740 N   0  0  0  0  0  4  0  0  0  0  0  0
  -26.6750  -30.3540   17.7460 H   0  0  0  0  0  0  0  0  0  0  0  0
  -25.6180  -31.2560   16.8760 H   0  0  0  0  0  0  0  0  0  0  0  0
  -27.5580  -31.9040   16.7200 C   0  0  0  0  0  2  0  0  0  0  0  0
  -27.3960  -33.0530   17.7440 C   0  0  0  0  0  2  0  0  0  0  0  0
  -26.0650  -33.8270   17.6250 C   0  0  0  0  0  2  0  0  0  0  0  0
  -24.9010  -33.2240   18.4340 C   0  0  0  0  0  2  0  0  0  0  0  0
  -23.5370  -33.4200   17.7460 C   0  0  0  0  0  2  0  0  0  0  0  0
  -22.3340  -33.0600   18.6450 C   0  0  0  0  0  2  0  0  0  0  0  0
  -21.1910  -32.2980   17.9320 C   0  0  0  0  0  2  0  0  0  0  0  0
  -21.0620  -29.8010   17.9190 C   0  0  0  0  0  0  0  0  0  0  0  0
  -21.5870  -30.9560   17.4740 N   0  0  0  0  0  0  0  0  0  0  0  0
  -20.2740  -29.7440   18.8630 O   0  0  0  0  0  0  0  0  0  0  0  0
  -22.2880  -30.9160   16.7370 H   0  0  0  0  0  0  0  0  0  0  0  0
  -21.5010  -28.5010   17.2410 C   0  0  0  0  0  2  0  0  0  0  0  0
  -21.1280  -27.2910   18.0170 N   0  0  0  0  0  4  0  0  0  0  0  0
  -20.1240  -27.2310   18.0810 H   0  0  0  0  0  0  0  0  0  0  0  0
  -21.4710  -27.3660   18.9660 H   0  0  0  0  0  0  0  0  0  0  0  0
  -21.6980  -26.0140   17.5280 C   0  0  0  0  0  2  0  0  0  0  0  0
  -22.2240  -25.2080   18.7140 C   0  0  0  0  0  0  0  0  0  0  0  0
  -22.9200  -24.0840   18.4750 N   0  0  0  0  0  0  0  0  0  0  0  0
  -22.0870  -25.6680   19.8420 O   0  0  0  0  0  0  0  0  0  0  0  0
  -22.9970  -23.7580   17.5240 H   0  0  0  0  0  0  0  0  0  0  0  0
  -23.7370  -23.4130   19.4900 C   0  0  0  0  0  2  0  0  0  0  0  0
  -24.2230  -22.0130   19.0560 C   0  0  0  0  0  2  0  0  0  0  0  0
  -25.3470  -21.4960   19.9810 C   0  0  0  0  0  2  0  0  0  0  0  0
  -25.7320  -20.0880   19.7220 N   0  0  0  0  0  4  0  0  0  0  0  0
  -25.6970  -19.9270   18.7270 H   0  0  0  0  0  0  0  0  0  0  0  0
  -25.0530  -19.4850   20.1580 H   0  0  0  0  0  0  0  0  0  0  0  0
  -27.1070  -19.7400   20.1740 C   0  0  0  0  0  2  0  0  0  0  0  0
  -27.3030  -18.2190   20.3520 C   0  0  0  0  0  2  0  0  0  0  0  0
  -28.7550  -17.7400   20.5760 C   0  0  0  0  0  2  0  0  0  0  0  0
  -28.7790  -16.2070   20.7790 C   0  0  0  0  0  2  0  0  0  0  0  0
  -30.6820  -14.5440   20.5440 C   0  0  0  0  0  0  0  0  0  0  0  0
  -30.4140  -12.3600   19.4270 C   0  0  0  0  0  2  0  0  0  0  0  0
  -29.4800  -12.4500   18.2040 C   0  0  0  0  0  2  0  0  0  0  0  0
  -28.0160  -12.2450   18.6370 C   0  0  0  0  0  2  0  0  0  0  0  0
  -27.6290  -13.1460   19.8290 C   0  0  0  0  0  3  0  0  0  0  0  0
  -28.6730  -13.0570   20.9660 C   0  0  0  0  0  2  0  0  0  0  0  0
  -29.9900  -13.3790   20.4000 N   0  0  0  0  0  0  0  0  0  0  0  0
  -31.8420  -14.6650   20.1460 O   0  0  0  0  0  0  0  0  0  0  0  0
  -30.0880  -15.6120   21.1200 N   0  0  0  0  0  0  0  0  0  0  0  0
  -30.7670  -16.3080   21.4030 H   0  0  0  0  0  0  0  0  0  0  0  0
  -25.2590  -13.7950   20.5620 C   0  0  0  0  0  0  0  0  0  0  0  0
  -24.1820  -13.0370   20.9190 C   0  0  0  0  0  0  0  0  0  0  0  0
  -24.6300  -11.6750   20.8770 C   0  0  0  0  0  0  0  0  0  0  0  0
  -26.2850  -12.8960   20.3150 N   0  0  0  0  0  0  0  0  0  0  0  0
  -25.9160  -11.6200   20.5740 N   0  0  0  0  0  0  0  0  0  0  0  0
  -23.8960  -10.4240   21.0490 C   0  0  0  0  0  0  0  0  0  0  0  0
  -24.3520   -9.4150   21.9270 C   0  0  0  0  0  3  0  0  0  0  0  0
  -23.6250   -8.2170   22.0780 C   0  0  0  0  0  3  0  0  0  0  0  0
  -22.4270   -8.0210   21.3520 C   0  0  0  0  0  0  0  0  0  0  0  0
  -21.9850   -9.0210   20.4650 C   0  0  0  0  0  3  0  0  0  0  0  0
  -22.7130  -10.2100   20.3130 C   0  0  0  0  0  3  0  0  0  0  0  0
  -21.6600   -6.8850   21.4250 O   0  0  0  0  0  0  0  0  0  0  0  0
  -21.6820   -6.0710   22.5290 C   0  0  0  0  0  0  0  0  0  0  0  0
  -21.3970   -6.5640   23.8200 C   0  0  0  0  0  3  0  0  0  0  0  0
  -21.3660   -5.6790   24.9190 C   0  0  0  0  0  3  0  0  0  0  0  0
  -21.6040   -4.3060   24.7230 C   0  0  0  0  0  0  0  0  0  0  0  0
  -21.8810   -3.8140   23.4360 C   0  0  0  0  0  3  0  0  0  0  0  0
  -21.9180   -4.6960   22.3410 C   0  0  0  0  0  0  0  0  0  0  0  0
  -22.1670   -4.2150   21.0990 F   0  0  0  0  0  0  0  0  0  0  0  0
  -21.5650   -3.4530   25.7750 F   0  0  0  0  0  0  0  0  0  0  0  0
  -22.7880  -13.5240   21.1840 C   0  0  0  0  0  0  0  0  0  0  0  0
  -22.0440  -12.8350   22.0380 N   0  0  0  0  0  0  0  0  0  0  0  0
  -22.3600  -14.5560   20.6640 O   0  0  0  0  0  0  0  0  0  0  0  0
  -22.3910  -11.9980   22.4810 H   0  0  0  0  0  0  0  0  0  0  0  0
  -21.1100  -13.1480   22.2560 H   0  0  0  0  0  0  0  0  0  0  0  0
  -25.4530  -15.1650   20.3990 N   0  0  0  0  0  0  0  0  0  0  0  0
  -24.7050  -15.8400   20.5210 H   0  0  0  0  0  0  0  0  0  0  0  0
  -26.3170  -15.5670   20.0680 H   0  0  0  0  0  0  0  0  0  0  0  0
  -26.4500  -29.8720   15.7650 C   0  0  0  0  0  2  0  0  0  0  0  0
  -25.0620  -29.9810   15.1290 C   0  0  0  0  0  0  0  0  0  0  0  0
  -24.9030  -29.4990   13.8880 N   0  0  0  0  0  0  0  0  0  0  0  0
  -24.1450  -30.5090   15.7680 O   0  0  0  0  0  0  0  0  0  0  0  0
  -25.7030  -29.0900   13.4240 H   0  0  0  0  0  0  0  0  0  0  0  0
  -23.6600  -29.5140   13.1090 C   0  0  0  0  0  2  0  0  0  0  0  0
  -22.5730  -28.5570   13.6170 C   0  0  0  0  0  0  0  0  0  0  0  0
  -21.3660  -28.6800   13.0550 N   0  0  0  0  0  0  0  0  0  0  0  0
  -22.8140  -27.7280   14.4980 O   0  0  0  0  0  0  0  0  0  0  0  0
  -21.2680  -29.3590   12.3130 H   0  0  0  0  0  0  0  0  0  0  0  0
  -20.1780  -27.8800   13.3550 C   0  0  0  0  0  2  0  0  0  0  0  0
  -20.3350  -26.4160   12.9340 C   0  0  0  0  0  0  0  0  0  0  0  0
  -20.0980  -25.4870   13.8680 N   0  0  0  0  0  0  0  0  0  0  0  0
  -20.6630  -26.1350   11.7790 O   0  0  0  0  0  0  0  0  0  0  0  0
  -19.7900  -25.8080   14.7760 H   0  0  0  0  0  0  0  0  0  0  0  0
  -20.2390  -24.0410   13.6820 C   0  0  0  0  0  2  0  0  0  0  0  0
  -21.7050  -23.6220   13.4340 C   0  0  0  0  0  2  0  0  0  0  0  0
  -22.6630  -23.9750   14.5870 C   0  0  0  0  0  2  0  0  0  0  0  0
  -24.1470  -23.8140   14.2080 C   0  0  0  0  0  2  0  0  0  0  0  0
  -25.0930  -23.8780   15.4220 C   0  0  0  0  0  2  0  0  0  0  0  0
  -26.5870  -23.7870   15.0360 C   0  0  0  0  0  2  0  0  0  0  0  0
  -27.5580  -23.7640   16.2390 C   0  0  0  0  0  2  0  0  0  0  0  0
  -27.7570  -25.1380   16.8980 C   0  0  0  0  0  2  0  0  0  0  0  0
  -28.5180  -25.0680   18.2360 C   0  0  0  0  0  2  0  0  0  0  0  0
  -28.9500  -26.4540   18.7500 C   0  0  0  0  0  2  0  0  0  0  0  0
  -28.4490  -26.7690   20.0520 O   0  0  0  0  0  0  0  0  0  0  0  0
  -24.6210  -31.8640   23.2120 C   0  0  0  0  0  0  0  0  0  0  0  0
  -27.2730  -27.4720   20.0780 C   0  0  0  0  0  0  0  0  0  0  0  0
  -23.4120  -30.4740   21.5670 C   0  0  0  0  0  3  0  0  0  0  0  0
  -24.8690  -28.9460   20.1260 C   0  0  0  0  0  0  0  0  0  0  0  0
  -25.9360  -30.8370   21.3660 C   0  0  0  0  0  2  0  0  0  0  0  0
  -26.0210  -29.4730   20.7130 C   0  0  0  0  0  0  0  0  0  0  0  0
  -27.2170  -28.7320   20.7140 C   0  0  0  0  0  3  0  0  0  0  0  0
  -26.0980  -26.9440   19.5060 C   0  0  0  0  0  3  0  0  0  0  0  0
  -24.9020  -27.6790   19.5230 C   0  0  0  0  0  3  0  0  0  0  0  0
  -23.6180  -29.7840   20.1950 C   0  0  0  0  0  2  0  0  0  0  0  0
  -24.6740  -31.0740   22.1050 N   0  0  0  0  0  0  0  0  0  0  0  0
  -23.5400  -32.1430   23.7470 O   0  0  0  0  0  0  0  0  0  0  0  0
  -22.7420  -29.4630   22.5230 C   0  0  0  0  0  0  0  0  0  0  0  0
  -21.4140  -29.3060   22.3860 N   0  0  0  0  0  0  0  0  0  0  0  0
  -23.4160  -28.8150   23.3260 O   0  0  0  0  0  0  0  0  0  0  0  0
  -20.9250  -29.8920   21.7210 H   0  0  0  0  0  0  0  0  0  0  0  0
  -18.0310  -28.1370   22.8640 C   0  0  0  0  0  0  0  0  0  0  0  0
  -20.5890  -28.3750   23.1490 C   0  0  0  0  0  3  0  0  0  0  0  0
  -20.6640  -26.9350   22.5830 C   0  0  0  0  0  2  0  0  0  0  0  0
  -19.5660  -26.6080   21.5640 C   0  0  0  0  0  2  0  0  0  0  0  0
  -18.1890  -26.7730   22.2170 C   0  0  0  0  0  2  0  0  0  0  0  0
  -19.1540  -28.8940   23.2930 C   0  0  0  0  0  0  0  0  0  0  0  0
  -18.9440  -30.1630   23.8810 C   0  0  0  0  0  3  0  0  0  0  0  0
  -17.6440  -30.6780   24.0360 C   0  0  0  0  0  3  0  0  0  0  0  0
  -16.5370  -29.9140   23.6270 C   0  0  0  0  0  3  0  0  0  0  0  0
  -16.7300  -28.6440   23.0550 C   0  0  0  0  0  3  0  0  0  0  0  0
  -25.9140  -32.4770   23.8390 C   0  0  0  0  0  3  0  0  0  0  0  0
  -26.4450  -31.6530   25.0760 C   0  0  1  0  0  0  0  0  0  0  0  0
  -25.3710  -31.3670   26.1580 C   0  0  0  0  0  1  0  0  0  0  0  0
  -27.0290  -30.3010   24.6020 C   0  0  0  0  0  1  0  0  0  0  0  0
  -27.6040  -32.4280   25.7480 C   0  0  0  0  0  1  0  0  0  0  0  0
  -25.6020  -33.8560   24.2320 N   0  0  0  0  0  0  0  0  0  0  0  0
  -25.8990  -34.9420   23.5070 C   0  0  0  0  0  0  0  0  0  0  0  0
  -26.5490  -34.8930   22.4590 O   0  0  0  0  0  0  0  0  0  0  0  0
  -25.0180  -33.9600   25.0490 H   0  0  0  0  0  0  0  0  0  0  0  0
  -24.1540  -36.7080   23.1870 C   0  0  0  0  0  1  0  0  0  0  0  0
  -25.3780  -36.2980   24.0190 C   0  0  0  0  0  3  0  0  0  0  0  0
  -27.5530  -37.1710   24.8120 C   0  0  0  0  0  1  0  0  0  0  0  0
  -26.3840  -37.3830   23.9650 N   0  0  0  0  0  0  0  0  0  0  0  0
  -25.9630  -38.2710   24.2210 H   0  0  0  0  0  0  0  0  0  0  0  0
  1  3  1  0
  1  2  1  0
  4  1  1  0
  4  5  1  0
  6  5  1  0
  6  7  1  0
  8  7  1  0
  8  9  1  0
 10  9  1  0
 11 13  2  0
 12 11  1  0
 12 10  1  0
 14 12  1  0
 15 11  1  0
 15 16  1  0
 16 17  1  0
 16 18  1  0
 19 16  1  0
 19 20  1  0
 20 22  2  0
 21 20  1  0
 21 24  1  0
 23 21  1  0
 25 24  1  0
 25 26  1  0
 27 26  1  0
 27 29  1  0
 27 30  1  0
 28 27  1  0
 30 31  1  0
 31 32  1  0
 32 33  1  0
 33 42  1  0
 34 42  1  0
 35 40  1  0
 36 37  1  0
 36 35  1  0
 38 37  1  0
 38 47  1  0
 38 39  1  0
 40 34  1  0
 40 39  1  0
 41 34  2  0
 42 43  1  0
 44 45  2  0
 45 64  1  0
 46 45  1  0
 46 49  1  0
 47 44  1  0
 47 48  1  0
 48 46  2  0
 49 50  1  0
 50 51  2  0
 52 55  1  0
 52 51  1  0
 53 52  2  0
 54 53  1  0
 54 49  2  0
 55 56  1  0
 56 57  1  0
 57 58  2  0
 59 58  1  0
 59 63  1  0
 60 59  2  0
 61 56  2  0
 61 60  1  0
 62 61  1  0
 64 65  1  0
 65 68  1  0
 65 67  1  0
 66 64  2  0
 69 70  1  0
 69 44  1  0
 71 69  1  0
 72  1  1  0
 73 72  1  0
 73 75  2  0
 74 73  1  0
 76 74  1  0
 77 78  1  0
 77 74  1  0
 78 80  2  0
 79 82  1  0
 79 78  1  0
 81 79  1  0
 83 82  1  0
 83 84  1  0
 84 86  1  0
 85 83  2  0
 87 84  1  0
 88 87  1  0
 88 89  1  0
 90 89  1  0
 90 91  1  0
 92 91  1  0
 92 93  1  0
 93 94  1  0
 94 95  1  0
 95 96  1  0
 96 97  1  0
 97 99  1  0
 98109  2  0
 99104  1  0
100108  1  0
100110  1  0
101107  1  0
101103  1  0
102108  1  0
103104  2  0
103102  1  0
105106  1  0
105 99  2  0
106101  2  0
107100  1  0
108 98  1  0
110112  2  0
111110  1  0
113111  1  0
114123  2  0
114119  1  0
115111  1  0
115119  1  0
116115  1  0
117118  1  0
117116  1  0
118114  1  0
119120  2  0
120121  1  0
122121  2  0
123122  1  0
124 98  1  0
124129  1  0
124125  1  0
125128  1  1
125126  1  0
127125  1  0
129132  1  0
130134  1  0
130129  1  0
131130  2  0
134133  1  0
136134  1  0
136137  1  0
136135  1  0
M  ISO  4  34 100  42 100  96 101  97 101
M  END
>  <TORSDO>  (41) 
F 52

>  <SCORE>  (41) 
41.002

>  <name>  (41) 
47

>  <ligand_id>  (41) 
47

>  <original_smiles>  (41) 
[H]c1c([H])c([H])c2c(c1[H])C([H])([H])C([H])([H])C([H])([H])C2([H])N([H])C(=O)C1([H])N(C(=O)C([H])(N([H])C(=O)C([H])(N([H])C([H])([H])[H])C([H])([H])[H])C(C([H])([H])[H])(C([H])([H])[H])C([H])([H])[H])C([H])([H])c2c([H])c(OC([H])([H])C([H])([H])C([H])([H])C([H])([H])C([H])([H])C([H])([H])C([H])([H])C([H])([H])C([H])([H])C([H])([H])N([H])C(=O)C([H])([H])N([H])C(=O)C([H])([H])N([H])C(=O)C([H])([H])[N+]([H])([H])C([H])([H])C([H])([H])C([H])([H])C([H])([H])C([H])([H])C([H])([H])C([H])([H])N([H])C(=O)C([H])([H])[N+]([H])([H])C([H])([H])C(=O)N([H])C([H])([H])C([H])([H])C([H])([H])[N+]([H])([H])C([H])([H])C([H])([H])C([H])([H])C([H])([H])N([H])C(=O)N3C([H])([H])C([H])([H])C([H])([H])C([H])(n4nc(-c5c([H])c([H])c(Oc6c([H])c([H])c(F)c([H])c6F)c([H])c5[H])c(C(=O)N([H])[H])c4N([H])[H])C3([H])[H])c([H])c([H])c2C1([H])[H]

>  <smiles>  (41) 
[H]c1c([H])c([H])c2c(c1[H])C([H])([H])C([H])([H])C([H])([H])C2([H])N([H])C(=O)C1([H])N(C(=O)C([H])(N([H])C(=O)C([H])(N([H])C([H])([H])[H])C([H])([H])[H])C(C([H])([H])[H])(C([H])([H])[H])C([H])([H])[H])C([H])([H])c2c([H])c(OC([H])([H])C([H])([H])C([H])([H])C([H])([H])C([H])([H])C([H])([H])C([H])([H])C([H])([H])C([H])([H])C([H])([H])N([H])C(=O)C([H])([H])N([H])C(=O)C([H])([H])N([H])C(=O)C([H])([H])[N+]([H])([H])C([H])([H])C([H])([H])C([H])([H])C([H])([H])C([H])([H])C([H])([H])C([H])([H])N([H])C(=O)C([H])([H])[N+]([H])([H])C([H])([H])C(=O)N([H])C([H])([H])C([H])([H])C([H])([H])[N+]([H])([H])C([H])([H])C([H])([H])C([H])([H])C([H])([H])N([H])C(=O)N3C([H])([H])C([H])([H])C([H])([H])C([H])(n4nc(-c5c([H])c([H])c(Oc6c([H])c([H])c(F)c([H])c6F)c([H])c5[H])c(C(=O)N([H])[H])c4N([H])[H])C3([H])[H])c([H])c([H])c2C1([H])[H]

$$$$
48:0:0
     RDKit          3D

107114  0  0  1  0  0  0  0  0999 V2000
  -22.9270  -25.1700   15.2630 C   0  0  0  0  0  2  0  0  0  0  0  0
  -24.3340  -23.4970   16.4620 C   0  0  0  0  0  0  0  0  0  0  0  0
  -23.2450  -23.8310   15.7580 N   0  0  0  0  0  0  0  0  0  0  0  0
  -25.2480  -24.2890   16.7000 O   0  0  0  0  0  0  0  0  0  0  0  0
  -22.5600  -23.1080   15.5790 H   0  0  0  0  0  0  0  0  0  0  0  0
  -24.4120  -22.0590   16.9740 C   0  0  0  0  0  2  0  0  0  0  0  0
  -25.7100  -21.8100   17.6250 N   0  0  0  0  0  4  0  0  0  0  0  0
  -25.7810  -22.4530   18.4140 H   0  0  0  0  0  0  0  0  0  0  0  0
  -26.4390  -22.0600   16.9780 H   0  0  0  0  0  0  0  0  0  0  0  0
  -25.9120  -20.4440   18.1460 C   0  0  0  0  0  2  0  0  0  0  0  0
  -27.3510  -20.2610   18.6580 C   0  0  0  0  0  2  0  0  0  0  0  0
  -27.5720  -18.9480   19.4220 C   0  0  0  0  0  2  0  0  0  0  0  0
  -29.0220  -18.8250   19.9090 C   0  0  0  0  0  2  0  0  0  0  0  0
  -29.2860  -17.5490   20.7140 C   0  0  0  0  0  2  0  0  0  0  0  0
  -30.7810  -17.4000   21.0500 C   0  0  0  0  0  2  0  0  0  0  0  0
  -31.1280  -16.1580   21.8930 C   0  0  0  0  0  2  0  0  0  0  0  0
  -30.8570  -14.2680   20.2710 C   0  0  0  0  0  0  0  0  0  0  0  0
  -30.3570  -12.2850   18.8890 C   0  0  0  0  0  2  0  0  0  0  0  0
  -29.3480  -12.6040   17.7710 C   0  0  0  0  0  2  0  0  0  0  0  0
  -27.9030  -12.4680   18.2850 C   0  0  0  0  0  2  0  0  0  0  0  0
  -27.6720  -13.2380   19.6110 C   0  0  0  0  0  3  0  0  0  0  0  0
  -28.7740  -12.8930   20.6350 C   0  0  0  0  0  2  0  0  0  0  0  0
  -30.0890  -13.1750   20.0270 N   0  0  0  0  0  0  0  0  0  0  0  0
  -31.8170  -14.6030   19.5720 O   0  0  0  0  0  0  0  0  0  0  0  0
  -30.5180  -14.9360   21.3790 N   0  0  0  0  0  0  0  0  0  0  0  0
  -29.7510  -14.5520   21.9120 H   0  0  0  0  0  0  0  0  0  0  0  0
  -25.3230  -13.8750   20.4570 C   0  0  0  0  0  0  0  0  0  0  0  0
  -24.2590  -13.1140   20.8640 C   0  0  0  0  0  0  0  0  0  0  0  0
  -24.6920  -11.7540   20.7740 C   0  0  0  0  0  0  0  0  0  0  0  0
  -26.3370  -12.9810   20.1500 N   0  0  0  0  0  0  0  0  0  0  0  0
  -25.9610  -11.6990   20.3940 N   0  0  0  0  0  0  0  0  0  0  0  0
  -23.9530  -10.5000   20.9720 C   0  0  0  0  0  0  0  0  0  0  0  0
  -24.3820   -9.5300   21.9050 C   0  0  0  0  0  3  0  0  0  0  0  0
  -23.6450   -8.3410   22.0890 C   0  0  0  0  0  3  0  0  0  0  0  0
  -22.4660   -8.1130   21.3420 C   0  0  0  0  0  0  0  0  0  0  0  0
  -22.0560   -9.0720   20.3980 C   0  0  0  0  0  3  0  0  0  0  0  0
  -22.7930  -10.2530   20.2110 C   0  0  0  0  0  3  0  0  0  0  0  0
  -21.7010   -6.9760   21.4350 O   0  0  0  0  0  0  0  0  0  0  0  0
  -21.6240   -6.2540   22.5980 C   0  0  0  0  0  0  0  0  0  0  0  0
  -21.1340   -6.8200   23.7960 C   0  0  0  0  0  3  0  0  0  0  0  0
  -21.0070   -6.0230   24.9510 C   0  0  0  0  0  3  0  0  0  0  0  0
  -21.3580   -4.6610   24.9110 C   0  0  0  0  0  0  0  0  0  0  0  0
  -21.8410   -4.0940   23.7180 C   0  0  0  0  0  3  0  0  0  0  0  0
  -21.9700   -4.8880   22.5650 C   0  0  0  0  0  0  0  0  0  0  0  0
  -22.4160   -4.3320   21.4120 F   0  0  0  0  0  0  0  0  0  0  0  0
  -21.2300   -3.8930   26.0180 F   0  0  0  0  0  0  0  0  0  0  0  0
  -22.8900  -13.6080   21.2270 C   0  0  0  0  0  0  0  0  0  0  0  0
  -22.1950  -12.8970   22.1110 N   0  0  0  0  0  0  0  0  0  0  0  0
  -22.4440  -14.6570   20.7650 O   0  0  0  0  0  0  0  0  0  0  0  0
  -22.5690  -12.0480   22.5070 H   0  0  0  0  0  0  0  0  0  0  0  0
  -21.2780  -13.2100   22.3960 H   0  0  0  0  0  0  0  0  0  0  0  0
  -25.5060  -15.2470   20.3070 N   0  0  0  0  0  0  0  0  0  0  0  0
  -24.7640  -15.9150   20.4830 H   0  0  0  0  0  0  0  0  0  0  0  0
  -26.3590  -15.6780   19.9750 H   0  0  0  0  0  0  0  0  0  0  0  0
  -21.8030  -25.8260   16.0870 C   0  0  0  0  0  2  0  0  0  0  0  0
  -22.1830  -25.9370   17.4550 O   0  0  0  0  0  0  0  0  0  0  0  0
  -21.4910  -25.0380   18.3150 C   0  0  0  0  0  2  0  0  0  0  0  0
  -22.1270  -25.0700   19.7100 C   0  0  0  0  0  2  0  0  0  0  0  0
  -23.4290  -24.5050   19.6460 O   0  0  0  0  0  0  0  0  0  0  0  0
  -24.0730  -24.4510   20.9170 C   0  0  0  0  0  2  0  0  0  0  0  0
  -25.5370  -24.0490   20.7090 C   0  0  0  0  0  0  0  0  0  0  0  0
  -26.4650  -24.7200   21.4030 N   0  0  0  0  0  0  0  0  0  0  0  0
  -25.8330  -23.2010   19.8630 O   0  0  0  0  0  0  0  0  0  0  0  0
  -26.1380  -25.4200   22.0550 H   0  0  0  0  0  0  0  0  0  0  0  0
  -27.9050  -24.6580   21.1660 C   0  0  0  0  0  2  0  0  0  0  0  0
  -28.3520  -25.4160   19.8900 C   0  0  0  0  0  2  0  0  0  0  0  0
  -28.3480  -26.8410   20.0410 O   0  0  0  0  0  0  0  0  0  0  0  0
  -24.5550  -31.9220   23.2200 C   0  0  0  0  0  0  0  0  0  0  0  0
  -27.1550  -27.5370   20.0340 C   0  0  0  0  0  0  0  0  0  0  0  0
  -23.3240  -30.5490   21.5700 C   0  0  0  0  0  3  0  0  0  0  0  0
  -24.7550  -29.0330   20.1060 C   0  0  0  0  0  0  0  0  0  0  0  0
  -25.8470  -30.9070   21.3500 C   0  0  0  0  0  2  0  0  0  0  0  0
  -25.9190  -29.5460   20.6920 C   0  0  0  0  0  0  0  0  0  0  0  0
  -27.1190  -28.8010   20.6590 C   0  0  0  0  0  3  0  0  0  0  0  0
  -25.9790  -27.0550   19.4140 C   0  0  0  0  0  3  0  0  0  0  0  0
  -24.7770  -27.7810   19.4720 C   0  0  0  0  0  3  0  0  0  0  0  0
  -23.5140  -29.8900   20.1790 C   0  0  0  0  0  2  0  0  0  0  0  0
  -24.5930  -31.1390   22.1050 N   0  0  0  0  0  0  0  0  0  0  0  0
  -23.4800  -32.1910   23.7750 O   0  0  0  0  0  0  0  0  0  0  0  0
  -22.6810  -29.5120   22.5210 C   0  0  0  0  0  0  0  0  0  0  0  0
  -21.3600  -29.3100   22.3810 N   0  0  0  0  0  0  0  0  0  0  0  0
  -23.3700  -28.8930   23.3360 O   0  0  0  0  0  0  0  0  0  0  0  0
  -20.8630  -29.8620   21.6970 H   0  0  0  0  0  0  0  0  0  0  0  0
  -17.9900  -28.1220   22.8860 C   0  0  0  0  0  0  0  0  0  0  0  0
  -20.5500  -28.3600   23.1420 C   0  0  0  0  0  3  0  0  0  0  0  0
  -20.6390  -26.9410   22.5320 C   0  0  0  0  0  2  0  0  0  0  0  0
  -19.5270  -26.6470   21.5200 C   0  0  0  0  0  2  0  0  0  0  0  0
  -18.1520  -26.7890   22.1770 C   0  0  0  0  0  2  0  0  0  0  0  0
  -19.1170  -28.8670   23.3250 C   0  0  0  0  0  0  0  0  0  0  0  0
  -18.9120  -30.1180   23.9460 C   0  0  0  0  0  3  0  0  0  0  0  0
  -17.6130  -30.6270   24.1330 C   0  0  0  0  0  3  0  0  0  0  0  0
  -16.5020  -29.8760   23.7110 C   0  0  0  0  0  3  0  0  0  0  0  0
  -16.6890  -28.6250   23.0980 C   0  0  0  0  0  3  0  0  0  0  0  0
  -25.8510  -32.5360   23.8350 C   0  0  0  0  0  3  0  0  0  0  0  0
  -25.5550  -33.9330   24.1760 N   0  0  0  0  0  0  0  0  0  0  0  0
  -25.8830  -34.9870   23.4160 C   0  0  0  0  0  0  0  0  0  0  0  0
  -26.5390  -34.8860   22.3750 O   0  0  0  0  0  0  0  0  0  0  0  0
  -24.9730  -34.0860   24.9850 H   0  0  0  0  0  0  0  0  0  0  0  0
  -24.1640  -36.7930   23.0820 C   0  0  0  0  0  1  0  0  0  0  0  0
  -25.4060  -36.3740   23.8860 C   0  0  0  0  0  3  0  0  0  0  0  0
  -27.5450  -37.2430   24.7220 C   0  0  0  0  0  1  0  0  0  0  0  0
  -26.4450  -37.4200   23.7770 N   0  0  0  0  0  0  0  0  0  0  0  0
  -26.0440  -38.3420   23.9240 H   0  0  0  0  0  0  0  0  0  0  0  0
  -26.3730  -31.7510   25.1000 C   0  0  1  0  0  0  0  0  0  0  0  0
  -25.2810  -31.4980   26.1640 C   0  0  0  0  0  1  0  0  0  0  0  0
  -26.9590  -30.3790   24.6900 C   0  0  0  0  0  1  0  0  0  0  0  0
  -27.5200  -32.5410   25.7740 C   0  0  0  0  0  1  0  0  0  0  0  0
  1  3  1  0
  1 55  1  0
  2  4  2  0
  2  6  1  0
  3  2  1  0
  5  3  1  0
  6  7  1  0
  7 10  1  0
  7  8  1  0
  9  7  1  0
 10 11  1  0
 11 12  1  0
 12 13  1  0
 13 14  1  0
 14 15  1  0
 15 16  1  0
 17 25  1  0
 18 23  1  0
 19 20  1  0
 19 18  1  0
 21 20  1  0
 21 30  1  0
 21 22  1  0
 23 17  1  0
 23 22  1  0
 24 17  2  0
 25 16  1  0
 25 26  1  0
 27 28  2  0
 28 47  1  0
 29 28  1  0
 29 32  1  0
 30 31  1  0
 30 27  1  0
 31 29  2  0
 32 33  1  0
 33 34  2  0
 35 38  1  0
 35 34  1  0
 36 35  2  0
 37 36  1  0
 37 32  2  0
 38 39  1  0
 39 40  1  0
 40 41  2  0
 42 41  1  0
 42 46  1  0
 43 42  2  0
 44 39  2  0
 44 43  1  0
 45 44  1  0
 47 48  1  0
 48 51  1  0
 48 50  1  0
 49 47  2  0
 52 27  1  0
 52 53  1  0
 54 52  1  0
 55 56  1  0
 56 57  1  0
 57 58  1  0
 59 58  1  0
 59 60  1  0
 61 60  1  0
 61 62  1  0
 62 64  1  0
 63 61  2  0
 65 62  1  0
 66 67  1  0
 66 65  1  0
 68 79  2  0
 69 67  1  0
 69 74  1  0
 70 78  1  0
 70 80  1  0
 71 77  1  0
 71 73  1  0
 72 78  1  0
 73 72  1  0
 74 73  2  0
 75 76  1  0
 75 69  2  0
 76 71  2  0
 77 70  1  0
 78 68  1  0
 80 82  2  0
 81 80  1  0
 83 81  1  0
 84 93  2  0
 84 89  1  0
 85 81  1  0
 85 89  1  0
 86 85  1  0
 87 88  1  0
 87 86  1  0
 88 84  1  0
 89 90  2  0
 90 91  1  0
 92 91  2  0
 93 92  1  0
 94 68  1  0
 94 95  1  0
 94104  1  0
 95 98  1  0
 96100  1  0
 96 95  1  0
 97 96  2  0
100 99  1  0
102100  1  0
102103  1  0
102101  1  0
104107  1  1
104105  1  0
106104  1  0
M  ISO  4  17 100  25 100  66 101  67 101
M  END
>  <TORSDO>  (42) 
F 35

>  <SCORE>  (42) 
-10.477

>  <name>  (42) 
48

>  <ligand_id>  (42) 
48

>  <original_smiles>  (42) 
[H]c1c([H])c([H])c2c(c1[H])C([H])([H])C([H])([H])C([H])([H])C2([H])N([H])C(=O)C1([H])N(C(=O)C([H])(N([H])C(=O)C([H])(N([H])C([H])([H])[H])C([H])([H])[H])C(C([H])([H])[H])(C([H])([H])[H])C([H])([H])[H])C([H])([H])c2c([H])c(OC([H])([H])C([H])([H])N([H])C(=O)C([H])([H])OC([H])([H])C([H])([H])OC([H])([H])C([H])([H])N([H])C(=O)C([H])([H])[N+]([H])([H])C([H])([H])C([H])([H])C([H])([H])C([H])([H])C([H])([H])C([H])([H])C([H])([H])N([H])C(=O)N3C([H])([H])C([H])([H])C([H])([H])C([H])(n4nc(-c5c([H])c([H])c(Oc6c([H])c([H])c(F)c([H])c6F)c([H])c5[H])c(C(=O)N([H])[H])c4N([H])[H])C3([H])[H])c([H])c([H])c2C1([H])[H]

>  <smiles>  (42) 
[H]c1c([H])c([H])c2c(c1[H])C([H])([H])C([H])([H])C([H])([H])C2([H])N([H])C(=O)C1([H])N(C(=O)C([H])(N([H])C(=O)C([H])(N([H])C([H])([H])[H])C([H])([H])[H])C(C([H])([H])[H])(C([H])([H])[H])C([H])([H])[H])C([H])([H])c2c([H])c(OC([H])([H])C([H])([H])N([H])C(=O)C([H])([H])OC([H])([H])C([H])([H])OC([H])([H])C([H])([H])N([H])C(=O)C([H])([H])[N+]([H])([H])C([H])([H])C([H])([H])C([H])([H])C([H])([H])C([H])([H])C([H])([H])C([H])([H])N([H])C(=O)N3C([H])([H])C([H])([H])C([H])([H])C([H])(n4nc(-c5c([H])c([H])c(Oc6c([H])c([H])c(F)c([H])c6F)c([H])c5[H])c(C(=O)N([H])[H])c4N([H])[H])C3([H])[H])c([H])c([H])c2C1([H])[H]

$$$$
49:0:0
     RDKit          3D

 96103  0  0  1  0  0  0  0  0999 V2000
  -24.4760  -23.0270   23.9310 C   0  0  0  0  0  2  0  0  0  0  0  0
  -25.7160  -22.6120   23.3740 O   0  0  0  0  0  0  0  0  0  0  0  0
  -26.6310  -22.0160   24.2970 C   0  0  0  0  0  2  0  0  0  0  0  0
  -27.9590  -22.7870   24.2500 C   0  0  0  0  0  0  0  0  0  0  0  0
  -27.9870  -23.8720   23.4660 N   0  0  0  0  0  0  0  0  0  0  0  0
  -28.9110  -22.4410   24.9530 O   0  0  0  0  0  0  0  0  0  0  0  0
  -27.1250  -24.0360   22.9580 H   0  0  0  0  0  0  0  0  0  0  0  0
  -28.9850  -24.9380   23.4850 C   0  0  0  0  0  2  0  0  0  0  0  0
  -29.6110  -25.2020   22.1020 C   0  0  0  0  0  2  0  0  0  0  0  0
  -30.4970  -26.4600   22.1370 C   0  0  0  0  0  2  0  0  0  0  0  0
  -31.1400  -26.8610   20.7950 C   0  0  0  0  0  2  0  0  0  0  0  0
  -32.6280  -28.9430   20.5810 C   0  0  0  0  0  0  0  0  0  0  0  0
  -33.7700  -29.9880   18.6680 C   0  0  0  0  0  2  0  0  0  0  0  0
  -32.7190  -30.6320   17.7370 C   0  0  0  0  0  2  0  0  0  0  0  0
  -32.1730  -29.6040   16.7240 C   0  0  0  0  0  2  0  0  0  0  0  0
  -31.7600  -28.2690   17.3960 C   0  0  0  0  0  3  0  0  0  0  0  0
  -32.8800  -27.7740   18.3380 C   0  0  0  0  0  2  0  0  0  0  0  0
  -33.1320  -28.8340   19.3220 N   0  0  0  0  0  0  0  0  0  0  0  0
  -32.9300  -29.8670   21.3380 O   0  0  0  0  0  0  0  0  0  0  0  0
  -31.4950  -28.2780   20.8650 N   0  0  0  0  0  0  0  0  0  0  0  0
  -31.0020  -28.7410   21.6130 H   0  0  0  0  0  0  0  0  0  0  0  0
  -30.4350  -26.2670   16.4740 C   0  0  0  0  0  0  0  0  0  0  0  0
  -30.4600  -25.6390   15.2580 C   0  0  0  0  0  0  0  0  0  0  0  0
  -31.4630  -26.3070   14.4890 C   0  0  0  0  0  0  0  0  0  0  0  0
  -31.4010  -27.2580   16.4090 N   0  0  0  0  0  0  0  0  0  0  0  0
  -32.0530  -27.2440   15.2180 N   0  0  0  0  0  0  0  0  0  0  0  0
  -31.8540  -26.1490   13.0820 C   0  0  0  0  0  0  0  0  0  0  0  0
  -33.2060  -26.0040   12.7030 C   0  0  0  0  0  3  0  0  0  0  0  0
  -33.5560  -25.8350   11.3470 C   0  0  0  0  0  3  0  0  0  0  0  0
  -32.5480  -25.8070   10.3530 C   0  0  0  0  0  0  0  0  0  0  0  0
  -31.2040  -25.9740   10.7340 C   0  0  0  0  0  3  0  0  0  0  0  0
  -30.8590  -26.1480   12.0840 C   0  0  0  0  0  3  0  0  0  0  0  0
  -32.7940  -25.6740    9.0090 O   0  0  0  0  0  0  0  0  0  0  0  0
  -33.9670  -25.1370    8.5440 C   0  0  0  0  0  0  0  0  0  0  0  0
  -34.4120  -23.8560    8.9390 C   0  0  0  0  0  3  0  0  0  0  0  0
  -35.5890  -23.3170    8.3800 C   0  0  0  0  0  3  0  0  0  0  0  0
  -36.3150  -24.0520    7.4250 C   0  0  0  0  0  0  0  0  0  0  0  0
  -35.8720  -25.3260    7.0290 C   0  0  0  0  0  3  0  0  0  0  0  0
  -34.7000  -25.8650    7.5850 C   0  0  0  0  0  0  0  0  0  0  0  0
  -34.2650  -27.0850    7.1840 F   0  0  0  0  0  0  0  0  0  0  0  0
  -37.4410  -23.5320    6.8820 F   0  0  0  0  0  0  0  0  0  0  0  0
  -29.5430  -24.5440   14.7970 C   0  0  0  0  0  0  0  0  0  0  0  0
  -30.0330  -23.6580   13.9380 N   0  0  0  0  0  0  0  0  0  0  0  0
  -28.3990  -24.4390   15.2370 O   0  0  0  0  0  0  0  0  0  0  0  0
  -30.9780  -23.7390   13.5910 H   0  0  0  0  0  0  0  0  0  0  0  0
  -29.4550  -22.8920   13.6240 H   0  0  0  0  0  0  0  0  0  0  0  0
  -29.6630  -26.0940   17.6190 N   0  0  0  0  0  0  0  0  0  0  0  0
  -28.9020  -25.4260   17.6630 H   0  0  0  0  0  0  0  0  0  0  0  0
  -29.7080  -26.6970   18.4320 H   0  0  0  0  0  0  0  0  0  0  0  0
  -24.3230  -24.5500   23.7710 C   0  0  0  0  0  2  0  0  0  0  0  0
  -24.7830  -25.3730   24.9890 C   0  0  0  0  0  2  0  0  0  0  0  0
  -24.6510  -26.7630   24.7290 O   0  0  0  0  0  0  0  0  0  0  0  0
  -25.8730  -27.4070   24.3750 C   0  0  0  0  0  2  0  0  0  0  0  0
  -25.6100  -28.3840   23.2220 C   0  0  0  0  0  2  0  0  0  0  0  0
  -24.5660  -29.4940   23.4920 C   0  0  0  0  0  2  0  0  0  0  0  0
  -23.1980  -29.0920   23.6030 O   0  0  0  0  0  0  0  0  0  0  0  0
  -17.3790  -25.8040   21.2370 C   0  0  0  0  0  0  0  0  0  0  0  0
  -22.4430  -28.8090   22.4840 C   0  0  0  0  0  0  0  0  0  0  0  0
  -18.9480  -26.5820   19.4900 C   0  0  0  0  0  3  0  0  0  0  0  0
  -20.7960  -28.1530   20.2770 C   0  0  0  0  0  0  0  0  0  0  0  0
  -18.8070  -27.7790   21.7450 C   0  0  0  0  0  2  0  0  0  0  0  0
  -20.2670  -28.1400   21.5740 C   0  0  0  0  0  0  0  0  0  0  0  0
  -21.0890  -28.4560   22.6760 C   0  0  0  0  0  3  0  0  0  0  0  0
  -22.9500  -28.8470   21.1630 C   0  0  0  0  0  3  0  0  0  0  0  0
  -22.1400  -28.5010   20.0670 C   0  0  0  0  0  3  0  0  0  0  0  0
  -19.8590  -27.7910   19.1490 C   0  0  0  0  0  2  0  0  0  0  0  0
  -18.3540  -26.6800   20.8630 N   0  0  0  0  0  0  0  0  0  0  0  0
  -16.9440  -24.9550   20.4460 O   0  0  0  0  0  0  0  0  0  0  0  0
  -19.7480  -25.2810   19.2580 C   0  0  0  0  0  0  0  0  0  0  0  0
  -20.0780  -25.0010   17.9880 N   0  0  0  0  0  0  0  0  0  0  0  0
  -20.0770  -24.5640   20.2070 O   0  0  0  0  0  0  0  0  0  0  0  0
  -19.7610  -25.6330   17.2660 H   0  0  0  0  0  0  0  0  0  0  0  0
  -21.7280  -23.5510   15.1240 C   0  0  0  0  0  0  0  0  0  0  0  0
  -20.8570  -23.8480   17.5380 C   0  0  0  0  0  3  0  0  0  0  0  0
  -22.3420  -23.9830   17.9480 C   0  0  0  0  0  2  0  0  0  0  0  0
  -23.2070  -24.6390   16.8680 C   0  0  0  0  0  2  0  0  0  0  0  0
  -23.1550  -23.8280   15.5700 C   0  0  0  0  0  2  0  0  0  0  0  0
  -20.6490  -23.5770   16.0450 C   0  0  0  0  0  0  0  0  0  0  0  0
  -19.3370  -23.3510   15.5710 C   0  0  0  0  0  3  0  0  0  0  0  0
  -19.0990  -23.1000   14.2060 C   0  0  0  0  0  3  0  0  0  0  0  0
  -20.1730  -23.0580   13.3020 C   0  0  0  0  0  3  0  0  0  0  0  0
  -21.4840  -23.2790   13.7620 C   0  0  0  0  0  3  0  0  0  0  0  0
  -16.7500  -25.8430   22.6650 C   0  0  0  0  0  3  0  0  0  0  0  0
  -15.2950  -25.6970   22.5090 N   0  0  0  0  0  0  0  0  0  0  0  0
  -14.4250  -26.7150   22.5060 C   0  0  0  0  0  0  0  0  0  0  0  0
  -14.7630  -27.8840   22.7120 O   0  0  0  0  0  0  0  0  0  0  0  0
  -14.9550  -24.7730   22.2840 H   0  0  0  0  0  0  0  0  0  0  0  0
  -12.6150  -26.6830   20.7620 C   0  0  0  0  0  1  0  0  0  0  0  0
  -12.9460  -26.3850   22.2330 C   0  0  0  0  0  3  0  0  0  0  0  0
  -12.1170  -26.7300   24.5180 C   0  0  0  0  0  1  0  0  0  0  0  0
  -12.0090  -27.1170   23.1130 N   0  0  0  0  0  0  0  0  0  0  0  0
  -11.0470  -26.9700   22.8170 H   0  0  0  0  0  0  0  0  0  0  0  0
  -17.3240  -24.7340   23.6290 C   0  0  1  0  0  0  0  0  0  0  0  0
  -17.3010  -23.3110   23.0260 C   0  0  0  0  0  1  0  0  0  0  0  0
  -18.7830  -25.0560   24.0210 C   0  0  0  0  0  1  0  0  0  0  0  0
  -16.5090  -24.7110   24.9440 C   0  0  0  0  0  1  0  0  0  0  0  0
  2  1  1  0
  2  3  1  0
  4  3  1  0
  4  6  2  0
  5  8  1  0
  5  4  1  0
  7  5  1  0
  9 10  1  0
  9  8  1  0
 11 20  1  0
 11 10  1  0
 12 20  1  0
 12 19  2  0
 13 18  1  0
 14 13  1  0
 15 16  1  0
 15 14  1  0
 16 25  1  0
 16 17  1  0
 17 18  1  0
 18 12  1  0
 20 21  1  0
 22 47  1  0
 23 22  2  0
 24 26  2  0
 24 23  1  0
 25 22  1  0
 26 25  1  0
 27 24  1  0
 28 27  1  0
 29 28  2  0
 30 31  2  0
 30 29  1  0
 31 32  1  0
 32 27  2  0
 33 30  1  0
 34 35  1  0
 34 33  1  0
 36 35  2  0
 37 36  1  0
 38 37  2  0
 38 39  1  0
 39 34  2  0
 40 39  1  0
 41 37  1  0
 42 44  2  0
 42 23  1  0
 43 42  1  0
 45 43  1  0
 46 43  1  0
 47 48  1  0
 47 49  1  0
 50  1  1  0
 50 51  1  0
 52 51  1  0
 53 52  1  0
 54 55  1  0
 54 53  1  0
 55 56  1  0
 58 63  1  0
 58 56  1  0
 59 69  1  0
 59 67  1  0
 60 62  1  0
 62 61  1  0
 62 63  2  0
 64 58  2  0
 65 60  2  0
 65 64  1  0
 66 59  1  0
 66 60  1  0
 67 57  1  0
 67 61  1  0
 68 57  2  0
 69 71  2  0
 70 69  1  0
 72 70  1  0
 73 77  1  0
 73 78  1  0
 74 75  1  0
 74 70  1  0
 76 75  1  0
 77 76  1  0
 78 74  1  0
 79 78  2  0
 80 79  1  0
 81 82  1  0
 81 80  2  0
 82 73  2  0
 83 57  1  0
 83 93  1  0
 84 83  1  0
 85 84  1  0
 85 86  2  0
 87 84  1  0
 89 88  1  0
 89 85  1  0
 89 91  1  0
 91 90  1  0
 92 91  1  0
 93 95  1  1
 93 96  1  0
 94 93  1  0
M  ISO  4  12 100  20 100  55 101  56 101
M  END
>  <TORSDO>  (43) 
F 29

>  <SCORE>  (43) 
23.084

>  <name>  (43) 
49

>  <ligand_id>  (43) 
49

>  <original_smiles>  (43) 
[H]c1c([H])c([H])c2c(c1[H])C([H])([H])C([H])([H])C([H])([H])C2([H])N([H])C(=O)C1([H])N(C(=O)C([H])(N([H])C(=O)C([H])(N([H])C([H])([H])[H])C([H])([H])[H])C(C([H])([H])[H])(C([H])([H])[H])C([H])([H])[H])C([H])([H])c2c([H])c(OC([H])([H])C([H])([H])C([H])([H])OC([H])([H])C([H])([H])C([H])([H])OC([H])([H])C(=O)N([H])C([H])([H])C([H])([H])C([H])([H])C([H])([H])N([H])C(=O)N3C([H])([H])C([H])([H])C([H])([H])C([H])(n4nc(-c5c([H])c([H])c(Oc6c([H])c([H])c(F)c([H])c6F)c([H])c5[H])c(C(=O)N([H])[H])c4N([H])[H])C3([H])[H])c([H])c([H])c2C1([H])[H]

>  <smiles>  (43) 
[H]c1c([H])c([H])c2c(c1[H])C([H])([H])C([H])([H])C([H])([H])C2([H])N([H])C(=O)C1([H])N(C(=O)C([H])(N([H])C(=O)C([H])(N([H])C([H])([H])[H])C([H])([H])[H])C(C([H])([H])[H])(C([H])([H])[H])C([H])([H])[H])C([H])([H])c2c([H])c(OC([H])([H])C([H])([H])C([H])([H])OC([H])([H])C([H])([H])C([H])([H])OC([H])([H])C(=O)N([H])C([H])([H])C([H])([H])C([H])([H])C([H])([H])N([H])C(=O)N3C([H])([H])C([H])([H])C([H])([H])C([H])(n4nc(-c5c([H])c([H])c(Oc6c([H])c([H])c(F)c([H])c6F)c([H])c5[H])c(C(=O)N([H])[H])c4N([H])[H])C3([H])[H])c([H])c([H])c2C1([H])[H]

$$$$
50:0:0
     RDKit          3D

142149  0  0  1  0  0  0  0  0999 V2000
  -13.7610  -29.3610   25.3170 C   0  0  0  0  0  2  0  0  0  0  0  0
  -13.4690  -28.4040   26.4770 C   0  0  0  0  0  2  0  0  0  0  0  0
  -14.5950  -27.5450   26.5590 O   0  0  0  0  0  0  0  0  0  0  0  0
  -14.5160  -26.5510   27.5710 C   0  0  0  0  0  2  0  0  0  0  0  0
  -15.5320  -25.4540   27.2300 C   0  0  0  0  0  0  0  0  0  0  0  0
  -15.1070  -24.1890   27.3060 N   0  0  0  0  0  0  0  0  0  0  0  0
  -16.6650  -25.7490   26.8430 O   0  0  0  0  0  0  0  0  0  0  0  0
  -14.1770  -24.0250   27.6670 H   0  0  0  0  0  0  0  0  0  0  0  0
  -15.8440  -23.0230   26.8240 C   0  0  0  0  0  2  0  0  0  0  0  0
  -17.0350  -22.6100   27.7000 C   0  0  0  0  0  0  0  0  0  0  0  0
  -17.8810  -21.7350   27.1510 N   0  0  0  0  0  0  0  0  0  0  0  0
  -17.1690  -23.0420   28.8490 O   0  0  0  0  0  0  0  0  0  0  0  0
  -17.7140  -21.4600   26.1930 H   0  0  0  0  0  0  0  0  0  0  0  0
  -19.0630  -21.1660   27.7960 C   0  0  0  0  0  2  0  0  0  0  0  0
  -20.3360  -21.9910   27.5650 C   0  0  0  0  0  0  0  0  0  0  0  0
  -21.4120  -21.6190   28.2650 N   0  0  0  0  0  0  0  0  0  0  0  0
  -20.3520  -22.9260   26.7600 O   0  0  0  0  0  0  0  0  0  0  0  0
  -21.3170  -20.8180   28.8750 H   0  0  0  0  0  0  0  0  0  0  0  0
  -22.7620  -22.1650   28.1210 C   0  0  0  0  0  2  0  0  0  0  0  0
  -23.6350  -21.2980   27.2010 C   0  0  0  0  0  0  0  0  0  0  0  0
  -24.9460  -21.5700   27.1740 N   0  0  0  0  0  0  0  0  0  0  0  0
  -23.1370  -20.3870   26.5330 O   0  0  0  0  0  0  0  0  0  0  0  0
  -25.2800  -22.3210   27.7660 H   0  0  0  0  0  0  0  0  0  0  0  0
  -25.9480  -20.8220   26.4160 C   0  0  0  0  0  2  0  0  0  0  0  0
  -26.0790  -21.3200   24.9630 C   0  0  0  0  0  2  0  0  0  0  0  0
  -26.8160  -22.6680   24.8330 C   0  0  0  0  0  2  0  0  0  0  0  0
  -26.8640  -23.1650   23.3800 C   0  0  0  0  0  2  0  0  0  0  0  0
  -27.7440  -24.4090   23.1660 C   0  0  0  0  0  2  0  0  0  0  0  0
  -27.6090  -24.9760   21.7410 C   0  0  0  0  0  2  0  0  0  0  0  0
  -28.5850  -26.1360   21.4340 C   0  0  0  0  0  2  0  0  0  0  0  0
  -28.3520  -26.6980   20.1380 O   0  0  0  0  0  0  0  0  0  0  0  0
  -24.6100  -31.8720   23.2130 C   0  0  0  0  0  0  0  0  0  0  0  0
  -27.2270  -27.4770   20.0950 C   0  0  0  0  0  0  0  0  0  0  0  0
  -23.3960  -30.4950   21.5540 C   0  0  0  0  0  3  0  0  0  0  0  0
  -24.8430  -28.9710   20.1080 C   0  0  0  0  0  0  0  0  0  0  0  0
  -25.9180  -30.8540   21.3560 C   0  0  0  0  0  2  0  0  0  0  0  0
  -25.9980  -29.4910   20.7050 C   0  0  0  0  0  0  0  0  0  0  0  0
  -27.1950  -28.7480   20.7040 C   0  0  0  0  0  3  0  0  0  0  0  0
  -26.0700  -26.9720   19.4700 C   0  0  0  0  0  3  0  0  0  0  0  0
  -24.8710  -27.7100   19.4840 C   0  0  0  0  0  3  0  0  0  0  0  0
  -23.6010  -29.8310   20.1650 C   0  0  0  0  0  2  0  0  0  0  0  0
  -24.6590  -31.0880   22.1000 N   0  0  0  0  0  0  0  0  0  0  0  0
  -23.5290  -32.1450   23.7570 O   0  0  0  0  0  0  0  0  0  0  0  0
  -22.7420  -29.4680   22.5030 C   0  0  0  0  0  0  0  0  0  0  0  0
  -21.4160  -29.3020   22.3780 N   0  0  0  0  0  0  0  0  0  0  0  0
  -23.4240  -28.8230   23.3030 O   0  0  0  0  0  0  0  0  0  0  0  0
  -20.9290  -29.8780   21.7070 H   0  0  0  0  0  0  0  0  0  0  0  0
  -18.0350  -28.1420   22.8700 C   0  0  0  0  0  0  0  0  0  0  0  0
  -20.5960  -28.3610   23.1360 C   0  0  0  0  0  3  0  0  0  0  0  0
  -20.6850  -26.9420   22.5260 C   0  0  0  0  0  2  0  0  0  0  0  0
  -19.5520  -26.6300   21.5460 C   0  0  0  0  0  2  0  0  0  0  0  0
  -18.1960  -26.7790   22.2300 C   0  0  0  0  0  2  0  0  0  0  0  0
  -19.1640  -28.8850   23.3010 C   0  0  0  0  0  0  0  0  0  0  0  0
  -18.9650  -30.1490   23.8970 C   0  0  0  0  0  3  0  0  0  0  0  0
  -17.6730  -30.6860   24.0320 C   0  0  0  0  0  3  0  0  0  0  0  0
  -16.5630  -29.9510   23.5850 C   0  0  0  0  0  3  0  0  0  0  0  0
  -16.7390  -28.6710   23.0310 C   0  0  0  0  0  3  0  0  0  0  0  0
  -25.9000  -32.4860   23.8430 C   0  0  0  0  0  3  0  0  0  0  0  0
  -26.4450  -31.6620   25.0730 C   0  0  1  0  0  0  0  0  0  0  0  0
  -25.3750  -31.3690   26.1490 C   0  0  0  0  0  1  0  0  0  0  0  0
  -27.0220  -30.3060   24.6030 C   0  0  0  0  0  1  0  0  0  0  0  0
  -27.6060  -32.4290   25.7470 C   0  0  0  0  0  1  0  0  0  0  0  0
  -25.5870  -33.8650   24.2360 N   0  0  0  0  0  0  0  0  0  0  0  0
  -25.9030  -34.9510   23.5170 C   0  0  0  0  0  0  0  0  0  0  0  0
  -26.5580  -34.8940   22.4720 O   0  0  0  0  0  0  0  0  0  0  0  0
  -25.0000  -33.9810   25.0490 H   0  0  0  0  0  0  0  0  0  0  0  0
  -24.1480  -36.7340   23.2640 C   0  0  0  0  0  1  0  0  0  0  0  0
  -25.4100  -36.3150   24.0350 C   0  0  0  0  0  3  0  0  0  0  0  0
  -27.5590  -37.1820   24.8460 C   0  0  0  0  0  1  0  0  0  0  0  0
  -26.4300  -37.3820   23.9420 N   0  0  0  0  0  0  0  0  0  0  0  0
  -26.0200  -38.2910   24.1410 H   0  0  0  0  0  0  0  0  0  0  0  0
  -12.5510  -30.0850   24.7200 C   0  0  0  0  0  2  0  0  0  0  0  0
  -13.0380  -30.8810   23.6420 O   0  0  0  0  0  0  0  0  0  0  0  0
  -12.1110  -31.0850   22.5800 C   0  0  0  0  0  2  0  0  0  0  0  0
  -12.3050  -30.0090   21.4930 C   0  0  0  0  0  2  0  0  0  0  0  0
  -14.1190  -29.4600   19.8640 C   0  0  0  0  0  0  0  0  0  0  0  0
  -13.6870  -30.0040   21.0100 N   0  0  0  0  0  0  0  0  0  0  0  0
  -13.3560  -28.9140   19.0620 O   0  0  0  0  0  0  0  0  0  0  0  0
  -14.3710  -30.4390   21.6170 H   0  0  0  0  0  0  0  0  0  0  0  0
  -15.6250  -29.5780   19.5670 C   0  0  0  0  0  2  0  0  0  0  0  0
  -16.3400  -27.3930   18.6000 C   0  0  0  0  0  0  0  0  0  0  0  0
  -16.1280  -28.7100   18.4980 N   0  0  0  0  0  0  0  0  0  0  0  0
  -15.9610  -26.7360   19.5710 O   0  0  0  0  0  0  0  0  0  0  0  0
  -16.4240  -29.1660   17.6450 H   0  0  0  0  0  0  0  0  0  0  0  0
  -17.0900  -26.7070   17.4530 C   0  0  0  0  0  2  0  0  0  0  0  0
  -18.8310  -25.0650   18.1740 C   0  0  0  0  0  0  0  0  0  0  0  0
  -18.4480  -26.3070   17.8440 N   0  0  0  0  0  0  0  0  0  0  0  0
  -18.0310  -24.1290   18.2270 O   0  0  0  0  0  0  0  0  0  0  0  0
  -19.1380  -27.0470   17.8670 H   0  0  0  0  0  0  0  0  0  0  0  0
  -20.3270  -24.8340   18.4580 C   0  0  0  0  0  2  0  0  0  0  0  0
  -20.6720  -23.3800   18.8730 C   0  0  0  0  0  2  0  0  0  0  0  0
  -22.0800  -23.2410   19.3200 N   0  0  0  0  0  4  0  0  0  0  0  0
  -22.1930  -23.7590   20.1760 H   0  0  0  0  0  0  0  0  0  0  0  0
  -22.6780  -23.6530   18.6220 H   0  0  0  0  0  0  0  0  0  0  0  0
  -22.5350  -21.8510   19.5690 C   0  0  0  0  0  2  0  0  0  0  0  0
  -24.0260  -21.8020   19.9850 C   0  0  0  0  0  2  0  0  0  0  0  0
  -24.5420  -20.3690   20.2520 C   0  0  0  0  0  2  0  0  0  0  0  0
  -26.0720  -20.2740   20.4900 C   0  0  0  0  0  2  0  0  0  0  0  0
  -26.5240  -18.8760   20.6870 N   0  0  0  0  0  4  0  0  0  0  0  0
  -26.2150  -18.3320   19.9010 H   0  0  0  0  0  0  0  0  0  0  0  0
  -26.0770  -18.4990   21.5070 H   0  0  0  0  0  0  0  0  0  0  0  0
  -27.9910  -18.6850   20.8350 C   0  0  0  0  0  2  0  0  0  0  0  0
  -28.3320  -17.1800   20.9100 C   0  0  0  0  0  2  0  0  0  0  0  0
  -29.8180  -16.8000   21.1180 C   0  0  0  0  0  2  0  0  0  0  0  0
  -30.6510  -14.4510   20.6090 C   0  0  0  0  0  0  0  0  0  0  0  0
  -30.4390  -12.3130   19.3890 C   0  0  0  0  0  2  0  0  0  0  0  0
  -29.4860  -12.5310   18.1950 C   0  0  0  0  0  2  0  0  0  0  0  0
  -28.0050  -12.3900   18.6050 C   0  0  0  0  0  2  0  0  0  0  0  0
  -27.6680  -13.1940   19.8870 C   0  0  0  0  0  3  0  0  0  0  0  0
  -28.7100  -12.9010   20.9890 C   0  0  0  0  0  2  0  0  0  0  0  0
  -30.0440  -13.2450   20.4550 N   0  0  0  0  0  0  0  0  0  0  0  0
  -31.7290  -14.7470   20.0790 O   0  0  0  0  0  0  0  0  0  0  0  0
  -29.8930  -15.3430   21.2690 N   0  0  0  0  0  0  0  0  0  0  0  0
  -29.0970  -14.9250   21.7280 H   0  0  0  0  0  0  0  0  0  0  0  0
  -25.2620  -13.8140   20.5620 C   0  0  0  0  0  0  0  0  0  0  0  0
  -24.1920  -13.0430   20.9260 C   0  0  0  0  0  0  0  0  0  0  0  0
  -24.6440  -11.6910   20.8850 C   0  0  0  0  0  0  0  0  0  0  0  0
  -26.3060  -12.9290   20.3440 N   0  0  0  0  0  0  0  0  0  0  0  0
  -25.9350  -11.6480   20.5900 N   0  0  0  0  0  0  0  0  0  0  0  0
  -23.9070  -10.4300   21.0470 C   0  0  0  0  0  0  0  0  0  0  0  0
  -24.3610   -9.4150   21.9160 C   0  0  0  0  0  3  0  0  0  0  0  0
  -23.6290   -8.2180   22.0700 C   0  0  0  0  0  3  0  0  0  0  0  0
  -22.4240   -8.0270   21.3540 C   0  0  0  0  0  0  0  0  0  0  0  0
  -21.9870   -9.0300   20.4710 C   0  0  0  0  0  3  0  0  0  0  0  0
  -22.7220  -10.2170   20.3150 C   0  0  0  0  0  3  0  0  0  0  0  0
  -21.6580   -6.8880   21.4200 O   0  0  0  0  0  0  0  0  0  0  0  0
  -21.6790   -6.0720   22.5230 C   0  0  0  0  0  0  0  0  0  0  0  0
  -21.3980   -6.5630   23.8160 C   0  0  0  0  0  3  0  0  0  0  0  0
  -21.3690   -5.6800   24.9130 C   0  0  0  0  0  3  0  0  0  0  0  0
  -21.6080   -4.3060   24.7170 C   0  0  0  0  0  0  0  0  0  0  0  0
  -21.8810   -3.8150   23.4280 C   0  0  0  0  0  3  0  0  0  0  0  0
  -21.9180   -4.6960   22.3340 C   0  0  0  0  0  0  0  0  0  0  0  0
  -22.1640   -4.2140   21.0910 F   0  0  0  0  0  0  0  0  0  0  0  0
  -21.5680   -3.4540   25.7680 F   0  0  0  0  0  0  0  0  0  0  0  0
  -22.7930  -13.5250   21.1900 C   0  0  0  0  0  0  0  0  0  0  0  0
  -22.0640  -12.8360   22.0570 N   0  0  0  0  0  0  0  0  0  0  0  0
  -22.3640  -14.5530   20.6700 O   0  0  0  0  0  0  0  0  0  0  0  0
  -22.4290  -12.0080   22.5030 H   0  0  0  0  0  0  0  0  0  0  0  0
  -21.1350  -13.1560   22.2960 H   0  0  0  0  0  0  0  0  0  0  0  0
  -25.4240  -15.1830   20.3640 N   0  0  0  0  0  0  0  0  0  0  0  0
  -24.5610  -15.7080   20.2800 H   0  0  0  0  0  0  0  0  0  0  0  0
  -26.1020  -15.4560   19.6660 H   0  0  0  0  0  0  0  0  0  0  0  0
  1  2  1  0
  2  3  1  0
  3  4  1  0
  5  6  1  0
  5  4  1  0
  6  8  1  0
  7  5  2  0
  9  6  1  0
  9 10  1  0
 10 12  2  0
 11 10  1  0
 11 14  1  0
 13 11  1  0
 15 14  1  0
 15 16  1  0
 16 18  1  0
 17 15  2  0
 19 16  1  0
 20 19  1  0
 21 20  1  0
 21 23  1  0
 22 20  2  0
 24 21  1  0
 25 24  1  0
 26 25  1  0
 27 26  1  0
 28 27  1  0
 29 28  1  0
 30 29  1  0
 31 30  1  0
 32 43  2  0
 33 31  1  0
 33 38  1  0
 34 42  1  0
 34 44  1  0
 35 41  1  0
 35 37  1  0
 36 42  1  0
 37 36  1  0
 38 37  2  0
 39 40  1  0
 39 33  2  0
 40 35  2  0
 41 34  1  0
 42 32  1  0
 44 46  2  0
 45 44  1  0
 47 45  1  0
 48 57  2  0
 48 53  1  0
 49 45  1  0
 49 53  1  0
 50 49  1  0
 51 52  1  0
 51 50  1  0
 52 48  1  0
 53 54  2  0
 54 55  1  0
 56 55  2  0
 57 56  1  0
 58 32  1  0
 58 63  1  0
 58 59  1  0
 59 62  1  1
 59 60  1  0
 61 59  1  0
 63 66  1  0
 64 68  1  0
 64 63  1  0
 65 64  2  0
 68 67  1  0
 70 68  1  0
 70 71  1  0
 70 69  1  0
 72  1  1  0
 73 72  1  0
 74 73  1  0
 75 74  1  0
 76 77  1  0
 77 75  1  0
 77 79  1  0
 78 76  2  0
 80 76  1  0
 81 83  2  0
 82 81  1  0
 82 80  1  0
 84 82  1  0
 85 87  1  0
 85 81  1  0
 86 88  2  0
 86 90  1  0
 87 89  1  0
 87 86  1  0
 90 91  1  0
 91 92  1  0
 92 95  1  0
 92 93  1  0
 94 92  1  0
 95 96  1  0
 96 97  1  0
 97 98  1  0
 98 99  1  0
 99102  1  0
 99101  1  0
100 99  1  0
102103  1  0
103104  1  0
104113  1  0
105113  1  0
106111  1  0
107108  1  0
107106  1  0
109108  1  0
109118  1  0
109110  1  0
111105  1  0
111110  1  0
112105  2  0
113114  1  0
115116  2  0
116135  1  0
117116  1  0
117120  1  0
118115  1  0
118119  1  0
119117  2  0
120121  1  0
121122  2  0
123126  1  0
123122  1  0
124123  2  0
125124  1  0
125120  2  0
126127  1  0
127128  1  0
128129  2  0
130129  1  0
130134  1  0
131130  2  0
132127  2  0
132131  1  0
133132  1  0
135136  1  0
136139  1  0
136138  1  0
137135  2  0
140115  1  0
141140  1  0
142140  1  0
M  ISO  4  30 101  31 101 105 100 113 100
M  END
>  <TORSDO>  (44) 
F 53

>  <SCORE>  (44) 
75.623

>  <name>  (44) 
50

>  <ligand_id>  (44) 
50

>  <original_smiles>  (44) 
[H]c1c([H])c([H])c2c(c1[H])C([H])([H])C([H])([H])C([H])([H])C2([H])N([H])C(=O)C1([H])N(C(=O)C([H])(N([H])C(=O)C([H])(N([H])C([H])([H])[H])C([H])([H])[H])C(C([H])([H])[H])(C([H])([H])[H])C([H])([H])[H])C([H])([H])c2c([H])c(OC([H])([H])C([H])([H])C([H])([H])C([H])([H])C([H])([H])C([H])([H])C([H])([H])N([H])C(=O)C([H])([H])N([H])C(=O)C([H])([H])N([H])C(=O)C([H])([H])N([H])C(=O)C([H])([H])OC([H])([H])C([H])([H])C([H])([H])OC([H])([H])C([H])([H])N([H])C(=O)C([H])([H])N([H])C(=O)C([H])([H])N([H])C(=O)C([H])([H])C([H])([H])[N+]([H])([H])C([H])([H])C([H])([H])C([H])([H])C([H])([H])[N+]([H])([H])C([H])([H])C([H])([H])C([H])([H])N([H])C(=O)N3C([H])([H])C([H])([H])C([H])([H])C([H])(n4nc(-c5c([H])c([H])c(Oc6c([H])c([H])c(F)c([H])c6F)c([H])c5[H])c(C(=O)N([H])[H])c4N([H])[H])C3([H])[H])c([H])c([H])c2C1([H])[H]

>  <smiles>  (44) 
[H]c1c([H])c([H])c2c(c1[H])C([H])([H])C([H])([H])C([H])([H])C2([H])N([H])C(=O)C1([H])N(C(=O)C([H])(N([H])C(=O)C([H])(N([H])C([H])([H])[H])C([H])([H])[H])C(C([H])([H])[H])(C([H])([H])[H])C([H])([H])[H])C([H])([H])c2c([H])c(OC([H])([H])C([H])([H])C([H])([H])C([H])([H])C([H])([H])C([H])([H])C([H])([H])N([H])C(=O)C([H])([H])N([H])C(=O)C([H])([H])N([H])C(=O)C([H])([H])N([H])C(=O)C([H])([H])OC([H])([H])C([H])([H])C([H])([H])OC([H])([H])C([H])([H])N([H])C(=O)C([H])([H])N([H])C(=O)C([H])([H])N([H])C(=O)C([H])([H])C([H])([H])[N+]([H])([H])C([H])([H])C([H])([H])C([H])([H])C([H])([H])[N+]([H])([H])C([H])([H])C([H])([H])C([H])([H])N([H])C(=O)N3C([H])([H])C([H])([H])C([H])([H])C([H])(n4nc(-c5c([H])c([H])c(Oc6c([H])c([H])c(F)c([H])c6F)c([H])c5[H])c(C(=O)N([H])[H])c4N([H])[H])C3([H])[H])c([H])c([H])c2C1([H])[H]

$$$$
51:0:0
     RDKit          3D

130137  0  0  1  0  0  0  0  0999 V2000
  -23.6390  -20.5480   16.0970 C   0  0  0  0  0  0  0  0  0  0  0  0
  -23.6100  -20.0420   14.8620 N   0  0  0  0  0  0  0  0  0  0  0  0
  -24.1220  -19.9370   17.0530 O   0  0  0  0  0  0  0  0  0  0  0  0
  -23.1520  -20.5830   14.1420 H   0  0  0  0  0  0  0  0  0  0  0  0
  -24.0640  -18.7080   14.4850 C   0  0  0  0  0  2  0  0  0  0  0  0
  -22.9020  -17.8060   14.0540 C   0  0  0  0  0  0  0  0  0  0  0  0
  -23.2320  -16.6150   13.5470 N   0  0  0  0  0  0  0  0  0  0  0  0
  -21.7330  -18.1880   14.1500 O   0  0  0  0  0  0  0  0  0  0  0  0
  -24.2160  -16.3820   13.5130 H   0  0  0  0  0  0  0  0  0  0  0  0
  -22.3010  -15.6260   13.0140 C   0  0  0  0  0  2  0  0  0  0  0  0
  -21.8210  -15.9760   11.5910 C   0  0  0  0  0  2  0  0  0  0  0  0
  -22.8120  -15.5640   10.4920 C   0  0  0  0  0  2  0  0  0  0  0  0
  -22.2810  -15.8270    9.0820 C   0  0  0  0  0  2  0  0  0  0  0  0
  -23.3710  -15.6320    8.1960 O   0  0  0  0  0  0  0  0  0  0  0  0
  -23.1910  -16.2630    6.9370 C   0  0  0  0  0  2  0  0  0  0  0  0
  -23.9870  -14.1490    5.7660 C   0  0  0  0  0  1  0  0  0  0  0  0
  -24.2300  -15.6510    5.9850 C   0  0  0  0  0  3  0  0  0  0  0  0
  -25.6010  -15.8910    6.5050 N   0  0  0  0  0  4  0  0  0  0  0  0
  -25.5590  -15.8130    7.5120 H   0  0  0  0  0  0  0  0  0  0  0  0
  -26.2050  -15.1580    6.1730 H   0  0  0  0  0  0  0  0  0  0  0  0
  -26.1990  -17.1900    6.1180 C   0  0  0  0  0  2  0  0  0  0  0  0
  -27.7290  -17.1020    5.9940 C   0  0  0  0  0  2  0  0  0  0  0  0
  -28.4010  -18.4690    5.7610 C   0  0  0  0  0  2  0  0  0  0  0  0
  -29.7630  -18.3300    5.0560 C   0  0  0  0  0  2  0  0  0  0  0  0
  -30.5770  -19.6330    4.9930 C   0  0  0  0  0  2  0  0  0  0  0  0
  -31.2500  -19.8610    6.2360 O   0  0  0  0  0  0  0  0  0  0  0  0
  -29.7340  -26.8200    6.7840 C   0  0  0  0  0  0  0  0  0  0  0  0
  -30.8430  -20.9280    7.0020 C   0  0  0  0  0  0  0  0  0  0  0  0
  -29.8840  -25.5640    8.9150 C   0  0  0  0  0  3  0  0  0  0  0  0
  -29.9960  -23.0240    8.6960 C   0  0  0  0  0  0  0  0  0  0  0  0
  -29.2140  -24.3890    6.7520 C   0  0  0  0  0  2  0  0  0  0  0  0
  -29.8500  -23.1390    7.3110 C   0  0  0  0  0  0  0  0  0  0  0  0
  -30.2900  -22.1060    6.4600 C   0  0  0  0  0  3  0  0  0  0  0  0
  -31.0140  -20.8340    8.4020 C   0  0  0  0  0  3  0  0  0  0  0  0
  -30.5890  -21.8740    9.2530 C   0  0  0  0  0  3  0  0  0  0  0  0
  -29.5020  -24.1860    9.5280 C   0  0  0  0  0  2  0  0  0  0  0  0
  -29.6360  -25.6290    7.4370 N   0  0  0  0  0  0  0  0  0  0  0  0
  -29.9810  -27.8670    7.3980 O   0  0  0  0  0  0  0  0  0  0  0  0
  -31.3430  -25.8910    9.3020 C   0  0  0  0  0  0  0  0  0  0  0  0
  -31.5270  -26.4450   10.5130 N   0  0  0  0  0  0  0  0  0  0  0  0
  -32.2770  -25.6240    8.5430 O   0  0  0  0  0  0  0  0  0  0  0  0
  -30.7090  -26.6370   11.0740 H   0  0  0  0  0  0  0  0  0  0  0  0
  -33.0710  -28.0420   13.3590 C   0  0  0  0  0  0  0  0  0  0  0  0
  -32.8150  -26.8060   11.1050 C   0  0  0  0  0  3  0  0  0  0  0  0
  -33.4570  -25.5910   11.8140 C   0  0  0  0  0  2  0  0  0  0  0  0
  -33.1140  -25.5130   13.3060 C   0  0  0  0  0  2  0  0  0  0  0  0
  -33.5800  -26.7790   14.0310 C   0  0  0  0  0  2  0  0  0  0  0  0
  -32.6950  -28.0520   11.9900 C   0  0  0  0  0  0  0  0  0  0  0  0
  -32.1940  -29.2430   11.4230 C   0  0  0  0  0  3  0  0  0  0  0  0
  -32.0690  -30.4120   12.1990 C   0  0  0  0  0  3  0  0  0  0  0  0
  -32.4530  -30.3990   13.5520 C   0  0  0  0  0  3  0  0  0  0  0  0
  -32.9590  -29.2200   14.1270 C   0  0  0  0  0  3  0  0  0  0  0  0
  -29.5190  -26.9290    5.2410 C   0  0  0  0  0  3  0  0  0  0  0  0
  -30.8670  -27.0450    4.4300 C   0  0  1  0  0  0  0  0  0  0  0  0
  -31.8140  -28.1490    4.9530 C   0  0  0  0  0  1  0  0  0  0  0  0
  -31.6400  -25.7050    4.4620 C   0  0  0  0  0  1  0  0  0  0  0  0
  -30.5600  -27.3390    2.9430 C   0  0  0  0  0  1  0  0  0  0  0  0
  -28.6610  -28.0960    4.9980 N   0  0  0  0  0  0  0  0  0  0  0  0
  -27.3400  -28.0370    4.7870 C   0  0  0  0  0  0  0  0  0  0  0  0
  -26.7200  -26.9720    4.7050 O   0  0  0  0  0  0  0  0  0  0  0  0
  -29.0880  -29.0040    5.1120 H   0  0  0  0  0  0  0  0  0  0  0  0
  -25.8770  -29.7060    5.9710 C   0  0  0  0  0  1  0  0  0  0  0  0
  -26.5830  -29.3700    4.6470 C   0  0  0  0  0  3  0  0  0  0  0  0
  -26.2100  -29.3330    2.2180 C   0  0  0  0  0  1  0  0  0  0  0  0
  -25.5970  -29.3760    3.5440 N   0  0  0  0  0  0  0  0  0  0  0  0
  -25.0050  -30.2010    3.5940 H   0  0  0  0  0  0  0  0  0  0  0  0
  -23.0470  -21.9530   16.2620 C   0  0  0  0  0  2  0  0  0  0  0  0
  -24.8840  -22.9800   17.5840 C   0  0  0  0  0  0  0  0  0  0  0  0
  -24.0610  -22.9690   16.5310 N   0  0  0  0  0  0  0  0  0  0  0  0
  -24.8500  -22.1220   18.4680 O   0  0  0  0  0  0  0  0  0  0  0  0
  -24.1890  -23.6830   15.8290 H   0  0  0  0  0  0  0  0  0  0  0  0
  -25.9090  -24.1140   17.6380 C   0  0  0  0  0  2  0  0  0  0  0  0
  -27.0290  -23.7500   16.8440 O   0  0  0  0  0  0  0  0  0  0  0  0
  -28.0700  -24.7080   16.9100 C   0  0  0  0  0  2  0  0  0  0  0  0
  -28.7310  -24.7790   15.5310 C   0  0  0  0  0  2  0  0  0  0  0  0
  -29.8580  -25.8260   15.4710 C   0  0  0  0  0  2  0  0  0  0  0  0
  -29.6810  -26.8710   14.3530 C   0  0  0  0  0  2  0  0  0  0  0  0
  -27.9560  -28.3510   15.4010 C   0  0  0  0  0  0  0  0  0  0  0  0
  -28.3880  -27.5490   14.4210 N   0  0  0  0  0  0  0  0  0  0  0  0
  -28.6440  -28.6500   16.3810 O   0  0  0  0  0  0  0  0  0  0  0  0
  -27.7490  -27.3720   13.6540 H   0  0  0  0  0  0  0  0  0  0  0  0
  -26.5410  -28.9220   15.2330 C   0  0  0  0  0  2  0  0  0  0  0  0
  -25.2670  -27.7900   17.0810 C   0  0  0  0  0  0  0  0  0  0  0  0
  -25.7140  -28.8830   16.4450 N   0  0  0  0  0  0  0  0  0  0  0  0
  -25.6130  -26.6470   16.7720 O   0  0  0  0  0  0  0  0  0  0  0  0
  -25.3990  -29.7760   16.7960 H   0  0  0  0  0  0  0  0  0  0  0  0
  -24.2360  -28.0380   18.1990 C   0  0  0  0  0  2  0  0  0  0  0  0
  -24.2750  -27.0140   19.1990 O   0  0  0  0  0  0  0  0  0  0  0  0
  -23.5320  -27.3720   20.3660 C   0  0  0  0  0  2  0  0  0  0  0  0
  -23.9070  -26.4400   21.5310 C   0  0  0  0  0  2  0  0  0  0  0  0
  -23.6600  -27.0640   22.9250 C   0  0  0  0  0  2  0  0  0  0  0  0
  -24.5460  -26.5040   24.0630 C   0  0  0  0  0  2  0  0  0  0  0  0
  -26.6830  -27.6570   23.4860 C   0  0  0  0  0  0  0  0  0  0  0  0
  -28.0390  -28.3700   21.5790 C   0  0  0  0  0  2  0  0  0  0  0  0
  -27.3700  -27.8120   20.3080 C   0  0  0  0  0  2  0  0  0  0  0  0
  -27.8530  -26.3750   20.0120 C   0  0  0  0  0  2  0  0  0  0  0  0
  -27.8010  -25.4480   21.2560 C   0  0  0  0  0  3  0  0  0  0  0  0
  -28.4160  -26.1400   22.4910 C   0  0  0  0  0  2  0  0  0  0  0  0
  -27.7440  -27.4360   22.6720 N   0  0  0  0  0  0  0  0  0  0  0  0
  -26.2320  -28.7740   23.7410 O   0  0  0  0  0  0  0  0  0  0  0  0
  -25.9740  -26.5470   23.7380 N   0  0  0  0  0  0  0  0  0  0  0  0
  -26.4160  -25.6720   23.4940 H   0  0  0  0  0  0  0  0  0  0  0  0
  -27.9040  -22.8800   21.1950 C   0  0  0  0  0  0  0  0  0  0  0  0
  -28.8510  -22.0190   20.7060 C   0  0  0  0  0  0  0  0  0  0  0  0
  -29.9100  -22.8400   20.2090 C   0  0  0  0  0  0  0  0  0  0  0  0
  -28.4160  -24.1540   20.9940 N   0  0  0  0  0  0  0  0  0  0  0  0
  -29.6540  -24.1180   20.4450 N   0  0  0  0  0  0  0  0  0  0  0  0
  -31.1300  -22.4890   19.4750 C   0  0  0  0  0  0  0  0  0  0  0  0
  -32.4050  -22.8860   19.9360 C   0  0  0  0  0  3  0  0  0  0  0  0
  -33.5680  -22.5200   19.2190 C   0  0  0  0  0  3  0  0  0  0  0  0
  -33.4610  -21.7470   18.0370 C   0  0  0  0  0  0  0  0  0  0  0  0
  -32.1860  -21.3770   17.5750 C   0  0  0  0  0  3  0  0  0  0  0  0
  -31.0310  -21.7450   18.2830 C   0  0  0  0  0  3  0  0  0  0  0  0
  -34.5310  -21.3710   17.2610 O   0  0  0  0  0  0  0  0  0  0  0  0
  -35.7780  -21.1840   17.8050 C   0  0  0  0  0  0  0  0  0  0  0  0
  -36.0100  -20.2520   18.8390 C   0  0  0  0  0  3  0  0  0  0  0  0
  -37.3180  -20.0410   19.3180 C   0  0  0  0  0  3  0  0  0  0  0  0
  -38.3980  -20.7520   18.7610 C   0  0  0  0  0  0  0  0  0  0  0  0
  -38.1690  -21.6780   17.7270 C   0  0  0  0  0  3  0  0  0  0  0  0
  -36.8630  -21.8910   17.2480 C   0  0  0  0  0  0  0  0  0  0  0  0
  -36.6530  -22.7690   16.2380 F   0  0  0  0  0  0  0  0  0  0  0  0
  -39.6550  -20.5460   19.2170 F   0  0  0  0  0  0  0  0  0  0  0  0
  -28.7480  -20.5250   20.6130 C   0  0  0  0  0  0  0  0  0  0  0  0
  -29.8600  -19.8190   20.7990 N   0  0  0  0  0  0  0  0  0  0  0  0
  -27.6690  -19.9680   20.4160 O   0  0  0  0  0  0  0  0  0  0  0  0
  -30.7460  -20.2720   20.9720 H   0  0  0  0  0  0  0  0  0  0  0  0
  -29.8280  -18.8110   20.7680 H   0  0  0  0  0  0  0  0  0  0  0  0
  -26.6530  -22.6960   21.7760 N   0  0  0  0  0  0  0  0  0  0  0  0
  -26.2160  -21.7880   21.8680 H   0  0  0  0  0  0  0  0  0  0  0  0
  -26.0400  -23.4570   22.0460 H   0  0  0  0  0  0  0  0  0  0  0  0
  1 67  1  0
  1  3  2  0
  2  1  1  0
  4  2  1  0
  5  2  1  0
  6  8  2  0
  6  5  1  0
  7  6  1  0
  9  7  1  0
 10  7  1  0
 11 10  1  0
 12 11  1  0
 13 12  1  0
 14 13  1  0
 15 14  1  0
 17 16  1  0
 17 18  1  0
 17 15  1  0
 18 19  1  0
 20 18  1  0
 21 18  1  0
 22 21  1  0
 23 22  1  0
 24 23  1  0
 25 24  1  0
 25 26  1  0
 26 28  1  0
 27 38  2  0
 27 37  1  0
 28 34  1  0
 29 39  1  0
 29 36  1  0
 30 35  1  0
 30 36  1  0
 31 32  1  0
 31 37  1  0
 32 30  2  0
 33 28  2  0
 33 32  1  0
 34 35  2  0
 37 29  1  0
 39 40  1  0
 40 42  1  0
 41 39  2  0
 43 47  1  0
 43 52  1  0
 44 40  1  0
 44 45  1  0
 44 48  1  0
 45 46  1  0
 46 47  1  0
 48 43  2  0
 49 48  1  0
 49 50  2  0
 50 51  1  0
 51 52  2  0
 53 27  1  0
 54 56  1  6
 54 55  1  0
 54 53  1  0
 57 54  1  0
 58 61  1  0
 58 53  1  0
 59 58  1  0
 60 59  2  0
 63 59  1  0
 63 62  1  0
 64 65  1  0
 65 66  1  0
 65 63  1  0
 67 69  1  0
 68 72  1  0
 68 70  2  0
 69 68  1  0
 71 69  1  0
 73 74  1  0
 73 72  1  0
 75 74  1  0
 76 75  1  0
 77 79  1  0
 77 76  1  0
 78 80  2  0
 79 78  1  0
 81 79  1  0
 82 78  1  0
 82 84  1  0
 83 87  1  0
 84 86  1  0
 84 83  1  0
 85 83  2  0
 87 88  1  0
 88 89  1  0
 89 90  1  0
 90 91  1  0
 91 92  1  0
 93101  1  0
 93100  2  0
 94 99  1  0
 95 94  1  0
 96 95  1  0
 97 96  1  0
 97 98  1  0
 98 99  1  0
 99 93  1  0
101 92  1  0
102101  1  0
103128  1  0
104103  2  0
105107  2  0
105104  1  0
106103  1  0
106 97  1  0
107106  1  0
108109  1  0
108105  1  0
110109  2  0
111110  1  0
112111  2  0
112113  1  0
113108  2  0
114115  1  0
114111  1  0
115116  1  0
116117  2  0
118122  1  0
118117  1  0
119118  2  0
120119  1  0
120115  2  0
121120  1  0
123104  1  0
123124  1  0
124126  1  0
125123  2  0
127124  1  0
128129  1  0
128130  1  0
M  ISO  4  25 101  26 101  93 100 101 100
M  END
>  <TORSDO>  (45) 
F 48

>  <SCORE>  (45) 
14.566

>  <name>  (45) 
51

>  <ligand_id>  (45) 
51

>  <original_smiles>  (45) 
[H]c1c([H])c([H])c2c(c1[H])C([H])([H])C([H])([H])C([H])([H])C2([H])N([H])C(=O)C1([H])N(C(=O)C([H])(N([H])C(=O)C([H])(N([H])C([H])([H])[H])C([H])([H])[H])C(C([H])([H])[H])(C([H])([H])[H])C([H])([H])[H])C([H])([H])c2c([H])c(OC([H])([H])C([H])([H])C([H])([H])C([H])([H])C([H])([H])[N+]([H])([H])C([H])(C([H])([H])[H])C([H])([H])OC([H])([H])C([H])([H])C([H])([H])C([H])([H])N([H])C(=O)C([H])([H])N([H])C(=O)C([H])([H])N([H])C(=O)C([H])([H])OC([H])([H])C([H])([H])C([H])([H])C([H])([H])N([H])C(=O)C([H])([H])N([H])C(=O)C([H])([H])OC([H])([H])C([H])([H])C([H])([H])C([H])([H])N([H])C(=O)N3C([H])([H])C([H])([H])C([H])([H])C([H])(n4nc(-c5c([H])c([H])c(Oc6c([H])c([H])c(F)c([H])c6F)c([H])c5[H])c(C(=O)N([H])[H])c4N([H])[H])C3([H])[H])c([H])c([H])c2C1([H])[H]

>  <smiles>  (45) 
[H]c1c([H])c([H])c2c(c1[H])C([H])([H])C([H])([H])C([H])([H])C2([H])N([H])C(=O)C1([H])N(C(=O)C([H])(N([H])C(=O)C([H])(N([H])C([H])([H])[H])C([H])([H])[H])C(C([H])([H])[H])(C([H])([H])[H])C([H])([H])[H])C([H])([H])c2c([H])c(OC([H])([H])C([H])([H])C([H])([H])C([H])([H])C([H])([H])[N+]([H])([H])C([H])(C([H])([H])[H])C([H])([H])OC([H])([H])C([H])([H])C([H])([H])C([H])([H])N([H])C(=O)C([H])([H])N([H])C(=O)C([H])([H])N([H])C(=O)C([H])([H])OC([H])([H])C([H])([H])C([H])([H])C([H])([H])N([H])C(=O)C([H])([H])N([H])C(=O)C([H])([H])OC([H])([H])C([H])([H])C([H])([H])C([H])([H])N([H])C(=O)N3C([H])([H])C([H])([H])C([H])([H])C([H])(n4nc(-c5c([H])c([H])c(Oc6c([H])c([H])c(F)c([H])c6F)c([H])c5[H])c(C(=O)N([H])[H])c4N([H])[H])C3([H])[H])c([H])c([H])c2C1([H])[H]

$$$$
52:0:0
     RDKit          3D

117124  0  0  1  0  0  0  0  0999 V2000
  -21.7810  -18.5670   24.3570 C   0  0  0  0  0  0  0  0  0  0  0  0
  -22.1400  -19.6690   23.6950 N   0  0  0  0  0  0  0  0  0  0  0  0
  -20.6070  -18.2810   24.5900 O   0  0  0  0  0  0  0  0  0  0  0  0
  -23.1290  -19.8330   23.5660 H   0  0  0  0  0  0  0  0  0  0  0  0
  -21.2480  -20.7280   23.2330 C   0  0  0  0  0  2  0  0  0  0  0  0
  -22.0120  -22.0550   23.1750 C   0  0  0  0  0  0  0  0  0  0  0  0
  -21.6530  -22.9140   22.2170 N   0  0  0  0  0  0  0  0  0  0  0  0
  -22.9150  -22.2960   23.9790 O   0  0  0  0  0  0  0  0  0  0  0  0
  -20.9060  -22.6340   21.5980 H   0  0  0  0  0  0  0  0  0  0  0  0
  -22.2420  -24.2340   21.9730 C   0  0  0  0  0  2  0  0  0  0  0  0
  -23.2120  -24.2770   20.7810 C   0  0  0  0  0  0  0  0  0  0  0  0
  -23.0600  -23.3810   19.7960 N   0  0  0  0  0  0  0  0  0  0  0  0
  -24.0790  -25.1510   20.7390 O   0  0  0  0  0  0  0  0  0  0  0  0
  -22.3420  -22.6800   19.9160 H   0  0  0  0  0  0  0  0  0  0  0  0
  -23.7850  -23.3900   18.5260 C   0  0  0  0  0  2  0  0  0  0  0  0
  -23.7460  -24.8000   17.9200 C   0  0  0  0  0  2  0  0  0  0  0  0
  -24.8740  -25.0550   17.0900 O   0  0  0  0  0  0  0  0  0  0  0  0
  -24.8900  -26.4040   16.6230 C   0  0  0  0  0  2  0  0  0  0  0  0
  -26.3000  -27.0420   16.7510 C   0  0  0  0  0  2  0  0  0  0  0  0
  -26.3060  -28.4690   16.5960 O   0  0  0  0  0  0  0  0  0  0  0  0
  -25.8650  -30.2120   23.4580 C   0  0  0  0  0  0  0  0  0  0  0  0
  -25.5940  -29.1160   17.5730 C   0  0  0  0  0  0  0  0  0  0  0  0
  -23.7670  -30.3750   22.1560 C   0  0  0  0  0  3  0  0  0  0  0  0
  -24.0230  -30.2400   19.6210 C   0  0  0  0  0  0  0  0  0  0  0  0
  -26.0350  -30.7120   21.0290 C   0  0  0  0  0  2  0  0  0  0  0  0
  -25.4160  -30.1690   19.7610 C   0  0  0  0  0  0  0  0  0  0  0  0
  -26.2090  -29.5960   18.7470 C   0  0  0  0  0  3  0  0  0  0  0  0
  -24.1970  -29.2260   17.4200 C   0  0  0  0  0  3  0  0  0  0  0  0
  -23.4050  -29.7640   18.4510 C   0  0  0  0  0  3  0  0  0  0  0  0
  -23.2480  -30.8460   20.7690 C   0  0  0  0  0  2  0  0  0  0  0  0
  -25.2630  -30.4010   22.2510 N   0  0  0  0  0  0  0  0  0  0  0  0
  -25.1960  -30.0590   24.4900 O   0  0  0  0  0  0  0  0  0  0  0  0
  -23.1580  -28.9900   22.4690 C   0  0  0  0  0  0  0  0  0  0  0  0
  -21.8180  -28.9060   22.4270 N   0  0  0  0  0  0  0  0  0  0  0  0
  -23.8800  -28.0200   22.7120 O   0  0  0  0  0  0  0  0  0  0  0  0
  -21.2950  -29.7490   22.2340 H   0  0  0  0  0  0  0  0  0  0  0  0
  -18.5820  -27.4070   21.8690 C   0  0  0  0  0  0  0  0  0  0  0  0
  -21.0260  -27.6970   22.6500 C   0  0  0  0  0  3  0  0  0  0  0  0
  -21.3800  -26.5980   21.6210 C   0  0  0  0  0  2  0  0  0  0  0  0
  -20.4730  -26.6180   20.3880 C   0  0  0  0  0  2  0  0  0  0  0  0
  -19.0100  -26.4240   20.7940 C   0  0  0  0  0  2  0  0  0  0  0  0
  -19.5310  -28.0150   22.7320 C   0  0  0  0  0  0  0  0  0  0  0  0
  -19.0830  -28.9500   23.6900 C   0  0  0  0  0  3  0  0  0  0  0  0
  -17.7160  -29.2710   23.7980 C   0  0  0  0  0  3  0  0  0  0  0  0
  -16.7800  -28.6550   22.9500 C   0  0  0  0  0  3  0  0  0  0  0  0
  -17.2120  -27.7220   21.9910 C   0  0  0  0  0  3  0  0  0  0  0  0
  -27.4180  -30.2000   23.6040 C   0  0  0  0  0  3  0  0  0  0  0  0
  -27.7480  -30.8700   24.8670 N   0  0  0  0  0  0  0  0  0  0  0  0
  -28.2150  -32.1220   24.9650 C   0  0  0  0  0  0  0  0  0  0  0  0
  -28.4890  -32.8130   23.9790 O   0  0  0  0  0  0  0  0  0  0  0  0
  -27.4980  -30.3810   25.7160 H   0  0  0  0  0  0  0  0  0  0  0  0
  -27.2530  -33.6440   26.7200 C   0  0  0  0  0  1  0  0  0  0  0  0
  -28.4150  -32.6970   26.3810 C   0  0  0  0  0  3  0  0  0  0  0  0
  -30.8610  -32.5200   26.5240 C   0  0  0  0  0  1  0  0  0  0  0  0
  -29.7020  -33.4070   26.5510 N   0  0  0  0  0  0  0  0  0  0  0  0
  -29.7150  -33.9200   27.4290 H   0  0  0  0  0  0  0  0  0  0  0  0
  -28.0350  -28.7480   23.5620 C   0  0  1  0  0  0  0  0  0  0  0  0
  -27.4030  -27.7770   24.5850 C   0  0  0  0  0  1  0  0  0  0  0  0
  -27.8750  -28.1270   22.1550 C   0  0  0  0  0  1  0  0  0  0  0  0
  -29.5550  -28.8160   23.8450 C   0  0  0  0  0  1  0  0  0  0  0  0
  -22.9240  -17.6560   24.8170 C   0  0  0  0  0  2  0  0  0  0  0  0
  -22.6510  -16.1560   24.6030 C   0  0  0  0  0  2  0  0  0  0  0  0
  -23.8950  -15.4020   24.1110 C   0  0  0  0  0  2  0  0  0  0  0  0
  -23.5500  -14.0700   23.4260 C   0  0  0  0  0  2  0  0  0  0  0  0
  -24.0620  -13.9760   21.9800 C   0  0  0  0  0  2  0  0  0  0  0  0
  -25.3550  -13.1620   21.8280 C   0  0  0  0  0  2  0  0  0  0  0  0
  -25.8330  -13.0830   20.3680 C   0  0  0  0  0  2  0  0  0  0  0  0
  -27.0860  -12.2090   20.1810 C   0  0  0  0  0  2  0  0  0  0  0  0
  -29.4380  -13.0260   20.2330 C   0  0  0  0  0  0  0  0  0  0  0  0
  -28.2590  -12.7950   20.8230 N   0  0  0  0  0  0  0  0  0  0  0  0
  -29.6670  -12.7190   19.0600 O   0  0  0  0  0  0  0  0  0  0  0  0
  -28.1640  -13.0710   21.7920 H   0  0  0  0  0  0  0  0  0  0  0  0
  -30.5110  -13.7100   21.0930 C   0  0  0  0  0  2  0  0  0  0  0  0
  -31.8000  -13.4950   20.5240 O   0  0  0  0  0  0  0  0  0  0  0  0
  -32.7600  -14.4330   20.9910 C   0  0  0  0  0  2  0  0  0  0  0  0
  -34.1680  -13.8620   20.7880 C   0  0  0  0  0  2  0  0  0  0  0  0
  -34.1530  -12.9790   19.6750 O   0  0  0  0  0  0  0  0  0  0  0  0
  -35.3710  -12.2660   19.5230 C   0  0  0  0  0  2  0  0  0  0  0  0
  -35.1420  -10.8260   19.9960 C   0  0  0  0  0  2  0  0  0  0  0  0
  -34.2130  -10.5700   22.2900 C   0  0  0  0  0  0  0  0  0  0  0  0
  -33.0480  -10.0590   24.4000 C   0  0  0  0  0  2  0  0  0  0  0  0
  -32.6100   -8.5820   24.4250 C   0  0  0  0  0  2  0  0  0  0  0  0
  -31.2390   -8.4060   23.7430 C   0  0  0  0  0  2  0  0  0  0  0  0
  -31.1690   -9.0950   22.3540 C   0  0  0  0  0  3  0  0  0  0  0  0
  -31.6950  -10.5440   22.4400 C   0  0  0  0  0  2  0  0  0  0  0  0
  -33.0580  -10.5060   23.0020 N   0  0  0  0  0  0  0  0  0  0  0  0
  -35.3310  -10.4100   22.7870 O   0  0  0  0  0  0  0  0  0  0  0  0
  -34.0630  -10.7740   20.9790 N   0  0  0  0  0  0  0  0  0  0  0  0
  -33.1250  -10.9210   20.6380 H   0  0  0  0  0  0  0  0  0  0  0  0
  -29.3480   -9.4880   20.5750 C   0  0  0  0  0  0  0  0  0  0  0  0
  -28.0250   -9.1350   20.5260 C   0  0  0  0  0  0  0  0  0  0  0  0
  -27.7520   -8.4640   21.7570 C   0  0  0  0  0  0  0  0  0  0  0  0
  -29.8180   -9.0410   21.8010 N   0  0  0  0  0  0  0  0  0  0  0  0
  -28.8290   -8.4660   22.5330 N   0  0  0  0  0  0  0  0  0  0  0  0
  -26.5440   -7.7690   22.2200 C   0  0  0  0  0  0  0  0  0  0  0  0
  -25.8520   -8.1840   23.3780 C   0  0  0  0  0  3  0  0  0  0  0  0
  -24.6830   -7.5110   23.7940 C   0  0  0  0  0  3  0  0  0  0  0  0
  -24.1930   -6.4130   23.0460 C   0  0  0  0  0  0  0  0  0  0  0  0
  -24.8980   -5.9910   21.9050 C   0  0  0  0  0  3  0  0  0  0  0  0
  -26.0650   -6.6580   21.4970 C   0  0  0  0  0  3  0  0  0  0  0  0
  -23.0790   -5.6830   23.3880 O   0  0  0  0  0  0  0  0  0  0  0  0
  -22.1100   -6.1940   24.2120 C   0  0  0  0  0  0  0  0  0  0  0  0
  -21.3000   -7.2850   23.8260 C   0  0  0  0  0  3  0  0  0  0  0  0
  -20.2700   -7.7330   24.6760 C   0  0  0  0  0  3  0  0  0  0  0  0
  -20.0410   -7.0870   25.9060 C   0  0  0  0  0  0  0  0  0  0  0  0
  -20.8420   -5.9970   26.2900 C   0  0  0  0  0  3  0  0  0  0  0  0
  -21.8720   -5.5500   25.4430 C   0  0  0  0  0  0  0  0  0  0  0  0
  -22.6270   -4.4870   25.8090 F   0  0  0  0  0  0  0  0  0  0  0  0
  -19.0450   -7.5120   26.7190 F   0  0  0  0  0  0  0  0  0  0  0  0
  -27.0920   -9.3170   19.3630 C   0  0  0  0  0  0  0  0  0  0  0  0
  -25.7890   -9.3360   19.6200 N   0  0  0  0  0  0  0  0  0  0  0  0
  -27.5180   -9.4850   18.2220 O   0  0  0  0  0  0  0  0  0  0  0  0
  -25.4400   -9.2070   20.5570 H   0  0  0  0  0  0  0  0  0  0  0  0
  -25.1340   -9.4730   18.8660 H   0  0  0  0  0  0  0  0  0  0  0  0
  -30.1930  -10.1330   19.6760 N   0  0  0  0  0  0  0  0  0  0  0  0
  -29.8860  -10.4230   18.7550 H   0  0  0  0  0  0  0  0  0  0  0  0
  -31.1790  -10.3030   19.8380 H   0  0  0  0  0  0  0  0  0  0  0  0
  1  3  2  0
  1 61  1  0
  2  1  1  0
  4  2  1  0
  5  2  1  0
  6  5  1  0
  6  8  2  0
  7  6  1  0
  9  7  1  0
 10  7  1  0
 11 10  1  0
 12 14  1  0
 12 11  1  0
 13 11  2  0
 15 12  1  0
 16 15  1  0
 17 16  1  0
 18 19  1  0
 18 17  1  0
 20 19  1  0
 20 22  1  0
 21 32  2  0
 22 27  1  0
 23 31  1  0
 23 33  1  0
 24 26  1  0
 24 30  1  0
 25 31  1  0
 26 25  1  0
 27 26  2  0
 28 22  2  0
 28 29  1  0
 29 24  2  0
 30 23  1  0
 31 21  1  0
 33 35  2  0
 34 33  1  0
 36 34  1  0
 37 46  2  0
 37 42  1  0
 38 34  1  0
 38 42  1  0
 39 38  1  0
 40 41  1  0
 40 39  1  0
 41 37  1  0
 42 43  2  0
 43 44  1  0
 45 44  2  0
 46 45  1  0
 47 21  1  0
 47 48  1  0
 48 49  1  0
 48 51  1  0
 49 53  1  0
 50 49  2  0
 53 55  1  0
 53 52  1  0
 54 55  1  0
 55 56  1  0
 57 47  1  0
 57 60  1  1
 57 58  1  0
 59 57  1  0
 62 61  1  0
 63 62  1  0
 64 63  1  0
 65 64  1  0
 66 65  1  0
 67 66  1  0
 68 67  1  0
 68 70  1  0
 69 70  1  0
 69 73  1  0
 70 72  1  0
 71 69  2  0
 74 75  1  0
 74 73  1  0
 76 75  1  0
 77 76  1  0
 78 77  1  0
 78 79  1  0
 79 88  1  0
 80 87  2  0
 80 86  1  0
 81 82  1  0
 83 82  1  0
 84 93  1  0
 84 85  1  0
 84 83  1  0
 85 86  1  0
 86 81  1  0
 88 80  1  0
 89 88  1  0
 90 93  1  0
 91 90  2  0
 91 92  1  0
 92 95  1  0
 92 94  2  0
 93 94  1  0
 95 96  1  0
 96 97  2  0
 98101  1  0
 98 97  1  0
 99 98  2  0
100 99  1  0
100 95  2  0
101102  1  0
102107  1  0
103102  2  0
103104  1  0
104105  2  0
105106  1  0
105109  1  0
107108  1  0
107106  2  0
110111  1  0
110 91  1  0
111113  1  0
112110  2  0
114111  1  0
115117  1  0
115 90  1  0
116115  1  0
M  ISO  4  19 101  20 101  80 100  88 100
M  END
>  <TORSDO>  (46) 
F 41

>  <SCORE>  (46) 
36.621

>  <name>  (46) 
52

>  <ligand_id>  (46) 
52

>  <original_smiles>  (46) 
[H]c1c([H])c([H])c2c(c1[H])C([H])([H])C([H])([H])C([H])([H])C2([H])N([H])C(=O)C1([H])N(C(=O)C([H])(N([H])C(=O)C([H])(N([H])C([H])([H])[H])C([H])([H])[H])C(C([H])([H])[H])(C([H])([H])[H])C([H])([H])[H])C([H])([H])c2c([H])c(OC([H])([H])C([H])([H])OC([H])([H])C([H])([H])N([H])C(=O)C([H])([H])N([H])C(=O)C([H])([H])N([H])C(=O)C([H])([H])C([H])([H])C([H])([H])C([H])([H])C([H])([H])C([H])([H])C([H])([H])C([H])([H])N([H])C(=O)C([H])([H])OC([H])([H])C([H])([H])OC([H])([H])C([H])([H])N([H])C(=O)N3C([H])([H])C([H])([H])C([H])([H])C([H])(n4nc(-c5c([H])c([H])c(Oc6c([H])c([H])c(F)c([H])c6F)c([H])c5[H])c(C(=O)N([H])[H])c4N([H])[H])C3([H])[H])c([H])c([H])c2C1([H])[H]

>  <smiles>  (46) 
[H]c1c([H])c([H])c2c(c1[H])C([H])([H])C([H])([H])C([H])([H])C2([H])N([H])C(=O)C1([H])N(C(=O)C([H])(N([H])C(=O)C([H])(N([H])C([H])([H])[H])C([H])([H])[H])C(C([H])([H])[H])(C([H])([H])[H])C([H])([H])[H])C([H])([H])c2c([H])c(OC([H])([H])C([H])([H])OC([H])([H])C([H])([H])N([H])C(=O)C([H])([H])N([H])C(=O)C([H])([H])N([H])C(=O)C([H])([H])C([H])([H])C([H])([H])C([H])([H])C([H])([H])C([H])([H])C([H])([H])C([H])([H])N([H])C(=O)C([H])([H])OC([H])([H])C([H])([H])OC([H])([H])C([H])([H])N([H])C(=O)N3C([H])([H])C([H])([H])C([H])([H])C([H])(n4nc(-c5c([H])c([H])c(Oc6c([H])c([H])c(F)c([H])c6F)c([H])c5[H])c(C(=O)N([H])[H])c4N([H])[H])C3([H])[H])c([H])c([H])c2C1([H])[H]

$$$$
53:0:0
     RDKit          3D

143150  0  0  1  0  0  0  0  0999 V2000
  -28.2860  -17.7740   24.1810 N   0  0  0  0  0  4  0  0  0  0  0  0
  -27.5960  -18.1190   23.5190 H   0  0  0  0  0  0  0  0  0  0  0  0
  -28.6330  -18.5530   24.7150 H   0  0  0  0  0  0  0  0  0  0  0  0
  -27.2500  -17.5530   26.4180 C   0  0  0  0  0  1  0  0  0  0  0  0
  -27.5240  -16.8710   25.0670 C   0  0  0  0  0  3  0  0  0  0  0  0
  -26.1980  -16.5220   24.3820 C   0  0  0  0  0  0  0  0  0  0  0  0
  -25.5630  -15.4180   24.7890 N   0  0  0  0  0  0  0  0  0  0  0  0
  -25.7570  -17.2700   23.5060 O   0  0  0  0  0  0  0  0  0  0  0  0
  -25.9960  -14.8440   25.5020 H   0  0  0  0  0  0  0  0  0  0  0  0
  -24.2300  -15.0180   24.3420 C   0  0  0  0  0  2  0  0  0  0  0  0
  -23.1130  -15.8100   25.0380 C   0  0  0  0  0  0  0  0  0  0  0  0
  -21.8640  -15.5390   24.6530 N   0  0  0  0  0  0  0  0  0  0  0  0
  -23.3680  -16.6380   25.9160 O   0  0  0  0  0  0  0  0  0  0  0  0
  -21.7310  -14.8770   23.9030 H   0  0  0  0  0  0  0  0  0  0  0  0
  -20.6830  -16.2860   25.0780 C   0  0  0  0  0  2  0  0  0  0  0  0
  -20.3980  -17.4460   24.1140 C   0  0  0  0  0  0  0  0  0  0  0  0
  -19.6310  -18.4380   24.5680 N   0  0  0  0  0  0  0  0  0  0  0  0
  -20.8460  -17.4280   22.9640 O   0  0  0  0  0  0  0  0  0  0  0  0
  -19.3400  -18.4150   25.5360 H   0  0  0  0  0  0  0  0  0  0  0  0
  -19.2710  -19.6360   23.8120 C   0  0  0  0  0  2  0  0  0  0  0  0
  -19.9520  -20.8850   24.3780 C   0  0  0  0  0  0  0  0  0  0  0  0
  -20.1080  -21.9130   23.5360 N   0  0  0  0  0  0  0  0  0  0  0  0
  -20.2750  -20.9390   25.5680 O   0  0  0  0  0  0  0  0  0  0  0  0
  -19.8200  -21.7680   22.5770 H   0  0  0  0  0  0  0  0  0  0  0  0
  -20.4510  -23.2760   23.9250 C   0  0  0  0  0  2  0  0  0  0  0  0
  -21.9590  -23.5150   24.1210 C   0  0  0  0  0  2  0  0  0  0  0  0
  -22.7790  -23.5830   22.8220 C   0  0  0  0  0  2  0  0  0  0  0  0
  -24.0790  -24.3760   23.0400 C   0  0  0  0  0  2  0  0  0  0  0  0
  -25.0700  -24.3050   21.8740 C   0  0  0  0  0  2  0  0  0  0  0  0
  -26.3570  -25.0790   22.2010 C   0  0  0  0  0  2  0  0  0  0  0  0
  -27.5480  -24.7590   21.2720 C   0  0  0  0  0  2  0  0  0  0  0  0
  -28.5920  -25.8960   21.1850 C   0  0  0  0  0  2  0  0  0  0  0  0
  -28.3940  -26.7420   20.0510 O   0  0  0  0  0  0  0  0  0  0  0  0
  -24.6110  -31.8720   23.2150 C   0  0  0  0  0  0  0  0  0  0  0  0
  -27.2410  -27.4840   20.0810 C   0  0  0  0  0  0  0  0  0  0  0  0
  -23.3980  -30.4920   21.5550 C   0  0  0  0  0  3  0  0  0  0  0  0
  -24.8480  -28.9650   20.1240 C   0  0  0  0  0  0  0  0  0  0  0  0
  -25.9220  -30.8480   21.3680 C   0  0  0  0  0  2  0  0  0  0  0  0
  -26.0060  -29.4860   20.7170 C   0  0  0  0  0  0  0  0  0  0  0  0
  -27.2060  -28.7470   20.7050 C   0  0  0  0  0  3  0  0  0  0  0  0
  -26.0760  -26.9770   19.4670 C   0  0  0  0  0  3  0  0  0  0  0  0
  -24.8730  -27.7030   19.5030 C   0  0  0  0  0  3  0  0  0  0  0  0
  -23.6100  -29.8270   20.1690 C   0  0  0  0  0  2  0  0  0  0  0  0
  -24.6610  -31.0820   22.1060 N   0  0  0  0  0  0  0  0  0  0  0  0
  -23.5320  -32.1470   23.7570 O   0  0  0  0  0  0  0  0  0  0  0  0
  -22.7400  -29.4640   22.5020 C   0  0  0  0  0  0  0  0  0  0  0  0
  -21.4140  -29.3000   22.3750 N   0  0  0  0  0  0  0  0  0  0  0  0
  -23.4200  -28.8200   23.3050 O   0  0  0  0  0  0  0  0  0  0  0  0
  -20.9300  -29.8710   21.6970 H   0  0  0  0  0  0  0  0  0  0  0  0
  -18.0300  -28.1310   22.8470 C   0  0  0  0  0  0  0  0  0  0  0  0
  -20.5880  -28.3650   23.1340 C   0  0  0  0  0  3  0  0  0  0  0  0
  -20.6860  -26.9410   22.5410 C   0  0  0  0  0  2  0  0  0  0  0  0
  -19.5830  -26.6320   21.5240 C   0  0  0  0  0  2  0  0  0  0  0  0
  -18.1990  -26.7840   22.1620 C   0  0  0  0  0  2  0  0  0  0  0  0
  -19.1530  -28.8800   23.2890 C   0  0  0  0  0  0  0  0  0  0  0  0
  -18.9440  -30.1390   23.8900 C   0  0  0  0  0  3  0  0  0  0  0  0
  -17.6450  -30.6520   24.0510 C   0  0  0  0  0  3  0  0  0  0  0  0
  -16.5360  -29.9000   23.6270 C   0  0  0  0  0  3  0  0  0  0  0  0
  -16.7290  -28.6420   23.0300 C   0  0  0  0  0  3  0  0  0  0  0  0
  -25.9030  -32.4860   23.8420 C   0  0  0  0  0  3  0  0  0  0  0  0
  -26.4470  -31.6640   25.0750 C   0  0  1  0  0  0  0  0  0  0  0  0
  -25.3720  -31.3770   26.1500 C   0  0  0  0  0  1  0  0  0  0  0  0
  -27.0300  -30.3080   24.6130 C   0  0  0  0  0  1  0  0  0  0  0  0
  -27.6060  -32.4350   25.7500 C   0  0  0  0  0  1  0  0  0  0  0  0
  -25.5870  -33.8650   24.2360 N   0  0  0  0  0  0  0  0  0  0  0  0
  -25.9020  -34.9490   23.5160 C   0  0  0  0  0  0  0  0  0  0  0  0
  -26.5580  -34.8940   22.4710 O   0  0  0  0  0  0  0  0  0  0  0  0
  -25.0140  -33.9810   25.0590 H   0  0  0  0  0  0  0  0  0  0  0  0
  -24.1480  -36.7310   23.2620 C   0  0  0  0  0  1  0  0  0  0  0  0
  -25.4110  -36.3130   24.0330 C   0  0  0  0  0  3  0  0  0  0  0  0
  -27.5590  -37.1820   24.8460 C   0  0  0  0  0  1  0  0  0  0  0  0
  -26.4310  -37.3810   23.9400 N   0  0  0  0  0  0  0  0  0  0  0  0
  -26.0220  -38.2890   24.1420 H   0  0  0  0  0  0  0  0  0  0  0  0
  -29.3890  -17.1540   23.4130 C   0  0  0  0  0  2  0  0  0  0  0  0
  -30.0090  -18.1640   22.4510 C   0  0  0  0  0  2  0  0  0  0  0  0
  -28.9470  -18.5620   21.6000 O   0  0  0  0  0  0  0  0  0  0  0  0
  -29.2820  -19.6530   20.7570 C   0  0  0  0  0  2  0  0  0  0  0  0
  -27.9840  -20.3800   20.3860 C   0  0  0  0  0  2  0  0  0  0  0  0
  -27.1260  -20.7180   21.6150 C   0  0  0  0  0  2  0  0  0  0  0  0
  -27.9110  -21.3960   22.5900 O   0  0  0  0  0  0  0  0  0  0  0  0
  -27.1540  -21.7940   23.7240 C   0  0  0  0  0  2  0  0  0  0  0  0
  -28.0630  -22.5330   24.7180 C   0  0  0  0  0  2  0  0  0  0  0  0
  -27.3020  -23.2620   25.8450 C   0  0  0  0  0  2  0  0  0  0  0  0
  -26.8380  -21.5880   27.6230 C   0  0  0  0  0  0  0  0  0  0  0  0
  -26.4380  -22.3720   26.6170 N   0  0  0  0  0  0  0  0  0  0  0  0
  -28.0080  -21.5520   28.0100 O   0  0  0  0  0  0  0  0  0  0  0  0
  -25.4530  -22.3660   26.3850 H   0  0  0  0  0  0  0  0  0  0  0  0
  -25.7610  -20.7100   28.2700 C   0  0  0  0  0  2  0  0  0  0  0  0
  -26.3230  -19.6940   29.2830 C   0  0  0  0  0  2  0  0  0  0  0  0
  -25.2960  -18.6400   29.7180 C   0  0  0  0  0  2  0  0  0  0  0  0
  -25.8860  -17.6680   30.7520 C   0  0  0  0  0  2  0  0  0  0  0  0
  -24.9160  -16.5470   31.1660 C   0  0  0  0  0  2  0  0  0  0  0  0
  -25.2910  -14.8000   29.4330 C   0  0  0  0  0  0  0  0  0  0  0  0
  -24.5170  -15.7090   30.0390 N   0  0  0  0  0  0  0  0  0  0  0  0
  -26.4700  -14.6160   29.7460 O   0  0  0  0  0  0  0  0  0  0  0  0
  -23.5580  -15.7890   29.7270 H   0  0  0  0  0  0  0  0  0  0  0  0
  -24.6280  -13.9500   28.3430 C   0  0  0  0  0  2  0  0  0  0  0  0
  -25.6130  -13.1900   27.6420 O   0  0  0  0  0  0  0  0  0  0  0  0
  -25.0490  -12.0570   27.0020 C   0  0  0  0  0  2  0  0  0  0  0  0
  -26.1360  -11.2280   26.2990 C   0  0  0  0  0  2  0  0  0  0  0  0
  -26.5530  -11.7390   24.9090 C   0  0  0  0  0  2  0  0  0  0  0  0
  -27.5070  -12.8010   24.9820 O   0  0  0  0  0  0  0  0  0  0  0  0
  -28.8230  -12.4220   24.5820 C   0  0  0  0  0  2  0  0  0  0  0  0
  -29.6220  -13.6760   24.1920 C   0  0  0  0  0  2  0  0  0  0  0  0
  -30.8220  -13.4020   23.2480 C   0  0  0  0  0  2  0  0  0  0  0  0
  -30.8910  -14.1710   20.8440 C   0  0  0  0  0  0  0  0  0  0  0  0
  -30.4020  -12.2920   19.3400 C   0  0  0  0  0  2  0  0  0  0  0  0
  -29.4540  -12.5710   18.1630 C   0  0  0  0  0  2  0  0  0  0  0  0
  -27.9940  -12.3820   18.5960 C   0  0  0  0  0  2  0  0  0  0  0  0
  -27.6580  -13.2060   19.8620 C   0  0  0  0  0  3  0  0  0  0  0  0
  -28.6950  -12.9560   20.9720 C   0  0  0  0  0  2  0  0  0  0  0  0
  -30.0630  -13.1710   20.4620 N   0  0  0  0  0  0  0  0  0  0  0  0
  -31.6830  -14.7320   20.0810 O   0  0  0  0  0  0  0  0  0  0  0  0
  -30.9520  -14.4030   22.1710 N   0  0  0  0  0  0  0  0  0  0  0  0
  -31.5550  -15.1760   22.4020 H   0  0  0  0  0  0  0  0  0  0  0  0
  -25.2570  -13.8150   20.5720 C   0  0  0  0  0  0  0  0  0  0  0  0
  -24.1830  -13.0430   20.9200 C   0  0  0  0  0  0  0  0  0  0  0  0
  -24.6390  -11.6900   20.8770 C   0  0  0  0  0  0  0  0  0  0  0  0
  -26.3020  -12.9340   20.3340 N   0  0  0  0  0  0  0  0  0  0  0  0
  -25.9310  -11.6500   20.5790 N   0  0  0  0  0  0  0  0  0  0  0  0
  -23.9050  -10.4300   21.0450 C   0  0  0  0  0  0  0  0  0  0  0  0
  -24.3540   -9.4280   21.9340 C   0  0  0  0  0  3  0  0  0  0  0  0
  -23.6250   -8.2290   22.0870 C   0  0  0  0  0  3  0  0  0  0  0  0
  -22.4280   -8.0280   21.3590 C   0  0  0  0  0  0  0  0  0  0  0  0
  -21.9960   -9.0190   20.4600 C   0  0  0  0  0  3  0  0  0  0  0  0
  -22.7290  -10.2070   20.3010 C   0  0  0  0  0  3  0  0  0  0  0  0
  -21.6700   -6.8850   21.4230 O   0  0  0  0  0  0  0  0  0  0  0  0
  -21.6860   -6.0700   22.5260 C   0  0  0  0  0  0  0  0  0  0  0  0
  -21.4010   -6.5610   23.8190 C   0  0  0  0  0  3  0  0  0  0  0  0
  -21.3700   -5.6780   24.9160 C   0  0  0  0  0  3  0  0  0  0  0  0
  -21.6100   -4.3030   24.7230 C   0  0  0  0  0  0  0  0  0  0  0  0
  -21.8840   -3.8120   23.4340 C   0  0  0  0  0  3  0  0  0  0  0  0
  -21.9210   -4.6930   22.3400 C   0  0  0  0  0  0  0  0  0  0  0  0
  -22.1700   -4.2110   21.0980 F   0  0  0  0  0  0  0  0  0  0  0  0
  -21.5670   -3.4520   25.7730 F   0  0  0  0  0  0  0  0  0  0  0  0
  -22.7820  -13.5190   21.1800 C   0  0  0  0  0  0  0  0  0  0  0  0
  -22.0390  -12.8200   22.0320 N   0  0  0  0  0  0  0  0  0  0  0  0
  -22.3560  -14.5540   20.6700 O   0  0  0  0  0  0  0  0  0  0  0  0
  -22.3810  -11.9690   22.4570 H   0  0  0  0  0  0  0  0  0  0  0  0
  -21.0810  -13.0940   22.1960 H   0  0  0  0  0  0  0  0  0  0  0  0
  -25.4260  -15.1880   20.4190 N   0  0  0  0  0  0  0  0  0  0  0  0
  -24.6500  -15.8300   20.5390 H   0  0  0  0  0  0  0  0  0  0  0  0
  -26.2750  -15.6470   20.1150 H   0  0  0  0  0  0  0  0  0  0  0  0
  1  3  1  0
  1  5  1  0
  2  1  1  0
  5  4  1  0
  6  7  1  0
  6  5  1  0
  7  9  1  0
  8  6  2  0
 10  7  1  0
 10 11  1  0
 11 13  2  0
 12 11  1  0
 12 15  1  0
 14 12  1  0
 16 17  1  0
 16 15  1  0
 17 19  1  0
 18 16  2  0
 20 21  1  0
 20 17  1  0
 21 23  2  0
 22 25  1  0
 22 21  1  0
 24 22  1  0
 25 26  1  0
 27 28  1  0
 27 26  1  0
 29 30  1  0
 29 28  1  0
 31 30  1  0
 32 31  1  0
 33 35  1  0
 33 32  1  0
 34 45  2  0
 35 40  1  0
 36 44  1  0
 36 46  1  0
 37 43  1  0
 37 39  1  0
 38 44  1  0
 39 38  1  0
 40 39  2  0
 41 42  1  0
 41 35  2  0
 42 37  2  0
 43 36  1  0
 44 34  1  0
 46 48  2  0
 47 46  1  0
 49 47  1  0
 50 59  2  0
 50 55  1  0
 51 47  1  0
 51 55  1  0
 52 51  1  0
 53 54  1  0
 53 52  1  0
 54 50  1  0
 55 56  2  0
 56 57  1  0
 58 57  2  0
 59 58  1  0
 60 34  1  0
 60 65  1  0
 60 61  1  0
 61 64  1  1
 61 62  1  0
 63 61  1  0
 65 68  1  0
 66 70  1  0
 66 65  1  0
 67 66  2  0
 70 69  1  0
 72 70  1  0
 72 73  1  0
 72 71  1  0
 74  1  1  0
 75 74  1  0
 76 75  1  0
 77 76  1  0
 78 77  1  0
 78 79  1  0
 79 80  1  0
 80 81  1  0
 81 82  1  0
 82 83  1  0
 83 85  1  0
 84 86  2  0
 84 88  1  0
 85 84  1  0
 87 85  1  0
 88 89  1  0
 89 90  1  0
 90 91  1  0
 91 92  1  0
 93 95  2  0
 93 94  1  0
 94 92  1  0
 96 94  1  0
 97 93  1  0
 98 97  1  0
 99 98  1  0
100 99  1  0
101102  1  0
101100  1  0
103102  1  0
104103  1  0
105104  1  0
106114  1  0
107112  1  0
108109  1  0
108107  1  0
110109  1  0
110119  1  0
110111  1  0
112106  1  0
112111  1  0
113106  2  0
114115  1  0
114105  1  0
116117  2  0
117136  1  0
118117  1  0
118121  1  0
119116  1  0
119120  1  0
120118  2  0
121122  1  0
122123  2  0
124127  1  0
124123  1  0
125124  2  0
126125  1  0
126121  2  0
127128  1  0
128129  1  0
129130  2  0
131130  1  0
131135  1  0
132131  2  0
133128  2  0
133132  1  0
134133  1  0
136137  1  0
137140  1  0
137139  1  0
138136  2  0
141142  1  0
141116  1  0
143141  1  0
M  ISO  4  32 101  33 101 106 100 114 100
M  END
>  <TORSDO>  (47) 
F 58

>  <SCORE>  (47) 
114.377

>  <name>  (47) 
53

>  <ligand_id>  (47) 
53

>  <original_smiles>  (47) 
[H]c1c([H])c([H])c2c(c1[H])C([H])([H])C([H])([H])C([H])([H])C2([H])N([H])C(=O)C1([H])N(C(=O)C([H])(N([H])C(=O)C([H])(N([H])C([H])([H])[H])C([H])([H])[H])C(C([H])([H])[H])(C([H])([H])[H])C([H])([H])[H])C([H])([H])c2c([H])c(OC([H])([H])C([H])([H])C([H])([H])C([H])([H])C([H])([H])C([H])([H])C([H])([H])C([H])([H])N([H])C(=O)C([H])([H])N([H])C(=O)C([H])([H])N([H])C(=O)C([H])([H])N([H])C(=O)C([H])(C([H])([H])[H])[N+]([H])([H])C([H])([H])C([H])([H])OC([H])([H])C([H])([H])C([H])([H])OC([H])([H])C([H])([H])C([H])([H])N([H])C(=O)C([H])([H])C([H])([H])C([H])([H])C([H])([H])C([H])([H])N([H])C(=O)C([H])([H])OC([H])([H])C([H])([H])C([H])([H])OC([H])([H])C([H])([H])C([H])([H])N([H])C(=O)N3C([H])([H])C([H])([H])C([H])([H])C([H])(n4nc(-c5c([H])c([H])c(Oc6c([H])c([H])c(F)c([H])c6F)c([H])c5[H])c(C(=O)N([H])[H])c4N([H])[H])C3([H])[H])c([H])c([H])c2C1([H])[H]

>  <smiles>  (47) 
[H]c1c([H])c([H])c2c(c1[H])C([H])([H])C([H])([H])C([H])([H])C2([H])N([H])C(=O)C1([H])N(C(=O)C([H])(N([H])C(=O)C([H])(N([H])C([H])([H])[H])C([H])([H])[H])C(C([H])([H])[H])(C([H])([H])[H])C([H])([H])[H])C([H])([H])c2c([H])c(OC([H])([H])C([H])([H])C([H])([H])C([H])([H])C([H])([H])C([H])([H])C([H])([H])C([H])([H])N([H])C(=O)C([H])([H])N([H])C(=O)C([H])([H])N([H])C(=O)C([H])([H])N([H])C(=O)C([H])(C([H])([H])[H])[N+]([H])([H])C([H])([H])C([H])([H])OC([H])([H])C([H])([H])C([H])([H])OC([H])([H])C([H])([H])C([H])([H])N([H])C(=O)C([H])([H])C([H])([H])C([H])([H])C([H])([H])C([H])([H])N([H])C(=O)C([H])([H])OC([H])([H])C([H])([H])C([H])([H])OC([H])([H])C([H])([H])C([H])([H])N([H])C(=O)N3C([H])([H])C([H])([H])C([H])([H])C([H])(n4nc(-c5c([H])c([H])c(Oc6c([H])c([H])c(F)c([H])c6F)c([H])c5[H])c(C(=O)N([H])[H])c4N([H])[H])C3([H])[H])c([H])c([H])c2C1([H])[H]

$$$$
54:0:0
     RDKit          3D

122129  0  0  1  0  0  0  0  0999 V2000
  -30.2150  -25.1220   12.8320 C   0  0  0  0  0  0  0  0  0  0  0  0
  -28.9020  -24.8750   12.7530 N   0  0  0  0  0  0  0  0  0  0  0  0
  -30.6690  -26.1940   13.2350 O   0  0  0  0  0  0  0  0  0  0  0  0
  -28.6290  -23.9660   12.4020 H   0  0  0  0  0  0  0  0  0  0  0  0
  -31.1540  -23.9910   12.3800 C   0  0  0  0  0  2  0  0  0  0  0  0
  -30.5260  -22.7120   12.5320 O   0  0  0  0  0  0  0  0  0  0  0  0
  -30.4960  -22.2100   13.8660 C   0  0  0  0  0  2  0  0  0  0  0  0
  -31.6330  -21.1990   14.0880 C   0  0  0  0  0  2  0  0  0  0  0  0
  -31.7300  -20.6860   15.5400 C   0  0  0  0  0  2  0  0  0  0  0  0
  -30.6760  -19.7020   15.8810 N   0  0  0  0  0  4  0  0  0  0  0  0
  -29.8010  -20.0700   15.5430 H   0  0  0  0  0  0  0  0  0  0  0  0
  -30.8340  -18.8280   15.4030 H   0  0  0  0  0  0  0  0  0  0  0  0
  -30.4720  -19.4610   17.3270 C   0  0  0  0  0  2  0  0  0  0  0  0
  -31.4130  -18.4120   17.9600 C   0  0  0  0  0  2  0  0  0  0  0  0
  -32.8570  -18.8940   18.2010 C   0  0  0  0  0  2  0  0  0  0  0  0
  -33.5910  -18.1210   19.3190 C   0  0  0  0  0  2  0  0  0  0  0  0
  -34.0300  -19.0140   20.4940 C   0  0  0  0  0  2  0  0  0  0  0  0
  -32.8570  -19.6810   21.2470 C   0  0  0  0  0  2  0  0  0  0  0  0
  -32.6600  -19.2060   22.6980 C   0  0  0  0  0  2  0  0  0  0  0  0
  -31.4870  -17.0130   22.4670 C   0  0  0  0  0  0  0  0  0  0  0  0
  -32.5410  -17.7570   22.8190 N   0  0  0  0  0  0  0  0  0  0  0  0
  -30.4700  -17.4800   21.9480 O   0  0  0  0  0  0  0  0  0  0  0  0
  -33.3180  -17.2740   23.2510 H   0  0  0  0  0  0  0  0  0  0  0  0
  -31.5920  -15.5220   22.7870 C   0  0  0  0  0  2  0  0  0  0  0  0
  -30.8260  -14.2800   20.7740 C   0  0  0  0  0  0  0  0  0  0  0  0
  -30.4110  -12.3000   19.3660 C   0  0  0  0  0  2  0  0  0  0  0  0
  -29.4710  -12.5480   18.1770 C   0  0  0  0  0  2  0  0  0  0  0  0
  -28.0030  -12.3820   18.6040 C   0  0  0  0  0  2  0  0  0  0  0  0
  -27.6640  -13.2040   19.8740 C   0  0  0  0  0  3  0  0  0  0  0  0
  -28.7010  -12.9500   20.9880 C   0  0  0  0  0  2  0  0  0  0  0  0
  -30.0500  -13.2170   20.4550 N   0  0  0  0  0  0  0  0  0  0  0  0
  -31.7580  -14.6860   20.0720 O   0  0  0  0  0  0  0  0  0  0  0  0
  -30.6550  -14.6960   22.0320 N   0  0  0  0  0  0  0  0  0  0  0  0
  -29.8810  -14.2980   22.5420 H   0  0  0  0  0  0  0  0  0  0  0  0
  -25.2590  -13.8160   20.5670 C   0  0  0  0  0  0  0  0  0  0  0  0
  -24.1840  -13.0440   20.9150 C   0  0  0  0  0  0  0  0  0  0  0  0
  -24.6380  -11.6900   20.8710 C   0  0  0  0  0  0  0  0  0  0  0  0
  -26.3030  -12.9330   20.3350 N   0  0  0  0  0  0  0  0  0  0  0  0
  -25.9310  -11.6480   20.5730 N   0  0  0  0  0  0  0  0  0  0  0  0
  -23.9050  -10.4290   21.0390 C   0  0  0  0  0  0  0  0  0  0  0  0
  -24.3600   -9.4210   21.9170 C   0  0  0  0  0  3  0  0  0  0  0  0
  -23.6280   -8.2240   22.0740 C   0  0  0  0  0  3  0  0  0  0  0  0
  -22.4260   -8.0270   21.3540 C   0  0  0  0  0  0  0  0  0  0  0  0
  -21.9890   -9.0250   20.4640 C   0  0  0  0  0  3  0  0  0  0  0  0
  -22.7210  -10.2130   20.3040 C   0  0  0  0  0  3  0  0  0  0  0  0
  -21.6630   -6.8870   21.4240 O   0  0  0  0  0  0  0  0  0  0  0  0
  -21.6850   -6.0720   22.5280 C   0  0  0  0  0  0  0  0  0  0  0  0
  -21.4020   -6.5630   23.8200 C   0  0  0  0  0  3  0  0  0  0  0  0
  -21.3660   -5.6780   24.9180 C   0  0  0  0  0  3  0  0  0  0  0  0
  -21.6040   -4.3050   24.7230 C   0  0  0  0  0  0  0  0  0  0  0  0
  -21.8820   -3.8140   23.4350 C   0  0  0  0  0  3  0  0  0  0  0  0
  -21.9190   -4.6950   22.3400 C   0  0  0  0  0  0  0  0  0  0  0  0
  -22.1660   -4.2140   21.0980 F   0  0  0  0  0  0  0  0  0  0  0  0
  -21.5630   -3.4530   25.7740 F   0  0  0  0  0  0  0  0  0  0  0  0
  -22.7860  -13.5240   21.1820 C   0  0  0  0  0  0  0  0  0  0  0  0
  -22.0500  -12.8240   22.0400 N   0  0  0  0  0  0  0  0  0  0  0  0
  -22.3550  -14.5550   20.6680 O   0  0  0  0  0  0  0  0  0  0  0  0
  -22.4120  -11.9920   22.4800 H   0  0  0  0  0  0  0  0  0  0  0  0
  -21.1120  -13.1270   22.2590 H   0  0  0  0  0  0  0  0  0  0  0  0
  -25.4330  -15.1880   20.4110 N   0  0  0  0  0  0  0  0  0  0  0  0
  -24.6710  -15.8480   20.5260 H   0  0  0  0  0  0  0  0  0  0  0  0
  -26.2980  -15.6280   20.1230 H   0  0  0  0  0  0  0  0  0  0  0  0
  -27.8370  -25.8140   13.1030 C   0  0  0  0  0  2  0  0  0  0  0  0
  -27.3440  -25.6900   14.5510 C   0  0  0  0  0  0  0  0  0  0  0  0
  -27.7790  -24.6670   15.2950 N   0  0  0  0  0  0  0  0  0  0  0  0
  -26.5540  -26.5240   14.9940 O   0  0  0  0  0  0  0  0  0  0  0  0
  -28.4390  -24.0120   14.9000 H   0  0  0  0  0  0  0  0  0  0  0  0
  -27.3610  -24.4280   16.6700 C   0  0  0  0  0  2  0  0  0  0  0  0
  -28.2850  -23.4460   17.3900 C   0  0  0  0  0  0  0  0  0  0  0  0
  -28.2390  -23.4710   18.7250 N   0  0  0  0  0  0  0  0  0  0  0  0
  -29.0290  -22.6890   16.7580 O   0  0  0  0  0  0  0  0  0  0  0  0
  -27.6170  -24.1380   19.1600 H   0  0  0  0  0  0  0  0  0  0  0  0
  -29.0230  -22.6390   19.6400 C   0  0  0  0  0  2  0  0  0  0  0  0
  -30.3370  -23.2940   20.0950 C   0  0  0  0  0  0  0  0  0  0  0  0
  -30.7280  -24.4030   19.4520 N   0  0  0  0  0  0  0  0  0  0  0  0
  -30.9630  -22.8200   21.0430 O   0  0  0  0  0  0  0  0  0  0  0  0
  -30.1520  -24.6780   18.6710 H   0  0  0  0  0  0  0  0  0  0  0  0
  -31.8260  -25.2890   19.8210 C   0  0  0  0  0  2  0  0  0  0  0  0
  -31.3200  -26.5000   20.6310 C   0  0  0  0  0  2  0  0  0  0  0  0
  -30.6620  -27.6280   19.8090 C   0  0  0  0  0  2  0  0  0  0  0  0
  -29.3620  -27.2550   19.0800 C   0  0  0  0  0  2  0  0  0  0  0  0
  -28.3970  -26.7450   19.9980 O   0  0  0  0  0  0  0  0  0  0  0  0
  -24.6130  -31.8710   23.2120 C   0  0  0  0  0  0  0  0  0  0  0  0
  -27.2420  -27.4800   20.0720 C   0  0  0  0  0  0  0  0  0  0  0  0
  -23.3990  -30.4950   21.5520 C   0  0  0  0  0  3  0  0  0  0  0  0
  -24.8460  -28.9610   20.1210 C   0  0  0  0  0  0  0  0  0  0  0  0
  -25.9240  -30.8490   21.3580 C   0  0  0  0  0  2  0  0  0  0  0  0
  -26.0050  -29.4840   20.7090 C   0  0  0  0  0  0  0  0  0  0  0  0
  -27.2090  -28.7500   20.6850 C   0  0  0  0  0  3  0  0  0  0  0  0
  -26.0660  -26.9490   19.5110 C   0  0  0  0  0  3  0  0  0  0  0  0
  -24.8670  -27.6880   19.5230 C   0  0  0  0  0  3  0  0  0  0  0  0
  -23.6070  -29.8270   20.1670 C   0  0  0  0  0  2  0  0  0  0  0  0
  -24.6640  -31.0850   22.1000 N   0  0  0  0  0  0  0  0  0  0  0  0
  -23.5330  -32.1450   23.7530 O   0  0  0  0  0  0  0  0  0  0  0  0
  -22.7400  -29.4680   22.5000 C   0  0  0  0  0  0  0  0  0  0  0  0
  -21.4140  -29.3040   22.3730 N   0  0  0  0  0  0  0  0  0  0  0  0
  -23.4180  -28.8240   23.3060 O   0  0  0  0  0  0  0  0  0  0  0  0
  -20.9310  -29.8770   21.6960 H   0  0  0  0  0  0  0  0  0  0  0  0
  -18.0280  -28.1380   22.8490 C   0  0  0  0  0  0  0  0  0  0  0  0
  -20.5870  -28.3670   23.1320 C   0  0  0  0  0  3  0  0  0  0  0  0
  -20.6770  -26.9410   22.5410 C   0  0  0  0  0  2  0  0  0  0  0  0
  -19.5750  -26.6390   21.5210 C   0  0  0  0  0  2  0  0  0  0  0  0
  -18.1920  -26.7930   22.1620 C   0  0  0  0  0  2  0  0  0  0  0  0
  -19.1530  -28.8840   23.2910 C   0  0  0  0  0  0  0  0  0  0  0  0
  -18.9460  -30.1440   23.8920 C   0  0  0  0  0  3  0  0  0  0  0  0
  -17.6460  -30.6580   24.0570 C   0  0  0  0  0  3  0  0  0  0  0  0
  -16.5350  -29.9090   23.6320 C   0  0  0  0  0  3  0  0  0  0  0  0
  -16.7270  -28.6510   23.0330 C   0  0  0  0  0  3  0  0  0  0  0  0
  -25.9030  -32.4830   23.8410 C   0  0  0  0  0  3  0  0  0  0  0  0
  -26.4460  -31.6600   25.0720 C   0  0  1  0  0  0  0  0  0  0  0  0
  -25.3730  -31.3710   26.1480 C   0  0  0  0  0  1  0  0  0  0  0  0
  -27.0290  -30.3040   24.6070 C   0  0  0  0  0  1  0  0  0  0  0  0
  -27.6050  -32.4300   25.7470 C   0  0  0  0  0  1  0  0  0  0  0  0
  -25.5890  -33.8630   24.2340 N   0  0  0  0  0  0  0  0  0  0  0  0
  -25.9030  -34.9490   23.5150 C   0  0  0  0  0  0  0  0  0  0  0  0
  -26.5590  -34.8930   22.4710 O   0  0  0  0  0  0  0  0  0  0  0  0
  -24.9990  -33.9780   25.0440 H   0  0  0  0  0  0  0  0  0  0  0  0
  -24.1480  -36.7350   23.2640 C   0  0  0  0  0  1  0  0  0  0  0  0
  -25.4090  -36.3130   24.0350 C   0  0  0  0  0  3  0  0  0  0  0  0
  -27.5580  -37.1820   24.8460 C   0  0  0  0  0  1  0  0  0  0  0  0
  -26.4280  -37.3810   23.9420 N   0  0  0  0  0  0  0  0  0  0  0  0
  -26.0170  -38.2900   24.1400 H   0  0  0  0  0  0  0  0  0  0  0  0
  1  3  2  0
  2  1  1  0
  2 63  1  0
  4  2  1  0
  5  6  1  0
  5  1  1  0
  6  7  1  0
  7  8  1  0
  8  9  1  0
  9 10  1  0
 10 13  1  0
 11 10  1  0
 12 10  1  0
 13 14  1  0
 14 15  1  0
 15 16  1  0
 16 17  1  0
 17 18  1  0
 18 19  1  0
 19 21  1  0
 20 24  1  0
 20 21  1  0
 21 23  1  0
 22 20  2  0
 25 33  1  0
 26 31  1  0
 27 28  1  0
 27 26  1  0
 29 28  1  0
 29 38  1  0
 29 30  1  0
 31 25  1  0
 31 30  1  0
 32 25  2  0
 33 34  1  0
 33 24  1  0
 35 36  2  0
 36 55  1  0
 37 36  1  0
 37 40  1  0
 38 35  1  0
 38 39  1  0
 39 37  2  0
 40 41  1  0
 41 42  2  0
 43 46  1  0
 43 42  1  0
 44 43  2  0
 45 44  1  0
 45 40  2  0
 46 47  1  0
 47 48  1  0
 48 49  2  0
 50 49  1  0
 50 54  1  0
 51 50  2  0
 52 47  2  0
 52 51  1  0
 53 52  1  0
 55 56  1  0
 56 59  1  0
 56 58  1  0
 57 55  2  0
 60 61  1  0
 60 35  1  0
 62 60  1  0
 63 64  1  0
 64 66  2  0
 64 65  1  0
 65 68  1  0
 67 65  1  0
 68 69  1  0
 69 70  1  0
 70 72  1  0
 70 73  1  0
 71 69  2  0
 73 74  1  0
 74 76  2  0
 75 78  1  0
 75 74  1  0
 77 75  1  0
 78 79  1  0
 80 79  1  0
 81 80  1  0
 81 82  1  0
 82 84  1  0
 83 94  2  0
 84 89  1  0
 85 93  1  0
 85 95  1  0
 86 92  1  0
 86 88  1  0
 87 93  1  0
 88 87  1  0
 89 88  2  0
 90 91  1  0
 90 84  2  0
 91 86  2  0
 92 85  1  0
 93 83  1  0
 95 97  2  0
 96 95  1  0
 98 96  1  0
 99108  2  0
 99104  1  0
100 96  1  0
100104  1  0
101100  1  0
102103  1  0
102101  1  0
103 99  1  0
104105  2  0
105106  1  0
107106  2  0
108107  1  0
109 83  1  0
109114  1  0
109110  1  0
110113  1  1
110111  1  0
112110  1  0
114117  1  0
115119  1  0
115114  1  0
116115  2  0
119118  1  0
121119  1  0
121122  1  0
121120  1  0
M  ISO  4  25 100  33 100  81 101  82 101
M  END
>  <TORSDO>  (48) 
F 41

>  <SCORE>  (48) 
-5.553

>  <name>  (48) 
54

>  <ligand_id>  (48) 
54

>  <original_smiles>  (48) 
[H]c1c([H])c([H])c2c(c1[H])C([H])([H])C([H])([H])C([H])([H])C2([H])N([H])C(=O)C1([H])N(C(=O)C([H])(N([H])C(=O)C([H])(N([H])C([H])([H])[H])C([H])([H])[H])C(C([H])([H])[H])(C([H])([H])[H])C([H])([H])[H])C([H])([H])c2c([H])c(OC([H])([H])C([H])([H])C([H])([H])C([H])([H])N([H])C(=O)C([H])([H])N([H])C(=O)C([H])([H])N([H])C(=O)C([H])([H])N([H])C(=O)C([H])([H])OC([H])([H])C([H])([H])C([H])([H])[N+]([H])([H])C([H])([H])C([H])([H])C([H])([H])C([H])([H])C([H])([H])C([H])([H])C([H])([H])N([H])C(=O)C([H])([H])N([H])C(=O)N3C([H])([H])C([H])([H])C([H])([H])C([H])(n4nc(-c5c([H])c([H])c(Oc6c([H])c([H])c(F)c([H])c6F)c([H])c5[H])c(C(=O)N([H])[H])c4N([H])[H])C3([H])[H])c([H])c([H])c2C1([H])[H]

>  <smiles>  (48) 
[H]c1c([H])c([H])c2c(c1[H])C([H])([H])C([H])([H])C([H])([H])C2([H])N([H])C(=O)C1([H])N(C(=O)C([H])(N([H])C(=O)C([H])(N([H])C([H])([H])[H])C([H])([H])[H])C(C([H])([H])[H])(C([H])([H])[H])C([H])([H])[H])C([H])([H])c2c([H])c(OC([H])([H])C([H])([H])C([H])([H])C([H])([H])N([H])C(=O)C([H])([H])N([H])C(=O)C([H])([H])N([H])C(=O)C([H])([H])N([H])C(=O)C([H])([H])OC([H])([H])C([H])([H])C([H])([H])[N+]([H])([H])C([H])([H])C([H])([H])C([H])([H])C([H])([H])C([H])([H])C([H])([H])C([H])([H])N([H])C(=O)C([H])([H])N([H])C(=O)N3C([H])([H])C([H])([H])C([H])([H])C([H])(n4nc(-c5c([H])c([H])c(Oc6c([H])c([H])c(F)c([H])c6F)c([H])c5[H])c(C(=O)N([H])[H])c4N([H])[H])C3([H])[H])c([H])c([H])c2C1([H])[H]

$$$$
55:0:0
     RDKit          3D

108115  0  0  1  0  0  0  0  0999 V2000
  -31.4920  -28.6010   15.8350 C   0  0  0  0  0  0  0  0  0  0  0  0
  -31.7280  -29.9180   15.7230 N   0  0  0  0  0  0  0  0  0  0  0  0
  -30.3840  -28.0930   15.6490 O   0  0  0  0  0  0  0  0  0  0  0  0
  -32.6830  -30.2130   15.8830 H   0  0  0  0  0  0  0  0  0  0  0  0
  -30.7900  -30.9780   15.3470 C   0  0  0  0  0  2  0  0  0  0  0  0
  -30.0530  -31.5880   16.5580 C   0  0  0  0  0  2  0  0  0  0  0  0
  -30.9820  -32.0980   17.6900 C   0  0  0  0  0  2  0  0  0  0  0  0
  -30.3640  -32.0370   19.1070 C   0  0  0  0  0  2  0  0  0  0  0  0
  -30.6520  -30.7590   19.8050 N   0  0  0  0  0  4  0  0  0  0  0  0
  -30.3310  -30.8590   20.7540 H   0  0  0  0  0  0  0  0  0  0  0  0
  -31.6510  -30.6230   19.8510 H   0  0  0  0  0  0  0  0  0  0  0  0
  -30.0000  -29.5790   19.1980 C   0  0  0  0  0  2  0  0  0  0  0  0
  -30.2940  -28.2540   19.9180 C   0  0  0  0  0  2  0  0  0  0  0  0
  -29.4660  -27.0990   19.3280 C   0  0  0  0  0  2  0  0  0  0  0  0
  -28.3690  -26.7060   20.1410 O   0  0  0  0  0  0  0  0  0  0  0  0
  -24.6060  -31.8750   23.2170 C   0  0  0  0  0  0  0  0  0  0  0  0
  -27.2390  -27.4840   20.1010 C   0  0  0  0  0  0  0  0  0  0  0  0
  -23.3900  -30.5000   21.5520 C   0  0  0  0  0  3  0  0  0  0  0  0
  -24.8380  -28.9690   20.1130 C   0  0  0  0  0  0  0  0  0  0  0  0
  -25.9120  -30.8510   21.3670 C   0  0  0  0  0  2  0  0  0  0  0  0
  -25.9870  -29.4880   20.7220 C   0  0  0  0  0  0  0  0  0  0  0  0
  -27.1790  -28.7400   20.7400 C   0  0  0  0  0  3  0  0  0  0  0  0
  -26.0800  -26.9660   19.4910 C   0  0  0  0  0  3  0  0  0  0  0  0
  -24.8780  -27.7030   19.4960 C   0  0  0  0  0  3  0  0  0  0  0  0
  -23.5930  -29.8290   20.1660 C   0  0  0  0  0  2  0  0  0  0  0  0
  -24.6530  -31.0920   22.1020 N   0  0  0  0  0  0  0  0  0  0  0  0
  -23.5270  -32.1450   23.7640 O   0  0  0  0  0  0  0  0  0  0  0  0
  -22.7370  -29.4700   22.5020 C   0  0  0  0  0  0  0  0  0  0  0  0
  -21.4100  -29.3020   22.3750 N   0  0  0  0  0  0  0  0  0  0  0  0
  -23.4190  -28.8320   23.3090 O   0  0  0  0  0  0  0  0  0  0  0  0
  -20.9270  -29.8610   21.6860 H   0  0  0  0  0  0  0  0  0  0  0  0
  -18.0280  -28.1390   22.8500 C   0  0  0  0  0  0  0  0  0  0  0  0
  -20.5860  -28.3660   23.1350 C   0  0  0  0  0  3  0  0  0  0  0  0
  -20.6770  -26.9390   22.5430 C   0  0  0  0  0  2  0  0  0  0  0  0
  -19.5750  -26.6400   21.5220 C   0  0  0  0  0  2  0  0  0  0  0  0
  -18.1930  -26.7940   22.1630 C   0  0  0  0  0  2  0  0  0  0  0  0
  -19.1520  -28.8850   23.2930 C   0  0  0  0  0  0  0  0  0  0  0  0
  -18.9430  -30.1460   23.8930 C   0  0  0  0  0  3  0  0  0  0  0  0
  -17.6420  -30.6590   24.0570 C   0  0  0  0  0  3  0  0  0  0  0  0
  -16.5330  -29.9080   23.6330 C   0  0  0  0  0  3  0  0  0  0  0  0
  -16.7270  -28.6500   23.0350 C   0  0  0  0  0  3  0  0  0  0  0  0
  -25.8970  -32.4860   23.8450 C   0  0  0  0  0  3  0  0  0  0  0  0
  -26.4440  -31.6620   25.0760 C   0  0  1  0  0  0  0  0  0  0  0  0
  -25.3700  -31.3690   26.1500 C   0  0  0  0  0  1  0  0  0  0  0  0
  -27.0210  -30.3070   24.6110 C   0  0  0  0  0  1  0  0  0  0  0  0
  -27.6060  -32.4300   25.7460 C   0  0  0  0  0  1  0  0  0  0  0  0
  -25.5850  -33.8670   24.2370 N   0  0  0  0  0  0  0  0  0  0  0  0
  -25.9030  -34.9520   23.5190 C   0  0  0  0  0  0  0  0  0  0  0  0
  -26.5600  -34.8940   22.4760 O   0  0  0  0  0  0  0  0  0  0  0  0
  -24.9940  -33.9800   25.0470 H   0  0  0  0  0  0  0  0  0  0  0  0
  -24.1460  -36.7350   23.2640 C   0  0  0  0  0  1  0  0  0  0  0  0
  -25.4090  -36.3170   24.0360 C   0  0  0  0  0  3  0  0  0  0  0  0
  -27.5590  -37.1810   24.8470 C   0  0  0  0  0  1  0  0  0  0  0  0
  -26.4300  -37.3830   23.9420 N   0  0  0  0  0  0  0  0  0  0  0  0
  -26.0230  -38.2940   24.1400 H   0  0  0  0  0  0  0  0  0  0  0  0
  -32.7020  -27.7470   16.2430 C   0  0  0  0  0  2  0  0  0  0  0  0
  -32.5380  -25.5060   17.3450 C   0  0  0  0  0  0  0  0  0  0  0  0
  -32.4770  -26.2960   16.2620 N   0  0  0  0  0  0  0  0  0  0  0  0
  -32.6070  -25.9650   18.4890 O   0  0  0  0  0  0  0  0  0  0  0  0
  -32.3620  -25.8520   15.3610 H   0  0  0  0  0  0  0  0  0  0  0  0
  -32.6040  -23.9830   17.1140 C   0  0  0  0  0  2  0  0  0  0  0  0
  -32.0380  -23.2660   18.2170 O   0  0  0  0  0  0  0  0  0  0  0  0
  -32.4850  -21.9100   18.2950 C   0  0  0  0  0  2  0  0  0  0  0  0
  -31.4970  -21.0580   19.1220 C   0  0  0  0  0  2  0  0  0  0  0  0
  -32.0230  -19.6370   19.4390 C   0  0  0  0  0  2  0  0  0  0  0  0
  -31.1090  -17.6480   20.6620 C   0  0  0  0  0  0  0  0  0  0  0  0
  -30.9560  -18.7470   19.9070 N   0  0  0  0  0  0  0  0  0  0  0  0
  -32.1810  -17.3360   21.1820 O   0  0  0  0  0  0  0  0  0  0  0  0
  -30.0200  -18.9490   19.5780 H   0  0  0  0  0  0  0  0  0  0  0  0
  -29.8370  -16.8090   20.8790 C   0  0  0  0  0  2  0  0  0  0  0  0
  -30.6900  -14.4360   20.5760 C   0  0  0  0  0  0  0  0  0  0  0  0
  -30.4270  -12.2810   19.4100 C   0  0  0  0  0  2  0  0  0  0  0  0
  -29.4940  -12.5080   18.2010 C   0  0  0  0  0  2  0  0  0  0  0  0
  -28.0150  -12.3690   18.6110 C   0  0  0  0  0  2  0  0  0  0  0  0
  -27.6690  -13.1950   19.8790 C   0  0  0  0  0  3  0  0  0  0  0  0
  -28.7090  -12.9350   20.9950 C   0  0  0  0  0  2  0  0  0  0  0  0
  -30.0490  -13.2420   20.4570 N   0  0  0  0  0  0  0  0  0  0  0  0
  -31.7620  -14.6760   20.0170 O   0  0  0  0  0  0  0  0  0  0  0  0
  -29.9690  -15.3780   21.2050 N   0  0  0  0  0  0  0  0  0  0  0  0
  -29.1800  -14.9990   21.7080 H   0  0  0  0  0  0  0  0  0  0  0  0
  -25.2620  -13.8140   20.5670 C   0  0  0  0  0  0  0  0  0  0  0  0
  -24.1870  -13.0450   20.9160 C   0  0  0  0  0  0  0  0  0  0  0  0
  -24.6390  -11.6890   20.8700 C   0  0  0  0  0  0  0  0  0  0  0  0
  -26.3050  -12.9280   20.3360 N   0  0  0  0  0  0  0  0  0  0  0  0
  -25.9320  -11.6450   20.5750 N   0  0  0  0  0  0  0  0  0  0  0  0
  -23.9050  -10.4290   21.0400 C   0  0  0  0  0  0  0  0  0  0  0  0
  -24.3610   -9.4210   21.9170 C   0  0  0  0  0  3  0  0  0  0  0  0
  -23.6300   -8.2240   22.0740 C   0  0  0  0  0  3  0  0  0  0  0  0
  -22.4270   -8.0270   21.3540 C   0  0  0  0  0  0  0  0  0  0  0  0
  -21.9900   -9.0240   20.4630 C   0  0  0  0  0  3  0  0  0  0  0  0
  -22.7220  -10.2130   20.3050 C   0  0  0  0  0  3  0  0  0  0  0  0
  -21.6640   -6.8880   21.4240 O   0  0  0  0  0  0  0  0  0  0  0  0
  -21.6850   -6.0740   22.5280 C   0  0  0  0  0  0  0  0  0  0  0  0
  -21.4010   -6.5640   23.8210 C   0  0  0  0  0  3  0  0  0  0  0  0
  -21.3660   -5.6790   24.9170 C   0  0  0  0  0  3  0  0  0  0  0  0
  -21.6050   -4.3060   24.7230 C   0  0  0  0  0  0  0  0  0  0  0  0
  -21.8820   -3.8150   23.4350 C   0  0  0  0  0  3  0  0  0  0  0  0
  -21.9190   -4.6960   22.3400 C   0  0  0  0  0  0  0  0  0  0  0  0
  -22.1660   -4.2150   21.0980 F   0  0  0  0  0  0  0  0  0  0  0  0
  -21.5630   -3.4540   25.7740 F   0  0  0  0  0  0  0  0  0  0  0  0
  -22.7880  -13.5240   21.1840 C   0  0  0  0  0  0  0  0  0  0  0  0
  -22.0530  -12.8230   22.0390 N   0  0  0  0  0  0  0  0  0  0  0  0
  -22.3570  -14.5560   20.6680 O   0  0  0  0  0  0  0  0  0  0  0  0
  -22.4160  -11.9910   22.4810 H   0  0  0  0  0  0  0  0  0  0  0  0
  -21.1130  -13.1220   22.2570 H   0  0  0  0  0  0  0  0  0  0  0  0
  -25.4390  -15.1850   20.4010 N   0  0  0  0  0  0  0  0  0  0  0  0
  -24.6760  -15.8460   20.4940 H   0  0  0  0  0  0  0  0  0  0  0  0
  -26.2970  -15.6120   20.0720 H   0  0  0  0  0  0  0  0  0  0  0  0
  1 56  1  0
  2  1  1  0
  2  4  1  0
  3  1  2  0
  5  2  1  0
  5  6  1  0
  6  7  1  0
  7  8  1  0
  8  9  1  0
  9 11  1  0
  9 10  1  0
 12  9  1  0
 12 13  1  0
 14 13  1  0
 14 15  1  0
 16 27  2  0
 17 15  1  0
 17 22  1  0
 18 26  1  0
 18 28  1  0
 19 25  1  0
 19 21  1  0
 20 26  1  0
 21 22  2  0
 21 20  1  0
 23 24  1  0
 23 17  2  0
 24 19  2  0
 25 18  1  0
 26 16  1  0
 28 30  2  0
 29 28  1  0
 31 29  1  0
 32 41  2  0
 32 37  1  0
 33 29  1  0
 33 37  1  0
 34 33  1  0
 35 36  1  0
 35 34  1  0
 36 32  1  0
 37 38  2  0
 38 39  1  0
 40 39  2  0
 41 40  1  0
 42 16  1  0
 42 47  1  0
 42 43  1  0
 43 46  1  1
 43 44  1  0
 45 43  1  0
 47 50  1  0
 48 52  1  0
 48 47  1  0
 49 48  2  0
 52 51  1  0
 54 52  1  0
 54 55  1  0
 54 53  1  0
 56 58  1  0
 57 59  2  0
 58 57  1  0
 60 58  1  0
 61 57  1  0
 61 62  1  0
 62 63  1  0
 63 64  1  0
 64 65  1  0
 65 67  1  0
 66 70  1  0
 66 68  2  0
 67 66  1  0
 69 67  1  0
 70 79  1  0
 71 79  1  0
 72 77  1  0
 73 74  1  0
 73 72  1  0
 75 74  1  0
 75 84  1  0
 75 76  1  0
 77 71  1  0
 77 76  1  0
 78 71  2  0
 79 80  1  0
 81 82  2  0
 82101  1  0
 83 82  1  0
 83 86  1  0
 84 81  1  0
 84 85  1  0
 85 83  2  0
 86 87  1  0
 87 88  2  0
 89 92  1  0
 89 88  1  0
 90 89  2  0
 91 90  1  0
 91 86  2  0
 92 93  1  0
 93 94  1  0
 94 95  2  0
 96 95  1  0
 96100  1  0
 97 96  2  0
 98 93  2  0
 98 97  1  0
 99 98  1  0
101102  1  0
102105  1  0
102104  1  0
103101  2  0
106107  1  0
106 81  1  0
108106  1  0
M  ISO  4  14 101  15 101  71 100  79 100
M  END
>  <TORSDO>  (49) 
F 33

>  <SCORE>  (49) 
0.437

>  <name>  (49) 
55

>  <ligand_id>  (49) 
55

>  <original_smiles>  (49) 
[H]c1c([H])c([H])c2c(c1[H])C([H])([H])C([H])([H])C([H])([H])C2([H])N([H])C(=O)C1([H])N(C(=O)C([H])(N([H])C(=O)C([H])(N([H])C([H])([H])[H])C([H])([H])[H])C(C([H])([H])[H])(C([H])([H])[H])C([H])([H])[H])C([H])([H])c2c([H])c(OC([H])([H])C([H])([H])C([H])([H])[N+]([H])([H])C([H])([H])C([H])([H])C([H])([H])C([H])([H])N([H])C(=O)C([H])([H])N([H])C(=O)C([H])([H])OC([H])([H])C([H])([H])C([H])([H])N([H])C(=O)C([H])([H])N([H])C(=O)N3C([H])([H])C([H])([H])C([H])([H])C([H])(n4nc(-c5c([H])c([H])c(Oc6c([H])c([H])c(F)c([H])c6F)c([H])c5[H])c(C(=O)N([H])[H])c4N([H])[H])C3([H])[H])c([H])c([H])c2C1([H])[H]

>  <smiles>  (49) 
[H]c1c([H])c([H])c2c(c1[H])C([H])([H])C([H])([H])C([H])([H])C2([H])N([H])C(=O)C1([H])N(C(=O)C([H])(N([H])C(=O)C([H])(N([H])C([H])([H])[H])C([H])([H])[H])C(C([H])([H])[H])(C([H])([H])[H])C([H])([H])[H])C([H])([H])c2c([H])c(OC([H])([H])C([H])([H])C([H])([H])[N+]([H])([H])C([H])([H])C([H])([H])C([H])([H])C([H])([H])N([H])C(=O)C([H])([H])N([H])C(=O)C([H])([H])OC([H])([H])C([H])([H])C([H])([H])N([H])C(=O)C([H])([H])N([H])C(=O)N3C([H])([H])C([H])([H])C([H])([H])C([H])(n4nc(-c5c([H])c([H])c(Oc6c([H])c([H])c(F)c([H])c6F)c([H])c5[H])c(C(=O)N([H])[H])c4N([H])[H])C3([H])[H])c([H])c([H])c2C1([H])[H]

$$$$
56:0:0
     RDKit          3D

106113  0  0  1  0  0  0  0  0999 V2000
  -19.4280  -19.9000   23.9260 C   0  0  0  0  0  0  0  0  0  0  0  0
  -19.1300  -21.2020   23.8740 N   0  0  0  0  0  0  0  0  0  0  0  0
  -19.1670  -19.1190   23.0090 O   0  0  0  0  0  0  0  0  0  0  0  0
  -19.3570  -21.7660   24.6830 H   0  0  0  0  0  0  0  0  0  0  0  0
  -18.5790  -21.8970   22.7160 C   0  0  0  0  0  2  0  0  0  0  0  0
  -19.4830  -21.7580   21.4690 C   0  0  0  0  0  2  0  0  0  0  0  0
  -20.0310  -23.1070   20.9950 C   0  0  0  0  0  2  0  0  0  0  0  0
  -20.9700  -23.0010   19.7850 C   0  0  0  0  0  2  0  0  0  0  0  0
  -22.1280  -23.9960   19.9160 C   0  0  0  0  0  2  0  0  0  0  0  0
  -23.1280  -23.7210   18.9530 O   0  0  0  0  0  0  0  0  0  0  0  0
  -24.3860  -24.2570   19.3610 C   0  0  0  0  0  2  0  0  0  0  0  0
  -25.3670  -24.2560   18.1910 C   0  0  0  0  0  0  0  0  0  0  0  0
  -25.1810  -23.5700   17.1780 O   0  0  0  0  0  0  0  0  0  0  0  0
  -26.5930  -25.1640   18.3280 C   0  0  0  0  0  2  0  0  0  0  0  0
  -26.3720  -26.3740   17.6030 O   0  0  0  0  0  0  0  0  0  0  0  0
  -25.2810  -30.0700   23.5850 C   0  0  0  0  0  0  0  0  0  0  0  0
  -25.6040  -27.2840   18.2810 C   0  0  0  0  0  0  0  0  0  0  0  0
  -23.4460  -30.1360   21.9220 C   0  0  0  0  0  3  0  0  0  0  0  0
  -24.0060  -29.1760   19.6270 C   0  0  0  0  0  0  0  0  0  0  0  0
  -25.8650  -29.7800   21.1860 C   0  0  0  0  0  2  0  0  0  0  0  0
  -25.3290  -28.9620   20.0320 C   0  0  0  0  0  0  0  0  0  0  0  0
  -26.1350  -28.0180   19.3620 C   0  0  0  0  0  3  0  0  0  0  0  0
  -24.2700  -27.5000   17.8800 C   0  0  0  0  0  3  0  0  0  0  0  0
  -23.4660  -28.4380   18.5560 C   0  0  0  0  0  3  0  0  0  0  0  0
  -23.2200  -30.2180   20.3870 C   0  0  0  0  0  2  0  0  0  0  0  0
  -24.8910  -29.9710   22.2830 N   0  0  0  0  0  0  0  0  0  0  0  0
  -24.4660  -30.3440   24.4790 O   0  0  0  0  0  0  0  0  0  0  0  0
  -22.5430  -29.0220   22.4960 C   0  0  0  0  0  0  0  0  0  0  0  0
  -21.2170  -29.2290   22.4330 N   0  0  0  0  0  0  0  0  0  0  0  0
  -23.0350  -27.9890   22.9590 O   0  0  0  0  0  0  0  0  0  0  0  0
  -20.8910  -30.1110   22.0570 H   0  0  0  0  0  0  0  0  0  0  0  0
  -17.6530  -28.6610   22.4600 C   0  0  0  0  0  0  0  0  0  0  0  0
  -20.1790  -28.2960   22.8740 C   0  0  0  0  0  3  0  0  0  0  0  0
  -20.0590  -27.0980   21.9090 C   0  0  0  0  0  2  0  0  0  0  0  0
  -19.0150  -27.3110   20.8060 C   0  0  0  0  0  2  0  0  0  0  0  0
  -17.6290  -27.5600   21.4130 C   0  0  0  0  0  2  0  0  0  0  0  0
  -18.8530  -29.0170   23.1310 C   0  0  0  0  0  0  0  0  0  0  0  0
  -18.8300  -30.0770   24.0650 C   0  0  0  0  0  3  0  0  0  0  0  0
  -17.6360  -30.7740   24.3320 C   0  0  0  0  0  3  0  0  0  0  0  0
  -16.4460  -30.4020   23.6810 C   0  0  0  0  0  3  0  0  0  0  0  0
  -16.4550  -29.3460   22.7540 C   0  0  0  0  0  3  0  0  0  0  0  0
  -26.7720  -29.8750   24.0130 C   0  0  0  0  0  3  0  0  0  0  0  0
  -27.0140  -28.5560   24.8430 C   0  0  1  0  0  0  0  0  0  0  0  0
  -26.0620  -28.4050   26.0540 C   0  0  0  0  0  1  0  0  0  0  0  0
  -26.8460  -27.3070   23.9440 C   0  0  0  0  0  1  0  0  0  0  0  0
  -28.4690  -28.5260   25.3690 C   0  0  0  0  0  1  0  0  0  0  0  0
  -27.1650  -31.0570   24.7900 N   0  0  0  0  0  0  0  0  0  0  0  0
  -27.8790  -32.0810   24.3040 C   0  0  0  0  0  0  0  0  0  0  0  0
  -28.3420  -32.0930   23.1610 O   0  0  0  0  0  0  0  0  0  0  0  0
  -26.7750  -31.1410   25.7170 H   0  0  0  0  0  0  0  0  0  0  0  0
  -27.1470  -34.4180   24.8710 C   0  0  0  0  0  1  0  0  0  0  0  0
  -28.1180  -33.2840   25.2350 C   0  0  0  0  0  3  0  0  0  0  0  0
  -30.4730  -32.8640   25.7890 C   0  0  0  0  0  1  0  0  0  0  0  0
  -29.5080  -33.7890   25.2000 N   0  0  0  0  0  0  0  0  0  0  0  0
  -29.5800  -34.6790   25.6850 H   0  0  0  0  0  0  0  0  0  0  0  0
  -20.1810  -19.3950   25.1550 C   0  0  0  0  0  2  0  0  0  0  0  0
  -22.4990  -18.7330   24.5480 C   0  0  0  0  0  0  0  0  0  0  0  0
  -21.1980  -18.4490   24.7010 N   0  0  0  0  0  0  0  0  0  0  0  0
  -22.9810  -19.8110   24.9010 O   0  0  0  0  0  0  0  0  0  0  0  0
  -20.8480  -17.5820   24.3130 H   0  0  0  0  0  0  0  0  0  0  0  0
  -23.3990  -17.6640   23.9070 C   0  0  0  0  0  2  0  0  0  0  0  0
  -23.8400  -18.1010   22.6170 O   0  0  0  0  0  0  0  0  0  0  0  0
  -24.6830  -17.1430   21.9820 C   0  0  0  0  0  2  0  0  0  0  0  0
  -25.2140  -17.6600   20.6290 C   0  0  0  0  0  2  0  0  0  0  0  0
  -26.5880  -17.0520   20.2450 C   0  0  0  0  0  2  0  0  0  0  0  0
  -27.2830  -17.7500   19.0460 C   0  0  0  0  0  2  0  0  0  0  0  0
  -28.6130  -18.5030   19.3550 C   0  0  0  0  0  2  0  0  0  0  0  0
  -29.8990  -17.7270   18.9670 C   0  0  0  0  0  2  0  0  0  0  0  0
  -30.4680  -15.2450   19.0680 C   0  0  0  0  0  0  0  0  0  0  0  0
  -30.9510  -13.0590   20.1170 C   0  0  0  0  0  2  0  0  0  0  0  0
  -30.3560  -11.8260   19.4140 C   0  0  0  0  0  2  0  0  0  0  0  0
  -28.8910  -11.5930   19.8290 C   0  0  0  0  0  2  0  0  0  0  0  0
  -28.0450  -12.8810   19.7040 C   0  0  0  0  0  3  0  0  0  0  0  0
  -28.7410  -14.0400   20.4350 C   0  0  0  0  0  2  0  0  0  0  0  0
  -30.0910  -14.2160   19.8620 N   0  0  0  0  0  0  0  0  0  0  0  0
  -31.4670  -15.2360   18.3380 O   0  0  0  0  0  0  0  0  0  0  0  0
  -29.7200  -16.3300   19.3150 N   0  0  0  0  0  0  0  0  0  0  0  0
  -28.9420  -16.1500   19.9330 H   0  0  0  0  0  0  0  0  0  0  0  0
  -25.6880  -13.6220   20.4280 C   0  0  0  0  0  0  0  0  0  0  0  0
  -24.5900  -12.9070   20.8260 C   0  0  0  0  0  0  0  0  0  0  0  0
  -24.9860  -11.5370   20.8190 C   0  0  0  0  0  0  0  0  0  0  0  0
  -26.6850  -12.6850   20.2020 N   0  0  0  0  0  0  0  0  0  0  0  0
  -26.2670  -11.4270   20.4930 N   0  0  0  0  0  0  0  0  0  0  0  0
  -24.2070  -10.3130   21.0470 C   0  0  0  0  0  0  0  0  0  0  0  0
  -24.5240   -9.4220   22.0950 C   0  0  0  0  0  3  0  0  0  0  0  0
  -23.7530   -8.2590   22.3020 C   0  0  0  0  0  3  0  0  0  0  0  0
  -22.6490   -7.9810   21.4630 C   0  0  0  0  0  0  0  0  0  0  0  0
  -22.3490   -8.8630   20.4090 C   0  0  0  0  0  3  0  0  0  0  0  0
  -23.1220  -10.0160   20.1990 C   0  0  0  0  0  3  0  0  0  0  0  0
  -21.8570   -6.8640   21.5760 O   0  0  0  0  0  0  0  0  0  0  0  0
  -21.6630   -6.2390   22.7800 C   0  0  0  0  0  0  0  0  0  0  0  0
  -21.0020   -6.8770   23.8530 C   0  0  0  0  0  3  0  0  0  0  0  0
  -20.7630   -6.1730   25.0500 C   0  0  0  0  0  3  0  0  0  0  0  0
  -21.1730   -4.8310   25.1740 C   0  0  0  0  0  0  0  0  0  0  0  0
  -21.8240   -4.1940   24.1030 C   0  0  0  0  0  3  0  0  0  0  0  0
  -22.0670   -4.8950   22.9100 C   0  0  0  0  0  0  0  0  0  0  0  0
  -22.6780   -4.2690   21.8760 F   0  0  0  0  0  0  0  0  0  0  0  0
  -20.9350   -4.1510   26.3200 F   0  0  0  0  0  0  0  0  0  0  0  0
  -23.2190  -13.4550   21.1030 C   0  0  0  0  0  0  0  0  0  0  0  0
  -22.4650  -12.7950   21.9740 N   0  0  0  0  0  0  0  0  0  0  0  0
  -22.8270  -14.4970   20.5820 O   0  0  0  0  0  0  0  0  0  0  0  0
  -22.7930  -11.9450   22.4090 H   0  0  0  0  0  0  0  0  0  0  0  0
  -21.5390  -13.1360   22.1920 H   0  0  0  0  0  0  0  0  0  0  0  0
  -25.9230  -14.9780   20.2220 N   0  0  0  0  0  0  0  0  0  0  0  0
  -25.2000  -15.6800   20.3310 H   0  0  0  0  0  0  0  0  0  0  0  0
  -26.8030  -15.3660   19.9040 H   0  0  0  0  0  0  0  0  0  0  0  0
  1 56  1  0
  2  1  1  0
  2  4  1  0
  3  1  2  0
  5  2  1  0
  6  5  1  0
  7  6  1  0
  8  9  1  0
  8  7  1  0
 10 11  1  0
 10  9  1  0
 12 14  1  0
 12 11  1  0
 13 12  2  0
 15 17  1  0
 15 14  1  0
 16 27  2  0
 17 22  1  0
 18 26  1  0
 18 28  1  0
 19 21  1  0
 19 25  1  0
 20 26  1  0
 21 20  1  0
 22 21  2  0
 23 17  2  0
 23 24  1  0
 24 19  2  0
 25 18  1  0
 26 16  1  0
 28 30  2  0
 29 28  1  0
 31 29  1  0
 32 41  2  0
 32 37  1  0
 33 29  1  0
 33 37  1  0
 34 33  1  0
 35 36  1  0
 35 34  1  0
 36 32  1  0
 37 38  2  0
 38 39  1  0
 40 39  2  0
 41 40  1  0
 42 16  1  0
 42 47  1  0
 42 43  1  0
 43 46  1  1
 43 44  1  0
 45 43  1  0
 47 50  1  0
 48 47  1  0
 48 52  1  0
 49 48  2  0
 52 51  1  0
 54 52  1  0
 54 55  1  0
 54 53  1  0
 57 58  1  0
 57 59  2  0
 58 56  1  0
 60 58  1  0
 61 57  1  0
 62 61  1  0
 63 62  1  0
 64 63  1  0
 65 64  1  0
 66 67  1  0
 66 65  1  0
 68 77  1  0
 68 67  1  0
 69 77  1  0
 69 75  1  0
 71 72  1  0
 71 70  1  0
 73 72  1  0
 73 82  1  0
 73 74  1  0
 75 70  1  0
 75 74  1  0
 76 69  2  0
 77 78  1  0
 79 80  2  0
 80 99  1  0
 81 80  1  0
 81 84  1  0
 82 79  1  0
 82 83  1  0
 83 81  2  0
 84 85  1  0
 85 86  2  0
 87 90  1  0
 87 86  1  0
 88 87  2  0
 89 88  1  0
 89 84  2  0
 90 91  1  0
 91 96  2  0
 91 92  1  0
 92 93  2  0
 93 94  1  0
 94 98  1  0
 95 94  2  0
 96 95  1  0
 97 96  1  0
 99100  1  0
100103  1  0
100102  1  0
101 99  2  0
104105  1  0
104 79  1  0
106104  1  0
M  ISO  4  14 101  15 101  69 100  77 100
M  END
>  <TORSDO>  (50) 
F 35

>  <SCORE>  (50) 
19.110

>  <name>  (50) 
56

>  <ligand_id>  (50) 
56

>  <original_smiles>  (50) 
[H]c1c([H])c([H])c2c(c1[H])C([H])([H])C([H])([H])C([H])([H])C2([H])N([H])C(=O)C1([H])N(C(=O)C([H])(N([H])C(=O)C([H])(N([H])C([H])([H])[H])C([H])([H])[H])C(C([H])([H])[H])(C([H])([H])[H])C([H])([H])[H])C([H])([H])c2c([H])c(OC([H])([H])C(=O)C([H])([H])OC([H])([H])C([H])([H])C([H])([H])C([H])([H])C([H])([H])N([H])C(=O)C([H])([H])N([H])C(=O)C([H])([H])OC([H])([H])C([H])([H])C([H])([H])C([H])([H])C([H])([H])C([H])([H])N([H])C(=O)N3C([H])([H])C([H])([H])C([H])([H])C([H])(n4nc(-c5c([H])c([H])c(Oc6c([H])c([H])c(F)c([H])c6F)c([H])c5[H])c(C(=O)N([H])[H])c4N([H])[H])C3([H])[H])c([H])c([H])c2C1([H])[H]

>  <smiles>  (50) 
[H]c1c([H])c([H])c2c(c1[H])C([H])([H])C([H])([H])C([H])([H])C2([H])N([H])C(=O)C1([H])N(C(=O)C([H])(N([H])C(=O)C([H])(N([H])C([H])([H])[H])C([H])([H])[H])C(C([H])([H])[H])(C([H])([H])[H])C([H])([H])[H])C([H])([H])c2c([H])c(OC([H])([H])C(=O)C([H])([H])OC([H])([H])C([H])([H])C([H])([H])C([H])([H])C([H])([H])N([H])C(=O)C([H])([H])N([H])C(=O)C([H])([H])OC([H])([H])C([H])([H])C([H])([H])C([H])([H])C([H])([H])C([H])([H])N([H])C(=O)N3C([H])([H])C([H])([H])C([H])([H])C([H])(n4nc(-c5c([H])c([H])c(Oc6c([H])c([H])c(F)c([H])c6F)c([H])c5[H])c(C(=O)N([H])[H])c4N([H])[H])C3([H])[H])c([H])c([H])c2C1([H])[H]

$$$$
57:0:0
     RDKit          3D

113120  0  0  1  0  0  0  0  0999 V2000
  -21.1810  -26.4310   17.9130 C   0  0  0  0  0  0  0  0  0  0  0  0
  -21.6670  -27.5840   17.4460 N   0  0  0  0  0  0  0  0  0  0  0  0
  -20.0020  -26.2900   18.2380 O   0  0  0  0  0  0  0  0  0  0  0  0
  -22.6460  -27.6400   17.2030 H   0  0  0  0  0  0  0  0  0  0  0  0
  -20.8980  -28.8080   17.2930 C   0  0  0  0  0  2  0  0  0  0  0  0
  -21.6760  -29.7820   16.4060 C   0  0  0  0  0  2  0  0  0  0  0  0
  -22.8980  -30.1310   17.0490 O   0  0  0  0  0  0  0  0  0  0  0  0
  -23.7610  -30.8470   16.1750 C   0  0  0  0  0  2  0  0  0  0  0  0
  -24.8650  -31.6040   16.9320 C   0  0  0  0  0  2  0  0  0  0  0  0
  -25.9100  -30.7360   17.3710 O   0  0  0  0  0  0  0  0  0  0  0  0
  -27.1930  -31.3530   17.2610 C   0  0  0  0  0  2  0  0  0  0  0  0
  -28.2900  -30.5020   17.9310 C   0  0  0  0  0  2  0  0  0  0  0  0
  -28.1980  -28.7920   16.1220 C   0  0  0  0  0  1  0  0  0  0  0  0
  -28.2600  -29.0530   17.5830 N   0  0  1  0  0  4  0  0  0  0  0  0
  -27.3890  -28.7170   17.9770 H   0  0  0  0  0  0  0  0  0  0  0  0
  -29.3720  -28.2920   18.2340 C   0  0  0  0  0  2  0  0  0  0  0  0
  -28.9810  -26.8520   18.6630 C   0  0  0  0  0  2  0  0  0  0  0  0
  -28.4230  -26.8180   19.9810 O   0  0  0  0  0  0  0  0  0  0  0  0
  -24.6040  -31.8720   23.2110 C   0  0  0  0  0  0  0  0  0  0  0  0
  -27.2310  -27.4800   20.0890 C   0  0  0  0  0  0  0  0  0  0  0  0
  -23.3900  -30.4940   21.5530 C   0  0  0  0  0  3  0  0  0  0  0  0
  -24.8380  -28.9560   20.1280 C   0  0  0  0  0  0  0  0  0  0  0  0
  -25.9110  -30.8480   21.3590 C   0  0  0  0  0  2  0  0  0  0  0  0
  -25.9880  -29.4750   20.7320 C   0  0  0  0  0  0  0  0  0  0  0  0
  -27.1840  -28.7300   20.7360 C   0  0  0  0  0  3  0  0  0  0  0  0
  -26.0650  -26.9500   19.5010 C   0  0  0  0  0  3  0  0  0  0  0  0
  -24.8670  -27.6890   19.5190 C   0  0  0  0  0  3  0  0  0  0  0  0
  -23.5960  -29.8180   20.1740 C   0  0  0  0  0  2  0  0  0  0  0  0
  -24.6520  -31.0870   22.1000 N   0  0  0  0  0  0  0  0  0  0  0  0
  -23.5250  -32.1430   23.7550 O   0  0  0  0  0  0  0  0  0  0  0  0
  -22.7360  -29.4690   22.5020 C   0  0  0  0  0  0  0  0  0  0  0  0
  -21.4080  -29.3080   22.3810 N   0  0  0  0  0  0  0  0  0  0  0  0
  -23.4180  -28.8200   23.3010 O   0  0  0  0  0  0  0  0  0  0  0  0
  -20.9190  -29.8870   21.7150 H   0  0  0  0  0  0  0  0  0  0  0  0
  -18.0310  -28.1390   22.8530 C   0  0  0  0  0  0  0  0  0  0  0  0
  -20.5860  -28.3670   23.1380 C   0  0  0  0  0  3  0  0  0  0  0  0
  -20.6780  -26.9430   22.5420 C   0  0  0  0  0  2  0  0  0  0  0  0
  -19.5750  -26.6450   21.5240 C   0  0  0  0  0  2  0  0  0  0  0  0
  -18.1950  -26.7950   22.1660 C   0  0  0  0  0  2  0  0  0  0  0  0
  -19.1550  -28.8870   23.2930 C   0  0  0  0  0  0  0  0  0  0  0  0
  -18.9460  -30.1460   23.8950 C   0  0  0  0  0  3  0  0  0  0  0  0
  -17.6470  -30.6600   24.0580 C   0  0  0  0  0  3  0  0  0  0  0  0
  -16.5370  -29.9100   23.6310 C   0  0  0  0  0  3  0  0  0  0  0  0
  -16.7290  -28.6510   23.0370 C   0  0  0  0  0  3  0  0  0  0  0  0
  -25.8980  -32.4840   23.8370 C   0  0  0  0  0  3  0  0  0  0  0  0
  -25.5880  -33.8630   24.2330 N   0  0  0  0  0  0  0  0  0  0  0  0
  -25.9050  -34.9470   23.5130 C   0  0  0  0  0  0  0  0  0  0  0  0
  -26.5640  -34.8880   22.4710 O   0  0  0  0  0  0  0  0  0  0  0  0
  -25.0060  -33.9830   25.0490 H   0  0  0  0  0  0  0  0  0  0  0  0
  -24.1520  -36.7310   23.2570 C   0  0  0  0  0  1  0  0  0  0  0  0
  -25.4110  -36.3110   24.0310 C   0  0  0  0  0  3  0  0  0  0  0  0
  -27.5590  -37.1840   24.8450 C   0  0  0  0  0  1  0  0  0  0  0  0
  -26.4300  -37.3810   23.9410 N   0  0  0  0  0  0  0  0  0  0  0  0
  -26.0170  -38.2890   24.1420 H   0  0  0  0  0  0  0  0  0  0  0  0
  -26.4460  -31.6580   25.0660 C   0  0  1  0  0  0  0  0  0  0  0  0
  -25.3770  -31.3650   26.1410 C   0  0  0  0  0  1  0  0  0  0  0  0
  -27.0240  -30.3040   24.5940 C   0  0  0  0  0  1  0  0  0  0  0  0
  -27.6070  -32.4250   25.7420 C   0  0  0  0  0  1  0  0  0  0  0  0
  -22.1570  -25.2680   18.0570 C   0  0  0  0  0  2  0  0  0  0  0  0
  -23.2120  -24.1070   19.9730 C   0  0  0  0  0  0  0  0  0  0  0  0
  -22.4060  -25.0450   19.4740 N   0  0  0  0  0  0  0  0  0  0  0  0
  -23.7890  -23.2870   19.2550 O   0  0  0  0  0  0  0  0  0  0  0  0
  -21.9350  -25.6700   20.1140 H   0  0  0  0  0  0  0  0  0  0  0  0
  -23.3940  -24.0990   21.4980 C   0  0  0  0  0  2  0  0  0  0  0  0
  -25.2440  -22.5490   22.1340 C   0  0  0  0  0  0  0  0  0  0  0  0
  -23.9440  -22.8390   22.0000 N   0  0  0  0  0  0  0  0  0  0  0  0
  -26.1350  -23.3580   21.8640 O   0  0  0  0  0  0  0  0  0  0  0  0
  -23.2790  -22.1100   22.2220 H   0  0  0  0  0  0  0  0  0  0  0  0
  -25.5860  -21.1450   22.6550 C   0  0  0  0  0  2  0  0  0  0  0  0
  -26.8800  -20.7600   22.1990 O   0  0  0  0  0  0  0  0  0  0  0  0
  -27.2430  -19.4510   22.6130 C   0  0  0  0  0  2  0  0  0  0  0  0
  -28.6560  -19.1540   22.0960 C   0  0  0  0  0  2  0  0  0  0  0  0
  -29.1460  -17.7400   22.4510 C   0  0  0  0  0  2  0  0  0  0  0  0
  -30.5830  -17.4850   21.9640 C   0  0  0  0  0  2  0  0  0  0  0  0
  -31.1600  -16.1290   22.4080 C   0  0  0  0  0  2  0  0  0  0  0  0
  -30.7890  -14.3340   20.7160 C   0  0  0  0  0  0  0  0  0  0  0  0
  -30.4130  -12.2890   19.3870 C   0  0  0  0  0  2  0  0  0  0  0  0
  -29.4790  -12.5320   18.1890 C   0  0  0  0  0  2  0  0  0  0  0  0
  -28.0060  -12.3820   18.6080 C   0  0  0  0  0  2  0  0  0  0  0  0
  -27.6670  -13.2030   19.8790 C   0  0  0  0  0  3  0  0  0  0  0  0
  -28.7040  -12.9440   20.9950 C   0  0  0  0  0  2  0  0  0  0  0  0
  -30.0510  -13.2240   20.4620 N   0  0  0  0  0  0  0  0  0  0  0  0
  -31.7710  -14.6670   20.0440 O   0  0  0  0  0  0  0  0  0  0  0  0
  -30.4410  -14.9980   21.8250 N   0  0  0  0  0  0  0  0  0  0  0  0
  -29.6530  -14.6330   22.3400 H   0  0  0  0  0  0  0  0  0  0  0  0
  -25.2600  -13.8160   20.5680 C   0  0  0  0  0  0  0  0  0  0  0  0
  -24.1850  -13.0450   20.9160 C   0  0  0  0  0  0  0  0  0  0  0  0
  -24.6390  -11.6900   20.8720 C   0  0  0  0  0  0  0  0  0  0  0  0
  -26.3050  -12.9320   20.3380 N   0  0  0  0  0  0  0  0  0  0  0  0
  -25.9320  -11.6490   20.5750 N   0  0  0  0  0  0  0  0  0  0  0  0
  -23.9060  -10.4300   21.0400 C   0  0  0  0  0  0  0  0  0  0  0  0
  -24.3610   -9.4210   21.9180 C   0  0  0  0  0  3  0  0  0  0  0  0
  -23.6290   -8.2250   22.0750 C   0  0  0  0  0  3  0  0  0  0  0  0
  -22.4270   -8.0280   21.3550 C   0  0  0  0  0  0  0  0  0  0  0  0
  -21.9900   -9.0260   20.4640 C   0  0  0  0  0  3  0  0  0  0  0  0
  -22.7230  -10.2130   20.3050 C   0  0  0  0  0  3  0  0  0  0  0  0
  -21.6640   -6.8880   21.4240 O   0  0  0  0  0  0  0  0  0  0  0  0
  -21.6850   -6.0730   22.5280 C   0  0  0  0  0  0  0  0  0  0  0  0
  -21.4010   -6.5640   23.8210 C   0  0  0  0  0  3  0  0  0  0  0  0
  -21.3660   -5.6790   24.9180 C   0  0  0  0  0  3  0  0  0  0  0  0
  -21.6050   -4.3050   24.7220 C   0  0  0  0  0  0  0  0  0  0  0  0
  -21.8820   -3.8140   23.4350 C   0  0  0  0  0  3  0  0  0  0  0  0
  -21.9190   -4.6960   22.3400 C   0  0  0  0  0  0  0  0  0  0  0  0
  -22.1660   -4.2150   21.0980 F   0  0  0  0  0  0  0  0  0  0  0  0
  -21.5630   -3.4540   25.7740 F   0  0  0  0  0  0  0  0  0  0  0  0
  -22.7870  -13.5240   21.1840 C   0  0  0  0  0  0  0  0  0  0  0  0
  -22.0510  -12.8240   22.0390 N   0  0  0  0  0  0  0  0  0  0  0  0
  -22.3560  -14.5550   20.6690 O   0  0  0  0  0  0  0  0  0  0  0  0
  -22.4120  -11.9890   22.4770 H   0  0  0  0  0  0  0  0  0  0  0  0
  -21.1140  -13.1270   22.2600 H   0  0  0  0  0  0  0  0  0  0  0  0
  -25.4350  -15.1880   20.4100 N   0  0  0  0  0  0  0  0  0  0  0  0
  -24.6730  -15.8470   20.5190 H   0  0  0  0  0  0  0  0  0  0  0  0
  -26.2970  -15.6240   20.1090 H   0  0  0  0  0  0  0  0  0  0  0  0
  1 59  1  0
  1  3  2  0
  2  1  1  0
  4  2  1  0
  5  2  1  0
  6  7  1  0
  6  5  1  0
  8  9  1  0
  8  7  1  0
  9 10  1  0
 11 10  1  0
 11 12  1  0
 13 14  1  0
 14 12  1  0
 14 15  1  1
 14 16  1  0
 16 17  1  0
 17 18  1  0
 18 20  1  0
 19 30  2  0
 20 25  1  0
 21 29  1  0
 21 31  1  0
 22 28  1  0
 22 24  1  0
 23 29  1  0
 24 25  2  0
 24 23  1  0
 26 27  1  0
 26 20  2  0
 27 22  2  0
 28 21  1  0
 29 19  1  0
 31 33  2  0
 32 31  1  0
 34 32  1  0
 35 44  2  0
 35 40  1  0
 36 32  1  0
 36 40  1  0
 37 36  1  0
 38 39  1  0
 38 37  1  0
 39 35  1  0
 40 41  2  0
 41 42  1  0
 43 42  2  0
 44 43  1  0
 45 19  1  0
 45 46  1  0
 45 55  1  0
 46 49  1  0
 47 51  1  0
 47 46  1  0
 48 47  2  0
 51 50  1  0
 53 51  1  0
 53 54  1  0
 53 52  1  0
 55 58  1  1
 55 56  1  0
 57 55  1  0
 59 61  1  0
 60 64  1  0
 61 60  1  0
 61 63  1  0
 62 60  2  0
 64 66  1  0
 65 69  1  0
 66 65  1  0
 66 68  1  0
 67 65  2  0
 70 71  1  0
 70 69  1  0
 72 73  1  0
 72 71  1  0
 74 75  1  0
 74 73  1  0
 76 84  1  0
 77 82  1  0
 78 79  1  0
 78 77  1  0
 80 79  1  0
 80 89  1  0
 80 81  1  0
 82 76  1  0
 82 81  1  0
 83 76  2  0
 84 85  1  0
 84 75  1  0
 86 87  2  0
 87106  1  0
 88 87  1  0
 88 91  1  0
 89 86  1  0
 89 90  1  0
 90 88  2  0
 91 92  1  0
 92 93  2  0
 94 97  1  0
 94 93  1  0
 95 94  2  0
 96 95  1  0
 96 91  2  0
 97 98  1  0
 98 99  1  0
 99100  2  0
101100  1  0
101105  1  0
102101  2  0
103 98  2  0
103102  1  0
104103  1  0
106107  1  0
107110  1  0
107109  1  0
108106  2  0
111112  1  0
111 86  1  0
113111  1  0
M  ISO  4  17 101  18 101  76 100  84 100
M  END
>  <TORSDO>  (51) 
F 38

>  <SCORE>  (51) 
39.045

>  <name>  (51) 
57

>  <ligand_id>  (51) 
57

>  <original_smiles>  (51) 
[H]c1c([H])c([H])c2c(c1[H])C([H])([H])C([H])([H])C([H])([H])C2([H])N([H])C(=O)C1([H])N(C(=O)C([H])(N([H])C(=O)C([H])(N([H])C([H])([H])[H])C([H])([H])[H])C(C([H])([H])[H])(C([H])([H])[H])C([H])([H])[H])C([H])([H])c2c([H])c(OC([H])([H])C([H])([H])[N+]([H])(C([H])([H])[H])C([H])([H])C([H])([H])OC([H])([H])C([H])([H])OC([H])([H])C([H])([H])N([H])C(=O)C([H])([H])N([H])C(=O)C([H])([H])N([H])C(=O)C([H])([H])OC([H])([H])C([H])([H])C([H])([H])C([H])([H])C([H])([H])N([H])C(=O)N3C([H])([H])C([H])([H])C([H])([H])C([H])(n4nc(-c5c([H])c([H])c(Oc6c([H])c([H])c(F)c([H])c6F)c([H])c5[H])c(C(=O)N([H])[H])c4N([H])[H])C3([H])[H])c([H])c([H])c2C1([H])[H]

>  <smiles>  (51) 
[H]c1c([H])c([H])c2c(c1[H])C([H])([H])C([H])([H])C([H])([H])C2([H])N([H])C(=O)C1([H])N(C(=O)C([H])(N([H])C(=O)C([H])(N([H])C([H])([H])[H])C([H])([H])[H])C(C([H])([H])[H])(C([H])([H])[H])C([H])([H])[H])C([H])([H])c2c([H])c(OC([H])([H])C([H])([H])[N+]([H])(C([H])([H])[H])C([H])([H])C([H])([H])OC([H])([H])C([H])([H])OC([H])([H])C([H])([H])N([H])C(=O)C([H])([H])N([H])C(=O)C([H])([H])N([H])C(=O)C([H])([H])OC([H])([H])C([H])([H])C([H])([H])C([H])([H])C([H])([H])N([H])C(=O)N3C([H])([H])C([H])([H])C([H])([H])C([H])(n4nc(-c5c([H])c([H])c(Oc6c([H])c([H])c(F)c([H])c6F)c([H])c5[H])c(C(=O)N([H])[H])c4N([H])[H])C3([H])[H])c([H])c([H])c2C1([H])[H]

$$$$
58:0:0
     RDKit          3D

109116  0  0  1  0  0  0  0  0999 V2000
  -32.6710  -26.0800   25.3590 C   0  0  0  0  0  0  0  0  0  0  0  0
  -33.7680  -26.7140   25.7890 N   0  0  0  0  0  0  0  0  0  0  0  0
  -31.5590  -26.6160   25.3550 O   0  0  0  0  0  0  0  0  0  0  0  0
  -34.6510  -26.2260   25.7360 H   0  0  0  0  0  0  0  0  0  0  0  0
  -33.8120  -28.1020   26.2490 C   0  0  0  0  0  2  0  0  0  0  0  0
  -33.9200  -29.0660   25.0640 C   0  0  0  0  0  0  0  0  0  0  0  0
  -33.0350  -30.0690   25.0190 N   0  0  0  0  0  0  0  0  0  0  0  0
  -34.7800  -28.8860   24.1990 O   0  0  0  0  0  0  0  0  0  0  0  0
  -32.3880  -30.1400   25.7940 H   0  0  0  0  0  0  0  0  0  0  0  0
  -32.8520  -31.0190   23.9230 C   0  0  0  0  0  2  0  0  0  0  0  0
  -32.4880  -30.3440   22.5820 C   0  0  0  0  0  2  0  0  0  0  0  0
  -31.3050  -29.3690   22.6790 C   0  0  0  0  0  2  0  0  0  0  0  0
  -31.0170  -28.8540   21.3900 O   0  0  0  0  0  0  0  0  0  0  0  0
  -30.1950  -27.6940   21.4380 C   0  0  0  0  0  2  0  0  0  0  0  0
  -29.6640  -27.4180   20.0220 C   0  0  0  0  0  2  0  0  0  0  0  0
  -28.4100  -26.7360   20.0150 O   0  0  0  0  0  0  0  0  0  0  0  0
  -24.6080  -31.8730   23.2120 C   0  0  0  0  0  0  0  0  0  0  0  0
  -27.2610  -27.4940   20.0900 C   0  0  0  0  0  0  0  0  0  0  0  0
  -23.3940  -30.4920   21.5520 C   0  0  0  0  0  3  0  0  0  0  0  0
  -24.8400  -28.9580   20.1230 C   0  0  0  0  0  0  0  0  0  0  0  0
  -25.9120  -30.8610   21.3490 C   0  0  0  0  0  2  0  0  0  0  0  0
  -25.9930  -29.4950   20.7050 C   0  0  0  0  0  0  0  0  0  0  0  0
  -27.2020  -28.7790   20.6810 C   0  0  0  0  0  3  0  0  0  0  0  0
  -26.0820  -26.9490   19.5370 C   0  0  0  0  0  3  0  0  0  0  0  0
  -24.8760  -27.6800   19.5360 C   0  0  0  0  0  3  0  0  0  0  0  0
  -23.5970  -29.8160   20.1690 C   0  0  0  0  0  2  0  0  0  0  0  0
  -24.6570  -31.0870   22.0990 N   0  0  0  0  0  0  0  0  0  0  0  0
  -23.5290  -32.1450   23.7550 O   0  0  0  0  0  0  0  0  0  0  0  0
  -22.7370  -29.4680   22.5020 C   0  0  0  0  0  0  0  0  0  0  0  0
  -21.4110  -29.3030   22.3750 N   0  0  0  0  0  0  0  0  0  0  0  0
  -23.4160  -28.8250   23.3070 O   0  0  0  0  0  0  0  0  0  0  0  0
  -20.9270  -29.8720   21.6940 H   0  0  0  0  0  0  0  0  0  0  0  0
  -18.0260  -28.1390   22.8480 C   0  0  0  0  0  0  0  0  0  0  0  0
  -20.5840  -28.3660   23.1340 C   0  0  0  0  0  3  0  0  0  0  0  0
  -20.6730  -26.9400   22.5430 C   0  0  0  0  0  2  0  0  0  0  0  0
  -19.5720  -26.6390   21.5220 C   0  0  0  0  0  2  0  0  0  0  0  0
  -18.1900  -26.7930   22.1630 C   0  0  0  0  0  2  0  0  0  0  0  0
  -19.1510  -28.8840   23.2910 C   0  0  0  0  0  0  0  0  0  0  0  0
  -18.9440  -30.1450   23.8920 C   0  0  0  0  0  3  0  0  0  0  0  0
  -17.6450  -30.6600   24.0570 C   0  0  0  0  0  3  0  0  0  0  0  0
  -16.5340  -29.9100   23.6340 C   0  0  0  0  0  3  0  0  0  0  0  0
  -16.7250  -28.6520   23.0350 C   0  0  0  0  0  3  0  0  0  0  0  0
  -25.8990  -32.4860   23.8420 C   0  0  0  0  0  3  0  0  0  0  0  0
  -26.4450  -31.6610   25.0720 C   0  0  1  0  0  0  0  0  0  0  0  0
  -25.3730  -31.3640   26.1470 C   0  0  0  0  0  1  0  0  0  0  0  0
  -27.0350  -30.3080   24.6050 C   0  0  0  0  0  1  0  0  0  0  0  0
  -27.6040  -32.4310   25.7490 C   0  0  0  0  0  1  0  0  0  0  0  0
  -25.5850  -33.8660   24.2370 N   0  0  0  0  0  0  0  0  0  0  0  0
  -25.9010  -34.9500   23.5160 C   0  0  0  0  0  0  0  0  0  0  0  0
  -26.5580  -34.8940   22.4730 O   0  0  0  0  0  0  0  0  0  0  0  0
  -24.9960  -33.9840   25.0490 H   0  0  0  0  0  0  0  0  0  0  0  0
  -24.1460  -36.7320   23.2650 C   0  0  0  0  0  1  0  0  0  0  0  0
  -25.4080  -36.3130   24.0350 C   0  0  0  0  0  3  0  0  0  0  0  0
  -27.5590  -37.1780   24.8460 C   0  0  0  0  0  1  0  0  0  0  0  0
  -26.4280  -37.3800   23.9430 N   0  0  0  0  0  0  0  0  0  0  0  0
  -26.0190  -38.2880   24.1450 H   0  0  0  0  0  0  0  0  0  0  0  0
  -32.8510  -24.6300   24.8860 C   0  0  0  0  0  2  0  0  0  0  0  0
  -31.1890  -24.0170   23.1320 C   0  0  0  0  0  0  0  0  0  0  0  0
  -31.6010  -24.0430   24.4040 N   0  0  0  0  0  0  0  0  0  0  0  0
  -31.8760  -24.4460   22.2030 O   0  0  0  0  0  0  0  0  0  0  0  0
  -30.9630  -23.7090   25.1140 H   0  0  0  0  0  0  0  0  0  0  0  0
  -29.7970  -23.4260   22.8760 C   0  0  0  0  0  2  0  0  0  0  0  0
  -29.6110  -22.7610   21.4960 C   0  0  0  0  0  2  0  0  0  0  0  0
  -30.4730  -21.5040   21.2710 C   0  0  0  0  0  2  0  0  0  0  0  0
  -30.1020  -20.7550   19.9800 C   0  0  0  0  0  2  0  0  0  0  0  0
  -31.0840  -19.6260   19.6180 C   0  0  0  0  0  2  0  0  0  0  0  0
  -30.3960  -17.5140   20.7420 C   0  0  0  0  0  0  0  0  0  0  0  0
  -31.1690  -18.6020   20.6560 N   0  0  0  0  0  0  0  0  0  0  0  0
  -29.4720  -17.2850   19.9570 O   0  0  0  0  0  0  0  0  0  0  0  0
  -31.9030  -18.7060   21.3440 H   0  0  0  0  0  0  0  0  0  0  0  0
  -30.7060  -16.5400   21.8850 C   0  0  0  0  0  2  0  0  0  0  0  0
  -30.7500  -14.3680   20.6740 C   0  0  0  0  0  0  0  0  0  0  0  0
  -30.4190  -12.2860   19.3940 C   0  0  0  0  0  2  0  0  0  0  0  0
  -29.4860  -12.5290   18.1920 C   0  0  0  0  0  2  0  0  0  0  0  0
  -28.0090  -12.3860   18.6070 C   0  0  0  0  0  2  0  0  0  0  0  0
  -27.6680  -13.2010   19.8820 C   0  0  0  0  0  3  0  0  0  0  0  0
  -28.7040  -12.9280   20.9940 C   0  0  0  0  0  2  0  0  0  0  0  0
  -30.0470  -13.2270   20.4600 N   0  0  0  0  0  0  0  0  0  0  0  0
  -31.7890  -14.6520   20.0700 O   0  0  0  0  0  0  0  0  0  0  0  0
  -30.2340  -15.1860   21.5980 N   0  0  0  0  0  0  0  0  0  0  0  0
  -29.3770  -14.8940   22.0420 H   0  0  0  0  0  0  0  0  0  0  0  0
  -25.2610  -13.8160   20.5670 C   0  0  0  0  0  0  0  0  0  0  0  0
  -24.1840  -13.0440   20.9150 C   0  0  0  0  0  0  0  0  0  0  0  0
  -24.6390  -11.6910   20.8710 C   0  0  0  0  0  0  0  0  0  0  0  0
  -26.3050  -12.9310   20.3380 N   0  0  0  0  0  0  0  0  0  0  0  0
  -25.9310  -11.6480   20.5750 N   0  0  0  0  0  0  0  0  0  0  0  0
  -23.9050  -10.4290   21.0400 C   0  0  0  0  0  0  0  0  0  0  0  0
  -24.3610   -9.4210   21.9170 C   0  0  0  0  0  3  0  0  0  0  0  0
  -23.6290   -8.2250   22.0750 C   0  0  0  0  0  3  0  0  0  0  0  0
  -22.4270   -8.0280   21.3540 C   0  0  0  0  0  0  0  0  0  0  0  0
  -21.9900   -9.0250   20.4640 C   0  0  0  0  0  3  0  0  0  0  0  0
  -22.7220  -10.2130   20.3050 C   0  0  0  0  0  3  0  0  0  0  0  0
  -21.6640   -6.8880   21.4240 O   0  0  0  0  0  0  0  0  0  0  0  0
  -21.6850   -6.0740   22.5280 C   0  0  0  0  0  0  0  0  0  0  0  0
  -21.4020   -6.5640   23.8210 C   0  0  0  0  0  3  0  0  0  0  0  0
  -21.3660   -5.6790   24.9170 C   0  0  0  0  0  3  0  0  0  0  0  0
  -21.6050   -4.3060   24.7230 C   0  0  0  0  0  0  0  0  0  0  0  0
  -21.8820   -3.8140   23.4350 C   0  0  0  0  0  3  0  0  0  0  0  0
  -21.9190   -4.6960   22.3400 C   0  0  0  0  0  0  0  0  0  0  0  0
  -22.1660   -4.2150   21.0980 F   0  0  0  0  0  0  0  0  0  0  0  0
  -21.5630   -3.4540   25.7740 F   0  0  0  0  0  0  0  0  0  0  0  0
  -22.7870  -13.5250   21.1830 C   0  0  0  0  0  0  0  0  0  0  0  0
  -22.0510  -12.8240   22.0390 N   0  0  0  0  0  0  0  0  0  0  0  0
  -22.3550  -14.5550   20.6690 O   0  0  0  0  0  0  0  0  0  0  0  0
  -22.4120  -11.9900   22.4780 H   0  0  0  0  0  0  0  0  0  0  0  0
  -21.1130  -13.1270   22.2600 H   0  0  0  0  0  0  0  0  0  0  0  0
  -25.4360  -15.1870   20.4090 N   0  0  0  0  0  0  0  0  0  0  0  0
  -24.6750  -15.8490   20.5200 H   0  0  0  0  0  0  0  0  0  0  0  0
  -26.3020  -15.6240   20.1160 H   0  0  0  0  0  0  0  0  0  0  0  0
  1  2  1  0
  2  5  1  0
  3  1  2  0
  4  2  1  0
  6  5  1  0
  7  6  1  0
  7  9  1  0
  8  6  2  0
 10  7  1  0
 11 12  1  0
 11 10  1  0
 13 14  1  0
 13 12  1  0
 15 14  1  0
 16 15  1  0
 16 18  1  0
 17 28  2  0
 18 23  1  0
 19 27  1  0
 19 29  1  0
 20 26  1  0
 20 22  1  0
 21 27  1  0
 22 21  1  0
 23 22  2  0
 24 18  2  0
 25 24  1  0
 25 20  2  0
 26 19  1  0
 27 17  1  0
 29 31  2  0
 30 29  1  0
 32 30  1  0
 33 42  2  0
 33 38  1  0
 34 30  1  0
 34 38  1  0
 35 34  1  0
 36 37  1  0
 36 35  1  0
 37 33  1  0
 38 39  2  0
 39 40  1  0
 41 40  2  0
 42 41  1  0
 43 17  1  0
 43 48  1  0
 43 44  1  0
 44 47  1  1
 44 45  1  0
 46 44  1  0
 48 51  1  0
 49 53  1  0
 49 48  1  0
 50 49  2  0
 53 52  1  0
 55 53  1  0
 55 56  1  0
 55 54  1  0
 57  1  1  0
 58 59  1  0
 59 57  1  0
 59 61  1  0
 60 58  2  0
 62 58  1  0
 63 62  1  0
 64 63  1  0
 65 64  1  0
 66 65  1  0
 66 68  1  0
 67 71  1  0
 68 67  1  0
 68 70  1  0
 69 67  2  0
 72 80  1  0
 73 78  1  0
 74 75  1  0
 74 73  1  0
 76 75  1  0
 76 85  1  0
 76 77  1  0
 78 72  1  0
 78 77  1  0
 79 72  2  0
 80 71  1  0
 80 81  1  0
 82 83  2  0
 83102  1  0
 84 83  1  0
 84 87  1  0
 85 82  1  0
 85 86  1  0
 86 84  2  0
 87 88  1  0
 88 89  2  0
 90 93  1  0
 90 89  1  0
 91 90  2  0
 92 91  1  0
 92 87  2  0
 93 94  1  0
 94 95  1  0
 95 96  2  0
 97 96  1  0
 97101  1  0
 98 97  2  0
 99 94  2  0
 99 98  1  0
100 99  1  0
102103  1  0
103106  1  0
103105  1  0
104102  2  0
107108  1  0
107 82  1  0
109107  1  0
M  ISO  4  15 101  16 101  72 100  80 100
M  END
>  <TORSDO>  (52) 
F 33

>  <SCORE>  (52) 
24.410

>  <name>  (52) 
58

>  <ligand_id>  (52) 
58

>  <original_smiles>  (52) 
[H]c1c([H])c([H])c2c(c1[H])C([H])([H])C([H])([H])C([H])([H])C2([H])N([H])C(=O)C1([H])N(C(=O)C([H])(N([H])C(=O)C([H])(N([H])C([H])([H])[H])C([H])([H])[H])C(C([H])([H])[H])(C([H])([H])[H])C([H])([H])[H])C([H])([H])c2c([H])c(OC([H])([H])C([H])([H])OC([H])([H])C([H])([H])C([H])([H])N([H])C(=O)C([H])([H])N([H])C(=O)C([H])([H])N([H])C(=O)C([H])([H])C([H])([H])C([H])([H])C([H])([H])C([H])([H])N([H])C(=O)C([H])([H])N([H])C(=O)N3C([H])([H])C([H])([H])C([H])([H])C([H])(n4nc(-c5c([H])c([H])c(Oc6c([H])c([H])c(F)c([H])c6F)c([H])c5[H])c(C(=O)N([H])[H])c4N([H])[H])C3([H])[H])c([H])c([H])c2C1([H])[H]

>  <smiles>  (52) 
[H]c1c([H])c([H])c2c(c1[H])C([H])([H])C([H])([H])C([H])([H])C2([H])N([H])C(=O)C1([H])N(C(=O)C([H])(N([H])C(=O)C([H])(N([H])C([H])([H])[H])C([H])([H])[H])C(C([H])([H])[H])(C([H])([H])[H])C([H])([H])[H])C([H])([H])c2c([H])c(OC([H])([H])C([H])([H])OC([H])([H])C([H])([H])C([H])([H])N([H])C(=O)C([H])([H])N([H])C(=O)C([H])([H])N([H])C(=O)C([H])([H])C([H])([H])C([H])([H])C([H])([H])C([H])([H])N([H])C(=O)C([H])([H])N([H])C(=O)N3C([H])([H])C([H])([H])C([H])([H])C([H])(n4nc(-c5c([H])c([H])c(Oc6c([H])c([H])c(F)c([H])c6F)c([H])c5[H])c(C(=O)N([H])[H])c4N([H])[H])C3([H])[H])c([H])c([H])c2C1([H])[H]

$$$$
59:0:0
     RDKit          3D

108115  0  0  1  0  0  0  0  0999 V2000
  -26.1740  -20.4630   27.2120 C   0  0  0  0  0  2  0  0  0  0  0  0
  -27.2280  -19.4160   26.8160 C   0  0  0  0  0  2  0  0  0  0  0  0
  -28.8110  -20.4700   25.2250 C   0  0  0  0  0  0  0  0  0  0  0  0
  -28.4820  -20.0780   26.4630 N   0  0  0  0  0  0  0  0  0  0  0  0
  -28.0890  -20.2440   24.2510 O   0  0  0  0  0  0  0  0  0  0  0  0
  -29.1220  -20.3010   27.2160 H   0  0  0  0  0  0  0  0  0  0  0  0
  -30.1330  -21.2340   25.0670 C   0  0  0  0  0  2  0  0  0  0  0  0
  -30.5240  -21.1740   22.6060 C   0  0  0  0  0  0  0  0  0  0  0  0
  -30.8560  -20.8370   23.8580 N   0  0  0  0  0  0  0  0  0  0  0  0
  -29.5900  -21.9370   22.3500 O   0  0  0  0  0  0  0  0  0  0  0  0
  -31.6180  -20.1850   23.9830 H   0  0  0  0  0  0  0  0  0  0  0  0
  -31.3450  -20.5490   21.4740 C   0  0  0  0  0  2  0  0  0  0  0  0
  -30.5090  -19.6600   20.7440 O   0  0  0  0  0  0  0  0  0  0  0  0
  -31.2460  -18.6880   20.0160 C   0  0  0  0  0  2  0  0  0  0  0  0
  -30.4300  -18.2440   18.7980 C   0  0  0  0  0  2  0  0  0  0  0  0
  -29.0110  -17.7280   19.1160 C   0  0  0  0  0  2  0  0  0  0  0  0
  -29.8190  -15.6740   20.3050 C   0  0  0  0  0  0  0  0  0  0  0  0
  -30.2500  -13.5300   21.4430 C   0  0  0  0  0  2  0  0  0  0  0  0
  -29.8580  -12.3350   20.5540 C   0  0  0  0  0  2  0  0  0  0  0  0
  -28.3670  -11.9920   20.7210 C   0  0  0  0  0  2  0  0  0  0  0  0
  -27.4520  -13.2380   20.5860 C   0  0  0  0  0  3  0  0  0  0  0  0
  -27.9750  -14.3990   21.4600 C   0  0  0  0  0  2  0  0  0  0  0  0
  -29.3840  -14.6690   21.1070 N   0  0  0  0  0  0  0  0  0  0  0  0
  -30.9410  -15.6970   19.7890 O   0  0  0  0  0  0  0  0  0  0  0  0
  -28.9480  -16.6790   20.1350 N   0  0  0  0  0  0  0  0  0  0  0  0
  -28.0960  -16.6150   20.6750 H   0  0  0  0  0  0  0  0  0  0  0  0
  -24.9660  -13.7520   21.0400 C   0  0  0  0  0  0  0  0  0  0  0  0
  -23.8860  -12.9390   21.2550 C   0  0  0  0  0  0  0  0  0  0  0  0
  -24.3860  -11.6010   21.2110 C   0  0  0  0  0  0  0  0  0  0  0  0
  -26.0580  -12.9090   20.8930 N   0  0  0  0  0  0  0  0  0  0  0  0
  -25.7030  -11.6070   21.0460 N   0  0  0  0  0  0  0  0  0  0  0  0
  -23.6800  -10.3140   21.2630 C   0  0  0  0  0  0  0  0  0  0  0  0
  -23.8100   -9.4440   22.3690 C   0  0  0  0  0  3  0  0  0  0  0  0
  -23.1040   -8.2220   22.4060 C   0  0  0  0  0  3  0  0  0  0  0  0
  -22.2580   -7.8580   21.3320 C   0  0  0  0  0  0  0  0  0  0  0  0
  -22.1510   -8.7160   20.2220 C   0  0  0  0  0  3  0  0  0  0  0  0
  -22.8570   -9.9290   20.1850 C   0  0  0  0  0  3  0  0  0  0  0  0
  -21.5550   -6.6790   21.2690 O   0  0  0  0  0  0  0  0  0  0  0  0
  -20.8830   -6.1810   22.3560 C   0  0  0  0  0  0  0  0  0  0  0  0
  -19.9020   -6.9350   23.0380 C   0  0  0  0  0  3  0  0  0  0  0  0
  -19.1890   -6.3590   24.1060 C   0  0  0  0  0  3  0  0  0  0  0  0
  -19.4460   -5.0290   24.4910 C   0  0  0  0  0  0  0  0  0  0  0  0
  -20.4200   -4.2760   23.8120 C   0  0  0  0  0  3  0  0  0  0  0  0
  -21.1340   -4.8490   22.7460 C   0  0  0  0  0  0  0  0  0  0  0  0
  -22.0550   -4.1110   22.0790 F   0  0  0  0  0  0  0  0  0  0  0  0
  -18.7560   -4.4740   25.5130 F   0  0  0  0  0  0  0  0  0  0  0  0
  -22.4540  -13.3670   21.4000 C   0  0  0  0  0  0  0  0  0  0  0  0
  -21.6680  -12.6320   22.1790 N   0  0  0  0  0  0  0  0  0  0  0  0
  -22.0350  -14.3870   20.8550 O   0  0  0  0  0  0  0  0  0  0  0  0
  -22.0160  -11.8060   22.6440 H   0  0  0  0  0  0  0  0  0  0  0  0
  -20.7030  -12.8990   22.3170 H   0  0  0  0  0  0  0  0  0  0  0  0
  -25.1090  -15.1330   20.9420 N   0  0  0  0  0  0  0  0  0  0  0  0
  -24.3170  -15.7660   20.9920 H   0  0  0  0  0  0  0  0  0  0  0  0
  -25.9830  -15.6070   20.7500 H   0  0  0  0  0  0  0  0  0  0  0  0
  -25.0770  -20.6630   26.1550 C   0  0  0  0  0  2  0  0  0  0  0  0
  -24.6190  -22.1260   26.0860 C   0  0  0  0  0  2  0  0  0  0  0  0
  -24.1150  -22.3920   24.7870 O   0  0  0  0  0  0  0  0  0  0  0  0
  -23.8650  -23.7760   24.5550 C   0  0  0  0  0  2  0  0  0  0  0  0
  -23.5660  -23.9630   23.0640 C   0  0  0  0  0  0  0  0  0  0  0  0
  -24.4210  -24.7270   22.3680 N   0  0  0  0  0  0  0  0  0  0  0  0
  -22.6130  -23.3770   22.5450 O   0  0  0  0  0  0  0  0  0  0  0  0
  -25.1430  -25.1990   22.8960 H   0  0  0  0  0  0  0  0  0  0  0  0
  -24.4780  -24.8360   20.9110 C   0  0  0  0  0  2  0  0  0  0  0  0
  -25.8750  -24.4520   20.3780 C   0  0  0  0  0  2  0  0  0  0  0  0
  -26.9360  -25.5610   20.5090 C   0  0  0  0  0  2  0  0  0  0  0  0
  -28.1810  -25.3030   19.6260 C   0  0  0  0  0  2  0  0  0  0  0  0
  -28.9100  -26.5680   19.1180 C   0  0  0  0  0  2  0  0  0  0  0  0
  -28.2220  -27.1740   18.0180 O   0  0  0  0  0  0  0  0  0  0  0  0
  -24.5610  -30.6170   23.0140 C   0  0  0  0  0  0  0  0  0  0  0  0
  -27.0430  -27.7760   18.3650 C   0  0  0  0  0  0  0  0  0  0  0  0
  -23.2290  -29.7060   21.1330 C   0  0  0  0  0  3  0  0  0  0  0  0
  -24.5730  -28.8960   19.1210 C   0  0  0  0  0  0  0  0  0  0  0  0
  -25.6650  -30.3970   20.7980 C   0  0  0  0  0  2  0  0  0  0  0  0
  -25.7560  -29.3310   19.7310 C   0  0  0  0  0  0  0  0  0  0  0  0
  -26.9950  -28.7760   19.3570 C   0  0  0  0  0  3  0  0  0  0  0  0
  -25.8540  -27.3590   17.7360 C   0  0  0  0  0  3  0  0  0  0  0  0
  -24.6150  -27.9080   18.1180 C   0  0  0  0  0  3  0  0  0  0  0  0
  -23.2900  -29.5430   19.5890 C   0  0  0  0  0  2  0  0  0  0  0  0
  -24.5090  -30.2350   21.7070 N   0  0  0  0  0  0  0  0  0  0  0  0
  -23.5540  -30.5780   23.7330 O   0  0  0  0  0  0  0  0  0  0  0  0
  -22.7890  -28.3650   21.7580 C   0  0  0  0  0  0  0  0  0  0  0  0
  -21.4800  -28.0780   21.6860 N   0  0  0  0  0  0  0  0  0  0  0  0
  -23.6140  -27.5990   22.2620 O   0  0  0  0  0  0  0  0  0  0  0  0
  -20.8720  -28.7570   21.2480 H   0  0  0  0  0  0  0  0  0  0  0  0
  -18.3010  -26.4000   22.0150 C   0  0  0  0  0  0  0  0  0  0  0  0
  -20.8390  -26.8580   22.1780 C   0  0  0  0  0  3  0  0  0  0  0  0
  -21.0090  -25.6970   21.1740 C   0  0  0  0  0  2  0  0  0  0  0  0
  -19.8480  -25.5830   20.1840 C   0  0  0  0  0  2  0  0  0  0  0  0
  -18.5270  -25.3630   20.9260 C   0  0  0  0  0  2  0  0  0  0  0  0
  -19.3860  -27.1160   22.5890 C   0  0  0  0  0  0  0  0  0  0  0  0
  -19.1190  -28.0990   23.5660 C   0  0  0  0  0  3  0  0  0  0  0  0
  -17.7980  -28.3690   23.9730 C   0  0  0  0  0  3  0  0  0  0  0  0
  -16.7300  -27.6420   23.4190 C   0  0  0  0  0  3  0  0  0  0  0  0
  -16.9830  -26.6570   22.4460 C   0  0  0  0  0  3  0  0  0  0  0  0
  -25.8820  -31.1410   23.6640 C   0  0  0  0  0  3  0  0  0  0  0  0
  -26.4230  -30.2050   24.8130 C   0  0  1  0  0  0  0  0  0  0  0  0
  -25.3710  -29.8840   25.8990 C   0  0  0  0  0  1  0  0  0  0  0  0
  -26.9280  -28.8630   24.2320 C   0  0  0  0  0  1  0  0  0  0  0  0
  -27.6350  -30.8710   25.5060 C   0  0  0  0  0  1  0  0  0  0  0  0
  -25.6190  -32.4920   24.1730 N   0  0  0  0  0  0  0  0  0  0  0  0
  -25.9960  -33.6220   23.5590 C   0  0  0  0  0  0  0  0  0  0  0  0
  -26.6740  -33.6300   22.5270 O   0  0  0  0  0  0  0  0  0  0  0  0
  -25.0240  -32.5620   24.9860 H   0  0  0  0  0  0  0  0  0  0  0  0
  -24.3360  -35.5060   23.4190 C   0  0  0  0  0  1  0  0  0  0  0  0
  -25.5480  -34.9550   24.1880 C   0  0  0  0  0  3  0  0  0  0  0  0
  -27.7100  -35.6300   25.1350 C   0  0  0  0  0  1  0  0  0  0  0  0
  -26.6180  -35.9770   24.2290 N   0  0  0  0  0  0  0  0  0  0  0  0
  -26.2440  -36.8770   24.5160 H   0  0  0  0  0  0  0  0  0  0  0  0
  2  1  1  0
  3  4  1  0
  4  2  1  0
  4  6  1  0
  5  3  2  0
  7  3  1  0
  8  9  1  0
  9 11  1  0
  9  7  1  0
 10  8  2  0
 12  8  1  0
 13 12  1  0
 14 13  1  0
 15 16  1  0
 15 14  1  0
 16 25  1  0
 17 23  1  0
 19 20  1  0
 19 18  1  0
 21 20  1  0
 21 30  1  0
 21 22  1  0
 23 18  1  0
 23 22  1  0
 24 17  2  0
 25 17  1  0
 25 26  1  0
 27 28  2  0
 28 47  1  0
 29 28  1  0
 29 32  1  0
 30 27  1  0
 30 31  1  0
 31 29  2  0
 32 33  1  0
 33 34  2  0
 35 34  1  0
 36 35  2  0
 37 36  1  0
 37 32  2  0
 38 35  1  0
 38 39  1  0
 39 44  2  0
 39 40  1  0
 40 41  2  0
 41 42  1  0
 42 46  1  0
 43 42  2  0
 44 43  1  0
 45 44  1  0
 47 48  1  0
 48 51  1  0
 48 50  1  0
 49 47  2  0
 52 53  1  0
 52 27  1  0
 54 52  1  0
 55  1  1  0
 56 55  1  0
 57 56  1  0
 58 57  1  0
 59 58  1  0
 60 62  1  0
 60 59  1  0
 61 59  2  0
 63 60  1  0
 64 65  1  0
 64 63  1  0
 66 65  1  0
 67 66  1  0
 68 70  1  0
 68 67  1  0
 69 80  2  0
 70 75  1  0
 71 79  1  0
 71 81  1  0
 72 78  1  0
 72 74  1  0
 73 79  1  0
 74 73  1  0
 75 74  2  0
 76 77  1  0
 76 70  2  0
 77 72  2  0
 78 71  1  0
 79 69  1  0
 81 83  2  0
 82 81  1  0
 84 82  1  0
 85 94  2  0
 85 90  1  0
 86 82  1  0
 86 90  1  0
 87 86  1  0
 88 89  1  0
 88 87  1  0
 89 85  1  0
 90 91  2  0
 91 92  1  0
 93 92  2  0
 94 93  1  0
 95 69  1  0
 95100  1  0
 95 96  1  0
 96 99  1  1
 96 97  1  0
 98 96  1  0
100103  1  0
101100  1  0
101105  1  0
102101  2  0
105104  1  0
105107  1  0
107108  1  0
107106  1  0
M  ISO  4  17 100  25 100  67 101  68 101
M  END
>  <TORSDO>  (53) 
F 35

>  <SCORE>  (53) 
17.547

>  <name>  (53) 
59

>  <ligand_id>  (53) 
59

>  <original_smiles>  (53) 
[H]c1c([H])c([H])c2c(c1[H])C([H])([H])C([H])([H])C([H])([H])C2([H])N([H])C(=O)C1([H])N(C(=O)C([H])(N([H])C(=O)C([H])(N([H])C([H])([H])[H])C([H])([H])[H])C(C([H])([H])[H])(C([H])([H])[H])C([H])([H])[H])C([H])([H])c2c([H])c(OC([H])([H])C([H])([H])C([H])([H])C([H])([H])C([H])([H])N([H])C(=O)C([H])([H])OC([H])([H])C([H])([H])C([H])([H])C([H])([H])N([H])C(=O)C([H])([H])N([H])C(=O)C([H])([H])OC([H])([H])C([H])([H])C([H])([H])N([H])C(=O)N3C([H])([H])C([H])([H])C([H])([H])C([H])(n4nc(-c5c([H])c([H])c(Oc6c([H])c([H])c(F)c([H])c6F)c([H])c5[H])c(C(=O)N([H])[H])c4N([H])[H])C3([H])[H])c([H])c([H])c2C1([H])[H]

>  <smiles>  (53) 
[H]c1c([H])c([H])c2c(c1[H])C([H])([H])C([H])([H])C([H])([H])C2([H])N([H])C(=O)C1([H])N(C(=O)C([H])(N([H])C(=O)C([H])(N([H])C([H])([H])[H])C([H])([H])[H])C(C([H])([H])[H])(C([H])([H])[H])C([H])([H])[H])C([H])([H])c2c([H])c(OC([H])([H])C([H])([H])C([H])([H])C([H])([H])C([H])([H])N([H])C(=O)C([H])([H])OC([H])([H])C([H])([H])C([H])([H])C([H])([H])N([H])C(=O)C([H])([H])N([H])C(=O)C([H])([H])OC([H])([H])C([H])([H])C([H])([H])N([H])C(=O)N3C([H])([H])C([H])([H])C([H])([H])C([H])(n4nc(-c5c([H])c([H])c(Oc6c([H])c([H])c(F)c([H])c6F)c([H])c5[H])c(C(=O)N([H])[H])c4N([H])[H])C3([H])[H])c([H])c([H])c2C1([H])[H]

$$$$
60:0:0
     RDKit          3D

118125  0  0  1  0  0  0  0  0999 V2000
  -26.0140  -22.5320   17.0110 C   0  0  0  0  0  0  0  0  0  0  0  0
  -26.4730  -22.8400   18.2300 N   0  0  0  0  0  0  0  0  0  0  0  0
  -25.9620  -21.3760   16.5860 O   0  0  0  0  0  0  0  0  0  0  0  0
  -26.5250  -23.8170   18.4900 H   0  0  0  0  0  0  0  0  0  0  0  0
  -27.0100  -21.8720   19.1890 C   0  0  0  0  0  2  0  0  0  0  0  0
  -26.7190  -22.2200   20.6550 C   0  0  0  0  0  0  0  0  0  0  0  0
  -25.7080  -23.0610   20.9040 N   0  0  0  0  0  0  0  0  0  0  0  0
  -27.4230  -21.7460   21.5470 O   0  0  0  0  0  0  0  0  0  0  0  0
  -25.1800  -23.3660   20.1010 H   0  0  0  0  0  0  0  0  0  0  0  0
  -25.2300  -23.4900   22.2170 C   0  0  0  0  0  2  0  0  0  0  0  0
  -24.5190  -24.8500   22.1080 C   0  0  0  0  0  2  0  0  0  0  0  0
  -25.4420  -26.0350   21.7710 C   0  0  0  0  0  2  0  0  0  0  0  0
  -26.1050  -26.4680   22.9530 O   0  0  0  0  0  0  0  0  0  0  0  0
  -27.4630  -26.0540   23.0820 C   0  0  0  0  0  2  0  0  0  0  0  0
  -28.3100  -26.6530   21.9550 C   0  0  0  0  0  0  0  0  0  0  0  0
  -28.3760  -25.9500   20.8170 N   0  0  0  0  0  0  0  0  0  0  0  0
  -28.8410  -27.7570   22.0990 O   0  0  0  0  0  0  0  0  0  0  0  0
  -27.9220  -25.0470   20.8000 H   0  0  0  0  0  0  0  0  0  0  0  0
  -28.9690  -26.4220   19.5690 C   0  0  0  0  0  2  0  0  0  0  0  0
  -28.0270  -26.1820   18.3770 C   0  0  0  0  0  2  0  0  0  0  0  0
  -27.5610  -27.4340   17.9290 O   0  0  0  0  0  0  0  0  0  0  0  0
  -24.3480  -31.1880   23.0200 C   0  0  0  0  0  0  0  0  0  0  0  0
  -26.3730  -27.9030   18.4270 C   0  0  0  0  0  0  0  0  0  0  0  0
  -22.8340  -30.1270   21.3700 C   0  0  0  0  0  3  0  0  0  0  0  0
  -23.9790  -29.0830   19.3450 C   0  0  0  0  0  0  0  0  0  0  0  0
  -25.2370  -30.7370   20.7400 C   0  0  0  0  0  2  0  0  0  0  0  0
  -25.2190  -29.5720   19.7790 C   0  0  0  0  0  0  0  0  0  0  0  0
  -26.4160  -28.9980   19.3070 C   0  0  0  0  0  3  0  0  0  0  0  0
  -25.1190  -27.3950   18.0180 C   0  0  0  0  0  3  0  0  0  0  0  0
  -23.9250  -27.9860   18.4660 C   0  0  0  0  0  3  0  0  0  0  0  0
  -22.7450  -29.7940   19.8570 C   0  0  0  0  0  2  0  0  0  0  0  0
  -24.1670  -30.6860   21.7660 N   0  0  0  0  0  0  0  0  0  0  0  0
  -23.4080  -31.2380   23.8280 O   0  0  0  0  0  0  0  0  0  0  0  0
  -22.4460  -28.8600   22.1610 C   0  0  0  0  0  0  0  0  0  0  0  0
  -21.1710  -28.4600   22.0420 N   0  0  0  0  0  0  0  0  0  0  0  0
  -23.2850  -28.2430   22.8230 O   0  0  0  0  0  0  0  0  0  0  0  0
  -20.5500  -29.0280   21.4800 H   0  0  0  0  0  0  0  0  0  0  0  0
  -18.2070  -26.3940   22.1560 C   0  0  0  0  0  0  0  0  0  0  0  0
  -20.5860  -27.2670   22.6520 C   0  0  0  0  0  3  0  0  0  0  0  0
  -21.0990  -25.9770   21.9650 C   0  0  0  0  0  2  0  0  0  0  0  0
  -20.1730  -25.4690   20.8540 C   0  0  0  0  0  2  0  0  0  0  0  0
  -18.7670  -25.1970   21.4040 C   0  0  0  0  0  2  0  0  0  0  0  0
  -19.0590  -27.3730   22.7290 C   0  0  0  0  0  0  0  0  0  0  0  0
  -18.4830  -28.4800   23.3890 C   0  0  0  0  0  3  0  0  0  0  0  0
  -17.0870  -28.6180   23.4860 C   0  0  0  0  0  3  0  0  0  0  0  0
  -16.2460  -27.6400   22.9330 C   0  0  0  0  0  3  0  0  0  0  0  0
  -16.8080  -26.5320   22.2700 C   0  0  0  0  0  3  0  0  0  0  0  0
  -25.7300  -31.7470   23.4880 C   0  0  0  0  0  3  0  0  0  0  0  0
  -26.4160  -30.8600   24.5990 C   0  0  1  0  0  0  0  0  0  0  0  0
  -25.4950  -30.5450   25.8000 C   0  0  0  0  0  1  0  0  0  0  0  0
  -26.8970  -29.5150   24.0050 C   0  0  0  0  0  1  0  0  0  0  0  0
  -27.6720  -31.5830   25.1380 C   0  0  0  0  0  1  0  0  0  0  0  0
  -25.5040  -33.1140   23.9760 N   0  0  0  0  0  0  0  0  0  0  0  0
  -25.8940  -34.2260   23.3370 C   0  0  0  0  0  0  0  0  0  0  0  0
  -26.5550  -34.2050   22.2930 O   0  0  0  0  0  0  0  0  0  0  0  0
  -24.9240  -33.2100   24.7940 H   0  0  0  0  0  0  0  0  0  0  0  0
  -24.2990  -36.1640   23.1750 C   0  0  0  0  0  1  0  0  0  0  0  0
  -25.4850  -35.5760   23.9550 C   0  0  0  0  0  3  0  0  0  0  0  0
  -27.6560  -36.1910   24.9210 C   0  0  0  0  0  1  0  0  0  0  0  0
  -26.5870  -36.5630   23.9990 N   0  0  0  0  0  0  0  0  0  0  0  0
  -26.2390  -37.4800   24.2680 H   0  0  0  0  0  0  0  0  0  0  0  0
  -25.5480  -23.6870   16.1240 C   0  0  0  0  0  2  0  0  0  0  0  0
  -26.6630  -24.6660   15.6860 C   0  0  0  0  0  2  0  0  0  0  0  0
  -27.9650  -24.0590   15.1070 C   0  0  0  0  0  2  0  0  0  0  0  0
  -29.0430  -23.8590   16.1850 C   0  0  0  0  0  2  0  0  0  0  0  0
  -30.4030  -23.4020   15.6320 C   0  0  0  0  0  2  0  0  0  0  0  0
  -32.0520  -23.7920   17.4570 C   0  0  0  0  0  0  0  0  0  0  0  0
  -31.2640  -22.9850   16.7340 N   0  0  0  0  0  0  0  0  0  0  0  0
  -32.2560  -24.9660   17.1420 O   0  0  0  0  0  0  0  0  0  0  0  0
  -31.1730  -22.0330   17.0620 H   0  0  0  0  0  0  0  0  0  0  0  0
  -32.6600  -23.2300   18.7540 C   0  0  0  0  0  2  0  0  0  0  0  0
  -30.7680  -21.9480   19.7510 C   0  0  0  0  0  0  0  0  0  0  0  0
  -32.0290  -22.0120   19.2900 N   0  0  0  0  0  0  0  0  0  0  0  0
  -29.9610  -22.8530   19.5730 O   0  0  0  0  0  0  0  0  0  0  0  0
  -32.6230  -21.2040   19.4280 H   0  0  0  0  0  0  0  0  0  0  0  0
  -30.3140  -20.7200   20.5510 C   0  0  0  0  0  2  0  0  0  0  0  0
  -31.1090  -19.5660   20.2850 O   0  0  0  0  0  0  0  0  0  0  0  0
  -30.7910  -18.9230   19.0540 C   0  0  0  0  0  2  0  0  0  0  0  0
  -30.9340  -17.4000   19.2090 C   0  0  0  0  0  2  0  0  0  0  0  0
  -30.2350  -16.8490   20.4790 C   0  0  0  0  0  2  0  0  0  0  0  0
  -30.6700  -14.3820   19.9750 C   0  0  0  0  0  0  0  0  0  0  0  0
  -30.3200  -12.1620   18.9740 C   0  0  0  0  0  2  0  0  0  0  0  0
  -29.2860  -12.2850   17.8370 C   0  0  0  0  0  2  0  0  0  0  0  0
  -27.8530  -12.1430   18.3840 C   0  0  0  0  0  2  0  0  0  0  0  0
  -27.5880  -13.0590   19.6080 C   0  0  0  0  0  3  0  0  0  0  0  0
  -28.7270  -12.9160   20.6470 C   0  0  0  0  0  2  0  0  0  0  0  0
  -30.0080  -13.1950   19.9710 N   0  0  0  0  0  0  0  0  0  0  0  0
  -31.7450  -14.5550   19.4030 O   0  0  0  0  0  0  0  0  0  0  0  0
  -29.9780  -15.3990   20.5140 N   0  0  0  0  0  0  0  0  0  0  0  0
  -29.1160  -15.1250   20.9570 H   0  0  0  0  0  0  0  0  0  0  0  0
  -25.2780  -13.6890   20.5660 C   0  0  0  0  0  0  0  0  0  0  0  0
  -24.2330  -12.9250   21.0010 C   0  0  0  0  0  0  0  0  0  0  0  0
  -24.6560  -11.5640   20.8740 C   0  0  0  0  0  0  0  0  0  0  0  0
  -26.2780  -12.7960   20.2020 N   0  0  0  0  0  0  0  0  0  0  0  0
  -25.9110  -11.5130   20.4450 N   0  0  0  0  0  0  0  0  0  0  0  0
  -23.9190  -10.3120   21.0820 C   0  0  0  0  0  0  0  0  0  0  0  0
  -24.4000   -9.3060   21.9510 C   0  0  0  0  0  3  0  0  0  0  0  0
  -23.6640   -8.1180   22.1470 C   0  0  0  0  0  3  0  0  0  0  0  0
  -22.4340   -7.9280   21.4760 C   0  0  0  0  0  0  0  0  0  0  0  0
  -21.9710   -8.9200   20.5950 C   0  0  0  0  0  3  0  0  0  0  0  0
  -22.7050  -10.1000   20.3960 C   0  0  0  0  0  3  0  0  0  0  0  0
  -21.6640   -6.7940   21.5850 O   0  0  0  0  0  0  0  0  0  0  0  0
  -21.6540   -6.0380   22.7300 C   0  0  0  0  0  0  0  0  0  0  0  0
  -21.2920   -6.5860   23.9800 C   0  0  0  0  0  3  0  0  0  0  0  0
  -21.2250   -5.7600   25.1190 C   0  0  0  0  0  3  0  0  0  0  0  0
  -21.5100   -4.3850   25.0100 C   0  0  0  0  0  0  0  0  0  0  0  0
  -21.8650   -3.8360   23.7650 C   0  0  0  0  0  3  0  0  0  0  0  0
  -21.9330   -4.6600   22.6280 C   0  0  0  0  0  0  0  0  0  0  0  0
  -22.2560   -4.1230   21.4270 F   0  0  0  0  0  0  0  0  0  0  0  0
  -21.4390   -3.5880   26.1020 F   0  0  0  0  0  0  0  0  0  0  0  0
  -22.8770  -13.4170   21.4200 C   0  0  0  0  0  0  0  0  0  0  0  0
  -22.2220  -12.7170   22.3390 N   0  0  0  0  0  0  0  0  0  0  0  0
  -22.4080  -14.4620   20.9660 O   0  0  0  0  0  0  0  0  0  0  0  0
  -22.6110  -11.8710   22.7260 H   0  0  0  0  0  0  0  0  0  0  0  0
  -21.3180  -13.0340   22.6600 H   0  0  0  0  0  0  0  0  0  0  0  0
  -25.4560  -15.0640   20.4260 N   0  0  0  0  0  0  0  0  0  0  0  0
  -24.7130  -15.7220   20.6320 H   0  0  0  0  0  0  0  0  0  0  0  0
  -26.2790  -15.5010   20.0290 H   0  0  0  0  0  0  0  0  0  0  0  0
  1  2  1  0
  2  4  1  0
  2  5  1  0
  3  1  2  0
  5  6  1  0
  6  7  1  0
  6  8  2  0
  7 10  1  0
  9  7  1  0
 11 10  1  0
 12 11  1  0
 12 13  1  0
 13 14  1  0
 15 17  2  0
 15 14  1  0
 16 15  1  0
 18 16  1  0
 19 16  1  0
 20 19  1  0
 21 20  1  0
 21 23  1  0
 22 33  2  0
 23 28  1  0
 24 32  1  0
 24 34  1  0
 25 27  1  0
 25 31  1  0
 26 32  1  0
 27 26  1  0
 28 27  2  0
 29 23  2  0
 29 30  1  0
 30 25  2  0
 31 24  1  0
 32 22  1  0
 34 36  2  0
 35 34  1  0
 37 35  1  0
 38 47  2  0
 38 43  1  0
 39 35  1  0
 39 43  1  0
 40 39  1  0
 41 42  1  0
 41 40  1  0
 42 38  1  0
 43 44  2  0
 44 45  1  0
 46 45  2  0
 47 46  1  0
 48 22  1  0
 48 53  1  0
 48 49  1  0
 49 52  1  1
 49 50  1  0
 51 49  1  0
 53 56  1  0
 54 58  1  0
 54 53  1  0
 55 54  2  0
 58 57  1  0
 58 60  1  0
 60 61  1  0
 60 59  1  0
 62  1  1  0
 63 62  1  0
 64 63  1  0
 64 65  1  0
 66 65  1  0
 66 68  1  0
 67 71  1  0
 68 70  1  0
 68 67  1  0
 69 67  2  0
 71 73  1  0
 72 76  1  0
 73 75  1  0
 73 72  1  0
 74 72  2  0
 77 76  1  0
 78 79  1  0
 78 77  1  0
 79 80  1  0
 80 89  1  0
 81 89  1  0
 82 87  1  0
 83 84  1  0
 83 82  1  0
 85 84  1  0
 85 94  1  0
 85 86  1  0
 87 81  1  0
 87 86  1  0
 88 81  2  0
 89 90  1  0
 91 92  2  0
 92111  1  0
 93 92  1  0
 93 96  1  0
 94 95  1  0
 94 91  1  0
 95 93  2  0
 96 97  1  0
 97 98  2  0
 99102  1  0
 99 98  1  0
100 99  2  0
101100  1  0
101 96  2  0
102103  1  0
103104  1  0
104105  2  0
106105  1  0
106110  1  0
107106  2  0
108103  2  0
108107  1  0
109108  1  0
111112  1  0
112115  1  0
112114  1  0
113111  2  0
116 91  1  0
116117  1  0
118116  1  0
M  ISO  4  20 101  21 101  81 100  89 100
M  END
>  <TORSDO>  (54) 
F 39

>  <SCORE>  (54) 
-5.406

>  <name>  (54) 
60

>  <ligand_id>  (54) 
60

>  <original_smiles>  (54) 
[H]c1c([H])c([H])c2c(c1[H])C([H])([H])C([H])([H])C([H])([H])C2([H])N([H])C(=O)C1([H])N(C(=O)C([H])(N([H])C(=O)C([H])(N([H])C([H])([H])[H])C([H])([H])[H])C(C([H])([H])[H])(C([H])([H])[H])C([H])([H])[H])C([H])([H])c2c([H])c(OC([H])([H])C([H])([H])N([H])C(=O)C([H])([H])OC([H])([H])C([H])([H])C([H])([H])N([H])C(=O)C([H])([H])N([H])C(=O)C([H])([H])C([H])([H])C([H])([H])C([H])([H])C([H])([H])N([H])C(=O)C([H])([H])N([H])C(=O)C([H])([H])OC([H])([H])C([H])([H])C([H])([H])N([H])C(=O)N3C([H])([H])C([H])([H])C([H])([H])C([H])(n4nc(-c5c([H])c([H])c(Oc6c([H])c([H])c(F)c([H])c6F)c([H])c5[H])c(C(=O)N([H])[H])c4N([H])[H])C3([H])[H])c([H])c([H])c2C1([H])[H]

>  <smiles>  (54) 
[H]c1c([H])c([H])c2c(c1[H])C([H])([H])C([H])([H])C([H])([H])C2([H])N([H])C(=O)C1([H])N(C(=O)C([H])(N([H])C(=O)C([H])(N([H])C([H])([H])[H])C([H])([H])[H])C(C([H])([H])[H])(C([H])([H])[H])C([H])([H])[H])C([H])([H])c2c([H])c(OC([H])([H])C([H])([H])N([H])C(=O)C([H])([H])OC([H])([H])C([H])([H])C([H])([H])N([H])C(=O)C([H])([H])N([H])C(=O)C([H])([H])C([H])([H])C([H])([H])C([H])([H])C([H])([H])N([H])C(=O)C([H])([H])N([H])C(=O)C([H])([H])OC([H])([H])C([H])([H])C([H])([H])N([H])C(=O)N3C([H])([H])C([H])([H])C([H])([H])C([H])(n4nc(-c5c([H])c([H])c(Oc6c([H])c([H])c(F)c([H])c6F)c([H])c5[H])c(C(=O)N([H])[H])c4N([H])[H])C3([H])[H])c([H])c([H])c2C1([H])[H]

$$$$
61:0:0
     RDKit          3D

 96103  0  0  1  0  0  0  0  0999 V2000
  -26.0820  -21.7170   24.3590 C   0  0  0  0  0  2  0  0  0  0  0  0
  -27.1760  -20.6430   24.4090 C   0  0  0  0  0  0  0  0  0  0  0  0
  -28.2150  -20.8140   23.5790 N   0  0  0  0  0  0  0  0  0  0  0  0
  -27.0850  -19.6870   25.1810 O   0  0  0  0  0  0  0  0  0  0  0  0
  -28.1730  -21.6400   22.9970 H   0  0  0  0  0  0  0  0  0  0  0  0
  -29.3720  -19.9350   23.4450 C   0  0  0  0  0  2  0  0  0  0  0  0
  -29.5400  -19.4030   22.0110 C   0  0  0  0  0  2  0  0  0  0  0  0
  -30.4060  -20.2970   21.1050 C   0  0  0  0  0  2  0  0  0  0  0  0
  -31.2990  -19.4640   20.1730 C   0  0  0  0  0  2  0  0  0  0  0  0
  -32.6490  -20.1310   19.8340 C   0  0  0  0  0  2  0  0  0  0  0  0
  -34.3680  -18.3780   19.4800 C   0  0  0  0  0  0  0  0  0  0  0  0
  -34.6860  -15.9420   19.1700 C   0  0  0  0  0  2  0  0  0  0  0  0
  -33.8980  -15.3960   17.9660 C   0  0  0  0  0  2  0  0  0  0  0  0
  -32.4410  -15.0700   18.3530 C   0  0  0  0  0  2  0  0  0  0  0  0
  -31.7540  -16.2350   19.1160 C   0  0  0  0  0  3  0  0  0  0  0  0
  -32.6650  -16.6970   20.2750 C   0  0  0  0  0  2  0  0  0  0  0  0
  -33.9630  -17.1020   19.7140 N   0  0  0  0  0  0  0  0  0  0  0  0
  -35.3500  -18.6580   18.7880 O   0  0  0  0  0  0  0  0  0  0  0  0
  -33.7930  -19.3120   20.2500 N   0  0  0  0  0  0  0  0  0  0  0  0
  -34.5020  -19.9130   20.6480 H   0  0  0  0  0  0  0  0  0  0  0  0
  -29.3490  -16.6580   19.9530 C   0  0  0  0  0  0  0  0  0  0  0  0
  -28.3250  -15.7990   20.2540 C   0  0  0  0  0  0  0  0  0  0  0  0
  -28.8330  -14.4840   20.0310 C   0  0  0  0  0  0  0  0  0  0  0  0
  -30.4220  -15.8560   19.5880 N   0  0  0  0  0  0  0  0  0  0  0  0
  -30.1110  -14.5360   19.6770 N   0  0  0  0  0  0  0  0  0  0  0  0
  -28.1630  -13.1780   20.0800 C   0  0  0  0  0  0  0  0  0  0  0  0
  -28.0840  -12.4290   21.2750 C   0  0  0  0  0  3  0  0  0  0  0  0
  -27.4250  -11.1790   21.2970 C   0  0  0  0  0  3  0  0  0  0  0  0
  -26.8280  -10.6720   20.1160 C   0  0  0  0  0  0  0  0  0  0  0  0
  -26.9290  -11.4100   18.9240 C   0  0  0  0  0  3  0  0  0  0  0  0
  -27.5910  -12.6490   18.9050 C   0  0  0  0  0  3  0  0  0  0  0  0
  -26.1870   -9.4610   20.0370 O   0  0  0  0  0  0  0  0  0  0  0  0
  -25.0960   -9.1710   20.8180 C   0  0  0  0  0  0  0  0  0  0  0  0
  -23.8710   -9.8580   20.6730 C   0  0  0  0  0  3  0  0  0  0  0  0
  -22.7600   -9.4870   21.4560 C   0  0  0  0  0  3  0  0  0  0  0  0
  -22.8650   -8.4180   22.3670 C   0  0  0  0  0  0  0  0  0  0  0  0
  -24.0830   -7.7290   22.5050 C   0  0  0  0  0  3  0  0  0  0  0  0
  -25.1950   -8.1060   21.7330 C   0  0  0  0  0  0  0  0  0  0  0  0
  -26.3600   -7.4240   21.8580 F   0  0  0  0  0  0  0  0  0  0  0  0
  -21.7930   -8.0520   23.1080 F   0  0  0  0  0  0  0  0  0  0  0  0
  -26.9170  -16.1710   20.6310 C   0  0  0  0  0  0  0  0  0  0  0  0
  -26.2450  -15.3370   21.4170 N   0  0  0  0  0  0  0  0  0  0  0  0
  -26.4230  -17.2370   20.2670 O   0  0  0  0  0  0  0  0  0  0  0  0
  -26.6470  -14.4670   21.7340 H   0  0  0  0  0  0  0  0  0  0  0  0
  -25.3090  -15.5750   21.7170 H   0  0  0  0  0  0  0  0  0  0  0  0
  -29.4560  -18.0490   19.9390 N   0  0  0  0  0  0  0  0  0  0  0  0
  -28.6790  -18.6590   20.1680 H   0  0  0  0  0  0  0  0  0  0  0  0
  -30.2980  -18.5560   19.6950 H   0  0  0  0  0  0  0  0  0  0  0  0
  -26.3380  -22.5910   23.2660 O   0  0  0  0  0  0  0  0  0  0  0  0
  -26.2570  -23.9630   23.6260 C   0  0  0  0  0  2  0  0  0  0  0  0
  -25.5010  -24.7190   22.5290 C   0  0  0  0  0  2  0  0  0  0  0  0
  -25.5310  -24.0370   21.1440 C   0  0  0  0  0  2  0  0  0  0  0  0
  -26.1450  -24.8270   20.1300 O   0  0  0  0  0  0  0  0  0  0  0  0
  -25.2270  -25.3370   19.1650 C   0  0  0  0  0  2  0  0  0  0  0  0
  -25.9410  -26.2930   18.1990 C   0  0  0  0  0  2  0  0  0  0  0  0
  -24.9870  -27.1480   17.5690 O   0  0  0  0  0  0  0  0  0  0  0  0
  -24.1940  -30.2250   23.9160 C   0  0  0  0  0  0  0  0  0  0  0  0
  -24.1390  -27.7700   18.4480 C   0  0  0  0  0  0  0  0  0  0  0  0
  -22.1030  -29.7570   22.6770 C   0  0  0  0  0  3  0  0  0  0  0  0
  -22.3940  -29.0680   20.2400 C   0  0  0  0  0  0  0  0  0  0  0  0
  -24.2960  -30.1740   21.4300 C   0  0  0  0  0  2  0  0  0  0  0  0
  -23.7760  -29.2610   20.3450 C   0  0  0  0  0  0  0  0  0  0  0  0
  -24.6550  -28.6130   19.4520 C   0  0  0  0  0  3  0  0  0  0  0  0
  -22.7460  -27.5850   18.3420 C   0  0  0  0  0  3  0  0  0  0  0  0
  -21.8700  -28.2260   19.2420 C   0  0  0  0  0  3  0  0  0  0  0  0
  -21.5270  -29.8020   21.2370 C   0  0  0  0  0  2  0  0  0  0  0  0
  -23.5760  -30.0400   22.7160 N   0  0  0  0  0  0  0  0  0  0  0  0
  -23.5530  -30.2110   24.9750 O   0  0  0  0  0  0  0  0  0  0  0  0
  -21.7190  -28.4060   23.3190 C   0  0  0  0  0  0  0  0  0  0  0  0
  -20.4740  -27.9660   23.0820 N   0  0  0  0  0  0  0  0  0  0  0  0
  -22.5390  -27.7660   23.9840 O   0  0  0  0  0  0  0  0  0  0  0  0
  -19.8610  -28.5540   22.5330 H   0  0  0  0  0  0  0  0  0  0  0  0
  -17.8600  -25.5440   22.4720 C   0  0  0  0  0  0  0  0  0  0  0  0
  -19.9070  -26.7010   23.5470 C   0  0  0  0  0  3  0  0  0  0  0  0
  -20.7320  -25.4990   23.0310 C   0  0  0  0  0  2  0  0  0  0  0  0
  -20.1920  -24.9080   21.7260 C   0  0  0  0  0  2  0  0  0  0  0  0
  -18.7430  -24.4460   21.9060 C   0  0  0  0  0  2  0  0  0  0  0  0
  -18.4080  -26.6090   23.2350 C   0  0  0  0  0  0  0  0  0  0  0  0
  -17.5480  -27.6200   23.7140 C   0  0  0  0  0  3  0  0  0  0  0  0
  -16.1660  -27.5770   23.4470 C   0  0  0  0  0  3  0  0  0  0  0  0
  -15.6260  -26.5130   22.7070 C   0  0  0  0  0  3  0  0  0  0  0  0
  -16.4710  -25.4970   22.2250 C   0  0  0  0  0  3  0  0  0  0  0  0
  -25.7310  -30.4880   24.0120 C   0  0  0  0  0  3  0  0  0  0  0  0
  -25.9280  -31.9410   24.0850 N   0  0  0  0  0  0  0  0  0  0  0  0
  -26.3280  -32.7070   23.0600 C   0  0  0  0  0  0  0  0  0  0  0  0
  -26.6430  -32.2420   21.9600 O   0  0  0  0  0  0  0  0  0  0  0  0
  -25.6320  -32.3970   24.9350 H   0  0  0  0  0  0  0  0  0  0  0  0
  -25.1710  -34.8970   22.6310 C   0  0  0  0  0  1  0  0  0  0  0  0
  -26.3850  -34.2280   23.2930 C   0  0  0  0  0  3  0  0  0  0  0  0
  -28.8100  -34.4910   23.5770 C   0  0  0  0  0  1  0  0  0  0  0  0
  -27.6300  -34.8520   22.7940 N   0  0  0  0  0  0  0  0  0  0  0  0
  -27.5490  -35.8650   22.7870 H   0  0  0  0  0  0  0  0  0  0  0  0
  -26.4100  -29.7690   25.2390 C   0  0  1  0  0  0  0  0  0  0  0  0
  -25.6900  -30.0230   26.5830 C   0  0  0  0  0  1  0  0  0  0  0  0
  -26.4630  -28.2390   25.0170 C   0  0  0  0  0  1  0  0  0  0  0  0
  -27.8750  -30.2450   25.3810 C   0  0  0  0  0  1  0  0  0  0  0  0
  1  2  1  0
  2  4  2  0
  3  2  1  0
  5  3  1  0
  6  3  1  0
  7  6  1  0
  8  7  1  0
  9  8  1  0
 10  9  1  0
 10 19  1  0
 11 17  1  0
 11 19  1  0
 12 17  1  0
 13 14  1  0
 13 12  1  0
 15 14  1  0
 15 24  1  0
 15 16  1  0
 17 16  1  0
 18 11  2  0
 19 20  1  0
 21 22  2  0
 22 41  1  0
 23 26  1  0
 23 22  1  0
 24 25  1  0
 24 21  1  0
 25 23  2  0
 26 27  1  0
 27 28  2  0
 29 28  1  0
 30 29  2  0
 31 30  1  0
 31 26  2  0
 32 29  1  0
 32 33  1  0
 33 38  1  0
 34 33  2  0
 34 35  1  0
 35 36  2  0
 36 37  1  0
 36 40  1  0
 38 39  1  0
 38 37  2  0
 41 42  1  0
 42 45  1  0
 42 44  1  0
 43 41  2  0
 46 21  1  0
 46 47  1  0
 48 46  1  0
 49 50  1  0
 49  1  1  0
 51 50  1  0
 52 51  1  0
 53 52  1  0
 54 53  1  0
 55 54  1  0
 56 55  1  0
 56 58  1  0
 57 68  2  0
 58 63  1  0
 59 67  1  0
 59 69  1  0
 60 62  1  0
 60 66  1  0
 61 67  1  0
 62 61  1  0
 63 62  2  0
 64 58  2  0
 64 65  1  0
 65 60  2  0
 66 59  1  0
 67 57  1  0
 69 71  2  0
 70 69  1  0
 72 70  1  0
 73 78  1  0
 74 70  1  0
 75 74  1  0
 76 77  1  0
 76 75  1  0
 77 73  1  0
 78 74  1  0
 78 79  2  0
 80 79  1  0
 81 80  2  0
 82 73  2  0
 82 81  1  0
 83 57  1  0
 83 84  1  0
 83 93  1  0
 84 87  1  0
 85 89  1  0
 85 84  1  0
 86 85  2  0
 89 88  1  0
 91 89  1  0
 91 90  1  0
 92 91  1  0
 93 96  1  1
 93 94  1  0
 95 93  1  0
M  ISO  4  11 100  19 100  55 101  56 101
M  END
>  <TORSDO>  (55) 
F 29

>  <SCORE>  (55) 
26.982

>  <name>  (55) 
61

>  <ligand_id>  (55) 
61

>  <original_smiles>  (55) 
[H]c1c([H])c([H])c2c(c1[H])C([H])([H])C([H])([H])C([H])([H])C2([H])N([H])C(=O)C1([H])N(C(=O)C([H])(N([H])C(=O)C([H])(N([H])C([H])([H])[H])C([H])([H])[H])C(C([H])([H])[H])(C([H])([H])[H])C([H])([H])[H])C([H])([H])c2c([H])c(OC([H])([H])C([H])([H])OC([H])([H])C([H])([H])C([H])([H])OC([H])([H])C(=O)N([H])C([H])([H])C([H])([H])C([H])([H])C([H])([H])C([H])([H])N([H])C(=O)N3C([H])([H])C([H])([H])C([H])([H])C([H])(n4nc(-c5c([H])c([H])c(Oc6c([H])c([H])c(F)c([H])c6F)c([H])c5[H])c(C(=O)N([H])[H])c4N([H])[H])C3([H])[H])c([H])c([H])c2C1([H])[H]

>  <smiles>  (55) 
[H]c1c([H])c([H])c2c(c1[H])C([H])([H])C([H])([H])C([H])([H])C2([H])N([H])C(=O)C1([H])N(C(=O)C([H])(N([H])C(=O)C([H])(N([H])C([H])([H])[H])C([H])([H])[H])C(C([H])([H])[H])(C([H])([H])[H])C([H])([H])[H])C([H])([H])c2c([H])c(OC([H])([H])C([H])([H])OC([H])([H])C([H])([H])C([H])([H])OC([H])([H])C(=O)N([H])C([H])([H])C([H])([H])C([H])([H])C([H])([H])C([H])([H])N([H])C(=O)N3C([H])([H])C([H])([H])C([H])([H])C([H])(n4nc(-c5c([H])c([H])c(Oc6c([H])c([H])c(F)c([H])c6F)c([H])c5[H])c(C(=O)N([H])[H])c4N([H])[H])C3([H])[H])c([H])c([H])c2C1([H])[H]

$$$$
63:0:0
     RDKit          3D

112119  0  0  1  0  0  0  0  0999 V2000
  -17.7550  -15.1220   22.4680 C   0  0  0  0  0  0  0  0  0  0  0  0
  -17.2870  -16.2800   21.9870 N   0  0  0  0  0  0  0  0  0  0  0  0
  -18.3850  -14.3130   21.7810 O   0  0  0  0  0  0  0  0  0  0  0  0
  -16.7720  -16.8660   22.6280 H   0  0  0  0  0  0  0  0  0  0  0  0
  -17.3650  -16.7370   20.6030 C   0  0  0  0  0  2  0  0  0  0  0  0
  -18.7530  -17.2650   20.2080 C   0  0  0  0  0  2  0  0  0  0  0  0
  -19.2700  -18.4470   21.0530 C   0  0  0  0  0  2  0  0  0  0  0  0
  -20.5070  -19.0770   20.3940 C   0  0  0  0  0  2  0  0  0  0  0  0
  -21.1560  -20.2430   21.1660 C   0  0  0  0  0  2  0  0  0  0  0  0
  -22.3400  -20.8180   20.3700 C   0  0  0  0  0  2  0  0  0  0  0  0
  -23.2270  -21.8090   21.1340 C   0  0  0  0  0  2  0  0  0  0  0  0
  -24.4500  -22.2010   20.2920 C   0  0  0  0  0  2  0  0  0  0  0  0
  -25.4020  -23.1540   21.0230 C   0  0  0  0  0  2  0  0  0  0  0  0
  -26.6200  -23.5280   20.1580 C   0  0  0  0  0  2  0  0  0  0  0  0
  -27.5330  -24.5700   20.8300 C   0  0  0  0  0  2  0  0  0  0  0  0
  -28.3880  -25.3730   19.8190 C   0  0  0  0  0  2  0  0  0  0  0  0
  -28.4160  -26.7700   20.1170 O   0  0  0  0  0  0  0  0  0  0  0  0
  -24.6070  -31.8750   23.2180 C   0  0  0  0  0  0  0  0  0  0  0  0
  -27.2320  -27.4760   20.0820 C   0  0  0  0  0  0  0  0  0  0  0  0
  -23.3920  -30.4970   21.5610 C   0  0  0  0  0  3  0  0  0  0  0  0
  -24.8350  -28.9790   20.1170 C   0  0  0  0  0  0  0  0  0  0  0  0
  -25.9160  -30.8510   21.3660 C   0  0  0  0  0  2  0  0  0  0  0  0
  -25.9940  -29.4890   20.7150 C   0  0  0  0  0  0  0  0  0  0  0  0
  -27.1910  -28.7420   20.7030 C   0  0  0  0  0  3  0  0  0  0  0  0
  -26.0550  -26.9890   19.4630 C   0  0  0  0  0  3  0  0  0  0  0  0
  -24.8600  -27.7220   19.4960 C   0  0  0  0  0  3  0  0  0  0  0  0
  -23.5970  -29.8430   20.1690 C   0  0  0  0  0  2  0  0  0  0  0  0
  -24.6560  -31.0910   22.1050 N   0  0  0  0  0  0  0  0  0  0  0  0
  -23.5280  -32.1540   23.7560 O   0  0  0  0  0  0  0  0  0  0  0  0
  -22.7400  -29.4650   22.5070 C   0  0  0  0  0  0  0  0  0  0  0  0
  -21.4120  -29.3040   22.3840 N   0  0  0  0  0  0  0  0  0  0  0  0
  -23.4210  -28.8160   23.3060 O   0  0  0  0  0  0  0  0  0  0  0  0
  -20.9260  -29.8870   21.7160 H   0  0  0  0  0  0  0  0  0  0  0  0
  -18.0280  -28.1360   22.8500 C   0  0  0  0  0  0  0  0  0  0  0  0
  -20.5840  -28.3640   23.1390 C   0  0  0  0  0  3  0  0  0  0  0  0
  -20.6780  -26.9410   22.5440 C   0  0  0  0  0  2  0  0  0  0  0  0
  -19.5830  -26.6480   21.5160 C   0  0  0  0  0  2  0  0  0  0  0  0
  -18.1980  -26.7950   22.1540 C   0  0  0  0  0  2  0  0  0  0  0  0
  -19.1510  -28.8810   23.2960 C   0  0  0  0  0  0  0  0  0  0  0  0
  -18.9420  -30.1420   23.8960 C   0  0  0  0  0  3  0  0  0  0  0  0
  -17.6420  -30.6570   24.0550 C   0  0  0  0  0  3  0  0  0  0  0  0
  -16.5320  -29.9040   23.6300 C   0  0  0  0  0  3  0  0  0  0  0  0
  -16.7250  -28.6440   23.0340 C   0  0  0  0  0  3  0  0  0  0  0  0
  -25.9020  -32.4840   23.8440 C   0  0  0  0  0  3  0  0  0  0  0  0
  -25.5950  -33.8640   24.2370 N   0  0  0  0  0  0  0  0  0  0  0  0
  -25.9060  -34.9480   23.5140 C   0  0  0  0  0  0  0  0  0  0  0  0
  -26.5590  -34.8910   22.4690 O   0  0  0  0  0  0  0  0  0  0  0  0
  -25.0190  -33.9860   25.0580 H   0  0  0  0  0  0  0  0  0  0  0  0
  -24.1510  -36.7310   23.2630 C   0  0  0  0  0  1  0  0  0  0  0  0
  -25.4110  -36.3100   24.0340 C   0  0  0  0  0  3  0  0  0  0  0  0
  -27.5570  -37.1780   24.8460 C   0  0  0  0  0  1  0  0  0  0  0  0
  -26.4270  -37.3780   23.9430 N   0  0  0  0  0  0  0  0  0  0  0  0
  -26.0150  -38.2850   24.1420 H   0  0  0  0  0  0  0  0  0  0  0  0
  -26.4510  -31.6580   25.0710 C   0  0  1  0  0  0  0  0  0  0  0  0
  -25.3810  -31.3680   26.1470 C   0  0  0  0  0  1  0  0  0  0  0  0
  -27.0320  -30.3040   24.6030 C   0  0  0  0  0  1  0  0  0  0  0  0
  -27.6130  -32.4260   25.7460 C   0  0  0  0  0  1  0  0  0  0  0  0
  -17.4300  -14.8170   23.9360 C   0  0  0  0  0  2  0  0  0  0  0  0
  -19.3630  -14.0080   25.2750 C   0  0  0  0  0  0  0  0  0  0  0  0
  -18.3050  -13.7850   24.4900 N   0  0  0  0  0  0  0  0  0  0  0  0
  -19.6770  -15.1340   25.6660 O   0  0  0  0  0  0  0  0  0  0  0  0
  -18.1530  -12.8450   24.1510 H   0  0  0  0  0  0  0  0  0  0  0  0
  -20.2020  -12.7870   25.6720 C   0  0  0  0  0  2  0  0  0  0  0  0
  -22.6500  -13.3270   25.7410 C   0  0  0  0  0  0  0  0  0  0  0  0
  -21.5450  -12.9150   25.1160 N   0  0  0  0  0  0  0  0  0  0  0  0
  -22.7030  -13.5430   26.9540 O   0  0  0  0  0  0  0  0  0  0  0  0
  -21.6260  -12.7970   24.1170 H   0  0  0  0  0  0  0  0  0  0  0  0
  -23.8630  -13.5170   24.8270 C   0  0  0  0  0  2  0  0  0  0  0  0
  -25.0670  -13.7480   25.5610 O   0  0  0  0  0  0  0  0  0  0  0  0
  -26.1540  -13.7680   24.6480 C   0  0  0  0  0  2  0  0  0  0  0  0
  -27.5190  -14.1050   25.2770 C   0  0  0  0  0  2  0  0  0  0  0  0
  -28.5440  -14.0490   24.1440 C   0  0  0  0  0  2  0  0  0  0  0  0
  -30.0190  -14.2730   24.4750 C   0  0  0  0  0  2  0  0  0  0  0  0
  -30.9450  -13.8960   23.2850 C   0  0  0  0  0  2  0  0  0  0  0  0
  -30.8710  -14.2380   20.8120 C   0  0  0  0  0  0  0  0  0  0  0  0
  -30.4020  -12.2640   19.3890 C   0  0  0  0  0  2  0  0  0  0  0  0
  -29.4820  -12.5100   18.1850 C   0  0  0  0  0  2  0  0  0  0  0  0
  -28.0090  -12.3310   18.5920 C   0  0  0  0  0  2  0  0  0  0  0  0
  -27.6530  -13.1880   19.8260 C   0  0  0  0  0  3  0  0  0  0  0  0
  -28.6830  -13.0140   20.9510 C   0  0  0  0  0  2  0  0  0  0  0  0
  -30.0640  -13.1980   20.4710 N   0  0  0  0  0  0  0  0  0  0  0  0
  -31.7410  -14.6900   20.0610 O   0  0  0  0  0  0  0  0  0  0  0  0
  -30.7470  -14.7090   22.0710 N   0  0  0  0  0  0  0  0  0  0  0  0
  -31.1830  -15.6160   22.1580 H   0  0  0  0  0  0  0  0  0  0  0  0
  -25.2560  -13.8170   20.5630 C   0  0  0  0  0  0  0  0  0  0  0  0
  -24.1810  -13.0430   20.9190 C   0  0  0  0  0  0  0  0  0  0  0  0
  -24.6360  -11.6930   20.8620 C   0  0  0  0  0  0  0  0  0  0  0  0
  -26.2960  -12.9310   20.3120 N   0  0  0  0  0  0  0  0  0  0  0  0
  -25.9250  -11.6490   20.5550 N   0  0  0  0  0  0  0  0  0  0  0  0
  -23.9030  -10.4300   21.0280 C   0  0  0  0  0  0  0  0  0  0  0  0
  -24.3640   -9.4190   21.9010 C   0  0  0  0  0  3  0  0  0  0  0  0
  -23.6330   -8.2220   22.0610 C   0  0  0  0  0  3  0  0  0  0  0  0
  -22.4270   -8.0290   21.3500 C   0  0  0  0  0  0  0  0  0  0  0  0
  -21.9870   -9.0240   20.4630 C   0  0  0  0  0  3  0  0  0  0  0  0
  -22.7190  -10.2120   20.2950 C   0  0  0  0  0  3  0  0  0  0  0  0
  -21.6630   -6.8900   21.4190 O   0  0  0  0  0  0  0  0  0  0  0  0
  -21.6840   -6.0780   22.5230 C   0  0  0  0  0  0  0  0  0  0  0  0
  -21.3880   -6.5680   23.8120 C   0  0  0  0  0  3  0  0  0  0  0  0
  -21.3570   -5.6870   24.9100 C   0  0  0  0  0  3  0  0  0  0  0  0
  -21.6070   -4.3140   24.7160 C   0  0  0  0  0  0  0  0  0  0  0  0
  -21.8920   -3.8230   23.4320 C   0  0  0  0  0  3  0  0  0  0  0  0
  -21.9270   -4.7020   22.3360 C   0  0  0  0  0  0  0  0  0  0  0  0
  -22.1760   -4.2210   21.0950 F   0  0  0  0  0  0  0  0  0  0  0  0
  -21.5640   -3.4610   25.7660 F   0  0  0  0  0  0  0  0  0  0  0  0
  -22.7790  -13.5230   21.1790 C   0  0  0  0  0  0  0  0  0  0  0  0
  -22.0080  -12.7790   21.9700 N   0  0  0  0  0  0  0  0  0  0  0  0
  -22.3640  -14.5720   20.6970 O   0  0  0  0  0  0  0  0  0  0  0  0
  -22.3110  -11.8590   22.2540 H   0  0  0  0  0  0  0  0  0  0  0  0
  -21.0320  -13.0320   22.0420 H   0  0  0  0  0  0  0  0  0  0  0  0
  -25.4270  -15.1870   20.4060 N   0  0  0  0  0  0  0  0  0  0  0  0
  -24.6740  -15.8580   20.5300 H   0  0  0  0  0  0  0  0  0  0  0  0
  -26.2890  -15.6170   20.0920 H   0  0  0  0  0  0  0  0  0  0  0  0
  1 58  1  0
  2  1  1  0
  2  4  1  0
  3  1  2  0
  5  2  1  0
  6  5  1  0
  6  7  1  0
  8  7  1  0
  8  9  1  0
 10 11  1  0
 10  9  1  0
 12 13  1  0
 12 11  1  0
 14 15  1  0
 14 13  1  0
 16 17  1  0
 16 15  1  0
 18 29  2  0
 19 17  1  0
 19 24  1  0
 20 28  1  0
 20 30  1  0
 21 27  1  0
 21 23  1  0
 22 28  1  0
 23 22  1  0
 24 23  2  0
 25 26  1  0
 25 19  2  0
 26 21  2  0
 27 20  1  0
 28 18  1  0
 30 32  2  0
 31 30  1  0
 33 31  1  0
 34 43  2  0
 34 39  1  0
 35 31  1  0
 35 39  1  0
 36 35  1  0
 37 38  1  0
 37 36  1  0
 38 34  1  0
 39 40  2  0
 40 41  1  0
 42 41  2  0
 43 42  1  0
 44 18  1  0
 44 45  1  0
 44 54  1  0
 45 48  1  0
 46 50  1  0
 46 45  1  0
 47 46  2  0
 50 49  1  0
 52 50  1  0
 52 53  1  0
 52 51  1  0
 54 57  1  1
 54 55  1  0
 56 54  1  0
 58 60  1  0
 59 61  2  0
 59 63  1  0
 60 59  1  0
 62 60  1  0
 64 66  2  0
 65 63  1  0
 65 64  1  0
 67 65  1  0
 68 69  1  0
 68 64  1  0
 70 71  1  0
 70 69  1  0
 72 73  1  0
 72 71  1  0
 74 73  1  0
 75 83  1  0
 76 81  1  0
 77 78  1  0
 77 76  1  0
 79 78  1  0
 79 88  1  0
 79 80  1  0
 81 75  1  0
 81 80  1  0
 82 75  2  0
 83 84  1  0
 83 74  1  0
 85 86  2  0
 86105  1  0
 87 86  1  0
 87 90  1  0
 88 89  1  0
 88 85  1  0
 89 87  2  0
 90 91  1  0
 91 92  2  0
 93 96  1  0
 93 92  1  0
 94 93  2  0
 95 94  1  0
 95 90  2  0
 96 97  1  0
 97 98  1  0
 98 99  2  0
100 99  1  0
100104  1  0
101100  2  0
102 97  2  0
102101  1  0
103102  1  0
105106  1  0
106109  1  0
106108  1  0
107105  2  0
110111  1  0
110 85  1  0
112110  1  0
M  ISO  4  16 101  17 101  75 100  83 100
M  END
>  <TORSDO>  (56) 
F 39

>  <SCORE>  (56) 
94.472

>  <name>  (56) 
63

>  <ligand_id>  (56) 
63

>  <original_smiles>  (56) 
[H]c1c([H])c([H])c2c(c1[H])C([H])([H])C([H])([H])C([H])([H])C2([H])N([H])C(=O)C1([H])N(C(=O)C([H])(N([H])C(=O)C([H])(N([H])C([H])([H])[H])C([H])([H])[H])C(C([H])([H])[H])(C([H])([H])[H])C([H])([H])[H])C([H])([H])c2c([H])c(OC([H])([H])C([H])([H])C([H])([H])C([H])([H])C([H])([H])C([H])([H])C([H])([H])C([H])([H])C([H])([H])C([H])([H])C([H])([H])C([H])([H])N([H])C(=O)C([H])([H])N([H])C(=O)C([H])([H])N([H])C(=O)C([H])([H])OC([H])([H])C([H])([H])C([H])([H])C([H])([H])C([H])([H])N([H])C(=O)N3C([H])([H])C([H])([H])C([H])([H])C([H])(n4nc(-c5c([H])c([H])c(Oc6c([H])c([H])c(F)c([H])c6F)c([H])c5[H])c(C(=O)N([H])[H])c4N([H])[H])C3([H])[H])c([H])c([H])c2C1([H])[H]

>  <smiles>  (56) 
[H]c1c([H])c([H])c2c(c1[H])C([H])([H])C([H])([H])C([H])([H])C2([H])N([H])C(=O)C1([H])N(C(=O)C([H])(N([H])C(=O)C([H])(N([H])C([H])([H])[H])C([H])([H])[H])C(C([H])([H])[H])(C([H])([H])[H])C([H])([H])[H])C([H])([H])c2c([H])c(OC([H])([H])C([H])([H])C([H])([H])C([H])([H])C([H])([H])C([H])([H])C([H])([H])C([H])([H])C([H])([H])C([H])([H])C([H])([H])C([H])([H])N([H])C(=O)C([H])([H])N([H])C(=O)C([H])([H])N([H])C(=O)C([H])([H])OC([H])([H])C([H])([H])C([H])([H])C([H])([H])C([H])([H])N([H])C(=O)N3C([H])([H])C([H])([H])C([H])([H])C([H])(n4nc(-c5c([H])c([H])c(Oc6c([H])c([H])c(F)c([H])c6F)c([H])c5[H])c(C(=O)N([H])[H])c4N([H])[H])C3([H])[H])c([H])c([H])c2C1([H])[H]

$$$$
64:0:0
     RDKit          3D

127134  0  0  1  0  0  0  0  0999 V2000
  -22.3240  -24.3370   13.6520 C   0  0  0  0  0  0  0  0  0  0  0  0
  -23.0950  -23.3370   14.1020 N   0  0  0  0  0  0  0  0  0  0  0  0
  -21.1460  -24.1640   13.3380 O   0  0  0  0  0  0  0  0  0  0  0  0
  -24.0240  -23.5700   14.4300 H   0  0  0  0  0  0  0  0  0  0  0  0
  -22.7240  -21.9230   14.0960 C   0  0  0  0  0  2  0  0  0  0  0  0
  -22.2450  -21.3770   15.4450 C   0  0  0  0  0  0  0  0  0  0  0  0
  -22.7680  -21.8860   16.5700 N   0  0  0  0  0  0  0  0  0  0  0  0
  -21.3960  -20.4830   15.4650 O   0  0  0  0  0  0  0  0  0  0  0  0
  -23.4540  -22.6240   16.4700 H   0  0  0  0  0  0  0  0  0  0  0  0
  -22.4800  -21.3600   17.9070 C   0  0  0  0  0  2  0  0  0  0  0  0
  -23.5630  -21.6850   18.9540 C   0  0  0  0  0  2  0  0  0  0  0  0
  -24.9930  -21.3340   18.5180 C   0  0  0  0  0  2  0  0  0  0  0  0
  -25.1470  -19.9620   18.1660 O   0  0  0  0  0  0  0  0  0  0  0  0
  -26.0610  -19.7260   17.0820 C   0  0  0  0  0  2  0  0  0  0  0  0
  -27.5120  -20.1380   17.4180 C   0  0  0  0  0  0  0  0  0  0  0  0
  -28.1820  -20.8300   16.4820 N   0  0  0  0  0  0  0  0  0  0  0  0
  -28.0050  -19.8460   18.5080 O   0  0  0  0  0  0  0  0  0  0  0  0
  -27.7030  -21.0170   15.6110 H   0  0  0  0  0  0  0  0  0  0  0  0
  -29.5650  -21.2900   16.5970 C   0  0  0  0  0  2  0  0  0  0  0  0
  -29.7880  -22.6160   15.8470 C   0  0  0  0  0  2  0  0  0  0  0  0
  -31.2270  -23.1310   15.9990 C   0  0  0  0  0  2  0  0  0  0  0  0
  -31.5440  -24.4370   15.2420 C   0  0  0  0  0  2  0  0  0  0  0  0
  -30.7640  -25.6990   15.6710 C   0  0  0  0  0  2  0  0  0  0  0  0
  -31.0760  -26.2080   17.0960 C   0  0  0  0  0  2  0  0  0  0  0  0
  -30.4920  -27.6080   17.3860 C   0  0  0  0  0  2  0  0  0  0  0  0
  -30.7730  -28.0150   18.7290 O   0  0  0  0  0  0  0  0  0  0  0  0
  -28.8100  -31.3840   24.6690 C   0  0  0  0  0  0  0  0  0  0  0  0
  -29.7210  -28.3890   19.5370 C   0  0  0  0  0  0  0  0  0  0  0  0
  -27.0380  -30.0690   23.5550 C   0  0  0  0  0  3  0  0  0  0  0  0
  -27.5990  -29.2160   21.2200 C   0  0  0  0  0  0  0  0  0  0  0  0
  -28.9810  -31.0470   22.2110 C   0  0  0  0  0  2  0  0  0  0  0  0
  -28.8300  -29.8840   21.2580 C   0  0  0  0  0  0  0  0  0  0  0  0
  -29.8930  -29.4700   20.4280 C   0  0  0  0  0  3  0  0  0  0  0  0
  -28.4820  -27.7160   19.5310 C   0  0  0  0  0  3  0  0  0  0  0  0
  -27.4210  -28.1220   20.3600 C   0  0  0  0  0  3  0  0  0  0  0  0
  -26.5100  -29.7230   22.1370 C   0  0  0  0  0  2  0  0  0  0  0  0
  -28.3210  -30.8420   23.5200 N   0  0  0  0  0  0  0  0  0  0  0  0
  -28.1910  -31.2890   25.7370 O   0  0  0  0  0  0  0  0  0  0  0  0
  -27.1290  -28.7620   24.3730 C   0  0  0  0  0  0  0  0  0  0  0  0
  -25.9810  -28.3070   24.8980 N   0  0  0  0  0  0  0  0  0  0  0  0
  -28.2030  -28.1670   24.4990 O   0  0  0  0  0  0  0  0  0  0  0  0
  -25.1450  -28.8520   24.7460 H   0  0  0  0  0  0  0  0  0  0  0  0
  -23.5680  -26.3070   26.6940 C   0  0  0  0  0  0  0  0  0  0  0  0
  -25.8140  -27.0800   25.6760 C   0  0  0  0  0  3  0  0  0  0  0  0
  -25.7020  -25.8490   24.7490 C   0  0  0  0  0  2  0  0  0  0  0  0
  -24.2550  -25.4840   24.4020 C   0  0  0  0  0  2  0  0  0  0  0  0
  -23.4540  -25.1880   25.6740 C   0  0  0  0  0  2  0  0  0  0  0  0
  -24.6660  -27.2070   26.6840 C   0  0  0  0  0  0  0  0  0  0  0  0
  -24.7040  -28.2550   27.6300 C   0  0  0  0  0  3  0  0  0  0  0  0
  -23.6730  -28.4080   28.5760 C   0  0  0  0  0  3  0  0  0  0  0  0
  -22.5980  -27.5020   28.5960 C   0  0  0  0  0  3  0  0  0  0  0  0
  -22.5500  -26.4530   27.6600 C   0  0  0  0  0  3  0  0  0  0  0  0
  -30.1600  -32.1670   24.6930 C   0  0  0  0  0  3  0  0  0  0  0  0
  -31.3790  -31.2920   25.1830 C   0  0  1  0  0  0  0  0  0  0  0  0
  -31.1180  -30.5620   26.5220 C   0  0  0  0  0  1  0  0  0  0  0  0
  -31.7440  -30.2240   24.1270 C   0  0  0  0  0  1  0  0  0  0  0  0
  -32.6290  -32.1870   25.3580 C   0  0  0  0  0  1  0  0  0  0  0  0
  -29.9760  -33.3380   25.5600 N   0  0  0  0  0  0  0  0  0  0  0  0
  -29.7230  -34.5770   25.1190 C   0  0  0  0  0  0  0  0  0  0  0  0
  -29.6940  -34.8700   23.9190 O   0  0  0  0  0  0  0  0  0  0  0  0
  -29.9360  -33.1630   26.5530 H   0  0  0  0  0  0  0  0  0  0  0  0
  -27.9490  -35.9010   26.3070 C   0  0  0  0  0  1  0  0  0  0  0  0
  -29.4620  -35.6670   26.1760 C   0  0  0  0  0  3  0  0  0  0  0  0
  -31.5950  -36.8680   25.9930 C   0  0  0  0  0  1  0  0  0  0  0  0
  -30.1410  -36.9480   25.8810 N   0  0  0  0  0  0  0  0  0  0  0  0
  -29.8150  -37.6810   26.5040 H   0  0  0  0  0  0  0  0  0  0  0  0
  -22.9700  -25.7190   13.4600 C   0  0  0  0  0  2  0  0  0  0  0  0
  -25.2930  -26.2250   14.1710 C   0  0  0  0  0  0  0  0  0  0  0  0
  -24.4250  -25.6160   13.3640 N   0  0  0  0  0  0  0  0  0  0  0  0
  -24.9750  -27.1360   14.9350 O   0  0  0  0  0  0  0  0  0  0  0  0
  -24.7810  -24.8910   12.7550 H   0  0  0  0  0  0  0  0  0  0  0  0
  -26.7250  -25.6820   14.1570 C   0  0  0  0  0  2  0  0  0  0  0  0
  -26.6420  -24.5100   16.3620 C   0  0  0  0  0  0  0  0  0  0  0  0
  -27.1920  -25.3740   15.5050 N   0  0  0  0  0  0  0  0  0  0  0  0
  -25.6990  -23.7790   16.0450 O   0  0  0  0  0  0  0  0  0  0  0  0
  -27.9670  -25.9080   15.8740 H   0  0  0  0  0  0  0  0  0  0  0  0
  -27.2350  -24.4770   17.7780 C   0  0  0  0  0  2  0  0  0  0  0  0
  -28.2480  -25.4740   17.9260 O   0  0  0  0  0  0  0  0  0  0  0  0
  -28.7600  -25.5910   19.2540 C   0  0  0  0  0  2  0  0  0  0  0  0
  -29.9130  -24.6090   19.5470 C   0  0  0  0  0  2  0  0  0  0  0  0
  -31.2960  -25.1410   19.1300 C   0  0  0  0  0  2  0  0  0  0  0  0
  -32.2620  -24.0930   19.1680 O   0  0  0  0  0  0  0  0  0  0  0  0
  -33.5950  -24.5620   18.9820 C   0  0  0  0  0  2  0  0  0  0  0  0
  -34.5840  -23.3830   19.0080 C   0  0  0  0  0  2  0  0  0  0  0  0
  -35.1040  -21.3860   17.6380 C   0  0  0  0  0  0  0  0  0  0  0  0
  -34.3910  -22.4960   17.8650 N   0  0  0  0  0  0  0  0  0  0  0  0
  -36.0010  -21.0050   18.3920 O   0  0  0  0  0  0  0  0  0  0  0  0
  -33.6610  -22.7470   17.2140 H   0  0  0  0  0  0  0  0  0  0  0  0
  -34.7790  -20.5960   16.3720 C   0  0  0  0  0  2  0  0  0  0  0  0
  -35.6580  -18.3600   15.6870 C   0  0  0  0  0  0  0  0  0  0  0  0
  -35.5760  -16.0590   14.8200 C   0  0  0  0  0  2  0  0  0  0  0  0
  -34.1480  -15.7780   14.3040 C   0  0  0  0  0  2  0  0  0  0  0  0
  -33.2350  -15.2870   15.4450 C   0  0  0  0  0  2  0  0  0  0  0  0
  -33.3190  -16.1870   16.7080 C   0  0  0  0  0  3  0  0  0  0  0  0
  -34.7940  -16.4530   17.0880 C   0  0  0  0  0  2  0  0  0  0  0  0
  -35.4690  -17.0350   15.9150 N   0  0  0  0  0  0  0  0  0  0  0  0
  -36.2140  -18.8040   14.6810 O   0  0  0  0  0  0  0  0  0  0  0  0
  -35.0330  -19.1660   16.5550 N   0  0  0  0  0  0  0  0  0  0  0  0
  -34.6310  -18.7360   17.3730 H   0  0  0  0  0  0  0  0  0  0  0  0
  -31.5520  -16.1750   18.5820 C   0  0  0  0  0  0  0  0  0  0  0  0
  -31.1470  -15.1940   19.4500 C   0  0  0  0  0  0  0  0  0  0  0  0
  -31.9560  -14.0530   19.1590 C   0  0  0  0  0  0  0  0  0  0  0  0
  -32.5670  -15.6140   17.8240 N   0  0  0  0  0  0  0  0  0  0  0  0
  -32.8420  -14.3440   18.2160 N   0  0  0  0  0  0  0  0  0  0  0  0
  -31.9000  -12.6820   19.6840 C   0  0  0  0  0  0  0  0  0  0  0  0
  -33.0540  -12.0340   20.1770 C   0  0  0  0  0  3  0  0  0  0  0  0
  -32.9730  -10.7220   20.6920 C   0  0  0  0  0  3  0  0  0  0  0  0
  -31.7290  -10.0480   20.7230 C   0  0  0  0  0  0  0  0  0  0  0  0
  -30.5880  -10.6890   20.2100 C   0  0  0  0  0  3  0  0  0  0  0  0
  -30.6720  -11.9940   19.6920 C   0  0  0  0  0  3  0  0  0  0  0  0
  -31.5580   -8.7650   21.1830 O   0  0  0  0  0  0  0  0  0  0  0  0
  -32.4110   -8.2110   22.1030 C   0  0  0  0  0  0  0  0  0  0  0  0
  -32.6570   -8.8210   23.3530 C   0  0  0  0  0  3  0  0  0  0  0  0
  -33.4870   -8.1830   24.2960 C   0  0  0  0  0  3  0  0  0  0  0  0
  -34.0620   -6.9330   23.9980 C   0  0  0  0  0  0  0  0  0  0  0  0
  -33.8130   -6.3210   22.7570 C   0  0  0  0  0  3  0  0  0  0  0  0
  -32.9870   -6.9590   21.8120 C   0  0  0  0  0  0  0  0  0  0  0  0
  -32.7330   -6.3560   20.6270 F   0  0  0  0  0  0  0  0  0  0  0  0
  -34.8530   -6.3150   24.9060 F   0  0  0  0  0  0  0  0  0  0  0  0
  -30.0110  -15.2770   20.4280 C   0  0  0  0  0  0  0  0  0  0  0  0
  -30.1070  -14.5550   21.5410 N   0  0  0  0  0  0  0  0  0  0  0  0
  -29.0530  -16.0200   20.2320 O   0  0  0  0  0  0  0  0  0  0  0  0
  -30.9030  -13.9590   21.7120 H   0  0  0  0  0  0  0  0  0  0  0  0
  -29.3700  -14.5970   22.2310 H   0  0  0  0  0  0  0  0  0  0  0  0
  -31.1310  -17.4840   18.3630 N   0  0  0  0  0  0  0  0  0  0  0  0
  -30.3640  -17.9020   18.8770 H   0  0  0  0  0  0  0  0  0  0  0  0
  -31.4990  -18.0900   17.6410 H   0  0  0  0  0  0  0  0  0  0  0  0
  1  2  1  0
  2  4  1  0
  3  1  2  0
  5  2  1  0
  5  6  1  0
  6  8  2  0
  6  7  1  0
  7 10  1  0
  9  7  1  0
 10 11  1  0
 12 11  1  0
 13 12  1  0
 14 15  1  0
 14 13  1  0
 15 17  2  0
 16 19  1  0
 16 15  1  0
 18 16  1  0
 20 21  1  0
 20 19  1  0
 22 23  1  0
 22 21  1  0
 23 24  1  0
 24 25  1  0
 25 26  1  0
 26 28  1  0
 27 38  2  0
 28 33  1  0
 29 39  1  0
 30 32  1  0
 30 36  1  0
 31 37  1  0
 32 31  1  0
 33 32  2  0
 34 28  2  0
 34 35  1  0
 35 30  2  0
 36 29  1  0
 37 29  1  0
 37 27  1  0
 39 41  2  0
 39 40  1  0
 42 40  1  0
 43 52  1  0
 44 40  1  0
 44 48  1  0
 45 44  1  0
 46 45  1  0
 46 47  1  0
 47 43  1  0
 48 43  2  0
 48 49  1  0
 49 50  2  0
 50 51  1  0
 52 51  2  0
 53 27  1  0
 53 54  1  0
 53 58  1  0
 54 57  1  1
 54 55  1  0
 56 54  1  0
 58 61  1  0
 59 58  1  0
 59 63  1  0
 60 59  2  0
 63 62  1  0
 65 64  1  0
 65 63  1  0
 65 66  1  0
 67  1  1  0
 68 70  2  0
 69 67  1  0
 69 68  1  0
 71 69  1  0
 72 68  1  0
 72 74  1  0
 73 77  1  0
 74 76  1  0
 74 73  1  0
 75 73  2  0
 77 78  1  0
 78 79  1  0
 79 80  1  0
 81 82  1  0
 81 80  1  0
 83 84  1  0
 83 82  1  0
 85 86  1  0
 85 87  2  0
 86 84  1  0
 88 86  1  0
 89 98  1  0
 89 85  1  0
 90 96  1  0
 90 98  1  0
 91 96  1  0
 92 91  1  0
 92 93  1  0
 94 93  1  0
 94 95  1  0
 94103  1  0
 96 95  1  0
 97 90  2  0
 98 99  1  0
100101  2  0
101120  1  0
102101  1  0
102105  1  0
103104  1  0
103100  1  0
104102  2  0
105110  2  0
105106  1  0
106107  2  0
107108  1  0
108111  1  0
109108  2  0
110109  1  0
111112  1  0
112113  1  0
113114  2  0
115114  1  0
115119  1  0
116115  2  0
117112  2  0
117116  1  0
118117  1  0
120121  1  0
121123  1  0
121124  1  0
122120  2  0
125100  1  0
125126  1  0
127125  1  0
M  ISO  4  25 101  26 101  90 100  98 100
M  END
>  <TORSDO>  (57) 
F 45

>  <SCORE>  (57) 
9.201

>  <name>  (57) 
64

>  <ligand_id>  (57) 
64

>  <original_smiles>  (57) 
[H]c1c([H])c([H])c2c(c1[H])C([H])([H])C([H])([H])C([H])([H])C2([H])N([H])C(=O)C1([H])N(C(=O)C([H])(N([H])C(=O)C([H])(N([H])C([H])([H])[H])C([H])([H])[H])C(C([H])([H])[H])(C([H])([H])[H])C([H])([H])[H])C([H])([H])c2c([H])c(OC([H])([H])C([H])([H])C([H])([H])C([H])([H])C([H])([H])C([H])([H])C([H])([H])N([H])C(=O)C([H])([H])OC([H])([H])C([H])([H])C([H])([H])N([H])C(=O)C([H])([H])N([H])C(=O)C([H])([H])N([H])C(=O)C([H])([H])N([H])C(=O)C([H])([H])OC([H])([H])C([H])([H])C([H])([H])OC([H])([H])C([H])([H])N([H])C(=O)C([H])([H])N([H])C(=O)N3C([H])([H])C([H])([H])C([H])([H])C([H])(n4nc(-c5c([H])c([H])c(Oc6c([H])c([H])c(F)c([H])c6F)c([H])c5[H])c(C(=O)N([H])[H])c4N([H])[H])C3([H])[H])c([H])c([H])c2C1([H])[H]

>  <smiles>  (57) 
[H]c1c([H])c([H])c2c(c1[H])C([H])([H])C([H])([H])C([H])([H])C2([H])N([H])C(=O)C1([H])N(C(=O)C([H])(N([H])C(=O)C([H])(N([H])C([H])([H])[H])C([H])([H])[H])C(C([H])([H])[H])(C([H])([H])[H])C([H])([H])[H])C([H])([H])c2c([H])c(OC([H])([H])C([H])([H])C([H])([H])C([H])([H])C([H])([H])C([H])([H])C([H])([H])N([H])C(=O)C([H])([H])OC([H])([H])C([H])([H])C([H])([H])N([H])C(=O)C([H])([H])N([H])C(=O)C([H])([H])N([H])C(=O)C([H])([H])N([H])C(=O)C([H])([H])OC([H])([H])C([H])([H])C([H])([H])OC([H])([H])C([H])([H])N([H])C(=O)C([H])([H])N([H])C(=O)N3C([H])([H])C([H])([H])C([H])([H])C([H])(n4nc(-c5c([H])c([H])c(Oc6c([H])c([H])c(F)c([H])c6F)c([H])c5[H])c(C(=O)N([H])[H])c4N([H])[H])C3([H])[H])c([H])c([H])c2C1([H])[H]

$$$$
65:0:0
     RDKit          3D

123130  0  0  1  0  0  0  0  0999 V2000
  -29.9550  -33.2290   16.6130 C   0  0  0  0  0  2  0  0  0  0  0  0
  -30.3450  -31.9900   14.5080 C   0  0  0  0  0  0  0  0  0  0  0  0
  -30.7770  -32.7900   15.4880 N   0  0  0  0  0  0  0  0  0  0  0  0
  -29.2000  -31.5330   14.4780 O   0  0  0  0  0  0  0  0  0  0  0  0
  -31.7400  -33.0960   15.4730 H   0  0  0  0  0  0  0  0  0  0  0  0
  -31.3370  -31.6710   13.3840 C   0  0  0  0  0  2  0  0  0  0  0  0
  -31.9850  -29.3460   12.7940 C   0  0  0  0  0  0  0  0  0  0  0  0
  -31.0890  -30.3350   12.8490 N   0  0  0  0  0  0  0  0  0  0  0  0
  -33.1660  -29.5090   13.1160 O   0  0  0  0  0  0  0  0  0  0  0  0
  -30.1240  -30.1200   12.6390 H   0  0  0  0  0  0  0  0  0  0  0  0
  -30.0010  -27.7630   12.4070 C   0  0  0  0  0  1  0  0  0  0  0  0
  -31.5280  -27.9560   12.3260 C   0  0  0  0  0  3  0  0  0  0  0  0
  -32.2330  -26.9890   13.1900 N   0  0  0  0  0  4  0  0  0  0  0  0
  -32.8990  -27.6000   13.6510 H   0  0  0  0  0  0  0  0  0  0  0  0
  -31.6070  -26.6250   13.8890 H   0  0  0  0  0  0  0  0  0  0  0  0
  -32.9600  -25.8950   12.5080 C   0  0  0  0  0  2  0  0  0  0  0  0
  -33.9250  -25.1860   13.4710 C   0  0  0  0  0  2  0  0  0  0  0  0
  -33.1510  -24.6120   14.5230 O   0  0  0  0  0  0  0  0  0  0  0  0
  -33.8570  -24.3010   15.7280 C   0  0  0  0  0  2  0  0  0  0  0  0
  -35.1120  -23.4350   15.5130 C   0  0  0  0  0  2  0  0  0  0  0  0
  -34.7650  -22.3710   14.6350 O   0  0  0  0  0  0  0  0  0  0  0  0
  -35.8660  -21.6340   14.1160 C   0  0  0  0  0  2  0  0  0  0  0  0
  -36.1910  -20.3900   14.9500 C   0  0  0  0  0  2  0  0  0  0  0  0
  -37.0770  -20.6150   16.1940 C   0  0  0  0  0  2  0  0  0  0  0  0
  -37.8730  -18.3230   16.6690 C   0  0  0  0  0  0  0  0  0  0  0  0
  -37.6560  -15.9050   16.2920 C   0  0  0  0  0  2  0  0  0  0  0  0
  -36.5660  -15.6700   15.2270 C   0  0  0  0  0  2  0  0  0  0  0  0
  -35.1700  -15.6030   15.8770 C   0  0  0  0  0  2  0  0  0  0  0  0
  -34.9020  -16.7960   16.8350 C   0  0  0  0  0  3  0  0  0  0  0  0
  -36.0850  -16.9710   17.8150 C   0  0  0  0  0  2  0  0  0  0  0  0
  -37.3180  -17.1360   17.0210 N   0  0  0  0  0  0  0  0  0  0  0  0
  -38.8680  -18.4310   15.9450 O   0  0  0  0  0  0  0  0  0  0  0  0
  -37.1260  -19.3890   16.9850 N   0  0  0  0  0  0  0  0  0  0  0  0
  -36.3600  -19.2160   17.6180 H   0  0  0  0  0  0  0  0  0  0  0  0
  -32.6480  -17.5740   17.8130 C   0  0  0  0  0  0  0  0  0  0  0  0
  -31.6470  -16.8950   18.4560 C   0  0  0  0  0  0  0  0  0  0  0  0
  -32.0880  -15.5360   18.5380 C   0  0  0  0  0  0  0  0  0  0  0  0
  -33.6350  -16.6400   17.5460 N   0  0  0  0  0  0  0  0  0  0  0  0
  -33.3090  -15.4170   18.0350 N   0  0  0  0  0  0  0  0  0  0  0  0
  -31.3940  -14.3310   19.0050 C   0  0  0  0  0  0  0  0  0  0  0  0
  -32.0810  -13.3000   19.6850 C   0  0  0  0  0  3  0  0  0  0  0  0
  -31.3880  -12.1610   20.1440 C   0  0  0  0  0  3  0  0  0  0  0  0
  -29.9950  -12.0420   19.9240 C   0  0  0  0  0  0  0  0  0  0  0  0
  -29.3220  -13.0560   19.2230 C   0  0  0  0  0  3  0  0  0  0  0  0
  -30.0150  -14.1890   18.7630 C   0  0  0  0  0  3  0  0  0  0  0  0
  -29.2440  -10.9560   20.3060 O   0  0  0  0  0  0  0  0  0  0  0  0
  -29.7350  -10.0120   21.1690 C   0  0  0  0  0  0  0  0  0  0  0  0
  -30.6490  -10.3440   22.1940 C   0  0  0  0  0  3  0  0  0  0  0  0
  -31.0740   -9.3580   23.1050 C   0  0  0  0  0  3  0  0  0  0  0  0
  -30.5820   -8.0420   22.9990 C   0  0  0  0  0  0  0  0  0  0  0  0
  -29.6690   -7.7110   21.9820 C   0  0  0  0  0  3  0  0  0  0  0  0
  -29.2470   -8.6950   21.0730 C   0  0  0  0  0  0  0  0  0  0  0  0
  -28.3490   -8.3770   20.1100 F   0  0  0  0  0  0  0  0  0  0  0  0
  -30.9840   -7.0930   23.8770 F   0  0  0  0  0  0  0  0  0  0  0  0
  -30.3170  -17.4460   18.8800 C   0  0  0  0  0  0  0  0  0  0  0  0
  -29.7400  -16.8980   19.9420 N   0  0  0  0  0  0  0  0  0  0  0  0
  -29.8020  -18.4050   18.3020 O   0  0  0  0  0  0  0  0  0  0  0  0
  -30.1720  -16.1290   20.4330 H   0  0  0  0  0  0  0  0  0  0  0  0
  -28.8550  -17.2530   20.2740 H   0  0  0  0  0  0  0  0  0  0  0  0
  -32.7980  -18.9000   17.4160 N   0  0  0  0  0  0  0  0  0  0  0  0
  -32.0530  -19.5800   17.5140 H   0  0  0  0  0  0  0  0  0  0  0  0
  -33.5700  -19.2390   16.8570 H   0  0  0  0  0  0  0  0  0  0  0  0
  -30.6380  -34.3660   17.3840 C   0  0  0  0  0  2  0  0  0  0  0  0
  -31.8150  -33.8510   17.9910 O   0  0  0  0  0  0  0  0  0  0  0  0
  -32.6760  -34.8660   18.4890 C   0  0  0  0  0  2  0  0  0  0  0  0
  -33.5740  -34.2480   19.5680 C   0  0  0  0  0  2  0  0  0  0  0  0
  -34.0530  -32.8250   19.2570 C   0  0  0  0  0  2  0  0  0  0  0  0
  -33.6810  -32.0070   20.3540 O   0  0  0  0  0  0  0  0  0  0  0  0
  -33.7850  -30.6110   20.0880 C   0  0  0  0  0  2  0  0  0  0  0  0
  -32.7120  -29.8620   20.8900 C   0  0  0  0  0  0  0  0  0  0  0  0
  -32.4890  -28.5840   20.5590 N   0  0  0  0  0  0  0  0  0  0  0  0
  -32.0690  -30.4370   21.7730 O   0  0  0  0  0  0  0  0  0  0  0  0
  -33.0830  -28.1740   19.8490 H   0  0  0  0  0  0  0  0  0  0  0  0
  -31.4280  -27.7470   21.1180 C   0  0  0  0  0  2  0  0  0  0  0  0
  -30.2930  -27.5410   20.0980 C   0  0  0  0  0  2  0  0  0  0  0  0
  -30.6450  -26.5320   18.9860 C   0  0  0  0  0  2  0  0  0  0  0  0
  -29.4130  -25.9200   18.2810 C   0  0  0  0  0  2  0  0  0  0  0  0
  -28.5740  -26.9270   17.5910 N   0  0  0  0  0  4  0  0  0  0  0  0
  -28.3920  -27.6800   18.2350 H   0  0  0  0  0  0  0  0  0  0  0  0
  -27.6790  -26.5030   17.3950 H   0  0  0  0  0  0  0  0  0  0  0  0
  -29.1280  -27.4660   16.3230 C   0  0  0  0  0  2  0  0  0  0  0  0
  -28.4500  -28.7820   15.9310 C   0  0  0  0  0  2  0  0  0  0  0  0
  -27.1070  -28.4810   15.5500 O   0  0  0  0  0  0  0  0  0  0  0  0
  -25.1650  -28.0210   22.4000 C   0  0  0  0  0  0  0  0  0  0  0  0
  -26.1160  -28.4990   16.5080 C   0  0  0  0  0  0  0  0  0  0  0  0
  -23.3430  -27.8360   20.7350 C   0  0  0  0  0  3  0  0  0  0  0  0
  -23.9690  -28.4480   18.3430 C   0  0  0  0  0  0  0  0  0  0  0  0
  -25.4430  -29.1970   20.2230 C   0  0  0  0  0  2  0  0  0  0  0  0
  -25.2430  -28.8340   18.7700 C   0  0  0  0  0  0  0  0  0  0  0  0
  -26.3110  -28.8830   17.8570 C   0  0  0  0  0  3  0  0  0  0  0  0
  -24.8250  -28.1130   16.0960 C   0  0  0  0  0  3  0  0  0  0  0  0
  -23.7490  -28.0910   17.0030 C   0  0  0  0  0  3  0  0  0  0  0  0
  -22.8790  -28.4470   19.3880 C   0  0  0  0  0  2  0  0  0  0  0  0
  -24.6970  -28.3240   21.1570 N   0  0  0  0  0  0  0  0  0  0  0  0
  -24.4700  -27.3910   23.2070 O   0  0  0  0  0  0  0  0  0  0  0  0
  -23.2460  -26.2980   20.6310 C   0  0  0  0  0  0  0  0  0  0  0  0
  -22.0280  -25.7950   20.3730 N   0  0  0  0  0  0  0  0  0  0  0  0
  -24.2500  -25.5910   20.7490 O   0  0  0  0  0  0  0  0  0  0  0  0
  -21.2540  -26.4400   20.2970 H   0  0  0  0  0  0  0  0  0  0  0  0
  -19.4460  -23.5270   19.2630 C   0  0  0  0  0  0  0  0  0  0  0  0
  -21.7020  -24.3810   20.1890 C   0  0  0  0  0  3  0  0  0  0  0  0
  -22.3300  -23.8250   18.8900 C   0  0  0  0  0  2  0  0  0  0  0  0
  -21.3890  -23.9020   17.6840 C   0  0  0  0  0  2  0  0  0  0  0  0
  -20.1040  -23.1140   17.9580 C   0  0  0  0  0  2  0  0  0  0  0  0
  -20.1930  -24.1350   20.3040 C   0  0  0  0  0  0  0  0  0  0  0  0
  -19.5260  -24.5300   21.4830 C   0  0  0  0  0  3  0  0  0  0  0  0
  -18.1420  -24.3270   21.6310 C   0  0  0  0  0  3  0  0  0  0  0  0
  -17.4090  -23.7070   20.6040 C   0  0  0  0  0  3  0  0  0  0  0  0
  -18.0620  -23.3060   19.4250 C   0  0  0  0  0  3  0  0  0  0  0  0
  -26.5850  -28.4720   22.8710 C   0  0  0  0  0  3  0  0  0  0  0  0
  -27.5770  -27.2650   23.0980 C   0  0  1  0  0  0  0  0  0  0  0  0
  -27.0140  -26.1630   24.0220 C   0  0  0  0  0  1  0  0  0  0  0  0
  -27.9480  -26.6040   21.7510 C   0  0  0  0  0  1  0  0  0  0  0  0
  -28.8990  -27.7750   23.7180 C   0  0  0  0  0  1  0  0  0  0  0  0
  -26.4140  -29.2480   24.1040 N   0  0  0  0  0  0  0  0  0  0  0  0
  -26.5520  -30.5790   24.1870 C   0  0  0  0  0  0  0  0  0  0  0  0
  -26.9070  -31.2770   23.2350 O   0  0  0  0  0  0  0  0  0  0  0  0
  -26.0610  -28.7520   24.9100 H   0  0  0  0  0  0  0  0  0  0  0  0
  -24.8610  -31.9090   25.4880 C   0  0  0  0  0  1  0  0  0  0  0  0
  -26.2420  -31.2370   25.5450 C   0  0  0  0  0  3  0  0  0  0  0  0
  -28.5470  -31.6250   26.2940 C   0  0  0  0  0  1  0  0  0  0  0  0
  -27.2570  -32.2250   25.9650 N   0  0  0  0  0  0  0  0  0  0  0  0
  -26.9330  -32.7510   26.7720 H   0  0  0  0  0  0  0  0  0  0  0  0
  1 63  1  0
  2  3  1  0
  3  1  1  0
  4  2  2  0
  5  3  1  0
  6  2  1  0
  7  8  1  0
  7  9  2  0
  8  6  1  0
 10  8  1  0
 12 11  1  0
 12  7  1  0
 12 13  1  0
 13 14  1  0
 13 15  1  0
 16 13  1  0
 16 17  1  0
 17 18  1  0
 18 19  1  0
 20 19  1  0
 21 20  1  0
 22 21  1  0
 22 23  1  0
 23 24  1  0
 24 33  1  0
 25 33  1  0
 25 31  1  0
 26 31  1  0
 27 28  1  0
 27 26  1  0
 29 28  1  0
 29 38  1  0
 29 30  1  0
 31 30  1  0
 32 25  2  0
 33 34  1  0
 35 36  2  0
 36 37  1  0
 36 55  1  0
 37 40  1  0
 38 35  1  0
 38 39  1  0
 39 37  2  0
 40 41  1  0
 41 42  2  0
 43 42  1  0
 43 46  1  0
 44 43  2  0
 45 40  2  0
 45 44  1  0
 46 47  1  0
 47 48  1  0
 48 49  2  0
 50 49  1  0
 50 54  1  0
 51 50  2  0
 52 47  2  0
 52 51  1  0
 53 52  1  0
 55 56  1  0
 56 59  1  0
 56 58  1  0
 57 55  2  0
 60 61  1  0
 60 35  1  0
 62 60  1  0
 63 64  1  0
 64 65  1  0
 65 66  1  0
 67 66  1  0
 67 68  1  0
 69 68  1  0
 69 70  1  0
 70 72  2  0
 71 70  1  0
 71 74  1  0
 73 71  1  0
 75 74  1  0
 76 75  1  0
 77 76  1  0
 78 79  1  0
 78 77  1  0
 80 78  1  0
 81 78  1  0
 82 81  1  0
 83 82  1  0
 83 85  1  0
 84 95  2  0
 85 90  1  0
 86 96  1  0
 86 94  1  0
 87 89  1  0
 87 93  1  0
 88 94  1  0
 89 88  1  0
 90 89  2  0
 91 85  2  0
 91 92  1  0
 92 87  2  0
 93 86  1  0
 94 84  1  0
 96 98  2  0
 97 96  1  0
 99 97  1  0
100109  2  0
100105  1  0
101105  1  0
101 97  1  0
102101  1  0
103104  1  0
103102  1  0
104100  1  0
105106  2  0
106107  1  0
108107  2  0
109108  1  0
110 84  1  0
110111  1  0
110115  1  0
111114  1  1
111112  1  0
113111  1  0
115116  1  0
115118  1  0
116120  1  0
117116  2  0
120119  1  0
120122  1  0
122121  1  0
122123  1  0
M  ISO  4  25 100  33 100  82 101  83 101
M  END
>  <TORSDO>  (58) 
F 45

>  <SCORE>  (58) 
-2.762

>  <name>  (58) 
65

>  <ligand_id>  (58) 
65

>  <original_smiles>  (58) 
[H]c1c([H])c([H])c2c(c1[H])C([H])([H])C([H])([H])C([H])([H])C2([H])N([H])C(=O)C1([H])N(C(=O)C([H])(N([H])C(=O)C([H])(N([H])C([H])([H])[H])C([H])([H])[H])C(C([H])([H])[H])(C([H])([H])[H])C([H])([H])[H])C([H])([H])c2c([H])c(OC([H])([H])C([H])([H])[N+]([H])([H])C([H])([H])C([H])([H])C([H])([H])C([H])([H])N([H])C(=O)C([H])([H])OC([H])([H])C([H])([H])C([H])([H])OC([H])([H])C([H])([H])N([H])C(=O)C([H])([H])N([H])C(=O)C([H])(C([H])([H])[H])[N+]([H])([H])C([H])([H])C([H])([H])OC([H])([H])C([H])([H])OC([H])([H])C([H])([H])C([H])([H])N([H])C(=O)N3C([H])([H])C([H])([H])C([H])([H])C([H])(n4nc(-c5c([H])c([H])c(Oc6c([H])c([H])c(F)c([H])c6F)c([H])c5[H])c(C(=O)N([H])[H])c4N([H])[H])C3([H])[H])c([H])c([H])c2C1([H])[H]

>  <smiles>  (58) 
[H]c1c([H])c([H])c2c(c1[H])C([H])([H])C([H])([H])C([H])([H])C2([H])N([H])C(=O)C1([H])N(C(=O)C([H])(N([H])C(=O)C([H])(N([H])C([H])([H])[H])C([H])([H])[H])C(C([H])([H])[H])(C([H])([H])[H])C([H])([H])[H])C([H])([H])c2c([H])c(OC([H])([H])C([H])([H])[N+]([H])([H])C([H])([H])C([H])([H])C([H])([H])C([H])([H])N([H])C(=O)C([H])([H])OC([H])([H])C([H])([H])C([H])([H])OC([H])([H])C([H])([H])N([H])C(=O)C([H])([H])N([H])C(=O)C([H])(C([H])([H])[H])[N+]([H])([H])C([H])([H])C([H])([H])OC([H])([H])C([H])([H])OC([H])([H])C([H])([H])C([H])([H])N([H])C(=O)N3C([H])([H])C([H])([H])C([H])([H])C([H])(n4nc(-c5c([H])c([H])c(Oc6c([H])c([H])c(F)c([H])c6F)c([H])c5[H])c(C(=O)N([H])[H])c4N([H])[H])C3([H])[H])c([H])c([H])c2C1([H])[H]

$$$$
67:0:0
     RDKit          3D

188195  0  0  1  0  0  0  0  0999 V2000
  -34.7110  -33.3280   20.6650 C   0  0  0  0  0  2  0  0  0  0  0  0
  -35.7770  -32.5840   21.3870 N   0  0  0  0  0  4  0  0  0  0  0  0
  -36.6500  -33.0000   21.0940 H   0  0  0  0  0  0  0  0  0  0  0  0
  -35.7330  -32.7370   22.3810 H   0  0  0  0  0  0  0  0  0  0  0  0
  -35.9020  -31.1350   21.0690 C   0  0  0  0  0  2  0  0  0  0  0  0
  -34.5920  -30.3060   21.2540 C   0  0  0  0  0  2  0  0  0  0  0  0
  -34.7420  -28.8230   20.8330 C   0  0  0  0  0  2  0  0  0  0  0  0
  -34.2700  -27.8300   21.8380 N   0  0  0  0  0  4  0  0  0  0  0  0
  -34.9250  -27.0750   21.6950 H   0  0  0  0  0  0  0  0  0  0  0  0
  -34.4170  -28.1490   22.7840 H   0  0  0  0  0  0  0  0  0  0  0  0
  -32.9510  -27.1570   21.6620 C   0  0  0  0  0  2  0  0  0  0  0  0
  -31.7410  -27.7970   22.4030 C   0  0  0  0  0  2  0  0  0  0  0  0
  -30.5490  -26.8000   22.5790 C   0  0  0  0  0  2  0  0  0  0  0  0
  -29.3530  -27.3890   23.2580 N   0  0  0  0  0  4  0  0  0  0  0  0
  -29.6850  -27.9370   24.0350 H   0  0  0  0  0  0  0  0  0  0  0  0
  -28.9240  -28.0250   22.6000 H   0  0  0  0  0  0  0  0  0  0  0  0
  -28.3030  -26.4530   23.7910 C   0  0  0  0  0  2  0  0  0  0  0  0
  -27.0890  -27.2540   24.3570 C   0  0  0  0  0  2  0  0  0  0  0  0
  -26.0170  -26.6510   25.3330 C   0  0  0  0  0  2  0  0  0  0  0  0
  -24.7480  -27.4540   25.3160 N   0  0  0  0  0  4  0  0  0  0  0  0
  -24.9700  -28.4090   25.0580 H   0  0  0  0  0  0  0  0  0  0  0  0
  -24.1380  -27.1850   24.5590 H   0  0  0  0  0  0  0  0  0  0  0  0
  -23.9740  -27.7790   26.5580 C   0  0  0  0  0  2  0  0  0  0  0  0
  -23.4090  -29.2100   26.3400 C   0  0  0  0  0  0  0  0  0  0  0  0
  -22.4000  -29.7970   27.0350 N   0  0  0  0  0  0  0  0  0  0  0  0
  -23.9800  -29.8170   25.4530 O   0  0  0  0  0  0  0  0  0  0  0  0
  -21.9220  -29.2350   27.7290 H   0  0  0  0  0  0  0  0  0  0  0  0
  -21.9290  -31.2330   26.9160 C   0  0  0  0  0  2  0  0  0  0  0  0
  -21.5660  -31.7680   25.4910 C   0  0  0  0  0  0  0  0  0  0  0  0
  -21.3570  -33.0870   25.2020 N   0  0  0  0  0  0  0  0  0  0  0  0
  -21.5300  -30.9270   24.6260 O   0  0  0  0  0  0  0  0  0  0  0  0
  -21.3870  -33.6800   26.0190 H   0  0  0  0  0  0  0  0  0  0  0  0
  -21.1160  -33.8780   23.9170 C   0  0  0  0  0  2  0  0  0  0  0  0
  -21.4420  -33.3770   22.4510 C   0  0  0  0  0  0  0  0  0  0  0  0
  -22.4170  -33.9610   21.6720 N   0  0  0  0  0  0  0  0  0  0  0  0
  -20.7560  -32.4580   22.0000 O   0  0  0  0  0  0  0  0  0  0  0  0
  -22.9030  -34.7460   22.0780 H   0  0  0  0  0  0  0  0  0  0  0  0
  -23.0560  -33.3510   20.4470 C   0  0  0  0  0  2  0  0  0  0  0  0
  -23.8870  -34.1590   19.4030 C   0  0  0  0  0  0  0  0  0  0  0  0
  -24.9500  -33.6400   18.6920 N   0  0  0  0  0  0  0  0  0  0  0  0
  -23.5470  -35.3190   19.1730 O   0  0  0  0  0  0  0  0  0  0  0  0
  -25.3620  -34.3330   18.0820 H   0  0  0  0  0  0  0  0  0  0  0  0
  -25.7740  -32.3850   18.7810 C   0  0  0  0  0  2  0  0  0  0  0  0
  -26.2700  -31.6260   17.4730 C   0  0  0  0  0  3  0  0  0  0  0  0
  -25.1320  -31.6090   16.5280 N   0  0  0  0  0  4  0  0  0  0  0  0
  -25.1720  -30.7680   15.9790 H   0  0  0  0  0  0  0  0  0  0  0  0
  -24.2670  -31.5730   17.0530 H   0  0  0  0  0  0  0  0  0  0  0  0
  -24.9550  -32.7690   15.6260 C   0  0  0  0  0  2  0  0  0  0  0  0
  -23.4710  -32.8480   15.2570 C   0  0  0  0  0  2  0  0  0  0  0  0
  -21.3380  -32.4280   16.2210 C   0  0  0  0  0  1  0  0  0  0  0  0
  -22.7310  -32.5810   16.4530 O   0  0  0  0  0  0  0  0  0  0  0  0
  -26.8120  -30.1060   17.6010 C   0  0  0  0  0  3  0  0  0  0  0  0
  -28.2190  -29.6710   18.1980 C   0  0  0  0  0  3  0  0  0  0  0  0
  -28.5830  -28.0920   18.2740 C   0  0  0  0  0  2  0  0  0  0  0  0
  -28.4380  -27.2590   19.4900 O   0  0  0  0  0  0  0  0  0  0  0  0
  -24.7090  -31.8610   23.2460 C   0  0  0  0  0  0  0  0  0  0  0  0
  -27.2290  -27.5320   20.0130 C   0  0  0  0  0  0  0  0  0  0  0  0
  -23.4160  -30.4060   21.6300 C   0  0  0  0  0  3  0  0  0  0  0  0
  -24.8190  -28.8970   20.1900 C   0  0  0  0  0  0  0  0  0  0  0  0
  -25.9640  -30.6760   21.5860 C   0  0  0  0  0  2  0  0  0  0  0  0
  -25.9690  -29.3880   20.8370 C   0  0  0  0  0  0  0  0  0  0  0  0
  -27.1650  -28.6820   20.7940 C   0  0  0  0  0  3  0  0  0  0  0  0
  -26.0700  -26.9430   19.4750 C   0  0  0  0  0  3  0  0  0  0  0  0
  -24.8530  -27.6410   19.5520 C   0  0  0  0  0  3  0  0  0  0  0  0
  -23.5820  -29.7460   20.2390 C   0  0  0  0  0  2  0  0  0  0  0  0
  -24.6930  -30.9870   22.2050 N   0  0  0  0  0  0  0  0  0  0  0  0
  -23.6750  -32.2570   23.7190 O   0  0  0  0  0  0  0  0  0  0  0  0
  -22.7380  -29.3520   22.4890 C   0  0  0  0  0  0  0  0  0  0  0  0
  -21.4020  -29.2490   22.3670 N   0  0  0  0  0  0  0  0  0  0  0  0
  -23.4150  -28.5820   23.1680 O   0  0  0  0  0  0  0  0  0  0  0  0
  -20.9330  -29.9610   21.8280 H   0  0  0  0  0  0  0  0  0  0  0  0
  -17.9730  -28.0820   22.8580 C   0  0  0  0  0  0  0  0  0  0  0  0
  -20.5390  -28.3430   23.1180 C   0  0  0  0  0  3  0  0  0  0  0  0
  -20.6390  -26.9020   22.5640 C   0  0  0  0  0  2  0  0  0  0  0  0
  -19.5440  -26.5930   21.5370 C   0  0  0  0  0  2  0  0  0  0  0  0
  -18.1610  -26.7340   22.1790 C   0  0  0  0  0  2  0  0  0  0  0  0
  -19.0900  -28.8670   23.2430 C   0  0  0  0  0  0  0  0  0  0  0  0
  -18.8180  -30.1660   23.7300 C   0  0  0  0  0  3  0  0  0  0  0  0
  -17.5270  -30.6460   23.9600 C   0  0  0  0  0  3  0  0  0  0  0  0
  -16.4360  -29.8370   23.6240 C   0  0  0  0  0  3  0  0  0  0  0  0
  -16.6610  -28.5660   23.0590 C   0  0  0  0  0  3  0  0  0  0  0  0
  -25.9920  -32.5040   23.8590 C   0  0  0  0  0  3  0  0  0  0  0  0
  -26.5400  -31.7960   25.1500 C   0  0  1  0  0  0  0  0  0  0  0  0
  -25.5730  -31.7890   26.3550 C   0  0  0  0  0  1  0  0  0  0  0  0
  -27.0110  -30.3830   24.8310 C   0  0  0  0  0  1  0  0  0  0  0  0
  -27.8080  -32.5130   25.6550 C   0  0  0  0  0  1  0  0  0  0  0  0
  -25.6670  -33.8860   24.2170 N   0  0  0  0  0  0  0  0  0  0  0  0
  -25.9380  -34.9580   23.4720 C   0  0  0  0  0  0  0  0  0  0  0  0
  -26.5710  -34.8950   22.4170 O   0  0  0  0  0  0  0  0  0  0  0  0
  -25.1350  -34.0160   25.0670 H   0  0  0  0  0  0  0  0  0  0  0  0
  -24.1740  -36.7390   23.2440 C   0  0  0  0  0  1  0  0  0  0  0  0
  -25.4390  -36.3100   23.9990 C   0  0  0  0  0  3  0  0  0  0  0  0
  -27.5510  -37.1740   24.8950 C   0  0  0  0  0  1  0  0  0  0  0  0
  -26.4680  -37.3720   23.9370 N   0  0  0  0  0  0  0  0  0  0  0  0
  -26.0610  -38.2840   24.1250 H   0  0  0  0  0  0  0  0  0  0  0  0
  -33.3230  -33.3620   21.3780 C   0  0  0  0  0  2  0  0  0  0  0  0
  -33.1710  -34.2470   22.6410 C   0  0  0  0  0  2  0  0  0  0  0  0
  -31.8310  -34.1040   23.2750 N   0  0  0  0  0  4  0  0  0  0  0  0
  -31.4530  -35.0410   23.3340 H   0  0  0  0  0  0  0  0  0  0  0  0
  -31.2160  -33.5970   22.6600 H   0  0  0  0  0  0  0  0  0  0  0  0
  -31.7570  -33.5270   24.6480 C   0  0  0  0  0  2  0  0  0  0  0  0
  -31.9530  -31.9880   24.7300 C   0  0  0  0  0  2  0  0  0  0  0  0
  -31.6400  -31.4470   26.1600 C   0  0  0  0  0  2  0  0  0  0  0  0
  -32.2620  -30.1330   26.4840 N   0  0  0  0  0  4  0  0  0  0  0  0
  -32.8430  -29.8370   25.7180 H   0  0  0  0  0  0  0  0  0  0  0  0
  -32.8890  -30.3070   27.2510 H   0  0  0  0  0  0  0  0  0  0  0  0
  -31.3300  -29.0520   26.9170 C   0  0  0  0  0  2  0  0  0  0  0  0
  -32.0240  -27.6590   27.0710 C   0  0  0  0  0  2  0  0  0  0  0  0
  -31.0560  -26.4470   27.2210 C   0  0  0  0  0  2  0  0  0  0  0  0
  -31.7370  -25.1210   27.2190 N   0  0  0  0  0  4  0  0  0  0  0  0
  -32.5590  -25.1250   26.6340 H   0  0  0  0  0  0  0  0  0  0  0  0
  -32.0910  -24.9750   28.1530 H   0  0  0  0  0  0  0  0  0  0  0  0
  -30.8710  -23.9450   26.9070 C   0  0  0  0  0  2  0  0  0  0  0  0
  -30.7620  -23.5820   25.4010 C   0  0  0  0  0  2  0  0  0  0  0  0
  -29.7410  -22.4450   25.1060 C   0  0  0  0  0  2  0  0  0  0  0  0
  -29.4250  -22.2780   23.6630 N   0  0  0  0  0  4  0  0  0  0  0  0
  -28.6060  -21.6930   23.6080 H   0  0  0  0  0  0  0  0  0  0  0  0
  -29.1520  -23.1610   23.2600 H   0  0  0  0  0  0  0  0  0  0  0  0
  -30.4700  -21.6300   22.8280 C   0  0  0  0  0  2  0  0  0  0  0  0
  -30.2500  -21.9080   21.3240 C   0  0  0  0  0  2  0  0  0  0  0  0
  -30.7530  -23.3140   20.9300 C   0  0  0  0  0  2  0  0  0  0  0  0
  -30.6430  -23.6730   19.4280 C   0  0  0  0  0  2  0  0  0  0  0  0
  -31.6370  -23.0020   18.5490 N   0  0  0  0  0  4  0  0  0  0  0  0
  -31.5090  -23.4050   17.6330 H   0  0  0  0  0  0  0  0  0  0  0  0
  -31.4330  -22.0190   18.4450 H   0  0  0  0  0  0  0  0  0  0  0  0
  -33.0630  -23.1950   18.9210 C   0  0  0  0  0  2  0  0  0  0  0  0
  -33.6280  -21.9840   19.7060 C   0  0  0  0  0  2  0  0  0  0  0  0
  -34.8820  -22.2370   20.5760 C   0  0  0  0  0  2  0  0  0  0  0  0
  -35.2830  -21.0280   21.3530 N   0  0  0  0  0  4  0  0  0  0  0  0
  -34.4730  -20.4710   21.5840 H   0  0  0  0  0  0  0  0  0  0  0  0
  -35.8840  -20.4450   20.7850 H   0  0  0  0  0  0  0  0  0  0  0  0
  -36.0080  -21.2940   22.6180 C   0  0  0  0  0  2  0  0  0  0  0  0
  -35.1450  -21.0150   23.8700 C   0  0  0  0  0  2  0  0  0  0  0  0
  -34.7650  -19.5400   24.1550 C   0  0  0  0  0  2  0  0  0  0  0  0
  -33.5510  -18.9930   23.3770 C   0  0  0  0  0  2  0  0  0  0  0  0
  -33.5770  -18.1940   20.9800 C   0  0  0  0  0  0  0  0  0  0  0  0
  -33.9720  -18.1560   22.2580 N   0  0  0  0  0  0  0  0  0  0  0  0
  -32.8280  -19.0740   20.5590 O   0  0  0  0  0  0  0  0  0  0  0  0
  -34.5900  -17.3900   22.4780 H   0  0  0  0  0  0  0  0  0  0  0  0
  -34.1390  -17.1180   20.0270 C   0  0  0  0  0  2  0  0  0  0  0  0
  -36.2230  -16.1830   21.0520 C   0  0  0  0  0  0  0  0  0  0  0  0
  -34.9330  -16.0810   20.7030 N   0  0  0  0  0  0  0  0  0  0  0  0
  -36.8990  -17.1770   20.7820 O   0  0  0  0  0  0  0  0  0  0  0  0
  -34.4580  -15.2250   20.9690 H   0  0  0  0  0  0  0  0  0  0  0  0
  -36.8190  -15.0320   21.8840 C   0  0  0  0  0  2  0  0  0  0  0  0
  -35.7920  -14.3000   22.5620 O   0  0  0  0  0  0  0  0  0  0  0  0
  -35.2460  -14.9870   23.6840 C   0  0  0  0  0  2  0  0  0  0  0  0
  -34.0780  -14.1860   24.2730 C   0  0  0  0  0  2  0  0  0  0  0  0
  -32.9520  -13.8160   23.2850 C   0  0  0  0  0  2  0  0  0  0  0  0
  -32.0050  -14.9700   22.8910 C   0  0  0  0  0  2  0  0  0  0  0  0
  -30.8780  -14.2190   20.7960 C   0  0  0  0  0  0  0  0  0  0  0  0
  -30.4020  -12.2800   19.3620 C   0  0  0  0  0  2  0  0  0  0  0  0
  -29.4750  -12.5530   18.1720 C   0  0  0  0  0  2  0  0  0  0  0  0
  -28.0110  -12.3700   18.6020 C   0  0  0  0  0  2  0  0  0  0  0  0
  -27.6650  -13.2020   19.8640 C   0  0  0  0  0  3  0  0  0  0  0  0
  -28.7010  -12.9760   20.9890 C   0  0  0  0  0  2  0  0  0  0  0  0
  -30.0570  -13.1960   20.4550 N   0  0  0  0  0  0  0  0  0  0  0  0
  -31.7540  -14.6750   20.0610 O   0  0  0  0  0  0  0  0  0  0  0  0
  -30.8750  -14.4570   22.1150 N   0  0  0  0  0  0  0  0  0  0  0  0
  -30.1340  -14.0140   22.6390 H   0  0  0  0  0  0  0  0  0  0  0  0
  -25.2610  -13.8110   20.5620 C   0  0  0  0  0  0  0  0  0  0  0  0
  -24.1890  -13.0440   20.9100 C   0  0  0  0  0  0  0  0  0  0  0  0
  -24.6420  -11.6870   20.8680 C   0  0  0  0  0  0  0  0  0  0  0  0
  -26.3060  -12.9310   20.3280 N   0  0  0  0  0  0  0  0  0  0  0  0
  -25.9340  -11.6470   20.5680 N   0  0  0  0  0  0  0  0  0  0  0  0
  -23.9080  -10.4280   21.0380 C   0  0  0  0  0  0  0  0  0  0  0  0
  -24.3630   -9.4190   21.9170 C   0  0  0  0  0  3  0  0  0  0  0  0
  -23.6290   -8.2250   22.0770 C   0  0  0  0  0  3  0  0  0  0  0  0
  -22.4270   -8.0270   21.3560 C   0  0  0  0  0  0  0  0  0  0  0  0
  -21.9900   -9.0250   20.4660 C   0  0  0  0  0  3  0  0  0  0  0  0
  -22.7240  -10.2110   20.3050 C   0  0  0  0  0  3  0  0  0  0  0  0
  -21.6640   -6.8880   21.4250 O   0  0  0  0  0  0  0  0  0  0  0  0
  -21.6850   -6.0730   22.5280 C   0  0  0  0  0  0  0  0  0  0  0  0
  -21.4020   -6.5640   23.8210 C   0  0  0  0  0  3  0  0  0  0  0  0
  -21.3660   -5.6790   24.9180 C   0  0  0  0  0  3  0  0  0  0  0  0
  -21.6040   -4.3060   24.7230 C   0  0  0  0  0  0  0  0  0  0  0  0
  -21.8820   -3.8140   23.4350 C   0  0  0  0  0  3  0  0  0  0  0  0
  -21.9190   -4.6960   22.3410 C   0  0  0  0  0  0  0  0  0  0  0  0
  -22.1660   -4.2140   21.0980 F   0  0  0  0  0  0  0  0  0  0  0  0
  -21.5630   -3.4550   25.7740 F   0  0  0  0  0  0  0  0  0  0  0  0
  -22.7900  -13.5220   21.1790 C   0  0  0  0  0  0  0  0  0  0  0  0
  -22.0550  -12.8250   22.0330 N   0  0  0  0  0  0  0  0  0  0  0  0
  -22.3590  -14.5550   20.6620 O   0  0  0  0  0  0  0  0  0  0  0  0
  -22.4170  -11.9920   22.4750 H   0  0  0  0  0  0  0  0  0  0  0  0
  -21.1160  -13.1270   22.2510 H   0  0  0  0  0  0  0  0  0  0  0  0
  -25.4330  -15.1870   20.4070 N   0  0  0  0  0  0  0  0  0  0  0  0
  -24.6620  -15.8360   20.5130 H   0  0  0  0  0  0  0  0  0  0  0  0
  -26.2940  -15.6350   20.1220 H   0  0  0  0  0  0  0  0  0  0  0  0
  1 96  1  0
  1  2  1  0
  2  4  1  0
  3  2  1  0
  5  6  1  0
  5  2  1  0
  7  6  1  0
  7  8  1  0
  8 10  1  0
  9  8  1  0
 11  8  1  0
 11 12  1  0
 12 13  1  0
 13 14  1  0
 14 17  1  0
 14 15  1  0
 16 14  1  0
 17 18  1  0
 18 19  1  0
 20 19  1  0
 20 23  1  0
 21 20  1  0
 22 20  1  0
 24 23  1  0
 24 25  1  0
 25 27  1  0
 26 24  2  0
 28 25  1  0
 29 28  1  0
 30 29  1  0
 30 32  1  0
 31 29  2  0
 33 30  1  0
 34 33  1  0
 35 37  1  0
 35 34  1  0
 36 34  2  0
 38 35  1  0
 39 38  1  0
 40 43  1  0
 40 39  1  0
 41 39  2  0
 42 40  1  0
 44 52  1  0
 44 43  1  0
 45 47  1  0
 45 44  1  0
 46 45  1  0
 48 45  1  0
 49 48  1  0
 49 51  1  0
 50 51  1  0
 52 53  2  0
 53 54  1  0
 54 55  1  0
 55 57  1  0
 56 67  2  0
 57 62  1  0
 58 66  1  0
 58 68  1  0
 59 65  1  0
 59 61  1  0
 60 66  1  0
 61 60  1  0
 62 61  2  0
 63 64  1  0
 63 57  2  0
 64 59  2  0
 65 58  1  0
 66 56  1  0
 68 70  2  0
 69 68  1  0
 71 69  1  0
 72 81  2  0
 72 77  1  0
 73 69  1  0
 73 77  1  0
 74 73  1  0
 75 76  1  0
 75 74  1  0
 76 72  1  0
 77 78  2  0
 78 79  1  0
 80 79  2  0
 81 80  1  0
 82 56  1  0
 82 87  1  0
 82 83  1  0
 83 86  1  1
 83 84  1  0
 85 83  1  0
 87 90  1  0
 88 92  1  0
 88 87  1  0
 89 88  2  0
 92 91  1  0
 94 92  1  0
 94 95  1  0
 94 93  1  0
 96 97  1  0
 97 98  1  0
 98 99  1  0
 98101  1  0
100 98  1  0
101102  1  0
102103  1  0
103104  1  0
104107  1  0
104106  1  0
105104  1  0
107108  1  0
108109  1  0
110109  1  0
110112  1  0
111110  1  0
113110  1  0
114113  1  0
115114  1  0
116115  1  0
117116  1  0
118116  1  0
119116  1  0
120119  1  0
121120  1  0
122121  1  0
123126  1  0
123122  1  0
124123  1  0
125123  1  0
126127  1  0
127128  1  0
128129  1  0
129130  1  0
129132  1  0
131129  1  0
132133  1  0
133134  1  0
135134  1  0
136137  1  0
137139  1  0
137135  1  0
138136  2  0
140142  1  0
140136  1  0
141145  1  0
142144  1  0
142141  1  0
143141  2  0
145146  1  0
146147  1  0
147148  1  0
149148  1  0
150149  1  0
151159  1  0
152157  1  0
153154  1  0
153152  1  0
155154  1  0
155164  1  0
155156  1  0
157151  1  0
157156  1  0
158151  2  0
159160  1  0
159150  1  0
161162  2  0
162181  1  0
163162  1  0
163166  1  0
164161  1  0
164165  1  0
165163  2  0
166167  1  0
167168  2  0
169172  1  0
169168  1  0
170169  2  0
171170  1  0
171166  2  0
172173  1  0
173174  1  0
174175  2  0
176175  1  0
176180  1  0
177176  2  0
178173  2  0
178177  1  0
179178  1  0
181182  1  0
182185  1  0
182184  1  0
183181  2  0
186187  1  0
186161  1  0
188186  1  0
M  ISO  4  54 101  55 101 151 100 159 100
M  END
>  <TORSDO>  (59) 
F 83

>  <SCORE>  (59) 
79.232

>  <name>  (59) 
67

>  <ligand_id>  (59) 
67

>  <original_smiles>  (59) 
[H]c1c([H])c([H])c2c(c1[H])C([H])([H])C([H])([H])C([H])([H])C2([H])N([H])C(=O)C1([H])N(C(=O)C([H])(N([H])C(=O)C([H])(N([H])C([H])([H])[H])C([H])([H])[H])C(C([H])([H])[H])(C([H])([H])[H])C([H])([H])[H])C([H])([H])c2c([H])c(OC([H])([H])C([H])([H])C([H])([H])C([H])(C([H])([H])N([H])C(=O)C([H])([H])N([H])C(=O)C([H])([H])N([H])C(=O)C([H])([H])N([H])C(=O)C([H])([H])[N+]([H])([H])C([H])([H])C([H])([H])C([H])([H])[N+]([H])([H])C([H])([H])C([H])([H])C([H])([H])[N+]([H])([H])C([H])([H])C([H])([H])C([H])([H])[N+]([H])([H])C([H])([H])C([H])([H])C([H])([H])[N+]([H])([H])C([H])([H])C([H])([H])C([H])([H])[N+]([H])([H])C([H])([H])C([H])([H])C([H])([H])[N+]([H])([H])C([H])([H])C([H])([H])C([H])([H])[N+]([H])([H])C([H])([H])C([H])([H])C([H])([H])C([H])([H])[N+]([H])([H])C([H])([H])C([H])([H])C([H])([H])[N+]([H])([H])C([H])([H])C([H])([H])C([H])([H])C([H])([H])N([H])C(=O)C([H])([H])N([H])C(=O)C([H])([H])OC([H])([H])C([H])([H])C([H])([H])C([H])([H])N([H])C(=O)N3C([H])([H])C([H])([H])C([H])([H])C([H])(n4nc(-c5c([H])c([H])c(Oc6c([H])c([H])c(F)c([H])c6F)c([H])c5[H])c(C(=O)N([H])[H])c4N([H])[H])C3([H])[H])[N+]([H])([H])C([H])([H])C([H])([H])OC([H])([H])[H])c([H])c([H])c2C1([H])[H]

>  <smiles>  (59) 
[H]c1c([H])c([H])c2c(c1[H])C([H])([H])C([H])([H])C([H])([H])C2([H])N([H])C(=O)C1([H])N(C(=O)C([H])(N([H])C(=O)C([H])(N([H])C([H])([H])[H])C([H])([H])[H])C(C([H])([H])[H])(C([H])([H])[H])C([H])([H])[H])C([H])([H])c2c([H])c(OC([H])([H])C([H])([H])C([H])([H])C([H])(C([H])([H])N([H])C(=O)C([H])([H])N([H])C(=O)C([H])([H])N([H])C(=O)C([H])([H])N([H])C(=O)C([H])([H])[N+]([H])([H])C([H])([H])C([H])([H])C([H])([H])[N+]([H])([H])C([H])([H])C([H])([H])C([H])([H])[N+]([H])([H])C([H])([H])C([H])([H])C([H])([H])[N+]([H])([H])C([H])([H])C([H])([H])C([H])([H])[N+]([H])([H])C([H])([H])C([H])([H])C([H])([H])[N+]([H])([H])C([H])([H])C([H])([H])C([H])([H])[N+]([H])([H])C([H])([H])C([H])([H])C([H])([H])[N+]([H])([H])C([H])([H])C([H])([H])C([H])([H])C([H])([H])[N+]([H])([H])C([H])([H])C([H])([H])C([H])([H])[N+]([H])([H])C([H])([H])C([H])([H])C([H])([H])C([H])([H])N([H])C(=O)C([H])([H])N([H])C(=O)C([H])([H])OC([H])([H])C([H])([H])C([H])([H])C([H])([H])N([H])C(=O)N3C([H])([H])C([H])([H])C([H])([H])C([H])(n4nc(-c5c([H])c([H])c(Oc6c([H])c([H])c(F)c([H])c6F)c([H])c5[H])c(C(=O)N([H])[H])c4N([H])[H])C3([H])[H])[N+]([H])([H])C([H])([H])C([H])([H])OC([H])([H])[H])c([H])c([H])c2C1([H])[H]

$$$$
68:0:0
     RDKit          3D

112116  0  0  1  0  0  0  0  0999 V2000
  -19.4430  -15.4860   20.1650 C   0  0  0  0  0  0  0  0  0  0  0  0
  -18.7420  -16.5690   20.5140 N   0  0  0  0  0  0  0  0  0  0  0  0
  -19.5940  -14.5100   20.9180 O   0  0  0  0  0  0  0  0  0  0  0  0
  -18.7310  -17.3330   19.8540 H   0  0  0  0  0  0  0  0  0  0  0  0
  -17.9890  -16.8380   21.7410 C   0  0  0  0  0  2  0  0  0  0  0  0
  -18.1770  -18.3110   22.1650 C   0  0  0  0  0  0  0  0  0  0  0  0
  -17.6240  -18.7250   23.3280 N   0  0  0  0  0  0  0  0  0  0  0  0
  -18.7980  -19.0550   21.3960 O   0  0  0  0  0  0  0  0  0  0  0  0
  -17.1370  -18.0180   23.8730 H   0  0  0  0  0  0  0  0  0  0  0  0
  -17.7460  -20.0210   24.0290 C   0  0  0  0  0  2  0  0  0  0  0  0
  -18.3530  -21.1660   23.1870 C   0  0  0  0  0  2  0  0  0  0  0  0
  -17.9880  -22.5980   23.6140 C   0  0  0  0  0  2  0  0  0  0  0  0
  -18.6450  -23.6520   22.7040 C   0  0  0  0  0  2  0  0  0  0  0  0
  -17.8400  -24.9570   22.6340 C   0  0  0  0  0  2  0  0  0  0  0  0
  -18.3910  -25.8560   21.5120 C   0  0  0  0  0  2  0  0  0  0  0  0
  -17.3110  -26.7040   20.8490 C   0  0  0  0  0  2  0  0  0  0  0  0
  -17.6060  -27.0110   19.3710 C   0  0  0  0  0  2  0  0  0  0  0  0
  -16.4300  -26.8540   18.6040 O   0  0  0  0  0  0  0  0  0  0  0  0
   -9.7020  -24.7700   18.5230 C   0  0  0  0  0  0  0  0  0  0  0  0
  -15.5860  -25.8190   18.9130 C   0  0  0  0  0  0  0  0  0  0  0  0
  -11.2280  -23.2850   19.7720 C   0  0  0  0  0  3  0  0  0  0  0  0
  -13.7220  -23.7740   19.4690 C   0  0  0  0  0  0  0  0  0  0  0  0
  -12.0800  -24.6950   17.8220 C   0  0  0  0  0  2  0  0  0  0  0  0
  -13.4200  -24.7630   18.5180 C   0  0  0  0  0  0  0  0  0  0  0  0
  -14.3470  -25.7860   18.2460 C   0  0  0  0  0  3  0  0  0  0  0  0
  -15.8850  -24.8080   19.8590 C   0  0  0  0  0  3  0  0  0  0  0  0
  -14.9520  -23.7980   20.1460 C   0  0  0  0  0  3  0  0  0  0  0  0
  -12.6720  -22.7170   19.7250 C   0  0  0  0  0  2  0  0  0  0  0  0
  -10.9670  -24.3070   18.7100 N   0  0  0  0  0  0  0  0  0  0  0  0
   -8.7540  -24.3210   19.1730 O   0  0  0  0  0  0  0  0  0  0  0  0
  -10.9910  -23.8130   21.1950 C   0  0  0  0  0  0  0  0  0  0  0  0
  -10.6410  -22.9040   22.1150 N   0  0  0  0  0  0  0  0  0  0  0  0
  -11.1530  -25.0070   21.4630 O   0  0  0  0  0  0  0  0  0  0  0  0
  -10.5570  -21.9470   21.8150 H   0  0  0  0  0  0  0  0  0  0  0  0
   -9.7040  -21.3010   25.2030 C   0  0  0  0  0  0  0  0  0  0  0  0
  -10.4020  -23.1460   23.5320 C   0  0  0  0  0  3  0  0  0  0  0  0
  -11.7420  -23.2080   24.3080 C   0  0  0  0  0  2  0  0  0  0  0  0
  -12.1520  -21.8600   24.9060 C   0  0  0  0  0  2  0  0  0  0  0  0
  -11.0740  -21.3330   25.8540 C   0  0  0  0  0  2  0  0  0  0  0  0
   -9.3920  -22.1410   24.1000 C   0  0  0  0  0  0  0  0  0  0  0  0
   -8.1180  -22.0330   23.4960 C   0  0  0  0  0  3  0  0  0  0  0  0
   -7.1600  -21.1290   23.9940 C   0  0  0  0  0  3  0  0  0  0  0  0
   -7.4690  -20.3140   25.0990 C   0  0  0  0  0  3  0  0  0  0  0  0
   -8.7410  -20.3990   25.6960 C   0  0  0  0  0  3  0  0  0  0  0  0
   -9.3850  -25.8660   17.4590 C   0  0  0  0  0  3  0  0  0  0  0  0
   -8.9990  -27.2560   18.1000 C   0  0  1  0  0  0  0  0  0  0  0  0
   -7.8980  -27.1420   19.1830 C   0  0  0  0  0  1  0  0  0  0  0  0
  -10.2430  -27.9170   18.7400 C   0  0  0  0  0  1  0  0  0  0  0  0
   -8.5070  -28.2250   16.9990 C   0  0  0  0  0  1  0  0  0  0  0  0
   -8.2920  -25.3600   16.6170 N   0  0  0  0  0  0  0  0  0  0  0  0
   -8.4690  -24.7150   15.4560 C   0  0  0  0  0  0  0  0  0  0  0  0
   -9.5800  -24.5470   14.9410 O   0  0  0  0  0  0  0  0  0  0  0  0
   -7.3660  -25.3960   17.0160 H   0  0  0  0  0  0  0  0  0  0  0  0
   -7.0840  -22.6630   15.0400 C   0  0  0  0  0  1  0  0  0  0  0  0
   -7.2130  -24.1670   14.7540 C   0  0  0  0  0  3  0  0  0  0  0  0
   -7.3610  -25.8170   12.9430 C   0  0  0  0  0  1  0  0  0  0  0  0
   -7.2120  -24.4070   13.2920 N   0  0  0  0  0  0  0  0  0  0  0  0
   -6.3540  -24.0640   12.8710 H   0  0  0  0  0  0  0  0  0  0  0  0
  -19.9600  -15.4890   18.7130 C   0  0  0  0  0  2  0  0  0  0  0  0
  -21.9990  -14.2830   17.9660 C   0  0  0  0  0  0  0  0  0  0  0  0
  -20.7080  -14.2840   18.3510 N   0  0  0  0  0  0  0  0  0  0  0  0
  -22.7040  -15.2920   18.0380 O   0  0  0  0  0  0  0  0  0  0  0  0
  -20.1750  -13.4270   18.4310 H   0  0  0  0  0  0  0  0  0  0  0  0
  -22.6420  -13.0230   17.3540 C   0  0  0  0  0  2  0  0  0  0  0  0
  -24.8850  -11.8700   17.4530 C   0  0  0  0  0  0  0  0  0  0  0  0
  -24.0800  -12.9250   17.6990 N   0  0  0  0  0  0  0  0  0  0  0  0
  -24.4220  -10.8230   17.0110 O   0  0  0  0  0  0  0  0  0  0  0  0
  -24.4940  -13.7760   18.0610 H   0  0  0  0  0  0  0  0  0  0  0  0
  -26.4060  -12.0160   17.6870 C   0  0  0  0  0  2  0  0  0  0  0  0
  -27.9950  -10.3590   18.9730 C   0  0  0  0  0  0  0  0  0  0  0  0
  -26.9130  -11.1490   18.7870 N   0  0  0  0  0  0  0  0  0  0  0  0
  -28.6190   -9.8580   18.0400 O   0  0  0  0  0  0  0  0  0  0  0  0
  -26.5890  -11.4650   19.7000 H   0  0  0  0  0  0  0  0  0  0  0  0
  -28.4100  -10.0630   20.4730 C   0  0  0  0  0  2  0  0  0  0  0  0
  -29.9420  -12.1760   22.1170 C   0  0  2  0  0  0  0  0  0  0  0  0
  -31.2560  -12.0290   21.2110 C   0  0  0  0  0  1  0  0  0  0  0  0
  -30.1520  -12.7770   19.8550 C   0  0  0  0  0  1  0  0  0  0  0  0
  -28.4390  -13.0910   20.2270 C   0  0  0  0  0  2  0  0  0  0  0  0
  -27.6630  -12.7570   21.7810 C   0  0  0  0  0  2  0  0  0  0  0  0
  -28.6900  -11.9860   23.1470 C   0  0  0  0  0  1  0  0  0  0  0  0
  -30.4200  -11.6420   22.7760 N   0  0  0  0  0  1  0  0  0  0  0  0
  -30.1280  -13.5270   22.3570 O   0  0  0  0  0  1  0  0  0  0  0  0
  -29.3930  -10.8000   21.3570 N   0  0  0  0  0  2  0  0  0  0  0  0
  -30.0850  -10.0870   21.6210 H   0  0  0  0  0  0  0  0  0  0  0  0
  -25.1090  -13.0780   21.8440 C   0  0  0  0  0  0  0  0  0  0  0  0
  -24.0400  -12.2240   21.7920 C   0  0  0  0  0  0  0  0  0  0  0  0
  -24.5680  -10.9230   21.5760 C   0  0  0  0  0  0  0  0  0  0  0  0
  -26.2460  -12.3100   21.7250 N   0  0  0  0  0  0  0  0  0  0  0  0
  -25.8850  -11.0100   21.6050 N   0  0  0  0  0  0  0  0  0  0  0  0
  -23.8900   -9.6320   21.3010 C   0  0  0  0  0  0  0  0  0  0  0  0
  -24.3100   -8.3830   21.8000 C   0  0  0  0  0  3  0  0  0  0  0  0
  -23.5580   -7.2140   21.5170 C   0  0  0  0  0  3  0  0  0  0  0  0
  -22.3860   -7.2650   20.7270 C   0  0  0  0  0  0  0  0  0  0  0  0
  -21.9980   -8.5020   20.1890 C   0  0  0  0  0  3  0  0  0  0  0  0
  -22.7500   -9.6490   20.4920 C   0  0  0  0  0  3  0  0  0  0  0  0
  -21.6310   -6.1610   20.4020 O   0  0  0  0  0  0  0  0  0  0  0  0
  -21.7940   -4.9580   21.0520 C   0  0  0  0  0  0  0  0  0  0  0  0
  -21.6000   -4.8430   22.4460 C   0  0  0  0  0  3  0  0  0  0  0  0
  -21.6900   -3.5900   23.0770 C   0  0  0  0  0  3  0  0  0  0  0  0
  -21.9750   -2.4370   22.3200 C   0  0  0  0  0  0  0  0  0  0  0  0
  -22.1590   -2.5410   20.9250 C   0  0  0  0  0  3  0  0  0  0  0  0
  -22.0590   -3.7970   20.2950 C   0  0  0  0  0  0  0  0  0  0  0  0
  -22.1990   -3.8840   18.9540 F   0  0  0  0  0  0  0  0  0  0  0  0
  -22.0620   -1.2280   22.9240 F   0  0  0  0  0  0  0  0  0  0  0  0
  -22.6070  -12.6130   21.8330 C   0  0  0  0  0  0  0  0  0  0  0  0
  -21.7740  -11.6670   22.2560 N   0  0  0  0  0  0  0  0  0  0  0  0
  -22.2330  -13.7230   21.4960 O   0  0  0  0  0  0  0  0  0  0  0  0
  -22.1770  -10.7700   22.4840 H   0  0  0  0  0  0  0  0  0  0  0  0
  -20.7760  -11.7660   22.1910 H   0  0  0  0  0  0  0  0  0  0  0  0
  -25.1900  -14.4480   22.0060 N   0  0  0  0  0  0  0  0  0  0  0  0
  -24.3310  -14.9860   22.0900 H   0  0  0  0  0  0  0  0  0  0  0  0
  -26.0250  -15.0240   22.0550 H   0  0  0  0  0  0  0  0  0  0  0  0
  1  2  1  0
  1  3  2  0
  2  5  1  0
  4  2  1  0
  5  6  1  0
  6  7  1  0
  7  9  1  0
  7 10  1  0
  8  6  2  0
 11 12  1  0
 11 10  1  0
 13 12  1  0
 14 13  1  0
 15 14  1  0
 16 15  1  0
 17 16  1  0
 18 20  1  0
 18 17  1  0
 19 29  1  0
 19 30  2  0
 20 26  1  0
 21 31  1  0
 22 28  1  0
 22 27  1  0
 23 24  1  0
 23 29  1  0
 24 22  2  0
 25 24  1  0
 25 20  2  0
 26 27  2  0
 28 21  1  0
 29 21  1  0
 31 33  2  0
 31 32  1  0
 34 32  1  0
 35 44  1  0
 35 39  1  0
 36 32  1  0
 36 40  1  0
 36 37  1  0
 37 38  1  0
 38 39  1  0
 40 35  2  0
 41 42  2  0
 41 40  1  0
 42 43  1  0
 43 44  2  0
 45 46  1  0
 45 19  1  0
 46 48  1  1
 46 47  1  0
 49 46  1  0
 50 53  1  0
 50 45  1  0
 51 50  1  0
 52 51  2  0
 55 54  1  0
 55 51  1  0
 56 57  1  0
 57 55  1  0
 58 57  1  0
 59  1  1  0
 60 62  2  0
 60 61  1  0
 61 63  1  0
 61 59  1  0
 64 66  1  0
 64 60  1  0
 65 69  1  0
 65 66  1  0
 66 68  1  0
 67 65  2  0
 69 71  1  0
 70 74  1  0
 71 70  1  0
 71 73  1  0
 72 70  2  0
 74 83  1  0
 75 82  1  0
 75 81  1  0
 75 80  1  6
 76 75  1  0
 77 78  1  0
 78 79  1  0
 83 84  1  0
 85110  1  0
 86105  1  0
 86 85  2  0
 87 89  2  0
 87 86  1  0
 88 79  1  0
 88 85  1  0
 89 88  1  0
 90 87  1  0
 90 91  1  0
 92 91  2  0
 93 92  1  0
 94 95  1  0
 94 93  2  0
 95 90  2  0
 96 93  1  0
 96 97  1  0
 97 98  1  0
 98 99  2  0
100104  1  0
100 99  1  0
101100  2  0
102101  1  0
102 97  2  0
103102  1  0
105106  1  0
106108  1  0
107105  2  0
109106  1  0
110112  1  0
110111  1  0
M  ISO  4  17 101  18 101  75 100  83 100
M  END
>  <TORSDO>  (60) 
F 33

>  <SCORE>  (60) 
55.870

>  <name>  (60) 
68

>  <ligand_id>  (60) 
68

>  <original_smiles>  (60) 
[H]c1c([H])c([H])c2c(c1[H])C([H])([H])C([H])([H])C([H])([H])C2([H])N([H])C(=O)C1([H])N(C(=O)C([H])(N([H])C(=O)C([H])(N([H])C([H])([H])[H])C([H])([H])[H])C(C([H])([H])[H])(C([H])([H])[H])C([H])([H])[H])C([H])([H])c2c([H])c(OC([H])([H])C([H])([H])C([H])([H])C([H])([H])C([H])([H])C([H])([H])C([H])([H])C([H])([H])N([H])C(=O)C([H])([H])N([H])C(=O)C([H])([H])N([H])C(=O)C([H])([H])N([H])C(=O)C([H])([H])N([H])C(=O)C([H])([H])N([H])C(=O)N3C([H])([H])C([H])([H])C([H])([H])C([H])(n4nc(-c5c([H])c([H])c(Oc6c([H])c([H])c(F)c([H])c6F)c([H])c5[H])c(C(=O)N([H])[H])c4N([H])[H])C3([H])[H])c([H])c([H])c2C1([H])[H]

>  <smiles>  (60) 
[H]c1c([H])c([H])c2c(c1[H])C([H])([H])C([H])([H])C([H])([H])C2([H])N([H])C(=O)C1([H])N(C(=O)C([H])(N([H])C(=O)C([H])(N([H])C([H])([H])[H])C([H])([H])[H])C(C([H])([H])[H])(C([H])([H])[H])C([H])([H])[H])C([H])([H])c2c([H])c(OC([H])([H])C([H])([H])C([H])([H])C([H])([H])C([H])([H])C([H])([H])C([H])([H])C([H])([H])N([H])C(=O)C([H])([H])N([H])C(=O)C([H])([H])N([H])C(=O)C([H])([H])N([H])C(=O)C([H])([H])N([H])C(=O)C([H])([H])N([H])C(=O)N3C([H])([H])C([H])([H])C([H])([H])C([H])(n4nc(-c5c([H])c([H])c(Oc6c([H])c([H])c(F)c([H])c6F)c([H])c5[H])c(C(=O)N([H])[H])c4N([H])[H])C3([H])[H])c([H])c([H])c2C1([H])[H]

$$$$
70:0:0
     RDKit          3D

106113  0  0  1  0  0  0  0  0999 V2000
  -27.9830   -9.9790   22.0640 C   0  0  0  0  0  2  0  0  0  0  0  0
  -26.0460   -8.5530   20.8560 C   0  0  0  0  0  0  0  0  0  0  0  0
  -26.9050   -8.8540   21.9620 N   0  0  0  0  0  0  0  0  0  0  0  0
  -26.5920   -8.2110   19.8050 O   0  0  0  0  0  0  0  0  0  0  0  0
  -26.4050   -8.7600   22.8370 H   0  0  0  0  0  0  0  0  0  0  0  0
  -24.3110   -8.7840   20.8010 C   0  0  0  0  0  2  0  0  0  0  0  0
  -23.1310  -12.3370   22.6590 C   0  0  0  0  0  0  0  0  0  0  0  0
  -22.7430  -11.0620   21.9930 N   0  0  0  0  0  2  0  0  0  0  0  0
  -22.2130  -12.8790   23.2710 O   0  0  0  0  0  0  0  0  0  0  0  0
  -21.7720  -10.8240   22.1150 H   0  0  0  0  0  0  0  0  0  0  0  0
  -24.6200  -13.2320   22.7170 C   0  0  0  0  0  2  0  0  0  0  0  0
  -26.9330  -14.4030   21.6070 C   0  0  0  0  0  0  0  0  0  0  0  0
  -26.0280  -13.3350   21.9190 N   0  0  0  0  0  0  0  0  0  0  0  0
  -26.6450  -15.4410   22.2000 O   0  0  0  0  0  0  0  0  0  0  0  0
  -26.2720  -12.4760   21.4430 H   0  0  0  0  0  0  0  0  0  0  0  0
  -28.2100  -14.5740   20.4650 C   0  0  0  0  0  2  0  0  0  0  0  0
  -30.7860  -13.5140   19.6640 C   0  0  0  0  0  0  0  0  0  0  0  0
  -31.0590  -11.1000   18.9410 C   0  0  0  0  0  2  0  0  0  0  0  0
  -30.2010  -10.8220   17.6660 C   0  0  0  0  0  2  0  0  0  0  0  0
  -28.6570  -10.9410   17.8410 C   0  0  0  0  0  2  0  0  0  0  0  0
  -28.3070  -12.1660   18.7030 C   0  0  0  0  0  3  0  0  0  0  0  0
  -29.1130  -11.9060   19.9800 C   0  0  0  0  0  2  0  0  0  0  0  0
  -30.4540  -12.2210   19.6790 N   0  0  0  0  0  0  0  0  0  0  0  0
  -31.9290  -13.8060   19.2280 O   0  0  0  0  0  0  0  0  0  0  0  0
  -29.7960  -14.3760   20.2420 N   0  0  0  0  0  0  0  0  0  0  0  0
  -30.2370  -15.2640   20.4270 H   0  0  0  0  0  0  0  0  0  0  0  0
  -25.9420  -13.2790   18.8150 C   0  0  0  0  0  0  0  0  0  0  0  0
  -24.8140  -12.8430   19.4270 C   0  0  0  0  0  0  0  0  0  0  0  0
  -25.2680  -11.6290   19.9830 C   0  0  0  0  0  0  0  0  0  0  0  0
  -26.9130  -12.2910   19.0240 N   0  0  0  0  0  0  0  0  0  0  0  0
  -26.4570  -11.2810   19.7220 N   0  0  0  0  0  0  0  0  0  0  0  0
  -24.6950  -10.7430   20.7770 C   0  0  0  0  0  0  0  0  0  0  0  0
  -25.0050  -10.2180   22.5190 C   0  0  0  0  0  3  0  0  0  0  0  0
  -23.8450   -9.0220   23.1940 C   0  0  0  0  0  3  0  0  0  0  0  0
  -22.5130   -8.4860   22.1740 C   0  0  0  0  0  0  0  0  0  0  0  0
  -22.3080   -9.0440   20.6130 C   0  0  0  0  0  3  0  0  0  0  0  0
  -23.3470  -10.1390   19.9140 C   0  0  0  0  0  0  0  0  0  0  0  0
  -21.6070   -7.5110   22.4160 O   0  0  0  0  0  0  0  0  0  0  0  0
  -21.4690   -7.1080   23.6840 C   0  0  0  0  0  0  0  0  0  0  0  0
  -21.2040   -8.0450   24.6970 C   0  0  0  0  0  3  0  0  0  0  0  0
  -21.0630   -7.5970   26.0150 C   0  0  0  0  0  3  0  0  0  0  0  0
  -21.1680   -6.2240   26.2970 C   0  0  0  0  0  0  0  0  0  0  0  0
  -21.4150   -5.2910   25.2720 C   0  0  0  0  0  3  0  0  0  0  0  0
  -21.5650   -5.7350   23.9530 C   0  0  0  0  0  0  0  0  0  0  0  0
  -21.7960   -4.8550   22.9460 F   0  0  0  0  0  0  0  0  0  0  0  0
  -21.0220   -5.7960   27.5690 F   0  0  0  0  0  0  0  0  0  0  0  0
  -23.4670  -13.5330   19.4670 C   0  0  0  0  0  0  0  0  0  0  0  0
  -22.4850  -13.1200   20.2420 N   0  0  0  0  0  0  0  0  0  0  0  0
  -23.2420  -14.4930   18.7480 O   0  0  0  0  0  0  0  0  0  0  0  0
  -22.5540  -12.2500   20.7560 H   0  0  0  0  0  0  0  0  0  0  0  0
  -21.6050  -13.6170   20.2350 H   0  0  0  0  0  0  0  0  0  0  0  0
  -26.1850  -14.4450   18.1140 N   0  0  0  0  0  0  0  0  0  0  0  0
  -25.4370  -15.1020   17.9170 H   0  0  0  0  0  0  0  0  0  0  0  0
  -27.0320  -14.6370   17.5940 H   0  0  0  0  0  0  0  0  0  0  0  0
  -28.6940  -10.7540   23.3670 C   0  0  0  0  0  2  0  0  0  0  0  0
  -29.2640  -12.3490   23.5790 C   0  0  0  0  0  2  0  0  0  0  0  0
  -30.7570  -13.1490   23.4270 C   0  0  0  0  0  2  0  0  0  0  0  0
  -31.0650  -14.8050   23.0420 C   0  0  0  0  0  2  0  0  0  0  0  0
  -32.3650  -15.5560   22.2100 C   0  0  0  0  0  2  0  0  0  0  0  0
  -32.3100  -16.8680   21.1330 C   0  0  0  0  0  2  0  0  0  0  0  0
  -33.4680  -17.3090   19.9750 C   0  0  0  0  0  3  0  0  0  0  0  0
  -33.6440  -18.8050   19.1970 C   0  0  0  0  0  3  0  0  0  0  0  0
  -34.4700  -19.0990   17.9170 O   0  0  0  0  0  0  0  0  0  0  0  0
  -34.9640  -20.4910   17.4330 C   0  0  0  0  0  2  0  0  0  0  0  0
  -35.4260  -20.9160   15.8570 C   0  0  0  0  0  2  0  0  0  0  0  0
  -36.3690  -22.0640   15.3700 O   0  0  0  0  0  0  0  0  0  0  0  0
  -34.9140  -28.8650   13.4360 C   0  0  0  0  0  0  0  0  0  0  0  0
  -36.0610  -22.9410   14.2730 C   0  0  0  0  0  0  0  0  0  0  0  0
  -33.9610  -27.0840   12.0140 C   0  0  0  0  0  3  0  0  0  0  0  0
  -35.0150  -24.7530   12.2670 C   0  0  0  0  0  0  0  0  0  0  0  0
  -36.2250  -26.7340   13.1720 C   0  0  0  0  0  2  0  0  0  0  0  0
  -35.9240  -25.2310   13.2190 C   0  0  0  0  0  0  0  0  0  0  0  0
  -36.4670  -24.3260   14.1970 C   0  0  0  0  0  3  0  0  0  0  0  0
  -35.2430  -22.4990   13.2070 C   0  0  0  0  0  3  0  0  0  0  0  0
  -34.7130  -23.3800   12.2360 C   0  0  0  0  0  3  0  0  0  0  0  0
  -34.3800  -25.7580   11.3180 C   0  0  0  0  0  2  0  0  0  0  0  0
  -35.0370  -27.6050   12.9190 N   0  0  0  0  0  0  0  0  0  0  0  0
  -33.9480  -29.5890   13.1540 O   0  0  0  0  0  0  0  0  0  0  0  0
  -32.6050  -26.8800   12.7350 C   0  0  0  0  0  0  0  0  0  0  0  0
  -31.4950  -26.9340   11.9780 N   0  0  0  0  0  0  0  0  0  0  0  0
  -32.5670  -26.6560   13.9480 O   0  0  0  0  0  0  0  0  0  0  0  0
  -31.6030  -27.1330   10.9930 H   0  0  0  0  0  0  0  0  0  0  0  0
  -28.0290  -26.8330   10.9340 C   0  0  0  0  0  0  0  0  0  0  0  0
  -30.1230  -26.7190   12.4470 C   0  0  0  0  0  3  0  0  0  0  0  0
  -29.8120  -25.2110   12.5860 C   0  0  0  0  0  2  0  0  0  0  0  0
  -29.1690  -24.6100   11.3320 C   0  0  0  0  0  2  0  0  0  0  0  0
  -27.8550  -25.3250   11.0070 C   0  0  0  0  0  2  0  0  0  0  0  0
  -29.1020  -27.4860   11.5970 C   0  0  0  0  0  0  0  0  0  0  0  0
  -29.2340  -28.8850   11.4700 C   0  0  0  0  0  3  0  0  0  0  0  0
  -28.3200  -29.6290   10.7010 C   0  0  0  0  0  3  0  0  0  0  0  0
  -27.2510  -28.9810   10.0580 C   0  0  0  0  0  3  0  0  0  0  0  0
  -27.1040  -27.5870   10.1800 C   0  0  0  0  0  3  0  0  0  0  0  0
  -35.9940  -29.4650   14.3900 C   0  0  0  0  0  3  0  0  0  0  0  0
  -35.6120  -29.3420   15.9170 C   0  0  1  0  0  0  0  0  0  0  0  0
  -34.2030  -29.8870   16.2510 C   0  0  0  0  0  1  0  0  0  0  0  0
  -35.6670  -27.8680   16.3790 C   0  0  0  0  0  1  0  0  0  0  0  0
  -36.6380  -30.1120   16.7780 C   0  0  0  0  0  1  0  0  0  0  0  0
  -36.1840  -30.8750   14.0200 N   0  0  0  0  0  0  0  0  0  0  0  0
  -37.1830  -31.3370   13.2570 C   0  0  0  0  0  0  0  0  0  0  0  0
  -38.0920  -30.6150   12.8390 O   0  0  0  0  0  0  0  0  0  0  0  0
  -35.4460  -31.5140   14.2810 H   0  0  0  0  0  0  0  0  0  0  0  0
  -36.6180  -33.0290   11.4820 C   0  0  0  0  0  1  0  0  0  0  0  0
  -37.1760  -32.8370   12.9010 C   0  0  0  0  0  3  0  0  0  0  0  0
  -39.0030  -33.5670   14.3710 C   0  0  0  0  0  1  0  0  0  0  0  0
  -38.5080  -33.4740   13.0000 N   0  0  0  0  0  0  0  0  0  0  0  0
  -38.4910  -34.4100   12.6040 H   0  0  0  0  0  0  0  0  0  0  0  0
  1 55  1  0
  2  3  1  0
  3  1  1  0
  3  5  1  0
  4  2  2  0
  6  2  1  0
  7 11  1  0
  7  9  2  0
  8 10  1  0
  8  7  1  0
 12 13  1  0
 12 14  2  0
 13 11  1  0
 15 13  1  0
 16 12  1  0
 17 23  1  0
 17 25  1  0
 18 23  1  0
 19 20  1  0
 19 18  1  0
 21 20  1  0
 21 30  1  0
 21 22  1  0
 23 22  1  0
 24 17  2  0
 25 26  1  0
 25 16  1  0
 27 30  1  0
 27 28  2  0
 28 47  1  0
 28 29  1  0
 29 32  1  0
 30 31  1  0
 31 29  2  0
 32 33  1  0
 33 34  2  0
 35 38  1  0
 35 34  1  0
 36 35  2  0
 37 36  1  0
 37 32  2  3
 37  6  1  0
 38 39  1  0
 39 44  2  0
 39 40  1  0
 40 41  2  0
 41 42  1  0
 42 46  1  0
 43 42  2  0
 44 43  1  0
 45 44  1  0
 47 48  1  0
 48 50  1  0
 49 47  2  0
 51 48  1  0
 52 27  1  0
 53 52  1  0
 54 52  1  0
 55 56  1  0
 57 56  1  0
 58 57  1  0
 59 58  1  0
 60 59  1  0
 61 60  1  0
 62 61  2  0
 63 62  1  0
 64 63  1  0
 65 64  1  0
 66 65  1  0
 68 66  1  0
 69 79  1  0
 69 77  1  0
 70 72  1  0
 71 72  1  0
 72 73  2  0
 73 68  1  0
 74 68  2  0
 75 70  2  0
 75 74  1  0
 76 69  1  0
 76 70  1  0
 77 71  1  0
 77 67  1  0
 78 67  2  0
 79 81  2  0
 80 79  1  0
 82 80  1  0
 83 87  1  0
 83 88  1  0
 84 80  1  0
 84 85  1  0
 86 85  1  0
 87 86  1  0
 88 84  1  0
 89 88  2  0
 90 89  1  0
 91 92  1  0
 91 90  2  0
 92 83  2  0
 93 67  1  0
 93 94  1  0
 94 95  1  6
 94 96  1  0
 94 97  1  0
 98101  1  0
 98 93  1  0
 99 98  1  0
100 99  2  0
103102  1  0
103105  1  0
103 99  1  0
105104  1  0
106105  1  0
M  ISO  4  17 100  25 100  65 101  66 101
M  END
>  <TORSDO>  (61) 
F 33

>  <SCORE>  (61) 
24.538

>  <name>  (61) 
70

>  <ligand_id>  (61) 
70

>  <original_smiles>  (61) 
[H]c1c([H])c([H])c2c(c1[H])C([H])([H])C([H])([H])C([H])([H])C2([H])N([H])C(=O)C1([H])N(C(=O)C([H])(N([H])C(=O)C([H])(N([H])C([H])([H])[H])C([H])([H])[H])C(C([H])([H])[H])(C([H])([H])[H])C([H])([H])[H])C([H])([H])c2c([H])c(OC([H])([H])C([H])([H])OC([H])([H])C([H])([H])C([H])([H])C([H])([H])C([H])([H])C([H])([H])C([H])([H])C([H])([H])C([H])([H])N([H])C(=O)C([H])([H])N([H])C(=O)C([H])([H])N([H])C(=O)C([H])([H])N([H])C(=O)N3C([H])([H])C([H])([H])C([H])([H])C([H])(n4nc(-c5c([H])c([H])c(Oc6c([H])c([H])c(F)c([H])c6F)c([H])c5[H])c(C(=O)N([H])[H])c4N([H])[H])C3([H])[H])c([H])c([H])c2C1([H])[H]

>  <smiles>  (61) 
[H]c1c([H])c([H])c2c(c1[H])C([H])([H])C([H])([H])C([H])([H])C2([H])N([H])C(=O)C1([H])N(C(=O)C([H])(N([H])C(=O)C([H])(N([H])C([H])([H])[H])C([H])([H])[H])C(C([H])([H])[H])(C([H])([H])[H])C([H])([H])[H])C([H])([H])c2c([H])c(OC([H])([H])C([H])([H])OC([H])([H])C([H])([H])C([H])([H])C([H])([H])C([H])([H])C([H])([H])C([H])([H])C([H])([H])C([H])([H])N([H])C(=O)C([H])([H])N([H])C(=O)C([H])([H])N([H])C(=O)C([H])([H])N([H])C(=O)N3C([H])([H])C([H])([H])C([H])([H])C([H])(n4nc(-c5c([H])c([H])c(Oc6c([H])c([H])c(F)c([H])c6F)c([H])c5[H])c(C(=O)N([H])[H])c4N([H])[H])C3([H])[H])c([H])c([H])c2C1([H])[H]

$$$$
71:0:0
     RDKit          3D

126133  0  0  1  0  0  0  0  0999 V2000
  -27.5040  -22.6170   18.6060 C   0  0  0  0  0  2  0  0  0  0  0  0
  -28.6720  -20.5690   17.8030 C   0  0  0  0  0  0  0  0  0  0  0  0
  -27.9170  -21.2200   18.6900 N   0  0  0  0  0  0  0  0  0  0  0  0
  -28.8640  -20.9790   16.6560 O   0  0  0  0  0  0  0  0  0  0  0  0
  -27.8220  -20.7740   19.5920 H   0  0  0  0  0  0  0  0  0  0  0  0
  -29.3730  -19.3090   18.3200 C   0  0  0  0  0  2  0  0  0  0  0  0
  -29.9480  -19.5550   19.6030 O   0  0  0  0  0  0  0  0  0  0  0  0
  -29.2570  -18.9790   20.7040 C   0  0  0  0  0  2  0  0  0  0  0  0
  -29.7150  -17.5360   20.9800 C   0  0  0  0  0  2  0  0  0  0  0  0
  -31.0950  -17.4160   21.6640 C   0  0  0  0  0  2  0  0  0  0  0  0
  -32.3020  -17.5420   20.7160 C   0  0  0  0  0  2  0  0  0  0  0  0
  -32.9500  -18.9410   20.6730 C   0  0  0  0  0  2  0  0  0  0  0  0
  -35.1650  -19.5720   19.6680 C   0  0  0  0  0  0  0  0  0  0  0  0
  -33.9620  -18.9860   19.6230 N   0  0  0  0  0  0  0  0  0  0  0  0
  -35.5850  -20.1540   20.6690 O   0  0  0  0  0  0  0  0  0  0  0  0
  -33.7320  -18.5340   18.7500 H   0  0  0  0  0  0  0  0  0  0  0  0
  -36.0180  -19.5280   18.3910 C   0  0  0  0  0  2  0  0  0  0  0  0
  -35.7540  -17.7750   16.6200 C   0  0  0  0  0  0  0  0  0  0  0  0
  -35.3360  -18.8630   17.2750 N   0  0  0  0  0  0  0  0  0  0  0  0
  -36.8210  -17.2100   16.8750 O   0  0  0  0  0  0  0  0  0  0  0  0
  -34.4480  -19.2540   16.9920 H   0  0  0  0  0  0  0  0  0  0  0  0
  -34.8100  -17.2150   15.5530 C   0  0  0  0  0  2  0  0  0  0  0  0
  -34.0120  -16.2330   16.1890 O   0  0  0  0  0  0  0  0  0  0  0  0
  -32.9110  -15.7540   15.4380 C   0  0  0  0  0  2  0  0  0  0  0  0
  -32.1840  -14.7830   16.3820 C   0  0  0  0  0  2  0  0  0  0  0  0
  -31.5020  -15.5480   17.5440 C   0  0  0  0  0  2  0  0  0  0  0  0
  -31.5640  -13.9390   19.4440 C   0  0  0  0  0  0  0  0  0  0  0  0
  -31.1010  -11.6220   19.0490 C   0  0  0  0  0  2  0  0  0  0  0  0
  -30.1260  -11.5910   17.8510 C   0  0  0  0  0  2  0  0  0  0  0  0
  -28.6670  -11.6840   18.3360 C   0  0  0  0  0  2  0  0  0  0  0  0
  -28.4230  -12.8490   19.3340 C   0  0  0  0  0  3  0  0  0  0  0  0
  -29.5170  -12.8860   20.4320 C   0  0  0  0  0  2  0  0  0  0  0  0
  -30.8400  -12.8580   19.7860 N   0  0  0  0  0  0  0  0  0  0  0  0
  -32.7930  -13.9870   19.4420 O   0  0  0  0  0  0  0  0  0  0  0  0
  -30.8910  -14.7090   18.5790 N   0  0  0  0  0  0  0  0  0  0  0  0
  -29.9060  -14.5120   18.4860 H   0  0  0  0  0  0  0  0  0  0  0  0
  -26.1980  -13.8400   20.1810 C   0  0  0  0  0  0  0  0  0  0  0  0
  -25.0310  -13.2470   20.5810 C   0  0  0  0  0  0  0  0  0  0  0  0
  -25.2610  -11.8400   20.5200 C   0  0  0  0  0  0  0  0  0  0  0  0
  -27.0720  -12.8000   19.8930 N   0  0  0  0  0  0  0  0  0  0  0  0
  -26.5140  -11.5920   20.1620 N   0  0  0  0  0  0  0  0  0  0  0  0
  -24.3460  -10.7110   20.7250 C   0  0  0  0  0  0  0  0  0  0  0  0
  -24.6630   -9.6560   21.6090 C   0  0  0  0  0  3  0  0  0  0  0  0
  -23.7590   -8.5910   21.8060 C   0  0  0  0  0  3  0  0  0  0  0  0
  -22.5220   -8.5740   21.1170 C   0  0  0  0  0  0  0  0  0  0  0  0
  -22.2190   -9.6160   20.2230 C   0  0  0  0  0  3  0  0  0  0  0  0
  -23.1220  -10.6730   20.0250 C   0  0  0  0  0  3  0  0  0  0  0  0
  -21.5960   -7.5650   21.2230 O   0  0  0  0  0  0  0  0  0  0  0  0
  -21.4900   -6.8000   22.3560 C   0  0  0  0  0  0  0  0  0  0  0  0
  -21.2520   -7.3780   23.6240 C   0  0  0  0  0  3  0  0  0  0  0  0
  -21.0780   -6.5500   24.7510 C   0  0  0  0  0  3  0  0  0  0  0  0
  -21.1380   -5.1520   24.6160 C   0  0  0  0  0  0  0  0  0  0  0  0
  -21.3690   -4.5750   23.3550 C   0  0  0  0  0  3  0  0  0  0  0  0
  -21.5420   -5.3980   22.2280 C   0  0  0  0  0  0  0  0  0  0  0  0
  -21.7430   -4.8360   21.0110 F   0  0  0  0  0  0  0  0  0  0  0  0
  -20.9640   -4.3560   25.6980 F   0  0  0  0  0  0  0  0  0  0  0  0
  -23.7420  -13.9470   20.9080 C   0  0  0  0  0  0  0  0  0  0  0  0
  -22.9540  -13.3850   21.8170 N   0  0  0  0  0  0  0  0  0  0  0  0
  -23.4480  -15.0250   20.3940 O   0  0  0  0  0  0  0  0  0  0  0  0
  -23.2010  -12.5120   22.2560 H   0  0  0  0  0  0  0  0  0  0  0  0
  -22.0900  -13.8400   22.0780 H   0  0  0  0  0  0  0  0  0  0  0  0
  -26.5730  -15.1700   20.0170 N   0  0  0  0  0  0  0  0  0  0  0  0
  -25.9260  -15.9300   20.1990 H   0  0  0  0  0  0  0  0  0  0  0  0
  -27.4840  -15.4910   19.7200 H   0  0  0  0  0  0  0  0  0  0  0  0
  -28.3350  -23.4790   19.5720 C   0  0  0  0  0  2  0  0  0  0  0  0
  -29.7690  -23.7920   19.1120 C   0  0  0  0  0  0  0  0  0  0  0  0
  -30.0040  -25.0010   18.5910 N   0  0  0  0  0  0  0  0  0  0  0  0
  -30.6640  -22.9630   19.2720 O   0  0  0  0  0  0  0  0  0  0  0  0
  -29.2570  -25.6900   18.6140 H   0  0  0  0  0  0  0  0  0  0  0  0
  -31.3010  -25.5540   18.2130 C   0  0  0  0  0  2  0  0  0  0  0  0
  -31.2280  -27.0830   18.2990 C   0  0  0  0  0  0  0  0  0  0  0  0
  -32.2600  -27.7410   18.8430 N   0  0  0  0  0  0  0  0  0  0  0  0
  -30.2240  -27.6630   17.8760 O   0  0  0  0  0  0  0  0  0  0  0  0
  -33.0620  -27.2090   19.1530 H   0  0  0  0  0  0  0  0  0  0  0  0
  -32.2590  -29.1670   19.1810 C   0  0  0  0  0  2  0  0  0  0  0  0
  -32.4720  -29.3320   20.6860 C   0  0  0  0  0  0  0  0  0  0  0  0
  -31.4730  -29.8870   21.3850 N   0  0  0  0  0  0  0  0  0  0  0  0
  -33.5290  -28.9630   21.2030 O   0  0  0  0  0  0  0  0  0  0  0  0
  -30.6320  -30.1260   20.8730 H   0  0  0  0  0  0  0  0  0  0  0  0
  -31.5040  -30.2170   22.8070 C   0  0  0  0  0  2  0  0  0  0  0  0
  -31.4920  -28.9870   23.7410 C   0  0  0  0  0  2  0  0  0  0  0  0
  -30.1860  -28.1600   23.7470 C   0  0  0  0  0  2  0  0  0  0  0  0
  -30.3220  -26.7360   23.1630 C   0  0  0  0  0  2  0  0  0  0  0  0
  -29.8990  -26.6250   21.6900 C   0  0  0  0  0  2  0  0  0  0  0  0
  -28.4280  -26.2190   21.5260 C   0  0  0  0  0  2  0  0  0  0  0  0
  -27.9550  -26.5490   20.2150 O   0  0  0  0  0  0  0  0  0  0  0  0
  -24.4380  -31.8570   23.2540 C   0  0  0  0  0  0  0  0  0  0  0  0
  -26.8350  -27.3330   20.1930 C   0  0  0  0  0  0  0  0  0  0  0  0
  -23.1400  -30.5070   21.6300 C   0  0  0  0  0  3  0  0  0  0  0  0
  -24.5030  -28.8960   20.2040 C   0  0  0  0  0  0  0  0  0  0  0  0
  -25.6670  -30.7640   21.3990 C   0  0  0  0  0  2  0  0  0  0  0  0
  -25.6810  -29.3890   20.7780 C   0  0  0  0  0  0  0  0  0  0  0  0
  -26.8530  -28.6170   20.7730 C   0  0  0  0  0  3  0  0  0  0  0  0
  -25.6560  -26.8480   19.5900 C   0  0  0  0  0  3  0  0  0  0  0  0
  -24.4800  -27.6210   19.6130 C   0  0  0  0  0  3  0  0  0  0  0  0
  -23.3010  -29.8080   20.2520 C   0  0  0  0  0  2  0  0  0  0  0  0
  -24.4340  -31.0520   22.1550 N   0  0  0  0  0  0  0  0  0  0  0  0
  -23.3780  -32.1900   23.8030 O   0  0  0  0  0  0  0  0  0  0  0  0
  -22.4480  -29.5250   22.6010 C   0  0  0  0  0  0  0  0  0  0  0  0
  -21.1170  -29.4020   22.4850 N   0  0  0  0  0  0  0  0  0  0  0  0
  -23.1070  -28.8740   23.4130 O   0  0  0  0  0  0  0  0  0  0  0  0
  -20.6440  -29.9780   21.8000 H   0  0  0  0  0  0  0  0  0  0  0  0
  -17.6930  -28.3940   23.0120 C   0  0  0  0  0  0  0  0  0  0  0  0
  -20.2600  -28.5110   23.2660 C   0  0  0  0  0  3  0  0  0  0  0  0
  -20.2810  -27.0740   22.6920 C   0  0  0  0  0  2  0  0  0  0  0  0
  -19.1550  -26.8110   21.6870 C   0  0  0  0  0  2  0  0  0  0  0  0
  -17.7900  -27.0350   22.3430 C   0  0  0  0  0  2  0  0  0  0  0  0
  -18.8540  -29.0960   23.4320 C   0  0  0  0  0  0  0  0  0  0  0  0
  -18.7080  -30.3750   24.0140 C   0  0  0  0  0  3  0  0  0  0  0  0
  -17.4320  -30.9460   24.1850 C   0  0  0  0  0  3  0  0  0  0  0  0
  -16.2850  -30.2380   23.7890 C   0  0  0  0  0  3  0  0  0  0  0  0
  -16.4180  -28.9650   23.2050 C   0  0  0  0  0  3  0  0  0  0  0  0
  -25.7650  -32.4140   23.8620 C   0  0  0  0  0  3  0  0  0  0  0  0
  -26.2830  -31.5690   25.0930 C   0  0  1  0  0  0  0  0  0  0  0  0
  -25.1970  -31.3110   26.1620 C   0  0  0  0  0  1  0  0  0  0  0  0
  -26.8180  -30.1900   24.6270 C   0  0  0  0  0  1  0  0  0  0  0  0
  -27.4650  -32.2880   25.7850 C   0  0  0  0  0  1  0  0  0  0  0  0
  -25.5220  -33.8100   24.2400 N   0  0  0  0  0  0  0  0  0  0  0  0
  -25.8500  -34.8690   23.4830 C   0  0  0  0  0  0  0  0  0  0  0  0
  -26.4680  -34.7690   22.4180 O   0  0  0  0  0  0  0  0  0  0  0  0
  -24.9780  -33.9590   25.0770 H   0  0  0  0  0  0  0  0  0  0  0  0
  -24.1610  -36.7260   23.2360 C   0  0  0  0  0  1  0  0  0  0  0  0
  -25.4230  -36.2610   23.9840 C   0  0  0  0  0  3  0  0  0  0  0  0
  -27.6170  -37.0620   24.7450 C   0  0  0  0  0  1  0  0  0  0  0  0
  -26.4820  -37.2860   23.8560 N   0  0  0  0  0  0  0  0  0  0  0  0
  -26.1070  -38.2100   24.0590 H   0  0  0  0  0  0  0  0  0  0  0  0
  1  3  1  0
  1 65  1  0
  2  6  1  0
  2  3  1  0
  3  5  1  0
  4  2  2  0
  6  7  1  0
  7  8  1  0
  8  9  1  0
  9 10  1  0
 11 10  1  0
 12 11  1  0
 13 15  2  0
 14 13  1  0
 14 12  1  0
 16 14  1  0
 17 13  1  0
 18 20  2  0
 18 19  1  0
 19 17  1  0
 21 19  1  0
 22 23  1  0
 22 18  1  0
 24 23  1  0
 24 25  1  0
 25 26  1  0
 26 35  1  0
 27 33  1  0
 28 33  1  0
 29 30  1  0
 29 28  1  0
 31 30  1  0
 31 40  1  0
 31 32  1  0
 33 32  1  0
 34 27  2  0
 35 27  1  0
 36 35  1  0
 37 38  2  0
 38 57  1  0
 39 38  1  0
 39 42  1  0
 40 41  1  0
 40 37  1  0
 41 39  2  0
 42 43  1  0
 43 44  2  0
 45 48  1  0
 45 44  1  0
 46 45  2  0
 47 46  1  0
 47 42  2  0
 48 49  1  0
 49 50  1  0
 50 51  2  0
 52 51  1  0
 52 56  1  0
 53 52  2  0
 54 49  2  0
 54 53  1  0
 55 54  1  0
 57 58  1  0
 58 61  1  0
 58 60  1  0
 59 57  2  0
 62 37  1  0
 62 63  1  0
 64 62  1  0
 66 68  2  0
 66 65  1  0
 67 69  1  0
 67 66  1  0
 70 71  1  0
 70 67  1  0
 71 72  1  0
 72 74  1  0
 72 75  1  0
 73 71  2  0
 75 76  1  0
 76 78  2  0
 76 77  1  0
 77 80  1  0
 79 77  1  0
 80 81  1  0
 81 82  1  0
 83 82  1  0
 84 83  1  0
 85 84  1  0
 86 85  1  0
 87 98  2  0
 88 86  1  0
 88 93  1  0
 89 97  1  0
 89 99  1  0
 90 96  1  0
 90 92  1  0
 91 97  1  0
 92 91  1  0
 93 92  2  0
 94 95  1  0
 94 88  2  0
 95 90  2  0
 96 89  1  0
 97 87  1  0
 99101  2  0
100 99  1  0
102100  1  0
103112  2  0
103108  1  0
104100  1  0
104108  1  0
105104  1  0
106107  1  0
106105  1  0
107103  1  0
108109  2  0
109110  1  0
111110  2  0
112111  1  0
113 87  1  0
113118  1  0
113114  1  0
114117  1  1
114115  1  0
116114  1  0
118121  1  0
119123  1  0
119118  1  0
120119  2  0
123122  1  0
125123  1  0
125126  1  0
125124  1  0
M  ISO  4  27 100  35 100  85 101  86 101
M  END
>  <TORSDO>  (62) 
F 44

>  <SCORE>  (62) 
-8.373

>  <name>  (62) 
71

>  <ligand_id>  (62) 
71

>  <original_smiles>  (62) 
[H]c1c([H])c([H])c2c(c1[H])C([H])([H])C([H])([H])C([H])([H])C2([H])N([H])C(=O)C1([H])N(C(=O)C([H])(N([H])C(=O)C([H])(N([H])C([H])([H])[H])C([H])([H])[H])C(C([H])([H])[H])(C([H])([H])[H])C([H])([H])[H])C([H])([H])c2c([H])c(OC([H])([H])C([H])([H])C([H])([H])C([H])([H])C([H])([H])C([H])([H])N([H])C(=O)C([H])([H])N([H])C(=O)C([H])([H])N([H])C(=O)C([H])([H])C([H])([H])N([H])C(=O)C([H])([H])OC([H])([H])C([H])([H])C([H])([H])C([H])([H])C([H])([H])N([H])C(=O)C([H])([H])N([H])C(=O)C([H])([H])OC([H])([H])C([H])([H])C([H])([H])N([H])C(=O)N3C([H])([H])C([H])([H])C([H])([H])C([H])(n4nc(-c5c([H])c([H])c(Oc6c([H])c([H])c(F)c([H])c6F)c([H])c5[H])c(C(=O)N([H])[H])c4N([H])[H])C3([H])[H])c([H])c([H])c2C1([H])[H]

>  <smiles>  (62) 
[H]c1c([H])c([H])c2c(c1[H])C([H])([H])C([H])([H])C([H])([H])C2([H])N([H])C(=O)C1([H])N(C(=O)C([H])(N([H])C(=O)C([H])(N([H])C([H])([H])[H])C([H])([H])[H])C(C([H])([H])[H])(C([H])([H])[H])C([H])([H])[H])C([H])([H])c2c([H])c(OC([H])([H])C([H])([H])C([H])([H])C([H])([H])C([H])([H])C([H])([H])N([H])C(=O)C([H])([H])N([H])C(=O)C([H])([H])N([H])C(=O)C([H])([H])C([H])([H])N([H])C(=O)C([H])([H])OC([H])([H])C([H])([H])C([H])([H])C([H])([H])C([H])([H])N([H])C(=O)C([H])([H])N([H])C(=O)C([H])([H])OC([H])([H])C([H])([H])C([H])([H])N([H])C(=O)N3C([H])([H])C([H])([H])C([H])([H])C([H])(n4nc(-c5c([H])c([H])c(Oc6c([H])c([H])c(F)c([H])c6F)c([H])c5[H])c(C(=O)N([H])[H])c4N([H])[H])C3([H])[H])c([H])c([H])c2C1([H])[H]

$$$$
72:0:0
     RDKit          3D

124131  0  0  1  0  0  0  0  0999 V2000
  -32.1290  -28.6270   18.9880 C   0  0  0  0  0  0  0  0  0  0  0  0
  -32.5790  -27.4060   18.6470 N   0  0  0  0  0  0  0  0  0  0  0  0
  -31.0710  -28.7970   19.5970 O   0  0  0  0  0  0  0  0  0  0  0  0
  -33.4110  -27.3660   18.0740 H   0  0  0  0  0  0  0  0  0  0  0  0
  -32.1200  -26.1020   19.1660 C   0  0  0  0  0  2  0  0  0  0  0  0
  -31.9540  -26.2080   20.6840 C   0  0  0  0  0  0  0  0  0  0  0  0
  -30.7220  -25.9540   21.1360 N   0  0  0  0  0  0  0  0  0  0  0  0
  -32.8620  -26.6600   21.3830 O   0  0  0  0  0  0  0  0  0  0  0  0
  -30.0980  -25.5490   20.4440 H   0  0  0  0  0  0  0  0  0  0  0  0
  -30.0800  -26.7130   22.2050 C   0  0  0  0  0  2  0  0  0  0  0  0
  -29.0140  -25.9630   23.0040 C   0  0  0  0  0  0  0  0  0  0  0  0
  -27.7140  -26.0560   22.6480 N   0  0  0  0  0  0  0  0  0  0  0  0
  -29.3440  -25.3230   24.0000 O   0  0  0  0  0  0  0  0  0  0  0  0
  -27.0720  -25.5990   23.2780 H   0  0  0  0  0  0  0  0  0  0  0  0
  -27.1280  -26.5410   21.3880 C   0  0  0  0  0  2  0  0  0  0  0  0
  -26.6710  -25.4160   20.4250 C   0  0  0  0  0  2  0  0  0  0  0  0
  -27.3960  -24.0590   20.5560 C   0  0  0  0  0  2  0  0  0  0  0  0
  -27.4920  -23.2690   19.2300 C   0  0  0  0  0  2  0  0  0  0  0  0
  -28.9060  -23.3050   18.6030 C   0  0  0  0  0  2  0  0  0  0  0  0
  -29.0620  -24.1530   17.3140 C   0  0  0  0  0  2  0  0  0  0  0  0
  -28.8120  -25.6790   17.4340 C   0  0  0  0  0  2  0  0  0  0  0  0
  -27.4850  -26.1310   16.7950 C   0  0  0  0  0  3  0  0  0  0  0  0
  -26.9530  -27.5300   17.2560 C   0  0  0  0  0  3  0  0  0  0  0  0
  -25.6250  -28.1260   16.6380 C   0  0  0  0  0  2  0  0  0  0  0  0
  -24.3220  -27.6710   16.1530 O   0  0  0  0  0  0  0  0  0  0  0  0
  -20.2040  -25.9110   10.4960 C   0  0  0  0  0  0  0  0  0  0  0  0
  -24.1740  -27.4670   14.7790 C   0  0  0  0  0  0  0  0  0  0  0  0
  -22.6300  -26.1170   10.0870 C   0  0  0  0  0  3  0  0  0  0  0  0
  -23.9770  -27.1540   11.9680 C   0  0  0  0  0  0  0  0  0  0  0  0
  -21.5110  -27.4150   11.9950 C   0  0  0  0  0  2  0  0  0  0  0  0
  -22.8230  -27.3430   12.7390 C   0  0  0  0  0  0  0  0  0  0  0  0
  -22.9040  -27.4760   14.1500 C   0  0  0  0  0  3  0  0  0  0  0  0
  -25.3100  -27.2730   13.9610 C   0  0  0  0  0  3  0  0  0  0  0  0
  -25.2300  -27.1170   12.5800 C   0  0  0  0  0  3  0  0  0  0  0  0
  -23.8300  -27.0150   10.4720 C   0  0  0  0  0  2  0  0  0  0  0  0
  -21.3990  -26.4510   10.8720 N   0  0  0  0  0  0  0  0  0  0  0  0
  -20.1180  -25.1790    9.5000 O   0  0  0  0  0  0  0  0  0  0  0  0
  -23.0530  -24.6340   10.2210 C   0  0  0  0  0  0  0  0  0  0  0  0
  -23.7040  -24.1000    9.1770 N   0  0  0  0  0  0  0  0  0  0  0  0
  -22.8110  -24.0000   11.2510 O   0  0  0  0  0  0  0  0  0  0  0  0
  -23.8520  -24.6850    8.3680 H   0  0  0  0  0  0  0  0  0  0  0  0
  -25.4120  -21.7700    7.0060 C   0  0  0  0  0  0  0  0  0  0  0  0
  -24.2190  -22.7330    9.0880 C   0  0  0  0  0  3  0  0  0  0  0  0
  -25.5870  -22.6050    9.8020 C   0  0  0  0  0  2  0  0  0  0  0  0
  -26.7800  -22.8040    8.8630 C   0  0  0  0  0  2  0  0  0  0  0  0
  -26.7500  -21.7810    7.7260 C   0  0  0  0  0  2  0  0  0  0  0  0
  -24.2250  -22.2280    7.6390 C   0  0  0  0  0  0  0  0  0  0  0  0
  -23.0160  -22.2320    6.9110 C   0  0  0  0  0  3  0  0  0  0  0  0
  -22.9760  -21.7820    5.5780 C   0  0  0  0  0  3  0  0  0  0  0  0
  -24.1500  -21.3090    4.9640 C   0  0  0  0  0  3  0  0  0  0  0  0
  -25.3610  -21.3000    5.6760 C   0  0  0  0  0  3  0  0  0  0  0  0
  -18.8890  -26.2090   11.2780 C   0  0  0  0  0  3  0  0  0  0  0  0
  -18.4680  -25.0360   12.2440 C   0  0  1  0  0  0  0  0  0  0  0  0
  -18.9830  -23.6470   11.8070 C   0  0  0  0  0  1  0  0  0  0  0  0
  -18.9780  -25.3010   13.6810 C   0  0  0  0  0  1  0  0  0  0  0  0
  -16.9270  -24.9700   12.3340 C   0  0  0  0  0  1  0  0  0  0  0  0
  -17.8370  -26.4810   10.2890 N   0  0  0  0  0  0  0  0  0  0  0  0
  -17.5330  -27.6980    9.8230 C   0  0  0  0  0  0  0  0  0  0  0  0
  -18.0660  -28.7300   10.2380 O   0  0  0  0  0  0  0  0  0  0  0  0
  -17.4210  -25.6690    9.8550 H   0  0  0  0  0  0  0  0  0  0  0  0
  -17.0860  -28.3890    7.4550 C   0  0  0  0  0  1  0  0  0  0  0  0
  -16.4610  -27.7860    8.7190 C   0  0  0  0  0  3  0  0  0  0  0  0
  -14.3150  -27.8250    9.9000 C   0  0  0  0  0  1  0  0  0  0  0  0
  -15.2810  -28.5850    9.1150 N   0  0  0  0  0  0  0  0  0  0  0  0
  -14.8110  -28.9660    8.2990 H   0  0  0  0  0  0  0  0  0  0  0  0
  -33.0740  -29.8020   18.6630 C   0  0  0  0  0  2  0  0  0  0  0  0
  -32.5110  -32.0040   17.4580 C   0  0  0  0  0  0  0  0  0  0  0  0
  -32.4960  -31.1330   18.4840 N   0  0  0  0  0  0  0  0  0  0  0  0
  -31.7590  -32.9750   17.4930 O   0  0  0  0  0  0  0  0  0  0  0  0
  -31.8880  -31.3910   19.2490 H   0  0  0  0  0  0  0  0  0  0  0  0
  -33.4600  -31.8540   16.2520 C   0  0  0  0  0  2  0  0  0  0  0  0
  -33.7090  -30.5630   14.1290 C   0  0  0  0  0  0  0  0  0  0  0  0
  -32.9970  -30.9330   15.2050 N   0  0  0  0  0  0  0  0  0  0  0  0
  -34.7490  -31.1270   13.7940 O   0  0  0  0  0  0  0  0  0  0  0  0
  -32.1370  -30.4380   15.3850 H   0  0  0  0  0  0  0  0  0  0  0  0
  -33.2530  -29.3070   13.3720 C   0  0  0  0  0  2  0  0  0  0  0  0
  -33.4160  -26.9390   14.1940 C   0  0  0  0  0  0  0  0  0  0  0  0
  -33.0610  -28.2200   14.3410 N   0  0  0  0  0  0  0  0  0  0  0  0
  -33.9810  -26.5300   13.1820 O   0  0  0  0  0  0  0  0  0  0  0  0
  -32.6500  -28.4880   15.2250 H   0  0  0  0  0  0  0  0  0  0  0  0
  -33.0730  -25.9700   15.3350 C   0  0  0  0  0  2  0  0  0  0  0  0
  -33.6740  -23.6330   15.9460 C   0  0  0  0  0  0  0  0  0  0  0  0
  -33.9470  -24.7940   15.3340 N   0  0  0  0  0  0  0  0  0  0  0  0
  -32.6040  -23.4240   16.5130 O   0  0  0  0  0  0  0  0  0  0  0  0
  -34.8400  -24.9080   14.8710 H   0  0  0  0  0  0  0  0  0  0  0  0
  -34.7950  -22.5820   15.9570 C   0  0  0  0  0  2  0  0  0  0  0  0
  -34.0750  -20.4150   14.9600 C   0  0  0  0  0  0  0  0  0  0  0  0
  -33.8330  -18.1050   14.0990 C   0  0  0  0  0  2  0  0  0  0  0  0
  -32.3620  -17.6960   13.9330 C   0  0  0  0  0  2  0  0  0  0  0  0
  -31.8140  -17.1230   15.2520 C   0  0  0  0  0  2  0  0  0  0  0  0
  -32.0970  -18.0450   16.4620 C   0  0  0  0  0  3  0  0  0  0  0  0
  -33.5810  -18.4700   16.4960 C   0  0  0  0  0  2  0  0  0  0  0  0
  -33.9280  -19.0850   15.1980 N   0  0  0  0  0  0  0  0  0  0  0  0
  -34.0970  -20.8900   13.8180 O   0  0  0  0  0  0  0  0  0  0  0  0
  -34.3300  -21.1840   16.0270 N   0  0  0  0  0  0  0  0  0  0  0  0
  -34.2800  -20.7550   16.9420 H   0  0  0  0  0  0  0  0  0  0  0  0
  -30.8500  -17.8920   18.7120 C   0  0  0  0  0  0  0  0  0  0  0  0
  -30.7380  -16.8790   19.6290 C   0  0  0  0  0  0  0  0  0  0  0  0
  -31.5220  -15.7990   19.1220 C   0  0  0  0  0  0  0  0  0  0  0  0
  -31.6850  -17.4100   17.7150 N   0  0  0  0  0  0  0  0  0  0  0  0
  -32.1290  -16.1590   17.9990 N   0  0  0  0  0  0  0  0  0  0  0  0
  -31.6900  -14.4260   19.6190 C   0  0  0  0  0  0  0  0  0  0  0  0
  -32.9110  -13.9860   20.1750 C   0  0  0  0  0  3  0  0  0  0  0  0
  -33.0420  -12.6670   20.6610 C   0  0  0  0  0  3  0  0  0  0  0  0
  -31.9430  -11.7750   20.5990 C   0  0  0  0  0  0  0  0  0  0  0  0
  -30.7360  -12.2120   20.0220 C   0  0  0  0  0  3  0  0  0  0  0  0
  -30.6110  -13.5240   19.5360 C   0  0  0  0  0  3  0  0  0  0  0  0
  -31.9870  -10.4680   21.0200 O   0  0  0  0  0  0  0  0  0  0  0  0
  -32.9520  -10.0260   21.8890 C   0  0  0  0  0  0  0  0  0  0  0  0
  -32.8650  -10.2550   23.2800 C   0  0  0  0  0  3  0  0  0  0  0  0
  -33.8440   -9.7220   24.1420 C   0  0  0  0  0  3  0  0  0  0  0  0
  -34.9010   -8.9550   23.6190 C   0  0  0  0  0  0  0  0  0  0  0  0
  -34.9840   -8.7200   22.2350 C   0  0  0  0  0  3  0  0  0  0  0  0
  -34.0100   -9.2520   21.3740 C   0  0  0  0  0  0  0  0  0  0  0  0
  -34.0850   -9.0090   20.0430 F   0  0  0  0  0  0  0  0  0  0  0  0
  -35.8350   -8.4320   24.4490 F   0  0  0  0  0  0  0  0  0  0  0  0
  -29.8690  -16.8810   20.8530 C   0  0  0  0  0  0  0  0  0  0  0  0
  -30.4670  -16.7300   22.0310 N   0  0  0  0  0  0  0  0  0  0  0  0
  -28.6540  -17.0540   20.7790 O   0  0  0  0  0  0  0  0  0  0  0  0
  -31.4660  -16.6090   22.1070 H   0  0  0  0  0  0  0  0  0  0  0  0
  -29.9140  -16.7440   22.8750 H   0  0  0  0  0  0  0  0  0  0  0  0
  -30.3070  -19.1690   18.6360 N   0  0  0  0  0  0  0  0  0  0  0  0
  -29.6660  -19.5250   19.3370 H   0  0  0  0  0  0  0  0  0  0  0  0
  -30.4590  -19.8150   17.8720 H   0  0  0  0  0  0  0  0  0  0  0  0
  1  3  2  0
  2  1  1  0
  2  5  1  0
  4  2  1  0
  5  6  1  0
  6  7  1  0
  6  8  2  0
  7 10  1  0
  9  7  1  0
 10 11  1  0
 11 13  2  0
 12 11  1  0
 12 14  1  0
 15 12  1  0
 16 17  1  0
 16 15  1  0
 18 17  1  0
 19 18  1  0
 20 21  1  0
 20 19  1  0
 22 23  2  0
 22 21  1  0
 24 23  1  0
 25 24  1  0
 26 36  1  0
 27 25  1  0
 28 38  1  0
 28 35  1  0
 28 36  1  0
 29 34  2  0
 29 31  1  0
 30 31  1  0
 31 32  2  0
 32 27  1  0
 33 27  2  0
 34 33  1  0
 35 29  1  0
 36 30  1  0
 37 26  2  0
 38 40  2  0
 39 38  1  0
 41 39  1  0
 42 47  1  0
 42 46  1  0
 43 39  1  0
 43 44  1  0
 45 44  1  0
 46 45  1  0
 47 43  1  0
 48 47  2  0
 49 48  1  0
 50 49  2  0
 50 51  1  0
 51 42  2  0
 52 26  1  0
 52 53  1  0
 53 56  1  1
 53 55  1  0
 54 53  1  0
 57 52  1  0
 58 59  2  0
 58 57  1  0
 60 57  1  0
 62 61  1  0
 62 64  1  0
 62 58  1  0
 64 63  1  0
 65 64  1  0
 66  1  1  0
 67 69  2  0
 67 68  1  0
 68 66  1  0
 68 70  1  0
 71 67  1  0
 72 73  1  0
 73 75  1  0
 73 71  1  0
 74 72  2  0
 76 72  1  0
 76 78  1  0
 77 78  1  0
 77 81  1  0
 78 80  1  0
 79 77  2  0
 82 86  1  0
 82 84  2  0
 83 81  1  0
 83 82  1  0
 85 83  1  0
 86 95  1  0
 87 93  1  0
 87 95  1  0
 88 93  1  0
 89 88  1  0
 89 90  1  0
 91 90  1  0
 91 92  1  0
 91100  1  0
 93 92  1  0
 94 87  2  0
 95 96  1  0
 97 98  2  0
 98117  1  0
 99102  1  0
 99 98  1  0
100101  1  0
100 97  1  0
101 99  2  0
102103  1  0
103104  2  0
105104  1  0
105108  1  0
106105  2  0
107102  2  0
107106  1  0
108109  1  0
109110  1  0
110111  2  0
112111  1  0
112116  1  0
113112  2  0
114109  2  0
114113  1  0
115114  1  0
117118  1  0
118120  1  0
118121  1  0
119117  2  0
122 97  1  0
122123  1  0
124122  1  0
M  ISO  4  24 101  25 101  87 100  95 100
M  END
>  <TORSDO>  (63) 
F 39

>  <SCORE>  (63) 
-4.991

>  <name>  (63) 
72

>  <ligand_id>  (63) 
72

>  <original_smiles>  (63) 
[H]c1c([H])c([H])c2c(c1[H])C([H])([H])C([H])([H])C([H])([H])C2([H])N([H])C(=O)C1([H])N(C(=O)C([H])(N([H])C(=O)C([H])(N([H])C([H])([H])[H])C([H])([H])[H])C(C([H])([H])[H])(C([H])([H])[H])C([H])([H])[H])C([H])([H])c2c([H])c(OC([H])([H])C([H])([H])C([H])([H])C([H])([H])C([H])([H])C([H])([H])C([H])([H])C([H])([H])C([H])([H])C([H])([H])N([H])C(=O)C([H])([H])N([H])C(=O)C([H])([H])N([H])C(=O)C([H])([H])N([H])C(=O)C([H])([H])N([H])C(=O)C([H])([H])N([H])C(=O)C([H])([H])N([H])C(=O)C([H])([H])N([H])C(=O)N3C([H])([H])C([H])([H])C([H])([H])C([H])(n4nc(-c5c([H])c([H])c(Oc6c([H])c([H])c(F)c([H])c6F)c([H])c5[H])c(C(=O)N([H])[H])c4N([H])[H])C3([H])[H])c([H])c([H])c2C1([H])[H]

>  <smiles>  (63) 
[H]c1c([H])c([H])c2c(c1[H])C([H])([H])C([H])([H])C([H])([H])C2([H])N([H])C(=O)C1([H])N(C(=O)C([H])(N([H])C(=O)C([H])(N([H])C([H])([H])[H])C([H])([H])[H])C(C([H])([H])[H])(C([H])([H])[H])C([H])([H])[H])C([H])([H])c2c([H])c(OC([H])([H])C([H])([H])C([H])([H])C([H])([H])C([H])([H])C([H])([H])C([H])([H])C([H])([H])C([H])([H])C([H])([H])N([H])C(=O)C([H])([H])N([H])C(=O)C([H])([H])N([H])C(=O)C([H])([H])N([H])C(=O)C([H])([H])N([H])C(=O)C([H])([H])N([H])C(=O)C([H])([H])N([H])C(=O)C([H])([H])N([H])C(=O)N3C([H])([H])C([H])([H])C([H])([H])C([H])(n4nc(-c5c([H])c([H])c(Oc6c([H])c([H])c(F)c([H])c6F)c([H])c5[H])c(C(=O)N([H])[H])c4N([H])[H])C3([H])[H])c([H])c([H])c2C1([H])[H]

$$$$
73:0:0
     RDKit          3D

115122  0  0  1  0  0  0  0  0999 V2000
  -24.7210  -21.7160   26.3960 C   0  0  0  0  0  0  0  0  0  0  0  0
  -24.4860  -21.7520   27.7160 N   0  0  0  0  0  0  0  0  0  0  0  0
  -24.4530  -22.6560   25.6450 O   0  0  0  0  0  0  0  0  0  0  0  0
  -24.7340  -20.9300   28.2480 H   0  0  0  0  0  0  0  0  0  0  0  0
  -25.4010  -20.4550   25.8460 C   0  0  0  0  0  2  0  0  0  0  0  0
  -26.7480  -20.3270   26.3220 O   0  0  0  0  0  0  0  0  0  0  0  0
  -27.0240  -19.3090   27.2860 C   0  0  0  0  0  2  0  0  0  0  0  0
  -27.3990  -17.9640   26.6390 C   0  0  0  0  0  2  0  0  0  0  0  0
  -27.6110  -16.8640   27.6910 C   0  0  0  0  0  2  0  0  0  0  0  0
  -27.9060  -15.4810   27.0900 C   0  0  0  0  0  2  0  0  0  0  0  0
  -27.9900  -14.4010   28.1840 C   0  0  0  0  0  2  0  0  0  0  0  0
  -28.1590  -12.9620   27.6650 C   0  0  0  0  0  2  0  0  0  0  0  0
  -29.9360  -12.2370   26.0640 C   0  0  0  0  0  0  0  0  0  0  0  0
  -29.5320  -12.6750   27.2620 N   0  0  0  0  0  0  0  0  0  0  0  0
  -29.1730  -12.0920   25.1060 O   0  0  0  0  0  0  0  0  0  0  0  0
  -30.2490  -12.7590   27.9700 H   0  0  0  0  0  0  0  0  0  0  0  0
  -31.4290  -11.8960   25.9350 C   0  0  0  0  0  2  0  0  0  0  0  0
  -32.2650  -13.0540   26.0850 O   0  0  0  0  0  0  0  0  0  0  0  0
  -32.2820  -14.0150   25.0250 C   0  0  0  0  0  2  0  0  0  0  0  0
  -32.2870  -13.3470   23.6400 C   0  0  0  0  0  2  0  0  0  0  0  0
  -32.3380  -14.3110   22.4410 C   0  0  0  0  0  2  0  0  0  0  0  0
  -31.7060  -13.2660   20.2410 C   0  0  0  0  0  0  0  0  0  0  0  0
  -30.9950  -11.4980   18.6670 C   0  0  0  0  0  2  0  0  0  0  0  0
  -30.1130  -12.0200   17.5190 C   0  0  0  0  0  2  0  0  0  0  0  0
  -28.6320  -12.0790   17.9400 C   0  0  0  0  0  2  0  0  0  0  0  0
  -28.4400  -12.8100   19.2930 C   0  0  0  0  0  3  0  0  0  0  0  0
  -29.4030  -12.2400   20.3540 C   0  0  0  0  0  2  0  0  0  0  0  0
  -30.7830  -12.3590   19.8380 N   0  0  0  0  0  0  0  0  0  0  0  0
  -32.7670  -13.4810   19.6470 O   0  0  0  0  0  0  0  0  0  0  0  0
  -31.4170  -13.8090   21.4280 N   0  0  0  0  0  0  0  0  0  0  0  0
  -30.4880  -13.6010   21.7570 H   0  0  0  0  0  0  0  0  0  0  0  0
  -26.1070  -13.7580   19.8240 C   0  0  0  0  0  0  0  0  0  0  0  0
  -24.9500  -13.1560   20.2360 C   0  0  0  0  0  0  0  0  0  0  0  0
  -25.2570  -11.7690   20.3850 C   0  0  0  0  0  0  0  0  0  0  0  0
  -27.0520  -12.7480   19.7420 N   0  0  0  0  0  0  0  0  0  0  0  0
  -26.5420  -11.5530   20.1340 N   0  0  0  0  0  0  0  0  0  0  0  0
  -24.3900  -10.6250   20.6910 C   0  0  0  0  0  0  0  0  0  0  0  0
  -24.6970   -9.7260   21.7370 C   0  0  0  0  0  3  0  0  0  0  0  0
  -23.8380   -8.6410   22.0230 C   0  0  0  0  0  3  0  0  0  0  0  0
  -22.6600   -8.4500   21.2620 C   0  0  0  0  0  0  0  0  0  0  0  0
  -22.3730   -9.3320   20.2060 C   0  0  0  0  0  3  0  0  0  0  0  0
  -23.2310  -10.4090   19.9200 C   0  0  0  0  0  3  0  0  0  0  0  0
  -21.7800   -7.4110   21.4510 O   0  0  0  0  0  0  0  0  0  0  0  0
  -21.6360   -6.8040   22.6720 C   0  0  0  0  0  0  0  0  0  0  0  0
  -21.2870   -7.5320   23.8300 C   0  0  0  0  0  3  0  0  0  0  0  0
  -21.0820   -6.8570   25.0510 C   0  0  0  0  0  3  0  0  0  0  0  0
  -21.2170   -5.4560   25.1130 C   0  0  0  0  0  0  0  0  0  0  0  0
  -21.5600   -4.7310   23.9590 C   0  0  0  0  0  3  0  0  0  0  0  0
  -21.7660   -5.4020   22.7430 C   0  0  0  0  0  0  0  0  0  0  0  0
  -22.0760   -4.6950   21.6280 F   0  0  0  0  0  0  0  0  0  0  0  0
  -21.0130   -4.8080   26.2840 F   0  0  0  0  0  0  0  0  0  0  0  0
  -23.6080  -13.8090   20.3970 C   0  0  0  0  0  0  0  0  0  0  0  0
  -22.7990  -13.3250   21.3330 N   0  0  0  0  0  0  0  0  0  0  0  0
  -23.2870  -14.7880   19.7240 O   0  0  0  0  0  0  0  0  0  0  0  0
  -23.0720  -12.5320   21.8970 H   0  0  0  0  0  0  0  0  0  0  0  0
  -21.8950  -13.7500   21.4900 H   0  0  0  0  0  0  0  0  0  0  0  0
  -26.4310  -15.0720   19.4980 N   0  0  0  0  0  0  0  0  0  0  0  0
  -25.7470  -15.8190   19.4940 H   0  0  0  0  0  0  0  0  0  0  0  0
  -27.3430  -15.3720   19.1800 H   0  0  0  0  0  0  0  0  0  0  0  0
  -23.8920  -22.8510   28.4780 C   0  0  0  0  0  2  0  0  0  0  0  0
  -24.7430  -24.1320   28.4840 C   0  0  0  0  0  0  0  0  0  0  0  0
  -24.6310  -24.9260   27.4140 N   0  0  0  0  0  0  0  0  0  0  0  0
  -25.4820  -24.3920   29.4340 O   0  0  0  0  0  0  0  0  0  0  0  0
  -24.0580  -24.5680   26.6510 H   0  0  0  0  0  0  0  0  0  0  0  0
  -25.3040  -26.2050   27.1970 C   0  0  0  0  0  2  0  0  0  0  0  0
  -26.1110  -26.2470   25.8920 C   0  0  0  0  0  0  0  0  0  0  0  0
  -26.4670  -25.0790   25.3440 N   0  0  0  0  0  0  0  0  0  0  0  0
  -26.3920  -27.3340   25.3850 O   0  0  0  0  0  0  0  0  0  0  0  0
  -26.1640  -24.2460   25.8260 H   0  0  0  0  0  0  0  0  0  0  0  0
  -27.2430  -24.9030   24.1210 C   0  0  0  0  0  2  0  0  0  0  0  0
  -26.3790  -24.2750   23.0160 C   0  0  0  0  0  2  0  0  0  0  0  0
  -27.0630  -24.2650   21.7680 O   0  0  0  0  0  0  0  0  0  0  0  0
  -27.0420  -25.5380   21.1360 C   0  0  0  0  0  2  0  0  0  0  0  0
  -27.5500  -25.4610   19.6820 C   0  0  0  0  0  2  0  0  0  0  0  0
  -27.5020  -26.7360   19.0450 O   0  0  0  0  0  0  0  0  0  0  0  0
  -24.6550  -31.7470   23.1700 C   0  0  0  0  0  0  0  0  0  0  0  0
  -26.3850  -27.4980   19.2920 C   0  0  0  0  0  0  0  0  0  0  0  0
  -23.0770  -30.5850   21.6540 C   0  0  0  0  0  3  0  0  0  0  0  0
  -24.1410  -29.1010   19.8750 C   0  0  0  0  0  0  0  0  0  0  0  0
  -25.5500  -30.8070   21.0450 C   0  0  0  0  0  2  0  0  0  0  0  0
  -25.4150  -29.5080   20.2810 C   0  0  0  0  0  0  0  0  0  0  0  0
  -26.5420  -28.7180   19.9800 C   0  0  0  0  0  3  0  0  0  0  0  0
  -25.0920  -27.0830   18.9010 C   0  0  0  0  0  3  0  0  0  0  0  0
  -23.9710  -27.8830   19.1860 C   0  0  0  0  0  3  0  0  0  0  0  0
  -22.9920  -30.0210   20.2090 C   0  0  0  0  0  2  0  0  0  0  0  0
  -24.4560  -31.0530   22.0120 N   0  0  0  0  0  0  0  0  0  0  0  0
  -23.7070  -32.0380   23.9120 O   0  0  0  0  0  0  0  0  0  0  0  0
  -22.5170  -29.5270   22.6310 C   0  0  0  0  0  0  0  0  0  0  0  0
  -21.1940  -29.3120   22.5790 N   0  0  0  0  0  0  0  0  0  0  0  0
  -23.2670  -28.9010   23.3830 O   0  0  0  0  0  0  0  0  0  0  0  0
  -20.6490  -29.8810   21.9450 H   0  0  0  0  0  0  0  0  0  0  0  0
  -17.9190  -27.8810   23.1000 C   0  0  0  0  0  0  0  0  0  0  0  0
  -20.4490  -28.3350   23.3720 C   0  0  0  0  0  3  0  0  0  0  0  0
  -20.6590  -26.9010   22.8310 C   0  0  0  0  0  2  0  0  0  0  0  0
  -19.5900  -26.4720   21.8230 C   0  0  0  0  0  2  0  0  0  0  0  0
  -18.1990  -26.5290   22.4620 C   0  0  0  0  0  2  0  0  0  0  0  0
  -18.9770  -28.7340   23.5130 C   0  0  0  0  0  0  0  0  0  0  0  0
  -18.6620  -29.9930   24.0670 C   0  0  0  0  0  3  0  0  0  0  0  0
  -17.3230  -30.3990   24.2190 C   0  0  0  0  0  3  0  0  0  0  0  0
  -16.2810  -29.5430   23.8270 C   0  0  0  0  0  3  0  0  0  0  0  0
  -16.5790  -28.2870   23.2690 C   0  0  0  0  0  3  0  0  0  0  0  0
  -26.0780  -32.2220   23.6040 C   0  0  0  0  0  3  0  0  0  0  0  0
  -25.9550  -33.6040   24.0880 N   0  0  0  0  0  0  0  0  0  0  0  0
  -26.2720  -34.6900   23.3710 C   0  0  0  0  0  0  0  0  0  0  0  0
  -26.7750  -34.6290   22.2450 O   0  0  0  0  0  0  0  0  0  0  0  0
  -25.4950  -33.7310   24.9760 H   0  0  0  0  0  0  0  0  0  0  0  0
  -24.6800  -36.6370   23.4190 C   0  0  0  0  0  1  0  0  0  0  0  0
  -25.9810  -36.0650   24.0020 C   0  0  0  0  0  3  0  0  0  0  0  0
  -28.2840  -36.7010   24.5660 C   0  0  0  0  0  1  0  0  0  0  0  0
  -27.0770  -37.0410   23.8210 N   0  0  0  0  0  0  0  0  0  0  0  0
  -26.7810  -37.9740   24.1020 H   0  0  0  0  0  0  0  0  0  0  0  0
  -26.7330  -31.2980   24.7050 C   0  0  1  0  0  0  0  0  0  0  0  0
  -25.8240  -31.0410   25.9290 C   0  0  0  0  0  1  0  0  0  0  0  0
  -27.1260  -29.9270   24.1080 C   0  0  0  0  0  1  0  0  0  0  0  0
  -28.0360  -31.9520   25.2210 C   0  0  0  0  0  1  0  0  0  0  0  0
  1  2  1  0
  2  4  1  0
  2 60  1  0
  3  1  2  0
  5  6  1  0
  5  1  1  0
  6  7  1  0
  8  7  1  0
  8  9  1  0
 10  9  1  0
 10 11  1  0
 12 11  1  0
 13 14  1  0
 14 12  1  0
 14 16  1  0
 15 13  2  0
 17 13  1  0
 17 18  1  0
 19 18  1  0
 20 19  1  0
 21 20  1  0
 22 30  1  0
 23 28  1  0
 24 25  1  0
 24 23  1  0
 26 25  1  0
 26 35  1  0
 26 27  1  0
 28 22  1  0
 28 27  1  0
 29 22  2  0
 30 31  1  0
 30 21  1  0
 32 33  2  0
 33 34  1  0
 33 52  1  0
 34 37  1  0
 35 32  1  0
 35 36  1  0
 36 34  2  0
 37 38  1  0
 38 39  2  0
 40 43  1  0
 40 39  1  0
 41 40  2  0
 42 41  1  0
 42 37  2  0
 43 44  1  0
 44 49  2  0
 44 45  1  0
 45 46  2  0
 46 47  1  0
 47 51  1  0
 48 47  2  0
 49 48  1  0
 50 49  1  0
 52 53  1  0
 53 56  1  0
 53 55  1  0
 54 52  2  0
 57 32  1  0
 58 57  1  0
 59 57  1  0
 60 61  1  0
 61 63  2  0
 62 61  1  0
 64 62  1  0
 65 62  1  0
 66 65  1  0
 67 69  1  0
 67 66  1  0
 68 66  2  0
 70 67  1  0
 71 70  1  0
 72 71  1  0
 73 72  1  0
 74 73  1  0
 75 77  1  0
 75 74  1  0
 76 87  2  0
 77 82  1  0
 78 86  1  0
 78 88  1  0
 79 85  1  0
 79 81  1  0
 80 86  1  0
 81 80  1  0
 82 81  2  0
 83 84  1  0
 83 77  2  0
 84 79  2  0
 85 78  1  0
 86 76  1  0
 88 90  2  0
 89 88  1  0
 91 89  1  0
 92101  2  0
 92 97  1  0
 93 89  1  0
 93 97  1  0
 94 93  1  0
 95 96  1  0
 95 94  1  0
 96 92  1  0
 97 98  2  0
 98 99  1  0
100 99  2  0
101100  1  0
102 76  1  0
102103  1  0
102112  1  0
103106  1  0
104108  1  0
104103  1  0
105104  2  0
108107  1  0
110108  1  0
110111  1  0
110109  1  0
112115  1  1
112113  1  0
114112  1  0
M  ISO  4  22 100  30 100  74 101  75 101
M  END
>  <TORSDO>  (64) 
F 39

>  <SCORE>  (64) 
53.121

>  <name>  (64) 
73

>  <ligand_id>  (64) 
73

>  <original_smiles>  (64) 
[H]c1c([H])c([H])c2c(c1[H])C([H])([H])C([H])([H])C([H])([H])C2([H])N([H])C(=O)C1([H])N(C(=O)C([H])(N([H])C(=O)C([H])(N([H])C([H])([H])[H])C([H])([H])[H])C(C([H])([H])[H])(C([H])([H])[H])C([H])([H])[H])C([H])([H])c2c([H])c(OC([H])([H])C([H])([H])OC([H])([H])C([H])([H])N([H])C(=O)C([H])([H])N([H])C(=O)C([H])([H])N([H])C(=O)C([H])([H])OC([H])([H])C([H])([H])C([H])([H])C([H])([H])C([H])([H])C([H])([H])N([H])C(=O)C([H])([H])OC([H])([H])C([H])([H])C([H])([H])N([H])C(=O)N3C([H])([H])C([H])([H])C([H])([H])C([H])(n4nc(-c5c([H])c([H])c(Oc6c([H])c([H])c(F)c([H])c6F)c([H])c5[H])c(C(=O)N([H])[H])c4N([H])[H])C3([H])[H])c([H])c([H])c2C1([H])[H]

>  <smiles>  (64) 
[H]c1c([H])c([H])c2c(c1[H])C([H])([H])C([H])([H])C([H])([H])C2([H])N([H])C(=O)C1([H])N(C(=O)C([H])(N([H])C(=O)C([H])(N([H])C([H])([H])[H])C([H])([H])[H])C(C([H])([H])[H])(C([H])([H])[H])C([H])([H])[H])C([H])([H])c2c([H])c(OC([H])([H])C([H])([H])OC([H])([H])C([H])([H])N([H])C(=O)C([H])([H])N([H])C(=O)C([H])([H])N([H])C(=O)C([H])([H])OC([H])([H])C([H])([H])C([H])([H])C([H])([H])C([H])([H])C([H])([H])N([H])C(=O)C([H])([H])OC([H])([H])C([H])([H])C([H])([H])N([H])C(=O)N3C([H])([H])C([H])([H])C([H])([H])C([H])(n4nc(-c5c([H])c([H])c(Oc6c([H])c([H])c(F)c([H])c6F)c([H])c5[H])c(C(=O)N([H])[H])c4N([H])[H])C3([H])[H])c([H])c([H])c2C1([H])[H]

$$$$
74:0:0
     RDKit          3D

127135  0  0  1  0  0  0  0  0999 V2000
  -24.7880  -20.5830   23.5110 C   0  0  0  0  0  0  0  0  0  0  0  0
  -25.3620  -20.0560   24.5980 N   0  0  0  0  0  0  0  0  0  0  0  0
  -25.4250  -20.7790   22.4710 O   0  0  0  0  0  0  0  0  0  0  0  0
  -24.8160  -19.9630   25.4440 H   0  0  0  0  0  0  0  0  0  0  0  0
  -26.7000  -19.4840   24.5650 C   0  0  0  0  0  2  0  0  0  0  0  0
  -27.1340  -18.8460   25.8830 C   0  0  0  0  0  2  0  0  0  0  0  0
  -28.1420  -17.9010   25.5380 O   0  0  0  0  0  0  0  0  0  0  0  0
  -27.9530  -16.6150   26.1050 C   0  0  0  0  0  2  0  0  0  0  0  0
  -26.7380  -15.8930   25.4930 C   0  0  0  0  0  2  0  0  0  0  0  0
  -27.1060  -15.1840   24.3200 O   0  0  0  0  0  0  0  0  0  0  0  0
  -26.4620  -15.6060   23.1250 C   0  0  0  0  0  2  0  0  0  0  0  0
  -27.3710  -16.5390   22.3070 C   0  0  0  0  0  2  0  0  0  0  0  0
  -26.6880  -17.5470   21.5560 O   0  0  0  0  0  0  0  0  0  0  0  0
  -27.5850  -18.5120   20.9950 C   0  0  0  0  0  2  0  0  0  0  0  0
  -26.9630  -19.2480   19.7900 C   0  0  0  0  0  2  0  0  0  0  0  0
  -29.8500  -20.9260   17.8320 C   0  0  0  0  0  2  0  0  0  0  0  0
  -30.1060  -22.2400   18.5960 C   0  0  0  0  0  2  0  0  0  0  0  0
  -27.7490  -22.7010   18.2110 C   0  0  0  0  0  2  0  0  0  0  0  0
  -29.0850  -19.8450   18.6110 C   0  0  0  0  0  2  0  0  0  0  0  0
  -27.0580  -21.3140   18.4100 C   0  0  0  0  0  2  0  0  0  0  0  0
  -28.9010  -22.9140   19.1160 N   0  0  0  0  0  0  0  0  0  0  0  0
  -27.8270  -20.3430   19.2460 N   0  0  1  0  0  4  0  0  0  0  0  0
  -28.1210  -20.9090   20.0300 H   0  0  0  0  0  0  0  0  0  0  0  0
  -29.2940  -24.3260   19.3830 C   0  0  0  0  0  2  0  0  0  0  0  0
  -28.1070  -25.2990   19.4940 C   0  0  0  0  0  2  0  0  0  0  0  0
  -28.3270  -26.6290   20.0040 O   0  0  0  0  0  0  0  0  0  0  0  0
  -24.6230  -31.8770   23.2200 C   0  0  0  0  0  0  0  0  0  0  0  0
  -27.1840  -27.4210   20.0370 C   0  0  0  0  0  0  0  0  0  0  0  0
  -23.3990  -30.5140   21.5760 C   0  0  0  0  0  3  0  0  0  0  0  0
  -24.8190  -28.9910   20.1200 C   0  0  0  0  0  0  0  0  0  0  0  0
  -25.9400  -30.8260   21.3790 C   0  0  0  0  0  2  0  0  0  0  0  0
  -25.9980  -29.4680   20.7070 C   0  0  0  0  0  0  0  0  0  0  0  0
  -27.1850  -28.6940   20.6620 C   0  0  0  0  0  3  0  0  0  0  0  0
  -25.9670  -26.9800   19.4510 C   0  0  0  0  0  3  0  0  0  0  0  0
  -24.8010  -27.7460   19.4920 C   0  0  0  0  0  3  0  0  0  0  0  0
  -23.5920  -29.8690   20.1850 C   0  0  0  0  0  2  0  0  0  0  0  0
  -24.6740  -31.0830   22.1150 N   0  0  0  0  0  0  0  0  0  0  0  0
  -23.5430  -32.1570   23.7590 O   0  0  0  0  0  0  0  0  0  0  0  0
  -22.7420  -29.4750   22.5120 C   0  0  0  0  0  0  0  0  0  0  0  0
  -21.4160  -29.3110   22.3760 N   0  0  0  0  0  0  0  0  0  0  0  0
  -23.4190  -28.8290   23.3150 O   0  0  0  0  0  0  0  0  0  0  0  0
  -20.9430  -29.8770   21.6860 H   0  0  0  0  0  0  0  0  0  0  0  0
  -18.0210  -28.1470   22.8550 C   0  0  0  0  0  0  0  0  0  0  0  0
  -20.5800  -28.3810   23.1370 C   0  0  0  0  0  3  0  0  0  0  0  0
  -20.6650  -26.9550   22.5580 C   0  0  0  0  0  2  0  0  0  0  0  0
  -19.5640  -26.6380   21.5390 C   0  0  0  0  0  2  0  0  0  0  0  0
  -18.1850  -26.7990   22.1750 C   0  0  0  0  0  2  0  0  0  0  0  0
  -19.1460  -28.8960   23.2930 C   0  0  0  0  0  0  0  0  0  0  0  0
  -18.9380  -30.1550   23.8940 C   0  0  0  0  0  3  0  0  0  0  0  0
  -17.6380  -30.6680   24.0590 C   0  0  0  0  0  3  0  0  0  0  0  0
  -16.5270  -29.9170   23.6340 C   0  0  0  0  0  3  0  0  0  0  0  0
  -16.7200  -28.6560   23.0420 C   0  0  0  0  0  3  0  0  0  0  0  0
  -25.9140  -32.4840   23.8480 C   0  0  0  0  0  3  0  0  0  0  0  0
  -26.4480  -31.6600   25.0820 C   0  0  1  0  0  0  0  0  0  0  0  0
  -25.3700  -31.3710   26.1550 C   0  0  0  0  0  1  0  0  0  0  0  0
  -27.0290  -30.3040   24.6170 C   0  0  0  0  0  1  0  0  0  0  0  0
  -27.6050  -32.4310   25.7540 C   0  0  0  0  0  1  0  0  0  0  0  0
  -25.5970  -33.8650   24.2370 N   0  0  0  0  0  0  0  0  0  0  0  0
  -25.9070  -34.9490   23.5160 C   0  0  0  0  0  0  0  0  0  0  0  0
  -26.5640  -34.8940   22.4730 O   0  0  0  0  0  0  0  0  0  0  0  0
  -25.0040  -33.9790   25.0470 H   0  0  0  0  0  0  0  0  0  0  0  0
  -24.1480  -36.7330   23.2640 C   0  0  0  0  0  1  0  0  0  0  0  0
  -25.4110  -36.3130   24.0340 C   0  0  0  0  0  3  0  0  0  0  0  0
  -27.5590  -37.1850   24.8490 C   0  0  0  0  0  1  0  0  0  0  0  0
  -26.4300  -37.3810   23.9430 N   0  0  0  0  0  0  0  0  0  0  0  0
  -26.0190  -38.2920   24.1300 H   0  0  0  0  0  0  0  0  0  0  0  0
  -23.2900  -20.9040   23.6000 C   0  0  0  0  0  2  0  0  0  0  0  0
  -22.3620  -21.7500   21.4230 C   0  0  0  0  0  0  0  0  0  0  0  0
  -22.8930  -21.9270   22.6350 N   0  0  0  0  0  0  0  0  0  0  0  0
  -21.9810  -20.6490   21.0260 O   0  0  0  0  0  0  0  0  0  0  0  0
  -23.1980  -22.8680   22.8460 H   0  0  0  0  0  0  0  0  0  0  0  0
  -22.2130  -22.9810   20.5080 C   0  0  0  0  0  2  0  0  0  0  0  0
  -22.3950  -24.3640   21.1830 C   0  0  0  0  0  2  0  0  0  0  0  0
  -23.8200  -24.9550   21.2880 C   0  0  0  0  0  2  0  0  0  0  0  0
  -24.7810  -24.3230   22.3080 C   0  0  0  0  0  2  0  0  0  0  0  0
  -25.7390  -25.3320   22.9600 C   0  0  0  0  0  2  0  0  0  0  0  0
  -26.9840  -23.8290   24.5450 C   0  0  0  0  0  0  0  0  0  0  0  0
  -26.9230  -24.6960   23.5270 N   0  0  0  0  0  0  0  0  0  0  0  0
  -25.9910  -23.3740   25.1140 O   0  0  0  0  0  0  0  0  0  0  0  0
  -27.8200  -24.9650   23.1400 H   0  0  0  0  0  0  0  0  0  0  0  0
  -28.3940  -23.4500   25.0100 C   0  0  0  0  0  2  0  0  0  0  0  0
  -29.3160  -23.4370   23.9180 O   0  0  0  0  0  0  0  0  0  0  0  0
  -29.3600  -22.2030   23.2050 C   0  0  0  0  0  2  0  0  0  0  0  0
  -30.7240  -22.0900   22.5180 C   0  0  0  0  0  2  0  0  0  0  0  0
  -31.0030  -20.6910   21.9510 C   0  0  0  0  0  2  0  0  0  0  0  0
  -31.1440  -19.8040   23.0530 O   0  0  0  0  0  0  0  0  0  0  0  0
  -31.8620  -18.6040   22.7920 C   0  0  0  0  0  2  0  0  0  0  0  0
  -30.9650  -17.5310   22.1500 C   0  0  0  0  0  2  0  0  0  0  0  0
  -31.4820  -16.0920   22.3570 C   0  0  0  0  0  2  0  0  0  0  0  0
  -30.8260  -14.3580   20.6970 C   0  0  0  0  0  0  0  0  0  0  0  0
  -30.4030  -12.2840   19.4320 C   0  0  0  0  0  2  0  0  0  0  0  0
  -29.5000  -12.5640   18.2180 C   0  0  0  0  0  2  0  0  0  0  0  0
  -28.0250  -12.3860   18.6210 C   0  0  0  0  0  2  0  0  0  0  0  0
  -27.6620  -13.2180   19.8790 C   0  0  0  0  0  3  0  0  0  0  0  0
  -28.7050  -13.0030   21.0090 C   0  0  0  0  0  2  0  0  0  0  0  0
  -30.0580  -13.2580   20.4800 N   0  0  0  0  0  0  0  0  0  0  0  0
  -31.7880  -14.6500   19.9830 O   0  0  0  0  0  0  0  0  0  0  0  0
  -30.5790  -15.0610   21.8120 N   0  0  0  0  0  0  0  0  0  0  0  0
  -29.8080  -14.7490   22.3890 H   0  0  0  0  0  0  0  0  0  0  0  0
  -25.2220  -13.8010   20.4940 C   0  0  0  0  0  0  0  0  0  0  0  0
  -24.1680  -13.0370   20.9000 C   0  0  0  0  0  0  0  0  0  0  0  0
  -24.6310  -11.6840   20.8720 C   0  0  0  0  0  0  0  0  0  0  0  0
  -26.2920  -12.9340   20.3200 N   0  0  0  0  0  0  0  0  0  0  0  0
  -25.9290  -11.6510   20.5860 N   0  0  0  0  0  0  0  0  0  0  0  0
  -23.9000  -10.4260   21.0420 C   0  0  0  0  0  0  0  0  0  0  0  0
  -24.3570   -9.4190   21.9210 C   0  0  0  0  0  3  0  0  0  0  0  0
  -23.6270   -8.2230   22.0780 C   0  0  0  0  0  3  0  0  0  0  0  0
  -22.4240   -8.0260   21.3580 C   0  0  0  0  0  0  0  0  0  0  0  0
  -21.9850   -9.0210   20.4680 C   0  0  0  0  0  3  0  0  0  0  0  0
  -22.7170  -10.2070   20.3080 C   0  0  0  0  0  3  0  0  0  0  0  0
  -21.6620   -6.8850   21.4260 O   0  0  0  0  0  0  0  0  0  0  0  0
  -21.6830   -6.0730   22.5300 C   0  0  0  0  0  0  0  0  0  0  0  0
  -21.3980   -6.5650   23.8220 C   0  0  0  0  0  3  0  0  0  0  0  0
  -21.3690   -5.6800   24.9180 C   0  0  0  0  0  3  0  0  0  0  0  0
  -21.6070   -4.3070   24.7220 C   0  0  0  0  0  0  0  0  0  0  0  0
  -21.8810   -3.8170   23.4330 C   0  0  0  0  0  3  0  0  0  0  0  0
  -21.9190   -4.6970   22.3400 C   0  0  0  0  0  0  0  0  0  0  0  0
  -22.1630   -4.2180   21.0960 F   0  0  0  0  0  0  0  0  0  0  0  0
  -21.5680   -3.4530   25.7720 F   0  0  0  0  0  0  0  0  0  0  0  0
  -22.7740  -13.5120   21.1930 C   0  0  0  0  0  0  0  0  0  0  0  0
  -22.0470  -12.8090   22.0530 N   0  0  0  0  0  0  0  0  0  0  0  0
  -22.3370  -14.5510   20.6920 O   0  0  0  0  0  0  0  0  0  0  0  0
  -22.4100  -11.9720   22.4880 H   0  0  0  0  0  0  0  0  0  0  0  0
  -21.1110  -13.1110   22.2890 H   0  0  0  0  0  0  0  0  0  0  0  0
  -25.3580  -15.1650   20.2480 N   0  0  0  0  0  0  0  0  0  0  0  0
  -24.5760  -15.8060   20.3370 H   0  0  0  0  0  0  0  0  0  0  0  0
  -26.1730  -15.5960   19.8390 H   0  0  0  0  0  0  0  0  0  0  0  0
  1 67  1  0
  1  2  1  0
  2  4  1  0
  3  1  2  0
  5  2  1  0
  5  6  1  0
  7  6  1  0
  7  8  1  0
  9  8  1  0
 10  9  1  0
 11 10  1  0
 12 11  1  0
 13 12  1  0
 14 13  1  0
 15 14  1  0
 16 17  1  0
 16 19  1  0
 17 21  1  0
 18 20  1  0
 18 21  1  0
 19 22  1  0
 20 22  1  0
 21 24  1  0
 22 15  1  0
 22 23  1  1
 24 25  1  0
 25 26  1  0
 26 28  1  0
 27 38  2  0
 28 33  1  0
 29 37  1  0
 29 39  1  0
 30 36  1  0
 30 32  1  0
 31 37  1  0
 32 31  1  0
 33 32  2  0
 34 35  1  0
 34 28  2  0
 35 30  2  0
 36 29  1  0
 37 27  1  0
 39 41  2  0
 40 39  1  0
 42 40  1  0
 43 52  2  0
 43 48  1  0
 44 40  1  0
 44 48  1  0
 45 44  1  0
 46 47  1  0
 46 45  1  0
 47 43  1  0
 48 49  2  0
 49 50  1  0
 51 50  2  0
 52 51  1  0
 53 27  1  0
 53 58  1  0
 53 54  1  0
 54 57  1  1
 54 55  1  0
 56 54  1  0
 58 61  1  0
 59 63  1  0
 59 58  1  0
 60 59  2  0
 63 62  1  0
 65 63  1  0
 65 66  1  0
 65 64  1  0
 68 69  1  0
 69 71  1  0
 69 67  1  0
 70 68  2  0
 72 73  1  0
 72 68  1  0
 73 74  1  0
 74 75  1  0
 75 76  1  0
 76 78  1  0
 77 81  1  0
 77 79  2  0
 78 77  1  0
 80 78  1  0
 82 81  1  0
 83 82  1  0
 84 83  1  0
 85 84  1  0
 85 86  1  0
 87 86  1  0
 88 89  1  0
 88 87  1  0
 90 98  1  0
 91 96  1  0
 92 93  1  0
 92 91  1  0
 94 93  1  0
 94103  1  0
 94 95  1  0
 96 90  1  0
 96 95  1  0
 97 90  2  0
 98 89  1  0
 98 99  1  0
100101  2  0
101120  1  0
102101  1  0
102105  1  0
103100  1  0
103104  1  0
104102  2  0
105106  1  0
106107  2  0
108111  1  0
108107  1  0
109108  2  0
110109  1  0
110105  2  0
111112  1  0
112113  1  0
113114  2  0
115114  1  0
115119  1  0
116115  2  0
117112  2  0
117116  1  0
118117  1  0
120121  1  0
121124  1  0
121123  1  0
122120  2  0
125126  1  0
125100  1  0
127125  1  0
M  ISO  4  25 101  26 101  90 100  98 100
M  END
>  <TORSDO>  (65) 
F 47

>  <SCORE>  (65) 
60.556

>  <name>  (65) 
74

>  <ligand_id>  (65) 
74

>  <original_smiles>  (65) 
[H]c1c([H])c([H])c2c(c1[H])C([H])([H])C([H])([H])C([H])([H])C2([H])N([H])C(=O)C1([H])N(C(=O)C([H])(N([H])C(=O)C([H])(N([H])C([H])([H])[H])C([H])([H])[H])C(C([H])([H])[H])(C([H])([H])[H])C([H])([H])[H])C([H])([H])c2c([H])c(OC([H])([H])C([H])([H])N3C([H])([H])C([H])([H])C([H])([H])[N+]([H])(C([H])([H])C([H])([H])OC([H])([H])C([H])([H])OC([H])([H])C([H])([H])OC([H])([H])C([H])([H])N([H])C(=O)C([H])([H])N([H])C(=O)C([H])([H])C([H])([H])C([H])([H])C([H])([H])C([H])([H])N([H])C(=O)C([H])([H])OC([H])([H])C([H])([H])C([H])([H])OC([H])([H])C([H])([H])C([H])([H])N([H])C(=O)N4C([H])([H])C([H])([H])C([H])([H])C([H])(n5nc(-c6c([H])c([H])c(Oc7c([H])c([H])c(F)c([H])c7F)c([H])c6[H])c(C(=O)N([H])[H])c5N([H])[H])C4([H])[H])C([H])([H])C3([H])[H])c([H])c([H])c2C1([H])[H]

>  <smiles>  (65) 
[H]c1c([H])c([H])c2c(c1[H])C([H])([H])C([H])([H])C([H])([H])C2([H])N([H])C(=O)C1([H])N(C(=O)C([H])(N([H])C(=O)C([H])(N([H])C([H])([H])[H])C([H])([H])[H])C(C([H])([H])[H])(C([H])([H])[H])C([H])([H])[H])C([H])([H])c2c([H])c(OC([H])([H])C([H])([H])N3C([H])([H])C([H])([H])C([H])([H])[N+]([H])(C([H])([H])C([H])([H])OC([H])([H])C([H])([H])OC([H])([H])C([H])([H])OC([H])([H])C([H])([H])N([H])C(=O)C([H])([H])N([H])C(=O)C([H])([H])C([H])([H])C([H])([H])C([H])([H])C([H])([H])N([H])C(=O)C([H])([H])OC([H])([H])C([H])([H])C([H])([H])OC([H])([H])C([H])([H])C([H])([H])N([H])C(=O)N4C([H])([H])C([H])([H])C([H])([H])C([H])(n5nc(-c6c([H])c([H])c(Oc7c([H])c([H])c(F)c([H])c7F)c([H])c6[H])c(C(=O)N([H])[H])c5N([H])[H])C4([H])[H])C([H])([H])C3([H])[H])c([H])c([H])c2C1([H])[H]

$$$$
77:0:0
     RDKit          3D

122129  0  0  1  0  0  0  0  0999 V2000
  -31.2900  -21.6290   24.3180 C   0  0  0  0  0  0  0  0  0  0  0  0
  -32.2920  -20.7800   24.0580 N   0  0  0  0  0  0  0  0  0  0  0  0
  -31.4750  -22.7630   24.7680 O   0  0  0  0  0  0  0  0  0  0  0  0
  -32.0560  -19.8710   23.6870 H   0  0  0  0  0  0  0  0  0  0  0  0
  -29.8670  -21.1480   23.9810 C   0  0  0  0  0  2  0  0  0  0  0  0
  -29.3910  -21.7730   22.7850 O   0  0  0  0  0  0  0  0  0  0  0  0
  -30.2870  -21.7130   21.6750 C   0  0  0  0  0  2  0  0  0  0  0  0
  -29.7620  -22.5850   20.5280 C   0  0  0  0  0  2  0  0  0  0  0  0
  -29.7290  -24.0800   20.8900 C   0  0  0  0  0  2  0  0  0  0  0  0
  -29.2330  -24.9870   19.7490 C   0  0  0  0  0  2  0  0  0  0  0  0
  -30.7160  -24.5000   17.8030 C   0  0  0  0  0  0  0  0  0  0  0  0
  -29.5300  -24.4410   18.4250 N   0  0  0  0  0  0  0  0  0  0  0  0
  -31.7280  -24.9640   18.3310 O   0  0  0  0  0  0  0  0  0  0  0  0
  -28.7560  -24.0440   17.9080 H   0  0  0  0  0  0  0  0  0  0  0  0
  -30.7780  -23.9490   16.3660 C   0  0  0  0  0  2  0  0  0  0  0  0
  -31.3590  -22.6410   16.3100 O   0  0  0  0  0  0  0  0  0  0  0  0
  -31.1740  -21.8580   17.4860 C   0  0  0  0  0  2  0  0  0  0  0  0
  -31.6660  -20.4120   17.2930 C   0  0  0  0  0  2  0  0  0  0  0  0
  -30.8110  -19.5400   16.3700 C   0  0  0  0  0  2  0  0  0  0  0  0
  -29.4900  -20.0670   16.3200 O   0  0  0  0  0  0  0  0  0  0  0  0
  -28.4560  -19.1200   16.5620 C   0  0  0  0  0  2  0  0  0  0  0  0
  -27.7010  -19.4050   17.8780 C   0  0  0  0  0  2  0  0  0  0  0  0
  -26.2930  -19.9920   17.6930 C   0  0  0  0  0  2  0  0  0  0  0  0
  -26.3290  -21.4040   17.8330 O   0  0  0  0  0  0  0  0  0  0  0  0
  -25.0530  -22.0110   17.7050 C   0  0  0  0  0  2  0  0  0  0  0  0
  -24.9980  -23.2140   18.6510 C   0  0  0  0  0  2  0  0  0  0  0  0
  -25.5480  -24.5150   18.0320 C   0  0  0  0  0  2  0  0  0  0  0  0
  -24.9270  -26.0720   16.1650 C   0  0  0  0  0  0  0  0  0  0  0  0
  -24.8990  -26.8310   13.8200 C   0  0  0  0  0  2  0  0  0  0  0  0
  -23.8850  -27.9390   13.5010 C   0  0  0  0  0  2  0  0  0  0  0  0
  -22.5030  -27.3420   13.1820 C   0  0  0  0  0  2  0  0  0  0  0  0
  -22.0410  -26.3230   14.2550 C   0  0  0  0  0  3  0  0  0  0  0  0
  -23.1500  -25.2950   14.5670 C   0  0  0  0  0  2  0  0  0  0  0  0
  -24.3880  -26.0100   14.9250 N   0  0  0  0  0  0  0  0  0  0  0  0
  -25.6530  -26.9920   16.5490 O   0  0  0  0  0  0  0  0  0  0  0  0
  -24.8000  -24.9220   16.8430 N   0  0  0  0  0  0  0  0  0  0  0  0
  -24.2250  -24.2180   16.4020 H   0  0  0  0  0  0  0  0  0  0  0  0
  -19.7610  -25.1880   14.6430 C   0  0  0  0  0  0  0  0  0  0  0  0
  -18.8040  -24.7380   13.7780 C   0  0  0  0  0  0  0  0  0  0  0  0
  -19.3140  -24.9760   12.4660 C   0  0  0  0  0  0  0  0  0  0  0  0
  -20.7960  -25.6660   13.8560 N   0  0  0  0  0  0  0  0  0  0  0  0
  -20.5370  -25.4870   12.5340 N   0  0  0  0  0  0  0  0  0  0  0  0
  -18.6860  -24.8000   11.1500 C   0  0  0  0  0  0  0  0  0  0  0  0
  -19.3910  -24.2250   10.0680 C   0  0  0  0  0  3  0  0  0  0  0  0
  -18.7630  -24.0510    8.8170 C   0  0  0  0  0  3  0  0  0  0  0  0
  -17.4160  -24.4450    8.6370 C   0  0  0  0  0  0  0  0  0  0  0  0
  -16.7250  -25.0350    9.7100 C   0  0  0  0  0  3  0  0  0  0  0  0
  -17.3530  -25.2130   10.9540 C   0  0  0  0  0  3  0  0  0  0  0  0
  -16.7310  -24.3390    7.4520 O   0  0  0  0  0  0  0  0  0  0  0  0
  -17.2000  -23.5700    6.4170 C   0  0  0  0  0  0  0  0  0  0  0  0
  -17.3970  -22.1790    6.5510 C   0  0  0  0  0  3  0  0  0  0  0  0
  -17.8140  -21.4160    5.4420 C   0  0  0  0  0  3  0  0  0  0  0  0
  -18.0280  -22.0400    4.1990 C   0  0  0  0  0  0  0  0  0  0  0  0
  -17.8250  -23.4250    4.0610 C   0  0  0  0  0  3  0  0  0  0  0  0
  -17.4120  -24.1860    5.1680 C   0  0  0  0  0  0  0  0  0  0  0  0
  -17.2030  -25.5170    5.0240 F   0  0  0  0  0  0  0  0  0  0  0  0
  -18.4220  -21.3060    3.1320 F   0  0  0  0  0  0  0  0  0  0  0  0
  -17.4510  -24.1960   14.1430 C   0  0  0  0  0  0  0  0  0  0  0  0
  -16.9550  -23.2280   13.3850 N   0  0  0  0  0  0  0  0  0  0  0  0
  -16.8470  -24.6050   15.1350 O   0  0  0  0  0  0  0  0  0  0  0  0
  -17.4640  -22.8840   12.5850 H   0  0  0  0  0  0  0  0  0  0  0  0
  -16.0530  -22.8270   13.6080 H   0  0  0  0  0  0  0  0  0  0  0  0
  -19.8280  -25.2450   16.0310 N   0  0  0  0  0  0  0  0  0  0  0  0
  -19.0550  -24.9470   16.6150 H   0  0  0  0  0  0  0  0  0  0  0  0
  -20.5880  -25.6530   16.5590 H   0  0  0  0  0  0  0  0  0  0  0  0
  -33.7150  -21.1000   24.1470 C   0  0  0  0  0  2  0  0  0  0  0  0
  -34.3710  -21.3280   22.7750 C   0  0  0  0  0  0  0  0  0  0  0  0
  -35.7050  -21.2760   22.7440 N   0  0  0  0  0  0  0  0  0  0  0  0
  -33.6930  -21.5320   21.7670 O   0  0  0  0  0  0  0  0  0  0  0  0
  -36.1940  -21.1280   23.6160 H   0  0  0  0  0  0  0  0  0  0  0  0
  -36.5560  -21.6160   21.6070 C   0  0  0  0  0  2  0  0  0  0  0  0
  -37.6010  -22.6490   22.0340 C   0  0  0  0  0  0  0  0  0  0  0  0
  -38.0690  -23.4660   21.0830 N   0  0  0  0  0  0  0  0  0  0  0  0
  -37.9830  -22.7030   23.2060 O   0  0  0  0  0  0  0  0  0  0  0  0
  -37.7290  -23.3310   20.1400 H   0  0  0  0  0  0  0  0  0  0  0  0
  -38.9960  -24.5720   21.2990 C   0  0  0  0  0  2  0  0  0  0  0  0
  -38.2790  -25.8570   21.7570 C   0  0  0  0  0  2  0  0  0  0  0  0
  -37.0500  -26.2390   20.9120 C   0  0  0  0  0  2  0  0  0  0  0  0
  -35.9920  -26.9500   21.7650 C   0  0  0  0  0  2  0  0  0  0  0  0
  -34.5810  -26.9080   21.1550 C   0  0  0  0  0  2  0  0  0  0  0  0
  -33.4810  -26.9870   22.2190 C   0  0  0  0  0  2  0  0  0  0  0  0
  -33.1140  -28.3550   22.3810 O   0  0  0  0  0  0  0  0  0  0  0  0
  -27.5040  -31.0280   25.8150 C   0  0  0  0  0  0  0  0  0  0  0  0
  -31.7770  -28.6540   22.3340 C   0  0  0  0  0  0  0  0  0  0  0  0
  -27.0220  -29.9640   23.6340 C   0  0  0  0  0  3  0  0  0  0  0  0
  -29.0570  -29.3870   22.2130 C   0  0  0  0  0  0  0  0  0  0  0  0
  -29.3090  -31.0070   24.1010 C   0  0  0  0  0  2  0  0  0  0  0  0
  -29.8990  -29.9810   23.1600 C   0  0  0  0  0  0  0  0  0  0  0  0
  -31.2630  -29.6230   23.2200 C   0  0  0  0  0  3  0  0  0  0  0  0
  -30.9190  -28.0670   21.3780 C   0  0  0  0  0  3  0  0  0  0  0  0
  -29.5590  -28.4260   21.3200 C   0  0  0  0  0  3  0  0  0  0  0  0
  -27.6140  -29.8370   22.2050 C   0  0  0  0  0  2  0  0  0  0  0  0
  -27.9500  -30.6670   24.5790 N   0  0  0  0  0  0  0  0  0  0  0  0
  -26.3310  -30.8250   26.1550 O   0  0  0  0  0  0  0  0  0  0  0  0
  -26.6050  -28.5570   24.1190 C   0  0  0  0  0  0  0  0  0  0  0  0
  -25.5640  -27.9930   23.4850 N   0  0  0  0  0  0  0  0  0  0  0  0
  -27.2240  -27.9890   25.0220 O   0  0  0  0  0  0  0  0  0  0  0  0
  -25.1050  -28.5280   22.7620 H   0  0  0  0  0  0  0  0  0  0  0  0
  -23.1510  -25.5650   22.3340 C   0  0  0  0  0  0  0  0  0  0  0  0
  -25.0180  -26.6620   23.7450 C   0  0  0  0  0  3  0  0  0  0  0  0
  -25.9480  -25.5600   23.1890 C   0  0  0  0  0  2  0  0  0  0  0  0
  -25.5780  -25.1190   21.7690 C   0  0  0  0  0  2  0  0  0  0  0  0
  -24.1420  -24.5840   21.7290 C   0  0  0  0  0  2  0  0  0  0  0  0
  -23.5650  -26.5490   23.2700 C   0  0  0  0  0  0  0  0  0  0  0  0
  -22.6100  -27.4580   23.7740 C   0  0  0  0  0  3  0  0  0  0  0  0
  -21.2660  -27.3920   23.3640 C   0  0  0  0  0  3  0  0  0  0  0  0
  -20.8580  -26.4050   22.4510 C   0  0  0  0  0  3  0  0  0  0  0  0
  -21.7990  -25.4920   21.9400 C   0  0  0  0  0  3  0  0  0  0  0  0
  -28.4360  -31.7350   26.8480 C   0  0  0  0  0  3  0  0  0  0  0  0
  -28.3590  -31.1000   28.2920 C   0  0  1  0  0  0  0  0  0  0  0  0
  -26.9230  -31.0310   28.8640 C   0  0  0  0  0  1  0  0  0  0  0  0
  -28.9370  -29.6660   28.2890 C   0  0  0  0  0  1  0  0  0  0  0  0
  -29.2230  -31.9260   29.2740 C   0  0  0  0  0  1  0  0  0  0  0  0
  -28.0610  -33.1540   26.8830 N   0  0  0  0  0  0  0  0  0  0  0  0
  -28.7640  -34.1400   26.3080 C   0  0  0  0  0  0  0  0  0  0  0  0
  -29.8490  -33.9520   25.7510 O   0  0  0  0  0  0  0  0  0  0  0  0
  -27.1580  -33.3740   27.2760 H   0  0  0  0  0  0  0  0  0  0  0  0
  -27.6340  -35.9470   24.9750 C   0  0  0  0  0  1  0  0  0  0  0  0
  -28.1680  -35.5590   26.3620 C   0  0  0  0  0  3  0  0  0  0  0  0
  -29.4950  -36.4330   28.2340 C   0  0  0  0  0  1  0  0  0  0  0  0
  -29.1300  -36.5820   26.8280 N   0  0  0  0  0  0  0  0  0  0  0  0
  -28.7540  -37.5180   26.6950 H   0  0  0  0  0  0  0  0  0  0  0  0
  1  3  2  0
  2 66  1  0
  2  1  1  0
  4  2  1  0
  5  1  1  0
  6  5  1  0
  7  6  1  0
  8  9  1  0
  8  7  1  0
 10  9  1  0
 11 13  2  0
 11 12  1  0
 12 10  1  0
 14 12  1  0
 15 11  1  0
 16 15  1  0
 16 17  1  0
 18 17  1  0
 19 18  1  0
 20 19  1  0
 20 21  1  0
 21 22  1  0
 23 24  1  0
 23 22  1  0
 25 24  1  0
 25 26  1  0
 27 26  1  0
 28 35  2  0
 28 36  1  0
 29 34  1  0
 30 29  1  0
 31 30  1  0
 32 31  1  0
 32 33  1  0
 33 34  1  0
 34 28  1  0
 36 27  1  0
 37 36  1  0
 38 63  1  0
 39 58  1  0
 39 38  2  0
 40 42  2  0
 40 39  1  0
 41 32  1  0
 41 38  1  0
 42 41  1  0
 43 40  1  0
 44 43  2  0
 45 44  1  0
 46 45  2  0
 46 47  1  0
 47 48  2  0
 48 43  1  0
 49 46  1  0
 50 51  1  0
 50 49  1  0
 52 51  2  0
 53 52  1  0
 54 53  2  0
 54 55  1  0
 55 50  2  0
 56 55  1  0
 57 53  1  0
 58 60  2  0
 59 62  1  0
 59 58  1  0
 61 59  1  0
 63 65  1  0
 63 64  1  0
 67 66  1  0
 68 67  1  0
 68 70  1  0
 69 67  2  0
 71 72  1  0
 71 68  1  0
 72 74  2  0
 73 76  1  0
 73 72  1  0
 75 73  1  0
 76 77  1  0
 78 77  1  0
 78 79  1  0
 80 79  1  0
 80 81  1  0
 81 82  1  0
 83 94  2  0
 84 82  1  0
 84 89  1  0
 85 95  1  0
 85 93  1  0
 86 88  1  0
 87 93  1  0
 88 89  2  0
 88 87  1  0
 90 84  2  0
 91 90  1  0
 91 86  2  0
 92 86  1  0
 92 85  1  0
 93 83  1  0
 95 97  2  0
 96 95  1  0
 98 96  1  0
 99104  1  0
100 96  1  0
101100  1  0
102101  1  0
103102  1  0
103 99  1  0
104100  1  0
104105  2  0
106105  1  0
107106  2  0
108 99  2  0
108107  1  0
109 83  1  0
109114  1  0
109110  1  0
110111  1  1
110113  1  0
112110  1  0
114117  1  0
115119  1  0
115114  1  0
116115  2  0
119118  1  0
119121  1  0
121120  1  0
122121  1  0
M  ISO  4  28 100  36 100  81 101  82 101
M  END
>  <TORSDO>  (66) 
F 46

>  <SCORE>  (66) 
-3.469

>  <name>  (66) 
77

>  <ligand_id>  (66) 
77

>  <original_smiles>  (66) 
[H]c1c([H])c([H])c2c(c1[H])C([H])([H])C([H])([H])C([H])([H])C2([H])N([H])C(=O)C1([H])N(C(=O)C([H])(N([H])C(=O)C([H])(N([H])C([H])([H])[H])C([H])([H])[H])C(C([H])([H])[H])(C([H])([H])[H])C([H])([H])[H])C([H])([H])c2c([H])c(OC([H])([H])C([H])([H])C([H])([H])C([H])([H])C([H])([H])C([H])([H])N([H])C(=O)C([H])([H])N([H])C(=O)C([H])([H])N([H])C(=O)C([H])([H])OC([H])([H])C([H])([H])C([H])([H])C([H])([H])N([H])C(=O)C([H])([H])OC([H])([H])C([H])([H])C([H])([H])OC([H])([H])C([H])([H])C([H])([H])OC([H])([H])C([H])([H])C([H])([H])N([H])C(=O)N3C([H])([H])C([H])([H])C([H])([H])C([H])(n4nc(-c5c([H])c([H])c(Oc6c([H])c([H])c(F)c([H])c6F)c([H])c5[H])c(C(=O)N([H])[H])c4N([H])[H])C3([H])[H])c([H])c([H])c2C1([H])[H]

>  <smiles>  (66) 
[H]c1c([H])c([H])c2c(c1[H])C([H])([H])C([H])([H])C([H])([H])C2([H])N([H])C(=O)C1([H])N(C(=O)C([H])(N([H])C(=O)C([H])(N([H])C([H])([H])[H])C([H])([H])[H])C(C([H])([H])[H])(C([H])([H])[H])C([H])([H])[H])C([H])([H])c2c([H])c(OC([H])([H])C([H])([H])C([H])([H])C([H])([H])C([H])([H])C([H])([H])N([H])C(=O)C([H])([H])N([H])C(=O)C([H])([H])N([H])C(=O)C([H])([H])OC([H])([H])C([H])([H])C([H])([H])C([H])([H])N([H])C(=O)C([H])([H])OC([H])([H])C([H])([H])C([H])([H])OC([H])([H])C([H])([H])C([H])([H])OC([H])([H])C([H])([H])C([H])([H])N([H])C(=O)N3C([H])([H])C([H])([H])C([H])([H])C([H])(n4nc(-c5c([H])c([H])c(Oc6c([H])c([H])c(F)c([H])c6F)c([H])c5[H])c(C(=O)N([H])[H])c4N([H])[H])C3([H])[H])c([H])c([H])c2C1([H])[H]

$$$$
78:0:0
     RDKit          3D

102104  0  0  1  0  0  0  0  0999 V2000
  -29.5780  -14.3110   18.6130 C   0  0  0  0  0  1  0  0  0  0  0  0
  -29.7290  -15.8220   19.3680 C   0  0  0  0  0  2  0  0  0  0  0  0
  -29.4350  -18.3860   19.4200 C   0  0  0  0  0  0  0  0  0  0  0  0
  -29.1460  -17.1430   18.8750 N   0  0  0  0  0  0  0  0  0  0  0  0
  -30.3140  -18.4830   20.2790 O   0  0  0  0  0  0  0  0  0  0  0  0
  -28.4370  -17.1090   18.1560 H   0  0  0  0  0  0  0  0  0  0  0  0
  -28.6590  -19.7280   19.0280 C   0  0  0  0  0  2  0  0  0  0  0  0
  -29.1760  -20.9830   19.6490 O   0  0  0  0  0  0  0  0  0  0  0  0
  -28.3960  -22.2340   19.4730 C   0  0  0  0  0  3  0  0  0  0  0  0
  -28.9580  -23.6620   19.9920 C   0  0  0  0  0  3  0  0  0  0  0  0
  -28.0020  -24.9420   19.7910 C   0  0  0  0  0  2  0  0  0  0  0  0
  -28.2890  -26.3670   20.2010 O   0  0  0  0  0  0  0  0  0  0  0  0
  -24.5630  -31.9080   23.1820 C   0  0  0  0  0  0  0  0  0  0  0  0
  -27.2030  -27.2820   20.1660 C   0  0  0  0  0  0  0  0  0  0  0  0
  -23.3820  -30.4750   21.5660 C   0  0  0  0  0  3  0  0  0  0  0  0
  -24.8450  -28.9250   20.1630 C   0  0  0  0  0  0  0  0  0  0  0  0
  -25.9280  -30.7930   21.3940 C   0  0  0  0  0  2  0  0  0  0  0  0
  -26.0180  -29.4050   20.7600 C   0  0  0  0  0  0  0  0  0  0  0  0
  -27.2010  -28.5940   20.7560 C   0  0  0  0  0  3  0  0  0  0  0  0
  -25.9970  -26.8850   19.5400 C   0  0  0  0  0  3  0  0  0  0  0  0
  -24.8390  -27.6710   19.5490 C   0  0  0  0  0  3  0  0  0  0  0  0
  -23.6060  -29.7940   20.1950 C   0  0  0  0  0  2  0  0  0  0  0  0
  -24.6440  -31.0780   22.1030 N   0  0  0  0  0  0  0  0  0  0  0  0
  -23.4720  -32.1840   23.7050 O   0  0  0  0  0  0  0  0  0  0  0  0
  -22.7250  -29.4600   22.5350 C   0  0  0  0  0  0  0  0  0  0  0  0
  -21.4000  -29.2740   22.4140 N   0  0  0  0  0  0  0  0  0  0  0  0
  -23.4080  -28.8470   23.3600 O   0  0  0  0  0  0  0  0  0  0  0  0
  -20.9070  -29.8200   21.7210 H   0  0  0  0  0  0  0  0  0  0  0  0
  -18.0210  -28.1100   22.9850 C   0  0  0  0  0  0  0  0  0  0  0  0
  -20.5870  -28.3410   23.1980 C   0  0  0  0  0  3  0  0  0  0  0  0
  -20.6600  -26.9110   22.6150 C   0  0  0  0  0  2  0  0  0  0  0  0
  -19.5330  -26.6040   21.6250 C   0  0  0  0  0  2  0  0  0  0  0  0
  -18.1680  -26.7610   22.3010 C   0  0  0  0  0  2  0  0  0  0  0  0
  -19.1570  -28.8590   23.3930 C   0  0  0  0  0  0  0  0  0  0  0  0
  -18.9640  -30.1200   23.9950 C   0  0  0  0  0  3  0  0  0  0  0  0
  -17.6690  -30.6340   24.1930 C   0  0  0  0  0  3  0  0  0  0  0  0
  -16.5480  -29.8830   23.8010 C   0  0  0  0  0  3  0  0  0  0  0  0
  -16.7240  -28.6230   23.2030 C   0  0  0  0  0  3  0  0  0  0  0  0
  -25.8330  -32.5680   23.7980 C   0  0  0  0  0  3  0  0  0  0  0  0
  -25.4940  -33.9600   24.1300 N   0  0  0  0  0  0  0  0  0  0  0  0
  -25.7800  -35.0190   23.3610 C   0  0  0  0  0  0  0  0  0  0  0  0
  -26.4280  -34.9290   22.3140 O   0  0  0  0  0  0  0  0  0  0  0  0
  -24.9140  -34.1020   24.9440 H   0  0  0  0  0  0  0  0  0  0  0  0
  -23.9940  -36.7650   23.0480 C   0  0  0  0  0  1  0  0  0  0  0  0
  -25.2670  -36.3970   23.8260 C   0  0  0  0  0  3  0  0  0  0  0  0
  -27.3910  -37.3510   24.6070 C   0  0  0  0  0  1  0  0  0  0  0  0
  -26.2680  -37.4760   23.6820 N   0  0  0  0  0  0  0  0  0  0  0  0
  -25.8390  -38.3860   23.8250 H   0  0  0  0  0  0  0  0  0  0  0  0
  -26.3680  -31.8090   25.0740 C   0  0  1  0  0  0  0  0  0  0  0  0
  -25.2780  -31.5300   26.1350 C   0  0  0  0  0  1  0  0  0  0  0  0
  -27.0010  -30.4540   24.6820 C   0  0  0  0  0  1  0  0  0  0  0  0
  -27.4870  -32.6410   25.7450 C   0  0  0  0  0  1  0  0  0  0  0  0
  -28.0830  -11.8720   19.0750 C   0  0  0  0  0  1  0  0  0  0  0  0
  -26.1470  -11.6040   19.1410 C   0  0  0  0  0  2  0  0  0  0  0  0
  -23.4750  -12.3820   20.7350 C   0  0  0  0  0  0  0  0  0  0  0  0
  -24.7310  -12.3680   19.8390 N   0  0  0  0  0  0  0  0  0  0  0  0
  -22.9780  -11.5660   21.9620 N   0  0  0  0  0  0  0  0  0  0  0  0
  -22.6740  -13.2480   20.3930 O   0  0  0  0  0  0  0  0  0  0  0  0
  -24.5800  -13.1770   19.2500 H   0  0  0  0  0  0  0  0  0  0  0  0
  -22.0270  -11.8690   22.1310 H   0  0  0  0  0  0  0  0  0  0  0  0
  -23.4280  -10.4480   23.3070 C   0  0  0  0  0  1  0  0  0  0  0  0
  -25.1400   -9.8280   24.0780 C   0  0  0  0  0  1  0  0  0  0  0  0
  -27.0020   -9.5850   23.6530 C   0  0  0  0  0  2  0  0  0  0  0  0
  -28.3110   -8.3280   23.2150 C   0  0  0  0  0  2  0  0  0  0  0  0
  -31.3770   -8.0240   23.0950 C   0  0  0  0  0  0  0  0  0  0  0  0
  -32.3240   -8.2740   20.4110 C   0  0  0  0  0  1  0  0  0  0  0  0
  -32.7730   -9.8130   19.2600 C   0  0  0  0  0 15  0  0  0  0  0  0
  -31.9110  -11.5750   19.7500 C   0  0  0  0  0 15  0  0  0  0  0  0
  -30.7750  -11.4630   21.4220 C   0  0  0  0  0  2  0  0  0  0  0  0
  -30.6310   -9.8850   22.2820 C   0  0  0  0  0  2  0  0  0  0  0  0
  -31.3510   -8.4900   21.8390 N   0  0  0  0  0  0  0  0  0  0  0  0
  -32.5660   -7.8140   23.5200 O   0  0  0  0  0  0  0  0  0  0  0  0
  -29.9600   -7.9470   23.6780 N   0  0  0  0  0  0  0  0  0  0  0  0
  -30.0010   -7.5740   24.6150 H   0  0  0  0  0  0  0  0  0  0  0  0
  -28.8050  -12.7230   21.8040 C   0  0  0  0  0  3  0  0  0  0  0  0
  -27.5260  -12.4300   21.6500 C   0  0  0  0  0  0  0  0  0  0  0  0
  -27.3980  -10.8490   21.5180 C   0  0  0  0  0  0  0  0  0  0  0  0
  -29.3620  -11.5710   21.5520 N   0  0  0  0  0  0  0  0  0  0  0  0
  -28.4940  -10.5270   21.8340 N   0  0  0  0  0  2  0  0  0  0  0  0
  -26.4240   -9.5570   21.0380 C   0  0  0  0  0  0  0  0  0  0  0  0
  -26.0820   -8.4340   21.8460 C   0  0  0  0  0  3  0  0  0  0  0  0
  -24.7910   -7.8020   21.8020 C   0  0  0  0  0  3  0  0  0  0  0  0
  -23.7400   -8.2940   20.9750 C   0  0  0  0  0  0  0  0  0  0  0  0
  -24.0780   -9.2730   20.0700 C   0  0  0  0  0  3  0  0  0  0  0  0
  -25.4520   -9.5560   19.9490 C   0  0  0  0  0  3  0  0  0  0  0  0
  -22.4560   -7.8220   20.8530 O   0  0  0  0  0  0  0  0  0  0  0  0
  -21.9500   -6.9460   21.7630 C   0  0  0  0  0  0  0  0  0  0  0  0
  -21.6560   -7.3880   23.0660 C   0  0  0  0  0  3  0  0  0  0  0  0
  -21.0830   -6.5000   23.9910 C   0  0  0  0  0  3  0  0  0  0  0  0
  -20.8020   -5.1750   23.6100 C   0  0  0  0  0  0  0  0  0  0  0  0
  -21.0880   -4.7360   22.3020 C   0  0  0  0  0  3  0  0  0  0  0  0
  -21.6560   -5.6240   21.3730 C   0  0  0  0  0  0  0  0  0  0  0  0
  -21.9100   -5.2060   20.1080 F   0  0  0  0  0  0  0  0  0  0  0  0
  -20.2510   -4.3240   24.5020 F   0  0  0  0  0  0  0  0  0  0  0  0
  -26.7060  -13.7390   21.3820 C   0  0  0  0  0  0  0  0  0  0  0  0
  -25.5640  -14.0210   21.9800 N   0  0  0  0  0  0  0  0  0  0  0  0
  -27.0770  -14.5600   20.5510 O   0  0  0  0  0  0  0  0  0  0  0  0
  -25.1940  -13.3950   22.6750 H   0  0  0  0  0  0  0  0  0  0  0  0
  -25.0840  -14.8840   21.7710 H   0  0  0  0  0  0  0  0  0  0  0  0
  -29.5340  -13.8860   22.0340 N   0  0  0  0  0  0  0  0  0  0  0  0
  -29.0940  -14.7950   22.1180 H   0  0  0  0  0  0  0  0  0  0  0  0
  -30.5420  -13.9420   22.0730 H   0  0  0  0  0  0  0  0  0  0  0  0
  1  2  1  0
  3  5  2  0
  4  2  1  0
  4  3  1  0
  6  4  1  0
  7  3  1  0
  7  8  1  0
  9  8  1  0
  9 10  2  0
 11 10  1  0
 11 12  1  0
 13 24  2  0
 14 12  1  0
 14 19  1  0
 15 23  1  0
 15 25  1  0
 16 22  1  0
 16 18  1  0
 17 23  1  0
 18 17  1  0
 19 18  2  0
 20 21  1  0
 20 14  2  0
 21 16  2  0
 22 15  1  0
 23 13  1  0
 25 27  2  0
 26 25  1  0
 28 26  1  0
 29 38  2  0
 29 34  1  0
 30 26  1  0
 30 34  1  0
 31 30  1  0
 32 33  1  0
 32 31  1  0
 33 29  1  0
 34 35  2  0
 35 36  1  0
 37 36  2  0
 38 37  1  0
 39 13  1  0
 39 40  1  0
 39 49  1  0
 40 43  1  0
 41 45  1  0
 41 40  1  0
 42 41  2  0
 45 44  1  0
 47 48  1  0
 47 45  1  0
 47 46  1  0
 49 52  1  1
 49 50  1  0
 51 49  1  0
 53 54  1  0
 54 56  1  0
 55 57  1  0
 56 55  1  0
 57 60  1  0
 57 61  1  0
 58 55  2  0
 59 56  1  0
 63 62  1  0
 64 63  1  0
 64 73  1  0
 65 72  2  0
 65 73  1  0
 66 71  1  0
 69 78  1  0
 69 70  1  0
 71 70  1  0
 71 65  1  0
 73 74  1  0
 75100  1  0
 76 75  1  0
 77 76  2  0
 77 79  1  0
 78 75  1  0
 78 79  1  0
 80 77  1  0
 80 81  1  0
 82 81  2  0
 83 82  1  0
 84 83  2  0
 85 84  1  0
 85 80  2  0
 86 83  1  0
 86 87  1  0
 87 88  1  0
 88 89  2  0
 90 89  1  0
 90 94  1  0
 91 90  2  0
 92 87  2  0
 92 91  1  0
 93 92  1  0
 95 76  1  0
 95 96  1  0
 96 98  1  0
 97 95  2  0
 99 96  1  0
100102  1  0
100101  1  0
M  ISO  4  11 101  12 101  65 100  73 100
M  END
>  <TORSDO>  (67) 
F 30

>  <SCORE>  (67) 
-5.263

>  <name>  (67) 
78

>  <ligand_id>  (67) 
78

>  <original_smiles>  (67) 
[H]c1c([H])c([H])c2c(c1[H])C([H])([H])C([H])([H])C([H])([H])C2([H])N([H])C(=O)C1([H])N(C(=O)C([H])(N([H])C(=O)C([H])(N([H])C([H])([H])[H])C([H])([H])[H])C(C([H])([H])[H])(C([H])([H])[H])C([H])([H])[H])C([H])([H])c2c([H])c(OC([H])([H])C([H])([H])C([H])([H])OC([H])([H])C(=O)N([H])C([H])([H])C([H])([H])C([H])([H])C([H])([H])N([H])C(=O)N([H])C([H])([H])C([H])([H])C([H])([H])C([H])([H])N([H])C(=O)N3C([H])([H])C([H])([H])C([H])([H])C([H])(n4nc(-c5c([H])c([H])c(Oc6c([H])c([H])c(F)c([H])c6F)c([H])c5[H])c(C(=O)N([H])[H])c4N([H])[H])C3([H])[H])c([H])c([H])c2C1([H])[H]

>  <smiles>  (67) 
[H]c1c([H])c([H])c2c(c1[H])C([H])([H])C([H])([H])C([H])([H])C2([H])N([H])C(=O)C1([H])N(C(=O)C([H])(N([H])C(=O)C([H])(N([H])C([H])([H])[H])C([H])([H])[H])C(C([H])([H])[H])(C([H])([H])[H])C([H])([H])[H])C([H])([H])c2c([H])c(OC([H])([H])C([H])([H])C([H])([H])OC([H])([H])C(=O)N([H])C([H])([H])C([H])([H])C([H])([H])C([H])([H])N([H])C(=O)N([H])C([H])([H])C([H])([H])C([H])([H])C([H])([H])N([H])C(=O)N3C([H])([H])C([H])([H])C([H])([H])C([H])(n4nc(-c5c([H])c([H])c(Oc6c([H])c([H])c(F)c([H])c6F)c([H])c5[H])c(C(=O)N([H])[H])c4N([H])[H])C3([H])[H])c([H])c([H])c2C1([H])[H]

$$$$
79:0:0
     RDKit          3D

171178  0  0  1  0  0  0  0  0999 V2000
  -25.5110  -17.8810   22.2410 N   0  0  0  0  0  4  0  0  0  0  0  0
  -25.5470  -16.8690   22.2430 H   0  0  0  0  0  0  0  0  0  0  0  0
  -24.8240  -18.1670   22.9220 H   0  0  0  0  0  0  0  0  0  0  0  0
  -26.8390  -18.4110   22.6450 C   0  0  0  0  0  2  0  0  0  0  0  0
  -27.4020  -17.7710   23.9380 C   0  0  0  0  0  2  0  0  0  0  0  0
  -28.8170  -17.1580   23.7920 C   0  0  0  0  0  2  0  0  0  0  0  0
  -29.9060  -18.1590   23.6690 N   0  0  0  0  0  4  0  0  0  0  0  0
  -29.7870  -18.7530   22.8560 H   0  0  0  0  0  0  0  0  0  0  0  0
  -29.9500  -18.7460   24.4870 H   0  0  0  0  0  0  0  0  0  0  0  0
  -31.2420  -17.5960   23.4100 C   0  0  0  0  0  2  0  0  0  0  0  0
  -31.7750  -18.2110   22.1200 C   0  0  0  0  0  0  0  0  0  0  0  0
  -32.9480  -17.7670   21.6610 N   0  0  0  0  0  0  0  0  0  0  0  0
  -31.0900  -19.0490   21.5220 O   0  0  0  0  0  0  0  0  0  0  0  0
  -33.4560  -17.0920   22.2160 H   0  0  0  0  0  0  0  0  0  0  0  0
  -33.5610  -18.1440   20.3850 C   0  0  0  0  0  2  0  0  0  0  0  0
  -34.4320  -19.4050   20.4580 C   0  0  0  0  0  0  0  0  0  0  0  0
  -35.2310  -19.6320   19.4110 N   0  0  0  0  0  0  0  0  0  0  0  0
  -34.3820  -20.1590   21.4340 O   0  0  0  0  0  0  0  0  0  0  0  0
  -35.2010  -18.9740   18.6430 H   0  0  0  0  0  0  0  0  0  0  0  0
  -36.0960  -20.7980   19.2380 C   0  0  0  0  0  2  0  0  0  0  0  0
  -35.3550  -21.9960   18.6270 C   0  0  0  0  0  0  0  0  0  0  0  0
  -35.9520  -23.1880   18.7270 N   0  0  0  0  0  0  0  0  0  0  0  0
  -34.2740  -21.8460   18.0500 O   0  0  0  0  0  0  0  0  0  0  0  0
  -36.8230  -23.2380   19.2380 H   0  0  0  0  0  0  0  0  0  0  0  0
  -35.3970  -24.4650   18.2780 C   0  0  0  0  0  2  0  0  0  0  0  0
  -34.7380  -25.2110   19.4450 C   0  0  0  0  0  0  0  0  0  0  0  0
  -34.7920  -26.5460   19.4290 N   0  0  0  0  0  0  0  0  0  0  0  0
  -34.1690  -24.6000   20.3550 O   0  0  0  0  0  0  0  0  0  0  0  0
  -35.2550  -26.9770   18.6360 H   0  0  0  0  0  0  0  0  0  0  0  0
  -34.3910  -27.4310   20.5230 C   0  0  0  0  0  2  0  0  0  0  0  0
  -32.8600  -27.6220   20.6660 C   0  0  0  0  0  3  0  0  0  0  0  0
  -32.2190  -26.3990   21.1960 N   0  0  0  0  0  4  0  0  0  0  0  0
  -31.2650  -26.4120   20.8640 H   0  0  0  0  0  0  0  0  0  0  0  0
  -32.7050  -25.5940   20.8070 H   0  0  0  0  0  0  0  0  0  0  0  0
  -32.2040  -26.2850   22.6680 C   0  0  0  0  0  2  0  0  0  0  0  0
  -31.2900  -25.1380   23.1400 C   0  0  0  0  0  2  0  0  0  0  0  0
  -31.2030  -25.0510   24.6770 C   0  0  0  0  0  2  0  0  0  0  0  0
  -30.2710  -23.9240   25.1590 C   0  0  0  0  0  2  0  0  0  0  0  0
  -30.2100  -23.8390   26.6280 N   0  0  0  0  0  4  0  0  0  0  0  0
  -31.1200  -23.6720   27.0140 H   0  0  0  0  0  0  0  0  0  0  0  0
  -29.6140  -23.0800   26.9050 H   0  0  0  0  0  0  0  0  0  0  0  0
  -29.8390  -24.6800   27.0310 H   0  0  0  0  0  0  0  0  0  0  0  0
  -32.1600  -28.0090   19.3570 C   0  0  0  0  0  2  0  0  0  0  0  0
  -30.7990  -28.2460   19.7020 O   0  0  0  0  0  0  0  0  0  0  0  0
  -29.8870  -28.2080   18.6140 C   0  0  0  0  0  2  0  0  0  0  0  0
  -29.0760  -26.9000   18.7040 C   0  0  0  0  0  2  0  0  0  0  0  0
  -28.4270  -26.7890   19.9730 O   0  0  0  0  0  0  0  0  0  0  0  0
  -24.6170  -31.8700   23.2140 C   0  0  0  0  0  0  0  0  0  0  0  0
  -27.2490  -27.4890   20.0580 C   0  0  0  0  0  0  0  0  0  0  0  0
  -23.4010  -30.4940   21.5530 C   0  0  0  0  0  3  0  0  0  0  0  0
  -24.8470  -28.9560   20.1240 C   0  0  0  0  0  0  0  0  0  0  0  0
  -25.9270  -30.8400   21.3670 C   0  0  0  0  0  2  0  0  0  0  0  0
  -26.0020  -29.4740   20.7210 C   0  0  0  0  0  0  0  0  0  0  0  0
  -27.2060  -28.7410   20.7030 C   0  0  0  0  0  3  0  0  0  0  0  0
  -26.0790  -26.9650   19.4750 C   0  0  0  0  0  3  0  0  0  0  0  0
  -24.8760  -27.6930   19.5070 C   0  0  0  0  0  3  0  0  0  0  0  0
  -23.6100  -29.8240   20.1680 C   0  0  0  0  0  2  0  0  0  0  0  0
  -24.6650  -31.0810   22.1030 N   0  0  0  0  0  0  0  0  0  0  0  0
  -23.5380  -32.1430   23.7560 O   0  0  0  0  0  0  0  0  0  0  0  0
  -22.7410  -29.4660   22.5010 C   0  0  0  0  0  0  0  0  0  0  0  0
  -21.4140  -29.3060   22.3760 N   0  0  0  0  0  0  0  0  0  0  0  0
  -23.4190  -28.8170   23.3020 O   0  0  0  0  0  0  0  0  0  0  0  0
  -20.9300  -29.8800   21.7000 H   0  0  0  0  0  0  0  0  0  0  0  0
  -18.0250  -28.1420   22.8490 C   0  0  0  0  0  0  0  0  0  0  0  0
  -20.5870  -28.3680   23.1330 C   0  0  0  0  0  3  0  0  0  0  0  0
  -20.6740  -26.9440   22.5370 C   0  0  0  0  0  2  0  0  0  0  0  0
  -19.5720  -26.6560   21.5140 C   0  0  0  0  0  2  0  0  0  0  0  0
  -18.1900  -26.8000   22.1570 C   0  0  0  0  0  2  0  0  0  0  0  0
  -19.1520  -28.8870   23.2920 C   0  0  0  0  0  0  0  0  0  0  0  0
  -18.9460  -30.1460   23.8960 C   0  0  0  0  0  3  0  0  0  0  0  0
  -17.6460  -30.6610   24.0620 C   0  0  0  0  0  3  0  0  0  0  0  0
  -16.5350  -29.9140   23.6370 C   0  0  0  0  0  3  0  0  0  0  0  0
  -16.7250  -28.6550   23.0370 C   0  0  0  0  0  3  0  0  0  0  0  0
  -25.9080  -32.4840   23.8400 C   0  0  0  0  0  3  0  0  0  0  0  0
  -26.4510  -31.6640   25.0740 C   0  0  1  0  0  0  0  0  0  0  0  0
  -25.3760  -31.3730   26.1490 C   0  0  0  0  0  1  0  0  0  0  0  0
  -27.0430  -30.3090   24.6180 C   0  0  0  0  0  1  0  0  0  0  0  0
  -27.6100  -32.4320   25.7540 C   0  0  0  0  0  1  0  0  0  0  0  0
  -25.5930  -33.8620   24.2350 N   0  0  0  0  0  0  0  0  0  0  0  0
  -25.9030  -34.9480   23.5140 C   0  0  0  0  0  0  0  0  0  0  0  0
  -26.5580  -34.8940   22.4700 O   0  0  0  0  0  0  0  0  0  0  0  0
  -25.0060  -33.9770   25.0490 H   0  0  0  0  0  0  0  0  0  0  0  0
  -24.1450  -36.7310   23.2630 C   0  0  0  0  0  1  0  0  0  0  0  0
  -25.4090  -36.3130   24.0350 C   0  0  0  0  0  3  0  0  0  0  0  0
  -27.5570  -37.1810   24.8460 C   0  0  0  0  0  1  0  0  0  0  0  0
  -26.4270  -37.3830   23.9410 N   0  0  0  0  0  0  0  0  0  0  0  0
  -26.0170  -38.2900   24.1470 H   0  0  0  0  0  0  0  0  0  0  0  0
  -25.0880  -18.3320   20.8920 C   0  0  0  0  0  2  0  0  0  0  0  0
  -23.6440  -17.9060   20.5270 C   0  0  0  0  0  2  0  0  0  0  0  0
  -23.2300  -18.2670   19.0830 C   0  0  0  0  0  2  0  0  0  0  0  0
  -23.7270  -17.3040   17.9750 C   0  0  0  0  0  2  0  0  0  0  0  0
  -22.8110  -16.1600   17.7340 N   0  0  0  0  0  4  0  0  0  0  0  0
  -21.8690  -16.5170   17.7340 H   0  0  0  0  0  0  0  0  0  0  0  0
  -22.8750  -15.4970   18.4940 H   0  0  0  0  0  0  0  0  0  0  0  0
  -23.0700  -15.4730   16.4420 C   0  0  0  0  0  2  0  0  0  0  0  0
  -22.1340  -14.2760   16.1530 C   0  0  0  0  0  2  0  0  0  0  0  0
  -20.6430  -14.6100   15.8900 C   0  0  0  0  0  2  0  0  0  0  0  0
  -20.3900  -15.2330   14.5660 N   0  0  0  0  0  4  0  0  0  0  0  0
  -20.6220  -14.5650   13.8450 H   0  0  0  0  0  0  0  0  0  0  0  0
  -20.9930  -16.0230   14.4290 H   0  0  0  0  0  0  0  0  0  0  0  0
  -18.9840  -15.6620   14.3510 C   0  0  0  0  0  2  0  0  0  0  0  0
  -18.8530  -16.9790   13.5440 C   0  0  0  0  0  2  0  0  0  0  0  0
  -19.3020  -18.2750   14.2640 C   0  0  0  0  0  2  0  0  0  0  0  0
  -18.3620  -18.7520   15.3120 N   0  0  0  0  0  4  0  0  0  0  0  0
  -17.6700  -18.0470   15.5100 H   0  0  0  0  0  0  0  0  0  0  0  0
  -17.8670  -19.5470   14.9360 H   0  0  0  0  0  0  0  0  0  0  0  0
  -19.0430  -19.1550   16.5680 C   0  0  0  0  0  2  0  0  0  0  0  0
  -18.0770  -19.5450   17.7120 C   0  0  0  0  0  2  0  0  0  0  0  0
  -18.7890  -19.8080   19.0640 C   0  0  0  0  0  2  0  0  0  0  0  0
  -19.3280  -21.1860   19.2000 N   0  0  0  0  0  4  0  0  0  0  0  0
  -18.5500  -21.7830   19.4410 H   0  0  0  0  0  0  0  0  0  0  0  0
  -19.6810  -21.4950   18.3090 H   0  0  0  0  0  0  0  0  0  0  0  0
  -20.3860  -21.3200   20.2390 C   0  0  0  0  0  2  0  0  0  0  0  0
  -20.8160  -22.7840   20.5330 C   0  0  0  0  0  2  0  0  0  0  0  0
  -21.6730  -23.4900   19.4510 C   0  0  0  0  0  2  0  0  0  0  0  0
  -23.1240  -23.1810   19.5370 N   0  0  0  0  0  4  0  0  0  0  0  0
  -23.4920  -23.6400   20.3560 H   0  0  0  0  0  0  0  0  0  0  0  0
  -23.2410  -22.1920   19.6690 H   0  0  0  0  0  0  0  0  0  0  0  0
  -23.9060  -23.6210   18.3510 C   0  0  0  0  0  2  0  0  0  0  0  0
  -25.4340  -23.4220   18.4910 C   0  0  0  0  0  2  0  0  0  0  0  0
  -25.9630  -21.9740   18.3950 C   0  0  0  0  0  2  0  0  0  0  0  0
  -26.2710  -21.5320   17.0130 N   0  0  0  0  0  4  0  0  0  0  0  0
  -25.4350  -21.5260   16.4510 H   0  0  0  0  0  0  0  0  0  0  0  0
  -26.9050  -22.2010   16.6020 H   0  0  0  0  0  0  0  0  0  0  0  0
  -26.9090  -20.1960   16.9640 C   0  0  0  0  0  2  0  0  0  0  0  0
  -27.4210  -19.8180   15.5590 C   0  0  0  0  0  2  0  0  0  0  0  0
  -28.2400  -18.5040   15.5350 C   0  0  0  0  0  2  0  0  0  0  0  0
  -29.5790  -18.6570   16.1530 N   0  0  0  0  0  4  0  0  0  0  0  0
  -30.1860  -19.0590   15.4530 H   0  0  0  0  0  0  0  0  0  0  0  0
  -29.5690  -19.3060   16.9220 H   0  0  0  0  0  0  0  0  0  0  0  0
  -30.2170  -17.4080   16.6260 C   0  0  0  0  0  2  0  0  0  0  0  0
  -29.5060  -16.7250   17.8300 C   0  0  0  0  0  2  0  0  0  0  0  0
  -30.4640  -16.4810   19.0170 C   0  0  0  0  0  2  0  0  0  0  0  0
  -30.7160  -14.4560   20.3830 C   0  0  0  0  0  0  0  0  0  0  0  0
  -30.4230  -12.2640   19.4120 C   0  0  0  0  0  2  0  0  0  0  0  0
  -29.4910  -12.4510   18.1950 C   0  0  0  0  0  2  0  0  0  0  0  0
  -28.0120  -12.3400   18.6170 C   0  0  0  0  0  2  0  0  0  0  0  0
  -27.6590  -13.2030   19.8560 C   0  0  0  0  0  3  0  0  0  0  0  0
  -28.7180  -13.0610   20.9740 C   0  0  0  0  0  2  0  0  0  0  0  0
  -30.0470  -13.2870   20.3900 N   0  0  0  0  0  0  0  0  0  0  0  0
  -31.9360  -14.5520   20.2830 O   0  0  0  0  0  0  0  0  0  0  0  0
  -29.9540  -15.4780   19.9640 N   0  0  0  0  0  0  0  0  0  0  0  0
  -28.9540  -15.3360   19.9870 H   0  0  0  0  0  0  0  0  0  0  0  0
  -25.2670  -13.7970   20.5850 C   0  0  0  0  0  0  0  0  0  0  0  0
  -24.1870  -13.0280   20.9260 C   0  0  0  0  0  0  0  0  0  0  0  0
  -24.6410  -11.6790   20.8780 C   0  0  0  0  0  0  0  0  0  0  0  0
  -26.3080  -12.9200   20.3380 N   0  0  0  0  0  0  0  0  0  0  0  0
  -25.9360  -11.6350   20.5750 N   0  0  0  0  0  0  0  0  0  0  0  0
  -23.9080  -10.4190   21.0380 C   0  0  0  0  0  0  0  0  0  0  0  0
  -24.3560   -9.4100   21.9190 C   0  0  0  0  0  3  0  0  0  0  0  0
  -23.6160   -8.2190   22.0780 C   0  0  0  0  0  3  0  0  0  0  0  0
  -22.4150   -8.0270   21.3560 C   0  0  0  0  0  0  0  0  0  0  0  0
  -21.9870   -9.0230   20.4620 C   0  0  0  0  0  3  0  0  0  0  0  0
  -22.7310  -10.2050   20.2950 C   0  0  0  0  0  3  0  0  0  0  0  0
  -21.6530   -6.8860   21.4210 O   0  0  0  0  0  0  0  0  0  0  0  0
  -21.6780   -6.0700   22.5250 C   0  0  0  0  0  0  0  0  0  0  0  0
  -21.3980   -6.5600   23.8180 C   0  0  0  0  0  3  0  0  0  0  0  0
  -21.3670   -5.6780   24.9160 C   0  0  0  0  0  3  0  0  0  0  0  0
  -21.6010   -4.3040   24.7220 C   0  0  0  0  0  0  0  0  0  0  0  0
  -21.8770   -3.8130   23.4350 C   0  0  0  0  0  3  0  0  0  0  0  0
  -21.9170   -4.6920   22.3390 C   0  0  0  0  0  0  0  0  0  0  0  0
  -22.1680   -4.2060   21.1000 F   0  0  0  0  0  0  0  0  0  0  0  0
  -21.5610   -3.4610   25.7810 F   0  0  0  0  0  0  0  0  0  0  0  0
  -22.7860  -13.5150   21.1760 C   0  0  0  0  0  0  0  0  0  0  0  0
  -22.0320  -12.8230   22.0190 N   0  0  0  0  0  0  0  0  0  0  0  0
  -22.3740  -14.5480   20.6410 O   0  0  0  0  0  0  0  0  0  0  0  0
  -22.3630  -11.9700   22.4450 H   0  0  0  0  0  0  0  0  0  0  0  0
  -21.0990  -13.1480   22.2420 H   0  0  0  0  0  0  0  0  0  0  0  0
  -25.4410  -15.1690   20.4360 N   0  0  0  0  0  0  0  0  0  0  0  0
  -24.5900  -15.6940   20.3340 H   0  0  0  0  0  0  0  0  0  0  0  0
  -26.2220  -15.5150   19.8930 H   0  0  0  0  0  0  0  0  0  0  0  0
  1  2  1  0
  1  4  1  0
  1  3  1  0
  4  5  1  0
  6  5  1  0
  7  6  1  0
  7  9  1  0
  8  7  1  0
 10  7  1  0
 11 10  1  0
 12 11  1  0
 12 14  1  0
 13 11  2  0
 15 16  1  0
 15 12  1  0
 16 18  2  0
 17 16  1  0
 19 17  1  0
 20 17  1  0
 21 22  1  0
 21 20  1  0
 22 24  1  0
 23 21  2  0
 25 22  1  0
 25 26  1  0
 26 28  2  0
 27 26  1  0
 27 30  1  0
 29 27  1  0
 30 31  1  0
 31 43  1  0
 31 32  1  0
 32 35  1  0
 33 32  1  0
 34 32  1  0
 35 36  1  0
 36 37  1  0
 37 38  1  0
 38 39  1  0
 39 41  1  0
 39 40  1  0
 39 42  1  0
 43 44  1  0
 45 46  1  0
 45 44  1  0
 46 47  1  0
 47 49  1  0
 48 59  2  0
 49 54  1  0
 50 58  1  0
 50 60  1  0
 51 57  1  0
 51 53  1  0
 52 58  1  0
 53 52  1  0
 54 53  2  0
 55 56  1  0
 55 49  2  0
 56 51  2  0
 57 50  1  0
 58 48  1  0
 60 62  2  0
 61 60  1  0
 63 61  1  0
 64 73  2  0
 64 69  1  0
 65 61  1  0
 65 69  1  0
 66 65  1  0
 67 68  1  0
 67 66  1  0
 68 64  1  0
 69 70  2  0
 70 71  1  0
 72 71  2  0
 73 72  1  0
 74 48  1  0
 74 79  1  0
 74 75  1  0
 75 78  1  1
 75 76  1  0
 77 75  1  0
 79 82  1  0
 80 84  1  0
 80 79  1  0
 81 80  2  0
 84 83  1  0
 86 84  1  0
 86 87  1  0
 86 85  1  0
 88  1  1  0
 89 88  1  0
 90 89  1  0
 91 90  1  0
 92 93  1  0
 92 91  1  0
 92 94  1  0
 95 92  1  0
 96 95  1  0
 97 96  1  0
 98 97  1  0
 99 98  1  0
100 98  1  0
101 98  1  0
102103  1  0
102101  1  0
103104  1  0
104105  1  0
104107  1  0
106104  1  0
107108  1  0
108109  1  0
109110  1  0
110111  1  0
110113  1  0
112110  1  0
113114  1  0
115116  1  0
115114  1  0
116118  1  0
116117  1  0
119120  1  0
119116  1  0
121120  1  0
122121  1  0
123122  1  0
124122  1  0
125122  1  0
126125  1  0
127126  1  0
127128  1  0
128131  1  0
128130  1  0
129128  1  0
131132  1  0
132133  1  0
133142  1  0
134140  1  0
135140  1  0
136137  1  0
136135  1  0
138137  1  0
138147  1  0
138139  1  0
140139  1  0
141134  2  0
142143  1  0
142134  1  0
144145  2  0
145164  1  0
146145  1  0
146149  1  0
147148  1  0
147144  1  0
148146  2  0
149150  1  0
150151  2  0
152155  1  0
152151  1  0
153152  2  0
154153  1  0
154149  2  0
155156  1  0
156157  1  0
157158  2  0
159158  1  0
159163  1  0
160159  2  0
161156  2  0
161160  1  0
162161  1  0
164165  1  0
165168  1  0
165167  1  0
166164  2  0
169144  1  0
170169  1  0
171169  1  0
M  ISO  4  46 101  47 101 134 100 142 100
M  END
>  <TORSDO>  (68) 
F 72

>  <SCORE>  (68) 
62.469

>  <name>  (68) 
79

>  <ligand_id>  (68) 
79

>  <original_smiles>  (68) 
[H]c1c([H])c([H])c2c(c1[H])C([H])([H])C([H])([H])C([H])([H])C2([H])N([H])C(=O)C1([H])N(C(=O)C([H])(N([H])C(=O)C([H])(N([H])C([H])([H])[H])C([H])([H])[H])C(C([H])([H])[H])(C([H])([H])[H])C([H])([H])[H])C([H])([H])c2c([H])c(OC([H])([H])C([H])([H])OC([H])([H])C([H])(C([H])([H])N([H])C(=O)C([H])([H])N([H])C(=O)C([H])([H])N([H])C(=O)C([H])([H])N([H])C(=O)C([H])([H])[N+]([H])([H])C([H])([H])C([H])([H])C([H])([H])[N+]([H])([H])C([H])([H])C([H])([H])C([H])([H])C([H])([H])[N+]([H])([H])C([H])([H])C([H])([H])C([H])([H])[N+]([H])([H])C([H])([H])C([H])([H])C([H])([H])[N+]([H])([H])C([H])([H])C([H])([H])C([H])([H])[N+]([H])([H])C([H])([H])C([H])([H])C([H])([H])[N+]([H])([H])C([H])([H])C([H])([H])C([H])([H])[N+]([H])([H])C([H])([H])C([H])([H])C([H])([H])[N+]([H])([H])C([H])([H])C([H])([H])C([H])([H])N([H])C(=O)N3C([H])([H])C([H])([H])C([H])([H])C([H])(n4nc(-c5c([H])c([H])c(Oc6c([H])c([H])c(F)c([H])c6F)c([H])c5[H])c(C(=O)N([H])[H])c4N([H])[H])C3([H])[H])[N+]([H])([H])C([H])([H])C([H])([H])C([H])([H])C([H])([H])[N+]([H])([H])[H])c([H])c([H])c2C1([H])[H]

>  <smiles>  (68) 
[H]c1c([H])c([H])c2c(c1[H])C([H])([H])C([H])([H])C([H])([H])C2([H])N([H])C(=O)C1([H])N(C(=O)C([H])(N([H])C(=O)C([H])(N([H])C([H])([H])[H])C([H])([H])[H])C(C([H])([H])[H])(C([H])([H])[H])C([H])([H])[H])C([H])([H])c2c([H])c(OC([H])([H])C([H])([H])OC([H])([H])C([H])(C([H])([H])N([H])C(=O)C([H])([H])N([H])C(=O)C([H])([H])N([H])C(=O)C([H])([H])N([H])C(=O)C([H])([H])[N+]([H])([H])C([H])([H])C([H])([H])C([H])([H])[N+]([H])([H])C([H])([H])C([H])([H])C([H])([H])C([H])([H])[N+]([H])([H])C([H])([H])C([H])([H])C([H])([H])[N+]([H])([H])C([H])([H])C([H])([H])C([H])([H])[N+]([H])([H])C([H])([H])C([H])([H])C([H])([H])[N+]([H])([H])C([H])([H])C([H])([H])C([H])([H])[N+]([H])([H])C([H])([H])C([H])([H])C([H])([H])[N+]([H])([H])C([H])([H])C([H])([H])C([H])([H])[N+]([H])([H])C([H])([H])C([H])([H])C([H])([H])N([H])C(=O)N3C([H])([H])C([H])([H])C([H])([H])C([H])(n4nc(-c5c([H])c([H])c(Oc6c([H])c([H])c(F)c([H])c6F)c([H])c5[H])c(C(=O)N([H])[H])c4N([H])[H])C3([H])[H])[N+]([H])([H])C([H])([H])C([H])([H])C([H])([H])C([H])([H])[N+]([H])([H])[H])c([H])c([H])c2C1([H])[H]

$$$$
80:0:0
     RDKit          3D

114121  0  0  1  0  0  0  0  0999 V2000
  -19.1170  -23.5210   18.5820 C   0  0  0  0  0  0  0  0  0  0  0  0
  -18.0880  -24.0400   19.2570 N   0  0  0  0  0  0  0  0  0  0  0  0
  -19.6270  -22.4450   18.8980 O   0  0  0  0  0  0  0  0  0  0  0  0
  -17.7200  -24.9250   18.9360 H   0  0  0  0  0  0  0  0  0  0  0  0
  -17.4050  -23.4300   20.4030 C   0  0  0  0  0  2  0  0  0  0  0  0
  -18.2550  -23.2390   21.6740 C   0  0  0  0  0  0  0  0  0  0  0  0
  -19.5630  -23.5390   21.6310 N   0  0  0  0  0  0  0  0  0  0  0  0
  -17.7150  -22.8220   22.7000 O   0  0  0  0  0  0  0  0  0  0  0  0
  -19.9260  -23.8010   20.7230 H   0  0  0  0  0  0  0  0  0  0  0  0
  -20.5180  -23.3230   22.7170 C   0  0  0  0  0  2  0  0  0  0  0  0
  -21.6650  -24.3510   22.7220 C   0  0  0  0  0  2  0  0  0  0  0  0
  -22.6720  -24.2100   21.5640 C   0  0  0  0  0  2  0  0  0  0  0  0
  -23.9810  -24.9780   21.8290 C   0  0  0  0  0  2  0  0  0  0  0  0
  -25.1490  -24.4710   20.9750 C   0  0  0  0  0  2  0  0  0  0  0  0
  -26.3260  -25.1980   21.2990 O   0  0  0  0  0  0  0  0  0  0  0  0
  -27.4170  -24.7990   20.4790 C   0  0  0  0  0  2  0  0  0  0  0  0
  -28.5700  -25.8140   20.5430 C   0  0  0  0  0  0  0  0  0  0  0  0
  -29.6690  -25.4740   20.9860 O   0  0  0  0  0  0  0  0  0  0  0  0
  -28.3720  -27.0180   19.9410 O   0  0  0  0  0  0  0  0  0  0  0  0
  -24.7310  -31.7750   23.7610 C   0  0  0  0  0  0  0  0  0  0  0  0
  -27.2070  -27.7350   20.0710 C   0  0  0  0  0  0  0  0  0  0  0  0
  -23.4920  -30.7150   21.8990 C   0  0  0  0  0  3  0  0  0  0  0  0
  -24.8910  -29.3390   20.2750 C   0  0  0  0  0  0  0  0  0  0  0  0
  -26.0340  -30.9580   21.8020 C   0  0  0  0  0  2  0  0  0  0  0  0
  -26.0560  -29.6980   20.9660 C   0  0  0  0  0  0  0  0  0  0  0  0
  -27.2120  -28.8970   20.8740 C   0  0  0  0  0  3  0  0  0  0  0  0
  -26.0410  -27.4130   19.3390 C   0  0  0  0  0  3  0  0  0  0  0  0
  -24.8750  -28.1930   19.4630 C   0  0  0  0  0  3  0  0  0  0  0  0
  -23.6960  -30.2480   20.4340 C   0  0  0  0  0  2  0  0  0  0  0  0
  -24.7700  -31.1530   22.5480 N   0  0  0  0  0  0  0  0  0  0  0  0
  -23.6540  -32.0200   24.3210 O   0  0  0  0  0  0  0  0  0  0  0  0
  -22.7640  -29.5960   22.6770 C   0  0  0  0  0  0  0  0  0  0  0  0
  -21.4530  -29.4520   22.4270 N   0  0  0  0  0  0  0  0  0  0  0  0
  -23.3800  -28.8680   23.4610 O   0  0  0  0  0  0  0  0  0  0  0  0
  -21.0190  -30.0960   21.7810 H   0  0  0  0  0  0  0  0  0  0  0  0
  -18.0540  -28.2340   22.4810 C   0  0  0  0  0  0  0  0  0  0  0  0
  -20.5720  -28.4510   23.0250 C   0  0  0  0  0  3  0  0  0  0  0  0
  -20.7270  -27.0830   22.3280 C   0  0  0  0  0  2  0  0  0  0  0  0
  -19.7440  -26.8760   21.1750 C   0  0  0  0  0  2  0  0  0  0  0  0
  -18.3020  -26.9640   21.6820 C   0  0  0  0  0  2  0  0  0  0  0  0
  -19.1230  -28.9410   23.0950 C   0  0  0  0  0  0  0  0  0  0  0  0
  -18.8450  -30.1370   23.7890 C   0  0  0  0  0  3  0  0  0  0  0  0
  -17.5280  -30.6240   23.8860 C   0  0  0  0  0  3  0  0  0  0  0  0
  -16.4710  -29.9120   23.2920 C   0  0  0  0  0  3  0  0  0  0  0  0
  -16.7350  -28.7200   22.5930 C   0  0  0  0  0  3  0  0  0  0  0  0
  -26.0350  -32.2280   24.4880 C   0  0  0  0  0  3  0  0  0  0  0  0
  -26.4110  -31.3120   25.7170 C   0  0  1  0  0  0  0  0  0  0  0  0
  -25.2440  -31.0930   26.7070 C   0  0  0  0  0  1  0  0  0  0  0  0
  -26.8900  -29.9230   25.2340 C   0  0  0  0  0  1  0  0  0  0  0  0
  -27.5880  -31.9430   26.4980 C   0  0  0  0  0  1  0  0  0  0  0  0
  -25.8450  -33.6210   24.9140 N   0  0  0  0  0  0  0  0  0  0  0  0
  -26.3170  -34.6870   24.2570 C   0  0  0  0  0  0  0  0  0  0  0  0
  -27.0340  -34.5960   23.2580 O   0  0  0  0  0  0  0  0  0  0  0  0
  -25.2270  -33.7750   25.6990 H   0  0  0  0  0  0  0  0  0  0  0  0
  -24.8020  -36.6680   23.9480 C   0  0  0  0  0  1  0  0  0  0  0  0
  -25.9370  -36.0780   24.7990 C   0  0  0  0  0  3  0  0  0  0  0  0
  -28.0770  -36.6830   25.8410 C   0  0  0  0  0  1  0  0  0  0  0  0
  -27.0710  -37.0260   24.8390 N   0  0  0  0  0  0  0  0  0  0  0  0
  -26.7430  -37.9700   25.0280 H   0  0  0  0  0  0  0  0  0  0  0  0
  -19.6720  -24.3460   17.4130 C   0  0  0  0  0  2  0  0  0  0  0  0
  -21.8590  -23.3980   16.7170 C   0  0  0  0  0  0  0  0  0  0  0  0
  -21.1310  -24.2900   17.3940 N   0  0  0  0  0  0  0  0  0  0  0  0
  -21.3720  -22.6380   15.8780 O   0  0  0  0  0  0  0  0  0  0  0  0
  -21.6090  -24.8780   18.0600 H   0  0  0  0  0  0  0  0  0  0  0  0
  -23.2490  -23.4240   17.1290 C   0  0  0  0  0  3  0  0  0  0  0  0
  -24.0930  -22.4500   16.7380 C   0  0  0  0  0  3  0  0  0  0  0  0
  -25.5520  -22.3690   17.1380 C   0  0  0  0  0  2  0  0  0  0  0  0
  -25.8090  -21.1070   17.8600 N   0  0  0  0  0  4  0  0  0  0  0  0
  -25.5320  -20.3390   17.2710 H   0  0  0  0  0  0  0  0  0  0  0  0
  -25.2300  -21.0840   18.6840 H   0  0  0  0  0  0  0  0  0  0  0  0
  -27.2170  -20.9080   18.2620 C   0  0  0  0  0  2  0  0  0  0  0  0
  -27.4170  -19.5690   18.9990 C   0  0  0  0  0  2  0  0  0  0  0  0
  -28.8880  -19.3000   19.3570 C   0  0  0  0  0  2  0  0  0  0  0  0
  -29.0770  -18.0190   20.1860 C   0  0  0  0  0  2  0  0  0  0  0  0
  -30.5570  -17.7570   20.5130 C   0  0  0  0  0  2  0  0  0  0  0  0
  -30.7910  -16.6200   21.5270 C   0  0  0  0  0  2  0  0  0  0  0  0
  -30.6410  -14.5850   20.0860 C   0  0  0  0  0  0  0  0  0  0  0  0
  -30.2110  -12.5460   18.7670 C   0  0  0  0  0  2  0  0  0  0  0  0
  -29.1460  -12.8010   17.6840 C   0  0  0  0  0  2  0  0  0  0  0  0
  -27.7250  -12.6130   18.2520 C   0  0  0  0  0  2  0  0  0  0  0  0
  -27.5100  -13.3790   19.5840 C   0  0  0  0  0  3  0  0  0  0  0  0
  -28.6650  -13.0920   20.5650 C   0  0  0  0  0  2  0  0  0  0  0  0
  -29.9370  -13.4410   19.9000 N   0  0  0  0  0  0  0  0  0  0  0  0
  -31.6080  -14.9130   19.3890 O   0  0  0  0  0  0  0  0  0  0  0  0
  -30.2150  -15.3490   21.0980 N   0  0  0  0  0  0  0  0  0  0  0  0
  -29.4290  -14.9980   21.6240 H   0  0  0  0  0  0  0  0  0  0  0  0
  -25.1960  -13.9190   20.5790 C   0  0  0  0  0  0  0  0  0  0  0  0
  -24.1700  -13.1150   20.9970 C   0  0  0  0  0  0  0  0  0  0  0  0
  -24.6230  -11.7720   20.8140 C   0  0  0  0  0  0  0  0  0  0  0  0
  -26.2100  -13.0650   20.1750 N   0  0  0  0  0  0  0  0  0  0  0  0
  -25.8740  -11.7650   20.3700 N   0  0  0  0  0  0  0  0  0  0  0  0
  -23.9200  -10.4940   20.9810 C   0  0  0  0  0  0  0  0  0  0  0  0
  -24.3780   -9.5120   21.8870 C   0  0  0  0  0  3  0  0  0  0  0  0
  -23.6750   -8.2980   22.0430 C   0  0  0  0  0  3  0  0  0  0  0  0
  -22.5000   -8.0570   21.2930 C   0  0  0  0  0  0  0  0  0  0  0  0
  -22.0610   -9.0280   20.3750 C   0  0  0  0  0  3  0  0  0  0  0  0
  -22.7650  -10.2330   20.2160 C   0  0  0  0  0  3  0  0  0  0  0  0
  -21.7660   -6.8970   21.3580 O   0  0  0  0  0  0  0  0  0  0  0  0
  -21.6260   -6.2010   22.5320 C   0  0  0  0  0  0  0  0  0  0  0  0
  -21.0420   -6.7810   23.6780 C   0  0  0  0  0  3  0  0  0  0  0  0
  -20.8540   -6.0080   24.8420 C   0  0  0  0  0  3  0  0  0  0  0  0
  -21.2400   -4.6540   24.8580 C   0  0  0  0  0  0  0  0  0  0  0  0
  -21.8170   -4.0720   23.7160 C   0  0  0  0  0  3  0  0  0  0  0  0
  -22.0070   -4.8430   22.5550 C   0  0  0  0  0  0  0  0  0  0  0  0
  -22.5440   -4.2720   21.4500 F   0  0  0  0  0  0  0  0  0  0  0  0
  -21.0520   -3.9090   25.9720 F   0  0  0  0  0  0  0  0  0  0  0  0
  -22.8100  -13.5590   21.4520 C   0  0  0  0  0  0  0  0  0  0  0  0
  -22.1770  -12.7930   22.3340 N   0  0  0  0  0  0  0  0  0  0  0  0
  -22.3200  -14.6190   21.0630 O   0  0  0  0  0  0  0  0  0  0  0  0
  -22.5880  -11.9340   22.6690 H   0  0  0  0  0  0  0  0  0  0  0  0
  -21.2690  -13.0690   22.6790 H   0  0  0  0  0  0  0  0  0  0  0  0
  -25.3450  -15.3000   20.4920 N   0  0  0  0  0  0  0  0  0  0  0  0
  -24.6020  -15.9440   20.7380 H   0  0  0  0  0  0  0  0  0  0  0  0
  -26.1690  -15.7630   20.1300 H   0  0  0  0  0  0  0  0  0  0  0  0
  1  3  2  0
  1  2  1  0
  2  5  1  0
  4  2  1  0
  5  6  1  0
  6  8  2  0
  7  6  1  0
  7 10  1  0
  9  7  1  0
 10 11  1  0
 12 13  1  0
 12 11  1  0
 14 15  1  0
 14 13  1  0
 16 17  1  0
 16 15  1  0
 17 18  2  0
 19 21  1  0
 19 17  1  0
 20 31  2  0
 21 26  1  0
 22 30  1  0
 22 32  1  0
 23 29  1  0
 23 25  1  0
 24 30  1  0
 25 24  1  0
 26 25  2  0
 27 28  1  0
 27 21  2  0
 28 23  2  0
 29 22  1  0
 30 20  1  0
 32 34  2  0
 33 32  1  0
 35 33  1  0
 36 45  2  0
 36 41  1  0
 37 33  1  0
 37 41  1  0
 38 37  1  0
 39 40  1  0
 39 38  1  0
 40 36  1  0
 41 42  2  0
 42 43  1  0
 44 43  2  0
 45 44  1  0
 46 20  1  0
 46 51  1  0
 46 47  1  0
 47 50  1  1
 47 48  1  0
 49 47  1  0
 51 54  1  0
 52 56  1  0
 52 51  1  0
 53 52  2  0
 56 55  1  0
 56 58  1  0
 58 59  1  0
 58 57  1  0
 60  1  1  0
 61 65  1  0
 61 62  1  0
 62 60  1  0
 62 64  1  0
 63 61  2  0
 66 65  2  0
 66 67  1  0
 67 68  1  0
 68 71  1  0
 68 70  1  0
 69 68  1  0
 71 72  1  0
 72 73  1  0
 73 74  1  0
 74 75  1  0
 75 76  1  0
 77 85  1  0
 78 83  1  0
 79 80  1  0
 79 78  1  0
 81 80  1  0
 81 90  1  0
 81 82  1  0
 83 77  1  0
 83 82  1  0
 84 77  2  0
 85 76  1  0
 85 86  1  0
 87 88  2  0
 88107  1  0
 89 92  1  0
 89 88  1  0
 90 91  1  0
 90 87  1  0
 91 89  2  0
 92 93  1  0
 93 94  2  0
 95 98  1  0
 95 94  1  0
 96 95  2  0
 97 96  1  0
 97 92  2  0
 98 99  1  0
 99104  2  0
 99100  1  0
100101  2  0
101102  1  0
102106  1  0
103102  2  0
104103  1  0
105104  1  0
107108  1  0
108110  1  0
108111  1  0
109107  2  0
112 87  1  0
112113  1  0
114112  1  0
M  ISO  4  17 101  19 101  77 100  85 100
M  END
>  <TORSDO>  (69) 
F 37

>  <SCORE>  (69) 
-7.896

>  <name>  (69) 
80

>  <ligand_id>  (69) 
80

>  <original_smiles>  (69) 
[H]C(C(=O)N([H])C([H])([H])C(=O)N([H])C([H])([H])C(=O)N([H])C([H])([H])C([H])([H])C([H])([H])C([H])([H])C([H])([H])OC([H])([H])C(=O)Oc1c([H])c([H])c2c(c1[H])C([H])([H])N(C(=O)C([H])(N([H])C(=O)C([H])(N([H])C([H])([H])[H])C([H])([H])[H])C(C([H])([H])[H])(C([H])([H])[H])C([H])([H])[H])C([H])(C(=O)N([H])C1([H])c3c([H])c([H])c([H])c([H])c3C([H])([H])C([H])([H])C1([H])[H])C2([H])[H])=C([H])C([H])([H])[N+]([H])([H])C([H])([H])C([H])([H])C([H])([H])C([H])([H])C([H])([H])C([H])([H])N([H])C(=O)N1C([H])([H])C([H])([H])C([H])([H])C([H])(n2nc(-c3c([H])c([H])c(Oc4c([H])c([H])c(F)c([H])c4F)c([H])c3[H])c(C(=O)N([H])[H])c2N([H])[H])C1([H])[H]

>  <smiles>  (69) 
[H]C(C(=O)N([H])C([H])([H])C(=O)N([H])C([H])([H])C(=O)N([H])C([H])([H])C([H])([H])C([H])([H])C([H])([H])C([H])([H])OC([H])([H])C(=O)Oc1c([H])c([H])c2c(c1[H])C([H])([H])N(C(=O)C([H])(N([H])C(=O)C([H])(N([H])C([H])([H])[H])C([H])([H])[H])C(C([H])([H])[H])(C([H])([H])[H])C([H])([H])[H])C([H])(C(=O)N([H])C1([H])c3c([H])c([H])c([H])c([H])c3C([H])([H])C([H])([H])C1([H])[H])C2([H])[H])=C([H])C([H])([H])[N+]([H])([H])C([H])([H])C([H])([H])C([H])([H])C([H])([H])C([H])([H])C([H])([H])N([H])C(=O)N1C([H])([H])C([H])([H])C([H])([H])C([H])(n2nc(-c3c([H])c([H])c(Oc4c([H])c([H])c(F)c([H])c4F)c([H])c3[H])c(C(=O)N([H])[H])c2N([H])[H])C1([H])[H]

$$$$
81:0:0
     RDKit          3D

125132  0  0  1  0  0  0  0  0999 V2000
  -17.3010  -12.8670   28.3550 C   0  0  0  0  0  0  0  0  0  0  0  0
  -16.9730  -13.9190   27.5970 N   0  0  0  0  0  0  0  0  0  0  0  0
  -17.6320  -11.7760   27.8790 O   0  0  0  0  0  0  0  0  0  0  0  0
  -16.7020  -14.7660   28.0800 H   0  0  0  0  0  0  0  0  0  0  0  0
  -16.8910  -13.9230   26.1370 C   0  0  0  0  0  2  0  0  0  0  0  0
  -18.2160  -14.3130   25.4540 C   0  0  0  0  0  2  0  0  0  0  0  0
  -18.6440  -15.7740   25.6720 C   0  0  0  0  0  2  0  0  0  0  0  0
  -19.7310  -16.0560   24.8000 O   0  0  0  0  0  0  0  0  0  0  0  0
  -20.2480  -17.3780   24.9410 C   0  0  0  0  0  2  0  0  0  0  0  0
  -21.2000  -17.6900   23.7760 C   0  0  0  0  0  0  0  0  0  0  0  0
  -22.1680  -18.5910   23.9910 N   0  0  0  0  0  0  0  0  0  0  0  0
  -21.0450  -17.1430   22.6810 O   0  0  0  0  0  0  0  0  0  0  0  0
  -22.2300  -18.9900   24.9180 H   0  0  0  0  0  0  0  0  0  0  0  0
  -23.0690  -19.1050   22.9620 C   0  0  0  0  0  2  0  0  0  0  0  0
  -24.1170  -20.0680   23.5500 C   0  0  0  0  0  2  0  0  0  0  0  0
  -25.0030  -20.7020   22.4600 C   0  0  0  0  0  2  0  0  0  0  0  0
  -25.8980  -21.8530   22.9700 C   0  0  0  0  0  2  0  0  0  0  0  0
  -26.6290  -22.5090   21.8620 N   0  0  0  0  0  4  0  0  0  0  0  0
  -25.9600  -22.7090   21.1370 H   0  0  0  0  0  0  0  0  0  0  0  0
  -27.3070  -21.8680   21.4820 H   0  0  0  0  0  0  0  0  0  0  0  0
  -27.3110  -23.7750   22.2230 C   0  0  0  0  0  2  0  0  0  0  0  0
  -27.8550  -24.4940   20.9710 C   0  0  0  0  0  2  0  0  0  0  0  0
  -28.4750  -25.8800   21.2470 C   0  0  0  0  0  2  0  0  0  0  0  0
  -28.3800  -26.7200   20.0920 O   0  0  0  0  0  0  0  0  0  0  0  0
  -24.6120  -31.8700   23.2090 C   0  0  0  0  0  0  0  0  0  0  0  0
  -27.2330  -27.4720   20.0800 C   0  0  0  0  0  0  0  0  0  0  0  0
  -23.3980  -30.4930   21.5450 C   0  0  0  0  0  3  0  0  0  0  0  0
  -24.8420  -28.9630   20.1050 C   0  0  0  0  0  0  0  0  0  0  0  0
  -25.9210  -30.8450   21.3530 C   0  0  0  0  0  2  0  0  0  0  0  0
  -25.9960  -29.4780   20.7090 C   0  0  0  0  0  0  0  0  0  0  0  0
  -27.1950  -28.7350   20.7070 C   0  0  0  0  0  3  0  0  0  0  0  0
  -26.0770  -26.9800   19.4410 C   0  0  0  0  0  3  0  0  0  0  0  0
  -24.8770  -27.7150   19.4620 C   0  0  0  0  0  3  0  0  0  0  0  0
  -23.5990  -29.8210   20.1590 C   0  0  0  0  0  2  0  0  0  0  0  0
  -24.6620  -31.0850   22.0930 N   0  0  0  0  0  0  0  0  0  0  0  0
  -23.5340  -32.1420   23.7550 O   0  0  0  0  0  0  0  0  0  0  0  0
  -22.7370  -29.4680   22.4940 C   0  0  0  0  0  0  0  0  0  0  0  0
  -21.4110  -29.3050   22.3690 N   0  0  0  0  0  0  0  0  0  0  0  0
  -23.4170  -28.8210   23.2970 O   0  0  0  0  0  0  0  0  0  0  0  0
  -20.9240  -29.8700   21.6870 H   0  0  0  0  0  0  0  0  0  0  0  0
  -18.0290  -28.1370   22.8480 C   0  0  0  0  0  0  0  0  0  0  0  0
  -20.5870  -28.3660   23.1310 C   0  0  0  0  0  3  0  0  0  0  0  0
  -20.6800  -26.9390   22.5400 C   0  0  0  0  0  2  0  0  0  0  0  0
  -19.5780  -26.6390   21.5190 C   0  0  0  0  0  2  0  0  0  0  0  0
  -18.1960  -26.7930   22.1590 C   0  0  0  0  0  2  0  0  0  0  0  0
  -19.1530  -28.8820   23.2910 C   0  0  0  0  0  0  0  0  0  0  0  0
  -18.9450  -30.1430   23.8920 C   0  0  0  0  0  3  0  0  0  0  0  0
  -17.6440  -30.6580   24.0550 C   0  0  0  0  0  3  0  0  0  0  0  0
  -16.5350  -29.9050   23.6330 C   0  0  0  0  0  3  0  0  0  0  0  0
  -16.7260  -28.6480   23.0340 C   0  0  0  0  0  3  0  0  0  0  0  0
  -25.9030  -32.4820   23.8360 C   0  0  0  0  0  3  0  0  0  0  0  0
  -26.4480  -31.6570   25.0670 C   0  0  1  0  0  0  0  0  0  0  0  0
  -25.3770  -31.3670   26.1430 C   0  0  0  0  0  1  0  0  0  0  0  0
  -27.0280  -30.3020   24.5970 C   0  0  0  0  0  1  0  0  0  0  0  0
  -27.6080  -32.4220   25.7470 C   0  0  0  0  0  1  0  0  0  0  0  0
  -25.5920  -33.8610   24.2310 N   0  0  0  0  0  0  0  0  0  0  0  0
  -25.9030  -34.9470   23.5120 C   0  0  0  0  0  0  0  0  0  0  0  0
  -26.5550  -34.8940   22.4660 O   0  0  0  0  0  0  0  0  0  0  0  0
  -25.0230  -33.9810   25.0550 H   0  0  0  0  0  0  0  0  0  0  0  0
  -24.1500  -36.7330   23.2630 C   0  0  0  0  0  1  0  0  0  0  0  0
  -25.4100  -36.3100   24.0340 C   0  0  0  0  0  3  0  0  0  0  0  0
  -27.5570  -37.1790   24.8470 C   0  0  0  0  0  1  0  0  0  0  0  0
  -26.4280  -37.3800   23.9440 N   0  0  0  0  0  0  0  0  0  0  0  0
  -26.0170  -38.2890   24.1420 H   0  0  0  0  0  0  0  0  0  0  0  0
  -17.2290  -13.0700   29.8710 C   0  0  0  0  0  2  0  0  0  0  0  0
  -18.2420  -11.7670   31.7270 C   0  0  0  0  0  0  0  0  0  0  0  0
  -17.5930  -11.8410   30.5630 N   0  0  0  0  0  0  0  0  0  0  0  0
  -18.5030  -12.7560   32.4130 O   0  0  0  0  0  0  0  0  0  0  0  0
  -17.4550  -10.9910   30.0300 H   0  0  0  0  0  0  0  0  0  0  0  0
  -18.6690  -10.3710   32.1820 C   0  0  0  0  0  2  0  0  0  0  0  0
  -19.8820   -9.8470   31.3880 C   0  0  0  0  0  2  0  0  0  0  0  0
  -21.2030  -10.5660   31.7160 C   0  0  0  0  0  2  0  0  0  0  0  0
  -22.3460  -10.1320   30.7900 C   0  0  0  0  0  2  0  0  0  0  0  0
  -23.6480  -10.8900   31.0820 C   0  0  0  0  0  2  0  0  0  0  0  0
  -25.7690  -11.2690   29.8540 C   0  0  0  0  0  0  0  0  0  0  0  0
  -24.6790  -10.5370   30.1130 N   0  0  0  0  0  0  0  0  0  0  0  0
  -26.0300  -12.3080   30.4680 O   0  0  0  0  0  0  0  0  0  0  0  0
  -24.5490   -9.6880   29.5780 H   0  0  0  0  0  0  0  0  0  0  0  0
  -26.6910  -10.7670   28.7350 C   0  0  0  0  0  2  0  0  0  0  0  0
  -27.3750  -11.8680   28.1400 O   0  0  0  0  0  0  0  0  0  0  0  0
  -28.2320  -11.4630   27.0820 C   0  0  0  0  0  2  0  0  0  0  0  0
  -29.0050  -12.6790   26.5520 C   0  0  0  0  0  2  0  0  0  0  0  0
  -30.0290  -12.2960   25.4740 C   0  0  0  0  0  2  0  0  0  0  0  0
  -30.7620  -13.4490   25.0770 O   0  0  0  0  0  0  0  0  0  0  0  0
  -31.8200  -13.1310   24.1810 C   0  0  0  0  0  2  0  0  0  0  0  0
  -32.4790  -14.4150   23.6370 C   0  0  0  0  0  2  0  0  0  0  0  0
  -31.5310  -15.3910   22.9000 C   0  0  0  0  0  2  0  0  0  0  0  0
  -30.8190  -14.2710   20.7730 C   0  0  0  0  0  0  0  0  0  0  0  0
  -30.4090  -12.2970   19.3530 C   0  0  0  0  0  2  0  0  0  0  0  0
  -29.4650  -12.5440   18.1680 C   0  0  0  0  0  2  0  0  0  0  0  0
  -27.9960  -12.3810   18.5970 C   0  0  0  0  0  2  0  0  0  0  0  0
  -27.6610  -13.1990   19.8690 C   0  0  0  0  0  3  0  0  0  0  0  0
  -28.6980  -12.9370   20.9800 C   0  0  0  0  0  2  0  0  0  0  0  0
  -30.0460  -13.2110   20.4430 N   0  0  0  0  0  0  0  0  0  0  0  0
  -31.7680  -14.6770   20.0930 O   0  0  0  0  0  0  0  0  0  0  0  0
  -30.6010  -14.6900   22.0240 N   0  0  0  0  0  0  0  0  0  0  0  0
  -29.7990  -14.2770   22.4760 H   0  0  0  0  0  0  0  0  0  0  0  0
  -25.2590  -13.8150   20.5650 C   0  0  0  0  0  0  0  0  0  0  0  0
  -24.1840  -13.0440   20.9180 C   0  0  0  0  0  0  0  0  0  0  0  0
  -24.6390  -11.6900   20.8760 C   0  0  0  0  0  0  0  0  0  0  0  0
  -26.3020  -12.9300   20.3340 N   0  0  0  0  0  0  0  0  0  0  0  0
  -25.9300  -11.6470   20.5740 N   0  0  0  0  0  0  0  0  0  0  0  0
  -23.9060  -10.4300   21.0430 C   0  0  0  0  0  0  0  0  0  0  0  0
  -24.3610   -9.4210   21.9200 C   0  0  0  0  0  3  0  0  0  0  0  0
  -23.6290   -8.2240   22.0770 C   0  0  0  0  0  3  0  0  0  0  0  0
  -22.4270   -8.0280   21.3560 C   0  0  0  0  0  0  0  0  0  0  0  0
  -21.9900   -9.0260   20.4670 C   0  0  0  0  0  3  0  0  0  0  0  0
  -22.7230  -10.2140   20.3080 C   0  0  0  0  0  3  0  0  0  0  0  0
  -21.6640   -6.8880   21.4250 O   0  0  0  0  0  0  0  0  0  0  0  0
  -21.6850   -6.0730   22.5290 C   0  0  0  0  0  0  0  0  0  0  0  0
  -21.4010   -6.5640   23.8220 C   0  0  0  0  0  3  0  0  0  0  0  0
  -21.3660   -5.6800   24.9180 C   0  0  0  0  0  3  0  0  0  0  0  0
  -21.6040   -4.3060   24.7230 C   0  0  0  0  0  0  0  0  0  0  0  0
  -21.8810   -3.8150   23.4350 C   0  0  0  0  0  3  0  0  0  0  0  0
  -21.9190   -4.6960   22.3410 C   0  0  0  0  0  0  0  0  0  0  0  0
  -22.1660   -4.2140   21.0990 F   0  0  0  0  0  0  0  0  0  0  0  0
  -21.5620   -3.4540   25.7740 F   0  0  0  0  0  0  0  0  0  0  0  0
  -22.7870  -13.5250   21.1830 C   0  0  0  0  0  0  0  0  0  0  0  0
  -22.0490  -12.8280   22.0400 N   0  0  0  0  0  0  0  0  0  0  0  0
  -22.3550  -14.5510   20.6600 O   0  0  0  0  0  0  0  0  0  0  0  0
  -22.4080  -11.9940   22.4800 H   0  0  0  0  0  0  0  0  0  0  0  0
  -21.1150  -13.1410   22.2620 H   0  0  0  0  0  0  0  0  0  0  0  0
  -25.4310  -15.1850   20.4000 N   0  0  0  0  0  0  0  0  0  0  0  0
  -24.6570  -15.8360   20.4790 H   0  0  0  0  0  0  0  0  0  0  0  0
  -26.2820  -15.6220   20.0670 H   0  0  0  0  0  0  0  0  0  0  0  0
  1 65  1  0
  2  4  1  0
  2  1  1  0
  3  1  2  0
  5  2  1  0
  6  7  1  0
  6  5  1  0
  8  9  1  0
  8  7  1  0
 10 11  1  0
 10  9  1  0
 11 13  1  0
 12 10  2  0
 14 15  1  0
 14 11  1  0
 16 17  1  0
 16 15  1  0
 18 21  1  0
 18 17  1  0
 19 18  1  0
 20 18  1  0
 22 23  1  0
 22 21  1  0
 24 23  1  0
 25 36  2  0
 26 24  1  0
 26 31  1  0
 27 35  1  0
 27 37  1  0
 28 34  1  0
 28 30  1  0
 29 35  1  0
 30 29  1  0
 31 30  2  0
 32 33  1  0
 32 26  2  0
 33 28  2  0
 34 27  1  0
 35 25  1  0
 37 39  2  0
 38 37  1  0
 40 38  1  0
 41 50  2  0
 41 46  1  0
 42 38  1  0
 42 46  1  0
 43 42  1  0
 44 45  1  0
 44 43  1  0
 45 41  1  0
 46 47  2  0
 47 48  1  0
 49 48  2  0
 50 49  1  0
 51 25  1  0
 51 56  1  0
 51 52  1  0
 52 55  1  1
 52 53  1  0
 54 52  1  0
 56 59  1  0
 57 61  1  0
 57 56  1  0
 58 57  2  0
 61 60  1  0
 63 61  1  0
 63 64  1  0
 63 62  1  0
 65 67  1  0
 66 70  1  0
 66 68  2  0
 67 66  1  0
 69 67  1  0
 71 72  1  0
 71 70  1  0
 73 74  1  0
 73 72  1  0
 75 76  1  0
 75 77  2  0
 76 74  1  0
 78 76  1  0
 79 75  1  0
 80 79  1  0
 81 80  1  0
 82 81  1  0
 83 82  1  0
 84 83  1  0
 85 84  1  0
 86 85  1  0
 87 86  1  0
 88 96  1  0
 89 94  1  0
 90 91  1  0
 90 89  1  0
 92 91  1  0
 92101  1  0
 92 93  1  0
 94 88  1  0
 94 93  1  0
 95 88  2  0
 96 97  1  0
 96 87  1  0
 98 99  2  0
 99118  1  0
100 99  1  0
100103  1  0
101 98  1  0
101102  1  0
102100  2  0
103104  1  0
104105  2  0
106109  1  0
106105  1  0
107106  2  0
108107  1  0
108103  2  0
109110  1  0
110111  1  0
111112  2  0
113112  1  0
113117  1  0
114113  2  0
115110  2  0
115114  1  0
116115  1  0
118119  1  0
119122  1  0
119121  1  0
120118  2  0
123124  1  0
123 98  1  0
125123  1  0
M  ISO  4  23 101  24 101  88 100  96 100
M  END
>  <TORSDO>  (70) 
F 47

>  <SCORE>  (70) 
131.457

>  <name>  (70) 
81

>  <ligand_id>  (70) 
81

>  <original_smiles>  (70) 
[H]c1c([H])c([H])c2c(c1[H])C([H])([H])C([H])([H])C([H])([H])C2([H])N([H])C(=O)C1([H])N(C(=O)C([H])(N([H])C(=O)C([H])(N([H])C([H])([H])[H])C([H])([H])[H])C(C([H])([H])[H])(C([H])([H])[H])C([H])([H])[H])C([H])([H])c2c([H])c(OC([H])([H])C([H])([H])C([H])([H])[N+]([H])([H])C([H])([H])C([H])([H])C([H])([H])C([H])([H])N([H])C(=O)C([H])([H])OC([H])([H])C([H])([H])C([H])([H])N([H])C(=O)C([H])([H])N([H])C(=O)C([H])([H])C([H])([H])C([H])([H])C([H])([H])C([H])([H])N([H])C(=O)C([H])([H])OC([H])([H])C([H])([H])C([H])([H])OC([H])([H])C([H])([H])C([H])([H])N([H])C(=O)N3C([H])([H])C([H])([H])C([H])([H])C([H])(n4nc(-c5c([H])c([H])c(Oc6c([H])c([H])c(F)c([H])c6F)c([H])c5[H])c(C(=O)N([H])[H])c4N([H])[H])C3([H])[H])c([H])c([H])c2C1([H])[H]

>  <smiles>  (70) 
[H]c1c([H])c([H])c2c(c1[H])C([H])([H])C([H])([H])C([H])([H])C2([H])N([H])C(=O)C1([H])N(C(=O)C([H])(N([H])C(=O)C([H])(N([H])C([H])([H])[H])C([H])([H])[H])C(C([H])([H])[H])(C([H])([H])[H])C([H])([H])[H])C([H])([H])c2c([H])c(OC([H])([H])C([H])([H])C([H])([H])[N+]([H])([H])C([H])([H])C([H])([H])C([H])([H])C([H])([H])N([H])C(=O)C([H])([H])OC([H])([H])C([H])([H])C([H])([H])N([H])C(=O)C([H])([H])N([H])C(=O)C([H])([H])C([H])([H])C([H])([H])C([H])([H])C([H])([H])N([H])C(=O)C([H])([H])OC([H])([H])C([H])([H])C([H])([H])OC([H])([H])C([H])([H])C([H])([H])N([H])C(=O)N3C([H])([H])C([H])([H])C([H])([H])C([H])(n4nc(-c5c([H])c([H])c(Oc6c([H])c([H])c(F)c([H])c6F)c([H])c5[H])c(C(=O)N([H])[H])c4N([H])[H])C3([H])[H])c([H])c([H])c2C1([H])[H]

$$$$
83:0:0
     RDKit          3D

117122  0  0  1  0  0  0  0  0999 V2000
  -32.7960  -14.7930   20.9290 C   0  0  0  0  0  0  0  0  0  0  0  0
  -32.8850  -15.3800   19.7290 N   0  0  0  0  0  0  0  0  0  0  0  0
  -31.9920  -15.1450   21.7980 O   0  0  0  0  0  0  0  0  0  0  0  0
  -33.5930  -15.0100   19.1040 H   0  0  0  0  0  0  0  0  0  0  0  0
  -31.9750  -16.3740   19.1400 C   0  0  0  0  0  2  0  0  0  0  0  0
  -31.9300  -17.7660   19.7930 C   0  0  0  0  0  0  0  0  0  0  0  0
  -30.9070  -18.5490   19.4340 N   0  0  0  0  0  0  0  0  0  0  0  0
  -32.8110  -18.1340   20.5810 O   0  0  0  0  0  0  0  0  0  0  0  0
  -30.2450  -18.1630   18.7720 H   0  0  0  0  0  0  0  0  0  0  0  0
  -30.6340  -19.9240   19.8700 C   0  0  0  0  0  2  0  0  0  0  0  0
  -31.4070  -20.9950   19.0820 C   0  0  0  0  0  0  0  0  0  0  0  0
  -31.1970  -22.2670   19.4430 N   0  0  0  0  0  0  0  0  0  0  0  0
  -32.1630  -20.6840   18.1560 O   0  0  0  0  0  0  0  0  0  0  0  0
  -30.5980  -22.4160   20.2450 H   0  0  0  0  0  0  0  0  0  0  0  0
  -31.7780  -23.4620   18.8240 C   0  0  0  0  0  2  0  0  0  0  0  0
  -30.6920  -24.4140   18.2760 C   0  0  0  0  0  2  0  0  0  0  0  0
  -29.7380  -24.9300   19.3690 C   0  0  0  0  0  2  0  0  0  0  0  0
  -28.7250  -25.9820   18.8980 C   0  0  0  0  0  2  0  0  0  0  0  0
  -28.3880  -26.7530   20.0510 O   0  0  0  0  0  0  0  0  0  0  0  0
  -24.6140  -31.8720   23.2150 C   0  0  0  0  0  0  0  0  0  0  0  0
  -27.2080  -27.4580   20.0530 C   0  0  0  0  0  0  0  0  0  0  0  0
  -23.3930  -30.5030   21.5590 C   0  0  0  0  0  3  0  0  0  0  0  0
  -24.8240  -28.9730   20.1130 C   0  0  0  0  0  0  0  0  0  0  0  0
  -25.9240  -30.8360   21.3680 C   0  0  0  0  0  2  0  0  0  0  0  0
  -25.9880  -29.4760   20.7060 C   0  0  0  0  0  0  0  0  0  0  0  0
  -27.1800  -28.7200   20.6840 C   0  0  0  0  0  3  0  0  0  0  0  0
  -26.0150  -26.9480   19.4910 C   0  0  0  0  0  3  0  0  0  0  0  0
  -24.8290  -27.7030   19.5130 C   0  0  0  0  0  3  0  0  0  0  0  0
  -23.5900  -29.8440   20.1700 C   0  0  0  0  0  2  0  0  0  0  0  0
  -24.6620  -31.0840   22.1040 N   0  0  0  0  0  0  0  0  0  0  0  0
  -23.5350  -32.1470   23.7590 O   0  0  0  0  0  0  0  0  0  0  0  0
  -22.7380  -29.4690   22.5030 C   0  0  0  0  0  0  0  0  0  0  0  0
  -21.4120  -29.3050   22.3770 N   0  0  0  0  0  0  0  0  0  0  0  0
  -23.4190  -28.8220   23.3030 O   0  0  0  0  0  0  0  0  0  0  0  0
  -20.9270  -29.8800   21.7030 H   0  0  0  0  0  0  0  0  0  0  0  0
  -18.0270  -28.1380   22.8500 C   0  0  0  0  0  0  0  0  0  0  0  0
  -20.5860  -28.3660   23.1340 C   0  0  0  0  0  3  0  0  0  0  0  0
  -20.6760  -26.9400   22.5420 C   0  0  0  0  0  2  0  0  0  0  0  0
  -19.5740  -26.6390   21.5220 C   0  0  0  0  0  2  0  0  0  0  0  0
  -18.1920  -26.7930   22.1620 C   0  0  0  0  0  2  0  0  0  0  0  0
  -19.1520  -28.8840   23.2910 C   0  0  0  0  0  0  0  0  0  0  0  0
  -18.9440  -30.1440   23.8920 C   0  0  0  0  0  3  0  0  0  0  0  0
  -17.6450  -30.6590   24.0560 C   0  0  0  0  0  3  0  0  0  0  0  0
  -16.5340  -29.9090   23.6320 C   0  0  0  0  0  3  0  0  0  0  0  0
  -16.7260  -28.6500   23.0350 C   0  0  0  0  0  3  0  0  0  0  0  0
  -25.9070  -32.4830   23.8400 C   0  0  0  0  0  3  0  0  0  0  0  0
  -26.4490  -31.6610   25.0730 C   0  0  1  0  0  0  0  0  0  0  0  0
  -25.3760  -31.3740   26.1490 C   0  0  0  0  0  1  0  0  0  0  0  0
  -27.0300  -30.3030   24.6120 C   0  0  0  0  0  1  0  0  0  0  0  0
  -27.6090  -32.4310   25.7470 C   0  0  0  0  0  1  0  0  0  0  0  0
  -25.5930  -33.8630   24.2330 N   0  0  0  0  0  0  0  0  0  0  0  0
  -25.9050  -34.9480   23.5120 C   0  0  0  0  0  0  0  0  0  0  0  0
  -26.5600  -34.8930   22.4680 O   0  0  0  0  0  0  0  0  0  0  0  0
  -25.0090  -33.9790   25.0470 H   0  0  0  0  0  0  0  0  0  0  0  0
  -24.1500  -36.7320   23.2630 C   0  0  0  0  0  1  0  0  0  0  0  0
  -25.4120  -36.3110   24.0330 C   0  0  0  0  0  3  0  0  0  0  0  0
  -27.5600  -37.1810   24.8460 C   0  0  0  0  0  1  0  0  0  0  0  0
  -26.4300  -37.3790   23.9410 N   0  0  0  0  0  0  0  0  0  0  0  0
  -26.0200  -38.2880   24.1410 H   0  0  0  0  0  0  0  0  0  0  0  0
  -33.7090  -13.5760   21.1540 C   0  0  0  0  0  2  0  0  0  0  0  0
  -32.6790  -11.5470   22.2170 C   0  0  0  0  0  0  0  0  0  0  0  0
  -33.3050  -12.7340   22.2980 N   0  0  0  0  0  0  0  0  0  0  0  0
  -32.5330  -10.9570   21.1440 O   0  0  0  0  0  0  0  0  0  0  0  0
  -33.4430  -13.1220   23.2220 H   0  0  0  0  0  0  0  0  0  0  0  0
  -32.1810  -10.8730   23.5120 C   0  0  0  0  0  2  0  0  0  0  0  0
  -29.7760  -10.6250   24.3240 C   0  0  0  0  0  0  0  0  0  0  0  0
  -30.7680  -10.4240   23.4190 N   0  0  0  0  0  0  0  0  0  0  0  0
  -29.9660  -11.3040   25.3330 O   0  0  0  0  0  0  0  0  0  0  0  0
  -30.5540   -9.8880   22.5920 H   0  0  0  0  0  0  0  0  0  0  0  0
  -28.3970   -9.9100   24.1310 C   0  0  0  0  0  2  0  0  0  0  0  0
  -27.2490  -10.7590   24.4220 O   0  0  0  0  0  0  0  0  0  0  0  0
  -26.2300  -10.1180   25.2340 C   0  0  0  0  0  2  0  0  0  0  0  0
  -24.8580  -10.8580   25.3310 C   0  0  0  0  0  2  0  0  0  0  0  0
  -23.9010  -10.4450   24.3310 O   0  0  0  0  0  0  0  0  0  0  0  0
  -22.6680  -11.1880   24.2560 C   0  0  0  0  0  2  0  0  0  0  0  0
  -21.7670  -11.0510   22.9240 C   0  0  0  0  0  2  0  0  0  0  0  0
  -22.4010  -11.5950   21.7480 O   0  0  0  0  0  0  0  0  0  0  0  0
  -21.9220  -12.1320   20.4620 C   0  0  0  0  0  3  0  0  0  0  0  0
  -23.1120  -12.7010   19.4280 C   0  0  0  0  0  3  0  0  0  0  0  0
  -27.3420  -13.1100   21.1200 C   0  0  0  0  0  2  0  0  0  0  0  0
  -30.1000  -13.1190   19.9550 C   0  0  0  0  0  3  0  0  0  0  0  0
  -30.1050  -12.9130   18.2740 C   0  0  0  0  0  3  0  0  0  0  0  0
  -28.7150  -12.4960   17.6470 C   0  0  0  0  0  2  0  0  0  0  0  0
  -28.0110  -12.7640   18.7930 C   0  0  0  0  0  3  0  0  0  0  0  0
  -28.7060  -11.7240   19.9080 C   0  0  0  0  0  2  0  0  0  0  0  0
  -28.7530  -12.6690   20.7510 N   0  0  2  0  0  4  0  0  0  0  0  0
  -28.1320  -14.2030   21.1870 O   0  0  0  0  0  0  0  0  0  0  0  0
  -24.6860  -12.5640   19.6000 N   0  0  0  0  0  2  0  0  0  0  0  0
  -24.9710  -11.6590   19.2080 H   0  0  0  0  0  0  0  0  0  0  0  0
  -25.7020  -14.4010   20.1400 C   0  0  0  0  0  2  0  0  0  0  0  0
  -24.9820  -13.5400   21.5470 C   0  0  0  0  0  3  0  0  0  0  0  0
  -25.3880  -11.6320   21.4610 C   0  0  0  0  0  3  0  0  0  0  0  0
  -26.6780  -12.9620   18.9750 N   0  0  0  0  0  1  0  0  0  0  0  0
  -26.3720  -11.2840   20.0190 N   0  0  0  0  0  1  0  0  0  0  0  0
  -24.4730  -10.3040   21.2960 C   0  0  0  0  0  0  0  0  0  0  0  0
  -24.6440   -9.2000   22.1300 C   0  0  0  0  0  3  0  0  0  0  0  0
  -23.7490   -8.1000   22.2140 C   0  0  0  0  0  3  0  0  0  0  0  0
  -22.6060   -7.9870   21.3860 C   0  0  0  0  0  0  0  0  0  0  0  0
  -22.5040   -8.9360   20.3590 C   0  0  0  0  0  3  0  0  0  0  0  0
  -23.5180   -9.9230   20.2360 C   0  0  0  0  0  3  0  0  0  0  0  0
  -21.7100   -6.9500   21.4280 O   0  0  0  0  0  0  0  0  0  0  0  0
  -21.6880   -6.1000   22.5140 C   0  0  0  0  0  0  0  0  0  0  0  0
  -21.3830   -6.5890   23.7990 C   0  0  0  0  0  3  0  0  0  0  0  0
  -21.3660   -5.7080   24.8980 C   0  0  0  0  0  3  0  0  0  0  0  0
  -21.6070   -4.3390   24.7040 C   0  0  0  0  0  0  0  0  0  0  0  0
  -21.8690   -3.8420   23.4140 C   0  0  0  0  0  3  0  0  0  0  0  0
  -21.9110   -4.7300   22.3190 C   0  0  0  0  0  0  0  0  0  0  0  0
  -22.1670   -4.2430   21.0810 F   0  0  0  0  0  0  0  0  0  0  0  0
  -21.5760   -3.4770   25.7550 F   0  0  0  0  0  0  0  0  0  0  0  0
  -23.5350  -14.1200   21.7940 C   0  0  0  0  0  0  0  0  0  0  0  0
  -22.7500  -13.7680   22.7820 N   0  0  0  0  0  0  0  0  0  0  0  0
  -22.9630  -14.9300   21.0340 O   0  0  0  0  0  0  0  0  0  0  0  0
  -23.0520  -13.0310   23.3930 H   0  0  0  0  0  0  0  0  0  0  0  0
  -21.8160  -14.1470   22.8400 H   0  0  0  0  0  0  0  0  0  0  0  0
  -25.6070  -15.7210   19.8570 N   0  0  0  0  0  0  0  0  0  0  0  0
  -24.8960  -16.2850   20.3180 H   0  0  0  0  0  0  0  0  0  0  0  0
  -25.7400  -16.0180   18.8950 H   0  0  0  0  0  0  0  0  0  0  0  0
  1 60  1  0
  1  3  2  0
  2  1  1  0
  4  2  1  0
  5  2  1  0
  5  6  1  0
  6  8  2  0
  7  6  1  0
  7 10  1  0
  9  7  1  0
 11 12  1  0
 11 10  1  0
 12 14  1  0
 13 11  2  0
 15 12  1  0
 16 15  1  0
 16 17  1  0
 18 17  1  0
 18 19  1  0
 19 21  1  0
 20 31  2  0
 21 26  1  0
 22 30  1  0
 22 32  1  0
 23 29  1  0
 23 25  1  0
 24 30  1  0
 25 24  1  0
 26 25  2  0
 27 28  1  0
 27 21  2  0
 28 23  2  0
 29 22  1  0
 30 20  1  0
 32 34  2  0
 33 32  1  0
 35 33  1  0
 36 45  2  0
 36 41  1  0
 37 33  1  0
 37 41  1  0
 38 37  1  0
 39 40  1  0
 39 38  1  0
 40 36  1  0
 41 42  2  0
 42 43  1  0
 44 43  2  0
 45 44  1  0
 46 20  1  0
 46 51  1  0
 46 47  1  0
 47 50  1  1
 47 48  1  0
 49 47  1  0
 51 54  1  0
 52 56  1  0
 52 51  1  0
 53 52  2  0
 56 55  1  0
 58 56  1  0
 58 59  1  0
 58 57  1  0
 60 62  1  0
 61 62  1  0
 61 65  1  0
 62 64  1  0
 63 61  2  0
 66 68  2  0
 67 65  1  0
 67 66  1  0
 69 67  1  0
 70 66  1  0
 70 71  1  0
 71 72  1  0
 72 73  1  0
 74 73  1  0
 75 74  1  0
 76 75  1  0
 77 76  1  0
 78 77  1  0
 79 88  1  0
 79 78  2  0
 80 87  1  0
 81 86  1  0
 82 81  2  0
 83 82  1  0
 83 84  1  0
 84 93  1  0
 84 85  1  0
 86 85  1  1
 86 80  1  0
 86 87  1  0
 89 88  1  0
 91 90  1  0
 91110  1  0
 92 94  1  0
 92 91  1  0
 95 92  1  0
 95 96  1  0
 96 97  2  0
 98101  1  0
 98 97  1  0
 99 98  2  0
100 99  1  0
100 95  2  0
101102  1  0
102103  1  0
103104  2  0
105104  1  0
105109  1  0
106105  2  0
107102  2  0
107106  1  0
108107  1  0
110111  1  0
111114  1  0
111113  1  0
112110  2  0
115 90  1  0
115116  1  0
117115  1  0
M  ISO  4  18 101  19 101  80 100  88 100
M  END
>  <TORSDO>  (71) 
F 38

>  <SCORE>  (71) 
7.878

>  <name>  (71) 
83

>  <ligand_id>  (71) 
83

>  <original_smiles>  (71) 
[H]c1c([H])c([H])c2c(c1[H])C([H])([H])C([H])([H])C([H])([H])C2([H])N([H])C(=O)C1([H])N(C(=O)C([H])(N([H])C(=O)C([H])(N([H])C([H])([H])[H])C([H])([H])[H])C(C([H])([H])[H])(C([H])([H])[H])C([H])([H])[H])C([H])([H])c2c([H])c(OC([H])([H])C([H])([H])C([H])([H])C([H])([H])N([H])C(=O)C([H])([H])N([H])C(=O)C([H])([H])N([H])C(=O)C([H])([H])N([H])C(=O)C([H])([H])N([H])C(=O)C([H])([H])OC([H])([H])C([H])([H])OC([H])([H])C([H])([H])OC([H])([H])C([H])([H])N([H])C(=O)N3C([H])([H])C([H])([H])C([H])([H])C([H])(n4nc(-c5c([H])c([H])c(Oc6c([H])c([H])c(F)c([H])c6F)c([H])c5[H])c(C(=O)N([H])[H])c4N([H])[H])C3([H])[H])c([H])c([H])c2C1([H])[H]

>  <smiles>  (71) 
[H]c1c([H])c([H])c2c(c1[H])C([H])([H])C([H])([H])C([H])([H])C2([H])N([H])C(=O)C1([H])N(C(=O)C([H])(N([H])C(=O)C([H])(N([H])C([H])([H])[H])C([H])([H])[H])C(C([H])([H])[H])(C([H])([H])[H])C([H])([H])[H])C([H])([H])c2c([H])c(OC([H])([H])C([H])([H])C([H])([H])C([H])([H])N([H])C(=O)C([H])([H])N([H])C(=O)C([H])([H])N([H])C(=O)C([H])([H])N([H])C(=O)C([H])([H])N([H])C(=O)C([H])([H])OC([H])([H])C([H])([H])OC([H])([H])C([H])([H])OC([H])([H])C([H])([H])N([H])C(=O)N3C([H])([H])C([H])([H])C([H])([H])C([H])(n4nc(-c5c([H])c([H])c(Oc6c([H])c([H])c(F)c([H])c6F)c([H])c5[H])c(C(=O)N([H])[H])c4N([H])[H])C3([H])[H])c([H])c([H])c2C1([H])[H]

$$$$
84:0:0
     RDKit          3D

109116  0  0  1  0  0  0  0  0999 V2000
  -23.6880  -18.1280   19.1730 C   0  0  0  0  0  0  0  0  0  0  0  0
  -23.7640  -18.7030   20.3770 N   0  0  0  0  0  0  0  0  0  0  0  0
  -22.8990  -18.5050   18.3060 O   0  0  0  0  0  0  0  0  0  0  0  0
  -24.4740  -18.3410   21.0130 H   0  0  0  0  0  0  0  0  0  0  0  0
  -22.8810  -19.7460   20.9070 C   0  0  0  0  0  2  0  0  0  0  0  0
  -23.0470  -21.1420   20.2910 C   0  0  0  0  0  0  0  0  0  0  0  0
  -23.8970  -21.3000   19.2700 N   0  0  0  0  0  0  0  0  0  0  0  0
  -22.4060  -22.0860   20.7530 O   0  0  0  0  0  0  0  0  0  0  0  0
  -24.3870  -20.4750   18.9480 H   0  0  0  0  0  0  0  0  0  0  0  0
  -24.1600  -22.5750   18.6240 C   0  0  0  0  0  2  0  0  0  0  0  0
  -25.0940  -22.4430   17.4120 C   0  0  0  0  0  2  0  0  0  0  0  0
  -26.0850  -23.6150   17.3700 C   0  0  0  0  0  2  0  0  0  0  0  0
  -27.2340  -23.4300   16.3800 C   0  0  0  0  0  2  0  0  0  0  0  0
  -28.3960  -24.3540   16.7540 C   0  0  0  0  0  2  0  0  0  0  0  0
  -29.5360  -24.3160   15.7330 C   0  0  0  0  0  2  0  0  0  0  0  0
  -30.6790  -25.2880   16.0720 C   0  0  0  0  0  2  0  0  0  0  0  0
  -30.4000  -26.6160   15.6490 O   0  0  0  0  0  0  0  0  0  0  0  0
  -24.4730  -26.9640   19.5640 C   0  0  0  0  0  0  0  0  0  0  0  0
  -29.0880  -26.9970   15.7290 C   0  0  0  0  0  0  0  0  0  0  0  0
  -24.2390  -27.6160   17.1900 C   0  0  0  0  0  3  0  0  0  0  0  0
  -26.4170  -27.8920   15.8990 C   0  0  0  0  0  0  0  0  0  0  0  0
  -26.4750  -27.8810   18.3980 C   0  0  0  0  0  2  0  0  0  0  0  0
  -27.1520  -27.6470   17.0660 C   0  0  0  0  0  0  0  0  0  0  0  0
  -28.4890  -27.2050   16.9890 C   0  0  0  0  0  3  0  0  0  0  0  0
  -28.3460  -27.2590   14.5590 C   0  0  0  0  0  3  0  0  0  0  0  0
  -27.0100  -27.7000   14.6390 C   0  0  0  0  0  3  0  0  0  0  0  0
  -24.9970  -28.3800   16.0720 C   0  0  0  0  0  2  0  0  0  0  0  0
  -25.0590  -27.4450   18.4320 N   0  0  0  0  0  0  0  0  0  0  0  0
  -23.2610  -26.7100   19.5960 O   0  0  0  0  0  0  0  0  0  0  0  0
  -23.7240  -26.2830   16.6030 C   0  0  0  0  0  0  0  0  0  0  0  0
  -23.0010  -26.3680   15.4740 N   0  0  0  0  0  0  0  0  0  0  0  0
  -24.0020  -25.2070   17.1390 O   0  0  0  0  0  0  0  0  0  0  0  0
  -22.8150  -27.2870   15.1000 H   0  0  0  0  0  0  0  0  0  0  0  0
  -21.5030  -25.4370   12.3260 C   0  0  0  0  0  0  0  0  0  0  0  0
  -22.4430  -25.2450   14.7240 C   0  0  0  0  0  3  0  0  0  0  0  0
  -23.5650  -24.3760   14.1090 C   0  0  0  0  0  2  0  0  0  0  0  0
  -23.9240  -24.7840   12.6770 C   0  0  0  0  0  2  0  0  0  0  0  0
  -22.6980  -24.6830   11.7640 C   0  0  0  0  0  2  0  0  0  0  0  0
  -21.3930  -25.7150   13.7130 C   0  0  0  0  0  0  0  0  0  0  0  0
  -20.2820  -26.4530   14.1770 C   0  0  0  0  0  3  0  0  0  0  0  0
  -19.2920  -26.9020   13.2840 C   0  0  0  0  0  3  0  0  0  0  0  0
  -19.3990  -26.6120   11.9120 C   0  0  0  0  0  3  0  0  0  0  0  0
  -20.5010  -25.8780   11.4360 C   0  0  0  0  0  3  0  0  0  0  0  0
  -25.2880  -26.7340   20.8740 C   0  0  0  0  0  3  0  0  0  0  0  0
  -25.4270  -25.2100   21.2610 C   0  0  1  0  0  0  0  0  0  0  0  0
  -24.0750  -24.4610   21.3210 C   0  0  0  0  0  1  0  0  0  0  0  0
  -26.3390  -24.4760   20.2500 C   0  0  0  0  0  1  0  0  0  0  0  0
  -26.1030  -25.0810   22.6460 C   0  0  0  0  0  1  0  0  0  0  0  0
  -24.6160  -27.4820   21.9440 N   0  0  0  0  0  0  0  0  0  0  0  0
  -25.0330  -28.6610   22.4260 C   0  0  0  0  0  0  0  0  0  0  0  0
  -26.0790  -29.2030   22.0600 O   0  0  0  0  0  0  0  0  0  0  0  0
  -23.7260  -27.1240   22.2580 H   0  0  0  0  0  0  0  0  0  0  0  0
  -23.3310  -30.4670   22.8280 C   0  0  0  0  0  1  0  0  0  0  0  0
  -24.1480  -29.3450   23.4870 C   0  0  0  0  0  3  0  0  0  0  0  0
  -25.5060  -28.8590   25.4750 C   0  0  0  0  0  1  0  0  0  0  0  0
  -24.9140  -29.8920   24.6280 N   0  0  0  0  0  0  0  0  0  0  0  0
  -24.3230  -30.4790   25.2100 H   0  0  0  0  0  0  0  0  0  0  0  0
  -24.6260  -16.9540   18.8990 C   0  0  0  0  0  2  0  0  0  0  0  0
  -27.0580  -16.8680   19.3650 C   0  0  0  0  0  0  0  0  0  0  0  0
  -26.0000  -17.4280   18.7700 N   0  0  0  0  0  0  0  0  0  0  0  0
  -26.9780  -15.8360   20.0360 O   0  0  0  0  0  0  0  0  0  0  0  0
  -26.1300  -18.2720   18.2240 H   0  0  0  0  0  0  0  0  0  0  0  0
  -28.4180  -17.5410   19.1460 C   0  0  0  0  0  2  0  0  0  0  0  0
  -29.9900  -15.8780   20.1270 C   0  0  0  0  0  0  0  0  0  0  0  0
  -29.5140  -16.5720   19.0880 N   0  0  0  0  0  0  0  0  0  0  0  0
  -29.5170  -15.9680   21.2620 O   0  0  0  0  0  0  0  0  0  0  0  0
  -29.9040  -16.3880   18.1730 H   0  0  0  0  0  0  0  0  0  0  0  0
  -31.1600  -14.9320   19.8420 C   0  0  0  0  0  2  0  0  0  0  0  0
  -31.7640  -13.5660   21.8950 C   0  0  0  0  0  0  0  0  0  0  0  0
  -31.9160  -14.5990   21.0480 N   0  0  0  0  0  0  0  0  0  0  0  0
  -32.4960  -13.4950   22.8830 O   0  0  0  0  0  0  0  0  0  0  0  0
  -32.6210  -15.2760   21.3010 H   0  0  0  0  0  0  0  0  0  0  0  0
  -30.6590  -12.5010   21.7060 C   0  0  0  0  0  2  0  0  0  0  0  0
  -30.9770  -11.5810   20.4970 C   0  0  0  0  0  0  0  0  0  0  0  0
  -30.0440  -10.5760   18.4470 C   0  0  0  0  0  2  0  0  0  0  0  0
  -29.3400  -11.6790   17.6330 C   0  0  0  0  0  2  0  0  0  0  0  0
  -27.8860  -11.8910   18.1130 C   0  0  0  0  0  2  0  0  0  0  0  0
  -27.7510  -11.9900   19.6560 C   0  0  0  0  0  3  0  0  0  0  0  0
  -28.5680  -10.8740   20.3500 C   0  0  0  0  0  2  0  0  0  0  0  0
  -29.9530  -10.9500   19.8620 N   0  0  0  0  0  0  0  0  0  0  0  0
  -32.1330  -11.5320   20.0640 O   0  0  0  0  0  0  0  0  0  0  0  0
  -25.4700  -13.0430   20.2300 C   0  0  0  0  0  0  0  0  0  0  0  0
  -24.2690  -12.4850   20.5890 C   0  0  0  0  0  0  0  0  0  0  0  0
  -24.4930  -11.0780   20.6470 C   0  0  0  0  0  0  0  0  0  0  0  0
  -26.3530  -11.9830   20.0820 N   0  0  0  0  0  0  0  0  0  0  0  0
  -25.7670  -10.7980   20.3950 N   0  0  0  0  0  0  0  0  0  0  0  0
  -23.5570   -9.9680   20.8700 C   0  0  0  0  0  0  0  0  0  0  0  0
  -23.7090   -9.0850   21.9610 C   0  0  0  0  0  3  0  0  0  0  0  0
  -22.7950   -8.0270   22.1550 C   0  0  0  0  0  3  0  0  0  0  0  0
  -21.6990   -7.8670   21.2730 C   0  0  0  0  0  0  0  0  0  0  0  0
  -21.5580   -8.7420   20.1830 C   0  0  0  0  0  3  0  0  0  0  0  0
  -22.4880   -9.7750   19.9730 C   0  0  0  0  0  3  0  0  0  0  0  0
  -20.7700   -6.8630   21.3800 O   0  0  0  0  0  0  0  0  0  0  0  0
  -20.2240   -6.5080   22.5890 C   0  0  0  0  0  0  0  0  0  0  0  0
  -19.6690   -7.4650   23.4670 C   0  0  0  0  0  3  0  0  0  0  0  0
  -19.0520   -7.0490   24.6630 C   0  0  0  0  0  3  0  0  0  0  0  0
  -18.9880   -5.6800   24.9850 C   0  0  0  0  0  0  0  0  0  0  0  0
  -19.5430   -4.7260   24.1130 C   0  0  0  0  0  3  0  0  0  0  0  0
  -20.1520   -5.1400   22.9170 C   0  0  0  0  0  0  0  0  0  0  0  0
  -20.6630   -4.2160   22.0690 F   0  0  0  0  0  0  0  0  0  0  0  0
  -18.3900   -5.2780   26.1300 F   0  0  0  0  0  0  0  0  0  0  0  0
  -22.9630  -13.2090   20.7530 C   0  0  0  0  0  0  0  0  0  0  0  0
  -22.0940  -12.7110   21.6270 N   0  0  0  0  0  0  0  0  0  0  0  0
  -22.7210  -14.2440   20.1340 O   0  0  0  0  0  0  0  0  0  0  0  0
  -22.2900  -11.8690   22.1490 H   0  0  0  0  0  0  0  0  0  0  0  0
  -21.2060  -13.1720   21.7600 H   0  0  0  0  0  0  0  0  0  0  0  0
  -25.8670  -14.3560   20.0080 N   0  0  0  0  0  0  0  0  0  0  0  0
  -25.2250  -15.1300   20.1160 H   0  0  0  0  0  0  0  0  0  0  0  0
  -26.7700  -14.6460   19.6520 H   0  0  0  0  0  0  0  0  0  0  0  0
  1  2  1  0
  2  5  1  0
  2  4  1  0
  3  1  2  0
  6  8  2  0
  6  5  1  0
  7  6  1  0
  9  7  1  0
 10  7  1  0
 11 10  1  0
 12 11  1  0
 13 14  1  0
 13 12  1  0
 15 16  1  0
 15 14  1  0
 17 19  1  0
 17 16  1  0
 18 29  2  0
 19 24  1  0
 20 30  1  0
 20 28  1  0
 21 27  1  0
 21 23  1  0
 22 28  1  0
 23 22  1  0
 24 23  2  0
 25 26  1  0
 25 19  2  0
 26 21  2  0
 27 20  1  0
 28 18  1  0
 30 32  2  0
 31 30  1  0
 33 31  1  0
 34 39  1  0
 35 31  1  0
 36 35  1  0
 37 36  1  0
 38 34  1  0
 38 37  1  0
 39 40  2  0
 39 35  1  0
 41 40  1  0
 42 41  2  0
 43 42  1  0
 43 34  2  0
 44 18  1  0
 44 45  1  0
 44 49  1  0
 45 46  1  1
 45 48  1  0
 47 45  1  0
 49 52  1  0
 49 50  1  0
 50 54  1  0
 51 50  2  0
 54 53  1  0
 54 56  1  0
 56 57  1  0
 56 55  1  0
 58  1  1  0
 59 61  2  0
 60 58  1  0
 60 59  1  0
 62 60  1  0
 63 59  1  0
 64 66  2  0
 65 63  1  0
 65 64  1  0
 67 65  1  0
 68 64  1  0
 68 70  1  0
 69 71  2  0
 70 72  1  0
 70 69  1  0
 73 69  1  0
 74 73  1  0
 75 80  1  0
 76 77  1  0
 76 75  1  0
 78 77  1  0
 78 85  1  0
 78 79  1  0
 80 79  1  0
 80 74  1  0
 81 74  2  0
 82 83  2  0
 83 84  1  0
 83102  1  0
 84 87  1  0
 85 82  1  0
 85 86  1  0
 86 84  2  0
 87 88  1  0
 88 89  2  0
 90 93  1  0
 90 89  1  0
 91 90  2  0
 92 91  1  0
 92 87  2  0
 93 94  1  0
 94 99  2  0
 94 95  1  0
 95 96  2  0
 96 97  1  0
 97101  1  0
 98 97  2  0
 99 98  1  0
100 99  1  0
102103  1  0
103106  1  0
103105  1  0
104102  2  0
107108  1  0
107 82  1  0
109107  1  0
M  ISO  4  16 101  17 101  73 100  74 100
M  END
>  <TORSDO>  (72) 
F 32

>  <SCORE>  (72) 
13.590

>  <name>  (72) 
84

>  <ligand_id>  (72) 
84

>  <original_smiles>  (72) 
[H]c1c([H])c([H])c2c(c1[H])C([H])([H])C([H])([H])C([H])([H])C2([H])N([H])C(=O)C1([H])N(C(=O)C([H])(N([H])C(=O)C([H])(N([H])C([H])([H])[H])C([H])([H])[H])C(C([H])([H])[H])(C([H])([H])[H])C([H])([H])[H])C([H])([H])c2c([H])c(OC([H])([H])C([H])([H])C([H])([H])C([H])([H])C([H])([H])C([H])([H])C([H])([H])N([H])C(=O)C([H])([H])N([H])C(=O)C([H])([H])N([H])C(=O)C([H])([H])N([H])C(=O)C([H])([H])N([H])C(=O)C([H])([H])C(=O)N3C([H])([H])C([H])([H])C([H])([H])C([H])(n4nc(-c5c([H])c([H])c(Oc6c([H])c([H])c(F)c([H])c6F)c([H])c5[H])c(C(=O)N([H])[H])c4N([H])[H])C3([H])[H])c([H])c([H])c2C1([H])[H]

>  <smiles>  (72) 
[H]c1c([H])c([H])c2c(c1[H])C([H])([H])C([H])([H])C([H])([H])C2([H])N([H])C(=O)C1([H])N(C(=O)C([H])(N([H])C(=O)C([H])(N([H])C([H])([H])[H])C([H])([H])[H])C(C([H])([H])[H])(C([H])([H])[H])C([H])([H])[H])C([H])([H])c2c([H])c(OC([H])([H])C([H])([H])C([H])([H])C([H])([H])C([H])([H])C([H])([H])C([H])([H])N([H])C(=O)C([H])([H])N([H])C(=O)C([H])([H])N([H])C(=O)C([H])([H])N([H])C(=O)C([H])([H])N([H])C(=O)C([H])([H])C(=O)N3C([H])([H])C([H])([H])C([H])([H])C([H])(n4nc(-c5c([H])c([H])c(Oc6c([H])c([H])c(F)c([H])c6F)c([H])c5[H])c(C(=O)N([H])[H])c4N([H])[H])C3([H])[H])c([H])c([H])c2C1([H])[H]

$$$$
85:0:0
     RDKit          3D

117121  0  0  1  0  0  0  0  0999 V2000
  -30.6570  -15.3760   22.3480 C   0  0  0  0  0  0  0  0  0  0  0  0
  -30.1730  -16.5310   21.8850 N   0  0  0  0  0  0  0  0  0  0  0  0
  -31.6520  -15.3030   23.0760 O   0  0  0  0  0  0  0  0  0  0  0  0
  -29.3660  -16.4880   21.2780 H   0  0  0  0  0  0  0  0  0  0  0  0
  -30.8220  -17.8340   21.9840 C   0  0  0  0  0  2  0  0  0  0  0  0
  -31.3330  -18.2970   20.6130 C   0  0  0  0  0  0  0  0  0  0  0  0
  -31.6600  -19.5860   20.5010 N   0  0  0  0  0  0  0  0  0  0  0  0
  -31.4250  -17.5050   19.6690 O   0  0  0  0  0  0  0  0  0  0  0  0
  -31.5520  -20.1630   21.3260 H   0  0  0  0  0  0  0  0  0  0  0  0
  -32.1480  -20.2440   19.2920 C   0  0  0  0  0  2  0  0  0  0  0  0
  -31.0090  -20.5510   18.3050 C   0  0  0  0  0  2  0  0  0  0  0  0
  -30.1790  -21.7840   18.7010 C   0  0  0  0  0  2  0  0  0  0  0  0
  -29.6190  -22.5470   17.4930 C   0  0  0  0  0  2  0  0  0  0  0  0
  -29.1130  -23.9440   17.8820 C   0  0  0  0  0  2  0  0  0  0  0  0
  -28.9710  -24.8890   16.6850 C   0  0  0  0  0  2  0  0  0  0  0  0
  -28.6010  -26.1640   17.1860 O   0  0  0  0  0  0  0  0  0  0  0  0
  -28.5440  -27.1640   16.1770 C   0  0  0  0  0  2  0  0  0  0  0  0
  -27.7750  -28.3720   16.7250 C   0  0  0  0  0  2  0  0  0  0  0  0
  -26.4100  -27.9890   16.8540 O   0  0  0  0  0  0  0  0  0  0  0  0
  -25.4550  -30.5490   23.4690 C   0  0  0  0  0  0  0  0  0  0  0  0
  -25.6340  -28.6430   17.7810 C   0  0  0  0  0  0  0  0  0  0  0  0
  -23.4560  -30.5060   22.0080 C   0  0  0  0  0  3  0  0  0  0  0  0
  -23.8980  -29.9960   19.5510 C   0  0  0  0  0  0  0  0  0  0  0  0
  -25.7980  -30.7140   21.0100 C   0  0  0  0  0  2  0  0  0  0  0  0
  -25.2770  -29.9850   19.7930 C   0  0  0  0  0  0  0  0  0  0  0  0
  -26.1500  -29.3120   18.9160 C   0  0  0  0  0  3  0  0  0  0  0  0
  -24.2410  -28.6410   17.5640 C   0  0  0  0  0  3  0  0  0  0  0  0
  -23.3710  -29.3180   18.4390 C   0  0  0  0  0  3  0  0  0  0  0  0
  -23.0420  -30.7610   20.5340 C   0  0  0  0  0  2  0  0  0  0  0  0
  -24.9410  -30.5640   22.2070 N   0  0  0  0  0  0  0  0  0  0  0  0
  -24.7140  -30.5360   24.4620 O   0  0  0  0  0  0  0  0  0  0  0  0
  -22.8270  -29.1740   22.4730 C   0  0  0  0  0  0  0  0  0  0  0  0
  -21.4880  -29.0980   22.4240 N   0  0  0  0  0  0  0  0  0  0  0  0
  -23.5360  -28.2320   22.8360 O   0  0  0  0  0  0  0  0  0  0  0  0
  -20.9780  -29.9160   22.1190 H   0  0  0  0  0  0  0  0  0  0  0  0
  -18.1720  -27.6860   22.2010 C   0  0  0  0  0  0  0  0  0  0  0  0
  -20.6790  -27.9320   22.7760 C   0  0  0  0  0  3  0  0  0  0  0  0
  -20.9170  -26.7710   21.7810 C   0  0  0  0  0  2  0  0  0  0  0  0
  -19.9170  -26.7570   20.6210 C   0  0  0  0  0  2  0  0  0  0  0  0
  -18.4840  -26.6350   21.1490 C   0  0  0  0  0  2  0  0  0  0  0  0
  -19.2030  -28.3060   22.9540 C   0  0  0  0  0  0  0  0  0  0  0  0
  -18.8610  -29.3010   23.8940 C   0  0  0  0  0  3  0  0  0  0  0  0
  -17.5200  -29.6760   24.0910 C   0  0  0  0  0  3  0  0  0  0  0  0
  -16.5000  -29.0480   23.3540 C   0  0  0  0  0  3  0  0  0  0  0  0
  -16.8270  -28.0540   22.4150 C   0  0  0  0  0  3  0  0  0  0  0  0
  -26.9940  -30.5730   23.7260 C   0  0  0  0  0  3  0  0  0  0  0  0
  -27.5810  -29.1640   24.1270 C   0  0  1  0  0  0  0  0  0  0  0  0
  -26.8000  -28.4670   25.2660 C   0  0  0  0  0  1  0  0  0  0  0  0
  -27.5920  -28.2130   22.9080 C   0  0  0  0  0  1  0  0  0  0  0  0
  -29.0530  -29.3180   24.5810 C   0  0  0  0  0  1  0  0  0  0  0  0
  -27.2500  -31.5640   24.7810 N   0  0  0  0  0  0  0  0  0  0  0  0
  -27.8000  -32.7680   24.5730 C   0  0  0  0  0  0  0  0  0  0  0  0
  -28.2160  -33.1340   23.4710 O   0  0  0  0  0  0  0  0  0  0  0  0
  -26.8820  -31.3550   25.6970 H   0  0  0  0  0  0  0  0  0  0  0  0
  -26.8300  -34.8100   25.6740 C   0  0  0  0  0  1  0  0  0  0  0  0
  -27.9050  -33.7170   25.7820 C   0  0  0  0  0  3  0  0  0  0  0  0
  -30.2850  -33.3890   26.2880 C   0  0  0  0  0  1  0  0  0  0  0  0
  -29.2380  -34.3400   25.9260 N   0  0  0  0  0  0  0  0  0  0  0  0
  -29.2190  -35.0740   26.6300 H   0  0  0  0  0  0  0  0  0  0  0  0
  -29.9140  -14.1160   21.9140 C   0  0  0  0  0  2  0  0  0  0  0  0
  -29.6140  -11.8100   22.7010 C   0  0  0  0  0  0  0  0  0  0  0  0
  -30.0210  -13.0610   22.9100 N   0  0  0  0  0  0  0  0  0  0  0  0
  -29.1520  -11.4460   21.6150 O   0  0  0  0  0  0  0  0  0  0  0  0
  -30.4140  -13.3240   23.8050 H   0  0  0  0  0  0  0  0  0  0  0  0
  -29.7270  -10.8360   23.8810 C   0  0  0  0  0  2  0  0  0  0  0  0
  -29.5140   -8.6270   22.7650 C   0  0  0  0  0  0  0  0  0  0  0  0
  -29.0580   -9.5670   23.5990 N   0  0  0  0  0  0  0  0  0  0  0  0
  -30.6250   -8.6860   22.2370 O   0  0  0  0  0  0  0  0  0  0  0  0
  -28.1220   -9.4600   23.9660 H   0  0  0  0  0  0  0  0  0  0  0  0
  -28.5920   -7.4380   22.4880 C   0  0  0  0  0  2  0  0  0  0  0  0
  -27.7810   -7.5780   21.1840 C   0  0  0  0  0  2  0  0  0  0  0  0
  -28.5980   -7.3120   19.9030 C   0  0  0  0  0  2  0  0  0  0  0  0
  -27.9580   -7.8570   18.6150 C   0  0  0  0  0  2  0  0  0  0  0  0
  -28.0030   -9.3870   18.4410 C   0  0  0  0  0  2  0  0  0  0  0  0
  -29.8110  -11.0590   18.1650 C   0  0  0  0  0  0  0  0  0  0  0  0
  -29.3330   -9.9300   18.6960 N   0  0  0  0  0  0  0  0  0  0  0  0
  -29.2040  -11.7000   17.3030 O   0  0  0  0  0  0  0  0  0  0  0  0
  -29.9150   -9.4510   19.3700 H   0  0  0  0  0  0  0  0  0  0  0  0
  -31.1780  -11.5220   18.6670 C   0  0  0  0  0  2  0  0  0  0  0  0
  -32.6750  -13.9330   18.4700 C   0  0  2  0  0  0  0  0  0  0  0  0
  -33.4260  -13.2060   17.2340 C   0  0  0  0  0  1  0  0  0  0  0  0
  -32.2260  -14.2290   16.1570 C   0  0  0  0  0  1  0  0  0  0  0  0
  -30.8340  -15.0190   16.9170 C   0  0  0  0  0  2  0  0  0  0  0  0
  -30.6990  -15.2720   18.6590 C   0  0  0  0  0  2  0  0  0  0  0  0
  -31.8670  -14.3440   19.8170 C   0  0  0  0  0  1  0  0  0  0  0  0
  -33.1380  -13.3180   19.0370 N   0  0  0  0  0  1  0  0  0  0  0  0
  -33.3840  -15.1140   18.3280 O   0  0  0  0  0  1  0  0  0  0  0  0
  -31.4470  -12.8880   18.1850 N   0  0  0  0  0  2  0  0  0  0  0  0
  -30.7330  -13.2130   17.5460 H   0  0  0  0  0  0  0  0  0  0  0  0
  -28.5140  -16.4240   19.3050 C   0  0  0  0  0  0  0  0  0  0  0  0
  -27.2720  -15.9950   19.6770 C   0  0  0  0  0  0  0  0  0  0  0  0
  -27.3200  -14.5650   19.6520 C   0  0  0  0  0  0  0  0  0  0  0  0
  -29.2880  -15.2970   19.1010 N   0  0  0  0  0  0  0  0  0  0  0  0
  -28.5610  -14.1610   19.3390 N   0  0  0  0  0  0  0  0  0  0  0  0
  -26.2280  -13.5890   19.8670 C   0  0  0  0  0  0  0  0  0  0  0  0
  -26.4680  -12.3010   20.3970 C   0  0  0  0  0  3  0  0  0  0  0  0
  -25.3990  -11.4020   20.6300 C   0  0  0  0  0  3  0  0  0  0  0  0
  -24.0690  -11.7890   20.3440 C   0  0  0  0  0  0  0  0  0  0  0  0
  -23.8340  -13.0680   19.8060 C   0  0  0  0  0  3  0  0  0  0  0  0
  -24.8980  -13.9550   19.5640 C   0  0  0  0  0  3  0  0  0  0  0  0
  -22.9720  -10.9740   20.5090 O   0  0  0  0  0  0  0  0  0  0  0  0
  -23.0270   -9.8240   21.2540 C   0  0  0  0  0  0  0  0  0  0  0  0
  -23.5510   -9.8140   22.5670 C   0  0  0  0  0  3  0  0  0  0  0  0
  -23.5290   -8.6260   23.3260 C   0  0  0  0  0  3  0  0  0  0  0  0
  -22.9800   -7.4500   22.7820 C   0  0  0  0  0  0  0  0  0  0  0  0
  -22.4500   -7.4590   21.4800 C   0  0  0  0  0  3  0  0  0  0  0  0
  -22.4720   -8.6430   20.7200 C   0  0  0  0  0  0  0  0  0  0  0  0
  -21.9430   -8.6500   19.4720 F   0  0  0  0  0  0  0  0  0  0  0  0
  -22.9550   -6.3100   23.5110 F   0  0  0  0  0  0  0  0  0  0  0  0
  -26.0900  -16.8790   19.9560 C   0  0  0  0  0  0  0  0  0  0  0  0
  -25.1690  -16.4290   20.8000 N   0  0  0  0  0  0  0  0  0  0  0  0
  -26.0080  -18.0060   19.4690 O   0  0  0  0  0  0  0  0  0  0  0  0
  -25.2570  -15.5180   21.2230 H   0  0  0  0  0  0  0  0  0  0  0  0
  -24.3700  -17.0050   21.0280 H   0  0  0  0  0  0  0  0  0  0  0  0
  -29.0520  -17.6930   19.1190 N   0  0  0  0  0  0  0  0  0  0  0  0
  -28.4940  -18.5340   19.2330 H   0  0  0  0  0  0  0  0  0  0  0  0
  -29.9980  -17.8790   18.8130 H   0  0  0  0  0  0  0  0  0  0  0  0
  1  3  2  0
  2  5  1  0
  2  1  1  0
  4  2  1  0
  6  5  1  0
  7  6  1  0
  7  9  1  0
  8  6  2  0
 10  7  1  0
 11 12  1  0
 11 10  1  0
 13 14  1  0
 13 12  1  0
 15 16  1  0
 15 14  1  0
 17 18  1  0
 17 16  1  0
 18 19  1  0
 19 21  1  0
 20 31  2  0
 21 26  1  0
 22 30  1  0
 22 32  1  0
 23 25  1  0
 23 29  1  0
 24 30  1  0
 25 24  1  0
 26 25  2  0
 27 21  2  0
 27 28  1  0
 28 23  2  0
 29 22  1  0
 30 20  1  0
 32 34  2  0
 33 32  1  0
 35 33  1  0
 36 45  2  0
 36 41  1  0
 37 33  1  0
 37 41  1  0
 38 37  1  0
 39 40  1  0
 39 38  1  0
 40 36  1  0
 41 42  2  0
 42 43  1  0
 44 43  2  0
 45 44  1  0
 46 20  1  0
 46 47  1  0
 46 51  1  0
 47 50  1  1
 47 48  1  0
 49 47  1  0
 51 54  1  0
 52 51  1  0
 52 56  1  0
 53 52  2  0
 56 55  1  0
 56 58  1  0
 58 57  1  0
 58 59  1  0
 60  1  1  0
 60 62  1  0
 61 62  1  0
 61 65  1  0
 62 64  1  0
 63 61  2  0
 66 67  1  0
 67 65  1  0
 67 69  1  0
 68 66  2  0
 70 66  1  0
 71 70  1  0
 72 71  1  0
 73 72  1  0
 74 73  1  0
 74 76  1  0
 75 79  1  0
 75 76  1  0
 76 78  1  0
 77 75  2  0
 80 86  1  0
 80 85  1  6
 81 80  1  0
 82 83  1  0
 83 84  1  0
 84 93  1  0
 87 80  1  0
 88 79  1  0
 89 88  1  0
 90 91  2  0
 91110  1  0
 92 91  1  0
 92 95  1  0
 93 90  1  0
 93 94  1  0
 94 92  2  0
 95 96  1  0
 96 97  2  0
 98101  1  0
 98 97  1  0
 99 98  2  0
100 99  1  0
100 95  2  0
101102  1  0
102103  1  0
103104  2  0
105104  1  0
105109  1  0
106105  2  0
107102  2  0
107106  1  0
108107  1  0
110111  1  0
111114  1  0
111113  1  0
112110  2  0
115116  1  0
115 90  1  0
117115  1  0
M  ISO  4  18 101  19 101  80 100  88 100
M  END
>  <TORSDO>  (73) 
F 38

>  <SCORE>  (73) 
1.195

>  <name>  (73) 
85

>  <ligand_id>  (73) 
85

>  <original_smiles>  (73) 
[H]c1c([H])c([H])c2c(c1[H])C([H])([H])C([H])([H])C([H])([H])C2([H])N([H])C(=O)C1([H])N(C(=O)C([H])(N([H])C(=O)C([H])(N([H])C([H])([H])[H])C([H])([H])[H])C(C([H])([H])[H])(C([H])([H])[H])C([H])([H])[H])C([H])([H])c2c([H])c(OC([H])([H])C([H])([H])OC([H])([H])C([H])([H])C([H])([H])C([H])([H])C([H])([H])C([H])([H])N([H])C(=O)C([H])([H])N([H])C(=O)C([H])([H])N([H])C(=O)C([H])([H])N([H])C(=O)C([H])([H])C([H])([H])C([H])([H])C([H])([H])C([H])([H])N([H])C(=O)C([H])([H])N([H])C(=O)N3C([H])([H])C([H])([H])C([H])([H])C([H])(n4nc(-c5c([H])c([H])c(Oc6c([H])c([H])c(F)c([H])c6F)c([H])c5[H])c(C(=O)N([H])[H])c4N([H])[H])C3([H])[H])c([H])c([H])c2C1([H])[H]

>  <smiles>  (73) 
[H]c1c([H])c([H])c2c(c1[H])C([H])([H])C([H])([H])C([H])([H])C2([H])N([H])C(=O)C1([H])N(C(=O)C([H])(N([H])C(=O)C([H])(N([H])C([H])([H])[H])C([H])([H])[H])C(C([H])([H])[H])(C([H])([H])[H])C([H])([H])[H])C([H])([H])c2c([H])c(OC([H])([H])C([H])([H])OC([H])([H])C([H])([H])C([H])([H])C([H])([H])C([H])([H])C([H])([H])N([H])C(=O)C([H])([H])N([H])C(=O)C([H])([H])N([H])C(=O)C([H])([H])N([H])C(=O)C([H])([H])C([H])([H])C([H])([H])C([H])([H])C([H])([H])N([H])C(=O)C([H])([H])N([H])C(=O)N3C([H])([H])C([H])([H])C([H])([H])C([H])(n4nc(-c5c([H])c([H])c(Oc6c([H])c([H])c(F)c([H])c6F)c([H])c5[H])c(C(=O)N([H])[H])c4N([H])[H])C3([H])[H])c([H])c([H])c2C1([H])[H]

$$$$
86:0:0
     RDKit          3D

124131  0  0  1  0  0  0  0  0999 V2000
  -23.1810  -31.7290   18.2870 C   0  0  0  0  0  0  0  0  0  0  0  0
  -22.5330  -31.6580   19.4610 N   0  0  0  0  0  0  0  0  0  0  0  0
  -23.6190  -32.8110   17.8970 O   0  0  0  0  0  0  0  0  0  0  0  0
  -22.3650  -32.5560   19.8970 H   0  0  0  0  0  0  0  0  0  0  0  0
  -22.1340  -30.5080   20.2910 C   0  0  0  0  0  2  0  0  0  0  0  0
  -22.2900  -29.0980   19.7000 C   0  0  0  0  0  0  0  0  0  0  0  0
  -22.9040  -28.1980   20.4760 N   0  0  0  0  0  0  0  0  0  0  0  0
  -21.8490  -28.8340   18.5790 O   0  0  0  0  0  0  0  0  0  0  0  0
  -23.1430  -28.4780   21.4160 H   0  0  0  0  0  0  0  0  0  0  0  0
  -23.1820  -26.8010   20.1430 C   0  0  0  0  0  2  0  0  0  0  0  0
  -24.6250  -26.5600   19.6680 C   0  0  0  0  0  0  0  0  0  0  0  0
  -25.1730  -25.3660   19.9440 N   0  0  0  0  0  0  0  0  0  0  0  0
  -25.2250  -27.4370   19.0390 O   0  0  0  0  0  0  0  0  0  0  0  0
  -24.6070  -24.7060   20.4610 H   0  0  0  0  0  0  0  0  0  0  0  0
  -26.4670  -24.8780   19.4670 C   0  0  0  0  0  2  0  0  0  0  0  0
  -27.6670  -25.5590   20.1470 C   0  0  0  0  0  2  0  0  0  0  0  0
  -28.1700  -24.9110   21.4590 C   0  0  0  0  0  2  0  0  0  0  0  0
  -29.2790  -25.7550   22.1160 C   0  0  0  0  0  2  0  0  0  0  0  0
  -30.0700  -25.1120   23.2620 C   0  0  0  0  0  2  0  0  0  0  0  0
  -31.1140  -26.0790   23.8630 C   0  0  0  0  0  2  0  0  0  0  0  0
  -32.0400  -26.5130   22.8690 O   0  0  0  0  0  0  0  0  0  0  0  0
  -33.0530  -27.3970   23.3550 C   0  0  0  0  0  2  0  0  0  0  0  0
  -33.7190  -28.1750   22.1850 C   0  0  0  0  0  2  0  0  0  0  0  0
  -33.3240  -29.5510   22.0160 O   0  0  0  0  0  0  0  0  0  0  0  0
  -27.8480  -32.7560   25.1710 C   0  0  0  0  0  0  0  0  0  0  0  0
  -31.9810  -29.8290   21.9430 C   0  0  0  0  0  0  0  0  0  0  0  0
  -27.2810  -31.0620   23.4720 C   0  0  0  0  0  3  0  0  0  0  0  0
  -29.2040  -30.3150   21.9780 C   0  0  0  0  0  0  0  0  0  0  0  0
  -29.4640  -32.3900   23.3240 C   0  0  0  0  0  2  0  0  0  0  0  0
  -30.0710  -31.1930   22.6300 C   0  0  0  0  0  0  0  0  0  0  0  0
  -31.4650  -30.9560   22.6230 C   0  0  0  0  0  3  0  0  0  0  0  0
  -31.0990  -29.0160   21.2080 C   0  0  0  0  0  3  0  0  0  0  0  0
  -29.7200  -29.2500   21.2370 C   0  0  0  0  0  3  0  0  0  0  0  0
  -27.7270  -30.5860   22.0660 C   0  0  0  0  0  2  0  0  0  0  0  0
  -28.2070  -32.0870   24.0440 N   0  0  0  0  0  0  0  0  0  0  0  0
  -26.7490  -32.5610   25.7110 O   0  0  0  0  0  0  0  0  0  0  0  0
  -27.0970  -29.8250   24.3810 C   0  0  0  0  0  0  0  0  0  0  0  0
  -26.0680  -29.0170   24.0780 N   0  0  0  0  0  0  0  0  0  0  0  0
  -27.8780  -29.5970   25.3070 O   0  0  0  0  0  0  0  0  0  0  0  0
  -25.4640  -29.2890   23.3180 H   0  0  0  0  0  0  0  0  0  0  0  0
  -23.9930  -26.0610   23.8670 C   0  0  0  0  0  0  0  0  0  0  0  0
  -25.7240  -27.7650   24.7490 C   0  0  0  0  0  3  0  0  0  0  0  0
  -26.7960  -26.6830   24.4790 C   0  0  0  0  0  2  0  0  0  0  0  0
  -26.4460  -25.7470   23.3180 C   0  0  0  0  0  2  0  0  0  0  0  0
  -25.0950  -25.0680   23.5390 C   0  0  0  0  0  2  0  0  0  0  0  0
  -24.2900  -27.3320   24.4220 C   0  0  0  0  0  0  0  0  0  0  0  0
  -23.2260  -28.2270   24.6750 C   0  0  0  0  0  3  0  0  0  0  0  0
  -21.8930  -27.8710   24.3820 C   0  0  0  0  0  3  0  0  0  0  0  0
  -21.6070  -26.6030   23.8460 C   0  0  0  0  0  3  0  0  0  0  0  0
  -22.6570  -25.7000   23.5990 C   0  0  0  0  0  3  0  0  0  0  0  0
  -28.7920  -33.8050   25.8240 C   0  0  0  0  0  3  0  0  0  0  0  0
  -29.5330  -33.2620   27.1060 C   0  0  1  0  0  0  0  0  0  0  0  0
  -28.5870  -32.5860   28.1260 C   0  0  0  0  0  1  0  0  0  0  0  0
  -30.6190  -32.2300   26.7140 C   0  0  0  0  0  1  0  0  0  0  0  0
  -30.2630  -34.4280   27.8070 C   0  0  0  0  0  1  0  0  0  0  0  0
  -27.9750  -34.9860   26.1380 N   0  0  0  0  0  0  0  0  0  0  0  0
  -27.8610  -36.0620   25.3470 C   0  0  0  0  0  0  0  0  0  0  0  0
  -28.4910  -36.1890   24.2920 O   0  0  0  0  0  0  0  0  0  0  0  0
  -27.3440  -34.9050   26.9240 H   0  0  0  0  0  0  0  0  0  0  0  0
  -25.5350  -36.9940   25.0790 C   0  0  0  0  0  1  0  0  0  0  0  0
  -26.8880  -37.1720   25.7920 C   0  0  0  0  0  3  0  0  0  0  0  0
  -28.5990  -38.8490   26.3350 C   0  0  0  0  0  1  0  0  0  0  0  0
  -27.4030  -38.5380   25.5580 N   0  0  0  0  0  0  0  0  0  0  0  0
  -26.6970  -39.2370   25.7680 H   0  0  0  0  0  0  0  0  0  0  0  0
  -23.3780  -30.4960   17.3930 C   0  0  0  0  0  2  0  0  0  0  0  0
  -25.1980  -28.9200   16.7880 C   0  0  0  0  0  0  0  0  0  0  0  0
  -24.7210  -29.9270   17.5340 N   0  0  0  0  0  0  0  0  0  0  0  0
  -24.5730  -28.4710   15.8260 O   0  0  0  0  0  0  0  0  0  0  0  0
  -25.2950  -30.3090   18.2740 H   0  0  0  0  0  0  0  0  0  0  0  0
  -26.5460  -28.3000   17.2000 C   0  0  0  0  0  2  0  0  0  0  0  0
  -27.0080  -27.4230   16.1730 O   0  0  0  0  0  0  0  0  0  0  0  0
  -28.4270  -27.3480   16.0710 C   0  0  0  0  0  2  0  0  0  0  0  0
  -28.8070  -26.7570   14.6980 C   0  0  0  0  0  2  0  0  0  0  0  0
  -30.3120  -26.8280   14.3600 C   0  0  0  0  0  2  0  0  0  0  0  0
  -30.7560  -25.8120   13.2790 C   0  0  0  0  0  2  0  0  0  0  0  0
  -32.2920  -25.7160   13.1470 C   0  0  0  0  0  2  0  0  0  0  0  0
  -32.8680  -24.3000   12.8900 C   0  0  0  0  0  2  0  0  0  0  0  0
  -33.3830  -22.5580   14.6230 C   0  0  0  0  0  0  0  0  0  0  0  0
  -32.5120  -23.3150   13.9220 N   0  0  0  0  0  0  0  0  0  0  0  0
  -34.5960  -22.5770   14.4000 O   0  0  0  0  0  0  0  0  0  0  0  0
  -31.5280  -23.2020   14.1210 H   0  0  0  0  0  0  0  0  0  0  0  0
  -32.8100  -21.6770   15.7590 C   0  0  0  0  0  2  0  0  0  0  0  0
  -33.7330  -21.4810   16.8460 O   0  0  0  0  0  0  0  0  0  0  0  0
  -33.8170  -20.1470   17.3510 C   0  0  0  0  0  2  0  0  0  0  0  0
  -33.6540  -20.1090   18.8910 C   0  0  0  0  0  2  0  0  0  0  0  0
  -32.6870  -18.9850   19.3220 C   0  0  0  0  0  2  0  0  0  0  0  0
  -30.8220  -18.5700   20.8900 C   0  0  0  0  0  0  0  0  0  0  0  0
  -28.6270  -17.5080   20.7100 C   0  0  0  0  0  2  0  0  0  0  0  0
  -28.3780  -17.2550   19.2080 C   0  0  0  0  0  2  0  0  0  0  0  0
  -27.7030  -18.4830   18.5650 C   0  0  0  0  0  2  0  0  0  0  0  0
  -28.4320  -19.8140   18.8980 C   0  0  0  0  0  3  0  0  0  0  0  0
  -28.7500  -19.9200   20.4090 C   0  0  0  0  0  2  0  0  0  0  0  0
  -29.4740  -18.7040   20.8110 N   0  0  0  0  0  0  0  0  0  0  0  0
  -31.3700  -17.5730   21.3680 O   0  0  0  0  0  0  0  0  0  0  0  0
  -31.5210  -19.4170   20.1160 N   0  0  0  0  0  0  0  0  0  0  0  0
  -31.0040  -20.2120   19.7690 H   0  0  0  0  0  0  0  0  0  0  0  0
  -28.1190  -22.0560   17.6730 C   0  0  0  0  0  0  0  0  0  0  0  0
  -27.0090  -22.8160   17.4290 C   0  0  0  0  0  0  0  0  0  0  0  0
  -25.9180  -22.1370   18.0550 C   0  0  0  0  0  0  0  0  0  0  0  0
  -27.6810  -20.9720   18.4180 N   0  0  0  0  0  0  0  0  0  0  0  0
  -26.3550  -21.0590   18.6930 N   0  0  0  0  0  0  0  0  0  0  0  0
  -24.4780  -22.4180   18.0320 C   0  0  0  0  0  0  0  0  0  0  0  0
  -23.7540  -22.6650   19.2190 C   0  0  0  0  0  3  0  0  0  0  0  0
  -22.3720  -22.9510   19.1690 C   0  0  0  0  0  3  0  0  0  0  0  0
  -21.7010  -22.9960   17.9230 C   0  0  0  0  0  0  0  0  0  0  0  0
  -22.4210  -22.7250   16.7470 C   0  0  0  0  0  3  0  0  0  0  0  0
  -23.7940  -22.4350   16.7990 C   0  0  0  0  0  3  0  0  0  0  0  0
  -20.3560  -23.2390   17.7810 O   0  0  0  0  0  0  0  0  0  0  0  0
  -19.6650  -24.0130   18.6790 C   0  0  0  0  0  0  0  0  0  0  0  0
  -20.0280  -25.3510   18.9460 C   0  0  0  0  0  3  0  0  0  0  0  0
  -19.2490  -26.1300   19.8230 C   0  0  0  0  0  3  0  0  0  0  0  0
  -18.1030  -25.5800   20.4280 C   0  0  0  0  0  0  0  0  0  0  0  0
  -17.7380  -24.2490   20.1600 C   0  0  0  0  0  3  0  0  0  0  0  0
  -18.5150  -23.4690   19.2850 C   0  0  0  0  0  0  0  0  0  0  0  0
  -18.1460  -22.1930   19.0140 F   0  0  0  0  0  0  0  0  0  0  0  0
  -17.3500  -26.3300   21.2650 F   0  0  0  0  0  0  0  0  0  0  0  0
  -26.9390  -24.0550   16.5820 C   0  0  0  0  0  0  0  0  0  0  0  0
  -26.0500  -24.9820   16.9190 N   0  0  0  0  0  0  0  0  0  0  0  0
  -27.7130  -24.2300   15.6410 O   0  0  0  0  0  0  0  0  0  0  0  0
  -25.4300  -24.8490   17.7050 H   0  0  0  0  0  0  0  0  0  0  0  0
  -25.9890  -25.8400   16.3870 H   0  0  0  0  0  0  0  0  0  0  0  0
  -29.4560  -22.1820   17.3070 N   0  0  0  0  0  0  0  0  0  0  0  0
  -29.7800  -22.9380   16.7140 H   0  0  0  0  0  0  0  0  0  0  0  0
  -30.1760  -21.5000   17.5080 H   0  0  0  0  0  0  0  0  0  0  0  0
  1  2  1  0
  2  4  1  0
  2  5  1  0
  3  1  2  0
  6  5  1  0
  6  7  1  0
  7  9  1  0
  8  6  2  0
 10  7  1  0
 11 12  1  0
 11 10  1  0
 12 14  1  0
 13 11  2  0
 15 12  1  0
 15 16  1  0
 16 17  1  0
 17 18  1  0
 18 19  1  0
 19 20  1  0
 21 22  1  0
 21 20  1  0
 23 22  1  0
 24 23  1  0
 25 36  2  0
 26 24  1  0
 26 31  1  0
 27 35  1  0
 27 37  1  0
 28 34  1  0
 28 30  1  0
 29 35  1  0
 30 29  1  0
 31 30  2  0
 32 33  1  0
 32 26  2  0
 33 28  2  0
 34 27  1  0
 35 25  1  0
 37 39  2  0
 38 37  1  0
 40 38  1  0
 41 46  1  0
 42 38  1  0
 43 42  1  0
 44 45  1  0
 44 43  1  0
 45 41  1  0
 46 47  2  0
 46 42  1  0
 48 47  1  0
 49 48  2  0
 50 49  1  0
 50 41  2  0
 51 25  1  0
 51 56  1  0
 51 52  1  0
 52 55  1  1
 52 53  1  0
 54 52  1  0
 56 59  1  0
 57 61  1  0
 57 56  1  0
 58 57  2  0
 61 60  1  0
 63 64  1  0
 63 61  1  0
 63 62  1  0
 65 67  1  0
 65  1  1  0
 66 70  1  0
 66 67  1  0
 67 69  1  0
 68 66  2  0
 71 70  1  0
 72 71  1  0
 73 72  1  0
 74 73  1  0
 75 74  1  0
 76 75  1  0
 77 76  1  0
 77 79  1  0
 78 82  1  0
 79 81  1  0
 79 78  1  0
 80 78  2  0
 82 83  1  0
 83 84  1  0
 84 85  1  0
 85 86  1  0
 86 95  1  0
 87 94  2  0
 88 93  1  0
 89 88  1  0
 90 91  1  0
 90 89  1  0
 91100  1  0
 91 92  1  0
 92 93  1  0
 93 87  1  0
 95 87  1  0
 96 95  1  0
 97100  1  0
 98 97  2  0
 98 99  1  0
 99101  2  0
100101  1  0
102 99  1  0
102103  1  0
104103  2  0
105104  1  0
106107  1  0
106105  2  0
107102  2  0
108105  1  0
108109  1  0
109110  2  0
109114  1  0
110111  1  0
111112  2  0
112116  1  0
113112  1  0
114113  2  0
115114  1  0
117118  1  0
117 98  1  0
118120  1  0
119117  2  0
121118  1  0
122124  1  0
122 97  1  0
123122  1  0
M  ISO  4  23 101  24 101  87 100  95 100
M  END
>  <TORSDO>  (74) 
F 45

>  <SCORE>  (74) 
8.824

>  <name>  (74) 
86

>  <ligand_id>  (74) 
86

>  <original_smiles>  (74) 
[H]c1c([H])c([H])c2c(c1[H])C([H])([H])C([H])([H])C([H])([H])C2([H])N([H])C(=O)C1([H])N(C(=O)C([H])(N([H])C(=O)C([H])(N([H])C([H])([H])[H])C([H])([H])[H])C(C([H])([H])[H])(C([H])([H])[H])C([H])([H])[H])C([H])([H])c2c([H])c(OC([H])([H])C([H])([H])OC([H])([H])C([H])([H])C([H])([H])C([H])([H])C([H])([H])C([H])([H])N([H])C(=O)C([H])([H])N([H])C(=O)C([H])([H])N([H])C(=O)C([H])([H])N([H])C(=O)C([H])([H])OC([H])([H])C([H])([H])C([H])([H])C([H])([H])C([H])([H])C([H])([H])N([H])C(=O)C([H])([H])OC([H])([H])C([H])([H])C([H])([H])N([H])C(=O)N3C([H])([H])C([H])([H])C([H])([H])C([H])(n4nc(-c5c([H])c([H])c(Oc6c([H])c([H])c(F)c([H])c6F)c([H])c5[H])c(C(=O)N([H])[H])c4N([H])[H])C3([H])[H])c([H])c([H])c2C1([H])[H]

>  <smiles>  (74) 
[H]c1c([H])c([H])c2c(c1[H])C([H])([H])C([H])([H])C([H])([H])C2([H])N([H])C(=O)C1([H])N(C(=O)C([H])(N([H])C(=O)C([H])(N([H])C([H])([H])[H])C([H])([H])[H])C(C([H])([H])[H])(C([H])([H])[H])C([H])([H])[H])C([H])([H])c2c([H])c(OC([H])([H])C([H])([H])OC([H])([H])C([H])([H])C([H])([H])C([H])([H])C([H])([H])C([H])([H])N([H])C(=O)C([H])([H])N([H])C(=O)C([H])([H])N([H])C(=O)C([H])([H])N([H])C(=O)C([H])([H])OC([H])([H])C([H])([H])C([H])([H])C([H])([H])C([H])([H])C([H])([H])N([H])C(=O)C([H])([H])OC([H])([H])C([H])([H])C([H])([H])N([H])C(=O)N3C([H])([H])C([H])([H])C([H])([H])C([H])(n4nc(-c5c([H])c([H])c(Oc6c([H])c([H])c(F)c([H])c6F)c([H])c5[H])c(C(=O)N([H])[H])c4N([H])[H])C3([H])[H])c([H])c([H])c2C1([H])[H]

$$$$
88:0:0
     RDKit          3D

140147  0  0  1  0  0  0  0  0999 V2000
  -31.3670  -21.7390   18.9570 C   0  0  0  0  0  0  0  0  0  0  0  0
  -31.3220  -20.5070   18.4160 N   0  0  0  0  0  0  0  0  0  0  0  0
  -31.6820  -21.9440   20.1280 O   0  0  0  0  0  0  0  0  0  0  0  0
  -31.0950  -20.4340   17.4350 H   0  0  0  0  0  0  0  0  0  0  0  0
  -31.5940  -19.2390   19.1060 C   0  0  0  0  0  2  0  0  0  0  0  0
  -30.2920  -18.5150   19.5300 C   0  0  0  0  0  3  0  0  0  0  0  0
  -29.4110  -17.8750   18.4290 C   0  0  0  0  0  3  0  0  0  0  0  0
  -28.0720  -17.1840   18.9190 C   0  0  0  0  0  2  0  0  0  0  0  0
  -28.0340  -16.1750   20.1780 C   0  0  0  0  0  2  0  0  0  0  0  0
  -27.4870  -14.6470   20.0170 C   0  0  0  0  0  0  0  0  0  0  0  0
  -28.2060  -13.5300   20.4410 N   0  0  0  0  0  0  0  0  0  0  0  0
  -26.3450  -14.5150   19.5680 O   0  0  0  0  0  0  0  0  0  0  0  0
  -29.1290  -13.7070   20.8140 H   0  0  0  0  0  0  0  0  0  0  0  0
  -27.7530  -12.0490   20.5100 C   0  0  0  0  0  2  0  0  0  0  0  0
  -28.7130  -10.7370   20.4220 C   0  0  0  0  0  0  0  0  0  0  0  0
  -30.0490  -10.7610   20.7960 N   0  0  0  0  0  0  0  0  0  0  0  0
  -28.2250   -9.6590   20.0710 O   0  0  0  0  0  0  0  0  0  0  0  0
  -30.1900  -11.7230   21.0950 H   0  0  0  0  0  0  0  0  0  0  0  0
  -31.3260   -9.8340   20.7150 C   0  0  0  0  0  2  0  0  0  0  0  0
  -32.8960  -10.4110   21.0550 C   0  0  0  0  0  0  0  0  0  0  0  0
  -33.6930  -11.3090   20.2680 N   0  0  0  0  0  0  0  0  0  0  0  0
  -33.3740  -10.0700   22.1420 O   0  0  0  0  0  0  0  0  0  0  0  0
  -34.1490  -10.8360   19.5180 H   0  0  0  0  0  0  0  0  0  0  0  0
  -34.2810  -12.7750   20.4720 C   0  0  0  0  0  2  0  0  0  0  0  0
  -34.3370  -14.3020   19.5420 C   0  0  0  0  0  2  0  0  0  0  0  0
  -33.3260  -15.6120   18.7860 C   0  0  0  0  0  2  0  0  0  0  0  0
  -33.2460  -16.4100   17.1630 C   0  0  0  0  0  2  0  0  0  0  0  0
  -32.0160  -17.0750   15.9990 C   0  0  0  0  0  2  0  0  0  0  0  0
  -31.9050  -17.2280   14.1970 C   0  0  0  0  0  3  0  0  0  0  0  0
  -31.1470  -18.3930   13.0340 C   0  0  0  0  0  3  0  0  0  0  0  0
  -31.3120  -18.8090   11.3030 C   0  0  0  0  0  3  0  0  0  0  0  0
  -30.5350  -20.0620   10.2550 C   0  0  0  0  0  3  0  0  0  0  0  0
  -30.6730  -20.6170    8.7120 O   0  0  0  0  0  0  0  0  0  0  0  0
  -28.3260  -27.5390    7.0990 C   0  0  0  0  0  0  0  0  0  0  0  0
  -29.7260  -21.5590    8.0640 C   0  0  0  0  0  0  0  0  0  0  0  0
  -26.7050  -25.7690    7.6380 C   0  0  0  0  0  3  0  0  0  0  0  0
  -27.5110  -23.3530    7.4100 C   0  0  0  0  0  0  0  0  0  0  0  0
  -28.8830  -25.1480    6.4040 C   0  0  0  0  0  2  0  0  0  0  0  0
  -28.8010  -23.7350    7.0480 C   0  0  0  0  0  0  0  0  0  0  0  0
  -29.9080  -22.8270    7.3420 C   0  0  0  0  0  3  0  0  0  0  0  0
  -28.3710  -21.1980    8.1970 C   0  0  0  0  0  3  0  0  0  0  0  0
  -27.3010  -22.0680    7.9370 C   0  0  0  0  0  3  0  0  0  0  0  0
  -26.3610  -24.3090    7.2220 C   0  0  0  0  0  2  0  0  0  0  0  0
  -28.0040  -26.1980    7.0480 N   0  0  0  0  0  0  0  0  0  0  0  0
  -27.5550  -28.3710    7.6110 O   0  0  0  0  0  0  0  0  0  0  0  0
  -26.6550  -25.9050    9.1880 C   0  0  0  0  0  0  0  0  0  0  0  0
  -25.4580  -26.1160    9.7530 N   0  0  0  0  0  0  0  0  0  0  0  0
  -27.6920  -25.8250    9.8420 O   0  0  0  0  0  0  0  0  0  0  0  0
  -24.6530  -26.2030    9.1490 H   0  0  0  0  0  0  0  0  0  0  0  0
  -22.8940  -26.7040   12.2450 C   0  0  0  0  0  0  0  0  0  0  0  0
  -25.2040  -26.2280   11.1930 C   0  0  0  0  0  3  0  0  0  0  0  0
  -25.1020  -24.8340   11.8530 C   0  0  0  0  0  2  0  0  0  0  0  0
  -23.6630  -24.3170   11.9420 C   0  0  0  0  0  2  0  0  0  0  0  0
  -22.7920  -25.2780   12.7580 C   0  0  0  0  0  2  0  0  0  0  0  0
  -24.0200  -27.1460   11.4980 C   0  0  0  0  0  0  0  0  0  0  0  0
  -24.0450  -28.4790   11.0340 C   0  0  0  0  0  3  0  0  0  0  0  0
  -22.9770  -29.3550   11.2900 C   0  0  0  0  0  3  0  0  0  0  0  0
  -21.8700  -28.9120   12.0340 C   0  0  0  0  0  3  0  0  0  0  0  0
  -21.8310  -27.5900   12.5180 C   0  0  0  0  0  3  0  0  0  0  0  0
  -29.6520  -28.0790    6.4840 C   0  0  0  0  0  3  0  0  0  0  0  0
  -30.7930  -28.2830    7.5560 C   0  0  1  0  0  0  0  0  0  0  0  0
  -30.3560  -29.1340    8.7710 C   0  0  0  0  0  1  0  0  0  0  0  0
  -31.3110  -26.9270    8.1010 C   0  0  0  0  0  1  0  0  0  0  0  0
  -32.0030  -28.9870    6.9010 C   0  0  0  0  0  1  0  0  0  0  0  0
  -29.3480  -29.3620    5.8160 N   0  0  0  0  0  0  0  0  0  0  0  0
  -29.1470  -29.5130    4.5000 C   0  0  0  0  0  0  0  0  0  0  0  0
  -29.2560  -28.5810    3.7030 O   0  0  0  0  0  0  0  0  0  0  0  0
  -29.2040  -30.1560    6.4180 H   0  0  0  0  0  0  0  0  0  0  0  0
  -27.2410  -30.9840    3.7580 C   0  0  0  0  0  1  0  0  0  0  0  0
  -28.7590  -30.9210    3.9940 C   0  0  0  0  0  3  0  0  0  0  0  0
  -30.8960  -31.5520    2.9660 C   0  0  0  0  0  1  0  0  0  0  0  0
  -29.4720  -31.3170    2.7640 N   0  0  0  0  0  0  0  0  0  0  0  0
  -29.0640  -32.1580    2.3700 H   0  0  0  0  0  0  0  0  0  0  0  0
  -31.0310  -22.9400   18.0630 C   0  0  0  0  0  2  0  0  0  0  0  0
  -29.6780  -23.5100   18.3060 N   0  0  0  0  0  4  0  0  0  0  0  0
  -29.7720  -24.4040   18.7660 H   0  0  0  0  0  0  0  0  0  0  0  0
  -29.1800  -22.8980   18.9400 H   0  0  0  0  0  0  0  0  0  0  0  0
  -28.8680  -23.6390   17.0620 C   0  0  0  0  0  2  0  0  0  0  0  0
  -28.4230  -25.0770   16.7020 C   0  0  0  0  0  2  0  0  0  0  0  0
  -28.8290  -25.5660   15.2950 C   0  0  0  0  0  2  0  0  0  0  0  0
  -30.3200  -25.4610   14.9370 C   0  0  0  0  0  2  0  0  0  0  0  0
  -30.6590  -25.9700   13.5350 C   0  0  0  0  0  2  0  0  0  0  0  0
  -32.1720  -26.0320   13.2550 C   0  0  0  0  0  2  0  0  0  0  0  0
  -33.8470  -26.9180   14.8490 C   0  0  0  0  0  0  0  0  0  0  0  0
  -32.8220  -27.0970   14.0120 N   0  0  0  0  0  0  0  0  0  0  0  0
  -34.3660  -25.8140   15.0660 O   0  0  0  0  0  0  0  0  0  0  0  0
  -32.4810  -28.0440   13.8800 H   0  0  0  0  0  0  0  0  0  0  0  0
  -34.3840  -28.1820   15.5490 C   0  0  0  0  0  2  0  0  0  0  0  0
  -33.7070  -27.8860   17.9450 C   0  0  0  0  0  0  0  0  0  0  0  0
  -34.6310  -28.0310   16.9940 N   0  0  0  0  0  0  0  0  0  0  0  0
  -32.5070  -27.8060   17.6750 O   0  0  0  0  0  0  0  0  0  0  0  0
  -35.5950  -28.1090   17.2830 H   0  0  0  0  0  0  0  0  0  0  0  0
  -34.1590  -27.8490   19.4020 C   0  0  0  0  0  2  0  0  0  0  0  0
  -32.9960  -28.1580   20.2470 N   0  0  0  0  0  4  0  0  0  0  0  0
  -32.3630  -28.5320   19.5530 H   0  0  0  0  0  0  0  0  0  0  0  0
  -33.2410  -28.9060   20.8700 H   0  0  0  0  0  0  0  0  0  0  0  0
  -32.3630  -27.0410   20.9720 C   0  0  0  0  0  2  0  0  0  0  0  0
  -31.1030  -26.4920   20.3010 C   0  0  0  0  0  2  0  0  0  0  0  0
  -30.4020  -25.4680   21.2210 C   0  0  0  0  0  2  0  0  0  0  0  0
  -29.0110  -25.3470   20.9380 O   0  0  0  0  0  0  0  0  0  0  0  0
  -28.1840  -25.4060   22.0800 C   0  0  0  0  0  2  0  0  0  0  0  0
  -26.7960  -26.1010   21.7650 C   0  0  0  0  0  2  0  0  0  0  0  0
  -25.3140  -27.8630   22.8110 C   0  0  0  0  0  0  0  0  0  0  0  0
  -23.9870  -29.5350   24.0130 C   0  0  0  0  0  2  0  0  0  0  0  0
  -23.9700  -30.8440   23.2880 C   0  0  0  0  0  2  0  0  0  0  0  0
  -24.9860  -31.7760   23.8890 C   0  0  0  0  0  3  0  0  0  0  0  0
  -26.4410  -31.2670   24.1100 C   0  0  0  0  0  0  0  0  0  0  0  0
  -26.4420  -29.7470   23.8200 C   0  0  0  0  0  2  0  0  0  0  0  0
  -25.2620  -28.8850   23.7260 N   0  0  0  0  0  0  0  0  0  0  0  0
  -24.4150  -27.7200   21.9860 O   0  0  0  0  0  0  0  0  0  0  0  0
  -26.3930  -27.0220   22.8320 N   0  0  0  0  0  0  0  0  0  0  0  0
  -27.1000  -27.1710   23.5420 H   0  0  0  0  0  0  0  0  0  0  0  0
  -28.8900  -32.3040   24.6960 C   0  0  0  0  0  0  0  0  0  0  0  0
  -29.4380  -32.9030   25.7990 C   0  0  0  0  0  0  0  0  0  0  0  0
  -28.4490  -32.8780   26.8030 C   0  0  0  0  0  0  0  0  0  0  0  0
  -27.6180  -31.8940   24.9640 N   0  0  0  0  0  0  0  0  0  0  0  0
  -27.4290  -32.2990   26.2410 N   0  0  0  0  0  0  0  0  0  0  0  0
  -28.2680  -33.5470   28.1250 C   0  0  0  0  0  0  0  0  0  0  0  0
  -27.9480  -32.8530   29.3430 C   0  0  0  0  0  3  0  0  0  0  0  0
  -27.8100  -33.5420   30.5740 C   0  0  0  0  0  3  0  0  0  0  0  0
  -28.0010  -34.9470   30.6090 C   0  0  0  0  0  0  0  0  0  0  0  0
  -28.3030  -35.6400   29.4260 C   0  0  0  0  0  3  0  0  0  0  0  0
  -28.3780  -34.9550   28.2040 C   0  0  0  0  0  3  0  0  0  0  0  0
  -27.9310  -35.6840   31.7580 O   0  0  0  0  0  0  0  0  0  0  0  0
  -28.1450  -35.1100   33.0090 C   0  0  0  0  0  0  0  0  0  0  0  0
  -29.3270  -34.4300   33.3270 C   0  0  0  0  0  3  0  0  0  0  0  0
  -29.5460  -33.9120   34.6330 C   0  0  0  0  0  3  0  0  0  0  0  0
  -28.5450  -34.1050   35.6160 C   0  0  0  0  0  0  0  0  0  0  0  0
  -27.3520  -34.7640   35.3040 C   0  0  0  0  0  3  0  0  0  0  0  0
  -27.1490  -35.2900   34.0050 C   0  0  0  0  0  0  0  0  0  0  0  0
  -26.0420  -35.9810   33.7230 F   0  0  0  0  0  0  0  0  0  0  0  0
  -28.7360  -33.6130   36.8720 F   0  0  0  0  0  0  0  0  0  0  0  0
  -30.7410  -33.5830   25.9310 C   0  0  0  0  0  0  0  0  0  0  0  0
  -31.2270  -33.7100   27.1400 N   0  0  0  0  0  0  0  0  0  0  0  0
  -31.3030  -34.0650   24.9410 O   0  0  0  0  0  0  0  0  0  0  0  0
  -30.7800  -33.2620   27.9240 H   0  0  0  0  0  0  0  0  0  0  0  0
  -32.0390  -34.2650   27.3130 H   0  0  0  0  0  0  0  0  0  0  0  0
  -29.4970  -31.9460   23.5010 N   0  0  0  0  0  0  0  0  0  0  0  0
  -30.4400  -32.3140   23.7170 H   0  0  0  0  0  0  0  0  0  0  0  0
  -29.4460  -30.9120   23.3970 H   0  0  0  0  0  0  0  0  0  0  0  0
  1  3  2  0
  2  1  1  0
  2  5  1  0
  4  2  1  0
  5  6  1  0
  7  8  1  0
  7  6  2  0
  8  9  1  0
 10  9  1  0
 10 11  1  0
 11 14  1  0
 11 13  1  0
 12 10  2  0
 15 14  1  0
 15 16  1  0
 16 18  1  0
 17 15  2  0
 19 16  1  0
 19 20  1  0
 20 22  2  0
 21 24  1  0
 21 20  1  0
 23 21  1  0
 25 24  1  0
 26 25  1  0
 27 26  1  0
 28 27  1  0
 29 28  1  0
 30 29  2  0
 31 30  1  0
 32 31  2  0
 33 32  1  0
 34 45  2  0
 35 41  1  0
 35 33  1  0
 36 46  1  0
 37 42  1  0
 38 44  1  0
 38 39  1  0
 39 40  1  0
 39 37  2  0
 40 35  2  0
 42 41  2  0
 43 37  1  0
 43 36  1  0
 44 34  1  0
 44 36  1  0
 46 47  1  0
 46 48  2  0
 49 47  1  0
 50 59  1  0
 50 54  1  0
 51 47  1  0
 51 55  1  0
 51 52  1  0
 52 53  1  0
 53 54  1  0
 55 50  2  0
 56 57  2  0
 56 55  1  0
 57 58  1  0
 58 59  2  0
 60 34  1  0
 60 61  1  0
 61 63  1  1
 61 62  1  0
 64 61  1  0
 65 68  1  0
 65 60  1  0
 66 65  1  0
 67 66  2  0
 70 69  1  0
 70 66  1  0
 72 71  1  0
 72 70  1  0
 73 72  1  0
 74 75  1  0
 74  1  1  0
 75 76  1  0
 75 77  1  0
 78 75  1  0
 79 78  1  0
 80 79  1  0
 81 80  1  0
 82 81  1  0
 83 82  1  0
 83 85  1  0
 84 86  2  0
 84 88  1  0
 85 84  1  0
 87 85  1  0
 88 90  1  0
 89 93  1  0
 90 92  1  0
 90 89  1  0
 91 89  2  0
 93 94  1  0
 94 96  1  0
 94 97  1  0
 95 94  1  0
 98 97  1  0
 98 99  1  0
100 99  1  0
100101  1  0
102101  1  0
102111  1  0
103111  1  0
103109  1  0
105106  1  0
105104  1  0
106107  2  0
107116  1  0
108107  1  0
109108  1  0
109104  1  0
110103  2  0
111112  1  0
113116  1  0
113114  2  0
114133  1  0
114115  1  0
115118  1  0
116117  1  0
117115  2  0
118123  2  0
118119  1  0
119120  2  0
120121  1  0
121124  1  0
122121  2  0
123122  1  0
124125  1  0
125126  2  0
125130  1  0
126127  1  0
127128  2  0
128132  1  0
129128  1  0
130129  2  0
131130  1  0
133134  1  0
134137  1  0
134136  1  0
135133  2  0
138139  1  0
138113  1  0
140138  1  0
M  ISO  4  32 101  33 101 103 100 111 100
M  END
>  <TORSDO>  (75) 
F 54

>  <SCORE>  (75) 
-4.640

>  <name>  (75) 
88

>  <ligand_id>  (75) 
88

>  <original_smiles>  (75) 
[H]c1c([H])c([H])c2c(c1[H])C([H])([H])C([H])([H])C([H])([H])C2([H])N([H])C(=O)C1([H])N(C(=O)C([H])(N([H])C(=O)C([H])(N([H])C([H])([H])[H])C([H])([H])[H])C(C([H])([H])[H])(C([H])([H])[H])C([H])([H])[H])C([H])([H])c2c([H])c(OC([H])([H])C([H])([H])C([H])([H])C([H])([H])C([H])([H])C([H])([H])C([H])([H])C([H])([H])C([H])([H])N([H])C(=O)C([H])([H])N([H])C(=O)C([H])([H])N([H])C(=O)C([H])([H])C([H])([H])C([H])([H])C([H])([H])C([H])([H])N([H])C(=O)C([H])([H])[N+]([H])([H])C([H])([H])C([H])([H])C([H])([H])C([H])([H])C([H])([H])C([H])([H])N([H])C(=O)C([H])([H])N([H])C(=O)C([H])([H])[N+]([H])([H])C([H])([H])C([H])([H])C([H])([H])OC([H])([H])C([H])([H])N([H])C(=O)N3C([H])([H])C([H])([H])C([H])([H])C([H])(n4nc(-c5c([H])c([H])c(Oc6c([H])c([H])c(F)c([H])c6F)c([H])c5[H])c(C(=O)N([H])[H])c4N([H])[H])C3([H])[H])c([H])c([H])c2C1([H])[H]

>  <smiles>  (75) 
[H]c1c([H])c([H])c2c(c1[H])C([H])([H])C([H])([H])C([H])([H])C2([H])N([H])C(=O)C1([H])N(C(=O)C([H])(N([H])C(=O)C([H])(N([H])C([H])([H])[H])C([H])([H])[H])C(C([H])([H])[H])(C([H])([H])[H])C([H])([H])[H])C([H])([H])c2c([H])c(OC([H])([H])C([H])([H])C([H])([H])C([H])([H])C([H])([H])C([H])([H])C([H])([H])C([H])([H])C([H])([H])N([H])C(=O)C([H])([H])N([H])C(=O)C([H])([H])N([H])C(=O)C([H])([H])C([H])([H])C([H])([H])C([H])([H])C([H])([H])N([H])C(=O)C([H])([H])[N+]([H])([H])C([H])([H])C([H])([H])C([H])([H])C([H])([H])C([H])([H])C([H])([H])N([H])C(=O)C([H])([H])N([H])C(=O)C([H])([H])[N+]([H])([H])C([H])([H])C([H])([H])C([H])([H])OC([H])([H])C([H])([H])N([H])C(=O)N3C([H])([H])C([H])([H])C([H])([H])C([H])(n4nc(-c5c([H])c([H])c(Oc6c([H])c([H])c(F)c([H])c6F)c([H])c5[H])c(C(=O)N([H])[H])c4N([H])[H])C3([H])[H])c([H])c([H])c2C1([H])[H]

$$$$
89:0:0
     RDKit          3D

115122  0  0  1  0  0  0  0  0999 V2000
  -24.3920  -15.2210   21.7620 C   0  0  0  0  0  0  0  0  0  0  0  0
  -24.3650  -15.7080   23.0080 N   0  0  0  0  0  0  0  0  0  0  0  0
  -25.1140  -14.2730   21.4470 O   0  0  0  0  0  0  0  0  0  0  0  0
  -23.7650  -16.5060   23.1720 H   0  0  0  0  0  0  0  0  0  0  0  0
  -25.0020  -15.1380   24.2050 C   0  0  0  0  0  2  0  0  0  0  0  0
  -26.2360  -14.2390   23.9880 C   0  0  0  0  0  0  0  0  0  0  0  0
  -26.7800  -14.1810   22.7680 N   0  0  0  0  0  0  0  0  0  0  0  0
  -26.6960  -13.6060   24.9380 O   0  0  0  0  0  0  0  0  0  0  0  0
  -26.2740  -14.6770   22.0400 H   0  0  0  0  0  0  0  0  0  0  0  0
  -27.9280  -13.3720   22.3750 C   0  0  0  0  0  2  0  0  0  0  0  0
  -28.4510  -13.8140   21.0020 C   0  0  0  0  0  2  0  0  0  0  0  0
  -29.7590  -13.2980   20.7980 O   0  0  0  0  0  0  0  0  0  0  0  0
  -30.4260  -13.9130   19.7020 C   0  0  0  0  0  2  0  0  0  0  0  0
  -31.8540  -13.3540   19.5980 C   0  0  0  0  0  2  0  0  0  0  0  0
  -32.5990  -14.0230   18.5880 O   0  0  0  0  0  0  0  0  0  0  0  0
  -32.3450  -13.5360   17.2690 C   0  0  0  0  0  2  0  0  0  0  0  0
  -33.6600  -13.4770   16.4760 C   0  0  0  0  0  0  0  0  0  0  0  0
  -34.7440  -13.7510   17.0030 O   0  0  0  0  0  0  0  0  0  0  0  0
  -33.5610  -13.0520   15.0030 C   0  0  0  0  0  2  0  0  0  0  0  0
  -34.5110  -12.0210   14.7100 O   0  0  0  0  0  0  0  0  0  0  0  0
  -41.1910  -10.4720   12.8830 C   0  0  0  0  0  0  0  0  0  0  0  0
  -35.5560  -12.3010   13.8550 C   0  0  0  0  0  0  0  0  0  0  0  0
  -40.1930  -12.4140   11.7160 C   0  0  0  0  0  3  0  0  0  0  0  0
  -37.6860  -12.7270   12.0440 C   0  0  0  0  0  0  0  0  0  0  0  0
  -38.7190  -10.5140   12.5860 C   0  0  0  0  0  2  0  0  0  0  0  0
  -37.6220  -11.5390   12.7840 C   0  0  0  0  0  0  0  0  0  0  0  0
  -36.5570  -11.3210   13.6800 C   0  0  0  0  0  3  0  0  0  0  0  0
  -35.6370  -13.4990   13.1100 C   0  0  0  0  0  3  0  0  0  0  0  0
  -36.6980  -13.7130   12.2070 C   0  0  0  0  0  3  0  0  0  0  0  0
  -38.8500  -12.8780   11.0910 C   0  0  0  0  0  2  0  0  0  0  0  0
  -40.0690  -11.1070   12.4390 N   0  0  0  0  0  0  0  0  0  0  0  0
  -42.3190  -10.9310   12.6550 O   0  0  0  0  0  0  0  0  0  0  0  0
  -40.7430  -13.5540   12.6030 C   0  0  0  0  0  0  0  0  0  0  0  0
  -41.3210  -14.5830   11.9610 N   0  0  0  0  0  0  0  0  0  0  0  0
  -40.6200  -13.5170   13.8300 O   0  0  0  0  0  0  0  0  0  0  0  0
  -41.3870  -14.5350   10.9550 H   0  0  0  0  0  0  0  0  0  0  0  0
  -42.9430  -17.7320   11.2600 C   0  0  0  0  0  0  0  0  0  0  0  0
  -41.8760  -15.7850   12.5830 C   0  0  0  0  0  3  0  0  0  0  0  0
  -40.7550  -16.7830   12.9550 C   0  0  0  0  0  2  0  0  0  0  0  0
  -40.4850  -17.8210   11.8610 C   0  0  0  0  0  2  0  0  0  0  0  0
  -41.7510  -18.6280   11.5570 C   0  0  0  0  0  2  0  0  0  0  0  0
  -42.9930  -16.3920   11.7290 C   0  0  0  0  0  0  0  0  0  0  0  0
  -44.1050  -15.5900   11.3900 C   0  0  0  0  0  3  0  0  0  0  0  0
  -45.1560  -16.1080   10.6080 C   0  0  0  0  0  3  0  0  0  0  0  0
  -45.1100  -17.4400   10.1650 C   0  0  0  0  0  3  0  0  0  0  0  0
  -44.0070  -18.2510   10.4930 C   0  0  0  0  0  3  0  0  0  0  0  0
  -41.1140   -9.1260   13.6710 C   0  0  0  0  0  3  0  0  0  0  0  0
  -41.4340   -9.2820   15.2090 C   0  0  1  0  0  0  0  0  0  0  0  0
  -42.7650  -10.0150   15.4970 C   0  0  0  0  0  1  0  0  0  0  0  0
  -40.3010  -10.0570   15.9210 C   0  0  0  0  0  1  0  0  0  0  0  0
  -41.5110   -7.8880   15.8740 C   0  0  0  0  0  1  0  0  0  0  0  0
  -42.0500   -8.1860   13.0390 N   0  0  0  0  0  0  0  0  0  0  0  0
  -41.7080   -7.2750   12.1170 C   0  0  0  0  0  0  0  0  0  0  0  0
  -40.5410   -7.0850   11.7650 O   0  0  0  0  0  0  0  0  0  0  0  0
  -43.0300   -8.3150   13.2420 H   0  0  0  0  0  0  0  0  0  0  0  0
  -43.2090   -7.0190   10.1160 C   0  0  0  0  0  1  0  0  0  0  0  0
  -42.8400   -6.4400   11.4900 C   0  0  0  0  0  3  0  0  0  0  0  0
  -42.3490   -4.3250   12.6340 C   0  0  0  0  0  1  0  0  0  0  0  0
  -42.5090   -5.0060   11.3530 N   0  0  0  0  0  0  0  0  0  0  0  0
  -43.2310   -4.5230   10.8250 H   0  0  0  0  0  0  0  0  0  0  0  0
  -23.4700  -15.8950   20.7330 C   0  0  0  0  0  2  0  0  0  0  0  0
  -25.4210  -15.9510   19.2000 C   0  0  0  0  0  0  0  0  0  0  0  0
  -24.1020  -15.9710   19.4170 N   0  0  0  0  0  0  0  0  0  0  0  0
  -26.2410  -16.0260   20.1180 O   0  0  0  0  0  0  0  0  0  0  0  0
  -23.4710  -15.8540   18.6290 H   0  0  0  0  0  0  0  0  0  0  0  0
  -25.9000  -15.8340   17.7410 C   0  0  0  0  0  2  0  0  0  0  0  0
  -27.2940  -13.7890   18.0360 C   0  0  0  0  0  0  0  0  0  0  0  0
  -27.1350  -15.0510   17.6160 N   0  0  0  0  0  0  0  0  0  0  0  0
  -26.3780  -13.1420   18.5440 O   0  0  0  0  0  0  0  0  0  0  0  0
  -27.9360  -15.5240   17.2210 H   0  0  0  0  0  0  0  0  0  0  0  0
  -28.6860  -13.1550   17.8600 C   0  0  0  0  0  2  0  0  0  0  0  0
  -28.6700  -11.7570   18.1620 O   0  0  0  0  0  0  0  0  0  0  0  0
  -27.6380  -11.0000   17.5310 C   0  0  0  0  0  2  0  0  0  0  0  0
  -27.9140   -9.5160   17.8050 C   0  0  0  0  0  2  0  0  0  0  0  0
  -28.3770   -9.4110   19.1470 O   0  0  0  0  0  0  0  0  0  0  0  0
  -29.3610   -8.4100   19.3670 C   0  0  0  0  0  2  0  0  0  0  0  0
  -28.7600   -7.1030   19.9090 C   0  0  0  0  0  2  0  0  0  0  0  0
  -27.0020   -6.4350   21.5300 C   0  0  0  0  0  0  0  0  0  0  0  0
  -25.0550   -5.9780   22.9710 C   0  0  0  0  0  2  0  0  0  0  0  0
  -23.7560   -5.9580   22.1430 C   0  0  0  0  0  2  0  0  0  0  0  0
  -23.1830   -7.3800   21.9820 C   0  0  0  0  0  2  0  0  0  0  0  0
  -24.2550   -8.4030   21.5160 C   0  0  0  0  0  3  0  0  0  0  0  0
  -25.5260   -8.2900   22.3880 C   0  0  0  0  0  2  0  0  0  0  0  0
  -25.9970   -6.8970   22.3160 N   0  0  0  0  0  0  0  0  0  0  0  0
  -27.3170   -5.2450   21.4610 O   0  0  0  0  0  0  0  0  0  0  0  0
  -27.6170   -7.3580   20.7830 N   0  0  0  0  0  0  0  0  0  0  0  0
  -27.2680   -8.3050   20.8320 H   0  0  0  0  0  0  0  0  0  0  0  0
  -23.8980  -10.7680   20.5620 C   0  0  0  0  0  0  0  0  0  0  0  0
  -23.1300  -11.8170   20.9900 C   0  0  0  0  0  0  0  0  0  0  0  0
  -22.5140  -11.3890   22.2070 C   0  0  0  0  0  0  0  0  0  0  0  0
  -23.7270   -9.7650   21.5050 N   0  0  0  0  0  0  0  0  0  0  0  0
  -22.9300  -10.1700   22.5270 N   0  0  0  0  0  0  0  0  0  0  0  0
  -21.5130  -12.0420   23.0560 C   0  0  0  0  0  0  0  0  0  0  0  0
  -21.8580  -12.6070   24.3040 C   0  0  0  0  0  3  0  0  0  0  0  0
  -20.8810  -13.2460   25.0940 C   0  0  0  0  0  3  0  0  0  0  0  0
  -19.5430  -13.3300   24.6410 C   0  0  0  0  0  0  0  0  0  0  0  0
  -19.2010  -12.7480   23.4080 C   0  0  0  0  0  3  0  0  0  0  0  0
  -20.1740  -12.1070   22.6230 C   0  0  0  0  0  3  0  0  0  0  0  0
  -18.5210  -13.9090   25.3540 O   0  0  0  0  0  0  0  0  0  0  0  0
  -18.6660  -15.1320   25.9570 C   0  0  0  0  0  0  0  0  0  0  0  0
  -19.1660  -16.2530   25.2600 C   0  0  0  0  0  3  0  0  0  0  0  0
  -19.2350  -17.5090   25.9000 C   0  0  0  0  0  3  0  0  0  0  0  0
  -18.7950  -17.6460   27.2290 C   0  0  0  0  0  0  0  0  0  0  0  0
  -18.2920  -16.5300   27.9240 C   0  0  0  0  0  3  0  0  0  0  0  0
  -18.2250  -15.2790   27.2890 C   0  0  0  0  0  0  0  0  0  0  0  0
  -17.7170  -14.2140   27.9550 F   0  0  0  0  0  0  0  0  0  0  0  0
  -18.8570  -18.8520   27.8430 F   0  0  0  0  0  0  0  0  0  0  0  0
  -22.8950  -13.1110   20.2660 C   0  0  0  0  0  0  0  0  0  0  0  0
  -22.4890  -14.1530   20.9860 N   0  0  0  0  0  0  0  0  0  0  0  0
  -23.0960  -13.2110   19.0560 O   0  0  0  0  0  0  0  0  0  0  0  0
  -22.3280  -14.0700   21.9790 H   0  0  0  0  0  0  0  0  0  0  0  0
  -22.3260  -15.0400   20.5350 H   0  0  0  0  0  0  0  0  0  0  0  0
  -24.7110  -10.5710   19.4500 N   0  0  0  0  0  0  0  0  0  0  0  0
  -24.9510  -11.3220   18.8140 H   0  0  0  0  0  0  0  0  0  0  0  0
  -25.3010   -9.7560   19.3230 H   0  0  0  0  0  0  0  0  0  0  0  0
  1  2  1  0
  2  4  1  0
  2  5  1  0
  3  1  2  0
  6  5  1  0
  6  8  2  0
  7  6  1  0
  9  7  1  0
 10  7  1  0
 11 10  1  0
 12 11  1  0
 13 12  1  0
 14 13  1  0
 15 14  1  0
 16 15  1  0
 17 18  2  0
 17 16  1  0
 19 17  1  0
 20 19  1  0
 22 20  1  0
 23 31  1  0
 23 33  1  0
 24 29  2  0
 24 26  1  0
 25 26  1  0
 26 27  2  0
 27 22  1  0
 28 22  2  0
 29 28  1  0
 30 23  1  0
 30 24  1  0
 31 25  1  0
 31 21  1  0
 32 21  2  0
 33 35  2  0
 34 33  1  0
 36 34  1  0
 37 41  1  0
 37 42  1  0
 38 34  1  0
 38 39  1  0
 40 39  1  0
 41 40  1  0
 42 38  1  0
 43 42  2  0
 44 43  1  0
 45 46  1  0
 45 44  2  0
 46 37  2  0
 47 21  1  0
 47 48  1  0
 48 49  1  6
 48 51  1  0
 48 50  1  0
 52 55  1  0
 52 47  1  0
 53 52  1  0
 54 53  2  0
 57 56  1  0
 57 53  1  0
 59 57  1  0
 59 58  1  0
 60 59  1  0
 61  1  1  0
 62 63  1  0
 62 64  2  0
 63 61  1  0
 65 63  1  0
 66 62  1  0
 67 69  2  0
 68 66  1  0
 68 67  1  0
 70 68  1  0
 71 67  1  0
 71 72  1  0
 73 74  1  0
 73 72  1  0
 74 75  1  0
 75 76  1  0
 76 77  1  0
 77 86  1  0
 78 84  1  0
 80 79  1  0
 81 80  1  0
 82 91  1  0
 82 81  1  0
 82 83  1  0
 84 83  1  0
 84 79  1  0
 85 78  2  0
 86 87  1  0
 86 78  1  0
 88 89  2  0
 88 91  1  0
 89 90  1  0
 90 92  2  0
 90 93  1  0
 91 92  1  0
 93 94  1  0
 94 95  2  0
 96 95  1  0
 96 99  1  0
 97 96  2  0
 98 93  2  0
 98 97  1  0
 99100  1  0
100105  1  0
101102  1  0
101100  2  0
102103  2  0
103107  1  0
103104  1  0
105104  2  0
105106  1  0
108109  1  0
108 89  1  0
109111  1  0
110108  2  0
112109  1  0
113 88  1  0
114113  1  0
115113  1  0
M  ISO  4  19 101  20 101  78 100  86 100
M  END
>  <TORSDO>  (76) 
F 38

>  <SCORE>  (76) 
54.286

>  <name>  (76) 
89

>  <ligand_id>  (76) 
89

>  <original_smiles>  (76) 
[H]c1c([H])c([H])c2c(c1[H])C([H])([H])C([H])([H])C([H])([H])C2([H])N([H])C(=O)C1([H])N(C(=O)C([H])(N([H])C(=O)C([H])(N([H])C([H])([H])[H])C([H])([H])[H])C(C([H])([H])[H])(C([H])([H])[H])C([H])([H])[H])C([H])([H])c2c([H])c(OC([H])([H])C(=O)C([H])([H])OC([H])([H])C([H])([H])OC([H])([H])C([H])([H])N([H])C(=O)C([H])([H])N([H])C(=O)C([H])([H])N([H])C(=O)C([H])([H])N([H])C(=O)C([H])([H])OC([H])([H])C([H])([H])OC([H])([H])C([H])([H])N([H])C(=O)N3C([H])([H])C([H])([H])C([H])([H])C([H])(n4nc(-c5c([H])c([H])c(Oc6c([H])c([H])c(F)c([H])c6F)c([H])c5[H])c(C(=O)N([H])[H])c4N([H])[H])C3([H])[H])c([H])c([H])c2C1([H])[H]

>  <smiles>  (76) 
[H]c1c([H])c([H])c2c(c1[H])C([H])([H])C([H])([H])C([H])([H])C2([H])N([H])C(=O)C1([H])N(C(=O)C([H])(N([H])C(=O)C([H])(N([H])C([H])([H])[H])C([H])([H])[H])C(C([H])([H])[H])(C([H])([H])[H])C([H])([H])[H])C([H])([H])c2c([H])c(OC([H])([H])C(=O)C([H])([H])OC([H])([H])C([H])([H])OC([H])([H])C([H])([H])N([H])C(=O)C([H])([H])N([H])C(=O)C([H])([H])N([H])C(=O)C([H])([H])N([H])C(=O)C([H])([H])OC([H])([H])C([H])([H])OC([H])([H])C([H])([H])N([H])C(=O)N3C([H])([H])C([H])([H])C([H])([H])C([H])(n4nc(-c5c([H])c([H])c(Oc6c([H])c([H])c(F)c([H])c6F)c([H])c5[H])c(C(=O)N([H])[H])c4N([H])[H])C3([H])[H])c([H])c([H])c2C1([H])[H]

$$$$
90:0:0
     RDKit          3D

 94100  0  0  1  0  0  0  0  0999 V2000
  -23.4540  -27.5680   24.6960 C   0  0  0  0  0  0  0  0  0  0  0  0
  -24.7960  -27.2360   24.0430 N   0  0  0  0  0  0  0  0  0  0  0  0
  -23.1630  -26.7900   25.6040 O   0  0  0  0  0  0  0  0  0  0  0  0
  -25.0600  -28.0650   23.5100 H   0  0  0  0  0  0  0  0  0  0  0  0
  -22.0500  -28.8260   24.3460 C   0  0  0  0  0  2  0  0  0  0  0  0
  -21.2060  -29.4630   22.8170 O   0  0  0  0  0  0  0  0  0  0  0  0
  -20.9410  -29.0060   21.0400 C   0  0  0  0  0  1  0  0  0  0  0  0
  -22.0380  -27.8440   19.8770 C   0  0  0  0  0  1  0  0  0  0  0  0
  -23.7860  -27.0350   19.9190 C   0  0  0  0  0  2  0  0  0  0  0  0
  -25.4850  -27.3540   19.9230 O   0  0  0  0  0  0  0  0  0  0  0  0
  -24.8060  -31.8130   23.2740 C   0  0  0  0  0  0  0  0  0  0  0  0
  -26.3180  -28.0740   19.0700 C   0  0  0  0  0  3  0  0  0  0  0  0
  -23.6270  -30.2620   21.7870 C   0  0  0  0  0  3  0  0  0  0  0  0
  -24.4740  -29.8940   19.4610 C   0  0  0  0  0  3  0  0  0  0  0  0
  -25.8140  -31.2320   21.0670 C   0  0  0  0  0  2  0  0  0  0  0  0
  -25.7220  -30.1330   20.0320 C   0  0  0  0  0  3  0  0  0  0  0  0
  -26.7640  -29.2560   19.7120 C   0  0  0  0  0  2  0  0  0  0  0  0
  -25.4590  -28.2070   18.0130 C   0  0  0  0  0  2  0  0  0  0  0  0
  -24.3730  -29.0550   18.3190 C   0  0  0  0  0  2  0  0  0  0  0  0
  -23.3570  -30.4990   20.2460 C   0  0  0  0  0  2  0  0  0  0  0  0
  -24.7610  -31.1340   22.1020 N   0  0  0  0  0  0  0  0  0  0  0  0
  -23.8720  -31.8200   24.0910 O   0  0  0  0  0  0  0  0  0  0  0  0
  -23.9280  -28.7020   22.3310 C   0  0  0  0  0  3  0  0  0  0  0  0
  -23.0970  -27.4180   22.3520 N   0  0  0  0  0  0  0  0  0  0  0  0
  -24.9220  -28.6300   22.9910 O   0  0  0  0  0  0  0  0  0  0  0  0
  -23.7600  -26.6690   22.4910 H   0  0  0  0  0  0  0  0  0  0  0  0
  -18.9460  -26.1380   22.4000 C   0  0  0  0  0  0  0  0  0  0  0  0
  -21.5760  -26.7170   22.7430 C   0  0  0  0  0  3  0  0  0  0  0  0
  -21.7900  -25.3360   22.2350 C   0  0  0  0  0  2  0  0  0  0  0  0
  -20.7700  -24.9230   21.2120 C   0  0  0  0  0  2  0  0  0  0  0  0
  -19.4200  -24.8080   21.8830 C   0  0  0  0  0  2  0  0  0  0  0  0
  -19.9010  -27.1310   22.7970 C   0  0  0  0  0  0  0  0  0  0  0  0
  -19.2070  -28.3210   23.2900 C   0  0  0  0  0  3  0  0  0  0  0  0
  -17.7970  -28.5130   23.3020 C   0  0  0  0  0  3  0  0  0  0  0  0
  -16.9440  -27.4840   22.8970 C   0  0  0  0  0  3  0  0  0  0  0  0
  -17.5340  -26.2940   22.4630 C   0  0  0  0  0  3  0  0  0  0  0  0
  -26.0830  -32.6080   23.6240 C   0  0  0  0  0  3  0  0  0  0  0  0
  -26.9390  -31.8850   24.7300 C   0  0  1  0  0  0  0  0  0  0  0  0
  -26.1340  -31.4950   25.9890 C   0  0  0  0  0  1  0  0  0  0  0  0
  -27.6120  -30.5990   24.1940 C   0  0  0  0  0  1  0  0  0  0  0  0
  -28.0920  -32.8150   25.1590 C   0  0  0  0  0  1  0  0  0  0  0  0
  -25.6630  -33.9440   24.0590 N   0  0  0  0  0  0  0  0  0  0  0  0
  -25.8350  -35.0610   23.3400 C   0  0  0  0  0  0  0  0  0  0  0  0
  -26.4230  -35.0750   22.2550 O   0  0  0  0  0  0  0  0  0  0  0  0
  -25.1230  -33.9970   24.9090 H   0  0  0  0  0  0  0  0  0  0  0  0
  -23.9840  -36.7600   23.1920 C   0  0  0  0  0  1  0  0  0  0  0  0
  -25.2760  -36.3700   23.9260 C   0  0  0  0  0  3  0  0  0  0  0  0
  -27.3900  -37.3100   24.7510 C   0  0  0  0  0  1  0  0  0  0  0  0
  -26.2380  -37.4930   23.8720 N   0  0  0  0  0  0  0  0  0  0  0  0
  -25.7850  -38.3690   24.1180 H   0  0  0  0  0  0  0  0  0  0  0  0
  -26.0070  -26.0330   23.9190 C   0  0  0  0  0  3  0  0  0  0  0  0
  -27.6010  -25.8290   22.9900 C   0  0  0  0  0  3  0  0  0  0  0  0
  -28.8240  -24.4640   22.6770 C   0  0  0  0  0  3  0  0  0  0  0  0
  -30.3920  -24.2080   21.7120 C   0  0  0  0  0  2  0  0  0  0  0  0
  -31.5030  -22.7950   21.2350 C   0  0  0  0  0  3  0  0  0  0  0  0
  -33.0140  -22.5460   20.1840 C   0  0  0  0  0  3  0  0  0  0  0  0
  -35.0610  -20.7790   18.7260 C   0  0  0  0  0  0  0  0  0  0  0  0
  -36.0490  -18.8670   17.1770 C   0  0  0  0  0  2  0  0  0  0  0  0
  -35.0370  -18.2960   16.1360 C   0  0  0  0  0  2  0  0  0  0  0  0
  -34.0550  -17.3100   16.7950 C   0  0  0  0  0  2  0  0  0  0  0  0
  -33.5660  -17.8520   18.1590 C   0  0  0  0  0  3  0  0  0  0  0  0
  -34.7250  -18.2880   19.0650 C   0  0  0  0  0  2  0  0  0  0  0  0
  -35.3220  -19.4230   18.3930 N   0  0  0  0  0  0  0  0  0  0  0  0
  -35.8320  -21.5390   18.0980 O   0  0  0  0  0  0  0  0  0  0  0  0
  -33.9200  -21.2010   19.6340 N   0  0  0  0  0  0  0  0  0  0  0  0
  -33.5100  -20.3590   20.0100 H   0  0  0  0  0  0  0  0  0  0  0  0
  -31.5080  -17.2180   19.4920 C   0  0  0  0  0  0  0  0  0  0  0  0
  -31.0690  -16.0250   19.9860 C   0  0  0  0  0  0  0  0  0  0  0  0
  -32.0640  -15.0600   19.6380 C   0  0  0  0  0  0  0  0  0  0  0  0
  -32.7060  -16.9370   18.8670 N   0  0  0  0  0  0  0  0  0  0  0  0
  -33.0780  -15.6430   19.0160 N   0  0  0  0  0  0  0  0  0  0  0  0
  -32.0800  -13.6050   19.8020 C   0  0  0  0  0  0  0  0  0  0  0  0
  -32.7120  -12.9910   20.9070 C   0  0  0  0  0  3  0  0  0  0  0  0
  -32.6960  -11.5870   21.0470 C   0  0  0  0  0  3  0  0  0  0  0  0
  -32.0420  -10.7850   20.0810 C   0  0  0  0  0  0  0  0  0  0  0  0
  -31.4370  -11.4010   18.9730 C   0  0  0  0  0  3  0  0  0  0  0  0
  -31.4580  -12.7980   18.8300 C   0  0  0  0  0  3  0  0  0  0  0  0
  -31.9960   -9.4130   20.1230 O   0  0  0  0  0  0  0  0  0  0  0  0
  -31.4040   -8.7450   21.1630 C   0  0  0  0  0  0  0  0  0  0  0  0
  -30.1140   -9.0820   21.6280 C   0  0  0  0  0  3  0  0  0  0  0  0
  -29.5150   -8.3230   22.6530 C   0  0  0  0  0  3  0  0  0  0  0  0
  -30.1990   -7.2240   23.2080 C   0  0  0  0  0  0  0  0  0  0  0  0
  -31.4820   -6.8850   22.7430 C   0  0  0  0  0  3  0  0  0  0  0  0
  -32.0810   -7.6420   21.7220 C   0  0  0  0  0  0  0  0  0  0  0  0
  -33.3080   -7.2990   21.2620 F   0  0  0  0  0  0  0  0  0  0  0  0
  -29.6210   -6.4910   24.1880 F   0  0  0  0  0  0  0  0  0  0  0  0
  -29.7500  -15.7760   20.6560 C   0  0  0  0  0  0  0  0  0  0  0  0
  -29.6800  -14.7640   21.5110 N   0  0  0  0  0  0  0  0  0  0  0  0
  -28.7870  -16.5140   20.4570 O   0  0  0  0  0  0  0  0  0  0  0  0
  -30.4780  -14.1710   21.6870 H   0  0  0  0  0  0  0  0  0  0  0  0
  -28.8140  -14.5780   21.9980 H   0  0  0  0  0  0  0  0  0  0  0  0
  -30.9850  -18.5100   19.4980 N   0  0  0  0  0  0  0  0  0  0  0  0
  -30.0690  -18.7130   19.8840 H   0  0  0  0  0  0  0  0  0  0  0  0
  -31.3760  -19.2890   18.9830 H   0  0  0  0  0  0  0  0  0  0  0  0
  1  3  2  0
  2  1  1  0
  5  1  1  0
  6  5  1  0
  7  6  1  0
  8  9  1  0
  9 10  1  0
 11 22  2  0
 12 17  1  0
 12 10  1  0
 13 21  1  0
 13 23  1  0
 14 19  1  0
 14 16  1  0
 14 20  1  0
 15 21  1  0
 16 17  1  0
 16 15  1  0
 18 19  1  0
 18 12  1  0
 20 13  1  0
 21 11  1  0
 23 24  1  0
 23 25  1  0
 24 26  1  0
 25  4  1  0
 27 36  2  0
 27 32  1  0
 28 24  1  0
 28 32  1  0
 29 28  1  0
 30 31  1  0
 30 29  1  0
 31 27  1  0
 32 33  2  0
 33 34  1  0
 35 34  2  0
 36 35  1  0
 37 11  1  0
 37 42  1  0
 37 38  1  0
 38 41  1  1
 38 39  1  0
 40 38  1  0
 42 45  1  0
 43 47  1  0
 43 42  1  0
 44 43  2  0
 47 46  1  0
 49 47  1  0
 49 50  1  0
 49 48  1  0
 51  2  2  0
 52 51  1  0
 53 52  2  0
 54 53  1  0
 55 54  1  0
 56 55  2  0
 57 65  1  0
 58 63  1  0
 59 60  1  0
 59 58  1  0
 61 60  1  0
 61 70  1  0
 61 62  1  0
 63 57  1  0
 63 62  1  0
 64 57  2  0
 65 66  1  0
 65 56  1  0
 67 92  1  0
 67 68  2  0
 68 87  1  0
 69 72  1  0
 69 68  1  0
 70 71  1  0
 70 67  1  0
 71 69  2  0
 72 73  1  0
 73 74  2  0
 75 78  1  0
 75 74  1  0
 76 75  2  0
 77 76  1  0
 77 72  2  0
 78 79  1  0
 79 80  2  0
 79 84  1  0
 80 81  1  0
 81 82  2  0
 82 86  1  0
 83 82  1  0
 84 83  2  0
 85 84  1  0
 87 88  1  0
 88 90  1  0
 88 91  1  0
 89 87  2  0
 92 93  1  0
 94 92  1  0
M  ISO  4   9 101  10 101  57 100  65 100
M  END
>  <TORSDO>  (77) 
F 27

>  <SCORE>  (77) 
-8.932

>  <name>  (77) 
90

>  <ligand_id>  (77) 
90

>  <original_smiles>  (77) 
[H]c1c([H])c([H])c2c(c1[H])C([H])([H])C([H])([H])C([H])([H])C2([H])N([H])C(=O)C1([H])N(C(=O)C([H])(N([H])C(=O)C([H])(N([H])C([H])([H])[H])C([H])([H])[H])C(C([H])([H])[H])(C([H])([H])[H])C([H])([H])[H])C([H])([H])c2c([H])c(OC([H])([H])C([H])([H])C([H])([H])OC([H])([H])C(=O)N([H])C([H])([H])C([H])([H])C([H])([H])C([H])([H])C([H])([H])C([H])([H])N([H])C(=O)N3C([H])([H])C([H])([H])C([H])([H])C([H])(n4nc(-c5c([H])c([H])c(Oc6c([H])c([H])c(F)c([H])c6F)c([H])c5[H])c(C(=O)N([H])[H])c4N([H])[H])C3([H])[H])c([H])c([H])c2C1([H])[H]

>  <smiles>  (77) 
[H]c1c([H])c([H])c2c(c1[H])C([H])([H])C([H])([H])C([H])([H])C2([H])N([H])C(=O)C1([H])N(C(=O)C([H])(N([H])C(=O)C([H])(N([H])C([H])([H])[H])C([H])([H])[H])C(C([H])([H])[H])(C([H])([H])[H])C([H])([H])[H])C([H])([H])c2c([H])c(OC([H])([H])C([H])([H])C([H])([H])OC([H])([H])C(=O)N([H])C([H])([H])C([H])([H])C([H])([H])C([H])([H])C([H])([H])C([H])([H])N([H])C(=O)N3C([H])([H])C([H])([H])C([H])([H])C([H])(n4nc(-c5c([H])c([H])c(Oc6c([H])c([H])c(F)c([H])c6F)c([H])c5[H])c(C(=O)N([H])[H])c4N([H])[H])C3([H])[H])c([H])c([H])c2C1([H])[H]

$$$$
91:0:0
     RDKit          3D

120124  0  0  1  0  0  0  0  0999 V2000
  -26.4680  -18.5730   19.9650 C   0  0  0  0  0  2  0  0  0  0  0  0
  -23.9950  -18.5380   19.6020 C   0  0  0  0  0  0  0  0  0  0  0  0
  -25.2110  -17.9970   19.4840 N   0  0  0  0  0  0  0  0  0  0  0  0
  -23.8180  -19.6740   20.0420 O   0  0  0  0  0  0  0  0  0  0  0  0
  -25.2230  -17.0340   19.1730 H   0  0  0  0  0  0  0  0  0  0  0  0
  -22.7880  -17.6970   19.1560 C   0  0  0  0  0  2  0  0  0  0  0  0
  -23.4580  -16.4810   17.1000 C   0  0  0  0  0  0  0  0  0  0  0  0
  -23.0880  -16.4840   18.3880 N   0  0  0  0  0  0  0  0  0  0  0  0
  -23.7600  -17.5310   16.5290 O   0  0  0  0  0  0  0  0  0  0  0  0
  -22.8210  -15.6060   18.8100 H   0  0  0  0  0  0  0  0  0  0  0  0
  -23.4600  -15.1610   16.2970 C   0  0  0  0  0  2  0  0  0  0  0  0
  -24.5070  -13.1340   17.2740 C   0  0  0  0  0  0  0  0  0  0  0  0
  -23.4130  -13.8740   17.0240 N   0  0  0  0  0  0  0  0  0  0  0  0
  -25.6010  -13.6740   17.3240 O   0  0  0  0  0  0  0  0  0  0  0  0
  -22.5000  -13.4400   17.1080 H   0  0  0  0  0  0  0  0  0  0  0  0
  -24.3680  -11.6010   17.4530 C   0  0  0  0  0  2  0  0  0  0  0  0
  -26.3170   -9.9970   17.3990 C   0  0  0  0  0  0  0  0  0  0  0  0
  -25.5240  -10.8800   18.0200 N   0  0  0  0  0  0  0  0  0  0  0  0
  -26.2890   -9.8630   16.1750 O   0  0  0  0  0  0  0  0  0  0  0  0
  -25.7080  -11.0270   19.0120 H   0  0  0  0  0  0  0  0  0  0  0  0
  -27.2010   -9.0360   18.2290 C   0  0  0  0  0  2  0  0  0  0  0  0
  -27.9380   -9.4860   19.5270 C   0  0  0  0  0  2  0  0  0  0  0  0
  -29.2190  -10.3300   19.3300 C   0  0  0  0  0  2  0  0  0  0  0  0
  -30.0350  -13.0490   20.2860 C   0  0  2  0  0  0  0  0  0  0  0  0
  -31.2350  -12.4550   19.3900 C   0  0  0  0  0  1  0  0  0  0  0  0
  -29.9870  -12.6900   17.9600 C   0  0  0  0  0  1  0  0  0  0  0  0
  -28.2710  -12.9400   18.3860 C   0  0  0  0  0  2  0  0  0  0  0  0
  -27.7120  -13.4560   20.0000 C   0  0  0  0  0  2  0  0  0  0  0  0
  -28.9250  -13.3800   21.4170 C   0  0  0  0  0  1  0  0  0  0  0  0
  -30.5840  -12.8380   21.0510 N   0  0  0  0  0  1  0  0  0  0  0  0
  -30.2610  -14.3550   19.8580 O   0  0  0  0  0  1  0  0  0  0  0  0
  -29.4050  -11.5140   20.2550 N   0  0  0  0  0  2  0  0  0  0  0  0
  -29.4990  -11.1260   21.1790 H   0  0  0  0  0  0  0  0  0  0  0  0
  -25.2360  -13.8590   20.5770 C   0  0  0  0  0  0  0  0  0  0  0  0
  -24.1800  -13.0680   20.9420 C   0  0  0  0  0  0  0  0  0  0  0  0
  -24.6580  -11.7260   20.9240 C   0  0  0  0  0  0  0  0  0  0  0  0
  -26.3300  -13.0400   20.3910 N   0  0  0  0  0  0  0  0  0  0  0  0
  -25.9700  -11.7440   20.6620 N   0  0  0  0  0  0  0  0  0  0  0  0
  -23.9190  -10.4510   21.0700 C   0  0  0  0  0  0  0  0  0  0  0  0
  -24.3900   -9.4140   21.9090 C   0  0  0  0  0  3  0  0  0  0  0  0
  -23.6470   -8.2200   22.0590 C   0  0  0  0  0  3  0  0  0  0  0  0
  -22.4290   -8.0370   21.3610 C   0  0  0  0  0  0  0  0  0  0  0  0
  -21.9770   -9.0530   20.5040 C   0  0  0  0  0  3  0  0  0  0  0  0
  -22.7010  -10.2520   20.3720 C   0  0  0  0  0  3  0  0  0  0  0  0
  -21.6740   -6.8880   21.4220 O   0  0  0  0  0  0  0  0  0  0  0  0
  -21.6940   -6.0680   22.5290 C   0  0  0  0  0  0  0  0  0  0  0  0
  -21.4160   -6.5590   23.8220 C   0  0  0  0  0  3  0  0  0  0  0  0
  -21.3610   -5.6710   24.9170 C   0  0  0  0  0  3  0  0  0  0  0  0
  -21.6010   -4.3000   24.7260 C   0  0  0  0  0  0  0  0  0  0  0  0
  -21.8820   -3.8080   23.4410 C   0  0  0  0  0  3  0  0  0  0  0  0
  -21.9240   -4.6910   22.3450 C   0  0  0  0  0  0  0  0  0  0  0  0
  -22.1770   -4.2100   21.1060 F   0  0  0  0  0  0  0  0  0  0  0  0
  -21.5460   -3.4480   25.7780 F   0  0  0  0  0  0  0  0  0  0  0  0
  -22.7740  -13.5350   21.2020 C   0  0  0  0  0  0  0  0  0  0  0  0
  -22.0350  -12.8150   22.0480 N   0  0  0  0  0  0  0  0  0  0  0  0
  -22.3530  -14.5580   20.6800 O   0  0  0  0  0  0  0  0  0  0  0  0
  -22.3870  -11.9810   22.4970 H   0  0  0  0  0  0  0  0  0  0  0  0
  -21.0850  -13.0970   22.2510 H   0  0  0  0  0  0  0  0  0  0  0  0
  -25.3350  -15.2160   20.3690 N   0  0  0  0  0  0  0  0  0  0  0  0
  -24.4560  -15.6090   20.0570 H   0  0  0  0  0  0  0  0  0  0  0  0
  -26.1520  -15.5780   19.8950 H   0  0  0  0  0  0  0  0  0  0  0  0
  -27.3310  -19.1160   18.8100 C   0  0  0  0  0  2  0  0  0  0  0  0
  -26.8550  -20.4530   18.1980 C   0  0  0  0  0  2  0  0  0  0  0  0
  -26.9510  -21.5580   19.0960 O   0  0  0  0  0  0  0  0  0  0  0  0
  -28.1310  -22.3510   18.9590 C   0  0  0  0  0  2  0  0  0  0  0  0
  -28.0720  -23.4820   19.9980 C   0  0  0  0  0  2  0  0  0  0  0  0
  -29.3580  -23.8290   20.5100 O   0  0  0  0  0  0  0  0  0  0  0  0
  -29.8440  -23.0440   21.5910 C   0  0  0  0  0  2  0  0  0  0  0  0
  -31.2550  -22.5370   21.2430 C   0  0  0  0  0  2  0  0  0  0  0  0
  -32.0510  -23.6650   20.8840 O   0  0  0  0  0  0  0  0  0  0  0  0
  -33.3010  -23.3710   20.2570 C   0  0  0  0  0  2  0  0  0  0  0  0
  -33.1670  -23.3310   18.7150 C   0  0  0  0  0  2  0  0  0  0  0  0
  -32.5700  -25.7500   18.3380 C   0  0  0  0  0  0  0  0  0  0  0  0
  -32.3450  -24.4330   18.2220 N   0  0  0  0  0  0  0  0  0  0  0  0
  -33.6870  -26.2150   18.5650 O   0  0  0  0  0  0  0  0  0  0  0  0
  -31.3960  -24.1900   17.9810 H   0  0  0  0  0  0  0  0  0  0  0  0
  -31.3460  -26.5450   18.2700 C   0  0  0  0  0  3  0  0  0  0  0  0
  -30.1250  -25.9930   18.4360 C   0  0  0  0  0  3  0  0  0  0  0  0
  -28.8130  -26.7260   18.5220 C   0  0  0  0  0  2  0  0  0  0  0  0
  -28.4110  -26.8210   19.8930 O   0  0  0  0  0  0  0  0  0  0  0  0
  -24.6140  -31.8700   23.2150 C   0  0  0  0  0  0  0  0  0  0  0  0
  -27.2240  -27.4840   20.0420 C   0  0  0  0  0  0  0  0  0  0  0  0
  -23.3960  -30.4980   21.5580 C   0  0  0  0  0  3  0  0  0  0  0  0
  -24.8310  -28.9640   20.1200 C   0  0  0  0  0  0  0  0  0  0  0  0
  -25.9220  -30.8430   21.3590 C   0  0  0  0  0  2  0  0  0  0  0  0
  -25.9920  -29.4770   20.7140 C   0  0  0  0  0  0  0  0  0  0  0  0
  -27.1910  -28.7330   20.6930 C   0  0  0  0  0  3  0  0  0  0  0  0
  -26.0420  -26.9580   19.4810 C   0  0  0  0  0  3  0  0  0  0  0  0
  -24.8460  -27.6950   19.5140 C   0  0  0  0  0  3  0  0  0  0  0  0
  -23.5950  -29.8330   20.1700 C   0  0  0  0  0  2  0  0  0  0  0  0
  -24.6630  -31.0850   22.1020 N   0  0  0  0  0  0  0  0  0  0  0  0
  -23.5350  -32.1440   23.7590 O   0  0  0  0  0  0  0  0  0  0  0  0
  -22.7400  -29.4690   22.5040 C   0  0  0  0  0  0  0  0  0  0  0  0
  -21.4130  -29.3030   22.3750 N   0  0  0  0  0  0  0  0  0  0  0  0
  -23.4190  -28.8230   23.3060 O   0  0  0  0  0  0  0  0  0  0  0  0
  -20.9310  -29.8730   21.6950 H   0  0  0  0  0  0  0  0  0  0  0  0
  -18.0260  -28.1360   22.8510 C   0  0  0  0  0  0  0  0  0  0  0  0
  -20.5860  -28.3660   23.1340 C   0  0  0  0  0  3  0  0  0  0  0  0
  -20.6780  -26.9410   22.5410 C   0  0  0  0  0  2  0  0  0  0  0  0
  -19.5750  -26.6390   21.5230 C   0  0  0  0  0  2  0  0  0  0  0  0
  -18.1920  -26.7900   22.1630 C   0  0  0  0  0  2  0  0  0  0  0  0
  -19.1510  -28.8830   23.2900 C   0  0  0  0  0  0  0  0  0  0  0  0
  -18.9430  -30.1440   23.8900 C   0  0  0  0  0  3  0  0  0  0  0  0
  -17.6430  -30.6570   24.0570 C   0  0  0  0  0  3  0  0  0  0  0  0
  -16.5330  -29.9070   23.6320 C   0  0  0  0  0  3  0  0  0  0  0  0
  -16.7250  -28.6490   23.0350 C   0  0  0  0  0  3  0  0  0  0  0  0
  -25.9050  -32.4830   23.8410 C   0  0  0  0  0  3  0  0  0  0  0  0
  -26.4480  -31.6560   25.0700 C   0  0  1  0  0  0  0  0  0  0  0  0
  -25.3780  -31.3600   26.1470 C   0  0  0  0  0  1  0  0  0  0  0  0
  -27.0280  -30.3020   24.5980 C   0  0  0  0  0  1  0  0  0  0  0  0
  -27.6060  -32.4240   25.7470 C   0  0  0  0  0  1  0  0  0  0  0  0
  -25.5920  -33.8630   24.2380 N   0  0  0  0  0  0  0  0  0  0  0  0
  -25.9020  -34.9490   23.5170 C   0  0  0  0  0  0  0  0  0  0  0  0
  -26.5570  -34.8940   22.4720 O   0  0  0  0  0  0  0  0  0  0  0  0
  -25.0130  -33.9780   25.0580 H   0  0  0  0  0  0  0  0  0  0  0  0
  -24.1500  -36.7350   23.2640 C   0  0  0  0  0  1  0  0  0  0  0  0
  -25.4100  -36.3150   24.0370 C   0  0  0  0  0  3  0  0  0  0  0  0
  -27.5580  -37.1850   24.8490 C   0  0  0  0  0  1  0  0  0  0  0  0
  -26.4320  -37.3800   23.9390 N   0  0  0  0  0  0  0  0  0  0  0  0
  -26.0230  -38.2920   24.1280 H   0  0  0  0  0  0  0  0  0  0  0  0
  2  4  2  0
  3  2  1  0
  3  1  1  0
  5  3  1  0
  6  2  1  0
  7  8  1  0
  8 10  1  0
  8  6  1  0
  9  7  2  0
 11 13  1  0
 11  7  1  0
 12 14  2  0
 12 16  1  0
 13 15  1  0
 13 12  1  0
 16 18  1  0
 17 18  1  0
 17 21  1  0
 18 20  1  0
 19 17  2  0
 21 22  1  0
 23 22  1  0
 23 32  1  0
 24 30  1  0
 24 29  1  1
 25 24  1  0
 26 27  1  0
 27 28  1  0
 28 37  1  0
 31 24  1  0
 32 33  1  0
 34 35  2  0
 35 54  1  0
 36 35  1  0
 36 39  1  0
 37 34  1  0
 37 38  1  0
 38 36  2  0
 39 40  1  0
 40 41  2  0
 42 45  1  0
 42 41  1  0
 43 42  2  0
 44 43  1  0
 44 39  2  0
 45 46  1  0
 46 47  1  0
 47 48  2  0
 49 48  1  0
 49 53  1  0
 50 49  2  0
 51 46  2  0
 51 50  1  0
 52 51  1  0
 54 55  1  0
 55 58  1  0
 55 57  1  0
 56 54  2  0
 59 34  1  0
 60 59  1  0
 61 59  1  0
 62  1  1  0
 63 62  1  0
 63 64  1  0
 65 64  1  0
 65 66  1  0
 66 67  1  0
 67 68  1  0
 69 68  1  0
 70 69  1  0
 71 70  1  0
 72 71  1  0
 73 75  2  0
 74 73  1  0
 74 72  1  0
 76 74  1  0
 77 73  1  0
 77 78  2  0
 78 79  1  0
 79 80  1  0
 80 82  1  0
 81 92  2  0
 82 87  1  0
 83 91  1  0
 83 93  1  0
 84 90  1  0
 84 86  1  0
 85 91  1  0
 86 85  1  0
 87 86  2  0
 88 89  1  0
 88 82  2  0
 89 84  2  0
 90 83  1  0
 91 81  1  0
 93 95  2  0
 94 93  1  0
 96 94  1  0
 97106  2  0
 97102  1  0
 98 94  1  0
 98102  1  0
 99 98  1  0
100101  1  0
100 99  1  0
101 97  1  0
102103  2  0
103104  1  0
105104  2  0
106105  1  0
107 81  1  0
107112  1  0
107108  1  0
108111  1  1
108109  1  0
110108  1  0
112115  1  0
113117  1  0
113112  1  0
114113  2  0
117116  1  0
119117  1  0
119120  1  0
119118  1  0
M  ISO  4  24 100  32 100  79 101  80 101
M  END
>  <TORSDO>  (78) 
F 40

>  <SCORE>  (78) 
31.771

>  <name>  (78) 
91

>  <ligand_id>  (78) 
91

>  <original_smiles>  (78) 
[H]C(C(=O)N([H])C([H])([H])C([H])([H])OC([H])([H])C([H])([H])OC([H])([H])C([H])([H])OC([H])([H])C([H])([H])C([H])([H])N([H])C(=O)C([H])([H])N([H])C(=O)C([H])([H])N([H])C(=O)C([H])([H])N([H])C(=O)C([H])([H])C([H])([H])C([H])([H])N([H])C(=O)N1C([H])([H])C([H])([H])C([H])([H])C([H])(n2nc(-c3c([H])c([H])c(Oc4c([H])c([H])c(F)c([H])c4F)c([H])c3[H])c(C(=O)N([H])[H])c2N([H])[H])C1([H])[H])=C([H])C([H])([H])Oc1c([H])c([H])c2c(c1[H])C([H])([H])N(C(=O)C([H])(N([H])C(=O)C([H])(N([H])C([H])([H])[H])C([H])([H])[H])C(C([H])([H])[H])(C([H])([H])[H])C([H])([H])[H])C([H])(C(=O)N([H])C1([H])c3c([H])c([H])c([H])c([H])c3C([H])([H])C([H])([H])C1([H])[H])C2([H])[H]

>  <smiles>  (78) 
[H]C(C(=O)N([H])C([H])([H])C([H])([H])OC([H])([H])C([H])([H])OC([H])([H])C([H])([H])OC([H])([H])C([H])([H])C([H])([H])N([H])C(=O)C([H])([H])N([H])C(=O)C([H])([H])N([H])C(=O)C([H])([H])N([H])C(=O)C([H])([H])C([H])([H])C([H])([H])N([H])C(=O)N1C([H])([H])C([H])([H])C([H])([H])C([H])(n2nc(-c3c([H])c([H])c(Oc4c([H])c([H])c(F)c([H])c4F)c([H])c3[H])c(C(=O)N([H])[H])c2N([H])[H])C1([H])[H])=C([H])C([H])([H])Oc1c([H])c([H])c2c(c1[H])C([H])([H])N(C(=O)C([H])(N([H])C(=O)C([H])(N([H])C([H])([H])[H])C([H])([H])[H])C(C([H])([H])[H])(C([H])([H])[H])C([H])([H])[H])C([H])(C(=O)N([H])C1([H])c3c([H])c([H])c([H])c([H])c3C([H])([H])C([H])([H])C1([H])[H])C2([H])[H]

$$$$
92:0:0
     RDKit          3D

140148  0  0  1  0  0  0  0  0999 V2000
  -19.8770  -19.0820   27.9930 C   0  0  0  0  0  0  0  0  0  0  0  0
  -20.7490  -20.0830   28.1260 N   0  0  0  0  0  0  0  0  0  0  0  0
  -20.2110  -17.8960   28.0230 O   0  0  0  0  0  0  0  0  0  0  0  0
  -20.4050  -21.0360   28.1070 H   0  0  0  0  0  0  0  0  0  0  0  0
  -18.4150  -19.4890   27.7810 C   0  0  0  0  0  2  0  0  0  0  0  0
  -18.2240  -19.8420   26.4110 O   0  0  0  0  0  0  0  0  0  0  0  0
  -16.8930  -20.2660   26.1430 C   0  0  0  0  0  2  0  0  0  0  0  0
  -16.6360  -20.2610   24.6280 C   0  0  0  0  0  2  0  0  0  0  0  0
  -17.3620  -21.3940   23.8850 C   0  0  0  0  0  2  0  0  0  0  0  0
  -16.9650  -21.4670   22.4010 C   0  0  0  0  0  2  0  0  0  0  0  0
  -17.4410  -22.7490   21.6990 C   0  0  0  0  0  2  0  0  0  0  0  0
  -19.3910  -22.6150   20.1470 C   0  0  0  0  0  0  0  0  0  0  0  0
  -18.8700  -22.7230   21.3760 N   0  0  0  0  0  0  0  0  0  0  0  0
  -18.6950  -22.4640   19.1390 O   0  0  0  0  0  0  0  0  0  0  0  0
  -19.5160  -22.8410   22.1450 H   0  0  0  0  0  0  0  0  0  0  0  0
  -20.9240  -22.6790   20.0380 C   0  0  0  0  0  2  0  0  0  0  0  0
  -21.7060  -23.5650   17.8260 C   0  0  0  0  0  0  0  0  0  0  0  0
  -21.3850  -22.5600   18.6550 N   0  0  0  0  0  0  0  0  0  0  0  0
  -21.7600  -24.7400   18.1890 O   0  0  0  0  0  0  0  0  0  0  0  0
  -21.3530  -21.6250   18.2700 H   0  0  0  0  0  0  0  0  0  0  0  0
  -21.9250  -23.1940   16.3480 C   0  0  0  0  0  2  0  0  0  0  0  0
  -24.3320  -24.1200   16.0990 C   0  0  0  0  0  3  0  0  0  0  0  0
  -23.2140  -23.4930   15.6970 N   0  0  0  0  0  0  0  0  0  0  0  0
  -24.4610  -24.7040   17.1820 O   0  0  0  0  0  0  0  0  0  0  0  0
  -23.2660  -23.1360   14.7520 H   0  0  0  0  0  0  0  0  0  0  0  0
  -25.5140  -24.0710   15.1160 C   0  0  0  0  0  2  0  0  0  0  0  0
  -27.7780  -23.3430   15.9560 C   0  0  0  0  0  0  0  0  0  0  0  0
  -26.7940  -24.2470   15.8070 N   0  0  0  0  0  0  0  0  0  0  0  0
  -27.7590  -22.2300   15.4320 O   0  0  0  0  0  0  0  0  0  0  0  0
  -26.9200  -25.1430   16.2540 H   0  0  0  0  0  0  0  0  0  0  0  0
  -28.9340  -23.7770   16.8750 C   0  0  0  0  0  2  0  0  0  0  0  0
  -30.4740  -21.9140   17.6020 C   0  0  0  0  0  0  0  0  0  0  0  0
  -30.1430  -22.9540   16.8250 N   0  0  0  0  0  0  0  0  0  0  0  0
  -29.6950  -21.3570   18.3790 O   0  0  0  0  0  0  0  0  0  0  0  0
  -30.8650  -23.3060   16.2110 H   0  0  0  0  0  0  0  0  0  0  0  0
  -31.9480  -21.5040   17.5260 C   0  0  0  0  0  2  0  0  0  0  0  0
  -33.5760  -19.7560   18.0030 C   0  0  0  0  0  0  0  0  0  0  0  0
  -34.4620  -17.7100   17.0160 C   0  0  0  0  0  2  0  0  0  0  0  0
  -33.4470  -17.2570   15.9480 C   0  0  0  0  0  2  0  0  0  0  0  0
  -32.3720  -16.3480   16.5710 C   0  0  0  0  0  2  0  0  0  0  0  0
  -31.7590  -16.9460   17.8700 C   0  0  0  0  0  3  0  0  0  0  0  0
  -32.8520  -17.4870   18.8230 C   0  0  0  0  0  2  0  0  0  0  0  0
  -33.6970  -18.4090   18.0590 N   0  0  0  0  0  0  0  0  0  0  0  0
  -34.4450  -20.4840   17.5150 O   0  0  0  0  0  0  0  0  0  0  0  0
  -32.3320  -20.2400   18.1770 N   0  0  0  0  0  0  0  0  0  0  0  0
  -31.6000  -19.6610   18.5610 H   0  0  0  0  0  0  0  0  0  0  0  0
  -29.5410  -16.1220   18.8610 C   0  0  0  0  0  0  0  0  0  0  0  0
  -29.1680  -14.9200   19.3970 C   0  0  0  0  0  0  0  0  0  0  0  0
  -30.3420  -14.1040   19.3930 C   0  0  0  0  0  0  0  0  0  0  0  0
  -30.8790  -15.9940   18.5390 N   0  0  0  0  0  0  0  0  0  0  0  0
  -31.3760  -14.7910   18.9270 N   0  0  0  0  0  0  0  0  0  0  0  0
  -30.5270  -12.6960   19.7620 C   0  0  0  0  0  0  0  0  0  0  0  0
  -31.5530  -12.2980   20.6470 C   0  0  0  0  0  3  0  0  0  0  0  0
  -31.7030  -10.9420   21.0060 C   0  0  0  0  0  3  0  0  0  0  0  0
  -30.8260   -9.9670   20.4770 C   0  0  0  0  0  0  0  0  0  0  0  0
  -29.8180  -10.3660   19.5800 C   0  0  0  0  0  3  0  0  0  0  0  0
  -29.6730  -11.7170   19.2200 C   0  0  0  0  0  3  0  0  0  0  0  0
  -30.9120   -8.6220   20.7440 O   0  0  0  0  0  0  0  0  0  0  0  0
  -31.4910   -8.1530   21.8960 C   0  0  0  0  0  0  0  0  0  0  0  0
  -31.0480   -8.5640   23.1710 C   0  0  0  0  0  3  0  0  0  0  0  0
  -31.6250   -8.0050   24.3290 C   0  0  0  0  0  3  0  0  0  0  0  0
  -32.6310   -7.0270   24.2160 C   0  0  0  0  0  0  0  0  0  0  0  0
  -33.0720   -6.6170   22.9450 C   0  0  0  0  0  3  0  0  0  0  0  0
  -32.5010   -7.1780   21.7870 C   0  0  0  0  0  0  0  0  0  0  0  0
  -32.9100   -6.7600   20.5650 F   0  0  0  0  0  0  0  0  0  0  0  0
  -33.1810   -6.4820   25.3270 F   0  0  0  0  0  0  0  0  0  0  0  0
  -27.7840  -14.5170   19.8100 C   0  0  0  0  0  0  0  0  0  0  0  0
  -27.6730  -13.6520   20.8120 N   0  0  0  0  0  0  0  0  0  0  0  0
  -26.7880  -15.0030   19.2760 O   0  0  0  0  0  0  0  0  0  0  0  0
  -28.4870  -13.2600   21.2620 H   0  0  0  0  0  0  0  0  0  0  0  0
  -26.7570  -13.3690   21.1280 H   0  0  0  0  0  0  0  0  0  0  0  0
  -28.8600  -17.3110   18.6220 N   0  0  0  0  0  0  0  0  0  0  0  0
  -27.8900  -17.4280   18.8820 H   0  0  0  0  0  0  0  0  0  0  0  0
  -29.2980  -18.1680   18.3100 H   0  0  0  0  0  0  0  0  0  0  0  0
  -22.1910  -19.9510   28.2690 C   0  0  0  0  0  2  0  0  0  0  0  0
  -22.7480  -21.2190   28.9190 C   0  0  0  0  0  0  0  0  0  0  0  0
  -24.0600  -21.4270   28.8010 N   0  0  0  0  0  0  0  0  0  0  0  0
  -21.9960  -22.0060   29.5010 O   0  0  0  0  0  0  0  0  0  0  0  0
  -24.6060  -20.7480   28.2840 H   0  0  0  0  0  0  0  0  0  0  0  0
  -24.7420  -22.6770   29.1210 C   0  0  0  0  0  2  0  0  0  0  0  0
  -25.4350  -23.2250   27.8710 C   0  0  0  0  0  0  0  0  0  0  0  0
  -26.4380  -24.0920   28.0550 N   0  0  0  0  0  0  0  0  0  0  0  0
  -25.0730  -22.8740   26.7450 O   0  0  0  0  0  0  0  0  0  0  0  0
  -26.6810  -24.3550   29.0020 H   0  0  0  0  0  0  0  0  0  0  0  0
  -27.2130  -24.6570   26.9530 C   0  0  0  0  0  2  0  0  0  0  0  0
  -26.6840  -26.0560   26.5350 C   0  0  0  0  0  3  0  0  0  0  0  0
  -26.7800  -26.2670   25.0670 N   0  0  0  0  0  4  0  0  0  0  0  0
  -26.5350  -27.2320   24.8540 H   0  0  0  0  0  0  0  0  0  0  0  0
  -27.7370  -26.1310   24.7850 H   0  0  0  0  0  0  0  0  0  0  0  0
  -25.8890  -25.3800   24.2590 C   0  0  0  0  0  2  0  0  0  0  0  0
  -25.5420  -25.9980   22.8970 C   0  0  0  0  0  2  0  0  0  0  0  0
  -24.9280  -25.0620   21.8530 C   0  0  0  0  0  2  0  0  0  0  0  0
  -24.7900  -25.8430   20.6690 O   0  0  0  0  0  0  0  0  0  0  0  0
  -25.0370  -25.1360   19.4640 C   0  0  0  0  0  2  0  0  0  0  0  0
  -25.5850  -25.5180   16.9920 C   0  0  0  0  0  2  0  0  0  0  0  0
  -25.1090  -26.1380   18.3100 C   0  0  0  0  0  2  0  0  0  0  0  0
  -27.3430  -27.2160   27.3320 C   0  0  0  0  0  2  0  0  0  0  0  0
  -28.8370  -27.5140   27.0470 C   0  0  0  0  0  2  0  0  0  0  0  0
  -29.4610  -28.6040   27.9470 C   0  0  0  0  0  2  0  0  0  0  0  0
  -28.9380  -29.9000   27.6410 O   0  0  0  0  0  0  0  0  0  0  0  0
  -26.3990  -30.4330   34.2690 C   0  0  0  0  0  0  0  0  0  0  0  0
  -27.9620  -30.3650   28.4840 C   0  0  0  0  0  0  0  0  0  0  0  0
  -24.8430  -31.0810   32.4550 C   0  0  0  0  0  3  0  0  0  0  0  0
  -25.8890  -31.3220   30.1430 C   0  0  0  0  0  0  0  0  0  0  0  0
  -27.3720  -31.3150   32.1590 C   0  0  0  0  0  2  0  0  0  0  0  0
  -27.1560  -31.0730   30.6810 C   0  0  0  0  0  0  0  0  0  0  0  0
  -28.1960  -30.5880   29.8610 C   0  0  0  0  0  3  0  0  0  0  0  0
  -26.6880  -30.6360   27.9510 C   0  0  0  0  0  3  0  0  0  0  0  0
  -25.6440  -31.0970   28.7740 C   0  0  0  0  0  3  0  0  0  0  0  0
  -24.8260  -31.8290   31.0940 C   0  0  0  0  0  2  0  0  0  0  0  0
  -26.2280  -30.9050   33.0020 N   0  0  0  0  0  0  0  0  0  0  0  0
  -25.4280  -30.1920   34.9970 O   0  0  0  0  0  0  0  0  0  0  0  0
  -24.0780  -29.7500   32.2900 C   0  0  0  0  0  0  0  0  0  0  0  0
  -22.7390  -29.8240   32.3320 N   0  0  0  0  0  0  0  0  0  0  0  0
  -24.6840  -28.6900   32.0990 O   0  0  0  0  0  0  0  0  0  0  0  0
  -22.3200  -30.7280   32.5020 H   0  0  0  0  0  0  0  0  0  0  0  0
  -19.2390  -28.9380   32.2750 C   0  0  0  0  0  0  0  0  0  0  0  0
  -21.8100  -28.7100   32.1530 C   0  0  0  0  0  3  0  0  0  0  0  0
  -21.6120  -28.3810   30.6550 C   0  0  0  0  0  2  0  0  0  0  0  0
  -20.4080  -29.1020   30.0390 C   0  0  0  0  0  2  0  0  0  0  0  0
  -19.1230  -28.7210   30.7800 C   0  0  0  0  0  2  0  0  0  0  0  0
  -20.5040  -28.9440   32.9210 C   0  0  0  0  0  0  0  0  0  0  0  0
  -20.5620  -29.1800   34.3120 C   0  0  0  0  0  3  0  0  0  0  0  0
  -19.3870  -29.3970   35.0550 C   0  0  0  0  0  3  0  0  0  0  0  0
  -18.1350  -29.3730   34.4130 C   0  0  0  0  0  3  0  0  0  0  0  0
  -18.0630  -29.1400   33.0280 C   0  0  0  0  0  3  0  0  0  0  0  0
  -27.8210  -30.2010   34.8720 C   0  0  0  0  0  3  0  0  0  0  0  0
  -28.2860  -28.6930   34.8210 C   0  0  1  0  0  0  0  0  0  0  0  0
  -27.2530  -27.7100   35.4150 C   0  0  0  0  0  1  0  0  0  0  0  0
  -28.5800  -28.2580   33.3660 C   0  0  0  0  0  1  0  0  0  0  0  0
  -29.6030  -28.5220   35.6150 C   0  0  0  0  0  1  0  0  0  0  0  0
  -27.7980  -30.6890   36.2580 N   0  0  0  0  0  0  0  0  0  0  0  0
  -28.2520  -31.8870   36.6510 C   0  0  0  0  0  0  0  0  0  0  0  0
  -28.8140  -32.6750   35.8880 O   0  0  0  0  0  0  0  0  0  0  0  0
  -27.3140  -30.1120   36.9320 H   0  0  0  0  0  0  0  0  0  0  0  0
  -26.8460  -33.2000   38.2670 C   0  0  0  0  0  1  0  0  0  0  0  0
  -28.0550  -32.2640   38.1310 C   0  0  0  0  0  3  0  0  0  0  0  0
  -30.3740  -31.9860   38.8860 C   0  0  0  0  0  1  0  0  0  0  0  0
  -29.2440  -32.8990   38.7410 N   0  0  0  0  0  0  0  0  0  0  0  0
  -29.0200  -33.2730   39.6590 H   0  0  0  0  0  0  0  0  0  0  0  0
  1  3  2  0
  1  2  1  0
  2 75  1  0
  4  2  1  0
  5  1  1  0
  6  5  1  0
  7  6  1  0
  8  7  1  0
  9  8  1  0
 10  9  1  0
 11 10  1  0
 12 13  1  0
 13 11  1  0
 13 15  1  0
 14 12  2  0
 16 12  1  0
 17 19  2  0
 17 18  1  0
 18 16  1  0
 20 18  1  0
 21 17  1  0
 22 26  1  0
 22 24  1  0
 23 22  1  0
 23 21  1  0
 25 23  1  0
 26 28  1  0
 27 31  1  0
 28 27  1  0
 28 30  1  0
 29 27  2  0
 32 34  2  0
 33 31  1  0
 33 32  1  0
 35 33  1  0
 36 32  1  0
 36 45  1  0
 37 43  1  0
 37 45  1  0
 38 43  1  0
 39 40  1  0
 39 38  1  0
 41 40  1  0
 41 50  1  0
 41 42  1  0
 43 42  1  0
 44 37  2  0
 45 46  1  0
 47 48  2  0
 48 67  1  0
 49 48  1  0
 49 52  1  0
 50 47  1  0
 50 51  1  0
 51 49  2  0
 52 53  1  0
 53 54  2  0
 55 58  1  0
 55 54  1  0
 56 55  2  0
 57 56  1  0
 57 52  2  0
 58 59  1  0
 59 60  1  0
 60 61  2  0
 62 61  1  0
 62 66  1  0
 63 62  2  0
 64 59  2  0
 64 63  1  0
 65 64  1  0
 67 68  1  0
 68 71  1  0
 68 70  1  0
 69 67  2  0
 72 47  1  0
 72 73  1  0
 74 72  1  0
 75 76  1  0
 76 78  2  0
 77 76  1  0
 77 80  1  0
 79 77  1  0
 81 82  1  0
 81 80  1  0
 82 84  1  0
 83 81  2  0
 85 82  1  0
 86 85  1  0
 86 97  1  0
 87 86  1  0
 88 87  1  0
 89 87  1  0
 90 87  1  0
 91 90  1  0
 92 91  1  0
 93 92  1  0
 94 93  1  0
 95 24  1  0
 95 96  1  0
 96 94  1  0
 98 97  1  0
 98 99  1  0
100 99  1  0
100102  1  0
101112  2  0
102107  1  0
103113  1  0
103111  1  0
104106  1  0
104110  1  0
105111  1  0
106105  1  0
107106  2  0
108102  2  0
108109  1  0
109104  2  0
110103  1  0
111101  1  0
113114  1  0
114116  1  0
115113  2  0
117122  2  0
117126  1  0
118114  1  0
118122  1  0
119118  1  0
120119  1  0
120121  1  0
121117  1  0
122123  1  0
123124  2  0
125124  1  0
126125  2  0
127101  1  0
127132  1  0
128127  1  0
128129  1  1
128131  1  0
130128  1  0
132133  1  0
132135  1  0
133137  1  0
134133  2  0
137136  1  0
137139  1  0
139138  1  0
139140  1  0
M  ISO  4  37 100  45 100  99 101 100 101
M  END
>  <TORSDO>  (79) 
F 49

>  <SCORE>  (79) 
57.125

>  <name>  (79) 
92

>  <ligand_id>  (79) 
92

>  <original_smiles>  (79) 
[H]c1c([H])c([H])c2c(c1[H])C([H])([H])C([H])([H])C([H])([H])C2([H])N([H])C(=O)C1([H])N(C(=O)C([H])(N([H])C(=O)C([H])(N([H])C([H])([H])[H])C([H])([H])[H])C(C([H])([H])[H])(C([H])([H])[H])C([H])([H])[H])C([H])([H])c2c([H])c(OC([H])([H])C([H])([H])C([H])([H])C([H])(C([H])([H])N([H])C(=O)C([H])([H])N([H])C(=O)C([H])([H])N([H])C(=O)C([H])([H])OC([H])([H])C([H])([H])C([H])([H])C([H])([H])C([H])([H])N([H])C(=O)C([H])([H])N([H])C(=O)C([H])([H])N([H])C(=O)C([H])([H])N([H])C(=O)C([H])([H])N([H])C(=O)C([H])([H])N([H])C(=O)N3C([H])([H])C([H])([H])C([H])([H])C([H])(n4nc(-c5c([H])c([H])c(Oc6c([H])c([H])c(F)c([H])c6F)c([H])c5[H])c(C(=O)N([H])[H])c4N([H])[H])C3([H])[H])[N+]([H])([H])C([H])([H])C([H])([H])C([H])([H])OC([H])([H])C([H])([H])C([H])([H])[H])c([H])c([H])c2C1([H])[H]

>  <smiles>  (79) 
[H]c1c([H])c([H])c2c(c1[H])C([H])([H])C([H])([H])C([H])([H])C2([H])N([H])C(=O)C1([H])N(C(=O)C([H])(N([H])C(=O)C([H])(N([H])C([H])([H])[H])C([H])([H])[H])C(C([H])([H])[H])(C([H])([H])[H])C([H])([H])[H])C([H])([H])c2c([H])c(OC([H])([H])C([H])([H])C([H])([H])C([H])(C([H])([H])N([H])C(=O)C([H])([H])N([H])C(=O)C([H])([H])N([H])C(=O)C([H])([H])OC([H])([H])C([H])([H])C([H])([H])C([H])([H])C([H])([H])N([H])C(=O)C([H])([H])N([H])C(=O)C([H])([H])N([H])C(=O)C([H])([H])N([H])C(=O)C([H])([H])N([H])C(=O)C([H])([H])N([H])C(=O)N3C([H])([H])C([H])([H])C([H])([H])C([H])(n4nc(-c5c([H])c([H])c(Oc6c([H])c([H])c(F)c([H])c6F)c([H])c5[H])c(C(=O)N([H])[H])c4N([H])[H])C3([H])[H])[N+]([H])([H])C([H])([H])C([H])([H])C([H])([H])OC([H])([H])C([H])([H])C([H])([H])[H])c([H])c([H])c2C1([H])[H]

$$$$
93:0:0
     RDKit          3D

166173  0  0  1  0  0  0  0  0999 V2000
  -30.2860  -21.8860   21.3820 C   0  0  0  0  0  2  0  0  0  0  0  0
  -30.6910  -21.7220   22.8560 C   0  0  0  0  0  2  0  0  0  0  0  0
  -31.9050  -20.7900   22.9800 C   0  0  0  0  0  2  0  0  0  0  0  0
  -32.0140  -20.0990   24.3460 C   0  0  0  0  0  2  0  0  0  0  0  0
  -32.4220  -21.0330   25.5010 C   0  0  0  0  0  2  0  0  0  0  0  0
  -31.8810  -20.5470   26.8590 C   0  0  0  0  0  2  0  0  0  0  0  0
  -29.8380  -21.9050   27.3190 C   0  0  0  0  0  0  0  0  0  0  0  0
  -30.4420  -20.7760   26.9350 N   0  0  0  0  0  0  0  0  0  0  0  0
  -30.4450  -22.8820   27.7630 O   0  0  0  0  0  0  0  0  0  0  0  0
  -29.8180  -20.0710   26.5660 H   0  0  0  0  0  0  0  0  0  0  0  0
  -28.3180  -21.9270   27.1540 C   0  0  0  0  0  2  0  0  0  0  0  0
  -27.9510  -21.0740   26.0690 O   0  0  0  0  0  0  0  0  0  0  0  0
  -26.5440  -20.9590   25.9150 C   0  0  0  0  0  2  0  0  0  0  0  0
  -26.0430  -19.6100   26.4460 C   0  0  0  0  0  2  0  0  0  0  0  0
  -26.3700  -18.4280   25.5170 C   0  0  0  0  0  2  0  0  0  0  0  0
  -25.8020  -18.5870   23.0800 C   0  0  0  0  0  0  0  0  0  0  0  0
  -25.4770  -18.3370   24.3550 N   0  0  0  0  0  0  0  0  0  0  0  0
  -26.9170  -19.0050   22.7690 O   0  0  0  0  0  0  0  0  0  0  0  0
  -24.5270  -18.0340   24.5390 H   0  0  0  0  0  0  0  0  0  0  0  0
  -24.6950  -18.4380   22.0220 C   0  0  0  0  0  2  0  0  0  0  0  0
  -25.9240  -18.6670   19.7560 C   0  0  0  0  0  0  0  0  0  0  0  0
  -25.0740  -18.1200   20.6370 N   0  0  0  0  0  0  0  0  0  0  0  0
  -26.7060  -19.5900   20.0170 O   0  0  0  0  0  0  0  0  0  0  0  0
  -24.5420  -17.3510   20.2560 H   0  0  0  0  0  0  0  0  0  0  0  0
  -25.8320  -18.0690   18.3430 C   0  0  0  0  0  2  0  0  0  0  0  0
  -26.8280  -19.7580   16.8030 C   0  0  0  0  0  0  0  0  0  0  0  0
  -26.8300  -18.5540   17.3900 N   0  0  0  0  0  0  0  0  0  0  0  0
  -26.0400  -20.6470   17.1330 O   0  0  0  0  0  0  0  0  0  0  0  0
  -27.5240  -17.8880   17.0820 H   0  0  0  0  0  0  0  0  0  0  0  0
  -27.8700  -20.0130   15.7060 C   0  0  0  0  0  2  0  0  0  0  0  0
  -30.1860  -20.1430   16.6020 C   0  0  0  0  0  0  0  0  0  0  0  0
  -29.1750  -19.4560   16.0590 N   0  0  0  0  0  0  0  0  0  0  0  0
  -30.1580  -21.3610   16.7710 O   0  0  0  0  0  0  0  0  0  0  0  0
  -29.3170  -18.4630   15.9300 H   0  0  0  0  0  0  0  0  0  0  0  0
  -31.3950  -19.3230   17.0670 C   0  0  0  0  0  2  0  0  0  0  0  0
  -30.9730  -18.3350   18.0010 O   0  0  0  0  0  0  0  0  0  0  0  0
  -30.6490  -18.8220   19.2990 C   0  0  0  0  0  2  0  0  0  0  0  0
  -30.0730  -17.6180   20.0410 C   0  0  0  0  0  2  0  0  0  0  0  0
  -29.5650  -17.8660   21.4730 C   0  0  0  0  0  2  0  0  0  0  0  0
  -28.7360  -16.7170   21.9190 N   0  0  0  0  0  4  0  0  0  0  0  0
  -27.7930  -16.8530   21.5910 H   0  0  0  0  0  0  0  0  0  0  0  0
  -29.1020  -15.8840   21.4930 H   0  0  0  0  0  0  0  0  0  0  0  0
  -28.6670  -16.4390   23.3700 C   0  0  0  0  0  2  0  0  0  0  0  0
  -29.9300  -15.7800   23.9710 C   0  0  0  0  0  2  0  0  0  0  0  0
  -30.4600  -14.5010   23.2830 C   0  0  0  0  0  2  0  0  0  0  0  0
  -30.9330  -14.2040   20.7500 C   0  0  0  0  0  0  0  0  0  0  0  0
  -30.3950  -12.2320   19.4110 C   0  0  0  0  0  2  0  0  0  0  0  0
  -29.4860  -12.5210   18.2030 C   0  0  0  0  0  2  0  0  0  0  0  0
  -28.0120  -12.3680   18.6080 C   0  0  0  0  0  2  0  0  0  0  0  0
  -27.6700  -13.1940   19.8710 C   0  0  0  0  0  3  0  0  0  0  0  0
  -28.7030  -12.9830   20.9980 C   0  0  0  0  0  2  0  0  0  0  0  0
  -30.0810  -13.1750   20.4980 N   0  0  0  0  0  0  0  0  0  0  0  0
  -31.7900  -14.5750   19.9520 O   0  0  0  0  0  0  0  0  0  0  0  0
  -30.9340  -14.8290   21.9360 N   0  0  0  0  0  0  0  0  0  0  0  0
  -31.6720  -15.5220   21.9450 H   0  0  0  0  0  0  0  0  0  0  0  0
  -25.2670  -13.7930   20.5690 C   0  0  0  0  0  0  0  0  0  0  0  0
  -24.1930  -13.0330   20.9240 C   0  0  0  0  0  0  0  0  0  0  0  0
  -24.6430  -11.6790   20.8770 C   0  0  0  0  0  0  0  0  0  0  0  0
  -26.3120  -12.9170   20.3360 N   0  0  0  0  0  0  0  0  0  0  0  0
  -25.9360  -11.6350   20.5760 N   0  0  0  0  0  0  0  0  0  0  0  0
  -23.9070  -10.4230   21.0420 C   0  0  0  0  0  0  0  0  0  0  0  0
  -24.3620   -9.4150   21.9200 C   0  0  0  0  0  3  0  0  0  0  0  0
  -23.6290   -8.2200   22.0760 C   0  0  0  0  0  3  0  0  0  0  0  0
  -22.4280   -8.0240   21.3530 C   0  0  0  0  0  0  0  0  0  0  0  0
  -21.9910   -9.0220   20.4660 C   0  0  0  0  0  3  0  0  0  0  0  0
  -22.7230  -10.2100   20.3060 C   0  0  0  0  0  3  0  0  0  0  0  0
  -21.6590   -6.8880   21.4250 O   0  0  0  0  0  0  0  0  0  0  0  0
  -21.6830   -6.0750   22.5300 C   0  0  0  0  0  0  0  0  0  0  0  0
  -21.4000   -6.5640   23.8220 C   0  0  0  0  0  3  0  0  0  0  0  0
  -21.3640   -5.6790   24.9190 C   0  0  0  0  0  3  0  0  0  0  0  0
  -21.6040   -4.3050   24.7250 C   0  0  0  0  0  0  0  0  0  0  0  0
  -21.8820   -3.8160   23.4360 C   0  0  0  0  0  3  0  0  0  0  0  0
  -21.9190   -4.6990   22.3430 C   0  0  0  0  0  0  0  0  0  0  0  0
  -22.1690   -4.2170   21.1000 F   0  0  0  0  0  0  0  0  0  0  0  0
  -21.5600   -3.4540   25.7760 F   0  0  0  0  0  0  0  0  0  0  0  0
  -22.7970  -13.5200   21.1830 C   0  0  0  0  0  0  0  0  0  0  0  0
  -22.0500  -12.8300   22.0320 N   0  0  0  0  0  0  0  0  0  0  0  0
  -22.3820  -14.5540   20.6520 O   0  0  0  0  0  0  0  0  0  0  0  0
  -22.4050  -11.9980   22.4840 H   0  0  0  0  0  0  0  0  0  0  0  0
  -21.1120  -13.1390   22.2360 H   0  0  0  0  0  0  0  0  0  0  0  0
  -25.4340  -15.1550   20.3750 N   0  0  0  0  0  0  0  0  0  0  0  0
  -24.5010  -15.5030   20.1940 H   0  0  0  0  0  0  0  0  0  0  0  0
  -26.0530  -15.3120   19.5940 H   0  0  0  0  0  0  0  0  0  0  0  0
  -29.3030  -23.0320   21.0970 C   0  0  0  0  0  2  0  0  0  0  0  0
  -28.0040  -23.0370   21.9250 C   0  0  0  0  0  2  0  0  0  0  0  0
  -27.1930  -21.7970   21.8020 N   0  0  0  0  0  4  0  0  0  0  0  0
  -27.2580  -21.3570   20.8910 H   0  0  0  0  0  0  0  0  0  0  0  0
  -27.5760  -21.1160   22.4440 H   0  0  0  0  0  0  0  0  0  0  0  0
  -25.7640  -21.9650   22.1680 C   0  0  0  0  0  2  0  0  0  0  0  0
  -24.7900  -21.9770   20.9730 C   0  0  0  0  0  2  0  0  0  0  0  0
  -25.1080  -23.1130   20.0530 C   0  0  0  0  0  3  0  0  0  0  0  0
  -24.7560  -24.3950   20.3600 N   0  0  0  0  0  0  0  0  0  0  0  0
  -25.8380  -22.8280   18.9410 N   0  0  0  0  0  0  0  0  0  0  0  0
  -24.8190  -25.0880   19.6300 H   0  0  0  0  0  0  0  0  0  0  0  0
  -25.8560  -21.8880   18.5320 H   0  0  0  0  0  0  0  0  0  0  0  0
  -26.4870  -23.8650   18.1330 C   0  0  0  0  0  2  0  0  0  0  0  0
  -27.8720  -23.5790   17.5260 C   0  0  0  0  0  2  0  0  0  0  0  0
  -28.7860  -24.5560   18.0360 O   0  0  0  0  0  0  0  0  0  0  0  0
  -28.5850  -25.9030   17.5900 C   0  0  0  0  0  2  0  0  0  0  0  0
  -29.0640  -26.8960   18.6730 C   0  0  0  0  0  2  0  0  0  0  0  0
  -28.3860  -26.7770   19.9350 O   0  0  0  0  0  0  0  0  0  0  0  0
  -24.6050  -31.8840   23.2270 C   0  0  0  0  0  0  0  0  0  0  0  0
  -27.2270  -27.5090   20.0380 C   0  0  0  0  0  0  0  0  0  0  0  0
  -23.3930  -30.5150   21.5640 C   0  0  0  0  0  3  0  0  0  0  0  0
  -24.8370  -29.0030   20.1330 C   0  0  0  0  0  0  0  0  0  0  0  0
  -25.9230  -30.8550   21.3860 C   0  0  0  0  0  2  0  0  0  0  0  0
  -25.9980  -29.4890   20.7470 C   0  0  0  0  0  0  0  0  0  0  0  0
  -27.1920  -28.7320   20.7390 C   0  0  0  0  0  3  0  0  0  0  0  0
  -26.0500  -27.0680   19.4050 C   0  0  0  0  0  3  0  0  0  0  0  0
  -24.8480  -27.7770   19.4710 C   0  0  0  0  0  3  0  0  0  0  0  0
  -23.6080  -29.8690   20.1740 C   0  0  0  0  0  2  0  0  0  0  0  0
  -24.6580  -31.0970   22.1180 N   0  0  0  0  0  0  0  0  0  0  0  0
  -23.5250  -32.1590   23.7680 O   0  0  0  0  0  0  0  0  0  0  0  0
  -22.7330  -29.4780   22.5010 C   0  0  0  0  0  0  0  0  0  0  0  0
  -21.4070  -29.3170   22.3660 N   0  0  0  0  0  0  0  0  0  0  0  0
  -23.4070  -28.8200   23.3010 O   0  0  0  0  0  0  0  0  0  0  0  0
  -20.9350  -29.8860   21.6770 H   0  0  0  0  0  0  0  0  0  0  0  0
  -18.0190  -28.1420   22.8460 C   0  0  0  0  0  0  0  0  0  0  0  0
  -20.5730  -28.3840   23.1250 C   0  0  0  0  0  3  0  0  0  0  0  0
  -20.6580  -26.9650   22.5350 C   0  0  0  0  0  2  0  0  0  0  0  0
  -19.5670  -26.6660   21.5070 C   0  0  0  0  0  2  0  0  0  0  0  0
  -18.1870  -26.7990   22.1540 C   0  0  0  0  0  2  0  0  0  0  0  0
  -19.1410  -28.8930   23.2860 C   0  0  0  0  0  0  0  0  0  0  0  0
  -18.9330  -30.1480   23.8970 C   0  0  0  0  0  3  0  0  0  0  0  0
  -17.6310  -30.6570   24.0620 C   0  0  0  0  0  3  0  0  0  0  0  0
  -16.5250  -29.9060   23.6350 C   0  0  0  0  0  3  0  0  0  0  0  0
  -16.7170  -28.6490   23.0340 C   0  0  0  0  0  3  0  0  0  0  0  0
  -25.8970  -32.4960   23.8510 C   0  0  0  0  0  3  0  0  0  0  0  0
  -26.4490  -31.6650   25.0730 C   0  0  1  0  0  0  0  0  0  0  0  0
  -25.3800  -31.3630   26.1450 C   0  0  0  0  0  1  0  0  0  0  0  0
  -27.0290  -30.3160   24.5850 C   0  0  0  0  0  1  0  0  0  0  0  0
  -27.6120  -32.4280   25.7510 C   0  0  0  0  0  1  0  0  0  0  0  0
  -25.5890  -33.8730   24.2500 N   0  0  0  0  0  0  0  0  0  0  0  0
  -25.8990  -34.9550   23.5220 C   0  0  0  0  0  0  0  0  0  0  0  0
  -26.5510  -34.8950   22.4760 O   0  0  0  0  0  0  0  0  0  0  0  0
  -25.0100  -33.9950   25.0690 H   0  0  0  0  0  0  0  0  0  0  0  0
  -24.1480  -36.7410   23.2630 C   0  0  0  0  0  1  0  0  0  0  0  0
  -25.4090  -36.3200   24.0360 C   0  0  0  0  0  3  0  0  0  0  0  0
  -27.5600  -37.1810   24.8460 C   0  0  0  0  0  1  0  0  0  0  0  0
  -26.4320  -37.3830   23.9410 N   0  0  0  0  0  0  0  0  0  0  0  0
  -26.0260  -38.2940   24.1340 H   0  0  0  0  0  0  0  0  0  0  0  0
  -24.1990  -24.9690   21.6070 C   0  0  0  0  0  2  0  0  0  0  0  0
  -22.8720  -24.3370   22.0390 C   0  0  0  0  0  0  0  0  0  0  0  0
  -22.5550  -24.2840   23.3370 N   0  0  0  0  0  0  0  0  0  0  0  0
  -22.1210  -23.8630   21.1910 O   0  0  0  0  0  0  0  0  0  0  0  0
  -21.7160  -23.7700   23.5670 H   0  0  0  0  0  0  0  0  0  0  0  0
  -23.2320  -24.9780   24.4360 C   0  0  0  0  0  2  0  0  0  0  0  0
  -21.0740  -24.7100   25.8250 C   0  0  0  0  0  3  0  0  0  0  0  0
  -22.3620  -25.0960   25.6880 C   0  0  0  0  0  0  0  0  0  0  0  0
  -20.1930  -24.8500   27.0540 C   0  0  0  0  0  1  0  0  0  0  0  0
  -23.1330  -25.7360   26.7930 N   0  0  0  0  0  4  0  0  0  0  0  0
  -24.0810  -25.4000   26.7680 H   0  0  0  0  0  0  0  0  0  0  0  0
  -22.7530  -25.4410   27.6790 H   0  0  0  0  0  0  0  0  0  0  0  0
  -23.1520  -27.2180   26.7600 C   0  0  0  0  0  2  0  0  0  0  0  0
  -23.9530  -27.8760   27.9070 C   0  0  0  0  0  2  0  0  0  0  0  0
  -25.4860  -27.7700   27.7540 C   0  0  0  0  0  2  0  0  0  0  0  0
  -26.2680  -28.6410   28.7580 C   0  0  0  0  0  2  0  0  0  0  0  0
  -27.7720  -28.7220   28.4180 C   0  0  0  0  0  2  0  0  0  0  0  0
  -28.4800  -29.9250   29.0680 C   0  0  0  0  0  2  0  0  0  0  0  0
  -29.9240  -30.1190   28.5630 C   0  0  0  0  0  2  0  0  0  0  0  0
  -30.5370  -31.4600   29.0120 C   0  0  0  0  0  2  0  0  0  0  0  0
  -31.9840  -31.6940   28.5320 C   0  0  0  0  0  2  0  0  0  0  0  0
  -32.0870  -31.9130   27.0770 N   0  0  0  0  0  4  0  0  0  0  0  0
  -31.7840  -31.1070   26.5620 H   0  0  0  0  0  0  0  0  0  0  0  0
  -33.0440  -32.0930   26.8330 H   0  0  0  0  0  0  0  0  0  0  0  0
  -31.5450  -32.7100   26.7940 H   0  0  0  0  0  0  0  0  0  0  0  0
  1  2  1  0
  2  3  1  0
  3  4  1  0
  4  5  1  0
  5  6  1  0
  6  8  1  0
  7  9  2  0
  8  7  1  0
 10  8  1  0
 11  7  1  0
 12 11  1  0
 13 12  1  0
 13 14  1  0
 15 14  1  0
 16 17  1  0
 17 19  1  0
 17 15  1  0
 18 16  2  0
 20 16  1  0
 21 23  2  0
 21 22  1  0
 22 20  1  0
 24 22  1  0
 25 21  1  0
 26 28  2  0
 26 27  1  0
 27 25  1  0
 29 27  1  0
 30 32  1  0
 30 26  1  0
 31 33  2  0
 31 35  1  0
 32 31  1  0
 34 32  1  0
 35 36  1  0
 36 37  1  0
 37 38  1  0
 38 39  1  0
 39 40  1  0
 40 43  1  0
 41 40  1  0
 42 40  1  0
 43 44  1  0
 45 44  1  0
 46 54  1  0
 47 52  1  0
 48 49  1  0
 48 47  1  0
 50 49  1  0
 50 59  1  0
 50 51  1  0
 52 46  1  0
 52 51  1  0
 53 46  2  0
 54 55  1  0
 54 45  1  0
 56 57  2  0
 57 76  1  0
 58 57  1  0
 58 61  1  0
 59 56  1  0
 59 60  1  0
 60 58  2  0
 61 62  1  0
 62 63  2  0
 64 67  1  0
 64 63  1  0
 65 64  2  0
 66 65  1  0
 66 61  2  0
 67 68  1  0
 68 69  1  0
 69 70  2  0
 71 70  1  0
 71 75  1  0
 72 71  2  0
 73 68  2  0
 73 72  1  0
 74 73  1  0
 76 77  1  0
 77 80  1  0
 77 79  1  0
 78 76  2  0
 81 56  1  0
 82 81  1  0
 83 81  1  0
 84  1  1  0
 84 85  1  0
 86 85  1  0
 86 89  1  0
 86 88  1  0
 87 86  1  0
 90 89  1  0
 91 92  1  0
 91 90  1  0
 92142  1  0
 93 91  1  0
 94 92  1  0
 95 93  1  0
 96 93  1  0
 97 98  1  0
 97 96  1  0
 99 98  1  0
 99100  1  0
100101  1  0
101103  1  0
102113  2  0
103108  1  0
104112  1  0
104114  1  0
105111  1  0
105107  1  0
106112  1  0
107106  1  0
108107  2  0
109110  1  0
109103  2  0
110105  2  0
111104  1  0
112102  1  0
114116  2  0
115114  1  0
117115  1  0
118127  2  0
118123  1  0
119115  1  0
119123  1  0
120119  1  0
121122  1  0
121120  1  0
122118  1  0
123124  2  0
124125  1  0
126125  2  0
127126  1  0
128102  1  0
128133  1  0
128129  1  0
129132  1  1
129130  1  0
131129  1  0
133136  1  0
134138  1  0
134133  1  0
135134  2  0
138137  1  0
140138  1  0
140141  1  0
140139  1  0
142143  1  0
143144  1  0
144146  1  0
144147  1  0
145143  2  0
147149  1  0
148150  1  0
149148  2  0
149151  1  0
151153  1  0
152151  1  0
154151  1  0
154155  1  0
156155  1  0
156157  1  0
158157  1  0
158159  1  0
160161  1  0
160159  1  0
162161  1  0
163162  1  0
164163  1  0
165163  1  0
166163  1  0
M  ISO  4  46 100  54 100 100 101 101 101
M  END
>  <TORSDO>  (80) 
F 69

>  <SCORE>  (80) 
56.627

>  <name>  (80) 
93

>  <ligand_id>  (80) 
93

>  <original_smiles>  (80) 
[H]C(=C(C([H])([H])N([H])C(=O)C([H])([H])N([H])C(=[N+]([H])C([H])([H])C([H])([H])OC([H])([H])C([H])([H])Oc1c([H])c([H])c2c(c1[H])C([H])([H])N(C(=O)C([H])(N([H])C(=O)C([H])(N([H])C([H])([H])[H])C([H])([H])[H])C(C([H])([H])[H])(C([H])([H])[H])C([H])([H])[H])C([H])(C(=O)N([H])C1([H])c3c([H])c([H])c([H])c([H])c3C([H])([H])C([H])([H])C1([H])[H])C2([H])[H])C([H])([H])C([H])([H])[N+]([H])([H])C([H])([H])C([H])([H])C([H])([H])C([H])([H])C([H])([H])C([H])([H])C([H])([H])C([H])([H])N([H])C(=O)C([H])([H])OC([H])([H])C([H])([H])C([H])([H])N([H])C(=O)C([H])([H])N([H])C(=O)C([H])([H])N([H])C(=O)C([H])([H])N([H])C(=O)C([H])([H])OC([H])([H])C([H])([H])C([H])([H])[N+]([H])([H])C([H])([H])C([H])([H])C([H])([H])N([H])C(=O)N1C([H])([H])C([H])([H])C([H])([H])C([H])(n2nc(-c3c([H])c([H])c(Oc4c([H])c([H])c(F)c([H])c4F)c([H])c3[H])c(C(=O)N([H])[H])c2N([H])[H])C1([H])[H])[N+]([H])([H])C([H])([H])C([H])([H])C([H])([H])C([H])([H])C([H])([H])C([H])([H])C([H])([H])C([H])([H])C([H])([H])[N+]([H])([H])[H])C([H])([H])[H]

>  <smiles>  (80) 
[H]C(=C(C([H])([H])N([H])C(=O)C([H])([H])N([H])C(=[N+]([H])C([H])([H])C([H])([H])OC([H])([H])C([H])([H])Oc1c([H])c([H])c2c(c1[H])C([H])([H])N(C(=O)C([H])(N([H])C(=O)C([H])(N([H])C([H])([H])[H])C([H])([H])[H])C(C([H])([H])[H])(C([H])([H])[H])C([H])([H])[H])C([H])(C(=O)N([H])C1([H])c3c([H])c([H])c([H])c([H])c3C([H])([H])C([H])([H])C1([H])[H])C2([H])[H])C([H])([H])C([H])([H])[N+]([H])([H])C([H])([H])C([H])([H])C([H])([H])C([H])([H])C([H])([H])C([H])([H])C([H])([H])C([H])([H])N([H])C(=O)C([H])([H])OC([H])([H])C([H])([H])C([H])([H])N([H])C(=O)C([H])([H])N([H])C(=O)C([H])([H])N([H])C(=O)C([H])([H])N([H])C(=O)C([H])([H])OC([H])([H])C([H])([H])C([H])([H])[N+]([H])([H])C([H])([H])C([H])([H])C([H])([H])N([H])C(=O)N1C([H])([H])C([H])([H])C([H])([H])C([H])(n2nc(-c3c([H])c([H])c(Oc4c([H])c([H])c(F)c([H])c4F)c([H])c3[H])c(C(=O)N([H])[H])c2N([H])[H])C1([H])[H])[N+]([H])([H])C([H])([H])C([H])([H])C([H])([H])C([H])([H])C([H])([H])C([H])([H])C([H])([H])C([H])([H])C([H])([H])[N+]([H])([H])[H])C([H])([H])[H]

$$$$
94:0:0
     RDKit          3D

134141  0  0  1  0  0  0  0  0999 V2000
  -21.5840  -22.1540   21.5790 C   0  0  0  0  0  0  0  0  0  0  0  0
  -21.8150  -21.7690   20.3190 N   0  0  0  0  0  0  0  0  0  0  0  0
  -22.4720  -22.1570   22.4360 O   0  0  0  0  0  0  0  0  0  0  0  0
  -21.0360  -21.7900   19.6750 H   0  0  0  0  0  0  0  0  0  0  0  0
  -20.1610  -22.6110   21.9230 C   0  0  0  0  0  2  0  0  0  0  0  0
  -20.1850  -24.0050   22.1940 O   0  0  0  0  0  0  0  0  0  0  0  0
  -18.9200  -24.5390   22.5540 C   0  0  0  0  0  2  0  0  0  0  0  0
  -19.1360  -26.0150   22.9130 C   0  0  0  0  0  2  0  0  0  0  0  0
  -20.3630  -26.2250   23.8180 C   0  0  0  0  0  2  0  0  0  0  0  0
  -20.7560  -27.7060   23.9590 C   0  0  0  0  0  2  0  0  0  0  0  0
  -22.0850  -27.9340   24.7050 C   0  0  0  0  0  2  0  0  0  0  0  0
  -23.2680  -27.5720   23.8900 N   0  0  0  0  0  4  0  0  0  0  0  0
  -23.1480  -27.9350   22.9590 H   0  0  0  0  0  0  0  0  0  0  0  0
  -23.3340  -26.5690   23.8260 H   0  0  0  0  0  0  0  0  0  0  0  0
  -24.5460  -28.0890   24.4220 C   0  0  0  0  0  2  0  0  0  0  0  0
  -25.7380  -27.7610   23.5040 C   0  0  0  0  0  2  0  0  0  0  0  0
  -26.6600  -25.6360   22.5530 C   0  0  0  0  0  0  0  0  0  0  0  0
  -26.0960  -26.3390   23.5430 N   0  0  0  0  0  0  0  0  0  0  0  0
  -26.8240  -26.0910   21.4190 O   0  0  0  0  0  0  0  0  0  0  0  0
  -26.0280  -25.8750   24.4400 H   0  0  0  0  0  0  0  0  0  0  0  0
  -27.1020  -24.2080   22.9110 C   0  0  0  0  0  2  0  0  0  0  0  0
  -29.2140  -23.6340   21.7100 C   0  0  0  0  0  0  0  0  0  0  0  0
  -27.8860  -23.5570   21.8600 N   0  0  0  0  0  0  0  0  0  0  0  0
  -29.9360  -24.2730   22.4800 O   0  0  0  0  0  0  0  0  0  0  0  0
  -27.3710  -23.0180   21.1780 H   0  0  0  0  0  0  0  0  0  0  0  0
  -29.8090  -22.8620   20.5240 C   0  0  0  0  0  2  0  0  0  0  0  0
  -31.1400  -23.2970   20.2600 O   0  0  0  0  0  0  0  0  0  0  0  0
  -31.6390  -22.7600   19.0410 C   0  0  0  0  0  2  0  0  0  0  0  0
  -33.0010  -23.3830   18.6990 C   0  0  0  0  0  2  0  0  0  0  0  0
  -34.1870  -22.8730   19.5450 C   0  0  0  0  0  2  0  0  0  0  0  0
  -35.2870  -21.0290   18.2660 C   0  0  0  0  0  0  0  0  0  0  0  0
  -36.3820  -19.0530   17.2750 C   0  0  0  0  0  2  0  0  0  0  0  0
  -35.4690  -18.3350   16.2640 C   0  0  0  0  0  2  0  0  0  0  0  0
  -34.5530  -17.3230   16.9800 C   0  0  0  0  0  2  0  0  0  0  0  0
  -33.8200  -17.9440   18.1990 C   0  0  0  0  0  3  0  0  0  0  0  0
  -34.8200  -18.6950   19.1070 C   0  0  0  0  0  2  0  0  0  0  0  0
  -35.5390  -19.6950   18.2920 N   0  0  0  0  0  0  0  0  0  0  0  0
  -35.7460  -21.7950   17.4130 O   0  0  0  0  0  0  0  0  0  0  0  0
  -34.5360  -21.4770   19.2770 N   0  0  0  0  0  0  0  0  0  0  0  0
  -34.2270  -20.7870   19.9450 H   0  0  0  0  0  0  0  0  0  0  0  0
  -31.7700  -16.9800   19.4300 C   0  0  0  0  0  0  0  0  0  0  0  0
  -31.5330  -15.7520   19.9870 C   0  0  0  0  0  0  0  0  0  0  0  0
  -32.7290  -14.9950   19.7970 C   0  0  0  0  0  0  0  0  0  0  0  0
  -33.0680  -16.9340   18.9430 N   0  0  0  0  0  0  0  0  0  0  0  0
  -33.6600  -15.7410   19.2180 N   0  0  0  0  0  0  0  0  0  0  0  0
  -33.0250  -13.5850   20.0870 C   0  0  0  0  0  0  0  0  0  0  0  0
  -34.1980  -13.2040   20.7760 C   0  0  0  0  0  3  0  0  0  0  0  0
  -34.4550  -11.8450   21.0550 C   0  0  0  0  0  3  0  0  0  0  0  0
  -33.5350  -10.8500   20.6470 C   0  0  0  0  0  0  0  0  0  0  0  0
  -32.3800  -11.2330   19.9420 C   0  0  0  0  0  3  0  0  0  0  0  0
  -32.1280  -12.5870   19.6610 C   0  0  0  0  0  3  0  0  0  0  0  0
  -33.7120   -9.5020   20.8520 O   0  0  0  0  0  0  0  0  0  0  0  0
  -34.5380   -9.0280   21.8380 C   0  0  0  0  0  0  0  0  0  0  0  0
  -34.3450   -9.3610   23.1970 C   0  0  0  0  0  3  0  0  0  0  0  0
  -35.1740   -8.7940   24.1850 C   0  0  0  0  0  3  0  0  0  0  0  0
  -36.1890   -7.8910   23.8200 C   0  0  0  0  0  0  0  0  0  0  0  0
  -36.3810   -7.5540   22.4680 C   0  0  0  0  0  3  0  0  0  0  0  0
  -35.5550   -8.1200   21.4810 C   0  0  0  0  0  0  0  0  0  0  0  0
  -35.7290   -7.7760   20.1810 F   0  0  0  0  0  0  0  0  0  0  0  0
  -36.9810   -7.3400   24.7700 F   0  0  0  0  0  0  0  0  0  0  0  0
  -30.2360  -15.2700   20.5730 C   0  0  0  0  0  0  0  0  0  0  0  0
  -30.3000  -14.3840   21.5610 N   0  0  0  0  0  0  0  0  0  0  0  0
  -29.1570  -15.7120   20.1850 O   0  0  0  0  0  0  0  0  0  0  0  0
  -31.1860  -14.0400   21.8980 H   0  0  0  0  0  0  0  0  0  0  0  0
  -29.4490  -14.0480   21.9900 H   0  0  0  0  0  0  0  0  0  0  0  0
  -30.9890  -18.1220   19.2820 N   0  0  0  0  0  0  0  0  0  0  0  0
  -30.0170  -18.1510   19.5690 H   0  0  0  0  0  0  0  0  0  0  0  0
  -31.2840  -18.9490   18.7780 H   0  0  0  0  0  0  0  0  0  0  0  0
  -23.1020  -21.3090   19.7980 C   0  0  0  0  0  2  0  0  0  0  0  0
  -23.2620  -23.4590   18.4120 C   0  0  0  0  0  1  0  0  0  0  0  0
  -24.0200  -22.4670   19.3240 C   0  0  0  0  0  3  0  0  0  0  0  0
  -25.2330  -21.9160   18.6680 N   0  0  0  0  0  4  0  0  0  0  0  0
  -25.7990  -21.4290   19.3490 H   0  0  0  0  0  0  0  0  0  0  0  0
  -24.9850  -21.2350   17.9680 H   0  0  0  0  0  0  0  0  0  0  0  0
  -26.1660  -22.8920   18.0710 C   0  0  0  0  0  2  0  0  0  0  0  0
  -27.5560  -22.2720   17.9990 C   0  0  0  0  0  0  0  0  0  0  0  0
  -28.4210  -22.7830   17.1120 N   0  0  0  0  0  0  0  0  0  0  0  0
  -27.8340  -21.3440   18.7610 O   0  0  0  0  0  0  0  0  0  0  0  0
  -28.0980  -23.5400   16.5240 H   0  0  0  0  0  0  0  0  0  0  0  0
  -29.8100  -22.3490   16.9400 C   0  0  0  0  0  2  0  0  0  0  0  0
  -30.1860  -22.1460   15.4590 C   0  0  0  0  0  2  0  0  0  0  0  0
  -30.2600  -23.4400   14.6330 C   0  0  0  0  0  2  0  0  0  0  0  0
  -31.3540  -24.2290   15.0800 O   0  0  0  0  0  0  0  0  0  0  0  0
  -31.4880  -25.4390   14.3420 C   0  0  0  0  0  2  0  0  0  0  0  0
  -32.5230  -26.3380   15.0270 C   0  0  0  0  0  2  0  0  0  0  0  0
  -32.0380  -26.6090   16.3320 O   0  0  0  0  0  0  0  0  0  0  0  0
  -32.7230  -27.6540   17.0040 C   0  0  0  0  0  2  0  0  0  0  0  0
  -32.1860  -27.7060   18.4430 C   0  0  0  0  0  2  0  0  0  0  0  0
  -30.7080  -27.7930   18.4800 N   0  0  0  0  0  4  0  0  0  0  0  0
  -30.4410  -28.2860   19.3200 H   0  0  0  0  0  0  0  0  0  0  0  0
  -30.4000  -28.3400   17.6880 H   0  0  0  0  0  0  0  0  0  0  0  0
  -30.0170  -26.4780   18.4510 C   0  0  0  0  0  2  0  0  0  0  0  0
  -28.4900  -26.6240   18.4430 C   0  0  0  0  0  2  0  0  0  0  0  0
  -28.0800  -27.4040   17.3180 O   0  0  0  0  0  0  0  0  0  0  0  0
  -24.2460  -31.3220   21.8190 C   0  0  0  0  0  0  0  0  0  0  0  0
  -26.9030  -28.0680   17.5440 C   0  0  0  0  0  0  0  0  0  0  0  0
  -23.0160  -30.4000   19.8810 C   0  0  0  0  0  3  0  0  0  0  0  0
  -24.4590  -29.3780   18.0390 C   0  0  0  0  0  0  0  0  0  0  0  0
  -25.5150  -30.9060   19.7190 C   0  0  0  0  0  2  0  0  0  0  0  0
  -25.6170  -29.7740   18.7210 C   0  0  0  0  0  0  0  0  0  0  0  0
  -26.8430  -29.1240   18.4760 C   0  0  0  0  0  3  0  0  0  0  0  0
  -25.7390  -27.6850   16.8500 C   0  0  0  0  0  3  0  0  0  0  0  0
  -24.5130  -28.3320   17.1000 C   0  0  0  0  0  3  0  0  0  0  0  0
  -23.1890  -30.1340   18.3610 C   0  0  0  0  0  2  0  0  0  0  0  0
  -24.2790  -30.8740   20.5340 N   0  0  0  0  0  0  0  0  0  0  0  0
  -23.1810  -31.3890   22.4470 O   0  0  0  0  0  0  0  0  0  0  0  0
  -22.4330  -29.1260   20.5330 C   0  0  0  0  0  0  0  0  0  0  0  0
  -21.0960  -28.9960   20.4980 N   0  0  0  0  0  0  0  0  0  0  0  0
  -23.1730  -28.2700   21.0250 O   0  0  0  0  0  0  0  0  0  0  0  0
  -20.5590  -29.7440   20.0840 H   0  0  0  0  0  0  0  0  0  0  0  0
  -17.7620  -27.8780   21.3130 C   0  0  0  0  0  0  0  0  0  0  0  0
  -20.3290  -27.8630   21.0110 C   0  0  0  0  0  3  0  0  0  0  0  0
  -20.0910  -26.8050   19.9070 C   0  0  0  0  0  2  0  0  0  0  0  0
  -18.7640  -26.9930   19.1650 C   0  0  0  0  0  2  0  0  0  0  0  0
  -17.5870  -26.9270   20.1410 C   0  0  0  0  0  2  0  0  0  0  0  0
  -19.0470  -28.3280   21.7130 C   0  0  0  0  0  0  0  0  0  0  0  0
  -19.1520  -29.2390   22.7870 C   0  0  0  0  0  3  0  0  0  0  0  0
  -18.0020  -29.6930   23.4600 C   0  0  0  0  0  3  0  0  0  0  0  0
  -16.7330  -29.2320   23.0720 C   0  0  0  0  0  3  0  0  0  0  0  0
  -16.6140  -28.3240   22.0040 C   0  0  0  0  0  3  0  0  0  0  0  0
  -25.5390  -31.7950   22.5540 C   0  0  0  0  0  3  0  0  0  0  0  0
  -26.1790  -30.6810   23.4690 C   0  0  1  0  0  0  0  0  0  0  0  0
  -25.1760  -30.0260   24.4480 C   0  0  0  0  0  1  0  0  0  0  0  0
  -26.8010  -29.5590   22.6030 C   0  0  0  0  0  1  0  0  0  0  0  0
  -27.3370  -31.2860   24.2970 C   0  0  0  0  0  1  0  0  0  0  0  0
  -25.1890  -32.9790   23.3490 N   0  0  0  0  0  0  0  0  0  0  0  0
  -25.4890  -34.2380   23.0100 C   0  0  0  0  0  0  0  0  0  0  0  0
  -26.1640  -34.5210   22.0150 O   0  0  0  0  0  0  0  0  0  0  0  0
  -24.5850  -32.8250   24.1430 H   0  0  0  0  0  0  0  0  0  0  0  0
  -23.7120  -35.9970   23.2730 C   0  0  0  0  0  1  0  0  0  0  0  0
  -24.9570  -35.3650   23.9150 C   0  0  0  0  0  3  0  0  0  0  0  0
  -27.0660  -35.9510   25.0310 C   0  0  0  0  0  1  0  0  0  0  0  0
  -25.9600  -36.4160   24.1990 N   0  0  0  0  0  0  0  0  0  0  0  0
  -25.5250  -37.2120   24.6580 H   0  0  0  0  0  0  0  0  0  0  0  0
  1  5  1  0
  1  3  2  0
  2  1  1  0
  4  2  1  0
  5  6  1  0
  6  7  1  0
  7  8  1  0
  8  9  1  0
  9 10  1  0
 10 11  1  0
 12 15  1  0
 12 11  1  0
 13 12  1  0
 14 12  1  0
 16 18  1  0
 16 15  1  0
 17 21  1  0
 17 18  1  0
 18 20  1  0
 19 17  2  0
 22 23  1  0
 22 24  2  0
 23 21  1  0
 25 23  1  0
 26 22  1  0
 27 26  1  0
 28 27  1  0
 29 28  1  0
 29 30  1  0
 31 37  1  0
 31 39  1  0
 32 37  1  0
 33 34  1  0
 33 32  1  0
 35 34  1  0
 35 44  1  0
 35 36  1  0
 37 36  1  0
 38 31  2  0
 39 30  1  0
 39 40  1  0
 41 42  2  0
 42 61  1  0
 43 42  1  0
 43 46  1  0
 44 45  1  0
 44 41  1  0
 45 43  2  0
 46 47  1  0
 47 48  2  0
 49 52  1  0
 49 48  1  0
 50 49  2  0
 51 50  1  0
 51 46  2  0
 52 53  1  0
 53 54  1  0
 54 55  2  0
 56 55  1  0
 56 60  1  0
 57 56  2  0
 58 53  2  0
 58 57  1  0
 59 58  1  0
 61 62  1  0
 62 64  1  0
 62 65  1  0
 63 61  2  0
 66 41  1  0
 66 67  1  0
 68 66  1  0
 69  2  1  0
 71 70  1  0
 71 69  1  0
 72 71  1  0
 72 73  1  0
 74 72  1  0
 75 72  1  0
 76 75  1  0
 76 78  2  0
 77 76  1  0
 79 77  1  0
 80 77  1  0
 81 80  1  0
 82 83  1  0
 82 81  1  0
 84 85  1  0
 84 83  1  0
 85 86  1  0
 86 87  1  0
 87 88  1  0
 88 89  1  0
 89 90  1  0
 91 89  1  0
 92 89  1  0
 93 92  1  0
 94 96  1  0
 94 93  1  0
 95106  2  0
 96101  1  0
 97107  1  0
 97105  1  0
 98104  1  0
 98100  1  0
 99105  1  0
100 99  1  0
101100  2  0
102103  1  0
102 96  2  0
103 98  2  0
104 97  1  0
105 95  1  0
107109  2  0
108107  1  0
110108  1  0
111116  2  0
111120  1  0
112108  1  0
112116  1  0
113112  1  0
114113  1  0
114115  1  0
115111  1  0
116117  1  0
117118  2  0
119118  1  0
120119  2  0
121 95  1  0
121126  1  0
121122  1  0
122125  1  1
122123  1  0
124122  1  0
126129  1  0
127126  1  0
127131  1  0
128127  2  0
131130  1  0
131133  1  0
133134  1  0
133132  1  0
M  ISO  4  31 100  39 100  93 101  94 101
M  END
>  <TORSDO>  (81) 
F 51

>  <SCORE>  (81) 
6.851

>  <name>  (81) 
94

>  <ligand_id>  (81) 
94

>  <original_smiles>  (81) 
[H]c1c([H])c([H])c2c(c1[H])C([H])([H])C([H])([H])C([H])([H])C2([H])N([H])C(=O)C1([H])N(C(=O)C([H])(N([H])C(=O)C([H])(N([H])C([H])([H])[H])C([H])([H])[H])C(C([H])([H])[H])(C([H])([H])[H])C([H])([H])[H])C([H])([H])c2c([H])c(OC([H])([H])C([H])([H])[N+]([H])([H])C([H])([H])C([H])([H])OC([H])([H])C([H])([H])OC([H])([H])C([H])([H])C([H])([H])N([H])C(=O)C([H])([H])[N+]([H])([H])C([H])(C([H])([H])[H])C([H])([H])N([H])C(=O)C([H])([H])OC([H])([H])C([H])([H])C([H])([H])C([H])([H])C([H])([H])[N+]([H])([H])C([H])([H])C([H])([H])N([H])C(=O)C([H])([H])N([H])C(=O)C([H])([H])OC([H])([H])C([H])([H])C([H])([H])N([H])C(=O)N3C([H])([H])C([H])([H])C([H])([H])C([H])(n4nc(-c5c([H])c([H])c(Oc6c([H])c([H])c(F)c([H])c6F)c([H])c5[H])c(C(=O)N([H])[H])c4N([H])[H])C3([H])[H])c([H])c([H])c2C1([H])[H]

>  <smiles>  (81) 
[H]c1c([H])c([H])c2c(c1[H])C([H])([H])C([H])([H])C([H])([H])C2([H])N([H])C(=O)C1([H])N(C(=O)C([H])(N([H])C(=O)C([H])(N([H])C([H])([H])[H])C([H])([H])[H])C(C([H])([H])[H])(C([H])([H])[H])C([H])([H])[H])C([H])([H])c2c([H])c(OC([H])([H])C([H])([H])[N+]([H])([H])C([H])([H])C([H])([H])OC([H])([H])C([H])([H])OC([H])([H])C([H])([H])C([H])([H])N([H])C(=O)C([H])([H])[N+]([H])([H])C([H])(C([H])([H])[H])C([H])([H])N([H])C(=O)C([H])([H])OC([H])([H])C([H])([H])C([H])([H])C([H])([H])C([H])([H])[N+]([H])([H])C([H])([H])C([H])([H])N([H])C(=O)C([H])([H])N([H])C(=O)C([H])([H])OC([H])([H])C([H])([H])C([H])([H])N([H])C(=O)N3C([H])([H])C([H])([H])C([H])([H])C([H])(n4nc(-c5c([H])c([H])c(Oc6c([H])c([H])c(F)c([H])c6F)c([H])c5[H])c(C(=O)N([H])[H])c4N([H])[H])C3([H])[H])c([H])c([H])c2C1([H])[H]

$$$$
96:0:0
     RDKit          3D

126133  0  0  1  0  0  0  0  0999 V2000
  -22.9100  -14.4360   25.1190 C   0  0  0  0  0  0  0  0  0  0  0  0
  -21.8280  -13.8380   25.6220 N   0  0  0  0  0  0  0  0  0  0  0  0
  -23.2790  -15.5540   25.4880 O   0  0  0  0  0  0  0  0  0  0  0  0
  -21.5790  -12.9310   25.2510 H   0  0  0  0  0  0  0  0  0  0  0  0
  -20.9410  -14.4010   26.6410 C   0  0  0  0  0  2  0  0  0  0  0  0
  -19.7370  -15.1560   26.0510 C   0  0  0  0  0  0  0  0  0  0  0  0
  -18.6760  -15.3190   26.8490 N   0  0  0  0  0  0  0  0  0  0  0  0
  -19.7580  -15.5830   24.8950 O   0  0  0  0  0  0  0  0  0  0  0  0
  -18.7310  -14.9710   27.7970 H   0  0  0  0  0  0  0  0  0  0  0  0
  -17.4530  -16.0410   26.4860 C   0  0  0  0  0  2  0  0  0  0  0  0
  -17.2150  -17.2760   27.3660 C   0  0  0  0  0  0  0  0  0  0  0  0
  -15.9490  -17.7060   27.4840 N   0  0  0  0  0  0  0  0  0  0  0  0
  -18.1520  -17.8140   27.9640 O   0  0  0  0  0  0  0  0  0  0  0  0
  -15.2360  -17.2000   26.9720 H   0  0  0  0  0  0  0  0  0  0  0  0
  -15.4940  -18.7540   28.3960 C   0  0  0  0  0  2  0  0  0  0  0  0
  -15.0210  -20.0320   27.6820 C   0  0  0  0  0  2  0  0  0  0  0  0
  -13.5410  -20.0430   27.2650 C   0  0  0  0  0  2  0  0  0  0  0  0
  -12.9140  -21.4060   27.5950 C   0  0  0  0  0  2  0  0  0  0  0  0
  -11.4130  -21.5550   27.3000 C   0  0  0  0  0  2  0  0  0  0  0  0
  -10.8120  -22.6560   28.1940 C   0  0  0  0  0  2  0  0  0  0  0  0
   -9.4850  -23.2430   27.6840 C   0  0  0  0  0  2  0  0  0  0  0  0
   -8.6610  -23.9710   28.7640 C   0  0  0  0  0  2  0  0  0  0  0  0
   -7.4530  -23.2820   29.0880 O   0  0  0  0  0  0  0  0  0  0  0  0
  -10.4020  -18.7900   33.7510 C   0  0  0  0  0  0  0  0  0  0  0  0
   -7.6130  -21.9890   29.5140 C   0  0  0  0  0  0  0  0  0  0  0  0
   -9.3110  -17.7550   31.7840 C   0  0  0  0  0  3  0  0  0  0  0  0
   -7.8850  -19.3160   30.3610 C   0  0  0  0  0  0  0  0  0  0  0  0
   -8.5120  -20.0100   32.6780 C   0  0  0  0  0  2  0  0  0  0  0  0
   -8.1220  -20.3650   31.2600 C   0  0  0  0  0  0  0  0  0  0  0  0
   -7.9860  -21.7070   30.8430 C   0  0  0  0  0  3  0  0  0  0  0  0
   -7.3490  -20.9270   28.6250 C   0  0  0  0  0  3  0  0  0  0  0  0
   -7.4940  -19.5920   29.0400 C   0  0  0  0  0  3  0  0  0  0  0  0
   -8.0520  -17.9080   30.8840 C   0  0  0  0  0  2  0  0  0  0  0  0
   -9.4590  -18.8750   32.7710 N   0  0  0  0  0  0  0  0  0  0  0  0
  -11.1090  -17.7820   33.8730 O   0  0  0  0  0  0  0  0  0  0  0  0
  -10.5450  -17.5750   30.8750 C   0  0  0  0  0  0  0  0  0  0  0  0
  -10.7230  -16.3520   30.3570 N   0  0  0  0  0  0  0  0  0  0  0  0
  -11.2950  -18.5230   30.6270 O   0  0  0  0  0  0  0  0  0  0  0  0
  -10.0700  -15.6320   30.6260 H   0  0  0  0  0  0  0  0  0  0  0  0
  -12.0690  -13.5570   28.4970 C   0  0  0  0  0  0  0  0  0  0  0  0
  -11.7870  -15.9490   29.4370 C   0  0  0  0  0  3  0  0  0  0  0  0
  -11.4600  -16.3740   27.9880 C   0  0  0  0  0  2  0  0  0  0  0  0
  -10.7600  -15.2770   27.1780 C   0  0  0  0  0  2  0  0  0  0  0  0
  -11.6280  -14.0170   27.1160 C   0  0  0  0  0  2  0  0  0  0  0  0
  -12.1290  -14.4630   29.5900 C   0  0  0  0  0  0  0  0  0  0  0  0
  -12.5200  -13.9840   30.8590 C   0  0  0  0  0  3  0  0  0  0  0  0
  -12.8550  -12.6300   31.0440 C   0  0  0  0  0  3  0  0  0  0  0  0
  -12.8030  -11.7380   29.9620 C   0  0  0  0  0  3  0  0  0  0  0  0
  -12.4150  -12.2020   28.6910 C   0  0  0  0  0  3  0  0  0  0  0  0
  -10.6240  -19.9440   34.7800 C   0  0  0  0  0  3  0  0  0  0  0  0
  -11.7700  -20.9480   34.3570 C   0  0  1  0  0  0  0  0  0  0  0  0
  -13.1030  -20.2500   33.9980 C   0  0  0  0  0  1  0  0  0  0  0  0
  -11.3290  -21.7920   33.1380 C   0  0  0  0  0  1  0  0  0  0  0  0
  -12.0490  -21.9470   35.5060 C   0  0  0  0  0  1  0  0  0  0  0  0
  -10.9290  -19.3330   36.0790 N   0  0  0  0  0  0  0  0  0  0  0  0
  -10.0380  -19.1570   37.0670 C   0  0  0  0  0  0  0  0  0  0  0  0
   -8.8770  -19.5750   37.0020 O   0  0  0  0  0  0  0  0  0  0  0  0
  -11.8470  -18.9250   36.1850 H   0  0  0  0  0  0  0  0  0  0  0  0
   -9.9840  -16.9560   38.2810 C   0  0  0  0  0  1  0  0  0  0  0  0
  -10.5080  -18.4010   38.3230 C   0  0  0  0  0  3  0  0  0  0  0  0
  -10.7660  -20.3160   39.8360 C   0  0  0  0  0  1  0  0  0  0  0  0
  -10.0940  -19.0440   39.5890 N   0  0  0  0  0  0  0  0  0  0  0  0
  -10.2770  -18.4330   40.3790 H   0  0  0  0  0  0  0  0  0  0  0  0
  -23.7130  -13.6510   24.0680 C   0  0  0  0  0  2  0  0  0  0  0  0
  -23.5830  -14.6650   21.8030 C   0  0  0  0  0  0  0  0  0  0  0  0
  -24.1810  -14.5160   22.9890 N   0  0  0  0  0  0  0  0  0  0  0  0
  -22.6070  -13.9970   21.4540 O   0  0  0  0  0  0  0  0  0  0  0  0
  -24.9520  -15.1320   23.2120 H   0  0  0  0  0  0  0  0  0  0  0  0
  -24.1650  -15.7240   20.8740 C   0  0  0  0  0  2  0  0  0  0  0  0
  -23.0970  -16.5580   20.2910 N   0  0  0  0  0  4  0  0  0  0  0  0
  -22.2390  -16.3090   20.7580 H   0  0  0  0  0  0  0  0  0  0  0  0
  -22.9940  -16.2920   19.3240 H   0  0  0  0  0  0  0  0  0  0  0  0
  -23.3350  -18.0120   20.4040 C   0  0  0  0  0  2  0  0  0  0  0  0
  -22.0240  -18.8170   20.4190 C   0  0  0  0  0  2  0  0  0  0  0  0
  -22.1920  -20.2100   21.0540 C   0  0  0  0  0  2  0  0  0  0  0  0
  -20.9280  -21.0700   20.9390 C   0  0  0  0  0  2  0  0  0  0  0  0
  -19.9450  -20.4810   21.7700 O   0  0  0  0  0  0  0  0  0  0  0  0
  -18.7300  -21.2080   21.8470 C   0  0  0  0  0  2  0  0  0  0  0  0
  -17.7520  -20.3500   22.6580 C   0  0  0  0  0  2  0  0  0  0  0  0
  -17.5140  -18.9680   22.0170 C   0  0  0  0  0  2  0  0  0  0  0  0
  -16.2370  -18.2880   22.5320 C   0  0  0  0  0  2  0  0  0  0  0  0
  -16.2850  -16.8100   22.4070 N   0  0  0  0  0  4  0  0  0  0  0  0
  -17.1830  -16.4660   22.7000 H   0  0  0  0  0  0  0  0  0  0  0  0
  -15.6120  -16.4340   23.0560 H   0  0  0  0  0  0  0  0  0  0  0  0
  -15.9290  -16.2780   21.0740 C   0  0  0  0  0  2  0  0  0  0  0  0
  -16.6770  -14.9770   20.7320 C   0  0  0  0  0  2  0  0  0  0  0  0
  -18.0720  -15.1950   20.1130 C   0  0  0  0  0  2  0  0  0  0  0  0
  -18.8660  -13.8830   19.9920 C   0  0  0  0  0  2  0  0  0  0  0  0
  -20.9370  -14.5620   18.8520 C   0  0  0  0  0  0  0  0  0  0  0  0
  -22.2050  -13.3670   17.1430 C   0  0  0  0  0  2  0  0  0  0  0  0
  -21.5770  -11.9590   17.0470 C   0  0  0  0  0  2  0  0  0  0  0  0
  -22.2410  -11.0000   18.0550 C   0  0  0  0  0  2  0  0  0  0  0  0
  -22.3220  -11.5890   19.4880 C   0  0  0  0  0  3  0  0  0  0  0  0
  -22.8380  -13.0500   19.4810 C   0  0  0  0  0  2  0  0  0  0  0  0
  -22.0300  -13.8300   18.5260 N   0  0  0  0  0  0  0  0  0  0  0  0
  -20.3620  -15.3290   18.0780 O   0  0  0  0  0  0  0  0  0  0  0  0
  -20.3130  -14.1000   19.9380 N   0  0  0  0  0  0  0  0  0  0  0  0
  -20.8660  -13.4710   20.4970 H   0  0  0  0  0  0  0  0  0  0  0  0
  -22.6790   -9.8170   21.3140 C   0  0  0  0  0  0  0  0  0  0  0  0
  -23.8130   -9.2430   21.8210 C   0  0  0  0  0  0  0  0  0  0  0  0
  -24.9060   -9.8640   21.1430 C   0  0  0  0  0  0  0  0  0  0  0  0
  -23.1090  -10.7420   20.3760 N   0  0  0  0  0  0  0  0  0  0  0  0
  -24.4620  -10.8050   20.3190 N   0  0  0  0  0  0  0  0  0  0  0  0
  -26.3450   -9.5750   21.1810 C   0  0  0  0  0  0  0  0  0  0  0  0
  -27.3020  -10.6100   21.2380 C   0  0  0  0  0  3  0  0  0  0  0  0
  -28.6790  -10.3090   21.2920 C   0  0  0  0  0  3  0  0  0  0  0  0
  -29.1110   -8.9630   21.2960 C   0  0  0  0  0  0  0  0  0  0  0  0
  -28.1560   -7.9350   21.2140 C   0  0  0  0  0  3  0  0  0  0  0  0
  -26.7850   -8.2360   21.1520 C   0  0  0  0  0  3  0  0  0  0  0  0
  -30.4290   -8.5740   21.3230 O   0  0  0  0  0  0  0  0  0  0  0  0
  -31.4260   -9.4390   21.6950 C   0  0  0  0  0  0  0  0  0  0  0  0
  -31.4210  -10.0870   22.9500 C   0  0  0  0  0  3  0  0  0  0  0  0
  -32.4990  -10.9170   23.3190 C   0  0  0  0  0  3  0  0  0  0  0  0
  -33.5880  -11.0880   22.4430 C   0  0  0  0  0  0  0  0  0  0  0  0
  -33.5960  -10.4410   21.1960 C   0  0  0  0  0  3  0  0  0  0  0  0
  -32.5200   -9.6170   20.8250 C   0  0  0  0  0  0  0  0  0  0  0  0
  -32.5440   -8.9770   19.6310 F   0  0  0  0  0  0  0  0  0  0  0  0
  -34.6280  -11.8780   22.7990 F   0  0  0  0  0  0  0  0  0  0  0  0
  -23.8810   -8.1090   22.8020 C   0  0  0  0  0  0  0  0  0  0  0  0
  -24.9720   -8.0080   23.5550 N   0  0  0  0  0  0  0  0  0  0  0  0
  -22.9460   -7.3200   22.9280 O   0  0  0  0  0  0  0  0  0  0  0  0
  -25.7550   -8.6340   23.4240 H   0  0  0  0  0  0  0  0  0  0  0  0
  -25.0640   -7.2160   24.1750 H   0  0  0  0  0  0  0  0  0  0  0  0
  -21.3240   -9.6090   21.5480 N   0  0  0  0  0  0  0  0  0  0  0  0
  -20.9990   -8.8930   22.1880 H   0  0  0  0  0  0  0  0  0  0  0  0
  -20.5720  -10.0700   21.0530 H   0  0  0  0  0  0  0  0  0  0  0  0
  1  3  2  0
  1  2  1  0
  2  5  1  0
  4  2  1  0
  6  5  1  0
  6  7  1  0
  7  9  1  0
  8  6  2  0
 10  7  1  0
 10 11  1  0
 11 12  1  0
 11 13  2  0
 12 15  1  0
 14 12  1  0
 16 15  1  0
 17 18  1  0
 17 16  1  0
 19 18  1  0
 19 20  1  0
 21 20  1  0
 21 22  1  0
 22 23  1  0
 23 25  1  0
 24 35  2  0
 25 30  1  0
 26 36  1  0
 26 34  1  0
 27 33  1  0
 27 29  1  0
 28 34  1  0
 29 28  1  0
 30 29  2  0
 31 32  1  0
 31 25  2  0
 32 27  2  0
 33 26  1  0
 34 24  1  0
 37 39  1  0
 37 36  1  0
 38 36  2  0
 40 49  2  0
 40 45  1  0
 41 45  1  0
 41 37  1  0
 42 41  1  0
 43 42  1  0
 44 43  1  0
 44 40  1  0
 45 46  2  0
 46 47  1  0
 48 47  2  0
 49 48  1  0
 50 24  1  0
 50 55  1  0
 51 50  1  0
 51 54  1  1
 52 51  1  0
 53 51  1  0
 55 58  1  0
 55 56  1  0
 56 60  1  0
 57 56  2  0
 60 59  1  0
 60 62  1  0
 62 61  1  0
 62 63  1  0
 64  1  1  0
 65 66  1  0
 66 68  1  0
 66 64  1  0
 67 65  2  0
 69 65  1  0
 70 73  1  0
 70 71  1  0
 70 69  1  0
 72 70  1  0
 73 74  1  0
 74 75  1  0
 76 75  1  0
 76 77  1  0
 77 78  1  0
 78 79  1  0
 80 81  1  0
 80 79  1  0
 82 81  1  0
 82 83  1  0
 82 84  1  0
 85 82  1  0
 86 85  1  0
 87 86  1  0
 88 87  1  0
 89 97  1  0
 90 95  1  0
 91 90  1  0
 91 92  1  0
 93 92  1  0
 93102  1  0
 94 93  1  0
 95 89  1  0
 95 94  1  0
 96 89  2  0
 97 88  1  0
 97 98  1  0
 99124  1  0
 99100  2  0
100119  1  0
101104  1  0
101100  1  0
102 99  1  0
103102  1  0
103101  2  0
104105  1  0
105106  2  0
106107  1  0
107110  1  0
108107  2  0
109104  2  0
109108  1  0
110111  1  0
111112  1  0
112113  2  0
114118  1  0
114113  1  0
115114  2  0
116115  1  0
116111  2  0
117116  1  0
119121  2  0
119120  1  0
120123  1  0
122120  1  0
124125  1  0
126124  1  0
M  ISO  4  22 101  23 101  89 100  97 100
M  END
>  <TORSDO>  (82) 
F 46

>  <SCORE>  (82) 
57.834

>  <name>  (82) 
96

>  <ligand_id>  (82) 
96

>  <original_smiles>  (82) 
[H]c1c([H])c([H])c2c(c1[H])C([H])([H])C([H])([H])C([H])([H])C2([H])N([H])C(=O)C1([H])N(C(=O)C([H])(N([H])C(=O)C([H])(N([H])C([H])([H])[H])C([H])([H])[H])C(C([H])([H])[H])(C([H])([H])[H])C([H])([H])[H])C([H])([H])c2c([H])c(OC([H])([H])C([H])([H])C([H])([H])C([H])([H])C([H])([H])C([H])([H])C([H])([H])C([H])([H])N([H])C(=O)C([H])([H])N([H])C(=O)C([H])([H])N([H])C(=O)C([H])([H])N([H])C(=O)C([H])([H])[N+]([H])([H])C([H])([H])C([H])([H])C([H])([H])C([H])([H])OC([H])([H])C([H])([H])C([H])([H])C([H])([H])[N+]([H])([H])C([H])([H])C([H])([H])C([H])([H])C([H])([H])N([H])C(=O)N3C([H])([H])C([H])([H])C([H])([H])C([H])(n4nc(-c5c([H])c([H])c(Oc6c([H])c([H])c(F)c([H])c6F)c([H])c5[H])c(C(=O)N([H])[H])c4N([H])[H])C3([H])[H])c([H])c([H])c2C1([H])[H]

>  <smiles>  (82) 
[H]c1c([H])c([H])c2c(c1[H])C([H])([H])C([H])([H])C([H])([H])C2([H])N([H])C(=O)C1([H])N(C(=O)C([H])(N([H])C(=O)C([H])(N([H])C([H])([H])[H])C([H])([H])[H])C(C([H])([H])[H])(C([H])([H])[H])C([H])([H])[H])C([H])([H])c2c([H])c(OC([H])([H])C([H])([H])C([H])([H])C([H])([H])C([H])([H])C([H])([H])C([H])([H])C([H])([H])N([H])C(=O)C([H])([H])N([H])C(=O)C([H])([H])N([H])C(=O)C([H])([H])N([H])C(=O)C([H])([H])[N+]([H])([H])C([H])([H])C([H])([H])C([H])([H])C([H])([H])OC([H])([H])C([H])([H])C([H])([H])C([H])([H])[N+]([H])([H])C([H])([H])C([H])([H])C([H])([H])C([H])([H])N([H])C(=O)N3C([H])([H])C([H])([H])C([H])([H])C([H])(n4nc(-c5c([H])c([H])c(Oc6c([H])c([H])c(F)c([H])c6F)c([H])c5[H])c(C(=O)N([H])[H])c4N([H])[H])C3([H])[H])c([H])c([H])c2C1([H])[H]

$$$$
