0:0:0
     RDKit          3D

104107  0  0  1  0  0  0  0  0999 V2000
  -23.4500  -12.7520   23.1520 C   0  0  0  0  0  0  0  0  0  0  0  0
  -24.0290  -11.4280   23.2800 N   0  0  0  0  0  0  0  0  0  0  0  0
  -22.2430  -12.8210   23.3760 O   0  0  0  0  0  0  0  0  0  0  0  0
  -25.0270  -11.5290   23.0410 H   0  0  0  0  0  0  0  0  0  0  0  0
  -23.6220   -9.8210   23.3890 C   0  0  0  0  0  1  0  0  0  0  0  0
  -25.6770   -7.2670   22.9590 C   0  0  0  0  0  1  0  0  0  0  0  0
  -27.2800   -7.2380   22.7550 C   0  0  0  0  0  2  0  0  0  0  0  0
  -27.8820   -6.6570   21.4420 C   0  0  0  0  0  2  0  0  0  0  0  0
  -28.2630   -7.6360   20.3090 C   0  0  0  0  0  2  0  0  0  0  0  0
  -29.6200   -8.3140   20.4200 C   0  0  0  0  0  2  0  0  0  0  0  0
  -29.8830  -10.8600   20.1650 C   0  0  1  0  0  0  0  0  0  0  0  0
  -29.7590   -9.5760   19.6560 N   0  0  0  0  0  0  0  0  0  0  0  0
  -28.4190  -12.3610   21.6630 O   0  0  0  0  0 15  0  0  0  0  0  0
  -30.3750   -9.3880   18.8700 H   0  0  0  0  0  0  0  0  0  0  0  0
  -31.5840  -11.2760   19.5980 C   0  0  0  0  0  2  0  0  0  0  0  0
  -34.0100  -11.9720   21.3610 C   0  0  0  0  0  0  0  0  0  0  0  0
  -33.8950  -10.1430   22.8830 C   0  0  0  0  0  2  0  0  0  0  0  0
  -33.0760   -9.3130   21.9170 C   0  0  0  0  0  2  0  0  0  0  0  0
  -31.6920   -9.8930   22.0280 C   0  0  0  0  0  2  0  0  0  0  0  0
  -31.5890  -11.5160   22.2990 C   0  0  0  0  0  0  0  0  0  0  0  0
  -32.4520  -12.0660   23.2630 C   0  0  0  0  0  2  0  0  0  0  0  0
  -33.6020  -11.5410   22.5850 N   0  0  0  0  0  0  0  0  0  0  0  0
  -35.2040  -12.3120   21.4000 O   0  0  0  0  0  0  0  0  0  0  0  0
  -33.1310  -11.7800   20.1710 N   0  0  0  0  0  0  0  0  0  0  0  0
  -33.6580  -12.1180   19.3790 H   0  0  0  0  0  0  0  0  0  0  0  0
  -29.8780  -13.8150   20.6170 C   0  0  0  0  0  2  0  0  0  0  0  0
  -28.4700  -13.0880   19.4970 C   0  0  0  0  0  2  0  0  0  0  0  0
  -28.1650  -11.1070   19.9430 C   0  0  0  0  0  2  0  0  0  0  0  0
  -30.5400  -12.1270   21.9750 N   0  0  0  0  0  2  0  0  0  0  0  0
  -29.3830  -10.4990   21.3920 N   0  0  0  0  0  1  0  0  0  0  0  0
  -27.0180  -10.5730   20.3110 C   0  0  0  0  0  0  0  0  0  0  0  0
  -26.6490   -9.9570   21.8690 C   0  0  0  0  0  3  0  0  0  0  0  0
  -25.1370   -9.3130   22.0950 C   0  0  0  0  0  3  0  0  0  0  0  0
  -24.0730   -9.3010   20.8140 C   0  0  0  0  0  0  0  0  0  0  0  0
  -24.4640   -9.9400   19.3640 C   0  0  0  0  0  3  0  0  0  0  0  0
  -25.9330  -10.5710   19.1020 C   0  0  0  0  0  3  0  0  0  0  0  0
  -23.1830   -8.3020   20.6700 O   0  0  0  0  0  0  0  0  0  0  0  0
  -22.5480   -7.8950   21.7790 C   0  0  0  0  0  0  0  0  0  0  0  0
  -21.9220   -8.8610   22.5880 C   0  0  0  0  0  3  0  0  0  0  0  0
  -21.1750   -8.4430   23.6880 C   0  0  0  0  0  3  0  0  0  0  0  0
  -21.0550   -7.0720   23.9660 C   0  0  0  0  0  0  0  0  0  0  0  0
  -21.6970   -6.1100   23.1640 C   0  0  0  0  0  3  0  0  0  0  0  0
  -22.4550   -6.5210   22.0580 C   0  0  0  0  0  0  0  0  0  0  0  0
  -23.0620   -5.6040   21.2590 F   0  0  0  0  0  0  0  0  0  0  0  0
  -20.3050   -6.6840   25.0150 F   0  0  0  0  0  0  0  0  0  0  0  0
  -27.3520  -13.9010   18.9420 C   0  0  0  0  0  0  0  0  0  0  0  0
  -26.0950  -13.6250   19.2440 N   0  0  0  0  0  0  0  0  0  0  0  0
  -27.5940  -14.8430   18.2300 O   0  0  0  0  0  0  0  0  0  0  0  0
  -25.9170  -12.9350   19.9670 H   0  0  0  0  0  0  0  0  0  0  0  0
  -25.3600  -14.2330   18.9220 H   0  0  0  0  0  0  0  0  0  0  0  0
  -30.6840  -14.8480   20.2640 N   0  0  0  0  0  0  0  0  0  0  0  0
  -30.3950  -15.5990   19.6500 H   0  0  0  0  0  0  0  0  0  0  0  0
  -31.5210  -15.0700   20.7840 H   0  0  0  0  0  0  0  0  0  0  0  0
  -24.1830  -14.2370   22.7180 C   0  0  0  0  0  3  0  0  0  0  0  0
  -24.4690  -15.0050   21.1680 C   0  0  0  0  0  3  0  0  0  0  0  0
  -25.4400  -16.4070   20.7190 C   0  0  0  0  0  2  0  0  0  0  0  0
  -26.3840  -16.7410   19.2700 C   0  0  0  0  0  3  0  0  0  0  0  0
  -27.5250  -18.0160   18.8600 C   0  0  0  0  0  3  0  0  0  0  0  0
  -28.4670  -18.1250   17.5260 N   0  0  0  0  0  4  0  0  0  0  0  0
  -27.8240  -18.1290   16.7510 H   0  0  0  0  0  0  0  0  0  0  0  0
  -28.9430  -17.2370   17.4760 H   0  0  0  0  0  0  0  0  0  0  0  0
  -29.6210  -19.2340   17.1690 C   0  0  0  0  0  3  0  0  0  0  0  0
  -30.6930  -19.2370   15.7740 C   0  0  0  0  0  3  0  0  0  0  0  0
  -32.0720  -19.9990   15.3530 O   0  0  0  0  0  0  0  0  0  0  0  0
  -32.5440  -24.3340    9.5210 C   0  0  0  0  0  0  0  0  0  0  0  0
  -32.4480  -20.1030   13.9550 C   0  0  0  0  0  0  0  0  0  0  0  0
  -31.6930  -22.0410    9.2510 C   0  0  0  0  0  3  0  0  0  0  0  0
  -32.3320  -20.3560   11.0770 C   0  0  0  0  0  0  0  0  0  0  0  0
  -33.5380  -22.5250   10.9780 C   0  0  0  0  0  2  0  0  0  0  0  0
  -33.0160  -21.3390   11.8080 C   0  0  0  0  0  0  0  0  0  0  0  0
  -33.0980  -21.2050   13.2510 C   0  0  0  0  0  3  0  0  0  0  0  0
  -31.9850  -19.0680   13.1270 C   0  0  0  0  0  3  0  0  0  0  0  0
  -31.8750  -19.2050   11.7300 C   0  0  0  0  0  3  0  0  0  0  0  0
  -32.0900  -20.5820    9.5930 C   0  0  0  0  0  2  0  0  0  0  0  0
  -32.5990  -23.0280    9.9180 N   0  0  0  0  0  0  0  0  0  0  0  0
  -31.7680  -24.7100    8.6270 O   0  0  0  0  0  0  0  0  0  0  0  0
  -30.1950  -22.2780    9.5900 C   0  0  0  0  0  0  0  0  0  0  0  0
  -29.2870  -21.9490    8.6510 N   0  0  0  0  0  0  0  0  0  0  0  0
  -29.8700  -22.7350   10.6880 O   0  0  0  0  0  0  0  0  0  0  0  0
  -29.6320  -21.5860    7.7720 H   0  0  0  0  0  0  0  0  0  0  0  0
  -26.1430  -21.5490    6.8930 C   0  0  0  0  0  0  0  0  0  0  0  0
  -27.8320  -22.0570    8.7860 C   0  0  0  0  0  3  0  0  0  0  0  0
  -27.2450  -20.8180    9.4980 C   0  0  0  0  0  2  0  0  0  0  0  0
  -26.7800  -19.7230    8.5300 C   0  0  0  0  0  2  0  0  0  0  0  0
  -25.7040  -20.2680    7.5860 C   0  0  0  0  0  2  0  0  0  0  0  0
  -27.1530  -22.3780    7.4500 C   0  0  0  0  0  0  0  0  0  0  0  0
  -27.5470  -23.5390    6.7520 C   0  0  0  0  0  3  0  0  0  0  0  0
  -26.9550  -23.8770    5.5210 C   0  0  0  0  0  3  0  0  0  0  0  0
  -25.9450  -23.0620    4.9810 C   0  0  0  0  0  3  0  0  0  0  0  0
  -25.5390  -21.9040    5.6670 C   0  0  0  0  0  3  0  0  0  0  0  0
  -33.4710  -25.4170   10.1480 C   0  0  0  0  0  3  0  0  0  0  0  0
  -32.7570  -26.2710   11.2680 C   0  0  1  0  0  0  0  0  0  0  0  0
  -31.4070  -26.8800   10.8230 C   0  0  0  0  0  1  0  0  0  0  0  0
  -32.4900  -25.4240   12.5310 C   0  0  0  0  0  1  0  0  0  0  0  0
  -33.6780  -27.4350   11.7010 C   0  0  0  0  0  1  0  0  0  0  0  0
  -33.9360  -26.2920    9.0600 N   0  0  0  0  0  0  0  0  0  0  0  0
  -35.1270  -26.2000    8.4560 C   0  0  0  0  0  0  0  0  0  0  0  0
  -35.9940  -25.3980    8.8140 O   0  0  0  0  0  0  0  0  0  0  0  0
  -33.2550  -26.9350    8.6860 H   0  0  0  0  0  0  0  0  0  0  0  0
  -35.2080  -26.4010    5.9500 C   0  0  0  0  0  1  0  0  0  0  0  0
  -35.4070  -27.1500    7.2770 C   0  0  0  0  0  3  0  0  0  0  0  0
  -36.9480  -28.6940    8.4050 C   0  0  0  0  0  1  0  0  0  0  0  0
  -36.7600  -27.7490    7.3070 N   0  0  0  0  0  0  0  0  0  0  0  0
  -36.9590  -28.2370    6.4350 H   0  0  0  0  0  0  0  0  0  0  0  0
  1  2  1  0
  1  3  2  0
  2  5  1  0
  4  2  1  0
  7  6  1  0
  8  7  1  0
  9 10  1  0
  9  8  1  0
 11 30  1  1
 12 11  1  0
 12 10  1  0
 14 12  1  0
 15 11  1  0
 15 24  1  0
 16 23  2  0
 16 22  1  0
 18 19  1  0
 18 17  1  0
 19 20  1  0
 20 21  1  0
 22 17  1  0
 22 21  1  0
 24 16  1  0
 25 24  1  0
 27 26  1  0
 28 11  1  0
 28 31  1  0
 29 20  2  0
 31 32  1  0
 32 33  2  0
 34 33  1  0
 35 34  2  0
 36 35  1  0
 36 31  2  0
 37 34  1  0
 37 38  1  0
 38 43  2  0
 38 39  1  0
 39 40  2  0
 40 41  1  0
 41 45  1  0
 42 41  2  0
 43 42  1  0
 44 43  1  0
 46 47  1  0
 46 27  1  0
 47 49  1  0
 48 46  2  0
 50 47  1  0
 51 26  1  0
 51 53  1  0
 52 51  1  0
 54  1  1  0
 55 54  2  0
 56 55  1  0
 57 56  1  0
 58 57  2  0
 59 58  1  0
 60 59  1  0
 61 59  1  0
 62 59  1  0
 63 62  2  0
 64 63  1  0
 65 75  1  0
 66 64  1  0
 67 77  1  0
 67 74  1  0
 67 75  1  0
 68 73  2  0
 68 70  1  0
 69 70  1  0
 70 71  2  0
 71 66  1  0
 72 66  2  0
 73 72  1  0
 74 68  1  0
 75 69  1  0
 76 65  2  0
 77 79  2  0
 78 77  1  0
 80 78  1  0
 81 86  1  0
 81 85  1  0
 82 78  1  0
 82 83  1  0
 84 83  1  0
 85 84  1  0
 86 82  1  0
 87 86  2  0
 88 87  1  0
 89 88  2  0
 89 90  1  0
 90 81  2  0
 91 65  1  0
 91 92  1  0
 92 95  1  1
 92 94  1  0
 93 92  1  0
 96 91  1  0
 97 98  2  0
 97 96  1  0
 99 96  1  0
101100  1  0
101103  1  0
101 97  1  0
103102  1  0
104103  1  0
M  ISO  4  16 100  24 100  63 101  64 101
M  END
>  <TORSDO>  (1) 
F 32

>  <SCORE>  (1) 
11.406

>  <name>  (1) 
0

>  <ligand_id>  (1) 
0

>  <original_smiles>  (1) 
[H]c1c([H])c([H])c2c(c1[H])C([H])([H])C([H])([H])C([H])([H])C2([H])N([H])C(=O)C1([H])N(C(=O)C([H])(N([H])C(=O)C([H])(N([H])C([H])([H])[H])C([H])([H])[H])C(C([H])([H])[H])(C([H])([H])[H])C([H])([H])[H])C([H])([H])c2c([H])c(OC([H])([H])C([H])([H])[N+]([H])([H])C([H])([H])C([H])([H])C([H])([H])C([H])([H])C([H])([H])C(=O)N([H])C([H])([H])C([H])([H])C([H])([H])C([H])([H])C([H])([H])C([H])([H])N([H])C(=O)C([H])([H])N([H])C(=O)N3C([H])([H])C([H])([H])C([H])([H])C([H])(n4nc(-c5c([H])c([H])c(Oc6c([H])c([H])c(F)c([H])c6F)c([H])c5[H])c(C(=O)N([H])[H])c4N([H])[H])C3([H])[H])c([H])c([H])c2C1([H])[H]

>  <smiles>  (1) 
[H]c1c([H])c([H])c2c(c1[H])C([H])([H])C([H])([H])C([H])([H])C2([H])N([H])C(=O)C1([H])N(C(=O)C([H])(N([H])C(=O)C([H])(N([H])C([H])([H])[H])C([H])([H])[H])C(C([H])([H])[H])(C([H])([H])[H])C([H])([H])[H])C([H])([H])c2c([H])c(OC([H])([H])C([H])([H])[N+]([H])([H])C([H])([H])C([H])([H])C([H])([H])C([H])([H])C([H])([H])C(=O)N([H])C([H])([H])C([H])([H])C([H])([H])C([H])([H])C([H])([H])C([H])([H])N([H])C(=O)C([H])([H])N([H])C(=O)N3C([H])([H])C([H])([H])C([H])([H])C([H])(n4nc(-c5c([H])c([H])c(Oc6c([H])c([H])c(F)c([H])c6F)c([H])c5[H])c(C(=O)N([H])[H])c4N([H])[H])C3([H])[H])c([H])c([H])c2C1([H])[H]

$$$$
1:0:0
     RDKit          3D

 96103  0  0  1  0  0  0  0  0999 V2000
  -27.0670  -21.6320   21.0330 C   0  0  0  0  0  2  0  0  0  0  0  0
  -28.3900  -20.8850   20.7830 C   0  0  0  0  0  2  0  0  0  0  0  0
  -28.3900  -20.1480   19.4320 C   0  0  0  0  0  2  0  0  0  0  0  0
  -29.0400  -18.7490   19.4540 C   0  0  0  0  0  2  0  0  0  0  0  0
  -30.5060  -18.6990   19.0190 C   0  0  0  0  0  0  0  0  0  0  0  0
  -31.2600  -17.7670   19.6120 N   0  0  0  0  0  0  0  0  0  0  0  0
  -30.9540  -19.4660   18.1650 O   0  0  0  0  0  0  0  0  0  0  0  0
  -30.8220  -17.1920   20.3190 H   0  0  0  0  0  0  0  0  0  0  0  0
  -32.6680  -17.5160   19.3210 C   0  0  0  0  0  2  0  0  0  0  0  0
  -32.8620  -16.1750   18.5940 C   0  0  0  0  0  2  0  0  0  0  0  0
  -32.5820  -13.8140   19.2850 C   0  0  0  0  0  0  0  0  0  0  0  0
  -32.4700  -11.7210   20.5750 C   0  0  0  0  0  2  0  0  0  0  0  0
  -31.6750  -10.6090   19.8750 C   0  0  0  0  0  2  0  0  0  0  0  0
  -30.1770  -10.7270   20.2030 C   0  0  0  0  0  2  0  0  0  0  0  0
  -29.6310  -12.1560   19.9560 C   0  0  0  0  0  3  0  0  0  0  0  0
  -30.5360  -13.2200   20.6200 C   0  0  0  0  0  2  0  0  0  0  0  0
  -31.9270  -13.0240   20.1670 N   0  0  0  0  0  0  0  0  0  0  0  0
  -33.5540  -13.4500   18.6160 O   0  0  0  0  0  0  0  0  0  0  0  0
  -32.2140  -15.0950   19.3270 N   0  0  0  0  0  0  0  0  0  0  0  0
  -31.4700  -15.3390   19.9620 H   0  0  0  0  0  0  0  0  0  0  0  0
  -27.4980  -13.4120   20.6760 C   0  0  0  0  0  0  0  0  0  0  0  0
  -26.2380  -12.9720   20.9810 C   0  0  0  0  0  0  0  0  0  0  0  0
  -26.2770  -11.5490   20.8660 C   0  0  0  0  0  0  0  0  0  0  0  0
  -28.2430  -12.2750   20.4010 N   0  0  0  0  0  0  0  0  0  0  0  0
  -27.5070  -11.1460   20.5710 N   0  0  0  0  0  0  0  0  0  0  0  0
  -25.2040  -10.5510   20.9650 C   0  0  0  0  0  0  0  0  0  0  0  0
  -25.2560   -9.5000   21.9090 C   0  0  0  0  0  3  0  0  0  0  0  0
  -24.2040   -8.5640   21.9950 C   0  0  0  0  0  3  0  0  0  0  0  0
  -23.0830   -8.6740   21.1390 C   0  0  0  0  0  0  0  0  0  0  0  0
  -23.0470   -9.7090   20.1860 C   0  0  0  0  0  3  0  0  0  0  0  0
  -24.0970  -10.6370   20.0960 C   0  0  0  0  0  3  0  0  0  0  0  0
  -22.0250   -7.7960   21.1350 O   0  0  0  0  0  0  0  0  0  0  0  0
  -21.6170   -7.1580   22.2780 C   0  0  0  0  0  0  0  0  0  0  0  0
  -21.1950   -7.8720   23.4210 C   0  0  0  0  0  3  0  0  0  0  0  0
  -20.7150   -7.1780   24.5480 C   0  0  0  0  0  3  0  0  0  0  0  0
  -20.6480   -5.7720   24.5340 C   0  0  0  0  0  0  0  0  0  0  0  0
  -21.0610   -5.0590   23.3960 C   0  0  0  0  0  3  0  0  0  0  0  0
  -21.5410   -5.7500   22.2710 C   0  0  0  0  0  0  0  0  0  0  0  0
  -21.9190   -5.0590   21.1680 F   0  0  0  0  0  0  0  0  0  0  0  0
  -20.1800   -5.1040   25.6150 F   0  0  0  0  0  0  0  0  0  0  0  0
  -25.0370  -13.8270   21.2710 C   0  0  0  0  0  0  0  0  0  0  0  0
  -24.1350  -13.3490   22.1210 N   0  0  0  0  0  0  0  0  0  0  0  0
  -24.9160  -14.9480   20.7800 O   0  0  0  0  0  0  0  0  0  0  0  0
  -24.2430  -12.4360   22.5390 H   0  0  0  0  0  0  0  0  0  0  0  0
  -23.3260  -13.9040   22.3590 H   0  0  0  0  0  0  0  0  0  0  0  0
  -28.0680  -14.6780   20.5910 N   0  0  0  0  0  0  0  0  0  0  0  0
  -27.5280  -15.5260   20.7280 H   0  0  0  0  0  0  0  0  0  0  0  0
  -29.0210  -14.8590   20.3010 H   0  0  0  0  0  0  0  0  0  0  0  0
  -27.2360  -22.9010   21.8870 C   0  0  0  0  0  2  0  0  0  0  0  0
  -28.2030  -23.8440   21.2920 N   0  0  0  0  0  4  0  0  0  0  0  0
  -28.9970  -23.3260   20.9530 H   0  0  0  0  0  0  0  0  0  0  0  0
  -28.5330  -24.4530   22.0250 H   0  0  0  0  0  0  0  0  0  0  0  0
  -27.6510  -24.6930   20.2160 C   0  0  0  0  0  2  0  0  0  0  0  0
  -28.7550  -25.2320   19.2950 C   0  0  0  0  0  2  0  0  0  0  0  0
  -28.2840  -26.3130   18.3150 C   0  0  0  0  0  2  0  0  0  0  0  0
  -28.1400  -27.5460   19.0130 O   0  0  0  0  0  0  0  0  0  0  0  0
  -24.5040  -31.8820   23.2830 C   0  0  0  0  0  0  0  0  0  0  0  0
  -26.9060  -28.1090   19.2610 C   0  0  0  0  0  0  0  0  0  0  0  0
  -23.1540  -30.6910   21.5870 C   0  0  0  0  0  3  0  0  0  0  0  0
  -24.4730  -29.4500   19.7960 C   0  0  0  0  0  0  0  0  0  0  0  0
  -25.6230  -31.2020   21.1600 C   0  0  0  0  0  2  0  0  0  0  0  0
  -25.6730  -29.9400   20.3230 C   0  0  0  0  0  0  0  0  0  0  0  0
  -26.8860  -29.2730   20.0570 C   0  0  0  0  0  3  0  0  0  0  0  0
  -25.6800  -27.6120   18.7520 C   0  0  0  0  0  3  0  0  0  0  0  0
  -24.4710  -28.2810   19.0140 C   0  0  0  0  0  3  0  0  0  0  0  0
  -23.2180  -30.2310   20.1060 C   0  0  0  0  0  2  0  0  0  0  0  0
  -24.4540  -31.2620   22.0700 N   0  0  0  0  0  0  0  0  0  0  0  0
  -23.4840  -32.0210   23.9740 O   0  0  0  0  0  0  0  0  0  0  0  0
  -22.6470  -29.5090   22.4450 C   0  0  0  0  0  0  0  0  0  0  0  0
  -21.3470  -29.1980   22.3190 N   0  0  0  0  0  0  0  0  0  0  0  0
  -23.4160  -28.8810   23.1760 O   0  0  0  0  0  0  0  0  0  0  0  0
  -20.7820  -29.7690   21.7060 H   0  0  0  0  0  0  0  0  0  0  0  0
  -18.1790  -27.4830   22.5890 C   0  0  0  0  0  0  0  0  0  0  0  0
  -20.6560  -28.1000   22.9940 C   0  0  0  0  0  3  0  0  0  0  0  0
  -20.9960  -26.7410   22.3410 C   0  0  0  0  0  2  0  0  0  0  0  0
  -19.9930  -26.3240   21.2590 C   0  0  0  0  0  2  0  0  0  0  0  0
  -18.5830  -26.2210   21.8470 C   0  0  0  0  0  2  0  0  0  0  0  0
  -19.1530  -28.3720   23.1150 C   0  0  0  0  0  0  0  0  0  0  0  0
  -18.7240  -29.5480   23.7680 C   0  0  0  0  0  3  0  0  0  0  0  0
  -17.3540  -29.8400   23.9000 C   0  0  0  0  0  3  0  0  0  0  0  0
  -16.3930  -28.9470   23.3930 C   0  0  0  0  0  3  0  0  0  0  0  0
  -16.8070  -27.7700   22.7440 C   0  0  0  0  0  3  0  0  0  0  0  0
  -25.8350  -32.4680   23.8500 C   0  0  0  0  0  3  0  0  0  0  0  0
  -25.5660  -33.8450   24.2830 N   0  0  0  0  0  0  0  0  0  0  0  0
  -25.8920  -34.9380   23.5800 C   0  0  0  0  0  0  0  0  0  0  0  0
  -26.5210  -34.8890   22.5180 O   0  0  0  0  0  0  0  0  0  0  0  0
  -25.0020  -33.9570   25.1110 H   0  0  0  0  0  0  0  0  0  0  0  0
  -24.1820  -36.7750   23.4030 C   0  0  0  0  0  1  0  0  0  0  0  0
  -25.4450  -36.3030   24.1410 C   0  0  0  0  0  3  0  0  0  0  0  0
  -27.6260  -37.0970   24.9420 C   0  0  0  0  0  1  0  0  0  0  0  0
  -26.4930  -37.3430   24.0540 N   0  0  0  0  0  0  0  0  0  0  0  0
  -26.1110  -38.2600   24.2720 H   0  0  0  0  0  0  0  0  0  0  0  0
  -26.4310  -31.6150   25.0360 C   0  0  1  0  0  0  0  0  0  0  0  0
  -25.4130  -31.3240   26.1620 C   0  0  0  0  0  1  0  0  0  0  0  0
  -26.9630  -30.2590   24.5140 C   0  0  0  0  0  1  0  0  0  0  0  0
  -27.6420  -32.3540   25.6560 C   0  0  0  0  0  1  0  0  0  0  0  0
  1 49  1  0
  2  1  1  0
  3  4  1  0
  3  2  1  0
  5  4  1  0
  5  6  1  0
  6  8  1  0
  7  5  2  0
  9  6  1  0
 10  9  1  0
 10 19  1  0
 11 19  1  0
 11 17  1  0
 13 14  1  0
 13 12  1  0
 15 14  1  0
 15 24  1  0
 15 16  1  0
 17 12  1  0
 17 16  1  0
 18 11  2  0
 19 20  1  0
 21 22  2  0
 22 41  1  0
 23 26  1  0
 23 22  1  0
 24 25  1  0
 24 21  1  0
 25 23  2  0
 26 27  1  0
 27 28  2  0
 29 28  1  0
 30 29  2  0
 31 30  1  0
 31 26  2  0
 32 29  1  0
 32 33  1  0
 33 34  1  0
 34 35  2  0
 36 35  1  0
 36 40  1  0
 37 36  2  0
 38 33  2  0
 38 37  1  0
 39 38  1  0
 41 42  1  0
 42 45  1  0
 42 44  1  0
 43 41  2  0
 46 21  1  0
 46 47  1  0
 48 46  1  0
 50 49  1  0
 50 52  1  0
 51 50  1  0
 53 50  1  0
 54 53  1  0
 55 56  1  0
 55 54  1  0
 56 58  1  0
 57 68  2  0
 58 63  1  0
 59 67  1  0
 59 69  1  0
 60 66  1  0
 60 62  1  0
 61 67  1  0
 62 61  1  0
 63 62  2  0
 64 65  1  0
 64 58  2  0
 65 60  2  0
 66 59  1  0
 67 57  1  0
 69 71  2  0
 70 69  1  0
 72 70  1  0
 73 82  2  0
 73 78  1  0
 74 70  1  0
 74 78  1  0
 75 74  1  0
 76 77  1  0
 76 75  1  0
 77 73  1  0
 78 79  2  0
 79 80  1  0
 81 80  2  0
 82 81  1  0
 83 57  1  0
 83 84  1  0
 83 93  1  0
 84 87  1  0
 85 89  1  0
 85 84  1  0
 86 85  2  0
 89 88  1  0
 91 89  1  0
 91 92  1  0
 91 90  1  0
 93 96  1  1
 93 94  1  0
 95 93  1  0
M  ISO  4  11 100  19 100  55 101  56 101
M  END
>  <TORSDO>  (2) 
F 27

>  <SCORE>  (2) 
-8.895

>  <name>  (2) 
1

>  <ligand_id>  (2) 
1

>  <original_smiles>  (2) 
[H]c1c([H])c([H])c2c(c1[H])C([H])([H])C([H])([H])C([H])([H])C2([H])N([H])C(=O)C1([H])N(C(=O)C([H])(N([H])C(=O)C([H])(N([H])C([H])([H])[H])C([H])([H])[H])C(C([H])([H])[H])(C([H])([H])[H])C([H])([H])[H])C([H])([H])c2c([H])c(OC([H])([H])C([H])([H])C([H])([H])[N+]([H])([H])C([H])([H])C([H])([H])C([H])([H])C([H])([H])C([H])([H])C(=O)N([H])C([H])([H])C([H])([H])N([H])C(=O)N3C([H])([H])C([H])([H])C([H])([H])C([H])(n4nc(-c5c([H])c([H])c(Oc6c([H])c([H])c(F)c([H])c6F)c([H])c5[H])c(C(=O)N([H])[H])c4N([H])[H])C3([H])[H])c([H])c([H])c2C1([H])[H]

>  <smiles>  (2) 
[H]c1c([H])c([H])c2c(c1[H])C([H])([H])C([H])([H])C([H])([H])C2([H])N([H])C(=O)C1([H])N(C(=O)C([H])(N([H])C(=O)C([H])(N([H])C([H])([H])[H])C([H])([H])[H])C(C([H])([H])[H])(C([H])([H])[H])C([H])([H])[H])C([H])([H])c2c([H])c(OC([H])([H])C([H])([H])C([H])([H])[N+]([H])([H])C([H])([H])C([H])([H])C([H])([H])C([H])([H])C([H])([H])C(=O)N([H])C([H])([H])C([H])([H])N([H])C(=O)N3C([H])([H])C([H])([H])C([H])([H])C([H])(n4nc(-c5c([H])c([H])c(Oc6c([H])c([H])c(F)c([H])c6F)c([H])c5[H])c(C(=O)N([H])[H])c4N([H])[H])C3([H])[H])c([H])c([H])c2C1([H])[H]

$$$$
2:0:0
     RDKit          3D

107114  0  0  1  0  0  0  0  0999 V2000
  -24.5670  -19.5080   17.1940 C   0  0  0  0  0  2  0  0  0  0  0  0
  -23.7570  -18.2760   17.2930 N   0  0  0  0  0  4  0  0  0  0  0  0
  -23.4250  -18.0090   16.3800 H   0  0  0  0  0  0  0  0  0  0  0  0
  -22.9450  -18.4730   17.8580 H   0  0  0  0  0  0  0  0  0  0  0  0
  -24.4790  -17.1290   17.8970 C   0  0  0  0  0  2  0  0  0  0  0  0
  -25.9340  -16.9640   17.3780 C   0  0  0  0  0  2  0  0  0  0  0  0
  -27.0530  -17.2550   18.4080 C   0  0  0  0  0  2  0  0  0  0  0  0
  -28.1680  -19.3260   19.2230 C   0  0  0  0  0  0  0  0  0  0  0  0
  -27.0630  -18.6290   18.9150 N   0  0  0  0  0  0  0  0  0  0  0  0
  -29.3030  -18.8990   19.0180 O   0  0  0  0  0  0  0  0  0  0  0  0
  -26.1810  -19.1110   18.9930 H   0  0  0  0  0  0  0  0  0  0  0  0
  -27.9690  -20.7220   19.8260 C   0  0  0  0  0  2  0  0  0  0  0  0
  -29.0530  -21.1750   20.8360 C   0  0  0  0  0  2  0  0  0  0  0  0
  -29.4220  -20.1550   21.9300 C   0  0  0  0  0  2  0  0  0  0  0  0
  -30.8050  -20.3780   22.5930 C   0  0  0  0  0  2  0  0  0  0  0  0
  -32.0400  -19.8210   21.8570 C   0  0  0  0  0  2  0  0  0  0  0  0
  -32.6960  -17.6930   20.7800 C   0  0  0  0  0  0  0  0  0  0  0  0
  -32.5320  -15.9860   19.0260 C   0  0  0  0  0  2  0  0  0  0  0  0
  -31.4920  -16.4920   18.0130 C   0  0  0  0  0  2  0  0  0  0  0  0
  -30.0660  -16.0630   18.4250 C   0  0  0  0  0  2  0  0  0  0  0  0
  -29.7450  -16.3530   19.9190 C   0  0  0  0  0  3  0  0  0  0  0  0
  -30.9120  -15.9200   20.8370 C   0  0  0  0  0  2  0  0  0  0  0  0
  -32.1540  -16.5320   20.3320 N   0  0  0  0  0  0  0  0  0  0  0  0
  -33.7500  -18.1680   20.3560 O   0  0  0  0  0  0  0  0  0  0  0  0
  -31.8960  -18.3960   21.5790 N   0  0  0  0  0  0  0  0  0  0  0  0
  -31.0360  -17.9450   21.8520 H   0  0  0  0  0  0  0  0  0  0  0  0
  -27.2680  -16.3800   20.6260 C   0  0  0  0  0  0  0  0  0  0  0  0
  -26.3820  -15.3660   20.8790 C   0  0  0  0  0  0  0  0  0  0  0  0
  -27.1200  -14.1510   20.7200 C   0  0  0  0  0  0  0  0  0  0  0  0
  -28.4750  -15.7620   20.3290 N   0  0  0  0  0  0  0  0  0  0  0  0
  -28.3880  -14.4130   20.4370 N   0  0  0  0  0  0  0  0  0  0  0  0
  -26.6790  -12.7510   20.7580 C   0  0  0  0  0  0  0  0  0  0  0  0
  -27.0560  -11.8770   21.8020 C   0  0  0  0  0  3  0  0  0  0  0  0
  -26.6030  -10.5410   21.8150 C   0  0  0  0  0  3  0  0  0  0  0  0
  -25.7610  -10.0660   20.7800 C   0  0  0  0  0  0  0  0  0  0  0  0
  -25.4120  -10.9330   19.7310 C   0  0  0  0  0  3  0  0  0  0  0  0
  -25.8670  -12.2620   19.7190 C   0  0  0  0  0  3  0  0  0  0  0  0
  -25.2930   -8.7770   20.6960 O   0  0  0  0  0  0  0  0  0  0  0  0
  -24.5180   -8.2270   21.6860 C   0  0  0  0  0  0  0  0  0  0  0  0
  -23.3610   -8.8780   22.1730 C   0  0  0  0  0  3  0  0  0  0  0  0
  -22.5660   -8.2560   23.1550 C   0  0  0  0  0  3  0  0  0  0  0  0
  -22.9080   -6.9750   23.6300 C   0  0  0  0  0  0  0  0  0  0  0  0
  -24.0430   -6.3170   23.1310 C   0  0  0  0  0  3  0  0  0  0  0  0
  -24.8480   -6.9420   22.1610 C   0  0  0  0  0  0  0  0  0  0  0  0
  -25.9350   -6.2980   21.6700 F   0  0  0  0  0  0  0  0  0  0  0  0
  -22.1340   -6.3700   24.5590 F   0  0  0  0  0  0  0  0  0  0  0  0
  -24.9130  -15.5090   21.1670 C   0  0  0  0  0  0  0  0  0  0  0  0
  -24.3510  -14.6060   21.9620 N   0  0  0  0  0  0  0  0  0  0  0  0
  -24.2640  -16.4580   20.7260 O   0  0  0  0  0  0  0  0  0  0  0  0
  -24.8800  -13.8350   22.3420 H   0  0  0  0  0  0  0  0  0  0  0  0
  -23.3750  -14.6930   22.2110 H   0  0  0  0  0  0  0  0  0  0  0  0
  -27.1420  -17.7670   20.6070 N   0  0  0  0  0  0  0  0  0  0  0  0
  -26.2710  -18.2360   20.8310 H   0  0  0  0  0  0  0  0  0  0  0  0
  -27.9090  -18.4140   20.4800 H   0  0  0  0  0  0  0  0  0  0  0  0
  -23.7310  -20.7950   17.1190 C   0  0  0  0  0  2  0  0  0  0  0  0
  -24.6130  -22.0400   17.3090 C   0  0  0  0  0  2  0  0  0  0  0  0
  -23.8320  -23.3590   17.2660 C   0  0  0  0  0  2  0  0  0  0  0  0
  -24.7640  -24.5640   17.0700 C   0  0  0  0  0  2  0  0  0  0  0  0
  -23.9960  -25.8620   16.7690 C   0  0  0  0  0  2  0  0  0  0  0  0
  -24.8070  -26.8740   15.9410 C   0  0  0  0  0  2  0  0  0  0  0  0
  -27.0500  -27.8620   16.4290 C   0  0  0  0  0  0  0  0  0  0  0  0
  -26.2370  -26.8160   16.2340 N   0  0  0  0  0  0  0  0  0  0  0  0
  -26.6530  -29.0280   16.4360 O   0  0  0  0  0  0  0  0  0  0  0  0
  -26.6630  -25.8990   16.2150 H   0  0  0  0  0  0  0  0  0  0  0  0
  -28.5410  -27.5400   16.5970 C   0  0  0  0  0  2  0  0  0  0  0  0
  -29.1660  -27.9990   17.9320 C   0  0  0  0  0  2  0  0  0  0  0  0
  -28.5020  -27.3800   19.0320 O   0  0  0  0  0  0  0  0  0  0  0  0
  -24.3760  -31.3360   23.2840 C   0  0  0  0  0  0  0  0  0  0  0  0
  -27.2620  -27.8900   19.3060 C   0  0  0  0  0  0  0  0  0  0  0  0
  -23.2030  -29.9880   21.5690 C   0  0  0  0  0  3  0  0  0  0  0  0
  -24.6880  -28.9170   19.7990 C   0  0  0  0  0  0  0  0  0  0  0  0
  -25.5960  -30.7950   21.1830 C   0  0  0  0  0  2  0  0  0  0  0  0
  -25.8120  -29.5560   20.3410 C   0  0  0  0  0  0  0  0  0  0  0  0
  -27.1040  -29.0470   20.0980 C   0  0  0  0  0  3  0  0  0  0  0  0
  -26.1260  -27.2370   18.7880 C   0  0  0  0  0  3  0  0  0  0  0  0
  -24.8390  -27.7520   19.0250 C   0  0  0  0  0  3  0  0  0  0  0  0
  -23.3450  -29.5430   20.0880 C   0  0  0  0  0  2  0  0  0  0  0  0
  -24.4130  -30.7150   22.0710 N   0  0  0  0  0  0  0  0  0  0  0  0
  -23.3420  -31.3470   23.9640 O   0  0  0  0  0  0  0  0  0  0  0  0
  -22.8370  -28.7520   22.4230 C   0  0  0  0  0  0  0  0  0  0  0  0
  -21.6740  -28.1460   22.1280 N   0  0  0  0  0  0  0  0  0  0  0  0
  -23.6000  -28.3410   23.3020 O   0  0  0  0  0  0  0  0  0  0  0  0
  -21.1040  -28.5470   21.3970 H   0  0  0  0  0  0  0  0  0  0  0  0
  -19.0480  -25.6740   21.9500 C   0  0  0  0  0  0  0  0  0  0  0  0
  -21.1410  -26.9460   22.7750 C   0  0  0  0  0  3  0  0  0  0  0  0
  -21.9420  -25.6890   22.3620 C   0  0  0  0  0  2  0  0  0  0  0  0
  -21.3430  -24.9630   21.1540 C   0  0  0  0  0  2  0  0  0  0  0  0
  -19.9050  -24.5250   21.4490 C   0  0  0  0  0  2  0  0  0  0  0  0
  -19.6290  -26.8190   22.5570 C   0  0  0  0  0  0  0  0  0  0  0  0
  -18.7890  -27.8750   22.9700 C   0  0  0  0  0  3  0  0  0  0  0  0
  -17.3950  -27.7990   22.7910 C   0  0  0  0  0  3  0  0  0  0  0  0
  -16.8230  -26.6560   22.2050 C   0  0  0  0  0  3  0  0  0  0  0  0
  -17.6490  -25.5960   21.7880 C   0  0  0  0  0  3  0  0  0  0  0  0
  -25.6190  -32.0830   23.8610 C   0  0  0  0  0  3  0  0  0  0  0  0
  -25.1680  -33.4040   24.3170 N   0  0  0  0  0  0  0  0  0  0  0  0
  -25.3060  -34.5370   23.6150 C   0  0  0  0  0  0  0  0  0  0  0  0
  -25.8970  -34.5900   22.5340 O   0  0  0  0  0  0  0  0  0  0  0  0
  -24.6320  -33.4280   25.1720 H   0  0  0  0  0  0  0  0  0  0  0  0
  -23.3380  -36.0960   23.5220 C   0  0  0  0  0  1  0  0  0  0  0  0
  -24.6840  -35.8160   24.2090 C   0  0  0  0  0  3  0  0  0  0  0  0
  -26.7560  -36.9140   24.9370 C   0  0  0  0  0  1  0  0  0  0  0  0
  -25.5610  -37.0030   24.1010 N   0  0  0  0  0  0  0  0  0  0  0  0
  -25.0570  -37.8460   24.3630 H   0  0  0  0  0  0  0  0  0  0  0  0
  -26.3290  -31.2980   25.0310 C   0  0  1  0  0  0  0  0  0  0  0  0
  -25.3550  -30.7600   26.1040 C   0  0  0  0  0  1  0  0  0  0  0  0
  -27.1250  -30.0930   24.4750 C   0  0  0  0  0  1  0  0  0  0  0  0
  -27.3560  -32.2180   25.7330 C   0  0  0  0  0  1  0  0  0  0  0  0
  1  2  1  0
  2  4  1  0
  2  5  1  0
  3  2  1  0
  6  5  1  0
  6  7  1  0
  7  9  1  0
  8 12  1  0
  9 11  1  0
  9  8  1  0
 10  8  2  0
 12 13  1  0
 13 14  1  0
 14 15  1  0
 16 15  1  0
 17 25  1  0
 18 23  1  0
 19 20  1  0
 19 18  1  0
 21 20  1  0
 21 30  1  0
 21 22  1  0
 23 17  1  0
 23 22  1  0
 24 17  2  0
 25 26  1  0
 25 16  1  0
 27 28  2  0
 28 47  1  0
 29 32  1  0
 29 28  1  0
 30 31  1  0
 30 27  1  0
 31 29  2  0
 32 33  1  0
 33 34  2  0
 35 34  1  0
 36 35  2  0
 37 36  1  0
 37 32  2  0
 38 35  1  0
 38 39  1  0
 39 44  2  0
 39 40  1  0
 40 41  2  0
 41 42  1  0
 42 46  1  0
 43 42  2  0
 44 43  1  0
 45 44  1  0
 47 48  1  0
 48 51  1  0
 48 50  1  0
 49 47  2  0
 52 27  1  0
 52 53  1  0
 54 52  1  0
 55  1  1  0
 55 56  1  0
 57 56  1  0
 58 57  1  0
 59 58  1  0
 60 62  1  0
 60 59  1  0
 61 63  2  0
 61 65  1  0
 62 61  1  0
 64 62  1  0
 65 66  1  0
 66 67  1  0
 67 69  1  0
 68 79  2  0
 69 74  1  0
 70 78  1  0
 70 80  1  0
 71 77  1  0
 71 73  1  0
 72 78  1  0
 73 72  1  0
 74 73  2  0
 75 76  1  0
 75 69  2  0
 76 71  2  0
 77 70  1  0
 78 68  1  0
 80 82  2  0
 81 80  1  0
 83 81  1  0
 84 89  1  0
 85 81  1  0
 86 85  1  0
 87 88  1  0
 87 86  1  0
 88 84  1  0
 89 85  1  0
 89 90  2  0
 91 90  1  0
 92 91  2  0
 93 84  2  0
 93 92  1  0
 94 68  1  0
 94 95  1  0
 94104  1  0
 95 98  1  0
 96100  1  0
 96 95  1  0
 97 96  2  0
100 99  1  0
102100  1  0
102103  1  0
102101  1  0
104107  1  1
104105  1  0
106104  1  0
M  ISO  4  17 100  25 100  66 101  67 101
M  END
>  <TORSDO>  (3) 
F 35

>  <SCORE>  (3) 
9.342

>  <name>  (3) 
2

>  <ligand_id>  (3) 
2

>  <original_smiles>  (3) 
[H]c1c([H])c([H])c2c(c1[H])C([H])([H])C([H])([H])C([H])([H])C2([H])N([H])C(=O)C1([H])N(C(=O)C([H])(N([H])C(=O)C([H])(N([H])C([H])([H])[H])C([H])([H])[H])C(C([H])([H])[H])(C([H])([H])[H])C([H])([H])[H])C([H])([H])c2c([H])c(OC([H])([H])C([H])([H])C(=O)N([H])C([H])([H])C([H])([H])C([H])([H])C([H])([H])C([H])([H])C([H])([H])C([H])([H])[N+]([H])([H])C([H])([H])C([H])([H])C([H])([H])N([H])C(=O)C([H])([H])C([H])([H])C([H])([H])C([H])([H])C([H])([H])N([H])C(=O)N3C([H])([H])C([H])([H])C([H])([H])C([H])(n4nc(-c5c([H])c([H])c(Oc6c([H])c([H])c(F)c([H])c6F)c([H])c5[H])c(C(=O)N([H])[H])c4N([H])[H])C3([H])[H])c([H])c([H])c2C1([H])[H]

>  <smiles>  (3) 
[H]c1c([H])c([H])c2c(c1[H])C([H])([H])C([H])([H])C([H])([H])C2([H])N([H])C(=O)C1([H])N(C(=O)C([H])(N([H])C(=O)C([H])(N([H])C([H])([H])[H])C([H])([H])[H])C(C([H])([H])[H])(C([H])([H])[H])C([H])([H])[H])C([H])([H])c2c([H])c(OC([H])([H])C([H])([H])C(=O)N([H])C([H])([H])C([H])([H])C([H])([H])C([H])([H])C([H])([H])C([H])([H])C([H])([H])[N+]([H])([H])C([H])([H])C([H])([H])C([H])([H])N([H])C(=O)C([H])([H])C([H])([H])C([H])([H])C([H])([H])C([H])([H])N([H])C(=O)N3C([H])([H])C([H])([H])C([H])([H])C([H])(n4nc(-c5c([H])c([H])c(Oc6c([H])c([H])c(F)c([H])c6F)c([H])c5[H])c(C(=O)N([H])[H])c4N([H])[H])C3([H])[H])c([H])c([H])c2C1([H])[H]

$$$$
3:0:0
     RDKit          3D

104111  0  0  1  0  0  0  0  0999 V2000
  -34.1220  -28.0530   18.8350 C   0  0  0  0  0  2  0  0  0  0  0  0
  -33.3800  -26.8060   18.5490 N   0  0  0  0  0  4  0  0  0  0  0  0
  -33.6050  -26.5000   17.6160 H   0  0  0  0  0  0  0  0  0  0  0  0
  -32.3990  -27.0260   18.5680 H   0  0  0  0  0  0  0  0  0  0  0  0
  -33.6230  -25.7050   19.5010 C   0  0  0  0  0  2  0  0  0  0  0  0
  -32.6830  -24.5190   19.2290 C   0  0  0  0  0  2  0  0  0  0  0  0
  -32.8020  -23.4010   20.2760 C   0  0  0  0  0  2  0  0  0  0  0  0
  -31.8940  -22.2060   19.9450 C   0  0  0  0  0  2  0  0  0  0  0  0
  -31.9860  -21.0660   20.9730 C   0  0  0  0  0  2  0  0  0  0  0  0
  -31.2010  -19.8200   20.5220 C   0  0  0  0  0  2  0  0  0  0  0  0
  -31.3540  -18.6760   21.4470 N   0  0  0  0  0  4  0  0  0  0  0  0
  -30.9340  -18.9090   22.3340 H   0  0  0  0  0  0  0  0  0  0  0  0
  -32.3360  -18.5110   21.6030 H   0  0  0  0  0  0  0  0  0  0  0  0
  -30.7440  -17.4300   20.9350 C   0  0  0  0  0  2  0  0  0  0  0  0
  -30.9890  -16.2160   21.8570 C   0  0  0  0  0  2  0  0  0  0  0  0
  -30.6970  -14.2950   20.2860 C   0  0  0  0  0  0  0  0  0  0  0  0
  -30.2330  -12.2980   18.9130 C   0  0  0  0  0  2  0  0  0  0  0  0
  -29.2290  -12.5910   17.7830 C   0  0  0  0  0  2  0  0  0  0  0  0
  -27.7800  -12.4500   18.2840 C   0  0  0  0  0  2  0  0  0  0  0  0
  -27.5300  -13.2210   19.6070 C   0  0  0  0  0  3  0  0  0  0  0  0
  -28.6280  -12.8970   20.6430 C   0  0  0  0  0  2  0  0  0  0  0  0
  -29.9430  -13.1950   20.0420 N   0  0  0  0  0  0  0  0  0  0  0  0
  -31.6760  -14.6190   19.6080 O   0  0  0  0  0  0  0  0  0  0  0  0
  -30.3280  -15.0110   21.3570 N   0  0  0  0  0  0  0  0  0  0  0  0
  -29.5270  -14.6740   21.8710 H   0  0  0  0  0  0  0  0  0  0  0  0
  -25.1600  -13.8340   20.4130 C   0  0  0  0  0  0  0  0  0  0  0  0
  -24.1060  -13.0610   20.8190 C   0  0  0  0  0  0  0  0  0  0  0  0
  -24.5600  -11.7070   20.7560 C   0  0  0  0  0  0  0  0  0  0  0  0
  -26.1940  -12.9510   20.1340 N   0  0  0  0  0  0  0  0  0  0  0  0
  -25.8360  -11.6670   20.3930 N   0  0  0  0  0  0  0  0  0  0  0  0
  -23.8370  -10.4460   20.9650 C   0  0  0  0  0  0  0  0  0  0  0  0
  -24.2710   -9.4960   21.9150 C   0  0  0  0  0  3  0  0  0  0  0  0
  -23.5510   -8.2970   22.1110 C   0  0  0  0  0  3  0  0  0  0  0  0
  -22.3810   -8.0430   21.3550 C   0  0  0  0  0  0  0  0  0  0  0  0
  -21.9670   -8.9820   20.3940 C   0  0  0  0  0  3  0  0  0  0  0  0
  -22.6890  -10.1700   20.1980 C   0  0  0  0  0  3  0  0  0  0  0  0
  -21.6310   -6.8950   21.4580 O   0  0  0  0  0  0  0  0  0  0  0  0
  -21.5570   -6.1880   22.6310 C   0  0  0  0  0  0  0  0  0  0  0  0
  -21.0630   -6.7670   23.8210 C   0  0  0  0  0  3  0  0  0  0  0  0
  -20.9370   -5.9840   24.9860 C   0  0  0  0  0  3  0  0  0  0  0  0
  -21.2960   -4.6230   24.9630 C   0  0  0  0  0  0  0  0  0  0  0  0
  -21.7830   -4.0440   23.7790 C   0  0  0  0  0  3  0  0  0  0  0  0
  -21.9100   -4.8230   22.6150 C   0  0  0  0  0  0  0  0  0  0  0  0
  -22.3600   -4.2550   21.4710 F   0  0  0  0  0  0  0  0  0  0  0  0
  -21.1690   -3.8690   26.0800 F   0  0  0  0  0  0  0  0  0  0  0  0
  -22.7230  -13.5400   21.1560 C   0  0  0  0  0  0  0  0  0  0  0  0
  -22.0230  -12.8260   22.0300 N   0  0  0  0  0  0  0  0  0  0  0  0
  -22.2720  -14.5810   20.6790 O   0  0  0  0  0  0  0  0  0  0  0  0
  -22.4000  -11.9820   22.4390 H   0  0  0  0  0  0  0  0  0  0  0  0
  -21.0970  -13.1270   22.2990 H   0  0  0  0  0  0  0  0  0  0  0  0
  -25.3240  -15.2050   20.2410 N   0  0  0  0  0  0  0  0  0  0  0  0
  -24.5670  -15.8650   20.3850 H   0  0  0  0  0  0  0  0  0  0  0  0
  -26.1680  -15.6410   19.8910 H   0  0  0  0  0  0  0  0  0  0  0  0
  -33.2140  -29.2860   18.6710 C   0  0  0  0  0  2  0  0  0  0  0  0
  -32.0470  -29.3480   19.6780 C   0  0  0  0  0  2  0  0  0  0  0  0
  -32.4920  -29.6810   21.1150 C   0  0  0  0  0  2  0  0  0  0  0  0
  -31.3370  -29.7760   22.1290 C   0  0  0  0  0  2  0  0  0  0  0  0
  -30.9830  -28.4470   22.8200 C   0  0  0  0  0  2  0  0  0  0  0  0
  -29.5430  -26.4880   22.3460 C   0  0  0  0  0  0  0  0  0  0  0  0
  -30.2490  -27.5510   21.9380 N   0  0  0  0  0  0  0  0  0  0  0  0
  -29.5580  -26.0970   23.5140 O   0  0  0  0  0  0  0  0  0  0  0  0
  -30.1500  -27.8130   20.9660 H   0  0  0  0  0  0  0  0  0  0  0  0
  -28.6840  -25.7640   21.2960 C   0  0  0  0  0  2  0  0  0  0  0  0
  -28.4430  -26.5890   20.1510 O   0  0  0  0  0  0  0  0  0  0  0  0
  -24.6380  -31.7670   23.2030 C   0  0  0  0  0  0  0  0  0  0  0  0
  -27.2740  -27.3050   20.1880 C   0  0  0  0  0  0  0  0  0  0  0  0
  -23.4280  -30.3650   21.5580 C   0  0  0  0  0  3  0  0  0  0  0  0
  -24.8770  -28.7930   20.1690 C   0  0  0  0  0  0  0  0  0  0  0  0
  -25.9550  -30.7000   21.3840 C   0  0  0  0  0  2  0  0  0  0  0  0
  -26.0290  -29.3260   20.7590 C   0  0  0  0  0  0  0  0  0  0  0  0
  -27.2280  -28.5900   20.7670 C   0  0  0  0  0  3  0  0  0  0  0  0
  -26.1090  -26.7700   19.6010 C   0  0  0  0  0  3  0  0  0  0  0  0
  -24.9080  -27.5110   19.5890 C   0  0  0  0  0  3  0  0  0  0  0  0
  -23.6410  -29.6610   20.1910 C   0  0  0  0  0  2  0  0  0  0  0  0
  -24.6900  -30.9590   22.1080 N   0  0  0  0  0  0  0  0  0  0  0  0
  -23.5570  -32.0600   23.7320 O   0  0  0  0  0  0  0  0  0  0  0  0
  -22.7540  -29.3640   22.5210 C   0  0  0  0  0  0  0  0  0  0  0  0
  -21.4270  -29.2130   22.3900 N   0  0  0  0  0  0  0  0  0  0  0  0
  -23.4220  -28.7230   23.3370 O   0  0  0  0  0  0  0  0  0  0  0  0
  -20.9500  -29.7750   21.6990 H   0  0  0  0  0  0  0  0  0  0  0  0
  -18.0220  -28.1320   22.9060 C   0  0  0  0  0  0  0  0  0  0  0  0
  -20.5890  -28.2960   23.1600 C   0  0  0  0  0  3  0  0  0  0  0  0
  -20.6370  -26.8680   22.5680 C   0  0  0  0  0  2  0  0  0  0  0  0
  -19.5170  -26.5960   21.5580 C   0  0  0  0  0  2  0  0  0  0  0  0
  -18.1460  -26.7830   22.2160 C   0  0  0  0  0  2  0  0  0  0  0  0
  -19.1700  -28.8490   23.3370 C   0  0  0  0  0  0  0  0  0  0  0  0
  -19.0020  -30.1140   23.9410 C   0  0  0  0  0  3  0  0  0  0  0  0
  -17.7180  -30.6630   24.1150 C   0  0  0  0  0  3  0  0  0  0  0  0
  -16.5850  -29.9460   23.7000 C   0  0  0  0  0  3  0  0  0  0  0  0
  -16.7370  -28.6800   23.1040 C   0  0  0  0  0  3  0  0  0  0  0  0
  -25.9300  -32.3810   23.8310 C   0  0  0  0  0  3  0  0  0  0  0  0
  -25.6350  -33.7840   24.1540 N   0  0  0  0  0  0  0  0  0  0  0  0
  -25.9990  -34.8310   23.4010 C   0  0  0  0  0  0  0  0  0  0  0  0
  -26.6880  -34.7150   22.3830 O   0  0  0  0  0  0  0  0  0  0  0  0
  -25.0130  -33.9480   24.9330 H   0  0  0  0  0  0  0  0  0  0  0  0
  -24.3110  -36.6480   23.0010 C   0  0  0  0  0  1  0  0  0  0  0  0
  -25.5240  -36.2270   23.8470 C   0  0  0  0  0  3  0  0  0  0  0  0
  -27.6490  -37.0700   24.7410 C   0  0  0  0  0  1  0  0  0  0  0  0
  -26.5780  -37.2610   23.7650 N   0  0  0  0  0  0  0  0  0  0  0  0
  -26.1870  -38.1880   23.9010 H   0  0  0  0  0  0  0  0  0  0  0  0
  -26.4310  -31.6020   25.1090 C   0  0  1  0  0  0  0  0  0  0  0  0
  -25.3250  -31.3720   26.1650 C   0  0  0  0  0  1  0  0  0  0  0  0
  -27.0040  -30.2210   24.7150 C   0  0  0  0  0  1  0  0  0  0  0  0
  -27.5810  -32.3850   25.7860 C   0  0  0  0  0  1  0  0  0  0  0  0
  2  4  1  0
  2  1  1  0
  2  5  1  0
  3  2  1  0
  6  5  1  0
  6  7  1  0
  8  7  1  0
  8  9  1  0
 10  9  1  0
 10 11  1  0
 11 13  1  0
 11 12  1  0
 14 11  1  0
 14 15  1  0
 16 24  1  0
 17 22  1  0
 18 19  1  0
 18 17  1  0
 20 19  1  0
 20 29  1  0
 20 21  1  0
 22 16  1  0
 22 21  1  0
 23 16  2  0
 24 15  1  0
 24 25  1  0
 26 27  2  0
 27 46  1  0
 28 27  1  0
 28 31  1  0
 29 30  1  0
 29 26  1  0
 30 28  2  0
 31 32  1  0
 32 33  2  0
 34 37  1  0
 34 33  1  0
 35 34  2  0
 36 35  1  0
 36 31  2  0
 37 38  1  0
 38 39  1  0
 39 40  2  0
 41 40  1  0
 41 45  1  0
 42 41  2  0
 43 38  2  0
 43 42  1  0
 44 43  1  0
 46 47  1  0
 47 50  1  0
 47 49  1  0
 48 46  2  0
 51 52  1  0
 51 26  1  0
 53 51  1  0
 54  1  1  0
 54 55  1  0
 55 56  1  0
 56 57  1  0
 57 58  1  0
 59 61  2  0
 60 59  1  0
 60 58  1  0
 62 60  1  0
 63 59  1  0
 64 66  1  0
 64 63  1  0
 65 76  2  0
 66 71  1  0
 67 75  1  0
 67 77  1  0
 68 74  1  0
 68 70  1  0
 69 75  1  0
 70 71  2  0
 70 69  1  0
 72 66  2  0
 73 72  1  0
 73 68  2  0
 74 67  1  0
 75 65  1  0
 77 79  2  0
 78 77  1  0
 80 78  1  0
 81 90  2  0
 81 86  1  0
 82 78  1  0
 82 86  1  0
 83 82  1  0
 84 85  1  0
 84 83  1  0
 85 81  1  0
 86 87  2  0
 87 88  1  0
 89 88  2  0
 90 89  1  0
 91 65  1  0
 91 92  1  0
 91101  1  0
 92 95  1  0
 93 97  1  0
 93 92  1  0
 94 93  2  0
 97 96  1  0
 99 97  1  0
 99100  1  0
 99 98  1  0
101104  1  1
101102  1  0
103101  1  0
M  ISO  4  16 100  24 100  63 101  64 101
M  END
>  <TORSDO>  (4) 
F 33

>  <SCORE>  (4) 
-10.166

>  <name>  (4) 
3

>  <ligand_id>  (4) 
3

>  <original_smiles>  (4) 
[H]c1c([H])c([H])c2c(c1[H])C([H])([H])C([H])([H])C([H])([H])C2([H])N([H])C(=O)C1([H])N(C(=O)C([H])(N([H])C(=O)C([H])(N([H])C([H])([H])[H])C([H])([H])[H])C(C([H])([H])[H])(C([H])([H])[H])C([H])([H])[H])C([H])([H])c2c([H])c(OC([H])([H])C(=O)N([H])C([H])([H])C([H])([H])C([H])([H])C([H])([H])C([H])([H])C([H])([H])[N+]([H])([H])C([H])([H])C([H])([H])C([H])([H])C([H])([H])C([H])([H])C([H])([H])[N+]([H])([H])C([H])([H])C([H])([H])N([H])C(=O)N3C([H])([H])C([H])([H])C([H])([H])C([H])(n4nc(-c5c([H])c([H])c(Oc6c([H])c([H])c(F)c([H])c6F)c([H])c5[H])c(C(=O)N([H])[H])c4N([H])[H])C3([H])[H])c([H])c([H])c2C1([H])[H]

>  <smiles>  (4) 
[H]c1c([H])c([H])c2c(c1[H])C([H])([H])C([H])([H])C([H])([H])C2([H])N([H])C(=O)C1([H])N(C(=O)C([H])(N([H])C(=O)C([H])(N([H])C([H])([H])[H])C([H])([H])[H])C(C([H])([H])[H])(C([H])([H])[H])C([H])([H])[H])C([H])([H])c2c([H])c(OC([H])([H])C(=O)N([H])C([H])([H])C([H])([H])C([H])([H])C([H])([H])C([H])([H])C([H])([H])[N+]([H])([H])C([H])([H])C([H])([H])C([H])([H])C([H])([H])C([H])([H])C([H])([H])[N+]([H])([H])C([H])([H])C([H])([H])N([H])C(=O)N3C([H])([H])C([H])([H])C([H])([H])C([H])(n4nc(-c5c([H])c([H])c(Oc6c([H])c([H])c(F)c([H])c6F)c([H])c5[H])c(C(=O)N([H])[H])c4N([H])[H])C3([H])[H])c([H])c([H])c2C1([H])[H]

$$$$
4:0:0
     RDKit          3D

101108  0  0  1  0  0  0  0  0999 V2000
  -32.0500  -21.6720   15.3870 C   0  0  0  0  0  2  0  0  0  0  0  0
  -32.1070  -21.7100   16.9140 C   0  0  0  0  0  0  0  0  0  0  0  0
  -31.1770  -21.0090   17.5760 N   0  0  0  0  0  0  0  0  0  0  0  0
  -32.9810  -22.3640   17.4810 O   0  0  0  0  0  0  0  0  0  0  0  0
  -30.5270  -20.4660   17.0200 H   0  0  0  0  0  0  0  0  0  0  0  0
  -30.8810  -21.0910   19.0070 C   0  0  0  0  0  2  0  0  0  0  0  0
  -32.0460  -20.7110   19.9450 C   0  0  0  0  0  2  0  0  0  0  0  0
  -32.6530  -19.3260   19.6650 C   0  0  0  0  0  2  0  0  0  0  0  0
  -33.6770  -18.8940   20.7250 C   0  0  0  0  0  2  0  0  0  0  0  0
  -33.1130  -18.9590   22.0360 O   0  0  0  0  0  0  0  0  0  0  0  0
  -32.9960  -17.7050   22.7010 C   0  0  0  0  0  2  0  0  0  0  0  0
  -31.7790  -16.9180   22.1940 C   0  0  0  0  0  2  0  0  0  0  0  0
  -31.7850  -15.4610   22.6840 C   0  0  0  0  0  2  0  0  0  0  0  0
  -30.8620  -14.2270   20.7430 C   0  0  0  0  0  0  0  0  0  0  0  0
  -30.3920  -12.2450   19.3640 C   0  0  0  0  0  2  0  0  0  0  0  0
  -29.4640  -12.5020   18.1670 C   0  0  0  0  0  2  0  0  0  0  0  0
  -27.9920  -12.3670   18.5960 C   0  0  0  0  0  2  0  0  0  0  0  0
  -27.6660  -13.1940   19.8660 C   0  0  0  0  0  3  0  0  0  0  0  0
  -28.7060  -12.9550   20.9880 C   0  0  0  0  0  2  0  0  0  0  0  0
  -30.0600  -13.1770   20.4500 N   0  0  0  0  0  0  0  0  0  0  0  0
  -31.7600  -14.6290   19.9950 O   0  0  0  0  0  0  0  0  0  0  0  0
  -30.7780  -14.6420   22.0130 N   0  0  0  0  0  0  0  0  0  0  0  0
  -30.0620  -14.2190   22.5890 H   0  0  0  0  0  0  0  0  0  0  0  0
  -25.2580  -13.8140   20.5620 C   0  0  0  0  0  0  0  0  0  0  0  0
  -24.1840  -13.0420   20.9130 C   0  0  0  0  0  0  0  0  0  0  0  0
  -24.6370  -11.6900   20.8700 C   0  0  0  0  0  0  0  0  0  0  0  0
  -26.3040  -12.9290   20.3330 N   0  0  0  0  0  0  0  0  0  0  0  0
  -25.9290  -11.6480   20.5750 N   0  0  0  0  0  0  0  0  0  0  0  0
  -23.9020  -10.4290   21.0360 C   0  0  0  0  0  0  0  0  0  0  0  0
  -24.3590   -9.4220   21.9160 C   0  0  0  0  0  3  0  0  0  0  0  0
  -23.6290   -8.2240   22.0750 C   0  0  0  0  0  3  0  0  0  0  0  0
  -22.4260   -8.0270   21.3540 C   0  0  0  0  0  0  0  0  0  0  0  0
  -21.9890   -9.0220   20.4630 C   0  0  0  0  0  3  0  0  0  0  0  0
  -22.7200  -10.2120   20.3020 C   0  0  0  0  0  3  0  0  0  0  0  0
  -21.6620   -6.8870   21.4260 O   0  0  0  0  0  0  0  0  0  0  0  0
  -21.6850   -6.0730   22.5310 C   0  0  0  0  0  0  0  0  0  0  0  0
  -21.4000   -6.5640   23.8240 C   0  0  0  0  0  3  0  0  0  0  0  0
  -21.3650   -5.6800   24.9210 C   0  0  0  0  0  3  0  0  0  0  0  0
  -21.6040   -4.3060   24.7250 C   0  0  0  0  0  0  0  0  0  0  0  0
  -21.8820   -3.8140   23.4380 C   0  0  0  0  0  3  0  0  0  0  0  0
  -21.9180   -4.6940   22.3430 C   0  0  0  0  0  0  0  0  0  0  0  0
  -22.1640   -4.2130   21.0990 F   0  0  0  0  0  0  0  0  0  0  0  0
  -21.5630   -3.4550   25.7760 F   0  0  0  0  0  0  0  0  0  0  0  0
  -22.7870  -13.5240   21.1820 C   0  0  0  0  0  0  0  0  0  0  0  0
  -22.0500  -12.8220   22.0360 N   0  0  0  0  0  0  0  0  0  0  0  0
  -22.3570  -14.5560   20.6700 O   0  0  0  0  0  0  0  0  0  0  0  0
  -22.4140  -11.9860   22.4700 H   0  0  0  0  0  0  0  0  0  0  0  0
  -21.1110  -13.1240   22.2580 H   0  0  0  0  0  0  0  0  0  0  0  0
  -25.4290  -15.1850   20.4040 N   0  0  0  0  0  0  0  0  0  0  0  0
  -24.6690  -15.8420   20.5450 H   0  0  0  0  0  0  0  0  0  0  0  0
  -26.2900  -15.6330   20.1120 H   0  0  0  0  0  0  0  0  0  0  0  0
  -31.4650  -22.9570   14.7490 C   0  0  0  0  0  2  0  0  0  0  0  0
  -32.4080  -24.1810   14.7140 C   0  0  0  0  0  2  0  0  0  0  0  0
  -32.3100  -25.1630   15.9050 C   0  0  0  0  0  2  0  0  0  0  0  0
  -31.1550  -26.1810   15.8240 C   0  0  0  0  0  2  0  0  0  0  0  0
  -29.8840  -26.4970   17.9660 C   0  0  0  0  0  0  0  0  0  0  0  0
  -30.1020  -25.8820   16.7910 N   0  0  0  0  0  0  0  0  0  0  0  0
  -30.6010  -27.4100   18.3900 O   0  0  0  0  0  0  0  0  0  0  0  0
  -29.4550  -25.1470   16.5370 H   0  0  0  0  0  0  0  0  0  0  0  0
  -28.6580  -26.0130   18.7550 C   0  0  0  0  0  2  0  0  0  0  0  0
  -28.4410  -26.8070   19.9380 O   0  0  0  0  0  0  0  0  0  0  0  0
  -24.6150  -31.8720   23.2160 C   0  0  0  0  0  0  0  0  0  0  0  0
  -27.2400  -27.4750   20.0390 C   0  0  0  0  0  0  0  0  0  0  0  0
  -23.3990  -30.4980   21.5560 C   0  0  0  0  0  3  0  0  0  0  0  0
  -24.8400  -28.9630   20.1270 C   0  0  0  0  0  0  0  0  0  0  0  0
  -25.9270  -30.8420   21.3680 C   0  0  0  0  0  2  0  0  0  0  0  0
  -26.0030  -29.4780   20.7120 C   0  0  0  0  0  0  0  0  0  0  0  0
  -27.2040  -28.7360   20.6780 C   0  0  0  0  0  3  0  0  0  0  0  0
  -26.0380  -26.9410   19.5190 C   0  0  0  0  0  3  0  0  0  0  0  0
  -24.8470  -27.6860   19.5420 C   0  0  0  0  0  3  0  0  0  0  0  0
  -23.6050  -29.8300   20.1720 C   0  0  0  0  0  2  0  0  0  0  0  0
  -24.6630  -31.0860   22.1040 N   0  0  0  0  0  0  0  0  0  0  0  0
  -23.5350  -32.1440   23.7590 O   0  0  0  0  0  0  0  0  0  0  0  0
  -22.7380  -29.4700   22.5030 C   0  0  0  0  0  0  0  0  0  0  0  0
  -21.4120  -29.3030   22.3740 N   0  0  0  0  0  0  0  0  0  0  0  0
  -23.4160  -28.8240   23.3070 O   0  0  0  0  0  0  0  0  0  0  0  0
  -20.9290  -29.8780   21.6980 H   0  0  0  0  0  0  0  0  0  0  0  0
  -18.0260  -28.1370   22.8490 C   0  0  0  0  0  0  0  0  0  0  0  0
  -20.5840  -28.3660   23.1330 C   0  0  0  0  0  3  0  0  0  0  0  0
  -20.6760  -26.9420   22.5400 C   0  0  0  0  0  2  0  0  0  0  0  0
  -19.5740  -26.6380   21.5200 C   0  0  0  0  0  2  0  0  0  0  0  0
  -18.1920  -26.7910   22.1620 C   0  0  0  0  0  2  0  0  0  0  0  0
  -19.1510  -28.8830   23.2910 C   0  0  0  0  0  0  0  0  0  0  0  0
  -18.9440  -30.1430   23.8910 C   0  0  0  0  0  3  0  0  0  0  0  0
  -17.6460  -30.6580   24.0550 C   0  0  0  0  0  3  0  0  0  0  0  0
  -16.5340  -29.9080   23.6340 C   0  0  0  0  0  3  0  0  0  0  0  0
  -16.7250  -28.6500   23.0360 C   0  0  0  0  0  3  0  0  0  0  0  0
  -25.9050  -32.4850   23.8440 C   0  0  0  0  0  3  0  0  0  0  0  0
  -26.4460  -31.6630   25.0770 C   0  0  1  0  0  0  0  0  0  0  0  0
  -25.3730  -31.3760   26.1530 C   0  0  0  0  0  1  0  0  0  0  0  0
  -27.0270  -30.3070   24.6160 C   0  0  0  0  0  1  0  0  0  0  0  0
  -27.6060  -32.4340   25.7510 C   0  0  0  0  0  1  0  0  0  0  0  0
  -25.5940  -33.8650   24.2350 N   0  0  0  0  0  0  0  0  0  0  0  0
  -25.9050  -34.9500   23.5130 C   0  0  0  0  0  0  0  0  0  0  0  0
  -26.5590  -34.8940   22.4690 O   0  0  0  0  0  0  0  0  0  0  0  0
  -25.0160  -33.9820   25.0550 H   0  0  0  0  0  0  0  0  0  0  0  0
  -24.1490  -36.7320   23.2640 C   0  0  0  0  0  1  0  0  0  0  0  0
  -25.4110  -36.3140   24.0340 C   0  0  0  0  0  3  0  0  0  0  0  0
  -27.5590  -37.1820   24.8450 C   0  0  0  0  0  1  0  0  0  0  0  0
  -26.4290  -37.3830   23.9420 N   0  0  0  0  0  0  0  0  0  0  0  0
  -26.0160  -38.2910   24.1420 H   0  0  0  0  0  0  0  0  0  0  0  0
  1  2  1  0
  2  4  2  0
  2  3  1  0
  3  6  1  0
  5  3  1  0
  6  7  1  0
  8  7  1  0
  8  9  1  0
  9 10  1  0
 10 11  1  0
 12 13  1  0
 12 11  1  0
 14 22  1  0
 15 20  1  0
 16 17  1  0
 16 15  1  0
 18 17  1  0
 18 27  1  0
 18 19  1  0
 20 14  1  0
 20 19  1  0
 21 14  2  0
 22 23  1  0
 22 13  1  0
 24 25  2  0
 25 44  1  0
 26 25  1  0
 26 29  1  0
 27 24  1  0
 27 28  1  0
 28 26  2  0
 29 30  1  0
 30 31  2  0
 32 35  1  0
 32 31  1  0
 33 32  2  0
 34 33  1  0
 34 29  2  0
 35 36  1  0
 36 37  1  0
 37 38  2  0
 39 38  1  0
 39 43  1  0
 40 39  2  0
 41 36  2  0
 41 40  1  0
 42 41  1  0
 44 45  1  0
 45 48  1  0
 45 47  1  0
 46 44  2  0
 49 50  1  0
 49 24  1  0
 51 49  1  0
 52  1  1  0
 53 52  1  0
 53 54  1  0
 55 54  1  0
 55 57  1  0
 56 58  2  0
 56 60  1  0
 57 56  1  0
 59 57  1  0
 60 61  1  0
 61 63  1  0
 62 73  2  0
 63 68  1  0
 64 72  1  0
 64 74  1  0
 65 71  1  0
 65 67  1  0
 66 72  1  0
 67 66  1  0
 68 67  2  0
 69 70  1  0
 69 63  2  0
 70 65  2  0
 71 64  1  0
 72 62  1  0
 74 76  2  0
 75 74  1  0
 77 75  1  0
 78 87  2  0
 78 83  1  0
 79 75  1  0
 79 83  1  0
 80 79  1  0
 81 82  1  0
 81 80  1  0
 82 78  1  0
 83 84  2  0
 84 85  1  0
 86 85  2  0
 87 86  1  0
 88 62  1  0
 88 93  1  0
 88 89  1  0
 89 92  1  1
 89 90  1  0
 91 89  1  0
 93 96  1  0
 94 98  1  0
 94 93  1  0
 95 94  2  0
 98 97  1  0
100 98  1  0
100101  1  0
100 99  1  0
M  ISO  4  14 100  22 100  60 101  61 101
M  END
>  <TORSDO>  (5) 
F 31

>  <SCORE>  (5) 
-5.212

>  <name>  (5) 
4

>  <ligand_id>  (5) 
4

>  <original_smiles>  (5) 
[H]c1c([H])c([H])c2c(c1[H])C([H])([H])C([H])([H])C([H])([H])C2([H])N([H])C(=O)C1([H])N(C(=O)C([H])(N([H])C(=O)C([H])(N([H])C([H])([H])[H])C([H])([H])[H])C(C([H])([H])[H])(C([H])([H])[H])C([H])([H])[H])C([H])([H])c2c([H])c(OC([H])([H])C(=O)N([H])C([H])([H])C([H])([H])C([H])([H])C([H])([H])C([H])([H])C(=O)N([H])C([H])([H])C([H])([H])C([H])([H])C([H])([H])OC([H])([H])C([H])([H])C([H])([H])N([H])C(=O)N3C([H])([H])C([H])([H])C([H])([H])C([H])(n4nc(-c5c([H])c([H])c(Oc6c([H])c([H])c(F)c([H])c6F)c([H])c5[H])c(C(=O)N([H])[H])c4N([H])[H])C3([H])[H])c([H])c([H])c2C1([H])[H]

>  <smiles>  (5) 
[H]c1c([H])c([H])c2c(c1[H])C([H])([H])C([H])([H])C([H])([H])C2([H])N([H])C(=O)C1([H])N(C(=O)C([H])(N([H])C(=O)C([H])(N([H])C([H])([H])[H])C([H])([H])[H])C(C([H])([H])[H])(C([H])([H])[H])C([H])([H])[H])C([H])([H])c2c([H])c(OC([H])([H])C(=O)N([H])C([H])([H])C([H])([H])C([H])([H])C([H])([H])C([H])([H])C(=O)N([H])C([H])([H])C([H])([H])C([H])([H])C([H])([H])OC([H])([H])C([H])([H])C([H])([H])N([H])C(=O)N3C([H])([H])C([H])([H])C([H])([H])C([H])(n4nc(-c5c([H])c([H])c(Oc6c([H])c([H])c(F)c([H])c6F)c([H])c5[H])c(C(=O)N([H])[H])c4N([H])[H])C3([H])[H])c([H])c([H])c2C1([H])[H]

$$$$
5:0:0
     RDKit          3D

105112  0  0  1  0  0  0  0  0999 V2000
  -22.0710  -19.0100   20.9560 C   0  0  0  0  0  2  0  0  0  0  0  0
  -22.9360  -17.9780   20.0770 C   0  0  0  0  0  2  0  0  0  0  0  0
  -24.5250  -17.8860   20.3520 C   0  0  0  0  0  2  0  0  0  0  0  0
  -25.7000  -17.7790   19.2590 C   0  0  0  0  0  2  0  0  0  0  0  0
  -28.3050  -18.0240   19.6200 C   0  0  0  0  0  0  0  0  0  0  0  0
  -27.0530  -17.5360   19.9300 N   0  0  0  0  0  0  0  0  0  0  0  0
  -28.6370  -18.1660   18.4350 O   0  0  0  0  0  0  0  0  0  0  0  0
  -27.0280  -17.0440   20.8130 H   0  0  0  0  0  0  0  0  0  0  0  0
  -28.9540  -18.7990   20.7350 C   0  0  0  0  0  3  0  0  0  0  0  0
  -30.0390  -19.6230   20.5170 C   0  0  0  0  0  3  0  0  0  0  0  0
  -30.6560  -20.6930   21.4710 C   0  0  0  0  0  2  0  0  0  0  0  0
  -30.3620  -22.1670   21.0190 C   0  0  0  0  0  2  0  0  0  0  0  0
  -31.4090  -23.3170   21.3320 C   0  0  0  0  0  3  0  0  0  0  0  0
  -30.7970  -24.7700   21.5220 C   0  0  0  0  0  3  0  0  0  0  0  0
  -31.7780  -26.0100   21.6730 C   0  0  0  0  0  2  0  0  0  0  0  0
  -31.3740  -28.1340   20.0920 C   0  0  0  0  0  0  0  0  0  0  0  0
  -31.9540  -28.1530   17.6550 C   0  0  0  0  0  2  0  0  0  0  0  0
  -30.8220  -27.9110   16.6270 C   0  0  0  0  0  2  0  0  0  0  0  0
  -30.2790  -26.4770   16.5850 C   0  0  0  0  0  2  0  0  0  0  0  0
  -30.0600  -25.9420   18.0120 C   0  0  0  0  0  3  0  0  0  0  0  0
  -31.4150  -26.0420   18.6850 C   0  0  0  0  0  2  0  0  0  0  0  0
  -31.6630  -27.4680   18.9390 N   0  0  0  0  0  0  0  0  0  0  0  0
  -31.2710  -29.3820   20.1170 O   0  0  0  0  0  0  0  0  0  0  0  0
  -31.2160  -27.3520   21.2360 N   0  0  0  0  0  0  0  0  0  0  0  0
  -30.8310  -27.8800   22.0160 H   0  0  0  0  0  0  0  0  0  0  0  0
  -28.2550  -24.1720   18.3320 C   0  0  0  0  0  0  0  0  0  0  0  0
  -28.2360  -22.8390   17.9790 C   0  0  0  0  0  0  0  0  0  0  0  0
  -29.5480  -22.5220   17.5200 C   0  0  0  0  0  0  0  0  0  0  0  0
  -29.5290  -24.5880   17.9970 N   0  0  0  0  0  0  0  0  0  0  0  0
  -30.3260  -23.5860   17.5780 N   0  0  0  0  0  0  0  0  0  0  0  0
  -30.1260  -21.2810   16.9690 C   0  0  0  0  0  0  0  0  0  0  0  0
  -31.3790  -20.7940   17.4050 C   0  0  0  0  0  3  0  0  0  0  0  0
  -31.9120  -19.6070   16.8560 C   0  0  0  0  0  3  0  0  0  0  0  0
  -31.2060  -18.9110   15.8470 C   0  0  0  0  0  0  0  0  0  0  0  0
  -29.9580  -19.4030   15.4200 C   0  0  0  0  0  3  0  0  0  0  0  0
  -29.4310  -20.5780   15.9610 C   0  0  0  0  0  3  0  0  0  0  0  0
  -31.6860  -17.7920   15.1890 O   0  0  0  0  0  0  0  0  0  0  0  0
  -32.2800  -16.7550   15.8690 C   0  0  0  0  0  0  0  0  0  0  0  0
  -31.6170  -16.0480   16.8990 C   0  0  0  0  0  3  0  0  0  0  0  0
  -32.2290  -14.9370   17.5090 C   0  0  0  0  0  3  0  0  0  0  0  0
  -33.5140  -14.5290   17.1100 C   0  0  0  0  0  0  0  0  0  0  0  0
  -34.1800  -15.2210   16.0850 C   0  0  0  0  0  3  0  0  0  0  0  0
  -33.5750  -16.3420   15.4780 C   0  0  0  0  0  0  0  0  0  0  0  0
  -34.2200  -16.9930   14.4880 F   0  0  0  0  0  0  0  0  0  0  0  0
  -34.0840  -13.4460   17.6920 F   0  0  0  0  0  0  0  0  0  0  0  0
  -27.0740  -21.9520   18.1580 C   0  0  0  0  0  0  0  0  0  0  0  0
  -27.2680  -21.1720   19.1280 N   0  0  0  0  0  0  0  0  0  0  0  0
  -25.9430  -22.0540   17.7160 O   0  0  0  0  0  0  0  0  0  0  0  0
  -28.0100  -21.4980   19.7370 H   0  0  0  0  0  0  0  0  0  0  0  0
  -26.4330  -20.7130   19.4650 H   0  0  0  0  0  0  0  0  0  0  0  0
  -27.3420  -25.0400   18.8870 N   0  0  0  0  0  0  0  0  0  0  0  0
  -26.3890  -24.8680   19.1870 H   0  0  0  0  0  0  0  0  0  0  0  0
  -27.5640  -26.0230   19.0000 H   0  0  0  0  0  0  0  0  0  0  0  0
  -21.1470  -20.1350   20.3080 C   0  0  0  0  0  2  0  0  0  0  0  0
  -21.0250  -22.7660   20.3410 C   0  0  0  0  0  0  0  0  0  0  0  0
  -21.5500  -21.5400   20.7210 N   0  0  0  0  0  0  0  0  0  0  0  0
  -20.1070  -22.8230   19.5190 O   0  0  0  0  0  0  0  0  0  0  0  0
  -22.3630  -21.5400   21.3300 H   0  0  0  0  0  0  0  0  0  0  0  0
  -21.5170  -24.1450   20.9770 C   0  0  0  0  0  2  0  0  0  0  0  0
  -22.0500  -25.2230   19.9930 N   0  0  0  0  0  4  0  0  0  0  0  0
  -21.2040  -25.5000   19.5130 H   0  0  0  0  0  0  0  0  0  0  0  0
  -22.6280  -24.7680   19.2990 H   0  0  0  0  0  0  0  0  0  0  0  0
  -22.7280  -26.5420   20.4800 C   0  0  0  0  0  2  0  0  0  0  0  0
  -23.5000  -27.5390   19.3990 C   0  0  0  0  0  2  0  0  0  0  0  0
  -24.6800  -28.5370   19.6090 O   0  0  0  0  0  0  0  0  0  0  0  0
  -27.5090  -32.4180   25.0160 C   0  0  0  0  0  0  0  0  0  0  0  0
  -24.5240  -29.5430   20.5490 C   0  0  0  0  0  0  0  0  0  0  0  0
  -25.2280  -31.5520   25.1560 C   0  0  0  0  0  3  0  0  0  0  0  0
  -24.1450  -30.8670   22.9810 C   0  0  0  0  0  0  0  0  0  0  0  0
  -26.2180  -32.2120   22.8640 C   0  0  0  0  0  2  0  0  0  0  0  0
  -25.2800  -31.1850   22.2270 C   0  0  0  0  0  0  0  0  0  0  0  0
  -25.4920  -30.5180   20.9770 C   0  0  0  0  0  3  0  0  0  0  0  0
  -23.3090  -29.4630   21.2290 C   0  0  0  0  0  3  0  0  0  0  0  0
  -23.1770  -29.9980   22.5010 C   0  0  0  0  0  3  0  0  0  0  0  0
  -23.9500  -31.5460   24.3080 C   0  0  0  0  0  2  0  0  0  0  0  0
  -26.3790  -32.0610   24.3470 N   0  0  0  0  0  0  0  0  0  0  0  0
  -27.5860  -32.3260   26.2500 O   0  0  0  0  0  0  0  0  0  0  0  0
  -25.4730  -30.1460   25.7650 C   0  0  0  0  0  0  0  0  0  0  0  0
  -25.2960  -30.0180   27.0930 N   0  0  0  0  0  0  0  0  0  0  0  0
  -25.8140  -29.2030   25.0460 O   0  0  0  0  0  0  0  0  0  0  0  0
  -25.0470  -30.8510   27.6070 H   0  0  0  0  0  0  0  0  0  0  0  0
  -25.6790  -28.7300   30.4620 C   0  0  0  0  0  0  0  0  0  0  0  0
  -25.4840  -28.7950   27.8820 C   0  0  0  0  0  3  0  0  0  0  0  0
  -24.1550  -28.0260   28.0770 C   0  0  0  0  0  2  0  0  0  0  0  0
  -23.4230  -28.3900   29.3720 C   0  0  0  0  0  2  0  0  0  0  0  0
  -24.3060  -28.0930   30.5850 C   0  0  0  0  0  2  0  0  0  0  0  0
  -26.2290  -29.0730   29.1960 C   0  0  0  0  0  0  0  0  0  0  0  0
  -27.5020  -29.6870   29.1480 C   0  0  0  0  0  3  0  0  0  0  0  0
  -28.2110  -29.9640   30.3330 C   0  0  0  0  0  3  0  0  0  0  0  0
  -27.6600  -29.6200   31.5800 C   0  0  0  0  0  3  0  0  0  0  0  0
  -26.4030  -28.9950   31.6420 C   0  0  0  0  0  3  0  0  0  0  0  0
  -28.7480  -32.9860   24.2680 C   0  0  0  0  0  3  0  0  0  0  0  0
  -29.3430  -34.0190   25.1250 N   0  0  0  0  0  0  0  0  0  0  0  0
  -29.1120  -35.3350   25.0040 C   0  0  0  0  0  0  0  0  0  0  0  0
  -28.4250  -35.8150   24.0980 O   0  0  0  0  0  0  0  0  0  0  0  0
  -29.8830  -33.6920   25.9120 H   0  0  0  0  0  0  0  0  0  0  0  0
  -28.7210  -36.6010   27.1520 C   0  0  0  0  0  1  0  0  0  0  0  0
  -29.7460  -36.2670   26.0550 C   0  0  0  0  0  3  0  0  0  0  0  0
  -31.4630  -37.3130   24.6390 C   0  0  0  0  0  1  0  0  0  0  0  0
  -30.2910  -37.5170   25.4850 N   0  0  0  0  0  0  0  0  0  0  0  0
  -30.5430  -38.1660   26.2250 H   0  0  0  0  0  0  0  0  0  0  0  0
  -29.8100  -31.8770   23.9080 C   0  0  1  0  0  0  0  0  0  0  0  0
  -30.4150  -31.1390   25.1290 C   0  0  0  0  0  1  0  0  0  0  0  0
  -29.1740  -30.8070   22.9950 C   0  0  0  0  0  1  0  0  0  0  0  0
  -30.9780  -32.5200   23.1180 C   0  0  0  0  0  1  0  0  0  0  0  0
  2  3  1  0
  2  1  1  0
  4  6  1  0
  4  3  1  0
  5  6  1  0
  5  9  1  0
  6  8  1  0
  7  5  2  0
 10  9  2  0
 10 11  1  0
 12 13  1  0
 12 11  1  0
 13 14  2  0
 14 15  1  0
 16 23  2  0
 16 24  1  0
 17 22  1  0
 18 17  1  0
 19 18  1  0
 20 19  1  0
 20 21  1  0
 21 22  1  0
 22 16  1  0
 24 15  1  0
 24 25  1  0
 26 51  1  0
 27 46  1  0
 27 26  2  0
 28 30  2  0
 28 27  1  0
 29 20  1  0
 29 26  1  0
 30 29  1  0
 31 32  1  0
 31 28  1  0
 33 32  2  0
 34 33  1  0
 35 34  2  0
 35 36  1  0
 36 31  2  0
 37 34  1  0
 37 38  1  0
 38 39  1  0
 39 40  2  0
 41 40  1  0
 41 45  1  0
 42 41  2  0
 43 38  2  0
 43 42  1  0
 44 43  1  0
 46 47  1  0
 47 50  1  0
 47 49  1  0
 48 46  2  0
 51 53  1  0
 51 52  1  0
 54 56  1  0
 54  1  1  0
 55 56  1  0
 55 59  1  0
 56 58  1  0
 57 55  2  0
 60 63  1  0
 60 59  1  0
 61 60  1  0
 62 60  1  0
 64 65  1  0
 64 63  1  0
 65 67  1  0
 66 77  2  0
 67 72  2  0
 67 73  1  0
 68 78  1  0
 69 75  1  0
 70 76  1  0
 71 70  1  0
 71 69  2  0
 72 71  1  0
 73 74  2  0
 74 69  1  0
 75 68  1  0
 76 66  1  0
 76 68  1  0
 78 79  1  0
 79 81  1  0
 80 78  2  0
 82 86  1  0
 82 91  1  0
 83 79  1  0
 83 84  1  0
 83 87  1  0
 84 85  1  0
 85 86  1  0
 87 82  2  0
 88 87  1  0
 88 89  2  0
 89 90  1  0
 90 91  2  0
 92 66  1  0
 92 93  1  0
 93 96  1  0
 94 93  1  0
 94 98  1  0
 95 94  2  0
 98 97  1  0
 99100  1  0
100 98  1  0
100101  1  0
102 92  1  0
102103  1  1
104102  1  0
105102  1  0
M  ISO  4  16 100  24 100  64 101  65 101
M  END
>  <TORSDO>  (6) 
F 32

>  <SCORE>  (6) 
12.432

>  <name>  (6) 
5

>  <ligand_id>  (6) 
5

>  <original_smiles>  (6) 
[H]C(C(=O)N([H])C([H])([H])C([H])([H])C([H])([H])C([H])([H])C([H])([H])N([H])C(=O)C([H])([H])[N+]([H])([H])C([H])([H])C([H])([H])Oc1c([H])c([H])c2c(c1[H])C([H])([H])N(C(=O)C([H])(N([H])C(=O)C([H])(N([H])C([H])([H])[H])C([H])([H])[H])C(C([H])([H])[H])(C([H])([H])[H])C([H])([H])[H])C([H])(C(=O)N([H])C1([H])c3c([H])c([H])c([H])c([H])c3C([H])([H])C([H])([H])C1([H])[H])C2([H])[H])=C([H])C([H])([H])C([H])([H])C([H])([H])C([H])([H])C([H])([H])N([H])C(=O)N1C([H])([H])C([H])([H])C([H])([H])C([H])(n2nc(-c3c([H])c([H])c(Oc4c([H])c([H])c(F)c([H])c4F)c([H])c3[H])c(C(=O)N([H])[H])c2N([H])[H])C1([H])[H]

>  <smiles>  (6) 
[H]C(C(=O)N([H])C([H])([H])C([H])([H])C([H])([H])C([H])([H])C([H])([H])N([H])C(=O)C([H])([H])[N+]([H])([H])C([H])([H])C([H])([H])Oc1c([H])c([H])c2c(c1[H])C([H])([H])N(C(=O)C([H])(N([H])C(=O)C([H])(N([H])C([H])([H])[H])C([H])([H])[H])C(C([H])([H])[H])(C([H])([H])[H])C([H])([H])[H])C([H])(C(=O)N([H])C1([H])c3c([H])c([H])c([H])c([H])c3C([H])([H])C([H])([H])C1([H])[H])C2([H])[H])=C([H])C([H])([H])C([H])([H])C([H])([H])C([H])([H])C([H])([H])N([H])C(=O)N1C([H])([H])C([H])([H])C([H])([H])C([H])(n2nc(-c3c([H])c([H])c(Oc4c([H])c([H])c(F)c([H])c4F)c([H])c3[H])c(C(=O)N([H])[H])c2N([H])[H])C1([H])[H]

$$$$
6:0:0
     RDKit          3D

101108  0  0  1  0  0  0  0  0999 V2000
  -22.1920  -27.2510   19.4110 C   0  0  0  0  0  2  0  0  0  0  0  0
  -21.4950  -28.6550   20.3780 C   0  0  0  0  0  2  0  0  0  0  0  0
  -21.8240  -29.7890   21.7860 C   0  0  0  0  0  2  0  0  0  0  0  0
  -22.3090  -29.6850   23.5980 C   0  0  0  0  0  2  0  0  0  0  0  0
  -24.1550  -27.5680   25.0340 C   0  0  0  0  0  0  0  0  0  0  0  0
  -23.0360  -28.5100   24.6560 N   0  0  0  0  0  0  0  0  0  0  0  0
  -23.7270  -26.7720   25.8720 O   0  0  0  0  0  0  0  0  0  0  0  0
  -22.3490  -28.3130   25.3670 H   0  0  0  0  0  0  0  0  0  0  0  0
  -25.9050  -27.2380   24.6950 C   0  0  0  0  0  2  0  0  0  0  0  0
  -27.1730  -26.4200   23.6180 C   0  0  0  0  0  2  0  0  0  0  0  0
  -28.6040  -26.5250   22.8020 O   0  0  0  0  0  0  0  0  0  0  0  0
  -25.3700  -30.7530   23.3250 C   0  0  0  0  0  0  0  0  0  0  0  0
  -28.7140  -26.8080   21.4660 C   0  0  0  0  0  3  0  0  0  0  0  0
  -24.7550  -28.8140   21.5640 C   0  0  0  0  0  3  0  0  0  0  0  0
  -26.5850  -27.9250   20.3120 C   0  0  0  0  0  0  0  0  0  0  0  0
  -26.9990  -29.9410   21.7690 C   0  0  0  0  0  2  0  0  0  0  0  0
  -27.4620  -28.6830   21.0930 C   0  0  0  0  0  0  0  0  0  0  0  0
  -28.7060  -28.1770   21.4180 C   0  0  0  0  0  2  0  0  0  0  0  0
  -28.0270  -26.0320   20.5200 C   0  0  0  0  0  3  0  0  0  0  0  0
  -26.9320  -26.6300   19.8730 C   0  0  0  0  0  3  0  0  0  0  0  0
  -25.2840  -28.5780   20.1440 C   0  0  0  0  0  2  0  0  0  0  0  0
  -25.6870  -29.7640   22.3810 N   0  0  0  0  0  0  0  0  0  0  0  0
  -24.2270  -31.0960   23.6120 O   0  0  0  0  0  0  0  0  0  0  0  0
  -24.1840  -27.3180   22.0940 C   0  0  0  0  0  0  0  0  0  0  0  0
  -22.8750  -26.8800   22.1730 N   0  0  0  0  0  0  0  0  0  0  0  0
  -24.8450  -26.5720   22.7000 O   0  0  0  0  0  0  0  0  0  0  0  0
  -22.3590  -27.3960   21.4700 H   0  0  0  0  0  0  0  0  0  0  0  0
  -19.5490  -25.5430   21.9250 C   0  0  0  0  0  0  0  0  0  0  0  0
  -21.8780  -26.1830   22.9810 C   0  0  0  0  0  3  0  0  0  0  0  0
  -22.1970  -24.7190   22.7910 C   0  0  0  0  0  2  0  0  0  0  0  0
  -21.6170  -24.1150   21.5050 C   0  0  0  0  0  2  0  0  0  0  0  0
  -20.0950  -24.1900   21.5130 C   0  0  0  0  0  2  0  0  0  0  0  0
  -20.3620  -26.4910   22.6120 C   0  0  0  0  0  0  0  0  0  0  0  0
  -19.6990  -27.6730   23.0370 C   0  0  0  0  0  3  0  0  0  0  0  0
  -18.3530  -27.9620   22.7110 C   0  0  0  0  0  3  0  0  0  0  0  0
  -17.5810  -27.0040   22.0340 C   0  0  0  0  0  3  0  0  0  0  0  0
  -18.1820  -25.7920   21.6590 C   0  0  0  0  0  3  0  0  0  0  0  0
  -26.4040  -31.6050   24.1430 C   0  0  0  0  0  3  0  0  0  0  0  0
  -25.8310  -32.9500   24.3160 N   0  0  0  0  0  0  0  0  0  0  0  0
  -26.1060  -33.9870   23.5310 C   0  0  0  0  0  0  0  0  0  0  0  0
  -26.9340  -33.9350   22.6190 O   0  0  0  0  0  0  0  0  0  0  0  0
  -25.0980  -33.0540   25.0050 H   0  0  0  0  0  0  0  0  0  0  0  0
  -24.2280  -35.4780   22.7900 C   0  0  0  0  0  1  0  0  0  0  0  0
  -25.3530  -35.2920   23.8170 C   0  0  0  0  0  3  0  0  0  0  0  0
  -27.1660  -36.5110   24.9380 C   0  0  0  0  0  1  0  0  0  0  0  0
  -26.2360  -36.4760   23.8130 N   0  0  0  0  0  0  0  0  0  0  0  0
  -25.6830  -37.3290   23.8360 H   0  0  0  0  0  0  0  0  0  0  0  0
  -26.7830  -31.0590   25.5790 C   0  0  1  0  0  0  0  0  0  0  0  0
  -25.5900  -30.7830   26.5310 C   0  0  0  0  0  1  0  0  0  0  0  0
  -27.7810  -29.8870   25.4760 C   0  0  0  0  0  1  0  0  0  0  0  0
  -27.5980  -32.1180   26.3400 C   0  0  0  0  0  1  0  0  0  0  0  0
  -22.7940  -25.5610   19.5480 C   0  0  0  0  0  3  0  0  0  0  0  0
  -23.8130  -24.5630   18.5130 C   0  0  0  0  0  3  0  0  0  0  0  0
  -25.7500  -22.4440   18.4970 C   0  0  0  0  0  0  0  0  0  0  0  0
  -24.4390  -23.0580   18.6740 N   0  0  0  0  0  0  0  0  0  0  0  0
  -26.7120  -23.2110   18.4370 O   0  0  0  0  0  0  0  0  0  0  0  0
  -23.7180  -22.3520   18.7240 H   0  0  0  0  0  0  0  0  0  0  0  0
  -26.1720  -20.7950   18.3140 C   0  0  0  0  0  2  0  0  0  0  0  0
  -27.9780  -18.5830   18.4940 C   0  0  0  0  0  0  0  0  0  0  0  0
  -27.5660  -19.9750   18.6060 N   0  0  0  0  0  0  0  0  0  0  0  0
  -27.1440  -17.8310   17.9940 O   0  0  0  0  0  0  0  0  0  0  0  0
  -28.2740  -20.5720   19.0170 H   0  0  0  0  0  0  0  0  0  0  0  0
  -29.4550  -17.7950   18.8990 C   0  0  0  0  0  2  0  0  0  0  0  0
  -30.8220  -15.2770   19.5360 C   0  0  0  0  0  0  0  0  0  0  0  0
  -31.1170  -12.7470   19.2410 C   0  0  0  0  0  2  0  0  0  0  0  0
  -30.2250  -12.3310   18.0450 C   0  0  0  0  0  2  0  0  0  0  0  0
  -28.7550  -12.1590   18.4860 C   0  0  0  0  0  2  0  0  0  0  0  0
  -28.2880  -13.3190   19.4030 C   0  0  0  0  0  3  0  0  0  0  0  0
  -29.2810  -13.5680   20.5430 C   0  0  0  0  0  2  0  0  0  0  0  0
  -30.5040  -13.9590   19.8670 N   0  0  0  0  0  0  0  0  0  0  0  0
  -32.0250  -15.4510   19.2460 O   0  0  0  0  0  0  0  0  0  0  0  0
  -29.7410  -16.2610   19.3960 N   0  0  0  0  0  0  0  0  0  0  0  0
  -28.8790  -15.8580   19.7360 H   0  0  0  0  0  0  0  0  0  0  0  0
  -26.0190  -14.1120   20.2350 C   0  0  0  0  0  0  0  0  0  0  0  0
  -24.9040  -13.4260   20.6330 C   0  0  0  0  0  0  0  0  0  0  0  0
  -25.2420  -12.0440   20.5530 C   0  0  0  0  0  0  0  0  0  0  0  0
  -26.9510  -13.1390   19.9190 N   0  0  0  0  0  0  0  0  0  0  0  0
  -26.5070  -11.8910   20.1870 N   0  0  0  0  0  0  0  0  0  0  0  0
  -24.4160  -10.8510   20.7340 C   0  0  0  0  0  0  0  0  0  0  0  0
  -24.7420   -9.8670   21.6920 C   0  0  0  0  0  3  0  0  0  0  0  0
  -23.9170   -8.7320   21.8550 C   0  0  0  0  0  3  0  0  0  0  0  0
  -22.7520   -8.5840   21.0610 C   0  0  0  0  0  0  0  0  0  0  0  0
  -22.4510   -9.5550   20.0910 C   0  0  0  0  0  3  0  0  0  0  0  0
  -23.2760  -10.6800   19.9270 C   0  0  0  0  0  3  0  0  0  0  0  0
  -21.9040   -7.5050   21.1330 O   0  0  0  0  0  0  0  0  0  0  0  0
  -21.6960   -6.8400   22.3140 C   0  0  0  0  0  0  0  0  0  0  0  0
  -21.1940   -7.4930   23.4600 C   0  0  0  0  0  3  0  0  0  0  0  0
  -20.9280   -6.7540   24.6310 C   0  0  0  0  0  3  0  0  0  0  0  0
  -21.1530   -5.3630   24.6520 C   0  0  0  0  0  0  0  0  0  0  0  0
  -21.6470   -4.7120   23.5080 C   0  0  0  0  0  3  0  0  0  0  0  0
  -21.9140   -5.4490   22.3420 C   0  0  0  0  0  0  0  0  0  0  0  0
  -22.3720   -4.8120   21.2350 F   0  0  0  0  0  0  0  0  0  0  0  0
  -20.8890   -4.6510   25.7730 F   0  0  0  0  0  0  0  0  0  0  0  0
  -23.5700  -14.0310   20.9510 C   0  0  0  0  0  0  0  0  0  0  0  0
  -22.8080  -13.3910   21.8340 N   0  0  0  0  0  0  0  0  0  0  0  0
  -23.2150  -15.0970   20.4580 O   0  0  0  0  0  0  0  0  0  0  0  0
  -23.1090  -12.5240   22.2510 H   0  0  0  0  0  0  0  0  0  0  0  0
  -21.9100  -13.7780   22.0930 H   0  0  0  0  0  0  0  0  0  0  0  0
  -26.2830  -15.4620   20.0850 N   0  0  0  0  0  0  0  0  0  0  0  0
  -25.5300  -16.1200   20.2490 H   0  0  0  0  0  0  0  0  0  0  0  0
  -26.9790  -15.8590   19.4620 H   0  0  0  0  0  0  0  0  0  0  0  0
  1 52  1  0
  1  2  1  0
  2  3  1  0
  3  4  1  0
  4  6  1  0
  5  7  2  0
  6  5  1  0
  6  8  1  0
  9  5  1  0
 10  9  1  0
 11 10  1  0
 12 23  2  0
 13 11  1  0
 14 24  1  0
 14 22  1  0
 15 17  2  0
 16 22  1  0
 17 18  1  0
 17 16  1  0
 18 13  1  0
 19 13  1  0
 20 15  1  0
 20 19  2  0
 21 15  1  0
 21 14  1  0
 22 12  1  0
 24 25  1  0
 24 26  2  0
 27 25  1  0
 28 33  1  0
 29 25  1  0
 30 29  1  0
 31 32  1  0
 31 30  1  0
 32 28  1  0
 33 29  1  0
 33 34  2  0
 35 34  1  0
 36 35  2  0
 37 28  2  0
 37 36  1  0
 38 12  1  0
 38 39  1  0
 38 48  1  0
 39 42  1  0
 40 44  1  0
 40 39  1  0
 41 40  2  0
 44 43  1  0
 46 44  1  0
 46 47  1  0
 46 45  1  0
 48 51  1  1
 48 49  1  0
 50 48  1  0
 53 55  1  0
 53 52  2  0
 54 55  1  0
 55 57  1  0
 56 54  2  0
 58 54  1  0
 58 60  1  0
 59 60  1  0
 59 63  1  0
 60 62  1  0
 61 59  2  0
 63 72  1  0
 64 70  1  0
 65 70  1  0
 66 67  1  0
 66 65  1  0
 68 67  1  0
 68 77  1  0
 68 69  1  0
 70 69  1  0
 71 64  2  0
 72 64  1  0
 72 73  1  0
 74 75  2  0
 75 94  1  0
 76 75  1  0
 76 79  1  0
 77 78  1  0
 77 74  1  0
 78 76  2  0
 79 80  1  0
 80 81  2  0
 82 85  1  0
 82 81  1  0
 83 82  2  0
 84 83  1  0
 84 79  2  0
 85 86  1  0
 86 91  2  0
 86 87  1  0
 87 88  2  0
 88 89  1  0
 89 93  1  0
 90 89  2  0
 91 90  1  0
 92 91  1  0
 94 95  1  0
 95 98  1  0
 95 97  1  0
 96 94  2  0
 99 74  1  0
 99100  1  0
101 99  1  0
M  ISO  4  10 101  11 101  64 100  72 100
M  END
>  <TORSDO>  (7) 
F 28

>  <SCORE>  (7) 
-11.377

>  <name>  (7) 
6

>  <ligand_id>  (7) 
6

>  <original_smiles>  (7) 
[H]c1c([H])c([H])c2c(c1[H])C([H])([H])C([H])([H])C([H])([H])C2([H])N([H])C(=O)C1([H])N(C(=O)C([H])(N([H])C(=O)C([H])(N([H])C([H])([H])[H])C([H])([H])[H])C(C([H])([H])[H])(C([H])([H])[H])C([H])([H])[H])C([H])([H])c2c([H])c(OC([H])([H])C([H])([H])C(=O)N([H])C([H])([H])C([H])([H])C([H])([H])C([H])([H])C([H])([H])C([H])([H])N([H])C(=O)C([H])([H])N([H])C(=O)C([H])([H])N([H])C(=O)N3C([H])([H])C([H])([H])C([H])([H])C([H])(n4nc(-c5c([H])c([H])c(Oc6c([H])c([H])c(F)c([H])c6F)c([H])c5[H])c(C(=O)N([H])[H])c4N([H])[H])C3([H])[H])c([H])c([H])c2C1([H])[H]

>  <smiles>  (7) 
[H]c1c([H])c([H])c2c(c1[H])C([H])([H])C([H])([H])C([H])([H])C2([H])N([H])C(=O)C1([H])N(C(=O)C([H])(N([H])C(=O)C([H])(N([H])C([H])([H])[H])C([H])([H])[H])C(C([H])([H])[H])(C([H])([H])[H])C([H])([H])[H])C([H])([H])c2c([H])c(OC([H])([H])C([H])([H])C(=O)N([H])C([H])([H])C([H])([H])C([H])([H])C([H])([H])C([H])([H])C([H])([H])N([H])C(=O)C([H])([H])N([H])C(=O)C([H])([H])N([H])C(=O)N3C([H])([H])C([H])([H])C([H])([H])C([H])(n4nc(-c5c([H])c([H])c(Oc6c([H])c([H])c(F)c([H])c6F)c([H])c5[H])c(C(=O)N([H])[H])c4N([H])[H])C3([H])[H])c([H])c([H])c2C1([H])[H]

$$$$
7:0:0
     RDKit          3D

103110  0  0  1  0  0  0  0  0999 V2000
  -22.0550  -21.0230   24.6080 C   0  0  0  0  0  0  0  0  0  0  0  0
  -22.1510  -19.9420   23.8250 N   0  0  0  0  0  0  0  0  0  0  0  0
  -21.9040  -20.9540   25.8310 O   0  0  0  0  0  0  0  0  0  0  0  0
  -22.2670  -20.1010   22.8310 H   0  0  0  0  0  0  0  0  0  0  0  0
  -22.2150  -18.5590   24.2910 C   0  0  0  0  0  2  0  0  0  0  0  0
  -23.6370  -17.9680   24.1620 C   0  0  0  0  0  2  0  0  0  0  0  0
  -24.0310  -17.5960   22.7190 C   0  0  0  0  0  2  0  0  0  0  0  0
  -25.5460  -17.5180   22.4800 C   0  0  0  0  0  2  0  0  0  0  0  0
  -25.8570  -17.1570   21.0200 C   0  0  0  0  0  2  0  0  0  0  0  0
  -27.0150  -17.9660   20.4160 C   0  0  0  0  0  2  0  0  0  0  0  0
  -28.9240  -17.4020   18.9020 C   0  0  0  0  0  0  0  0  0  0  0  0
  -27.9290  -17.0650   19.7320 N   0  0  0  0  0  0  0  0  0  0  0  0
  -29.1070  -18.5560   18.5150 O   0  0  0  0  0  0  0  0  0  0  0  0
  -27.8210  -16.0790   19.9220 H   0  0  0  0  0  0  0  0  0  0  0  0
  -29.8840  -16.2880   18.4830 C   0  0  0  0  0  2  0  0  0  0  0  0
  -30.1670  -13.8650   19.0020 C   0  0  0  0  0  0  0  0  0  0  0  0
  -30.4310  -11.6270   19.9970 C   0  0  0  0  0  2  0  0  0  0  0  0
  -29.7070  -10.5110   19.2200 C   0  0  0  0  0  2  0  0  0  0  0  0
  -28.2370  -10.4060   19.6580 C   0  0  0  0  0  2  0  0  0  0  0  0
  -27.5090  -11.7770   19.6520 C   0  0  0  0  0  3  0  0  0  0  0  0
  -28.3450  -12.8420   20.4030 C   0  0  0  0  0  2  0  0  0  0  0  0
  -29.7020  -12.8910   19.8210 N   0  0  0  0  0  0  0  0  0  0  0  0
  -31.0990  -13.7190   18.2070 O   0  0  0  0  0  0  0  0  0  0  0  0
  -29.6330  -15.0620   19.2410 N   0  0  0  0  0  0  0  0  0  0  0  0
  -29.0080  -15.1300   20.0310 H   0  0  0  0  0  0  0  0  0  0  0  0
  -25.2370  -12.6590   20.5010 C   0  0  0  0  0  0  0  0  0  0  0  0
  -24.1060  -12.0120   20.9260 C   0  0  0  0  0  0  0  0  0  0  0  0
  -24.4030  -10.6160   20.8590 C   0  0  0  0  0  0  0  0  0  0  0  0
  -26.1590  -11.6640   20.2060 N   0  0  0  0  0  0  0  0  0  0  0  0
  -25.6600  -10.4300   20.4740 N   0  0  0  0  0  0  0  0  0  0  0  0
  -23.5480   -9.4430   21.0860 C   0  0  0  0  0  0  0  0  0  0  0  0
  -23.6560   -8.6720   22.2630 C   0  0  0  0  0  3  0  0  0  0  0  0
  -22.8180   -7.5540   22.4680 C   0  0  0  0  0  3  0  0  0  0  0  0
  -21.8550   -7.2010   21.4930 C   0  0  0  0  0  0  0  0  0  0  0  0
  -21.7680   -7.9610   20.3130 C   0  0  0  0  0  3  0  0  0  0  0  0
  -22.6050   -9.0700   20.1070 C   0  0  0  0  0  3  0  0  0  0  0  0
  -21.0110   -6.1230   21.5950 O   0  0  0  0  0  0  0  0  0  0  0  0
  -20.3790   -5.8120   22.7700 C   0  0  0  0  0  0  0  0  0  0  0  0
  -19.4470   -6.6850   23.3740 C   0  0  0  0  0  3  0  0  0  0  0  0
  -18.7760   -6.2940   24.5490 C   0  0  0  0  0  3  0  0  0  0  0  0
  -19.0210   -5.0280   25.1150 C   0  0  0  0  0  0  0  0  0  0  0  0
  -19.9420   -4.1540   24.5080 C   0  0  0  0  0  3  0  0  0  0  0  0
  -20.6180   -4.5460   23.3420 C   0  0  0  0  0  0  0  0  0  0  0  0
  -21.4920   -3.6960   22.7540 F   0  0  0  0  0  0  0  0  0  0  0  0
  -18.3640   -4.6460   26.2350 F   0  0  0  0  0  0  0  0  0  0  0  0
  -22.7910  -12.6430   21.2830 C   0  0  0  0  0  0  0  0  0  0  0  0
  -22.0360  -12.0160   22.1780 N   0  0  0  0  0  0  0  0  0  0  0  0
  -22.4470  -13.7210   20.7990 O   0  0  0  0  0  0  0  0  0  0  0  0
  -22.3350  -11.1410   22.5830 H   0  0  0  0  0  0  0  0  0  0  0  0
  -21.1490  -12.4060   22.4690 H   0  0  0  0  0  0  0  0  0  0  0  0
  -25.5550  -14.0010   20.3210 N   0  0  0  0  0  0  0  0  0  0  0  0
  -24.8860  -14.7410   20.4890 H   0  0  0  0  0  0  0  0  0  0  0  0
  -26.4330  -14.3360   19.9450 H   0  0  0  0  0  0  0  0  0  0  0  0
  -22.1930  -22.3860   23.9230 C   0  0  0  0  0  2  0  0  0  0  0  0
  -23.5740  -22.7320   23.8810 O   0  0  0  0  0  0  0  0  0  0  0  0
  -23.8290  -23.8350   23.0230 C   0  0  0  0  0  2  0  0  0  0  0  0
  -25.1650  -23.6230   22.2940 C   0  0  0  0  0  2  0  0  0  0  0  0
  -25.3000  -24.5110   21.0440 C   0  0  0  0  0  2  0  0  0  0  0  0
  -26.2920  -23.9380   20.0120 C   0  0  0  0  0  2  0  0  0  0  0  0
  -26.4310  -24.8070   18.7520 C   0  0  0  0  0  2  0  0  0  0  0  0
  -27.3020  -25.9370   19.0250 N   0  0  0  0  0  0  0  0  0  0  0  0
  -27.1010  -26.2860   19.9570 H   0  0  0  0  0  0  0  0  0  0  0  0
  -26.8470  -26.9750   18.1460 O   0  0  0  0  0  0  0  0  0  0  0  0
  -25.4290  -30.4470   24.1750 C   0  0  0  0  0  0  0  0  0  0  0  0
  -25.9700  -27.7640   18.8380 C   0  0  0  0  0  0  0  0  0  0  0  0
  -23.5430  -30.2280   22.5840 C   0  0  0  0  0  3  0  0  0  0  0  0
  -24.1530  -29.3780   20.2570 C   0  0  0  0  0  0  0  0  0  0  0  0
  -25.9580  -30.2580   21.7510 C   0  0  0  0  0  2  0  0  0  0  0  0
  -25.5100  -29.3770   20.6060 C   0  0  0  0  0  0  0  0  0  0  0  0
  -26.4240  -28.5690   19.9000 C   0  0  0  0  0  3  0  0  0  0  0  0
  -24.6030  -27.7630   18.4960 C   0  0  0  0  0  3  0  0  0  0  0  0
  -23.6900  -28.5670   19.2030 C   0  0  0  0  0  3  0  0  0  0  0  0
  -23.2440  -30.2800   21.0610 C   0  0  0  0  0  2  0  0  0  0  0  0
  -25.0100  -30.2920   22.8860 N   0  0  0  0  0  0  0  0  0  0  0  0
  -24.6150  -30.5830   25.0980 O   0  0  0  0  0  0  0  0  0  0  0  0
  -22.8510  -28.9810   23.1780 C   0  0  0  0  0  0  0  0  0  0  0  0
  -21.5680  -28.7890   22.8280 N   0  0  0  0  0  0  0  0  0  0  0  0
  -23.4680  -28.2000   23.9080 O   0  0  0  0  0  0  0  0  0  0  0  0
  -21.1330  -29.4770   22.2300 H   0  0  0  0  0  0  0  0  0  0  0  0
  -18.5320  -26.9980   22.0410 C   0  0  0  0  0  0  0  0  0  0  0  0
  -20.7250  -27.6650   23.2340 C   0  0  0  0  0  3  0  0  0  0  0  0
  -21.2970  -26.3250   22.7150 C   0  0  0  0  0  2  0  0  0  0  0  0
  -20.7110  -25.9050   21.3630 C   0  0  0  0  0  2  0  0  0  0  0  0
  -19.1900  -25.7580   21.4580 C   0  0  0  0  0  2  0  0  0  0  0  0
  -19.2570  -27.9020   22.8620 C   0  0  0  0  0  0  0  0  0  0  0  0
  -18.6080  -29.0570   23.3480 C   0  0  0  0  0  3  0  0  0  0  0  0
  -17.2610  -29.3130   23.0310 C   0  0  0  0  0  3  0  0  0  0  0  0
  -16.5440  -28.4070   22.2310 C   0  0  0  0  0  3  0  0  0  0  0  0
  -17.1780  -27.2510   21.7420 C   0  0  0  0  0  3  0  0  0  0  0  0
  -26.9450  -30.4870   24.5450 C   0  0  0  0  0  3  0  0  0  0  0  0
  -27.3890  -29.2960   25.4800 C   0  0  1  0  0  0  0  0  0  0  0  0
  -26.5090  -29.1350   26.7400 C   0  0  0  0  0  1  0  0  0  0  0  0
  -27.3580  -27.9570   24.7050 C   0  0  0  0  0  1  0  0  0  0  0  0
  -28.8500  -29.5080   25.9410 C   0  0  0  0  0  1  0  0  0  0  0  0
  -27.2080  -31.7790   25.1890 N   0  0  0  0  0  0  0  0  0  0  0  0
  -27.8270  -32.8110   24.5970 C   0  0  0  0  0  0  0  0  0  0  0  0
  -28.3020  -32.7440   23.4600 O   0  0  0  0  0  0  0  0  0  0  0  0
  -26.8010  -31.9230   26.1000 H   0  0  0  0  0  0  0  0  0  0  0  0
  -26.8680  -35.1150   24.8900 C   0  0  0  0  0  1  0  0  0  0  0  0
  -27.9320  -34.1260   25.3920 C   0  0  0  0  0  3  0  0  0  0  0  0
  -30.3020  -33.9890   26.0170 C   0  0  0  0  0  1  0  0  0  0  0  0
  -29.2700  -34.7510   25.3190 N   0  0  0  0  0  0  0  0  0  0  0  0
  -29.2520  -35.6890   25.7090 H   0  0  0  0  0  0  0  0  0  0  0  0
  1  3  2  0
  2  5  1  0
  2  1  1  0
  4  2  1  0
  6  5  1  0
  7  6  1  0
  8  7  1  0
  9  8  1  0
 10  9  1  0
 11 12  1  0
 12 14  1  0
 12 10  1  0
 13 11  2  0
 15 11  1  0
 15 24  1  0
 16 24  1  0
 16 22  1  0
 18 19  1  0
 18 17  1  0
 20 19  1  0
 20 29  1  0
 20 21  1  0
 22 17  1  0
 22 21  1  0
 23 16  2  0
 24 25  1  0
 26 27  2  0
 27 46  1  0
 28 27  1  0
 28 31  1  0
 29 30  1  0
 29 26  1  0
 30 28  2  0
 31 32  1  0
 32 33  2  0
 34 37  1  0
 34 33  1  0
 35 34  2  0
 36 35  1  0
 36 31  2  0
 37 38  1  0
 38 43  2  0
 38 39  1  0
 39 40  2  0
 40 41  1  0
 41 45  1  0
 42 41  2  0
 43 42  1  0
 44 43  1  0
 46 47  1  0
 47 50  1  0
 47 49  1  0
 48 46  2  0
 51 52  1  0
 51 26  1  0
 53 51  1  0
 54  1  1  0
 55 54  1  0
 56 55  1  0
 57 56  1  0
 58 57  1  0
 59 58  1  0
 60 61  1  0
 60 59  1  0
 61 62  1  0
 63 65  1  0
 63 61  1  0
 64 75  2  0
 65 70  1  0
 66 74  1  0
 66 76  1  0
 67 69  1  0
 67 73  1  0
 68 74  1  0
 69 68  1  0
 70 69  2  0
 71 65  2  0
 71 72  1  0
 72 67  2  0
 73 66  1  0
 74 64  1  0
 76 78  2  0
 77 76  1  0
 79 77  1  0
 80 85  1  0
 81 77  1  0
 82 81  1  0
 83 84  1  0
 83 82  1  0
 84 80  1  0
 85 81  1  0
 85 86  2  0
 87 86  1  0
 88 87  2  0
 89 80  2  0
 89 88  1  0
 90 64  1  0
 90 95  1  0
 90 91  1  0
 91 94  1  1
 91 92  1  0
 93 91  1  0
 95 98  1  0
 96 95  1  0
 96100  1  0
 97 96  2  0
100 99  1  0
102100  1  0
102103  1  0
102101  1  0
M  ISO  4  16 100  24 100  61 101  63 101
M  END
>  <TORSDO>  (8) 
F 32

>  <SCORE>  (8) 
34.179

>  <name>  (8) 
7

>  <ligand_id>  (8) 
7

>  <original_smiles>  (8) 
[H]c1c([H])c([H])c2c(c1[H])C([H])([H])C([H])([H])C([H])([H])C2([H])N([H])C(=O)C1([H])N(C(=O)C([H])(N([H])C(=O)C([H])(N([H])C([H])([H])[H])C([H])([H])[H])C(C([H])([H])[H])(C([H])([H])[H])C([H])([H])[H])C([H])([H])c2c([H])c(ON([H])C([H])([H])C([H])([H])C([H])([H])C([H])([H])C([H])([H])OC([H])([H])C(=O)N([H])C([H])([H])C([H])([H])C([H])([H])C([H])([H])C([H])([H])C([H])([H])N([H])C(=O)C([H])([H])N([H])C(=O)N3C([H])([H])C([H])([H])C([H])([H])C([H])(n4nc(-c5c([H])c([H])c(Oc6c([H])c([H])c(F)c([H])c6F)c([H])c5[H])c(C(=O)N([H])[H])c4N([H])[H])C3([H])[H])c([H])c([H])c2C1([H])[H]

>  <smiles>  (8) 
[H]c1c([H])c([H])c2c(c1[H])C([H])([H])C([H])([H])C([H])([H])C2([H])N([H])C(=O)C1([H])N(C(=O)C([H])(N([H])C(=O)C([H])(N([H])C([H])([H])[H])C([H])([H])[H])C(C([H])([H])[H])(C([H])([H])[H])C([H])([H])[H])C([H])([H])c2c([H])c(ON([H])C([H])([H])C([H])([H])C([H])([H])C([H])([H])C([H])([H])OC([H])([H])C(=O)N([H])C([H])([H])C([H])([H])C([H])([H])C([H])([H])C([H])([H])C([H])([H])N([H])C(=O)C([H])([H])N([H])C(=O)N3C([H])([H])C([H])([H])C([H])([H])C([H])(n4nc(-c5c([H])c([H])c(Oc6c([H])c([H])c(F)c([H])c6F)c([H])c5[H])c(C(=O)N([H])[H])c4N([H])[H])C3([H])[H])c([H])c([H])c2C1([H])[H]

$$$$
8:0:0
     RDKit          3D

100107  0  0  1  0  0  0  0  0999 V2000
  -32.6700  -24.8950   18.2990 C   0  0  0  0  0  0  0  0  0  0  0  0
  -31.5780  -24.1390   18.1300 N   0  0  0  0  0  0  0  0  0  0  0  0
  -33.5470  -25.0070   17.4430 O   0  0  0  0  0  0  0  0  0  0  0  0
  -30.9230  -24.1140   18.9010 H   0  0  0  0  0  0  0  0  0  0  0  0
  -32.7800  -25.6800   19.6090 C   0  0  0  0  0  2  0  0  0  0  0  0
  -30.5660  -25.9450   20.7320 C   0  0  0  0  0  0  0  0  0  0  0  0
  -31.5440  -26.3920   19.9360 N   0  0  0  0  0  0  0  0  0  0  0  0
  -30.5860  -24.8150   21.2290 O   0  0  0  0  0  0  0  0  0  0  0  0
  -31.4210  -27.3020   19.5130 H   0  0  0  0  0  0  0  0  0  0  0  0
  -29.3990  -26.8960   20.9980 C   0  0  0  0  0  2  0  0  0  0  0  0
  -28.3760  -26.6500   20.0370 O   0  0  0  0  0  0  0  0  0  0  0  0
  -24.5970  -31.8420   23.1880 C   0  0  0  0  0  0  0  0  0  0  0  0
  -27.2320  -27.4160   20.1110 C   0  0  0  0  0  0  0  0  0  0  0  0
  -23.3750  -30.4380   21.5530 C   0  0  0  0  0  3  0  0  0  0  0  0
  -24.8180  -28.8910   20.1290 C   0  0  0  0  0  0  0  0  0  0  0  0
  -25.8930  -30.7990   21.3390 C   0  0  0  0  0  2  0  0  0  0  0  0
  -25.9720  -29.4240   20.7160 C   0  0  0  0  0  0  0  0  0  0  0  0
  -27.1740  -28.6920   20.7190 C   0  0  0  0  0  3  0  0  0  0  0  0
  -26.0660  -26.8930   19.5170 C   0  0  0  0  0  3  0  0  0  0  0  0
  -24.8580  -27.6170   19.5310 C   0  0  0  0  0  3  0  0  0  0  0  0
  -23.5740  -29.7490   20.1730 C   0  0  0  0  0  2  0  0  0  0  0  0
  -24.6390  -31.0410   22.0860 N   0  0  0  0  0  0  0  0  0  0  0  0
  -23.5210  -32.1160   23.7350 O   0  0  0  0  0  0  0  0  0  0  0  0
  -22.7290  -29.4230   22.5220 C   0  0  0  0  0  0  0  0  0  0  0  0
  -21.4010  -29.2560   22.4110 N   0  0  0  0  0  0  0  0  0  0  0  0
  -23.4150  -28.7880   23.3260 O   0  0  0  0  0  0  0  0  0  0  0  0
  -20.9080  -29.8170   21.7320 H   0  0  0  0  0  0  0  0  0  0  0  0
  -18.0190  -28.1130   22.9470 C   0  0  0  0  0  0  0  0  0  0  0  0
  -20.5830  -28.3270   23.1890 C   0  0  0  0  0  3  0  0  0  0  0  0
  -20.6550  -26.8990   22.6040 C   0  0  0  0  0  2  0  0  0  0  0  0
  -19.5350  -26.5990   21.6030 C   0  0  0  0  0  2  0  0  0  0  0  0
  -18.1640  -26.7650   22.2650 C   0  0  0  0  0  2  0  0  0  0  0  0
  -19.1540  -28.8550   23.3680 C   0  0  0  0  0  0  0  0  0  0  0  0
  -18.9640  -30.1210   23.9630 C   0  0  0  0  0  3  0  0  0  0  0  0
  -17.6700  -30.6420   24.1480 C   0  0  0  0  0  3  0  0  0  0  0  0
  -16.5470  -29.8970   23.7440 C   0  0  0  0  0  3  0  0  0  0  0  0
  -16.7240  -28.6350   23.1480 C   0  0  0  0  0  3  0  0  0  0  0  0
  -25.8910  -32.4650   23.7990 C   0  0  0  0  0  3  0  0  0  0  0  0
  -25.5860  -33.8580   24.1490 N   0  0  0  0  0  0  0  0  0  0  0  0
  -25.9110  -34.9170   23.3970 C   0  0  0  0  0  0  0  0  0  0  0  0
  -26.5690  -34.8260   22.3570 O   0  0  0  0  0  0  0  0  0  0  0  0
  -25.0000  -34.0030   24.9590 H   0  0  0  0  0  0  0  0  0  0  0  0
  -24.1730  -36.7050   23.0870 C   0  0  0  0  0  1  0  0  0  0  0  0
  -25.4280  -36.3000   23.8760 C   0  0  0  0  0  3  0  0  0  0  0  0
  -27.5760  -37.1770   24.6770 C   0  0  0  0  0  1  0  0  0  0  0  0
  -26.4560  -37.3560   23.7570 N   0  0  0  0  0  0  0  0  0  0  0  0
  -26.0510  -38.2730   23.9250 H   0  0  0  0  0  0  0  0  0  0  0  0
  -26.4270  -31.6770   25.0560 C   0  0  1  0  0  0  0  0  0  0  0  0
  -25.3500  -31.4270   26.1390 C   0  0  0  0  0  1  0  0  0  0  0  0
  -27.0020  -30.3070   24.6290 C   0  0  0  0  0  1  0  0  0  0  0  0
  -27.5900  -32.4600   25.7080 C   0  0  0  0  0  1  0  0  0  0  0  0
  -31.2550  -23.3550   16.9410 C   0  0  0  0  0  2  0  0  0  0  0  0
  -31.1410  -21.8580   17.2630 C   0  0  0  0  0  2  0  0  0  0  0  0
  -29.9380  -21.4980   18.1510 C   0  0  0  0  0  2  0  0  0  0  0  0
  -29.6490  -19.9850   18.1420 C   0  0  0  0  0  2  0  0  0  0  0  0
  -28.3370  -19.6040   18.8510 C   0  0  0  0  0  2  0  0  0  0  0  0
  -28.3980  -19.6220   20.3910 C   0  0  0  0  0  2  0  0  0  0  0  0
  -29.3590  -17.3930   20.9460 C   0  0  0  0  0  0  0  0  0  0  0  0
  -29.4220  -18.7290   20.9310 N   0  0  0  0  0  0  0  0  0  0  0  0
  -28.4050  -16.7700   20.4730 O   0  0  0  0  0  0  0  0  0  0  0  0
  -30.2320  -19.1630   21.3550 H   0  0  0  0  0  0  0  0  0  0  0  0
  -30.5310  -16.6500   21.6010 C   0  0  0  0  0  2  0  0  0  0  0  0
  -30.7700  -14.4260   20.5300 C   0  0  0  0  0  0  0  0  0  0  0  0
  -30.4390  -12.3150   19.3000 C   0  0  0  0  0  2  0  0  0  0  0  0
  -29.5080  -12.5210   18.0900 C   0  0  0  0  0  2  0  0  0  0  0  0
  -28.0320  -12.3770   18.5050 C   0  0  0  0  0  2  0  0  0  0  0  0
  -27.6830  -13.2360   19.7470 C   0  0  0  0  0  3  0  0  0  0  0  0
  -28.7150  -13.0090   20.8750 C   0  0  0  0  0  2  0  0  0  0  0  0
  -30.0670  -13.2800   20.3430 N   0  0  0  0  0  0  0  0  0  0  0  0
  -31.7630  -14.7380   19.8640 O   0  0  0  0  0  0  0  0  0  0  0  0
  -30.3140  -15.2080   21.5130 N   0  0  0  0  0  0  0  0  0  0  0  0
  -29.5190  -14.8540   22.0220 H   0  0  0  0  0  0  0  0  0  0  0  0
  -25.2710  -13.8650   20.4040 C   0  0  0  0  0  0  0  0  0  0  0  0
  -24.1960  -13.1010   20.7740 C   0  0  0  0  0  0  0  0  0  0  0  0
  -24.6550  -11.7480   20.7770 C   0  0  0  0  0  0  0  0  0  0  0  0
  -26.3200  -12.9790   20.2100 N   0  0  0  0  0  0  0  0  0  0  0  0
  -25.9490  -11.7010   20.4860 N   0  0  0  0  0  0  0  0  0  0  0  0
  -23.9240  -10.4900   20.9830 C   0  0  0  0  0  0  0  0  0  0  0  0
  -24.3560   -9.5330   21.9270 C   0  0  0  0  0  3  0  0  0  0  0  0
  -23.6290   -8.3390   22.1190 C   0  0  0  0  0  3  0  0  0  0  0  0
  -22.4560   -8.0940   21.3670 C   0  0  0  0  0  0  0  0  0  0  0  0
  -22.0440   -9.0390   20.4130 C   0  0  0  0  0  3  0  0  0  0  0  0
  -22.7700  -10.2250   20.2190 C   0  0  0  0  0  3  0  0  0  0  0  0
  -21.6990   -6.9510   21.4680 O   0  0  0  0  0  0  0  0  0  0  0  0
  -21.6610   -6.2130   22.6240 C   0  0  0  0  0  0  0  0  0  0  0  0
  -21.2660   -6.7790   23.8560 C   0  0  0  0  0  3  0  0  0  0  0  0
  -21.1730   -5.9680   25.0040 C   0  0  0  0  0  3  0  0  0  0  0  0
  -21.4640   -4.5930   24.9220 C   0  0  0  0  0  0  0  0  0  0  0  0
  -21.8510   -4.0270   23.6960 C   0  0  0  0  0  3  0  0  0  0  0  0
  -21.9460   -4.8350   22.5480 C   0  0  0  0  0  0  0  0  0  0  0  0
  -22.2990   -4.2810   21.3640 F   0  0  0  0  0  0  0  0  0  0  0  0
  -21.3660   -3.8120   26.0230 F   0  0  0  0  0  0  0  0  0  0  0  0
  -22.7950  -13.5850   21.0250 C   0  0  0  0  0  0  0  0  0  0  0  0
  -22.0610  -12.9080   21.9010 N   0  0  0  0  0  0  0  0  0  0  0  0
  -22.3620  -14.5990   20.4800 O   0  0  0  0  0  0  0  0  0  0  0  0
  -22.4240  -12.0880   22.3640 H   0  0  0  0  0  0  0  0  0  0  0  0
  -21.1240  -13.2160   22.1130 H   0  0  0  0  0  0  0  0  0  0  0  0
  -25.4440  -15.2310   20.2040 N   0  0  0  0  0  0  0  0  0  0  0  0
  -24.6840  -15.8970   20.2770 H   0  0  0  0  0  0  0  0  0  0  0  0
  -26.3390  -15.6700   20.0020 H   0  0  0  0  0  0  0  0  0  0  0  0
  1  5  1  0
  2  1  1  0
  2  4  1  0
  3  1  2  0
  5  7  1  0
  6 10  1  0
  6  8  2  0
  7  6  1  0
  9  7  1  0
 11 13  1  0
 11 10  1  0
 12 23  2  0
 13 18  1  0
 14 22  1  0
 14 24  1  0
 15 21  1  0
 15 17  1  0
 16 22  1  0
 17 18  2  0
 17 16  1  0
 19 20  1  0
 19 13  2  0
 20 15  2  0
 21 14  1  0
 22 12  1  0
 24 26  2  0
 25 24  1  0
 27 25  1  0
 28 37  2  0
 28 33  1  0
 29 25  1  0
 29 33  1  0
 30 29  1  0
 31 32  1  0
 31 30  1  0
 32 28  1  0
 33 34  2  0
 34 35  1  0
 36 35  2  0
 37 36  1  0
 38 12  1  0
 38 39  1  0
 38 48  1  0
 39 42  1  0
 40 44  1  0
 40 39  1  0
 41 40  2  0
 44 43  1  0
 46 44  1  0
 46 47  1  0
 46 45  1  0
 48 51  1  1
 48 49  1  0
 50 48  1  0
 52 53  1  0
 52  2  1  0
 53 54  1  0
 55 54  1  0
 55 56  1  0
 56 57  1  0
 57 59  1  0
 58 62  1  0
 59 58  1  0
 59 61  1  0
 60 58  2  0
 63 71  1  0
 64 69  1  0
 65 66  1  0
 65 64  1  0
 67 66  1  0
 67 76  1  0
 67 68  1  0
 69 63  1  0
 69 68  1  0
 70 63  2  0
 71 62  1  0
 71 72  1  0
 73 74  2  0
 74 75  1  0
 74 93  1  0
 75 78  1  0
 76 73  1  0
 76 77  1  0
 77 75  2  0
 78 79  1  0
 79 80  2  0
 81 84  1  0
 81 80  1  0
 82 81  2  0
 83 82  1  0
 83 78  2  0
 84 85  1  0
 85 86  1  0
 86 87  2  0
 88 87  1  0
 88 92  1  0
 89 88  2  0
 90 85  2  0
 90 89  1  0
 91 90  1  0
 93 94  1  0
 94 97  1  0
 94 96  1  0
 95 93  2  0
 98 99  1  0
 98 73  1  0
100 98  1  0
M  ISO  4  10 101  11 101  63 100  71 100
M  END
>  <TORSDO>  (9) 
F 27

>  <SCORE>  (9) 
-11.946

>  <name>  (9) 
8

>  <ligand_id>  (9) 
8

>  <original_smiles>  (9) 
[H]c1c([H])c([H])c2c(c1[H])C([H])([H])C([H])([H])C([H])([H])C2([H])N([H])C(=O)C1([H])N(C(=O)C([H])(N([H])C(=O)C([H])(N([H])C([H])([H])[H])C([H])([H])[H])C(C([H])([H])[H])(C([H])([H])[H])C([H])([H])[H])C([H])([H])c2c([H])c(OC([H])([H])C(=O)N([H])C([H])([H])C(=O)N([H])C([H])([H])C([H])([H])C([H])([H])C([H])([H])C([H])([H])C([H])([H])N([H])C(=O)C([H])([H])N([H])C(=O)N3C([H])([H])C([H])([H])C([H])([H])C([H])(n4nc(-c5c([H])c([H])c(Oc6c([H])c([H])c(F)c([H])c6F)c([H])c5[H])c(C(=O)N([H])[H])c4N([H])[H])C3([H])[H])c([H])c([H])c2C1([H])[H]

>  <smiles>  (9) 
[H]c1c([H])c([H])c2c(c1[H])C([H])([H])C([H])([H])C([H])([H])C2([H])N([H])C(=O)C1([H])N(C(=O)C([H])(N([H])C(=O)C([H])(N([H])C([H])([H])[H])C([H])([H])[H])C(C([H])([H])[H])(C([H])([H])[H])C([H])([H])[H])C([H])([H])c2c([H])c(OC([H])([H])C(=O)N([H])C([H])([H])C(=O)N([H])C([H])([H])C([H])([H])C([H])([H])C([H])([H])C([H])([H])C([H])([H])N([H])C(=O)C([H])([H])N([H])C(=O)N3C([H])([H])C([H])([H])C([H])([H])C([H])(n4nc(-c5c([H])c([H])c(Oc6c([H])c([H])c(F)c([H])c6F)c([H])c5[H])c(C(=O)N([H])[H])c4N([H])[H])C3([H])[H])c([H])c([H])c2C1([H])[H]

$$$$
9:0:0
     RDKit          3D

 99106  0  0  1  0  0  0  0  0999 V2000
  -30.3520  -20.7100   21.2610 N   0  0  0  0  0  0  0  0  0  0  0  0
  -30.7430  -20.9530   22.1670 H   0  0  0  0  0  0  0  0  0  0  0  0
  -29.4200  -21.7600   20.8500 C   0  0  0  0  0  2  0  0  0  0  0  0
  -30.2020  -23.0430   20.4970 C   0  0  0  0  0  2  0  0  0  0  0  0
  -29.3190  -24.0950   19.9590 N   0  0  0  0  0  4  0  0  0  0  0  0
  -28.7300  -24.4380   20.7040 H   0  0  0  0  0  0  0  0  0  0  0  0
  -28.7210  -23.6840   19.2590 H   0  0  0  0  0  0  0  0  0  0  0  0
  -30.0260  -25.2530   19.3630 C   0  0  0  0  0  2  0  0  0  0  0  0
  -29.0340  -26.3580   18.9780 C   0  0  0  0  0  2  0  0  0  0  0  0
  -28.5630  -26.9430   20.1900 O   0  0  0  0  0  0  0  0  0  0  0  0
  -24.6170  -31.9560   23.2850 C   0  0  0  0  0  0  0  0  0  0  0  0
  -27.3630  -27.6140   20.1650 C   0  0  0  0  0  0  0  0  0  0  0  0
  -23.4420  -30.5420   21.6290 C   0  0  0  0  0  3  0  0  0  0  0  0
  -24.9270  -29.0430   20.2010 C   0  0  0  0  0  0  0  0  0  0  0  0
  -25.9580  -30.9540   21.4410 C   0  0  0  0  0  2  0  0  0  0  0  0
  -26.0700  -29.5900   20.7960 C   0  0  0  0  0  0  0  0  0  0  0  0
  -27.2850  -28.8750   20.7900 C   0  0  0  0  0  3  0  0  0  0  0  0
  -26.1970  -27.0630   19.5840 C   0  0  0  0  0  3  0  0  0  0  0  0
  -24.9820  -27.7730   19.6010 C   0  0  0  0  0  3  0  0  0  0  0  0
  -23.6680  -29.8760   20.2440 C   0  0  0  0  0  2  0  0  0  0  0  0
  -24.6900  -31.1640   22.1760 N   0  0  0  0  0  0  0  0  0  0  0  0
  -23.5310  -32.2050   23.8220 O   0  0  0  0  0  0  0  0  0  0  0  0
  -22.8070  -29.5030   22.5780 C   0  0  0  0  0  0  0  0  0  0  0  0
  -21.4870  -29.2930   22.4400 N   0  0  0  0  0  0  0  0  0  0  0  0
  -23.4970  -28.8870   23.3940 O   0  0  0  0  0  0  0  0  0  0  0  0
  -20.9890  -29.8420   21.7540 H   0  0  0  0  0  0  0  0  0  0  0  0
  -18.1360  -28.0370   22.9070 C   0  0  0  0  0  0  0  0  0  0  0  0
  -20.6850  -28.3370   23.2000 C   0  0  0  0  0  3  0  0  0  0  0  0
  -20.8170  -26.9110   22.6160 C   0  0  0  0  0  2  0  0  0  0  0  0
  -19.7290  -26.5770   21.5910 C   0  0  0  0  0  2  0  0  0  0  0  0
  -18.3400  -26.6940   22.2270 C   0  0  0  0  0  2  0  0  0  0  0  0
  -19.2360  -28.8160   23.3500 C   0  0  0  0  0  0  0  0  0  0  0  0
  -18.9930  -30.0730   23.9450 C   0  0  0  0  0  3  0  0  0  0  0  0
  -17.6790  -30.5520   24.1020 C   0  0  0  0  0  3  0  0  0  0  0  0
  -16.5910  -29.7700   23.6760 C   0  0  0  0  0  3  0  0  0  0  0  0
  -16.8210  -28.5160   23.0860 C   0  0  0  0  0  3  0  0  0  0  0  0
  -25.8910  -32.6030   23.9110 C   0  0  0  0  0  3  0  0  0  0  0  0
  -25.5700  -34.0030   24.2160 N   0  0  0  0  0  0  0  0  0  0  0  0
  -25.9120  -35.0460   23.4450 C   0  0  0  0  0  0  0  0  0  0  0  0
  -26.6020  -34.9300   22.4290 O   0  0  0  0  0  0  0  0  0  0  0  0
  -24.9590  -34.1650   25.0020 H   0  0  0  0  0  0  0  0  0  0  0  0
  -24.1780  -36.8170   23.0310 C   0  0  0  0  0  1  0  0  0  0  0  0
  -25.4070  -36.4370   23.8720 C   0  0  0  0  0  3  0  0  0  0  0  0
  -27.5320  -37.3400   24.7110 C   0  0  0  0  0  1  0  0  0  0  0  0
  -26.4360  -37.4950   23.7580 N   0  0  0  0  0  0  0  0  0  0  0  0
  -26.0220  -38.4130   23.8990 H   0  0  0  0  0  0  0  0  0  0  0  0
  -26.4000  -31.8520   25.2020 C   0  0  1  0  0  0  0  0  0  0  0  0
  -25.2900  -31.5920   26.2460 C   0  0  0  0  0  1  0  0  0  0  0  0
  -27.0270  -30.4880   24.8260 C   0  0  0  0  0  1  0  0  0  0  0  0
  -27.5150  -32.6790   25.8840 C   0  0  0  0  0  1  0  0  0  0  0  0
  -29.8130  -19.3290   21.2870 C   0  0  0  0  0  3  0  0  0  0  0  0
  -29.3040  -18.8160   19.9230 C   0  0  0  0  0  0  0  0  0  0  0  0
  -28.0560  -18.3350   19.8970 N   0  0  0  0  0  0  0  0  0  0  0  0
  -30.0320  -18.8600   18.9290 O   0  0  0  0  0  0  0  0  0  0  0  0
  -27.5290  -18.3800   20.7610 H   0  0  0  0  0  0  0  0  0  0  0  0
  -27.5440  -16.1490   18.9020 C   0  0  0  0  0  1  0  0  0  0  0  0
  -27.4170  -17.6720   18.7680 C   0  0  0  0  0  2  0  0  0  0  0  0
  -30.8880  -18.3790   21.8660 C   0  0  0  0  0  2  0  0  0  0  0  0
  -30.3500  -17.0450   22.4360 C   0  0  0  0  0  2  0  0  0  0  0  0
  -31.4460  -15.9910   22.6710 C   0  0  0  0  0  2  0  0  0  0  0  0
  -31.8410  -15.1790   21.4230 C   0  0  0  0  0  2  0  0  0  0  0  0
  -30.7070  -13.8080   19.6980 C   0  0  0  0  0  0  0  0  0  0  0  0
  -30.0800  -11.7370   18.5190 C   0  0  0  0  0  2  0  0  0  0  0  0
  -28.9990  -11.9320   17.4440 C   0  0  0  0  0  2  0  0  0  0  0  0
  -27.5950  -11.8320   18.0670 C   0  0  0  0  0  2  0  0  0  0  0  0
  -27.4390  -12.7190   19.3320 C   0  0  0  0  0  3  0  0  0  0  0  0
  -28.6210  -12.5310   20.3100 C   0  0  0  0  0  2  0  0  0  0  0  0
  -29.8850  -12.7340   19.5790 N   0  0  0  0  0  0  0  0  0  0  0  0
  -31.5180  -14.1410   18.8280 O   0  0  0  0  0  0  0  0  0  0  0  0
  -30.7470  -14.3390   20.9280 N   0  0  0  0  0  0  0  0  0  0  0  0
  -30.0850  -13.9870   21.6020 H   0  0  0  0  0  0  0  0  0  0  0  0
  -25.1860  -13.3970   20.3820 C   0  0  0  0  0  0  0  0  0  0  0  0
  -24.1480  -12.6590   20.8830 C   0  0  0  0  0  0  0  0  0  0  0  0
  -24.5400  -11.2920   20.7550 C   0  0  0  0  0  0  0  0  0  0  0  0
  -26.1520  -12.4850   19.9890 N   0  0  0  0  0  0  0  0  0  0  0  0
  -25.7720  -11.2100   20.2640 N   0  0  0  0  0  0  0  0  0  0  0  0
  -23.7940  -10.0540   21.0200 C   0  0  0  0  0  0  0  0  0  0  0  0
  -24.2880   -9.0670   21.9000 C   0  0  0  0  0  3  0  0  0  0  0  0
  -23.5420   -7.8960   22.1530 C   0  0  0  0  0  3  0  0  0  0  0  0
  -22.2870   -7.7040   21.5270 C   0  0  0  0  0  0  0  0  0  0  0  0
  -21.8100   -8.6800   20.6360 C   0  0  0  0  0  3  0  0  0  0  0  0
  -22.5560   -9.8430   20.3800 C   0  0  0  0  0  3  0  0  0  0  0  0
  -21.5080   -6.5850   21.6920 O   0  0  0  0  0  0  0  0  0  0  0  0
  -21.5370   -5.8520   22.8510 C   0  0  0  0  0  0  0  0  0  0  0  0
  -21.2300   -6.4260   24.1050 C   0  0  0  0  0  3  0  0  0  0  0  0
  -21.1990   -5.6190   25.2600 C   0  0  0  0  0  3  0  0  0  0  0  0
  -21.4700   -4.2410   25.1640 C   0  0  0  0  0  0  0  0  0  0  0  0
  -21.7740   -3.6670   23.9170 C   0  0  0  0  0  3  0  0  0  0  0  0
  -21.8020   -4.4710   22.7630 C   0  0  0  0  0  0  0  0  0  0  0  0
  -22.0730   -3.9090   21.5600 F   0  0  0  0  0  0  0  0  0  0  0  0
  -21.4360   -3.4640   26.2720 F   0  0  0  0  0  0  0  0  0  0  0  0
  -22.8270  -13.1850   21.3640 C   0  0  0  0  0  0  0  0  0  0  0  0
  -22.2060  -12.5020   22.3190 N   0  0  0  0  0  0  0  0  0  0  0  0
  -22.3620  -14.2390   20.9320 O   0  0  0  0  0  0  0  0  0  0  0  0
  -22.6000  -11.6540   22.6980 H   0  0  0  0  0  0  0  0  0  0  0  0
  -21.3240  -12.8390   22.6780 H   0  0  0  0  0  0  0  0  0  0  0  0
  -25.3800  -14.7640   20.2090 N   0  0  0  0  0  0  0  0  0  0  0  0
  -24.6610  -15.4370   20.4510 H   0  0  0  0  0  0  0  0  0  0  0  0
  -26.2040  -15.1890   19.8060 H   0  0  0  0  0  0  0  0  0  0  0  0
  1 51  1  0
  1  2  1  0
  3  1  1  0
  4  3  1  0
  5  4  1  0
  5  6  1  0
  7  5  1  0
  8  5  1  0
  9  8  1  0
  9 10  1  0
 11 22  2  0
 12 10  1  0
 12 17  1  0
 13 21  1  0
 13 23  1  0
 14 20  1  0
 14 16  1  0
 15 21  1  0
 16 15  1  0
 17 16  2  0
 18 19  1  0
 18 12  2  0
 19 14  2  0
 20 13  1  0
 21 11  1  0
 23 25  2  0
 24 23  1  0
 26 24  1  0
 27 36  2  0
 27 32  1  0
 28 24  1  0
 28 32  1  0
 29 28  1  0
 30 31  1  0
 30 29  1  0
 31 27  1  0
 32 33  2  0
 33 34  1  0
 35 34  2  0
 36 35  1  0
 37 11  1  0
 37 38  1  0
 37 47  1  0
 38 41  1  0
 39 43  1  0
 39 38  1  0
 40 39  2  0
 43 42  1  0
 45 43  1  0
 45 46  1  0
 45 44  1  0
 47 50  1  1
 47 48  1  0
 49 47  1  0
 51 58  1  0
 52 51  1  0
 53 52  1  0
 53 55  1  0
 54 52  2  0
 57 56  1  0
 57 53  1  0
 58 59  1  0
 59 60  1  0
 61 60  1  0
 62 70  1  0
 63 68  1  0
 64 65  1  0
 64 63  1  0
 66 65  1  0
 66 75  1  0
 66 67  1  0
 68 62  1  0
 68 67  1  0
 69 62  2  0
 70 61  1  0
 70 71  1  0
 72 73  2  0
 73 92  1  0
 74 73  1  0
 74 77  1  0
 75 76  1  0
 75 72  1  0
 76 74  2  0
 77 78  1  0
 78 79  2  0
 80 83  1  0
 80 79  1  0
 81 80  2  0
 82 81  1  0
 82 77  2  0
 83 84  1  0
 84 85  1  0
 85 86  2  0
 87 86  1  0
 87 91  1  0
 88 87  2  0
 89 84  2  0
 89 88  1  0
 90 89  1  0
 92 93  1  0
 93 96  1  0
 93 95  1  0
 94 92  2  0
 97 72  1  0
 97 98  1  0
 99 97  1  0
M  ISO  4   9 101  10 101  62 100  70 100
M  END
>  <TORSDO>  (10) 
F 28

>  <SCORE>  (10) 
-9.328

>  <name>  (10) 
9

>  <ligand_id>  (10) 
9

>  <original_smiles>  (10) 
[H]c1c([H])c([H])c2c(c1[H])C([H])([H])C([H])([H])C([H])([H])C2([H])N([H])C(=O)C1([H])N(C(=O)C([H])(N([H])C(=O)C([H])(N([H])C([H])([H])[H])C([H])([H])[H])C(C([H])([H])[H])(C([H])([H])[H])C([H])([H])[H])C([H])([H])c2c([H])c(OC([H])([H])C([H])([H])[N+]([H])([H])C([H])([H])C([H])([H])N([H])C([H])(C(=O)N([H])C([H])([H])C([H])([H])[H])C([H])([H])C([H])([H])C([H])([H])C([H])([H])N([H])C(=O)N3C([H])([H])C([H])([H])C([H])([H])C([H])(n4nc(-c5c([H])c([H])c(Oc6c([H])c([H])c(F)c([H])c6F)c([H])c5[H])c(C(=O)N([H])[H])c4N([H])[H])C3([H])[H])c([H])c([H])c2C1([H])[H]

>  <smiles>  (10) 
[H]c1c([H])c([H])c2c(c1[H])C([H])([H])C([H])([H])C([H])([H])C2([H])N([H])C(=O)C1([H])N(C(=O)C([H])(N([H])C(=O)C([H])(N([H])C([H])([H])[H])C([H])([H])[H])C(C([H])([H])[H])(C([H])([H])[H])C([H])([H])[H])C([H])([H])c2c([H])c(OC([H])([H])C([H])([H])[N+]([H])([H])C([H])([H])C([H])([H])N([H])C([H])(C(=O)N([H])C([H])([H])C([H])([H])[H])C([H])([H])C([H])([H])C([H])([H])C([H])([H])N([H])C(=O)N3C([H])([H])C([H])([H])C([H])([H])C([H])(n4nc(-c5c([H])c([H])c(Oc6c([H])c([H])c(F)c([H])c6F)c([H])c5[H])c(C(=O)N([H])[H])c4N([H])[H])C3([H])[H])c([H])c([H])c2C1([H])[H]

$$$$
10:0:0
     RDKit          3D

103110  0  0  1  0  0  0  0  0999 V2000
  -33.3790  -24.3500   21.5660 C   0  0  0  0  0  0  0  0  0  0  0  0
  -33.1400  -23.7560   20.3920 N   0  0  0  0  0  0  0  0  0  0  0  0
  -32.9010  -23.9580   22.6310 O   0  0  0  0  0  0  0  0  0  0  0  0
  -33.6000  -24.1540   19.5830 H   0  0  0  0  0  0  0  0  0  0  0  0
  -32.1860  -22.6820   20.1350 C   0  0  0  0  0  2  0  0  0  0  0  0
  -32.8670  -21.3820   19.6650 C   0  0  0  0  0  2  0  0  0  0  0  0
  -32.8240  -20.2520   20.7060 C   0  0  0  0  0  2  0  0  0  0  0  0
  -33.7010  -19.0500   20.3180 C   0  0  0  0  0  2  0  0  0  0  0  0
  -33.0160  -17.6890   20.5840 C   0  0  0  0  0  2  0  0  0  0  0  0
  -32.3910  -16.9410   18.3010 C   0  0  0  0  0  0  0  0  0  0  0  0
  -33.1170  -16.8150   19.4180 N   0  0  0  0  0  0  0  0  0  0  0  0
  -31.5170  -17.7960   18.1570 O   0  0  0  0  0  0  0  0  0  0  0  0
  -33.8290  -16.0960   19.4370 H   0  0  0  0  0  0  0  0  0  0  0  0
  -32.7300  -16.0100   17.1450 C   0  0  0  0  0  2  0  0  0  0  0  0
  -34.9860  -15.9310   16.2600 C   0  0  0  0  0  0  0  0  0  0  0  0
  -36.3630  -14.6220   14.6910 C   0  0  0  0  0  2  0  0  0  0  0  0
  -36.9960  -15.5570   13.6430 C   0  0  0  0  0  2  0  0  0  0  0  0
  -36.0420  -15.7620   12.4510 C   0  0  0  0  0  2  0  0  0  0  0  0
  -34.6130  -16.1670   12.9010 C   0  0  0  0  0  3  0  0  0  0  0  0
  -34.1050  -15.2130   14.0060 C   0  0  0  0  0  2  0  0  0  0  0  0
  -35.0860  -15.2160   15.1090 N   0  0  0  0  0  0  0  0  0  0  0  0
  -35.8970  -16.0450   17.0820 O   0  0  0  0  0  0  0  0  0  0  0  0
  -33.8470  -16.6030   16.4230 N   0  0  0  0  0  0  0  0  0  0  0  0
  -34.0260  -17.5130   16.8240 H   0  0  0  0  0  0  0  0  0  0  0  0
  -32.9000  -17.2790   11.3260 C   0  0  0  0  0  0  0  0  0  0  0  0
  -32.2850  -16.8340   10.1860 C   0  0  0  0  0  0  0  0  0  0  0  0
  -32.7560  -15.5010    9.9790 C   0  0  0  0  0  0  0  0  0  0  0  0
  -33.6910  -16.2280   11.7660 N   0  0  0  0  0  0  0  0  0  0  0  0
  -33.5620  -15.1380   10.9680 N   0  0  0  0  0  0  0  0  0  0  0  0
  -32.5340  -14.5710    8.8640 C   0  0  0  0  0  0  0  0  0  0  0  0
  -32.0590  -13.2590    9.0820 C   0  0  0  0  0  3  0  0  0  0  0  0
  -31.8330  -12.3890    7.9920 C   0  0  0  0  0  3  0  0  0  0  0  0
  -32.0790  -12.8300    6.6690 C   0  0  0  0  0  0  0  0  0  0  0  0
  -32.5750  -14.1300    6.4620 C   0  0  0  0  0  3  0  0  0  0  0  0
  -32.8020  -14.9920    7.5470 C   0  0  0  0  0  3  0  0  0  0  0  0
  -31.9130  -12.0480    5.5530 O   0  0  0  0  0  0  0  0  0  0  0  0
  -31.0120  -11.0120    5.5270 C   0  0  0  0  0  0  0  0  0  0  0  0
  -29.6390  -11.2140    5.7830 C   0  0  0  0  0  3  0  0  0  0  0  0
  -28.7360  -10.1360    5.6780 C   0  0  0  0  0  3  0  0  0  0  0  0
  -29.2030   -8.8610    5.3080 C   0  0  0  0  0  0  0  0  0  0  0  0
  -30.5700   -8.6590    5.0470 C   0  0  0  0  0  3  0  0  0  0  0  0
  -31.4700   -9.7330    5.1540 C   0  0  0  0  0  0  0  0  0  0  0  0
  -32.7830   -9.5390    4.8810 F   0  0  0  0  0  0  0  0  0  0  0  0
  -28.3370   -7.8260    5.1980 F   0  0  0  0  0  0  0  0  0  0  0  0
  -31.3830  -17.6270    9.2830 C   0  0  0  0  0  0  0  0  0  0  0  0
  -30.4210  -16.9690    8.6430 N   0  0  0  0  0  0  0  0  0  0  0  0
  -31.4970  -18.8480    9.1800 O   0  0  0  0  0  0  0  0  0  0  0  0
  -30.3170  -15.9690    8.7420 H   0  0  0  0  0  0  0  0  0  0  0  0
  -29.7830  -17.4680    8.0410 H   0  0  0  0  0  0  0  0  0  0  0  0
  -32.8670  -18.4870   12.0160 N   0  0  0  0  0  0  0  0  0  0  0  0
  -32.3420  -19.2910   11.6920 H   0  0  0  0  0  0  0  0  0  0  0  0
  -33.4130  -18.6790   12.8480 H   0  0  0  0  0  0  0  0  0  0  0  0
  -34.3050  -25.5660   21.5270 C   0  0  0  0  0  2  0  0  0  0  0  0
  -33.6590  -26.8290   20.9070 C   0  0  0  0  0  2  0  0  0  0  0  0
  -33.3540  -27.9790   21.8920 C   0  0  0  0  0  2  0  0  0  0  0  0
  -31.9700  -27.9510   22.5750 C   0  0  0  0  0  2  0  0  0  0  0  0
  -30.9630  -28.9970   22.0550 C   0  0  0  0  0  2  0  0  0  0  0  0
  -29.5660  -27.7650   20.4100 C   0  0  0  0  0  0  0  0  0  0  0  0
  -30.4690  -28.7040   20.7130 N   0  0  0  0  0  0  0  0  0  0  0  0
  -29.0720  -27.0160   21.2570 O   0  0  0  0  0  0  0  0  0  0  0  0
  -30.8100  -29.2850   19.9580 H   0  0  0  0  0  0  0  0  0  0  0  0
  -29.1580  -27.6520   18.9350 C   0  0  0  0  0  2  0  0  0  0  0  0
  -27.8430  -27.1080   18.8250 O   0  0  0  0  0  0  0  0  0  0  0  0
  -24.6030  -31.9150   23.0560 C   0  0  0  0  0  0  0  0  0  0  0  0
  -26.7540  -27.8860   19.1510 C   0  0  0  0  0  0  0  0  0  0  0  0
  -23.1750  -30.7690   21.3900 C   0  0  0  0  0  3  0  0  0  0  0  0
  -24.4110  -29.3920   19.6360 C   0  0  0  0  0  0  0  0  0  0  0  0
  -25.6730  -31.0940   20.9660 C   0  0  0  0  0  2  0  0  0  0  0  0
  -25.6380  -29.8190   20.1550 C   0  0  0  0  0  0  0  0  0  0  0  0
  -26.8100  -29.0710   19.9250 C   0  0  0  0  0  3  0  0  0  0  0  0
  -25.5060  -27.4570   18.6540 C   0  0  0  0  0  3  0  0  0  0  0  0
  -24.3350  -28.2020   18.8900 C   0  0  0  0  0  3  0  0  0  0  0  0
  -23.2090  -30.2620   19.9230 C   0  0  0  0  0  2  0  0  0  0  0  0
  -24.5070  -31.2670   21.8610 N   0  0  0  0  0  0  0  0  0  0  0  0
  -23.5970  -32.1430   23.7420 O   0  0  0  0  0  0  0  0  0  0  0  0
  -22.5910  -29.6490   22.2780 C   0  0  0  0  0  0  0  0  0  0  0  0
  -21.2570  -29.5030   22.2510 N   0  0  0  0  0  0  0  0  0  0  0  0
  -23.3300  -28.9170   22.9430 O   0  0  0  0  0  0  0  0  0  0  0  0
  -20.7210  -30.1460   21.6850 H   0  0  0  0  0  0  0  0  0  0  0  0
  -17.9130  -28.2960   22.8830 C   0  0  0  0  0  0  0  0  0  0  0  0
  -20.4880  -28.4920   22.9760 C   0  0  0  0  0  3  0  0  0  0  0  0
  -20.5180  -27.1370   22.2330 C   0  0  0  0  0  2  0  0  0  0  0  0
  -19.3330  -26.9430   21.2820 C   0  0  0  0  0  2  0  0  0  0  0  0
  -18.0100  -27.0300   22.0490 C   0  0  0  0  0  2  0  0  0  0  0  0
  -19.0770  -28.9910   23.3040 C   0  0  0  0  0  0  0  0  0  0  0  0
  -18.9320  -30.1840   24.0440 C   0  0  0  0  0  3  0  0  0  0  0  0
  -17.6560  -30.6790   24.3690 C   0  0  0  0  0  3  0  0  0  0  0  0
  -16.5060  -29.9760   23.9670 C   0  0  0  0  0  3  0  0  0  0  0  0
  -16.6370  -28.7860   23.2290 C   0  0  0  0  0  3  0  0  0  0  0  0
  -25.9730  -32.4240   23.6050 C   0  0  0  0  0  3  0  0  0  0  0  0
  -25.7480  -33.7470   24.2020 N   0  0  0  0  0  0  0  0  0  0  0  0
  -26.0460  -34.9100   23.6050 C   0  0  0  0  0  0  0  0  0  0  0  0
  -26.6130  -34.9770   22.5120 O   0  0  0  0  0  0  0  0  0  0  0  0
  -25.2420  -33.7700   25.0740 H   0  0  0  0  0  0  0  0  0  0  0  0
  -24.3430  -36.7520   23.7440 C   0  0  0  0  0  1  0  0  0  0  0  0
  -25.6490  -36.2040   24.3400 C   0  0  0  0  0  3  0  0  0  0  0  0
  -27.8830  -36.9060   25.0760 C   0  0  0  0  0  1  0  0  0  0  0  0
  -26.6950  -37.2500   24.2990 N   0  0  0  0  0  0  0  0  0  0  0  0
  -26.3350  -38.1340   24.6480 H   0  0  0  0  0  0  0  0  0  0  0  0
  -26.6280  -31.4420   24.6540 C   0  0  1  0  0  0  0  0  0  0  0  0
  -25.6740  -31.0340   25.8000 C   0  0  0  0  0  1  0  0  0  0  0  0
  -27.1140  -30.1480   23.9600 C   0  0  0  0  0  1  0  0  0  0  0  0
  -27.8760  -32.1010   25.2840 C   0  0  0  0  0  1  0  0  0  0  0  0
  1  3  2  0
  2  1  1  0
  4  2  1  0
  5  2  1  0
  6  5  1  0
  6  7  1  0
  8  9  1  0
  8  7  1  0
 10 11  1  0
 11 13  1  0
 11  9  1  0
 12 10  2  0
 14 10  1  0
 15 23  1  0
 15 22  2  0
 16 21  1  0
 17 16  1  0
 18 19  1  0
 18 17  1  0
 19 28  1  0
 19 20  1  0
 20 21  1  0
 21 15  1  0
 23 24  1  0
 23 14  1  0
 25 28  1  0
 25 50  1  0
 26 25  2  0
 27 26  1  0
 27 29  2  0
 29 28  1  0
 30 31  1  0
 30 27  1  0
 32 31  2  0
 33 32  1  0
 34 33  2  0
 34 35  1  0
 35 30  2  0
 36 33  1  0
 37 36  1  0
 37 38  1  0
 39 38  2  0
 40 39  1  0
 41 42  1  0
 41 40  2  0
 42 37  2  0
 43 42  1  0
 44 40  1  0
 45 26  1  0
 46 48  1  0
 46 45  1  0
 47 45  2  0
 49 46  1  0
 50 52  1  0
 51 50  1  0
 53  1  1  0
 54 53  1  0
 54 55  1  0
 55 56  1  0
 57 56  1  0
 58 59  1  0
 58 60  2  0
 59 57  1  0
 61 59  1  0
 62 58  1  0
 63 62  1  0
 63 65  1  0
 64 75  2  0
 65 70  1  0
 66 74  1  0
 66 76  1  0
 67 73  1  0
 67 69  1  0
 68 74  1  0
 69 68  1  0
 70 69  2  0
 71 72  1  0
 71 65  2  0
 72 67  2  0
 73 66  1  0
 74 64  1  0
 76 78  2  0
 77 76  1  0
 79 77  1  0
 80 89  2  0
 80 85  1  0
 81 77  1  0
 81 85  1  0
 82 81  1  0
 83 84  1  0
 83 82  1  0
 84 80  1  0
 85 86  2  0
 86 87  1  0
 88 87  2  0
 89 88  1  0
 90 64  1  0
 90 91  1  0
 90100  1  0
 91 94  1  0
 92 91  1  0
 92 96  1  0
 93 92  2  0
 96 95  1  0
 98 96  1  0
 98 99  1  0
 98 97  1  0
100103  1  1
100101  1  0
102100  1  0
M  ISO  4  15 100  23 100  62 101  63 101
M  END
>  <TORSDO>  (11) 
F 30

>  <SCORE>  (11) 
1.247

>  <name>  (11) 
10

>  <ligand_id>  (11) 
10

>  <original_smiles>  (11) 
[H]c1c([H])c([H])c2c(c1[H])C([H])([H])C([H])([H])C([H])([H])C2([H])N([H])C(=O)C1([H])N(C(=O)C([H])(N([H])C(=O)C([H])(N([H])C([H])([H])[H])C([H])([H])[H])C(C([H])([H])[H])(C([H])([H])[H])C([H])([H])[H])C([H])([H])c2c([H])c(OC([H])([H])C(=O)N([H])C([H])([H])C([H])([H])C([H])([H])C([H])([H])C([H])([H])C(=O)N([H])C([H])([H])C([H])([H])C([H])([H])C([H])([H])C([H])([H])N([H])C(=O)C([H])([H])N([H])C(=O)N3C([H])([H])C([H])([H])C([H])([H])C([H])(n4nc(-c5c([H])c([H])c(Oc6c([H])c([H])c(F)c([H])c6F)c([H])c5[H])c(C(=O)N([H])[H])c4N([H])[H])C3([H])[H])c([H])c([H])c2C1([H])[H]

>  <smiles>  (11) 
[H]c1c([H])c([H])c2c(c1[H])C([H])([H])C([H])([H])C([H])([H])C2([H])N([H])C(=O)C1([H])N(C(=O)C([H])(N([H])C(=O)C([H])(N([H])C([H])([H])[H])C([H])([H])[H])C(C([H])([H])[H])(C([H])([H])[H])C([H])([H])[H])C([H])([H])c2c([H])c(OC([H])([H])C(=O)N([H])C([H])([H])C([H])([H])C([H])([H])C([H])([H])C([H])([H])C(=O)N([H])C([H])([H])C([H])([H])C([H])([H])C([H])([H])C([H])([H])N([H])C(=O)C([H])([H])N([H])C(=O)N3C([H])([H])C([H])([H])C([H])([H])C([H])(n4nc(-c5c([H])c([H])c(Oc6c([H])c([H])c(F)c([H])c6F)c([H])c5[H])c(C(=O)N([H])[H])c4N([H])[H])C3([H])[H])c([H])c([H])c2C1([H])[H]

$$$$
11:0:0
     RDKit          3D

 99106  0  0  1  0  0  0  0  0999 V2000
  -23.7270  -21.4020   24.6290 C   0  0  0  0  0  2  0  0  0  0  0  0
  -23.0910  -20.1970   23.8920 C   0  0  0  0  0  2  0  0  0  0  0  0
  -24.7320  -18.8120   22.6330 C   0  0  0  0  0  0  0  0  0  0  0  0
  -23.8320  -19.8020   22.6950 N   0  0  0  0  0  0  0  0  0  0  0  0
  -24.9340  -18.0460   23.5760 O   0  0  0  0  0  0  0  0  0  0  0  0
  -23.6020  -20.2810   21.8330 H   0  0  0  0  0  0  0  0  0  0  0  0
  -26.5040  -17.9900   21.1700 C   0  0  0  0  0  3  0  0  0  0  0  0
  -25.4810  -18.8410   21.3890 C   0  0  0  0  0  3  0  0  0  0  0  0
  -28.3410  -17.1240   19.7940 C   0  0  0  0  0  3  0  0  0  0  0  0
  -27.3610  -18.0360   19.9890 C   0  0  0  0  0  0  0  0  0  0  0  0
  -27.1690  -19.1510   18.9760 C   0  0  0  0  0  1  0  0  0  0  0  0
  -28.6560  -15.9390   20.6950 C   0  0  0  0  0  2  0  0  0  0  0  0
  -30.1610  -14.4450   19.3350 C   0  0  0  0  0  0  0  0  0  0  0  0
  -29.8320  -12.2290   18.2940 C   0  0  0  0  0  2  0  0  0  0  0  0
  -28.6470  -12.2600   17.3090 C   0  0  0  0  0  2  0  0  0  0  0  0
  -27.3120  -12.0110   18.0390 C   0  0  0  0  0  2  0  0  0  0  0  0
  -27.1570  -12.8930   19.3080 C   0  0  0  0  0  3  0  0  0  0  0  0
  -28.4310  -12.7960   20.1770 C   0  0  0  0  0  2  0  0  0  0  0  0
  -29.5730  -13.2190   19.3510 N   0  0  0  0  0  0  0  0  0  0  0  0
  -31.0200  -14.7570   18.5070 O   0  0  0  0  0  0  0  0  0  0  0  0
  -29.9240  -15.2660   20.3710 N   0  0  0  0  0  0  0  0  0  0  0  0
  -30.7110  -15.8770   20.5350 H   0  0  0  0  0  0  0  0  0  0  0  0
  -25.0140  -13.3710   20.6600 C   0  0  0  0  0  0  0  0  0  0  0  0
  -24.0620  -12.5410   21.1850 C   0  0  0  0  0  0  0  0  0  0  0  0
  -24.4830  -11.2120   20.8710 C   0  0  0  0  0  0  0  0  0  0  0  0
  -25.9590  -12.5440   20.0680 N   0  0  0  0  0  0  0  0  0  0  0  0
  -25.6520  -11.2340   20.2430 N   0  0  0  0  0  0  0  0  0  0  0  0
  -23.8150   -9.9230   21.0780 C   0  0  0  0  0  0  0  0  0  0  0  0
  -24.3480   -8.9450   21.9460 C   0  0  0  0  0  3  0  0  0  0  0  0
  -23.6760   -7.7190   22.1420 C   0  0  0  0  0  3  0  0  0  0  0  0
  -22.4570   -7.4620   21.4690 C   0  0  0  0  0  0  0  0  0  0  0  0
  -21.9430   -8.4300   20.5870 C   0  0  0  0  0  3  0  0  0  0  0  0
  -22.6160   -9.6470   20.3900 C   0  0  0  0  0  3  0  0  0  0  0  0
  -21.7490   -6.2890   21.5750 O   0  0  0  0  0  0  0  0  0  0  0  0
  -21.6490   -5.6150   22.7650 C   0  0  0  0  0  0  0  0  0  0  0  0
  -21.0630   -6.2020   23.9080 C   0  0  0  0  0  3  0  0  0  0  0  0
  -20.9190   -5.4480   25.0900 C   0  0  0  0  0  3  0  0  0  0  0  0
  -21.3510   -4.1080   25.1300 C   0  0  0  0  0  0  0  0  0  0  0  0
  -21.9290   -3.5210   23.9910 C   0  0  0  0  0  3  0  0  0  0  0  0
  -22.0760   -4.2720   22.8110 C   0  0  0  0  0  0  0  0  0  0  0  0
  -22.6150   -3.6960   21.7090 F   0  0  0  0  0  0  0  0  0  0  0  0
  -21.2030   -3.3810   26.2620 F   0  0  0  0  0  0  0  0  0  0  0  0
  -22.7820  -12.9530   21.8560 C   0  0  0  0  0  0  0  0  0  0  0  0
  -22.2690  -12.1260   22.7600 N   0  0  0  0  0  0  0  0  0  0  0  0
  -22.2580  -14.0400   21.6140 O   0  0  0  0  0  0  0  0  0  0  0  0
  -22.7100  -11.2440   22.9730 H   0  0  0  0  0  0  0  0  0  0  0  0
  -21.4240  -12.3820   23.2530 H   0  0  0  0  0  0  0  0  0  0  0  0
  -25.1440  -14.7570   20.6190 N   0  0  0  0  0  0  0  0  0  0  0  0
  -24.4320  -15.3670   21.0040 H   0  0  0  0  0  0  0  0  0  0  0  0
  -25.8930  -15.2580   20.1590 H   0  0  0  0  0  0  0  0  0  0  0  0
  -23.8650  -22.7040   23.8100 C   0  0  0  0  0  2  0  0  0  0  0  0
  -24.9430  -22.6560   22.7940 N   0  0  0  0  0  4  0  0  0  0  0  0
  -25.7780  -22.2720   23.2080 H   0  0  0  0  0  0  0  0  0  0  0  0
  -24.6460  -22.0490   22.0480 H   0  0  0  0  0  0  0  0  0  0  0  0
  -25.2510  -23.9780   22.2190 C   0  0  0  0  0  2  0  0  0  0  0  0
  -26.2610  -23.9190   21.0540 C   0  0  0  0  0  2  0  0  0  0  0  0
  -26.7490  -25.3310   20.6860 C   0  0  0  0  0  2  0  0  0  0  0  0
  -27.2700  -25.4670   19.2320 C   0  0  0  0  0  2  0  0  0  0  0  0
  -27.4130  -26.8330   18.8260 O   0  0  0  0  0  0  0  0  0  0  0  0
  -24.8170  -31.8150   23.1110 C   0  0  0  0  0  0  0  0  0  0  0  0
  -26.3300  -27.6430   19.0790 C   0  0  0  0  0  0  0  0  0  0  0  0
  -23.1620  -30.7120   21.6370 C   0  0  0  0  0  3  0  0  0  0  0  0
  -24.1330  -29.2650   19.7770 C   0  0  0  0  0  0  0  0  0  0  0  0
  -25.6090  -30.9270   20.9250 C   0  0  0  0  0  2  0  0  0  0  0  0
  -25.4290  -29.6470   20.1400 C   0  0  0  0  0  0  0  0  0  0  0  0
  -26.5330  -28.8450   19.7840 C   0  0  0  0  0  3  0  0  0  0  0  0
  -25.0180  -27.2680   18.7120 C   0  0  0  0  0  3  0  0  0  0  0  0
  -23.9180  -28.0720   19.0610 C   0  0  0  0  0  3  0  0  0  0  0  0
  -23.0090  -30.1890   20.1830 C   0  0  0  0  0  2  0  0  0  0  0  0
  -24.5610  -31.1550   21.9460 N   0  0  0  0  0  0  0  0  0  0  0  0
  -23.9060  -32.0950   23.9020 O   0  0  0  0  0  0  0  0  0  0  0  0
  -22.6340  -29.6330   22.6070 C   0  0  0  0  0  0  0  0  0  0  0  0
  -21.3170  -29.3820   22.5620 N   0  0  0  0  0  0  0  0  0  0  0  0
  -23.4040  -29.0220   23.3540 O   0  0  0  0  0  0  0  0  0  0  0  0
  -20.7550  -29.9230   21.9200 H   0  0  0  0  0  0  0  0  0  0  0  0
  -18.1230  -27.7600   23.0110 C   0  0  0  0  0  0  0  0  0  0  0  0
  -20.6050  -28.3830   23.3560 C   0  0  0  0  0  3  0  0  0  0  0  0
  -20.9290  -26.9510   22.8690 C   0  0  0  0  0  2  0  0  0  0  0  0
  -19.9260  -26.4310   21.8340 C   0  0  0  0  0  2  0  0  0  0  0  0
  -18.5140  -26.4120   22.4280 C   0  0  0  0  0  2  0  0  0  0  0  0
  -19.1070  -28.6900   23.4350 C   0  0  0  0  0  0  0  0  0  0  0  0
  -18.6960  -29.9450   23.9400 C   0  0  0  0  0  3  0  0  0  0  0  0
  -17.3290  -30.2660   24.0300 C   0  0  0  0  0  3  0  0  0  0  0  0
  -16.3570  -29.3330   23.6300 C   0  0  0  0  0  3  0  0  0  0  0  0
  -16.7550  -28.0820   23.1250 C   0  0  0  0  0  3  0  0  0  0  0  0
  -26.2620  -32.2690   23.4940 C   0  0  0  0  0  3  0  0  0  0  0  0
  -26.1840  -33.6680   23.9290 N   0  0  0  0  0  0  0  0  0  0  0  0
  -26.5390  -34.7190   23.1790 C   0  0  0  0  0  0  0  0  0  0  0  0
  -27.0390  -34.6020   22.0560 O   0  0  0  0  0  0  0  0  0  0  0  0
  -25.7290  -33.8400   24.8140 H   0  0  0  0  0  0  0  0  0  0  0  0
  -25.0450  -36.7390   23.1230 C   0  0  0  0  0  1  0  0  0  0  0  0
  -26.2980  -36.1210   23.7630 C   0  0  0  0  0  3  0  0  0  0  0  0
  -28.6080  -36.6600   24.3960 C   0  0  0  0  0  1  0  0  0  0  0  0
  -27.4480  -37.0350   23.5920 N   0  0  0  0  0  0  0  0  0  0  0  0
  -27.1900  -37.9880   23.8330 H   0  0  0  0  0  0  0  0  0  0  0  0
  -26.9200  -31.3710   24.6120 C   0  0  1  0  0  0  0  0  0  0  0  0
  -26.0320  -31.1930   25.8650 C   0  0  0  0  0  1  0  0  0  0  0  0
  -27.2470  -29.9640   24.0590 C   0  0  0  0  0  1  0  0  0  0  0  0
  -28.2630  -31.9930   25.0610 C   0  0  0  0  0  1  0  0  0  0  0  0
  2  1  1  0
  3  4  1  0
  3  5  2  0
  4  2  1  0
  6  4  1  0
  7  8  2  0
  8  3  1  0
  9 10  2  0
  9 12  1  0
 10  7  1  0
 11 10  1  0
 13 19  1  0
 13 21  1  0
 14 19  1  0
 15 16  1  0
 15 14  1  0
 17 16  1  0
 17 26  1  0
 17 18  1  0
 19 18  1  0
 20 13  2  0
 21 22  1  0
 21 12  1  0
 23 24  2  0
 24 43  1  0
 25 28  1  0
 25 24  1  0
 26 27  1  0
 26 23  1  0
 27 25  2  0
 28 29  1  0
 29 30  2  0
 31 34  1  0
 31 30  1  0
 32 31  2  0
 33 32  1  0
 33 28  2  0
 34 35  1  0
 35 40  2  0
 35 36  1  0
 36 37  2  0
 37 38  1  0
 38 42  1  0
 39 38  2  0
 40 39  1  0
 41 40  1  0
 43 44  1  0
 44 46  1  0
 44 47  1  0
 45 43  2  0
 48 23  1  0
 48 49  1  0
 50 48  1  0
 51  1  1  0
 52 53  1  0
 52 51  1  0
 54 52  1  0
 55 52  1  0
 56 55  1  0
 57 56  1  0
 58 57  1  0
 59 61  1  0
 59 58  1  0
 60 71  2  0
 61 66  1  0
 62 70  1  0
 62 72  1  0
 63 65  1  0
 63 69  1  0
 64 70  1  0
 65 64  1  0
 66 65  2  0
 67 68  1  0
 67 61  2  0
 68 63  2  0
 69 62  1  0
 70 60  1  0
 72 74  2  0
 73 72  1  0
 75 73  1  0
 76 85  2  0
 76 81  1  0
 77 73  1  0
 77 81  1  0
 78 77  1  0
 79 80  1  0
 79 78  1  0
 80 76  1  0
 81 82  2  0
 82 83  1  0
 84 83  2  0
 85 84  1  0
 86 60  1  0
 86 87  1  0
 86 96  1  0
 87 90  1  0
 88 92  1  0
 88 87  1  0
 89 88  2  0
 92 91  1  0
 94 92  1  0
 94 95  1  0
 94 93  1  0
 96 99  1  1
 96 97  1  0
 98 96  1  0
M  ISO  4  13 100  21 100  58 101  59 101
M  END
>  <TORSDO>  (12) 
F 27

>  <SCORE>  (12) 
32.519

>  <name>  (12) 
11

>  <ligand_id>  (12) 
11

>  <original_smiles>  (12) 
[H]C(C(=O)N([H])C([H])([H])C([H])([H])C([H])([H])[N+]([H])([H])C([H])([H])C([H])([H])C([H])([H])C([H])([H])Oc1c([H])c([H])c2c(c1[H])C([H])([H])N(C(=O)C([H])(N([H])C(=O)C([H])(N([H])C([H])([H])[H])C([H])([H])[H])C(C([H])([H])[H])(C([H])([H])[H])C([H])([H])[H])C([H])(C(=O)N([H])C1([H])c3c([H])c([H])c([H])c([H])c3C([H])([H])C([H])([H])C1([H])[H])C2([H])[H])=C([H])C(=C([H])C([H])([H])N([H])C(=O)N1C([H])([H])C([H])([H])C([H])([H])C([H])(n2nc(-c3c([H])c([H])c(Oc4c([H])c([H])c(F)c([H])c4F)c([H])c3[H])c(C(=O)N([H])[H])c2N([H])[H])C1([H])[H])C([H])([H])[H]

>  <smiles>  (12) 
[H]C(C(=O)N([H])C([H])([H])C([H])([H])C([H])([H])[N+]([H])([H])C([H])([H])C([H])([H])C([H])([H])C([H])([H])Oc1c([H])c([H])c2c(c1[H])C([H])([H])N(C(=O)C([H])(N([H])C(=O)C([H])(N([H])C([H])([H])[H])C([H])([H])[H])C(C([H])([H])[H])(C([H])([H])[H])C([H])([H])[H])C([H])(C(=O)N([H])C1([H])c3c([H])c([H])c([H])c([H])c3C([H])([H])C([H])([H])C1([H])[H])C2([H])[H])=C([H])C(=C([H])C([H])([H])N([H])C(=O)N1C([H])([H])C([H])([H])C([H])([H])C([H])(n2nc(-c3c([H])c([H])c(Oc4c([H])c([H])c(F)c([H])c4F)c([H])c3[H])c(C(=O)N([H])[H])c2N([H])[H])C1([H])[H])C([H])([H])[H]

$$$$
12:0:0
     RDKit          3D

101108  0  0  1  0  0  0  0  0999 V2000
  -28.7500  -21.2960   13.6230 C   0  0  0  0  0  2  0  0  0  0  0  0
  -28.7300  -20.4520   16.0350 C   0  0  0  0  0  3  0  0  0  0  0  0
  -28.0850  -20.8480   14.9200 C   0  0  0  0  0  3  0  0  0  0  0  0
  -28.0030  -20.1220   17.2490 C   0  0  0  0  0  0  0  0  0  0  0  0
  -28.8180  -20.0860   18.3100 N   0  0  0  0  0  0  0  0  0  0  0  0
  -26.7880  -19.9280   17.3300 O   0  0  0  0  0  0  0  0  0  0  0  0
  -29.7980  -20.2710   18.1460 H   0  0  0  0  0  0  0  0  0  0  0  0
  -28.4180  -19.8690   19.6990 C   0  0  0  0  0  2  0  0  0  0  0  0
  -28.7150  -18.4320   20.1570 C   0  0  0  0  0  2  0  0  0  0  0  0
  -30.2170  -18.0970   20.1710 C   0  0  0  0  0  2  0  0  0  0  0  0
  -30.5130  -16.7480   20.8390 C   0  0  0  0  0  2  0  0  0  0  0  0
  -32.0150  -16.4050   20.8300 C   0  0  0  0  0  2  0  0  0  0  0  0
  -32.3600  -15.1140   21.5980 C   0  0  0  0  0  2  0  0  0  0  0  0
  -31.7720  -13.1900   20.1170 C   0  0  0  0  0  0  0  0  0  0  0  0
  -30.9920  -11.2060   18.8740 C   0  0  0  0  0  2  0  0  0  0  0  0
  -30.0780  -11.5860   17.6940 C   0  0  0  0  0  2  0  0  0  0  0  0
  -28.6160  -11.7240   18.1580 C   0  0  0  0  0  2  0  0  0  0  0  0
  -28.4740  -12.6280   19.4090 C   0  0  0  0  0  3  0  0  0  0  0  0
  -29.4820  -12.2080   20.5020 C   0  0  0  0  0  2  0  0  0  0  0  0
  -30.8420  -12.2210   19.9260 N   0  0  0  0  0  0  0  0  0  0  0  0
  -32.7860  -13.3100   19.4220 O   0  0  0  0  0  0  0  0  0  0  0  0
  -31.5450  -13.9810   21.1700 N   0  0  0  0  0  0  0  0  0  0  0  0
  -30.7120  -13.7840   21.7060 H   0  0  0  0  0  0  0  0  0  0  0  0
  -26.2450  -13.6940   20.1360 C   0  0  0  0  0  0  0  0  0  0  0  0
  -25.0570  -13.1440   20.5400 C   0  0  0  0  0  0  0  0  0  0  0  0
  -25.2550  -11.7300   20.5310 C   0  0  0  0  0  0  0  0  0  0  0  0
  -27.1020  -12.6270   19.9120 N   0  0  0  0  0  0  0  0  0  0  0  0
  -26.5070  -11.4410   20.2030 N   0  0  0  0  0  0  0  0  0  0  0  0
  -24.3080  -10.6300   20.7620 C   0  0  0  0  0  0  0  0  0  0  0  0
  -24.5670   -9.6210   21.7170 C   0  0  0  0  0  3  0  0  0  0  0  0
  -23.6330   -8.5850   21.9320 C   0  0  0  0  0  3  0  0  0  0  0  0
  -22.4260   -8.5520   21.1940 C   0  0  0  0  0  0  0  0  0  0  0  0
  -22.1850   -9.5450   20.2290 C   0  0  0  0  0  3  0  0  0  0  0  0
  -23.1170  -10.5730   20.0120 C   0  0  0  0  0  3  0  0  0  0  0  0
  -21.4730   -7.5690   21.3180 O   0  0  0  0  0  0  0  0  0  0  0  0
  -21.3050   -6.8730   22.4880 C   0  0  0  0  0  0  0  0  0  0  0  0
  -21.0000   -7.5210   23.7040 C   0  0  0  0  0  3  0  0  0  0  0  0
  -20.7660   -6.7630   24.8680 C   0  0  0  0  0  3  0  0  0  0  0  0
  -20.8290   -5.3570   24.8170 C   0  0  0  0  0  0  0  0  0  0  0  0
  -21.1290   -4.7090   23.6060 C   0  0  0  0  0  3  0  0  0  0  0  0
  -21.3630   -5.4650   22.4440 C   0  0  0  0  0  0  0  0  0  0  0  0
  -21.6300   -4.8340   21.2750 F   0  0  0  0  0  0  0  0  0  0  0  0
  -20.5980   -4.6260   25.9330 F   0  0  0  0  0  0  0  0  0  0  0  0
  -23.7800  -13.8810   20.8270 C   0  0  0  0  0  0  0  0  0  0  0  0
  -22.9630  -13.3610   21.7370 N   0  0  0  0  0  0  0  0  0  0  0  0
  -23.5230  -14.9530   20.2800 O   0  0  0  0  0  0  0  0  0  0  0  0
  -23.1840  -12.4920   22.2010 H   0  0  0  0  0  0  0  0  0  0  0  0
  -22.1060  -13.8380   21.9730 H   0  0  0  0  0  0  0  0  0  0  0  0
  -26.6610  -15.0050   19.9270 N   0  0  0  0  0  0  0  0  0  0  0  0
  -26.0370  -15.7960   20.0360 H   0  0  0  0  0  0  0  0  0  0  0  0
  -27.5810  -15.2650   19.5970 H   0  0  0  0  0  0  0  0  0  0  0  0
  -29.9530  -22.2540   13.7960 C   0  0  0  0  0  2  0  0  0  0  0  0
  -29.6060  -23.7590   13.8900 C   0  0  0  0  0  2  0  0  0  0  0  0
  -28.5190  -24.1500   14.9130 C   0  0  0  0  0  2  0  0  0  0  0  0
  -28.9260  -23.9780   16.3890 C   0  0  0  0  0  2  0  0  0  0  0  0
  -29.5340  -25.3980   18.3170 C   0  0  0  0  0  0  0  0  0  0  0  0
  -29.2430  -25.2500   17.0200 N   0  0  0  0  0  0  0  0  0  0  0  0
  -29.6510  -24.4380   19.0850 O   0  0  0  0  0  0  0  0  0  0  0  0
  -29.1690  -26.0850   16.4540 H   0  0  0  0  0  0  0  0  0  0  0  0
  -29.6850  -26.8350   18.8290 C   0  0  0  0  0  2  0  0  0  0  0  0
  -29.0390  -26.9940   20.0930 O   0  0  0  0  0  0  0  0  0  0  0  0
  -24.5240  -31.5650   23.1130 C   0  0  0  0  0  0  0  0  0  0  0  0
  -27.7830  -27.5500   20.0560 C   0  0  0  0  0  0  0  0  0  0  0  0
  -23.5500  -30.0760   21.3890 C   0  0  0  0  0  3  0  0  0  0  0  0
  -25.2260  -28.7420   20.0060 C   0  0  0  0  0  0  0  0  0  0  0  0
  -26.0220  -30.7210   21.3130 C   0  0  0  0  0  2  0  0  0  0  0  0
  -26.2850  -29.3810   20.6600 C   0  0  0  0  0  0  0  0  0  0  0  0
  -27.5620  -28.7840   20.7000 C   0  0  0  0  0  3  0  0  0  0  0  0
  -26.7060  -26.9040   19.4080 C   0  0  0  0  0  3  0  0  0  0  0  0
  -25.4280  -27.4960   19.3850 C   0  0  0  0  0  3  0  0  0  0  0  0
  -23.8910  -29.4520   20.0090 C   0  0  0  0  0  2  0  0  0  0  0  0
  -24.7120  -30.8030   21.9980 N   0  0  0  0  0  0  0  0  0  0  0  0
  -23.3980  -31.7070   23.6080 O   0  0  0  0  0  0  0  0  0  0  0  0
  -22.9740  -28.9710   22.3030 C   0  0  0  0  0  0  0  0  0  0  0  0
  -21.6700  -28.6910   22.1540 N   0  0  0  0  0  0  0  0  0  0  0  0
  -23.7000  -28.3710   23.1010 O   0  0  0  0  0  0  0  0  0  0  0  0
  -21.1440  -29.2330   21.4820 H   0  0  0  0  0  0  0  0  0  0  0  0
  -18.3860  -27.2570   22.5970 C   0  0  0  0  0  0  0  0  0  0  0  0
  -20.9230  -27.6630   22.8750 C   0  0  0  0  0  3  0  0  0  0  0  0
  -21.1150  -26.2750   22.2190 C   0  0  0  0  0  2  0  0  0  0  0  0
  -20.0290  -25.9410   21.1920 C   0  0  0  0  0  2  0  0  0  0  0  0
  -18.6450  -25.9610   21.8500 C   0  0  0  0  0  2  0  0  0  0  0  0
  -19.4570  -28.0640   23.0660 C   0  0  0  0  0  0  0  0  0  0  0  0
  -19.1630  -29.2780   23.7240 C   0  0  0  0  0  3  0  0  0  0  0  0
  -17.8290  -29.6870   23.9170 C   0  0  0  0  0  3  0  0  0  0  0  0
  -16.7720  -28.8760   23.4660 C   0  0  0  0  0  3  0  0  0  0  0  0
  -17.0520  -27.6620   22.8120 C   0  0  0  0  0  3  0  0  0  0  0  0
  -25.7090  -32.3120   23.8010 C   0  0  0  0  0  3  0  0  0  0  0  0
  -25.2460  -33.6680   24.1220 N   0  0  0  0  0  0  0  0  0  0  0  0
  -25.5180  -34.7560   23.3850 C   0  0  0  0  0  0  0  0  0  0  0  0
  -26.2550  -34.7280   22.3950 O   0  0  0  0  0  0  0  0  0  0  0  0
  -24.5850  -33.7560   24.8790 H   0  0  0  0  0  0  0  0  0  0  0  0
  -23.6400  -36.3680   22.9430 C   0  0  0  0  0  1  0  0  0  0  0  0
  -24.8700  -36.0840   23.8190 C   0  0  0  0  0  3  0  0  0  0  0  0
  -26.8600  -37.1710   24.7630 C   0  0  0  0  0  1  0  0  0  0  0  0
  -25.7970  -37.2370   23.7650 N   0  0  0  0  0  0  0  0  0  0  0  0
  -25.2910  -38.1080   23.8950 H   0  0  0  0  0  0  0  0  0  0  0  0
  -26.2400  -31.5800   25.0950 C   0  0  1  0  0  0  0  0  0  0  0  0
  -25.1270  -31.2280   26.1090 C   0  0  0  0  0  1  0  0  0  0  0  0
  -26.9680  -30.2680   24.7200 C   0  0  0  0  0  1  0  0  0  0  0  0
  -27.2800  -32.4720   25.8130 C   0  0  0  0  0  1  0  0  0  0  0  0
  1 52  1  0
  1  3  1  0
  2  4  1  0
  3  2  2  0
  4  6  2  0
  4  5  1  0
  5  8  1  0
  7  5  1  0
  8  9  1  0
  9 10  1  0
 10 11  1  0
 12 11  1  0
 12 13  1  0
 14 22  1  0
 15 20  1  0
 16 17  1  0
 16 15  1  0
 18 17  1  0
 18 27  1  0
 18 19  1  0
 20 14  1  0
 20 19  1  0
 21 14  2  0
 22 13  1  0
 22 23  1  0
 24 25  2  0
 25 44  1  0
 26 25  1  0
 26 29  1  0
 27 24  1  0
 27 28  1  0
 28 26  2  0
 29 30  1  0
 30 31  2  0
 32 35  1  0
 32 31  1  0
 33 32  2  0
 34 33  1  0
 34 29  2  0
 35 36  1  0
 36 37  1  0
 37 38  2  0
 39 38  1  0
 39 43  1  0
 40 39  2  0
 41 36  2  0
 41 40  1  0
 42 41  1  0
 44 45  1  0
 45 48  1  0
 45 47  1  0
 46 44  2  0
 49 50  1  0
 49 24  1  0
 51 49  1  0
 52 53  1  0
 53 54  1  0
 54 55  1  0
 55 57  1  0
 56 60  1  0
 56 58  2  0
 57 56  1  0
 59 57  1  0
 60 61  1  0
 62 73  2  0
 63 61  1  0
 63 68  1  0
 64 72  1  0
 64 74  1  0
 65 71  1  0
 65 67  1  0
 66 72  1  0
 67 68  2  0
 67 66  1  0
 69 63  2  0
 70 69  1  0
 70 65  2  0
 71 64  1  0
 72 62  1  0
 74 76  2  0
 75 74  1  0
 77 75  1  0
 78 87  2  0
 78 83  1  0
 79 75  1  0
 79 83  1  0
 80 79  1  0
 81 82  1  0
 81 80  1  0
 82 78  1  0
 83 84  2  0
 84 85  1  0
 86 85  2  0
 87 86  1  0
 88 62  1  0
 88 89  1  0
 88 98  1  0
 89 92  1  0
 90 94  1  0
 90 89  1  0
 91 90  2  0
 94 93  1  0
 96 94  1  0
 96 97  1  0
 96 95  1  0
 98101  1  1
 98 99  1  0
100 98  1  0
M  ISO  4  14 100  22 100  60 101  61 101
M  END
>  <TORSDO>  (13) 
F 30

>  <SCORE>  (13) 
-4.364

>  <name>  (13) 
12

>  <ligand_id>  (13) 
12

>  <original_smiles>  (13) 
[H]C(C(=O)N([H])C([H])([H])C([H])([H])C([H])([H])C([H])([H])C([H])([H])C([H])([H])N([H])C(=O)N1C([H])([H])C([H])([H])C([H])([H])C([H])(n2nc(-c3c([H])c([H])c(Oc4c([H])c([H])c(F)c([H])c4F)c([H])c3[H])c(C(=O)N([H])[H])c2N([H])[H])C1([H])[H])=C([H])C([H])([H])C([H])([H])C([H])([H])C([H])([H])C([H])([H])N([H])C(=O)C([H])([H])Oc1c([H])c([H])c2c(c1[H])C([H])([H])N(C(=O)C([H])(N([H])C(=O)C([H])(N([H])C([H])([H])[H])C([H])([H])[H])C(C([H])([H])[H])(C([H])([H])[H])C([H])([H])[H])C([H])(C(=O)N([H])C1([H])c3c([H])c([H])c([H])c([H])c3C([H])([H])C([H])([H])C1([H])[H])C2([H])[H]

>  <smiles>  (13) 
[H]C(C(=O)N([H])C([H])([H])C([H])([H])C([H])([H])C([H])([H])C([H])([H])C([H])([H])N([H])C(=O)N1C([H])([H])C([H])([H])C([H])([H])C([H])(n2nc(-c3c([H])c([H])c(Oc4c([H])c([H])c(F)c([H])c4F)c([H])c3[H])c(C(=O)N([H])[H])c2N([H])[H])C1([H])[H])=C([H])C([H])([H])C([H])([H])C([H])([H])C([H])([H])C([H])([H])N([H])C(=O)C([H])([H])Oc1c([H])c([H])c2c(c1[H])C([H])([H])N(C(=O)C([H])(N([H])C(=O)C([H])(N([H])C([H])([H])[H])C([H])([H])[H])C(C([H])([H])[H])(C([H])([H])[H])C([H])([H])[H])C([H])(C(=O)N([H])C1([H])c3c([H])c([H])c([H])c([H])c3C([H])([H])C([H])([H])C1([H])[H])C2([H])[H]

$$$$
13:0:0
     RDKit          3D

103110  0  0  1  0  0  0  0  0999 V2000
  -35.3960  -22.3250   25.0280 C   0  0  0  0  0  0  0  0  0  0  0  0
  -35.7670  -21.5340   26.0400 N   0  0  0  0  0  0  0  0  0  0  0  0
  -36.1210  -22.5830   24.0660 O   0  0  0  0  0  0  0  0  0  0  0  0
  -35.1000  -21.4090   26.7900 H   0  0  0  0  0  0  0  0  0  0  0  0
  -36.9610  -20.7000   26.0980 C   0  0  0  0  0  2  0  0  0  0  0  0
  -36.7160  -19.2940   25.5040 C   0  0  0  0  0  2  0  0  0  0  0  0
  -35.3870  -18.6250   25.9360 C   0  0  0  0  0  2  0  0  0  0  0  0
  -34.2500  -18.8140   24.9110 C   0  0  0  0  0  2  0  0  0  0  0  0
  -32.8290  -18.6760   25.4950 C   0  0  0  0  0  2  0  0  0  0  0  0
  -32.4470  -17.2460   25.9150 C   0  0  0  0  0  2  0  0  0  0  0  0
  -31.5960  -15.9930   23.9360 C   0  0  0  0  0  0  0  0  0  0  0  0
  -32.5690  -16.3310   24.7860 N   0  0  0  0  0  0  0  0  0  0  0  0
  -30.4180  -16.3250   24.0850 O   0  0  0  0  0  0  0  0  0  0  0  0
  -33.4980  -15.9790   24.5900 H   0  0  0  0  0  0  0  0  0  0  0  0
  -32.0310  -15.1860   22.7200 C   0  0  0  0  0  2  0  0  0  0  0  0
  -30.8750  -14.2320   20.7650 C   0  0  0  0  0  0  0  0  0  0  0  0
  -30.4020  -12.2760   19.3620 C   0  0  0  0  0  2  0  0  0  0  0  0
  -29.4650  -12.5410   18.1770 C   0  0  0  0  0  2  0  0  0  0  0  0
  -27.9990  -12.3880   18.6100 C   0  0  0  0  0  2  0  0  0  0  0  0
  -27.6700  -13.2090   19.8840 C   0  0  0  0  0  3  0  0  0  0  0  0
  -28.7150  -12.9680   21.0000 C   0  0  0  0  0  2  0  0  0  0  0  0
  -30.0660  -13.1950   20.4570 N   0  0  0  0  0  0  0  0  0  0  0  0
  -31.7310  -14.6870   19.9980 O   0  0  0  0  0  0  0  0  0  0  0  0
  -30.9100  -14.5100   22.0690 N   0  0  0  0  0  0  0  0  0  0  0  0
  -30.2200  -14.0850   22.6690 H   0  0  0  0  0  0  0  0  0  0  0  0
  -25.2620  -13.8180   20.5700 C   0  0  0  0  0  0  0  0  0  0  0  0
  -24.1860  -13.0450   20.9170 C   0  0  0  0  0  0  0  0  0  0  0  0
  -24.6410  -11.6920   20.8730 C   0  0  0  0  0  0  0  0  0  0  0  0
  -26.3080  -12.9360   20.3450 N   0  0  0  0  0  0  0  0  0  0  0  0
  -25.9350  -11.6510   20.5790 N   0  0  0  0  0  0  0  0  0  0  0  0
  -23.9070  -10.4300   21.0390 C   0  0  0  0  0  0  0  0  0  0  0  0
  -24.3620   -9.4210   21.9180 C   0  0  0  0  0  3  0  0  0  0  0  0
  -23.6290   -8.2250   22.0750 C   0  0  0  0  0  3  0  0  0  0  0  0
  -22.4280   -8.0280   21.3540 C   0  0  0  0  0  0  0  0  0  0  0  0
  -21.9910   -9.0260   20.4650 C   0  0  0  0  0  3  0  0  0  0  0  0
  -22.7240  -10.2130   20.3050 C   0  0  0  0  0  3  0  0  0  0  0  0
  -21.6640   -6.8880   21.4240 O   0  0  0  0  0  0  0  0  0  0  0  0
  -21.6850   -6.0730   22.5280 C   0  0  0  0  0  0  0  0  0  0  0  0
  -21.4010   -6.5640   23.8210 C   0  0  0  0  0  3  0  0  0  0  0  0
  -21.3660   -5.6790   24.9180 C   0  0  0  0  0  3  0  0  0  0  0  0
  -21.6040   -4.3060   24.7220 C   0  0  0  0  0  0  0  0  0  0  0  0
  -21.8820   -3.8150   23.4350 C   0  0  0  0  0  3  0  0  0  0  0  0
  -21.9190   -4.6970   22.3400 C   0  0  0  0  0  0  0  0  0  0  0  0
  -22.1660   -4.2150   21.0980 F   0  0  0  0  0  0  0  0  0  0  0  0
  -21.5630   -3.4540   25.7740 F   0  0  0  0  0  0  0  0  0  0  0  0
  -22.7880  -13.5240   21.1830 C   0  0  0  0  0  0  0  0  0  0  0  0
  -22.0520  -12.8230   22.0380 N   0  0  0  0  0  0  0  0  0  0  0  0
  -22.3560  -14.5550   20.6680 O   0  0  0  0  0  0  0  0  0  0  0  0
  -22.4130  -11.9890   22.4770 H   0  0  0  0  0  0  0  0  0  0  0  0
  -21.1130  -13.1250   22.2580 H   0  0  0  0  0  0  0  0  0  0  0  0
  -25.4350  -15.1890   20.4100 N   0  0  0  0  0  0  0  0  0  0  0  0
  -24.6760  -15.8530   20.5240 H   0  0  0  0  0  0  0  0  0  0  0  0
  -26.3020  -15.6240   20.1190 H   0  0  0  0  0  0  0  0  0  0  0  0
  -33.9680  -22.8670   25.0930 C   0  0  0  0  0  2  0  0  0  0  0  0
  -33.1220  -22.5110   23.8520 C   0  0  0  0  0  2  0  0  0  0  0  0
  -32.9970  -23.6420   22.9070 N   0  0  0  0  0  4  0  0  0  0  0  0
  -33.6130  -23.4880   22.1240 H   0  0  0  0  0  0  0  0  0  0  0  0
  -33.3040  -24.4810   23.3740 H   0  0  0  0  0  0  0  0  0  0  0  0
  -31.6150  -23.8510   22.4330 C   0  0  0  0  0  2  0  0  0  0  0  0
  -31.4810  -25.0770   21.5050 C   0  0  0  0  0  2  0  0  0  0  0  0
  -29.9960  -25.3750   21.1570 C   0  0  0  0  0  2  0  0  0  0  0  0
  -29.2180  -26.7210   21.1720 C   0  0  0  0  0  2  0  0  0  0  0  0
  -28.3800  -26.7200   20.0220 O   0  0  0  0  0  0  0  0  0  0  0  0
  -24.6080  -31.8730   23.2130 C   0  0  0  0  0  0  0  0  0  0  0  0
  -27.2430  -27.4840   20.0900 C   0  0  0  0  0  0  0  0  0  0  0  0
  -23.3970  -30.4960   21.5510 C   0  0  0  0  0  3  0  0  0  0  0  0
  -24.8460  -28.9630   20.1210 C   0  0  0  0  0  0  0  0  0  0  0  0
  -25.9180  -30.8540   21.3590 C   0  0  0  0  0  2  0  0  0  0  0  0
  -25.9990  -29.4880   20.7180 C   0  0  0  0  0  0  0  0  0  0  0  0
  -27.2010  -28.7530   20.7100 C   0  0  0  0  0  3  0  0  0  0  0  0
  -26.0800  -26.9690   19.4850 C   0  0  0  0  0  3  0  0  0  0  0  0
  -24.8760  -27.6980   19.5070 C   0  0  0  0  0  3  0  0  0  0  0  0
  -23.6060  -29.8260   20.1660 C   0  0  0  0  0  2  0  0  0  0  0  0
  -24.6590  -31.0890   22.1000 N   0  0  0  0  0  0  0  0  0  0  0  0
  -23.5280  -32.1420   23.7580 O   0  0  0  0  0  0  0  0  0  0  0  0
  -22.7410  -29.4680   22.5000 C   0  0  0  0  0  0  0  0  0  0  0  0
  -21.4140  -29.3040   22.3760 N   0  0  0  0  0  0  0  0  0  0  0  0
  -23.4210  -28.8220   23.3010 O   0  0  0  0  0  0  0  0  0  0  0  0
  -20.9300  -29.8820   21.7030 H   0  0  0  0  0  0  0  0  0  0  0  0
  -18.0290  -28.1390   22.8510 C   0  0  0  0  0  0  0  0  0  0  0  0
  -20.5880  -28.3650   23.1340 C   0  0  0  0  0  3  0  0  0  0  0  0
  -20.6760  -26.9390   22.5430 C   0  0  0  0  0  2  0  0  0  0  0  0
  -19.5730  -26.6390   21.5230 C   0  0  0  0  0  2  0  0  0  0  0  0
  -18.1920  -26.7950   22.1640 C   0  0  0  0  0  2  0  0  0  0  0  0
  -19.1540  -28.8840   23.2930 C   0  0  0  0  0  0  0  0  0  0  0  0
  -18.9470  -30.1450   23.8940 C   0  0  0  0  0  3  0  0  0  0  0  0
  -17.6470  -30.6600   24.0580 C   0  0  0  0  0  3  0  0  0  0  0  0
  -16.5360  -29.9110   23.6330 C   0  0  0  0  0  3  0  0  0  0  0  0
  -16.7280  -28.6530   23.0350 C   0  0  0  0  0  3  0  0  0  0  0  0
  -25.8980  -32.4870   23.8420 C   0  0  0  0  0  3  0  0  0  0  0  0
  -26.4420  -31.6640   25.0730 C   0  0  1  0  0  0  0  0  0  0  0  0
  -25.3680  -31.3750   26.1480 C   0  0  0  0  0  1  0  0  0  0  0  0
  -27.0250  -30.3120   24.6050 C   0  0  0  0  0  1  0  0  0  0  0  0
  -27.6010  -32.4340   25.7480 C   0  0  0  0  0  1  0  0  0  0  0  0
  -25.5840  -33.8660   24.2350 N   0  0  0  0  0  0  0  0  0  0  0  0
  -25.9010  -34.9510   23.5150 C   0  0  0  0  0  0  0  0  0  0  0  0
  -26.5590  -34.8950   22.4730 O   0  0  0  0  0  0  0  0  0  0  0  0
  -25.0000  -33.9810   25.0500 H   0  0  0  0  0  0  0  0  0  0  0  0
  -24.1480  -36.7310   23.2650 C   0  0  0  0  0  1  0  0  0  0  0  0
  -25.4110  -36.3140   24.0360 C   0  0  0  0  0  3  0  0  0  0  0  0
  -27.5590  -37.1820   24.8480 C   0  0  0  0  0  1  0  0  0  0  0  0
  -26.4310  -37.3820   23.9410 N   0  0  0  0  0  0  0  0  0  0  0  0
  -26.0220  -38.2900   24.1410 H   0  0  0  0  0  0  0  0  0  0  0  0
  1 54  1  0
  1  2  1  0
  2  5  1  0
  2  4  1  0
  3  1  2  0
  6  7  1  0
  6  5  1  0
  8  9  1  0
  8  7  1  0
  9 10  1  0
 11 13  2  0
 11 12  1  0
 12 10  1  0
 14 12  1  0
 15 11  1  0
 16 24  1  0
 17 22  1  0
 18 19  1  0
 18 17  1  0
 20 19  1  0
 20 29  1  0
 20 21  1  0
 22 16  1  0
 22 21  1  0
 23 16  2  0
 24 25  1  0
 24 15  1  0
 26 27  2  0
 27 46  1  0
 28 27  1  0
 28 31  1  0
 29 26  1  0
 29 30  1  0
 30 28  2  0
 31 32  1  0
 32 33  2  0
 34 37  1  0
 34 33  1  0
 35 34  2  0
 36 35  1  0
 36 31  2  0
 37 38  1  0
 38 39  1  0
 39 40  2  0
 41 40  1  0
 41 45  1  0
 42 41  2  0
 43 38  2  0
 43 42  1  0
 44 43  1  0
 46 47  1  0
 47 50  1  0
 47 49  1  0
 48 46  2  0
 51 52  1  0
 51 26  1  0
 53 51  1  0
 55 54  1  0
 56 58  1  0
 56 55  1  0
 57 56  1  0
 59 56  1  0
 60 59  1  0
 61 62  1  0
 61 60  1  0
 63 65  1  0
 63 62  1  0
 64 75  2  0
 65 70  1  0
 66 74  1  0
 66 76  1  0
 67 73  1  0
 67 69  1  0
 68 74  1  0
 69 68  1  0
 70 69  2  0
 71 72  1  0
 71 65  2  0
 72 67  2  0
 73 66  1  0
 74 64  1  0
 76 78  2  0
 77 76  1  0
 79 77  1  0
 80 89  2  0
 80 85  1  0
 81 77  1  0
 81 85  1  0
 82 81  1  0
 83 84  1  0
 83 82  1  0
 84 80  1  0
 85 86  2  0
 86 87  1  0
 88 87  2  0
 89 88  1  0
 90 64  1  0
 90 95  1  0
 90 91  1  0
 91 94  1  1
 91 92  1  0
 93 91  1  0
 95 98  1  0
 96100  1  0
 96 95  1  0
 97 96  2  0
100 99  1  0
102100  1  0
102103  1  0
102101  1  0
M  ISO  4  16 100  24 100  62 101  63 101
M  END
>  <TORSDO>  (14) 
F 31

>  <SCORE>  (14) 
52.561

>  <name>  (14) 
13

>  <ligand_id>  (14) 
13

>  <original_smiles>  (14) 
[H]c1c([H])c([H])c2c(c1[H])C([H])([H])C([H])([H])C([H])([H])C2([H])N([H])C(=O)C1([H])N(C(=O)C([H])(N([H])C(=O)C([H])(N([H])C([H])([H])[H])C([H])([H])[H])C(C([H])([H])[H])(C([H])([H])[H])C([H])([H])[H])C([H])([H])c2c([H])c(OC([H])([H])C([H])([H])C([H])([H])C([H])([H])[N+]([H])([H])C([H])([H])C([H])([H])C(=O)N([H])C([H])([H])C([H])([H])C([H])([H])C([H])([H])C([H])([H])C([H])([H])N([H])C(=O)C([H])([H])N([H])C(=O)N3C([H])([H])C([H])([H])C([H])([H])C([H])(n4nc(-c5c([H])c([H])c(Oc6c([H])c([H])c(F)c([H])c6F)c([H])c5[H])c(C(=O)N([H])[H])c4N([H])[H])C3([H])[H])c([H])c([H])c2C1([H])[H]

>  <smiles>  (14) 
[H]c1c([H])c([H])c2c(c1[H])C([H])([H])C([H])([H])C([H])([H])C2([H])N([H])C(=O)C1([H])N(C(=O)C([H])(N([H])C(=O)C([H])(N([H])C([H])([H])[H])C([H])([H])[H])C(C([H])([H])[H])(C([H])([H])[H])C([H])([H])[H])C([H])([H])c2c([H])c(OC([H])([H])C([H])([H])C([H])([H])C([H])([H])[N+]([H])([H])C([H])([H])C([H])([H])C(=O)N([H])C([H])([H])C([H])([H])C([H])([H])C([H])([H])C([H])([H])C([H])([H])N([H])C(=O)C([H])([H])N([H])C(=O)N3C([H])([H])C([H])([H])C([H])([H])C([H])(n4nc(-c5c([H])c([H])c(Oc6c([H])c([H])c(F)c([H])c6F)c([H])c5[H])c(C(=O)N([H])[H])c4N([H])[H])C3([H])[H])c([H])c([H])c2C1([H])[H]

$$$$
14:0:0
     RDKit          3D

 92 99  0  0  1  0  0  0  0  0999 V2000
  -30.2960  -22.7660   21.1500 N   0  0  0  0  0  4  0  0  0  0  0  0
  -30.8550  -22.7950   21.9900 H   0  0  0  0  0  0  0  0  0  0  0  0
  -30.9190  -22.8970   20.3690 H   0  0  0  0  0  0  0  0  0  0  0  0
  -29.3100  -23.8780   21.1750 C   0  0  0  0  0  2  0  0  0  0  0  0
  -29.9740  -25.2680   21.3200 C   0  0  0  0  0  2  0  0  0  0  0  0
  -28.9820  -26.4500   21.4030 C   0  0  0  0  0  2  0  0  0  0  0  0
  -28.3940  -26.7080   20.1300 O   0  0  0  0  0  0  0  0  0  0  0  0
  -24.5820  -31.8900   23.2430 C   0  0  0  0  0  0  0  0  0  0  0  0
  -27.2540  -27.4790   20.1630 C   0  0  0  0  0  0  0  0  0  0  0  0
  -23.3830  -30.4850   21.5960 C   0  0  0  0  0  3  0  0  0  0  0  0
  -24.8480  -28.9570   20.1710 C   0  0  0  0  0  0  0  0  0  0  0  0
  -25.9040  -30.8620   21.4000 C   0  0  0  0  0  2  0  0  0  0  0  0
  -25.9990  -29.4900   20.7680 C   0  0  0  0  0  0  0  0  0  0  0  0
  -27.2050  -28.7540   20.7730 C   0  0  0  0  0  3  0  0  0  0  0  0
  -26.0960  -26.9640   19.5500 C   0  0  0  0  0  3  0  0  0  0  0  0
  -24.8890  -27.6900   19.5620 C   0  0  0  0  0  3  0  0  0  0  0  0
  -23.5990  -29.8080   20.2150 C   0  0  0  0  0  2  0  0  0  0  0  0
  -24.6420  -31.0920   22.1400 N   0  0  0  0  0  0  0  0  0  0  0  0
  -23.4990  -32.1560   23.7840 O   0  0  0  0  0  0  0  0  0  0  0  0
  -22.7370  -29.4590   22.5540 C   0  0  0  0  0  0  0  0  0  0  0  0
  -21.4120  -29.2780   22.4320 N   0  0  0  0  0  0  0  0  0  0  0  0
  -23.4240  -28.8290   23.3630 O   0  0  0  0  0  0  0  0  0  0  0  0
  -20.9200  -29.8410   21.7530 H   0  0  0  0  0  0  0  0  0  0  0  0
  -18.0370  -28.0910   22.9360 C   0  0  0  0  0  0  0  0  0  0  0  0
  -20.5960  -28.3370   23.1990 C   0  0  0  0  0  3  0  0  0  0  0  0
  -20.6920  -26.9100   22.6120 C   0  0  0  0  0  2  0  0  0  0  0  0
  -19.5840  -26.5990   21.6000 C   0  0  0  0  0  2  0  0  0  0  0  0
  -18.2050  -26.7440   22.2510 C   0  0  0  0  0  2  0  0  0  0  0  0
  -19.1600  -28.8470   23.3660 C   0  0  0  0  0  0  0  0  0  0  0  0
  -18.9490  -30.1070   23.9650 C   0  0  0  0  0  3  0  0  0  0  0  0
  -17.6470  -30.6140   24.1370 C   0  0  0  0  0  3  0  0  0  0  0  0
  -16.5380  -29.8560   23.7230 C   0  0  0  0  0  3  0  0  0  0  0  0
  -16.7330  -28.5960   23.1280 C   0  0  0  0  0  3  0  0  0  0  0  0
  -25.8660  -32.5250   23.8650 C   0  0  0  0  0  3  0  0  0  0  0  0
  -25.5570  -33.9230   24.1840 N   0  0  0  0  0  0  0  0  0  0  0  0
  -25.8950  -34.9700   23.4190 C   0  0  0  0  0  0  0  0  0  0  0  0
  -26.5700  -34.8590   22.3920 O   0  0  0  0  0  0  0  0  0  0  0  0
  -24.9570  -34.0840   24.9810 H   0  0  0  0  0  0  0  0  0  0  0  0
  -24.1700  -36.7600   23.0390 C   0  0  0  0  0  1  0  0  0  0  0  0
  -25.4040  -36.3610   23.8640 C   0  0  0  0  0  3  0  0  0  0  0  0
  -27.5340  -37.2470   24.7060 C   0  0  0  0  0  1  0  0  0  0  0  0
  -26.4400  -37.4120   23.7520 N   0  0  0  0  0  0  0  0  0  0  0  0
  -26.0340  -38.3340   23.8910 H   0  0  0  0  0  0  0  0  0  0  0  0
  -26.3840  -31.7580   25.1430 C   0  0  1  0  0  0  0  0  0  0  0  0
  -25.2910  -31.5210   26.2120 C   0  0  0  0  0  1  0  0  0  0  0  0
  -26.9680  -30.3790   24.7540 C   0  0  0  0  0  1  0  0  0  0  0  0
  -27.5340  -32.5550   25.8030 C   0  0  0  0  0  1  0  0  0  0  0  0
  -29.6840  -21.4180   21.0410 C   0  0  0  0  0  2  0  0  0  0  0  0
  -30.7200  -20.2700   21.0300 C   0  0  0  0  0  2  0  0  0  0  0  0
  -30.5790  -17.7620   21.0880 C   0  0  0  0  0  0  0  0  0  0  0  0
  -30.0490  -18.9780   20.8890 N   0  0  0  0  0  0  0  0  0  0  0  0
  -31.7460  -17.5740   21.4320 O   0  0  0  0  0  0  0  0  0  0  0  0
  -29.0740  -19.0070   20.6190 H   0  0  0  0  0  0  0  0  0  0  0  0
  -29.6060  -16.6010   20.8650 C   0  0  0  0  0  2  0  0  0  0  0  0
  -30.6570  -14.4320   20.3530 C   0  0  0  0  0  0  0  0  0  0  0  0
  -30.3190  -12.3570   19.0610 C   0  0  0  0  0  2  0  0  0  0  0  0
  -29.3350  -12.6440   17.9050 C   0  0  0  0  0  2  0  0  0  0  0  0
  -27.8710  -12.4920   18.3740 C   0  0  0  0  0  2  0  0  0  0  0  0
  -27.5870  -13.2690   19.6860 C   0  0  0  0  0  3  0  0  0  0  0  0
  -28.6680  -12.9390   20.7430 C   0  0  0  0  0  2  0  0  0  0  0  0
  -29.9970  -13.2570   20.1790 N   0  0  0  0  0  0  0  0  0  0  0  0
  -31.6550  -14.7640   19.7050 O   0  0  0  0  0  0  0  0  0  0  0  0
  -30.0660  -15.2570   21.2250 N   0  0  0  0  0  0  0  0  0  0  0  0
  -29.4590  -14.7860   21.8750 H   0  0  0  0  0  0  0  0  0  0  0  0
  -25.1980  -13.8790   20.4470 C   0  0  0  0  0  0  0  0  0  0  0  0
  -24.1370  -13.1050   20.8390 C   0  0  0  0  0  0  0  0  0  0  0  0
  -24.5990  -11.7550   20.7870 C   0  0  0  0  0  0  0  0  0  0  0  0
  -26.2380  -13.0000   20.1870 N   0  0  0  0  0  0  0  0  0  0  0  0
  -25.8810  -11.7160   20.4450 N   0  0  0  0  0  0  0  0  0  0  0  0
  -23.8790  -10.4900   20.9890 C   0  0  0  0  0  0  0  0  0  0  0  0
  -24.3300   -9.5240   21.9150 C   0  0  0  0  0  3  0  0  0  0  0  0
  -23.6120   -8.3250   22.1060 C   0  0  0  0  0  3  0  0  0  0  0  0
  -22.4280   -8.0800   21.3680 C   0  0  0  0  0  0  0  0  0  0  0  0
  -21.9970   -9.0350   20.4310 C   0  0  0  0  0  3  0  0  0  0  0  0
  -22.7150  -10.2270   20.2400 C   0  0  0  0  0  3  0  0  0  0  0  0
  -21.6830   -6.9310   21.4650 O   0  0  0  0  0  0  0  0  0  0  0  0
  -21.6510   -6.1890   22.6190 C   0  0  0  0  0  0  0  0  0  0  0  0
  -21.2310   -6.7430   23.8480 C   0  0  0  0  0  3  0  0  0  0  0  0
  -21.1450   -5.9270   24.9940 C   0  0  0  0  0  3  0  0  0  0  0  0
  -21.4700   -4.5590   24.9130 C   0  0  0  0  0  0  0  0  0  0  0  0
  -21.8840   -4.0070   23.6870 C   0  0  0  0  0  3  0  0  0  0  0  0
  -21.9710   -4.8200   22.5440 C   0  0  0  0  0  0  0  0  0  0  0  0
  -22.3490   -4.2770   21.3610 F   0  0  0  0  0  0  0  0  0  0  0  0
  -21.3810   -3.7740   26.0110 F   0  0  0  0  0  0  0  0  0  0  0  0
  -22.7470  -13.5810   21.1490 C   0  0  0  0  0  0  0  0  0  0  0  0
  -22.0370  -12.8800   22.0270 N   0  0  0  0  0  0  0  0  0  0  0  0
  -22.2950  -14.6110   20.6510 O   0  0  0  0  0  0  0  0  0  0  0  0
  -22.4110  -12.0480   22.4570 H   0  0  0  0  0  0  0  0  0  0  0  0
  -21.1060  -13.1810   22.2720 H   0  0  0  0  0  0  0  0  0  0  0  0
  -25.3610  -15.2510   20.2750 N   0  0  0  0  0  0  0  0  0  0  0  0
  -24.6060  -15.9140   20.4110 H   0  0  0  0  0  0  0  0  0  0  0  0
  -26.2100  -15.6860   19.9390 H   0  0  0  0  0  0  0  0  0  0  0  0
  1  4  1  0
  1  2  1  0
  3  1  1  0
  4  5  1  0
  5  6  1  0
  7  9  1  0
  7  6  1  0
  8 19  2  0
  9 14  1  0
 10 18  1  0
 10 20  1  0
 11 17  1  0
 11 13  1  0
 12 18  1  0
 13 14  2  0
 13 12  1  0
 15 16  1  0
 15  9  2  0
 16 11  2  0
 17 10  1  0
 18  8  1  0
 20 22  2  0
 21 20  1  0
 23 21  1  0
 24 33  2  0
 24 29  1  0
 25 21  1  0
 25 29  1  0
 26 25  1  0
 27 28  1  0
 27 26  1  0
 28 24  1  0
 29 30  2  0
 30 31  1  0
 32 31  2  0
 33 32  1  0
 34  8  1  0
 34 35  1  0
 34 44  1  0
 35 38  1  0
 36 40  1  0
 36 35  1  0
 37 36  2  0
 40 39  1  0
 42 40  1  0
 42 43  1  0
 42 41  1  0
 44 47  1  1
 44 45  1  0
 46 44  1  0
 48  1  1  0
 49 48  1  0
 50 52  2  0
 51 49  1  0
 51 50  1  0
 53 51  1  0
 54 50  1  0
 54 63  1  0
 55 63  1  0
 56 61  1  0
 57 58  1  0
 57 56  1  0
 59 58  1  0
 59 68  1  0
 59 60  1  0
 61 55  1  0
 61 60  1  0
 62 55  2  0
 63 64  1  0
 65 66  2  0
 66 85  1  0
 67 66  1  0
 67 70  1  0
 68 69  1  0
 68 65  1  0
 69 67  2  0
 70 71  1  0
 71 72  2  0
 73 76  1  0
 73 72  1  0
 74 73  2  0
 75 74  1  0
 75 70  2  0
 76 77  1  0
 77 78  1  0
 78 79  2  0
 80 79  1  0
 80 84  1  0
 81 80  2  0
 82 77  2  0
 82 81  1  0
 83 82  1  0
 85 86  1  0
 86 89  1  0
 86 88  1  0
 87 85  2  0
 90 91  1  0
 90 65  1  0
 92 90  1  0
M  ISO  4   6 101   7 101  55 100  63 100
M  END
>  <TORSDO>  (15) 
F 23

>  <SCORE>  (15) 
-12.923

>  <name>  (15) 
14

>  <ligand_id>  (15) 
14

>  <original_smiles>  (15) 
[H]c1c([H])c([H])c2c(c1[H])C([H])([H])C([H])([H])C([H])([H])C2([H])N([H])C(=O)C1([H])N(C(=O)C([H])(N([H])C(=O)C([H])(N([H])C([H])([H])[H])C([H])([H])[H])C(C([H])([H])[H])(C([H])([H])[H])C([H])([H])[H])C([H])([H])c2c([H])c(OC([H])([H])C([H])([H])C([H])([H])[N+]([H])([H])C([H])([H])C([H])([H])N([H])C(=O)C([H])([H])N([H])C(=O)N3C([H])([H])C([H])([H])C([H])([H])C([H])(n4nc(-c5c([H])c([H])c(Oc6c([H])c([H])c(F)c([H])c6F)c([H])c5[H])c(C(=O)N([H])[H])c4N([H])[H])C3([H])[H])c([H])c([H])c2C1([H])[H]

>  <smiles>  (15) 
[H]c1c([H])c([H])c2c(c1[H])C([H])([H])C([H])([H])C([H])([H])C2([H])N([H])C(=O)C1([H])N(C(=O)C([H])(N([H])C(=O)C([H])(N([H])C([H])([H])[H])C([H])([H])[H])C(C([H])([H])[H])(C([H])([H])[H])C([H])([H])[H])C([H])([H])c2c([H])c(OC([H])([H])C([H])([H])C([H])([H])[N+]([H])([H])C([H])([H])C([H])([H])N([H])C(=O)C([H])([H])N([H])C(=O)N3C([H])([H])C([H])([H])C([H])([H])C([H])(n4nc(-c5c([H])c([H])c(Oc6c([H])c([H])c(F)c([H])c6F)c([H])c5[H])c(C(=O)N([H])[H])c4N([H])[H])C3([H])[H])c([H])c([H])c2C1([H])[H]

$$$$
15:0:0
     RDKit          3D

102109  0  0  1  0  0  0  0  0999 V2000
  -23.2400  -23.7620   23.2130 C   0  0  0  0  0  0  0  0  0  0  0  0
  -22.2250  -22.9160   23.0160 N   0  0  0  0  0  0  0  0  0  0  0  0
  -23.6010  -24.1310   24.3340 O   0  0  0  0  0  0  0  0  0  0  0  0
  -21.9990  -22.6800   22.0610 H   0  0  0  0  0  0  0  0  0  0  0  0
  -23.8870  -24.0990   21.9680 C   0  0  0  0  0  3  0  0  0  0  0  0
  -25.2210  -24.2700   21.9540 C   0  0  0  0  0  3  0  0  0  0  0  0
  -25.9200  -24.5400   20.7190 C   0  0  0  0  0  0  0  0  0  0  0  0
  -27.2380  -24.5120   20.9170 N   0  0  0  0  0  0  0  0  0  0  0  0
  -25.3970  -24.7260   19.6180 O   0  0  0  0  0  0  0  0  0  0  0  0
  -27.5480  -24.3510   21.8630 H   0  0  0  0  0  0  0  0  0  0  0  0
  -28.2790  -24.6240   19.9020 C   0  0  0  0  0  2  0  0  0  0  0  0
  -29.1820  -25.8370   20.1720 C   0  0  0  0  0  2  0  0  0  0  0  0
  -28.8220  -26.9000   19.3040 O   0  0  0  0  0  0  0  0  0  0  0  0
  -25.3260  -30.9690   24.0020 C   0  0  0  0  0  0  0  0  0  0  0  0
  -27.6900  -27.5900   19.6400 C   0  0  0  0  0  0  0  0  0  0  0  0
  -24.0480  -30.2730   21.9980 C   0  0  0  0  0  3  0  0  0  0  0  0
  -25.4080  -29.1570   20.1540 C   0  0  0  0  0  0  0  0  0  0  0  0
  -26.5940  -30.4760   21.9160 C   0  0  0  0  0  2  0  0  0  0  0  0
  -26.5860  -29.3740   20.8810 C   0  0  0  0  0  0  0  0  0  0  0  0
  -27.7310  -28.5900   20.6320 C   0  0  0  0  0  3  0  0  0  0  0  0
  -26.5030  -27.3740   18.9150 C   0  0  0  0  0  3  0  0  0  0  0  0
  -25.3570  -28.1490   19.1740 C   0  0  0  0  0  3  0  0  0  0  0  0
  -24.2340  -30.0490   20.4740 C   0  0  0  0  0  2  0  0  0  0  0  0
  -25.3410  -30.5680   22.6990 N   0  0  0  0  0  0  0  0  0  0  0  0
  -24.2610  -31.1420   24.6060 O   0  0  0  0  0  0  0  0  0  0  0  0
  -23.2970  -29.0560   22.5840 C   0  0  0  0  0  0  0  0  0  0  0  0
  -21.9960  -28.9530   22.2750 N   0  0  0  0  0  0  0  0  0  0  0  0
  -23.8900  -28.2190   23.2700 O   0  0  0  0  0  0  0  0  0  0  0  0
  -21.5850  -29.6850   21.7110 H   0  0  0  0  0  0  0  0  0  0  0  0
  -18.6370  -27.6730   21.9280 C   0  0  0  0  0  0  0  0  0  0  0  0
  -21.1000  -27.8710   22.6830 C   0  0  0  0  0  3  0  0  0  0  0  0
  -21.3520  -26.5960   21.8430 C   0  0  0  0  0  2  0  0  0  0  0  0
  -20.4530  -26.5000   20.6080 C   0  0  0  0  0  2  0  0  0  0  0  0
  -18.9780  -26.5050   21.0170 C   0  0  0  0  0  2  0  0  0  0  0  0
  -19.6360  -28.3250   22.6980 C   0  0  0  0  0  0  0  0  0  0  0  0
  -19.2760  -29.4310   23.4960 C   0  0  0  0  0  3  0  0  0  0  0  0
  -17.9440  -29.8840   23.5360 C   0  0  0  0  0  3  0  0  0  0  0  0
  -16.9550  -29.2260   22.7840 C   0  0  0  0  0  3  0  0  0  0  0  0
  -17.3010  -28.1200   21.9870 C   0  0  0  0  0  3  0  0  0  0  0  0
  -26.6470  -31.2560   24.7860 C   0  0  0  0  0  3  0  0  0  0  0  0
  -26.5210  -32.5870   25.3910 N   0  0  0  0  0  0  0  0  0  0  0  0
  -27.0750  -33.7010   24.8990 C   0  0  0  0  0  0  0  0  0  0  0  0
  -27.8150  -33.7040   23.9100 O   0  0  0  0  0  0  0  0  0  0  0  0
  -25.8950  -32.6700   26.1790 H   0  0  0  0  0  0  0  0  0  0  0  0
  -25.6920  -35.8000   24.8210 C   0  0  0  0  0  1  0  0  0  0  0  0
  -26.7570  -35.0260   25.6140 C   0  0  0  0  0  3  0  0  0  0  0  0
  -28.8890  -35.3440   26.7940 C   0  0  0  0  0  1  0  0  0  0  0  0
  -27.9460  -35.8840   25.8180 N   0  0  0  0  0  0  0  0  0  0  0  0
  -27.6710  -36.8130   26.1240 H   0  0  0  0  0  0  0  0  0  0  0  0
  -26.9710  -30.1660   25.8820 C   0  0  1  0  0  0  0  0  0  0  0  0
  -25.7940  -29.8920   26.8470 C   0  0  0  0  0  1  0  0  0  0  0  0
  -27.3650  -28.8260   25.2190 C   0  0  0  0  0  1  0  0  0  0  0  0
  -28.1860  -30.6170   26.7290 C   0  0  0  0  0  1  0  0  0  0  0  0
  -21.5820  -22.1290   24.0620 C   0  0  0  0  0  2  0  0  0  0  0  0
  -22.3020  -20.7790   24.2720 C   0  0  0  0  0  2  0  0  0  0  0  0
  -23.5050  -20.2260   22.1420 C   0  0  0  0  0  0  0  0  0  0  0  0
  -22.5000  -20.0570   23.0110 N   0  0  0  0  0  0  0  0  0  0  0  0
  -24.3840  -21.0760   22.2880 O   0  0  0  0  0  0  0  0  0  0  0  0
  -21.8320  -19.3270   22.8010 H   0  0  0  0  0  0  0  0  0  0  0  0
  -23.5280  -19.2720   20.9400 C   0  0  0  0  0  2  0  0  0  0  0  0
  -24.3430  -19.7730   19.7310 C   0  0  0  0  0  2  0  0  0  0  0  0
  -25.4660  -18.7850   19.3590 C   0  0  0  0  0  2  0  0  0  0  0  0
  -26.5010  -19.3850   18.3910 C   0  0  0  0  0  2  0  0  0  0  0  0
  -27.9600  -19.0120   18.7180 C   0  0  0  0  0  2  0  0  0  0  0  0
  -29.1540  -16.9630   19.5000 C   0  0  0  0  0  0  0  0  0  0  0  0
  -29.9860  -14.7100   20.0520 C   0  0  0  0  0  2  0  0  0  0  0  0
  -29.4620  -13.6900   19.0240 C   0  0  0  0  0  2  0  0  0  0  0  0
  -28.0690  -13.1690   19.4280 C   0  0  0  0  0  2  0  0  0  0  0  0
  -27.0820  -14.3120   19.7860 C   0  0  0  0  0  3  0  0  0  0  0  0
  -27.7370  -15.3060   20.7670 C   0  0  0  0  0  2  0  0  0  0  0  0
  -28.9940  -15.7910   20.1660 N   0  0  0  0  0  0  0  0  0  0  0  0
  -30.2040  -17.2810   18.9320 O   0  0  0  0  0  0  0  0  0  0  0  0
  -28.0620  -17.7420   19.4370 N   0  0  0  0  0  0  0  0  0  0  0  0
  -27.2400  -17.4110   19.9190 H   0  0  0  0  0  0  0  0  0  0  0  0
  -24.6650  -14.4620   20.6640 C   0  0  0  0  0  0  0  0  0  0  0  0
  -23.7640  -13.4990   21.0270 C   0  0  0  0  0  0  0  0  0  0  0  0
  -24.4360  -12.2470   20.8650 C   0  0  0  0  0  0  0  0  0  0  0  0
  -25.8240  -13.7850   20.3080 N   0  0  0  0  0  0  0  0  0  0  0  0
  -25.6910  -12.4470   20.4830 N   0  0  0  0  0  0  0  0  0  0  0  0
  -23.9410  -10.8710   20.9960 C   0  0  0  0  0  0  0  0  0  0  0  0
  -24.1830  -10.1050   22.1580 C   0  0  0  0  0  3  0  0  0  0  0  0
  -23.6800   -8.7890   22.2640 C   0  0  0  0  0  3  0  0  0  0  0  0
  -22.9260   -8.2320   21.2050 C   0  0  0  0  0  0  0  0  0  0  0  0
  -22.7080   -8.9900   20.0420 C   0  0  0  0  0  3  0  0  0  0  0  0
  -23.2140  -10.2960   19.9350 C   0  0  0  0  0  3  0  0  0  0  0  0
  -22.4220   -6.9530   21.2110 O   0  0  0  0  0  0  0  0  0  0  0  0
  -21.7370   -6.4520   22.2880 C   0  0  0  0  0  0  0  0  0  0  0  0
  -20.5040   -7.0000   22.7050 C   0  0  0  0  0  3  0  0  0  0  0  0
  -19.7970   -6.4130   23.7730 C   0  0  0  0  0  3  0  0  0  0  0  0
  -20.3140   -5.2750   24.4190 C   0  0  0  0  0  0  0  0  0  0  0  0
  -21.5380   -4.7220   24.0020 C   0  0  0  0  0  3  0  0  0  0  0  0
  -22.2460   -5.3080   22.9370 C   0  0  0  0  0  0  0  0  0  0  0  0
  -23.4140   -4.7610   22.5250 F   0  0  0  0  0  0  0  0  0  0  0  0
  -19.6310   -4.7030   25.4390 F   0  0  0  0  0  0  0  0  0  0  0  0
  -22.3280  -13.7150   21.4120 C   0  0  0  0  0  0  0  0  0  0  0  0
  -21.7840  -12.8540   22.2650 N   0  0  0  0  0  0  0  0  0  0  0  0
  -21.6930  -14.6840   20.9960 O   0  0  0  0  0  0  0  0  0  0  0  0
  -22.3050  -12.0710   22.6290 H   0  0  0  0  0  0  0  0  0  0  0  0
  -20.8280  -12.9860   22.5640 H   0  0  0  0  0  0  0  0  0  0  0  0
  -24.5940  -15.8490   20.5910 N   0  0  0  0  0  0  0  0  0  0  0  0
  -23.7450  -16.3640   20.7980 H   0  0  0  0  0  0  0  0  0  0  0  0
  -25.3420  -16.4440   20.2580 H   0  0  0  0  0  0  0  0  0  0  0  0
  1  3  2  0
  2  1  1  0
  2 54  1  0
  4  2  1  0
  5  1  1  0
  6  5  2  0
  7  8  1  0
  7  6  1  0
  8 10  1  0
  9  7  2  0
 11 12  1  0
 11  8  1  0
 13 15  1  0
 13 12  1  0
 14 25  2  0
 15 20  1  0
 16 26  1  0
 16 24  1  0
 17 23  1  0
 17 19  1  0
 18 24  1  0
 19 18  1  0
 20 19  2  0
 21 22  1  0
 21 15  2  0
 22 17  2  0
 23 16  1  0
 24 14  1  0
 26 28  2  0
 27 26  1  0
 29 27  1  0
 30 39  2  0
 30 35  1  0
 31 27  1  0
 31 35  1  0
 32 31  1  0
 33 34  1  0
 33 32  1  0
 34 30  1  0
 35 36  2  0
 36 37  1  0
 38 37  2  0
 39 38  1  0
 40 14  1  0
 40 41  1  0
 40 50  1  0
 41 44  1  0
 42 41  1  0
 42 46  1  0
 43 42  2  0
 46 45  1  0
 46 48  1  0
 48 49  1  0
 48 47  1  0
 50 53  1  1
 50 51  1  0
 52 50  1  0
 54 55  1  0
 56 58  2  0
 56 57  1  0
 57 55  1  0
 59 57  1  0
 60 56  1  0
 61 60  1  0
 62 61  1  0
 63 64  1  0
 63 62  1  0
 64 73  1  0
 65 71  1  0
 66 71  1  0
 67 68  1  0
 67 66  1  0
 69 68  1  0
 69 78  1  0
 69 70  1  0
 71 70  1  0
 72 65  2  0
 73 65  1  0
 73 74  1  0
 75 76  2  0
 76 95  1  0
 77 80  1  0
 77 76  1  0
 78 79  1  0
 78 75  1  0
 79 77  2  0
 80 81  1  0
 81 82  2  0
 83 86  1  0
 83 82  1  0
 84 83  2  0
 85 84  1  0
 85 80  2  0
 86 87  1  0
 87 88  2  0
 87 92  1  0
 88 89  1  0
 89 90  2  0
 90 94  1  0
 91 90  1  0
 92 91  2  0
 93 92  1  0
 95 96  1  0
 96 99  1  0
 96 98  1  0
 97 95  2  0
100 75  1  0
100101  1  0
102100  1  0
M  ISO  4  12 101  13 101  65 100  73 100
M  END
>  <TORSDO>  (16) 
F 28

>  <SCORE>  (16) 
34.826

>  <name>  (16) 
15

>  <ligand_id>  (16) 
15

>  <original_smiles>  (16) 
[H]C(C(=O)N([H])C([H])([H])C([H])([H])Oc1c([H])c([H])c2c(c1[H])C([H])([H])N(C(=O)C([H])(N([H])C(=O)C([H])(N([H])C([H])([H])[H])C([H])([H])[H])C(C([H])([H])[H])(C([H])([H])[H])C([H])([H])[H])C([H])(C(=O)N([H])C1([H])c3c([H])c([H])c([H])c([H])c3C([H])([H])C([H])([H])C1([H])[H])C2([H])[H])=C([H])C(=O)N([H])C([H])([H])C([H])([H])N([H])C(=O)C([H])([H])C([H])([H])C([H])([H])C([H])([H])C([H])([H])N([H])C(=O)N1C([H])([H])C([H])([H])C([H])([H])C([H])(n2nc(-c3c([H])c([H])c(Oc4c([H])c([H])c(F)c([H])c4F)c([H])c3[H])c(C(=O)N([H])[H])c2N([H])[H])C1([H])[H]

>  <smiles>  (16) 
[H]C(C(=O)N([H])C([H])([H])C([H])([H])Oc1c([H])c([H])c2c(c1[H])C([H])([H])N(C(=O)C([H])(N([H])C(=O)C([H])(N([H])C([H])([H])[H])C([H])([H])[H])C(C([H])([H])[H])(C([H])([H])[H])C([H])([H])[H])C([H])(C(=O)N([H])C1([H])c3c([H])c([H])c([H])c([H])c3C([H])([H])C([H])([H])C1([H])[H])C2([H])[H])=C([H])C(=O)N([H])C([H])([H])C([H])([H])N([H])C(=O)C([H])([H])C([H])([H])C([H])([H])C([H])([H])C([H])([H])N([H])C(=O)N1C([H])([H])C([H])([H])C([H])([H])C([H])(n2nc(-c3c([H])c([H])c(Oc4c([H])c([H])c(F)c([H])c4F)c([H])c3[H])c(C(=O)N([H])[H])c2N([H])[H])C1([H])[H]

$$$$
16:0:0
     RDKit          3D

 96103  0  0  1  0  0  0  0  0999 V2000
  -28.9000  -21.2830   23.4880 C   0  0  0  0  0  2  0  0  0  0  0  0
  -30.1740  -20.9870   24.3040 C   0  0  0  0  0  2  0  0  0  0  0  0
  -31.3480  -20.4090   23.4900 C   0  0  0  0  0  2  0  0  0  0  0  0
  -31.0940  -18.9960   22.9390 C   0  0  0  0  0  2  0  0  0  0  0  0
  -31.9650  -18.6810   21.7110 C   0  0  0  0  0  2  0  0  0  0  0  0
  -32.1720  -17.2270   21.5560 N   0  0  0  0  0  4  0  0  0  0  0  0
  -31.3550  -16.7460   21.8870 H   0  0  0  0  0  0  0  0  0  0  0  0
  -32.9490  -16.9590   22.1390 H   0  0  0  0  0  0  0  0  0  0  0  0
  -32.4310  -16.7800   20.1720 C   0  0  0  0  0  2  0  0  0  0  0  0
  -33.0240  -15.3600   20.1240 C   0  0  0  0  0  2  0  0  0  0  0  0
  -32.1460  -13.0800   19.6440 C   0  0  0  0  0  0  0  0  0  0  0  0
  -31.9000  -10.7530   20.3930 C   0  0  0  0  0  2  0  0  0  0  0  0
  -31.0420   -9.8530   19.4930 C   0  0  0  0  0  2  0  0  0  0  0  0
  -29.5580   -9.9730   19.8690 C   0  0  0  0  0  2  0  0  0  0  0  0
  -29.0840  -11.4470   19.9340 C   0  0  0  0  0  3  0  0  0  0  0  0
  -30.0450  -12.3100   20.7840 C   0  0  0  0  0  2  0  0  0  0  0  0
  -31.4230  -12.1370   20.2890 N   0  0  0  0  0  0  0  0  0  0  0  0
  -33.0440  -12.8290   18.8350 O   0  0  0  0  0  0  0  0  0  0  0  0
  -32.0160  -14.2950   20.1920 N   0  0  0  0  0  0  0  0  0  0  0  0
  -31.3400  -14.3420   20.9410 H   0  0  0  0  0  0  0  0  0  0  0  0
  -26.9220  -12.6540   20.6470 C   0  0  0  0  0  0  0  0  0  0  0  0
  -25.6890  -12.1840   21.0150 C   0  0  0  0  0  0  0  0  0  0  0  0
  -25.7850  -10.7590   20.9770 C   0  0  0  0  0  0  0  0  0  0  0  0
  -27.7040  -11.5340   20.4150 N   0  0  0  0  0  0  0  0  0  0  0  0
  -27.0200  -10.3880   20.6680 N   0  0  0  0  0  0  0  0  0  0  0  0
  -24.7550   -9.7270   21.1640 C   0  0  0  0  0  0  0  0  0  0  0  0
  -24.7220   -8.9180   22.3220 C   0  0  0  0  0  3  0  0  0  0  0  0
  -23.7120   -7.9460   22.4850 C   0  0  0  0  0  3  0  0  0  0  0  0
  -22.7200   -7.7770   21.4890 C   0  0  0  0  0  0  0  0  0  0  0  0
  -22.7720   -8.5690   20.3300 C   0  0  0  0  0  3  0  0  0  0  0  0
  -23.7810   -9.5330   20.1650 C   0  0  0  0  0  3  0  0  0  0  0  0
  -21.7160   -6.8400   21.5510 O   0  0  0  0  0  0  0  0  0  0  0  0
  -21.0160   -6.6110   22.7090 C   0  0  0  0  0  0  0  0  0  0  0  0
  -20.2700   -7.6300   23.3410 C   0  0  0  0  0  3  0  0  0  0  0  0
  -19.5090   -7.3350   24.4890 C   0  0  0  0  0  3  0  0  0  0  0  0
  -19.4840   -6.0230   25.0010 C   0  0  0  0  0  0  0  0  0  0  0  0
  -20.2230   -5.0070   24.3700 C   0  0  0  0  0  3  0  0  0  0  0  0
  -20.9840   -5.3000   23.2250 C   0  0  0  0  0  0  0  0  0  0  0  0
  -21.6770   -4.3130   22.6080 F   0  0  0  0  0  0  0  0  0  0  0  0
  -18.7470   -5.7370   26.1000 F   0  0  0  0  0  0  0  0  0  0  0  0
  -24.4640  -13.0060   21.2910 C   0  0  0  0  0  0  0  0  0  0  0  0
  -23.6210  -12.5590   22.2170 N   0  0  0  0  0  0  0  0  0  0  0  0
  -24.2710  -14.0800   20.7220 O   0  0  0  0  0  0  0  0  0  0  0  0
  -23.7880  -11.6880   22.6990 H   0  0  0  0  0  0  0  0  0  0  0  0
  -22.7960  -13.0950   22.4450 H   0  0  0  0  0  0  0  0  0  0  0  0
  -27.4360  -13.9360   20.4740 N   0  0  0  0  0  0  0  0  0  0  0  0
  -26.8680  -14.7680   20.5880 H   0  0  0  0  0  0  0  0  0  0  0  0
  -28.3730  -14.1380   20.1480 H   0  0  0  0  0  0  0  0  0  0  0  0
  -29.1590  -22.0240   22.1620 C   0  0  0  0  0  2  0  0  0  0  0  0
  -27.9410  -22.1140   21.3330 N   0  0  0  0  0  4  0  0  0  0  0  0
  -27.2810  -22.7080   21.8100 H   0  0  0  0  0  0  0  0  0  0  0  0
  -27.5270  -21.1970   21.2540 H   0  0  0  0  0  0  0  0  0  0  0  0
  -28.1710  -22.6610   19.9790 C   0  0  0  0  0  2  0  0  0  0  0  0
  -26.8510  -22.8980   19.2250 C   0  0  0  0  0  2  0  0  0  0  0  0
  -27.0260  -23.7600   17.9650 C   0  0  0  0  0  2  0  0  0  0  0  0
  -25.7680  -23.9600   17.3340 O   0  0  0  0  0  0  0  0  0  0  0  0
  -24.1260  -27.2750   23.4300 C   0  0  0  0  0  0  0  0  0  0  0  0
  -24.8670  -24.7010   18.0570 C   0  0  0  0  0  0  0  0  0  0  0  0
  -22.3070  -27.1070   21.7580 C   0  0  0  0  0  3  0  0  0  0  0  0
  -23.0060  -26.2980   19.4430 C   0  0  0  0  0  0  0  0  0  0  0  0
  -24.7570  -27.1260   21.0280 C   0  0  0  0  0  2  0  0  0  0  0  0
  -24.3470  -26.2740   19.8490 C   0  0  0  0  0  0  0  0  0  0  0  0
  -25.2820  -25.4720   19.1610 C   0  0  0  0  0  3  0  0  0  0  0  0
  -23.5190  -24.7360   17.6510 C   0  0  0  0  0  3  0  0  0  0  0  0
  -22.5820  -25.5220   18.3490 C   0  0  0  0  0  3  0  0  0  0  0  0
  -22.0730  -27.1930   20.2270 C   0  0  0  0  0  2  0  0  0  0  0  0
  -23.7610  -27.1520   22.1220 N   0  0  0  0  0  0  0  0  0  0  0  0
  -23.2760  -27.3970   24.3230 O   0  0  0  0  0  0  0  0  0  0  0  0
  -21.5820  -25.8540   22.2950 C   0  0  0  0  0  0  0  0  0  0  0  0
  -20.2640  -25.7760   22.0490 N   0  0  0  0  0  0  0  0  0  0  0  0
  -22.2030  -24.9680   22.8890 O   0  0  0  0  0  0  0  0  0  0  0  0
  -19.8290  -26.5490   21.5650 H   0  0  0  0  0  0  0  0  0  0  0  0
  -16.9930  -24.3510   21.4890 C   0  0  0  0  0  0  0  0  0  0  0  0
  -19.3810  -24.6730   22.4240 C   0  0  0  0  0  3  0  0  0  0  0  0
  -19.7460  -23.3810   21.6540 C   0  0  0  0  0  2  0  0  0  0  0  0
  -18.9440  -23.2020   20.3610 C   0  0  0  0  0  2  0  0  0  0  0  0
  -17.4430  -23.1590   20.6590 C   0  0  0  0  0  2  0  0  0  0  0  0
  -17.9060  -25.0700   22.3050 C   0  0  0  0  0  0  0  0  0  0  0  0
  -17.4420  -26.1900   23.0280 C   0  0  0  0  0  3  0  0  0  0  0  0
  -16.0940  -26.5880   22.9520 C   0  0  0  0  0  3  0  0  0  0  0  0
  -15.1910  -25.8630   22.1560 C   0  0  0  0  0  3  0  0  0  0  0  0
  -15.6400  -24.7460   21.4300 C   0  0  0  0  0  3  0  0  0  0  0  0
  -25.6270  -27.2940   23.8620 C   0  0  0  0  0  3  0  0  0  0  0  0
  -25.7320  -28.1420   25.0550 N   0  0  0  0  0  0  0  0  0  0  0  0
  -26.3440  -29.3330   25.0900 C   0  0  0  0  0  0  0  0  0  0  0  0
  -26.9500  -29.8030   24.1230 O   0  0  0  0  0  0  0  0  0  0  0  0
  -25.2100  -27.8450   25.8670 H   0  0  0  0  0  0  0  0  0  0  0  0
  -25.2870  -31.3010   26.2490 C   0  0  0  0  0  1  0  0  0  0  0  0
  -26.2710  -30.1310   26.4060 C   0  0  0  0  0  3  0  0  0  0  0  0
  -28.4940  -29.5850   27.2910 C   0  0  0  0  0  1  0  0  0  0  0  0
  -27.5840  -30.6410   26.8570 N   0  0  0  0  0  0  0  0  0  0  0  0
  -27.4710  -31.2980   27.6250 H   0  0  0  0  0  0  0  0  0  0  0  0
  -26.2120  -25.8550   24.1450 C   0  0  1  0  0  0  0  0  0  0  0  0
  -25.3570  -25.0190   25.1270 C   0  0  0  0  0  1  0  0  0  0  0  0
  -26.3460  -25.0490   22.8320 C   0  0  0  0  0  1  0  0  0  0  0  0
  -27.6370  -25.9760   24.7360 C   0  0  0  0  0  1  0  0  0  0  0  0
  1  2  1  0
  3  2  1  0
  4  3  1  0
  5  4  1  0
  6  5  1  0
  6  7  1  0
  6  8  1  0
  9  6  1  0
 10  9  1  0
 10 19  1  0
 11 19  1  0
 11 17  1  0
 13 14  1  0
 13 12  1  0
 15 14  1  0
 15 24  1  0
 15 16  1  0
 17 12  1  0
 17 16  1  0
 18 11  2  0
 19 20  1  0
 21 22  2  0
 22 41  1  0
 23 22  1  0
 23 26  1  0
 24 21  1  0
 24 25  1  0
 25 23  2  0
 26 27  1  0
 27 28  2  0
 29 32  1  0
 29 28  1  0
 30 29  2  0
 31 30  1  0
 31 26  2  0
 32 33  1  0
 33 38  2  0
 33 34  1  0
 34 35  2  0
 35 36  1  0
 36 40  1  0
 37 36  2  0
 38 37  1  0
 39 38  1  0
 41 42  1  0
 42 45  1  0
 42 44  1  0
 43 41  2  0
 46 47  1  0
 46 21  1  0
 48 46  1  0
 49  1  1  0
 50 51  1  0
 50 49  1  0
 52 50  1  0
 53 50  1  0
 54 53  1  0
 55 54  1  0
 56 55  1  0
 56 58  1  0
 57 68  2  0
 58 63  1  0
 59 67  1  0
 59 69  1  0
 60 62  1  0
 60 66  1  0
 61 67  1  0
 62 61  1  0
 63 62  2  0
 64 58  2  0
 64 65  1  0
 65 60  2  0
 66 59  1  0
 67 57  1  0
 69 71  2  0
 70 69  1  0
 72 70  1  0
 73 78  1  0
 74 70  1  0
 75 74  1  0
 76 77  1  0
 76 75  1  0
 77 73  1  0
 78 74  1  0
 78 79  2  0
 80 79  1  0
 81 80  2  0
 82 73  2  0
 82 81  1  0
 83 57  1  0
 83 93  1  0
 83 84  1  0
 84 85  1  0
 84 87  1  0
 85 89  1  0
 86 85  2  0
 89 88  1  0
 89 91  1  0
 91 90  1  0
 91 92  1  0
 93 96  1  1
 93 94  1  0
 95 93  1  0
M  ISO  4  11 100  19 100  55 101  56 101
M  END
>  <TORSDO>  (17) 
F 28

>  <SCORE>  (17) 
-2.289

>  <name>  (17) 
16

>  <ligand_id>  (17) 
16

>  <original_smiles>  (17) 
[H]c1c([H])c([H])c2c(c1[H])C([H])([H])C([H])([H])C([H])([H])C2([H])N([H])C(=O)C1([H])N(C(=O)C([H])(N([H])C(=O)C([H])(N([H])C([H])([H])[H])C([H])([H])[H])C(C([H])([H])[H])(C([H])([H])[H])C([H])([H])[H])C([H])([H])c2c([H])c(OC([H])([H])C([H])([H])C([H])([H])[N+]([H])([H])C([H])([H])C([H])([H])C([H])([H])C([H])([H])C([H])([H])C([H])([H])[N+]([H])([H])C([H])([H])C([H])([H])N([H])C(=O)N3C([H])([H])C([H])([H])C([H])([H])C([H])(n4nc(-c5c([H])c([H])c(Oc6c([H])c([H])c(F)c([H])c6F)c([H])c5[H])c(C(=O)N([H])[H])c4N([H])[H])C3([H])[H])c([H])c([H])c2C1([H])[H]

>  <smiles>  (17) 
[H]c1c([H])c([H])c2c(c1[H])C([H])([H])C([H])([H])C([H])([H])C2([H])N([H])C(=O)C1([H])N(C(=O)C([H])(N([H])C(=O)C([H])(N([H])C([H])([H])[H])C([H])([H])[H])C(C([H])([H])[H])(C([H])([H])[H])C([H])([H])[H])C([H])([H])c2c([H])c(OC([H])([H])C([H])([H])C([H])([H])[N+]([H])([H])C([H])([H])C([H])([H])C([H])([H])C([H])([H])C([H])([H])C([H])([H])[N+]([H])([H])C([H])([H])C([H])([H])N([H])C(=O)N3C([H])([H])C([H])([H])C([H])([H])C([H])(n4nc(-c5c([H])c([H])c(Oc6c([H])c([H])c(F)c([H])c6F)c([H])c5[H])c(C(=O)N([H])[H])c4N([H])[H])C3([H])[H])c([H])c([H])c2C1([H])[H]

$$$$
17:0:0
     RDKit          3D

100104  0  0  1  0  0  0  0  0999 V2000
  -27.0530  -16.0620   17.8850 C   0  0  0  0  0  3  0  0  0  0  0  0
  -26.5490  -17.5120   18.3140 C   0  0  0  0  0  3  0  0  0  0  0  0
  -27.2980  -19.8860   18.9490 C   0  0  0  0  0  0  0  0  0  0  0  0
  -27.5720  -18.5880   18.5960 N   0  0  0  0  0  0  0  0  0  0  0  0
  -26.1260  -20.2570   19.0220 O   0  0  0  0  0  0  0  0  0  0  0  0
  -28.5460  -18.3200   18.5500 H   0  0  0  0  0  0  0  0  0  0  0  0
  -28.4340  -20.9430   19.2830 C   0  0  0  0  0  3  0  0  0  0  0  0
  -27.9620  -22.4560   19.5120 C   0  0  0  0  0  3  0  0  0  0  0  0
  -28.9350  -23.6650   19.9340 C   0  0  0  0  0  2  0  0  0  0  0  0
  -28.1410  -25.0390   19.9440 C   0  0  0  0  0  2  0  0  0  0  0  0
  -28.5130  -26.4260   20.3670 O   0  0  0  0  0  0  0  0  0  0  0  0
  -24.6460  -31.9280   23.2480 C   0  0  0  0  0  0  0  0  0  0  0  0
  -27.4350  -27.3440   20.3180 C   0  0  0  0  0  0  0  0  0  0  0  0
  -23.5390  -30.4740   21.6030 C   0  0  0  0  0  3  0  0  0  0  0  0
  -25.0660  -28.9560   20.2540 C   0  0  0  0  0  0  0  0  0  0  0  0
  -26.0910  -30.8220   21.5240 C   0  0  0  0  0  2  0  0  0  0  0  0
  -26.2140  -29.4410   20.8930 C   0  0  0  0  0  0  0  0  0  0  0  0
  -27.4050  -28.6430   20.9300 C   0  0  0  0  0  3  0  0  0  0  0  0
  -26.2480  -26.9580   19.6390 C   0  0  0  0  0  3  0  0  0  0  0  0
  -25.0840  -27.7170   19.6260 C   0  0  0  0  0  3  0  0  0  0  0  0
  -23.8180  -29.8060   20.2400 C   0  0  0  0  0  2  0  0  0  0  0  0
  -24.7770  -31.0910   22.1790 N   0  0  0  0  0  0  0  0  0  0  0  0
  -23.5330  -32.1920   23.7280 O   0  0  0  0  0  0  0  0  0  0  0  0
  -22.8670  -29.4460   22.5470 C   0  0  0  0  0  0  0  0  0  0  0  0
  -21.5560  -29.2170   22.3580 N   0  0  0  0  0  0  0  0  0  0  0  0
  -23.5250  -28.8640   23.4130 O   0  0  0  0  0  0  0  0  0  0  0  0
  -21.0850  -29.7440   21.6360 H   0  0  0  0  0  0  0  0  0  0  0  0
  -18.2120  -27.8710   22.6790 C   0  0  0  0  0  0  0  0  0  0  0  0
  -20.7290  -28.2750   23.1130 C   0  0  0  0  0  3  0  0  0  0  0  0
  -20.9410  -26.8250   22.6200 C   0  0  0  0  0  2  0  0  0  0  0  0
  -19.9300  -26.3970   21.5510 C   0  0  0  0  0  2  0  0  0  0  0  0
  -18.5000  -26.5010   22.0890 C   0  0  0  0  0  2  0  0  0  0  0  0
  -19.2590  -28.7090   23.1460 C   0  0  0  0  0  0  0  0  0  0  0  0
  -18.9360  -29.9860   23.6550 C   0  0  0  0  0  3  0  0  0  0  0  0
  -17.6010  -30.4270   23.7020 C   0  0  0  0  0  3  0  0  0  0  0  0
  -16.5670  -29.5860   23.2530 C   0  0  0  0  0  3  0  0  0  0  0  0
  -16.8730  -28.3110   22.7470 C   0  0  0  0  0  3  0  0  0  0  0  0
  -25.8860  -32.6040   23.9010 C   0  0  0  0  0  3  0  0  0  0  0  0
  -25.5580  -34.0230   24.1040 N   0  0  0  0  0  0  0  0  0  0  0  0
  -25.9920  -35.0240   23.3260 C   0  0  0  0  0  0  0  0  0  0  0  0
  -26.7800  -34.8510   22.3920 O   0  0  0  0  0  0  0  0  0  0  0  0
  -24.8760  -34.2330   24.8170 H   0  0  0  0  0  0  0  0  0  0  0  0
  -24.3520  -36.8070   22.6470 C   0  0  0  0  0  1  0  0  0  0  0  0
  -25.4710  -36.4410   23.6340 C   0  0  0  0  0  3  0  0  0  0  0  0
  -27.5010  -37.3490   24.6760 C   0  0  0  0  0  1  0  0  0  0  0  0
  -26.5270  -37.4770   23.5950 N   0  0  0  0  0  0  0  0  0  0  0  0
  -26.1210  -38.4080   23.6400 H   0  0  0  0  0  0  0  0  0  0  0  0
  -26.3120  -31.9320   25.2630 C   0  0  1  0  0  0  0  0  0  0  0  0
  -25.1490  -31.7760   26.2710 C   0  0  0  0  0  1  0  0  0  0  0  0
  -26.9120  -30.5270   25.0220 C   0  0  0  0  0  1  0  0  0  0  0  0
  -27.4200  -32.7760   25.9360 C   0  0  0  0  0  1  0  0  0  0  0  0
  -26.0360  -14.8360   18.0490 C   0  0  0  0  0  2  0  0  0  0  0  0
  -26.4080  -13.3130   17.6730 C   0  0  0  0  0  2  0  0  0  0  0  0
  -26.8550  -12.3140   18.8440 C   0  0  0  0  0  2  0  0  0  0  0  0
  -27.9480  -11.1200   18.7020 C   0  0  0  0  0  2  0  0  0  0  0  0
  -30.3450  -11.4620   19.9620 C   0  0  0  0  0  0  0  0  0  0  0  0
  -29.4630  -11.1230   18.9520 N   0  0  0  0  0  0  0  0  0  0  0  0
  -31.4410  -10.9190   20.0790 O   0  0  0  0  0  0  0  0  0  0  0  0
  -29.9240  -10.5010   18.3000 H   0  0  0  0  0  0  0  0  0  0  0  0
  -29.9240  -12.6410   20.6680 C   0  0  0  0  0  2  0  0  0  0  0  0
  -30.4920  -13.9210   20.7670 C   0  0  0  0  0  3  0  0  0  0  0  0
  -29.6990  -16.2570   20.1400 C   0  0  0  0  0  1  0  0  0  0  0  0
  -30.6600  -17.1070   21.8970 C   0  0  0  0  0  0  0  0  0  0  0  0
  -31.6410  -15.1240   20.8320 C   0  0  0  0  0  2  0  0  0  0  0  0
  -30.8560  -14.5290   19.0530 C   0  0  0  0  0  1  0  0  0  0  0  0
  -28.8450  -14.5680   18.8400 C   0  0  0  0  0 15  0  0  0  0  0  0
  -27.7160  -15.1390   20.5350 C   0  0  0  0  0  1  0  0  0  0  0  0
  -28.6790  -15.5670   22.2110 C   0  0  0  0  0  1  0  0  0  0  0  0
  -30.5030  -15.7820   22.1300 N   0  0  0  0  0  0  0  0  0  0  0  0
  -31.6860  -17.7710   21.7990 O   0  0  0  0  0  0  0  0  0  0  0  0
  -29.7650  -17.4150   21.0220 N   0  0  0  0  0  0  0  0  0  0  0  0
  -29.8180  -18.3380   20.6180 H   0  0  0  0  0  0  0  0  0  0  0  0
  -25.2660  -15.1560   20.8910 C   0  0  0  0  0  3  0  0  0  0  0  0
  -24.3700  -14.1530   21.0690 C   0  0  0  0  0  0  0  0  0  0  0  0
  -25.1050  -12.9340   21.1280 C   0  0  0  0  0  0  0  0  0  0  0  0
  -26.4720  -14.5200   20.8390 N   0  0  0  0  0  0  0  0  0  0  0  0
  -26.3830  -13.2080   21.1680 N   0  0  0  0  0  2  0  0  0  0  0  0
  -24.6750  -11.5360   21.1290 C   0  0  0  0  0  0  0  0  0  0  0  0
  -25.0450  -10.6450   22.1590 C   0  0  0  0  0  3  0  0  0  0  0  0
  -24.5580   -9.3220   22.1600 C   0  0  0  0  0  3  0  0  0  0  0  0
  -23.6970   -8.8830   21.1260 C   0  0  0  0  0  0  0  0  0  0  0  0
  -23.3760   -9.7620   20.0760 C   0  0  0  0  0  3  0  0  0  0  0  0
  -23.8660  -11.0760   20.0740 C   0  0  0  0  0  3  0  0  0  0  0  0
  -23.1770   -7.6150   21.0440 O   0  0  0  0  0  0  0  0  0  0  0  0
  -22.6550   -6.9790   22.1410 C   0  0  0  0  0  0  0  0  0  0  0  0
  -21.6460   -7.5660   22.9350 C   0  0  0  0  0  3  0  0  0  0  0  0
  -21.0930   -6.8460   24.0130 C   0  0  0  0  0  3  0  0  0  0  0  0
  -21.5410   -5.5400   24.2930 C   0  0  0  0  0  0  0  0  0  0  0  0
  -22.5430   -4.9550   23.5000 C   0  0  0  0  0  3  0  0  0  0  0  0
  -23.0950   -5.6720   22.4240 C   0  0  0  0  0  0  0  0  0  0  0  0
  -24.0440   -5.0960   21.6480 F   0  0  0  0  0  0  0  0  0  0  0  0
  -21.0080   -4.8450   25.3250 F   0  0  0  0  0  0  0  0  0  0  0  0
  -22.9010  -14.3350   21.1070 C   0  0  0  0  0  0  0  0  0  0  0  0
  -22.2140  -13.4820   21.8520 N   0  0  0  0  0  0  0  0  0  0  0  0
  -22.3680  -15.2830   20.5330 O   0  0  0  0  0  0  0  0  0  0  0  0
  -22.6770  -12.7360   22.3490 H   0  0  0  0  0  0  0  0  0  0  0  0
  -21.2130  -13.5850   21.9380 H   0  0  0  0  0  0  0  0  0  0  0  0
  -25.1490  -16.5370   20.7640 N   0  0  0  0  0  0  0  0  0  0  0  0
  -24.2500  -17.0040   20.7850 H   0  0  0  0  0  0  0  0  0  0  0  0
  -25.9280  -17.1760   20.6840 H   0  0  0  0  0  0  0  0  0  0  0  0
  1 52  1  0
  1  2  2  0
  2  4  1  0
  3  5  2  0
  3  7  1  0
  4  3  1  0
  6  4  1  0
  7  8  2  0
  8  9  1  0
  9 10  1  0
 10 11  1  0
 12 23  2  0
 13 11  1  0
 13 18  1  0
 14 22  1  0
 14 24  1  0
 15 17  1  0
 16 22  1  0
 17 18  2  0
 17 16  1  0
 19 13  2  0
 20 19  1  0
 20 15  2  0
 21 15  1  0
 21 14  1  0
 22 12  1  0
 24 26  2  0
 25 24  1  0
 27 25  1  0
 28 37  2  0
 28 33  1  0
 29 25  1  0
 29 33  1  0
 30 29  1  0
 31 32  1  0
 31 30  1  0
 32 28  1  0
 33 34  2  0
 34 35  1  0
 36 35  2  0
 37 36  1  0
 38 12  1  0
 38 39  1  0
 38 48  1  0
 39 42  1  0
 40 44  1  0
 40 39  1  0
 41 40  2  0
 44 43  1  0
 46 44  1  0
 46 47  1  0
 46 45  1  0
 48 51  1  1
 48 49  1  0
 50 48  1  0
 53 52  1  0
 53 54  1  0
 55 54  1  0
 55 57  1  0
 56 58  2  0
 56 60  1  0
 57 56  1  0
 59 57  1  0
 60 61  1  0
 61 65  1  0
 61 64  1  0
 62 71  1  0
 63 69  1  0
 64 69  1  0
 67 76  1  0
 69 68  1  0
 70 63  2  0
 71 63  1  0
 72 71  1  0
 73 98  1  0
 73 74  1  0
 74 93  1  0
 74 75  2  0
 75 78  1  0
 75 77  1  0
 76 73  1  0
 76 77  1  0
 78 79  1  0
 79 80  2  0
 81 80  1  0
 82 81  2  0
 83 82  1  0
 83 78  2  0
 84 81  1  0
 84 85  1  0
 85 90  2  0
 85 86  1  0
 86 87  2  0
 87 88  1  0
 88 92  1  0
 89 88  2  0
 90 89  1  0
 91 90  1  0
 93 94  1  0
 94 97  1  0
 94 96  1  0
 95 93  2  0
 98 99  1  0
100 98  1  0
M  ISO  4  10 101  11 101  63 100  71 100
M  END
>  <TORSDO>  (18) 
F 29

>  <SCORE>  (18) 
0.731

>  <name>  (18) 
17

>  <ligand_id>  (18) 
17

>  <original_smiles>  (18) 
[H]C(C(=O)N([H])C([H])([H])C([H])([H])C([H])([H])C([H])([H])C([H])([H])C([H])([H])N([H])C(=O)C([H])([H])C([H])([H])C([H])([H])C([H])([H])Oc1c([H])c([H])c2c(c1[H])C([H])([H])N(C(=O)C([H])(N([H])C(=O)C([H])(N([H])C([H])([H])[H])C([H])([H])[H])C(C([H])([H])[H])(C([H])([H])[H])C([H])([H])[H])C([H])(C(=O)N([H])C1([H])c3c([H])c([H])c([H])c([H])c3C([H])([H])C([H])([H])C1([H])[H])C2([H])[H])=C([H])C([H])([H])N([H])C(=O)N1C([H])([H])C([H])([H])C([H])([H])C([H])(n2nc(-c3c([H])c([H])c(Oc4c([H])c([H])c(F)c([H])c4F)c([H])c3[H])c(C(=O)N([H])[H])c2N([H])[H])C1([H])[H]

>  <smiles>  (18) 
[H]C(C(=O)N([H])C([H])([H])C([H])([H])C([H])([H])C([H])([H])C([H])([H])C([H])([H])N([H])C(=O)C([H])([H])C([H])([H])C([H])([H])C([H])([H])Oc1c([H])c([H])c2c(c1[H])C([H])([H])N(C(=O)C([H])(N([H])C(=O)C([H])(N([H])C([H])([H])[H])C([H])([H])[H])C(C([H])([H])[H])(C([H])([H])[H])C([H])([H])[H])C([H])(C(=O)N([H])C1([H])c3c([H])c([H])c([H])c([H])c3C([H])([H])C([H])([H])C1([H])[H])C2([H])[H])=C([H])C([H])([H])N([H])C(=O)N1C([H])([H])C([H])([H])C([H])([H])C([H])(n2nc(-c3c([H])c([H])c(Oc4c([H])c([H])c(F)c([H])c4F)c([H])c3[H])c(C(=O)N([H])[H])c2N([H])[H])C1([H])[H]

$$$$
18:0:0
     RDKit          3D

110117  0  0  1  0  0  0  0  0999 V2000
  -30.7940  -19.8450   19.5390 C   0  0  0  0  0  0  0  0  0  0  0  0
  -31.9720  -20.4800   19.6500 N   0  0  0  0  0  0  0  0  0  0  0  0
  -30.5260  -19.1320   18.5670 O   0  0  0  0  0  0  0  0  0  0  0  0
  -32.1260  -21.0590   20.4650 H   0  0  0  0  0  0  0  0  0  0  0  0
  -29.7560  -20.0840   20.6620 C   0  0  0  0  0  3  0  0  0  0  0  0
  -29.8320  -18.8520   21.5970 C   0  0  0  0  0  0  0  0  0  0  0  0
  -30.9230  -18.7120   22.3690 N   0  0  0  0  0  0  0  0  0  0  0  0
  -28.9050  -18.0380   21.6400 O   0  0  0  0  0  0  0  0  0  0  0  0
  -31.6250  -19.4400   22.3420 H   0  0  0  0  0  0  0  0  0  0  0  0
  -31.2340  -17.5450   23.1930 C   0  0  0  0  0  2  0  0  0  0  0  0
  -31.2580  -16.2300   22.3860 C   0  0  0  0  0  2  0  0  0  0  0  0
  -31.9930  -16.3310   21.0350 C   0  0  0  0  0  2  0  0  0  0  0  0
  -32.4250  -14.9710   20.4680 C   0  0  0  0  0  2  0  0  0  0  0  0
  -31.0580  -13.5840   18.9020 C   0  0  0  0  0  0  0  0  0  0  0  0
  -30.2930  -11.4340   17.9810 C   0  0  0  0  0  2  0  0  0  0  0  0
  -29.1160  -11.5300   17.0010 C   0  0  0  0  0  2  0  0  0  0  0  0
  -27.7810  -11.5060   17.7630 C   0  0  0  0  0  2  0  0  0  0  0  0
  -27.7430  -12.5440   18.9130 C   0  0  0  0  0  3  0  0  0  0  0  0
  -29.0040  -12.4480   19.8010 C   0  0  0  0  0  2  0  0  0  0  0  0
  -30.2060  -12.5340   18.9490 N   0  0  0  0  0  0  0  0  0  0  0  0
  -31.7590  -13.8570   17.9210 O   0  0  0  0  0  0  0  0  0  0  0  0
  -31.2830  -14.1340   20.1010 N   0  0  0  0  0  0  0  0  0  0  0  0
  -30.7100  -13.7860   20.8560 H   0  0  0  0  0  0  0  0  0  0  0  0
  -25.6910  -13.3980   20.2190 C   0  0  0  0  0  0  0  0  0  0  0  0
  -24.6420  -12.7430   20.8060 C   0  0  0  0  0  0  0  0  0  0  0  0
  -24.8840  -11.3500   20.6010 C   0  0  0  0  0  0  0  0  0  0  0  0
  -26.5170  -12.4110   19.7010 N   0  0  0  0  0  0  0  0  0  0  0  0
  -26.0440  -11.1690   19.9820 N   0  0  0  0  0  0  0  0  0  0  0  0
  -24.0510  -10.1800   20.9100 C   0  0  0  0  0  0  0  0  0  0  0  0
  -24.4940   -9.1690   21.7920 C   0  0  0  0  0  3  0  0  0  0  0  0
  -23.6680   -8.0630   22.0870 C   0  0  0  0  0  3  0  0  0  0  0  0
  -22.3830   -7.9600   21.5000 C   0  0  0  0  0  0  0  0  0  0  0  0
  -21.9560   -8.9570   20.6060 C   0  0  0  0  0  3  0  0  0  0  0  0
  -22.7820  -10.0550   20.3100 C   0  0  0  0  0  3  0  0  0  0  0  0
  -21.5220   -6.9100   21.7080 O   0  0  0  0  0  0  0  0  0  0  0  0
  -21.4880   -6.2310   22.9000 C   0  0  0  0  0  0  0  0  0  0  0  0
  -21.1730   -6.8750   24.1170 C   0  0  0  0  0  3  0  0  0  0  0  0
  -21.0820   -6.1260   25.3070 C   0  0  0  0  0  3  0  0  0  0  0  0
  -21.2960   -4.7360   25.2820 C   0  0  0  0  0  0  0  0  0  0  0  0
  -21.6050   -4.0910   24.0710 C   0  0  0  0  0  3  0  0  0  0  0  0
  -21.6980   -4.8380   22.8830 C   0  0  0  0  0  0  0  0  0  0  0  0
  -21.9750   -4.2080   21.7160 F   0  0  0  0  0  0  0  0  0  0  0  0
  -21.2010   -4.0140   26.4240 F   0  0  0  0  0  0  0  0  0  0  0  0
  -23.4350  -13.3720   21.4400 C   0  0  0  0  0  0  0  0  0  0  0  0
  -22.8660  -12.7250   22.4520 N   0  0  0  0  0  0  0  0  0  0  0  0
  -23.0160  -14.4680   21.0710 O   0  0  0  0  0  0  0  0  0  0  0  0
  -23.2210  -11.8350   22.7680 H   0  0  0  0  0  0  0  0  0  0  0  0
  -22.0650  -13.1260   22.9180 H   0  0  0  0  0  0  0  0  0  0  0  0
  -26.0040  -14.7460   20.0690 N   0  0  0  0  0  0  0  0  0  0  0  0
  -25.4060  -15.4860   20.4180 H   0  0  0  0  0  0  0  0  0  0  0  0
  -26.8430  -15.0930   19.6200 H   0  0  0  0  0  0  0  0  0  0  0  0
  -28.3180  -20.3070   20.1230 C   0  0  0  0  0  2  0  0  0  0  0  0
  -28.0780  -21.6280   19.3630 C   0  0  0  0  0  2  0  0  0  0  0  0
  -26.5950  -21.7970   18.9900 C   0  0  0  0  0  2  0  0  0  0  0  0
  -26.2880  -23.1330   18.2910 C   0  0  0  0  0  2  0  0  0  0  0  0
  -24.8500  -23.2890   18.0090 N   0  0  0  0  0  4  0  0  0  0  0  0
  -24.5200  -22.5560   17.4060 H   0  0  0  0  0  0  0  0  0  0  0  0
  -24.6820  -24.1670   17.5510 H   0  0  0  0  0  0  0  0  0  0  0  0
  -24.3140  -23.2720   18.8590 H   0  0  0  0  0  0  0  0  0  0  0  0
  -33.0500  -20.4590   18.6630 C   0  0  0  0  0  2  0  0  0  0  0  0
  -32.8170  -21.4980   17.5520 C   0  0  0  0  0  2  0  0  0  0  0  0
  -32.6820  -22.9380   18.0790 C   0  0  0  0  0  2  0  0  0  0  0  0
  -32.6270  -23.9780   16.9470 C   0  0  0  0  0  2  0  0  0  0  0  0
  -32.3110  -25.4090   17.4270 C   0  0  0  0  0  2  0  0  0  0  0  0
  -30.8940  -25.5650   17.8250 N   0  0  0  0  0  4  0  0  0  0  0  0
  -30.7560  -25.1450   18.7310 H   0  0  0  0  0  0  0  0  0  0  0  0
  -30.3290  -25.0640   17.1580 H   0  0  0  0  0  0  0  0  0  0  0  0
  -30.4260  -26.9700   17.8700 C   0  0  0  0  0  2  0  0  0  0  0  0
  -28.9010  -27.0780   18.0230 C   0  0  0  0  0  2  0  0  0  0  0  0
  -28.5090  -26.9540   19.3910 O   0  0  0  0  0  0  0  0  0  0  0  0
  -24.9560  -31.5640   23.5080 C   0  0  0  0  0  0  0  0  0  0  0  0
  -27.3400  -27.6210   19.6530 C   0  0  0  0  0  0  0  0  0  0  0  0
  -23.6380  -30.4610   21.7280 C   0  0  0  0  0  3  0  0  0  0  0  0
  -24.9820  -29.1190   20.0290 C   0  0  0  0  0  0  0  0  0  0  0  0
  -26.1580  -30.7890   21.4710 C   0  0  0  0  0  2  0  0  0  0  0  0
  -26.1750  -29.5250   20.6390 C   0  0  0  0  0  0  0  0  0  0  0  0
  -27.3550  -28.7740   20.4650 C   0  0  0  0  0  3  0  0  0  0  0  0
  -26.1290  -27.2060   19.0580 C   0  0  0  0  0  3  0  0  0  0  0  0
  -24.9510  -27.9520   19.2440 C   0  0  0  0  0  3  0  0  0  0  0  0
  -23.7680  -29.9910   20.2540 C   0  0  0  0  0  2  0  0  0  0  0  0
  -24.9380  -30.9440   22.2960 N   0  0  0  0  0  0  0  0  0  0  0  0
  -23.9080  -31.7750   24.1340 O   0  0  0  0  0  0  0  0  0  0  0  0
  -22.9940  -29.3220   22.5490 C   0  0  0  0  0  0  0  0  0  0  0  0
  -21.6790  -29.1260   22.3710 N   0  0  0  0  0  0  0  0  0  0  0  0
  -23.6780  -28.6200   23.3000 O   0  0  0  0  0  0  0  0  0  0  0  0
  -21.1890  -29.7480   21.7430 H   0  0  0  0  0  0  0  0  0  0  0  0
  -18.3530  -27.7250   22.5390 C   0  0  0  0  0  0  0  0  0  0  0  0
  -20.8700  -28.0870   23.0070 C   0  0  0  0  0  3  0  0  0  0  0  0
  -21.0880  -26.7150   22.3260 C   0  0  0  0  0  2  0  0  0  0  0  0
  -20.0720  -26.4250   21.2170 C   0  0  0  0  0  2  0  0  0  0  0  0
  -18.6470  -26.4470   21.7730 C   0  0  0  0  0  2  0  0  0  0  0  0
  -19.3980  -28.5040   23.1050 C   0  0  0  0  0  0  0  0  0  0  0  0
  -19.0730  -29.7050   23.7740 C   0  0  0  0  0  3  0  0  0  0  0  0
  -17.7360  -30.1260   23.8880 C   0  0  0  0  0  3  0  0  0  0  0  0
  -16.7040  -29.3430   23.3420 C   0  0  0  0  0  3  0  0  0  0  0  0
  -17.0140  -28.1450   22.6720 C   0  0  0  0  0  3  0  0  0  0  0  0
  -26.2880  -32.0540   24.1580 C   0  0  0  0  0  3  0  0  0  0  0  0
  -26.0630  -33.4210   24.6490 N   0  0  0  0  0  0  0  0  0  0  0  0
  -26.4480  -34.5310   24.0070 C   0  0  0  0  0  0  0  0  0  0  0  0
  -27.1020  -34.5090   22.9600 O   0  0  0  0  0  0  0  0  0  0  0  0
  -25.4860  -33.5180   25.4700 H   0  0  0  0  0  0  0  0  0  0  0  0
  -24.8240  -36.4450   23.8730 C   0  0  0  0  0  1  0  0  0  0  0  0
  -26.0420  -35.8830   24.6240 C   0  0  0  0  0  3  0  0  0  0  0  0
  -28.2240  -36.5430   25.5320 C   0  0  0  0  0  1  0  0  0  0  0  0
  -27.1320  -36.8820   24.6240 N   0  0  0  0  0  0  0  0  0  0  0  0
  -26.7790  -37.8000   24.8810 H   0  0  0  0  0  0  0  0  0  0  0  0
  -26.7950  -31.1180   25.3210 C   0  0  1  0  0  0  0  0  0  0  0  0
  -25.7150  -30.8040   26.3830 C   0  0  0  0  0  1  0  0  0  0  0  0
  -27.3050  -29.7740   24.7530 C   0  0  0  0  0  1  0  0  0  0  0  0
  -27.9940  -31.7790   26.0390 C   0  0  0  0  0  1  0  0  0  0  0  0
  1  2  1  0
  1  5  1  0
  2  4  1  0
  3  1  2  0
  5 52  1  0
  5  6  1  0
  6  8  2  0
  6  7  1  0
  7 10  1  0
  9  7  1  0
 11 10  1  0
 12 11  1  0
 13 12  1  0
 14 20  1  0
 14 22  1  0
 15 20  1  0
 16 17  1  0
 16 15  1  0
 18 17  1  0
 18 27  1  0
 18 19  1  0
 20 19  1  0
 21 14  2  0
 22 13  1  0
 22 23  1  0
 24 25  2  0
 25 44  1  0
 26 25  1  0
 26 29  1  0
 27 28  1  0
 27 24  1  0
 28 26  2  0
 29 30  1  0
 30 31  2  0
 32 35  1  0
 32 31  1  0
 33 32  2  0
 34 33  1  0
 34 29  2  0
 35 36  1  0
 36 37  1  0
 37 38  2  0
 39 38  1  0
 39 43  1  0
 40 39  2  0
 41 36  2  0
 41 40  1  0
 42 41  1  0
 44 45  1  0
 45 47  1  0
 45 48  1  0
 46 44  2  0
 49 24  1  0
 49 50  1  0
 51 49  1  0
 53 52  1  0
 54 53  1  0
 55 54  1  0
 56 55  1  0
 56 59  1  0
 57 56  1  0
 58 56  1  0
 60  2  1  0
 61 62  1  0
 61 60  1  0
 63 64  1  0
 63 62  1  0
 64 65  1  0
 65 68  1  0
 65 66  1  0
 67 65  1  0
 68 69  1  0
 69 70  1  0
 70 72  1  0
 71 82  2  0
 72 77  1  0
 73 81  1  0
 73 83  1  0
 74 80  1  0
 74 76  1  0
 75 81  1  0
 76 75  1  0
 77 76  2  0
 78 79  1  0
 78 72  2  0
 79 74  2  0
 80 73  1  0
 81 71  1  0
 83 85  2  0
 84 83  1  0
 86 84  1  0
 87 96  2  0
 87 92  1  0
 88 84  1  0
 88 92  1  0
 89 88  1  0
 90 91  1  0
 90 89  1  0
 91 87  1  0
 92 93  2  0
 93 94  1  0
 95 94  2  0
 96 95  1  0
 97 71  1  0
 97 98  1  0
 97107  1  0
 98101  1  0
 99103  1  0
 99 98  1  0
100 99  2  0
103102  1  0
103105  1  0
105106  1  0
105104  1  0
107110  1  1
107108  1  0
109107  1  0
M  ISO  4  14 100  22 100  69 101  70 101
M  END
>  <TORSDO>  (19) 
F 35

>  <SCORE>  (19) 
-6.087

>  <name>  (19) 
18

>  <ligand_id>  (19) 
18

>  <original_smiles>  (19) 
[H]c1c([H])c([H])c2c(c1[H])C([H])([H])C([H])([H])C([H])([H])C2([H])N([H])C(=O)C1([H])N(C(=O)C([H])(N([H])C(=O)C([H])(N([H])C([H])([H])[H])C([H])([H])[H])C(C([H])([H])[H])(C([H])([H])[H])C([H])([H])[H])C([H])([H])c2c([H])c(OC([H])([H])C([H])([H])[N+]([H])([H])C([H])([H])C([H])([H])C([H])([H])C([H])([H])C([H])([H])N([H])C(=O)C([H])(C(=O)N([H])C([H])([H])C([H])([H])C([H])([H])C([H])([H])N([H])C(=O)N3C([H])([H])C([H])([H])C([H])([H])C([H])(n4nc(-c5c([H])c([H])c(Oc6c([H])c([H])c(F)c([H])c6F)c([H])c5[H])c(C(=O)N([H])[H])c4N([H])[H])C3([H])[H])C([H])([H])C([H])([H])C([H])([H])C([H])([H])[N+]([H])([H])[H])c([H])c([H])c2C1([H])[H]

>  <smiles>  (19) 
[H]c1c([H])c([H])c2c(c1[H])C([H])([H])C([H])([H])C([H])([H])C2([H])N([H])C(=O)C1([H])N(C(=O)C([H])(N([H])C(=O)C([H])(N([H])C([H])([H])[H])C([H])([H])[H])C(C([H])([H])[H])(C([H])([H])[H])C([H])([H])[H])C([H])([H])c2c([H])c(OC([H])([H])C([H])([H])[N+]([H])([H])C([H])([H])C([H])([H])C([H])([H])C([H])([H])C([H])([H])N([H])C(=O)C([H])(C(=O)N([H])C([H])([H])C([H])([H])C([H])([H])C([H])([H])N([H])C(=O)N3C([H])([H])C([H])([H])C([H])([H])C([H])(n4nc(-c5c([H])c([H])c(Oc6c([H])c([H])c(F)c([H])c6F)c([H])c5[H])c(C(=O)N([H])[H])c4N([H])[H])C3([H])[H])C([H])([H])C([H])([H])C([H])([H])C([H])([H])[N+]([H])([H])[H])c([H])c([H])c2C1([H])[H]

$$$$
19:0:0
     RDKit          3D

101108  0  0  1  0  0  0  0  0999 V2000
  -29.7830  -23.1370   25.5050 C   0  0  0  0  0  2  0  0  0  0  0  0
  -29.7630  -22.2510   24.3210 N   0  0  0  0  0  4  0  0  0  0  0  0
  -29.8110  -22.8210   23.4910 H   0  0  0  0  0  0  0  0  0  0  0  0
  -28.8800  -21.7660   24.3170 H   0  0  0  0  0  0  0  0  0  0  0  0
  -30.8530  -21.2560   24.2500 C   0  0  0  0  0  2  0  0  0  0  0  0
  -30.3490  -19.9210   23.6610 C   0  0  0  0  0  2  0  0  0  0  0  0
  -31.4600  -18.9230   23.2700 C   0  0  0  0  0  2  0  0  0  0  0  0
  -31.4430  -18.6220   21.8200 N   0  0  0  0  0  4  0  0  0  0  0  0
  -30.5040  -18.7500   21.4800 H   0  0  0  0  0  0  0  0  0  0  0  0
  -32.0430  -19.2680   21.3300 H   0  0  0  0  0  0  0  0  0  0  0  0
  -31.8540  -17.2470   21.4700 C   0  0  0  0  0  2  0  0  0  0  0  0
  -31.7520  -17.0070   19.9520 C   0  0  0  0  0  2  0  0  0  0  0  0
  -32.2330  -15.6170   19.5090 C   0  0  0  0  0  2  0  0  0  0  0  0
  -30.9570  -13.8470   18.3110 C   0  0  0  0  0  0  0  0  0  0  0  0
  -30.5350  -11.4520   17.9500 C   0  0  0  0  0  2  0  0  0  0  0  0
  -29.3580  -11.1200   17.0230 C   0  0  0  0  0  2  0  0  0  0  0  0
  -28.0450  -11.0770   17.8200 C   0  0  0  0  0  2  0  0  0  0  0  0
  -27.8380  -12.3480   18.6820 C   0  0  0  0  0  3  0  0  0  0  0  0
  -29.0970  -12.6710   19.5190 C   0  0  0  0  0  2  0  0  0  0  0  0
  -30.2720  -12.7260   18.6280 N   0  0  0  0  0  0  0  0  0  0  0  0
  -31.5900  -13.9950   17.2610 O   0  0  0  0  0  0  0  0  0  0  0  0
  -31.1410  -14.6540   19.3630 N   0  0  0  0  0  0  0  0  0  0  0  0
  -30.6450  -14.3860   20.2020 H   0  0  0  0  0  0  0  0  0  0  0  0
  -25.8760  -13.2190   20.1060 C   0  0  0  0  0  0  0  0  0  0  0  0
  -24.8370  -12.5760   20.7230 C   0  0  0  0  0  0  0  0  0  0  0  0
  -25.0310  -11.1830   20.4700 C   0  0  0  0  0  0  0  0  0  0  0  0
  -26.6480  -12.2260   19.5220 N   0  0  0  0  0  0  0  0  0  0  0  0
  -26.1550  -10.9890   19.7940 N   0  0  0  0  0  0  0  0  0  0  0  0
  -24.1820  -10.0270   20.7860 C   0  0  0  0  0  0  0  0  0  0  0  0
  -24.6220   -9.0030   21.6530 C   0  0  0  0  0  3  0  0  0  0  0  0
  -23.7810   -7.9100   21.9550 C   0  0  0  0  0  3  0  0  0  0  0  0
  -22.4850   -7.8350   21.3920 C   0  0  0  0  0  0  0  0  0  0  0  0
  -22.0600   -8.8450   20.5110 C   0  0  0  0  0  3  0  0  0  0  0  0
  -22.9000   -9.9290   20.2080 C   0  0  0  0  0  3  0  0  0  0  0  0
  -21.6090   -6.7980   21.6090 O   0  0  0  0  0  0  0  0  0  0  0  0
  -21.5390   -6.1540   22.8180 C   0  0  0  0  0  0  0  0  0  0  0  0
  -21.2470   -6.8450   24.0140 C   0  0  0  0  0  3  0  0  0  0  0  0
  -21.1170   -6.1340   25.2240 C   0  0  0  0  0  3  0  0  0  0  0  0
  -21.2700   -4.7340   25.2390 C   0  0  0  0  0  0  0  0  0  0  0  0
  -21.5550   -4.0440   24.0480 C   0  0  0  0  0  3  0  0  0  0  0  0
  -21.6870   -4.7530   22.8400 C   0  0  0  0  0  0  0  0  0  0  0  0
  -21.9410   -4.0800   21.6920 F   0  0  0  0  0  0  0  0  0  0  0  0
  -21.1360   -4.0500   26.3990 F   0  0  0  0  0  0  0  0  0  0  0  0
  -23.6760  -13.2170   21.4270 C   0  0  0  0  0  0  0  0  0  0  0  0
  -23.1460  -12.5650   22.4550 N   0  0  0  0  0  0  0  0  0  0  0  0
  -23.2640  -14.3290   21.0970 O   0  0  0  0  0  0  0  0  0  0  0  0
  -23.4970  -11.6630   22.7400 H   0  0  0  0  0  0  0  0  0  0  0  0
  -22.3780  -12.9760   22.9680 H   0  0  0  0  0  0  0  0  0  0  0  0
  -26.2180  -14.5630   19.9740 N   0  0  0  0  0  0  0  0  0  0  0  0
  -25.6410  -15.3100   20.3440 H   0  0  0  0  0  0  0  0  0  0  0  0
  -27.0150  -14.9000   19.4480 H   0  0  0  0  0  0  0  0  0  0  0  0
  -29.5830  -24.6210   25.1250 C   0  0  0  0  0  2  0  0  0  0  0  0
  -28.5560  -24.8730   24.0010 C   0  0  0  0  0  2  0  0  0  0  0  0
  -28.5340  -26.3490   23.5500 C   0  0  0  0  0  2  0  0  0  0  0  0
  -27.6510  -26.6060   22.3910 N   0  0  0  0  0  4  0  0  0  0  0  0
  -27.6450  -27.6090   22.2770 H   0  0  0  0  0  0  0  0  0  0  0  0
  -26.7050  -26.3320   22.5970 H   0  0  0  0  0  0  0  0  0  0  0  0
  -28.0950  -26.0580   21.0870 C   0  0  0  0  0  2  0  0  0  0  0  0
  -27.1870  -24.9310   20.5520 C   0  0  0  0  0  2  0  0  0  0  0  0
  -27.4110  -24.6450   19.0490 C   0  0  0  0  0  2  0  0  0  0  0  0
  -27.4260  -25.8410   18.2640 O   0  0  0  0  0  0  0  0  0  0  0  0
  -24.8040  -30.6490   22.7540 C   0  0  0  0  0  0  0  0  0  0  0  0
  -26.3910  -26.6980   18.5380 C   0  0  0  0  0  0  0  0  0  0  0  0
  -23.2250  -29.7990   21.0490 C   0  0  0  0  0  3  0  0  0  0  0  0
  -24.2630  -28.4310   19.1640 C   0  0  0  0  0  0  0  0  0  0  0  0
  -25.7360  -29.8810   20.5770 C   0  0  0  0  0  2  0  0  0  0  0  0
  -25.5430  -28.6820   19.6740 C   0  0  0  0  0  0  0  0  0  0  0  0
  -26.6160  -27.8270   19.3510 C   0  0  0  0  0  3  0  0  0  0  0  0
  -25.1010  -26.4500   18.0280 C   0  0  0  0  0  3  0  0  0  0  0  0
  -24.0350  -27.3160   18.3370 C   0  0  0  0  0  3  0  0  0  0  0  0
  -23.1750  -29.4090   19.5470 C   0  0  0  0  0  2  0  0  0  0  0  0
  -24.6150  -30.1090   21.5180 N   0  0  0  0  0  0  0  0  0  0  0  0
  -23.8430  -30.9330   23.4820 O   0  0  0  0  0  0  0  0  0  0  0  0
  -22.5330  -28.6880   21.8690 C   0  0  0  0  0  0  0  0  0  0  0  0
  -21.1900  -28.6780   21.8510 N   0  0  0  0  0  0  0  0  0  0  0  0
  -23.1990  -27.8450   22.4770 O   0  0  0  0  0  0  0  0  0  0  0  0
  -20.7200  -29.4080   21.3340 H   0  0  0  0  0  0  0  0  0  0  0  0
  -17.7460  -27.7690   22.4420 C   0  0  0  0  0  0  0  0  0  0  0  0
  -20.3290  -27.7050   22.5180 C   0  0  0  0  0  3  0  0  0  0  0  0
  -20.2190  -26.4020   21.6950 C   0  0  0  0  0  2  0  0  0  0  0  0
  -19.0170  -26.3860   20.7450 C   0  0  0  0  0  2  0  0  0  0  0  0
  -17.7120  -26.5540   21.5290 C   0  0  0  0  0  2  0  0  0  0  0  0
  -18.9750  -28.3180   22.8940 C   0  0  0  0  0  0  0  0  0  0  0  0
  -18.9510  -29.4680   23.7140 C   0  0  0  0  0  3  0  0  0  0  0  0
  -17.7320  -30.0670   24.0790 C   0  0  0  0  0  3  0  0  0  0  0  0
  -16.5170  -29.5110   23.6410 C   0  0  0  0  0  3  0  0  0  0  0  0
  -16.5260  -28.3610   22.8300 C   0  0  0  0  0  3  0  0  0  0  0  0
  -26.2320  -30.9590   23.3020 C   0  0  0  0  0  3  0  0  0  0  0  0
  -26.1840  -32.2790   23.9420 N   0  0  0  0  0  0  0  0  0  0  0  0
  -26.6810  -33.4000   23.4030 C   0  0  0  0  0  0  0  0  0  0  0  0
  -27.3000  -33.4140   22.3360 O   0  0  0  0  0  0  0  0  0  0  0  0
  -25.6420  -32.3520   24.7900 H   0  0  0  0  0  0  0  0  0  0  0  0
  -25.3280  -35.5180   23.5000 C   0  0  0  0  0  1  0  0  0  0  0  0
  -26.4550  -34.7170   24.1710 C   0  0  0  0  0  3  0  0  0  0  0  0
  -28.7010  -34.9730   25.1260 C   0  0  0  0  0  1  0  0  0  0  0  0
  -27.6700  -35.5540   24.2710 N   0  0  0  0  0  0  0  0  0  0  0  0
  -27.4430  -36.4760   24.6310 H   0  0  0  0  0  0  0  0  0  0  0  0
  -26.7620  -29.8670   24.3110 C   0  0  1  0  0  0  0  0  0  0  0  0
  -25.7710  -29.5450   25.4550 C   0  0  0  0  0  1  0  0  0  0  0  0
  -27.0730  -28.5470   23.5690 C   0  0  0  0  0  1  0  0  0  0  0  0
  -28.0880  -30.3430   24.9480 C   0  0  0  0  0  1  0  0  0  0  0  0
  2  1  1  0
  3  2  1  0
  4  2  1  0
  5  2  1  0
  6  5  1  0
  7  6  1  0
  8  7  1  0
  9  8  1  0
 10  8  1  0
 11  8  1  0
 12 11  1  0
 13 12  1  0
 14 20  1  0
 14 22  1  0
 15 20  1  0
 16 17  1  0
 16 15  1  0
 18 17  1  0
 18 19  1  0
 18 27  1  0
 20 19  1  0
 21 14  2  0
 22 13  1  0
 22 23  1  0
 24 25  2  0
 25 44  1  0
 26 25  1  0
 26 29  1  0
 27 28  1  0
 27 24  1  0
 28 26  2  0
 29 30  1  0
 30 31  2  0
 32 35  1  0
 32 31  1  0
 33 32  2  0
 34 33  1  0
 34 29  2  0
 35 36  1  0
 36 41  2  0
 36 37  1  0
 37 38  2  0
 38 39  1  0
 39 43  1  0
 40 39  2  0
 41 40  1  0
 42 41  1  0
 44 45  1  0
 45 47  1  0
 45 48  1  0
 46 44  2  0
 49 24  1  0
 49 50  1  0
 51 49  1  0
 52  1  1  0
 53 52  1  0
 54 53  1  0
 55 57  1  0
 55 54  1  0
 56 55  1  0
 58 55  1  0
 59 58  1  0
 60 59  1  0
 61 63  1  0
 61 60  1  0
 62 73  2  0
 63 68  1  0
 64 72  1  0
 64 74  1  0
 65 71  1  0
 65 67  1  0
 66 72  1  0
 67 66  1  0
 68 67  2  0
 69 70  1  0
 69 63  2  0
 70 65  2  0
 71 64  1  0
 72 62  1  0
 74 76  2  0
 75 74  1  0
 77 75  1  0
 78 87  2  0
 78 83  1  0
 79 75  1  0
 79 83  1  0
 80 79  1  0
 81 82  1  0
 81 80  1  0
 82 78  1  0
 83 84  2  0
 84 85  1  0
 86 85  2  0
 87 86  1  0
 88 62  1  0
 88 89  1  0
 88 98  1  0
 89 92  1  0
 90 89  1  0
 90 94  1  0
 91 90  2  0
 94 93  1  0
 94 96  1  0
 96 97  1  0
 96 95  1  0
 98101  1  1
 98 99  1  0
100 98  1  0
M  ISO  4  14 100  22 100  60 101  61 101
M  END
>  <TORSDO>  (20) 
F 31

>  <SCORE>  (20) 
-2.852

>  <name>  (20) 
19

>  <ligand_id>  (20) 
19

>  <original_smiles>  (20) 
[H]c1c([H])c([H])c2c(c1[H])C([H])([H])C([H])([H])C([H])([H])C2([H])N([H])C(=O)C1([H])N(C(=O)C([H])(N([H])C(=O)C([H])(N([H])C([H])([H])[H])C([H])([H])[H])C(C([H])([H])[H])(C([H])([H])[H])C([H])([H])[H])C([H])([H])c2c([H])c(OC([H])([H])C([H])([H])C([H])([H])[N+]([H])([H])C([H])([H])C([H])([H])C([H])([H])C([H])([H])[N+]([H])([H])C([H])([H])C([H])([H])C([H])([H])[N+]([H])([H])C([H])([H])C([H])([H])C([H])([H])N([H])C(=O)N3C([H])([H])C([H])([H])C([H])([H])C([H])(n4nc(-c5c([H])c([H])c(Oc6c([H])c([H])c(F)c([H])c6F)c([H])c5[H])c(C(=O)N([H])[H])c4N([H])[H])C3([H])[H])c([H])c([H])c2C1([H])[H]

>  <smiles>  (20) 
[H]c1c([H])c([H])c2c(c1[H])C([H])([H])C([H])([H])C([H])([H])C2([H])N([H])C(=O)C1([H])N(C(=O)C([H])(N([H])C(=O)C([H])(N([H])C([H])([H])[H])C([H])([H])[H])C(C([H])([H])[H])(C([H])([H])[H])C([H])([H])[H])C([H])([H])c2c([H])c(OC([H])([H])C([H])([H])C([H])([H])[N+]([H])([H])C([H])([H])C([H])([H])C([H])([H])C([H])([H])[N+]([H])([H])C([H])([H])C([H])([H])C([H])([H])[N+]([H])([H])C([H])([H])C([H])([H])C([H])([H])N([H])C(=O)N3C([H])([H])C([H])([H])C([H])([H])C([H])(n4nc(-c5c([H])c([H])c(Oc6c([H])c([H])c(F)c([H])c6F)c([H])c5[H])c(C(=O)N([H])[H])c4N([H])[H])C3([H])[H])c([H])c([H])c2C1([H])[H]

$$$$
20:0:0
     RDKit          3D

104112  0  0  1  0  0  0  0  0999 V2000
  -23.2850  -19.1850   20.4380 C   0  0  0  0  0  2  0  0  0  0  0  0
  -23.5650  -16.7100   20.0620 C   0  0  0  0  0  0  0  0  0  0  0  0
  -24.0150  -17.9240   20.4110 N   0  0  0  0  0  0  0  0  0  0  0  0
  -22.3860  -16.4740   19.7930 O   0  0  0  0  0  0  0  0  0  0  0  0
  -25.0060  -17.9600   20.6050 H   0  0  0  0  0  0  0  0  0  0  0  0
  -24.6310  -15.6140   19.9210 C   0  0  0  0  0  2  0  0  0  0  0  0
  -27.1530  -15.8630   19.7950 C   0  0  0  0  0  3  0  0  0  0  0  0
  -25.8980  -16.2040   19.4700 N   0  0  0  0  0  0  0  0  0  0  0  0
  -27.4230  -14.8600   20.4530 O   0  0  0  0  0  0  0  0  0  0  0  0
  -25.7780  -17.0320   18.9030 H   0  0  0  0  0  0  0  0  0  0  0  0
  -28.2500  -16.7790   19.2300 C   0  0  0  0  0  2  0  0  0  0  0  0
  -29.6860  -16.2210   19.0620 C   0  0  0  0  0  2  0  0  0  0  0  0
  -30.4980  -16.0440   20.3700 C   0  0  0  0  0  2  0  0  0  0  0  0
  -31.9460  -15.5580   20.1220 C   0  0  0  0  0  2  0  0  0  0  0  0
  -32.5680  -14.6800   21.2390 C   0  0  0  0  0  2  0  0  0  0  0  0
  -32.4800  -12.3920   20.3150 C   0  0  0  0  0  0  0  0  0  0  0  0
  -31.4250  -11.0500   18.5490 C   0  0  0  0  0  2  0  0  0  0  0  0
  -30.4810  -12.0070   17.7870 C   0  0  0  0  0  2  0  0  0  0  0  0
  -29.0980  -12.0800   18.4690 C   0  0  0  0  0  2  0  0  0  0  0  0
  -29.1900  -12.3090   20.0030 C   0  0  0  0  0  3  0  0  0  0  0  0
  -30.2280  -11.3520   20.6380 C   0  0  0  0  0  2  0  0  0  0  0  0
  -31.5030  -11.5290   19.9350 N   0  0  0  0  0  0  0  0  0  0  0  0
  -33.5570  -12.5070   19.7260 O   0  0  0  0  0  0  0  0  0  0  0  0
  -32.0640  -13.3090   21.1990 N   0  0  0  0  0  0  0  0  0  0  0  0
  -31.1890  -13.1320   21.6660 H   0  0  0  0  0  0  0  0  0  0  0  0
  -27.1310  -13.1240   21.3330 C   0  0  0  0  0  0  0  0  0  0  0  0
  -25.9600  -12.5070   21.6750 C   0  0  0  0  0  0  0  0  0  0  0  0
  -26.0730  -11.1650   21.1890 C   0  0  0  0  0  0  0  0  0  0  0  0
  -27.8830  -12.1790   20.6540 N   0  0  0  0  0  0  0  0  0  0  0  0
  -27.2550  -10.9760   20.6230 N   0  0  0  0  0  0  0  0  0  0  0  0
  -25.0930  -10.0730   21.1800 C   0  0  0  0  0  0  0  0  0  0  0  0
  -25.3800   -8.8170   21.7610 C   0  0  0  0  0  3  0  0  0  0  0  0
  -24.4120   -7.7840   21.7560 C   0  0  0  0  0  3  0  0  0  0  0  0
  -23.1350   -8.0120   21.1820 C   0  0  0  0  0  0  0  0  0  0  0  0
  -22.8630   -9.2620   20.5910 C   0  0  0  0  0  3  0  0  0  0  0  0
  -23.8340  -10.2800   20.5840 C   0  0  0  0  0  3  0  0  0  0  0  0
  -22.1400   -7.0660   21.1140 O   0  0  0  0  0  0  0  0  0  0  0  0
  -22.0000   -6.1010   22.0790 C   0  0  0  0  0  0  0  0  0  0  0  0
  -21.8810   -6.4310   23.4470 C   0  0  0  0  0  3  0  0  0  0  0  0
  -21.6750   -5.4120   24.3970 C   0  0  0  0  0  3  0  0  0  0  0  0
  -21.5660   -4.0730   23.9790 C   0  0  0  0  0  0  0  0  0  0  0  0
  -21.6710   -3.7440   22.6160 C   0  0  0  0  0  3  0  0  0  0  0  0
  -21.8850   -4.7590   21.6650 C   0  0  0  0  0  0  0  0  0  0  0  0
  -21.9690   -4.4410   20.3500 F   0  0  0  0  0  0  0  0  0  0  0  0
  -21.3540   -3.0960   24.8940 F   0  0  0  0  0  0  0  0  0  0  0  0
  -24.7700  -13.1400   22.3360 C   0  0  0  0  0  0  0  0  0  0  0  0
  -24.0180  -12.3670   23.1120 N   0  0  0  0  0  0  0  0  0  0  0  0
  -24.5250  -14.3400   22.1930 O   0  0  0  0  0  0  0  0  0  0  0  0
  -24.2480  -11.3940   23.2480 H   0  0  0  0  0  0  0  0  0  0  0  0
  -23.2080  -12.7450   23.5790 H   0  0  0  0  0  0  0  0  0  0  0  0
  -27.6070  -14.4090   21.5510 N   0  0  0  0  0  4  0  0  0  0  0  0
  -27.0600  -15.0900   22.0600 H   0  0  0  0  0  0  0  0  0  0  0  0
  -28.4440  -14.7900   21.1360 H   0  0  0  0  0  0  0  0  0  0  0  0
  -23.9970  -20.1960   19.5300 C   0  0  0  0  0  2  0  0  0  0  0  0
  -23.3700  -21.5930   19.5720 C   0  0  0  0  0  2  0  0  0  0  0  0
  -24.3870  -22.6720   19.1770 C   0  0  0  0  0  2  0  0  0  0  0  0
  -25.5670  -22.8440   20.1610 C   0  0  0  0  0  2  0  0  0  0  0  0
  -26.5710  -23.8830   19.6400 C   0  0  0  0  0  2  0  0  0  0  0  0
  -28.8190  -24.7860   20.2770 C   0  0  0  0  0  0  0  0  0  0  0  0
  -27.7470  -24.0110   20.4930 N   0  0  0  0  0  0  0  0  0  0  0  0
  -29.6070  -25.0050   21.1970 O   0  0  0  0  0  0  0  0  0  0  0  0
  -27.6840  -23.6290   21.4290 H   0  0  0  0  0  0  0  0  0  0  0  0
  -29.1030  -25.3910   18.8870 C   0  0  0  0  0  2  0  0  0  0  0  0
  -28.9050  -26.8040   18.9350 O   0  0  0  0  0  0  0  0  0  0  0  0
  -24.7270  -30.9390   22.8870 C   0  0  0  0  0  0  0  0  0  0  0  0
  -27.6330  -27.3140   19.0850 C   0  0  0  0  0  0  0  0  0  0  0  0
  -23.5750  -29.7100   21.0720 C   0  0  0  0  0  3  0  0  0  0  0  0
  -25.1010  -28.5370   19.3950 C   0  0  0  0  0  0  0  0  0  0  0  0
  -26.0440  -30.3300   20.8580 C   0  0  0  0  0  2  0  0  0  0  0  0
  -26.2270  -29.0790   20.0290 C   0  0  0  0  0  0  0  0  0  0  0  0
  -27.4880  -28.4690   19.8750 C   0  0  0  0  0  3  0  0  0  0  0  0
  -26.4900  -26.7800   18.4430 C   0  0  0  0  0  3  0  0  0  0  0  0
  -25.2270  -27.3820   18.6020 C   0  0  0  0  0  3  0  0  0  0  0  0
  -23.7840  -29.2560   19.5980 C   0  0  0  0  0  2  0  0  0  0  0  0
  -24.8040  -30.3320   21.6680 N   0  0  0  0  0  0  0  0  0  0  0  0
  -23.6490  -31.0220   23.4950 O   0  0  0  0  0  0  0  0  0  0  0  0
  -23.0510  -28.5010   21.8760 C   0  0  0  0  0  0  0  0  0  0  0  0
  -21.7690  -28.1630   21.6800 N   0  0  0  0  0  0  0  0  0  0  0  0
  -23.8020  -27.8720   22.6280 O   0  0  0  0  0  0  0  0  0  0  0  0
  -21.2180  -28.7360   21.0550 H   0  0  0  0  0  0  0  0  0  0  0  0
  -18.5910  -26.4650   21.8470 C   0  0  0  0  0  0  0  0  0  0  0  0
  -21.0720  -27.0380   22.2990 C   0  0  0  0  0  3  0  0  0  0  0  0
  -21.3980  -25.7090   21.5840 C   0  0  0  0  0  2  0  0  0  0  0  0
  -20.4020  -25.3610   20.4700 C   0  0  0  0  0  2  0  0  0  0  0  0
  -18.9850  -25.2380   21.0390 C   0  0  0  0  0  2  0  0  0  0  0  0
  -19.5710  -27.3150   22.4280 C   0  0  0  0  0  0  0  0  0  0  0  0
  -19.1470  -28.4590   23.1370 C   0  0  0  0  0  3  0  0  0  0  0  0
  -17.7790  -28.7550   23.2760 C   0  0  0  0  0  3  0  0  0  0  0  0
  -16.8150  -27.9040   22.7120 C   0  0  0  0  0  3  0  0  0  0  0  0
  -17.2200  -26.7590   22.0030 C   0  0  0  0  0  3  0  0  0  0  0  0
  -25.9800  -31.5770   23.5640 C   0  0  0  0  0  3  0  0  0  0  0  0
  -26.5670  -30.6900   24.7300 C   0  0  1  0  0  0  0  0  0  0  0  0
  -25.5130  -30.2320   25.7640 C   0  0  0  0  0  1  0  0  0  0  0  0
  -27.2460  -29.4270   24.1530 C   0  0  0  0  0  1  0  0  0  0  0  0
  -27.6580  -31.4780   25.4900 C   0  0  0  0  0  1  0  0  0  0  0  0
  -25.5840  -32.8980   24.0690 N   0  0  0  0  0  0  0  0  0  0  0  0
  -25.8730  -34.0590   23.4640 C   0  0  0  0  0  0  0  0  0  0  0  0
  -26.5620  -34.1250   22.4430 O   0  0  0  0  0  0  0  0  0  0  0  0
  -24.9510  -32.9090   24.8550 H   0  0  0  0  0  0  0  0  0  0  0  0
  -24.0540  -35.7920   23.2940 C   0  0  0  0  0  1  0  0  0  0  0  0
  -25.2970  -35.3490   24.0820 C   0  0  0  0  0  3  0  0  0  0  0  0
  -27.3650  -36.2220   25.0770 C   0  0  0  0  0  1  0  0  0  0  0  0
  -26.2720  -36.4610   24.1380 N   0  0  0  0  0  0  0  0  0  0  0  0
  -25.8150  -37.3320   24.3970 H   0  0  0  0  0  0  0  0  0  0  0  0
  2  3  1  0
  3  1  1  0
  3  5  1  0
  4  2  2  0
  6  2  1  0
  7  8  1  0
  7  9  1  0
  8  6  1  0
  9 51  1  0
 10  8  1  0
 11  7  1  0
 12 11  1  0
 12 13  1  0
 14 13  1  0
 14 15  1  0
 16 24  1  0
 17 22  1  0
 18 19  1  0
 18 17  1  0
 20 19  1  0
 20 21  1  0
 20 29  1  0
 22 16  1  0
 22 21  1  0
 23 16  2  0
 24 15  1  0
 24 25  1  0
 26 51  1  0
 26 27  2  0
 27 46  1  0
 28 27  1  0
 29 26  1  0
 30 29  1  0
 30 28  2  0
 31 28  1  0
 31 32  1  0
 33 32  2  0
 34 33  1  0
 35 34  2  0
 36 35  1  0
 36 31  2  0
 37 34  1  0
 37 38  1  0
 38 39  1  0
 39 40  2  0
 41 40  1  0
 41 45  1  0
 42 41  2  0
 43 38  2  0
 43 42  1  0
 44 43  1  0
 46 47  1  0
 47 49  1  0
 47 50  1  0
 48 46  2  0
 51 52  1  0
 53 51  1  0
 54 55  1  0
 54  1  1  0
 56 55  1  0
 56 57  1  0
 58 57  1  0
 58 60  1  0
 59 60  1  0
 59 61  2  0
 60 62  1  0
 63 64  1  0
 63 59  1  0
 64 66  1  0
 65 76  2  0
 66 71  1  0
 67 75  1  0
 67 77  1  0
 68 74  1  0
 68 70  1  0
 69 75  1  0
 70 69  1  0
 71 70  2  0
 72 73  1  0
 72 66  2  0
 73 68  2  0
 74 67  1  0
 75 65  1  0
 77 79  2  0
 78 77  1  0
 80 78  1  0
 81 90  2  0
 81 86  1  0
 82 78  1  0
 82 86  1  0
 83 82  1  0
 84 85  1  0
 84 83  1  0
 85 81  1  0
 86 87  2  0
 87 88  1  0
 89 88  2  0
 90 89  1  0
 91 65  1  0
 91 96  1  0
 91 92  1  0
 92 95  1  1
 92 93  1  0
 94 92  1  0
 96 99  1  0
 97 96  1  0
 97101  1  0
 98 97  2  0
101100  1  0
101103  1  0
103104  1  0
103102  1  0
M  ISO  4  16 100  24 100  63 101  64 101
M  END
>  <TORSDO>  (21) 
F 31

>  <SCORE>  (21) 
6.009

>  <name>  (21) 
20

>  <ligand_id>  (21) 
20

>  <original_smiles>  (21) 
[H]c1c([H])c([H])c2c(c1[H])C([H])([H])C([H])([H])C([H])([H])C2([H])N([H])C(=O)C1([H])N(C(=O)C([H])(N([H])C(=O)C([H])(N([H])C([H])([H])[H])C([H])([H])[H])C(C([H])([H])[H])(C([H])([H])[H])C([H])([H])[H])C([H])([H])c2c([H])c(OC([H])([H])C(=O)N([H])C([H])([H])C([H])([H])C([H])([H])C([H])([H])C([H])([H])C([H])([H])N([H])C(=O)C([H])([H])N([H])C(=O)C([H])([H])C([H])([H])C([H])([H])C([H])([H])C([H])([H])N([H])C(=O)N3C([H])([H])C([H])([H])C([H])([H])C([H])(n4nc(-c5c([H])c([H])c(Oc6c([H])c([H])c(F)c([H])c6F)c([H])c5[H])c(C(=O)N([H])[H])c4N([H])[H])C3([H])[H])c([H])c([H])c2C1([H])[H]

>  <smiles>  (21) 
[H]c1c([H])c([H])c2c(c1[H])C([H])([H])C([H])([H])C([H])([H])C2([H])N([H])C(=O)C1([H])N(C(=O)C([H])(N([H])C(=O)C([H])(N([H])C([H])([H])[H])C([H])([H])[H])C(C([H])([H])[H])(C([H])([H])[H])C([H])([H])[H])C([H])([H])c2c([H])c(OC([H])([H])C(=O)N([H])C([H])([H])C([H])([H])C([H])([H])C([H])([H])C([H])([H])C([H])([H])N([H])C(=O)C([H])([H])N([H])C(=O)C([H])([H])C([H])([H])C([H])([H])C([H])([H])C([H])([H])N([H])C(=O)N3C([H])([H])C([H])([H])C([H])([H])C([H])(n4nc(-c5c([H])c([H])c(Oc6c([H])c([H])c(F)c([H])c6F)c([H])c5[H])c(C(=O)N([H])[H])c4N([H])[H])C3([H])[H])c([H])c([H])c2C1([H])[H]

$$$$
21:0:0
     RDKit          3D

105112  0  0  1  0  0  0  0  0999 V2000
  -27.9290  -26.0550   23.3960 C   0  0  0  0  0  2  0  0  0  0  0  0
  -30.2070  -27.0340   23.6380 C   0  0  0  0  0  0  0  0  0  0  0  0
  -29.3320  -26.2250   23.0330 N   0  0  0  0  0  0  0  0  0  0  0  0
  -29.9410  -27.6570   24.6690 O   0  0  0  0  0  0  0  0  0  0  0  0
  -29.6470  -25.7390   22.2050 H   0  0  0  0  0  0  0  0  0  0  0  0
  -31.5800  -27.1850   22.9670 C   0  0  0  0  0  2  0  0  0  0  0  0
  -32.4250  -28.3610   23.5150 C   0  0  0  0  0  2  0  0  0  0  0  0
  -31.2560  -30.4580   22.7940 C   0  0  0  0  0  0  0  0  0  0  0  0
  -31.6480  -29.5820   23.7270 N   0  0  0  0  0  0  0  0  0  0  0  0
  -31.6980  -30.4530   21.6430 O   0  0  0  0  0  0  0  0  0  0  0  0
  -31.2250  -29.7140   24.6380 H   0  0  0  0  0  0  0  0  0  0  0  0
  -30.1570  -31.4420   23.2120 C   0  0  0  0  0  2  0  0  0  0  0  0
  -29.5260  -30.9370   24.3900 O   0  0  0  0  0  0  0  0  0  0  0  0
  -24.1180  -28.2530   28.0920 C   0  0  0  0  0  0  0  0  0  0  0  0
  -28.1580  -30.8180   24.4510 C   0  0  0  0  0  0  0  0  0  0  0  0
  -23.5200  -29.2380   25.9020 C   0  0  0  0  0  3  0  0  0  0  0  0
  -25.3590  -30.5740   24.7480 C   0  0  0  0  0  0  0  0  0  0  0  0
  -25.5670  -30.0660   27.1900 C   0  0  0  0  0  2  0  0  0  0  0  0
  -26.1990  -30.3880   25.8530 C   0  0  0  0  0  0  0  0  0  0  0  0
  -27.5950  -30.5030   25.7050 C   0  0  0  0  0  3  0  0  0  0  0  0
  -27.3000  -30.9940   23.3410 C   0  0  0  0  0  3  0  0  0  0  0  0
  -25.9050  -30.8680   23.4870 C   0  0  0  0  0  3  0  0  0  0  0  0
  -23.8730  -30.4430   24.9900 C   0  0  0  0  0  2  0  0  0  0  0  0
  -24.4160  -29.1370   27.0980 N   0  0  0  0  0  0  0  0  0  0  0  0
  -23.0920  -27.5600   28.0450 O   0  0  0  0  0  0  0  0  0  0  0  0
  -23.5060  -27.9580   25.0380 C   0  0  0  0  0  0  0  0  0  0  0  0
  -22.7290  -27.9850   23.9440 N   0  0  0  0  0  0  0  0  0  0  0  0
  -24.2010  -26.9830   25.3390 O   0  0  0  0  0  0  0  0  0  0  0  0
  -22.1860  -28.8200   23.7710 H   0  0  0  0  0  0  0  0  0  0  0  0
  -21.4130  -27.1890   20.6770 C   0  0  0  0  0  0  0  0  0  0  0  0
  -22.5880  -26.9120   22.9620 C   0  0  0  0  0  3  0  0  0  0  0  0
  -23.8930  -26.7220   22.1540 C   0  0  0  0  0  2  0  0  0  0  0  0
  -23.9160  -27.5240   20.8490 C   0  0  0  0  0  2  0  0  0  0  0  0
  -22.7440  -27.1180   19.9490 C   0  0  0  0  0  2  0  0  0  0  0  0
  -21.3410  -27.1080   22.0920 C   0  0  0  0  0  0  0  0  0  0  0  0
  -20.0820  -27.2150   22.7210 C   0  0  0  0  0  3  0  0  0  0  0  0
  -18.9100  -27.3960   21.9630 C   0  0  0  0  0  3  0  0  0  0  0  0
  -18.9850  -27.4580   20.5610 C   0  0  0  0  0  3  0  0  0  0  0  0
  -20.2320  -27.3510   19.9210 C   0  0  0  0  0  3  0  0  0  0  0  0
  -25.0350  -28.0880   29.3440 C   0  0  0  0  0  3  0  0  0  0  0  0
  -26.2960  -27.1770   29.0760 C   0  0  1  0  0  0  0  0  0  0  0  0
  -25.9700  -25.8780   28.3050 C   0  0  0  0  0  1  0  0  0  0  0  0
  -27.3660  -27.9510   28.2690 C   0  0  0  0  0  1  0  0  0  0  0  0
  -26.9540  -26.7830   30.4190 C   0  0  0  0  0  1  0  0  0  0  0  0
  -24.2110  -27.5300   30.4250 N   0  0  0  0  0  0  0  0  0  0  0  0
  -23.8860  -28.1850   31.5470 C   0  0  0  0  0  0  0  0  0  0  0  0
  -24.3140  -29.3110   31.8140 O   0  0  0  0  0  0  0  0  0  0  0  0
  -23.7830  -26.6330   30.2490 H   0  0  0  0  0  0  0  0  0  0  0  0
  -21.5390  -28.1220   32.4470 C   0  0  0  0  0  1  0  0  0  0  0  0
  -22.9320  -27.4770   32.5290 C   0  0  0  0  0  3  0  0  0  0  0  0
  -24.5810  -26.6520   34.1490 C   0  0  0  0  0  1  0  0  0  0  0  0
  -23.4090  -27.4960   33.9290 N   0  0  0  0  0  0  0  0  0  0  0  0
  -22.6750  -27.1920   34.5630 H   0  0  0  0  0  0  0  0  0  0  0  0
  -27.1270  -25.5540   22.1800 C   0  0  0  0  0  2  0  0  0  0  0  0
  -27.0840  -26.5520   21.0040 C   0  0  0  0  0  2  0  0  0  0  0  0
  -26.9780  -25.8440   19.6460 C   0  0  0  0  0  2  0  0  0  0  0  0
  -26.7410  -26.8090   18.4670 C   0  0  0  0  0  2  0  0  0  0  0  0
  -26.7820  -26.1320   17.0820 C   0  0  0  0  0  2  0  0  0  0  0  0
  -28.9320  -24.9540   16.6220 C   0  0  0  0  0  0  0  0  0  0  0  0
  -28.1530  -26.0410   16.5820 N   0  0  0  0  0  0  0  0  0  0  0  0
  -28.5290  -23.8500   16.9910 O   0  0  0  0  0  0  0  0  0  0  0  0
  -28.5720  -26.8980   16.2440 H   0  0  0  0  0  0  0  0  0  0  0  0
  -30.3980  -25.1400   16.2320 C   0  0  0  0  0  2  0  0  0  0  0  0
  -31.3400  -24.8160   17.4140 C   0  0  0  0  0  2  0  0  0  0  0  0
  -32.7890  -25.3020   17.2130 C   0  0  0  0  0  2  0  0  0  0  0  0
  -33.5110  -24.5610   16.0830 C   0  0  0  0  0  2  0  0  0  0  0  0
  -34.8920  -25.1300   15.7290 C   0  0  0  0  0  2  0  0  0  0  0  0
  -35.5310  -24.5750   13.3750 C   0  0  0  0  0  0  0  0  0  0  0  0
  -35.7830  -23.5710   11.1360 C   0  0  0  0  0  2  0  0  0  0  0  0
  -34.4170  -23.4070   10.4420 C   0  0  0  0  0  2  0  0  0  0  0  0
  -33.7560  -22.0720   10.8400 C   0  0  0  0  0  2  0  0  0  0  0  0
  -33.7320  -21.8630   12.3760 C   0  0  0  0  0  3  0  0  0  0  0  0
  -35.1300  -22.1220   12.9820 C   0  0  0  0  0  2  0  0  0  0  0  0
  -35.5850  -23.4740   12.5860 N   0  0  0  0  0  0  0  0  0  0  0  0
  -35.5900  -25.7370   12.9530 O   0  0  0  0  0  0  0  0  0  0  0  0
  -35.4470  -24.2920   14.6760 N   0  0  0  0  0  0  0  0  0  0  0  0
  -35.5560  -23.3140   14.9000 H   0  0  0  0  0  0  0  0  0  0  0  0
  -32.1690  -20.1870   13.5600 C   0  0  0  0  0  0  0  0  0  0  0  0
  -32.0850  -18.8220   13.5080 C   0  0  0  0  0  0  0  0  0  0  0  0
  -33.1140  -18.3980   12.6130 C   0  0  0  0  0  0  0  0  0  0  0  0
  -33.2260  -20.5360   12.7320 N   0  0  0  0  0  0  0  0  0  0  0  0
  -33.8220  -19.4420   12.1980 N   0  0  0  0  0  0  0  0  0  0  0  0
  -33.4290  -17.0680   12.0780 C   0  0  0  0  0  0  0  0  0  0  0  0
  -34.6480  -16.4200   12.3760 C   0  0  0  0  0  3  0  0  0  0  0  0
  -34.9200  -15.1340   11.8620 C   0  0  0  0  0  3  0  0  0  0  0  0
  -33.9680  -14.4800   11.0440 C   0  0  0  0  0  0  0  0  0  0  0  0
  -32.7660  -15.1390   10.7310 C   0  0  0  0  0  3  0  0  0  0  0  0
  -32.4990  -16.4210   11.2410 C   0  0  0  0  0  3  0  0  0  0  0  0
  -34.1600  -13.2430   10.4770 O   0  0  0  0  0  0  0  0  0  0  0  0
  -34.8970  -12.2700   11.1030 C   0  0  0  0  0  0  0  0  0  0  0  0
  -34.4980  -11.7120   12.3370 C   0  0  0  0  0  3  0  0  0  0  0  0
  -35.2490  -10.6680   12.9120 C   0  0  0  0  0  3  0  0  0  0  0  0
  -36.3900  -10.1740   12.2520 C   0  0  0  0  0  0  0  0  0  0  0  0
  -36.7840  -10.7250   11.0200 C   0  0  0  0  0  3  0  0  0  0  0  0
  -36.0380  -11.7680   10.4460 C   0  0  0  0  0  0  0  0  0  0  0  0
  -36.4110  -12.2820    9.2500 F   0  0  0  0  0  0  0  0  0  0  0  0
  -37.1070   -9.1640   12.8010 F   0  0  0  0  0  0  0  0  0  0  0  0
  -31.0440  -17.9640   14.1670 C   0  0  0  0  0  0  0  0  0  0  0  0
  -31.4480  -16.8320   14.7350 N   0  0  0  0  0  0  0  0  0  0  0  0
  -29.8660  -18.3180   14.2240 O   0  0  0  0  0  0  0  0  0  0  0  0
  -32.4170  -16.5540   14.7150 H   0  0  0  0  0  0  0  0  0  0  0  0
  -30.7760  -16.2360   15.1970 H   0  0  0  0  0  0  0  0  0  0  0  0
  -31.4250  -21.1560   14.2240 N   0  0  0  0  0  0  0  0  0  0  0  0
  -30.6020  -20.9120   14.7630 H   0  0  0  0  0  0  0  0  0  0  0  0
  -31.5210  -22.1510   14.0670 H   0  0  0  0  0  0  0  0  0  0  0  0
  2  4  2  0
  3  1  1  0
  3  2  1  0
  5  3  1  0
  6  7  1  0
  6  2  1  0
  7  9  1  0
  8 12  1  0
  8  9  1  0
  9 11  1  0
 10  8  2  0
 12 13  1  0
 13 15  1  0
 15 20  1  0
 16 26  1  0
 16 24  1  0
 17 23  1  0
 17 19  1  0
 19 18  1  0
 20 19  2  0
 21 22  1  0
 21 15  2  0
 22 17  2  0
 23 16  1  0
 24 18  1  0
 24 14  1  0
 25 14  2  0
 26 28  2  0
 27 26  1  0
 29 27  1  0
 30 35  1  0
 31 27  1  0
 32 31  1  0
 33 32  1  0
 34 30  1  0
 34 33  1  0
 35 36  2  0
 35 31  1  0
 37 36  1  0
 38 37  2  0
 39 38  1  0
 39 30  2  0
 40 14  1  0
 40 45  1  0
 41 40  1  0
 41 44  1  1
 42 41  1  0
 43 41  1  0
 45 46  1  0
 46 47  2  0
 46 50  1  0
 48 45  1  0
 50 49  1  0
 50 52  1  0
 52 51  1  0
 52 53  1  0
 54  1  1  0
 55 54  1  0
 56 55  1  0
 57 56  1  0
 58 57  1  0
 59 61  2  0
 60 59  1  0
 60 58  1  0
 62 60  1  0
 63 59  1  0
 63 64  1  0
 65 64  1  0
 66 65  1  0
 67 66  1  0
 68 76  1  0
 69 74  1  0
 70 71  1  0
 70 69  1  0
 72 71  1  0
 72 81  1  0
 72 73  1  0
 74 73  1  0
 74 68  1  0
 75 68  2  0
 76 77  1  0
 76 67  1  0
 78103  1  0
 79 78  2  0
 79 98  1  0
 80 79  1  0
 81 78  1  0
 82 80  2  0
 82 81  1  0
 83 84  1  0
 83 80  1  0
 85 84  2  0
 86 85  1  0
 87 86  2  0
 87 88  1  0
 88 83  2  0
 89 86  1  0
 89 90  1  0
 90 91  1  0
 91 92  2  0
 93 97  1  0
 93 92  1  0
 94 93  2  0
 95 94  1  0
 95 90  2  0
 96 95  1  0
 98100  2  0
 98 99  1  0
 99102  1  0
101 99  1  0
103104  1  0
105103  1  0
M  ISO  4  12 101  13 101  68 100  76 100
M  END
>  <TORSDO>  (22) 
F 32

>  <SCORE>  (22) 
-3.878

>  <name>  (22) 
21

>  <ligand_id>  (22) 
21

>  <original_smiles>  (22) 
[H]c1c([H])c([H])c2c(c1[H])C([H])([H])C([H])([H])C([H])([H])C2([H])N([H])C(=O)C1([H])N(C(=O)C([H])(N([H])C(=O)C([H])(N([H])C([H])([H])[H])C([H])([H])[H])C(C([H])([H])[H])(C([H])([H])[H])C([H])([H])[H])C([H])([H])c2c([H])c(OC([H])([H])C(=O)N([H])C([H])([H])C([H])([H])C(=O)N([H])C([H])([H])C([H])([H])C([H])([H])C([H])([H])C([H])([H])C([H])([H])N([H])C(=O)C([H])([H])C([H])([H])C([H])([H])C([H])([H])C([H])([H])N([H])C(=O)N3C([H])([H])C([H])([H])C([H])([H])C([H])(n4nc(-c5c([H])c([H])c(Oc6c([H])c([H])c(F)c([H])c6F)c([H])c5[H])c(C(=O)N([H])[H])c4N([H])[H])C3([H])[H])c([H])c([H])c2C1([H])[H]

>  <smiles>  (22) 
[H]c1c([H])c([H])c2c(c1[H])C([H])([H])C([H])([H])C([H])([H])C2([H])N([H])C(=O)C1([H])N(C(=O)C([H])(N([H])C(=O)C([H])(N([H])C([H])([H])[H])C([H])([H])[H])C(C([H])([H])[H])(C([H])([H])[H])C([H])([H])[H])C([H])([H])c2c([H])c(OC([H])([H])C(=O)N([H])C([H])([H])C([H])([H])C(=O)N([H])C([H])([H])C([H])([H])C([H])([H])C([H])([H])C([H])([H])C([H])([H])N([H])C(=O)C([H])([H])C([H])([H])C([H])([H])C([H])([H])C([H])([H])N([H])C(=O)N3C([H])([H])C([H])([H])C([H])([H])C([H])(n4nc(-c5c([H])c([H])c(Oc6c([H])c([H])c(F)c([H])c6F)c([H])c5[H])c(C(=O)N([H])[H])c4N([H])[H])C3([H])[H])c([H])c([H])c2C1([H])[H]

$$$$
22:0:0
     RDKit          3D

101108  0  0  1  0  0  0  0  0999 V2000
  -21.8550  -30.0970   24.7800 C   0  0  0  0  0  0  0  0  0  0  0  0
  -22.3500  -28.8250   25.3350 N   0  0  0  0  0  0  0  0  0  0  0  0
  -21.7040  -30.9240   25.6770 O   0  0  0  0  0  0  0  0  0  0  0  0
  -22.1040  -28.9040   26.3130 H   0  0  0  0  0  0  0  0  0  0  0  0
  -21.2400  -30.7180   23.2120 C   0  0  0  0  0  2  0  0  0  0  0  0
  -20.8690  -30.1240   21.5130 C   0  0  0  0  0  3  0  0  0  0  0  0
  -21.4240  -28.8550   20.3560 C   0  0  0  0  0  3  0  0  0  0  0  0
  -22.5650  -27.4610   20.1890 C   0  0  0  0  0  2  0  0  0  0  0  0
  -24.0150  -26.8080   20.9740 C   0  0  0  0  0  2  0  0  0  0  0  0
  -25.1310  -25.8340   20.4760 N   0  0  0  0  0  0  0  0  0  0  0  0
  -25.0120  -25.7570   19.4680 H   0  0  0  0  0  0  0  0  0  0  0  0
  -26.7110  -26.2590   20.6460 O   0  0  0  0  0  0  0  0  0  0  0  0
  -24.7540  -31.9110   23.2150 C   0  0  0  0  0  0  0  0  0  0  0  0
  -26.9780  -27.4210   20.0110 C   0  0  0  0  0  0  0  0  0  0  0  0
  -23.6060  -30.4510   21.5610 C   0  0  0  0  0  3  0  0  0  0  0  0
  -25.0810  -29.3340   19.8250 C   0  0  0  0  0  0  0  0  0  0  0  0
  -26.1330  -30.8480   21.4710 C   0  0  0  0  0  2  0  0  0  0  0  0
  -26.1680  -29.5720   20.6680 C   0  0  0  0  0  0  0  0  0  0  0  0
  -27.1610  -28.5810   20.7920 C   0  0  0  0  0  3  0  0  0  0  0  0
  -26.2140  -27.4410   18.8510 C   0  0  0  0  0  3  0  0  0  0  0  0
  -25.1140  -28.3080   18.8710 C   0  0  0  0  0  3  0  0  0  0  0  0
  -23.9220  -30.2380   20.0440 C   0  0  0  0  0  2  0  0  0  0  0  0
  -24.8290  -31.1050   22.1300 N   0  0  0  0  0  0  0  0  0  0  0  0
  -23.6980  -32.2380   23.7430 O   0  0  0  0  0  0  0  0  0  0  0  0
  -23.2710  -29.1370   22.4650 C   0  0  0  0  0  0  0  0  0  0  0  0
  -22.1470  -28.3000   22.7800 N   0  0  0  0  0  0  0  0  0  0  0  0
  -24.2240  -28.7700   23.0930 O   0  0  0  0  0  0  0  0  0  0  0  0
  -22.6220  -27.5310   23.2280 H   0  0  0  0  0  0  0  0  0  0  0  0
  -18.0030  -28.0950   22.7400 C   0  0  0  0  0  0  0  0  0  0  0  0
  -20.6260  -27.9420   23.0960 C   0  0  0  0  0  3  0  0  0  0  0  0
  -20.5050  -26.5570   22.5070 C   0  0  0  0  0  2  0  0  0  0  0  0
  -19.3850  -26.3790   21.4890 C   0  0  0  0  0  2  0  0  0  0  0  0
  -18.0590  -26.7180   22.1340 C   0  0  0  0  0  2  0  0  0  0  0  0
  -19.1750  -28.6950   23.2900 C   0  0  0  0  0  0  0  0  0  0  0  0
  -18.8330  -29.8110   24.1380 C   0  0  0  0  0  3  0  0  0  0  0  0
  -17.5930  -30.4700   24.1580 C   0  0  0  0  0  3  0  0  0  0  0  0
  -16.5010  -29.8810   23.5280 C   0  0  0  0  0  3  0  0  0  0  0  0
  -16.7100  -28.6570   22.8780 C   0  0  0  0  0  3  0  0  0  0  0  0
  -26.0150  -32.5080   23.8720 C   0  0  0  0  0  3  0  0  0  0  0  0
  -25.6650  -33.8810   24.2570 N   0  0  0  0  0  0  0  0  0  0  0  0
  -25.9240  -34.9640   23.5150 C   0  0  0  0  0  0  0  0  0  0  0  0
  -26.5610  -34.9090   22.4590 O   0  0  0  0  0  0  0  0  0  0  0  0
  -25.0430  -33.9820   25.0450 H   0  0  0  0  0  0  0  0  0  0  0  0
  -24.1450  -36.7400   23.2590 C   0  0  0  0  0  1  0  0  0  0  0  0
  -25.4080  -36.3210   24.0290 C   0  0  0  0  0  3  0  0  0  0  0  0
  -27.5540  -37.1900   24.8440 C   0  0  0  0  0  1  0  0  0  0  0  0
  -26.4230  -37.3910   23.9430 N   0  0  0  0  0  0  0  0  0  0  0  0
  -26.0110  -38.2980   24.1510 H   0  0  0  0  0  0  0  0  0  0  0  0
  -26.4850  -31.6660   25.1150 C   0  0  1  0  0  0  0  0  0  0  0  0
  -25.3780  -31.3670   26.1550 C   0  0  0  0  0  1  0  0  0  0  0  0
  -27.0670  -30.3070   24.6620 C   0  0  0  0  0  1  0  0  0  0  0  0
  -27.6270  -32.4290   25.8170 C   0  0  0  0  0  1  0  0  0  0  0  0
  -23.5190  -27.6700   25.3100 C   0  0  0  0  0  2  0  0  0  0  0  0
  -23.6070  -26.0740   24.6150 C   0  0  0  0  0  3  0  0  0  0  0  0
  -24.9840  -25.1010   24.1770 C   0  0  0  0  0  3  0  0  0  0  0  0
  -25.1310  -23.3960   23.8350 C   0  0  0  0  0  3  0  0  0  0  0  0
  -26.4460  -22.5510   23.0580 C   0  0  0  0  0  3  0  0  0  0  0  0
  -27.7850  -20.1780   22.2890 C   0  0  0  0  0  0  0  0  0  0  0  0
  -26.7020  -20.9580   22.8490 N   0  0  0  0  0  0  0  0  0  0  0  0
  -28.7350  -20.8150   21.8370 O   0  0  0  0  0  0  0  0  0  0  0  0
  -25.9170  -20.3850   23.1210 H   0  0  0  0  0  0  0  0  0  0  0  0
  -27.9220  -18.4950   22.1100 C   0  0  0  0  0  3  0  0  0  0  0  0
  -29.3060  -17.5540   21.5860 C   0  0  0  0  0  3  0  0  0  0  0  0
  -30.3210  -14.9730   20.7470 C   0  0  0  0  0  0  0  0  0  0  0  0
  -30.4310  -12.6950   19.5470 C   0  0  0  0  0  2  0  0  0  0  0  0
  -29.5110  -12.5930   18.2970 C   0  0  0  0  0  2  0  0  0  0  0  0
  -28.0470  -12.3360   18.6800 C   0  0  0  0  0  2  0  0  0  0  0  0
  -27.6080  -13.2280   19.8600 C   0  0  0  0  0  3  0  0  0  0  0  0
  -28.5910  -13.1600   21.0350 C   0  0  0  0  0  2  0  0  0  0  0  0
  -29.8620  -13.6720   20.5360 N   0  0  0  0  0  0  0  0  0  0  0  0
  -31.4650  -15.2170   20.3190 O   0  0  0  0  0  0  0  0  0  0  0  0
  -29.4100  -15.9520   21.3160 N   0  0  0  0  0  0  0  0  0  0  0  0
  -28.5820  -15.4600   21.6170 H   0  0  0  0  0  0  0  0  0  0  0  0
  -25.2320  -13.8210   20.5570 C   0  0  0  0  0  0  0  0  0  0  0  0
  -24.1630  -13.0390   20.9190 C   0  0  0  0  0  0  0  0  0  0  0  0
  -24.6260  -11.6930   20.8760 C   0  0  0  0  0  0  0  0  0  0  0  0
  -26.2650  -12.9350   20.3130 N   0  0  0  0  0  0  0  0  0  0  0  0
  -25.9160  -11.6520   20.5670 N   0  0  0  0  0  0  0  0  0  0  0  0
  -23.9020  -10.4280   21.0470 C   0  0  0  0  0  0  0  0  0  0  0  0
  -24.3630   -9.4200   21.9190 C   0  0  0  0  0  3  0  0  0  0  0  0
  -23.6300   -8.2230   22.0760 C   0  0  0  0  0  3  0  0  0  0  0  0
  -22.4270   -8.0300   21.3560 C   0  0  0  0  0  0  0  0  0  0  0  0
  -21.9910   -9.0260   20.4650 C   0  0  0  0  0  3  0  0  0  0  0  0
  -22.7240  -10.2140   20.3070 C   0  0  0  0  0  3  0  0  0  0  0  0
  -21.6640   -6.8900   21.4260 O   0  0  0  0  0  0  0  0  0  0  0  0
  -21.6870   -6.0750   22.5280 C   0  0  0  0  0  0  0  0  0  0  0  0
  -21.4010   -6.5660   23.8210 C   0  0  0  0  0  3  0  0  0  0  0  0
  -21.3650   -5.6800   24.9180 C   0  0  0  0  0  3  0  0  0  0  0  0
  -21.6040   -4.3060   24.7230 C   0  0  0  0  0  0  0  0  0  0  0  0
  -21.8820   -3.8170   23.4350 C   0  0  0  0  0  3  0  0  0  0  0  0
  -21.9190   -4.6980   22.3410 C   0  0  0  0  0  0  0  0  0  0  0  0
  -22.1680   -4.2180   21.0980 F   0  0  0  0  0  0  0  0  0  0  0  0
  -21.5630   -3.4540   25.7730 F   0  0  0  0  0  0  0  0  0  0  0  0
  -22.7710  -13.5260   21.1890 C   0  0  0  0  0  0  0  0  0  0  0  0
  -22.0410  -12.8160   22.0470 N   0  0  0  0  0  0  0  0  0  0  0  0
  -22.3380  -14.5550   20.6800 O   0  0  0  0  0  0  0  0  0  0  0  0
  -22.4140  -11.9850   22.4770 H   0  0  0  0  0  0  0  0  0  0  0  0
  -21.1040  -13.1140   22.2770 H   0  0  0  0  0  0  0  0  0  0  0  0
  -25.3980  -15.1870   20.4020 N   0  0  0  0  0  0  0  0  0  0  0  0
  -24.6170  -15.8290   20.4880 H   0  0  0  0  0  0  0  0  0  0  0  0
  -26.2070  -15.6040   19.9530 H   0  0  0  0  0  0  0  0  0  0  0  0
  1  2  1  0
  1  3  2  0
  2  4  1  0
  5  1  1  0
  6  5  1  0
  7  6  2  0
  8  7  1  0
  8  9  1  0
 10 12  1  0
 10  9  1  0
 11 10  1  0
 13 24  2  0
 14 12  1  0
 14 19  1  0
 15 23  1  0
 15 25  1  0
 16 22  1  0
 16 18  1  0
 17 23  1  0
 18 19  2  0
 18 17  1  0
 20 21  1  0
 20 14  2  0
 21 16  2  0
 22 15  1  0
 23 13  1  0
 25 26  1  0
 25 27  2  0
 26 28  1  0
 29 38  2  0
 29 34  1  0
 30 26  1  0
 30 34  1  0
 31 30  1  0
 32 33  1  0
 32 31  1  0
 33 29  1  0
 34 35  2  0
 35 36  1  0
 37 36  2  0
 38 37  1  0
 39 13  1  0
 39 40  1  0
 39 49  1  0
 40 43  1  0
 41 45  1  0
 41 40  1  0
 42 41  2  0
 45 44  1  0
 47 45  1  0
 47 48  1  0
 47 46  1  0
 49 52  1  1
 49 50  1  0
 51 49  1  0
 53  2  1  0
 54 53  1  0
 55 54  2  0
 56 55  1  0
 57 56  2  0
 58 59  1  0
 59 57  1  0
 59 61  1  0
 60 58  2  0
 62 58  1  0
 63 62  2  0
 64 72  1  0
 65 70  1  0
 66 67  1  0
 66 65  1  0
 68 67  1  0
 68 77  1  0
 68 69  1  0
 70 64  1  0
 70 69  1  0
 71 64  2  0
 72 63  1  0
 72 73  1  0
 74 75  2  0
 75 94  1  0
 76 75  1  0
 76 79  1  0
 77 74  1  0
 77 78  1  0
 78 76  2  0
 79 80  1  0
 80 81  2  0
 82 85  1  0
 82 81  1  0
 83 82  2  0
 84 83  1  0
 84 79  2  0
 85 86  1  0
 86 87  1  0
 87 88  2  0
 89 88  1  0
 89 93  1  0
 90 89  2  0
 91 86  2  0
 91 90  1  0
 92 91  1  0
 94 95  1  0
 95 98  1  0
 95 97  1  0
 96 94  2  0
 99100  1  0
 99 74  1  0
101 99  1  0
M  ISO  4  10 101  12 101  64 100  72 100
M  END
>  <TORSDO>  (23) 
F 30

>  <SCORE>  (23) 
17.298

>  <name>  (23) 
22

>  <ligand_id>  (23) 
22

>  <original_smiles>  (23) 
[H]c1c([H])c([H])c2c(c1[H])C([H])([H])C([H])([H])C([H])([H])C2([H])N([H])C(=O)C1([H])N(C(=O)C([H])(N([H])C(=O)C([H])(N([H])C([H])([H])[H])C([H])([H])[H])C(C([H])([H])[H])(C([H])([H])[H])C([H])([H])[H])C([H])([H])c2c([H])c(ON([H])C([H])([H])C([H])([H])C([H])([H])C([H])([H])C([H])([H])C(=O)N([H])C([H])([H])C([H])([H])C([H])([H])C([H])([H])C([H])([H])N([H])C(=O)C([H])([H])C([H])([H])N([H])C(=O)N3C([H])([H])C([H])([H])C([H])([H])C([H])(n4nc(-c5c([H])c([H])c(Oc6c([H])c([H])c(F)c([H])c6F)c([H])c5[H])c(C(=O)N([H])[H])c4N([H])[H])C3([H])[H])c([H])c([H])c2C1([H])[H]

>  <smiles>  (23) 
[H]c1c([H])c([H])c2c(c1[H])C([H])([H])C([H])([H])C([H])([H])C2([H])N([H])C(=O)C1([H])N(C(=O)C([H])(N([H])C(=O)C([H])(N([H])C([H])([H])[H])C([H])([H])[H])C(C([H])([H])[H])(C([H])([H])[H])C([H])([H])[H])C([H])([H])c2c([H])c(ON([H])C([H])([H])C([H])([H])C([H])([H])C([H])([H])C([H])([H])C(=O)N([H])C([H])([H])C([H])([H])C([H])([H])C([H])([H])C([H])([H])N([H])C(=O)C([H])([H])C([H])([H])N([H])C(=O)N3C([H])([H])C([H])([H])C([H])([H])C([H])(n4nc(-c5c([H])c([H])c(Oc6c([H])c([H])c(F)c([H])c6F)c([H])c5[H])c(C(=O)N([H])[H])c4N([H])[H])C3([H])[H])c([H])c([H])c2C1([H])[H]

$$$$
23:0:0
     RDKit          3D

113120  0  0  1  0  0  0  0  0999 V2000
  -23.9730  -21.6250   16.7080 C   0  0  0  0  0  2  0  0  0  0  0  0
  -23.8390  -21.5720   18.1250 O   0  0  0  0  0  0  0  0  0  0  0  0
  -23.1080  -22.6380   18.7170 C   0  0  0  0  0  2  0  0  0  0  0  0
  -24.0130  -23.4890   19.6280 C   0  0  0  0  0  2  0  0  0  0  0  0
  -23.2530  -24.1540   20.7930 C   0  0  0  0  0  2  0  0  0  0  0  0
  -24.2040  -24.8300   21.8020 C   0  0  0  0  0  2  0  0  0  0  0  0
  -23.7370  -24.7590   23.2710 C   0  0  0  0  0  2  0  0  0  0  0  0
  -24.5040  -25.7000   24.2220 C   0  0  0  0  0  2  0  0  0  0  0  0
  -26.9340  -25.7690   24.8010 C   0  0  0  0  0  0  0  0  0  0  0  0
  -25.9310  -25.7610   23.9210 N   0  0  0  0  0  0  0  0  0  0  0  0
  -26.7570  -25.7240   26.0220 O   0  0  0  0  0  0  0  0  0  0  0  0
  -26.2130  -25.8210   22.9510 H   0  0  0  0  0  0  0  0  0  0  0  0
  -28.3510  -25.8310   24.2180 C   0  0  0  0  0  2  0  0  0  0  0  0
  -28.3230  -25.5140   22.8240 O   0  0  0  0  0  0  0  0  0  0  0  0
  -29.6260  -25.2860   22.3000 C   0  0  0  0  0  2  0  0  0  0  0  0
  -29.7170  -25.6740   20.8130 C   0  0  0  0  0  2  0  0  0  0  0  0
  -29.5990  -27.0920   20.6480 O   0  0  0  0  0  0  0  0  0  0  0  0
  -24.6480  -31.6390   22.9880 C   0  0  0  0  0  0  0  0  0  0  0  0
  -28.3610  -27.6580   20.4170 C   0  0  0  0  0  0  0  0  0  0  0  0
  -24.0020  -30.2490   21.0500 C   0  0  0  0  0  3  0  0  0  0  0  0
  -25.8830  -28.9450   19.9500 C   0  0  0  0  0  0  0  0  0  0  0  0
  -26.4580  -30.8440   21.4660 C   0  0  0  0  0  2  0  0  0  0  0  0
  -26.8230  -29.5300   20.8070 C   0  0  0  0  0  0  0  0  0  0  0  0
  -28.0630  -28.8950   21.0360 C   0  0  0  0  0  3  0  0  0  0  0  0
  -27.3860  -27.0790   19.5660 C   0  0  0  0  0  3  0  0  0  0  0  0
  -26.1560  -27.7160   19.3340 C   0  0  0  0  0  3  0  0  0  0  0  0
  -24.5870  -29.6830   19.7320 C   0  0  0  0  0  2  0  0  0  0  0  0
  -25.0400  -30.9220   21.8960 N   0  0  0  0  0  0  0  0  0  0  0  0
  -23.4500  -31.7740   23.2700 O   0  0  0  0  0  0  0  0  0  0  0  0
  -23.2560  -29.1110   21.7850 C   0  0  0  0  0  0  0  0  0  0  0  0
  -21.9210  -29.0790   21.6380 N   0  0  0  0  0  0  0  0  0  0  0  0
  -23.8740  -28.2690   22.4420 O   0  0  0  0  0  0  0  0  0  0  0  0
  -21.4870  -29.8120   21.0940 H   0  0  0  0  0  0  0  0  0  0  0  0
  -18.4480  -28.3100   22.2810 C   0  0  0  0  0  0  0  0  0  0  0  0
  -21.0190  -28.0750   22.2020 C   0  0  0  0  0  3  0  0  0  0  0  0
  -20.7840  -26.9150   21.2080 C   0  0  0  0  0  2  0  0  0  0  0  0
  -19.5410  -27.1050   20.3360 C   0  0  0  0  0  2  0  0  0  0  0  0
  -18.2890  -27.2480   21.2050 C   0  0  0  0  0  2  0  0  0  0  0  0
  -19.7310  -28.7090   22.7400 C   0  0  0  0  0  0  0  0  0  0  0  0
  -19.8210  -29.7250   23.7170 C   0  0  0  0  0  3  0  0  0  0  0  0
  -18.6620  -30.3410   24.2250 C   0  0  0  0  0  3  0  0  0  0  0  0
  -17.3950  -29.9340   23.7740 C   0  0  0  0  0  3  0  0  0  0  0  0
  -17.2880  -28.9150   22.8120 C   0  0  0  0  0  3  0  0  0  0  0  0
  -25.6860  -32.3420   23.9170 C   0  0  0  0  0  3  0  0  0  0  0  0
  -25.8990  -31.5940   25.2880 C   0  0  1  0  0  0  0  0  0  0  0  0
  -24.5820  -31.2330   26.0120 C   0  0  0  0  0  1  0  0  0  0  0  0
  -26.6960  -30.2880   25.0730 C   0  0  0  0  0  1  0  0  0  0  0  0
  -26.7460  -32.4760   26.2370 C   0  0  0  0  0  1  0  0  0  0  0  0
  -25.2160  -33.7160   24.1410 N   0  0  0  0  0  0  0  0  0  0  0  0
  -25.6420  -34.7840   23.4520 C   0  0  0  0  0  0  0  0  0  0  0  0
  -26.5320  -34.7190   22.6000 O   0  0  0  0  0  0  0  0  0  0  0  0
  -24.4510  -33.8360   24.7880 H   0  0  0  0  0  0  0  0  0  0  0  0
  -23.8620  -36.4030   22.7260 C   0  0  0  0  0  1  0  0  0  0  0  0
  -24.9730  -36.1390   23.7560 C   0  0  0  0  0  3  0  0  0  0  0  0
  -26.8610  -37.2190   24.8940 C   0  0  0  0  0  1  0  0  0  0  0  0
  -25.9220  -37.2720   23.7740 N   0  0  0  0  0  0  0  0  0  0  0  0
  -25.4270  -38.1590   23.8160 H   0  0  0  0  0  0  0  0  0  0  0  0
  -24.7800  -20.3890   16.2900 C   0  0  0  0  0  2  0  0  0  0  0  0
  -27.0510  -19.7250   17.0950 C   0  0  0  0  0  0  0  0  0  0  0  0
  -25.8150  -20.1850   17.2880 N   0  0  0  0  0  0  0  0  0  0  0  0
  -27.4740  -19.3530   15.9960 O   0  0  0  0  0  0  0  0  0  0  0  0
  -25.5520  -20.4400   18.2320 H   0  0  0  0  0  0  0  0  0  0  0  0
  -27.9460  -19.7190   18.3310 C   0  0  0  0  0  2  0  0  0  0  0  0
  -29.6680  -18.2020   19.2310 C   0  0  0  0  0  0  0  0  0  0  0  0
  -29.0750  -18.8070   18.1940 N   0  0  0  0  0  0  0  0  0  0  0  0
  -29.2910  -18.3810   20.3910 O   0  0  0  0  0  0  0  0  0  0  0  0
  -29.3670  -18.6090   17.2430 H   0  0  0  0  0  0  0  0  0  0  0  0
  -30.8080  -17.2170   18.9540 C   0  0  0  0  0  3  0  0  0  0  0  0
  -31.3990  -14.9970   19.6780 C   0  0  0  0  0  0  0  0  0  0  0  0
  -31.1030  -12.6980   18.9150 C   0  0  0  0  0  2  0  0  0  0  0  0
  -30.1300  -12.7210   17.7180 C   0  0  0  0  0  2  0  0  0  0  0  0
  -28.6700  -12.6230   18.2000 C   0  0  0  0  0  2  0  0  0  0  0  0
  -28.3410  -13.6270   19.3370 C   0  0  0  0  0  3  0  0  0  0  0  0
  -29.4330  -13.6040   20.4360 C   0  0  0  0  0  2  0  0  0  0  0  0
  -30.7420  -13.8160   19.7930 N   0  0  0  0  0  0  0  0  0  0  0  0
  -32.5230  -15.1180   19.1910 O   0  0  0  0  0  0  0  0  0  0  0  0
  -30.6480  -16.0790   19.8530 N   0  0  0  0  0  0  0  0  0  0  0  0
  -29.7280  -15.9640   20.2480 H   0  0  0  0  0  0  0  0  0  0  0  0
  -26.0020  -14.2880   20.1850 C   0  0  0  0  0  0  0  0  0  0  0  0
  -24.9340  -13.5410   20.5990 C   0  0  0  0  0  0  0  0  0  0  0  0
  -25.3510  -12.1760   20.5170 C   0  0  0  0  0  0  0  0  0  0  0  0
  -27.0090  -13.3820   19.8870 N   0  0  0  0  0  0  0  0  0  0  0  0
  -26.6220  -12.1060   20.1420 N   0  0  0  0  0  0  0  0  0  0  0  0
  -24.5970  -10.9340   20.7200 C   0  0  0  0  0  0  0  0  0  0  0  0
  -25.0390   -9.9470   21.6260 C   0  0  0  0  0  3  0  0  0  0  0  0
  -24.2910   -8.7660   21.8220 C   0  0  0  0  0  3  0  0  0  0  0  0
  -23.0830   -8.5660   21.1130 C   0  0  0  0  0  0  0  0  0  0  0  0
  -22.6560   -9.5440   20.1950 C   0  0  0  0  0  3  0  0  0  0  0  0
  -23.4060  -10.7160   19.9970 C   0  0  0  0  0  3  0  0  0  0  0  0
  -22.3040   -7.4380   21.2170 O   0  0  0  0  0  0  0  0  0  0  0  0
  -21.9570   -6.9130   22.4350 C   0  0  0  0  0  0  0  0  0  0  0  0
  -21.2810   -7.6750   23.4140 C   0  0  0  0  0  3  0  0  0  0  0  0
  -20.8860   -7.0740   24.6260 C   0  0  0  0  0  3  0  0  0  0  0  0
  -21.1550   -5.7120   24.8580 C   0  0  0  0  0  0  0  0  0  0  0  0
  -21.8180   -4.9480   23.8810 C   0  0  0  0  0  3  0  0  0  0  0  0
  -22.2170   -5.5480   22.6730 C   0  0  0  0  0  0  0  0  0  0  0  0
  -22.8390   -4.8030   21.7270 F   0  0  0  0  0  0  0  0  0  0  0  0
  -20.7680   -5.1310   26.0170 F   0  0  0  0  0  0  0  0  0  0  0  0
  -23.5660  -14.0520   20.9550 C   0  0  0  0  0  0  0  0  0  0  0  0
  -22.8660  -13.3650   21.8510 N   0  0  0  0  0  0  0  0  0  0  0  0
  -23.1310  -15.0980   20.4760 O   0  0  0  0  0  0  0  0  0  0  0  0
  -23.2270  -12.5200   22.2720 H   0  0  0  0  0  0  0  0  0  0  0  0
  -21.9520  -13.6920   22.1250 H   0  0  0  0  0  0  0  0  0  0  0  0
  -26.1970  -15.6550   20.0210 N   0  0  0  0  0  0  0  0  0  0  0  0
  -25.4510  -16.3220   20.1700 H   0  0  0  0  0  0  0  0  0  0  0  0
  -27.0430  -16.0730   19.6610 H   0  0  0  0  0  0  0  0  0  0  0  0
  -32.1840  -17.8150   19.0510 C   0  0  0  0  0  0  0  0  0  0  0  0
  -32.8890  -17.9800   17.9250 N   0  0  0  0  0  4  0  0  0  0  0  0
  -32.6730  -18.1100   20.2630 N   0  0  0  0  0  0  0  0  0  0  0  0
  -33.8300  -18.3410   17.9170 H   0  0  0  0  0  0  0  0  0  0  0  0
  -32.4940  -17.7370   17.0280 H   0  0  0  0  0  0  0  0  0  0  0  0
  -32.1010  -17.9620   21.0810 H   0  0  0  0  0  0  0  0  0  0  0  0
  -33.5930  -18.4960   20.3960 H   0  0  0  0  0  0  0  0  0  0  0  0
  1  2  1  0
  2  3  1  0
  3  4  1  0
  4  5  1  0
  5  6  1  0
  6  7  1  0
  7  8  1  0
  9 11  2  0
 10  8  1  0
 10  9  1  0
 12 10  1  0
 13  9  1  0
 14 13  1  0
 15 14  1  0
 16 15  1  0
 17 16  1  0
 18 29  2  0
 19 17  1  0
 19 24  1  0
 20 30  1  0
 20 28  1  0
 21 23  1  0
 22 28  1  0
 23 24  2  0
 23 22  1  0
 25 19  2  0
 26 25  1  0
 26 21  2  0
 27 21  1  0
 27 20  1  0
 28 18  1  0
 30 32  2  0
 31 30  1  0
 33 31  1  0
 34 39  2  0
 34 43  1  0
 35 31  1  0
 35 39  1  0
 36 35  1  0
 37 38  1  0
 37 36  1  0
 38 34  1  0
 39 40  1  0
 40 41  2  0
 42 41  1  0
 43 42  2  0
 44 18  1  0
 44 49  1  0
 44 45  1  0
 45 46  1  1
 45 48  1  0
 47 45  1  0
 49 52  1  0
 50 54  1  0
 50 49  1  0
 51 50  2  0
 54 53  1  0
 54 56  1  0
 56 57  1  0
 56 55  1  0
 58  1  1  0
 58 60  1  0
 59 60  1  0
 59 63  1  0
 60 62  1  0
 61 59  2  0
 64 66  2  0
 65 63  1  0
 65 64  1  0
 67 65  1  0
 68107  1  0
 68 64  1  0
 68 77  1  0
 69 75  1  0
 69 77  1  0
 70 75  1  0
 71 72  1  0
 71 70  1  0
 73 72  1  0
 73 82  1  0
 73 74  1  0
 75 74  1  0
 76 69  2  0
 77 78  1  0
 79 80  2  0
 80 99  1  0
 81 80  1  0
 81 84  1  0
 82 83  1  0
 82 79  1  0
 83 81  2  0
 84 85  1  0
 85 86  2  0
 87 90  1  0
 87 86  1  0
 88 87  2  0
 89 88  1  0
 89 84  2  0
 90 91  1  0
 91 96  2  0
 91 92  1  0
 92 93  2  0
 93 94  1  0
 94 98  1  0
 95 94  2  0
 96 95  1  0
 97 96  1  0
 99100  1  0
100103  1  0
100102  1  0
101 99  2  0
104105  1  0
104 79  1  0
106104  1  0
107109  1  0
108107  2  0
109113  1  0
109112  1  0
110108  1  0
111108  1  0
M  ISO  4  16 101  17 101  69 100  77 100
M  END
>  <TORSDO>  (24) 
F 34

>  <SCORE>  (24) 
-8.289

>  <name>  (24) 
23

>  <ligand_id>  (24) 
23

>  <original_smiles>  (24) 
[H]c1c([H])c([H])c2c(c1[H])C([H])([H])C([H])([H])C([H])([H])C2([H])N([H])C(=O)C1([H])N(C(=O)C([H])(N([H])C(=O)C([H])(N([H])C([H])([H])[H])C([H])([H])[H])C(C([H])([H])[H])(C([H])([H])[H])C([H])([H])[H])C([H])([H])c2c([H])c(OC([H])([H])C([H])([H])OC([H])([H])C(=O)N([H])C([H])([H])C([H])([H])C([H])([H])C([H])([H])C([H])([H])C([H])([H])OC([H])([H])C([H])([H])N([H])C(=O)C([H])([H])N([H])C(=O)C([H])(C(N([H])[H])=[N+]([H])[H])N([H])C(=O)N3C([H])([H])C([H])([H])C([H])([H])C([H])(n4nc(-c5c([H])c([H])c(Oc6c([H])c([H])c(F)c([H])c6F)c([H])c5[H])c(C(=O)N([H])[H])c4N([H])[H])C3([H])[H])c([H])c([H])c2C1([H])[H]

>  <smiles>  (24) 
[H]c1c([H])c([H])c2c(c1[H])C([H])([H])C([H])([H])C([H])([H])C2([H])N([H])C(=O)C1([H])N(C(=O)C([H])(N([H])C(=O)C([H])(N([H])C([H])([H])[H])C([H])([H])[H])C(C([H])([H])[H])(C([H])([H])[H])C([H])([H])[H])C([H])([H])c2c([H])c(OC([H])([H])C([H])([H])OC([H])([H])C(=O)N([H])C([H])([H])C([H])([H])C([H])([H])C([H])([H])C([H])([H])C([H])([H])OC([H])([H])C([H])([H])N([H])C(=O)C([H])([H])N([H])C(=O)C([H])(C(N([H])[H])=[N+]([H])[H])N([H])C(=O)N3C([H])([H])C([H])([H])C([H])([H])C([H])(n4nc(-c5c([H])c([H])c(Oc6c([H])c([H])c(F)c([H])c6F)c([H])c5[H])c(C(=O)N([H])[H])c4N([H])[H])C3([H])[H])c([H])c([H])c2C1([H])[H]

$$$$
24:0:0
     RDKit          3D

104111  0  0  1  0  0  0  0  0999 V2000
  -22.5790  -22.3910   16.7190 C   0  0  0  0  0  0  0  0  0  0  0  0
  -23.4840  -21.5040   17.1510 N   0  0  0  0  0  0  0  0  0  0  0  0
  -22.0860  -22.3270   15.5910 O   0  0  0  0  0  0  0  0  0  0  0  0
  -23.8430  -21.6250   18.0870 H   0  0  0  0  0  0  0  0  0  0  0  0
  -23.9790  -20.3570   16.3930 C   0  0  0  0  0  2  0  0  0  0  0  0
  -25.5160  -20.3010   16.3870 C   0  0  0  0  0  2  0  0  0  0  0  0
  -26.1270  -19.9320   17.7480 C   0  0  0  0  0  2  0  0  0  0  0  0
  -27.5470  -19.3650   17.6100 C   0  0  0  0  0  2  0  0  0  0  0  0
  -28.1080  -18.8510   18.9460 C   0  0  0  0  0  2  0  0  0  0  0  0
  -29.2990  -17.8960   18.7540 C   0  0  0  0  0  2  0  0  0  0  0  0
  -30.4200  -17.8460   21.0100 C   0  0  0  0  0  0  0  0  0  0  0  0
  -29.7260  -17.2890   20.0110 N   0  0  0  0  0  0  0  0  0  0  0  0
  -30.7910  -19.0180   20.9860 O   0  0  0  0  0  0  0  0  0  0  0  0
  -29.4960  -16.3170   20.1400 H   0  0  0  0  0  0  0  0  0  0  0  0
  -30.7490  -16.9560   22.2230 C   0  0  0  0  0  2  0  0  0  0  0  0
  -31.0790  -14.7850   21.0630 C   0  0  0  0  0  0  0  0  0  0  0  0
  -30.7870  -12.9270   19.4740 C   0  0  0  0  0  2  0  0  0  0  0  0
  -29.8590  -13.3680   18.3250 C   0  0  0  0  0  2  0  0  0  0  0  0
  -28.3800  -13.1400   18.6980 C   0  0  0  0  0  2  0  0  0  0  0  0
  -28.0210  -13.7240   20.0870 C   0  0  0  0  0  3  0  0  0  0  0  0
  -29.0560  -13.2770   21.1450 C   0  0  0  0  0  2  0  0  0  0  0  0
  -30.3980  -13.6730   20.6800 N   0  0  0  0  0  0  0  0  0  0  0  0
  -32.1390  -15.1470   20.5480 O   0  0  0  0  0  0  0  0  0  0  0  0
  -30.4570  -15.5400   21.9750 N   0  0  0  0  0  0  0  0  0  0  0  0
  -29.6140  -15.1670   22.3870 H   0  0  0  0  0  0  0  0  0  0  0  0
  -25.5460  -14.1870   20.6430 C   0  0  0  0  0  0  0  0  0  0  0  0
  -24.5070  -13.3500   20.9460 C   0  0  0  0  0  0  0  0  0  0  0  0
  -25.0500  -12.0310   20.9360 C   0  0  0  0  0  0  0  0  0  0  0  0
  -26.6570  -13.3730   20.4770 N   0  0  0  0  0  0  0  0  0  0  0  0
  -26.3570  -12.0700   20.7070 N   0  0  0  0  0  0  0  0  0  0  0  0
  -24.3920  -10.7260   21.0770 C   0  0  0  0  0  0  0  0  0  0  0  0
  -24.8470   -9.7680   22.0070 C   0  0  0  0  0  3  0  0  0  0  0  0
  -24.1880   -8.5270   22.1350 C   0  0  0  0  0  3  0  0  0  0  0  0
  -23.0570   -8.2370   21.3350 C   0  0  0  0  0  0  0  0  0  0  0  0
  -22.6210   -9.1860   20.3940 C   0  0  0  0  0  3  0  0  0  0  0  0
  -23.2830  -10.4180   20.2630 C   0  0  0  0  0  3  0  0  0  0  0  0
  -22.3680   -7.0500   21.3770 O   0  0  0  0  0  0  0  0  0  0  0  0
  -22.1440   -6.3910   22.5590 C   0  0  0  0  0  0  0  0  0  0  0  0
  -21.5230   -7.0210   23.6600 C   0  0  0  0  0  3  0  0  0  0  0  0
  -21.2450   -6.2850   24.8300 C   0  0  0  0  0  3  0  0  0  0  0  0
  -21.5800   -4.9200   24.9000 C   0  0  0  0  0  0  0  0  0  0  0  0
  -22.1960   -4.2890   23.8040 C   0  0  0  0  0  3  0  0  0  0  0  0
  -22.4720   -5.0220   22.6370 C   0  0  0  0  0  0  0  0  0  0  0  0
  -23.0430   -4.4030   21.5760 F   0  0  0  0  0  0  0  0  0  0  0  0
  -21.3070   -4.2110   26.0200 F   0  0  0  0  0  0  0  0  0  0  0  0
  -23.0700  -13.7400   21.1410 C   0  0  0  0  0  0  0  0  0  0  0  0
  -22.3160  -12.9520   21.9030 N   0  0  0  0  0  0  0  0  0  0  0  0
  -22.6190  -14.7780   20.6590 O   0  0  0  0  0  0  0  0  0  0  0  0
  -22.6880  -12.1110   22.3210 H   0  0  0  0  0  0  0  0  0  0  0  0
  -21.3510  -13.1970   22.0760 H   0  0  0  0  0  0  0  0  0  0  0  0
  -25.6320  -15.5640   20.4820 N   0  0  0  0  0  0  0  0  0  0  0  0
  -24.8020  -16.1450   20.5220 H   0  0  0  0  0  0  0  0  0  0  0  0
  -26.4480  -16.0660   20.1630 H   0  0  0  0  0  0  0  0  0  0  0  0
  -22.1360  -23.5200   17.6600 C   0  0  0  0  0  2  0  0  0  0  0  0
  -22.6790  -23.5090   19.1130 C   0  0  0  0  0  2  0  0  0  0  0  0
  -24.0230  -24.2440   19.2700 C   0  0  0  0  0  2  0  0  0  0  0  0
  -25.2570  -23.5070   18.7100 C   0  0  0  0  0  2  0  0  0  0  0  0
  -26.2010  -22.9370   19.7890 C   0  0  0  0  0  2  0  0  0  0  0  0
  -28.1430  -24.5020   20.0000 C   0  0  0  0  0  0  0  0  0  0  0  0
  -26.9990  -23.9690   20.4550 N   0  0  0  0  0  0  0  0  0  0  0  0
  -28.6670  -24.1340   18.9450 O   0  0  0  0  0  0  0  0  0  0  0  0
  -26.6580  -24.3140   21.3430 H   0  0  0  0  0  0  0  0  0  0  0  0
  -28.7770  -25.6290   20.8350 C   0  0  0  0  0  2  0  0  0  0  0  0
  -28.7310  -26.8940   20.1590 O   0  0  0  0  0  0  0  0  0  0  0  0
  -24.6050  -31.6830   23.4380 C   0  0  0  0  0  0  0  0  0  0  0  0
  -27.5260  -27.5540   20.2070 C   0  0  0  0  0  0  0  0  0  0  0  0
  -23.5050  -30.3240   21.6870 C   0  0  0  0  0  3  0  0  0  0  0  0
  -25.0600  -28.9260   20.2320 C   0  0  0  0  0  0  0  0  0  0  0  0
  -26.0130  -30.8030   21.5810 C   0  0  0  0  0  2  0  0  0  0  0  0
  -26.1760  -29.4710   20.8830 C   0  0  0  0  0  0  0  0  0  0  0  0
  -27.4120  -28.7900   20.8740 C   0  0  0  0  0  3  0  0  0  0  0  0
  -26.4060  -27.0340   19.5320 C   0  0  0  0  0  3  0  0  0  0  0  0
  -25.1680  -27.7000   19.5540 C   0  0  0  0  0  3  0  0  0  0  0  0
  -23.7770  -29.7200   20.2830 C   0  0  0  0  0  2  0  0  0  0  0  0
  -24.7240  -30.9480   22.2950 N   0  0  0  0  0  0  0  0  0  0  0  0
  -23.5010  -31.8830   23.9610 O   0  0  0  0  0  0  0  0  0  0  0  0
  -22.8670  -29.2330   22.5760 C   0  0  0  0  0  0  0  0  0  0  0  0
  -21.5740  -28.9550   22.3500 N   0  0  0  0  0  0  0  0  0  0  0  0
  -23.5400  -28.6360   23.4230 O   0  0  0  0  0  0  0  0  0  0  0  0
  -21.0880  -29.4880   21.6400 H   0  0  0  0  0  0  0  0  0  0  0  0
  -18.2840  -27.4860   22.5710 C   0  0  0  0  0  0  0  0  0  0  0  0
  -20.7860  -27.9390   23.0430 C   0  0  0  0  0  3  0  0  0  0  0  0
  -21.0460  -26.5350   22.4520 C   0  0  0  0  0  2  0  0  0  0  0  0
  -20.0530  -26.1480   21.3520 C   0  0  0  0  0  2  0  0  0  0  0  0
  -18.6180  -26.1710   21.8890 C   0  0  0  0  0  2  0  0  0  0  0  0
  -19.3030  -28.3230   23.1020 C   0  0  0  0  0  0  0  0  0  0  0  0
  -18.9430  -29.5510   23.6960 C   0  0  0  0  0  3  0  0  0  0  0  0
  -17.5930  -29.9440   23.7730 C   0  0  0  0  0  3  0  0  0  0  0  0
  -16.5860  -29.1060   23.2610 C   0  0  0  0  0  3  0  0  0  0  0  0
  -16.9330  -27.8800   22.6640 C   0  0  0  0  0  3  0  0  0  0  0  0
  -25.8480  -32.3310   24.1250 C   0  0  0  0  0  3  0  0  0  0  0  0
  -26.1830  -31.6930   25.5290 C   0  0  1  0  0  0  0  0  0  0  0  0
  -24.9690  -31.6210   26.4830 C   0  0  0  0  0  1  0  0  0  0  0  0
  -26.7370  -30.2590   25.3650 C   0  0  0  0  0  1  0  0  0  0  0  0
  -27.2930  -32.5160   26.2230 C   0  0  0  0  0  1  0  0  0  0  0  0
  -25.5820  -33.7690   24.2570 N   0  0  0  0  0  0  0  0  0  0  0  0
  -26.0690  -34.7110   23.4390 C   0  0  0  0  0  0  0  0  0  0  0  0
  -26.8610  -34.4620   22.5260 O   0  0  0  0  0  0  0  0  0  0  0  0
  -24.8930  -34.0370   24.9440 H   0  0  0  0  0  0  0  0  0  0  0  0
  -24.5330  -36.5330   22.6320 C   0  0  0  0  0  1  0  0  0  0  0  0
  -25.6040  -36.1630   23.6710 C   0  0  0  0  0  3  0  0  0  0  0  0
  -27.6310  -37.0320   24.7480 C   0  0  0  0  0  1  0  0  0  0  0  0
  -26.7050  -37.1490   23.6230 N   0  0  0  0  0  0  0  0  0  0  0  0
  -26.3400  -38.0980   23.6100 H   0  0  0  0  0  0  0  0  0  0  0  0
  1  2  1  0
  1 54  1  0
  2  4  1  0
  3  1  2  0
  5  2  1  0
  6  5  1  0
  6  7  1  0
  8  7  1  0
  8  9  1  0
 10  9  1  0
 10 12  1  0
 11 15  1  0
 12 14  1  0
 12 11  1  0
 13 11  2  0
 16 24  1  0
 17 22  1  0
 18 19  1  0
 18 17  1  0
 20 19  1  0
 20 29  1  0
 20 21  1  0
 22 16  1  0
 22 21  1  0
 23 16  2  0
 24 15  1  0
 24 25  1  0
 26 27  2  0
 27 46  1  0
 28 27  1  0
 28 31  1  0
 29 26  1  0
 29 30  1  0
 30 28  2  0
 31 32  1  0
 32 33  2  0
 34 37  1  0
 34 33  1  0
 35 34  2  0
 36 35  1  0
 36 31  2  0
 37 38  1  0
 38 43  2  0
 38 39  1  0
 39 40  2  0
 40 41  1  0
 41 45  1  0
 42 41  2  0
 43 42  1  0
 44 43  1  0
 46 47  1  0
 47 50  1  0
 47 49  1  0
 48 46  2  0
 51 52  1  0
 51 26  1  0
 53 51  1  0
 54 55  1  0
 55 56  1  0
 57 56  1  0
 57 58  1  0
 58 60  1  0
 59 60  1  0
 59 63  1  0
 60 62  1  0
 61 59  2  0
 64 66  1  0
 64 63  1  0
 65 76  2  0
 66 71  1  0
 67 75  1  0
 67 77  1  0
 68 74  1  0
 68 70  1  0
 69 75  1  0
 70 69  1  0
 71 70  2  0
 72 73  1  0
 72 66  2  0
 73 68  2  0
 74 67  1  0
 75 65  1  0
 77 79  2  0
 78 77  1  0
 80 78  1  0
 81 90  2  0
 81 86  1  0
 82 78  1  0
 82 86  1  0
 83 82  1  0
 84 85  1  0
 84 83  1  0
 85 81  1  0
 86 87  2  0
 87 88  1  0
 89 88  2  0
 90 89  1  0
 91 65  1  0
 91 96  1  0
 91 92  1  0
 92 95  1  1
 92 93  1  0
 94 92  1  0
 96 99  1  0
 97101  1  0
 97 96  1  0
 98 97  2  0
101100  1  0
103101  1  0
103102  1  0
104103  1  0
M  ISO  4  16 100  24 100  63 101  64 101
M  END
>  <TORSDO>  (25) 
F 31

>  <SCORE>  (25) 
-9.076

>  <name>  (25) 
24

>  <ligand_id>  (25) 
24

>  <original_smiles>  (25) 
[H]c1c([H])c([H])c2c(c1[H])C([H])([H])C([H])([H])C([H])([H])C2([H])N([H])C(=O)C1([H])N(C(=O)C([H])(N([H])C(=O)C([H])(N([H])C([H])([H])[H])C([H])([H])[H])C(C([H])([H])[H])(C([H])([H])[H])C([H])([H])[H])C([H])([H])c2c([H])c(OC([H])([H])C(=O)N([H])C([H])([H])C([H])([H])C([H])([H])C([H])([H])C([H])([H])C(=O)N([H])C([H])([H])C([H])([H])C([H])([H])C([H])([H])C([H])([H])C([H])([H])N([H])C(=O)C([H])([H])N([H])C(=O)N3C([H])([H])C([H])([H])C([H])([H])C([H])(n4nc(-c5c([H])c([H])c(Oc6c([H])c([H])c(F)c([H])c6F)c([H])c5[H])c(C(=O)N([H])[H])c4N([H])[H])C3([H])[H])c([H])c([H])c2C1([H])[H]

>  <smiles>  (25) 
[H]c1c([H])c([H])c2c(c1[H])C([H])([H])C([H])([H])C([H])([H])C2([H])N([H])C(=O)C1([H])N(C(=O)C([H])(N([H])C(=O)C([H])(N([H])C([H])([H])[H])C([H])([H])[H])C(C([H])([H])[H])(C([H])([H])[H])C([H])([H])[H])C([H])([H])c2c([H])c(OC([H])([H])C(=O)N([H])C([H])([H])C([H])([H])C([H])([H])C([H])([H])C([H])([H])C(=O)N([H])C([H])([H])C([H])([H])C([H])([H])C([H])([H])C([H])([H])C([H])([H])N([H])C(=O)C([H])([H])N([H])C(=O)N3C([H])([H])C([H])([H])C([H])([H])C([H])(n4nc(-c5c([H])c([H])c(Oc6c([H])c([H])c(F)c([H])c6F)c([H])c5[H])c(C(=O)N([H])[H])c4N([H])[H])C3([H])[H])c([H])c([H])c2C1([H])[H]

$$$$
25:0:0
     RDKit          3D

111118  0  0  1  0  0  0  0  0999 V2000
  -24.8300  -24.0410   16.7690 C   0  0  0  0  0  0  0  0  0  0  0  0
  -25.2970  -24.9480   15.9090 N   0  0  0  0  0  0  0  0  0  0  0  0
  -24.2500  -24.3340   17.8190 O   0  0  0  0  0  0  0  0  0  0  0  0
  -25.7410  -24.5910   15.0740 H   0  0  0  0  0  0  0  0  0  0  0  0
  -25.0350  -22.5850   16.3670 C   0  0  0  0  0  2  0  0  0  0  0  0
  -25.9640  -20.6830   17.6260 C   0  0  0  0  0  0  0  0  0  0  0  0
  -25.1690  -21.7490   17.5470 N   0  0  0  0  0  0  0  0  0  0  0  0
  -26.6730  -20.3300   16.6760 O   0  0  0  0  0  0  0  0  0  0  0  0
  -24.6080  -22.0190   18.3450 H   0  0  0  0  0  0  0  0  0  0  0  0
  -25.9380  -19.8780   18.9360 C   0  0  0  0  0  3  0  0  0  0  0  0
  -28.0250  -18.8290   19.8560 C   0  0  0  0  0  0  0  0  0  0  0  0
  -27.0790  -18.9600   18.9210 N   0  0  0  0  0  0  0  0  0  0  0  0
  -27.9610  -19.3850   20.9540 O   0  0  0  0  0  0  0  0  0  0  0  0
  -27.2390  -18.5260   18.0200 H   0  0  0  0  0  0  0  0  0  0  0  0
  -29.1150  -17.9840   19.3950 C   0  0  0  0  0  3  0  0  0  0  0  0
  -30.0590  -17.5240   20.2410 C   0  0  0  0  0  3  0  0  0  0  0  0
  -31.2240  -16.6520   19.8090 C   0  0  0  0  0  2  0  0  0  0  0  0
  -31.5770  -14.2050   19.5530 C   0  0  0  0  0  0  0  0  0  0  0  0
  -31.0680  -11.9910   18.6040 C   0  0  0  0  0  2  0  0  0  0  0  0
  -29.9960  -12.1720   17.5080 C   0  0  0  0  0  2  0  0  0  0  0  0
  -28.5740  -12.1670   18.1100 C   0  0  0  0  0  2  0  0  0  0  0  0
  -28.4380  -13.1080   19.3380 C   0  0  0  0  0  3  0  0  0  0  0  0
  -29.6000  -12.8650   20.3290 C   0  0  0  0  0  2  0  0  0  0  0  0
  -30.8670  -13.0500   19.6010 N   0  0  0  0  0  0  0  0  0  0  0  0
  -32.6250  -14.3370   18.9100 O   0  0  0  0  0  0  0  0  0  0  0  0
  -30.9520  -15.2520   20.1080 N   0  0  0  0  0  0  0  0  0  0  0  0
  -30.1070  -15.0440   20.6200 H   0  0  0  0  0  0  0  0  0  0  0  0
  -26.2800  -13.9350   20.4760 C   0  0  0  0  0  0  0  0  0  0  0  0
  -25.1760  -13.2710   20.9350 C   0  0  0  0  0  0  0  0  0  0  0  0
  -25.4210  -11.8850   20.6910 C   0  0  0  0  0  0  0  0  0  0  0  0
  -27.1390  -12.9590   19.9910 N   0  0  0  0  0  0  0  0  0  0  0  0
  -26.6310  -11.7140   20.1740 N   0  0  0  0  0  0  0  0  0  0  0  0
  -24.5520  -10.7140   20.8640 C   0  0  0  0  0  0  0  0  0  0  0  0
  -24.9400   -9.6190   21.6660 C   0  0  0  0  0  3  0  0  0  0  0  0
  -24.0790   -8.5130   21.8320 C   0  0  0  0  0  3  0  0  0  0  0  0
  -22.8150   -8.4970   21.1950 C   0  0  0  0  0  0  0  0  0  0  0  0
  -22.4420   -9.5790   20.3800 C   0  0  0  0  0  3  0  0  0  0  0  0
  -23.3030  -10.6770   20.2120 C   0  0  0  0  0  3  0  0  0  0  0  0
  -21.9240   -7.4530   21.2760 O   0  0  0  0  0  0  0  0  0  0  0  0
  -21.8470   -6.6590   22.3900 C   0  0  0  0  0  0  0  0  0  0  0  0
  -21.5380   -7.1880   23.6630 C   0  0  0  0  0  3  0  0  0  0  0  0
  -21.4000   -6.3280   24.7690 C   0  0  0  0  0  3  0  0  0  0  0  0
  -21.5580   -4.9380   24.6050 C   0  0  0  0  0  0  0  0  0  0  0  0
  -21.8590   -4.4080   23.3380 C   0  0  0  0  0  3  0  0  0  0  0  0
  -22.0000   -5.2660   22.2330 C   0  0  0  0  0  0  0  0  0  0  0  0
  -22.2690   -4.7480   21.0110 F   0  0  0  0  0  0  0  0  0  0  0  0
  -21.4180   -4.1100   25.6670 F   0  0  0  0  0  0  0  0  0  0  0  0
  -23.9170  -13.8910   21.4740 C   0  0  0  0  0  0  0  0  0  0  0  0
  -23.2350  -13.2060   22.3870 N   0  0  0  0  0  0  0  0  0  0  0  0
  -23.5570  -15.0120   21.1210 O   0  0  0  0  0  0  0  0  0  0  0  0
  -23.5320  -12.2920   22.6940 H   0  0  0  0  0  0  0  0  0  0  0  0
  -22.3980  -13.6070   22.7860 H   0  0  0  0  0  0  0  0  0  0  0  0
  -26.6200  -15.2830   20.4110 N   0  0  0  0  0  0  0  0  0  0  0  0
  -25.9780  -16.0130   20.7010 H   0  0  0  0  0  0  0  0  0  0  0  0
  -27.4540  -15.6410   19.9630 H   0  0  0  0  0  0  0  0  0  0  0  0
  -23.9170  -18.5990   17.9010 C   0  0  0  0  0  1  0  0  0  0  0  0
  -24.7120  -18.0150   20.2380 C   0  0  0  0  0  1  0  0  0  0  0  0
  -24.5880  -19.1320   19.1870 C   0  0  0  0  0  3  0  0  0  0  0  0
  -25.1310  -26.3900   16.0080 C   0  0  0  0  0  2  0  0  0  0  0  0
  -26.4150  -27.1070   15.5680 C   0  0  0  0  0  2  0  0  0  0  0  0
  -26.4020  -28.6010   15.9130 C   0  0  0  0  0  2  0  0  0  0  0  0
  -27.5610  -29.3820   15.2670 C   0  0  0  0  0  2  0  0  0  0  0  0
  -28.9780  -28.8640   15.5960 C   0  0  0  0  0  2  0  0  0  0  0  0
  -29.7450  -28.2300   14.4210 C   0  0  0  0  0  2  0  0  0  0  0  0
  -30.0780  -25.9330   13.5460 C   0  0  0  0  0  0  0  0  0  0  0  0
  -29.3340  -26.8520   14.1760 N   0  0  0  0  0  0  0  0  0  0  0  0
  -31.1650  -26.2050   13.0310 O   0  0  0  0  0  0  0  0  0  0  0  0
  -28.4460  -26.5670   14.5660 H   0  0  0  0  0  0  0  0  0  0  0  0
  -29.5320  -24.5020   13.4720 C   0  0  0  0  0  2  0  0  0  0  0  0
  -30.5050  -23.4320   14.0410 C   0  0  0  0  0  2  0  0  0  0  0  0
  -30.2680  -23.0830   15.4090 O   0  0  0  0  0  0  0  0  0  0  0  0
  -33.9460  -27.3280   19.8450 C   0  0  0  0  0  0  0  0  0  0  0  0
  -30.3020  -24.1300   16.2970 C   0  0  0  0  0  0  0  0  0  0  0  0
  -31.4900  -27.5870   19.8580 C   0  0  0  0  0  3  0  0  0  0  0  0
  -30.2360  -26.3610   18.0130 C   0  0  0  0  0  0  0  0  0  0  0  0
  -32.6960  -26.7490   17.7660 C   0  0  0  0  0  2  0  0  0  0  0  0
  -31.4480  -25.9560   17.4360 C   0  0  0  0  0  0  0  0  0  0  0  0
  -31.4900  -24.8410   16.5740 C   0  0  0  0  0  3  0  0  0  0  0  0
  -29.0980  -24.5120   16.9200 C   0  0  0  0  0  3  0  0  0  0  0  0
  -29.0580  -25.6330   17.7710 C   0  0  0  0  0  3  0  0  0  0  0  0
  -30.2780  -27.5900   18.8910 C   0  0  0  0  0  2  0  0  0  0  0  0
  -32.7650  -27.1920   19.1770 N   0  0  0  0  0  0  0  0  0  0  0  0
  -33.9830  -27.8110   20.9840 O   0  0  0  0  0  0  0  0  0  0  0  0
  -31.1420  -26.7040   21.0770 C   0  0  0  0  0  0  0  0  0  0  0  0
  -30.3600  -27.2600   22.0140 N   0  0  0  0  0  0  0  0  0  0  0  0
  -31.5450  -25.5400   21.1550 O   0  0  0  0  0  0  0  0  0  0  0  0
  -30.0680  -28.2150   21.8750 H   0  0  0  0  0  0  0  0  0  0  0  0
  -28.3740  -27.7530   24.9920 C   0  0  0  0  0  0  0  0  0  0  0  0
  -29.8660  -26.5990   23.2220 C   0  0  0  0  0  3  0  0  0  0  0  0
  -28.6360  -25.7170   22.9050 C   0  0  0  0  0  2  0  0  0  0  0  0
  -27.3030  -26.4420   23.1050 C   0  0  0  0  0  2  0  0  0  0  0  0
  -27.1670  -26.9410   24.5490 C   0  0  0  0  0  2  0  0  0  0  0  0
  -29.6360  -27.6020   24.3570 C   0  0  0  0  0  0  0  0  0  0  0  0
  -30.7170  -28.4080   24.7800 C   0  0  0  0  0  3  0  0  0  0  0  0
  -30.5540  -29.3430   25.8180 C   0  0  0  0  0  3  0  0  0  0  0  0
  -29.3060  -29.4830   26.4490 C   0  0  0  0  0  3  0  0  0  0  0  0
  -28.2210  -28.6880   26.0380 C   0  0  0  0  0  3  0  0  0  0  0  0
  -35.3040  -26.9070   19.2000 C   0  0  0  0  0  3  0  0  0  0  0  0
  -35.8560  -25.5390   19.7560 C   0  0  1  0  0  0  0  0  0  0  0  0
  -35.9630  -25.4810   21.2980 C   0  0  0  0  0  1  0  0  0  0  0  0
  -34.9470  -24.3680   19.3140 C   0  0  0  0  0  1  0  0  0  0  0  0
  -37.2620  -25.2650   19.1690 C   0  0  0  0  0  1  0  0  0  0  0  0
  -36.2620  -27.9910   19.4360 N   0  0  0  0  0  0  0  0  0  0  0  0
  -36.5750  -28.9380   18.5390 C   0  0  0  0  0  0  0  0  0  0  0  0
  -36.1290  -28.9420   17.3880 O   0  0  0  0  0  0  0  0  0  0  0  0
  -36.6190  -28.0840   20.3770 H   0  0  0  0  0  0  0  0  0  0  0  0
  -36.7170  -31.3150   19.3500 C   0  0  0  0  0  1  0  0  0  0  0  0
  -37.5280  -30.0590   18.9940 C   0  0  0  0  0  3  0  0  0  0  0  0
  -39.5410  -29.3350   17.7890 C   0  0  0  0  0  1  0  0  0  0  0  0
  -38.5610  -30.3980   17.9900 N   0  0  0  0  0  0  0  0  0  0  0  0
  -39.0580  -31.2440   18.2560 H   0  0  0  0  0  0  0  0  0  0  0  0
  1  3  2  0
  2 59  1  0
  2  1  1  0
  4  2  1  0
  5  1  1  0
  5  7  1  0
  7  6  1  0
  7  9  1  0
  8  6  2  0
 10  6  1  0
 10 58  1  0
 11 13  2  0
 12 10  1  0
 12 11  1  0
 14 12  1  0
 15 11  1  0
 15 16  2  0
 17 26  1  0
 17 16  1  0
 18 24  1  0
 18 26  1  0
 19 24  1  0
 20 21  1  0
 20 19  1  0
 22 21  1  0
 22 31  1  0
 22 23  1  0
 24 23  1  0
 25 18  2  0
 26 27  1  0
 28 29  2  0
 29 48  1  0
 30 33  1  0
 30 29  1  0
 31 32  1  0
 31 28  1  0
 32 30  2  0
 33 34  1  0
 34 35  2  0
 36 39  1  0
 36 35  1  0
 37 36  2  0
 38 37  1  0
 38 33  2  0
 39 40  1  0
 40 41  1  0
 41 42  2  0
 43 42  1  0
 43 47  1  0
 44 43  2  0
 45 40  2  0
 45 44  1  0
 46 45  1  0
 48 49  1  0
 49 51  1  0
 49 52  1  0
 50 48  2  0
 53 28  1  0
 53 54  1  0
 55 53  1  0
 56 58  1  0
 58 57  1  0
 60 61  1  0
 60 59  1  0
 62 63  1  0
 62 61  1  0
 64 63  1  0
 65 66  1  0
 66 64  1  0
 66 68  1  0
 67 65  2  0
 69 65  1  0
 69 70  1  0
 70 71  1  0
 71 73  1  0
 72 83  2  0
 73 78  2  0
 73 79  1  0
 74 84  1  0
 75 81  1  0
 76 82  1  0
 77 76  1  0
 77 75  2  0
 78 77  1  0
 79 80  2  0
 80 75  1  0
 81 74  1  0
 82 72  1  0
 82 74  1  0
 84 86  2  0
 84 85  1  0
 87 85  1  0
 88 97  1  0
 89 85  1  0
 89 93  1  0
 90 91  1  0
 90 89  1  0
 91 92  1  0
 92 88  1  0
 93 94  1  0
 93 88  2  0
 94 95  2  0
 95 96  1  0
 97 96  2  0
 98103  1  0
 98 99  1  0
 98 72  1  0
 99100  1  1
101 99  1  0
102 99  1  0
103106  1  0
104108  1  0
104103  1  0
105104  2  0
108107  1  0
109110  1  0
110111  1  0
110108  1  0
M  ISO  4  18 100  26 100  70 101  71 101
M  END
>  <TORSDO>  (26) 
F 32

>  <SCORE>  (26) 
-2.580

>  <name>  (26) 
25

>  <ligand_id>  (26) 
25

>  <original_smiles>  (26) 
[H]C(C(=O)N([H])C([H])(C(=O)N([H])C([H])([H])C(=O)N([H])C([H])([H])C([H])([H])C([H])([H])C([H])([H])C([H])([H])C([H])([H])N([H])C(=O)C([H])([H])C([H])([H])Oc1c([H])c([H])c2c(c1[H])C([H])([H])N(C(=O)C([H])(N([H])C(=O)C([H])(N([H])C([H])([H])[H])C([H])([H])[H])C(C([H])([H])[H])(C([H])([H])[H])C([H])([H])[H])C([H])(C(=O)N([H])C1([H])c3c([H])c([H])c([H])c([H])c3C([H])([H])C([H])([H])C1([H])[H])C2([H])[H])C([H])(C([H])([H])[H])C([H])([H])[H])=C([H])C([H])([H])N([H])C(=O)N1C([H])([H])C([H])([H])C([H])([H])C([H])(n2nc(-c3c([H])c([H])c(Oc4c([H])c([H])c(F)c([H])c4F)c([H])c3[H])c(C(=O)N([H])[H])c2N([H])[H])C1([H])[H]

>  <smiles>  (26) 
[H]C(C(=O)N([H])C([H])(C(=O)N([H])C([H])([H])C(=O)N([H])C([H])([H])C([H])([H])C([H])([H])C([H])([H])C([H])([H])C([H])([H])N([H])C(=O)C([H])([H])C([H])([H])Oc1c([H])c([H])c2c(c1[H])C([H])([H])N(C(=O)C([H])(N([H])C(=O)C([H])(N([H])C([H])([H])[H])C([H])([H])[H])C(C([H])([H])[H])(C([H])([H])[H])C([H])([H])[H])C([H])(C(=O)N([H])C1([H])c3c([H])c([H])c([H])c([H])c3C([H])([H])C([H])([H])C1([H])[H])C2([H])[H])C([H])(C([H])([H])[H])C([H])([H])[H])=C([H])C([H])([H])N([H])C(=O)N1C([H])([H])C([H])([H])C([H])([H])C([H])(n2nc(-c3c([H])c([H])c(Oc4c([H])c([H])c(F)c([H])c4F)c([H])c3[H])c(C(=O)N([H])[H])c2N([H])[H])C1([H])[H]

$$$$
26:0:0
     RDKit          3D

106109  0  0  1  0  0  0  0  0999 V2000
  -23.1150  -28.9090   24.8070 C   0  0  0  0  0  2  0  0  0  0  0  0
  -22.2820  -30.4880   25.0150 C   0  0  0  0  0  2  0  0  0  0  0  0
  -19.8430  -31.4040   23.5070 C   0  0  0  0  0  0  0  0  0  0  0  0
  -21.1760  -31.3330   24.1110 N   0  0  0  0  0  0  0  0  0  0  0  0
  -19.6050  -32.4630   22.9230 O   0  0  0  0  0  0  0  0  0  0  0  0
  -21.6730  -32.1680   23.8240 H   0  0  0  0  0  0  0  0  0  0  0  0
  -18.5180  -30.2290   23.4410 C   0  0  0  0  0  1  0  0  0  0  0  0
  -18.7690  -27.4050   24.4910 N   0  0  0  0  0  0  0  0  0  0  0  0
  -17.9870  -26.9020   24.1100 H   0  0  0  0  0  0  0  0  0  0  0  0
  -18.5750  -27.5320   25.4710 H   0  0  0  0  0  0  0  0  0  0  0  0
  -20.3440  -26.3170   24.4070 C   0  0  0  0  0  1  0  0  0  0  0  0
  -22.4510  -26.0690   24.3830 C   0  0  0  0  0 15  0  0  0  0  0  0
  -24.4100  -25.6190   23.6390 C   0  0  0  0  0 15  0  0  0  0  0  0
  -25.9400  -26.2130   22.5120 O   0  0  0  0  0  1  0  0  0  0  0  0
  -24.6900  -32.0320   22.9920 C   0  0  0  0  0  0  0  0  0  0  0  0
  -26.3330  -27.0600   21.2760 C   0  0  0  0  0  0  0  0  0  0  0  0
  -23.5130  -30.8790   20.9470 C   0  0  0  0  0  3  0  0  0  0  0  0
  -25.0300  -29.0650   19.9130 C   0  0  0  0  0  0  0  0  0  0  0  0
  -26.0520  -30.8500   21.3070 C   0  0  0  0  0  2  0  0  0  0  0  0
  -26.0300  -29.4230   20.8150 C   0  0  0  0  0  0  0  0  0  0  0  0
  -26.8120  -28.4030   21.4120 C   0  0  0  0  0  3  0  0  0  0  0  0
  -25.9480  -26.8200   19.9090 C   0  0  0  0  0  3  0  0  0  0  0  0
  -25.1040  -27.7910   19.3160 C   0  0  0  0  0  3  0  0  0  0  0  0
  -23.9040  -30.0570   19.6890 C   0  0  0  0  0  2  0  0  0  0  0  0
  -24.7450  -31.2860   21.8210 N   0  0  0  0  0  0  0  0  0  0  0  0
  -23.6160  -32.4710   23.4130 O   0  0  0  0  0  0  0  0  0  0  0  0
  -22.5090  -30.0410   21.6800 C   0  0  0  0  0  0  0  0  0  0  0  0
  -21.4020  -29.3540   21.4150 N   0  0  0  0  0  0  0  0  0  0  0  0
  -22.8840  -29.9750   22.7070 O   0  0  0  0  0  0  0  0  0  0  0  0
  -20.9730  -29.4130   20.5030 H   0  0  0  0  0  0  0  0  0  0  0  0
  -18.4060  -28.1640   22.3720 C   0  0  0  0  0  0  0  0  0  0  0  0
  -21.0190  -28.2560   22.3080 C   0  0  0  0  0  3  0  0  0  0  0  0
  -20.7450  -26.9040   21.5940 C   0  0  0  0  0  2  0  0  0  0  0  0
  -19.4690  -26.6470   20.8590 C   0  0  0  0  0  2  0  0  0  0  0  0
  -18.2260  -26.9100   21.6050 C   0  0  0  0  0  2  0  0  0  0  0  0
  -19.9720  -28.6110   23.0790 C   0  0  0  0  0  0  0  0  0  0  0  0
  -19.9310  -29.2260   24.8680 C   0  0  0  0  0  3  0  0  0  0  0  0
  -18.3360  -29.4440   25.5670 C   0  0  0  0  0  3  0  0  0  0  0  0
  -16.9530  -29.0180   24.7050 C   0  0  0  0  0  3  0  0  0  0  0  0
  -16.9990  -28.4150   23.1970 C   0  0  0  0  0  3  0  0  0  0  0  0
  -25.9630  -32.5180   23.7830 C   0  0  0  0  0  3  0  0  0  0  0  0
  -26.4820  -31.6940   25.0380 C   0  0  1  0  0  0  0  0  0  0  0  0
  -25.4410  -31.4410   26.1430 C   0  0  0  0  0  1  0  0  0  0  0  0
  -27.0830  -30.3390   24.6190 C   0  0  0  0  0  1  0  0  0  0  0  0
  -27.6430  -32.4670   25.7120 C   0  0  0  0  0  1  0  0  0  0  0  0
  -25.6580  -33.8860   24.2190 N   0  0  0  0  0  0  0  0  0  0  0  0
  -25.9280  -34.9760   23.4950 C   0  0  0  0  0  0  0  0  0  0  0  0
  -26.5630  -34.9320   22.4390 O   0  0  0  0  0  0  0  0  0  0  0  0
  -25.0850  -33.9850   25.0420 H   0  0  0  0  0  0  0  0  0  0  0  0
  -24.1510  -36.7350   23.2640 C   0  0  0  0  0  1  0  0  0  0  0  0
  -25.4180  -36.3230   24.0310 C   0  0  0  0  0  3  0  0  0  0  0  0
  -27.5620  -37.1920   24.8480 C   0  0  0  0  0  1  0  0  0  0  0  0
  -26.4280  -37.3980   23.9500 N   0  0  0  0  0  0  0  0  0  0  0  0
  -26.0120  -38.2990   24.1660 H   0  0  0  0  0  0  0  0  0  0  0  0
  -24.1080  -28.1200   23.4940 C   0  0  0  0  0  2  0  0  0  0  0  0
  -23.6880  -27.2060   21.9210 C   0  0  0  0  0  2  0  0  0  0  0  0
  -23.7170  -25.5540   21.1430 C   0  0  0  0  0  2  0  0  0  0  0  0
  -24.8730  -24.4340   21.1720 N   0  0  0  0  0  4  0  0  0  0  0  0
  -25.0560  -24.3020   22.1540 H   0  0  0  0  0  0  0  0  0  0  0  0
  -25.6980  -24.9190   20.8530 H   0  0  0  0  0  0  0  0  0  0  0  0
  -24.9380  -22.9910   20.5690 C   0  0  0  0  0  3  0  0  0  0  0  0
  -26.2470  -22.0080   20.9300 C   0  0  0  0  0  3  0  0  0  0  0  0
  -26.4680  -20.4510   20.3840 C   0  0  0  0  0  2  0  0  0  0  0  0
  -27.9680  -18.2080   20.4240 C   0  0  0  0  0  0  0  0  0  0  0  0
  -27.7200  -19.5660   20.7080 N   0  0  0  0  0  0  0  0  0  0  0  0
  -27.0850  -17.5540   19.8710 O   0  0  0  0  0  0  0  0  0  0  0  0
  -28.4870  -20.0530   21.1540 H   0  0  0  0  0  0  0  0  0  0  0  0
  -29.3490  -17.3920   20.7300 C   0  0  0  0  0  2  0  0  0  0  0  0
  -30.3750  -14.8400   20.4800 C   0  0  0  0  0  0  0  0  0  0  0  0
  -30.4390  -12.5230   19.4840 C   0  0  0  0  0  2  0  0  0  0  0  0
  -29.5130  -12.5230   18.2440 C   0  0  0  0  0  2  0  0  0  0  0  0
  -28.0360  -12.3170   18.6470 C   0  0  0  0  0  2  0  0  0  0  0  0
  -27.6210  -13.2080   19.8470 C   0  0  0  0  0  3  0  0  0  0  0  0
  -28.6450  -13.1020   20.9910 C   0  0  0  0  0  2  0  0  0  0  0  0
  -29.9200  -13.5420   20.4300 N   0  0  0  0  0  0  0  0  0  0  0  0
  -31.5580  -15.0660   20.1810 O   0  0  0  0  0  0  0  0  0  0  0  0
  -29.4010  -15.8370   20.7020 N   0  0  0  0  0  0  0  0  0  0  0  0
  -28.4910  -15.4380   20.8740 H   0  0  0  0  0  0  0  0  0  0  0  0
  -25.2400  -13.8110   20.5660 C   0  0  0  0  0  0  0  0  0  0  0  0
  -24.1720  -13.0370   20.9210 C   0  0  0  0  0  0  0  0  0  0  0  0
  -24.6300  -11.6850   20.8740 C   0  0  0  0  0  0  0  0  0  0  0  0
  -26.2760  -12.9270   20.3170 N   0  0  0  0  0  0  0  0  0  0  0  0
  -25.9190  -11.6430   20.5670 N   0  0  0  0  0  0  0  0  0  0  0  0
  -23.9010  -10.4250   21.0420 C   0  0  0  0  0  0  0  0  0  0  0  0
  -24.3580   -9.4180   21.9190 C   0  0  0  0  0  3  0  0  0  0  0  0
  -23.6270   -8.2210   22.0760 C   0  0  0  0  0  3  0  0  0  0  0  0
  -22.4260   -8.0250   21.3540 C   0  0  0  0  0  0  0  0  0  0  0  0
  -21.9880   -9.0220   20.4650 C   0  0  0  0  0  3  0  0  0  0  0  0
  -22.7190  -10.2100   20.3060 C   0  0  0  0  0  3  0  0  0  0  0  0
  -21.6620   -6.8860   21.4240 O   0  0  0  0  0  0  0  0  0  0  0  0
  -21.6840   -6.0720   22.5280 C   0  0  0  0  0  0  0  0  0  0  0  0
  -21.4010   -6.5630   23.8220 C   0  0  0  0  0  3  0  0  0  0  0  0
  -21.3660   -5.6780   24.9180 C   0  0  0  0  0  3  0  0  0  0  0  0
  -21.6040   -4.3050   24.7230 C   0  0  0  0  0  0  0  0  0  0  0  0
  -21.8820   -3.8140   23.4350 C   0  0  0  0  0  3  0  0  0  0  0  0
  -21.9190   -4.6950   22.3410 C   0  0  0  0  0  0  0  0  0  0  0  0
  -22.1660   -4.2140   21.0980 F   0  0  0  0  0  0  0  0  0  0  0  0
  -21.5630   -3.4540   25.7740 F   0  0  0  0  0  0  0  0  0  0  0  0
  -22.7760  -13.5190   21.1900 C   0  0  0  0  0  0  0  0  0  0  0  0
  -22.0420  -12.8180   22.0450 N   0  0  0  0  0  0  0  0  0  0  0  0
  -22.3460  -14.5500   20.6750 O   0  0  0  0  0  0  0  0  0  0  0  0
  -22.4040  -11.9830   22.4830 H   0  0  0  0  0  0  0  0  0  0  0  0
  -21.1050  -13.1200   22.2690 H   0  0  0  0  0  0  0  0  0  0  0  0
  -25.3980  -15.1850   20.4180 N   0  0  0  0  0  0  0  0  0  0  0  0
  -24.6120  -15.8090   20.5560 H   0  0  0  0  0  0  0  0  0  0  0  0
  -26.2150  -15.6870   20.0790 H   0  0  0  0  0  0  0  0  0  0  0  0
  1  2  1  0
  3  4  1  0
  4  2  1  0
  5  3  2  0
  6  4  1  0
  7  3  1  0
  8 10  1  0
  9  8  1  0
 11  8  1  0
 15 26  2  0
 16 21  1  0
 16 14  1  0
 17 27  1  0
 17 25  1  0
 18 20  1  0
 19 25  1  0
 20 19  1  0
 20 21  2  0
 22 16  2  0
 23 22  1  0
 23 18  2  0
 24 18  1  0
 24 17  1  0
 25 15  1  0
 27 29  2  0
 28 27  1  0
 30 28  1  0
 31 36  2  0
 31 40  1  0
 32 28  1  0
 32 36  1  0
 33 32  1  0
 34 33  1  0
 34 35  1  0
 35 31  1  0
 36 37  1  0
 37 38  2  0
 39 38  1  0
 40 39  2  0
 41 15  1  0
 41 46  1  0
 41 42  1  0
 42 45  1  1
 42 43  1  0
 44 42  1  0
 46 49  1  0
 47 51  1  0
 47 46  1  0
 48 47  2  0
 51 50  1  0
 53 51  1  0
 53 54  1  0
 53 52  1  0
 55  1  1  0
 56 55  1  0
 57 58  1  0
 57 56  1  0
 58 59  1  0
 60 58  1  0
 61 62  2  0
 61 58  1  0
 63 65  1  0
 63 62  1  0
 64 65  1  0
 64 68  1  0
 65 67  1  0
 66 64  2  0
 69 77  1  0
 70 75  1  0
 71 72  1  0
 71 70  1  0
 73 72  1  0
 73 82  1  0
 73 74  1  0
 75 69  1  0
 75 74  1  0
 76 69  2  0
 77 68  1  0
 77 78  1  0
 79 80  2  0
 80 99  1  0
 81 80  1  0
 81 84  1  0
 82 79  1  0
 82 83  1  0
 83 81  2  0
 84 85  1  0
 85 86  2  0
 87 90  1  0
 87 86  1  0
 88 87  2  0
 89 88  1  0
 89 84  2  0
 90 91  1  0
 91 92  1  0
 92 93  2  0
 94 93  1  0
 94 98  1  0
 95 94  2  0
 96 91  2  0
 96 95  1  0
 97 96  1  0
 99100  1  0
100103  1  0
100102  1  0
101 99  2  0
104105  1  0
104 79  1  0
106104  1  0
M  ISO  4  13 101  14 101  69 100  77 100
M  END
>  <TORSDO>  (27) 
F 32

>  <SCORE>  (27) 
14.420

>  <name>  (27) 
26

>  <ligand_id>  (27) 
26

>  <original_smiles>  (27) 
[H]c1c([H])c([H])c2c(c1[H])C([H])([H])C([H])([H])C([H])([H])C2([H])N([H])C(=O)C1([H])N(C(=O)C([H])(N([H])C(=O)C([H])(N([H])C([H])([H])[H])C([H])([H])[H])C(C([H])([H])[H])(C([H])([H])[H])C([H])([H])[H])C([H])([H])c2c([H])c(OC([H])([H])C([H])([H])C([H])([H])[N+]([H])([H])C([H])([H])C(=O)N([H])C([H])([H])C([H])([H])C([H])([H])C([H])([H])C([H])([H])[N+]([H])([H])C([H])([H])C([H])([H])C([H])([H])N([H])C(=O)C([H])([H])N([H])C(=O)N3C([H])([H])C([H])([H])C([H])([H])C([H])(n4nc(-c5c([H])c([H])c(Oc6c([H])c([H])c(F)c([H])c6F)c([H])c5[H])c(C(=O)N([H])[H])c4N([H])[H])C3([H])[H])c([H])c([H])c2C1([H])[H]

>  <smiles>  (27) 
[H]c1c([H])c([H])c2c(c1[H])C([H])([H])C([H])([H])C([H])([H])C2([H])N([H])C(=O)C1([H])N(C(=O)C([H])(N([H])C(=O)C([H])(N([H])C([H])([H])[H])C([H])([H])[H])C(C([H])([H])[H])(C([H])([H])[H])C([H])([H])[H])C([H])([H])c2c([H])c(OC([H])([H])C([H])([H])C([H])([H])[N+]([H])([H])C([H])([H])C(=O)N([H])C([H])([H])C([H])([H])C([H])([H])C([H])([H])C([H])([H])[N+]([H])([H])C([H])([H])C([H])([H])C([H])([H])N([H])C(=O)C([H])([H])N([H])C(=O)N3C([H])([H])C([H])([H])C([H])([H])C([H])(n4nc(-c5c([H])c([H])c(Oc6c([H])c([H])c(F)c([H])c6F)c([H])c5[H])c(C(=O)N([H])[H])c4N([H])[H])C3([H])[H])c([H])c([H])c2C1([H])[H]

$$$$
27:0:0
     RDKit          3D

106113  0  0  1  0  0  0  0  0999 V2000
  -33.3440  -25.5890   18.5980 C   0  0  0  0  0  0  0  0  0  0  0  0
  -33.8470  -26.6150   19.2950 N   0  0  0  0  0  0  0  0  0  0  0  0
  -33.6250  -25.3680   17.4180 O   0  0  0  0  0  0  0  0  0  0  0  0
  -33.5890  -26.6600   20.2700 H   0  0  0  0  0  0  0  0  0  0  0  0
  -32.3660  -24.8660   19.3870 C   0  0  0  0  0  3  0  0  0  0  0  0
  -31.5790  -23.9180   18.8430 C   0  0  0  0  0  3  0  0  0  0  0  0
  -30.5740  -23.2700   19.6580 C   0  0  0  0  0  0  0  0  0  0  0  0
  -29.8670  -22.3780   18.9560 N   0  0  0  0  0  0  0  0  0  0  0  0
  -30.3390  -23.5340   20.8400 O   0  0  0  0  0  0  0  0  0  0  0  0
  -30.1410  -22.2260   17.9910 H   0  0  0  0  0  0  0  0  0  0  0  0
  -28.6340  -21.7270   19.3990 C   0  0  0  0  0  2  0  0  0  0  0  0
  -28.8330  -20.6970   20.5270 C   0  0  0  0  0  2  0  0  0  0  0  0
  -29.7970  -19.5650   20.1550 C   0  0  0  0  0  2  0  0  0  0  0  0
  -29.9430  -18.5140   21.2630 C   0  0  0  0  0  2  0  0  0  0  0  0
  -30.9450  -17.4340   20.8420 C   0  0  0  0  0  2  0  0  0  0  0  0
  -31.0690  -16.2440   21.8150 C   0  0  0  0  0  2  0  0  0  0  0  0
  -30.7680  -14.2970   20.2780 C   0  0  0  0  0  0  0  0  0  0  0  0
  -30.3260  -12.2490   18.9740 C   0  0  0  0  0  2  0  0  0  0  0  0
  -29.3450  -12.5110   17.8170 C   0  0  0  0  0  2  0  0  0  0  0  0
  -27.8850  -12.3920   18.2940 C   0  0  0  0  0  2  0  0  0  0  0  0
  -27.6150  -13.2080   19.5870 C   0  0  0  0  0  3  0  0  0  0  0  0
  -28.6930  -12.9150   20.6520 C   0  0  0  0  0  2  0  0  0  0  0  0
  -30.0160  -13.1860   20.0640 N   0  0  0  0  0  0  0  0  0  0  0  0
  -31.7590  -14.5860   19.5990 O   0  0  0  0  0  0  0  0  0  0  0  0
  -30.3860  -15.0470   21.3240 N   0  0  0  0  0  0  0  0  0  0  0  0
  -29.5900  -14.7150   21.8500 H   0  0  0  0  0  0  0  0  0  0  0  0
  -25.2460  -13.8590   20.3530 C   0  0  0  0  0  0  0  0  0  0  0  0
  -24.1740  -13.1040   20.7550 C   0  0  0  0  0  0  0  0  0  0  0  0
  -24.6150  -11.7480   20.7210 C   0  0  0  0  0  0  0  0  0  0  0  0
  -26.2680  -12.9600   20.0970 N   0  0  0  0  0  0  0  0  0  0  0  0
  -25.8930  -11.6850   20.3740 N   0  0  0  0  0  0  0  0  0  0  0  0
  -23.8760  -10.4960   20.9390 C   0  0  0  0  0  0  0  0  0  0  0  0
  -24.3210   -9.5280   21.8670 C   0  0  0  0  0  3  0  0  0  0  0  0
  -23.5830   -8.3420   22.0730 C   0  0  0  0  0  3  0  0  0  0  0  0
  -22.3870   -8.1160   21.3510 C   0  0  0  0  0  0  0  0  0  0  0  0
  -21.9620   -9.0710   20.4120 C   0  0  0  0  0  3  0  0  0  0  0  0
  -22.6990  -10.2490   20.2050 C   0  0  0  0  0  3  0  0  0  0  0  0
  -21.6210   -6.9810   21.4660 O   0  0  0  0  0  0  0  0  0  0  0  0
  -21.5930   -6.2460   22.6240 C   0  0  0  0  0  0  0  0  0  0  0  0
  -21.2190   -6.8160   23.8600 C   0  0  0  0  0  3  0  0  0  0  0  0
  -21.1360   -6.0090   25.0110 C   0  0  0  0  0  3  0  0  0  0  0  0
  -21.4160   -4.6320   24.9280 C   0  0  0  0  0  0  0  0  0  0  0  0
  -21.7840   -4.0610   23.6970 C   0  0  0  0  0  3  0  0  0  0  0  0
  -21.8680   -4.8660   22.5470 C   0  0  0  0  0  0  0  0  0  0  0  0
  -22.2010   -4.3070   21.3590 F   0  0  0  0  0  0  0  0  0  0  0  0
  -21.3290   -3.8530   26.0320 F   0  0  0  0  0  0  0  0  0  0  0  0
  -22.7950  -13.6050   21.0690 C   0  0  0  0  0  0  0  0  0  0  0  0
  -22.0830  -12.9230   21.9620 N   0  0  0  0  0  0  0  0  0  0  0  0
  -22.3560  -14.6340   20.5580 O   0  0  0  0  0  0  0  0  0  0  0  0
  -22.4540  -12.0900   22.3970 H   0  0  0  0  0  0  0  0  0  0  0  0
  -21.1580  -13.2410   22.2140 H   0  0  0  0  0  0  0  0  0  0  0  0
  -25.4240  -15.2250   20.1620 N   0  0  0  0  0  0  0  0  0  0  0  0
  -24.6760  -15.8960   20.2950 H   0  0  0  0  0  0  0  0  0  0  0  0
  -26.2810  -15.6490   19.8290 H   0  0  0  0  0  0  0  0  0  0  0  0
  -34.5320  -27.7900   18.7580 C   0  0  0  0  0  2  0  0  0  0  0  0
  -33.5320  -28.9240   18.4380 C   0  0  0  0  0  2  0  0  0  0  0  0
  -32.5850  -28.5630   17.2820 C   0  0  0  0  0  3  0  0  0  0  0  0
  -31.4960  -29.6020   16.9730 C   0  0  0  0  0  3  0  0  0  0  0  0
  -30.5530  -29.2480   15.7940 C   0  0  0  0  0  2  0  0  0  0  0  0
  -30.2770  -27.7470   15.5910 C   0  0  0  0  0  0  0  0  0  0  0  0
  -29.2830  -27.1420   16.2580 N   0  0  0  0  0  0  0  0  0  0  0  0
  -30.9620  -27.1070   14.7970 O   0  0  0  0  0  0  0  0  0  0  0  0
  -29.1420  -26.1680   16.0310 H   0  0  0  0  0  0  0  0  0  0  0  0
  -28.5850  -27.6110   17.4580 C   0  0  0  0  0  2  0  0  0  0  0  0
  -29.2060  -26.9350   18.7160 C   0  0  0  0  0  2  0  0  0  0  0  0
  -28.4540  -26.8020   19.9360 O   0  0  0  0  0  0  0  0  0  0  0  0
  -24.6090  -31.8600   23.2210 C   0  0  0  0  0  0  0  0  0  0  0  0
  -27.2780  -27.4930   20.0400 C   0  0  0  0  0  0  0  0  0  0  0  0
  -23.4050  -30.4430   21.5960 C   0  0  0  0  0  3  0  0  0  0  0  0
  -24.8540  -28.9190   20.1570 C   0  0  0  0  0  0  0  0  0  0  0  0
  -25.9190  -30.8300   21.3670 C   0  0  0  0  0  2  0  0  0  0  0  0
  -26.0140  -29.4650   20.7210 C   0  0  0  0  0  0  0  0  0  0  0  0
  -27.2360  -28.7560   20.6650 C   0  0  0  0  0  3  0  0  0  0  0  0
  -26.0930  -26.9270   19.5330 C   0  0  0  0  0  3  0  0  0  0  0  0
  -24.8830  -27.6420   19.5730 C   0  0  0  0  0  3  0  0  0  0  0  0
  -23.5980  -29.7540   20.2200 C   0  0  0  0  0  2  0  0  0  0  0  0
  -24.6650  -31.0530   22.1240 N   0  0  0  0  0  0  0  0  0  0  0  0
  -23.5270  -32.1290   23.7630 O   0  0  0  0  0  0  0  0  0  0  0  0
  -22.7580  -29.4320   22.5640 C   0  0  0  0  0  0  0  0  0  0  0  0
  -21.4330  -29.2520   22.4430 N   0  0  0  0  0  0  0  0  0  0  0  0
  -23.4490  -28.7970   23.3670 O   0  0  0  0  0  0  0  0  0  0  0  0
  -20.9410  -29.8080   21.7610 H   0  0  0  0  0  0  0  0  0  0  0  0
  -18.0640  -28.0760   22.9660 C   0  0  0  0  0  0  0  0  0  0  0  0
  -20.6230  -28.3160   23.2160 C   0  0  0  0  0  3  0  0  0  0  0  0
  -20.7120  -26.8880   22.6290 C   0  0  0  0  0  2  0  0  0  0  0  0
  -19.5990  -26.5730   21.6250 C   0  0  0  0  0  2  0  0  0  0  0  0
  -18.2280  -26.7280   22.2860 C   0  0  0  0  0  2  0  0  0  0  0  0
  -19.1900  -28.8310   23.3870 C   0  0  0  0  0  0  0  0  0  0  0  0
  -18.9860  -30.0960   23.9790 C   0  0  0  0  0  3  0  0  0  0  0  0
  -17.6860  -30.6030   24.1610 C   0  0  0  0  0  3  0  0  0  0  0  0
  -16.5750  -29.8430   23.7590 C   0  0  0  0  0  3  0  0  0  0  0  0
  -16.7630  -28.5830   23.1660 C   0  0  0  0  0  3  0  0  0  0  0  0
  -25.8930  -32.5050   23.8260 C   0  0  0  0  0  3  0  0  0  0  0  0
  -25.5730  -33.8980   24.1700 N   0  0  0  0  0  0  0  0  0  0  0  0
  -25.8950  -34.9610   23.4180 C   0  0  0  0  0  0  0  0  0  0  0  0
  -26.5660  -34.8720   22.3860 O   0  0  0  0  0  0  0  0  0  0  0  0
  -24.9580  -34.0410   24.9590 H   0  0  0  0  0  0  0  0  0  0  0  0
  -24.1530  -36.7520   23.0940 C   0  0  0  0  0  1  0  0  0  0  0  0
  -25.4020  -36.3420   23.8910 C   0  0  0  0  0  3  0  0  0  0  0  0
  -27.5360  -37.2340   24.7150 C   0  0  0  0  0  1  0  0  0  0  0  0
  -26.4260  -37.4010   23.7820 N   0  0  0  0  0  0  0  0  0  0  0  0
  -26.0150  -38.3150   23.9520 H   0  0  0  0  0  0  0  0  0  0  0  0
  -26.4320  -31.7250   25.0840 C   0  0  1  0  0  0  0  0  0  0  0  0
  -25.3620  -31.4620   26.1730 C   0  0  0  0  0  1  0  0  0  0  0  0
  -27.0200  -30.3580   24.6600 C   0  0  0  0  0  1  0  0  0  0  0  0
  -27.5860  -32.5240   25.7340 C   0  0  0  0  0  1  0  0  0  0  0  0
  1  2  1  0
  1  5  1  0
  2  4  1  0
  3  1  2  0
  6  5  2  0
  6  7  1  0
  7  9  2  0
  8 11  1  0
  8  7  1  0
 10  8  1  0
 11 12  1  0
 13 12  1  0
 13 14  1  0
 15 14  1  0
 15 16  1  0
 17 25  1  0
 18 23  1  0
 19 20  1  0
 19 18  1  0
 21 20  1  0
 21 30  1  0
 21 22  1  0
 23 17  1  0
 23 22  1  0
 24 17  2  0
 25 16  1  0
 25 26  1  0
 27 28  2  0
 28 47  1  0
 29 28  1  0
 29 32  1  0
 30 27  1  0
 30 31  1  0
 31 29  2  0
 32 33  1  0
 33 34  2  0
 35 38  1  0
 35 34  1  0
 36 35  2  0
 37 36  1  0
 37 32  2  0
 38 39  1  0
 39 40  1  0
 40 41  2  0
 42 41  1  0
 42 46  1  0
 43 42  2  0
 44 39  2  0
 44 43  1  0
 45 44  1  0
 47 48  1  0
 48 51  1  0
 48 50  1  0
 49 47  2  0
 52 53  1  0
 52 27  1  0
 54 52  1  0
 55  2  1  0
 56 55  1  0
 57 56  1  0
 58 57  2  0
 59 58  1  0
 60 59  1  0
 60 61  1  0
 61 64  1  0
 62 60  2  0
 63 61  1  0
 64 65  1  0
 65 66  1  0
 66 68  1  0
 67 78  2  0
 68 73  1  0
 69 77  1  0
 69 79  1  0
 70 76  1  0
 70 72  1  0
 71 77  1  0
 72 71  1  0
 73 72  2  0
 74 75  1  0
 74 68  2  0
 75 70  2  0
 76 69  1  0
 77 67  1  0
 79 81  2  0
 80 79  1  0
 82 80  1  0
 83 92  2  0
 83 88  1  0
 84 80  1  0
 84 88  1  0
 85 84  1  0
 86 87  1  0
 86 85  1  0
 87 83  1  0
 88 89  2  0
 89 90  1  0
 91 90  2  0
 92 91  1  0
 93 67  1  0
 93 94  1  0
 93103  1  0
 94 97  1  0
 95 99  1  0
 95 94  1  0
 96 95  2  0
 99 98  1  0
101 99  1  0
101102  1  0
101100  1  0
103106  1  1
103104  1  0
105103  1  0
M  ISO  4  17 100  25 100  65 101  66 101
M  END
>  <TORSDO>  (28) 
F 32

>  <SCORE>  (28) 
-10.632

>  <name>  (28) 
27

>  <ligand_id>  (28) 
27

>  <original_smiles>  (28) 
[H]C(C(=O)N([H])C([H])([H])C([H])([H])C([H])([H])C([H])([H])C([H])([H])C(=O)N([H])C([H])([H])C([H])([H])Oc1c([H])c([H])c2c(c1[H])C([H])([H])N(C(=O)C([H])(N([H])C(=O)C([H])(N([H])C([H])([H])[H])C([H])([H])[H])C(C([H])([H])[H])(C([H])([H])[H])C([H])([H])[H])C([H])(C(=O)N([H])C1([H])c3c([H])c([H])c([H])c([H])c3C([H])([H])C([H])([H])C1([H])[H])C2([H])[H])=C([H])C(=O)N([H])C([H])([H])C([H])([H])C([H])([H])C([H])([H])C([H])([H])C([H])([H])N([H])C(=O)N1C([H])([H])C([H])([H])C([H])([H])C([H])(n2nc(-c3c([H])c([H])c(Oc4c([H])c([H])c(F)c([H])c4F)c([H])c3[H])c(C(=O)N([H])[H])c2N([H])[H])C1([H])[H]

>  <smiles>  (28) 
[H]C(C(=O)N([H])C([H])([H])C([H])([H])C([H])([H])C([H])([H])C([H])([H])C(=O)N([H])C([H])([H])C([H])([H])Oc1c([H])c([H])c2c(c1[H])C([H])([H])N(C(=O)C([H])(N([H])C(=O)C([H])(N([H])C([H])([H])[H])C([H])([H])[H])C(C([H])([H])[H])(C([H])([H])[H])C([H])([H])[H])C([H])(C(=O)N([H])C1([H])c3c([H])c([H])c([H])c([H])c3C([H])([H])C([H])([H])C1([H])[H])C2([H])[H])=C([H])C(=O)N([H])C([H])([H])C([H])([H])C([H])([H])C([H])([H])C([H])([H])C([H])([H])N([H])C(=O)N1C([H])([H])C([H])([H])C([H])([H])C([H])(n2nc(-c3c([H])c([H])c(Oc4c([H])c([H])c(F)c([H])c4F)c([H])c3[H])c(C(=O)N([H])[H])c2N([H])[H])C1([H])[H]

$$$$
28:0:0
     RDKit          3D

107114  0  0  1  0  0  0  0  0999 V2000
  -19.9320  -21.0150   23.9220 C   0  0  0  0  0  0  0  0  0  0  0  0
  -18.7050  -21.0670   24.4480 N   0  0  0  0  0  0  0  0  0  0  0  0
  -20.4430  -19.9680   23.5210 O   0  0  0  0  0  0  0  0  0  0  0  0
  -18.3460  -21.9710   24.7250 H   0  0  0  0  0  0  0  0  0  0  0  0
  -17.8920  -19.8990   24.7610 C   0  0  0  0  0  2  0  0  0  0  0  0
  -18.5140  -19.0870   25.9160 C   0  0  0  0  0  2  0  0  0  0  0  0
  -18.7310  -17.6050   25.5690 C   0  0  0  0  0  2  0  0  0  0  0  0
  -19.6170  -16.8610   26.5870 C   0  0  0  0  0  2  0  0  0  0  0  0
  -21.1180  -17.1000   26.4010 C   0  0  0  0  0  0  0  0  0  0  0  0
  -21.7130  -16.4460   25.3980 N   0  0  0  0  0  0  0  0  0  0  0  0
  -21.7300  -17.8280   27.1840 O   0  0  0  0  0  0  0  0  0  0  0  0
  -21.1180  -15.8790   24.8080 H   0  0  0  0  0  0  0  0  0  0  0  0
  -23.1540  -16.3380   25.1770 C   0  0  0  0  0  2  0  0  0  0  0  0
  -23.5420  -16.3860   23.6810 C   0  0  0  0  0  2  0  0  0  0  0  0
  -24.9080  -15.7110   23.4800 C   0  0  0  0  0  2  0  0  0  0  0  0
  -25.7650  -16.1790   22.2830 C   0  0  0  0  0  2  0  0  0  0  0  0
  -26.9810  -15.2450   22.2080 C   0  0  0  0  0  2  0  0  0  0  0  0
  -28.2870  -15.6990   21.5250 C   0  0  0  0  0  2  0  0  0  0  0  0
  -29.2980  -13.9310   20.0880 C   0  0  0  0  0  0  0  0  0  0  0  0
  -29.2440  -11.7740   18.8830 C   0  0  0  0  0  2  0  0  0  0  0  0
  -28.1360  -11.7570   17.8130 C   0  0  0  0  0  2  0  0  0  0  0  0
  -26.7690  -11.3770   18.4150 C   0  0  0  0  0  2  0  0  0  0  0  0
  -26.4300  -12.2060   19.6790 C   0  0  0  0  0  3  0  0  0  0  0  0
  -27.6230  -12.1510   20.6560 C   0  0  0  0  0  2  0  0  0  0  0  0
  -28.8320  -12.6640   19.9740 N   0  0  0  0  0  0  0  0  0  0  0  0
  -30.0130  -14.4970   19.2530 O   0  0  0  0  0  0  0  0  0  0  0  0
  -29.0220  -14.4640   21.2790 N   0  0  0  0  0  0  0  0  0  0  0  0
  -28.8050  -13.7520   21.9620 H   0  0  0  0  0  0  0  0  0  0  0  0
  -24.0630  -12.4680   20.6830 C   0  0  0  0  0  0  0  0  0  0  0  0
  -23.1680  -11.5470   21.1640 C   0  0  0  0  0  0  0  0  0  0  0  0
  -23.8080  -10.2780   21.0410 C   0  0  0  0  0  0  0  0  0  0  0  0
  -25.1900  -11.7470   20.3080 N   0  0  0  0  0  0  0  0  0  0  0  0
  -25.0400  -10.4240   20.5690 N   0  0  0  0  0  0  0  0  0  0  0  0
  -23.2970   -8.9230   21.2860 C   0  0  0  0  0  0  0  0  0  0  0  0
  -23.8620   -8.0920   22.2780 C   0  0  0  0  0  3  0  0  0  0  0  0
  -23.3470   -6.7970   22.5070 C   0  0  0  0  0  3  0  0  0  0  0  0
  -22.2550   -6.3240   21.7430 C   0  0  0  0  0  0  0  0  0  0  0  0
  -21.7100   -7.1470   20.7390 C   0  0  0  0  0  3  0  0  0  0  0  0
  -22.2270   -8.4330   20.5100 C   0  0  0  0  0  3  0  0  0  0  0  0
  -21.6990   -5.0760   21.8820 O   0  0  0  0  0  0  0  0  0  0  0  0
  -21.5900   -4.4680   23.1090 C   0  0  0  0  0  0  0  0  0  0  0  0
  -20.8200   -5.0260   24.1520 C   0  0  0  0  0  3  0  0  0  0  0  0
  -20.6790   -4.3340   25.3720 C   0  0  0  0  0  3  0  0  0  0  0  0
  -21.2980   -3.0820   25.5440 C   0  0  0  0  0  0  0  0  0  0  0  0
  -22.0590   -2.5200   24.5050 C   0  0  0  0  0  3  0  0  0  0  0  0
  -22.2010   -3.2120   23.2890 C   0  0  0  0  0  0  0  0  0  0  0  0
  -22.9190   -2.6570   22.2810 F   0  0  0  0  0  0  0  0  0  0  0  0
  -21.1540   -2.4130   26.7130 F   0  0  0  0  0  0  0  0  0  0  0  0
  -21.7640  -11.8160   21.6260 C   0  0  0  0  0  0  0  0  0  0  0  0
  -21.2440  -10.9850   22.5250 N   0  0  0  0  0  0  0  0  0  0  0  0
  -21.1330  -12.7920   21.2250 O   0  0  0  0  0  0  0  0  0  0  0  0
  -21.7670  -10.1970   22.8730 H   0  0  0  0  0  0  0  0  0  0  0  0
  -20.3060  -11.1460   22.8690 H   0  0  0  0  0  0  0  0  0  0  0  0
  -24.0070  -13.8470   20.5200 N   0  0  0  0  0  0  0  0  0  0  0  0
  -23.1780  -14.3890   20.7410 H   0  0  0  0  0  0  0  0  0  0  0  0
  -24.7600  -14.4100   20.1470 H   0  0  0  0  0  0  0  0  0  0  0  0
  -20.7010  -22.3350   23.8770 C   0  0  0  0  0  2  0  0  0  0  0  0
  -22.1520  -22.1780   23.3890 C   0  0  0  0  0  2  0  0  0  0  0  0
  -22.8110  -23.5350   23.1100 C   0  0  0  0  0  2  0  0  0  0  0  0
  -23.9630  -23.4380   22.1000 C   0  0  0  0  0  2  0  0  0  0  0  0
  -24.7990  -24.7260   22.0710 C   0  0  0  0  0  2  0  0  0  0  0  0
  -26.9960  -25.1210   20.9650 C   0  0  0  0  0  0  0  0  0  0  0  0
  -25.7130  -24.7370   20.9360 N   0  0  0  0  0  0  0  0  0  0  0  0
  -27.6340  -25.2700   22.0100 O   0  0  0  0  0  0  0  0  0  0  0  0
  -25.2930  -24.6440   20.0210 H   0  0  0  0  0  0  0  0  0  0  0  0
  -27.6220  -25.4890   19.6100 C   0  0  0  0  0  2  0  0  0  0  0  0
  -27.7110  -26.9160   19.5100 O   0  0  0  0  0  0  0  0  0  0  0  0
  -24.5710  -31.9280   23.4550 C   0  0  0  0  0  0  0  0  0  0  0  0
  -26.5710  -27.6720   19.7010 C   0  0  0  0  0  0  0  0  0  0  0  0
  -23.1150  -30.7940   21.8070 C   0  0  0  0  0  3  0  0  0  0  0  0
  -24.3040  -29.3100   20.1130 C   0  0  0  0  0  0  0  0  0  0  0  0
  -25.6320  -30.9900   21.4040 C   0  0  0  0  0  2  0  0  0  0  0  0
  -25.5470  -29.6920   20.6310 C   0  0  0  0  0  0  0  0  0  0  0  0
  -26.6800  -28.8790   20.4250 C   0  0  0  0  0  3  0  0  0  0  0  0
  -25.3060  -27.3020   19.1840 C   0  0  0  0  0  3  0  0  0  0  0  0
  -24.1750  -28.1100   19.3970 C   0  0  0  0  0  3  0  0  0  0  0  0
  -23.1460  -30.2490   20.3530 C   0  0  0  0  0  2  0  0  0  0  0  0
  -24.4640  -31.2420   22.2800 N   0  0  0  0  0  0  0  0  0  0  0  0
  -23.5670  -32.2170   24.1200 O   0  0  0  0  0  0  0  0  0  0  0  0
  -22.4680  -29.7280   22.7190 C   0  0  0  0  0  0  0  0  0  0  0  0
  -21.1500  -29.5210   22.5590 N   0  0  0  0  0  0  0  0  0  0  0  0
  -23.1500  -29.0910   23.5260 O   0  0  0  0  0  0  0  0  0  0  0  0
  -20.6580  -30.0950   21.8890 H   0  0  0  0  0  0  0  0  0  0  0  0
  -17.8240  -28.1390   22.8430 C   0  0  0  0  0  0  0  0  0  0  0  0
  -20.3400  -28.5430   23.2830 C   0  0  0  0  0  3  0  0  0  0  0  0
  -20.5630  -27.1180   22.7250 C   0  0  0  0  0  2  0  0  0  0  0  0
  -19.5490  -26.7230   21.6460 C   0  0  0  0  0  2  0  0  0  0  0  0
  -18.1200  -26.7980   22.1950 C   0  0  0  0  0  2  0  0  0  0  0  0
  -18.8680  -28.9650   23.3390 C   0  0  0  0  0  0  0  0  0  0  0  0
  -18.5410  -30.2200   23.8990 C   0  0  0  0  0  3  0  0  0  0  0  0
  -17.2020  -30.6500   23.9700 C   0  0  0  0  0  3  0  0  0  0  0  0
  -16.1710  -29.8220   23.4910 C   0  0  0  0  0  3  0  0  0  0  0  0
  -16.4830  -28.5690   22.9340 C   0  0  0  0  0  3  0  0  0  0  0  0
  -25.9550  -32.3960   24.0040 C   0  0  0  0  0  3  0  0  0  0  0  0
  -26.4970  -31.4930   25.1780 C   0  0  1  0  0  0  0  0  0  0  0  0
  -25.4560  -31.2230   26.2890 C   0  0  0  0  0  1  0  0  0  0  0  0
  -26.9750  -30.1250   24.6370 C   0  0  0  0  0  1  0  0  0  0  0  0
  -27.7240  -32.1660   25.8340 C   0  0  0  0  0  1  0  0  0  0  0  0
  -25.8090  -33.7890   24.4460 N   0  0  0  0  0  0  0  0  0  0  0  0
  -26.1940  -34.8580   23.7340 C   0  0  0  0  0  0  0  0  0  0  0  0
  -26.7860  -34.7660   22.6560 O   0  0  0  0  0  0  0  0  0  0  0  0
  -25.2920  -33.9410   25.3010 H   0  0  0  0  0  0  0  0  0  0  0  0
  -24.6430  -36.8350   23.5940 C   0  0  0  0  0  1  0  0  0  0  0  0
  -25.8720  -36.2520   24.3120 C   0  0  0  0  0  3  0  0  0  0  0  0
  -28.1270  -36.8500   25.0820 C   0  0  0  0  0  1  0  0  0  0  0  0
  -27.0010  -37.2030   24.2210 N   0  0  0  0  0  0  0  0  0  0  0  0
  -26.6990  -38.1400   24.4660 H   0  0  0  0  0  0  0  0  0  0  0  0
  1  2  1  0
  2  4  1  0
  2  5  1  0
  3  1  2  0
  5  6  1  0
  7  6  1  0
  7  8  1  0
  9  8  1  0
  9 11  2  0
 10  9  1  0
 12 10  1  0
 13 10  1  0
 14 13  1  0
 15 14  1  0
 16 15  1  0
 17 16  1  0
 18 17  1  0
 19 27  1  0
 20 25  1  0
 21 22  1  0
 21 20  1  0
 23 22  1  0
 23 32  1  0
 23 24  1  0
 25 19  1  0
 25 24  1  0
 26 19  2  0
 27 18  1  0
 27 28  1  0
 29 30  2  0
 30 49  1  0
 31 30  1  0
 31 34  1  0
 32 33  1  0
 32 29  1  0
 33 31  2  0
 34 35  1  0
 35 36  2  0
 37 40  1  0
 37 36  1  0
 38 37  2  0
 39 38  1  0
 39 34  2  0
 40 41  1  0
 41 46  2  0
 41 42  1  0
 42 43  2  0
 43 44  1  0
 44 48  1  0
 45 44  2  0
 46 45  1  0
 47 46  1  0
 49 50  1  0
 50 53  1  0
 50 52  1  0
 51 49  2  0
 54 29  1  0
 54 55  1  0
 56 54  1  0
 57  1  1  0
 58 57  1  0
 59 58  1  0
 60 59  1  0
 61 60  1  0
 62 64  2  0
 63 62  1  0
 63 61  1  0
 65 63  1  0
 66 62  1  0
 67 66  1  0
 67 69  1  0
 68 79  2  0
 69 74  1  0
 70 78  1  0
 70 80  1  0
 71 77  1  0
 71 73  1  0
 72 78  1  0
 73 72  1  0
 74 73  2  0
 75 76  1  0
 75 69  2  0
 76 71  2  0
 77 70  1  0
 78 68  1  0
 80 82  2  0
 81 80  1  0
 83 81  1  0
 84 93  2  0
 84 89  1  0
 85 81  1  0
 85 89  1  0
 86 85  1  0
 87 88  1  0
 87 86  1  0
 88 84  1  0
 89 90  2  0
 90 91  1  0
 92 91  2  0
 93 92  1  0
 94 68  1  0
 94 99  1  0
 94 95  1  0
 95 98  1  1
 95 96  1  0
 97 95  1  0
 99102  1  0
100104  1  0
100 99  1  0
101100  2  0
104103  1  0
106104  1  0
106107  1  0
106105  1  0
M  ISO  4  19 100  27 100  66 101  67 101
M  END
>  <TORSDO>  (29) 
F 34

>  <SCORE>  (29) 
37.704

>  <name>  (29) 
28

>  <ligand_id>  (29) 
28

>  <original_smiles>  (29) 
[H]c1c([H])c([H])c2c(c1[H])C([H])([H])C([H])([H])C([H])([H])C2([H])N([H])C(=O)C1([H])N(C(=O)C([H])(N([H])C(=O)C([H])(N([H])C([H])([H])[H])C([H])([H])[H])C(C([H])([H])[H])(C([H])([H])[H])C([H])([H])[H])C([H])([H])c2c([H])c(OC([H])([H])C(=O)N([H])C([H])([H])C([H])([H])C([H])([H])C([H])([H])C([H])([H])C(=O)N([H])C([H])([H])C([H])([H])C([H])([H])C([H])([H])C(=O)N([H])C([H])([H])C([H])([H])C([H])([H])C([H])([H])C([H])([H])C([H])([H])N([H])C(=O)N3C([H])([H])C([H])([H])C([H])([H])C([H])(n4nc(-c5c([H])c([H])c(Oc6c([H])c([H])c(F)c([H])c6F)c([H])c5[H])c(C(=O)N([H])[H])c4N([H])[H])C3([H])[H])c([H])c([H])c2C1([H])[H]

>  <smiles>  (29) 
[H]c1c([H])c([H])c2c(c1[H])C([H])([H])C([H])([H])C([H])([H])C2([H])N([H])C(=O)C1([H])N(C(=O)C([H])(N([H])C(=O)C([H])(N([H])C([H])([H])[H])C([H])([H])[H])C(C([H])([H])[H])(C([H])([H])[H])C([H])([H])[H])C([H])([H])c2c([H])c(OC([H])([H])C(=O)N([H])C([H])([H])C([H])([H])C([H])([H])C([H])([H])C([H])([H])C(=O)N([H])C([H])([H])C([H])([H])C([H])([H])C([H])([H])C(=O)N([H])C([H])([H])C([H])([H])C([H])([H])C([H])([H])C([H])([H])C([H])([H])N([H])C(=O)N3C([H])([H])C([H])([H])C([H])([H])C([H])(n4nc(-c5c([H])c([H])c(Oc6c([H])c([H])c(F)c([H])c6F)c([H])c5[H])c(C(=O)N([H])[H])c4N([H])[H])C3([H])[H])c([H])c([H])c2C1([H])[H]

$$$$
29:0:0
     RDKit          3D

103110  0  0  1  0  0  0  0  0999 V2000
  -25.2480  -22.0150   28.2090 N   0  0  0  0  0  4  0  0  0  0  0  0
  -26.0400  -22.4330   28.6690 H   0  0  0  0  0  0  0  0  0  0  0  0
  -24.5970  -21.7590   28.9350 H   0  0  0  0  0  0  0  0  0  0  0  0
  -24.5810  -23.0070   27.3390 C   0  0  0  0  0  2  0  0  0  0  0  0
  -25.5740  -23.7840   26.4420 C   0  0  0  0  0  2  0  0  0  0  0  0
  -24.8740  -24.5080   25.2750 C   0  0  0  0  0  2  0  0  0  0  0  0
  -25.6650  -25.6870   24.6680 C   0  0  0  0  0  2  0  0  0  0  0  0
  -26.8410  -25.2890   23.8590 N   0  0  0  0  0  4  0  0  0  0  0  0
  -26.5290  -24.7040   23.0990 H   0  0  0  0  0  0  0  0  0  0  0  0
  -27.4730  -24.7490   24.4290 H   0  0  0  0  0  0  0  0  0  0  0  0
  -27.5750  -26.4570   23.3140 C   0  0  0  0  0  2  0  0  0  0  0  0
  -28.7700  -26.0690   22.4130 C   0  0  0  0  0  2  0  0  0  0  0  0
  -28.4190  -25.6420   20.9710 C   0  0  0  0  0  2  0  0  0  0  0  0
  -28.3970  -26.7620   20.0850 O   0  0  0  0  0  0  0  0  0  0  0  0
  -24.6100  -31.8710   23.2130 C   0  0  0  0  0  0  0  0  0  0  0  0
  -27.2330  -27.4790   20.0950 C   0  0  0  0  0  0  0  0  0  0  0  0
  -23.3960  -30.4930   21.5550 C   0  0  0  0  0  3  0  0  0  0  0  0
  -24.8410  -28.9640   20.1200 C   0  0  0  0  0  0  0  0  0  0  0  0
  -25.9170  -30.8560   21.3530 C   0  0  0  0  0  2  0  0  0  0  0  0
  -26.0000  -29.4920   20.7030 C   0  0  0  0  0  0  0  0  0  0  0  0
  -27.2050  -28.7620   20.6770 C   0  0  0  0  0  3  0  0  0  0  0  0
  -26.0620  -26.9470   19.5160 C   0  0  0  0  0  3  0  0  0  0  0  0
  -24.8660  -27.6900   19.5240 C   0  0  0  0  0  3  0  0  0  0  0  0
  -23.6020  -29.8260   20.1700 C   0  0  0  0  0  2  0  0  0  0  0  0
  -24.6600  -31.0860   22.1010 N   0  0  0  0  0  0  0  0  0  0  0  0
  -23.5310  -32.1390   23.7570 O   0  0  0  0  0  0  0  0  0  0  0  0
  -22.7420  -29.4640   22.5040 C   0  0  0  0  0  0  0  0  0  0  0  0
  -21.4150  -29.2980   22.3780 N   0  0  0  0  0  0  0  0  0  0  0  0
  -23.4250  -28.8160   23.3030 O   0  0  0  0  0  0  0  0  0  0  0  0
  -20.9280  -29.8750   21.7070 H   0  0  0  0  0  0  0  0  0  0  0  0
  -18.0290  -28.1350   22.8520 C   0  0  0  0  0  0  0  0  0  0  0  0
  -20.5880  -28.3600   23.1360 C   0  0  0  0  0  3  0  0  0  0  0  0
  -20.6780  -26.9350   22.5430 C   0  0  0  0  0  2  0  0  0  0  0  0
  -19.5760  -26.6380   21.5210 C   0  0  0  0  0  2  0  0  0  0  0  0
  -18.1940  -26.7920   22.1620 C   0  0  0  0  0  2  0  0  0  0  0  0
  -19.1540  -28.8800   23.2940 C   0  0  0  0  0  0  0  0  0  0  0  0
  -18.9460  -30.1410   23.8930 C   0  0  0  0  0  3  0  0  0  0  0  0
  -17.6460  -30.6560   24.0550 C   0  0  0  0  0  3  0  0  0  0  0  0
  -16.5350  -29.9050   23.6330 C   0  0  0  0  0  3  0  0  0  0  0  0
  -16.7280  -28.6460   23.0360 C   0  0  0  0  0  3  0  0  0  0  0  0
  -25.9000  -32.4840   23.8400 C   0  0  0  0  0  3  0  0  0  0  0  0
  -25.5870  -33.8640   24.2350 N   0  0  0  0  0  0  0  0  0  0  0  0
  -25.9020  -34.9480   23.5150 C   0  0  0  0  0  0  0  0  0  0  0  0
  -26.5580  -34.8920   22.4710 O   0  0  0  0  0  0  0  0  0  0  0  0
  -25.0100  -33.9820   25.0550 H   0  0  0  0  0  0  0  0  0  0  0  0
  -24.1490  -36.7320   23.2640 C   0  0  0  0  0  1  0  0  0  0  0  0
  -25.4110  -36.3130   24.0350 C   0  0  0  0  0  3  0  0  0  0  0  0
  -27.5590  -37.1820   24.8470 C   0  0  0  0  0  1  0  0  0  0  0  0
  -26.4300  -37.3810   23.9420 N   0  0  0  0  0  0  0  0  0  0  0  0
  -26.0210  -38.2900   24.1410 H   0  0  0  0  0  0  0  0  0  0  0  0
  -26.4460  -31.6570   25.0690 C   0  0  1  0  0  0  0  0  0  0  0  0
  -25.3780  -31.3630   26.1480 C   0  0  0  0  0  1  0  0  0  0  0  0
  -27.0240  -30.3010   24.5970 C   0  0  0  0  0  1  0  0  0  0  0  0
  -27.6060  -32.4260   25.7450 C   0  0  0  0  0  1  0  0  0  0  0  0
  -25.6400  -20.7660   27.5230 C   0  0  0  0  0  2  0  0  0  0  0  0
  -27.1200  -20.4060   27.7420 C   0  0  0  0  0  2  0  0  0  0  0  0
  -27.4660  -19.0720   27.0610 C   0  0  0  0  0  2  0  0  0  0  0  0
  -28.9720  -18.7870   26.9470 C   0  0  0  0  0  2  0  0  0  0  0  0
  -29.1940  -17.5450   26.1790 N   0  0  0  0  0  4  0  0  0  0  0  0
  -29.0960  -16.7520   26.7920 H   0  0  0  0  0  0  0  0  0  0  0  0
  -28.4680  -17.4870   25.4850 H   0  0  0  0  0  0  0  0  0  0  0  0
  -30.4850  -17.4700   25.4670 C   0  0  0  0  0  2  0  0  0  0  0  0
  -30.5500  -16.2300   24.5560 C   0  0  0  0  0  2  0  0  0  0  0  0
  -31.7630  -16.2660   23.6130 C   0  0  0  0  0  2  0  0  0  0  0  0
  -32.0380  -14.9380   22.8910 C   0  0  0  0  0  2  0  0  0  0  0  0
  -30.8780  -14.2260   20.8020 C   0  0  0  0  0  0  0  0  0  0  0  0
  -30.4070  -12.2950   19.3560 C   0  0  0  0  0  2  0  0  0  0  0  0
  -29.4630  -12.5500   18.1740 C   0  0  0  0  0  2  0  0  0  0  0  0
  -28.0010  -12.3800   18.6110 C   0  0  0  0  0  2  0  0  0  0  0  0
  -27.6680  -13.2070   19.8790 C   0  0  0  0  0  3  0  0  0  0  0  0
  -28.7120  -12.9720   20.9960 C   0  0  0  0  0  2  0  0  0  0  0  0
  -30.0630  -13.2040   20.4560 N   0  0  0  0  0  0  0  0  0  0  0  0
  -31.7430  -14.7010   20.0560 O   0  0  0  0  0  0  0  0  0  0  0  0
  -30.8940  -14.4400   22.1240 N   0  0  0  0  0  0  0  0  0  0  0  0
  -30.1880  -13.9410   22.6450 H   0  0  0  0  0  0  0  0  0  0  0  0
  -25.2610  -13.8170   20.5690 C   0  0  0  0  0  0  0  0  0  0  0  0
  -24.1860  -13.0450   20.9170 C   0  0  0  0  0  0  0  0  0  0  0  0
  -24.6410  -11.6910   20.8730 C   0  0  0  0  0  0  0  0  0  0  0  0
  -26.3070  -12.9350   20.3420 N   0  0  0  0  0  0  0  0  0  0  0  0
  -25.9340  -11.6500   20.5790 N   0  0  0  0  0  0  0  0  0  0  0  0
  -23.9070  -10.4300   21.0400 C   0  0  0  0  0  0  0  0  0  0  0  0
  -24.3620   -9.4210   21.9180 C   0  0  0  0  0  3  0  0  0  0  0  0
  -23.6300   -8.2250   22.0760 C   0  0  0  0  0  3  0  0  0  0  0  0
  -22.4270   -8.0280   21.3540 C   0  0  0  0  0  0  0  0  0  0  0  0
  -21.9910   -9.0270   20.4650 C   0  0  0  0  0  3  0  0  0  0  0  0
  -22.7240  -10.2140   20.3050 C   0  0  0  0  0  3  0  0  0  0  0  0
  -21.6640   -6.8880   21.4240 O   0  0  0  0  0  0  0  0  0  0  0  0
  -21.6850   -6.0740   22.5280 C   0  0  0  0  0  0  0  0  0  0  0  0
  -21.4020   -6.5640   23.8220 C   0  0  0  0  0  3  0  0  0  0  0  0
  -21.3650   -5.6790   24.9180 C   0  0  0  0  0  3  0  0  0  0  0  0
  -21.6050   -4.3060   24.7230 C   0  0  0  0  0  0  0  0  0  0  0  0
  -21.8810   -3.8150   23.4340 C   0  0  0  0  0  3  0  0  0  0  0  0
  -21.9200   -4.6970   22.3400 C   0  0  0  0  0  0  0  0  0  0  0  0
  -22.1660   -4.2150   21.0980 F   0  0  0  0  0  0  0  0  0  0  0  0
  -21.5630   -3.4540   25.7740 F   0  0  0  0  0  0  0  0  0  0  0  0
  -22.7880  -13.5240   21.1830 C   0  0  0  0  0  0  0  0  0  0  0  0
  -22.0510  -12.8230   22.0380 N   0  0  0  0  0  0  0  0  0  0  0  0
  -22.3560  -14.5550   20.6690 O   0  0  0  0  0  0  0  0  0  0  0  0
  -22.4120  -11.9880   22.4760 H   0  0  0  0  0  0  0  0  0  0  0  0
  -21.1130  -13.1260   22.2590 H   0  0  0  0  0  0  0  0  0  0  0  0
  -25.4340  -15.1880   20.4110 N   0  0  0  0  0  0  0  0  0  0  0  0
  -24.6720  -15.8490   20.5170 H   0  0  0  0  0  0  0  0  0  0  0  0
  -26.2980  -15.6250   20.1120 H   0  0  0  0  0  0  0  0  0  0  0  0
  1  2  1  0
  1  3  1  0
  4  1  1  0
  5  4  1  0
  6  5  1  0
  7  6  1  0
  8 10  1  0
  8  7  1  0
  9  8  1  0
 11  8  1  0
 12 11  1  0
 13 12  1  0
 14 16  1  0
 14 13  1  0
 15 26  2  0
 16 21  1  0
 17 25  1  0
 17 27  1  0
 18 24  1  0
 18 20  1  0
 19 25  1  0
 20 19  1  0
 21 20  2  0
 22 23  1  0
 22 16  2  0
 23 18  2  0
 24 17  1  0
 25 15  1  0
 27 29  2  0
 28 27  1  0
 30 28  1  0
 31 40  2  0
 31 36  1  0
 32 28  1  0
 32 36  1  0
 33 32  1  0
 34 35  1  0
 34 33  1  0
 35 31  1  0
 36 37  2  0
 37 38  1  0
 39 38  2  0
 40 39  1  0
 41 15  1  0
 41 42  1  0
 41 51  1  0
 42 45  1  0
 43 47  1  0
 43 42  1  0
 44 43  2  0
 47 46  1  0
 49 47  1  0
 49 50  1  0
 49 48  1  0
 51 54  1  1
 51 52  1  0
 53 51  1  0
 55 56  1  0
 55  1  1  0
 57 56  1  0
 58 57  1  0
 59 60  1  0
 59 58  1  0
 61 59  1  0
 62 59  1  0
 63 62  1  0
 64 63  1  0
 65 64  1  0
 66 74  1  0
 67 72  1  0
 68 69  1  0
 68 67  1  0
 70 69  1  0
 70 79  1  0
 70 71  1  0
 72 66  1  0
 72 71  1  0
 73 66  2  0
 74 75  1  0
 74 65  1  0
 76 77  2  0
 77 96  1  0
 78 77  1  0
 78 81  1  0
 79 76  1  0
 79 80  1  0
 80 78  2  0
 81 82  1  0
 82 83  2  0
 84 87  1  0
 84 83  1  0
 85 84  2  0
 86 85  1  0
 86 81  2  0
 87 88  1  0
 88 89  1  0
 89 90  2  0
 91 90  1  0
 91 95  1  0
 92 91  2  0
 93 88  2  0
 93 92  1  0
 94 93  1  0
 96 97  1  0
 97100  1  0
 97 99  1  0
 98 96  2  0
101102  1  0
101 76  1  0
103101  1  0
M  ISO  4  13 101  14 101  66 100  74 100
M  END
>  <TORSDO>  (30) 
F 33

>  <SCORE>  (30) 
20.605

>  <name>  (30) 
29

>  <ligand_id>  (30) 
29

>  <original_smiles>  (30) 
[H]c1c([H])c([H])c2c(c1[H])C([H])([H])C([H])([H])C([H])([H])C2([H])N([H])C(=O)C1([H])N(C(=O)C([H])(N([H])C(=O)C([H])(N([H])C([H])([H])[H])C([H])([H])[H])C(C([H])([H])[H])(C([H])([H])[H])C([H])([H])[H])C([H])([H])c2c([H])c(OC([H])([H])C([H])([H])C([H])([H])[N+]([H])([H])C([H])([H])C([H])([H])C([H])([H])C([H])([H])[N+]([H])([H])C([H])([H])C([H])([H])C([H])([H])C([H])([H])[N+]([H])([H])C([H])([H])C([H])([H])C([H])([H])C([H])([H])N([H])C(=O)N3C([H])([H])C([H])([H])C([H])([H])C([H])(n4nc(-c5c([H])c([H])c(Oc6c([H])c([H])c(F)c([H])c6F)c([H])c5[H])c(C(=O)N([H])[H])c4N([H])[H])C3([H])[H])c([H])c([H])c2C1([H])[H]

>  <smiles>  (30) 
[H]c1c([H])c([H])c2c(c1[H])C([H])([H])C([H])([H])C([H])([H])C2([H])N([H])C(=O)C1([H])N(C(=O)C([H])(N([H])C(=O)C([H])(N([H])C([H])([H])[H])C([H])([H])[H])C(C([H])([H])[H])(C([H])([H])[H])C([H])([H])[H])C([H])([H])c2c([H])c(OC([H])([H])C([H])([H])C([H])([H])[N+]([H])([H])C([H])([H])C([H])([H])C([H])([H])C([H])([H])[N+]([H])([H])C([H])([H])C([H])([H])C([H])([H])C([H])([H])[N+]([H])([H])C([H])([H])C([H])([H])C([H])([H])C([H])([H])N([H])C(=O)N3C([H])([H])C([H])([H])C([H])([H])C([H])(n4nc(-c5c([H])c([H])c(Oc6c([H])c([H])c(F)c([H])c6F)c([H])c5[H])c(C(=O)N([H])[H])c4N([H])[H])C3([H])[H])c([H])c([H])c2C1([H])[H]

$$$$
30:0:0
     RDKit          3D

103110  0  0  1  0  0  0  0  0999 V2000
  -29.6320  -23.5370   21.8510 C   0  0  0  0  0  0  0  0  0  0  0  0
  -30.3910  -23.8320   20.7890 N   0  0  0  0  0  0  0  0  0  0  0  0
  -30.0390  -22.8790   22.8100 O   0  0  0  0  0  0  0  0  0  0  0  0
  -29.9670  -24.3830   20.0540 H   0  0  0  0  0  0  0  0  0  0  0  0
  -31.8220  -23.5690   20.6350 C   0  0  0  0  0  2  0  0  0  0  0  0
  -32.1770  -22.1080   20.2880 C   0  0  0  0  0  2  0  0  0  0  0  0
  -31.6300  -21.5780   18.9540 C   0  0  0  0  0  2  0  0  0  0  0  0
  -32.2950  -22.1820   17.7000 C   0  0  0  0  0  2  0  0  0  0  0  0
  -32.4020  -21.2220   16.4980 C   0  0  0  0  0  2  0  0  0  0  0  0
  -31.0740  -20.8570   15.8050 C   0  0  0  0  0  2  0  0  0  0  0  0
  -29.6560  -19.3300   17.2590 C   0  0  0  0  0  0  0  0  0  0  0  0
  -30.0210  -20.5210   16.7630 N   0  0  0  0  0  0  0  0  0  0  0  0
  -28.7790  -19.2510   18.1180 O   0  0  0  0  0  0  0  0  0  0  0  0
  -29.5700  -21.3090   17.1960 H   0  0  0  0  0  0  0  0  0  0  0  0
  -30.3490  -18.1890   16.7010 C   0  0  0  0  0  3  0  0  0  0  0  0
  -30.8660  -17.2050   17.4610 C   0  0  0  0  0  3  0  0  0  0  0  0
  -30.8660  -17.0830   18.9840 C   0  0  0  0  0  2  0  0  0  0  0  0
  -31.3270  -14.6590   19.3540 C   0  0  0  0  0  0  0  0  0  0  0  0
  -31.2690  -12.2040   19.2680 C   0  0  0  0  0  2  0  0  0  0  0  0
  -30.3520  -11.7580   18.1130 C   0  0  0  0  0  2  0  0  0  0  0  0
  -28.8790  -11.6900   18.5660 C   0  0  0  0  0  2  0  0  0  0  0  0
  -28.4190  -12.9520   19.3440 C   0  0  0  0  0  3  0  0  0  0  0  0
  -29.4590  -13.3430   20.4190 C   0  0  0  0  0  2  0  0  0  0  0  0
  -30.7660  -13.4930   19.7590 N   0  0  0  0  0  0  0  0  0  0  0  0
  -32.4360  -14.7300   18.8210 O   0  0  0  0  0  0  0  0  0  0  0  0
  -30.5360  -15.7360   19.4470 N   0  0  0  0  0  0  0  0  0  0  0  0
  -29.6310  -15.5910   19.8700 H   0  0  0  0  0  0  0  0  0  0  0  0
  -26.0960  -13.7100   20.1600 C   0  0  0  0  0  0  0  0  0  0  0  0
  -25.0190  -13.0090   20.6370 C   0  0  0  0  0  0  0  0  0  0  0  0
  -25.4170  -11.6380   20.6550 C   0  0  0  0  0  0  0  0  0  0  0  0
  -27.0860  -12.7690   19.9200 N   0  0  0  0  0  0  0  0  0  0  0  0
  -26.6830  -11.5220   20.2740 N   0  0  0  0  0  0  0  0  0  0  0  0
  -24.6480  -10.4230   20.9580 C   0  0  0  0  0  0  0  0  0  0  0  0
  -24.9080   -9.6560   22.1160 C   0  0  0  0  0  3  0  0  0  0  0  0
  -24.1420   -8.5040   22.3960 C   0  0  0  0  0  3  0  0  0  0  0  0
  -23.1010   -8.1100   21.5210 C   0  0  0  0  0  0  0  0  0  0  0  0
  -22.8640   -8.8650   20.3590 C   0  0  0  0  0  3  0  0  0  0  0  0
  -23.6310  -10.0070   20.0770 C   0  0  0  0  0  3  0  0  0  0  0  0
  -22.3230   -6.9930   21.7000 O   0  0  0  0  0  0  0  0  0  0  0  0
  -21.6690   -6.7520   22.8820 C   0  0  0  0  0  0  0  0  0  0  0  0
  -20.6830   -7.6330   23.3810 C   0  0  0  0  0  3  0  0  0  0  0  0
  -19.9890   -7.3120   24.5650 C   0  0  0  0  0  3  0  0  0  0  0  0
  -20.2690   -6.1110   25.2430 C   0  0  0  0  0  0  0  0  0  0  0  0
  -21.2470   -5.2320   24.7450 C   0  0  0  0  0  3  0  0  0  0  0  0
  -21.9420   -5.5510   23.5670 C   0  0  0  0  0  0  0  0  0  0  0  0
  -22.8680   -4.6890   23.0790 F   0  0  0  0  0  0  0  0  0  0  0  0
  -19.5950   -5.7990   26.3760 F   0  0  0  0  0  0  0  0  0  0  0  0
  -23.6640  -13.5670   20.9610 C   0  0  0  0  0  0  0  0  0  0  0  0
  -22.9620  -12.9600   21.9140 N   0  0  0  0  0  0  0  0  0  0  0  0
  -23.2390  -14.5780   20.4030 O   0  0  0  0  0  0  0  0  0  0  0  0
  -23.3170  -12.1410   22.3860 H   0  0  0  0  0  0  0  0  0  0  0  0
  -22.0540  -13.3200   22.1710 H   0  0  0  0  0  0  0  0  0  0  0  0
  -26.3060  -15.0580   19.8920 N   0  0  0  0  0  0  0  0  0  0  0  0
  -25.5780  -15.7530   20.0150 H   0  0  0  0  0  0  0  0  0  0  0  0
  -27.1510  -15.4430   19.4850 H   0  0  0  0  0  0  0  0  0  0  0  0
  -28.2090  -24.0930   21.8590 C   0  0  0  0  0  2  0  0  0  0  0  0
  -27.2250  -23.3040   20.9620 C   0  0  0  0  0  2  0  0  0  0  0  0
  -27.4370  -23.4980   19.5060 N   0  0  0  0  0  4  0  0  0  0  0  0
  -26.5630  -23.2570   19.0610 H   0  0  0  0  0  0  0  0  0  0  0  0
  -28.1300  -22.8600   19.1530 H   0  0  0  0  0  0  0  0  0  0  0  0
  -27.7830  -24.8850   19.1140 C   0  0  0  0  0  2  0  0  0  0  0  0
  -27.3420  -25.2170   17.6730 C   0  0  0  0  0  2  0  0  0  0  0  0
  -27.3410  -26.6310   17.4830 O   0  0  0  0  0  0  0  0  0  0  0  0
  -24.7980  -30.2540   23.0190 C   0  0  0  0  0  0  0  0  0  0  0  0
  -26.2690  -27.3490   17.9730 C   0  0  0  0  0  0  0  0  0  0  0  0
  -23.1700  -29.7930   21.2150 C   0  0  0  0  0  3  0  0  0  0  0  0
  -24.1530  -28.8780   19.0500 C   0  0  0  0  0  0  0  0  0  0  0  0
  -25.6690  -29.9830   20.7020 C   0  0  0  0  0  2  0  0  0  0  0  0
  -25.4480  -29.0130   19.5640 C   0  0  0  0  0  0  0  0  0  0  0  0
  -26.5080  -28.2570   19.0250 C   0  0  0  0  0  3  0  0  0  0  0  0
  -24.9530  -27.2150   17.4690 C   0  0  0  0  0  3  0  0  0  0  0  0
  -23.8970  -27.9760   18.0040 C   0  0  0  0  0  3  0  0  0  0  0  0
  -23.0810  -29.7450   19.6660 C   0  0  0  0  0  2  0  0  0  0  0  0
  -24.5740  -29.9940   21.7010 N   0  0  0  0  0  0  0  0  0  0  0  0
  -23.8580  -30.3670   23.8180 O   0  0  0  0  0  0  0  0  0  0  0  0
  -22.5000  -28.5210   21.7860 C   0  0  0  0  0  0  0  0  0  0  0  0
  -21.1720  -28.4190   21.6160 N   0  0  0  0  0  0  0  0  0  0  0  0
  -23.1710  -27.6460   22.3380 O   0  0  0  0  0  0  0  0  0  0  0  0
  -20.6920  -29.1820   21.1610 H   0  0  0  0  0  0  0  0  0  0  0  0
  -17.8080  -27.1090   21.5280 C   0  0  0  0  0  0  0  0  0  0  0  0
  -20.3340  -27.2980   22.0410 C   0  0  0  0  0  3  0  0  0  0  0  0
  -20.5120  -26.0830   21.1000 C   0  0  0  0  0  2  0  0  0  0  0  0
  -19.4870  -26.0460   19.9620 C   0  0  0  0  0  2  0  0  0  0  0  0
  -18.0630  -26.0000   20.5230 C   0  0  0  0  0  2  0  0  0  0  0  0
  -18.8760  -27.7300   22.2290 C   0  0  0  0  0  0  0  0  0  0  0  0
  -18.5850  -28.7820   23.1250 C   0  0  0  0  0  3  0  0  0  0  0  0
  -17.2590  -29.2110   23.3280 C   0  0  0  0  0  3  0  0  0  0  0  0
  -16.2060  -28.5830   22.6410 C   0  0  0  0  0  3  0  0  0  0  0  0
  -16.4810  -27.5330   21.7470 C   0  0  0  0  0  3  0  0  0  0  0  0
  -26.2420  -30.4400   23.5820 C   0  0  0  0  0  3  0  0  0  0  0  0
  -26.2770  -31.7320   24.2810 N   0  0  0  0  0  0  0  0  0  0  0  0
  -26.8720  -32.8350   23.8070 C   0  0  0  0  0  0  0  0  0  0  0  0
  -27.5180  -32.8500   22.7560 O   0  0  0  0  0  0  0  0  0  0  0  0
  -25.7220  -31.8070   25.1220 H   0  0  0  0  0  0  0  0  0  0  0  0
  -25.7060  -35.0590   23.9550 C   0  0  0  0  0  1  0  0  0  0  0  0
  -26.7260  -34.1290   24.6310 C   0  0  0  0  0  3  0  0  0  0  0  0
  -28.9280  -34.1550   25.7180 C   0  0  0  0  0  1  0  0  0  0  0  0
  -28.0040  -34.8490   24.8240 N   0  0  0  0  0  0  0  0  0  0  0  0
  -27.8390  -35.7790   25.2000 H   0  0  0  0  0  0  0  0  0  0  0  0
  -26.6930  -29.2720   24.5410 C   0  0  1  0  0  0  0  0  0  0  0  0
  -25.6780  -28.9660   25.6690 C   0  0  0  0  0  1  0  0  0  0  0  0
  -26.9170  -27.9660   23.7410 C   0  0  0  0  0  1  0  0  0  0  0  0
  -28.0470  -29.6280   25.1980 C   0  0  0  0  0  1  0  0  0  0  0  0
  1 56  1  0
  1  3  2  0
  2  1  1  0
  4  2  1  0
  5  2  1  0
  6  5  1  0
  7  6  1  0
  8  7  1  0
  9  8  1  0
 10  9  1  0
 10 12  1  0
 11 13  2  0
 12 14  1  0
 12 11  1  0
 15 11  1  0
 15 16  2  0
 16 17  1  0
 17 26  1  0
 18 26  1  0
 18 24  1  0
 19 24  1  0
 20 21  1  0
 20 19  1  0
 22 21  1  0
 22 31  1  0
 22 23  1  0
 24 23  1  0
 25 18  2  0
 26 27  1  0
 28 29  2  0
 29 30  1  0
 29 48  1  0
 30 33  1  0
 31 28  1  0
 31 32  1  0
 32 30  2  0
 33 34  1  0
 34 35  2  0
 36 39  1  0
 36 35  1  0
 37 36  2  0
 38 37  1  0
 38 33  2  0
 39 40  1  0
 40 41  2  0
 40 45  1  0
 41 42  1  0
 42 43  2  0
 43 47  1  0
 44 43  1  0
 45 44  2  0
 46 45  1  0
 48 49  1  0
 49 52  1  0
 49 51  1  0
 50 48  2  0
 53 54  1  0
 53 28  1  0
 55 53  1  0
 57 56  1  0
 58 57  1  0
 59 58  1  0
 60 58  1  0
 61 58  1  0
 62 61  1  0
 63 62  1  0
 63 65  1  0
 64 75  2  0
 65 70  1  0
 66 74  1  0
 66 76  1  0
 67 69  1  0
 67 73  1  0
 68 74  1  0
 69 68  1  0
 70 69  2  0
 71 65  2  0
 71 72  1  0
 72 67  2  0
 73 66  1  0
 74 64  1  0
 76 78  2  0
 77 76  1  0
 79 77  1  0
 80 89  2  0
 80 85  1  0
 81 77  1  0
 81 85  1  0
 82 81  1  0
 83 84  1  0
 83 82  1  0
 84 80  1  0
 85 86  2  0
 86 87  1  0
 88 87  2  0
 89 88  1  0
 90 64  1  0
 90 91  1  0
 90100  1  0
 91 94  1  0
 92 91  1  0
 92 96  1  0
 93 92  2  0
 96 95  1  0
 96 98  1  0
 98 99  1  0
 98 97  1  0
100103  1  1
100101  1  0
102100  1  0
M  ISO  4  18 100  26 100  62 101  63 101
M  END
>  <TORSDO>  (31) 
F 30

>  <SCORE>  (31) 
-6.808

>  <name>  (31) 
30

>  <ligand_id>  (31) 
30

>  <original_smiles>  (31) 
[H]C(C(=O)N([H])C([H])([H])C([H])([H])C([H])([H])C([H])([H])C([H])([H])C([H])([H])N([H])C(=O)C([H])([H])C([H])([H])[N+]([H])([H])C([H])([H])C([H])([H])Oc1c([H])c([H])c2c(c1[H])C([H])([H])N(C(=O)C([H])(N([H])C(=O)C([H])(N([H])C([H])([H])[H])C([H])([H])[H])C(C([H])([H])[H])(C([H])([H])[H])C([H])([H])[H])C([H])(C(=O)N([H])C1([H])c3c([H])c([H])c([H])c([H])c3C([H])([H])C([H])([H])C1([H])[H])C2([H])[H])=C([H])C([H])([H])N([H])C(=O)N1C([H])([H])C([H])([H])C([H])([H])C([H])(n2nc(-c3c([H])c([H])c(Oc4c([H])c([H])c(F)c([H])c4F)c([H])c3[H])c(C(=O)N([H])[H])c2N([H])[H])C1([H])[H]

>  <smiles>  (31) 
[H]C(C(=O)N([H])C([H])([H])C([H])([H])C([H])([H])C([H])([H])C([H])([H])C([H])([H])N([H])C(=O)C([H])([H])C([H])([H])[N+]([H])([H])C([H])([H])C([H])([H])Oc1c([H])c([H])c2c(c1[H])C([H])([H])N(C(=O)C([H])(N([H])C(=O)C([H])(N([H])C([H])([H])[H])C([H])([H])[H])C(C([H])([H])[H])(C([H])([H])[H])C([H])([H])[H])C([H])(C(=O)N([H])C1([H])c3c([H])c([H])c([H])c([H])c3C([H])([H])C([H])([H])C1([H])[H])C2([H])[H])=C([H])C([H])([H])N([H])C(=O)N1C([H])([H])C([H])([H])C([H])([H])C([H])(n2nc(-c3c([H])c([H])c(Oc4c([H])c([H])c(F)c([H])c4F)c([H])c3[H])c(C(=O)N([H])[H])c2N([H])[H])C1([H])[H]

$$$$
31:0:0
     RDKit          3D

 95102  0  0  1  0  0  0  0  0999 V2000
  -29.4840  -25.1050   22.9910 C   0  0  0  0  0  3  0  0  0  0  0  0
  -29.8940  -25.2480   21.7080 N   0  0  0  0  0  0  0  0  0  0  0  0
  -28.8980  -23.9570   23.3930 N   0  0  0  0  0  0  0  0  0  0  0  0
  -29.6440  -24.5320   21.0420 H   0  0  0  0  0  0  0  0  0  0  0  0
  -28.6440  -23.9150   24.3700 H   0  0  0  0  0  0  0  0  0  0  0  0
  -28.8750  -26.3600   25.0110 C   0  0  0  0  0  2  0  0  0  0  0  0
  -29.6840  -26.1270   23.9580 C   0  0  0  0  0  3  0  0  0  0  0  0
  -28.6680  -22.7110   22.6450 C   0  0  0  0  0  2  0  0  0  0  0  0
  -29.9910  -22.0160   22.2780 C   0  0  0  0  0  2  0  0  0  0  0  0
  -29.8050  -20.6080   21.6850 C   0  0  0  0  0  2  0  0  0  0  0  0
  -31.1520  -20.0280   21.2290 C   0  0  0  0  0  2  0  0  0  0  0  0
  -31.1620  -18.5090   21.0020 C   0  0  0  0  0  2  0  0  0  0  0  0
  -32.5000  -18.0670   20.3830 C   0  0  0  0  0  2  0  0  0  0  0  0
  -32.9200  -16.6290   20.7240 C   0  0  0  0  0  2  0  0  0  0  0  0
  -32.1390  -14.7260   19.3320 C   0  0  0  0  0  0  0  0  0  0  0  0
  -31.7000  -12.3750   18.7260 C   0  0  0  0  0  2  0  0  0  0  0  0
  -30.6500  -12.2050   17.6180 C   0  0  0  0  0  2  0  0  0  0  0  0
  -29.2280  -12.1960   18.2080 C   0  0  0  0  0  2  0  0  0  0  0  0
  -28.9780  -13.3850   19.1720 C   0  0  0  0  0  3  0  0  0  0  0  0
  -30.1190  -13.5010   20.2040 C   0  0  0  0  0  2  0  0  0  0  0  0
  -31.4000  -13.6000   19.4780 N   0  0  0  0  0  0  0  0  0  0  0  0
  -33.0310  -14.8540   18.4860 O   0  0  0  0  0  0  0  0  0  0  0  0
  -31.9520  -15.6210   20.3080 N   0  0  0  0  0  0  0  0  0  0  0  0
  -31.1930  -15.4280   20.9450 H   0  0  0  0  0  0  0  0  0  0  0  0
  -26.8550  -14.2770   20.3280 C   0  0  0  0  0  0  0  0  0  0  0  0
  -25.7230  -13.6450   20.7710 C   0  0  0  0  0  0  0  0  0  0  0  0
  -25.9140  -12.2570   20.5010 C   0  0  0  0  0  0  0  0  0  0  0  0
  -27.6740  -13.2770   19.8250 N   0  0  0  0  0  0  0  0  0  0  0  0
  -27.1170  -12.0500   19.9810 N   0  0  0  0  0  0  0  0  0  0  0  0
  -24.9980  -11.1190   20.6520 C   0  0  0  0  0  0  0  0  0  0  0  0
  -25.3100  -10.0260   21.4910 C   0  0  0  0  0  3  0  0  0  0  0  0
  -24.4050   -8.9520   21.6340 C   0  0  0  0  0  3  0  0  0  0  0  0
  -23.1720   -8.9660   20.9390 C   0  0  0  0  0  0  0  0  0  0  0  0
  -22.8770  -10.0460   20.0880 C   0  0  0  0  0  3  0  0  0  0  0  0
  -23.7810  -11.1110   19.9420 C   0  0  0  0  0  3  0  0  0  0  0  0
  -22.2420   -7.9550   20.9970 O   0  0  0  0  0  0  0  0  0  0  0  0
  -22.0190   -7.2480   22.1510 C   0  0  0  0  0  0  0  0  0  0  0  0
  -21.6150   -7.8800   23.3460 C   0  0  0  0  0  3  0  0  0  0  0  0
  -21.3280   -7.1070   24.4890 C   0  0  0  0  0  3  0  0  0  0  0  0
  -21.4370   -5.7050   24.4370 C   0  0  0  0  0  0  0  0  0  0  0  0
  -21.8350   -5.0730   23.2460 C   0  0  0  0  0  3  0  0  0  0  0  0
  -22.1220   -5.8430   22.1050 C   0  0  0  0  0  0  0  0  0  0  0  0
  -22.4830   -5.2270   20.9540 F   0  0  0  0  0  0  0  0  0  0  0  0
  -21.1540   -4.9620   25.5330 F   0  0  0  0  0  0  0  0  0  0  0  0
  -24.4920  -14.3030   21.3260 C   0  0  0  0  0  0  0  0  0  0  0  0
  -23.7980  -13.6340   22.2390 N   0  0  0  0  0  0  0  0  0  0  0  0
  -24.1650  -15.4380   20.9820 O   0  0  0  0  0  0  0  0  0  0  0  0
  -24.0780  -12.7120   22.5350 H   0  0  0  0  0  0  0  0  0  0  0  0
  -22.9740  -14.0510   22.6470 H   0  0  0  0  0  0  0  0  0  0  0  0
  -27.2490  -15.6110   20.2960 N   0  0  0  0  0  0  0  0  0  0  0  0
  -26.6460  -16.3620   20.6120 H   0  0  0  0  0  0  0  0  0  0  0  0
  -28.1220  -15.9420   19.9050 H   0  0  0  0  0  0  0  0  0  0  0  0
  -30.6560  -26.3630   21.1090 C   0  0  0  0  0  2  0  0  0  0  0  0
  -29.7860  -27.5940   20.8110 C   0  0  0  0  0  2  0  0  0  0  0  0
  -28.8470  -27.3480   19.7540 O   0  0  0  0  0  0  0  0  0  0  0  0
  -24.7750  -31.9940   23.2630 C   0  0  0  0  0  0  0  0  0  0  0  0
  -27.6500  -28.0360   19.8190 C   0  0  0  0  0  0  0  0  0  0  0  0
  -23.6140  -30.6300   21.5500 C   0  0  0  0  0  3  0  0  0  0  0  0
  -25.1330  -29.3220   19.9670 C   0  0  0  0  0  0  0  0  0  0  0  0
  -26.0810  -31.2180   21.2920 C   0  0  0  0  0  2  0  0  0  0  0  0
  -26.2540  -29.9020   20.5670 C   0  0  0  0  0  0  0  0  0  0  0  0
  -27.5080  -29.2710   20.4930 C   0  0  0  0  0  3  0  0  0  0  0  0
  -26.5170  -27.4740   19.1930 C   0  0  0  0  0  3  0  0  0  0  0  0
  -25.2580  -28.1060   19.2690 C   0  0  0  0  0  3  0  0  0  0  0  0
  -23.8250  -30.0660   20.1150 C   0  0  0  0  0  2  0  0  0  0  0  0
  -24.8450  -31.2900   22.0980 N   0  0  0  0  0  0  0  0  0  0  0  0
  -23.6980  -32.1390   23.8580 O   0  0  0  0  0  0  0  0  0  0  0  0
  -23.0770  -29.4970   22.4520 C   0  0  0  0  0  0  0  0  0  0  0  0
  -21.7710  -29.2100   22.3350 N   0  0  0  0  0  0  0  0  0  0  0  0
  -23.8310  -28.8830   23.2140 O   0  0  0  0  0  0  0  0  0  0  0  0
  -21.2240  -29.7660   21.6920 H   0  0  0  0  0  0  0  0  0  0  0  0
  -18.5260  -27.6850   22.7660 C   0  0  0  0  0  0  0  0  0  0  0  0
  -21.0510  -28.1570   23.0500 C   0  0  0  0  0  3  0  0  0  0  0  0
  -21.2800  -26.7800   22.3860 C   0  0  0  0  0  2  0  0  0  0  0  0
  -20.2040  -26.4230   21.3550 C   0  0  0  0  0  2  0  0  0  0  0  0
  -18.8200  -26.4010   22.0090 C   0  0  0  0  0  2  0  0  0  0  0  0
  -19.5730  -28.5180   23.2410 C   0  0  0  0  0  0  0  0  0  0  0  0
  -19.2440  -29.7210   23.9030 C   0  0  0  0  0  3  0  0  0  0  0  0
  -17.9000  -30.0910   24.0990 C   0  0  0  0  0  3  0  0  0  0  0  0
  -16.8670  -29.2540   23.6430 C   0  0  0  0  0  3  0  0  0  0  0  0
  -17.1820  -28.0540   22.9800 C   0  0  0  0  0  3  0  0  0  0  0  0
  -26.0340  -32.6710   23.8900 C   0  0  0  0  0  3  0  0  0  0  0  0
  -26.5480  -31.9360   25.1890 C   0  0  1  0  0  0  0  0  0  0  0  0
  -25.4400  -31.6690   26.2360 C   0  0  0  0  0  1  0  0  0  0  0  0
  -27.1860  -30.5770   24.8190 C   0  0  0  0  0  1  0  0  0  0  0  0
  -27.6590  -32.7770   25.8610 C   0  0  0  0  0  1  0  0  0  0  0  0
  -25.6870  -34.0680   24.1810 N   0  0  0  0  0  0  0  0  0  0  0  0
  -26.0320  -35.1120   23.4150 C   0  0  0  0  0  0  0  0  0  0  0  0
  -26.7460  -35.0010   22.4150 O   0  0  0  0  0  0  0  0  0  0  0  0
  -25.0410  -34.2190   24.9430 H   0  0  0  0  0  0  0  0  0  0  0  0
  -24.2880  -36.8640   22.9480 C   0  0  0  0  0  1  0  0  0  0  0  0
  -25.4990  -36.4980   23.8210 C   0  0  0  0  0  3  0  0  0  0  0  0
  -27.5830  -37.4350   24.7170 C   0  0  0  0  0  1  0  0  0  0  0  0
  -26.5150  -37.5690   23.7300 N   0  0  0  0  0  0  0  0  0  0  0  0
  -26.0900  -38.4850   23.8440 H   0  0  0  0  0  0  0  0  0  0  0  0
  1  3  1  0
  1  7  1  0
  2  1  1  0
  3  5  1  0
  4  2  1  0
  7  6  2  0
  8  3  1  0
  9  8  1  0
 10  9  1  0
 11 10  1  0
 12 11  1  0
 13 14  1  0
 13 12  1  0
 15 21  1  0
 15 23  1  0
 16 21  1  0
 17 18  1  0
 17 16  1  0
 19 18  1  0
 19 28  1  0
 19 20  1  0
 21 20  1  0
 22 15  2  0
 23 14  1  0
 23 24  1  0
 25 26  2  0
 26 45  1  0
 27 30  1  0
 27 26  1  0
 28 29  1  0
 28 25  1  0
 29 27  2  0
 30 31  1  0
 31 32  2  0
 33 36  1  0
 33 32  1  0
 34 33  2  0
 35 34  1  0
 35 30  2  0
 36 37  1  0
 37 38  1  0
 38 39  2  0
 40 39  1  0
 40 44  1  0
 41 40  2  0
 42 37  2  0
 42 41  1  0
 43 42  1  0
 45 46  1  0
 46 48  1  0
 46 49  1  0
 47 45  2  0
 50 25  1  0
 50 51  1  0
 52 50  1  0
 53  2  1  0
 54 53  1  0
 55 57  1  0
 55 54  1  0
 56 67  2  0
 57 62  1  0
 58 66  1  0
 58 68  1  0
 59 65  1  0
 59 61  1  0
 60 66  1  0
 61 60  1  0
 62 61  2  0
 63 64  1  0
 63 57  2  0
 64 59  2  0
 65 58  1  0
 66 56  1  0
 68 70  2  0
 69 68  1  0
 71 69  1  0
 72 81  2  0
 72 77  1  0
 73 69  1  0
 73 77  1  0
 74 73  1  0
 75 76  1  0
 75 74  1  0
 76 72  1  0
 77 78  2  0
 78 79  1  0
 80 79  2  0
 81 80  1  0
 82 56  1  0
 82 87  1  0
 82 83  1  0
 83 86  1  1
 83 84  1  0
 85 83  1  0
 87 90  1  0
 88 92  1  0
 88 87  1  0
 89 88  2  0
 92 91  1  0
 94 92  1  0
 94 95  1  0
 94 93  1  0
M  ISO  4  15 100  23 100  54 101  55 101
M  END
>  <TORSDO>  (32) 
F 26

>  <SCORE>  (32) 
-7.974

>  <name>  (32) 
31

>  <ligand_id>  (32) 
31

>  <original_smiles>  (32) 
[H]C([H])=C([H])C(N([H])C([H])([H])C([H])([H])Oc1c([H])c([H])c2c(c1[H])C([H])([H])N(C(=O)C([H])(N([H])C(=O)C([H])(N([H])C([H])([H])[H])C([H])([H])[H])C(C([H])([H])[H])(C([H])([H])[H])C([H])([H])[H])C([H])(C(=O)N([H])C1([H])c3c([H])c([H])c([H])c([H])c3C([H])([H])C([H])([H])C1([H])[H])C2([H])[H])=[N+]([H])C([H])([H])C([H])([H])C([H])([H])C([H])([H])C([H])([H])C([H])([H])C([H])([H])N([H])C(=O)N1C([H])([H])C([H])([H])C([H])([H])C([H])(n2nc(-c3c([H])c([H])c(Oc4c([H])c([H])c(F)c([H])c4F)c([H])c3[H])c(C(=O)N([H])[H])c2N([H])[H])C1([H])[H]

>  <smiles>  (32) 
[H]C([H])=C([H])C(N([H])C([H])([H])C([H])([H])Oc1c([H])c([H])c2c(c1[H])C([H])([H])N(C(=O)C([H])(N([H])C(=O)C([H])(N([H])C([H])([H])[H])C([H])([H])[H])C(C([H])([H])[H])(C([H])([H])[H])C([H])([H])[H])C([H])(C(=O)N([H])C1([H])c3c([H])c([H])c([H])c([H])c3C([H])([H])C([H])([H])C1([H])[H])C2([H])[H])=[N+]([H])C([H])([H])C([H])([H])C([H])([H])C([H])([H])C([H])([H])C([H])([H])C([H])([H])N([H])C(=O)N1C([H])([H])C([H])([H])C([H])([H])C([H])(n2nc(-c3c([H])c([H])c(Oc4c([H])c([H])c(F)c([H])c4F)c([H])c3[H])c(C(=O)N([H])[H])c2N([H])[H])C1([H])[H]

$$$$
32:0:0
     RDKit          3D

102109  0  0  1  0  0  0  0  0999 V2000
  -23.3500  -19.8200   18.8250 N   0  0  0  0  0  4  0  0  0  0  0  0
  -23.7050  -20.4180   19.5520 H   0  0  0  0  0  0  0  0  0  0  0  0
  -22.3890  -19.6140   19.0450 H   0  0  0  0  0  0  0  0  0  0  0  0
  -23.4190  -20.5700   17.5550 C   0  0  0  0  0  2  0  0  0  0  0  0
  -23.7620  -22.0480   17.8110 C   0  0  0  0  0  2  0  0  0  0  0  0
  -23.8220  -22.7980   16.5620 N   0  0  0  0  0  0  0  0  0  0  0  0
  -24.1650  -22.2010   15.8130 H   0  0  0  0  0  0  0  0  0  0  0  0
  -24.7360  -23.9210   16.7190 C   0  0  0  0  0  2  0  0  0  0  0  0
  -24.1840  -25.1470   15.9810 C   0  0  0  0  0  2  0  0  0  0  0  0
  -25.2200  -26.2810   15.9010 C   0  0  0  0  0  2  0  0  0  0  0  0
  -24.6700  -27.6330   16.4020 C   0  0  0  0  0  2  0  0  0  0  0  0
  -25.6780  -28.3970   17.0660 O   0  0  0  0  0  0  0  0  0  0  0  0
  -32.1910  -26.7830   19.3650 C   0  0  0  0  0  0  0  0  0  0  0  0
  -26.4070  -27.7910   18.0710 C   0  0  0  0  0  0  0  0  0  0  0  0
  -30.3320  -25.6870   20.5730 C   0  0  0  0  0  3  0  0  0  0  0  0
  -28.0050  -26.5860   20.0690 C   0  0  0  0  0  0  0  0  0  0  0  0
  -29.9970  -27.9570   19.4410 C   0  0  0  0  0  2  0  0  0  0  0  0
  -28.5470  -27.5750   19.2400 C   0  0  0  0  0  0  0  0  0  0  0  0
  -27.7510  -28.1810   18.2450 C   0  0  0  0  0  3  0  0  0  0  0  0
  -25.8790  -26.7850   18.9180 C   0  0  0  0  0  3  0  0  0  0  0  0
  -26.6700  -26.1820   19.9090 C   0  0  0  0  0  3  0  0  0  0  0  0
  -28.9140  -25.9920   21.1190 C   0  0  0  0  0  2  0  0  0  0  0  0
  -30.8840  -26.8100   19.7480 N   0  0  0  0  0  0  0  0  0  0  0  0
  -32.9440  -25.8660   19.7220 O   0  0  0  0  0  0  0  0  0  0  0  0
  -30.2900  -24.3370   19.8220 C   0  0  0  0  0  0  0  0  0  0  0  0
  -30.5520  -23.2390   20.5520 N   0  0  0  0  0  0  0  0  0  0  0  0
  -30.0030  -24.2890   18.6230 O   0  0  0  0  0  0  0  0  0  0  0  0
  -30.7930  -23.3650   21.5260 H   0  0  0  0  0  0  0  0  0  0  0  0
  -31.4690  -19.8450   21.3850 C   0  0  0  0  0  0  0  0  0  0  0  0
  -30.5350  -21.8610   20.0640 C   0  0  0  0  0  3  0  0  0  0  0  0
  -29.1450  -21.2150   20.2610 C   0  0  0  0  0  2  0  0  0  0  0  0
  -29.0170  -20.4450   21.5790 C   0  0  0  0  0  2  0  0  0  0  0  0
  -30.0640  -19.3290   21.6530 C   0  0  0  0  0  2  0  0  0  0  0  0
  -31.6890  -21.0430   20.6530 C   0  0  0  0  0  0  0  0  0  0  0  0
  -33.0110  -21.4980   20.4620 C   0  0  0  0  0  3  0  0  0  0  0  0
  -34.1020  -20.7820   20.9900 C   0  0  0  0  0  3  0  0  0  0  0  0
  -33.8810  -19.5910   21.7020 C   0  0  0  0  0  3  0  0  0  0  0  0
  -32.5680  -19.1200   21.8900 C   0  0  0  0  0  3  0  0  0  0  0  0
  -32.8080  -27.9130   18.4830 C   0  0  0  0  0  3  0  0  0  0  0  0
  -34.1690  -28.1650   18.9740 N   0  0  0  0  0  0  0  0  0  0  0  0
  -34.5080  -29.1780   19.7820 C   0  0  0  0  0  0  0  0  0  0  0  0
  -33.7100  -30.0510   20.1350 O   0  0  0  0  0  0  0  0  0  0  0  0
  -34.8640  -27.4650   18.7610 H   0  0  0  0  0  0  0  0  0  0  0  0
  -36.0320  -28.6970   21.7220 C   0  0  0  0  0  1  0  0  0  0  0  0
  -35.9650  -29.2320   20.2820 C   0  0  0  0  0  3  0  0  0  0  0  0
  -36.7930  -31.0550   18.8620 C   0  0  0  0  0  1  0  0  0  0  0  0
  -36.5570  -30.5860   20.2250 N   0  0  0  0  0  0  0  0  0  0  0  0
  -37.4410  -30.6140   20.7270 H   0  0  0  0  0  0  0  0  0  0  0  0
  -32.8270  -27.5610   16.9440 C   0  0  1  0  0  0  0  0  0  0  0  0
  -33.5890  -26.2570   16.6120 C   0  0  0  0  0  1  0  0  0  0  0  0
  -31.3860  -27.4240   16.3990 C   0  0  0  0  0  1  0  0  0  0  0  0
  -33.4900  -28.7140   16.1530 C   0  0  0  0  0  1  0  0  0  0  0  0
  -24.1360  -18.5700   18.8560 C   0  0  0  0  0  2  0  0  0  0  0  0
  -25.5880  -18.8500   19.2840 C   0  0  0  0  0  2  0  0  0  0  0  0
  -26.5010  -19.2170   18.0980 C   0  0  0  0  0  2  0  0  0  0  0  0
  -27.5150  -20.3250   18.4250 C   0  0  0  0  0  2  0  0  0  0  0  0
  -28.3150  -20.7950   17.1950 C   0  0  0  0  0  2  0  0  0  0  0  0
  -30.2750  -19.2470   17.1430 C   0  0  0  0  0  0  0  0  0  0  0  0
  -29.7370  -20.4640   17.2760 N   0  0  0  0  0  0  0  0  0  0  0  0
  -29.5970  -18.2210   17.0670 O   0  0  0  0  0  0  0  0  0  0  0  0
  -30.3780  -21.2440   17.3360 H   0  0  0  0  0  0  0  0  0  0  0  0
  -31.7240  -19.3120   17.0590 C   0  0  0  0  0  3  0  0  0  0  0  0
  -32.4900  -18.3530   17.6080 C   0  0  0  0  0  3  0  0  0  0  0  0
  -34.0050  -18.3250   17.5540 C   0  0  0  0  0  2  0  0  0  0  0  0
  -35.7270  -20.0500   17.9980 C   0  0  0  0  0  0  0  0  0  0  0  0
  -37.0170  -21.6070   16.5880 C   0  0  0  0  0  2  0  0  0  0  0  0
  -36.5440  -23.0570   16.7980 C   0  0  0  0  0  2  0  0  0  0  0  0
  -35.3530  -23.3910   15.8790 C   0  0  0  0  0  2  0  0  0  0  0  0
  -34.2390  -22.3140   15.9330 C   0  0  0  0  0  3  0  0  0  0  0  0
  -34.8440  -20.9080   15.7780 C   0  0  0  0  0  2  0  0  0  0  0  0
  -35.8720  -20.7120   16.8190 N   0  0  0  0  0  0  0  0  0  0  0  0
  -36.5710  -20.0840   18.8980 O   0  0  0  0  0  0  0  0  0  0  0  0
  -34.5420  -19.4860   18.2530 N   0  0  0  0  0  0  0  0  0  0  0  0
  -34.3910  -19.4150   19.2490 H   0  0  0  0  0  0  0  0  0  0  0  0
  -31.8250  -22.4610   15.0540 C   0  0  0  0  0  0  0  0  0  0  0  0
  -31.3120  -22.8580   13.8480 C   0  0  0  0  0  0  0  0  0  0  0  0
  -32.4370  -23.1900   13.0330 C   0  0  0  0  0  0  0  0  0  0  0  0
  -33.2030  -22.5560   14.9320 N   0  0  0  0  0  0  0  0  0  0  0  0
  -33.5660  -22.9500   13.6850 N   0  0  0  0  0  0  0  0  0  0  0  0
  -32.5030  -23.7780   11.6890 C   0  0  0  0  0  0  0  0  0  0  0  0
  -33.0210  -23.0540   10.5910 C   0  0  0  0  0  3  0  0  0  0  0  0
  -33.0600  -23.6340    9.3050 C   0  0  0  0  0  3  0  0  0  0  0  0
  -32.5770  -24.9490    9.1060 C   0  0  0  0  0  0  0  0  0  0  0  0
  -32.0860  -25.6740   10.2060 C   0  0  0  0  0  3  0  0  0  0  0  0
  -32.0520  -25.0960   11.4860 C   0  0  0  0  0  3  0  0  0  0  0  0
  -32.5990  -25.6050    7.8970 O   0  0  0  0  0  0  0  0  0  0  0  0
  -32.3840  -24.9430    6.7150 C   0  0  0  0  0  0  0  0  0  0  0  0
  -31.1730  -24.2700    6.4490 C   0  0  0  0  0  3  0  0  0  0  0  0
  -30.9690  -23.6560    5.1960 C   0  0  0  0  0  3  0  0  0  0  0  0
  -31.9670  -23.7280    4.2060 C   0  0  0  0  0  0  0  0  0  0  0  0
  -33.1700  -24.4070    4.4660 C   0  0  0  0  0  3  0  0  0  0  0  0
  -33.3780  -25.0130    5.7180 C   0  0  0  0  0  0  0  0  0  0  0  0
  -34.5310  -25.6820    5.9590 F   0  0  0  0  0  0  0  0  0  0  0  0
  -31.7680  -23.1500    2.9990 F   0  0  0  0  0  0  0  0  0  0  0  0
  -29.8590  -23.0220   13.5020 C   0  0  0  0  0  0  0  0  0  0  0  0
  -29.4760  -22.6820   12.2760 N   0  0  0  0  0  0  0  0  0  0  0  0
  -29.0470  -23.4180   14.3360 O   0  0  0  0  0  0  0  0  0  0  0  0
  -30.1350  -22.3380   11.5950 H   0  0  0  0  0  0  0  0  0  0  0  0
  -28.5040  -22.7730   12.0130 H   0  0  0  0  0  0  0  0  0  0  0  0
  -31.2390  -22.0500   16.2450 N   0  0  0  0  0  0  0  0  0  0  0  0
  -30.2350  -22.0340   16.3690 H   0  0  0  0  0  0  0  0  0  0  0  0
  -31.7530  -21.8100   17.0830 H   0  0  0  0  0  0  0  0  0  0  0  0
  1 53  1  0
  1  3  1  0
  1  2  1  0
  4  5  1  0
  4  1  1  0
  6  8  1  0
  6  5  1  0
  7  6  1  0
  9  8  1  0
 10  9  1  0
 10 11  1  0
 11 12  1  0
 12 14  1  0
 13 24  2  0
 13 23  1  0
 14 19  2  0
 14 20  1  0
 15 25  1  0
 15 22  1  0
 16 22  1  0
 17 23  1  0
 18 17  1  0
 18 16  2  0
 19 18  1  0
 20 21  2  0
 21 16  1  0
 23 15  1  0
 25 26  1  0
 26 28  1  0
 27 25  2  0
 29 33  1  0
 29 38  1  0
 30 31  1  0
 30 26  1  0
 30 34  1  0
 31 32  1  0
 32 33  1  0
 34 29  2  0
 35 34  1  0
 35 36  2  0
 36 37  1  0
 37 38  2  0
 39 40  1  0
 39 13  1  0
 40 41  1  0
 41 42  2  0
 41 45  1  0
 43 40  1  0
 45 44  1  0
 46 47  1  0
 47 45  1  0
 47 48  1  0
 49 39  1  0
 49 50  1  1
 51 49  1  0
 52 49  1  0
 53 54  1  0
 55 56  1  0
 55 54  1  0
 57 59  1  0
 57 56  1  0
 58 59  1  0
 59 61  1  0
 60 58  2  0
 62 58  1  0
 62 63  2  0
 64 63  1  0
 64 73  1  0
 65 73  1  0
 65 72  2  0
 66 67  1  0
 66 71  1  0
 68 69  1  0
 68 67  1  0
 69 78  1  0
 70 69  1  0
 70 71  1  0
 71 65  1  0
 73 74  1  0
 75100  1  0
 76 75  2  0
 77 79  2  0
 77 76  1  0
 78 75  1  0
 79 78  1  0
 80 77  1  0
 81 80  2  0
 82 81  1  0
 83 82  2  0
 83 84  1  0
 84 85  2  0
 85 80  1  0
 86 83  1  0
 87 86  1  0
 88 87  1  0
 89 88  2  0
 90 91  2  0
 90 89  1  0
 91 92  1  0
 92 93  1  0
 92 87  2  0
 94 90  1  0
 95 76  1  0
 95 97  2  0
 96 95  1  0
 98 96  1  0
 99 96  1  0
100101  1  0
100102  1  0
M  ISO  4  11 101  12 101  65 100  73 100
M  END
>  <TORSDO>  (33) 
F 31

>  <SCORE>  (33) 
3.438

>  <name>  (33) 
32

>  <ligand_id>  (33) 
32

>  <original_smiles>  (33) 
[H]C(C(=O)N([H])C([H])([H])C([H])([H])C([H])([H])C([H])([H])C([H])([H])[N+]([H])([H])C([H])([H])C([H])([H])N([H])C([H])([H])C([H])([H])C([H])([H])C([H])([H])Oc1c([H])c([H])c2c(c1[H])C([H])([H])N(C(=O)C([H])(N([H])C(=O)C([H])(N([H])C([H])([H])[H])C([H])([H])[H])C(C([H])([H])[H])(C([H])([H])[H])C([H])([H])[H])C([H])(C(=O)N([H])C1([H])c3c([H])c([H])c([H])c([H])c3C([H])([H])C([H])([H])C1([H])[H])C2([H])[H])=C([H])C([H])([H])N([H])C(=O)N1C([H])([H])C([H])([H])C([H])([H])C([H])(n2nc(-c3c([H])c([H])c(Oc4c([H])c([H])c(F)c([H])c4F)c([H])c3[H])c(C(=O)N([H])[H])c2N([H])[H])C1([H])[H]

>  <smiles>  (33) 
[H]C(C(=O)N([H])C([H])([H])C([H])([H])C([H])([H])C([H])([H])C([H])([H])[N+]([H])([H])C([H])([H])C([H])([H])N([H])C([H])([H])C([H])([H])C([H])([H])C([H])([H])Oc1c([H])c([H])c2c(c1[H])C([H])([H])N(C(=O)C([H])(N([H])C(=O)C([H])(N([H])C([H])([H])[H])C([H])([H])[H])C(C([H])([H])[H])(C([H])([H])[H])C([H])([H])[H])C([H])(C(=O)N([H])C1([H])c3c([H])c([H])c([H])c([H])c3C([H])([H])C([H])([H])C1([H])[H])C2([H])[H])=C([H])C([H])([H])N([H])C(=O)N1C([H])([H])C([H])([H])C([H])([H])C([H])(n2nc(-c3c([H])c([H])c(Oc4c([H])c([H])c(F)c([H])c4F)c([H])c3[H])c(C(=O)N([H])[H])c2N([H])[H])C1([H])[H]

$$$$
33:0:0
     RDKit          3D

 93 96  0  0  1  0  0  0  0  0999 V2000
  -21.2880  -24.6950   19.6730 C   0  0  0  0  0  1  0  0  0  0  0  0
  -23.6240  -22.2030   19.7520 C   0  0  0  0  0  0  0  0  0  0  0  0
  -22.8820  -23.6500   19.6230 N   0  0  0  0  0  0  0  0  0  0  0  0
  -22.9290  -21.4410   20.4240 O   0  0  0  0  0  0  0  0  0  0  0  0
  -23.5740  -24.2510   19.1940 H   0  0  0  0  0  0  0  0  0  0  0  0
  -26.3590  -20.3740   19.1930 C   0  0  0  0  0  1  0  0  0  0  0  0
  -25.1330  -21.4510   19.1210 C   0  0  0  0  0  3  0  0  0  0  0  0
  -25.3180  -22.2070   17.8020 C   0  0  0  0  0  1  0  0  0  0  0  0
  -27.5750  -18.9690   19.8560 C   0  0  0  0  0  1  0  0  0  0  0  0
  -29.9390  -16.4350   19.4600 C   0  0  0  0  0  0  0  0  0  0  0  0
  -30.7810  -13.9310   18.7800 C   0  0  0  0  0  2  0  0  0  0  0  0
  -29.9410  -13.2400   17.6690 C   0  0  0  0  0  2  0  0  0  0  0  0
  -28.5530  -12.8350   18.1960 C   0  0  0  0  0  2  0  0  0  0  0  0
  -28.0070  -13.9000   19.1690 C   0  0  0  0  0  3  0  0  0  0  0  0
  -28.9820  -14.2200   20.2830 C   0  0  0  0  0  2  0  0  0  0  0  0
  -29.9410  -14.9830   19.5360 N   0  0  0  0  0  0  0  0  0  0  0  0
  -31.1620  -16.6920   19.2520 O   0  0  0  0  0  0  0  0  0  0  0  0
  -28.6200  -17.4070   19.5110 N   0  0  0  0  0  0  0  0  0  0  0  0
  -27.9570  -16.6590   19.5840 H   0  0  0  0  0  0  0  0  0  0  0  0
  -25.7860  -14.5470   20.1160 C   0  0  0  0  0  0  0  0  0  0  0  0
  -24.7380  -13.7990   20.5470 C   0  0  0  0  0  0  0  0  0  0  0  0
  -25.1550  -12.4370   20.4460 C   0  0  0  0  0  0  0  0  0  0  0  0
  -26.7390  -13.6230   19.7370 N   0  0  0  0  0  0  0  0  0  0  0  0
  -26.4020  -12.3490   20.0180 N   0  0  0  0  0  0  0  0  0  0  0  0
  -24.4140  -11.2020   20.6630 C   0  0  0  0  0  0  0  0  0  0  0  0
  -24.8040  -10.2700   21.6480 C   0  0  0  0  0  3  0  0  0  0  0  0
  -24.0500   -9.0930   21.8410 C   0  0  0  0  0  3  0  0  0  0  0  0
  -22.9040   -8.8510   21.0460 C   0  0  0  0  0  0  0  0  0  0  0  0
  -22.5450   -9.7710   20.0460 C   0  0  0  0  0  3  0  0  0  0  0  0
  -23.2970  -10.9380   19.8510 C   0  0  0  0  0  3  0  0  0  0  0  0
  -22.1210   -7.7280   21.1480 O   0  0  0  0  0  0  0  0  0  0  0  0
  -21.8680   -7.1400   22.3590 C   0  0  0  0  0  0  0  0  0  0  0  0
  -21.2640   -7.8470   23.4210 C   0  0  0  0  0  3  0  0  0  0  0  0
  -20.9550   -7.1830   24.6240 C   0  0  0  0  0  3  0  0  0  0  0  0
  -21.2430   -5.8110   24.7660 C   0  0  0  0  0  0  0  0  0  0  0  0
  -21.8450   -5.1050   23.7090 C   0  0  0  0  0  3  0  0  0  0  0  0
  -22.1540   -5.7680   22.5090 C   0  0  0  0  0  0  0  0  0  0  0  0
  -22.7120   -5.0770   21.4840 F   0  0  0  0  0  0  0  0  0  0  0  0
  -20.9420   -5.1710   25.9190 F   0  0  0  0  0  0  0  0  0  0  0  0
  -23.3950  -14.3250   20.9440 C   0  0  0  0  0  0  0  0  0  0  0  0
  -22.7350  -13.6640   21.8870 N   0  0  0  0  0  0  0  0  0  0  0  0
  -22.9440  -15.3560   20.4470 O   0  0  0  0  0  0  0  0  0  0  0  0
  -23.1210  -12.8360   22.3130 H   0  0  0  0  0  0  0  0  0  0  0  0
  -21.8340  -13.9990   22.2010 H   0  0  0  0  0  0  0  0  0  0  0  0
  -25.9740  -15.9260   20.0160 N   0  0  0  0  0  0  0  0  0  0  0  0
  -25.2040  -16.5290   20.2890 H   0  0  0  0  0  0  0  0  0  0  0  0
  -26.7890  -16.4640   19.7920 H   0  0  0  0  0  0  0  0  0  0  0  0
  -20.1730  -26.3420   20.6080 C   0  0  0  0  0  2  0  0  0  0  0  0
  -20.5140  -26.4950   23.0770 O   0  0  0  0  0  1  0  0  0  0  0  0
  -22.0150  -26.5800   24.0310 C   0  0  0  0  0  2  0  0  0  0  0  0
  -23.8640  -26.4460   23.6530 C   0  0  0  0  0  2  0  0  0  0  0  0
  -25.0080  -26.8900   22.2810 C   0  0  0  0  0  2  0  0  0  0  0  0
  -26.4460  -26.4940   21.5370 O   0  0  0  0  0  0  0  0  0  0  0  0
  -24.5780  -31.6930   23.3170 C   0  0  0  0  0  0  0  0  0  0  0  0
  -26.8720  -27.3050   20.4820 C   0  0  0  0  0  3  0  0  0  0  0  0
  -23.5670  -30.6770   21.3300 C   0  0  0  0  0  3  0  0  0  0  0  0
  -25.0270  -29.1970   19.8680 C   0  0  0  0  0  0  0  0  0  0  0  0
  -26.0620  -30.8470   21.4670 C   0  0  0  0  0  2  0  0  0  0  0  0
  -26.1160  -29.5480   20.6800 C   0  0  0  0  0  0  0  0  0  0  0  0
  -27.1520  -28.6270   20.8720 C   0  0  0  0  0  2  0  0  0  0  0  0
  -26.0770  -27.0740   19.3480 C   0  0  0  0  0  3  0  0  0  0  0  0
  -25.0340  -27.9960   19.1260 C   0  0  0  0  0  3  0  0  0  0  0  0
  -23.8900  -30.1790   19.8800 C   0  0  0  0  0  2  0  0  0  0  0  0
  -24.7490  -31.0970   22.0990 N   0  0  0  0  0  0  0  0  0  0  0  0
  -23.4520  -31.9000   23.8010 O   0  0  0  0  0  0  0  0  0  0  0  0
  -22.8910  -29.5620   22.0470 C   0  0  0  0  0  0  0  0  0  0  0  0
  -21.6510  -29.4850   21.6510 N   0  0  0  0  0  0  0  0  0  0  0  0
  -23.4310  -28.8100   22.8610 O   0  0  0  0  0  0  0  0  0  0  0  0
  -21.3050  -30.1220   20.9490 H   0  0  0  0  0  0  0  0  0  0  0  0
  -18.1640  -28.0360   23.0330 C   0  0  0  0  0  0  0  0  0  0  0  0
  -20.8970  -28.4160   21.9940 C   0  0  0  0  0  2  0  0  0  0  0  0
  -21.3430  -26.3850   21.2920 C   0  0  0  0  0  1  0  0  0  0  0  0
  -19.5750  -25.0670   21.9450 C   0  0  0  0  0  1  0  0  0  0  0  0
  -18.0390  -26.2620   22.6780 C   0  0  0  0  0  1  0  0  0  0  0  0
  -19.4110  -28.9010   22.8650 C   0  0  0  0  0  0  0  0  0  0  0  0
  -19.4740  -30.0620   23.7560 C   0  0  0  0  0  3  0  0  0  0  0  0
  -18.4060  -30.5880   24.5280 C   0  0  0  0  0  3  0  0  0  0  0  0
  -17.1560  -29.9720   24.4080 C   0  0  0  0  0  3  0  0  0  0  0  0
  -17.0610  -28.7300   23.6940 C   0  0  0  0  0  3  0  0  0  0  0  0
  -25.8030  -32.1710   24.1360 C   0  0  0  0  0  3  0  0  0  0  0  0
  -25.5870  -33.5900   24.4280 N   0  0  0  0  0  0  0  0  0  0  0  0
  -26.0620  -34.5860   23.6720 C   0  0  0  0  0  0  0  0  0  0  0  0
  -26.8130  -34.3980   22.7090 O   0  0  0  0  0  0  0  0  0  0  0  0
  -24.9350  -33.8110   25.1690 H   0  0  0  0  0  0  0  0  0  0  0  0
  -24.5720  -36.5170   23.0670 C   0  0  0  0  0  1  0  0  0  0  0  0
  -25.6440  -36.0190   24.0470 C   0  0  0  0  0  3  0  0  0  0  0  0
  -27.7230  -36.7050   25.1590 C   0  0  0  0  0  1  0  0  0  0  0  0
  -26.7770  -36.9700   24.0780 N   0  0  0  0  0  0  0  0  0  0  0  0
  -26.4410  -37.9250   24.1730 H   0  0  0  0  0  0  0  0  0  0  0  0
  -26.0510  -31.3470   25.4570 C   0  0  1  0  0  0  0  0  0  0  0  0
  -24.8140  -31.2440   26.3770 C   0  0  0  0  0  1  0  0  0  0  0  0
  -26.5130  -29.9100   25.1220 C   0  0  0  0  0  1  0  0  0  0  0  0
  -27.1950  -32.0040   26.2620 C   0  0  0  0  0  1  0  0  0  0  0  0
  2  4  2  0
  3  1  1  0
  3  2  1  0
  5  3  1  0
  7  6  1  0
  7  2  1  0
  8  7  1  0
 10 18  1  0
 10 16  1  0
 11 16  1  0
 12 13  1  0
 12 11  1  0
 14 13  1  0
 14 23  1  0
 14 15  1  0
 16 15  1  0
 17 10  2  0
 18 19  1  0
 18  9  1  0
 20 21  2  0
 21 40  1  0
 22 21  1  0
 22 25  1  0
 23 24  1  0
 23 20  1  0
 24 22  2  0
 25 26  1  0
 26 27  2  0
 28 31  1  0
 28 27  1  0
 29 28  2  0
 30 29  1  0
 30 25  2  0
 31 32  1  0
 32 37  2  0
 32 33  1  0
 33 34  2  0
 34 35  1  0
 35 39  1  0
 36 35  2  0
 37 36  1  0
 38 37  1  0
 40 41  1  0
 41 44  1  0
 41 43  1  0
 42 40  2  0
 45 20  1  0
 45 46  1  0
 47 45  1  0
 48 72  1  0
 48 73  1  0
 49 50  1  0
 51 50  1  0
 52 51  1  0
 53 52  1  0
 54 65  2  0
 55 60  1  0
 55 53  1  0
 56 66  1  0
 56 64  1  0
 57 63  1  0
 57 59  2  0
 58 64  1  0
 59 60  1  0
 59 58  1  0
 61 55  1  0
 62 61  2  0
 62 57  1  0
 63 56  1  0
 64 54  1  0
 66 68  2  0
 67 71  1  0
 67 66  1  0
 69 67  1  0
 70 79  1  0
 71 75  1  0
 74 70  1  0
 75 70  2  0
 75 76  1  0
 76 77  2  0
 78 77  1  0
 79 78  2  0
 80 54  1  0
 80 81  1  0
 80 90  1  0
 81 84  1  0
 82 86  1  0
 82 81  1  0
 83 82  2  0
 86 85  1  0
 86 88  1  0
 88 89  1  0
 88 87  1  0
 90 93  1  1
 90 91  1  0
 92 90  1  0
M  ISO  4  10 100  18 100  52 101  53 101
M  END
>  <TORSDO>  (34) 
F 24

>  <SCORE>  (34) 
-9.451

>  <name>  (34) 
33

>  <ligand_id>  (34) 
33

>  <original_smiles>  (34) 
[H]C(=C(C(=O)N([H])C([H])([H])C([H])([H])OC([H])([H])C([H])([H])C([H])([H])Oc1c([H])c([H])c2c(c1[H])C([H])([H])N(C(=O)C([H])(N([H])C(=O)C([H])(N([H])C([H])([H])[H])C([H])([H])[H])C(C([H])([H])[H])(C([H])([H])[H])C([H])([H])[H])C([H])(C(=O)N([H])C1([H])c3c([H])c([H])c([H])c([H])c3C([H])([H])C([H])([H])C1([H])[H])C2([H])[H])C([H])([H])[H])C([H])([H])N([H])C(=O)N1C([H])([H])C([H])([H])C([H])([H])C([H])(n2nc(-c3c([H])c([H])c(Oc4c([H])c([H])c(F)c([H])c4F)c([H])c3[H])c(C(=O)N([H])[H])c2N([H])[H])C1([H])[H]

>  <smiles>  (34) 
[H]C(=C(C(=O)N([H])C([H])([H])C([H])([H])OC([H])([H])C([H])([H])C([H])([H])Oc1c([H])c([H])c2c(c1[H])C([H])([H])N(C(=O)C([H])(N([H])C(=O)C([H])(N([H])C([H])([H])[H])C([H])([H])[H])C(C([H])([H])[H])(C([H])([H])[H])C([H])([H])[H])C([H])(C(=O)N([H])C1([H])c3c([H])c([H])c([H])c([H])c3C([H])([H])C([H])([H])C1([H])[H])C2([H])[H])C([H])([H])[H])C([H])([H])N([H])C(=O)N1C([H])([H])C([H])([H])C([H])([H])C([H])(n2nc(-c3c([H])c([H])c(Oc4c([H])c([H])c(F)c([H])c4F)c([H])c3[H])c(C(=O)N([H])[H])c2N([H])[H])C1([H])[H]

$$$$
34:0:0
     RDKit          3D

111118  0  0  1  0  0  0  0  0999 V2000
  -28.0050  -25.5710   28.7390 N   0  0  0  0  0  4  0  0  0  0  0  0
  -28.8380  -25.2300   29.1950 H   0  0  0  0  0  0  0  0  0  0  0  0
  -27.8230  -26.4850   29.1210 H   0  0  0  0  0  0  0  0  0  0  0  0
  -26.8970  -24.6690   29.1310 C   0  0  0  0  0  2  0  0  0  0  0  0
  -26.4710  -24.8010   30.6180 C   0  0  0  0  0  2  0  0  0  0  0  0
  -25.4550  -25.9200   30.9260 C   0  0  0  0  0  2  0  0  0  0  0  0
  -24.7450  -25.7380   32.2800 C   0  0  0  0  0  2  0  0  0  0  0  0
  -24.1420  -27.9550   33.2730 C   0  0  0  0  0  0  0  0  0  0  0  0
  -23.8500  -26.8610   32.5570 N   0  0  0  0  0  0  0  0  0  0  0  0
  -25.2280  -28.1050   33.8400 O   0  0  0  0  0  0  0  0  0  0  0  0
  -22.9280  -26.8200   32.1420 H   0  0  0  0  0  0  0  0  0  0  0  0
  -23.0630  -29.0470   33.3130 C   0  0  0  0  0  2  0  0  0  0  0  0
  -23.0950  -29.9950   34.5360 C   0  0  0  0  0  2  0  0  0  0  0  0
  -21.6690  -29.0860   36.3740 C   0  0  0  0  0  0  0  0  0  0  0  0
  -22.8600  -29.3050   35.8060 N   0  0  0  0  0  0  0  0  0  0  0  0
  -20.6060  -29.4690   35.8780 O   0  0  0  0  0  0  0  0  0  0  0  0
  -23.6760  -28.9630   36.2960 H   0  0  0  0  0  0  0  0  0  0  0  0
  -21.6870  -28.3000   37.6850 C   0  0  0  0  0  2  0  0  0  0  0  0
  -19.7000  -28.4690   39.1840 C   0  0  0  0  0  0  0  0  0  0  0  0
  -17.8670  -28.0790   40.7880 C   0  0  0  0  0  2  0  0  0  0  0  0
  -18.2440  -26.9320   41.7480 C   0  0  0  0  0  2  0  0  0  0  0  0
  -17.8870  -25.5610   41.1420 C   0  0  0  0  0  2  0  0  0  0  0  0
  -18.3960  -25.4030   39.6840 C   0  0  0  0  0  3  0  0  0  0  0  0
  -18.0040  -26.6360   38.8410 C   0  0  0  0  0  2  0  0  0  0  0  0
  -18.5420  -27.8380   39.5050 N   0  0  0  0  0  0  0  0  0  0  0  0
  -20.1750  -29.4020   39.8420 O   0  0  0  0  0  0  0  0  0  0  0  0
  -20.3470  -27.9420   38.1420 N   0  0  0  0  0  0  0  0  0  0  0  0
  -19.8690  -27.2200   37.6270 H   0  0  0  0  0  0  0  0  0  0  0  0
  -18.6370  -23.1100   38.5340 C   0  0  0  0  0  0  0  0  0  0  0  0
  -17.7110  -22.1670   38.1740 C   0  0  0  0  0  0  0  0  0  0  0  0
  -16.4390  -22.7030   38.5410 C   0  0  0  0  0  0  0  0  0  0  0  0
  -17.9160  -24.1600   39.0820 N   0  0  0  0  0  0  0  0  0  0  0  0
  -16.5790  -23.9250   39.0370 N   0  0  0  0  0  0  0  0  0  0  0  0
  -15.1000  -22.1000   38.5020 C   0  0  0  0  0  0  0  0  0  0  0  0
  -14.0140  -22.7570   37.8830 C   0  0  0  0  0  3  0  0  0  0  0  0
  -12.7390  -22.1510   37.8440 C   0  0  0  0  0  3  0  0  0  0  0  0
  -12.5430  -20.8750   38.4220 C   0  0  0  0  0  0  0  0  0  0  0  0
  -13.6230  -20.2360   39.0570 C   0  0  0  0  0  3  0  0  0  0  0  0
  -14.8880  -20.8430   39.1000 C   0  0  0  0  0  3  0  0  0  0  0  0
  -11.3350  -20.2200   38.4530 O   0  0  0  0  0  0  0  0  0  0  0  0
  -10.3660  -20.4510   37.5090 C   0  0  0  0  0  0  0  0  0  0  0  0
  -10.6200  -20.2930   36.1290 C   0  0  0  0  0  3  0  0  0  0  0  0
   -9.5770  -20.4730   35.1970 C   0  0  0  0  0  3  0  0  0  0  0  0
   -8.2820  -20.7990   35.6420 C   0  0  0  0  0  0  0  0  0  0  0  0
   -8.0270  -20.9520   37.0170 C   0  0  0  0  0  3  0  0  0  0  0  0
   -9.0670  -20.7750   37.9480 C   0  0  0  0  0  0  0  0  0  0  0  0
   -8.8120  -20.9020   39.2720 F   0  0  0  0  0  0  0  0  0  0  0  0
   -7.2790  -20.9640   34.7490 F   0  0  0  0  0  0  0  0  0  0  0  0
  -17.9940  -20.8050   37.6080 C   0  0  0  0  0  0  0  0  0  0  0  0
  -17.0900  -20.2820   36.7850 N   0  0  0  0  0  0  0  0  0  0  0  0
  -19.0430  -20.2140   37.8550 O   0  0  0  0  0  0  0  0  0  0  0  0
  -16.2370  -20.7760   36.5660 H   0  0  0  0  0  0  0  0  0  0  0  0
  -17.2530  -19.3760   36.3690 H   0  0  0  0  0  0  0  0  0  0  0  0
  -20.0250  -23.1550   38.4560 N   0  0  0  0  0  0  0  0  0  0  0  0
  -20.5740  -22.3760   38.1080 H   0  0  0  0  0  0  0  0  0  0  0  0
  -20.5940  -23.9170   38.8060 H   0  0  0  0  0  0  0  0  0  0  0  0
  -28.3070  -25.6570   27.2910 C   0  0  0  0  0  2  0  0  0  0  0  0
  -29.0470  -26.9680   26.9500 C   0  0  0  0  0  2  0  0  0  0  0  0
  -29.3390  -27.2030   25.4430 C   0  0  0  0  0  2  0  0  0  0  0  0
  -28.1930  -27.7090   24.6400 N   0  0  0  0  0  4  0  0  0  0  0  0
  -27.3130  -27.5130   25.0900 H   0  0  0  0  0  0  0  0  0  0  0  0
  -28.1870  -27.1550   23.7960 H   0  0  0  0  0  0  0  0  0  0  0  0
  -28.2290  -29.1240   24.1780 C   0  0  0  0  0  2  0  0  0  0  0  0
  -28.0290  -30.1640   25.3030 C   0  0  0  0  0  2  0  0  0  0  0  0
  -27.9190  -31.6280   24.8300 C   0  0  0  0  0  2  0  0  0  0  0  0
  -27.6910  -32.5240   25.9840 N   0  0  0  0  0  4  0  0  0  0  0  0
  -26.9590  -32.8020   25.3470 H   0  0  0  0  0  0  0  0  0  0  0  0
  -28.6980  -32.5400   25.9320 H   0  0  0  0  0  0  0  0  0  0  0  0
  -27.8640  -33.9940   25.9970 C   0  0  0  0  0  2  0  0  0  0  0  0
  -28.4860  -34.4850   27.3150 C   0  0  0  0  0  2  0  0  0  0  0  0
  -28.3920  -35.9090   27.3960 O   0  0  0  0  0  0  0  0  0  0  0  0
  -27.5800  -34.6700   34.3510 C   0  0  0  0  0  0  0  0  0  0  0  0
  -28.0610  -36.4010   28.6370 C   0  0  0  0  0  0  0  0  0  0  0  0
  -26.5970  -36.7800   33.5080 C   0  0  0  0  0  3  0  0  0  0  0  0
  -27.2720  -37.4440   31.1400 C   0  0  0  0  0  0  0  0  0  0  0  0
  -28.6380  -35.7510   32.3760 C   0  0  0  0  0  2  0  0  0  0  0  0
  -28.1440  -36.3520   31.0800 C   0  0  0  0  0  0  0  0  0  0  0  0
  -28.5480  -35.8330   29.8360 C   0  0  0  0  0  3  0  0  0  0  0  0
  -27.1970  -37.5130   28.7080 C   0  0  0  0  0  3  0  0  0  0  0  0
  -26.7940  -38.0320   29.9550 C   0  0  0  0  0  3  0  0  0  0  0  0
  -26.9010  -37.9400   32.5190 C   0  0  0  0  0  2  0  0  0  0  0  0
  -27.6010  -35.6700   33.4270 N   0  0  0  0  0  0  0  0  0  0  0  0
  -26.7760  -34.6850   35.2940 O   0  0  0  0  0  0  0  0  0  0  0  0
  -25.1440  -36.3080   33.2790 C   0  0  0  0  0  0  0  0  0  0  0  0
  -24.1870  -37.0060   33.9100 N   0  0  0  0  0  0  0  0  0  0  0  0
  -24.8980  -35.3600   32.5290 O   0  0  0  0  0  0  0  0  0  0  0  0
  -24.4720  -37.7660   34.5110 H   0  0  0  0  0  0  0  0  0  0  0  0
  -20.9760  -38.0800   35.1620 C   0  0  0  0  0  0  0  0  0  0  0  0
  -22.7470  -36.7710   33.8130 C   0  0  0  0  0  3  0  0  0  0  0  0
  -22.1560  -37.4590   32.5610 C   0  0  0  0  0  2  0  0  0  0  0  0
  -21.6190  -38.8660   32.8450 C   0  0  0  0  0  2  0  0  0  0  0  0
  -20.5220  -38.8160   33.9120 C   0  0  0  0  0  2  0  0  0  0  0  0
  -22.0310  -37.1320   35.1180 C   0  0  0  0  0  0  0  0  0  0  0  0
  -22.4370  -36.5040   36.3160 C   0  0  0  0  0  3  0  0  0  0  0  0
  -21.8070  -36.8080   37.5380 C   0  0  0  0  0  3  0  0  0  0  0  0
  -20.7530  -37.7370   37.5710 C   0  0  0  0  0  3  0  0  0  0  0  0
  -20.3380  -38.3690   36.3860 C   0  0  0  0  0  3  0  0  0  0  0  0
  -28.5800  -33.4730   34.2890 C   0  0  0  0  0  3  0  0  0  0  0  0
  -29.0010  -33.1740   35.6640 N   0  0  0  0  0  0  0  0  0  0  0  0
  -30.1230  -33.6350   36.2310 C   0  0  0  0  0  0  0  0  0  0  0  0
  -30.9570  -34.3080   35.6180 O   0  0  0  0  0  0  0  0  0  0  0  0
  -28.3400  -32.6790   36.2420 H   0  0  0  0  0  0  0  0  0  0  0  0
  -29.9770  -34.5100   38.5830 C   0  0  0  0  0  1  0  0  0  0  0  0
  -30.3570  -33.3000   37.7150 C   0  0  0  0  0  3  0  0  0  0  0  0
  -32.0950  -31.5850   37.4520 C   0  0  0  0  0  1  0  0  0  0  0  0
  -31.7460  -32.8890   38.0140 N   0  0  0  0  0  0  0  0  0  0  0  0
  -31.9040  -32.8540   39.0170 H   0  0  0  0  0  0  0  0  0  0  0  0
  -27.9770  -32.1900   33.5960 C   0  0  1  0  0  0  0  0  0  0  0  0
  -26.6130  -31.7500   34.1810 C   0  0  0  0  0  1  0  0  0  0  0  0
  -27.7820  -32.4340   32.0820 C   0  0  0  0  0  1  0  0  0  0  0  0
  -28.9610  -31.0060   33.7340 C   0  0  0  0  0  1  0  0  0  0  0  0
  1  3  1  0
  1  4  1  0
  1  2  1  0
  4  5  1  0
  5  6  1  0
  6  7  1  0
  7  9  1  0
  8 12  1  0
  8 10  2  0
  9  8  1  0
 11  9  1  0
 12 13  1  0
 13 15  1  0
 14 18  1  0
 15 17  1  0
 15 14  1  0
 16 14  2  0
 18 27  1  0
 19 25  1  0
 19 26  2  0
 20 21  1  0
 22 21  1  0
 23 24  1  0
 23 22  1  0
 24 25  1  0
 25 20  1  0
 27 19  1  0
 28 27  1  0
 29 32  1  0
 30 29  2  0
 30 31  1  0
 31 33  2  0
 32 23  1  0
 33 32  1  0
 34 31  1  0
 34 39  1  0
 35 34  2  0
 36 35  1  0
 36 37  2  0
 37 40  1  0
 37 38  1  0
 38 39  2  0
 41 46  1  0
 41 40  1  0
 42 41  2  0
 43 44  2  0
 43 42  1  0
 44 45  1  0
 45 46  2  0
 46 47  1  0
 48 44  1  0
 49 51  2  0
 49 30  1  0
 50 49  1  0
 52 50  1  0
 53 50  1  0
 54 29  1  0
 54 56  1  0
 55 54  1  0
 57  1  1  0
 58 57  1  0
 59 58  1  0
 60 61  1  0
 60 59  1  0
 62 60  1  0
 63 60  1  0
 63 64  1  0
 65 64  1  0
 65 66  1  0
 66 69  1  0
 67 66  1  0
 68 66  1  0
 69 70  1  0
 70 71  1  0
 71 73  1  0
 72 83  2  0
 73 79  2  0
 73 78  1  0
 74 84  1  0
 75 81  1  0
 76 82  1  0
 77 75  1  0
 77 76  1  0
 78 77  2  0
 79 80  1  0
 80 75  2  0
 81 74  1  0
 82 74  1  0
 82 72  1  0
 84 85  1  0
 85 87  1  0
 86 84  2  0
 88 97  1  0
 89 85  1  0
 89 93  1  0
 90 91  1  0
 90 89  1  0
 91 92  1  0
 92 88  1  0
 93 88  2  0
 93 94  1  0
 94 95  2  0
 95 96  1  0
 97 96  2  0
 98 72  1  0
 98 99  1  0
 99100  1  0
 99102  1  0
100104  1  0
101100  2  0
104106  1  0
104103  1  0
105106  1  0
106107  1  0
108111  1  6
108109  1  0
108 98  1  0
110108  1  0
M  ISO  4  19 100  27 100  70 101  71 101
M  END
>  <TORSDO>  (35) 
F 35

>  <SCORE>  (35) 
6.532

>  <name>  (35) 
34

>  <ligand_id>  (35) 
34

>  <original_smiles>  (35) 
[H]c1c([H])c([H])c2c(c1[H])C([H])([H])C([H])([H])C([H])([H])C2([H])N([H])C(=O)C1([H])N(C(=O)C([H])(N([H])C(=O)C([H])(N([H])C([H])([H])[H])C([H])([H])[H])C(C([H])([H])[H])(C([H])([H])[H])C([H])([H])[H])C([H])([H])c2c([H])c(OC([H])([H])C([H])([H])[N+]([H])([H])C([H])([H])C([H])([H])C([H])([H])[N+]([H])([H])C([H])([H])C([H])([H])C([H])([H])[N+]([H])([H])C([H])([H])C([H])([H])C([H])([H])C([H])([H])N([H])C(=O)C([H])([H])C([H])([H])N([H])C(=O)C([H])([H])N([H])C(=O)N3C([H])([H])C([H])([H])C([H])([H])C([H])(n4nc(-c5c([H])c([H])c(Oc6c([H])c([H])c(F)c([H])c6F)c([H])c5[H])c(C(=O)N([H])[H])c4N([H])[H])C3([H])[H])c([H])c([H])c2C1([H])[H]

>  <smiles>  (35) 
[H]c1c([H])c([H])c2c(c1[H])C([H])([H])C([H])([H])C([H])([H])C2([H])N([H])C(=O)C1([H])N(C(=O)C([H])(N([H])C(=O)C([H])(N([H])C([H])([H])[H])C([H])([H])[H])C(C([H])([H])[H])(C([H])([H])[H])C([H])([H])[H])C([H])([H])c2c([H])c(OC([H])([H])C([H])([H])[N+]([H])([H])C([H])([H])C([H])([H])C([H])([H])[N+]([H])([H])C([H])([H])C([H])([H])C([H])([H])[N+]([H])([H])C([H])([H])C([H])([H])C([H])([H])C([H])([H])N([H])C(=O)C([H])([H])C([H])([H])N([H])C(=O)C([H])([H])N([H])C(=O)N3C([H])([H])C([H])([H])C([H])([H])C([H])(n4nc(-c5c([H])c([H])c(Oc6c([H])c([H])c(F)c([H])c6F)c([H])c5[H])c(C(=O)N([H])[H])c4N([H])[H])C3([H])[H])c([H])c([H])c2C1([H])[H]

$$$$
35:0:0
     RDKit          3D

101108  0  0  1  0  0  0  0  0999 V2000
  -25.5570  -19.5330   19.7770 C   0  0  0  0  0  2  0  0  0  0  0  0
  -26.3010  -20.8220   19.3800 C   0  0  0  0  0  2  0  0  0  0  0  0
  -25.8600  -21.3640   18.0090 C   0  0  0  0  0  2  0  0  0  0  0  0
  -26.2800  -22.8240   17.7370 C   0  0  0  0  0  2  0  0  0  0  0  0
  -27.7470  -23.0190   17.8040 N   0  0  0  0  0  4  0  0  0  0  0  0
  -28.0060  -23.5700   17.0040 H   0  0  0  0  0  0  0  0  0  0  0  0
  -28.2130  -22.1310   17.7070 H   0  0  0  0  0  0  0  0  0  0  0  0
  -28.2190  -23.7330   19.0150 C   0  0  0  0  0  2  0  0  0  0  0  0
  -29.6660  -24.2450   18.8820 C   0  0  0  0  0  2  0  0  0  0  0  0
  -29.9770  -25.4470   19.7970 C   0  0  0  0  0  2  0  0  0  0  0  0
  -29.7990  -26.6820   19.1030 O   0  0  0  0  0  0  0  0  0  0  0  0
  -25.1030  -30.2970   23.0240 C   0  0  0  0  0  0  0  0  0  0  0  0
  -28.5430  -27.2200   19.1890 C   0  0  0  0  0  0  0  0  0  0  0  0
  -24.2260  -29.2960   20.9360 C   0  0  0  0  0  3  0  0  0  0  0  0
  -25.9780  -28.3800   19.3250 C   0  0  0  0  0  0  0  0  0  0  0  0
  -26.6850  -29.9540   21.1360 C   0  0  0  0  0  2  0  0  0  0  0  0
  -26.9980  -28.8310   20.1720 C   0  0  0  0  0  0  0  0  0  0  0  0
  -28.2830  -28.2530   20.1100 C   0  0  0  0  0  3  0  0  0  0  0  0
  -27.5200  -26.7920   18.3190 C   0  0  0  0  0  3  0  0  0  0  0  0
  -26.2310  -27.3580   18.3920 C   0  0  0  0  0  3  0  0  0  0  0  0
  -24.6320  -29.0530   19.4580 C   0  0  0  0  0  2  0  0  0  0  0  0
  -25.3480  -29.8480   21.7600 N   0  0  0  0  0  0  0  0  0  0  0  0
  -23.9560  -30.2970   23.4900 O   0  0  0  0  0  0  0  0  0  0  0  0
  -23.6360  -27.9880   21.5060 C   0  0  0  0  0  0  0  0  0  0  0  0
  -22.3540  -27.7280   21.2040 N   0  0  0  0  0  0  0  0  0  0  0  0
  -24.3320  -27.2180   22.1740 O   0  0  0  0  0  0  0  0  0  0  0  0
  -21.8510  -28.4070   20.6490 H   0  0  0  0  0  0  0  0  0  0  0  0
  -19.1160  -26.1590   21.0330 C   0  0  0  0  0  0  0  0  0  0  0  0
  -21.6070  -26.5350   21.5950 C   0  0  0  0  0  3  0  0  0  0  0  0
  -21.8960  -25.3580   20.6380 C   0  0  0  0  0  2  0  0  0  0  0  0
  -20.9080  -25.2900   19.4700 C   0  0  0  0  0  2  0  0  0  0  0  0
  -19.4770  -25.1140   19.9940 C   0  0  0  0  0  2  0  0  0  0  0  0
  -20.1170  -26.8460   21.7680 C   0  0  0  0  0  0  0  0  0  0  0  0
  -19.7350  -27.8490   22.6870 C   0  0  0  0  0  3  0  0  0  0  0  0
  -18.3750  -28.1640   22.8760 C   0  0  0  0  0  3  0  0  0  0  0  0
  -17.3850  -27.4630   22.1650 C   0  0  0  0  0  3  0  0  0  0  0  0
  -17.7550  -26.4580   21.2510 C   0  0  0  0  0  3  0  0  0  0  0  0
  -26.2470  -30.8520   23.9300 C   0  0  0  0  0  3  0  0  0  0  0  0
  -25.8180  -32.1630   24.4300 N   0  0  0  0  0  0  0  0  0  0  0  0
  -26.2470  -33.3350   23.9470 C   0  0  0  0  0  0  0  0  0  0  0  0
  -27.1100  -33.4260   23.0710 O   0  0  0  0  0  0  0  0  0  0  0  0
  -25.0770  -32.1630   25.1130 H   0  0  0  0  0  0  0  0  0  0  0  0
  -24.5900  -35.1790   23.5310 C   0  0  0  0  0  1  0  0  0  0  0  0
  -25.6150  -34.6120   24.5280 C   0  0  0  0  0  3  0  0  0  0  0  0
  -27.4430  -35.3010   26.0120 C   0  0  0  0  0  1  0  0  0  0  0  0
  -26.6050  -35.6550   24.8700 N   0  0  0  0  0  0  0  0  0  0  0  0
  -26.1440  -36.5370   25.0790 H   0  0  0  0  0  0  0  0  0  0  0  0
  -26.6160  -29.8910   25.1250 C   0  0  1  0  0  0  0  0  0  0  0  0
  -25.3950  -29.4450   25.9680 C   0  0  0  0  0  1  0  0  0  0  0  0
  -27.3180  -28.6150   24.6020 C   0  0  0  0  0  1  0  0  0  0  0  0
  -27.6260  -30.5850   26.0690 C   0  0  0  0  0  1  0  0  0  0  0  0
  -26.4620  -18.4740   20.4360 C   0  0  0  0  0  2  0  0  0  0  0  0
  -27.2600  -17.7300   19.4400 N   0  0  0  0  0  4  0  0  0  0  0  0
  -27.6530  -18.3720   18.7700 H   0  0  0  0  0  0  0  0  0  0  0  0
  -26.6520  -17.1010   18.9230 H   0  0  0  0  0  0  0  0  0  0  0  0
  -28.3410  -16.8920   20.0110 C   0  0  0  0  0  2  0  0  0  0  0  0
  -29.7480  -17.1620   19.4000 C   0  0  0  0  0  3  0  0  0  0  0  0
  -30.0330  -16.3180   18.1410 C   0  0  0  0  0  0  0  0  0  0  0  0
  -30.7850  -16.8500   17.1850 N   0  0  0  0  0  0  0  0  0  0  0  0
  -29.5260  -15.2070   17.9960 O   0  0  0  0  0  0  0  0  0  0  0  0
  -31.1980  -17.7660   17.2870 H   0  0  0  0  0  0  0  0  0  0  0  0
  -30.9620  -16.3300   16.3350 H   0  0  0  0  0  0  0  0  0  0  0  0
  -30.8810  -17.0490   20.4660 C   0  0  0  0  0  2  0  0  0  0  0  0
  -31.6870  -14.7750   21.2290 C   0  0  0  0  0  0  0  0  0  0  0  0
  -31.8380  -12.3430   21.6190 C   0  0  0  0  0  2  0  0  0  0  0  0
  -31.3030  -11.5700   20.3940 C   0  0  0  0  0  2  0  0  0  0  0  0
  -29.7710  -11.4070   20.4640 C   0  0  0  0  0  2  0  0  0  0  0  0
  -29.0460  -12.7420   20.7650 C   0  0  0  0  0  3  0  0  0  0  0  0
  -29.6940  -13.4340   21.9850 C   0  0  0  0  0  2  0  0  0  0  0  0
  -31.1320  -13.6290   21.6990 N   0  0  0  0  0  0  0  0  0  0  0  0
  -32.8420  -14.8590   20.7980 O   0  0  0  0  0  0  0  0  0  0  0  0
  -30.8310  -15.8090   21.2410 N   0  0  0  0  0  0  0  0  0  0  0  0
  -29.9770  -15.6250   21.7420 H   0  0  0  0  0  0  0  0  0  0  0  0
  -26.5710  -13.4680   20.8460 C   0  0  0  0  0  0  0  0  0  0  0  0
  -25.4210  -12.7580   21.0810 C   0  0  0  0  0  0  0  0  0  0  0  0
  -25.8320  -11.4080   21.2960 C   0  0  0  0  0  0  0  0  0  0  0  0
  -27.6100  -12.5550   20.9570 N   0  0  0  0  0  0  0  0  0  0  0  0
  -27.1550  -11.3190   21.2780 N   0  0  0  0  0  0  0  0  0  0  0  0
  -25.0430  -10.1810   21.4570 C   0  0  0  0  0  0  0  0  0  0  0  0
  -24.9780   -9.5030   22.6950 C   0  0  0  0  0  3  0  0  0  0  0  0
  -24.1970   -8.3350   22.8300 C   0  0  0  0  0  3  0  0  0  0  0  0
  -23.4670   -7.8390   21.7250 C   0  0  0  0  0  0  0  0  0  0  0  0
  -23.5540   -8.5030   20.4890 C   0  0  0  0  0  3  0  0  0  0  0  0
  -24.3360   -9.6620   20.3550 C   0  0  0  0  0  3  0  0  0  0  0  0
  -22.7030   -6.6950   21.7560 O   0  0  0  0  0  0  0  0  0  0  0  0
  -21.8860   -6.4070   22.8190 C   0  0  0  0  0  0  0  0  0  0  0  0
  -20.8080   -7.2450   23.1800 C   0  0  0  0  0  3  0  0  0  0  0  0
  -19.9500   -6.8750   24.2350 C   0  0  0  0  0  3  0  0  0  0  0  0
  -20.1600   -5.6650   24.9230 C   0  0  0  0  0  0  0  0  0  0  0  0
  -21.2290   -4.8270   24.5610 C   0  0  0  0  0  3  0  0  0  0  0  0
  -22.0870   -5.1950   23.5110 C   0  0  0  0  0  0  0  0  0  0  0  0
  -23.1030   -4.3740   23.1540 F   0  0  0  0  0  0  0  0  0  0  0  0
  -19.3320   -5.3050   25.9320 F   0  0  0  0  0  0  0  0  0  0  0  0
  -24.0170  -13.2790   20.9980 C   0  0  0  0  0  0  0  0  0  0  0  0
  -23.0940  -12.6800   21.7470 N   0  0  0  0  0  0  0  0  0  0  0  0
  -23.7380  -14.2540   20.3030 O   0  0  0  0  0  0  0  0  0  0  0  0
  -23.3240  -11.8950   22.3400 H   0  0  0  0  0  0  0  0  0  0  0  0
  -22.1420  -13.0190   21.7320 H   0  0  0  0  0  0  0  0  0  0  0  0
  -26.8060  -14.7990   20.5080 N   0  0  0  0  0  0  0  0  0  0  0  0
  -25.9850  -15.1380   20.0120 H   0  0  0  0  0  0  0  0  0  0  0  0
  -27.6260  -14.8690   19.9110 H   0  0  0  0  0  0  0  0  0  0  0  0
  1 52  1  0
  2  1  1  0
  3  2  1  0
  4  5  1  0
  4  3  1  0
  5  8  1  0
  6  5  1  0
  7  5  1  0
  9  8  1  0
  9 10  1  0
 11 13  1  0
 11 10  1  0
 12 23  2  0
 13 18  1  0
 14 24  1  0
 14 22  1  0
 15 21  1  0
 15 17  1  0
 16 22  1  0
 17 16  1  0
 18 17  2  0
 19 20  1  0
 19 13  2  0
 20 15  2  0
 21 14  1  0
 22 12  1  0
 24 26  2  0
 25 24  1  0
 27 25  1  0
 28 37  2  0
 28 33  1  0
 29 25  1  0
 29 33  1  0
 30 29  1  0
 31 32  1  0
 31 30  1  0
 32 28  1  0
 33 34  2  0
 34 35  1  0
 36 35  2  0
 37 36  1  0
 38 12  1  0
 38 39  1  0
 38 48  1  0
 39 42  1  0
 40 39  1  0
 40 44  1  0
 41 40  2  0
 44 43  1  0
 44 46  1  0
 46 47  1  0
 46 45  1  0
 48 49  1  1
 48 51  1  0
 50 48  1  0
 53 56  1  0
 53 52  1  0
 54 53  1  0
 55 53  1  0
 57 56  1  0
 57 63  1  0
 58 57  1  0
 59 61  1  0
 59 58  1  0
 60 58  2  0
 62 59  1  0
 63 72  1  0
 64 72  1  0
 64 70  1  0
 65 70  1  0
 66 67  1  0
 66 65  1  0
 68 67  1  0
 68 77  1  0
 68 69  1  0
 70 69  1  0
 71 64  2  0
 72 73  1  0
 74 77  1  0
 74 75  2  0
 75 76  1  0
 76 79  1  0
 77 78  1  0
 78 76  2  0
 79 80  1  0
 80 81  2  0
 82 85  1  0
 82 81  1  0
 83 82  2  0
 84 83  1  0
 84 79  2  0
 85 86  1  0
 86 87  2  0
 86 91  1  0
 87 88  1  0
 88 89  2  0
 89 93  1  0
 90 89  1  0
 91 90  2  0
 92 91  1  0
 94 75  1  0
 94 95  1  0
 95 97  1  0
 96 94  2  0
 98 95  1  0
 99 74  1  0
100 99  1  0
101 99  1  0
M  ISO  4  10 101  11 101  64 100  72 100
M  END
>  <TORSDO>  (36) 
F 29

>  <SCORE>  (36) 
-2.478

>  <name>  (36) 
35

>  <ligand_id>  (36) 
35

>  <original_smiles>  (36) 
[H]c1c([H])c([H])c2c(c1[H])C([H])([H])C([H])([H])C([H])([H])C2([H])N([H])C(=O)C1([H])N(C(=O)C([H])(N([H])C(=O)C([H])(N([H])C([H])([H])[H])C([H])([H])[H])C(C([H])([H])[H])(C([H])([H])[H])C([H])([H])[H])C([H])([H])c2c([H])c(OC([H])([H])C([H])([H])C([H])([H])[N+]([H])([H])C([H])([H])C([H])([H])C([H])([H])C([H])([H])C([H])([H])[N+]([H])([H])C([H])([H])C([H])(C(=O)N([H])[H])C([H])([H])N([H])C(=O)N3C([H])([H])C([H])([H])C([H])([H])C([H])(n4nc(-c5c([H])c([H])c(Oc6c([H])c([H])c(F)c([H])c6F)c([H])c5[H])c(C(=O)N([H])[H])c4N([H])[H])C3([H])[H])c([H])c([H])c2C1([H])[H]

>  <smiles>  (36) 
[H]c1c([H])c([H])c2c(c1[H])C([H])([H])C([H])([H])C([H])([H])C2([H])N([H])C(=O)C1([H])N(C(=O)C([H])(N([H])C(=O)C([H])(N([H])C([H])([H])[H])C([H])([H])[H])C(C([H])([H])[H])(C([H])([H])[H])C([H])([H])[H])C([H])([H])c2c([H])c(OC([H])([H])C([H])([H])C([H])([H])[N+]([H])([H])C([H])([H])C([H])([H])C([H])([H])C([H])([H])C([H])([H])[N+]([H])([H])C([H])([H])C([H])(C(=O)N([H])[H])C([H])([H])N([H])C(=O)N3C([H])([H])C([H])([H])C([H])([H])C([H])(n4nc(-c5c([H])c([H])c(Oc6c([H])c([H])c(F)c([H])c6F)c([H])c5[H])c(C(=O)N([H])[H])c4N([H])[H])C3([H])[H])c([H])c([H])c2C1([H])[H]

$$$$
36:0:0
     RDKit          3D

100107  0  0  1  0  0  0  0  0999 V2000
  -28.9060  -21.4900   26.3940 C   0  0  0  0  0  2  0  0  0  0  0  0
  -29.1420  -22.6640   25.4320 C   0  0  0  0  0  2  0  0  0  0  0  0
  -28.0350  -23.7270   25.5130 C   0  0  0  0  0  2  0  0  0  0  0  0
  -28.3060  -24.9740   24.6520 C   0  0  0  0  0  2  0  0  0  0  0  0
  -28.2920  -24.6780   23.2020 N   0  0  0  0  0  4  0  0  0  0  0  0
  -27.4430  -24.1780   22.9880 H   0  0  0  0  0  0  0  0  0  0  0  0
  -29.0700  -24.0730   22.9870 H   0  0  0  0  0  0  0  0  0  0  0  0
  -28.3680  -25.8890   22.3540 C   0  0  0  0  0  2  0  0  0  0  0  0
  -28.3740  -25.5600   20.8460 C   0  0  0  0  0  2  0  0  0  0  0  0
  -28.4070  -26.7630   20.0780 O   0  0  0  0  0  0  0  0  0  0  0  0
  -24.6100  -31.8710   23.2120 C   0  0  0  0  0  0  0  0  0  0  0  0
  -27.2350  -27.4770   20.0850 C   0  0  0  0  0  0  0  0  0  0  0  0
  -23.3950  -30.4950   21.5520 C   0  0  0  0  0  3  0  0  0  0  0  0
  -24.8410  -28.9620   20.1170 C   0  0  0  0  0  0  0  0  0  0  0  0
  -25.9200  -30.8500   21.3580 C   0  0  0  0  0  2  0  0  0  0  0  0
  -25.9990  -29.4860   20.7060 C   0  0  0  0  0  0  0  0  0  0  0  0
  -27.2010  -28.7520   20.6860 C   0  0  0  0  0  3  0  0  0  0  0  0
  -26.0650  -26.9540   19.4950 C   0  0  0  0  0  3  0  0  0  0  0  0
  -24.8670  -27.6930   19.5100 C   0  0  0  0  0  3  0  0  0  0  0  0
  -23.6010  -29.8240   20.1670 C   0  0  0  0  0  2  0  0  0  0  0  0
  -24.6600  -31.0850   22.0990 N   0  0  0  0  0  0  0  0  0  0  0  0
  -23.5310  -32.1440   23.7550 O   0  0  0  0  0  0  0  0  0  0  0  0
  -22.7380  -29.4680   22.5020 C   0  0  0  0  0  0  0  0  0  0  0  0
  -21.4120  -29.3030   22.3760 N   0  0  0  0  0  0  0  0  0  0  0  0
  -23.4180  -28.8220   23.3030 O   0  0  0  0  0  0  0  0  0  0  0  0
  -20.9260  -29.8750   21.6990 H   0  0  0  0  0  0  0  0  0  0  0  0
  -18.0270  -28.1370   22.8510 C   0  0  0  0  0  0  0  0  0  0  0  0
  -20.5850  -28.3650   23.1340 C   0  0  0  0  0  3  0  0  0  0  0  0
  -20.6760  -26.9390   22.5430 C   0  0  0  0  0  2  0  0  0  0  0  0
  -19.5740  -26.6390   21.5220 C   0  0  0  0  0  2  0  0  0  0  0  0
  -18.1920  -26.7930   22.1630 C   0  0  0  0  0  2  0  0  0  0  0  0
  -19.1520  -28.8830   23.2930 C   0  0  0  0  0  0  0  0  0  0  0  0
  -18.9450  -30.1440   23.8920 C   0  0  0  0  0  3  0  0  0  0  0  0
  -17.6450  -30.6590   24.0570 C   0  0  0  0  0  3  0  0  0  0  0  0
  -16.5350  -29.9100   23.6320 C   0  0  0  0  0  3  0  0  0  0  0  0
  -16.7260  -28.6510   23.0350 C   0  0  0  0  0  3  0  0  0  0  0  0
  -25.9010  -32.4840   23.8400 C   0  0  0  0  0  3  0  0  0  0  0  0
  -25.5880  -33.8640   24.2340 N   0  0  0  0  0  0  0  0  0  0  0  0
  -25.9030  -34.9490   23.5140 C   0  0  0  0  0  0  0  0  0  0  0  0
  -26.5600  -34.8930   22.4700 O   0  0  0  0  0  0  0  0  0  0  0  0
  -25.0030  -33.9810   25.0480 H   0  0  0  0  0  0  0  0  0  0  0  0
  -24.1480  -36.7320   23.2640 C   0  0  0  0  0  1  0  0  0  0  0  0
  -25.4100  -36.3130   24.0340 C   0  0  0  0  0  3  0  0  0  0  0  0
  -27.5580  -37.1820   24.8470 C   0  0  0  0  0  1  0  0  0  0  0  0
  -26.4300  -37.3810   23.9410 N   0  0  0  0  0  0  0  0  0  0  0  0
  -26.0190  -38.2890   24.1400 H   0  0  0  0  0  0  0  0  0  0  0  0
  -26.4460  -31.6600   25.0720 C   0  0  1  0  0  0  0  0  0  0  0  0
  -25.3750  -31.3700   26.1480 C   0  0  0  0  0  1  0  0  0  0  0  0
  -27.0280  -30.3050   24.6060 C   0  0  0  0  0  1  0  0  0  0  0  0
  -27.6040  -32.4320   25.7480 C   0  0  0  0  0  1  0  0  0  0  0  0
  -29.9850  -20.4110   26.2510 C   0  0  0  0  0  2  0  0  0  0  0  0
  -29.8470  -19.2740   27.2750 C   0  0  0  0  0  2  0  0  0  0  0  0
  -30.8400  -17.1230   26.4930 C   0  0  0  0  0  0  0  0  0  0  0  0
  -30.9310  -18.3180   27.0860 N   0  0  0  0  0  0  0  0  0  0  0  0
  -29.7680  -16.6250   26.1410 O   0  0  0  0  0  0  0  0  0  0  0  0
  -31.8550  -18.6170   27.3720 H   0  0  0  0  0  0  0  0  0  0  0  0
  -32.1660  -16.3820   26.2740 C   0  0  0  0  0  2  0  0  0  0  0  0
  -31.9830  -15.7980   23.8430 C   0  0  0  0  0  0  0  0  0  0  0  0
  -32.1750  -15.4720   25.1280 N   0  0  0  0  0  0  0  0  0  0  0  0
  -31.6890  -16.9320   23.4630 O   0  0  0  0  0  0  0  0  0  0  0  0
  -32.3860  -14.5050   25.3320 H   0  0  0  0  0  0  0  0  0  0  0  0
  -32.2090  -14.6850   22.8280 C   0  0  0  0  0  2  0  0  0  0  0  0
  -30.8870  -14.2100   20.7930 C   0  0  0  0  0  0  0  0  0  0  0  0
  -30.3990  -12.2890   19.3490 C   0  0  0  0  0  2  0  0  0  0  0  0
  -29.4570  -12.5460   18.1680 C   0  0  0  0  0  2  0  0  0  0  0  0
  -27.9950  -12.3770   18.6080 C   0  0  0  0  0  2  0  0  0  0  0  0
  -27.6630  -13.2080   19.8730 C   0  0  0  0  0  3  0  0  0  0  0  0
  -28.7070  -12.9810   20.9910 C   0  0  0  0  0  2  0  0  0  0  0  0
  -30.0580  -13.2030   20.4450 N   0  0  0  0  0  0  0  0  0  0  0  0
  -31.7310  -14.7020   20.0370 O   0  0  0  0  0  0  0  0  0  0  0  0
  -30.9820  -14.3320   22.1190 N   0  0  0  0  0  0  0  0  0  0  0  0
  -30.2680  -13.8700   22.6630 H   0  0  0  0  0  0  0  0  0  0  0  0
  -25.2590  -13.8170   20.5690 C   0  0  0  0  0  0  0  0  0  0  0  0
  -24.1840  -13.0450   20.9170 C   0  0  0  0  0  0  0  0  0  0  0  0
  -24.6390  -11.6910   20.8730 C   0  0  0  0  0  0  0  0  0  0  0  0
  -26.3040  -12.9350   20.3390 N   0  0  0  0  0  0  0  0  0  0  0  0
  -25.9330  -11.6500   20.5770 N   0  0  0  0  0  0  0  0  0  0  0  0
  -23.9060  -10.4300   21.0400 C   0  0  0  0  0  0  0  0  0  0  0  0
  -24.3610   -9.4210   21.9180 C   0  0  0  0  0  3  0  0  0  0  0  0
  -23.6290   -8.2250   22.0750 C   0  0  0  0  0  3  0  0  0  0  0  0
  -22.4270   -8.0280   21.3550 C   0  0  0  0  0  0  0  0  0  0  0  0
  -21.9910   -9.0250   20.4640 C   0  0  0  0  0  3  0  0  0  0  0  0
  -22.7230  -10.2130   20.3050 C   0  0  0  0  0  3  0  0  0  0  0  0
  -21.6640   -6.8880   21.4240 O   0  0  0  0  0  0  0  0  0  0  0  0
  -21.6850   -6.0730   22.5280 C   0  0  0  0  0  0  0  0  0  0  0  0
  -21.4010   -6.5640   23.8210 C   0  0  0  0  0  3  0  0  0  0  0  0
  -21.3660   -5.6790   24.9180 C   0  0  0  0  0  3  0  0  0  0  0  0
  -21.6040   -4.3060   24.7230 C   0  0  0  0  0  0  0  0  0  0  0  0
  -21.8820   -3.8150   23.4350 C   0  0  0  0  0  3  0  0  0  0  0  0
  -21.9190   -4.6970   22.3400 C   0  0  0  0  0  0  0  0  0  0  0  0
  -22.1660   -4.2150   21.0980 F   0  0  0  0  0  0  0  0  0  0  0  0
  -21.5630   -3.4540   25.7740 F   0  0  0  0  0  0  0  0  0  0  0  0
  -22.7860  -13.5240   21.1840 C   0  0  0  0  0  0  0  0  0  0  0  0
  -22.0500  -12.8230   22.0390 N   0  0  0  0  0  0  0  0  0  0  0  0
  -22.3550  -14.5550   20.6690 O   0  0  0  0  0  0  0  0  0  0  0  0
  -22.4120  -11.9900   22.4780 H   0  0  0  0  0  0  0  0  0  0  0  0
  -21.1110  -13.1250   22.2580 H   0  0  0  0  0  0  0  0  0  0  0  0
  -25.4330  -15.1890   20.4100 N   0  0  0  0  0  0  0  0  0  0  0  0
  -24.6720  -15.8510   20.5250 H   0  0  0  0  0  0  0  0  0  0  0  0
  -26.2980  -15.6270   20.1170 H   0  0  0  0  0  0  0  0  0  0  0  0
  2  3  1  0
  2  1  1  0
  4  3  1  0
  5  4  1  0
  6  5  1  0
  7  5  1  0
  8  5  1  0
  9  8  1  0
 10 12  1  0
 10  9  1  0
 11 22  2  0
 12 17  1  0
 13 21  1  0
 13 23  1  0
 14 20  1  0
 14 16  1  0
 15 21  1  0
 16 15  1  0
 17 16  2  0
 18 19  1  0
 18 12  2  0
 19 14  2  0
 20 13  1  0
 21 11  1  0
 23 25  2  0
 24 23  1  0
 26 24  1  0
 27 36  2  0
 27 32  1  0
 28 24  1  0
 28 32  1  0
 29 28  1  0
 30 31  1  0
 30 29  1  0
 31 27  1  0
 32 33  2  0
 33 34  1  0
 35 34  2  0
 36 35  1  0
 37 11  1  0
 37 38  1  0
 37 47  1  0
 38 41  1  0
 39 43  1  0
 39 38  1  0
 40 39  2  0
 43 42  1  0
 45 43  1  0
 45 46  1  0
 45 44  1  0
 47 50  1  1
 47 48  1  0
 49 47  1  0
 51  1  1  0
 51 52  1  0
 53 54  1  0
 54 52  1  0
 54 56  1  0
 55 53  2  0
 57 53  1  0
 58 59  1  0
 59 61  1  0
 59 57  1  0
 60 58  2  0
 62 58  1  0
 63 71  1  0
 64 69  1  0
 65 66  1  0
 65 64  1  0
 67 66  1  0
 67 76  1  0
 67 68  1  0
 69 63  1  0
 69 68  1  0
 70 63  2  0
 71 72  1  0
 71 62  1  0
 73 74  2  0
 74 93  1  0
 75 74  1  0
 75 78  1  0
 76 73  1  0
 76 77  1  0
 77 75  2  0
 78 79  1  0
 79 80  2  0
 81 84  1  0
 81 80  1  0
 82 81  2  0
 83 82  1  0
 83 78  2  0
 84 85  1  0
 85 86  1  0
 86 87  2  0
 88 87  1  0
 88 92  1  0
 89 88  2  0
 90 85  2  0
 90 89  1  0
 91 90  1  0
 93 94  1  0
 94 97  1  0
 94 96  1  0
 95 93  2  0
 98 99  1  0
 98 73  1  0
100 98  1  0
M  ISO  4   9 101  10 101  63 100  71 100
M  END
>  <TORSDO>  (37) 
F 28

>  <SCORE>  (37) 
35.671

>  <name>  (37) 
36

>  <ligand_id>  (37) 
36

>  <original_smiles>  (37) 
[H]c1c([H])c([H])c2c(c1[H])C([H])([H])C([H])([H])C([H])([H])C2([H])N([H])C(=O)C1([H])N(C(=O)C([H])(N([H])C(=O)C([H])(N([H])C([H])([H])[H])C([H])([H])[H])C(C([H])([H])[H])(C([H])([H])[H])C([H])([H])[H])C([H])([H])c2c([H])c(OC([H])([H])C([H])([H])[N+]([H])([H])C([H])([H])C([H])([H])C([H])([H])C([H])([H])C([H])([H])C([H])([H])N([H])C(=O)C([H])([H])N([H])C(=O)C([H])([H])N([H])C(=O)N3C([H])([H])C([H])([H])C([H])([H])C([H])(n4nc(-c5c([H])c([H])c(Oc6c([H])c([H])c(F)c([H])c6F)c([H])c5[H])c(C(=O)N([H])[H])c4N([H])[H])C3([H])[H])c([H])c([H])c2C1([H])[H]

>  <smiles>  (37) 
[H]c1c([H])c([H])c2c(c1[H])C([H])([H])C([H])([H])C([H])([H])C2([H])N([H])C(=O)C1([H])N(C(=O)C([H])(N([H])C(=O)C([H])(N([H])C([H])([H])[H])C([H])([H])[H])C(C([H])([H])[H])(C([H])([H])[H])C([H])([H])[H])C([H])([H])c2c([H])c(OC([H])([H])C([H])([H])[N+]([H])([H])C([H])([H])C([H])([H])C([H])([H])C([H])([H])C([H])([H])C([H])([H])N([H])C(=O)C([H])([H])N([H])C(=O)C([H])([H])N([H])C(=O)N3C([H])([H])C([H])([H])C([H])([H])C([H])(n4nc(-c5c([H])c([H])c(Oc6c([H])c([H])c(F)c([H])c6F)c([H])c5[H])c(C(=O)N([H])[H])c4N([H])[H])C3([H])[H])c([H])c([H])c2C1([H])[H]

$$$$
37:0:0
     RDKit          3D

108115  0  0  1  0  0  0  0  0999 V2000
  -29.8810  -18.3690   21.6740 C   0  0  0  0  0  2  0  0  0  0  0  0
  -30.3860  -19.7060   21.3160 N   0  0  0  0  0  4  0  0  0  0  0  0
  -30.6210  -20.2090   22.1580 H   0  0  0  0  0  0  0  0  0  0  0  0
  -31.2370  -19.5590   20.7990 H   0  0  0  0  0  0  0  0  0  0  0  0
  -29.5050  -20.5400   20.4750 C   0  0  0  0  0  2  0  0  0  0  0  0
  -30.3420  -21.5100   19.6200 C   0  0  0  0  0  2  0  0  0  0  0  0
  -31.1000  -22.5780   20.4350 C   0  0  0  0  0  2  0  0  0  0  0  0
  -32.0050  -23.4490   19.5500 C   0  0  0  0  0  2  0  0  0  0  0  0
  -32.8310  -24.4890   20.3300 C   0  0  0  0  0  2  0  0  0  0  0  0
  -31.2160  -26.3650   20.5950 C   0  0  0  0  0  0  0  0  0  0  0  0
  -32.0110  -25.4160   21.1070 N   0  0  0  0  0  0  0  0  0  0  0  0
  -31.0430  -26.5000   19.3820 O   0  0  0  0  0  0  0  0  0  0  0  0
  -32.1110  -25.3920   22.1150 H   0  0  0  0  0  0  0  0  0  0  0  0
  -30.5080  -27.3000   21.5800 C   0  0  0  0  0  2  0  0  0  0  0  0
  -29.2410  -26.7400   21.9200 O   0  0  0  0  0  0  0  0  0  0  0  0
  -27.7810  -32.3900   26.0630 C   0  0  0  0  0  0  0  0  0  0  0  0
  -28.3260  -27.5420   22.5660 C   0  0  0  0  0  0  0  0  0  0  0  0
  -25.9050  -30.8270   25.6460 C   0  0  0  0  0  3  0  0  0  0  0  0
  -26.3140  -29.0690   23.8420 C   0  0  0  0  0  0  0  0  0  0  0  0
  -27.7940  -31.0860   23.9470 C   0  0  0  0  0  2  0  0  0  0  0  0
  -27.5600  -29.6430   23.5590 C   0  0  0  0  0  0  0  0  0  0  0  0
  -28.5680  -28.8890   22.9300 C   0  0  0  0  0  3  0  0  0  0  0  0
  -27.0720  -26.9730   22.8680 C   0  0  0  0  0  3  0  0  0  0  0  0
  -26.0650  -27.7270   23.5030 C   0  0  0  0  0  3  0  0  0  0  0  0
  -25.2930  -29.9620   24.5090 C   0  0  0  0  0  2  0  0  0  0  0  0
  -27.2070  -31.4550   25.2530 N   0  0  0  0  0  0  0  0  0  0  0  0
  -27.2220  -32.7660   27.1010 O   0  0  0  0  0  0  0  0  0  0  0  0
  -26.0020  -29.9630   26.9220 C   0  0  0  0  0  0  0  0  0  0  0  0
  -24.8730  -29.8180   27.6320 N   0  0  0  0  0  0  0  0  0  0  0  0
  -27.0640  -29.4200   27.2390 O   0  0  0  0  0  0  0  0  0  0  0  0
  -24.0460  -30.3030   27.3110 H   0  0  0  0  0  0  0  0  0  0  0  0
  -22.5050  -28.8120   30.1680 C   0  0  0  0  0  0  0  0  0  0  0  0
  -24.7170  -29.0200   28.8470 C   0  0  0  0  0  3  0  0  0  0  0  0
  -24.5380  -27.5220   28.5100 C   0  0  0  0  0  2  0  0  0  0  0  0
  -23.0710  -27.1020   28.3880 C   0  0  0  0  0  2  0  0  0  0  0  0
  -22.3240  -27.3780   29.6970 C   0  0  0  0  0  2  0  0  0  0  0  0
  -23.6210  -29.5870   29.7550 C   0  0  0  0  0  0  0  0  0  0  0  0
  -23.7250  -30.9260   30.1910 C   0  0  0  0  0  3  0  0  0  0  0  0
  -22.7400  -31.4900   31.0250 C   0  0  0  0  0  3  0  0  0  0  0  0
  -21.6470  -30.7120   31.4440 C   0  0  0  0  0  3  0  0  0  0  0  0
  -21.5330  -29.3760   31.0200 C   0  0  0  0  0  3  0  0  0  0  0  0
  -29.1530  -33.0470   25.7110 C   0  0  0  0  0  3  0  0  0  0  0  0
  -30.3700  -32.4100   26.4890 C   0  0  1  0  0  0  0  0  0  0  0  0
  -30.1580  -32.3340   28.0180 C   0  0  0  0  0  1  0  0  0  0  0  0
  -30.6540  -30.9770   25.9800 C   0  0  0  0  0  1  0  0  0  0  0  0
  -31.6520  -33.2340   26.2240 C   0  0  0  0  0  1  0  0  0  0  0  0
  -29.0450  -34.4830   26.0010 N   0  0  0  0  0  0  0  0  0  0  0  0
  -28.8080  -35.4280   25.0810 C   0  0  0  0  0  0  0  0  0  0  0  0
  -28.7300  -35.1840   23.8740 O   0  0  0  0  0  0  0  0  0  0  0  0
  -29.0490  -34.7510   26.9750 H   0  0  0  0  0  0  0  0  0  0  0  0
  -27.1280  -37.2130   25.6410 C   0  0  0  0  0  1  0  0  0  0  0  0
  -28.6260  -36.8750   25.5800 C   0  0  0  0  0  3  0  0  0  0  0  0
  -30.7850  -37.7800   24.8410 C   0  0  0  0  0  1  0  0  0  0  0  0
  -29.3310  -37.8760   24.7500 N   0  0  0  0  0  0  0  0  0  0  0  0
  -29.0570  -38.8180   25.0140 H   0  0  0  0  0  0  0  0  0  0  0  0
  -31.0560  -17.4660   22.0860 C   0  0  0  0  0  2  0  0  0  0  0  0
  -31.9950  -17.1420   20.9040 C   0  0  0  0  0  2  0  0  0  0  0  0
  -32.8680  -15.9020   21.1480 C   0  0  0  0  0  2  0  0  0  0  0  0
  -33.8140  -15.5840   19.9770 C   0  0  0  0  0  2  0  0  0  0  0  0
  -33.5100  -15.1050   17.5630 C   0  0  0  0  0  0  0  0  0  0  0  0
  -33.1410  -15.7220   18.6900 N   0  0  0  0  0  0  0  0  0  0  0  0
  -34.5700  -14.4850   17.4520 O   0  0  0  0  0  0  0  0  0  0  0  0
  -32.2710  -16.2310   18.6630 H   0  0  0  0  0  0  0  0  0  0  0  0
  -32.4800  -15.1050   16.4240 C   0  0  0  0  0  2  0  0  0  0  0  0
  -31.5050  -14.0590   16.5920 O   0  0  0  0  0  0  0  0  0  0  0  0
  -30.6310  -14.1050   17.7300 C   0  0  0  0  0  2  0  0  0  0  0  0
  -29.7430  -15.3600   17.7500 C   0  0  0  0  0  2  0  0  0  0  0  0
  -29.0140  -15.5530   19.0900 C   0  0  0  0  0  2  0  0  0  0  0  0
  -28.2120  -16.8690   19.2150 C   0  0  0  0  0  2  0  0  0  0  0  0
  -29.0260  -18.1280   19.6010 C   0  0  0  0  0  2  0  0  0  0  0  0
  -29.9290  -18.9270   17.3450 C   0  0  0  0  0  0  0  0  0  0  0  0
  -28.2130  -19.1670   15.6210 C   0  0  0  0  0  2  0  0  0  0  0  0
  -28.3090  -20.4410   14.7690 C   0  0  0  0  0  2  0  0  0  0  0  0
  -27.5290  -21.5810   15.4390 C   0  0  0  0  0  2  0  0  0  0  0  0
  -27.9820  -21.7940   16.9060 C   0  0  0  0  0  3  0  0  0  0  0  0
  -27.9900  -20.4700   17.6980 C   0  0  0  0  0  2  0  0  0  0  0  0
  -28.7350  -19.4330   16.9660 N   0  0  0  0  0  0  0  0  0  0  0  0
  -30.8230  -18.6040   16.5630 O   0  0  0  0  0  0  0  0  0  0  0  0
  -30.0440  -18.5470   18.6270 N   0  0  0  0  0  0  0  0  0  0  0  0
  -30.9760  -18.2430   18.8560 H   0  0  0  0  0  0  0  0  0  0  0  0
  -27.5590  -23.9170   18.3040 C   0  0  0  0  0  0  0  0  0  0  0  0
  -26.4070  -24.5710   18.6510 C   0  0  0  0  0  0  0  0  0  0  0  0
  -25.3360  -23.8010   18.1020 C   0  0  0  0  0  0  0  0  0  0  0  0
  -27.1630  -22.8050   17.5780 N   0  0  0  0  0  0  0  0  0  0  0  0
  -25.8090  -22.7110   17.5100 N   0  0  0  0  0  0  0  0  0  0  0  0
  -23.8920  -24.0660   18.0550 C   0  0  0  0  0  0  0  0  0  0  0  0
  -22.9520  -23.1360   18.5540 C   0  0  0  0  0  3  0  0  0  0  0  0
  -21.5700  -23.4220   18.5130 C   0  0  0  0  0  3  0  0  0  0  0  0
  -21.1140  -24.6490   17.9730 C   0  0  0  0  0  0  0  0  0  0  0  0
  -22.0520  -25.5600   17.4570 C   0  0  0  0  0  3  0  0  0  0  0  0
  -23.4260  -25.2710   17.4930 C   0  0  0  0  0  3  0  0  0  0  0  0
  -19.7910  -25.0020   17.8670 O   0  0  0  0  0  0  0  0  0  0  0  0
  -18.8550  -24.5560   18.7650 C   0  0  0  0  0  0  0  0  0  0  0  0
  -18.9910  -24.7720   20.1540 C   0  0  0  0  0  3  0  0  0  0  0  0
  -17.9710  -24.3600   21.0340 C   0  0  0  0  0  3  0  0  0  0  0  0
  -16.8130  -23.7380   20.5290 C   0  0  0  0  0  0  0  0  0  0  0  0
  -16.6750  -23.5250   19.1450 C   0  0  0  0  0  3  0  0  0  0  0  0
  -17.6920  -23.9370   18.2670 C   0  0  0  0  0  0  0  0  0  0  0  0
  -17.5440  -23.7470   16.9330 F   0  0  0  0  0  0  0  0  0  0  0  0
  -15.8280  -23.3510   21.3730 F   0  0  0  0  0  0  0  0  0  0  0  0
  -26.3030  -25.8880   19.3640 C   0  0  0  0  0  0  0  0  0  0  0  0
  -25.2240  -26.0960   20.1090 N   0  0  0  0  0  0  0  0  0  0  0  0
  -27.2050  -26.7240   19.3020 O   0  0  0  0  0  0  0  0  0  0  0  0
  -24.4910  -25.4030   20.1700 H   0  0  0  0  0  0  0  0  0  0  0  0
  -25.1240  -26.9610   20.6230 H   0  0  0  0  0  0  0  0  0  0  0  0
  -28.9070  -24.1830   18.5140 N   0  0  0  0  0  0  0  0  0  0  0  0
  -29.2380  -25.0170   18.9870 H   0  0  0  0  0  0  0  0  0  0  0  0
  -29.6570  -23.5970   18.1620 H   0  0  0  0  0  0  0  0  0  0  0  0
  1 56  1  0
  2  1  1  0
  2  3  1  0
  4  2  1  0
  5  2  1  0
  6  7  1  0
  6  5  1  0
  8  9  1  0
  8  7  1  0
  9 11  1  0
 10 11  1  0
 10 14  1  0
 11 13  1  0
 12 10  2  0
 14 15  1  0
 15 17  1  0
 16 27  2  0
 17 23  2  0
 17 22  1  0
 18 28  1  0
 19 25  1  0
 20 26  1  0
 21 19  1  0
 21 20  1  0
 22 21  2  0
 23 24  1  0
 24 19  2  0
 25 18  1  0
 26 18  1  0
 26 16  1  0
 28 30  2  0
 28 29  1  0
 31 29  1  0
 32 41  1  0
 33 29  1  0
 33 37  1  0
 34 33  1  0
 35 34  1  0
 35 36  1  0
 36 32  1  0
 37 32  2  0
 37 38  1  0
 38 39  2  0
 39 40  1  0
 41 40  2  0
 42 47  1  0
 42 16  1  0
 42 43  1  0
 43 44  1  1
 45 43  1  0
 46 43  1  0
 47 50  1  0
 48 52  1  0
 48 47  1  0
 49 48  2  0
 52 51  1  0
 54 53  1  0
 54 55  1  0
 54 52  1  0
 57 58  1  0
 57 56  1  0
 59 58  1  0
 60 61  1  0
 61 59  1  0
 62 60  2  0
 63 61  1  0
 64 65  1  0
 64 60  1  0
 65 66  1  0
 66 67  1  0
 67 68  1  0
 68 69  1  0
 69 70  1  0
 71 79  1  0
 72 77  1  0
 73 74  1  0
 73 72  1  0
 75 74  1  0
 75 84  1  0
 75 76  1  0
 77 71  1  0
 77 76  1  0
 78 71  2  0
 79 80  1  0
 79 70  1  0
 81106  1  0
 81 82  2  0
 82101  1  0
 83 82  1  0
 84 81  1  0
 85 84  1  0
 85 83  2  0
 86 83  1  0
 86 87  1  0
 88 87  2  0
 89 88  1  0
 90 91  1  0
 90 89  2  0
 91 86  2  0
 92 89  1  0
 92 93  1  0
 93 94  1  0
 94 95  2  0
 96 95  1  0
 96100  1  0
 97 96  2  0
 98 93  2  0
 98 97  1  0
 99 98  1  0
101102  1  0
102104  1  0
102105  1  0
103101  2  0
106107  1  0
108106  1  0
M  ISO  4  14 101  15 101  71 100  79 100
M  END
>  <TORSDO>  (38) 
F 36

>  <SCORE>  (38) 
5.400

>  <name>  (38) 
37

>  <ligand_id>  (38) 
37

>  <original_smiles>  (38) 
[H]c1c([H])c([H])c2c(c1[H])C([H])([H])C([H])([H])C([H])([H])C2([H])N([H])C(=O)C1([H])N(C(=O)C([H])(N([H])C(=O)C([H])(N([H])C([H])([H])[H])C([H])([H])[H])C(C([H])([H])[H])(C([H])([H])[H])C([H])([H])[H])C([H])([H])c2c([H])c(OC([H])([H])C(=O)N([H])C([H])([H])C([H])([H])C([H])([H])C([H])([H])C([H])([H])[N+]([H])([H])C([H])([H])C([H])([H])C([H])([H])C([H])([H])C([H])([H])N([H])C(=O)C([H])([H])OC([H])([H])C([H])([H])C([H])([H])C([H])([H])C([H])([H])N([H])C(=O)N3C([H])([H])C([H])([H])C([H])([H])C([H])(n4nc(-c5c([H])c([H])c(Oc6c([H])c([H])c(F)c([H])c6F)c([H])c5[H])c(C(=O)N([H])[H])c4N([H])[H])C3([H])[H])c([H])c([H])c2C1([H])[H]

>  <smiles>  (38) 
[H]c1c([H])c([H])c2c(c1[H])C([H])([H])C([H])([H])C([H])([H])C2([H])N([H])C(=O)C1([H])N(C(=O)C([H])(N([H])C(=O)C([H])(N([H])C([H])([H])[H])C([H])([H])[H])C(C([H])([H])[H])(C([H])([H])[H])C([H])([H])[H])C([H])([H])c2c([H])c(OC([H])([H])C(=O)N([H])C([H])([H])C([H])([H])C([H])([H])C([H])([H])C([H])([H])[N+]([H])([H])C([H])([H])C([H])([H])C([H])([H])C([H])([H])C([H])([H])N([H])C(=O)C([H])([H])OC([H])([H])C([H])([H])C([H])([H])C([H])([H])C([H])([H])N([H])C(=O)N3C([H])([H])C([H])([H])C([H])([H])C([H])(n4nc(-c5c([H])c([H])c(Oc6c([H])c([H])c(F)c([H])c6F)c([H])c5[H])c(C(=O)N([H])[H])c4N([H])[H])C3([H])[H])c([H])c([H])c2C1([H])[H]

$$$$
38:0:0
     RDKit          3D

 97104  0  0  1  0  0  0  0  0999 V2000
  -31.7120  -21.1160   18.3950 C   0  0  0  0  0  2  0  0  0  0  0  0
  -31.5110  -22.5800   18.3480 N   0  0  0  0  0  4  0  0  0  0  0  0
  -32.0760  -22.9350   17.5950 H   0  0  0  0  0  0  0  0  0  0  0  0
  -31.8360  -23.0010   19.2030 H   0  0  0  0  0  0  0  0  0  0  0  0
  -30.1190  -23.0020   18.0800 C   0  0  0  0  0  2  0  0  0  0  0  0
  -30.0590  -24.4700   17.6140 C   0  0  0  0  0  2  0  0  0  0  0  0
  -29.8340  -25.5020   18.7330 C   0  0  0  0  0  2  0  0  0  0  0  0
  -28.3460  -25.7380   19.0340 C   0  0  0  0  0  2  0  0  0  0  0  0
  -28.2260  -26.8130   19.9610 O   0  0  0  0  0  0  0  0  0  0  0  0
  -24.5100  -31.9130   23.2170 C   0  0  0  0  0  0  0  0  0  0  0  0
  -27.0260  -27.4890   20.0150 C   0  0  0  0  0  0  0  0  0  0  0  0
  -23.2390  -30.5370   21.5980 C   0  0  0  0  0  3  0  0  0  0  0  0
  -24.6330  -28.9940   20.1250 C   0  0  0  0  0  0  0  0  0  0  0  0
  -25.7580  -30.8770   21.3260 C   0  0  0  0  0  2  0  0  0  0  0  0
  -25.8090  -29.5070   20.6830 C   0  0  0  0  0  0  0  0  0  0  0  0
  -27.0050  -28.7580   20.6350 C   0  0  0  0  0  3  0  0  0  0  0  0
  -25.8230  -26.9760   19.4730 C   0  0  0  0  0  3  0  0  0  0  0  0
  -24.6320  -27.7230   19.5240 C   0  0  0  0  0  3  0  0  0  0  0  0
  -23.3990  -29.8610   20.2100 C   0  0  0  0  0  2  0  0  0  0  0  0
  -24.5220  -31.1220   22.1060 N   0  0  0  0  0  0  0  0  0  0  0  0
  -23.4490  -32.1930   23.7900 O   0  0  0  0  0  0  0  0  0  0  0  0
  -22.6060  -29.5150   22.5680 C   0  0  0  0  0  0  0  0  0  0  0  0
  -21.2810  -29.3270   22.4560 N   0  0  0  0  0  0  0  0  0  0  0  0
  -23.3010  -28.8940   23.3760 O   0  0  0  0  0  0  0  0  0  0  0  0
  -20.7830  -29.8770   21.7720 H   0  0  0  0  0  0  0  0  0  0  0  0
  -17.9240  -28.0950   22.9610 C   0  0  0  0  0  0  0  0  0  0  0  0
  -20.4770  -28.3880   23.2370 C   0  0  0  0  0  3  0  0  0  0  0  0
  -20.6000  -26.9520   22.6780 C   0  0  0  0  0  2  0  0  0  0  0  0
  -19.5050  -26.6020   21.6650 C   0  0  0  0  0  2  0  0  0  0  0  0
  -18.1200  -26.7400   22.3040 C   0  0  0  0  0  2  0  0  0  0  0  0
  -19.0320  -28.8770   23.3840 C   0  0  0  0  0  0  0  0  0  0  0  0
  -18.7960  -30.1460   23.9550 C   0  0  0  0  0  3  0  0  0  0  0  0
  -17.4860  -30.6340   24.1090 C   0  0  0  0  0  3  0  0  0  0  0  0
  -16.3910  -29.8490   23.7050 C   0  0  0  0  0  3  0  0  0  0  0  0
  -16.6120  -28.5830   23.1350 C   0  0  0  0  0  3  0  0  0  0  0  0
  -25.8230  -32.5220   23.8030 C   0  0  0  0  0  3  0  0  0  0  0  0
  -25.5450  -33.9240   24.1420 N   0  0  0  0  0  0  0  0  0  0  0  0
  -25.8860  -34.9720   23.3800 C   0  0  0  0  0  0  0  0  0  0  0  0
  -26.5410  -34.8600   22.3410 O   0  0  0  0  0  0  0  0  0  0  0  0
  -24.9700  -34.0860   24.9550 H   0  0  0  0  0  0  0  0  0  0  0  0
  -24.1970  -36.8010   23.0360 C   0  0  0  0  0  1  0  0  0  0  0  0
  -25.4270  -36.3650   23.8490 C   0  0  0  0  0  3  0  0  0  0  0  0
  -27.5750  -37.1970   24.6970 C   0  0  0  0  0  1  0  0  0  0  0  0
  -26.4820  -37.3970   23.7490 N   0  0  0  0  0  0  0  0  0  0  0  0
  -26.0930  -38.3240   23.9040 H   0  0  0  0  0  0  0  0  0  0  0  0
  -26.3640  -31.7410   25.0620 C   0  0  1  0  0  0  0  0  0  0  0  0
  -25.2960  -31.5160   26.1570 C   0  0  0  0  0  1  0  0  0  0  0  0
  -26.9180  -30.3590   24.6470 C   0  0  0  0  0  1  0  0  0  0  0  0
  -27.5430  -32.5170   25.6970 C   0  0  0  0  0  1  0  0  0  0  0  0
  -33.2060  -20.7400   18.4280 C   0  0  0  0  0  2  0  0  0  0  0  0
  -33.9180  -20.8930   19.7900 C   0  0  0  0  0  2  0  0  0  0  0  0
  -33.6110  -19.7690   20.8050 C   0  0  0  0  0  2  0  0  0  0  0  0
  -32.4600  -20.9850   22.7370 C   0  0  0  0  0  1  0  0  0  0  0  0
  -32.3120  -19.9380   21.6230 C   0  0  0  0  0  3  0  0  0  0  0  0
  -31.0240  -17.8030   21.7720 C   0  0  0  0  0  0  0  0  0  0  0  0
  -31.9500  -18.6570   22.2230 N   0  0  0  0  0  0  0  0  0  0  0  0
  -30.3180  -18.0290   20.7870 O   0  0  0  0  0  0  0  0  0  0  0  0
  -32.4640  -18.3760   23.0500 H   0  0  0  0  0  0  0  0  0  0  0  0
  -30.8690  -16.5050   22.5720 C   0  0  0  0  0  2  0  0  0  0  0  0
  -30.4530  -14.9160   20.6890 C   0  0  0  0  0  0  0  0  0  0  0  0
  -30.2100  -12.8680   19.3380 C   0  0  0  0  0  2  0  0  0  0  0  0
  -29.2550  -13.0310   18.1430 C   0  0  0  0  0  2  0  0  0  0  0  0
  -27.8010  -12.7640   18.5700 C   0  0  0  0  0  2  0  0  0  0  0  0
  -27.4010  -13.5720   19.8320 C   0  0  0  0  0  3  0  0  0  0  0  0
  -28.4550  -13.4030   20.9460 C   0  0  0  0  0  2  0  0  0  0  0  0
  -29.7780  -13.7750   20.4090 N   0  0  0  0  0  0  0  0  0  0  0  0
  -31.3930  -15.3400   20.0090 O   0  0  0  0  0  0  0  0  0  0  0  0
  -30.1320  -15.4550   21.8700 N   0  0  0  0  0  0  0  0  0  0  0  0
  -29.3670  -15.0270   22.3660 H   0  0  0  0  0  0  0  0  0  0  0  0
  -24.9670  -14.0190   20.5510 C   0  0  0  0  0  0  0  0  0  0  0  0
  -23.9470  -13.1740   20.8980 C   0  0  0  0  0  0  0  0  0  0  0  0
  -24.4900  -11.8540   20.8330 C   0  0  0  0  0  0  0  0  0  0  0  0
  -26.0640  -13.2080   20.2990 N   0  0  0  0  0  0  0  0  0  0  0  0
  -25.7790  -11.9000   20.5220 N   0  0  0  0  0  0  0  0  0  0  0  0
  -23.8420  -10.5450   20.9900 C   0  0  0  0  0  0  0  0  0  0  0  0
  -24.3100   -9.5980   21.9270 C   0  0  0  0  0  3  0  0  0  0  0  0
  -23.6610   -8.3520   22.0710 C   0  0  0  0  0  3  0  0  0  0  0  0
  -22.5300   -8.0460   21.2770 C   0  0  0  0  0  0  0  0  0  0  0  0
  -22.0820   -8.9840   20.3300 C   0  0  0  0  0  3  0  0  0  0  0  0
  -22.7320  -10.2210   20.1840 C   0  0  0  0  0  3  0  0  0  0  0  0
  -21.8530   -6.8520   21.3290 O   0  0  0  0  0  0  0  0  0  0  0  0
  -21.7920   -6.1080   22.4810 C   0  0  0  0  0  0  0  0  0  0  0  0
  -21.2610   -6.6320   23.6790 C   0  0  0  0  0  3  0  0  0  0  0  0
  -21.1540   -5.8110   24.8200 C   0  0  0  0  0  3  0  0  0  0  0  0
  -21.5680   -4.4660   24.7610 C   0  0  0  0  0  0  0  0  0  0  0  0
  -22.0930   -3.9410   23.5670 C   0  0  0  0  0  3  0  0  0  0  0  0
  -22.2010   -4.7600   22.4290 C   0  0  0  0  0  0  0  0  0  0  0  0
  -22.6880   -4.2440   21.2750 F   0  0  0  0  0  0  0  0  0  0  0  0
  -21.4580   -3.6760   25.8550 F   0  0  0  0  0  0  0  0  0  0  0  0
  -22.5240  -13.5580   21.1830 C   0  0  0  0  0  0  0  0  0  0  0  0
  -21.8460  -12.8110   22.0460 N   0  0  0  0  0  0  0  0  0  0  0  0
  -22.0170  -14.5570   20.6740 O   0  0  0  0  0  0  0  0  0  0  0  0
  -22.2680  -12.0050   22.4830 H   0  0  0  0  0  0  0  0  0  0  0  0
  -20.8910  -13.0500   22.2750 H   0  0  0  0  0  0  0  0  0  0  0  0
  -25.0500  -15.4010   20.4140 N   0  0  0  0  0  0  0  0  0  0  0  0
  -24.2490  -16.0090   20.5480 H   0  0  0  0  0  0  0  0  0  0  0  0
  -25.8810  -15.8980   20.1160 H   0  0  0  0  0  0  0  0  0  0  0  0
  1 50  1  0
  2  1  1  0
  2  4  1  0
  3  2  1  0
  5  2  1  0
  6  5  1  0
  6  7  1  0
  7  8  1  0
  8  9  1  0
  9 11  1  0
 10 21  2  0
 11 16  1  0
 12 20  1  0
 12 22  1  0
 13 19  1  0
 13 15  1  0
 14 20  1  0
 15 14  1  0
 16 15  2  0
 17 18  1  0
 17 11  2  0
 18 13  2  0
 19 12  1  0
 20 10  1  0
 22 24  2  0
 23 22  1  0
 25 23  1  0
 26 35  2  0
 26 31  1  0
 27 23  1  0
 27 31  1  0
 28 27  1  0
 29 30  1  0
 29 28  1  0
 30 26  1  0
 31 32  2  0
 32 33  1  0
 34 33  2  0
 35 34  1  0
 36 10  1  0
 36 37  1  0
 36 46  1  0
 37 40  1  0
 38 42  1  0
 38 37  1  0
 39 38  2  0
 42 41  1  0
 44 42  1  0
 44 45  1  0
 44 43  1  0
 46 49  1  1
 46 47  1  0
 48 46  1  0
 50 51  1  0
 51 52  1  0
 52 54  1  0
 54 56  1  0
 54 53  1  0
 55 56  1  0
 55 59  1  0
 56 58  1  0
 57 55  2  0
 60 68  1  0
 61 66  1  0
 62 63  1  0
 62 61  1  0
 64 63  1  0
 64 73  1  0
 64 65  1  0
 66 60  1  0
 66 65  1  0
 67 60  2  0
 68 69  1  0
 68 59  1  0
 70 71  2  0
 71 90  1  0
 72 71  1  0
 72 75  1  0
 73 74  1  0
 73 70  1  0
 74 72  2  0
 75 76  1  0
 76 77  2  0
 78 81  1  0
 78 77  1  0
 79 78  2  0
 80 79  1  0
 80 75  2  0
 81 82  1  0
 82 83  1  0
 83 84  2  0
 85 84  1  0
 85 89  1  0
 86 85  2  0
 87 82  2  0
 87 86  1  0
 88 87  1  0
 90 91  1  0
 91 94  1  0
 91 93  1  0
 92 90  2  0
 95 96  1  0
 95 70  1  0
 97 95  1  0
M  ISO  4   8 101   9 101  60 100  68 100
M  END
>  <TORSDO>  (39) 
F 27

>  <SCORE>  (39) 
-11.067

>  <name>  (39) 
38

>  <ligand_id>  (39) 
38

>  <original_smiles>  (39) 
[H]c1c([H])c([H])c2c(c1[H])C([H])([H])C([H])([H])C([H])([H])C2([H])N([H])C(=O)C1([H])N(C(=O)C([H])(N([H])C(=O)C([H])(N([H])C([H])([H])[H])C([H])([H])[H])C(C([H])([H])[H])(C([H])([H])[H])C([H])([H])[H])C([H])([H])c2c([H])c(OC([H])([H])C([H])([H])C([H])([H])C([H])([H])[N+]([H])([H])C([H])([H])C([H])([H])C([H])([H])C([H])([H])C([H])(N([H])C(=O)C([H])([H])N([H])C(=O)N3C([H])([H])C([H])([H])C([H])([H])C([H])(n4nc(-c5c([H])c([H])c(Oc6c([H])c([H])c(F)c([H])c6F)c([H])c5[H])c(C(=O)N([H])[H])c4N([H])[H])C3([H])[H])C([H])([H])[H])c([H])c([H])c2C1([H])[H]

>  <smiles>  (39) 
[H]c1c([H])c([H])c2c(c1[H])C([H])([H])C([H])([H])C([H])([H])C2([H])N([H])C(=O)C1([H])N(C(=O)C([H])(N([H])C(=O)C([H])(N([H])C([H])([H])[H])C([H])([H])[H])C(C([H])([H])[H])(C([H])([H])[H])C([H])([H])[H])C([H])([H])c2c([H])c(OC([H])([H])C([H])([H])C([H])([H])C([H])([H])[N+]([H])([H])C([H])([H])C([H])([H])C([H])([H])C([H])([H])C([H])(N([H])C(=O)C([H])([H])N([H])C(=O)N3C([H])([H])C([H])([H])C([H])([H])C([H])(n4nc(-c5c([H])c([H])c(Oc6c([H])c([H])c(F)c([H])c6F)c([H])c5[H])c(C(=O)N([H])[H])c4N([H])[H])C3([H])[H])C([H])([H])[H])c([H])c([H])c2C1([H])[H]

$$$$
39:0:0
     RDKit          3D

 95102  0  0  1  0  0  0  0  0999 V2000
  -30.4840  -21.5530   22.0320 C   0  0  0  0  0  3  0  0  0  0  0  0
  -29.7610  -22.6830   21.9200 C   0  0  0  0  0  3  0  0  0  0  0  0
  -29.8180  -23.4410   20.6870 C   0  0  0  0  0  0  0  0  0  0  0  0
  -28.6820  -24.1070   20.4660 N   0  0  0  0  0  0  0  0  0  0  0  0
  -30.7520  -23.4330   19.8830 O   0  0  0  0  0  0  0  0  0  0  0  0
  -27.9780  -24.0860   21.1890 H   0  0  0  0  0  0  0  0  0  0  0  0
  -28.2840  -24.6730   19.1790 C   0  0  0  0  0  2  0  0  0  0  0  0
  -28.8060  -26.1080   18.9590 C   0  0  0  0  0  2  0  0  0  0  0  0
  -28.5460  -27.0000   20.0440 O   0  0  0  0  0  0  0  0  0  0  0  0
  -24.8730  -32.0360   23.4290 C   0  0  0  0  0  0  0  0  0  0  0  0
  -27.3530  -27.6860   20.0930 C   0  0  0  0  0  0  0  0  0  0  0  0
  -23.5830  -30.6920   21.8020 C   0  0  0  0  0  3  0  0  0  0  0  0
  -24.9600  -29.1880   20.2700 C   0  0  0  0  0  0  0  0  0  0  0  0
  -26.0990  -31.0390   21.5040 C   0  0  0  0  0  2  0  0  0  0  0  0
  -26.1420  -29.6850   20.8310 C   0  0  0  0  0  0  0  0  0  0  0  0
  -27.3340  -28.9330   20.7580 C   0  0  0  0  0  3  0  0  0  0  0  0
  -26.1510  -27.2070   19.5210 C   0  0  0  0  0  3  0  0  0  0  0  0
  -24.9570  -27.9430   19.6210 C   0  0  0  0  0  3  0  0  0  0  0  0
  -23.7250  -30.0510   20.3940 C   0  0  0  0  0  2  0  0  0  0  0  0
  -24.8730  -31.2700   22.3020 N   0  0  0  0  0  0  0  0  0  0  0  0
  -23.8210  -32.2990   24.0250 O   0  0  0  0  0  0  0  0  0  0  0  0
  -22.9700  -29.6450   22.7590 C   0  0  0  0  0  0  0  0  0  0  0  0
  -21.6720  -29.3540   22.5730 N   0  0  0  0  0  0  0  0  0  0  0  0
  -23.6590  -29.0960   23.6230 O   0  0  0  0  0  0  0  0  0  0  0  0
  -21.1750  -29.8520   21.8470 H   0  0  0  0  0  0  0  0  0  0  0  0
  -18.4270  -27.7920   22.8260 C   0  0  0  0  0  0  0  0  0  0  0  0
  -20.8930  -28.3770   23.3320 C   0  0  0  0  0  3  0  0  0  0  0  0
  -21.2230  -26.9360   22.8810 C   0  0  0  0  0  2  0  0  0  0  0  0
  -20.2810  -26.4150   21.7910 C   0  0  0  0  0  2  0  0  0  0  0  0
  -18.8300  -26.4320   22.2810 C   0  0  0  0  0  2  0  0  0  0  0  0
  -19.3970  -28.7110   23.3060 C   0  0  0  0  0  0  0  0  0  0  0  0
  -18.9720  -29.9750   23.7690 C   0  0  0  0  0  3  0  0  0  0  0  0
  -17.6090  -30.3240   23.7620 C   0  0  0  0  0  3  0  0  0  0  0  0
  -16.6510  -29.4030   23.3020 C   0  0  0  0  0  3  0  0  0  0  0  0
  -17.0600  -28.1400   22.8400 C   0  0  0  0  0  3  0  0  0  0  0  0
  -26.1930  -32.6390   24.0080 C   0  0  0  0  0  3  0  0  0  0  0  0
  -25.9310  -34.0480   24.3250 N   0  0  0  0  0  0  0  0  0  0  0  0
  -26.2760  -35.0800   23.5440 C   0  0  0  0  0  0  0  0  0  0  0  0
  -26.9200  -34.9440   22.5000 O   0  0  0  0  0  0  0  0  0  0  0  0
  -25.3640  -34.2310   25.1400 H   0  0  0  0  0  0  0  0  0  0  0  0
  -24.5950  -36.9130   23.1890 C   0  0  0  0  0  1  0  0  0  0  0  0
  -25.8360  -36.4870   23.9900 C   0  0  0  0  0  3  0  0  0  0  0  0
  -28.0060  -37.3210   24.7800 C   0  0  0  0  0  1  0  0  0  0  0  0
  -26.8970  -37.5090   23.8490 N   0  0  0  0  0  0  0  0  0  0  0  0
  -26.5190  -38.4420   23.9880 H   0  0  0  0  0  0  0  0  0  0  0  0
  -26.7210  -31.8680   25.2780 C   0  0  1  0  0  0  0  0  0  0  0  0
  -25.6390  -31.6330   26.3580 C   0  0  0  0  0  1  0  0  0  0  0  0
  -27.2960  -30.4910   24.8760 C   0  0  0  0  0  1  0  0  0  0  0  0
  -27.8780  -32.6610   25.9290 C   0  0  0  0  0  1  0  0  0  0  0  0
  -30.4150  -20.7330   23.2230 C   0  0  0  0  0  0  0  0  0  0  0  0
  -30.7580  -19.4710   22.9480 N   0  0  0  0  0  0  0  0  0  0  0  0
  -30.0650  -21.1070   24.3430 O   0  0  0  0  0  0  0  0  0  0  0  0
  -31.0300  -19.2650   21.9970 H   0  0  0  0  0  0  0  0  0  0  0  0
  -30.7380  -18.3470   23.8750 C   0  0  0  0  0  2  0  0  0  0  0  0
  -30.4930  -17.0200   23.1290 C   0  0  0  0  0  2  0  0  0  0  0  0
  -31.2930  -16.8950   21.8170 C   0  0  0  0  0  2  0  0  0  0  0  0
  -31.6210  -15.4480   21.4190 C   0  0  0  0  0  2  0  0  0  0  0  0
  -30.3630  -14.2910   19.6070 C   0  0  0  0  0  0  0  0  0  0  0  0
  -29.8340  -12.2220   18.3810 C   0  0  0  0  0  2  0  0  0  0  0  0
  -28.6930  -12.3410   17.3580 C   0  0  0  0  0  2  0  0  0  0  0  0
  -27.3360  -12.1050   18.0390 C   0  0  0  0  0  2  0  0  0  0  0  0
  -27.1560  -12.9830   19.3040 C   0  0  0  0  0  3  0  0  0  0  0  0
  -28.3800  -12.8790   20.2400 C   0  0  0  0  0  2  0  0  0  0  0  0
  -29.6040  -13.1780   19.4720 N   0  0  0  0  0  0  0  0  0  0  0  0
  -31.0930  -14.7320   18.7120 O   0  0  0  0  0  0  0  0  0  0  0  0
  -30.4780  -14.7090   20.8770 N   0  0  0  0  0  0  0  0  0  0  0  0
  -29.8760  -14.2480   21.5440 H   0  0  0  0  0  0  0  0  0  0  0  0
  -24.9060  -13.4920   20.4500 C   0  0  0  0  0  0  0  0  0  0  0  0
  -23.9370  -12.6750   20.9670 C   0  0  0  0  0  0  0  0  0  0  0  0
  -24.4130  -11.3400   20.7920 C   0  0  0  0  0  0  0  0  0  0  0  0
  -25.9140  -12.6520   20.0010 N   0  0  0  0  0  0  0  0  0  0  0  0
  -25.6290  -11.3500   20.2600 N   0  0  0  0  0  0  0  0  0  0  0  0
  -23.7590  -10.0510   21.0520 C   0  0  0  0  0  0  0  0  0  0  0  0
  -24.2990   -9.1190   21.9650 C   0  0  0  0  0  3  0  0  0  0  0  0
  -23.6440   -7.8940   22.2100 C   0  0  0  0  0  3  0  0  0  0  0  0
  -22.4330   -7.5910   21.5440 C   0  0  0  0  0  0  0  0  0  0  0  0
  -21.9100   -8.5120   20.6190 C   0  0  0  0  0  3  0  0  0  0  0  0
  -22.5670   -9.7290   20.3720 C   0  0  0  0  0  3  0  0  0  0  0  0
  -21.7390   -6.4150   21.7010 O   0  0  0  0  0  0  0  0  0  0  0  0
  -21.7240   -5.7410   22.8960 C   0  0  0  0  0  0  0  0  0  0  0  0
  -21.2480   -6.3400   24.0820 C   0  0  0  0  0  3  0  0  0  0  0  0
  -21.1850   -5.5890   25.2730 C   0  0  0  0  0  3  0  0  0  0  0  0
  -21.5890   -4.2410   25.2790 C   0  0  0  0  0  0  0  0  0  0  0  0
  -22.0580   -3.6410   24.0970 C   0  0  0  0  0  3  0  0  0  0  0  0
  -22.1230   -4.3890   22.9080 C   0  0  0  0  0  0  0  0  0  0  0  0
  -22.5560   -3.8020   21.7670 F   0  0  0  0  0  0  0  0  0  0  0  0
  -21.5220   -3.5170   26.4200 F   0  0  0  0  0  0  0  0  0  0  0  0
  -22.6010  -13.1010   21.5040 C   0  0  0  0  0  0  0  0  0  0  0  0
  -22.0700  -12.3680   22.4780 N   0  0  0  0  0  0  0  0  0  0  0  0
  -22.0420  -14.1190   21.0960 O   0  0  0  0  0  0  0  0  0  0  0  0
  -22.5390  -11.5460   22.8280 H   0  0  0  0  0  0  0  0  0  0  0  0
  -21.1830  -12.6350   22.8810 H   0  0  0  0  0  0  0  0  0  0  0  0
  -25.0090  -14.8730   20.3080 N   0  0  0  0  0  0  0  0  0  0  0  0
  -24.2660  -15.5060   20.5840 H   0  0  0  0  0  0  0  0  0  0  0  0
  -25.7930  -15.3480   19.8780 H   0  0  0  0  0  0  0  0  0  0  0  0
  1 50  1  0
  2  1  2  0
  3  2  1  0
  4  3  1  0
  4  6  1  0
  5  3  2  0
  7  4  1  0
  8  7  1  0
  8  9  1  0
  9 11  1  0
 10 21  2  0
 11 16  1  0
 12 20  1  0
 12 22  1  0
 13 19  1  0
 13 15  1  0
 14 20  1  0
 15 14  1  0
 16 15  2  0
 17 18  1  0
 17 11  2  0
 18 13  2  0
 19 12  1  0
 20 10  1  0
 22 24  2  0
 23 22  1  0
 25 23  1  0
 26 35  2  0
 26 31  1  0
 27 23  1  0
 28 27  1  0
 29 30  1  0
 29 28  1  0
 30 26  1  0
 31 27  1  0
 31 32  2  0
 33 32  1  0
 34 33  2  0
 35 34  1  0
 36 10  1  0
 36 37  1  0
 36 46  1  0
 37 40  1  0
 38 42  1  0
 38 37  1  0
 39 38  2  0
 42 41  1  0
 44 45  1  0
 44 42  1  0
 44 43  1  0
 46 49  1  1
 46 47  1  0
 48 46  1  0
 50 52  2  0
 51 50  1  0
 51 54  1  0
 53 51  1  0
 55 54  1  0
 56 55  1  0
 57 56  1  0
 58 66  1  0
 59 64  1  0
 60 61  1  0
 60 59  1  0
 62 61  1  0
 62 71  1  0
 62 63  1  0
 64 58  1  0
 64 63  1  0
 65 58  2  0
 66 57  1  0
 66 67  1  0
 68 69  2  0
 69 88  1  0
 70 69  1  0
 70 73  1  0
 71 72  1  0
 71 68  1  0
 72 70  2  0
 73 74  1  0
 74 75  2  0
 76 79  1  0
 76 75  1  0
 77 76  2  0
 78 77  1  0
 78 73  2  0
 79 80  1  0
 80 85  2  0
 80 81  1  0
 81 82  2  0
 82 83  1  0
 83 87  1  0
 84 83  2  0
 85 84  1  0
 86 85  1  0
 88 89  1  0
 89 91  1  0
 89 92  1  0
 90 88  2  0
 93 68  1  0
 93 94  1  0
 95 93  1  0
M  ISO  4   8 101   9 101  58 100  66 100
M  END
>  <TORSDO>  (40) 
F 24

>  <SCORE>  (40) 
-9.740

>  <name>  (40) 
39

>  <ligand_id>  (40) 
39

>  <original_smiles>  (40) 
[H]C(C(=O)N([H])C([H])([H])C([H])([H])Oc1c([H])c([H])c2c(c1[H])C([H])([H])N(C(=O)C([H])(N([H])C(=O)C([H])(N([H])C([H])([H])[H])C([H])([H])[H])C(C([H])([H])[H])(C([H])([H])[H])C([H])([H])[H])C([H])(C(=O)N([H])C1([H])c3c([H])c([H])c([H])c([H])c3C([H])([H])C([H])([H])C1([H])[H])C2([H])[H])=C([H])C(=O)N([H])C([H])([H])C([H])([H])C([H])([H])C([H])([H])N([H])C(=O)N1C([H])([H])C([H])([H])C([H])([H])C([H])(n2nc(-c3c([H])c([H])c(Oc4c([H])c([H])c(F)c([H])c4F)c([H])c3[H])c(C(=O)N([H])[H])c2N([H])[H])C1([H])[H]

>  <smiles>  (40) 
[H]C(C(=O)N([H])C([H])([H])C([H])([H])Oc1c([H])c([H])c2c(c1[H])C([H])([H])N(C(=O)C([H])(N([H])C(=O)C([H])(N([H])C([H])([H])[H])C([H])([H])[H])C(C([H])([H])[H])(C([H])([H])[H])C([H])([H])[H])C([H])(C(=O)N([H])C1([H])c3c([H])c([H])c([H])c([H])c3C([H])([H])C([H])([H])C1([H])[H])C2([H])[H])=C([H])C(=O)N([H])C([H])([H])C([H])([H])C([H])([H])C([H])([H])N([H])C(=O)N1C([H])([H])C([H])([H])C([H])([H])C([H])(n2nc(-c3c([H])c([H])c(Oc4c([H])c([H])c(F)c([H])c4F)c([H])c3[H])c(C(=O)N([H])[H])c2N([H])[H])C1([H])[H]

$$$$
40:0:0
     RDKit          3D

107114  0  0  1  0  0  0  0  0999 V2000
  -22.9260  -19.3140   18.1520 C   0  0  0  0  0  2  0  0  0  0  0  0
  -23.9960  -20.3600   18.5250 C   0  0  0  0  0  2  0  0  0  0  0  0
  -24.5580  -22.6120   17.5170 C   0  0  0  0  0  0  0  0  0  0  0  0
  -23.7300  -21.5970   17.7970 N   0  0  0  0  0  0  0  0  0  0  0  0
  -24.1220  -23.5930   16.9130 O   0  0  0  0  0  0  0  0  0  0  0  0
  -22.7760  -21.7140   17.4810 H   0  0  0  0  0  0  0  0  0  0  0  0
  -26.0410  -22.5600   17.9340 C   0  0  0  0  0  2  0  0  0  0  0  0
  -26.6300  -23.9780   18.1340 C   0  0  0  0  0  2  0  0  0  0  0  0
  -28.0880  -24.0090   18.4180 N   0  0  0  0  0  4  0  0  0  0  0  0
  -28.6110  -23.7960   17.5820 H   0  0  0  0  0  0  0  0  0  0  0  0
  -28.2860  -23.2740   19.0790 H   0  0  0  0  0  0  0  0  0  0  0  0
  -28.5750  -25.2950   18.9970 C   0  0  0  0  0  2  0  0  0  0  0  0
  -28.9450  -26.3590   17.9350 C   0  0  0  0  0  2  0  0  0  0  0  0
  -28.7290  -27.6910   18.4200 O   0  0  0  0  0  0  0  0  0  0  0  0
  -24.4500  -31.3020   22.8040 C   0  0  0  0  0  0  0  0  0  0  0  0
  -27.4400  -28.1320   18.6490 C   0  0  0  0  0  0  0  0  0  0  0  0
  -23.3140  -30.0330   21.0060 C   0  0  0  0  0  3  0  0  0  0  0  0
  -24.8330  -29.0960   19.1850 C   0  0  0  0  0  0  0  0  0  0  0  0
  -25.7000  -30.8950   20.6870 C   0  0  0  0  0  2  0  0  0  0  0  0
  -25.9410  -29.7080   19.7790 C   0  0  0  0  0  0  0  0  0  0  0  0
  -27.2440  -29.2290   19.5200 C   0  0  0  0  0  3  0  0  0  0  0  0
  -26.3060  -27.5520   18.0340 C   0  0  0  0  0  3  0  0  0  0  0  0
  -25.0090  -28.0110   18.3120 C   0  0  0  0  0  3  0  0  0  0  0  0
  -23.4740  -29.6720   19.5070 C   0  0  0  0  0  2  0  0  0  0  0  0
  -24.5100  -30.7500   21.5580 N   0  0  0  0  0  0  0  0  0  0  0  0
  -23.4100  -31.2580   23.4740 O   0  0  0  0  0  0  0  0  0  0  0  0
  -22.9600  -28.7460   21.7830 C   0  0  0  0  0  0  0  0  0  0  0  0
  -21.7090  -28.2830   21.6350 N   0  0  0  0  0  0  0  0  0  0  0  0
  -23.8060  -28.1740   22.4760 O   0  0  0  0  0  0  0  0  0  0  0  0
  -21.0720  -28.8120   21.0550 H   0  0  0  0  0  0  0  0  0  0  0  0
  -18.7710  -26.1930   21.8390 C   0  0  0  0  0  0  0  0  0  0  0  0
  -21.1700  -27.0660   22.2390 C   0  0  0  0  0  3  0  0  0  0  0  0
  -21.6470  -25.8080   21.4770 C   0  0  0  0  0  2  0  0  0  0  0  0
  -20.6690  -25.3550   20.3880 C   0  0  0  0  0  2  0  0  0  0  0  0
  -19.2950  -25.0460   20.9930 C   0  0  0  0  0  2  0  0  0  0  0  0
  -19.6500  -27.1500   22.4120 C   0  0  0  0  0  0  0  0  0  0  0  0
  -19.1080  -28.2180   23.1590 C   0  0  0  0  0  3  0  0  0  0  0  0
  -17.7170  -28.3360   23.3410 C   0  0  0  0  0  3  0  0  0  0  0  0
  -16.8520  -27.3780   22.7850 C   0  0  0  0  0  3  0  0  0  0  0  0
  -17.3780  -26.3090   22.0390 C   0  0  0  0  0  3  0  0  0  0  0  0
  -25.6770  -32.0330   23.4350 C   0  0  0  0  0  3  0  0  0  0  0  0
  -26.2680  -31.2850   24.6920 C   0  0  1  0  0  0  0  0  0  0  0  0
  -25.2050  -30.9370   25.7600 C   0  0  0  0  0  1  0  0  0  0  0  0
  -26.9650  -29.9700   24.2710 C   0  0  0  0  0  1  0  0  0  0  0  0
  -27.3440  -32.1640   25.3690 C   0  0  0  0  0  1  0  0  0  0  0  0
  -25.2450  -33.3900   23.7930 N   0  0  0  0  0  0  0  0  0  0  0  0
  -25.5470  -34.4920   23.0950 C   0  0  0  0  0  0  0  0  0  0  0  0
  -26.2890  -34.4800   22.1090 O   0  0  0  0  0  0  0  0  0  0  0  0
  -24.5920  -33.4710   24.5580 H   0  0  0  0  0  0  0  0  0  0  0  0
  -23.7520  -36.1960   22.6440 C   0  0  0  0  0  1  0  0  0  0  0  0
  -24.9240  -35.8200   23.5660 C   0  0  0  0  0  3  0  0  0  0  0  0
  -26.9000  -36.7790   24.6620 C   0  0  0  0  0  1  0  0  0  0  0  0
  -25.8900  -36.9370   23.6190 N   0  0  0  0  0  0  0  0  0  0  0  0
  -25.4110  -37.8210   23.7700 H   0  0  0  0  0  0  0  0  0  0  0  0
  -22.9890  -17.9810   18.9220 C   0  0  0  0  0  2  0  0  0  0  0  0
  -24.4100  -17.4570   19.1800 C   0  0  0  0  0  2  0  0  0  0  0  0
  -24.4320  -16.1890   20.0590 C   0  0  0  0  0  2  0  0  0  0  0  0
  -25.8370  -15.6100   20.3260 C   0  0  0  0  0  2  0  0  0  0  0  0
  -26.4610  -14.9990   19.1330 N   0  0  0  0  0  4  0  0  0  0  0  0
  -26.1290  -15.4580   18.3010 H   0  0  0  0  0  0  0  0  0  0  0  0
  -26.1360  -14.0450   19.0830 H   0  0  0  0  0  0  0  0  0  0  0  0
  -27.9440  -14.9580   19.1340 C   0  0  0  0  0  2  0  0  0  0  0  0
  -28.5780  -16.3490   18.9360 C   0  0  0  0  0  2  0  0  0  0  0  0
  -30.1070  -16.3550   18.7190 C   0  0  0  0  0  2  0  0  0  0  0  0
  -30.9080  -15.2290   20.8160 C   0  0  0  0  0  0  0  0  0  0  0  0
  -30.8840  -15.3720   19.4820 N   0  0  0  0  0  0  0  0  0  0  0  0
  -30.0490  -15.6980   21.5610 O   0  0  0  0  0  0  0  0  0  0  0  0
  -31.5970  -14.8740   18.9640 H   0  0  0  0  0  0  0  0  0  0  0  0
  -32.0790  -14.4600   21.4270 C   0  0  0  0  0  2  0  0  0  0  0  0
  -32.1530  -12.0100   21.4000 C   0  0  0  0  0  0  0  0  0  0  0  0
  -31.4690  -10.0410   20.1190 C   0  0  0  0  0  2  0  0  0  0  0  0
  -30.7300  -10.5610   18.8670 C   0  0  0  0  0  2  0  0  0  0  0  0
  -29.2340  -10.7800   19.1660 C   0  0  0  0  0  2  0  0  0  0  0  0
  -28.9910  -11.5900   20.4690 C   0  0  0  0  0  3  0  0  0  0  0  0
  -29.8480  -11.0350   21.6330 C   0  0  0  0  0  2  0  0  0  0  0  0
  -31.2540  -11.0190   21.1920 N   0  0  0  0  0  0  0  0  0  0  0  0
  -33.3230  -11.9690   21.0100 O   0  0  0  0  0  0  0  0  0  0  0  0
  -31.6130  -13.1450   21.8450 N   0  0  0  0  0  0  0  0  0  0  0  0
  -30.6550  -13.0960   22.1540 H   0  0  0  0  0  0  0  0  0  0  0  0
  -26.7580  -12.7320   21.0570 C   0  0  0  0  0  0  0  0  0  0  0  0
  -25.5000  -12.2270   21.2440 C   0  0  0  0  0  0  0  0  0  0  0  0
  -25.6180  -10.8100   21.1160 C   0  0  0  0  0  0  0  0  0  0  0  0
  -27.5740  -11.6360   20.8140 N   0  0  0  0  0  0  0  0  0  0  0  0
  -26.8840  -10.4720   20.9070 N   0  0  0  0  0  0  0  0  0  0  0  0
  -24.5940   -9.7590   21.1300 C   0  0  0  0  0  0  0  0  0  0  0  0
  -24.6400   -8.6990   22.0620 C   0  0  0  0  0  3  0  0  0  0  0  0
  -23.6310   -7.7120   22.0710 C   0  0  0  0  0  3  0  0  0  0  0  0
  -22.5620   -7.7820   21.1470 C   0  0  0  0  0  0  0  0  0  0  0  0
  -22.5340   -8.8280   20.2080 C   0  0  0  0  0  3  0  0  0  0  0  0
  -23.5420   -9.8050   20.1940 C   0  0  0  0  0  3  0  0  0  0  0  0
  -21.5540   -6.8500   21.0650 O   0  0  0  0  0  0  0  0  0  0  0  0
  -21.0770   -6.2030   22.1760 C   0  0  0  0  0  0  0  0  0  0  0  0
  -20.5490   -6.9090   23.2800 C   0  0  0  0  0  3  0  0  0  0  0  0
  -20.0030   -6.2050   24.3700 C   0  0  0  0  0  3  0  0  0  0  0  0
  -19.9780   -4.7980   24.3590 C   0  0  0  0  0  0  0  0  0  0  0  0
  -20.4990   -4.0930   23.2600 C   0  0  0  0  0  3  0  0  0  0  0  0
  -21.0450   -4.7930   22.1710 C   0  0  0  0  0  0  0  0  0  0  0  0
  -21.5250   -4.1090   21.1050 F   0  0  0  0  0  0  0  0  0  0  0  0
  -19.4450   -4.1210   25.4020 F   0  0  0  0  0  0  0  0  0  0  0  0
  -24.2400  -13.0180   21.4520 C   0  0  0  0  0  0  0  0  0  0  0  0
  -23.2890  -12.4640   22.1970 N   0  0  0  0  0  0  0  0  0  0  0  0
  -24.1110  -14.1520   20.9960 O   0  0  0  0  0  0  0  0  0  0  0  0
  -23.4030  -11.5440   22.5930 H   0  0  0  0  0  0  0  0  0  0  0  0
  -22.4320  -12.9670   22.3690 H   0  0  0  0  0  0  0  0  0  0  0  0
  -27.2630  -14.0270   21.0580 N   0  0  0  0  0  0  0  0  0  0  0  0
  -26.6540  -14.8210   21.2160 H   0  0  0  0  0  0  0  0  0  0  0  0
  -28.2420  -14.3080   21.0070 H   0  0  0  0  0  0  0  0  0  0  0  0
  1  2  1  0
  1 55  1  0
  3  4  1  0
  3  7  1  0
  4  2  1  0
  5  3  2  0
  6  4  1  0
  7  8  1  0
  8  9  1  0
  9 12  1  0
  9 11  1  0
 10  9  1  0
 13 14  1  0
 13 12  1  0
 14 16  1  0
 15 26  2  0
 16 21  1  0
 17 25  1  0
 17 27  1  0
 18 24  1  0
 18 20  1  0
 19 25  1  0
 20 19  1  0
 21 20  2  0
 22 23  1  0
 22 16  2  0
 23 18  2  0
 24 17  1  0
 25 15  1  0
 27 29  2  0
 28 27  1  0
 30 28  1  0
 31 40  2  0
 31 36  1  0
 32 28  1  0
 32 36  1  0
 33 32  1  0
 34 35  1  0
 34 33  1  0
 35 31  1  0
 36 37  2  0
 37 38  1  0
 39 38  2  0
 40 39  1  0
 41 15  1  0
 41 46  1  0
 41 42  1  0
 42 45  1  1
 42 43  1  0
 44 42  1  0
 46 49  1  0
 47 51  1  0
 47 46  1  0
 48 47  2  0
 51 50  1  0
 51 53  1  0
 53 54  1  0
 53 52  1  0
 55 56  1  0
 56 57  1  0
 57 58  1  0
 59 62  1  0
 59 58  1  0
 60 59  1  0
 61 59  1  0
 63 62  1  0
 64 63  1  0
 64 66  1  0
 65 69  1  0
 65 67  2  0
 66 65  1  0
 68 66  1  0
 69 78  1  0
 70 78  1  0
 71 76  1  0
 72 73  1  0
 72 71  1  0
 74 73  1  0
 74 83  1  0
 74 75  1  0
 76 70  1  0
 76 75  1  0
 77 70  2  0
 78 79  1  0
 80105  1  0
 80 81  2  0
 81100  1  0
 82 85  1  0
 82 81  1  0
 83 84  1  0
 83 80  1  0
 84 82  2  0
 85 86  1  0
 86 87  2  0
 88 87  1  0
 89 88  2  0
 90 89  1  0
 90 85  2  0
 91 88  1  0
 91 92  1  0
 92 93  1  0
 93 94  2  0
 95 94  1  0
 95 99  1  0
 96 95  2  0
 97 92  2  0
 97 96  1  0
 98 97  1  0
100101  1  0
101104  1  0
101103  1  0
102100  2  0
105106  1  0
107105  1  0
M  ISO  4  13 101  14 101  70 100  78 100
M  END
>  <TORSDO>  (41) 
F 33

>  <SCORE>  (41) 
2.267

>  <name>  (41) 
40

>  <ligand_id>  (41) 
40

>  <original_smiles>  (41) 
[H]c1c([H])c([H])c2c(c1[H])C([H])([H])C([H])([H])C([H])([H])C2([H])N([H])C(=O)C1([H])N(C(=O)C([H])(N([H])C(=O)C([H])(N([H])C([H])([H])[H])C([H])([H])[H])C(C([H])([H])[H])(C([H])([H])[H])C([H])([H])[H])C([H])([H])c2c([H])c(OC([H])([H])C([H])([H])[N+]([H])([H])C([H])([H])C([H])([H])C(=O)N([H])C([H])([H])C([H])([H])C([H])([H])C([H])([H])C([H])([H])C([H])([H])[N+]([H])([H])C([H])([H])C([H])([H])C([H])([H])N([H])C(=O)C([H])([H])N([H])C(=O)N3C([H])([H])C([H])([H])C([H])([H])C([H])(n4nc(-c5c([H])c([H])c(Oc6c([H])c([H])c(F)c([H])c6F)c([H])c5[H])c(C(=O)N([H])[H])c4N([H])[H])C3([H])[H])c([H])c([H])c2C1([H])[H]

>  <smiles>  (41) 
[H]c1c([H])c([H])c2c(c1[H])C([H])([H])C([H])([H])C([H])([H])C2([H])N([H])C(=O)C1([H])N(C(=O)C([H])(N([H])C(=O)C([H])(N([H])C([H])([H])[H])C([H])([H])[H])C(C([H])([H])[H])(C([H])([H])[H])C([H])([H])[H])C([H])([H])c2c([H])c(OC([H])([H])C([H])([H])[N+]([H])([H])C([H])([H])C([H])([H])C(=O)N([H])C([H])([H])C([H])([H])C([H])([H])C([H])([H])C([H])([H])C([H])([H])[N+]([H])([H])C([H])([H])C([H])([H])C([H])([H])N([H])C(=O)C([H])([H])N([H])C(=O)N3C([H])([H])C([H])([H])C([H])([H])C([H])(n4nc(-c5c([H])c([H])c(Oc6c([H])c([H])c(F)c([H])c6F)c([H])c5[H])c(C(=O)N([H])[H])c4N([H])[H])C3([H])[H])c([H])c([H])c2C1([H])[H]

$$$$
41:0:0
     RDKit          3D

116121  0  0  1  0  0  0  0  0999 V2000
  -26.9180  -17.6870   18.4320 C   0  0  0  0  0  2  0  0  0  0  0  0
  -26.8820  -17.7310   19.9800 C   0  0  0  0  0  2  0  0  0  0  0  0
  -29.3380  -17.0990   20.0950 C   0  0  0  0  0  0  0  0  0  0  0  0
  -28.1410  -17.3660   20.6450 N   0  0  0  0  0  0  0  0  0  0  0  0
  -29.5580  -17.1490   18.8850 O   0  0  0  0  0  0  0  0  0  0  0  0
  -28.0750  -17.2510   21.6490 H   0  0  0  0  0  0  0  0  0  0  0  0
  -30.4730  -16.6980   21.0400 C   0  0  0  0  0  2  0  0  0  0  0  0
  -31.0670  -14.4370   21.9240 C   0  0  0  0  0  0  0  0  0  0  0  0
  -30.7650  -15.2660   20.9160 N   0  0  0  0  0  0  0  0  0  0  0  0
  -31.2240  -14.8340   23.0800 O   0  0  0  0  0  0  0  0  0  0  0  0
  -30.6480  -14.8750   19.9910 H   0  0  0  0  0  0  0  0  0  0  0  0
  -31.2260  -12.9460   21.6080 C   0  0  0  0  0  2  0  0  0  0  0  0
  -30.2620  -10.8080   22.4780 C   0  0  0  0  0  3  0  0  0  0  0  0
  -30.4400  -12.1340   22.5400 N   0  0  0  0  0  0  0  0  0  0  0  0
  -30.7650  -10.1110   21.5970 O   0  0  0  0  0  0  0  0  0  0  0  0
  -29.9340  -12.6640   23.2380 H   0  0  0  0  0  0  0  0  0  0  0  0
  -29.4470  -10.1470   23.6030 C   0  0  0  0  0  2  0  0  0  0  0  0
  -27.9460   -9.9330   23.2690 C   0  0  0  0  0  2  0  0  0  0  0  0
  -27.6660   -8.7880   22.2570 C   0  0  0  0  0  2  0  0  0  0  0  0
  -26.8980   -9.2070   20.9700 C   0  0  0  0  0  2  0  0  0  0  0  0
  -27.7030   -9.3020   19.6380 C   0  0  0  0  0  2  0  0  0  0  0  0
  -29.3830  -11.6110   19.8550 C   0  0  2  0  0  0  0  0  0  0  0  0
  -30.3400  -10.8990   18.7580 C   0  0  0  0  0  1  0  0  0  0  0  0
  -29.5160  -12.0830   17.5270 C   0  0  0  0  0  1  0  0  0  0  0  0
  -28.0260  -12.8950   17.9780 C   0  0  0  0  0  2  0  0  0  0  0  0
  -27.5020  -13.0750   19.6410 C   0  0  0  0  0  2  0  0  0  0  0  0
  -28.3380  -12.0470   20.9890 C   0  0  0  0  0  1  0  0  0  0  0  0
  -29.6790  -10.9430   20.4570 N   0  0  0  0  0  2  0  0  0  0  0  0
  -30.2000  -12.7350   19.9520 O   0  0  0  0  0  1  0  0  0  0  0  0
  -28.1810  -10.6670   19.2570 N   0  0  0  0  0  2  0  0  0  0  0  0
  -27.6250  -11.1300   18.5540 H   0  0  0  0  0  0  0  0  0  0  0  0
  -25.2960  -13.0800   20.8960 C   0  0  0  0  0  0  0  0  0  0  0  0
  -23.9770  -13.1850   20.5600 C   0  0  0  0  0  0  0  0  0  0  0  0
  -23.9410  -13.2860   19.1370 C   0  0  0  0  0  0  0  0  0  0  0  0
  -26.0240  -13.1150   19.7320 N   0  0  0  0  0  0  0  0  0  0  0  0
  -25.1890  -13.2260   18.6500 N   0  0  0  0  0  0  0  0  0  0  0  0
  -22.7760  -13.4830   18.2400 C   0  0  0  0  0  0  0  0  0  0  0  0
  -22.4900  -12.5870   17.1870 C   0  0  0  0  0  3  0  0  0  0  0  0
  -21.3540  -12.7760   16.3660 C   0  0  0  0  0  3  0  0  0  0  0  0
  -20.4820  -13.8710   16.5900 C   0  0  0  0  0  0  0  0  0  0  0  0
  -20.7740  -14.7630   17.6330 C   0  0  0  0  0  3  0  0  0  0  0  0
  -21.9070  -14.5740   18.4460 C   0  0  0  0  0  3  0  0  0  0  0  0
  -19.3730  -14.1570   15.8270 O   0  0  0  0  0  0  0  0  0  0  0  0
  -18.3220  -13.2850   15.7150 C   0  0  0  0  0  0  0  0  0  0  0  0
  -17.8240  -12.5630   16.8230 C   0  0  0  0  0  3  0  0  0  0  0  0
  -16.6950  -11.7350   16.6710 C   0  0  0  0  0  3  0  0  0  0  0  0
  -16.0530  -11.6290   15.4230 C   0  0  0  0  0  0  0  0  0  0  0  0
  -16.5430  -12.3510   14.3210 C   0  0  0  0  0  3  0  0  0  0  0  0
  -17.6720  -13.1760   14.4670 C   0  0  0  0  0  0  0  0  0  0  0  0
  -18.1250  -13.8860   13.4050 F   0  0  0  0  0  0  0  0  0  0  0  0
  -14.9650  -10.8370   15.2860 F   0  0  0  0  0  0  0  0  0  0  0  0
  -22.8340  -13.2910   21.5270 C   0  0  0  0  0  0  0  0  0  0  0  0
  -21.7570  -12.5470   21.2950 N   0  0  0  0  0  0  0  0  0  0  0  0
  -22.9070  -14.0120   22.5210 O   0  0  0  0  0  0  0  0  0  0  0  0
  -21.7160  -11.9350   20.4910 H   0  0  0  0  0  0  0  0  0  0  0  0
  -20.9690  -12.6000   21.9230 H   0  0  0  0  0  0  0  0  0  0  0  0
  -25.9640  -12.9770   22.1020 N   0  0  0  0  0  0  0  0  0  0  0  0
  -25.4550  -12.8950   22.9710 H   0  0  0  0  0  0  0  0  0  0  0  0
  -26.9660  -13.0280   22.2200 H   0  0  0  0  0  0  0  0  0  0  0  0
  -27.1880  -19.0720   17.8150 C   0  0  0  0  0  2  0  0  0  0  0  0
  -28.4870  -19.1660   16.9930 C   0  0  0  0  0  2  0  0  0  0  0  0
  -28.8680  -20.6300   16.6910 C   0  0  0  0  0  2  0  0  0  0  0  0
  -30.3830  -20.9050   16.7290 C   0  0  0  0  0  2  0  0  0  0  0  0
  -30.7260  -22.3450   16.3050 C   0  0  0  0  0  2  0  0  0  0  0  0
  -32.1380  -22.8070   16.7180 C   0  0  0  0  0  2  0  0  0  0  0  0
  -31.7580  -24.4960   18.5080 C   0  0  0  0  0  0  0  0  0  0  0  0
  -32.1890  -23.2980   18.0950 N   0  0  0  0  0  0  0  0  0  0  0  0
  -31.2360  -25.3150   17.7470 O   0  0  0  0  0  0  0  0  0  0  0  0
  -32.6150  -22.6870   18.7820 H   0  0  0  0  0  0  0  0  0  0  0  0
  -31.9420  -24.8350   19.9880 C   0  0  0  0  0  2  0  0  0  0  0  0
  -31.1620  -26.0350   20.3560 N   0  0  0  0  0  4  0  0  0  0  0  0
  -30.2370  -25.7260   20.6140 H   0  0  0  0  0  0  0  0  0  0  0  0
  -31.0520  -26.5990   19.5270 H   0  0  0  0  0  0  0  0  0  0  0  0
  -31.7250  -26.8330   21.4710 C   0  0  0  0  0  2  0  0  0  0  0  0
  -30.6930  -27.8290   22.0170 C   0  0  0  0  0  2  0  0  0  0  0  0
  -29.8470  -27.0870   22.8880 O   0  0  0  0  0  0  0  0  0  0  0  0
  -28.0810  -32.8230   26.7980 C   0  0  0  0  0  0  0  0  0  0  0  0
  -28.9520  -27.7660   23.6810 C   0  0  0  0  0  0  0  0  0  0  0  0
  -26.6230  -30.8360   27.0330 C   0  0  0  0  0  3  0  0  0  0  0  0
  -27.0060  -28.9800   25.3300 C   0  0  0  0  0  0  0  0  0  0  0  0
  -27.9030  -31.2680   24.8640 C   0  0  0  0  0  2  0  0  0  0  0  0
  -27.9550  -29.7690   24.6660 C   0  0  0  0  0  0  0  0  0  0  0  0
  -28.9290  -29.1710   23.8390 C   0  0  0  0  0  3  0  0  0  0  0  0
  -28.0070  -26.9830   24.3740 C   0  0  0  0  0  3  0  0  0  0  0  0
  -27.0310  -27.5820   25.1920 C   0  0  0  0  0  3  0  0  0  0  0  0
  -25.9900  -29.7050   26.1810 C   0  0  0  0  0  2  0  0  0  0  0  0
  -27.5850  -31.6790   26.2500 N   0  0  0  0  0  0  0  0  0  0  0  0
  -27.7160  -33.2070   27.9180 O   0  0  0  0  0  0  0  0  0  0  0  0
  -27.2510  -30.2070   28.2970 C   0  0  0  0  0  0  0  0  0  0  0  0
  -26.5640  -30.3570   29.4420 N   0  0  0  0  0  0  0  0  0  0  0  0
  -28.3110  -29.5780   28.2320 O   0  0  0  0  0  0  0  0  0  0  0  0
  -25.7070  -30.8910   29.4130 H   0  0  0  0  0  0  0  0  0  0  0  0
  -25.9710  -30.6520   32.9920 C   0  0  0  0  0  0  0  0  0  0  0  0
  -26.9400  -29.8160   30.7480 C   0  0  0  0  0  3  0  0  0  0  0  0
  -26.1970  -28.4910   31.0360 C   0  0  0  0  0  2  0  0  0  0  0  0
  -24.8920  -28.6880   31.8150 C   0  0  0  0  0  2  0  0  0  0  0  0
  -25.1670  -29.3740   33.1580 C   0  0  0  0  0  2  0  0  0  0  0  0
  -26.7910  -30.8670   31.8530 C   0  0  0  0  0  0  0  0  0  0  0  0
  -27.4900  -32.0870   31.7320 C   0  0  0  0  0  3  0  0  0  0  0  0
  -27.3810  -33.0800   32.7230 C   0  0  0  0  0  3  0  0  0  0  0  0
  -26.5800  -32.8560   33.8570 C   0  0  0  0  0  3  0  0  0  0  0  0
  -25.8820  -31.6440   33.9910 C   0  0  0  0  0  3  0  0  0  0  0  0
  -29.1100  -33.7170   26.0350 C   0  0  0  0  0  3  0  0  0  0  0  0
  -30.5960  -33.5050   26.5160 C   0  0  1  0  0  0  0  0  0  0  0  0
  -30.7570  -33.4970   28.0550 C   0  0  0  0  0  1  0  0  0  0  0  0
  -31.1570  -32.1690   25.9760 C   0  0  0  0  0  1  0  0  0  0  0  0
  -31.4980  -34.6260   25.9480 C   0  0  0  0  0  1  0  0  0  0  0  0
  -28.6980  -35.1150   26.2150 N   0  0  0  0  0  0  0  0  0  0  0  0
  -28.1430  -35.8730   25.2600 C   0  0  0  0  0  0  0  0  0  0  0  0
  -27.9890  -35.4820   24.1000 O   0  0  0  0  0  0  0  0  0  0  0  0
  -28.7430  -35.4840   27.1550 H   0  0  0  0  0  0  0  0  0  0  0  0
  -26.1490  -37.3480   25.6750 C   0  0  0  0  0  1  0  0  0  0  0  0
  -27.6840  -37.2900   25.6540 C   0  0  0  0  0  3  0  0  0  0  0  0
  -29.6500  -38.5590   24.9080 C   0  0  0  0  0  1  0  0  0  0  0  0
  -28.2110  -38.3470   24.7630 N   0  0  0  0  0  0  0  0  0  0  0  0
  -27.7410  -39.2310   24.9360 H   0  0  0  0  0  0  0  0  0  0  0  0
  1  2  1  0
  2  4  1  0
  3  4  1  0
  3  7  1  0
  4  6  1  0
  5  3  2  0
  8 10  2  0
  9  7  1  0
  9  8  1  0
 11  9  1  0
 12  8  1  0
 12 14  1  0
 13 14  1  0
 13 17  1  0
 14 16  1  0
 15 13  1  0
 18 17  1  0
 19 18  1  0
 20 19  1  0
 21 20  1  0
 22 29  1  0
 22 28  1  0
 22 27  1  6
 23 22  1  0
 24 25  1  0
 25 26  1  0
 26 35  1  0
 28 15  1  0
 30 21  1  0
 31 30  1  0
 32 57  1  0
 33 32  2  0
 33 52  1  0
 34 33  1  0
 35 32  1  0
 36 34  2  0
 36 35  1  0
 37 42  1  0
 37 34  1  0
 38 37  2  0
 39 40  2  0
 39 38  1  0
 40 41  1  0
 41 42  2  0
 43 40  1  0
 44 43  1  0
 44 45  1  0
 46 45  2  0
 47 46  1  0
 48 49  1  0
 48 47  2  0
 49 44  2  0
 50 49  1  0
 51 47  1  0
 52 54  2  0
 53 52  1  0
 53 56  1  0
 55 53  1  0
 57 59  1  0
 57 58  1  0
 60  1  1  0
 61 60  1  0
 62 63  1  0
 62 61  1  0
 64 65  1  0
 64 63  1  0
 65 67  1  0
 66 70  1  0
 67 66  1  0
 67 69  1  0
 68 66  2  0
 70 71  1  0
 71 72  1  0
 71 74  1  0
 73 71  1  0
 74 75  1  0
 75 76  1  0
 76 78  1  0
 77 88  2  0
 78 83  2  0
 78 84  1  0
 79 89  1  0
 80 86  1  0
 81 87  1  0
 82 81  1  0
 82 80  2  0
 83 82  1  0
 84 85  2  0
 85 80  1  0
 86 79  1  0
 87 77  1  0
 87 79  1  0
 89 90  1  0
 91 89  2  0
 92 90  1  0
 93 97  1  0
 93102  1  0
 94 90  1  0
 94 95  1  0
 94 98  1  0
 95 96  1  0
 96 97  1  0
 98 93  2  0
 99 98  1  0
 99100  2  0
100101  1  0
101102  2  0
103108  1  0
103104  1  0
103 77  1  0
104105  1  1
106104  1  0
107104  1  0
108111  1  0
109113  1  0
109108  1  0
110109  2  0
113112  1  0
115114  1  0
115116  1  0
115113  1  0
M  ISO  4  22 100  30 100  75 101  76 101
M  END
>  <TORSDO>  (42) 
F 38

>  <SCORE>  (42) 
31.064

>  <name>  (42) 
41

>  <ligand_id>  (42) 
41

>  <original_smiles>  (42) 
[H]c1c([H])c([H])c2c(c1[H])C([H])([H])C([H])([H])C([H])([H])C2([H])N([H])C(=O)C1([H])N(C(=O)C([H])(N([H])C(=O)C([H])(N([H])C([H])([H])[H])C([H])([H])[H])C(C([H])([H])[H])(C([H])([H])[H])C([H])([H])[H])C([H])([H])c2c([H])c(OC([H])([H])C([H])([H])[N+]([H])([H])C([H])([H])C(=O)N([H])C([H])([H])C([H])([H])C([H])([H])C([H])([H])C([H])([H])C([H])([H])C([H])([H])C([H])([H])N([H])C(=O)C([H])([H])N([H])C(=O)C([H])([H])N([H])C(=O)C([H])([H])C([H])([H])C([H])([H])C([H])([H])C([H])([H])N([H])C(=O)N3C([H])([H])C([H])([H])C([H])([H])C([H])(n4nc(-c5c([H])c([H])c(Oc6c([H])c([H])c(F)c([H])c6F)c([H])c5[H])c(C(=O)N([H])[H])c4N([H])[H])C3([H])[H])c([H])c([H])c2C1([H])[H]

>  <smiles>  (42) 
[H]c1c([H])c([H])c2c(c1[H])C([H])([H])C([H])([H])C([H])([H])C2([H])N([H])C(=O)C1([H])N(C(=O)C([H])(N([H])C(=O)C([H])(N([H])C([H])([H])[H])C([H])([H])[H])C(C([H])([H])[H])(C([H])([H])[H])C([H])([H])[H])C([H])([H])c2c([H])c(OC([H])([H])C([H])([H])[N+]([H])([H])C([H])([H])C(=O)N([H])C([H])([H])C([H])([H])C([H])([H])C([H])([H])C([H])([H])C([H])([H])C([H])([H])C([H])([H])N([H])C(=O)C([H])([H])N([H])C(=O)C([H])([H])N([H])C(=O)C([H])([H])C([H])([H])C([H])([H])C([H])([H])C([H])([H])N([H])C(=O)N3C([H])([H])C([H])([H])C([H])([H])C([H])(n4nc(-c5c([H])c([H])c(Oc6c([H])c([H])c(F)c([H])c6F)c([H])c5[H])c(C(=O)N([H])[H])c4N([H])[H])C3([H])[H])c([H])c([H])c2C1([H])[H]

$$$$
42:0:0
     RDKit          3D

102109  0  0  1  0  0  0  0  0999 V2000
  -23.7300  -21.3910   18.0860 C   0  0  0  0  0  2  0  0  0  0  0  0
  -25.0160  -20.8050   17.4630 C   0  0  0  0  0  2  0  0  0  0  0  0
  -24.8580  -19.4250   16.9540 N   0  0  0  0  0  4  0  0  0  0  0  0
  -24.0610  -19.4160   16.3360 H   0  0  0  0  0  0  0  0  0  0  0  0
  -24.6620  -18.7830   17.7040 H   0  0  0  0  0  0  0  0  0  0  0  0
  -26.0110  -18.9210   16.1670 C   0  0  0  0  0  2  0  0  0  0  0  0
  -27.0000  -18.0370   16.9570 C   0  0  0  0  0  2  0  0  0  0  0  0
  -28.0420  -19.4560   18.7430 C   0  0  0  0  0  0  0  0  0  0  0  0
  -27.2500  -18.4530   18.3410 N   0  0  0  0  0  0  0  0  0  0  0  0
  -28.5530  -20.2680   17.9700 O   0  0  0  0  0  0  0  0  0  0  0  0
  -27.0330  -17.7730   19.0580 H   0  0  0  0  0  0  0  0  0  0  0  0
  -28.2480  -19.4010   20.1800 C   0  0  0  0  0  3  0  0  0  0  0  0
  -29.3800  -18.8260   20.6610 C   0  0  0  0  0  3  0  0  0  0  0  0
  -30.2910  -18.3980   21.8260 C   0  0  0  0  0  2  0  0  0  0  0  0
  -31.1440  -16.1330   21.2020 C   0  0  0  0  0  0  0  0  0  0  0  0
  -30.9320  -14.7620   19.1830 C   0  0  0  0  0  2  0  0  0  0  0  0
  -30.0620  -15.5460   18.1650 C   0  0  0  0  0  2  0  0  0  0  0  0
  -28.5710  -15.6550   18.5610 C   0  0  0  0  0  2  0  0  0  0  0  0
  -28.2130  -14.7900   19.7710 C   0  0  0  0  0  3  0  0  0  0  0  0
  -29.1910  -14.6070   20.9340 C   0  0  0  0  0  2  0  0  0  0  0  0
  -30.5130  -15.1300   20.5480 N   0  0  0  0  0  0  0  0  0  0  0  0
  -32.3080  -16.4740   20.9830 O   0  0  0  0  0  0  0  0  0  0  0  0
  -30.3020  -16.9340   21.8690 N   0  0  0  0  0  0  0  0  0  0  0  0
  -29.4060  -16.5050   22.0420 H   0  0  0  0  0  0  0  0  0  0  0  0
  -25.6470  -15.3760   20.1750 C   0  0  0  0  0  0  0  0  0  0  0  0
  -24.6400  -14.4840   20.4850 C   0  0  0  0  0  0  0  0  0  0  0  0
  -25.2570  -13.2020   20.5250 C   0  0  0  0  0  0  0  0  0  0  0  0
  -26.8010  -14.5890   20.0660 N   0  0  0  0  0  0  0  0  0  0  0  0
  -26.5360  -13.2990   20.3090 N   0  0  0  0  0  0  0  0  0  0  0  0
  -24.7440  -11.8520   20.6940 C   0  0  0  0  0  0  0  0  0  0  0  0
  -25.1340  -11.0650   21.8000 C   0  0  0  0  0  3  0  0  0  0  0  0
  -24.6420   -9.7520   21.9400 C   0  0  0  0  0  3  0  0  0  0  0  0
  -23.7520   -9.2280   20.9750 C   0  0  0  0  0  0  0  0  0  0  0  0
  -23.3930  -10.0100   19.8640 C   0  0  0  0  0  3  0  0  0  0  0  0
  -23.8870  -11.3140   19.7190 C   0  0  0  0  0  3  0  0  0  0  0  0
  -23.2300   -7.9600   21.0230 O   0  0  0  0  0  0  0  0  0  0  0  0
  -22.6700   -7.4590   22.1680 C   0  0  0  0  0  0  0  0  0  0  0  0
  -21.6220   -8.1240   22.8400 C   0  0  0  0  0  3  0  0  0  0  0  0
  -21.0370   -7.5410   23.9820 C   0  0  0  0  0  3  0  0  0  0  0  0
  -21.4840   -6.2870   24.4400 C   0  0  0  0  0  0  0  0  0  0  0  0
  -22.5220   -5.6200   23.7650 C   0  0  0  0  0  3  0  0  0  0  0  0
  -23.1130   -6.2060   22.6330 C   0  0  0  0  0  0  0  0  0  0  0  0
  -24.1030   -5.5530   21.9770 F   0  0  0  0  0  0  0  0  0  0  0  0
  -20.9160   -5.7210   25.5290 F   0  0  0  0  0  0  0  0  0  0  0  0
  -23.1760  -14.7570   20.6560 C   0  0  0  0  0  0  0  0  0  0  0  0
  -22.5120  -13.9980   21.5250 N   0  0  0  0  0  0  0  0  0  0  0  0
  -22.6130  -15.6620   20.0460 O   0  0  0  0  0  0  0  0  0  0  0  0
  -22.9700  -13.2630   22.0440 H   0  0  0  0  0  0  0  0  0  0  0  0
  -21.5290  -14.1640   21.6690 H   0  0  0  0  0  0  0  0  0  0  0  0
  -25.6650  -16.7530   19.9970 N   0  0  0  0  0  0  0  0  0  0  0  0
  -24.8860  -17.3260   20.3000 H   0  0  0  0  0  0  0  0  0  0  0  0
  -26.5390  -17.2530   19.9360 H   0  0  0  0  0  0  0  0  0  0  0  0
  -23.9200  -22.8520   18.5440 C   0  0  0  0  0  2  0  0  0  0  0  0
  -25.2710  -23.1400   19.2340 C   0  0  0  0  0  2  0  0  0  0  0  0
  -26.0940  -24.2020   18.4880 C   0  0  0  0  0  2  0  0  0  0  0  0
  -27.6080  -24.0890   18.7480 C   0  0  0  0  0  2  0  0  0  0  0  0
  -28.3570  -24.8190   17.7030 N   0  0  0  0  0  4  0  0  0  0  0  0
  -27.8140  -25.6330   17.4700 H   0  0  0  0  0  0  0  0  0  0  0  0
  -28.4000  -24.2490   16.8700 H   0  0  0  0  0  0  0  0  0  0  0  0
  -29.7260  -25.2630   18.0660 C   0  0  0  0  0  2  0  0  0  0  0  0
  -30.0730  -26.6150   17.3950 C   0  0  0  0  0  2  0  0  0  0  0  0
  -30.0330  -27.7060   18.3170 O   0  0  0  0  0  0  0  0  0  0  0  0
  -26.0910  -29.1690   24.0360 C   0  0  0  0  0  0  0  0  0  0  0  0
  -28.8140  -28.1690   18.7690 C   0  0  0  0  0  0  0  0  0  0  0  0
  -24.9010  -29.2300   21.8720 C   0  0  0  0  0  3  0  0  0  0  0  0
  -26.3710  -29.1540   19.7980 C   0  0  0  0  0  0  0  0  0  0  0  0
  -27.4070  -29.7280   21.9940 C   0  0  0  0  0  2  0  0  0  0  0  0
  -27.5220  -29.1680   20.5940 C   0  0  0  0  0  0  0  0  0  0  0  0
  -28.7430  -28.6710   20.0870 C   0  0  0  0  0  3  0  0  0  0  0  0
  -27.6380  -28.1690   17.9790 C   0  0  0  0  0  3  0  0  0  0  0  0
  -26.4230  -28.6540   18.4890 C   0  0  0  0  0  3  0  0  0  0  0  0
  -25.1030  -29.6970   20.4070 C   0  0  0  0  0  2  0  0  0  0  0  0
  -26.1530  -29.3450   22.6860 N   0  0  0  0  0  0  0  0  0  0  0  0
  -25.0110  -28.9620   24.6050 O   0  0  0  0  0  0  0  0  0  0  0  0
  -24.3000  -27.8040   21.8610 C   0  0  0  0  0  0  0  0  0  0  0  0
  -23.1730  -27.6340   21.1500 N   0  0  0  0  0  0  0  0  0  0  0  0
  -24.8530  -26.8780   22.4600 O   0  0  0  0  0  0  0  0  0  0  0  0
  -22.7740  -28.4450   20.7000 H   0  0  0  0  0  0  0  0  0  0  0  0
  -20.6100  -26.0000   19.1890 C   0  0  0  0  0  0  0  0  0  0  0  0
  -22.4500  -26.3740   20.9660 C   0  0  0  0  0  3  0  0  0  0  0  0
  -23.2930  -25.3580   20.1620 C   0  0  0  0  0  2  0  0  0  0  0  0
  -23.0140  -25.4050   18.6570 C   0  0  0  0  0  2  0  0  0  0  0  0
  -21.5360  -25.1100   18.3760 C   0  0  0  0  0  2  0  0  0  0  0  0
  -21.0450  -26.6060   20.3980 C   0  0  0  0  0  0  0  0  0  0  0  0
  -20.1560  -27.4490   21.0990 C   0  0  0  0  0  3  0  0  0  0  0  0
  -18.8590  -27.6910   20.6130 C   0  0  0  0  0  3  0  0  0  0  0  0
  -18.4290  -27.0780   19.4230 C   0  0  0  0  0  3  0  0  0  0  0  0
  -19.3020  -26.2300   18.7190 C   0  0  0  0  0  3  0  0  0  0  0  0
  -27.3660  -29.2460   24.9310 C   0  0  0  0  0  3  0  0  0  0  0  0
  -27.2170  -30.4080   25.8180 N   0  0  0  0  0  0  0  0  0  0  0  0
  -27.7890  -31.6010   25.6090 C   0  0  0  0  0  0  0  0  0  0  0  0
  -28.5670  -31.8170   24.6760 O   0  0  0  0  0  0  0  0  0  0  0  0
  -26.5530  -30.3230   26.5740 H   0  0  0  0  0  0  0  0  0  0  0  0
  -26.3950  -33.6620   25.9630 C   0  0  0  0  0  1  0  0  0  0  0  0
  -27.4470  -32.7340   26.5930 C   0  0  0  0  0  3  0  0  0  0  0  0
  -29.5510  -32.7840   27.8570 C   0  0  0  0  0  1  0  0  0  0  0  0
  -28.6240  -33.5270   27.0080 N   0  0  0  0  0  0  0  0  0  0  0  0
  -28.3380  -34.3660   27.5060 H   0  0  0  0  0  0  0  0  0  0  0  0
  -27.6230  -27.9320   25.7660 C   0  0  1  0  0  0  0  0  0  0  0  0
  -26.3790  -27.4380   26.5380 C   0  0  0  0  0  1  0  0  0  0  0  0
  -28.0980  -26.7810   24.8460 C   0  0  0  0  0  1  0  0  0  0  0  0
  -28.7600  -28.1730   26.7890 C   0  0  0  0  0  1  0  0  0  0  0  0
  1 53  1  0
  2  1  1  0
  3  2  1  0
  3  5  1  0
  4  3  1  0
  6  3  1  0
  6  7  1  0
  7  9  1  0
  8 12  1  0
  9  8  1  0
  9 11  1  0
 10  8  2  0
 12 13  2  0
 13 14  1  0
 14 23  1  0
 15 23  1  0
 16 21  1  0
 17 18  1  0
 17 16  1  0
 19 18  1  0
 19 28  1  0
 19 20  1  0
 21 20  1  0
 21 15  1  0
 22 15  2  0
 23 24  1  0
 25 26  2  0
 26 27  1  0
 26 45  1  0
 27 30  1  0
 28 25  1  0
 28 29  1  0
 29 27  2  0
 30 31  1  0
 31 32  2  0
 33 36  1  0
 33 32  1  0
 34 33  2  0
 35 34  1  0
 35 30  2  0
 36 37  1  0
 37 42  2  0
 37 38  1  0
 38 39  2  0
 39 40  1  0
 40 44  1  0
 41 40  2  0
 42 41  1  0
 43 42  1  0
 45 46  1  0
 46 49  1  0
 46 48  1  0
 47 45  2  0
 50 25  1  0
 50 51  1  0
 52 50  1  0
 53 54  1  0
 55 56  1  0
 55 54  1  0
 57 60  1  0
 57 56  1  0
 58 57  1  0
 59 57  1  0
 61 60  1  0
 61 62  1  0
 62 64  1  0
 63 74  2  0
 64 69  1  0
 65 75  1  0
 65 73  1  0
 66 72  1  0
 66 68  1  0
 67 73  1  0
 68 67  1  0
 69 68  2  0
 70 71  1  0
 70 64  2  0
 71 66  2  0
 72 65  1  0
 73 63  1  0
 75 77  2  0
 76 75  1  0
 78 76  1  0
 79 84  1  0
 80 76  1  0
 81 80  1  0
 82 81  1  0
 83 82  1  0
 83 79  1  0
 84 80  1  0
 84 85  2  0
 86 85  1  0
 87 86  2  0
 88 79  2  0
 88 87  1  0
 89 63  1  0
 89 99  1  0
 89 90  1  0
 90 93  1  0
 91 90  1  0
 91 95  1  0
 92 91  2  0
 95 94  1  0
 95 97  1  0
 97 98  1  0
 97 96  1  0
 99100  1  1
 99102  1  0
101 99  1  0
M  ISO  4  15 100  23 100  61 101  62 101
M  END
>  <TORSDO>  (43) 
F 30

>  <SCORE>  (43) 
0.866

>  <name>  (43) 
42

>  <ligand_id>  (43) 
42

>  <original_smiles>  (43) 
[H]C(C(=O)N([H])C([H])([H])C([H])([H])[N+]([H])([H])C([H])([H])C([H])([H])C([H])([H])C([H])([H])C([H])([H])C([H])([H])[N+]([H])([H])C([H])([H])C([H])([H])Oc1c([H])c([H])c2c(c1[H])C([H])([H])N(C(=O)C([H])(N([H])C(=O)C([H])(N([H])C([H])([H])[H])C([H])([H])[H])C(C([H])([H])[H])(C([H])([H])[H])C([H])([H])[H])C([H])(C(=O)N([H])C1([H])c3c([H])c([H])c([H])c([H])c3C([H])([H])C([H])([H])C1([H])[H])C2([H])[H])=C([H])C([H])([H])N([H])C(=O)N1C([H])([H])C([H])([H])C([H])([H])C([H])(n2nc(-c3c([H])c([H])c(Oc4c([H])c([H])c(F)c([H])c4F)c([H])c3[H])c(C(=O)N([H])[H])c2N([H])[H])C1([H])[H]

>  <smiles>  (43) 
[H]C(C(=O)N([H])C([H])([H])C([H])([H])[N+]([H])([H])C([H])([H])C([H])([H])C([H])([H])C([H])([H])C([H])([H])C([H])([H])[N+]([H])([H])C([H])([H])C([H])([H])Oc1c([H])c([H])c2c(c1[H])C([H])([H])N(C(=O)C([H])(N([H])C(=O)C([H])(N([H])C([H])([H])[H])C([H])([H])[H])C(C([H])([H])[H])(C([H])([H])[H])C([H])([H])[H])C([H])(C(=O)N([H])C1([H])c3c([H])c([H])c([H])c([H])c3C([H])([H])C([H])([H])C1([H])[H])C2([H])[H])=C([H])C([H])([H])N([H])C(=O)N1C([H])([H])C([H])([H])C([H])([H])C([H])(n2nc(-c3c([H])c([H])c(Oc4c([H])c([H])c(F)c([H])c4F)c([H])c3[H])c(C(=O)N([H])[H])c2N([H])[H])C1([H])[H]

$$$$
43:0:0
     RDKit          3D

105112  0  0  1  0  0  0  0  0999 V2000
  -24.3140  -25.2190   23.0290 C   0  0  0  0  0  0  0  0  0  0  0  0
  -23.3440  -24.2970   22.9870 N   0  0  0  0  0  0  0  0  0  0  0  0
  -24.5690  -25.9480   22.0740 O   0  0  0  0  0  0  0  0  0  0  0  0
  -23.1820  -23.7500   23.8220 H   0  0  0  0  0  0  0  0  0  0  0  0
  -22.6010  -23.9140   21.7840 C   0  0  0  0  0  2  0  0  0  0  0  0
  -23.4810  -23.1230   20.7950 C   0  0  0  0  0  2  0  0  0  0  0  0
  -24.0510  -21.8230   21.3910 C   0  0  0  0  0  2  0  0  0  0  0  0
  -25.3870  -21.4050   20.7660 C   0  0  0  0  0  2  0  0  0  0  0  0
  -25.9920  -20.2270   21.5350 C   0  0  0  0  0  2  0  0  0  0  0  0
  -27.3820  -20.0290   21.1540 N   0  0  0  0  0  0  0  0  0  0  0  0
  -27.8870  -20.8960   21.3280 H   0  0  0  0  0  0  0  0  0  0  0  0
  -27.9340  -18.9840   22.0050 C   0  0  0  0  0  2  0  0  0  0  0  0
  -29.4200  -18.7380   21.7000 C   0  0  0  0  0  2  0  0  0  0  0  0
  -29.8870  -17.5360   22.4100 N   0  0  0  0  0  4  0  0  0  0  0  0
  -29.7480  -17.6630   23.4000 H   0  0  0  0  0  0  0  0  0  0  0  0
  -29.3210  -16.7580   22.1160 H   0  0  0  0  0  0  0  0  0  0  0  0
  -31.2970  -17.1780   22.1710 C   0  0  0  0  0  2  0  0  0  0  0  0
  -31.5720  -15.7310   22.6180 C   0  0  0  0  0  2  0  0  0  0  0  0
  -30.8350  -14.2770   20.7460 C   0  0  0  0  0  0  0  0  0  0  0  0
  -30.4100  -12.2810   19.3730 C   0  0  0  0  0  2  0  0  0  0  0  0
  -29.4730  -12.5380   18.1830 C   0  0  0  0  0  2  0  0  0  0  0  0
  -28.0030  -12.3810   18.6090 C   0  0  0  0  0  2  0  0  0  0  0  0
  -27.6680  -13.2030   19.8800 C   0  0  0  0  0  3  0  0  0  0  0  0
  -28.7090  -12.9530   20.9960 C   0  0  0  0  0  2  0  0  0  0  0  0
  -30.0620  -13.2020   20.4630 N   0  0  0  0  0  0  0  0  0  0  0  0
  -31.7450  -14.6840   20.0190 O   0  0  0  0  0  0  0  0  0  0  0  0
  -30.6660  -14.7700   21.9800 N   0  0  0  0  0  0  0  0  0  0  0  0
  -29.9880  -14.2980   22.5620 H   0  0  0  0  0  0  0  0  0  0  0  0
  -25.2610  -13.8160   20.5680 C   0  0  0  0  0  0  0  0  0  0  0  0
  -24.1860  -13.0440   20.9170 C   0  0  0  0  0  0  0  0  0  0  0  0
  -24.6400  -11.6910   20.8730 C   0  0  0  0  0  0  0  0  0  0  0  0
  -26.3060  -12.9330   20.3390 N   0  0  0  0  0  0  0  0  0  0  0  0
  -25.9330  -11.6490   20.5760 N   0  0  0  0  0  0  0  0  0  0  0  0
  -23.9060  -10.4300   21.0400 C   0  0  0  0  0  0  0  0  0  0  0  0
  -24.3610   -9.4210   21.9180 C   0  0  0  0  0  3  0  0  0  0  0  0
  -23.6290   -8.2250   22.0750 C   0  0  0  0  0  3  0  0  0  0  0  0
  -22.4270   -8.0280   21.3550 C   0  0  0  0  0  0  0  0  0  0  0  0
  -21.9910   -9.0250   20.4650 C   0  0  0  0  0  3  0  0  0  0  0  0
  -22.7230  -10.2140   20.3050 C   0  0  0  0  0  3  0  0  0  0  0  0
  -21.6640   -6.8880   21.4240 O   0  0  0  0  0  0  0  0  0  0  0  0
  -21.6850   -6.0740   22.5280 C   0  0  0  0  0  0  0  0  0  0  0  0
  -21.4010   -6.5640   23.8210 C   0  0  0  0  0  3  0  0  0  0  0  0
  -21.3660   -5.6790   24.9170 C   0  0  0  0  0  3  0  0  0  0  0  0
  -21.6040   -4.3060   24.7230 C   0  0  0  0  0  0  0  0  0  0  0  0
  -21.8820   -3.8150   23.4350 C   0  0  0  0  0  3  0  0  0  0  0  0
  -21.9190   -4.6970   22.3400 C   0  0  0  0  0  0  0  0  0  0  0  0
  -22.1660   -4.2150   21.0980 F   0  0  0  0  0  0  0  0  0  0  0  0
  -21.5630   -3.4540   25.7740 F   0  0  0  0  0  0  0  0  0  0  0  0
  -22.7880  -13.5240   21.1830 C   0  0  0  0  0  0  0  0  0  0  0  0
  -22.0510  -12.8240   22.0390 N   0  0  0  0  0  0  0  0  0  0  0  0
  -22.3570  -14.5550   20.6680 O   0  0  0  0  0  0  0  0  0  0  0  0
  -22.4120  -11.9890   22.4770 H   0  0  0  0  0  0  0  0  0  0  0  0
  -21.1130  -13.1270   22.2590 H   0  0  0  0  0  0  0  0  0  0  0  0
  -25.4340  -15.1880   20.4080 N   0  0  0  0  0  0  0  0  0  0  0  0
  -24.6650  -15.8410   20.5010 H   0  0  0  0  0  0  0  0  0  0  0  0
  -26.2820  -15.6200   20.0630 H   0  0  0  0  0  0  0  0  0  0  0  0
  -25.1490  -25.3270   24.3120 C   0  0  0  0  0  2  0  0  0  0  0  0
  -27.2730  -24.2630   23.5940 C   0  0  0  0  0  0  0  0  0  0  0  0
  -26.5810  -25.3350   23.9980 N   0  0  0  0  0  0  0  0  0  0  0  0
  -26.7900  -23.1310   23.5850 O   0  0  0  0  0  0  0  0  0  0  0  0
  -27.0300  -26.2390   23.9650 H   0  0  0  0  0  0  0  0  0  0  0  0
  -28.7130  -24.4740   23.1220 C   0  0  0  0  0  2  0  0  0  0  0  0
  -28.7860  -24.8750   21.6320 C   0  0  0  0  0  2  0  0  0  0  0  0
  -28.8410  -26.3960   21.4160 C   0  0  0  0  0  2  0  0  0  0  0  0
  -28.3800  -26.7150   20.1030 O   0  0  0  0  0  0  0  0  0  0  0  0
  -24.6090  -31.8710   23.2110 C   0  0  0  0  0  0  0  0  0  0  0  0
  -27.2410  -27.4780   20.0900 C   0  0  0  0  0  0  0  0  0  0  0  0
  -23.3960  -30.4900   21.5510 C   0  0  0  0  0  3  0  0  0  0  0  0
  -24.8490  -28.9680   20.1020 C   0  0  0  0  0  0  0  0  0  0  0  0
  -25.9180  -30.8510   21.3590 C   0  0  0  0  0  2  0  0  0  0  0  0
  -26.0000  -29.4890   20.7060 C   0  0  0  0  0  0  0  0  0  0  0  0
  -27.1990  -28.7500   20.7020 C   0  0  0  0  0  3  0  0  0  0  0  0
  -26.0870  -26.9710   19.4630 C   0  0  0  0  0  3  0  0  0  0  0  0
  -24.8870  -27.7090   19.4730 C   0  0  0  0  0  3  0  0  0  0  0  0
  -23.6020  -29.8200   20.1640 C   0  0  0  0  0  2  0  0  0  0  0  0
  -24.6580  -31.0840   22.0990 N   0  0  0  0  0  0  0  0  0  0  0  0
  -23.5290  -32.1450   23.7540 O   0  0  0  0  0  0  0  0  0  0  0  0
  -22.7370  -29.4690   22.5040 C   0  0  0  0  0  0  0  0  0  0  0  0
  -21.4100  -29.3080   22.3780 N   0  0  0  0  0  0  0  0  0  0  0  0
  -23.4130  -28.8320   23.3170 O   0  0  0  0  0  0  0  0  0  0  0  0
  -20.9250  -29.8770   21.6980 H   0  0  0  0  0  0  0  0  0  0  0  0
  -18.0270  -28.1360   22.8510 C   0  0  0  0  0  0  0  0  0  0  0  0
  -20.5830  -28.3710   23.1370 C   0  0  0  0  0  3  0  0  0  0  0  0
  -20.6780  -26.9490   22.5440 C   0  0  0  0  0  2  0  0  0  0  0  0
  -19.5770  -26.6400   21.5240 C   0  0  0  0  0  2  0  0  0  0  0  0
  -18.1950  -26.7900   22.1660 C   0  0  0  0  0  2  0  0  0  0  0  0
  -19.1490  -28.8850   23.2920 C   0  0  0  0  0  0  0  0  0  0  0  0
  -18.9420  -30.1460   23.8930 C   0  0  0  0  0  3  0  0  0  0  0  0
  -17.6420  -30.6590   24.0560 C   0  0  0  0  0  3  0  0  0  0  0  0
  -16.5330  -29.9080   23.6310 C   0  0  0  0  0  3  0  0  0  0  0  0
  -16.7250  -28.6480   23.0360 C   0  0  0  0  0  3  0  0  0  0  0  0
  -25.9010  -32.4840   23.8390 C   0  0  0  0  0  3  0  0  0  0  0  0
  -26.4450  -31.6590   25.0690 C   0  0  1  0  0  0  0  0  0  0  0  0
  -25.3730  -31.3690   26.1450 C   0  0  0  0  0  1  0  0  0  0  0  0
  -27.0250  -30.3020   24.6020 C   0  0  0  0  0  1  0  0  0  0  0  0
  -27.6040  -32.4290   25.7450 C   0  0  0  0  0  1  0  0  0  0  0  0
  -25.5880  -33.8640   24.2330 N   0  0  0  0  0  0  0  0  0  0  0  0
  -25.9040  -34.9490   23.5140 C   0  0  0  0  0  0  0  0  0  0  0  0
  -26.5610  -34.8940   22.4710 O   0  0  0  0  0  0  0  0  0  0  0  0
  -25.0020  -33.9800   25.0470 H   0  0  0  0  0  0  0  0  0  0  0  0
  -24.1500  -36.7320   23.2640 C   0  0  0  0  0  1  0  0  0  0  0  0
  -25.4120  -36.3130   24.0340 C   0  0  0  0  0  3  0  0  0  0  0  0
  -27.5590  -37.1830   24.8460 C   0  0  0  0  0  1  0  0  0  0  0  0
  -26.4310  -37.3810   23.9400 N   0  0  0  0  0  0  0  0  0  0  0  0
  -26.0210  -38.2900   24.1390 H   0  0  0  0  0  0  0  0  0  0  0  0
  1 57  1  0
  2  1  1  0
  2  4  1  0
  3  1  2  0
  5  2  1  0
  6  7  1  0
  6  5  1  0
  8  7  1  0
  8  9  1  0
 10 11  1  0
 10  9  1  0
 10 12  1  0
 13 12  1  0
 13 14  1  0
 14 15  1  0
 16 14  1  0
 17 14  1  0
 17 18  1  0
 19 27  1  0
 20 25  1  0
 21 22  1  0
 21 20  1  0
 23 22  1  0
 23 32  1  0
 23 24  1  0
 25 19  1  0
 25 24  1  0
 26 19  2  0
 27 28  1  0
 27 18  1  0
 29 30  2  0
 30 49  1  0
 31 30  1  0
 31 34  1  0
 32 29  1  0
 32 33  1  0
 33 31  2  0
 34 35  1  0
 35 36  2  0
 37 40  1  0
 37 36  1  0
 38 37  2  0
 39 38  1  0
 39 34  2  0
 40 41  1  0
 41 42  1  0
 42 43  2  0
 44 43  1  0
 44 48  1  0
 45 44  2  0
 46 41  2  0
 46 45  1  0
 47 46  1  0
 49 50  1  0
 50 53  1  0
 50 52  1  0
 51 49  2  0
 54 55  1  0
 54 29  1  0
 56 54  1  0
 58 59  1  0
 59 57  1  0
 60 58  2  0
 61 59  1  0
 62 58  1  0
 63 62  1  0
 64 63  1  0
 65 64  1  0
 66 77  2  0
 67 65  1  0
 67 72  1  0
 68 76  1  0
 68 78  1  0
 69 75  1  0
 69 71  1  0
 70 76  1  0
 71 70  1  0
 72 71  2  0
 73 74  1  0
 73 67  2  0
 74 69  2  0
 75 68  1  0
 76 66  1  0
 78 80  2  0
 79 78  1  0
 81 79  1  0
 82 91  2  0
 82 87  1  0
 83 79  1  0
 83 87  1  0
 84 83  1  0
 85 86  1  0
 85 84  1  0
 86 82  1  0
 87 88  2  0
 88 89  1  0
 90 89  2  0
 91 90  1  0
 92 66  1  0
 92 97  1  0
 92 93  1  0
 93 96  1  1
 93 94  1  0
 95 93  1  0
 97100  1  0
 98102  1  0
 98 97  1  0
 99 98  2  0
102101  1  0
104102  1  0
104105  1  0
104103  1  0
M  ISO  4  19 100  27 100  64 101  65 101
M  END
>  <TORSDO>  (44) 
F 32

>  <SCORE>  (44) 
9.668

>  <name>  (44) 
43

>  <ligand_id>  (44) 
43

>  <original_smiles>  (44) 
[H]c1c([H])c([H])c2c(c1[H])C([H])([H])C([H])([H])C([H])([H])C2([H])N([H])C(=O)C1([H])N(C(=O)C([H])(N([H])C(=O)C([H])(N([H])C([H])([H])[H])C([H])([H])[H])C(C([H])([H])[H])(C([H])([H])[H])C([H])([H])[H])C([H])([H])c2c([H])c(OC([H])([H])C([H])([H])C([H])([H])C(=O)N([H])C([H])([H])C(=O)N([H])C([H])([H])C([H])([H])C([H])([H])C([H])([H])C([H])([H])N([H])C([H])([H])C([H])([H])[N+]([H])([H])C([H])([H])C([H])([H])N([H])C(=O)N3C([H])([H])C([H])([H])C([H])([H])C([H])(n4nc(-c5c([H])c([H])c(Oc6c([H])c([H])c(F)c([H])c6F)c([H])c5[H])c(C(=O)N([H])[H])c4N([H])[H])C3([H])[H])c([H])c([H])c2C1([H])[H]

>  <smiles>  (44) 
[H]c1c([H])c([H])c2c(c1[H])C([H])([H])C([H])([H])C([H])([H])C2([H])N([H])C(=O)C1([H])N(C(=O)C([H])(N([H])C(=O)C([H])(N([H])C([H])([H])[H])C([H])([H])[H])C(C([H])([H])[H])(C([H])([H])[H])C([H])([H])[H])C([H])([H])c2c([H])c(OC([H])([H])C([H])([H])C([H])([H])C(=O)N([H])C([H])([H])C(=O)N([H])C([H])([H])C([H])([H])C([H])([H])C([H])([H])C([H])([H])N([H])C([H])([H])C([H])([H])[N+]([H])([H])C([H])([H])C([H])([H])N([H])C(=O)N3C([H])([H])C([H])([H])C([H])([H])C([H])(n4nc(-c5c([H])c([H])c(Oc6c([H])c([H])c(F)c([H])c6F)c([H])c5[H])c(C(=O)N([H])[H])c4N([H])[H])C3([H])[H])c([H])c([H])c2C1([H])[H]

$$$$
44:0:0
     RDKit          3D

105112  0  0  1  0  0  0  0  0999 V2000
  -32.8990  -19.8810   19.1080 C   0  0  0  0  0  2  0  0  0  0  0  0
  -32.9250  -20.9260   17.9710 C   0  0  0  0  0  2  0  0  0  0  0  0
  -31.7720  -23.0400   18.6440 C   0  0  0  0  0  0  0  0  0  0  0  0
  -32.8740  -22.3010   18.4640 N   0  0  0  0  0  0  0  0  0  0  0  0
  -30.6410  -22.6250   18.3910 O   0  0  0  0  0  0  0  0  0  0  0  0
  -33.7620  -22.7360   18.6780 H   0  0  0  0  0  0  0  0  0  0  0  0
  -31.9680  -24.4460   19.2080 C   0  0  0  0  0  2  0  0  0  0  0  0
  -30.7410  -25.2560   19.0560 N   0  0  0  0  0  4  0  0  0  0  0  0
  -29.9750  -24.7140   19.4280 H   0  0  0  0  0  0  0  0  0  0  0  0
  -30.5590  -25.3670   18.0710 H   0  0  0  0  0  0  0  0  0  0  0  0
  -30.7990  -26.5750   19.7270 C   0  0  0  0  0  2  0  0  0  0  0  0
  -29.5420  -27.4150   19.4700 C   0  0  0  0  0  2  0  0  0  0  0  0
  -28.4100  -26.7430   20.0210 O   0  0  0  0  0  0  0  0  0  0  0  0
  -24.6090  -31.8710   23.2130 C   0  0  0  0  0  0  0  0  0  0  0  0
  -27.2550  -27.4880   20.0820 C   0  0  0  0  0  0  0  0  0  0  0  0
  -23.3960  -30.4920   21.5510 C   0  0  0  0  0  3  0  0  0  0  0  0
  -24.8480  -28.9590   20.1200 C   0  0  0  0  0  0  0  0  0  0  0  0
  -25.9180  -30.8530   21.3590 C   0  0  0  0  0  2  0  0  0  0  0  0
  -26.0000  -29.4880   20.7130 C   0  0  0  0  0  0  0  0  0  0  0  0
  -27.2050  -28.7570   20.7030 C   0  0  0  0  0  3  0  0  0  0  0  0
  -26.0820  -26.9520   19.5150 C   0  0  0  0  0  3  0  0  0  0  0  0
  -24.8780  -27.6840   19.5260 C   0  0  0  0  0  3  0  0  0  0  0  0
  -23.6060  -29.8190   20.1670 C   0  0  0  0  0  2  0  0  0  0  0  0
  -24.6590  -31.0840   22.1010 N   0  0  0  0  0  0  0  0  0  0  0  0
  -23.5300  -32.1450   23.7550 O   0  0  0  0  0  0  0  0  0  0  0  0
  -22.7380  -29.4670   22.5010 C   0  0  0  0  0  0  0  0  0  0  0  0
  -21.4120  -29.3010   22.3750 N   0  0  0  0  0  0  0  0  0  0  0  0
  -23.4170  -28.8220   23.3050 O   0  0  0  0  0  0  0  0  0  0  0  0
  -20.9280  -29.8730   21.6960 H   0  0  0  0  0  0  0  0  0  0  0  0
  -18.0260  -28.1380   22.8500 C   0  0  0  0  0  0  0  0  0  0  0  0
  -20.5850  -28.3650   23.1340 C   0  0  0  0  0  3  0  0  0  0  0  0
  -20.6760  -26.9390   22.5420 C   0  0  0  0  0  2  0  0  0  0  0  0
  -19.5740  -26.6390   21.5220 C   0  0  0  0  0  2  0  0  0  0  0  0
  -18.1920  -26.7930   22.1630 C   0  0  0  0  0  2  0  0  0  0  0  0
  -19.1520  -28.8830   23.2920 C   0  0  0  0  0  0  0  0  0  0  0  0
  -18.9450  -30.1430   23.8930 C   0  0  0  0  0  3  0  0  0  0  0  0
  -17.6450  -30.6580   24.0570 C   0  0  0  0  0  3  0  0  0  0  0  0
  -16.5340  -29.9090   23.6320 C   0  0  0  0  0  3  0  0  0  0  0  0
  -16.7260  -28.6510   23.0350 C   0  0  0  0  0  3  0  0  0  0  0  0
  -25.9000  -32.4850   23.8410 C   0  0  0  0  0  3  0  0  0  0  0  0
  -26.4450  -31.6610   25.0720 C   0  0  1  0  0  0  0  0  0  0  0  0
  -25.3730  -31.3700   26.1480 C   0  0  0  0  0  1  0  0  0  0  0  0
  -27.0270  -30.3070   24.6050 C   0  0  0  0  0  1  0  0  0  0  0  0
  -27.6040  -32.4320   25.7470 C   0  0  0  0  0  1  0  0  0  0  0  0
  -25.5870  -33.8650   24.2350 N   0  0  0  0  0  0  0  0  0  0  0  0
  -25.9030  -34.9490   23.5140 C   0  0  0  0  0  0  0  0  0  0  0  0
  -26.5590  -34.8930   22.4710 O   0  0  0  0  0  0  0  0  0  0  0  0
  -25.0010  -33.9810   25.0480 H   0  0  0  0  0  0  0  0  0  0  0  0
  -24.1480  -36.7320   23.2640 C   0  0  0  0  0  1  0  0  0  0  0  0
  -25.4100  -36.3130   24.0340 C   0  0  0  0  0  3  0  0  0  0  0  0
  -27.5570  -37.1820   24.8470 C   0  0  0  0  0  1  0  0  0  0  0  0
  -26.4290  -37.3800   23.9410 N   0  0  0  0  0  0  0  0  0  0  0  0
  -26.0190  -38.2880   24.1390 H   0  0  0  0  0  0  0  0  0  0  0  0
  -33.8740  -20.1780   20.2660 C   0  0  0  0  0  2  0  0  0  0  0  0
  -33.9990  -18.9970   21.2490 C   0  0  0  0  0  2  0  0  0  0  0  0
  -34.6360  -19.3630   22.6060 C   0  0  0  0  0  2  0  0  0  0  0  0
  -33.6990  -20.1500   23.5430 C   0  0  0  0  0  2  0  0  0  0  0  0
  -32.6120  -19.2910   24.0540 N   0  0  0  0  0  4  0  0  0  0  0  0
  -32.9440  -18.7440   24.8330 H   0  0  0  0  0  0  0  0  0  0  0  0
  -32.3420  -18.6360   23.3360 H   0  0  0  0  0  0  0  0  0  0  0  0
  -31.3700  -19.9870   24.4410 C   0  0  0  0  0  2  0  0  0  0  0  0
  -30.1500  -19.0510   24.3200 C   0  0  0  0  0  2  0  0  0  0  0  0
  -30.5640  -17.3050   22.5710 C   0  0  0  0  0  0  0  0  0  0  0  0
  -30.0150  -18.4530   22.9860 N   0  0  0  0  0  0  0  0  0  0  0  0
  -31.3590  -16.6780   23.2690 O   0  0  0  0  0  0  0  0  0  0  0  0
  -29.3680  -18.9100   22.3550 H   0  0  0  0  0  0  0  0  0  0  0  0
  -30.2110  -16.8210   21.1650 C   0  0  0  0  0  2  0  0  0  0  0  0
  -30.6960  -14.4270   20.6070 C   0  0  0  0  0  0  0  0  0  0  0  0
  -30.4410  -12.2850   19.4240 C   0  0  0  0  0  2  0  0  0  0  0  0
  -29.5060  -12.5020   18.2140 C   0  0  0  0  0  2  0  0  0  0  0  0
  -28.0250  -12.3680   18.6220 C   0  0  0  0  0  2  0  0  0  0  0  0
  -27.6750  -13.1900   19.8900 C   0  0  0  0  0  3  0  0  0  0  0  0
  -28.7110  -12.9320   21.0070 C   0  0  0  0  0  2  0  0  0  0  0  0
  -30.0500  -13.2420   20.4670 N   0  0  0  0  0  0  0  0  0  0  0  0
  -31.8050  -14.6670   20.1230 O   0  0  0  0  0  0  0  0  0  0  0  0
  -29.9460  -15.3860   21.1640 N   0  0  0  0  0  0  0  0  0  0  0  0
  -29.0570  -15.0950   21.5340 H   0  0  0  0  0  0  0  0  0  0  0  0
  -25.2690  -13.8130   20.5680 C   0  0  0  0  0  0  0  0  0  0  0  0
  -24.1890  -13.0440   20.9130 C   0  0  0  0  0  0  0  0  0  0  0  0
  -24.6410  -11.6890   20.8730 C   0  0  0  0  0  0  0  0  0  0  0  0
  -26.3090  -12.9250   20.3380 N   0  0  0  0  0  0  0  0  0  0  0  0
  -25.9330  -11.6430   20.5750 N   0  0  0  0  0  0  0  0  0  0  0  0
  -23.9060  -10.4300   21.0420 C   0  0  0  0  0  0  0  0  0  0  0  0
  -24.3600   -9.4210   21.9200 C   0  0  0  0  0  3  0  0  0  0  0  0
  -23.6270   -8.2260   22.0760 C   0  0  0  0  0  3  0  0  0  0  0  0
  -22.4270   -8.0300   21.3550 C   0  0  0  0  0  0  0  0  0  0  0  0
  -21.9900   -9.0290   20.4660 C   0  0  0  0  0  3  0  0  0  0  0  0
  -22.7240  -10.2150   20.3070 C   0  0  0  0  0  3  0  0  0  0  0  0
  -21.6650   -6.8890   21.4240 O   0  0  0  0  0  0  0  0  0  0  0  0
  -21.6880   -6.0730   22.5270 C   0  0  0  0  0  0  0  0  0  0  0  0
  -21.4030   -6.5640   23.8200 C   0  0  0  0  0  3  0  0  0  0  0  0
  -21.3660   -5.6780   24.9160 C   0  0  0  0  0  3  0  0  0  0  0  0
  -21.6030   -4.3050   24.7220 C   0  0  0  0  0  0  0  0  0  0  0  0
  -21.8820   -3.8130   23.4340 C   0  0  0  0  0  3  0  0  0  0  0  0
  -21.9190   -4.6960   22.3400 C   0  0  0  0  0  0  0  0  0  0  0  0
  -22.1670   -4.2140   21.0980 F   0  0  0  0  0  0  0  0  0  0  0  0
  -21.5600   -3.4520   25.7720 F   0  0  0  0  0  0  0  0  0  0  0  0
  -22.7920  -13.5290   21.1780 C   0  0  0  0  0  0  0  0  0  0  0  0
  -22.0550  -12.8310   22.0350 N   0  0  0  0  0  0  0  0  0  0  0  0
  -22.3650  -14.5640   20.6660 O   0  0  0  0  0  0  0  0  0  0  0  0
  -22.4120  -11.9910   22.4660 H   0  0  0  0  0  0  0  0  0  0  0  0
  -21.1210  -13.1430   22.2610 H   0  0  0  0  0  0  0  0  0  0  0  0
  -25.4530  -15.1830   20.4100 N   0  0  0  0  0  0  0  0  0  0  0  0
  -24.7030  -15.8550   20.5350 H   0  0  0  0  0  0  0  0  0  0  0  0
  -26.3030  -15.6050   20.0580 H   0  0  0  0  0  0  0  0  0  0  0  0
  1 54  1  0
  2  4  1  0
  2  1  1  0
  3  7  1  0
  4  3  1  0
  4  6  1  0
  5  3  2  0
  8  7  1  0
  8  9  1  0
  8 11  1  0
 10  8  1  0
 12 11  1  0
 12 13  1  0
 13 15  1  0
 14 25  2  0
 15 20  1  0
 16 24  1  0
 16 26  1  0
 17 23  1  0
 17 19  1  0
 18 24  1  0
 19 18  1  0
 20 19  2  0
 21 22  1  0
 21 15  2  0
 22 17  2  0
 23 16  1  0
 24 14  1  0
 26 28  2  0
 27 26  1  0
 29 27  1  0
 30 39  2  0
 30 35  1  0
 31 27  1  0
 31 35  1  0
 32 31  1  0
 33 34  1  0
 33 32  1  0
 34 30  1  0
 35 36  2  0
 36 37  1  0
 38 37  2  0
 39 38  1  0
 40 14  1  0
 40 45  1  0
 40 41  1  0
 41 44  1  1
 41 42  1  0
 43 41  1  0
 45 48  1  0
 46 50  1  0
 46 45  1  0
 47 46  2  0
 50 49  1  0
 52 50  1  0
 52 53  1  0
 52 51  1  0
 54 55  1  0
 55 56  1  0
 56 57  1  0
 57 58  1  0
 58 61  1  0
 58 59  1  0
 60 58  1  0
 62 61  1  0
 63 64  1  0
 63 65  2  0
 64 62  1  0
 66 64  1  0
 67 63  1  0
 68 76  1  0
 69 74  1  0
 70 71  1  0
 70 69  1  0
 72 71  1  0
 72 81  1  0
 72 73  1  0
 74 68  1  0
 74 73  1  0
 75 68  2  0
 76 67  1  0
 76 77  1  0
 78 79  2  0
 79 98  1  0
 80 79  1  0
 80 83  1  0
 81 78  1  0
 81 82  1  0
 82 80  2  0
 83 84  1  0
 84 85  2  0
 86 89  1  0
 86 85  1  0
 87 86  2  0
 88 87  1  0
 88 83  2  0
 89 90  1  0
 90 91  1  0
 91 92  2  0
 93 92  1  0
 93 97  1  0
 94 93  2  0
 95 90  2  0
 95 94  1  0
 96 95  1  0
 98 99  1  0
 99102  1  0
 99101  1  0
100 98  2  0
103104  1  0
103 78  1  0
105103  1  0
M  ISO  4  12 101  13 101  68 100  76 100
M  END
>  <TORSDO>  (45) 
F 31

>  <SCORE>  (45) 
-6.079

>  <name>  (45) 
44

>  <ligand_id>  (45) 
44

>  <original_smiles>  (45) 
[H]c1c([H])c([H])c2c(c1[H])C([H])([H])C([H])([H])C([H])([H])C2([H])N([H])C(=O)C1([H])N(C(=O)C([H])(N([H])C(=O)C([H])(N([H])C([H])([H])[H])C([H])([H])[H])C(C([H])([H])[H])(C([H])([H])[H])C([H])([H])[H])C([H])([H])c2c([H])c(OC([H])([H])C([H])([H])[N+]([H])([H])C([H])([H])C(=O)N([H])C([H])([H])C([H])([H])C([H])([H])C([H])([H])C([H])([H])C([H])([H])[N+]([H])([H])C([H])([H])C([H])([H])N([H])C(=O)C([H])([H])N([H])C(=O)N3C([H])([H])C([H])([H])C([H])([H])C([H])(n4nc(-c5c([H])c([H])c(Oc6c([H])c([H])c(F)c([H])c6F)c([H])c5[H])c(C(=O)N([H])[H])c4N([H])[H])C3([H])[H])c([H])c([H])c2C1([H])[H]

>  <smiles>  (45) 
[H]c1c([H])c([H])c2c(c1[H])C([H])([H])C([H])([H])C([H])([H])C2([H])N([H])C(=O)C1([H])N(C(=O)C([H])(N([H])C(=O)C([H])(N([H])C([H])([H])[H])C([H])([H])[H])C(C([H])([H])[H])(C([H])([H])[H])C([H])([H])[H])C([H])([H])c2c([H])c(OC([H])([H])C([H])([H])[N+]([H])([H])C([H])([H])C(=O)N([H])C([H])([H])C([H])([H])C([H])([H])C([H])([H])C([H])([H])C([H])([H])[N+]([H])([H])C([H])([H])C([H])([H])N([H])C(=O)C([H])([H])N([H])C(=O)N3C([H])([H])C([H])([H])C([H])([H])C([H])(n4nc(-c5c([H])c([H])c(Oc6c([H])c([H])c(F)c([H])c6F)c([H])c5[H])c(C(=O)N([H])[H])c4N([H])[H])C3([H])[H])c([H])c([H])c2C1([H])[H]

$$$$
45:0:0
     RDKit          3D

110117  0  0  1  0  0  0  0  0999 V2000
  -33.6490  -25.5040   19.1130 C   0  0  0  0  0  3  0  0  0  0  0  0
  -33.7390  -25.5030   17.8450 N   0  0  0  0  0  0  0  0  0  0  0  0
  -33.3610  -24.2360   19.8940 C   0  0  0  0  0  2  0  0  0  0  0  0
  -32.1870  -23.4430   19.2950 C   0  0  0  0  0  2  0  0  0  0  0  0
  -31.9210  -22.0960   19.9880 C   0  0  0  0  0  2  0  0  0  0  0  0
  -30.4820  -21.6390   19.7170 C   0  0  0  0  0  2  0  0  0  0  0  0
  -30.0120  -20.4410   20.5460 C   0  0  0  0  0  2  0  0  0  0  0  0
  -28.4790  -20.2600   20.5170 C   0  0  0  0  0  2  0  0  0  0  0  0
  -27.6580  -21.4520   21.0750 C   0  0  0  0  0  2  0  0  0  0  0  0
  -26.6130  -22.0280   20.0900 C   0  0  0  0  0  2  0  0  0  0  0  0
  -27.1890  -22.8760   19.0210 N   0  0  0  0  0  4  0  0  0  0  0  0
  -26.5160  -22.8700   18.2680 H   0  0  0  0  0  0  0  0  0  0  0  0
  -28.0330  -22.4480   18.6720 H   0  0  0  0  0  0  0  0  0  0  0  0
  -27.4200  -24.2900   19.4070 C   0  0  0  0  0  2  0  0  0  0  0  0
  -27.3780  -25.2580   18.1990 C   0  0  0  0  0  2  0  0  0  0  0  0
  -27.6100  -26.6060   18.6060 O   0  0  0  0  0  0  0  0  0  0  0  0
  -27.6100  -30.9310   24.2120 C   0  0  0  0  0  0  0  0  0  0  0  0
  -26.9230  -27.0140   19.7210 C   0  0  0  0  0  0  0  0  0  0  0  0
  -25.9150  -29.1310   24.2420 C   0  0  0  0  0  3  0  0  0  0  0  0
  -25.5940  -27.8750   22.0510 C   0  0  0  0  0  0  0  0  0  0  0  0
  -26.7770  -30.0760   22.0260 C   0  0  0  0  0  2  0  0  0  0  0  0
  -26.5160  -28.7170   21.4200 C   0  0  0  0  0  0  0  0  0  0  0  0
  -27.1800  -28.2920   20.2510 C   0  0  0  0  0  3  0  0  0  0  0  0
  -25.9820  -26.1730   20.3610 C   0  0  0  0  0  3  0  0  0  0  0  0
  -25.3180  -26.6020   21.5240 C   0  0  0  0  0  3  0  0  0  0  0  0
  -24.9230  -28.4030   23.2970 C   0  0  0  0  0  2  0  0  0  0  0  0
  -26.8250  -30.0680   23.5060 N   0  0  0  0  0  0  0  0  0  0  0  0
  -27.5550  -30.9810   25.4460 O   0  0  0  0  0  0  0  0  0  0  0  0
  -26.6650  -28.0740   25.0820 C   0  0  0  0  0  0  0  0  0  0  0  0
  -26.3090  -27.9730   26.3740 N   0  0  0  0  0  0  0  0  0  0  0  0
  -27.5180  -27.3470   24.5670 O   0  0  0  0  0  0  0  0  0  0  0  0
  -25.6040  -28.6050   26.7240 H   0  0  0  0  0  0  0  0  0  0  0  0
  -26.4880  -27.2100   29.9000 C   0  0  0  0  0  0  0  0  0  0  0  0
  -26.8570  -27.0280   27.3460 C   0  0  0  0  0  3  0  0  0  0  0  0
  -26.0010  -25.7400   27.4140 C   0  0  0  0  0  2  0  0  0  0  0  0
  -24.9240  -25.7950   28.5010 C   0  0  0  0  0  2  0  0  0  0  0  0
  -25.5560  -26.0110   29.8800 C   0  0  0  0  0  2  0  0  0  0  0  0
  -27.0860  -27.6970   28.7080 C   0  0  0  0  0  0  0  0  0  0  0  0
  -27.9150  -28.8370   28.7780 C   0  0  0  0  0  3  0  0  0  0  0  0
  -28.1560  -29.4790   30.0080 C   0  0  0  0  0  3  0  0  0  0  0  0
  -27.5760  -28.9800   31.1870 C   0  0  0  0  0  3  0  0  0  0  0  0
  -26.7440  -27.8490   31.1320 C   0  0  0  0  0  3  0  0  0  0  0  0
  -28.5980  -31.9060   23.4980 C   0  0  0  0  0  3  0  0  0  0  0  0
  -28.5090  -33.2030   24.1810 N   0  0  0  0  0  0  0  0  0  0  0  0
  -27.7660  -34.2350   23.7570 C   0  0  0  0  0  0  0  0  0  0  0  0
  -27.1320  -34.2160   22.7000 O   0  0  0  0  0  0  0  0  0  0  0  0
  -28.9610  -33.2740   25.0810 H   0  0  0  0  0  0  0  0  0  0  0  0
  -26.4110  -35.4970   25.4560 C   0  0  0  0  0  1  0  0  0  0  0  0
  -27.7200  -35.4900   24.6500 C   0  0  0  0  0  3  0  0  0  0  0  0
  -29.1780  -36.9550   23.3290 C   0  0  0  0  0  1  0  0  0  0  0  0
  -27.8470  -36.7560   23.8970 N   0  0  0  0  0  0  0  0  0  0  0  0
  -27.6340  -37.5520   24.4910 H   0  0  0  0  0  0  0  0  0  0  0  0
  -30.0860  -31.3820   23.4800 C   0  0  1  0  0  0  0  0  0  0  0  0
  -30.5990  -30.9190   24.8640 C   0  0  0  0  0  1  0  0  0  0  0  0
  -30.2310  -30.1950   22.5000 C   0  0  0  0  0  1  0  0  0  0  0  0
  -31.0280  -32.5000   22.9730 C   0  0  0  0  0  1  0  0  0  0  0  0
  -34.0170  -26.7500   17.1620 C   0  0  0  0  0  2  0  0  0  0  0  0
  -33.9080  -25.4850   14.9840 C   0  0  0  0  0  3  0  0  0  0  0  0
  -34.5030  -26.4030   15.7690 C   0  0  0  0  0  3  0  0  0  0  0  0
  -34.4860  -25.0820   13.7190 C   0  0  0  0  0  0  0  0  0  0  0  0
  -33.8460  -24.0270   13.2000 N   0  0  0  0  0  0  0  0  0  0  0  0
  -35.4830  -25.5760   13.1910 O   0  0  0  0  0  0  0  0  0  0  0  0
  -32.9840  -23.7430   13.6450 H   0  0  0  0  0  0  0  0  0  0  0  0
  -34.2760  -23.2980   12.0060 C   0  0  0  0  0  2  0  0  0  0  0  0
  -35.4410  -22.3240   12.2980 C   0  0  0  0  0  2  0  0  0  0  0  0
  -35.1440  -21.3930   13.4110 N   0  0  0  0  0  4  0  0  0  0  0  0
  -34.5750  -21.8740   14.0860 H   0  0  0  0  0  0  0  0  0  0  0  0
  -34.6110  -20.6200   13.0450 H   0  0  0  0  0  0  0  0  0  0  0  0
  -36.3470  -20.8680   14.0940 C   0  0  0  0  0  2  0  0  0  0  0  0
  -36.0220  -19.8620   15.2210 C   0  0  0  0  0  2  0  0  0  0  0  0
  -37.2750  -19.5560   16.0580 C   0  0  0  0  0  2  0  0  0  0  0  0
  -37.0640  -18.5860   17.2430 C   0  0  0  0  0  2  0  0  0  0  0  0
  -39.2670  -17.4790   17.2610 C   0  0  0  0  0  0  0  0  0  0  0  0
  -39.9560  -15.2470   16.4670 C   0  0  0  0  0  2  0  0  0  0  0  0
  -39.0630  -14.7330   15.3230 C   0  0  0  0  0  2  0  0  0  0  0  0
  -37.8170  -14.0180   15.8810 C   0  0  0  0  0  2  0  0  0  0  0  0
  -37.0910  -14.8470   16.9690 C   0  0  0  0  0  3  0  0  0  0  0  0
  -38.0830  -15.3890   18.0180 C   0  0  0  0  0  2  0  0  0  0  0  0
  -39.1470  -16.1280   17.3200 N   0  0  0  0  0  0  0  0  0  0  0  0
  -40.1730  -18.0510   16.6510 O   0  0  0  0  0  0  0  0  0  0  0  0
  -38.3280  -18.2030   17.8860 N   0  0  0  0  0  0  0  0  0  0  0  0
  -38.7390  -19.0090   18.3400 H   0  0  0  0  0  0  0  0  0  0  0  0
  -34.6900  -14.4460   17.7970 C   0  0  0  0  0  0  0  0  0  0  0  0
  -34.0920  -13.3550   18.3690 C   0  0  0  0  0  0  0  0  0  0  0  0
  -35.1180  -12.3690   18.5000 C   0  0  0  0  0  0  0  0  0  0  0  0
  -36.0150  -14.0930   17.6030 N   0  0  0  0  0  0  0  0  0  0  0  0
  -36.2800  -12.8540   18.0880 N   0  0  0  0  0  0  0  0  0  0  0  0
  -35.0480  -10.9680   18.9350 C   0  0  0  0  0  0  0  0  0  0  0  0
  -35.8920  -10.4670   19.9490 C   0  0  0  0  0  3  0  0  0  0  0  0
  -35.7940   -9.1210   20.3610 C   0  0  0  0  0  3  0  0  0  0  0  0
  -34.8430   -8.2630   19.7570 C   0  0  0  0  0  0  0  0  0  0  0  0
  -34.0220   -8.7600   18.7290 C   0  0  0  0  0  3  0  0  0  0  0  0
  -34.1250  -10.0990   18.3180 C   0  0  0  0  0  3  0  0  0  0  0  0
  -34.6940   -6.9350   20.0740 O   0  0  0  0  0  0  0  0  0  0  0  0
  -35.0330   -6.4460   21.3100 C   0  0  0  0  0  0  0  0  0  0  0  0
  -34.4700   -6.9660   22.4970 C   0  0  0  0  0  3  0  0  0  0  0  0
  -34.7940   -6.3880   23.7400 C   0  0  0  0  0  3  0  0  0  0  0  0
  -35.6740   -5.2900   23.7980 C   0  0  0  0  0  0  0  0  0  0  0  0
  -36.2280   -4.7670   22.6160 C   0  0  0  0  0  3  0  0  0  0  0  0
  -35.9070   -5.3440   21.3750 C   0  0  0  0  0  0  0  0  0  0  0  0
  -36.4280   -4.8250   20.2370 F   0  0  0  0  0  0  0  0  0  0  0  0
  -35.9800   -4.7280   24.9900 F   0  0  0  0  0  0  0  0  0  0  0  0
  -32.6320  -13.1960   18.6820 C   0  0  0  0  0  0  0  0  0  0  0  0
  -32.3130  -12.4330   19.7230 N   0  0  0  0  0  0  0  0  0  0  0  0
  -31.7670  -13.7860   18.0360 O   0  0  0  0  0  0  0  0  0  0  0  0
  -33.0240  -11.9650   20.2630 H   0  0  0  0  0  0  0  0  0  0  0  0
  -31.3450  -12.3150   19.9830 H   0  0  0  0  0  0  0  0  0  0  0  0
  -34.2130  -15.6920   17.4050 N   0  0  0  0  0  0  0  0  0  0  0  0
  -33.2340  -15.9450   17.4760 H   0  0  0  0  0  0  0  0  0  0  0  0
  -34.7720  -16.4020   16.9500 H   0  0  0  0  0  0  0  0  0  0  0  0
  1  3  1  0
  2  1  2  0
  4  3  1  0
  4  5  1  0
  6  5  1  0
  6  7  1  0
  8  7  1  0
  8  9  1  0
 10  9  1  0
 11 14  1  0
 11 10  1  0
 12 11  1  0
 13 11  1  0
 15 16  1  0
 15 14  1  0
 16 18  1  0
 17 28  2  0
 18 23  2  0
 18 24  1  0
 19 29  1  0
 20 26  1  0
 21 27  1  0
 22 21  1  0
 22 20  2  0
 23 22  1  0
 24 25  2  0
 25 20  1  0
 26 19  1  0
 27 17  1  0
 27 19  1  0
 29 30  1  0
 30 32  1  0
 31 29  2  0
 33 42  1  0
 34 30  1  0
 34 35  1  0
 34 38  1  0
 35 36  1  0
 36 37  1  0
 37 33  1  0
 38 39  1  0
 38 33  2  0
 39 40  2  0
 40 41  1  0
 42 41  2  0
 43 44  1  0
 43 17  1  0
 44 47  1  0
 45 44  1  0
 45 49  1  0
 46 45  2  0
 49 48  1  0
 50 51  1  0
 51 52  1  0
 51 49  1  0
 53 43  1  0
 53 54  1  1
 55 53  1  0
 56 53  1  0
 57  2  1  0
 58 59  2  0
 59 57  1  0
 60 58  1  0
 61 63  1  0
 61 60  1  0
 62 60  2  0
 64 65  1  0
 64 61  1  0
 65 66  1  0
 66 67  1  0
 66 69  1  0
 68 66  1  0
 69 70  1  0
 70 71  1  0
 71 72  1  0
 72 81  1  0
 73 79  1  0
 73 81  1  0
 74 79  1  0
 75 76  1  0
 75 74  1  0
 77 76  1  0
 77 86  1  0
 77 78  1  0
 79 78  1  0
 80 73  2  0
 81 82  1  0
 83 84  2  0
 84 85  1  0
 84103  1  0
 85 88  1  0
 86 83  1  0
 86 87  1  0
 87 85  2  0
 88 89  1  0
 89 90  2  0
 91 94  1  0
 91 90  1  0
 92 91  2  0
 93 92  1  0
 93 88  2  0
 94 95  1  0
 95100  2  0
 95 96  1  0
 96 97  2  0
 97 98  1  0
 98102  1  0
 99 98  2  0
100 99  1  0
101100  1  0
103104  1  0
104107  1  0
104106  1  0
105103  2  0
108109  1  0
108 83  1  0
110108  1  0
M  ISO  4  15 101  16 101  73 100  81 100
M  END
>  <TORSDO>  (46) 
F 37

>  <SCORE>  (46) 
-2.781

>  <name>  (46) 
45

>  <ligand_id>  (46) 
45

>  <original_smiles>  (46) 
[H]C(=NC([H])([H])C([H])=C([H])C(=O)N([H])C([H])([H])C([H])([H])[N+]([H])([H])C([H])([H])C([H])([H])C([H])([H])C([H])([H])N([H])C(=O)N1C([H])([H])C([H])([H])C([H])([H])C([H])(n2nc(-c3c([H])c([H])c(Oc4c([H])c([H])c(F)c([H])c4F)c([H])c3[H])c(C(=O)N([H])[H])c2N([H])[H])C1([H])[H])C([H])([H])C([H])([H])C([H])([H])C([H])([H])C([H])([H])C([H])([H])C([H])([H])C([H])([H])[N+]([H])([H])C([H])([H])C([H])([H])Oc1c([H])c([H])c2c(c1[H])C([H])([H])N(C(=O)C([H])(N([H])C(=O)C([H])(N([H])C([H])([H])[H])C([H])([H])[H])C(C([H])([H])[H])(C([H])([H])[H])C([H])([H])[H])C([H])(C(=O)N([H])C1([H])c3c([H])c([H])c([H])c([H])c3C([H])([H])C([H])([H])C1([H])[H])C2([H])[H]

>  <smiles>  (46) 
[H]C(=NC([H])([H])C([H])=C([H])C(=O)N([H])C([H])([H])C([H])([H])[N+]([H])([H])C([H])([H])C([H])([H])C([H])([H])C([H])([H])N([H])C(=O)N1C([H])([H])C([H])([H])C([H])([H])C([H])(n2nc(-c3c([H])c([H])c(Oc4c([H])c([H])c(F)c([H])c4F)c([H])c3[H])c(C(=O)N([H])[H])c2N([H])[H])C1([H])[H])C([H])([H])C([H])([H])C([H])([H])C([H])([H])C([H])([H])C([H])([H])C([H])([H])C([H])([H])[N+]([H])([H])C([H])([H])C([H])([H])Oc1c([H])c([H])c2c(c1[H])C([H])([H])N(C(=O)C([H])(N([H])C(=O)C([H])(N([H])C([H])([H])[H])C([H])([H])[H])C(C([H])([H])[H])(C([H])([H])[H])C([H])([H])[H])C([H])(C(=O)N([H])C1([H])c3c([H])c([H])c([H])c([H])c3C([H])([H])C([H])([H])C1([H])[H])C2([H])[H]

$$$$
46:0:0
     RDKit          3D

112119  0  0  1  0  0  0  0  0999 V2000
  -33.1290  -24.4680   18.8500 C   0  0  0  0  0  0  0  0  0  0  0  0
  -33.8540  -25.0510   19.8100 N   0  0  0  0  0  0  0  0  0  0  0  0
  -32.2850  -25.0770   18.1860 O   0  0  0  0  0  0  0  0  0  0  0  0
  -34.5830  -24.4950   20.2410 H   0  0  0  0  0  0  0  0  0  0  0  0
  -33.6660  -26.4090   20.3140 C   0  0  0  0  0  2  0  0  0  0  0  0
  -32.4210  -26.5370   21.2170 C   0  0  0  0  0  2  0  0  0  0  0  0
  -32.3790  -25.5380   22.3940 C   0  0  0  0  0  2  0  0  0  0  0  0
  -31.1540  -25.7030   23.2040 N   0  0  0  0  0  4  0  0  0  0  0  0
  -31.0490  -26.6730   23.4570 H   0  0  0  0  0  0  0  0  0  0  0  0
  -30.3670  -25.4460   22.6360 H   0  0  0  0  0  0  0  0  0  0  0  0
  -31.1100  -24.8970   24.4420 C   0  0  0  0  0  2  0  0  0  0  0  0
  -29.6780  -24.4100   24.7470 C   0  0  0  0  0  2  0  0  0  0  0  0
  -29.2590  -23.1980   23.8860 C   0  0  0  0  0  2  0  0  0  0  0  0
  -29.6560  -21.8590   24.5330 C   0  0  0  0  0  2  0  0  0  0  0  0
  -29.8030  -20.6930   23.5410 C   0  0  0  0  0  2  0  0  0  0  0  0
  -30.1780  -19.3870   24.2640 C   0  0  0  0  0  2  0  0  0  0  0  0
  -30.2070  -17.2010   23.0380 C   0  0  0  0  0  0  0  0  0  0  0  0
  -30.7200  -18.3980   23.3400 N   0  0  0  0  0  0  0  0  0  0  0  0
  -29.1320  -16.7860   23.4790 O   0  0  0  0  0  0  0  0  0  0  0  0
  -31.6190  -18.6170   22.9270 H   0  0  0  0  0  0  0  0  0  0  0  0
  -31.0570  -16.3380   22.1120 C   0  0  0  0  0  2  0  0  0  0  0  0
  -30.7830  -14.3470   20.6940 C   0  0  0  0  0  0  0  0  0  0  0  0
  -30.4180  -12.2760   19.4070 C   0  0  0  0  0  2  0  0  0  0  0  0
  -29.4930  -12.5170   18.2000 C   0  0  0  0  0  2  0  0  0  0  0  0
  -28.0130  -12.3870   18.6100 C   0  0  0  0  0  2  0  0  0  0  0  0
  -27.6710  -13.2080   19.8840 C   0  0  0  0  0  3  0  0  0  0  0  0
  -28.7060  -12.9480   21.0000 C   0  0  0  0  0  2  0  0  0  0  0  0
  -30.0520  -13.2270   20.4680 N   0  0  0  0  0  0  0  0  0  0  0  0
  -31.7920  -14.6410   20.0450 O   0  0  0  0  0  0  0  0  0  0  0  0
  -30.3810  -15.1090   21.7130 N   0  0  0  0  0  0  0  0  0  0  0  0
  -29.5630  -14.8440   22.2430 H   0  0  0  0  0  0  0  0  0  0  0  0
  -25.2640  -13.8170   20.5700 C   0  0  0  0  0  0  0  0  0  0  0  0
  -24.1870  -13.0430   20.9180 C   0  0  0  0  0  0  0  0  0  0  0  0
  -24.6420  -11.6900   20.8730 C   0  0  0  0  0  0  0  0  0  0  0  0
  -26.3080  -12.9350   20.3420 N   0  0  0  0  0  0  0  0  0  0  0  0
  -25.9360  -11.6510   20.5790 N   0  0  0  0  0  0  0  0  0  0  0  0
  -23.9070  -10.4270   21.0370 C   0  0  0  0  0  0  0  0  0  0  0  0
  -24.3620   -9.4210   21.9170 C   0  0  0  0  0  3  0  0  0  0  0  0
  -23.6290   -8.2250   22.0740 C   0  0  0  0  0  3  0  0  0  0  0  0
  -22.4280   -8.0270   21.3530 C   0  0  0  0  0  0  0  0  0  0  0  0
  -21.9910   -9.0250   20.4640 C   0  0  0  0  0  3  0  0  0  0  0  0
  -22.7230  -10.2130   20.3040 C   0  0  0  0  0  3  0  0  0  0  0  0
  -21.6630   -6.8880   21.4250 O   0  0  0  0  0  0  0  0  0  0  0  0
  -21.6860   -6.0730   22.5290 C   0  0  0  0  0  0  0  0  0  0  0  0
  -21.4010   -6.5640   23.8230 C   0  0  0  0  0  3  0  0  0  0  0  0
  -21.3660   -5.6780   24.9200 C   0  0  0  0  0  3  0  0  0  0  0  0
  -21.6050   -4.3050   24.7240 C   0  0  0  0  0  0  0  0  0  0  0  0
  -21.8830   -3.8140   23.4360 C   0  0  0  0  0  3  0  0  0  0  0  0
  -21.9190   -4.6960   22.3420 C   0  0  0  0  0  0  0  0  0  0  0  0
  -22.1660   -4.2150   21.0980 F   0  0  0  0  0  0  0  0  0  0  0  0
  -21.5630   -3.4520   25.7740 F   0  0  0  0  0  0  0  0  0  0  0  0
  -22.7890  -13.5230   21.1810 C   0  0  0  0  0  0  0  0  0  0  0  0
  -22.0510  -12.8260   22.0380 N   0  0  0  0  0  0  0  0  0  0  0  0
  -22.3590  -14.5510   20.6620 O   0  0  0  0  0  0  0  0  0  0  0  0
  -22.4030  -11.9910   22.4830 H   0  0  0  0  0  0  0  0  0  0  0  0
  -21.1130  -13.1360   22.2520 H   0  0  0  0  0  0  0  0  0  0  0  0
  -25.4350  -15.1880   20.4120 N   0  0  0  0  0  0  0  0  0  0  0  0
  -24.6720  -15.8450   20.5370 H   0  0  0  0  0  0  0  0  0  0  0  0
  -26.2970  -15.6300   20.1180 H   0  0  0  0  0  0  0  0  0  0  0  0
  -33.3660  -22.9670   18.6270 C   0  0  0  0  0  2  0  0  0  0  0  0
  -31.0270  -22.1730   18.9810 C   0  0  0  0  0  0  0  0  0  0  0  0
  -32.1490  -22.2400   18.2520 N   0  0  0  0  0  0  0  0  0  0  0  0
  -30.9110  -22.7080   20.0880 O   0  0  0  0  0  0  0  0  0  0  0  0
  -32.1610  -21.7770   17.3530 H   0  0  0  0  0  0  0  0  0  0  0  0
  -29.8460  -21.3950   18.4000 C   0  0  0  0  0  2  0  0  0  0  0  0
  -28.6830  -22.2830   17.8980 C   0  0  0  0  0  2  0  0  0  0  0  0
  -28.0970  -23.1490   18.9490 N   0  0  0  0  0  4  0  0  0  0  0  0
  -28.3920  -22.7980   19.8480 H   0  0  0  0  0  0  0  0  0  0  0  0
  -27.0920  -23.0460   18.9110 H   0  0  0  0  0  0  0  0  0  0  0  0
  -28.4370  -24.5920   18.8370 C   0  0  0  0  0  2  0  0  0  0  0  0
  -28.2780  -25.3080   20.1900 C   0  0  0  0  0  2  0  0  0  0  0  0
  -28.3980  -26.7300   20.0870 O   0  0  0  0  0  0  0  0  0  0  0  0
  -24.6140  -31.8700   23.2130 C   0  0  0  0  0  0  0  0  0  0  0  0
  -27.2230  -27.4510   20.0810 C   0  0  0  0  0  0  0  0  0  0  0  0
  -23.3980  -30.4950   21.5550 C   0  0  0  0  0  3  0  0  0  0  0  0
  -24.8390  -28.9680   20.1150 C   0  0  0  0  0  0  0  0  0  0  0  0
  -25.9240  -30.8430   21.3580 C   0  0  0  0  0  2  0  0  0  0  0  0
  -26.0010  -29.4790   20.7040 C   0  0  0  0  0  0  0  0  0  0  0  0
  -27.1990  -28.7320   20.6780 C   0  0  0  0  0  3  0  0  0  0  0  0
  -26.0370  -26.9520   19.4940 C   0  0  0  0  0  3  0  0  0  0  0  0
  -24.8510  -27.7030   19.5070 C   0  0  0  0  0  3  0  0  0  0  0  0
  -23.6010  -29.8310   20.1690 C   0  0  0  0  0  2  0  0  0  0  0  0
  -24.6640  -31.0810   22.1020 N   0  0  0  0  0  0  0  0  0  0  0  0
  -23.5340  -32.1430   23.7560 O   0  0  0  0  0  0  0  0  0  0  0  0
  -22.7380  -29.4660   22.5020 C   0  0  0  0  0  0  0  0  0  0  0  0
  -21.4110  -29.3030   22.3750 N   0  0  0  0  0  0  0  0  0  0  0  0
  -23.4180  -28.8180   23.3030 O   0  0  0  0  0  0  0  0  0  0  0  0
  -20.9260  -29.8750   21.6970 H   0  0  0  0  0  0  0  0  0  0  0  0
  -18.0260  -28.1370   22.8490 C   0  0  0  0  0  0  0  0  0  0  0  0
  -20.5850  -28.3650   23.1330 C   0  0  0  0  0  3  0  0  0  0  0  0
  -20.6760  -26.9390   22.5420 C   0  0  0  0  0  2  0  0  0  0  0  0
  -19.5750  -26.6390   21.5200 C   0  0  0  0  0  2  0  0  0  0  0  0
  -18.1920  -26.7910   22.1610 C   0  0  0  0  0  2  0  0  0  0  0  0
  -19.1510  -28.8820   23.2900 C   0  0  0  0  0  0  0  0  0  0  0  0
  -18.9440  -30.1430   23.8920 C   0  0  0  0  0  3  0  0  0  0  0  0
  -17.6450  -30.6580   24.0550 C   0  0  0  0  0  3  0  0  0  0  0  0
  -16.5340  -29.9080   23.6330 C   0  0  0  0  0  3  0  0  0  0  0  0
  -16.7250  -28.6500   23.0350 C   0  0  0  0  0  3  0  0  0  0  0  0
  -25.9040  -32.4820   23.8400 C   0  0  0  0  0  3  0  0  0  0  0  0
  -26.4500  -31.6560   25.0680 C   0  0  1  0  0  0  0  0  0  0  0  0
  -25.3790  -31.3590   26.1440 C   0  0  0  0  0  1  0  0  0  0  0  0
  -27.0300  -30.3020   24.5960 C   0  0  0  0  0  1  0  0  0  0  0  0
  -27.6110  -32.4220   25.7430 C   0  0  0  0  0  1  0  0  0  0  0  0
  -25.5930  -33.8620   24.2350 N   0  0  0  0  0  0  0  0  0  0  0  0
  -25.9040  -34.9480   23.5130 C   0  0  0  0  0  0  0  0  0  0  0  0
  -26.5580  -34.8920   22.4680 O   0  0  0  0  0  0  0  0  0  0  0  0
  -25.0140  -33.9790   25.0540 H   0  0  0  0  0  0  0  0  0  0  0  0
  -24.1490  -36.7310   23.2640 C   0  0  0  0  0  1  0  0  0  0  0  0
  -25.4120  -36.3120   24.0340 C   0  0  0  0  0  3  0  0  0  0  0  0
  -27.5580  -37.1820   24.8470 C   0  0  0  0  0  1  0  0  0  0  0  0
  -26.4300  -37.3800   23.9400 N   0  0  0  0  0  0  0  0  0  0  0  0
  -26.0200  -38.2880   24.1410 H   0  0  0  0  0  0  0  0  0  0  0  0
  1  2  1  0
  2  4  1  0
  2  5  1  0
  3  1  2  0
  5  6  1  0
  6  7  1  0
  7  8  1  0
  8  9  1  0
  8 11  1  0
 10  8  1  0
 11 12  1  0
 13 14  1  0
 13 12  1  0
 15 16  1  0
 15 14  1  0
 17 18  1  0
 17 19  2  0
 18 16  1  0
 20 18  1  0
 21 17  1  0
 22 30  1  0
 23 28  1  0
 24 25  1  0
 24 23  1  0
 26 25  1  0
 26 35  1  0
 26 27  1  0
 28 22  1  0
 28 27  1  0
 29 22  2  0
 30 21  1  0
 30 31  1  0
 32 33  2  0
 33 52  1  0
 34 33  1  0
 34 37  1  0
 35 32  1  0
 35 36  1  0
 36 34  2  0
 37 38  1  0
 38 39  2  0
 40 43  1  0
 40 39  1  0
 41 40  2  0
 42 41  1  0
 42 37  2  0
 43 44  1  0
 44 45  1  0
 45 46  2  0
 47 46  1  0
 47 51  1  0
 48 47  2  0
 49 44  2  0
 49 48  1  0
 50 49  1  0
 52 53  1  0
 53 56  1  0
 53 55  1  0
 54 52  2  0
 57 58  1  0
 57 32  1  0
 59 57  1  0
 60  1  1  0
 61 63  2  0
 62 60  1  0
 62 61  1  0
 64 62  1  0
 65 61  1  0
 66 65  1  0
 66 67  1  0
 67 68  1  0
 69 67  1  0
 70 67  1  0
 70 71  1  0
 72 71  1  0
 73 84  2  0
 74 72  1  0
 74 79  1  0
 75 83  1  0
 75 85  1  0
 76 82  1  0
 76 78  1  0
 77 83  1  0
 78 77  1  0
 79 78  2  0
 80 81  1  0
 80 74  2  0
 81 76  2  0
 82 75  1  0
 83 73  1  0
 85 87  2  0
 86 85  1  0
 88 86  1  0
 89 98  2  0
 89 94  1  0
 90 86  1  0
 90 94  1  0
 91 90  1  0
 92 93  1  0
 92 91  1  0
 93 89  1  0
 94 95  2  0
 95 96  1  0
 97 96  2  0
 98 97  1  0
 99 73  1  0
 99104  1  0
 99100  1  0
100103  1  1
100101  1  0
102100  1  0
104107  1  0
105109  1  0
105104  1  0
106105  2  0
109108  1  0
111109  1  0
111112  1  0
111110  1  0
M  ISO  4  22 100  30 100  71 101  72 101
M  END
>  <TORSDO>  (47) 
F 35

>  <SCORE>  (47) 
0.318

>  <name>  (47) 
46

>  <ligand_id>  (47) 
46

>  <original_smiles>  (47) 
[H]c1c([H])c([H])c2c(c1[H])C([H])([H])C([H])([H])C([H])([H])C2([H])N([H])C(=O)C1([H])N(C(=O)C([H])(N([H])C(=O)C([H])(N([H])C([H])([H])[H])C([H])([H])[H])C(C([H])([H])[H])(C([H])([H])[H])C([H])([H])[H])C([H])([H])c2c([H])c(OC([H])([H])C([H])([H])[N+]([H])([H])C([H])([H])C([H])([H])C(=O)N([H])C([H])([H])C(=O)N([H])C([H])([H])C([H])([H])C([H])([H])[N+]([H])([H])C([H])([H])C([H])([H])C([H])([H])C([H])([H])C([H])([H])C([H])([H])N([H])C(=O)C([H])([H])N([H])C(=O)N3C([H])([H])C([H])([H])C([H])([H])C([H])(n4nc(-c5c([H])c([H])c(Oc6c([H])c([H])c(F)c([H])c6F)c([H])c5[H])c(C(=O)N([H])[H])c4N([H])[H])C3([H])[H])c([H])c([H])c2C1([H])[H]

>  <smiles>  (47) 
[H]c1c([H])c([H])c2c(c1[H])C([H])([H])C([H])([H])C([H])([H])C2([H])N([H])C(=O)C1([H])N(C(=O)C([H])(N([H])C(=O)C([H])(N([H])C([H])([H])[H])C([H])([H])[H])C(C([H])([H])[H])(C([H])([H])[H])C([H])([H])[H])C([H])([H])c2c([H])c(OC([H])([H])C([H])([H])[N+]([H])([H])C([H])([H])C([H])([H])C(=O)N([H])C([H])([H])C(=O)N([H])C([H])([H])C([H])([H])C([H])([H])[N+]([H])([H])C([H])([H])C([H])([H])C([H])([H])C([H])([H])C([H])([H])C([H])([H])N([H])C(=O)C([H])([H])N([H])C(=O)N3C([H])([H])C([H])([H])C([H])([H])C([H])(n4nc(-c5c([H])c([H])c(Oc6c([H])c([H])c(F)c([H])c6F)c([H])c5[H])c(C(=O)N([H])[H])c4N([H])[H])C3([H])[H])c([H])c([H])c2C1([H])[H]

$$$$
47:0:0
     RDKit          3D

113121  0  0  1  0  0  0  0  0999 V2000
  -30.8640  -19.0540   23.9890 C   0  0  0  0  0  3  0  0  0  0  0  0
  -31.3190  -20.5100   23.7700 C   0  0  0  0  0  0  0  0  0  0  0  0
  -31.2790  -21.3310   24.8250 N   0  0  0  0  0  0  0  0  0  0  0  0
  -31.6690  -20.8850   22.6480 O   0  0  0  0  0  0  0  0  0  0  0  0
  -31.0350  -20.9190   25.7150 H   0  0  0  0  0  0  0  0  0  0  0  0
  -31.5180  -22.7740   24.8200 C   0  0  0  0  0  2  0  0  0  0  0  0
  -30.2830  -23.5540   24.3190 C   0  0  0  0  0  2  0  0  0  0  0  0
  -30.0760  -23.4810   22.7940 C   0  0  0  0  0  2  0  0  0  0  0  0
  -28.9660  -24.4110   22.2660 C   0  0  0  0  0  2  0  0  0  0  0  0
  -28.9810  -24.4750   20.7860 N   0  0  0  0  0  4  0  0  0  0  0  0
  -28.9720  -23.5280   20.4360 H   0  0  0  0  0  0  0  0  0  0  0  0
  -29.8520  -24.8920   20.4960 H   0  0  0  0  0  0  0  0  0  0  0  0
  -27.8400  -25.1980   20.1700 C   0  0  0  0  0  2  0  0  0  0  0  0
  -28.0170  -25.3700   18.6450 C   0  0  0  0  0  2  0  0  0  0  0  0
  -26.7640  -25.5900   18.0000 O   0  0  0  0  0  0  0  0  0  0  0  0
  -24.9630  -30.5740   22.8230 C   0  0  0  0  0  0  0  0  0  0  0  0
  -25.9020  -26.5620   18.4610 C   0  0  0  0  0  0  0  0  0  0  0  0
  -23.2100  -29.9300   21.1980 C   0  0  0  0  0  3  0  0  0  0  0  0
  -23.9940  -28.4970   19.2410 C   0  0  0  0  0  0  0  0  0  0  0  0
  -25.6840  -29.7550   20.5870 C   0  0  0  0  0  2  0  0  0  0  0  0
  -25.3170  -28.5920   19.6910 C   0  0  0  0  0  0  0  0  0  0  0  0
  -26.2730  -27.6290   19.3130 C   0  0  0  0  0  3  0  0  0  0  0  0
  -24.5680  -26.4810   18.0110 C   0  0  0  0  0  3  0  0  0  0  0  0
  -23.6090  -27.4370   18.4030 C   0  0  0  0  0  3  0  0  0  0  0  0
  -23.0400  -29.5770   19.6950 C   0  0  0  0  0  2  0  0  0  0  0  0
  -24.6490  -30.0810   21.5930 N   0  0  0  0  0  0  0  0  0  0  0  0
  -24.0790  -30.9420   23.6100 O   0  0  0  0  0  0  0  0  0  0  0  0
  -22.4520  -28.8800   22.0390 C   0  0  0  0  0  0  0  0  0  0  0  0
  -21.1120  -28.9760   22.0450 N   0  0  0  0  0  0  0  0  0  0  0  0
  -23.0600  -27.9920   22.6420 O   0  0  0  0  0  0  0  0  0  0  0  0
  -20.6920  -29.7370   21.5320 H   0  0  0  0  0  0  0  0  0  0  0  0
  -17.6140  -28.3000   22.6470 C   0  0  0  0  0  0  0  0  0  0  0  0
  -20.1880  -28.0770   22.7360 C   0  0  0  0  0  3  0  0  0  0  0  0
  -20.0000  -26.7600   21.9470 C   0  0  0  0  0  2  0  0  0  0  0  0
  -18.8010  -26.7940   20.9950 C   0  0  0  0  0  2  0  0  0  0  0  0
  -17.5070  -27.0660   21.7680 C   0  0  0  0  0  2  0  0  0  0  0  0
  -18.8740  -28.7840   23.0870 C   0  0  0  0  0  0  0  0  0  0  0  0
  -18.9210  -29.9550   23.8740 C   0  0  0  0  0  3  0  0  0  0  0  0
  -17.7400  -30.6370   24.2220 C   0  0  0  0  0  3  0  0  0  0  0  0
  -16.4950  -30.1460   23.7950 C   0  0  0  0  0  3  0  0  0  0  0  0
  -16.4330  -28.9780   23.0140 C   0  0  0  0  0  3  0  0  0  0  0  0
  -26.4440  -30.7190   23.2940 C   0  0  0  0  0  3  0  0  0  0  0  0
  -26.9210  -29.5390   24.2260 C   0  0  1  0  0  0  0  0  0  0  0  0
  -25.9710  -29.2630   25.4140 C   0  0  0  0  0  1  0  0  0  0  0  0
  -27.0580  -28.2300   23.4140 C   0  0  0  0  0  1  0  0  0  0  0  0
  -28.3240  -29.8550   24.7960 C   0  0  0  0  0  1  0  0  0  0  0  0
  -26.5640  -32.0100   23.9830 N   0  0  0  0  0  0  0  0  0  0  0  0
  -27.1450  -33.0990   23.4620 C   0  0  0  0  0  0  0  0  0  0  0  0
  -27.7050  -33.0980   22.3620 O   0  0  0  0  0  0  0  0  0  0  0  0
  -26.0760  -32.1000   24.8640 H   0  0  0  0  0  0  0  0  0  0  0  0
  -26.0080  -35.3260   23.7260 C   0  0  0  0  0  1  0  0  0  0  0  0
  -27.0950  -34.3960   24.2910 C   0  0  0  0  0  3  0  0  0  0  0  0
  -29.4130  -34.4030   25.1000 C   0  0  0  0  0  1  0  0  0  0  0  0
  -28.3880  -35.1130   24.3380 N   0  0  0  0  0  0  0  0  0  0  0  0
  -28.2740  -36.0370   24.7440 H   0  0  0  0  0  0  0  0  0  0  0  0
  -30.6710  -17.0950   22.4210 C   0  0  0  0  0  0  0  0  0  0  0  0
  -30.8990  -18.3850   22.6920 N   0  0  0  0  0  0  0  0  0  0  0  0
  -30.4590  -16.2530   23.2950 O   0  0  0  0  0  0  0  0  0  0  0  0
  -31.1240  -19.0080   21.9250 H   0  0  0  0  0  0  0  0  0  0  0  0
  -30.6190  -16.7110   20.9360 C   0  0  0  0  0  3  0  0  0  0  0  0
  -30.6870  -14.3840   20.0330 C   0  0  0  0  0  0  0  0  0  0  0  0
  -30.3540  -12.1970   18.9500 C   0  0  0  0  0  2  0  0  0  0  0  0
  -29.3890  -12.3350   17.7570 C   0  0  0  0  0  2  0  0  0  0  0  0
  -27.9270  -12.1990   18.2220 C   0  0  0  0  0  2  0  0  0  0  0  0
  -27.6020  -13.1000   19.4430 C   0  0  0  0  0  3  0  0  0  0  0  0
  -28.6760  -12.9440   20.5440 C   0  0  0  0  0  2  0  0  0  0  0  0
  -29.9960  -13.2170   19.9470 N   0  0  0  0  0  0  0  0  0  0  0  0
  -31.7350  -14.5960   19.4180 O   0  0  0  0  0  0  0  0  0  0  0  0
  -30.1170  -15.3430   20.7720 N   0  0  0  0  0  0  0  0  0  0  0  0
  -29.2970  -15.1070   21.3110 H   0  0  0  0  0  0  0  0  0  0  0  0
  -25.2330  -13.7260   20.2370 C   0  0  0  0  0  0  0  0  0  0  0  0
  -24.1680  -12.9600   20.6260 C   0  0  0  0  0  0  0  0  0  0  0  0
  -24.6090  -11.6020   20.5530 C   0  0  0  0  0  0  0  0  0  0  0  0
  -26.2590  -12.8360   19.9570 N   0  0  0  0  0  0  0  0  0  0  0  0
  -25.8880  -11.5530   20.2010 N   0  0  0  0  0  0  0  0  0  0  0  0
  -23.8730  -10.3460   20.7440 C   0  0  0  0  0  0  0  0  0  0  0  0
  -24.2730   -9.3940   21.7070 C   0  0  0  0  0  3  0  0  0  0  0  0
  -23.5370   -8.2020   21.8820 C   0  0  0  0  0  3  0  0  0  0  0  0
  -22.3900   -7.9530   21.0940 C   0  0  0  0  0  0  0  0  0  0  0  0
  -22.0090   -8.8930   20.1210 C   0  0  0  0  0  3  0  0  0  0  0  0
  -22.7450  -10.0770   19.9420 C   0  0  0  0  0  3  0  0  0  0  0  0
  -21.6290   -6.8110   21.1770 O   0  0  0  0  0  0  0  0  0  0  0  0
  -21.4700   -6.1370   22.3620 C   0  0  0  0  0  0  0  0  0  0  0  0
  -20.9270   -6.7610   23.5060 C   0  0  0  0  0  3  0  0  0  0  0  0
  -20.7170   -6.0120   24.6810 C   0  0  0  0  0  3  0  0  0  0  0  0
  -21.0390   -4.6420   24.7120 C   0  0  0  0  0  0  0  0  0  0  0  0
  -21.5760   -4.0190   23.5730 C   0  0  0  0  0  3  0  0  0  0  0  0
  -21.7880   -4.7650   22.3990 C   0  0  0  0  0  0  0  0  0  0  0  0
  -22.2850   -4.1550   21.2970 F   0  0  0  0  0  0  0  0  0  0  0  0
  -20.8300   -3.9220   25.8390 F   0  0  0  0  0  0  0  0  0  0  0  0
  -22.7870  -13.4490   20.9570 C   0  0  0  0  0  0  0  0  0  0  0  0
  -22.0890  -12.7600   21.8530 N   0  0  0  0  0  0  0  0  0  0  0  0
  -22.3360  -14.4780   20.4550 O   0  0  0  0  0  0  0  0  0  0  0  0
  -22.4660  -11.9270   22.2800 H   0  0  0  0  0  0  0  0  0  0  0  0
  -21.1640  -13.0700   22.1160 H   0  0  0  0  0  0  0  0  0  0  0  0
  -25.4100  -15.0960   20.0780 N   0  0  0  0  0  0  0  0  0  0  0  0
  -24.6520  -15.7570   20.2160 H   0  0  0  0  0  0  0  0  0  0  0  0
  -26.2500  -15.5240   19.7160 H   0  0  0  0  0  0  0  0  0  0  0  0
  -29.8280  -17.7170   20.0540 C   0  0  0  0  0  2  0  0  0  0  0  0
  -28.3410  -17.8990   20.4360 C   0  0  0  0  0  2  0  0  0  0  0  0
  -27.6420  -18.8320   19.5320 N   0  0  0  0  0  4  0  0  0  0  0  0
  -28.0580  -19.7450   19.5610 H   0  0  0  0  0  0  0  0  0  0  0  0
  -26.6790  -18.9220   19.8090 H   0  0  0  0  0  0  0  0  0  0  0  0
  -27.6590  -18.4990   18.5840 H   0  0  0  0  0  0  0  0  0  0  0  0
  -29.4340  -18.9390   24.5890 C   0  0  0  0  0  2  0  0  0  0  0  0
  -30.1130  -17.7400   26.7640 C   0  0  0  0  0  2  0  0  0  0  0  0
  -27.8280  -18.7680   26.5540 C   0  0  0  0  0  2  0  0  0  0  0  0
  -29.9210  -17.6830   28.2930 C   0  0  0  0  0  2  0  0  0  0  0  0
  -27.6770  -18.6960   28.0870 C   0  0  0  0  0  2  0  0  0  0  0  0
  -29.3060  -18.8960   26.1310 C   0  0  0  0  0  3  0  0  0  0  0  0
  -28.4890  -17.5970   28.6520 N   0  0  0  0  0  4  0  0  0  0  0  0
  -28.4050  -17.6100   29.6560 H   0  0  0  0  0  0  0  0  0  0  0  0
  -28.1200  -16.7140   28.3380 H   0  0  0  0  0  0  0  0  0  0  0  0
  1105  1  0
  2  1  1  0
  2  3  1  0
  3  5  1  0
  4  2  2  0
  6  3  1  0
  7  6  1  0
  8  7  1  0
  9  8  1  0
 10  9  1  0
 11 10  1  0
 12 10  1  0
 13 10  1  0
 14 13  1  0
 15 17  1  0
 15 14  1  0
 16 27  2  0
 17 22  1  0
 18 26  1  0
 18 28  1  0
 19 21  1  0
 19 25  1  0
 20 26  1  0
 21 20  1  0
 22 21  2  0
 23 24  1  0
 23 17  2  0
 24 19  2  0
 25 18  1  0
 26 16  1  0
 28 29  1  0
 28 30  2  0
 31 29  1  0
 32 41  2  0
 32 37  1  0
 33 29  1  0
 33 37  1  0
 34 33  1  0
 35 36  1  0
 35 34  1  0
 36 32  1  0
 37 38  2  0
 38 39  1  0
 40 39  2  0
 41 40  1  0
 42 16  1  0
 42 47  1  0
 42 43  1  0
 43 46  1  1
 43 44  1  0
 45 43  1  0
 47 50  1  0
 48 47  1  0
 48 52  1  0
 49 48  2  0
 52 51  1  0
 52 54  1  0
 54 55  1  0
 54 53  1  0
 56 57  1  0
 56 58  2  0
 57  1  1  0
 59 57  1  0
 60 99  1  0
 60 56  1  0
 61 69  1  0
 62 67  1  0
 63 64  1  0
 63 62  1  0
 65 64  1  0
 65 74  1  0
 65 66  1  0
 67 61  1  0
 67 66  1  0
 68 61  2  0
 69 60  1  0
 69 70  1  0
 71 72  2  0
 72 91  1  0
 73 72  1  0
 73 76  1  0
 74 75  1  0
 74 71  1  0
 75 73  2  0
 76 77  1  0
 77 78  2  0
 79 82  1  0
 79 78  1  0
 80 79  2  0
 81 80  1  0
 81 76  2  0
 82 83  1  0
 83 88  2  0
 83 84  1  0
 84 85  2  0
 85 86  1  0
 86 90  1  0
 87 86  2  0
 88 87  1  0
 89 88  1  0
 91 92  1  0
 92 95  1  0
 92 94  1  0
 93 91  2  0
 96 97  1  0
 96 71  1  0
 98 96  1  0
 99100  1  0
101102  1  0
101103  1  0
101100  1  0
104101  1  0
105110  1  0
106108  1  0
107109  1  0
108111  1  0
109111  1  0
110107  1  0
110106  1  0
111112  1  0
113111  1  0
M  ISO  4  14 101  15 101  61 100  69 100
M  END
>  <TORSDO>  (48) 
F 31

>  <SCORE>  (48) 
9.889

>  <name>  (48) 
47

>  <ligand_id>  (48) 
47

>  <original_smiles>  (48) 
[H]c1c([H])c([H])c2c(c1[H])C([H])([H])C([H])([H])C([H])([H])C2([H])N([H])C(=O)C1([H])N(C(=O)C([H])(N([H])C(=O)C([H])(N([H])C([H])([H])[H])C([H])([H])[H])C(C([H])([H])[H])(C([H])([H])[H])C([H])([H])[H])C([H])([H])c2c([H])c(OC([H])([H])C([H])([H])[N+]([H])([H])C([H])([H])C([H])([H])C([H])([H])C([H])([H])N([H])C(=O)C([H])(N([H])C(=O)C([H])(N([H])C(=O)N3C([H])([H])C([H])([H])C([H])([H])C([H])(n4nc(-c5c([H])c([H])c(Oc6c([H])c([H])c(F)c([H])c6F)c([H])c5[H])c(C(=O)N([H])[H])c4N([H])[H])C3([H])[H])C([H])([H])C([H])([H])[N+]([H])([H])[H])C([H])([H])C3([H])C([H])([H])C([H])([H])[N+]([H])([H])C([H])([H])C3([H])[H])c([H])c([H])c2C1([H])[H]

>  <smiles>  (48) 
[H]c1c([H])c([H])c2c(c1[H])C([H])([H])C([H])([H])C([H])([H])C2([H])N([H])C(=O)C1([H])N(C(=O)C([H])(N([H])C(=O)C([H])(N([H])C([H])([H])[H])C([H])([H])[H])C(C([H])([H])[H])(C([H])([H])[H])C([H])([H])[H])C([H])([H])c2c([H])c(OC([H])([H])C([H])([H])[N+]([H])([H])C([H])([H])C([H])([H])C([H])([H])C([H])([H])N([H])C(=O)C([H])(N([H])C(=O)C([H])(N([H])C(=O)N3C([H])([H])C([H])([H])C([H])([H])C([H])(n4nc(-c5c([H])c([H])c(Oc6c([H])c([H])c(F)c([H])c6F)c([H])c5[H])c(C(=O)N([H])[H])c4N([H])[H])C3([H])[H])C([H])([H])C([H])([H])[N+]([H])([H])[H])C([H])([H])C3([H])C([H])([H])C([H])([H])[N+]([H])([H])C([H])([H])C3([H])[H])c([H])c([H])c2C1([H])[H]

$$$$
48:0:0
     RDKit          3D

102109  0  0  1  0  0  0  0  0999 V2000
  -24.3470  -19.8180   25.2960 C   0  0  0  0  0  2  0  0  0  0  0  0
  -25.6240  -19.0230   24.9900 C   0  0  0  0  0  2  0  0  0  0  0  0
  -26.2550  -18.3810   26.2430 C   0  0  0  0  0  2  0  0  0  0  0  0
  -28.6720  -18.9170   26.2140 C   0  0  0  0  0  0  0  0  0  0  0  0
  -27.6590  -18.0700   25.9960 N   0  0  0  0  0  0  0  0  0  0  0  0
  -28.5260  -19.9930   26.7990 O   0  0  0  0  0  0  0  0  0  0  0  0
  -27.8660  -17.1950   25.5330 H   0  0  0  0  0  0  0  0  0  0  0  0
  -30.0540  -18.5040   25.6860 C   0  0  0  0  0  2  0  0  0  0  0  0
  -29.9110  -18.7020   23.2100 C   0  0  0  0  0  0  0  0  0  0  0  0
  -30.3680  -19.1230   24.3970 N   0  0  0  0  0  0  0  0  0  0  0  0
  -29.1540  -17.7380   23.0970 O   0  0  0  0  0  0  0  0  0  0  0  0
  -30.9580  -19.9430   24.4210 H   0  0  0  0  0  0  0  0  0  0  0  0
  -30.3630  -19.4750   21.9660 C   0  0  0  0  0  2  0  0  0  0  0  0
  -31.1420  -18.6250   20.9330 C   0  0  0  0  0  2  0  0  0  0  0  0
  -30.2600  -16.3590   20.5400 C   0  0  0  0  0  0  0  0  0  0  0  0
  -29.5700  -15.4090   18.3710 C   0  0  0  0  0  2  0  0  0  0  0  0
  -30.1850  -14.0220   18.1090 C   0  0  0  0  0  2  0  0  0  0  0  0
  -31.5780  -14.1510   17.4670 C   0  0  0  0  0  2  0  0  0  0  0  0
  -32.4920  -15.1350   18.2400 C   0  0  0  0  0  3  0  0  0  0  0  0
  -31.7580  -16.4630   18.5090 C   0  0  0  0  0  2  0  0  0  0  0  0
  -30.4910  -16.1880   19.2120 N   0  0  0  0  0  0  0  0  0  0  0  0
  -29.3450  -15.8000   21.1480 O   0  0  0  0  0  0  0  0  0  0  0  0
  -31.0850  -17.1820   21.1990 N   0  0  0  0  0  0  0  0  0  0  0  0
  -31.1040  -16.9750   22.1870 H   0  0  0  0  0  0  0  0  0  0  0  0
  -35.0580  -15.2890   18.0160 C   0  0  0  0  0  0  0  0  0  0  0  0
  -35.8690  -15.5040   16.9330 C   0  0  0  0  0  0  0  0  0  0  0  0
  -34.9960  -15.6780   15.8170 C   0  0  0  0  0  0  0  0  0  0  0  0
  -33.7560  -15.3520   17.5370 N   0  0  0  0  0  0  0  0  0  0  0  0
  -33.7290  -15.6380   16.2090 N   0  0  0  0  0  0  0  0  0  0  0  0
  -35.2930  -15.8280   14.3860 C   0  0  0  0  0  0  0  0  0  0  0  0
  -35.0710  -17.0470   13.7100 C   0  0  0  0  0  3  0  0  0  0  0  0
  -35.3800  -17.1720   12.3400 C   0  0  0  0  0  3  0  0  0  0  0  0
  -35.9210  -16.0730   11.6290 C   0  0  0  0  0  0  0  0  0  0  0  0
  -36.1180  -14.8540   12.3020 C   0  0  0  0  0  3  0  0  0  0  0  0
  -35.8060  -14.7300   13.6660 C   0  0  0  0  0  3  0  0  0  0  0  0
  -36.2260  -16.0960   10.2910 O   0  0  0  0  0  0  0  0  0  0  0  0
  -36.7110  -17.2250    9.6810 C   0  0  0  0  0  0  0  0  0  0  0  0
  -37.8990  -17.8530   10.1140 C   0  0  0  0  0  3  0  0  0  0  0  0
  -38.3990  -18.9710    9.4170 C   0  0  0  0  0  3  0  0  0  0  0  0
  -37.7190  -19.4560    8.2830 C   0  0  0  0  0  0  0  0  0  0  0  0
  -36.5400  -18.8260    7.8470 C   0  0  0  0  0  3  0  0  0  0  0  0
  -36.0390  -17.7130    8.5430 C   0  0  0  0  0  0  0  0  0  0  0  0
  -34.9120  -17.0990    8.1060 F   0  0  0  0  0  0  0  0  0  0  0  0
  -38.2020  -20.5250    7.6070 F   0  0  0  0  0  0  0  0  0  0  0  0
  -37.3700  -15.4510   16.9140 C   0  0  0  0  0  0  0  0  0  0  0  0
  -38.0010  -16.2230   16.0350 N   0  0  0  0  0  0  0  0  0  0  0  0
  -37.9950  -14.7570   17.7130 O   0  0  0  0  0  0  0  0  0  0  0  0
  -37.4910  -16.8070   15.3870 H   0  0  0  0  0  0  0  0  0  0  0  0
  -39.0100  -16.2170   15.9970 H   0  0  0  0  0  0  0  0  0  0  0  0
  -35.3170  -15.0270   19.3560 N   0  0  0  0  0  0  0  0  0  0  0  0
  -36.2560  -14.9810   19.7330 H   0  0  0  0  0  0  0  0  0  0  0  0
  -34.5980  -14.9580   20.0660 H   0  0  0  0  0  0  0  0  0  0  0  0
  -23.6120  -20.2410   24.0130 C   0  0  0  0  0  2  0  0  0  0  0  0
  -22.7310  -21.4820   24.2190 C   0  0  0  0  0  2  0  0  0  0  0  0
  -21.4600  -21.4440   23.3580 C   0  0  0  0  0  2  0  0  0  0  0  0
  -20.9770  -22.8470   22.9650 C   0  0  0  0  0  2  0  0  0  0  0  0
  -19.1760  -23.0480   21.2670 C   0  0  0  0  0  0  0  0  0  0  0  0
  -19.5920  -22.8020   22.5150 N   0  0  0  0  0  0  0  0  0  0  0  0
  -19.9520  -23.2990   20.3410 O   0  0  0  0  0  0  0  0  0  0  0  0
  -18.8850  -22.6090   23.2110 H   0  0  0  0  0  0  0  0  0  0  0  0
  -17.6580  -23.0480   21.0270 C   0  0  0  0  0  2  0  0  0  0  0  0
  -17.3810  -23.0760   19.6240 O   0  0  0  0  0  0  0  0  0  0  0  0
  -17.2460  -26.1230   13.2210 C   0  0  0  0  0  0  0  0  0  0  0  0
  -17.7120  -24.1980   18.8940 C   0  0  0  0  0  0  0  0  0  0  0  0
  -18.5530  -27.3260   14.9430 C   0  0  0  0  0  3  0  0  0  0  0  0
  -18.2680  -26.4860   17.3320 C   0  0  0  0  0  0  0  0  0  0  0  0
  -16.5850  -25.8320   15.6020 C   0  0  0  0  0  2  0  0  0  0  0  0
  -17.3040  -25.5660   16.9070 C   0  0  0  0  0  0  0  0  0  0  0  0
  -17.0180  -24.4260   17.6870 C   0  0  0  0  0  3  0  0  0  0  0  0
  -18.6890  -25.1350   19.3090 C   0  0  0  0  0  3  0  0  0  0  0  0
  -18.9700  -26.2730   18.5300 C   0  0  0  0  0  3  0  0  0  0  0  0
  -18.5000  -27.6900   16.4500 C   0  0  0  0  0  2  0  0  0  0  0  0
  -17.4560  -26.3870   14.5410 N   0  0  0  0  0  0  0  0  0  0  0  0
  -17.9190  -26.6790   12.3430 O   0  0  0  0  0  0  0  0  0  0  0  0
  -19.9660  -26.7920   14.6160 C   0  0  0  0  0  0  0  0  0  0  0  0
  -20.5970  -27.3710   13.5820 N   0  0  0  0  0  0  0  0  0  0  0  0
  -20.4800  -25.9020   15.2980 O   0  0  0  0  0  0  0  0  0  0  0  0
  -20.1030  -28.0890   13.0690 H   0  0  0  0  0  0  0  0  0  0  0  0
  -22.7760  -27.4880   10.7040 C   0  0  0  0  0  0  0  0  0  0  0  0
  -21.9450  -27.0610   13.1140 C   0  0  0  0  0  3  0  0  0  0  0  0
  -22.9510  -28.1530   13.5470 C   0  0  0  0  0  2  0  0  0  0  0  0
  -23.1460  -29.2440   12.4900 C   0  0  0  0  0  2  0  0  0  0  0  0
  -23.6520  -28.6380   11.1780 C   0  0  0  0  0  2  0  0  0  0  0  0
  -21.9620  -26.7590   11.6110 C   0  0  0  0  0  0  0  0  0  0  0  0
  -21.1410  -25.7250   11.1150 C   0  0  0  0  0  3  0  0  0  0  0  0
  -21.1240  -25.4140    9.7430 C   0  0  0  0  0  3  0  0  0  0  0  0
  -21.9430  -26.1280    8.8510 C   0  0  0  0  0  3  0  0  0  0  0  0
  -22.7690  -27.1590    9.3320 C   0  0  0  0  0  3  0  0  0  0  0  0
  -16.1380  -25.1290   12.7500 C   0  0  0  0  0  3  0  0  0  0  0  0
  -15.6040  -25.6320   11.4780 N   0  0  0  0  0  0  0  0  0  0  0  0
  -14.4660  -26.3290   11.3540 C   0  0  0  0  0  0  0  0  0  0  0  0
  -13.7110  -26.5520   12.3040 O   0  0  0  0  0  0  0  0  0  0  0  0
  -16.1960  -25.5300   10.6650 H   0  0  0  0  0  0  0  0  0  0  0  0
  -14.4690  -28.3540    9.8640 C   0  0  0  0  0  1  0  0  0  0  0  0
  -14.1100  -26.8620    9.9530 C   0  0  0  0  0  3  0  0  0  0  0  0
  -12.3290  -25.2690    9.3920 C   0  0  0  0  0  1  0  0  0  0  0  0
  -12.6880  -26.6700    9.5940 N   0  0  0  0  0  0  0  0  0  0  0  0
  -12.4590  -27.1820    8.7460 H   0  0  0  0  0  0  0  0  0  0  0  0
  -16.6560  -23.6470   12.5920 C   0  0  1  0  0  0  0  0  0  0  0  0
  -17.9440  -23.5260   11.7450 C   0  0  0  0  0  1  0  0  0  0  0  0
  -16.9390  -23.0170   13.9750 C   0  0  0  0  0  1  0  0  0  0  0  0
  -15.5640  -22.7780   11.9240 C   0  0  0  0  0  1  0  0  0  0  0  0
  2  1  1  0
  2  3  1  0
  4  6  2  0
  5  4  1  0
  5  3  1  0
  7  5  1  0
  8  4  1  0
  9 10  1  0
 10 12  1  0
 10  8  1  0
 11  9  2  0
 13  9  1  0
 14 23  1  0
 14 13  1  0
 15 22  2  0
 15 23  1  0
 16 21  1  0
 17 16  1  0
 18 17  1  0
 19 18  1  0
 19 20  1  0
 20 21  1  0
 21 15  1  0
 23 24  1  0
 25 50  1  0
 26 25  2  0
 27 29  2  0
 27 26  1  0
 28 25  1  0
 28 19  1  0
 29 28  1  0
 30 27  1  0
 31 30  1  0
 32 31  2  0
 33 34  2  0
 33 32  1  0
 34 35  1  0
 35 30  2  0
 36 33  1  0
 37 38  1  0
 37 36  1  0
 39 38  2  0
 40 39  1  0
 41 40  2  0
 41 42  1  0
 42 37  2  0
 43 42  1  0
 44 40  1  0
 45 26  1  0
 45 47  2  0
 46 45  1  0
 48 46  1  0
 49 46  1  0
 50 51  1  0
 50 52  1  0
 53 54  1  0
 53  1  1  0
 55 54  1  0
 56 55  1  0
 57 58  1  0
 58 56  1  0
 58 60  1  0
 59 57  2  0
 61 57  1  0
 62 61  1  0
 63 73  1  0
 64 70  1  0
 64 62  1  0
 65 75  1  0
 65 72  1  0
 66 71  1  0
 67 68  1  0
 68 66  2  0
 68 69  1  0
 69 64  2  0
 71 70  2  0
 72 66  1  0
 73 65  1  0
 73 67  1  0
 74 63  2  0
 75 77  2  0
 76 75  1  0
 78 76  1  0
 79 83  1  0
 79 84  1  0
 80 81  1  0
 80 76  1  0
 82 81  1  0
 83 82  1  0
 84 80  1  0
 85 84  2  0
 86 85  1  0
 87 88  1  0
 87 86  2  0
 88 79  2  0
 89 63  1  0
 90 89  1  0
 91 90  1  0
 91 92  2  0
 93 90  1  0
 95 94  1  0
 95 91  1  0
 96 97  1  0
 97 95  1  0
 98 97  1  0
 99 89  1  0
 99101  1  1
100 99  1  0
102 99  1  0
M  ISO  4  15 100  23 100  61 101  62 101
M  END
>  <TORSDO>  (49) 
F 29

>  <SCORE>  (49) 
39.122

>  <name>  (49) 
48

>  <ligand_id>  (49) 
48

>  <original_smiles>  (49) 
[H]c1c([H])c([H])c2c(c1[H])C([H])([H])C([H])([H])C([H])([H])C2([H])N([H])C(=O)C1([H])N(C(=O)C([H])(N([H])C(=O)C([H])(N([H])C([H])([H])[H])C([H])([H])[H])C(C([H])([H])[H])(C([H])([H])[H])C([H])([H])[H])C([H])([H])c2c([H])c(OC([H])([H])C(=O)N([H])C([H])([H])C([H])([H])C([H])([H])C([H])([H])C([H])([H])C([H])([H])C([H])([H])N([H])C(=O)C([H])([H])N([H])C(=O)C([H])([H])C([H])([H])N([H])C(=O)N3C([H])([H])C([H])([H])C([H])([H])C([H])(n4nc(-c5c([H])c([H])c(Oc6c([H])c([H])c(F)c([H])c6F)c([H])c5[H])c(C(=O)N([H])[H])c4N([H])[H])C3([H])[H])c([H])c([H])c2C1([H])[H]

>  <smiles>  (49) 
[H]c1c([H])c([H])c2c(c1[H])C([H])([H])C([H])([H])C([H])([H])C2([H])N([H])C(=O)C1([H])N(C(=O)C([H])(N([H])C(=O)C([H])(N([H])C([H])([H])[H])C([H])([H])[H])C(C([H])([H])[H])(C([H])([H])[H])C([H])([H])[H])C([H])([H])c2c([H])c(OC([H])([H])C(=O)N([H])C([H])([H])C([H])([H])C([H])([H])C([H])([H])C([H])([H])C([H])([H])C([H])([H])N([H])C(=O)C([H])([H])N([H])C(=O)C([H])([H])C([H])([H])N([H])C(=O)N3C([H])([H])C([H])([H])C([H])([H])C([H])(n4nc(-c5c([H])c([H])c(Oc6c([H])c([H])c(F)c([H])c6F)c([H])c5[H])c(C(=O)N([H])[H])c4N([H])[H])C3([H])[H])c([H])c([H])c2C1([H])[H]

$$$$
49:0:0
     RDKit          3D

110114  0  0  1  0  0  0  0  0999 V2000
  -18.5400  -18.4890   24.4040 C   0  0  0  0  0  2  0  0  0  0  0  0
  -18.3100  -20.6520   23.1470 C   0  0  0  0  0  0  0  0  0  0  0  0
  -17.8930  -19.4140   23.4640 N   0  0  0  0  0  0  0  0  0  0  0  0
  -19.3650  -21.1190   23.5810 O   0  0  0  0  0  0  0  0  0  0  0  0
  -17.0220  -19.0940   23.0550 H   0  0  0  0  0  0  0  0  0  0  0  0
  -17.4010  -21.5000   22.2360 C   0  0  0  0  0  2  0  0  0  0  0  0
  -18.8120  -22.8940   20.7000 C   0  0  0  0  0  0  0  0  0  0  0  0
  -18.0170  -21.8430   20.9490 N   0  0  0  0  0  0  0  0  0  0  0  0
  -19.1720  -23.6800   21.5830 O   0  0  0  0  0  0  0  0  0  0  0  0
  -17.7820  -21.2470   20.1670 H   0  0  0  0  0  0  0  0  0  0  0  0
  -19.2210  -23.1150   19.2300 C   0  0  0  0  0  2  0  0  0  0  0  0
  -20.5340  -23.6700   19.1560 O   0  0  0  0  0  0  0  0  0  0  0  0
  -21.0580  -23.6990   17.8300 C   0  0  0  0  0  2  0  0  0  0  0  0
  -22.5720  -23.9820   17.8910 C   0  0  0  0  0  2  0  0  0  0  0  0
  -23.1310  -24.7270   16.6450 C   0  0  0  0  0  2  0  0  0  0  0  0
  -24.1160  -25.7130   16.9880 O   0  0  0  0  0  0  0  0  0  0  0  0
  -25.0550  -28.4990   23.4500 C   0  0  0  0  0  0  0  0  0  0  0  0
  -23.7460  -26.7240   17.8540 C   0  0  0  0  0  0  0  0  0  0  0  0
  -23.0990  -29.3470   22.1930 C   0  0  0  0  0  3  0  0  0  0  0  0
  -23.0180  -28.7180   19.7260 C   0  0  0  0  0  0  0  0  0  0  0  0
  -25.1740  -28.4950   20.9580 C   0  0  0  0  0  2  0  0  0  0  0  0
  -24.2570  -28.0770   19.8300 C   0  0  0  0  0  0  0  0  0  0  0  0
  -24.6260  -27.0790   18.9000 C   0  0  0  0  0  3  0  0  0  0  0  0
  -22.5100  -27.4060   17.7510 C   0  0  0  0  0  3  0  0  0  0  0  0
  -22.1420  -28.3910   18.6810 C   0  0  0  0  0  3  0  0  0  0  0  0
  -22.6850  -29.7650   20.7600 C   0  0  0  0  0  2  0  0  0  0  0  0
  -24.4710  -28.7410   22.2410 N   0  0  0  0  0  0  0  0  0  0  0  0
  -24.4900  -28.8150   24.5050 O   0  0  0  0  0  0  0  0  0  0  0  0
  -22.0010  -28.4230   22.7680 C   0  0  0  0  0  0  0  0  0  0  0  0
  -20.7460  -28.8990   22.7360 N   0  0  0  0  0  0  0  0  0  0  0  0
  -22.2780  -27.3000   23.2010 O   0  0  0  0  0  0  0  0  0  0  0  0
  -20.6060  -29.8360   22.3860 H   0  0  0  0  0  0  0  0  0  0  0  0
  -17.1360  -28.9490   22.6360 C   0  0  0  0  0  0  0  0  0  0  0  0
  -19.5460  -28.1940   23.1850 C   0  0  0  0  0  3  0  0  0  0  0  0
  -19.2540  -26.9690   22.2880 C   0  0  0  0  0  2  0  0  0  0  0  0
  -18.3000  -27.2820   21.1340 C   0  0  0  0  0  2  0  0  0  0  0  0
  -16.9580  -27.7890   21.6690 C   0  0  0  0  0  2  0  0  0  0  0  0
  -18.3570  -29.1470   23.3310 C   0  0  0  0  0  0  0  0  0  0  0  0
  -18.4840  -30.2610   24.1880 C   0  0  0  0  0  3  0  0  0  0  0  0
  -17.4170  -31.1620   24.3610 C   0  0  0  0  0  3  0  0  0  0  0  0
  -16.2050  -30.9540   23.6810 C   0  0  0  0  0  3  0  0  0  0  0  0
  -16.0650  -29.8470   22.8250 C   0  0  0  0  0  3  0  0  0  0  0  0
  -26.4650  -27.8410   23.5610 C   0  0  0  0  0  3  0  0  0  0  0  0
  -26.4070  -26.3040   23.9160 C   0  0  1  0  0  0  0  0  0  0  0  0
  -25.5770  -25.9890   25.1820 C   0  0  0  0  0  1  0  0  0  0  0  0
  -25.8090  -25.4940   22.7400 C   0  0  0  0  0  1  0  0  0  0  0  0
  -27.8410  -25.7670   24.1420 C   0  0  0  0  0  1  0  0  0  0  0  0
  -27.2190  -28.5860   24.5770 N   0  0  0  0  0  0  0  0  0  0  0  0
  -28.1080  -29.5520   24.3050 C   0  0  0  0  0  0  0  0  0  0  0  0
  -28.4330  -29.8610   23.1560 O   0  0  0  0  0  0  0  0  0  0  0  0
  -26.9650  -28.4250   25.5410 H   0  0  0  0  0  0  0  0  0  0  0  0
  -28.0280  -31.6390   25.7080 C   0  0  0  0  0  1  0  0  0  0  0  0
  -28.7410  -30.2920   25.5020 C   0  0  0  0  0  3  0  0  0  0  0  0
  -30.9790  -29.2860   25.4230 C   0  0  0  0  0  1  0  0  0  0  0  0
  -30.1960  -30.5160   25.3510 N   0  0  0  0  0  0  0  0  0  0  0  0
  -30.5410  -31.1540   26.0640 H   0  0  0  0  0  0  0  0  0  0  0  0
  -19.3800  -17.3970   23.7070 C   0  0  0  0  0  2  0  0  0  0  0  0
  -19.0530  -15.9620   24.1880 C   0  0  0  0  0  2  0  0  0  0  0  0
  -19.7250  -14.8880   23.3120 C   0  0  0  0  0  2  0  0  0  0  0  0
  -20.6210  -13.8970   24.0850 C   0  0  0  0  0  2  0  0  0  0  0  0
  -21.7550  -13.3080   23.2210 C   0  0  0  0  0  2  0  0  0  0  0  0
  -22.4700  -12.1160   23.8840 C   0  0  0  0  0  2  0  0  0  0  0  0
  -24.6890  -11.1930   23.0910 C   0  0  0  0  0  0  0  0  0  0  0  0
  -23.9130  -12.1270   23.6620 N   0  0  0  0  0  0  0  0  0  0  0  0
  -24.2540  -10.1390   22.6310 O   0  0  0  0  0  0  0  0  0  0  0  0
  -24.3920  -12.9350   24.0360 H   0  0  0  0  0  0  0  0  0  0  0  0
  -26.1870  -11.5140   23.1010 C   0  0  0  0  0  2  0  0  0  0  0  0
  -28.3420  -10.5360   22.3990 C   0  0  0  0  0  0  0  0  0  0  0  0
  -27.0510  -10.8080   22.1370 N   0  0  0  0  0  0  0  0  0  0  0  0
  -28.7820  -10.5380   23.5510 O   0  0  0  0  0  0  0  0  0  0  0  0
  -26.7400  -10.7720   21.1700 H   0  0  0  0  0  0  0  0  0  0  0  0
  -29.3240  -10.3270   21.2270 C   0  0  0  0  0  2  0  0  0  0  0  0
  -30.0350  -12.7360   19.8120 C   0  0  2  0  0  0  0  0  0  0  0  0
  -31.1850  -11.8150   19.1380 C   0  0  0  0  0  1  0  0  0  0  0  0
  -29.9830  -11.7070   17.6730 C   0  0  0  0  0  1  0  0  0  0  0  0
  -28.3040  -12.1770   17.8960 C   0  0  0  0  0  2  0  0  0  0  0  0
  -27.7470  -13.1470   19.2480 C   0  0  0  0  0  2  0  0  0  0  0  0
  -28.9120  -13.4540   20.7040 C   0  0  0  0  0  1  0  0  0  0  0  0
  -30.5520  -12.6840   20.6120 N   0  0  0  0  0  1  0  0  0  0  0  0
  -30.3850  -13.8630   19.0740 O   0  0  0  0  0  1  0  0  0  0  0  0
  -29.2470  -11.3270   20.1290 N   0  0  0  0  0  2  0  0  0  0  0  0
  -28.5520  -11.1090   19.4330 H   0  0  0  0  0  0  0  0  0  0  0  0
  -25.3120  -13.6220   19.8490 C   0  0  0  0  0  0  0  0  0  0  0  0
  -24.2110  -12.8590   20.1110 C   0  0  0  0  0  0  0  0  0  0  0  0
  -24.6320  -11.4940   20.0170 C   0  0  0  0  0  0  0  0  0  0  0  0
  -26.3640  -12.7550   19.6310 N   0  0  0  0  0  0  0  0  0  0  0  0
  -25.9570  -11.4500   19.7810 N   0  0  0  0  0  0  0  0  0  0  0  0
  -23.8140  -10.2600   20.1020 C   0  0  0  0  0  0  0  0  0  0  0  0
  -24.3200   -9.0610   20.6480 C   0  0  0  0  0  3  0  0  0  0  0  0
  -23.5040   -7.9140   20.7790 C   0  0  0  0  0  3  0  0  0  0  0  0
  -22.1560   -7.9440   20.3490 C   0  0  0  0  0  0  0  0  0  0  0  0
  -21.6570   -9.1300   19.7740 C   0  0  0  0  0  3  0  0  0  0  0  0
  -22.4730  -10.2700   19.6520 C   0  0  0  0  0  3  0  0  0  0  0  0
  -21.3010   -6.8660   20.4080 O   0  0  0  0  0  0  0  0  0  0  0  0
  -21.4650   -5.8560   21.3260 C   0  0  0  0  0  0  0  0  0  0  0  0
  -21.3890   -6.0980   22.7150 C   0  0  0  0  0  3  0  0  0  0  0  0
  -21.4720   -5.0240   23.6250 C   0  0  0  0  0  3  0  0  0  0  0  0
  -21.6350   -3.7090   23.1470 C   0  0  0  0  0  0  0  0  0  0  0  0
  -21.7210   -3.4690   21.7650 C   0  0  0  0  0  3  0  0  0  0  0  0
  -21.6220   -4.5380   20.8570 C   0  0  0  0  0  0  0  0  0  0  0  0
  -21.6690   -4.2940   19.5240 F   0  0  0  0  0  0  0  0  0  0  0  0
  -21.7330   -2.6770   24.0180 F   0  0  0  0  0  0  0  0  0  0  0  0
  -22.8210  -13.3810   20.3320 C   0  0  0  0  0  0  0  0  0  0  0  0
  -21.9440  -12.5730   20.9150 N   0  0  0  0  0  0  0  0  0  0  0  0
  -22.5130  -14.5340   20.0300 O   0  0  0  0  0  0  0  0  0  0  0  0
  -22.1850  -11.6260   21.1620 H   0  0  0  0  0  0  0  0  0  0  0  0
  -21.0090  -12.9020   21.0890 H   0  0  0  0  0  0  0  0  0  0  0  0
  -25.5100  -14.9940   19.7550 N   0  0  0  0  0  0  0  0  0  0  0  0
  -24.7310  -15.6450   19.8280 H   0  0  0  0  0  0  0  0  0  0  0  0
  -26.3880  -15.4500   19.5390 H   0  0  0  0  0  0  0  0  0  0  0  0
  2  3  1  0
  2  4  2  0
  3  1  1  0
  5  3  1  0
  6  2  1  0
  7  8  1  0
  7  9  2  0
  8  6  1  0
 10  8  1  0
 11  7  1  0
 12 11  1  0
 13 14  1  0
 13 12  1  0
 15 16  1  0
 15 14  1  0
 16 18  1  0
 17 28  2  0
 18 23  1  0
 19 27  1  0
 19 29  1  0
 20 22  1  0
 20 26  1  0
 21 27  1  0
 22 21  1  0
 23 22  2  0
 24 18  2  0
 24 25  1  0
 25 20  2  0
 26 19  1  0
 27 17  1  0
 29 31  2  0
 30 29  1  0
 32 30  1  0
 33 42  2  0
 33 38  1  0
 34 30  1  0
 34 38  1  0
 35 34  1  0
 36 37  1  0
 36 35  1  0
 37 33  1  0
 38 39  2  0
 39 40  1  0
 41 40  2  0
 42 41  1  0
 43 17  1  0
 43 44  1  0
 43 48  1  0
 44 47  1  1
 44 45  1  0
 46 44  1  0
 48 51  1  0
 49 48  1  0
 49 53  1  0
 50 49  2  0
 53 52  1  0
 55 54  1  0
 55 53  1  0
 55 56  1  0
 57 58  1  0
 57  1  1  0
 59 60  1  0
 59 58  1  0
 61 62  1  0
 61 60  1  0
 63 67  1  0
 63 64  1  0
 64 62  1  0
 64 66  1  0
 65 63  2  0
 68 70  2  0
 69 68  1  0
 69 67  1  0
 71 69  1  0
 72 68  1  0
 73 79  1  0
 73 78  1  1
 74 73  1  0
 75 76  1  0
 76 77  1  0
 77 86  1  0
 80 73  1  0
 81 72  1  0
 82 81  1  0
 83 84  2  0
 84103  1  0
 85 88  1  0
 85 84  1  0
 86 87  1  0
 86 83  1  0
 87 85  2  0
 88 89  1  0
 89 90  2  0
 91 94  1  0
 91 90  1  0
 92 91  2  0
 93 92  1  0
 93 88  2  0
 94 95  1  0
 95 96  1  0
 96 97  2  0
 98 97  1  0
 98102  1  0
 99 98  2  0
100 95  2  0
100 99  1  0
101100  1  0
103104  1  0
104107  1  0
104106  1  0
105103  2  0
108109  1  0
108 83  1  0
110108  1  0
M  ISO  4  15 101  16 101  73 100  81 100
M  END
>  <TORSDO>  (50) 
F 34

>  <SCORE>  (50) 
25.655

>  <name>  (50) 
49

>  <ligand_id>  (50) 
49

>  <original_smiles>  (50) 
[H]c1c([H])c([H])c2c(c1[H])C([H])([H])C([H])([H])C([H])([H])C2([H])N([H])C(=O)C1([H])N(C(=O)C([H])(N([H])C(=O)C([H])(N([H])C([H])([H])[H])C([H])([H])[H])C(C([H])([H])[H])(C([H])([H])[H])C([H])([H])[H])C([H])([H])c2c([H])c(OC([H])([H])C([H])([H])C([H])([H])OC([H])([H])C(=O)N([H])C([H])([H])C(=O)N([H])C([H])([H])C([H])([H])C([H])([H])C([H])([H])C([H])([H])C([H])([H])C([H])([H])N([H])C(=O)C([H])([H])N([H])C(=O)C([H])([H])N([H])C(=O)N3C([H])([H])C([H])([H])C([H])([H])C([H])(n4nc(-c5c([H])c([H])c(Oc6c([H])c([H])c(F)c([H])c6F)c([H])c5[H])c(C(=O)N([H])[H])c4N([H])[H])C3([H])[H])c([H])c([H])c2C1([H])[H]

>  <smiles>  (50) 
[H]c1c([H])c([H])c2c(c1[H])C([H])([H])C([H])([H])C([H])([H])C2([H])N([H])C(=O)C1([H])N(C(=O)C([H])(N([H])C(=O)C([H])(N([H])C([H])([H])[H])C([H])([H])[H])C(C([H])([H])[H])(C([H])([H])[H])C([H])([H])[H])C([H])([H])c2c([H])c(OC([H])([H])C([H])([H])C([H])([H])OC([H])([H])C(=O)N([H])C([H])([H])C(=O)N([H])C([H])([H])C([H])([H])C([H])([H])C([H])([H])C([H])([H])C([H])([H])C([H])([H])N([H])C(=O)C([H])([H])N([H])C(=O)C([H])([H])N([H])C(=O)N3C([H])([H])C([H])([H])C([H])([H])C([H])(n4nc(-c5c([H])c([H])c(Oc6c([H])c([H])c(F)c([H])c6F)c([H])c5[H])c(C(=O)N([H])[H])c4N([H])[H])C3([H])[H])c([H])c([H])c2C1([H])[H]

$$$$
50:0:0
     RDKit          3D

108112  0  0  1  0  0  0  0  0999 V2000
  -24.6840  -20.1000   18.2390 C   0  0  0  0  0  0  0  0  0  0  0  0
  -24.2900  -20.5820   17.0570 N   0  0  0  0  0  0  0  0  0  0  0  0
  -23.9640  -20.1250   19.2370 O   0  0  0  0  0  0  0  0  0  0  0  0
  -24.9440  -20.5000   16.2890 H   0  0  0  0  0  0  0  0  0  0  0  0
  -23.0230  -21.2580   16.7750 C   0  0  0  0  0  2  0  0  0  0  0  0
  -23.2040  -22.3970   15.7430 C   0  0  0  0  0  2  0  0  0  0  0  0
  -24.1200  -23.5300   16.2630 C   0  0  0  0  0  2  0  0  0  0  0  0
  -23.9030  -24.8160   15.6600 O   0  0  0  0  0  0  0  0  0  0  0  0
  -23.5540  -24.6740   14.2780 C   0  0  0  0  0  2  0  0  0  0  0  0
  -24.5410  -25.2810   13.2540 C   0  0  0  0  0  2  0  0  0  0  0  0
  -25.9840  -24.8450   13.6000 C   0  0  0  0  0  2  0  0  0  0  0  0
  -27.0900  -25.9180   13.4570 C   0  0  0  0  0  2  0  0  0  0  0  0
  -28.0000  -26.1280   14.6950 C   0  0  0  0  0  2  0  0  0  0  0  0
  -30.1360  -25.3040   15.6280 C   0  0  0  0  0  0  0  0  0  0  0  0
  -29.4030  -25.6940   14.5650 N   0  0  0  0  0  0  0  0  0  0  0  0
  -29.6880  -25.4230   16.7730 O   0  0  0  0  0  0  0  0  0  0  0  0
  -29.7980  -25.5610   13.6280 H   0  0  0  0  0  0  0  0  0  0  0  0
  -31.5430  -24.6900   15.4650 C   0  0  0  0  0  2  0  0  0  0  0  0
  -32.2310  -23.2020   12.9730 C   0  0  2  0  0  0  0  0  0  0  0  0
  -31.4520  -22.2470   13.9810 C   0  0  0  0  0  1  0  0  0  0  0  0
  -29.9180  -23.2590   13.4230 C   0  0  0  0  0  1  0  0  0  0  0  0
  -30.1750  -24.7180   12.4420 C   0  0  0  0  0  2  0  0  0  0  0  0
  -31.7330  -25.1930   11.7500 C   0  0  0  0  0  2  0  0  0  0  0  0
  -33.2700  -24.2110   12.1980 C   0  0  0  0  0  1  0  0  0  0  0  0
  -33.0520  -22.8430   13.3340 N   0  0  0  0  0  1  0  0  0  0  0  0
  -31.8180  -22.4950   11.8400 O   0  0  0  0  0  1  0  0  0  0  0  0
  -32.1530  -24.3730   14.1250 N   0  0  0  0  0  2  0  0  0  0  0  0
  -33.1250  -24.6170   14.2580 H   0  0  0  0  0  0  0  0  0  0  0  0
  -31.9360  -27.4240   10.5270 C   0  0  0  0  0  0  0  0  0  0  0  0
  -32.1620  -28.7230   10.9010 C   0  0  0  0  0  0  0  0  0  0  0  0
  -32.2770  -28.7090   12.3240 C   0  0  0  0  0  0  0  0  0  0  0  0
  -31.9420  -26.6610   11.6800 N   0  0  0  0  0  0  0  0  0  0  0  0
  -32.1900  -27.4450   12.7740 N   0  0  0  0  0  0  0  0  0  0  0  0
  -32.4340  -29.8450   13.2620 C   0  0  0  0  0  0  0  0  0  0  0  0
  -33.4590  -29.8730   14.2360 C   0  0  0  0  0  3  0  0  0  0  0  0
  -33.6040  -30.9820   15.1030 C   0  0  0  0  0  3  0  0  0  0  0  0
  -32.7230  -32.0840   15.0150 C   0  0  0  0  0  0  0  0  0  0  0  0
  -31.6930  -32.0480   14.0560 C   0  0  0  0  0  3  0  0  0  0  0  0
  -31.5560  -30.9490   13.1870 C   0  0  0  0  0  3  0  0  0  0  0  0
  -32.7720  -33.1880   15.8390 O   0  0  0  0  0  0  0  0  0  0  0  0
  -33.9330  -33.5800   16.4590 C   0  0  0  0  0  0  0  0  0  0  0  0
  -35.1010  -33.8760   15.7250 C   0  0  0  0  0  3  0  0  0  0  0  0
  -36.2500  -34.3510   16.3860 C   0  0  0  0  0  3  0  0  0  0  0  0
  -36.2350  -34.5390   17.7790 C   0  0  0  0  0  0  0  0  0  0  0  0
  -35.0740  -34.2510   18.5160 C   0  0  0  0  0  3  0  0  0  0  0  0
  -33.9230  -33.7770   17.8580 C   0  0  0  0  0  0  0  0  0  0  0  0
  -32.8000  -33.5250   18.5710 F   0  0  0  0  0  0  0  0  0  0  0  0
  -37.3420  -34.9940   18.4140 F   0  0  0  0  0  0  0  0  0  0  0  0
  -32.1940  -29.9120    9.9850 C   0  0  0  0  0  0  0  0  0  0  0  0
  -33.0270  -30.9060   10.2770 N   0  0  0  0  0  0  0  0  0  0  0  0
  -31.5360  -29.9400    8.9490 O   0  0  0  0  0  0  0  0  0  0  0  0
  -33.5980  -30.8790   11.1050 H   0  0  0  0  0  0  0  0  0  0  0  0
  -33.1080  -31.6880    9.6460 H   0  0  0  0  0  0  0  0  0  0  0  0
  -31.7400  -26.8110    9.2970 N   0  0  0  0  0  0  0  0  0  0  0  0
  -31.8950  -27.2940    8.4210 H   0  0  0  0  0  0  0  0  0  0  0  0
  -31.7370  -25.8020    9.1930 H   0  0  0  0  0  0  0  0  0  0  0  0
  -26.1100  -19.5360   18.3180 C   0  0  0  0  0  2  0  0  0  0  0  0
  -27.0930  -20.5600   18.9160 C   0  0  0  0  0  2  0  0  0  0  0  0
  -28.5040  -20.5460   18.2930 C   0  0  0  0  0  2  0  0  0  0  0  0
  -29.4080  -21.5890   18.9810 C   0  0  0  0  0  2  0  0  0  0  0  0
  -30.9190  -21.4460   18.7180 C   0  0  0  0  0  2  0  0  0  0  0  0
  -31.1700  -19.0370   18.1050 C   0  0  0  0  0  0  0  0  0  0  0  0
  -31.1860  -20.3390   17.8070 N   0  0  0  0  0  0  0  0  0  0  0  0
  -30.8040  -18.6110   19.2010 O   0  0  0  0  0  0  0  0  0  0  0  0
  -31.4760  -20.5960   16.8750 H   0  0  0  0  0  0  0  0  0  0  0  0
  -31.7190  -18.0830   17.0400 C   0  0  0  0  0  2  0  0  0  0  0  0
  -32.1050  -18.7660   15.7100 C   0  0  0  0  0  2  0  0  0  0  0  0
  -33.3760  -18.3050   15.2450 O   0  0  0  0  0  0  0  0  0  0  0  0
  -38.0740  -21.6260   10.9930 C   0  0  0  0  0  0  0  0  0  0  0  0
  -34.2930  -19.3080   15.0590 C   0  0  0  0  0  0  0  0  0  0  0  0
  -38.0360  -22.3350   13.3620 C   0  0  0  0  0  3  0  0  0  0  0  0
  -36.0950  -21.4460   14.7580 C   0  0  0  0  0  0  0  0  0  0  0  0
  -35.9420  -21.3610   12.2620 C   0  0  0  0  0  2  0  0  0  0  0  0
  -35.5450  -20.8320   13.6240 C   0  0  0  0  0  0  0  0  0  0  0  0
  -34.6400  -19.7590   13.7680 C   0  0  0  0  0  3  0  0  0  0  0  0
  -34.8730  -19.9080   16.1920 C   0  0  0  0  0  3  0  0  0  0  0  0
  -35.7630  -20.9890   16.0450 C   0  0  0  0  0  3  0  0  0  0  0  0
  -37.0380  -22.6020   14.5230 C   0  0  0  0  0  2  0  0  0  0  0  0
  -37.3720  -21.7400   12.1580 N   0  0  0  0  0  0  0  0  0  0  0  0
  -39.2360  -22.0450   10.9020 O   0  0  0  0  0  0  0  0  0  0  0  0
  -39.2050  -21.4840   13.9040 C   0  0  0  0  0  0  0  0  0  0  0  0
  -40.1460  -22.1360   14.6060 N   0  0  0  0  0  0  0  0  0  0  0  0
  -39.2320  -20.2640   13.7230 O   0  0  0  0  0  0  0  0  0  0  0  0
  -40.0470  -23.1360   14.7110 H   0  0  0  0  0  0  0  0  0  0  0  0
  -43.1470  -22.8800   16.4790 C   0  0  0  0  0  0  0  0  0  0  0  0
  -41.3170  -21.5340   15.2450 C   0  0  0  0  0  3  0  0  0  0  0  0
  -40.9510  -20.9540   16.6310 C   0  0  0  0  0  2  0  0  0  0  0  0
  -41.1930  -21.9380   17.7790 C   0  0  0  0  0  2  0  0  0  0  0  0
  -42.6630  -22.3660   17.8230 C   0  0  0  0  0  2  0  0  0  0  0  0
  -42.5070  -22.5020   15.2690 C   0  0  0  0  0  0  0  0  0  0  0  0
  -42.9760  -23.0360   14.0500 C   0  0  0  0  0  3  0  0  0  0  0  0
  -44.0650  -23.9280   14.0270 C   0  0  0  0  0  3  0  0  0  0  0  0
  -44.7040  -24.2870   15.2260 C   0  0  0  0  0  3  0  0  0  0  0  0
  -44.2500  -23.7590   16.4460 C   0  0  0  0  0  3  0  0  0  0  0  0
  -37.4440  -20.9860    9.7180 C   0  0  0  0  0  3  0  0  0  0  0  0
  -37.7530  -19.4450    9.5790 C   0  0  1  0  0  0  0  0  0  0  0  0
  -39.2560  -19.0960    9.7070 C   0  0  0  0  0  1  0  0  0  0  0  0
  -36.9910  -18.6370   10.6550 C   0  0  0  0  0  1  0  0  0  0  0  0
  -37.2540  -18.9300    8.2080 C   0  0  0  0  0  1  0  0  0  0  0  0
  -37.9510  -21.7250    8.5540 N   0  0  0  0  0  0  0  0  0  0  0  0
  -37.3020  -22.7270    7.9480 C   0  0  0  0  0  0  0  0  0  0  0  0
  -36.1640  -23.0830    8.2740 O   0  0  0  0  0  0  0  0  0  0  0  0
  -38.9010  -21.5270    8.2740 H   0  0  0  0  0  0  0  0  0  0  0  0
  -38.6680  -24.7460    7.3270 C   0  0  0  0  0  1  0  0  0  0  0  0
  -38.0240  -23.4540    6.7990 C   0  0  0  0  0  3  0  0  0  0  0  0
  -36.6580  -22.5840    4.9520 C   0  0  0  0  0  1  0  0  0  0  0  0
  -37.1420  -23.7700    5.6550 N   0  0  0  0  0  0  0  0  0  0  0  0
  -37.6210  -24.3630    4.9820 H   0  0  0  0  0  0  0  0  0  0  0  0
  1 57  1  0
  1  3  2  0
  2  1  1  0
  4  2  1  0
  5  2  1  0
  6  7  1  0
  6  5  1  0
  8  7  1  0
  9  8  1  0
 10 11  1  0
 10  9  1  0
 12 11  1  0
 12 13  1  0
 14 16  2  0
 15 13  1  0
 15 14  1  0
 17 15  1  0
 18 14  1  0
 19 25  1  0
 19 20  1  1
 22 21  1  0
 23 22  1  0
 24 19  1  0
 26 19  1  0
 27 28  1  0
 27 18  1  0
 29 30  2  0
 29 32  1  0
 30 31  1  0
 31 33  2  0
 31 34  1  0
 32 23  1  0
 32 33  1  0
 34 35  1  0
 35 36  2  0
 37 36  1  0
 37 40  1  0
 38 37  2  0
 39 34  2  0
 39 38  1  0
 40 41  1  0
 41 46  1  0
 42 43  1  0
 42 41  2  0
 43 44  2  0
 44 48  1  0
 44 45  1  0
 46 45  2  0
 46 47  1  0
 49 50  1  0
 49 30  1  0
 50 52  1  0
 51 49  2  0
 53 50  1  0
 54 29  1  0
 55 54  1  0
 56 54  1  0
 57 58  1  0
 59 58  1  0
 59 60  1  0
 61 60  1  0
 62 64  2  0
 63 62  1  0
 63 61  1  0
 65 63  1  0
 66 62  1  0
 67 66  1  0
 68 67  1  0
 69 79  1  0
 70 68  1  0
 70 76  1  0
 71 81  1  0
 71 78  1  0
 72 77  1  0
 73 74  1  0
 74 75  1  0
 74 72  2  0
 75 70  2  0
 77 76  2  0
 78 72  1  0
 79 73  1  0
 79 71  1  0
 80 69  2  0
 81 82  1  0
 82 84  1  0
 83 81  2  0
 85 89  1  0
 86 82  1  0
 86 90  1  0
 86 87  1  0
 87 88  1  0
 88 89  1  0
 90 85  2  0
 91 90  1  0
 92 91  2  0
 92 93  1  0
 93 94  2  0
 94 85  1  0
 95 69  1  0
 96 97  1  6
 96 95  1  0
 96 98  1  0
 99 96  1  0
100 95  1  0
101102  2  0
101100  1  0
103100  1  0
105104  1  0
105101  1  0
106107  1  0
107105  1  0
108107  1  0
M  ISO  4  19 100  27 100  67 101  68 101
M  END
>  <TORSDO>  (51) 
F 35

>  <SCORE>  (51) 
-0.080

>  <name>  (51) 
50

>  <ligand_id>  (51) 
50

>  <original_smiles>  (51) 
[H]c1c([H])c([H])c2c(c1[H])C([H])([H])C([H])([H])C([H])([H])C2([H])N([H])C(=O)C1([H])N(C(=O)C([H])(N([H])C(=O)C([H])(N([H])C([H])([H])[H])C([H])([H])[H])C(C([H])([H])[H])(C([H])([H])[H])C([H])([H])[H])C([H])([H])c2c([H])c(OC([H])([H])C([H])([H])C(=O)N([H])C([H])([H])C([H])([H])C([H])([H])C([H])([H])C([H])([H])C(=O)N([H])C([H])([H])C([H])([H])C([H])([H])OC([H])([H])C([H])([H])C([H])([H])C([H])([H])C([H])([H])N([H])C(=O)C([H])([H])N([H])C(=O)N3C([H])([H])C([H])([H])C([H])([H])C([H])(n4nc(-c5c([H])c([H])c(Oc6c([H])c([H])c(F)c([H])c6F)c([H])c5[H])c(C(=O)N([H])[H])c4N([H])[H])C3([H])[H])c([H])c([H])c2C1([H])[H]

>  <smiles>  (51) 
[H]c1c([H])c([H])c2c(c1[H])C([H])([H])C([H])([H])C([H])([H])C2([H])N([H])C(=O)C1([H])N(C(=O)C([H])(N([H])C(=O)C([H])(N([H])C([H])([H])[H])C([H])([H])[H])C(C([H])([H])[H])(C([H])([H])[H])C([H])([H])[H])C([H])([H])c2c([H])c(OC([H])([H])C([H])([H])C(=O)N([H])C([H])([H])C([H])([H])C([H])([H])C([H])([H])C([H])([H])C(=O)N([H])C([H])([H])C([H])([H])C([H])([H])OC([H])([H])C([H])([H])C([H])([H])C([H])([H])C([H])([H])N([H])C(=O)C([H])([H])N([H])C(=O)N3C([H])([H])C([H])([H])C([H])([H])C([H])(n4nc(-c5c([H])c([H])c(Oc6c([H])c([H])c(F)c([H])c6F)c([H])c5[H])c(C(=O)N([H])[H])c4N([H])[H])C3([H])[H])c([H])c([H])c2C1([H])[H]

$$$$
51:0:0
     RDKit          3D

109116  0  0  1  0  0  0  0  0999 V2000
  -23.1860  -22.3920   20.2870 C   0  0  0  0  0  2  0  0  0  0  0  0
  -24.4010  -21.4690   20.0620 C   0  0  0  0  0  2  0  0  0  0  0  0
  -24.5700  -21.0790   18.5840 C   0  0  0  0  0  2  0  0  0  0  0  0
  -25.7230  -20.0910   18.3270 C   0  0  0  0  0  2  0  0  0  0  0  0
  -27.8250  -21.3990   18.0280 C   0  0  0  0  0  0  0  0  0  0  0  0
  -27.0170  -20.6170   18.7540 N   0  0  0  0  0  0  0  0  0  0  0  0
  -27.5320  -21.7910   16.8960 O   0  0  0  0  0  0  0  0  0  0  0  0
  -27.3440  -20.3300   19.6670 H   0  0  0  0  0  0  0  0  0  0  0  0
  -29.1710  -21.7590   18.6680 C   0  0  0  0  0  2  0  0  0  0  0  0
  -29.9250  -22.9390   18.0170 C   0  0  0  0  0  2  0  0  0  0  0  0
  -29.3140  -24.3240   18.3020 C   0  0  0  0  0  2  0  0  0  0  0  0
  -30.2130  -25.4650   17.7910 C   0  0  0  0  0  2  0  0  0  0  0  0
  -29.6500  -26.8860   17.9970 C   0  0  0  0  0  2  0  0  0  0  0  0
  -29.5380  -27.3300   19.4650 C   0  0  0  0  0  2  0  0  0  0  0  0
  -28.3930  -26.7260   20.0590 O   0  0  0  0  0  0  0  0  0  0  0  0
  -24.6090  -31.8700   23.2120 C   0  0  0  0  0  0  0  0  0  0  0  0
  -27.2490  -27.4840   20.0840 C   0  0  0  0  0  0  0  0  0  0  0  0
  -23.3950  -30.4910   21.5500 C   0  0  0  0  0  3  0  0  0  0  0  0
  -24.8460  -28.9610   20.1150 C   0  0  0  0  0  0  0  0  0  0  0  0
  -25.9180  -30.8510   21.3570 C   0  0  0  0  0  2  0  0  0  0  0  0
  -26.0000  -29.4880   20.7070 C   0  0  0  0  0  0  0  0  0  0  0  0
  -27.2040  -28.7550   20.6970 C   0  0  0  0  0  3  0  0  0  0  0  0
  -26.0780  -26.9500   19.5140 C   0  0  0  0  0  3  0  0  0  0  0  0
  -24.8760  -27.6860   19.5190 C   0  0  0  0  0  3  0  0  0  0  0  0
  -23.6020  -29.8180   20.1660 C   0  0  0  0  0  2  0  0  0  0  0  0
  -24.6580  -31.0840   22.0990 N   0  0  0  0  0  0  0  0  0  0  0  0
  -23.5300  -32.1430   23.7550 O   0  0  0  0  0  0  0  0  0  0  0  0
  -22.7380  -29.4660   22.5020 C   0  0  0  0  0  0  0  0  0  0  0  0
  -21.4120  -29.3010   22.3740 N   0  0  0  0  0  0  0  0  0  0  0  0
  -23.4170  -28.8250   23.3080 O   0  0  0  0  0  0  0  0  0  0  0  0
  -20.9270  -29.8720   21.6970 H   0  0  0  0  0  0  0  0  0  0  0  0
  -18.0250  -28.1370   22.8490 C   0  0  0  0  0  0  0  0  0  0  0  0
  -20.5850  -28.3630   23.1340 C   0  0  0  0  0  3  0  0  0  0  0  0
  -20.6740  -26.9370   22.5440 C   0  0  0  0  0  2  0  0  0  0  0  0
  -19.5740  -26.6370   21.5220 C   0  0  0  0  0  2  0  0  0  0  0  0
  -18.1900  -26.7930   22.1600 C   0  0  0  0  0  2  0  0  0  0  0  0
  -19.1510  -28.8820   23.2910 C   0  0  0  0  0  0  0  0  0  0  0  0
  -18.9450  -30.1420   23.8940 C   0  0  0  0  0  3  0  0  0  0  0  0
  -17.6460  -30.6590   24.0570 C   0  0  0  0  0  3  0  0  0  0  0  0
  -16.5350  -29.9100   23.6330 C   0  0  0  0  0  3  0  0  0  0  0  0
  -16.7250  -28.6510   23.0350 C   0  0  0  0  0  3  0  0  0  0  0  0
  -25.9000  -32.4830   23.8400 C   0  0  0  0  0  3  0  0  0  0  0  0
  -25.5860  -33.8630   24.2330 N   0  0  0  0  0  0  0  0  0  0  0  0
  -25.9020  -34.9480   23.5140 C   0  0  0  0  0  0  0  0  0  0  0  0
  -26.5600  -34.8930   22.4710 O   0  0  0  0  0  0  0  0  0  0  0  0
  -25.0010  -33.9800   25.0470 H   0  0  0  0  0  0  0  0  0  0  0  0
  -24.1460  -36.7280   23.2650 C   0  0  0  0  0  1  0  0  0  0  0  0
  -25.4090  -36.3110   24.0350 C   0  0  0  0  0  3  0  0  0  0  0  0
  -27.5570  -37.1790   24.8470 C   0  0  0  0  0  1  0  0  0  0  0  0
  -26.4270  -37.3800   23.9430 N   0  0  0  0  0  0  0  0  0  0  0  0
  -26.0150  -38.2870   24.1490 H   0  0  0  0  0  0  0  0  0  0  0  0
  -26.4440  -31.6600   25.0720 C   0  0  1  0  0  0  0  0  0  0  0  0
  -25.3720  -31.3740   26.1500 C   0  0  0  0  0  1  0  0  0  0  0  0
  -27.0220  -30.3030   24.6080 C   0  0  0  0  0  1  0  0  0  0  0  0
  -27.6050  -32.4300   25.7450 C   0  0  0  0  0  1  0  0  0  0  0  0
  -22.9920  -22.8350   21.7530 C   0  0  0  0  0  2  0  0  0  0  0  0
  -24.1280  -23.7220   22.2700 C   0  0  0  0  0  0  0  0  0  0  0  0
  -24.6790  -23.3780   23.4390 N   0  0  0  0  0  0  0  0  0  0  0  0
  -24.5160  -24.6840   21.6070 O   0  0  0  0  0  0  0  0  0  0  0  0
  -24.2770  -22.5920   23.9330 H   0  0  0  0  0  0  0  0  0  0  0  0
  -25.8660  -23.9910   24.0280 C   0  0  0  0  0  2  0  0  0  0  0  0
  -27.1630  -23.3550   23.4920 C   0  0  0  0  0  2  0  0  0  0  0  0
  -27.2460  -21.8320   23.7160 C   0  0  0  0  0  2  0  0  0  0  0  0
  -28.5650  -21.2250   23.2110 C   0  0  0  0  0  2  0  0  0  0  0  0
  -28.6310  -19.7000   23.4200 C   0  0  0  0  0  2  0  0  0  0  0  0
  -29.8830  -19.1240   22.8880 N   0  0  0  0  0  4  0  0  0  0  0  0
  -30.6610  -19.5620   23.3550 H   0  0  0  0  0  0  0  0  0  0  0  0
  -29.9510  -19.3390   21.9060 H   0  0  0  0  0  0  0  0  0  0  0  0
  -29.9970  -17.6600   23.0570 C   0  0  0  0  0  2  0  0  0  0  0  0
  -31.3260  -17.1260   22.4910 C   0  0  0  0  0  2  0  0  0  0  0  0
  -31.5530  -15.6220   22.7310 C   0  0  0  0  0  2  0  0  0  0  0  0
  -30.8240  -14.2860   20.7570 C   0  0  0  0  0  0  0  0  0  0  0  0
  -30.4090  -12.2910   19.3710 C   0  0  0  0  0  2  0  0  0  0  0  0
  -29.4700  -12.5380   18.1790 C   0  0  0  0  0  2  0  0  0  0  0  0
  -28.0010  -12.3790   18.6060 C   0  0  0  0  0  2  0  0  0  0  0  0
  -27.6640  -13.2030   19.8750 C   0  0  0  0  0  3  0  0  0  0  0  0
  -28.7010  -12.9520   20.9910 C   0  0  0  0  0  2  0  0  0  0  0  0
  -30.0520  -13.2130   20.4570 N   0  0  0  0  0  0  0  0  0  0  0  0
  -31.7580  -14.6790   20.0520 O   0  0  0  0  0  0  0  0  0  0  0  0
  -30.6250  -14.7670   21.9910 N   0  0  0  0  0  0  0  0  0  0  0  0
  -29.8790  -14.3310   22.5150 H   0  0  0  0  0  0  0  0  0  0  0  0
  -25.2600  -13.8150   20.5680 C   0  0  0  0  0  0  0  0  0  0  0  0
  -24.1840  -13.0440   20.9160 C   0  0  0  0  0  0  0  0  0  0  0  0
  -24.6380  -11.6900   20.8710 C   0  0  0  0  0  0  0  0  0  0  0  0
  -26.3030  -12.9320   20.3370 N   0  0  0  0  0  0  0  0  0  0  0  0
  -25.9310  -11.6480   20.5740 N   0  0  0  0  0  0  0  0  0  0  0  0
  -23.9050  -10.4290   21.0390 C   0  0  0  0  0  0  0  0  0  0  0  0
  -24.3600   -9.4210   21.9180 C   0  0  0  0  0  3  0  0  0  0  0  0
  -23.6280   -8.2250   22.0760 C   0  0  0  0  0  3  0  0  0  0  0  0
  -22.4270   -8.0280   21.3540 C   0  0  0  0  0  0  0  0  0  0  0  0
  -21.9900   -9.0250   20.4650 C   0  0  0  0  0  3  0  0  0  0  0  0
  -22.7220  -10.2130   20.3050 C   0  0  0  0  0  3  0  0  0  0  0  0
  -21.6640   -6.8870   21.4240 O   0  0  0  0  0  0  0  0  0  0  0  0
  -21.6850   -6.0730   22.5280 C   0  0  0  0  0  0  0  0  0  0  0  0
  -21.4000   -6.5640   23.8210 C   0  0  0  0  0  3  0  0  0  0  0  0
  -21.3650   -5.6790   24.9170 C   0  0  0  0  0  3  0  0  0  0  0  0
  -21.6040   -4.3050   24.7220 C   0  0  0  0  0  0  0  0  0  0  0  0
  -21.8820   -3.8140   23.4340 C   0  0  0  0  0  3  0  0  0  0  0  0
  -21.9200   -4.6960   22.3400 C   0  0  0  0  0  0  0  0  0  0  0  0
  -22.1670   -4.2150   21.0980 F   0  0  0  0  0  0  0  0  0  0  0  0
  -21.5630   -3.4540   25.7730 F   0  0  0  0  0  0  0  0  0  0  0  0
  -22.7870  -13.5250   21.1840 C   0  0  0  0  0  0  0  0  0  0  0  0
  -22.0500  -12.8230   22.0390 N   0  0  0  0  0  0  0  0  0  0  0  0
  -22.3550  -14.5560   20.6710 O   0  0  0  0  0  0  0  0  0  0  0  0
  -22.4120  -11.9880   22.4750 H   0  0  0  0  0  0  0  0  0  0  0  0
  -21.1120  -13.1260   22.2600 H   0  0  0  0  0  0  0  0  0  0  0  0
  -25.4340  -15.1870   20.4100 N   0  0  0  0  0  0  0  0  0  0  0  0
  -24.6720  -15.8460   20.5210 H   0  0  0  0  0  0  0  0  0  0  0  0
  -26.2970  -15.6240   20.1100 H   0  0  0  0  0  0  0  0  0  0  0  0
  1 56  1  0
  2  1  1  0
  3  2  1  0
  4  3  1  0
  4  6  1  0
  5  9  1  0
  5  6  1  0
  6  8  1  0
  7  5  2  0
 10 11  1  0
 10  9  1  0
 12 13  1  0
 12 11  1  0
 13 14  1  0
 14 15  1  0
 15 17  1  0
 16 27  2  0
 17 22  1  0
 18 26  1  0
 18 28  1  0
 19 25  1  0
 19 21  1  0
 20 26  1  0
 21 20  1  0
 22 21  2  0
 23 24  1  0
 23 17  2  0
 24 19  2  0
 25 18  1  0
 26 16  1  0
 28 30  2  0
 29 28  1  0
 31 29  1  0
 32 41  2  0
 32 37  1  0
 33 29  1  0
 33 37  1  0
 34 33  1  0
 35 36  1  0
 35 34  1  0
 36 32  1  0
 37 38  2  0
 38 39  1  0
 40 39  2  0
 41 40  1  0
 42 16  1  0
 42 43  1  0
 42 52  1  0
 43 46  1  0
 44 48  1  0
 44 43  1  0
 45 44  2  0
 48 47  1  0
 50 48  1  0
 50 51  1  0
 50 49  1  0
 52 55  1  1
 52 53  1  0
 54 52  1  0
 56 57  1  0
 57 58  1  0
 58 60  1  0
 58 61  1  0
 59 57  2  0
 62 63  1  0
 62 61  1  0
 64 65  1  0
 64 63  1  0
 66 69  1  0
 66 67  1  0
 66 65  1  0
 68 66  1  0
 70 71  1  0
 70 69  1  0
 72 80  1  0
 73 78  1  0
 74 75  1  0
 74 73  1  0
 76 75  1  0
 76 85  1  0
 76 77  1  0
 78 72  1  0
 78 77  1  0
 79 72  2  0
 80 81  1  0
 80 71  1  0
 82 83  2  0
 83102  1  0
 84 83  1  0
 84 87  1  0
 85 82  1  0
 85 86  1  0
 86 84  2  0
 87 88  1  0
 88 89  2  0
 90 93  1  0
 90 89  1  0
 91 90  2  0
 92 91  1  0
 92 87  2  0
 93 94  1  0
 94 95  1  0
 95 96  2  0
 97 96  1  0
 97101  1  0
 98 97  2  0
 99 94  2  0
 99 98  1  0
100 99  1  0
102103  1  0
103106  1  0
103105  1  0
104102  2  0
107108  1  0
107 82  1  0
109107  1  0
M  ISO  4  14 101  15 101  72 100  80 100
M  END
>  <TORSDO>  (52) 
F 37

>  <SCORE>  (52) 
10.100

>  <name>  (52) 
51

>  <ligand_id>  (52) 
51

>  <original_smiles>  (52) 
[H]c1c([H])c([H])c2c(c1[H])C([H])([H])C([H])([H])C([H])([H])C2([H])N([H])C(=O)C1([H])N(C(=O)C([H])(N([H])C(=O)C([H])(N([H])C([H])([H])[H])C([H])([H])[H])C(C([H])([H])[H])(C([H])([H])[H])C([H])([H])[H])C([H])([H])c2c([H])c(OC([H])([H])C([H])([H])C([H])([H])C([H])([H])C([H])([H])C([H])([H])C(=O)N([H])C([H])([H])C([H])([H])C([H])([H])C([H])([H])C([H])([H])C(=O)N([H])C([H])([H])C([H])([H])C([H])([H])C([H])([H])C([H])([H])[N+]([H])([H])C([H])([H])C([H])([H])C([H])([H])N([H])C(=O)N3C([H])([H])C([H])([H])C([H])([H])C([H])(n4nc(-c5c([H])c([H])c(Oc6c([H])c([H])c(F)c([H])c6F)c([H])c5[H])c(C(=O)N([H])[H])c4N([H])[H])C3([H])[H])c([H])c([H])c2C1([H])[H]

>  <smiles>  (52) 
[H]c1c([H])c([H])c2c(c1[H])C([H])([H])C([H])([H])C([H])([H])C2([H])N([H])C(=O)C1([H])N(C(=O)C([H])(N([H])C(=O)C([H])(N([H])C([H])([H])[H])C([H])([H])[H])C(C([H])([H])[H])(C([H])([H])[H])C([H])([H])[H])C([H])([H])c2c([H])c(OC([H])([H])C([H])([H])C([H])([H])C([H])([H])C([H])([H])C([H])([H])C(=O)N([H])C([H])([H])C([H])([H])C([H])([H])C([H])([H])C([H])([H])C(=O)N([H])C([H])([H])C([H])([H])C([H])([H])C([H])([H])C([H])([H])[N+]([H])([H])C([H])([H])C([H])([H])C([H])([H])N([H])C(=O)N3C([H])([H])C([H])([H])C([H])([H])C([H])(n4nc(-c5c([H])c([H])c(Oc6c([H])c([H])c(F)c([H])c6F)c([H])c5[H])c(C(=O)N([H])[H])c4N([H])[H])C3([H])[H])c([H])c([H])c2C1([H])[H]

$$$$
52:0:0
     RDKit          3D

107114  0  0  1  0  0  0  0  0999 V2000
  -21.3300  -23.0590   16.6420 N   0  0  0  0  0  0  0  0  0  0  0  0
  -20.4580  -22.5460   16.7860 H   0  0  0  0  0  0  0  0  0  0  0  0
  -21.0940  -24.4910   16.7930 C   0  0  0  0  0  2  0  0  0  0  0  0
  -20.5760  -24.8750   18.1870 C   0  0  0  0  0  2  0  0  0  0  0  0
  -21.3710  -24.3750   19.4110 C   0  0  0  0  0  2  0  0  0  0  0  0
  -22.8800  -24.1620   19.1970 C   0  0  0  0  0  2  0  0  0  0  0  0
  -23.6410  -24.0160   20.5230 C   0  0  0  0  0  2  0  0  0  0  0  0
  -25.0980  -23.5360   20.3320 C   0  0  0  0  0  2  0  0  0  0  0  0
  -26.0350  -24.2240   21.2510 N   0  0  0  0  0  4  0  0  0  0  0  0
  -25.7950  -25.2040   21.2080 H   0  0  0  0  0  0  0  0  0  0  0  0
  -25.8940  -23.9230   22.2030 H   0  0  0  0  0  0  0  0  0  0  0  0
  -27.4680  -24.1440   20.8660 C   0  0  0  0  0  2  0  0  0  0  0  0
  -28.2540  -25.4230   21.2510 C   0  0  0  0  0  2  0  0  0  0  0  0
  -28.2670  -26.4380   20.2360 O   0  0  0  0  0  0  0  0  0  0  0  0
  -24.4640  -31.6590   23.2290 C   0  0  0  0  0  0  0  0  0  0  0  0
  -27.1440  -27.2200   20.2040 C   0  0  0  0  0  0  0  0  0  0  0  0
  -23.2930  -30.2830   21.5390 C   0  0  0  0  0  3  0  0  0  0  0  0
  -24.7740  -28.7420   20.1590 C   0  0  0  0  0  0  0  0  0  0  0  0
  -25.8300  -30.6150   21.4320 C   0  0  0  0  0  2  0  0  0  0  0  0
  -25.9170  -29.2430   20.7990 C   0  0  0  0  0  0  0  0  0  0  0  0
  -27.1050  -28.4790   20.8400 C   0  0  0  0  0  3  0  0  0  0  0  0
  -26.0130  -26.7740   19.4940 C   0  0  0  0  0  3  0  0  0  0  0  0
  -24.8130  -27.5010   19.5090 C   0  0  0  0  0  3  0  0  0  0  0  0
  -23.5440  -29.6150   20.1640 C   0  0  0  0  0  2  0  0  0  0  0  0
  -24.5440  -30.8630   22.1270 N   0  0  0  0  0  0  0  0  0  0  0  0
  -23.3700  -31.9460   23.7320 O   0  0  0  0  0  0  0  0  0  0  0  0
  -22.5930  -29.2610   22.4670 C   0  0  0  0  0  0  0  0  0  0  0  0
  -21.2720  -29.1040   22.2880 N   0  0  0  0  0  0  0  0  0  0  0  0
  -23.2380  -28.6150   23.2960 O   0  0  0  0  0  0  0  0  0  0  0  0
  -20.8170  -29.6780   21.5930 H   0  0  0  0  0  0  0  0  0  0  0  0
  -17.8450  -28.0120   22.6780 C   0  0  0  0  0  0  0  0  0  0  0  0
  -20.4040  -28.1840   23.0240 C   0  0  0  0  0  3  0  0  0  0  0  0
  -20.4780  -26.7540   22.4440 C   0  0  0  0  0  2  0  0  0  0  0  0
  -19.3930  -26.4690   21.4000 C   0  0  0  0  0  2  0  0  0  0  0  0
  -17.9950  -26.6650   21.9900 C   0  0  0  0  0  2  0  0  0  0  0  0
  -18.9760  -28.7300   23.1470 C   0  0  0  0  0  0  0  0  0  0  0  0
  -18.7830  -29.9920   23.7480 C   0  0  0  0  0  3  0  0  0  0  0  0
  -17.4940  -30.5340   23.8870 C   0  0  0  0  0  3  0  0  0  0  0  0
  -16.3760  -29.8130   23.4330 C   0  0  0  0  0  3  0  0  0  0  0  0
  -16.5520  -28.5530   22.8340 C   0  0  0  0  0  3  0  0  0  0  0  0
  -25.7440  -32.2640   23.8920 C   0  0  0  0  0  3  0  0  0  0  0  0
  -25.4550  -33.6660   24.2160 N   0  0  0  0  0  0  0  0  0  0  0  0
  -25.8200  -34.7080   23.4570 C   0  0  0  0  0  0  0  0  0  0  0  0
  -26.5070  -34.5890   22.4400 O   0  0  0  0  0  0  0  0  0  0  0  0
  -24.8510  -33.8350   25.0090 H   0  0  0  0  0  0  0  0  0  0  0  0
  -24.1210  -36.5180   23.0600 C   0  0  0  0  0  1  0  0  0  0  0  0
  -25.3430  -36.1080   23.8980 C   0  0  0  0  0  3  0  0  0  0  0  0
  -27.4710  -36.9630   24.7670 C   0  0  0  0  0  1  0  0  0  0  0  0
  -26.3920  -37.1440   23.7990 N   0  0  0  0  0  0  0  0  0  0  0  0
  -25.9960  -38.0710   23.9390 H   0  0  0  0  0  0  0  0  0  0  0  0
  -26.2050  -31.4740   25.1780 C   0  0  1  0  0  0  0  0  0  0  0  0
  -25.0700  -31.2420   26.2040 C   0  0  0  0  0  1  0  0  0  0  0  0
  -26.7750  -30.0890   24.7890 C   0  0  0  0  0  1  0  0  0  0  0  0
  -27.3480  -32.2380   25.8880 C   0  0  0  0  0  1  0  0  0  0  0  0
  -21.8690  -22.7200   15.3240 C   0  0  0  0  0  2  0  0  0  0  0  0
  -22.6850  -21.4300   15.4040 C   0  0  0  0  0  2  0  0  0  0  0  0
  -23.7700  -21.6460   16.3580 N   0  0  0  0  0  0  0  0  0  0  0  0
  -23.3360  -21.9290   17.2380 H   0  0  0  0  0  0  0  0  0  0  0  0
  -24.6840  -20.5150   16.5220 C   0  0  0  0  0  2  0  0  0  0  0  0
  -25.9390  -20.9170   17.3220 C   0  0  0  0  0  2  0  0  0  0  0  0
  -26.0910  -20.1650   18.5840 N   0  0  0  0  0  4  0  0  0  0  0  0
  -25.4750  -20.5400   19.2870 H   0  0  0  0  0  0  0  0  0  0  0  0
  -25.8150  -19.2140   18.4050 H   0  0  0  0  0  0  0  0  0  0  0  0
  -27.4860  -20.1560   19.0810 C   0  0  0  0  0  2  0  0  0  0  0  0
  -27.7500  -19.0070   20.0680 C   0  0  0  0  0  2  0  0  0  0  0  0
  -29.2540  -18.8170   20.3430 C   0  0  0  0  0  2  0  0  0  0  0  0
  -29.5600  -17.5310   21.1280 C   0  0  0  0  0  2  0  0  0  0  0  0
  -31.0660  -17.2060   21.1610 C   0  0  0  0  0  2  0  0  0  0  0  0
  -31.4100  -15.9130   21.9240 C   0  0  0  0  0  2  0  0  0  0  0  0
  -30.9350  -14.1450   20.2230 C   0  0  0  0  0  0  0  0  0  0  0  0
  -30.4070  -12.1610   18.8570 C   0  0  0  0  0  2  0  0  0  0  0  0
  -29.3870  -12.4550   17.7440 C   0  0  0  0  0  2  0  0  0  0  0  0
  -27.9480  -12.3220   18.2760 C   0  0  0  0  0  2  0  0  0  0  0  0
  -27.7250  -13.1130   19.5910 C   0  0  0  0  0  3  0  0  0  0  0  0
  -28.8380  -12.8030   20.6150 C   0  0  0  0  0  2  0  0  0  0  0  0
  -30.1480  -13.0650   19.9870 N   0  0  0  0  0  0  0  0  0  0  0  0
  -31.8580  -14.4960   19.4810 O   0  0  0  0  0  0  0  0  0  0  0  0
  -30.7000  -14.7540   21.3910 N   0  0  0  0  0  0  0  0  0  0  0  0
  -29.9610  -14.3670   21.9580 H   0  0  0  0  0  0  0  0  0  0  0  0
  -25.3810  -13.7500   20.4500 C   0  0  0  0  0  0  0  0  0  0  0  0
  -24.3230  -12.9880   20.8710 C   0  0  0  0  0  0  0  0  0  0  0  0
  -24.7600  -11.6310   20.7920 C   0  0  0  0  0  0  0  0  0  0  0  0
  -26.3960  -12.8560   20.1440 N   0  0  0  0  0  0  0  0  0  0  0  0
  -26.0270  -11.5760   20.4020 N   0  0  0  0  0  0  0  0  0  0  0  0
  -24.0260  -10.3770   21.0100 C   0  0  0  0  0  0  0  0  0  0  0  0
  -24.4620   -9.4190   21.9530 C   0  0  0  0  0  3  0  0  0  0  0  0
  -23.7290   -8.2300   22.1550 C   0  0  0  0  0  3  0  0  0  0  0  0
  -22.5470   -7.9890   21.4170 C   0  0  0  0  0  0  0  0  0  0  0  0
  -22.1310   -8.9340   20.4620 C   0  0  0  0  0  3  0  0  0  0  0  0
  -22.8630  -10.1150   20.2580 C   0  0  0  0  0  3  0  0  0  0  0  0
  -21.7860   -6.8500   21.5280 O   0  0  0  0  0  0  0  0  0  0  0  0
  -21.6930   -6.1600   22.7090 C   0  0  0  0  0  0  0  0  0  0  0  0
  -21.2230   -6.7690   23.8930 C   0  0  0  0  0  3  0  0  0  0  0  0
  -21.0770   -6.0070   25.0690 C   0  0  0  0  0  3  0  0  0  0  0  0
  -21.3890   -4.6330   25.0600 C   0  0  0  0  0  0  0  0  0  0  0  0
  -21.8520   -4.0240   23.8810 C   0  0  0  0  0  3  0  0  0  0  0  0
  -21.9990   -4.7840   22.7080 C   0  0  0  0  0  0  0  0  0  0  0  0
  -22.4250   -4.1860   21.5690 F   0  0  0  0  0  0  0  0  0  0  0  0
  -21.2420   -3.8970   26.1870 F   0  0  0  0  0  0  0  0  0  0  0  0
  -22.9550  -13.4840   21.2380 C   0  0  0  0  0  0  0  0  0  0  0  0
  -22.2810  -12.7960   22.1550 N   0  0  0  0  0  0  0  0  0  0  0  0
  -22.4940  -14.5130   20.7490 O   0  0  0  0  0  0  0  0  0  0  0  0
  -22.6680  -11.9620   22.5690 H   0  0  0  0  0  0  0  0  0  0  0  0
  -21.3660  -13.1100   22.4450 H   0  0  0  0  0  0  0  0  0  0  0  0
  -25.5590  -15.1190   20.2850 N   0  0  0  0  0  0  0  0  0  0  0  0
  -24.8270  -15.7890   20.4920 H   0  0  0  0  0  0  0  0  0  0  0  0
  -26.4190  -15.5460   19.9640 H   0  0  0  0  0  0  0  0  0  0  0  0
  1  2  1  0
  1  3  1  0
  3  4  1  0
  4  5  1  0
  6  5  1  0
  6  7  1  0
  8  7  1  0
  8  9  1  0
  9 11  1  0
 10  9  1  0
 12  9  1  0
 12 13  1  0
 14 13  1  0
 15 26  2  0
 16 14  1  0
 16 21  1  0
 17 25  1  0
 17 27  1  0
 18 24  1  0
 18 20  1  0
 19 25  1  0
 20 21  2  0
 20 19  1  0
 22 23  1  0
 22 16  2  0
 23 18  2  0
 24 17  1  0
 25 15  1  0
 27 29  2  0
 28 27  1  0
 30 28  1  0
 31 40  2  0
 31 36  1  0
 32 28  1  0
 32 36  1  0
 33 32  1  0
 34 35  1  0
 34 33  1  0
 35 31  1  0
 36 37  2  0
 37 38  1  0
 39 38  2  0
 40 39  1  0
 41 15  1  0
 41 42  1  0
 41 51  1  0
 42 45  1  0
 43 47  1  0
 43 42  1  0
 44 43  2  0
 47 46  1  0
 49 47  1  0
 49 50  1  0
 49 48  1  0
 51 54  1  1
 51 52  1  0
 53 51  1  0
 55 56  1  0
 55  1  1  0
 56 57  1  0
 57 59  1  0
 57 58  1  0
 59 60  1  0
 60 61  1  0
 61 64  1  0
 61 62  1  0
 63 61  1  0
 64 65  1  0
 65 66  1  0
 66 67  1  0
 67 68  1  0
 68 69  1  0
 70 78  1  0
 71 76  1  0
 72 73  1  0
 72 71  1  0
 74 73  1  0
 74 83  1  0
 74 75  1  0
 76 70  1  0
 76 75  1  0
 77 70  2  0
 78 69  1  0
 78 79  1  0
 80 81  2  0
 81100  1  0
 82 81  1  0
 82 85  1  0
 83 84  1  0
 83 80  1  0
 84 82  2  0
 85 86  1  0
 86 87  2  0
 88 91  1  0
 88 87  1  0
 89 88  2  0
 90 89  1  0
 90 85  2  0
 91 92  1  0
 92 93  1  0
 93 94  2  0
 95 94  1  0
 95 99  1  0
 96 95  2  0
 97 92  2  0
 97 96  1  0
 98 97  1  0
100101  1  0
101104  1  0
101103  1  0
102100  2  0
105 80  1  0
105106  1  0
107105  1  0
M  ISO  4  13 101  14 101  70 100  78 100
M  END
>  <TORSDO>  (53) 
F 37

>  <SCORE>  (53) 
-9.593

>  <name>  (53) 
52

>  <ligand_id>  (53) 
52

>  <original_smiles>  (53) 
[H]c1c([H])c([H])c2c(c1[H])C([H])([H])C([H])([H])C([H])([H])C2([H])N([H])C(=O)C1([H])N(C(=O)C([H])(N([H])C(=O)C([H])(N([H])C([H])([H])[H])C([H])([H])[H])C(C([H])([H])[H])(C([H])([H])[H])C([H])([H])[H])C([H])([H])c2c([H])c(OC([H])([H])C([H])([H])[N+]([H])([H])C([H])([H])C([H])([H])C([H])([H])C([H])([H])C([H])([H])C([H])([H])N([H])C([H])([H])C([H])([H])N([H])C([H])([H])C([H])([H])[N+]([H])([H])C([H])([H])C([H])([H])C([H])([H])C([H])([H])C([H])([H])C([H])([H])N([H])C(=O)N3C([H])([H])C([H])([H])C([H])([H])C([H])(n4nc(-c5c([H])c([H])c(Oc6c([H])c([H])c(F)c([H])c6F)c([H])c5[H])c(C(=O)N([H])[H])c4N([H])[H])C3([H])[H])c([H])c([H])c2C1([H])[H]

>  <smiles>  (53) 
[H]c1c([H])c([H])c2c(c1[H])C([H])([H])C([H])([H])C([H])([H])C2([H])N([H])C(=O)C1([H])N(C(=O)C([H])(N([H])C(=O)C([H])(N([H])C([H])([H])[H])C([H])([H])[H])C(C([H])([H])[H])(C([H])([H])[H])C([H])([H])[H])C([H])([H])c2c([H])c(OC([H])([H])C([H])([H])[N+]([H])([H])C([H])([H])C([H])([H])C([H])([H])C([H])([H])C([H])([H])C([H])([H])N([H])C([H])([H])C([H])([H])N([H])C([H])([H])C([H])([H])[N+]([H])([H])C([H])([H])C([H])([H])C([H])([H])C([H])([H])C([H])([H])C([H])([H])N([H])C(=O)N3C([H])([H])C([H])([H])C([H])([H])C([H])(n4nc(-c5c([H])c([H])c(Oc6c([H])c([H])c(F)c([H])c6F)c([H])c5[H])c(C(=O)N([H])[H])c4N([H])[H])C3([H])[H])c([H])c([H])c2C1([H])[H]

$$$$
54:0:0
     RDKit          3D

104111  0  0  1  0  0  0  0  0999 V2000
  -27.9340  -25.3720   24.9490 C   0  0  0  0  0  2  0  0  0  0  0  0
  -27.8960  -26.8060   22.9090 C   0  0  0  0  0  0  0  0  0  0  0  0
  -27.9950  -26.6430   24.2320 N   0  0  0  0  0  0  0  0  0  0  0  0
  -27.6510  -25.8800   22.1320 O   0  0  0  0  0  0  0  0  0  0  0  0
  -28.1620  -27.4720   24.7870 H   0  0  0  0  0  0  0  0  0  0  0  0
  -28.1450  -28.2140   22.3680 C   0  0  0  0  0  2  0  0  0  0  0  0
  -30.6040  -28.7580   22.2310 C   0  0  0  0  0  0  0  0  0  0  0  0
  -29.4550  -28.2860   21.7260 N   0  0  0  0  0  0  0  0  0  0  0  0
  -31.6370  -28.6910   21.5660 O   0  0  0  0  0  0  0  0  0  0  0  0
  -29.5020  -27.8710   20.8050 H   0  0  0  0  0  0  0  0  0  0  0  0
  -30.6620  -29.3870   23.6340 C   0  0  0  0  0  2  0  0  0  0  0  0
  -30.8460  -30.9260   23.6360 C   0  0  0  0  0  2  0  0  0  0  0  0
  -30.0930  -31.5910   24.6560 O   0  0  0  0  0  0  0  0  0  0  0  0
  -24.5990  -28.6240   28.0220 C   0  0  0  0  0  0  0  0  0  0  0  0
  -28.7230  -31.4550   24.6850 C   0  0  0  0  0  0  0  0  0  0  0  0
  -24.0800  -29.6640   25.8390 C   0  0  0  0  0  3  0  0  0  0  0  0
  -25.9210  -31.1120   24.8360 C   0  0  0  0  0  0  0  0  0  0  0  0
  -26.0260  -30.5190   27.2630 C   0  0  0  0  0  2  0  0  0  0  0  0
  -26.7140  -30.9110   25.9730 C   0  0  0  0  0  0  0  0  0  0  0  0
  -28.1130  -31.0770   25.9010 C   0  0  0  0  0  3  0  0  0  0  0  0
  -27.9030  -31.6870   23.5580 C   0  0  0  0  0  3  0  0  0  0  0  0
  -26.5120  -31.4980   23.6230 C   0  0  0  0  0  3  0  0  0  0  0  0
  -24.4330  -30.9170   24.9930 C   0  0  0  0  0  2  0  0  0  0  0  0
  -24.9170  -29.5540   27.0780 N   0  0  0  0  0  0  0  0  0  0  0  0
  -23.6060  -27.8940   27.8920 O   0  0  0  0  0  0  0  0  0  0  0  0
  -24.1660  -28.4180   24.9280 C   0  0  0  0  0  0  0  0  0  0  0  0
  -23.3490  -28.4010   23.8630 N   0  0  0  0  0  0  0  0  0  0  0  0
  -24.9710  -27.5130   25.1660 O   0  0  0  0  0  0  0  0  0  0  0  0
  -22.7130  -29.1770   23.7420 H   0  0  0  0  0  0  0  0  0  0  0  0
  -21.9060  -27.5320   20.6680 C   0  0  0  0  0  0  0  0  0  0  0  0
  -23.2790  -27.3500   22.8490 C   0  0  0  0  0  3  0  0  0  0  0  0
  -24.5330  -27.3670   21.9430 C   0  0  0  0  0  2  0  0  0  0  0  0
  -24.3460  -28.2010   20.6730 C   0  0  0  0  0  2  0  0  0  0  0  0
  -23.1750  -27.6670   19.8430 C   0  0  0  0  0  2  0  0  0  0  0  0
  -21.9540  -27.3980   22.0790 C   0  0  0  0  0  0  0  0  0  0  0  0
  -20.7420  -27.3150   22.8010 C   0  0  0  0  0  3  0  0  0  0  0  0
  -19.5030  -27.3590   22.1340 C   0  0  0  0  0  3  0  0  0  0  0  0
  -19.4630  -27.4770   20.7330 C   0  0  0  0  0  3  0  0  0  0  0  0
  -20.6610  -27.5560   20.0030 C   0  0  0  0  0  3  0  0  0  0  0  0
  -25.4530  -28.4480   29.3160 C   0  0  0  0  0  3  0  0  0  0  0  0
  -26.8240  -27.7090   29.0600 C   0  0  1  0  0  0  0  0  0  0  0  0
  -26.6960  -26.4490   28.1730 C   0  0  0  0  0  1  0  0  0  0  0  0
  -27.8380  -28.6630   28.3860 C   0  0  0  0  0  1  0  0  0  0  0  0
  -27.4480  -27.2810   30.4090 C   0  0  0  0  0  1  0  0  0  0  0  0
  -24.6380  -27.7080   30.2870 N   0  0  0  0  0  0  0  0  0  0  0  0
  -24.0850  -28.2480   31.3820 C   0  0  0  0  0  0  0  0  0  0  0  0
  -24.2740  -29.4200   31.7180 O   0  0  0  0  0  0  0  0  0  0  0  0
  -24.4060  -26.7550   30.0500 H   0  0  0  0  0  0  0  0  0  0  0  0
  -21.7050  -27.6260   31.8970 C   0  0  0  0  0  1  0  0  0  0  0  0
  -23.1770  -27.3450   32.2380 C   0  0  0  0  0  3  0  0  0  0  0  0
  -24.6720  -26.9640   34.1480 C   0  0  0  0  0  1  0  0  0  0  0  0
  -23.3930  -27.5020   33.6940 N   0  0  0  0  0  0  0  0  0  0  0  0
  -22.6520  -27.0460   34.2200 H   0  0  0  0  0  0  0  0  0  0  0  0
  -29.1400  -24.4670   24.6210 C   0  0  0  0  0  2  0  0  0  0  0  0
  -29.3030  -24.1560   23.1230 C   0  0  0  0  0  2  0  0  0  0  0  0
  -30.0290  -22.8250   22.8730 C   0  0  0  0  0  2  0  0  0  0  0  0
  -30.3370  -22.5740   21.3890 C   0  0  0  0  0  2  0  0  0  0  0  0
  -31.8950  -23.4490   19.6770 C   0  0  0  0  0  0  0  0  0  0  0  0
  -31.5150  -23.3150   20.9510 N   0  0  0  0  0  0  0  0  0  0  0  0
  -31.2220  -23.0360   18.7320 O   0  0  0  0  0  0  0  0  0  0  0  0
  -32.1290  -23.6750   21.6660 H   0  0  0  0  0  0  0  0  0  0  0  0
  -33.2540  -24.1050   19.4240 C   0  0  0  0  0  2  0  0  0  0  0  0
  -34.3230  -23.0640   19.0390 C   0  0  0  0  0  2  0  0  0  0  0  0
  -34.9210  -22.3020   20.2430 C   0  0  0  0  0  2  0  0  0  0  0  0
  -34.9540  -20.7840   20.0210 C   0  0  0  0  0  2  0  0  0  0  0  0
  -33.6060  -20.0960   20.3490 C   0  0  0  0  0  2  0  0  0  0  0  0
  -33.6780  -18.0430   18.9430 C   0  0  0  0  0  0  0  0  0  0  0  0
  -34.2170  -16.6110   17.0180 C   0  0  0  0  0  2  0  0  0  0  0  0
  -35.2830  -17.3240   16.1600 C   0  0  0  0  0  2  0  0  0  0  0  0
  -34.6280  -18.2870   15.1480 C   0  0  0  0  0  2  0  0  0  0  0  0
  -33.5770  -19.2210   15.8060 C   0  0  0  0  0  3  0  0  0  0  0  0
  -32.6080  -18.4040   16.6920 C   0  0  0  0  0  2  0  0  0  0  0  0
  -33.4100  -17.6470   17.6730 N   0  0  0  0  0  0  0  0  0  0  0  0
  -34.4280  -17.4320   19.7090 O   0  0  0  0  0  0  0  0  0  0  0  0
  -33.1660  -19.2360   19.2590 N   0  0  0  0  0  0  0  0  0  0  0  0
  -32.5410  -19.6450   18.5790 H   0  0  0  0  0  0  0  0  0  0  0  0
  -32.8330  -21.3780   14.6090 C   0  0  0  0  0  0  0  0  0  0  0  0
  -32.0600  -21.5880   13.4980 C   0  0  0  0  0  0  0  0  0  0  0  0
  -31.6490  -20.2940   13.0550 C   0  0  0  0  0  0  0  0  0  0  0  0
  -32.8570  -20.0050   14.8030 N   0  0  0  0  0  0  0  0  0  0  0  0
  -32.0950  -19.3580   13.8840 N   0  0  0  0  0  0  0  0  0  0  0  0
  -30.9080  -19.8870   11.8540 C   0  0  0  0  0  0  0  0  0  0  0  0
  -29.6690  -19.2150   11.9460 C   0  0  0  0  0  3  0  0  0  0  0  0
  -28.9640  -18.8490   10.7790 C   0  0  0  0  0  3  0  0  0  0  0  0
  -29.4950  -19.1580    9.5040 C   0  0  0  0  0  0  0  0  0  0  0  0
  -30.7400  -19.8070    9.4170 C   0  0  0  0  0  3  0  0  0  0  0  0
  -31.4420  -20.1660   10.5810 C   0  0  0  0  0  3  0  0  0  0  0  0
  -28.8950  -18.8190    8.3150 O   0  0  0  0  0  0  0  0  0  0  0  0
  -27.5320  -18.7140    8.2010 C   0  0  0  0  0  0  0  0  0  0  0  0
  -26.6780  -19.8170    8.4210 C   0  0  0  0  0  3  0  0  0  0  0  0
  -25.2900  -19.6810    8.2240 C   0  0  0  0  0  3  0  0  0  0  0  0
  -24.7540  -18.4510    7.8020 C   0  0  0  0  0  0  0  0  0  0  0  0
  -25.6030  -17.3530    7.5770 C   0  0  0  0  0  3  0  0  0  0  0  0
  -26.9890  -17.4850    7.7740 C   0  0  0  0  0  0  0  0  0  0  0  0
  -27.8050  -16.4300    7.5350 F   0  0  0  0  0  0  0  0  0  0  0  0
  -23.4210  -18.3210    7.6060 F   0  0  0  0  0  0  0  0  0  0  0  0
  -31.7950  -22.9060   12.8280 C   0  0  0  0  0  0  0  0  0  0  0  0
  -30.5920  -23.0920   12.2980 N   0  0  0  0  0  0  0  0  0  0  0  0
  -32.6410  -23.7990   12.8160 O   0  0  0  0  0  0  0  0  0  0  0  0
  -29.8890  -22.3690   12.3260 H   0  0  0  0  0  0  0  0  0  0  0  0
  -30.3700  -23.9730   11.8550 H   0  0  0  0  0  0  0  0  0  0  0  0
  -33.5290  -22.2350   15.4570 N   0  0  0  0  0  0  0  0  0  0  0  0
  -33.5650  -23.2350   15.3020 H   0  0  0  0  0  0  0  0  0  0  0  0
  -34.1000  -21.9310   16.2340 H   0  0  0  0  0  0  0  0  0  0  0  0
  2  3  1  0
  3  5  1  0
  3  1  1  0
  4  2  2  0
  6  2  1  0
  7 11  1  0
  8  7  1  0
  8  6  1  0
  9  7  2  0
 10  8  1  0
 11 12  1  0
 12 13  1  0
 13 15  1  0
 15 20  1  0
 16 26  1  0
 16 24  1  0
 17 23  1  0
 17 19  1  0
 19 18  1  0
 20 19  2  0
 21 22  1  0
 21 15  2  0
 22 17  2  0
 23 16  1  0
 24 18  1  0
 24 14  1  0
 25 14  2  0
 26 28  2  0
 27 26  1  0
 29 27  1  0
 30 35  1  0
 31 27  1  0
 32 31  1  0
 33 32  1  0
 34 30  1  0
 34 33  1  0
 35 36  2  0
 35 31  1  0
 37 36  1  0
 38 37  2  0
 39 30  2  0
 39 38  1  0
 40 14  1  0
 40 45  1  0
 41 40  1  0
 41 44  1  1
 42 41  1  0
 43 41  1  0
 45 46  1  0
 46 47  2  0
 46 50  1  0
 48 45  1  0
 50 49  1  0
 50 52  1  0
 52 51  1  0
 52 53  1  0
 54  1  1  0
 55 54  1  0
 56 55  1  0
 57 56  1  0
 58 59  1  0
 59 57  1  0
 59 61  1  0
 60 58  2  0
 62 58  1  0
 63 62  1  0
 63 64  1  0
 65 64  1  0
 65 66  1  0
 67 75  1  0
 67 74  2  0
 68 73  1  0
 69 68  1  0
 70 71  1  0
 70 69  1  0
 71 80  1  0
 71 72  1  0
 72 73  1  0
 73 67  1  0
 75 66  1  0
 76 75  1  0
 77 80  1  0
 77102  1  0
 78 77  2  0
 79 78  1  0
 79 81  2  0
 81 80  1  0
 82 83  1  0
 82 79  1  0
 84 83  2  0
 85 84  1  0
 86 85  2  0
 86 87  1  0
 87 82  2  0
 88 85  1  0
 89 88  1  0
 89 90  1  0
 91 90  2  0
 92 91  1  0
 93 94  1  0
 93 92  2  0
 94 89  2  0
 95 94  1  0
 96 92  1  0
 97 78  1  0
 98100  1  0
 98 97  1  0
 99 97  2  0
101 98  1  0
102104  1  0
103102  1  0
M  ISO  4  12 101  13 101  67 100  75 100
M  END
>  <TORSDO>  (54) 
F 31

>  <SCORE>  (54) 
-4.164

>  <name>  (54) 
54

>  <ligand_id>  (54) 
54

>  <original_smiles>  (54) 
[H]c1c([H])c([H])c2c(c1[H])C([H])([H])C([H])([H])C([H])([H])C2([H])N([H])C(=O)C1([H])N(C(=O)C([H])(N([H])C(=O)C([H])(N([H])C([H])([H])[H])C([H])([H])[H])C(C([H])([H])[H])(C([H])([H])[H])C([H])([H])[H])C([H])([H])c2c([H])c(OC([H])([H])C([H])([H])C(=O)N([H])C([H])([H])C(=O)N([H])C([H])([H])C([H])([H])C([H])([H])C([H])([H])C([H])([H])N([H])C(=O)C([H])([H])C([H])([H])C([H])([H])C([H])([H])C([H])([H])N([H])C(=O)N3C([H])([H])C([H])([H])C([H])([H])C([H])(n4nc(-c5c([H])c([H])c(Oc6c([H])c([H])c(F)c([H])c6F)c([H])c5[H])c(C(=O)N([H])[H])c4N([H])[H])C3([H])[H])c([H])c([H])c2C1([H])[H]

>  <smiles>  (54) 
[H]c1c([H])c([H])c2c(c1[H])C([H])([H])C([H])([H])C([H])([H])C2([H])N([H])C(=O)C1([H])N(C(=O)C([H])(N([H])C(=O)C([H])(N([H])C([H])([H])[H])C([H])([H])[H])C(C([H])([H])[H])(C([H])([H])[H])C([H])([H])[H])C([H])([H])c2c([H])c(OC([H])([H])C([H])([H])C(=O)N([H])C([H])([H])C(=O)N([H])C([H])([H])C([H])([H])C([H])([H])C([H])([H])C([H])([H])N([H])C(=O)C([H])([H])C([H])([H])C([H])([H])C([H])([H])C([H])([H])N([H])C(=O)N3C([H])([H])C([H])([H])C([H])([H])C([H])(n4nc(-c5c([H])c([H])c(Oc6c([H])c([H])c(F)c([H])c6F)c([H])c5[H])c(C(=O)N([H])[H])c4N([H])[H])C3([H])[H])c([H])c([H])c2C1([H])[H]

$$$$
55:0:0
     RDKit          3D

109116  0  0  1  0  0  0  0  0999 V2000
  -31.0040  -22.2470   16.7220 C   0  0  0  0  0  3  0  0  0  0  0  0
  -30.0830  -20.1210   15.7520 C   0  0  0  0  0  0  0  0  0  0  0  0
  -30.1100  -21.0830   16.6830 N   0  0  0  0  0  0  0  0  0  0  0  0
  -30.8550  -20.1190   14.7910 O   0  0  0  0  0  0  0  0  0  0  0  0
  -29.4240  -21.0440   17.4250 H   0  0  0  0  0  0  0  0  0  0  0  0
  -29.0450  -18.9950   15.8890 C   0  0  0  0  0  2  0  0  0  0  0  0
  -28.4720  -18.7350   17.3050 C   0  0  0  0  0  2  0  0  0  0  0  0
  -29.3050  -17.9090   19.5140 C   0  0  0  0  0  0  0  0  0  0  0  0
  -29.5050  -18.4010   18.2870 N   0  0  0  0  0  0  0  0  0  0  0  0
  -28.1880  -17.6070   19.9450 O   0  0  0  0  0  0  0  0  0  0  0  0
  -30.4620  -18.6020   18.0320 H   0  0  0  0  0  0  0  0  0  0  0  0
  -30.5650  -17.7620   20.3710 C   0  0  0  0  0  2  0  0  0  0  0  0
  -30.4670  -16.8500   21.6200 C   0  0  0  0  0  2  0  0  0  0  0  0
  -30.6940  -14.5710   20.5980 C   0  0  0  0  0  0  0  0  0  0  0  0
  -30.4030  -12.4860   19.3270 C   0  0  0  0  0  2  0  0  0  0  0  0
  -29.4540  -12.7260   18.1370 C   0  0  0  0  0  2  0  0  0  0  0  0
  -27.9790  -12.5830   18.5610 C   0  0  0  0  0  2  0  0  0  0  0  0
  -27.6440  -13.3640   19.8600 C   0  0  0  0  0  3  0  0  0  0  0  0
  -28.6970  -13.0770   20.9520 C   0  0  0  0  0  2  0  0  0  0  0  0
  -30.0210  -13.4120   20.4000 N   0  0  0  0  0  0  0  0  0  0  0  0
  -31.7750  -14.8320   20.0620 O   0  0  0  0  0  0  0  0  0  0  0  0
  -30.0530  -15.4690   21.3560 N   0  0  0  0  0  0  0  0  0  0  0  0
  -29.1670  -15.1730   21.7430 H   0  0  0  0  0  0  0  0  0  0  0  0
  -25.2270  -13.9360   20.5390 C   0  0  0  0  0  0  0  0  0  0  0  0
  -24.1670  -13.1440   20.8970 C   0  0  0  0  0  0  0  0  0  0  0  0
  -24.6510  -11.8000   20.8710 C   0  0  0  0  0  0  0  0  0  0  0  0
  -26.2900  -13.0710   20.3240 N   0  0  0  0  0  0  0  0  0  0  0  0
  -25.9450  -11.7810   20.5750 N   0  0  0  0  0  0  0  0  0  0  0  0
  -23.9440  -10.5260   21.0560 C   0  0  0  0  0  0  0  0  0  0  0  0
  -24.3850   -9.5680   21.9950 C   0  0  0  0  0  3  0  0  0  0  0  0
  -23.6790   -8.3580   22.1710 C   0  0  0  0  0  3  0  0  0  0  0  0
  -22.5190   -8.0980   21.4030 C   0  0  0  0  0  0  0  0  0  0  0  0
  -22.0960   -9.0440   20.4540 C   0  0  0  0  0  3  0  0  0  0  0  0
  -22.8030  -10.2450   20.2780 C   0  0  0  0  0  3  0  0  0  0  0  0
  -21.7860   -6.9380   21.4850 O   0  0  0  0  0  0  0  0  0  0  0  0
  -21.7350   -6.1980   22.6380 C   0  0  0  0  0  0  0  0  0  0  0  0
  -21.2590   -6.7410   23.8510 C   0  0  0  0  0  3  0  0  0  0  0  0
  -21.1540   -5.9250   24.9950 C   0  0  0  0  0  3  0  0  0  0  0  0
  -21.5180   -4.5680   24.9290 C   0  0  0  0  0  0  0  0  0  0  0  0
  -21.9870   -4.0250   23.7210 C   0  0  0  0  0  3  0  0  0  0  0  0
  -22.0910   -4.8370   22.5780 C   0  0  0  0  0  0  0  0  0  0  0  0
  -22.5240   -4.3010   21.4100 F   0  0  0  0  0  0  0  0  0  0  0  0
  -21.4120   -3.7800   26.0260 F   0  0  0  0  0  0  0  0  0  0  0  0
  -22.7610  -13.5960   21.1610 C   0  0  0  0  0  0  0  0  0  0  0  0
  -22.0430  -12.8860   22.0250 N   0  0  0  0  0  0  0  0  0  0  0  0
  -22.3040  -14.6140   20.6430 O   0  0  0  0  0  0  0  0  0  0  0  0
  -22.4290  -12.0640   22.4660 H   0  0  0  0  0  0  0  0  0  0  0  0
  -21.0980  -13.1660   22.2460 H   0  0  0  0  0  0  0  0  0  0  0  0
  -25.3670  -15.3090   20.3600 N   0  0  0  0  0  0  0  0  0  0  0  0
  -24.5900  -15.9550   20.4600 H   0  0  0  0  0  0  0  0  0  0  0  0
  -26.2290  -15.7740   20.0940 H   0  0  0  0  0  0  0  0  0  0  0  0
  -30.3020  -23.4340   17.4110 C   0  0  0  0  0  0  0  0  0  0  0  0
  -29.1130  -23.3940   17.7610 O   0  0  0  0  0  0  0  0  0  0  0  0
  -31.1330  -24.6900   17.6970 C   0  0  0  0  0  2  0  0  0  0  0  0
  -30.2130  -25.7340   18.1940 N   0  0  0  0  0  4  0  0  0  0  0  0
  -29.3750  -25.2250   18.4540 H   0  0  0  0  0  0  0  0  0  0  0  0
  -29.9630  -26.3440   17.4300 H   0  0  0  0  0  0  0  0  0  0  0  0
  -30.6990  -26.5040   19.3640 C   0  0  0  0  0  2  0  0  0  0  0  0
  -29.6180  -27.4490   19.9030 C   0  0  0  0  0  2  0  0  0  0  0  0
  -28.4270  -26.6960   20.1320 O   0  0  0  0  0  0  0  0  0  0  0  0
  -24.5460  -31.8480   23.2040 C   0  0  0  0  0  0  0  0  0  0  0  0
  -27.2650  -27.4270   20.1970 C   0  0  0  0  0  0  0  0  0  0  0  0
  -23.3640  -30.4270   21.5570 C   0  0  0  0  0  3  0  0  0  0  0  0
  -24.8440  -28.8790   20.1740 C   0  0  0  0  0  0  0  0  0  0  0  0
  -25.8830  -30.8080   21.3820 C   0  0  0  0  0  2  0  0  0  0  0  0
  -25.9860  -29.4300   20.7690 C   0  0  0  0  0  0  0  0  0  0  0  0
  -27.1970  -28.7120   20.7860 C   0  0  0  0  0  3  0  0  0  0  0  0
  -26.1010  -26.8680   19.6330 C   0  0  0  0  0  3  0  0  0  0  0  0
  -24.8930  -27.5910   19.6120 C   0  0  0  0  0  3  0  0  0  0  0  0
  -23.5950  -29.7290   20.1890 C   0  0  0  0  0  2  0  0  0  0  0  0
  -24.6150  -31.0420   22.1090 N   0  0  0  0  0  0  0  0  0  0  0  0
  -23.4580  -32.1230   23.7290 O   0  0  0  0  0  0  0  0  0  0  0  0
  -22.7060  -29.4120   22.5190 C   0  0  0  0  0  0  0  0  0  0  0  0
  -21.3830  -29.2330   22.3810 N   0  0  0  0  0  0  0  0  0  0  0  0
  -23.3820  -28.7890   23.3410 O   0  0  0  0  0  0  0  0  0  0  0  0
  -20.9000  -29.7900   21.6910 H   0  0  0  0  0  0  0  0  0  0  0  0
  -17.9960  -28.0790   22.8680 C   0  0  0  0  0  0  0  0  0  0  0  0
  -20.5570  -28.3020   23.1470 C   0  0  0  0  0  3  0  0  0  0  0  0
  -20.6420  -26.8730   22.5640 C   0  0  0  0  0  2  0  0  0  0  0  0
  -19.5370  -26.5670   21.5470 C   0  0  0  0  0  2  0  0  0  0  0  0
  -18.1570  -26.7280   22.1890 C   0  0  0  0  0  2  0  0  0  0  0  0
  -19.1240  -28.8230   23.3030 C   0  0  0  0  0  0  0  0  0  0  0  0
  -18.9210  -30.0900   23.8950 C   0  0  0  0  0  3  0  0  0  0  0  0
  -17.6240  -30.6100   24.0580 C   0  0  0  0  0  3  0  0  0  0  0  0
  -16.5100  -29.8600   23.6410 C   0  0  0  0  0  3  0  0  0  0  0  0
  -16.6970  -28.5960   23.0520 C   0  0  0  0  0  3  0  0  0  0  0  0
  -25.8230  -32.4860   23.8350 C   0  0  0  0  0  3  0  0  0  0  0  0
  -25.5050  -33.8840   24.1610 N   0  0  0  0  0  0  0  0  0  0  0  0
  -25.8470  -34.9360   23.4050 C   0  0  0  0  0  0  0  0  0  0  0  0
  -26.5350  -34.8340   22.3860 O   0  0  0  0  0  0  0  0  0  0  0  0
  -24.8930  -34.0350   24.9490 H   0  0  0  0  0  0  0  0  0  0  0  0
  -24.1270  -36.7250   23.0080 C   0  0  0  0  0  1  0  0  0  0  0  0
  -25.3460  -36.3220   23.8530 C   0  0  0  0  0  3  0  0  0  0  0  0
  -27.4540  -37.2050   24.7460 C   0  0  0  0  0  1  0  0  0  0  0  0
  -26.3780  -37.3760   23.7730 N   0  0  0  0  0  0  0  0  0  0  0  0
  -25.9670  -38.2940   23.9140 H   0  0  0  0  0  0  0  0  0  0  0  0
  -26.3370  -31.7160   25.1120 C   0  0  1  0  0  0  0  0  0  0  0  0
  -25.2350  -31.4530   26.1640 C   0  0  0  0  0  1  0  0  0  0  0  0
  -26.9470  -30.3520   24.7150 C   0  0  0  0  0  1  0  0  0  0  0  0
  -27.4660  -32.5250   25.7950 C   0  0  0  0  0  1  0  0  0  0  0  0
  -32.3780  -21.8630   17.3250 C   0  0  0  0  0  2  0  0  0  0  0  0
  -32.3300  -21.3990   18.7930 C   0  0  0  0  0  2  0  0  0  0  0  0
  -33.7310  -21.2170   19.3920 C   0  0  0  0  0  2  0  0  0  0  0  0
  -33.6860  -20.6410   20.8230 C   0  0  0  0  0  2  0  0  0  0  0  0
  -35.0400  -20.6410   21.5380 C   0  0  0  0  0  0  0  0  0  0  0  0
  -35.0950  -20.0570   22.7280 N   0  0  0  0  0  0  0  0  0  0  0  0
  -36.0360  -21.1640   21.0410 O   0  0  0  0  0  0  0  0  0  0  0  0
  -34.2690  -19.6380   23.1350 H   0  0  0  0  0  0  0  0  0  0  0  0
  -35.9630  -20.0300   23.2450 H   0  0  0  0  0  0  0  0  0  0  0  0
  1101  1  0
  1 52  1  0
  2  6  1  0
  2  3  1  0
  3  1  1  0
  3  5  1  0
  4  2  2  0
  6  7  1  0
  7  9  1  0
  8 10  2  0
  8 12  1  0
  9  8  1  0
 11  9  1  0
 12 13  1  0
 14 22  1  0
 15 20  1  0
 16 17  1  0
 16 15  1  0
 18 17  1  0
 18 27  1  0
 18 19  1  0
 20 14  1  0
 20 19  1  0
 21 14  2  0
 22 13  1  0
 22 23  1  0
 24 25  2  0
 25 44  1  0
 26 25  1  0
 26 29  1  0
 27 24  1  0
 27 28  1  0
 28 26  2  0
 29 30  1  0
 30 31  2  0
 32 35  1  0
 32 31  1  0
 33 32  2  0
 34 33  1  0
 34 29  2  0
 35 36  1  0
 36 37  1  0
 37 38  2  0
 39 38  1  0
 39 43  1  0
 40 39  2  0
 41 36  2  0
 41 40  1  0
 42 41  1  0
 44 45  1  0
 45 48  1  0
 45 47  1  0
 46 44  2  0
 49 50  1  0
 49 24  1  0
 51 49  1  0
 52 54  1  0
 52 53  2  0
 54 55  1  0
 55 56  1  0
 55 58  1  0
 57 55  1  0
 58 59  1  0
 59 60  1  0
 60 62  1  0
 61 72  2  0
 62 67  1  0
 63 71  1  0
 63 73  1  0
 64 70  1  0
 64 66  1  0
 65 71  1  0
 66 67  2  0
 66 65  1  0
 68 62  2  0
 69 68  1  0
 69 64  2  0
 70 63  1  0
 71 61  1  0
 73 75  2  0
 74 73  1  0
 76 74  1  0
 77 86  2  0
 77 82  1  0
 78 74  1  0
 78 82  1  0
 79 78  1  0
 80 81  1  0
 80 79  1  0
 81 77  1  0
 82 83  2  0
 83 84  1  0
 85 84  2  0
 86 85  1  0
 87 61  1  0
 87 88  1  0
 87 97  1  0
 88 91  1  0
 89 93  1  0
 89 88  1  0
 90 89  2  0
 93 92  1  0
 95 93  1  0
 95 96  1  0
 95 94  1  0
 97100  1  1
 97 98  1  0
 99 97  1  0
101102  1  0
102103  1  0
103104  1  0
104105  1  0
105106  1  0
106108  1  0
106109  1  0
107105  2  0
M  ISO  4  14 100  22 100  59 101  60 101
M  END
>  <TORSDO>  (55) 
F 32

>  <SCORE>  (55) 
-11.092

>  <name>  (55) 
55

>  <ligand_id>  (55) 
55

>  <original_smiles>  (55) 
[H]c1c([H])c([H])c2c(c1[H])C([H])([H])C([H])([H])C([H])([H])C2([H])N([H])C(=O)C1([H])N(C(=O)C([H])(N([H])C(=O)C([H])(N([H])C([H])([H])[H])C([H])([H])[H])C(C([H])([H])[H])(C([H])([H])[H])C([H])([H])[H])C([H])([H])c2c([H])c(OC([H])([H])C([H])([H])[N+]([H])([H])C([H])([H])C(=O)C([H])(N([H])C(=O)C([H])([H])C([H])([H])N([H])C(=O)C([H])([H])C([H])([H])N([H])C(=O)N3C([H])([H])C([H])([H])C([H])([H])C([H])(n4nc(-c5c([H])c([H])c(Oc6c([H])c([H])c(F)c([H])c6F)c([H])c5[H])c(C(=O)N([H])[H])c4N([H])[H])C3([H])[H])C([H])([H])C([H])([H])C([H])([H])C([H])([H])C(=O)N([H])[H])c([H])c([H])c2C1([H])[H]

>  <smiles>  (55) 
[H]c1c([H])c([H])c2c(c1[H])C([H])([H])C([H])([H])C([H])([H])C2([H])N([H])C(=O)C1([H])N(C(=O)C([H])(N([H])C(=O)C([H])(N([H])C([H])([H])[H])C([H])([H])[H])C(C([H])([H])[H])(C([H])([H])[H])C([H])([H])[H])C([H])([H])c2c([H])c(OC([H])([H])C([H])([H])[N+]([H])([H])C([H])([H])C(=O)C([H])(N([H])C(=O)C([H])([H])C([H])([H])N([H])C(=O)C([H])([H])C([H])([H])N([H])C(=O)N3C([H])([H])C([H])([H])C([H])([H])C([H])(n4nc(-c5c([H])c([H])c(Oc6c([H])c([H])c(F)c([H])c6F)c([H])c5[H])c(C(=O)N([H])[H])c4N([H])[H])C3([H])[H])C([H])([H])C([H])([H])C([H])([H])C([H])([H])C(=O)N([H])[H])c([H])c([H])c2C1([H])[H]

$$$$
56:0:0
     RDKit          3D

106113  0  0  1  0  0  0  0  0999 V2000
  -34.9110  -26.9290   19.2200 C   0  0  0  0  0  2  0  0  0  0  0  0
  -35.9030  -27.6620   20.1440 C   0  0  0  0  0  2  0  0  0  0  0  0
  -35.7220  -29.1920   20.1700 C   0  0  0  0  0  2  0  0  0  0  0  0
  -33.3140  -29.7350   19.7810 C   0  0  0  0  0  0  0  0  0  0  0  0
  -34.3660  -29.5410   20.5830 N   0  0  0  0  0  0  0  0  0  0  0  0
  -33.3980  -29.7560   18.5500 O   0  0  0  0  0  0  0  0  0  0  0  0
  -34.1810  -29.5430   21.5770 H   0  0  0  0  0  0  0  0  0  0  0  0
  -31.9500  -29.8940   20.4570 C   0  0  0  0  0  2  0  0  0  0  0  0
  -31.1940  -27.5840   20.9580 C   0  0  0  0  0  0  0  0  0  0  0  0
  -31.1330  -28.7050   20.2280 N   0  0  0  0  0  0  0  0  0  0  0  0
  -31.9200  -27.4780   21.9480 O   0  0  0  0  0  0  0  0  0  0  0  0
  -30.5300  -28.7120   19.4180 H   0  0  0  0  0  0  0  0  0  0  0  0
  -30.2900  -26.4200   20.5340 C   0  0  0  0  0  2  0  0  0  0  0  0
  -29.2820  -26.1800   21.5170 O   0  0  0  0  0  0  0  0  0  0  0  0
  -25.0780  -31.6020   23.4300 C   0  0  0  0  0  0  0  0  0  0  0  0
  -28.1180  -26.8800   21.3250 C   0  0  0  0  0  0  0  0  0  0  0  0
  -24.0920  -29.9680   21.8530 C   0  0  0  0  0  3  0  0  0  0  0  0
  -25.7210  -28.2810   20.8500 C   0  0  0  0  0  0  0  0  0  0  0  0
  -26.6160  -30.3580   21.9220 C   0  0  0  0  0  2  0  0  0  0  0  0
  -26.7870  -28.9160   21.4990 C   0  0  0  0  0  0  0  0  0  0  0  0
  -27.9840  -28.2200   21.7460 C   0  0  0  0  0  3  0  0  0  0  0  0
  -27.0360  -26.2400   20.6910 C   0  0  0  0  0  3  0  0  0  0  0  0
  -25.8350  -26.9370   20.4490 C   0  0  0  0  0  3  0  0  0  0  0  0
  -24.4780  -29.1090   20.6170 C   0  0  0  0  0  2  0  0  0  0  0  0
  -25.2720  -30.6660   22.4600 N   0  0  0  0  0  0  0  0  0  0  0  0
  -23.9370  -31.9230   23.7900 O   0  0  0  0  0  0  0  0  0  0  0  0
  -23.3300  -29.0720   22.8560 C   0  0  0  0  0  0  0  0  0  0  0  0
  -22.0260  -28.8730   22.6030 N   0  0  0  0  0  0  0  0  0  0  0  0
  -23.9120  -28.5550   23.8120 O   0  0  0  0  0  0  0  0  0  0  0  0
  -21.6220  -29.3380   21.8030 H   0  0  0  0  0  0  0  0  0  0  0  0
  -18.5870  -27.8110   22.9090 C   0  0  0  0  0  0  0  0  0  0  0  0
  -21.1170  -28.0380   23.3870 C   0  0  0  0  0  3  0  0  0  0  0  0
  -21.2250  -26.5530   22.9680 C   0  0  0  0  0  2  0  0  0  0  0  0
  -20.2090  -26.1530   21.8950 C   0  0  0  0  0  2  0  0  0  0  0  0
  -18.7800  -26.3950   22.3920 C   0  0  0  0  0  2  0  0  0  0  0  0
  -19.6870  -28.5870   23.3610 C   0  0  0  0  0  0  0  0  0  0  0  0
  -19.4580  -29.9110   23.7980 C   0  0  0  0  0  3  0  0  0  0  0  0
  -18.1620  -30.4560   23.7910 C   0  0  0  0  0  3  0  0  0  0  0  0
  -17.0740  -29.6790   23.3570 C   0  0  0  0  0  3  0  0  0  0  0  0
  -17.2870  -28.3580   22.9220 C   0  0  0  0  0  3  0  0  0  0  0  0
  -26.2760  -32.3330   24.1140 C   0  0  0  0  0  3  0  0  0  0  0  0
  -26.7500  -31.6370   25.4480 C   0  0  1  0  0  0  0  0  0  0  0  0
  -25.5980  -31.3360   26.4360 C   0  0  0  0  0  1  0  0  0  0  0  0
  -27.4690  -30.3030   25.1410 C   0  0  0  0  0  1  0  0  0  0  0  0
  -27.7790  -32.5370   26.1730 C   0  0  0  0  0  1  0  0  0  0  0  0
  -25.8600  -33.7190   24.3670 N   0  0  0  0  0  0  0  0  0  0  0  0
  -26.1870  -34.7630   23.5940 C   0  0  0  0  0  0  0  0  0  0  0  0
  -26.9390  -34.6660   22.6210 O   0  0  0  0  0  0  0  0  0  0  0  0
  -25.1970  -33.8630   25.1150 H   0  0  0  0  0  0  0  0  0  0  0  0
  -24.3900  -36.4300   23.0370 C   0  0  0  0  0  1  0  0  0  0  0  0
  -25.5830  -36.1330   23.9580 C   0  0  0  0  0  3  0  0  0  0  0  0
  -27.5830  -37.1810   24.9220 C   0  0  0  0  0  1  0  0  0  0  0  0
  -26.5570  -37.2430   23.8850 N   0  0  0  0  0  0  0  0  0  0  0  0
  -26.0850  -38.1400   23.9590 H   0  0  0  0  0  0  0  0  0  0  0  0
  -34.5610  -25.5200   19.7230 C   0  0  0  0  0  2  0  0  0  0  0  0
  -33.6810  -24.7400   18.7350 C   0  0  0  0  0  2  0  0  0  0  0  0
  -32.9500  -23.5590   19.3920 C   0  0  0  0  0  2  0  0  0  0  0  0
  -32.2380  -22.6670   18.3630 C   0  0  0  0  0  2  0  0  0  0  0  0
  -31.6750  -20.6150   19.6760 C   0  0  0  0  0  0  0  0  0  0  0  0
  -31.3330  -21.7140   18.9960 N   0  0  0  0  0  0  0  0  0  0  0  0
  -32.8470  -20.2780   19.8690 O   0  0  0  0  0  0  0  0  0  0  0  0
  -30.3420  -21.8910   18.8870 H   0  0  0  0  0  0  0  0  0  0  0  0
  -30.5150  -19.7790   20.2230 C   0  0  0  0  0  2  0  0  0  0  0  0
  -30.2660  -17.5040   21.1530 C   0  0  0  0  0  0  0  0  0  0  0  0
  -30.9940  -18.6000   20.9370 N   0  0  0  0  0  0  0  0  0  0  0  0
  -29.0990  -17.4010   20.7660 O   0  0  0  0  0  0  0  0  0  0  0  0
  -31.9590  -18.6310   21.2440 H   0  0  0  0  0  0  0  0  0  0  0  0
  -30.9250  -16.3630   21.9350 C   0  0  0  0  0  2  0  0  0  0  0  0
  -30.7150  -14.3850   20.4590 C   0  0  0  0  0  0  0  0  0  0  0  0
  -30.2950  -12.3800   19.0880 C   0  0  0  0  0  2  0  0  0  0  0  0
  -29.3120  -12.6810   17.9420 C   0  0  0  0  0  2  0  0  0  0  0  0
  -27.8580  -12.5050   18.4170 C   0  0  0  0  0  2  0  0  0  0  0  0
  -27.5720  -13.2670   19.7380 C   0  0  0  0  0  3  0  0  0  0  0  0
  -28.6580  -12.9620   20.7950 C   0  0  0  0  0  2  0  0  0  0  0  0
  -29.9810  -13.2700   20.2150 N   0  0  0  0  0  0  0  0  0  0  0  0
  -31.6750  -14.7370   19.7670 O   0  0  0  0  0  0  0  0  0  0  0  0
  -30.3620  -15.0680   21.5510 N   0  0  0  0  0  0  0  0  0  0  0  0
  -29.5660  -14.7330   22.0690 H   0  0  0  0  0  0  0  0  0  0  0  0
  -25.1830  -13.8370   20.5230 C   0  0  0  0  0  0  0  0  0  0  0  0
  -24.1310  -13.0470   20.9020 C   0  0  0  0  0  0  0  0  0  0  0  0
  -24.6040  -11.6990   20.8260 C   0  0  0  0  0  0  0  0  0  0  0  0
  -26.2310  -12.9720   20.2420 N   0  0  0  0  0  0  0  0  0  0  0  0
  -25.8840  -11.6790   20.4770 N   0  0  0  0  0  0  0  0  0  0  0  0
  -23.8960  -10.4250   21.0090 C   0  0  0  0  0  0  0  0  0  0  0  0
  -24.3230   -9.4720   21.9600 C   0  0  0  0  0  3  0  0  0  0  0  0
  -23.6160   -8.2620   22.1280 C   0  0  0  0  0  3  0  0  0  0  0  0
  -22.4690   -7.9960   21.3440 C   0  0  0  0  0  0  0  0  0  0  0  0
  -22.0610   -8.9370   20.3820 C   0  0  0  0  0  3  0  0  0  0  0  0
  -22.7690  -10.1390   20.2120 C   0  0  0  0  0  3  0  0  0  0  0  0
  -21.7350   -6.8360   21.4190 O   0  0  0  0  0  0  0  0  0  0  0  0
  -21.6380   -6.1200   22.5850 C   0  0  0  0  0  0  0  0  0  0  0  0
  -21.0940   -6.6820   23.7610 C   0  0  0  0  0  3  0  0  0  0  0  0
  -20.9490   -5.8890   24.9160 C   0  0  0  0  0  3  0  0  0  0  0  0
  -21.3380   -4.5370   24.8970 C   0  0  0  0  0  0  0  0  0  0  0  0
  -21.8770   -3.9760   23.7270 C   0  0  0  0  0  3  0  0  0  0  0  0
  -22.0230   -4.7660   22.5720 C   0  0  0  0  0  0  0  0  0  0  0  0
  -22.5220   -4.2150   21.4400 F   0  0  0  0  0  0  0  0  0  0  0  0
  -21.1930   -3.7720   26.0050 F   0  0  0  0  0  0  0  0  0  0  0  0
  -22.7380  -13.5030   21.2290 C   0  0  0  0  0  0  0  0  0  0  0  0
  -22.0370  -12.7700   22.0880 N   0  0  0  0  0  0  0  0  0  0  0  0
  -22.2790  -14.5430   20.7600 O   0  0  0  0  0  0  0  0  0  0  0  0
  -22.4210  -11.9300   22.4940 H   0  0  0  0  0  0  0  0  0  0  0  0
  -21.1040  -13.0580   22.3490 H   0  0  0  0  0  0  0  0  0  0  0  0
  -25.3330  -15.2120   20.3770 N   0  0  0  0  0  0  0  0  0  0  0  0
  -24.5730  -15.8650   20.5390 H   0  0  0  0  0  0  0  0  0  0  0  0
  -26.1890  -15.6670   20.0820 H   0  0  0  0  0  0  0  0  0  0  0  0
  1 55  1  0
  1  2  1  0
  2  3  1  0
  3  5  1  0
  4  8  1  0
  4  5  1  0
  5  7  1  0
  6  4  2  0
  9 11  2  0
 10  8  1  0
 10  9  1  0
 12 10  1  0
 13  9  1  0
 13 14  1  0
 15 26  2  0
 16 14  1  0
 16 21  1  0
 17 25  1  0
 17 27  1  0
 18 20  1  0
 19 25  1  0
 20 21  2  0
 20 19  1  0
 22 16  2  0
 23 22  1  0
 23 18  2  0
 24 18  1  0
 24 17  1  0
 25 15  1  0
 27 29  2  0
 28 27  1  0
 30 28  1  0
 31 40  2  0
 31 36  1  0
 32 28  1  0
 33 32  1  0
 34 35  1  0
 34 33  1  0
 35 31  1  0
 36 32  1  0
 36 37  2  0
 38 37  1  0
 39 38  2  0
 40 39  1  0
 41 15  1  0
 41 46  1  0
 41 42  1  0
 42 45  1  1
 42 43  1  0
 44 42  1  0
 46 49  1  0
 47 51  1  0
 47 46  1  0
 48 47  2  0
 51 50  1  0
 53 51  1  0
 53 54  1  0
 53 52  1  0
 56 57  1  0
 56 55  1  0
 58 60  1  0
 58 57  1  0
 59 61  2  0
 59 63  1  0
 60 59  1  0
 62 60  1  0
 63 65  1  0
 64 68  1  0
 65 64  1  0
 65 67  1  0
 66 64  2  0
 69 77  1  0
 70 75  1  0
 71 72  1  0
 71 70  1  0
 73 72  1  0
 73 82  1  0
 73 74  1  0
 75 69  1  0
 75 74  1  0
 76 69  2  0
 77 68  1  0
 77 78  1  0
 79 80  2  0
 80 99  1  0
 81 80  1  0
 81 84  1  0
 82 83  1  0
 82 79  1  0
 83 81  2  0
 84 85  1  0
 85 86  2  0
 87 90  1  0
 87 86  1  0
 88 87  2  0
 89 88  1  0
 89 84  2  0
 90 91  1  0
 91 92  1  0
 92 93  2  0
 94 93  1  0
 94 98  1  0
 95 94  2  0
 96 91  2  0
 96 95  1  0
 97 96  1  0
 99100  1  0
100103  1  0
100102  1  0
101 99  2  0
104 79  1  0
104105  1  0
106104  1  0
M  ISO  4  13 101  14 101  69 100  77 100
M  END
>  <TORSDO>  (56) 
F 30

>  <SCORE>  (56) 
-9.995

>  <name>  (56) 
56

>  <ligand_id>  (56) 
56

>  <original_smiles>  (56) 
[H]c1c([H])c([H])c2c(c1[H])C([H])([H])C([H])([H])C([H])([H])C2([H])N([H])C(=O)C1([H])N(C(=O)C([H])(N([H])C(=O)C([H])(N([H])C([H])([H])[H])C([H])([H])[H])C(C([H])([H])[H])(C([H])([H])[H])C([H])([H])[H])C([H])([H])c2c([H])c(OC([H])([H])C(=O)N([H])C([H])([H])C(=O)N([H])C([H])([H])C([H])([H])C([H])([H])C([H])([H])C([H])([H])C([H])([H])C([H])([H])N([H])C(=O)C([H])([H])N([H])C(=O)C([H])([H])N([H])C(=O)N3C([H])([H])C([H])([H])C([H])([H])C([H])(n4nc(-c5c([H])c([H])c(Oc6c([H])c([H])c(F)c([H])c6F)c([H])c5[H])c(C(=O)N([H])[H])c4N([H])[H])C3([H])[H])c([H])c([H])c2C1([H])[H]

>  <smiles>  (56) 
[H]c1c([H])c([H])c2c(c1[H])C([H])([H])C([H])([H])C([H])([H])C2([H])N([H])C(=O)C1([H])N(C(=O)C([H])(N([H])C(=O)C([H])(N([H])C([H])([H])[H])C([H])([H])[H])C(C([H])([H])[H])(C([H])([H])[H])C([H])([H])[H])C([H])([H])c2c([H])c(OC([H])([H])C(=O)N([H])C([H])([H])C(=O)N([H])C([H])([H])C([H])([H])C([H])([H])C([H])([H])C([H])([H])C([H])([H])C([H])([H])N([H])C(=O)C([H])([H])N([H])C(=O)C([H])([H])N([H])C(=O)N3C([H])([H])C([H])([H])C([H])([H])C([H])(n4nc(-c5c([H])c([H])c(Oc6c([H])c([H])c(F)c([H])c6F)c([H])c5[H])c(C(=O)N([H])[H])c4N([H])[H])C3([H])[H])c([H])c([H])c2C1([H])[H]

$$$$
58:0:0
     RDKit          3D

100107  0  0  1  0  0  0  0  0999 V2000
  -25.0380  -21.3030   17.6740 C   0  0  0  0  0  2  0  0  0  0  0  0
  -25.1930  -21.9520   19.0750 C   0  0  0  0  0  2  0  0  0  0  0  0
  -26.6410  -22.4080   19.3290 C   0  0  0  0  0  2  0  0  0  0  0  0
  -26.9620  -22.7520   20.8060 C   0  0  0  0  0  2  0  0  0  0  0  0
  -28.1900  -23.5680   20.9690 N   0  0  0  0  0  4  0  0  0  0  0  0
  -29.0020  -23.0300   20.7070 H   0  0  0  0  0  0  0  0  0  0  0  0
  -28.2820  -23.7840   21.9530 H   0  0  0  0  0  0  0  0  0  0  0  0
  -28.1330  -24.8220   20.1880 C   0  0  0  0  0  2  0  0  0  0  0  0
  -28.7700  -26.0510   20.8370 C   0  0  0  0  0  2  0  0  0  0  0  0
  -28.6360  -27.1490   19.9330 O   0  0  0  0  0  0  0  0  0  0  0  0
  -24.6940  -31.9320   23.3960 C   0  0  0  0  0  0  0  0  0  0  0  0
  -27.4420  -27.8260   19.9940 C   0  0  0  0  0  0  0  0  0  0  0  0
  -23.5230  -30.6640   21.6230 C   0  0  0  0  0  3  0  0  0  0  0  0
  -25.0140  -29.2650   20.0990 C   0  0  0  0  0  0  0  0  0  0  0  0
  -26.0450  -31.0630   21.4980 C   0  0  0  0  0  2  0  0  0  0  0  0
  -26.1510  -29.7510   20.7570 C   0  0  0  0  0  0  0  0  0  0  0  0
  -27.3640  -29.0320   20.7180 C   0  0  0  0  0  3  0  0  0  0  0  0
  -26.3010  -27.3750   19.2910 C   0  0  0  0  0  3  0  0  0  0  0  0
  -25.0810  -28.0670   19.3690 C   0  0  0  0  0  3  0  0  0  0  0  0
  -23.7570  -30.1010   20.1960 C   0  0  0  0  0  2  0  0  0  0  0  0
  -24.7720  -31.2300   22.2330 N   0  0  0  0  0  0  0  0  0  0  0  0
  -23.6040  -32.1530   23.9390 O   0  0  0  0  0  0  0  0  0  0  0  0
  -22.8710  -29.5600   22.4840 C   0  0  0  0  0  0  0  0  0  0  0  0
  -21.5540  -29.3690   22.3090 N   0  0  0  0  0  0  0  0  0  0  0  0
  -23.5450  -28.8850   23.2680 O   0  0  0  0  0  0  0  0  0  0  0  0
  -21.0700  -29.9730   21.6580 H   0  0  0  0  0  0  0  0  0  0  0  0
  -18.1990  -28.0510   22.5820 C   0  0  0  0  0  0  0  0  0  0  0  0
  -20.7350  -28.3600   22.9810 C   0  0  0  0  0  3  0  0  0  0  0  0
  -20.9040  -26.9720   22.3210 C   0  0  0  0  0  2  0  0  0  0  0  0
  -19.8530  -26.6860   21.2420 C   0  0  0  0  0  2  0  0  0  0  0  0
  -18.4420  -26.7530   21.8320 C   0  0  0  0  0  2  0  0  0  0  0  0
  -19.2760  -28.8140   23.1080 C   0  0  0  0  0  0  0  0  0  0  0  0
  -18.9970  -30.0340   23.7620 C   0  0  0  0  0  3  0  0  0  0  0  0
  -17.6720  -30.4910   23.8960 C   0  0  0  0  0  3  0  0  0  0  0  0
  -16.6090  -29.7240   23.3870 C   0  0  0  0  0  3  0  0  0  0  0  0
  -16.8740  -28.5050   22.7390 C   0  0  0  0  0  3  0  0  0  0  0  0
  -25.9710  -32.5160   24.0830 C   0  0  0  0  0  3  0  0  0  0  0  0
  -25.6560  -33.8870   24.5050 N   0  0  0  0  0  0  0  0  0  0  0  0
  -26.0090  -34.9900   23.8310 C   0  0  0  0  0  0  0  0  0  0  0  0
  -26.7080  -34.9580   22.8130 O   0  0  0  0  0  0  0  0  0  0  0  0
  -25.0400  -33.9880   25.2990 H   0  0  0  0  0  0  0  0  0  0  0  0
  -24.2930  -36.8050   23.5530 C   0  0  0  0  0  1  0  0  0  0  0  0
  -25.5100  -36.3420   24.3700 C   0  0  0  0  0  3  0  0  0  0  0  0
  -27.6200  -37.1590   25.3220 C   0  0  0  0  0  1  0  0  0  0  0  0
  -26.5460  -37.3990   24.3610 N   0  0  0  0  0  0  0  0  0  0  0  0
  -26.1350  -38.3060   24.5640 H   0  0  0  0  0  0  0  0  0  0  0  0
  -26.4710  -31.6530   25.3060 C   0  0  1  0  0  0  0  0  0  0  0  0
  -25.3650  -31.3370   26.3380 C   0  0  0  0  0  1  0  0  0  0  0  0
  -27.0600  -30.3090   24.8170 C   0  0  0  0  0  1  0  0  0  0  0  0
  -27.6110  -32.3970   26.0390 C   0  0  0  0  0  1  0  0  0  0  0  0
  -24.0870  -20.0830   17.5520 C   0  0  0  0  0  2  0  0  0  0  0  0
  -24.4950  -18.7320   18.2140 C   0  0  0  0  0  2  0  0  0  0  0  0
  -25.5880  -18.8250   19.2120 N   0  0  0  0  0  4  0  0  0  0  0  0
  -25.3690  -18.1860   19.9550 H   0  0  0  0  0  0  0  0  0  0  0  0
  -25.5670  -19.7520   19.6040 H   0  0  0  0  0  0  0  0  0  0  0  0
  -26.9690  -18.5270   18.7570 C   0  0  0  0  0  2  0  0  0  0  0  0
  -27.9100  -18.4160   19.9730 C   0  0  0  0  0  2  0  0  0  0  0  0
  -29.9720  -17.2280   20.5810 C   0  0  0  0  0  0  0  0  0  0  0  0
  -29.2330  -17.8630   19.6640 N   0  0  0  0  0  0  0  0  0  0  0  0
  -29.5980  -17.0810   21.7480 O   0  0  0  0  0  0  0  0  0  0  0  0
  -29.6100  -17.9860   18.7290 H   0  0  0  0  0  0  0  0  0  0  0  0
  -31.3020  -16.6120   20.1740 C   0  0  0  0  0  2  0  0  0  0  0  0
  -31.6950  -14.2330   19.8970 C   0  0  0  0  0  0  0  0  0  0  0  0
  -31.1650  -12.0210   18.9770 C   0  0  0  0  0  2  0  0  0  0  0  0
  -30.2110  -12.1870   17.7760 C   0  0  0  0  0  2  0  0  0  0  0  0
  -28.7430  -12.2090   18.2480 C   0  0  0  0  0  2  0  0  0  0  0  0
  -28.5050  -13.1920   19.4220 C   0  0  0  0  0  3  0  0  0  0  0  0
  -29.5780  -12.9990   20.5250 C   0  0  0  0  0  2  0  0  0  0  0  0
  -30.9180  -13.1210   19.9140 N   0  0  0  0  0  0  0  0  0  0  0  0
  -32.6960  -14.3740   19.1840 O   0  0  0  0  0  0  0  0  0  0  0  0
  -31.2570  -15.2350   20.6440 N   0  0  0  0  0  0  0  0  0  0  0  0
  -30.4940  -15.0100   21.2690 H   0  0  0  0  0  0  0  0  0  0  0  0
  -26.2040  -14.0260   20.2310 C   0  0  0  0  0  0  0  0  0  0  0  0
  -25.0770  -13.3710   20.6520 C   0  0  0  0  0  0  0  0  0  0  0  0
  -25.3930  -11.9810   20.5850 C   0  0  0  0  0  0  0  0  0  0  0  0
  -27.1470  -13.0500   19.9590 N   0  0  0  0  0  0  0  0  0  0  0  0
  -26.6560  -11.8120   20.2120 N   0  0  0  0  0  0  0  0  0  0  0  0
  -24.5440  -10.8060   20.7980 C   0  0  0  0  0  0  0  0  0  0  0  0
  -24.8830   -9.8190   21.7490 C   0  0  0  0  0  3  0  0  0  0  0  0
  -24.0440   -8.7020   21.9500 C   0  0  0  0  0  3  0  0  0  0  0  0
  -22.8570   -8.5630   21.1960 C   0  0  0  0  0  0  0  0  0  0  0  0
  -22.5360   -9.5400   20.2360 C   0  0  0  0  0  3  0  0  0  0  0  0
  -23.3700  -10.6510   20.0350 C   0  0  0  0  0  3  0  0  0  0  0  0
  -21.9940   -7.4960   21.3060 O   0  0  0  0  0  0  0  0  0  0  0  0
  -21.8400   -6.8120   22.4840 C   0  0  0  0  0  0  0  0  0  0  0  0
  -21.4270   -7.4540   23.6720 C   0  0  0  0  0  3  0  0  0  0  0  0
  -21.2190   -6.6990   24.8450 C   0  0  0  0  0  3  0  0  0  0  0  0
  -21.4090   -5.3050   24.8290 C   0  0  0  0  0  0  0  0  0  0  0  0
  -21.8110   -4.6630   23.6450 C   0  0  0  0  0  3  0  0  0  0  0  0
  -22.0230   -5.4150   22.4760 C   0  0  0  0  0  0  0  0  0  0  0  0
  -22.3920   -4.7900   21.3320 F   0  0  0  0  0  0  0  0  0  0  0  0
  -21.1940   -4.5760   25.9500 F   0  0  0  0  0  0  0  0  0  0  0  0
  -23.7620  -13.9970   21.0050 C   0  0  0  0  0  0  0  0  0  0  0  0
  -23.0170  -13.3780   21.9160 N   0  0  0  0  0  0  0  0  0  0  0  0
  -23.4090  -15.0660   20.5090 O   0  0  0  0  0  0  0  0  0  0  0  0
  -23.3270  -12.5180   22.3490 H   0  0  0  0  0  0  0  0  0  0  0  0
  -22.1280  -13.7720   22.1870 H   0  0  0  0  0  0  0  0  0  0  0  0
  -26.4790  -15.3670   20.0450 N   0  0  0  0  0  0  0  0  0  0  0  0
  -25.7710  -16.0490   20.2610 H   0  0  0  0  0  0  0  0  0  0  0  0
  -27.4000  -15.7320   19.8550 H   0  0  0  0  0  0  0  0  0  0  0  0
  1  2  1  0
  2  3  1  0
  3  4  1  0
  4  5  1  0
  5  7  1  0
  6  5  1  0
  8  9  1  0
  8  5  1  0
 10 12  1  0
 10  9  1  0
 11 22  2  0
 12 17  1  0
 13 21  1  0
 13 23  1  0
 14 20  1  0
 14 16  1  0
 15 21  1  0
 16 15  1  0
 17 16  2  0
 18 19  1  0
 18 12  2  0
 19 14  2  0
 20 13  1  0
 21 11  1  0
 23 25  2  0
 24 23  1  0
 26 24  1  0
 27 36  2  0
 27 32  1  0
 28 24  1  0
 28 32  1  0
 29 28  1  0
 30 31  1  0
 30 29  1  0
 31 27  1  0
 32 33  2  0
 33 34  1  0
 35 34  2  0
 36 35  1  0
 37 11  1  0
 37 38  1  0
 37 47  1  0
 38 41  1  0
 39 43  1  0
 39 38  1  0
 40 39  2  0
 43 42  1  0
 45 43  1  0
 45 46  1  0
 45 44  1  0
 47 50  1  1
 47 48  1  0
 49 47  1  0
 51  1  1  0
 51 52  1  0
 52 53  1  0
 53 55  1  0
 53 54  1  0
 56 53  1  0
 56 57  1  0
 58 60  2  0
 59 57  1  0
 59 58  1  0
 61 59  1  0
 62 58  1  0
 62 71  1  0
 63 69  1  0
 63 71  1  0
 64 69  1  0
 65 66  1  0
 65 64  1  0
 67 66  1  0
 67 76  1  0
 67 68  1  0
 69 68  1  0
 70 63  2  0
 71 72  1  0
 73 74  2  0
 74 93  1  0
 75 74  1  0
 75 78  1  0
 76 77  1  0
 76 73  1  0
 77 75  2  0
 78 79  1  0
 79 80  2  0
 81 84  1  0
 81 80  1  0
 82 81  2  0
 83 82  1  0
 83 78  2  0
 84 85  1  0
 85 86  1  0
 86 87  2  0
 88 87  1  0
 88 92  1  0
 89 88  2  0
 90 85  2  0
 90 89  1  0
 91 90  1  0
 93 94  1  0
 94 97  1  0
 94 96  1  0
 95 93  2  0
 98 73  1  0
 98 99  1  0
100 98  1  0
M  ISO  4   9 101  10 101  63 100  71 100
M  END
>  <TORSDO>  (57) 
F 29

>  <SCORE>  (57) 
-8.064

>  <name>  (57) 
58

>  <ligand_id>  (57) 
58

>  <original_smiles>  (57) 
[H]c1c([H])c([H])c2c(c1[H])C([H])([H])C([H])([H])C([H])([H])C2([H])N([H])C(=O)C1([H])N(C(=O)C([H])(N([H])C(=O)C([H])(N([H])C([H])([H])[H])C([H])([H])[H])C(C([H])([H])[H])(C([H])([H])[H])C([H])([H])[H])C([H])([H])c2c([H])c(OC([H])([H])C([H])([H])[N+]([H])([H])C([H])([H])C([H])([H])C([H])([H])C([H])([H])C([H])([H])C([H])([H])[N+]([H])([H])C([H])([H])C([H])([H])N([H])C(=O)C([H])([H])N([H])C(=O)N3C([H])([H])C([H])([H])C([H])([H])C([H])(n4nc(-c5c([H])c([H])c(Oc6c([H])c([H])c(F)c([H])c6F)c([H])c5[H])c(C(=O)N([H])[H])c4N([H])[H])C3([H])[H])c([H])c([H])c2C1([H])[H]

>  <smiles>  (57) 
[H]c1c([H])c([H])c2c(c1[H])C([H])([H])C([H])([H])C([H])([H])C2([H])N([H])C(=O)C1([H])N(C(=O)C([H])(N([H])C(=O)C([H])(N([H])C([H])([H])[H])C([H])([H])[H])C(C([H])([H])[H])(C([H])([H])[H])C([H])([H])[H])C([H])([H])c2c([H])c(OC([H])([H])C([H])([H])[N+]([H])([H])C([H])([H])C([H])([H])C([H])([H])C([H])([H])C([H])([H])C([H])([H])[N+]([H])([H])C([H])([H])C([H])([H])N([H])C(=O)C([H])([H])N([H])C(=O)N3C([H])([H])C([H])([H])C([H])([H])C([H])(n4nc(-c5c([H])c([H])c(Oc6c([H])c([H])c(F)c([H])c6F)c([H])c5[H])c(C(=O)N([H])[H])c4N([H])[H])C3([H])[H])c([H])c([H])c2C1([H])[H]

$$$$
59:0:0
     RDKit          3D

 99106  0  0  1  0  0  0  0  0999 V2000
  -21.1910  -30.2480   22.0420 N   0  0  0  0  0  4  0  0  0  0  0  0
  -20.1930  -30.3640   22.1460 H   0  0  0  0  0  0  0  0  0  0  0  0
  -21.5080  -31.1630   21.7640 H   0  0  0  0  0  0  0  0  0  0  0  0
  -21.7140  -30.1790   23.7280 C   0  0  0  0  0  2  0  0  0  0  0  0
  -23.0060  -29.4050   24.7860 C   0  0  0  0  0  2  0  0  0  0  0  0
  -23.7560  -27.8310   25.0700 C   0  0  0  0  0  2  0  0  0  0  0  0
  -25.4020  -27.1920   24.9540 C   0  0  0  0  0  2  0  0  0  0  0  0
  -26.4590  -26.9440   23.6180 C   0  0  0  0  0  3  0  0  0  0  0  0
  -28.0120  -26.5380   23.2920 C   0  0  0  0  0  3  0  0  0  0  0  0
  -28.6280  -26.6100   21.8690 O   0  0  0  0  0  0  0  0  0  0  0  0
  -24.6940  -31.7090   23.0340 C   0  0  0  0  0  0  0  0  0  0  0  0
  -27.9490  -27.3940   20.9800 C   0  0  0  0  0  0  0  0  0  0  0  0
  -23.9470  -29.9080   21.3160 C   0  0  0  0  0  3  0  0  0  0  0  0
  -25.8380  -28.9010   19.9960 C   0  0  0  0  0  0  0  0  0  0  0  0
  -26.3780  -30.7450   21.5740 C   0  0  0  0  0  2  0  0  0  0  0  0
  -26.7400  -29.4530   20.8970 C   0  0  0  0  0  0  0  0  0  0  0  0
  -27.8790  -28.7570   21.2840 C   0  0  0  0  0  3  0  0  0  0  0  0
  -27.1000  -26.8170   20.0120 C   0  0  0  0  0  3  0  0  0  0  0  0
  -26.0230  -27.5770   19.5200 C   0  0  0  0  0  3  0  0  0  0  0  0
  -24.5630  -29.7390   19.8790 C   0  0  0  0  0  2  0  0  0  0  0  0
  -24.9860  -30.7650   22.0730 N   0  0  0  0  0  0  0  0  0  0  0  0
  -23.5320  -32.0350   23.2810 O   0  0  0  0  0  0  0  0  0  0  0  0
  -23.6610  -28.5400   22.1590 C   0  0  0  0  0  0  0  0  0  0  0  0
  -22.5370  -27.7180   22.5680 N   0  0  0  0  0  0  0  0  0  0  0  0
  -24.5760  -28.2270   22.7250 O   0  0  0  0  0  0  0  0  0  0  0  0
  -23.0200  -27.0020   23.1020 H   0  0  0  0  0  0  0  0  0  0  0  0
  -18.4600  -27.3390   22.1290 C   0  0  0  0  0  0  0  0  0  0  0  0
  -20.9990  -27.3620   22.7010 C   0  0  0  0  0  3  0  0  0  0  0  0
  -20.8640  -25.8700   22.6610 C   0  0  0  0  0  2  0  0  0  0  0  0
  -20.1130  -25.4170   21.3880 C   0  0  0  0  0  2  0  0  0  0  0  0
  -18.6900  -25.9730   21.4540 C   0  0  0  0  0  2  0  0  0  0  0  0
  -19.5180  -28.0750   22.7630 C   0  0  0  0  0  0  0  0  0  0  0  0
  -19.0330  -29.2920   23.3960 C   0  0  0  0  0  3  0  0  0  0  0  0
  -17.7240  -29.7820   23.3080 C   0  0  0  0  0  3  0  0  0  0  0  0
  -16.7450  -29.0400   22.6630 C   0  0  0  0  0  3  0  0  0  0  0  0
  -17.1290  -27.8130   22.0920 C   0  0  0  0  0  3  0  0  0  0  0  0
  -25.7890  -32.4380   23.9060 C   0  0  0  0  0  3  0  0  0  0  0  0
  -25.3330  -33.8110   24.1300 N   0  0  0  0  0  0  0  0  0  0  0  0
  -25.7080  -34.8680   23.4020 C   0  0  0  0  0  0  0  0  0  0  0  0
  -26.5360  -34.7930   22.4910 O   0  0  0  0  0  0  0  0  0  0  0  0
  -24.6410  -33.9530   24.8450 H   0  0  0  0  0  0  0  0  0  0  0  0
  -23.9350  -36.5120   22.7240 C   0  0  0  0  0  1  0  0  0  0  0  0
  -25.0660  -36.2280   23.7300 C   0  0  0  0  0  3  0  0  0  0  0  0
  -26.9880  -37.2790   24.8320 C   0  0  0  0  0  1  0  0  0  0  0  0
  -26.0330  -37.3490   23.7290 N   0  0  0  0  0  0  0  0  0  0  0  0
  -25.5500  -38.2390   23.7920 H   0  0  0  0  0  0  0  0  0  0  0  0
  -26.1520  -31.7900   25.3090 C   0  0  1  0  0  0  0  0  0  0  0  0
  -24.9600  -31.5590   26.2710 C   0  0  0  0  0  1  0  0  0  0  0  0
  -26.9030  -30.4680   25.1000 C   0  0  0  0  0  1  0  0  0  0  0  0
  -27.1390  -32.6980   26.0830 C   0  0  0  0  0  1  0  0  0  0  0  0
  -21.3260  -29.3120   20.5380 C   0  0  0  0  0  2  0  0  0  0  0  0
  -22.3080  -27.7820   19.8270 C   0  0  0  0  0  3  0  0  0  0  0  0
  -23.3320  -26.2260   20.1910 C   0  0  0  0  0  3  0  0  0  0  0  0
  -24.4720  -24.9010   19.5010 C   0  0  0  0  0  2  0  0  0  0  0  0
  -25.7390  -23.6700   20.0460 C   0  0  0  0  0  3  0  0  0  0  0  0
  -26.3440  -22.0520   19.3910 C   0  0  0  0  0  3  0  0  0  0  0  0
  -27.9210  -19.4990   19.3710 C   0  0  0  0  0  0  0  0  0  0  0  0
  -27.5230  -20.8870   19.8170 N   0  0  0  0  0  0  0  0  0  0  0  0
  -27.2240  -19.0990   18.4300 O   0  0  0  0  0  0  0  0  0  0  0  0
  -28.1030  -21.2210   20.5750 H   0  0  0  0  0  0  0  0  0  0  0  0
  -29.2110  -18.3200   19.8070 C   0  0  0  0  0  2  0  0  0  0  0  0
  -30.6250  -15.5960   19.7500 C   0  0  0  0  0  0  0  0  0  0  0  0
  -30.8740  -13.1170   19.0070 C   0  0  0  0  0  2  0  0  0  0  0  0
  -29.9220  -12.8350   17.8110 C   0  0  0  0  0  2  0  0  0  0  0  0
  -28.4750  -12.6330   18.2960 C   0  0  0  0  0  2  0  0  0  0  0  0
  -28.0890  -13.6620   19.3800 C   0  0  0  0  0  3  0  0  0  0  0  0
  -29.1230  -13.6880   20.5030 C   0  0  0  0  0  2  0  0  0  0  0  0
  -30.3080  -14.2230   19.8610 N   0  0  0  0  0  0  0  0  0  0  0  0
  -31.7930  -15.7540   19.3330 O   0  0  0  0  0  0  0  0  0  0  0  0
  -29.6170  -16.6770   19.9930 N   0  0  0  0  0  0  0  0  0  0  0  0
  -28.9460  -16.2580   20.6330 H   0  0  0  0  0  0  0  0  0  0  0  0
  -25.8370  -14.4000   20.2620 C   0  0  0  0  0  0  0  0  0  0  0  0
  -24.7520  -13.7010   20.6840 C   0  0  0  0  0  0  0  0  0  0  0  0
  -25.1130  -12.3170   20.6000 C   0  0  0  0  0  0  0  0  0  0  0  0
  -26.7770  -13.4510   19.9240 N   0  0  0  0  0  0  0  0  0  0  0  0
  -26.3700  -12.1920   20.2030 N   0  0  0  0  0  0  0  0  0  0  0  0
  -24.3180  -11.1080   20.8080 C   0  0  0  0  0  0  0  0  0  0  0  0
  -24.7260  -10.1010   21.7120 C   0  0  0  0  0  3  0  0  0  0  0  0
  -23.9310   -8.9520   21.9070 C   0  0  0  0  0  3  0  0  0  0  0  0
  -22.7150   -8.8050   21.1990 C   0  0  0  0  0  0  0  0  0  0  0  0
  -22.3280   -9.7970   20.2800 C   0  0  0  0  0  3  0  0  0  0  0  0
  -23.1230  -10.9360   20.0840 C   0  0  0  0  0  3  0  0  0  0  0  0
  -21.8910   -7.7120   21.3030 O   0  0  0  0  0  0  0  0  0  0  0  0
  -21.8170   -6.9770   22.4600 C   0  0  0  0  0  0  0  0  0  0  0  0
  -21.4860   -7.5680   23.7000 C   0  0  0  0  0  3  0  0  0  0  0  0
  -21.3520   -6.7640   24.8480 C   0  0  0  0  0  3  0  0  0  0  0  0
  -21.5460   -5.3730   24.7600 C   0  0  0  0  0  0  0  0  0  0  0  0
  -21.8700   -4.7830   23.5260 C   0  0  0  0  0  3  0  0  0  0  0  0
  -22.0040   -5.5830   22.3780 C   0  0  0  0  0  0  0  0  0  0  0  0
  -22.2980   -5.0110   21.1870 F   0  0  0  0  0  0  0  0  0  0  0  0
  -21.4090   -4.5980   25.8610 F   0  0  0  0  0  0  0  0  0  0  0  0
  -23.4120  -14.2700   21.0350 C   0  0  0  0  0  0  0  0  0  0  0  0
  -22.6890  -13.6210   21.9330 N   0  0  0  0  0  0  0  0  0  0  0  0
  -23.0240  -15.3310   20.5390 O   0  0  0  0  0  0  0  0  0  0  0  0
  -23.0280  -12.7660   22.3560 H   0  0  0  0  0  0  0  0  0  0  0  0
  -21.7870  -13.9810   22.2110 H   0  0  0  0  0  0  0  0  0  0  0  0
  -26.0950  -15.7630   20.1020 N   0  0  0  0  0  0  0  0  0  0  0  0
  -25.3540  -16.4340   20.2690 H   0  0  0  0  0  0  0  0  0  0  0  0
  -26.8180  -16.1210   19.4890 H   0  0  0  0  0  0  0  0  0  0  0  0
  1  2  1  0
  1  4  1  0
  3  1  1  0
  4  5  1  0
  5  6  1  0
  7  6  1  0
  8  7  1  0
  9  8  2  0
 10  9  1  0
 11 22  2  0
 12 17  1  0
 12 10  1  0
 13 21  1  0
 13 23  1  0
 14 16  1  0
 15 21  1  0
 16 17  2  0
 16 15  1  0
 18 12  2  0
 19 14  2  0
 19 18  1  0
 20 14  1  0
 20 13  1  0
 21 11  1  0
 23 24  1  0
 23 25  2  0
 24 26  1  0
 27 32  1  0
 28 24  1  0
 28 32  1  0
 29 28  1  0
 30 31  1  0
 30 29  1  0
 31 27  1  0
 32 33  2  0
 34 33  1  0
 35 34  2  0
 36 27  2  0
 36 35  1  0
 37 11  1  0
 37 38  1  0
 37 47  1  0
 38 41  1  0
 39 43  1  0
 39 38  1  0
 40 39  2  0
 43 42  1  0
 45 43  1  0
 45 46  1  0
 45 44  1  0
 47 50  1  1
 47 48  1  0
 49 47  1  0
 51  1  1  0
 52 53  2  0
 52 51  1  0
 54 55  1  0
 54 53  1  0
 56 58  1  0
 56 55  2  0
 57 61  1  0
 57 58  1  0
 58 60  1  0
 59 57  2  0
 61 70  1  0
 62 68  1  0
 62 70  1  0
 63 68  1  0
 64 65  1  0
 64 63  1  0
 66 65  1  0
 66 75  1  0
 66 67  1  0
 68 67  1  0
 69 62  2  0
 70 71  1  0
 72 73  2  0
 73 92  1  0
 74 73  1  0
 74 77  1  0
 75 76  1  0
 75 72  1  0
 76 74  2  0
 77 78  1  0
 78 79  2  0
 80 83  1  0
 80 79  1  0
 81 80  2  0
 82 81  1  0
 82 77  2  0
 83 84  1  0
 84 85  1  0
 85 86  2  0
 87 86  1  0
 87 91  1  0
 88 87  2  0
 89 84  2  0
 89 88  1  0
 90 89  1  0
 92 93  1  0
 93 96  1  0
 93 95  1  0
 94 92  2  0
 97 72  1  0
 97 98  1  0
 99 97  1  0
M  ISO  4   9 101  10 101  62 100  70 100
M  END
>  <TORSDO>  (58) 
F 30

>  <SCORE>  (58) 
-11.793

>  <name>  (58) 
59

>  <ligand_id>  (58) 
59

>  <original_smiles>  (58) 
[H]c1c([H])c([H])c2c(c1[H])C([H])([H])C([H])([H])C([H])([H])C2([H])N([H])C(=O)C1([H])N(C(=O)C([H])(N([H])C(=O)C([H])(N([H])C([H])([H])[H])C([H])([H])[H])C(C([H])([H])[H])(C([H])([H])[H])C([H])([H])[H])C([H])([H])c2c([H])c(OC([H])([H])C([H])([H])C([H])([H])C([H])([H])C([H])([H])C([H])([H])[N+]([H])([H])C([H])([H])C([H])([H])C([H])([H])C([H])([H])C([H])([H])C([H])([H])N([H])C(=O)C([H])([H])N([H])C(=O)N3C([H])([H])C([H])([H])C([H])([H])C([H])(n4nc(-c5c([H])c([H])c(Oc6c([H])c([H])c(F)c([H])c6F)c([H])c5[H])c(C(=O)N([H])[H])c4N([H])[H])C3([H])[H])c([H])c([H])c2C1([H])[H]

>  <smiles>  (58) 
[H]c1c([H])c([H])c2c(c1[H])C([H])([H])C([H])([H])C([H])([H])C2([H])N([H])C(=O)C1([H])N(C(=O)C([H])(N([H])C(=O)C([H])(N([H])C([H])([H])[H])C([H])([H])[H])C(C([H])([H])[H])(C([H])([H])[H])C([H])([H])[H])C([H])([H])c2c([H])c(OC([H])([H])C([H])([H])C([H])([H])C([H])([H])C([H])([H])C([H])([H])[N+]([H])([H])C([H])([H])C([H])([H])C([H])([H])C([H])([H])C([H])([H])C([H])([H])N([H])C(=O)C([H])([H])N([H])C(=O)N3C([H])([H])C([H])([H])C([H])([H])C([H])(n4nc(-c5c([H])c([H])c(Oc6c([H])c([H])c(F)c([H])c6F)c([H])c5[H])c(C(=O)N([H])[H])c4N([H])[H])C3([H])[H])c([H])c([H])c2C1([H])[H]

$$$$
60:0:0
     RDKit          3D

104111  0  0  1  0  0  0  0  0999 V2000
  -30.1420  -25.7850   23.9410 C   0  0  0  0  0  2  0  0  0  0  0  0
  -31.5940  -25.7280   24.4580 C   0  0  0  0  0  2  0  0  0  0  0  0
  -32.6620  -25.6070   23.3520 C   0  0  0  0  0  2  0  0  0  0  0  0
  -32.3730  -23.2800   22.5460 C   0  0  0  0  0  0  0  0  0  0  0  0
  -32.3020  -24.6000   22.3600 N   0  0  0  0  0  0  0  0  0  0  0  0
  -32.9350  -22.7750   23.5230 O   0  0  0  0  0  0  0  0  0  0  0  0
  -31.8680  -24.9390   21.5120 H   0  0  0  0  0  0  0  0  0  0  0  0
  -31.6770  -22.4030   21.5050 C   0  0  0  0  0  2  0  0  0  0  0  0
  -31.4340  -19.9410   21.2560 C   0  0  0  0  0  0  0  0  0  0  0  0
  -31.5720  -21.0370   22.0030 N   0  0  0  0  0  0  0  0  0  0  0  0
  -31.3550  -19.9910   20.0270 O   0  0  0  0  0  0  0  0  0  0  0  0
  -31.6870  -20.9440   23.0030 H   0  0  0  0  0  0  0  0  0  0  0  0
  -31.3990  -18.7330   22.0640 C   0  0  0  0  0  3  0  0  0  0  0  0
  -31.2580  -17.5160   21.5020 C   0  0  0  0  0  3  0  0  0  0  0  0
  -31.2470  -16.2140   22.2910 C   0  0  0  0  0  2  0  0  0  0  0  0
  -30.8020  -14.3740   20.6740 C   0  0  0  0  0  0  0  0  0  0  0  0
  -30.4120  -12.2940   19.4050 C   0  0  0  0  0  2  0  0  0  0  0  0
  -29.4820  -12.5180   18.1980 C   0  0  0  0  0  2  0  0  0  0  0  0
  -28.0100  -12.3680   18.6190 C   0  0  0  0  0  2  0  0  0  0  0  0
  -27.6660  -13.2080   19.8770 C   0  0  0  0  0  3  0  0  0  0  0  0
  -28.7080  -12.9890   20.9980 C   0  0  0  0  0  2  0  0  0  0  0  0
  -30.0510  -13.2610   20.4540 N   0  0  0  0  0  0  0  0  0  0  0  0
  -31.8230  -14.6350   20.0340 O   0  0  0  0  0  0  0  0  0  0  0  0
  -30.4220  -15.1560   21.6960 N   0  0  0  0  0  0  0  0  0  0  0  0
  -29.5790  -14.8900   22.1830 H   0  0  0  0  0  0  0  0  0  0  0  0
  -25.2590  -13.8160   20.5690 C   0  0  0  0  0  0  0  0  0  0  0  0
  -24.1850  -13.0460   20.9170 C   0  0  0  0  0  0  0  0  0  0  0  0
  -24.6400  -11.6910   20.8730 C   0  0  0  0  0  0  0  0  0  0  0  0
  -26.3050  -12.9350   20.3400 N   0  0  0  0  0  0  0  0  0  0  0  0
  -25.9330  -11.6500   20.5780 N   0  0  0  0  0  0  0  0  0  0  0  0
  -23.9070  -10.4300   21.0400 C   0  0  0  0  0  0  0  0  0  0  0  0
  -24.3620   -9.4210   21.9180 C   0  0  0  0  0  3  0  0  0  0  0  0
  -23.6290   -8.2240   22.0750 C   0  0  0  0  0  3  0  0  0  0  0  0
  -22.4270   -8.0280   21.3550 C   0  0  0  0  0  0  0  0  0  0  0  0
  -21.9910   -9.0260   20.4650 C   0  0  0  0  0  3  0  0  0  0  0  0
  -22.7240  -10.2130   20.3060 C   0  0  0  0  0  3  0  0  0  0  0  0
  -21.6640   -6.8870   21.4240 O   0  0  0  0  0  0  0  0  0  0  0  0
  -21.6860   -6.0730   22.5290 C   0  0  0  0  0  0  0  0  0  0  0  0
  -21.4010   -6.5640   23.8210 C   0  0  0  0  0  3  0  0  0  0  0  0
  -21.3660   -5.6790   24.9180 C   0  0  0  0  0  3  0  0  0  0  0  0
  -21.6050   -4.3050   24.7230 C   0  0  0  0  0  0  0  0  0  0  0  0
  -21.8820   -3.8140   23.4350 C   0  0  0  0  0  3  0  0  0  0  0  0
  -21.9190   -4.6960   22.3410 C   0  0  0  0  0  0  0  0  0  0  0  0
  -22.1660   -4.2140   21.0980 F   0  0  0  0  0  0  0  0  0  0  0  0
  -21.5630   -3.4540   25.7740 F   0  0  0  0  0  0  0  0  0  0  0  0
  -22.7860  -13.5240   21.1830 C   0  0  0  0  0  0  0  0  0  0  0  0
  -22.0510  -12.8250   22.0390 N   0  0  0  0  0  0  0  0  0  0  0  0
  -22.3560  -14.5560   20.6680 O   0  0  0  0  0  0  0  0  0  0  0  0
  -22.4110  -11.9900   22.4780 H   0  0  0  0  0  0  0  0  0  0  0  0
  -21.1140  -13.1280   22.2600 H   0  0  0  0  0  0  0  0  0  0  0  0
  -25.4330  -15.1890   20.4090 N   0  0  0  0  0  0  0  0  0  0  0  0
  -24.6720  -15.8480   20.5240 H   0  0  0  0  0  0  0  0  0  0  0  0
  -26.2960  -15.6260   20.1120 H   0  0  0  0  0  0  0  0  0  0  0  0
  -29.2480  -26.6020   24.8940 C   0  0  0  0  0  2  0  0  0  0  0  0
  -27.7830  -26.7060   24.4450 C   0  0  0  0  0  2  0  0  0  0  0  0
  -26.9960  -25.3990   24.6600 C   0  0  0  0  0  2  0  0  0  0  0  0
  -25.9550  -25.1100   23.5680 C   0  0  0  0  0  2  0  0  0  0  0  0
  -27.3890  -24.2680   21.6810 C   0  0  0  0  0  0  0  0  0  0  0  0
  -26.5120  -25.1300   22.2150 N   0  0  0  0  0  0  0  0  0  0  0  0
  -27.9710  -23.3990   22.3290 O   0  0  0  0  0  0  0  0  0  0  0  0
  -26.1610  -25.8540   21.6000 H   0  0  0  0  0  0  0  0  0  0  0  0
  -27.5470  -24.3250   20.1640 C   0  0  0  0  0  2  0  0  0  0  0  0
  -28.5120  -25.4070   19.6090 C   0  0  0  0  0  2  0  0  0  0  0  0
  -28.4100  -26.7460   20.1180 O   0  0  0  0  0  0  0  0  0  0  0  0
  -24.6160  -31.8690   23.2110 C   0  0  0  0  0  0  0  0  0  0  0  0
  -27.2300  -27.4560   20.0610 C   0  0  0  0  0  0  0  0  0  0  0  0
  -23.4010  -30.4970   21.5500 C   0  0  0  0  0  3  0  0  0  0  0  0
  -24.8450  -28.9710   20.1050 C   0  0  0  0  0  0  0  0  0  0  0  0
  -25.9310  -30.8340   21.3690 C   0  0  0  0  0  2  0  0  0  0  0  0
  -26.0000  -29.4710   20.7150 C   0  0  0  0  0  0  0  0  0  0  0  0
  -27.1920  -28.7120   20.7030 C   0  0  0  0  0  3  0  0  0  0  0  0
  -26.0680  -26.9970   19.3990 C   0  0  0  0  0  3  0  0  0  0  0  0
  -24.8690  -27.7290   19.4490 C   0  0  0  0  0  3  0  0  0  0  0  0
  -23.6140  -29.8440   20.1580 C   0  0  0  0  0  2  0  0  0  0  0  0
  -24.6670  -31.0810   22.1010 N   0  0  0  0  0  0  0  0  0  0  0  0
  -23.5350  -32.1410   23.7520 O   0  0  0  0  0  0  0  0  0  0  0  0
  -22.7420  -29.4690   22.4960 C   0  0  0  0  0  0  0  0  0  0  0  0
  -21.4120  -29.3170   22.3800 N   0  0  0  0  0  0  0  0  0  0  0  0
  -23.4210  -28.8150   23.2910 O   0  0  0  0  0  0  0  0  0  0  0  0
  -20.9250  -29.9130   21.7240 H   0  0  0  0  0  0  0  0  0  0  0  0
  -18.0230  -28.1400   22.8620 C   0  0  0  0  0  0  0  0  0  0  0  0
  -20.5840  -28.3730   23.1290 C   0  0  0  0  0  3  0  0  0  0  0  0
  -20.6740  -26.9510   22.5280 C   0  0  0  0  0  2  0  0  0  0  0  0
  -19.5550  -26.6350   21.5290 C   0  0  0  0  0  2  0  0  0  0  0  0
  -18.1850  -26.7860   22.1960 C   0  0  0  0  0  2  0  0  0  0  0  0
  -19.1480  -28.8910   23.2930 C   0  0  0  0  0  0  0  0  0  0  0  0
  -18.9430  -30.1540   23.8910 C   0  0  0  0  0  3  0  0  0  0  0  0
  -17.6430  -30.6680   24.0560 C   0  0  0  0  0  3  0  0  0  0  0  0
  -16.5310  -29.9170   23.6340 C   0  0  0  0  0  3  0  0  0  0  0  0
  -16.7220  -28.6550   23.0440 C   0  0  0  0  0  3  0  0  0  0  0  0
  -25.9090  -32.4820   23.8360 C   0  0  0  0  0  3  0  0  0  0  0  0
  -25.5940  -33.8610   24.2310 N   0  0  0  0  0  0  0  0  0  0  0  0
  -25.9030  -34.9470   23.5090 C   0  0  0  0  0  0  0  0  0  0  0  0
  -26.5560  -34.8930   22.4630 O   0  0  0  0  0  0  0  0  0  0  0  0
  -25.0250  -33.9770   25.0560 H   0  0  0  0  0  0  0  0  0  0  0  0
  -24.1490  -36.7350   23.2580 C   0  0  0  0  0  1  0  0  0  0  0  0
  -25.4090  -36.3100   24.0310 C   0  0  0  0  0  3  0  0  0  0  0  0
  -27.5590  -37.1810   24.8460 C   0  0  0  0  0  1  0  0  0  0  0  0
  -26.4250  -37.3810   23.9470 N   0  0  0  0  0  0  0  0  0  0  0  0
  -26.0110  -38.2860   24.1550 H   0  0  0  0  0  0  0  0  0  0  0  0
  -26.4520  -31.6600   25.0680 C   0  0  1  0  0  0  0  0  0  0  0  0
  -25.3780  -31.3800   26.1420 C   0  0  0  0  0  1  0  0  0  0  0  0
  -27.0260  -30.2990   24.6150 C   0  0  0  0  0  1  0  0  0  0  0  0
  -27.6220  -32.4190   25.7360 C   0  0  0  0  0  1  0  0  0  0  0  0
  1  2  1  0
  1 54  1  0
  3  2  1  0
  4  6  2  0
  5  4  1  0
  5  3  1  0
  7  5  1  0
  8 10  1  0
  8  4  1  0
  9 10  1  0
  9 13  1  0
 10 12  1  0
 11  9  2  0
 14 13  2  0
 14 15  1  0
 16 24  1  0
 17 22  1  0
 18 19  1  0
 18 17  1  0
 20 19  1  0
 20 29  1  0
 20 21  1  0
 22 16  1  0
 22 21  1  0
 23 16  2  0
 24 25  1  0
 24 15  1  0
 26 27  2  0
 27 46  1  0
 28 27  1  0
 28 31  1  0
 29 26  1  0
 29 30  1  0
 30 28  2  0
 31 32  1  0
 32 33  2  0
 34 37  1  0
 34 33  1  0
 35 34  2  0
 36 35  1  0
 36 31  2  0
 37 38  1  0
 38 39  1  0
 39 40  2  0
 41 40  1  0
 41 45  1  0
 42 41  2  0
 43 38  2  0
 43 42  1  0
 44 43  1  0
 46 47  1  0
 47 50  1  0
 47 49  1  0
 48 46  2  0
 51 52  1  0
 51 26  1  0
 53 51  1  0
 55 56  1  0
 55 54  1  0
 57 56  1  0
 58 59  1  0
 58 60  2  0
 59 57  1  0
 61 59  1  0
 62 58  1  0
 63 64  1  0
 63 62  1  0
 65 76  2  0
 66 64  1  0
 66 71  1  0
 67 75  1  0
 67 77  1  0
 68 74  1  0
 68 70  1  0
 69 75  1  0
 70 69  1  0
 71 70  2  0
 72 73  1  0
 72 66  2  0
 73 68  2  0
 74 67  1  0
 75 65  1  0
 77 79  2  0
 78 77  1  0
 80 78  1  0
 81 90  2  0
 81 86  1  0
 82 78  1  0
 82 86  1  0
 83 82  1  0
 84 85  1  0
 84 83  1  0
 85 81  1  0
 86 87  2  0
 87 88  1  0
 89 88  2  0
 90 89  1  0
 91 65  1  0
 91 92  1  0
 91101  1  0
 92 95  1  0
 93 97  1  0
 93 92  1  0
 94 93  2  0
 97 96  1  0
 99 97  1  0
 99100  1  0
 99 98  1  0
101104  1  1
101102  1  0
103101  1  0
M  ISO  4  16 100  24 100  63 101  64 101
M  END
>  <TORSDO>  (59) 
F 30

>  <SCORE>  (59) 
5.889

>  <name>  (59) 
60

>  <ligand_id>  (59) 
60

>  <original_smiles>  (59) 
[H]C(C(=O)N([H])C([H])([H])C(=O)N([H])C([H])([H])C([H])([H])C([H])([H])C([H])([H])C([H])([H])C([H])([H])C([H])([H])N([H])C(=O)C([H])([H])C([H])([H])Oc1c([H])c([H])c2c(c1[H])C([H])([H])N(C(=O)C([H])(N([H])C(=O)C([H])(N([H])C([H])([H])[H])C([H])([H])[H])C(C([H])([H])[H])(C([H])([H])[H])C([H])([H])[H])C([H])(C(=O)N([H])C1([H])c3c([H])c([H])c([H])c([H])c3C([H])([H])C([H])([H])C1([H])[H])C2([H])[H])=C([H])C([H])([H])N([H])C(=O)N1C([H])([H])C([H])([H])C([H])([H])C([H])(n2nc(-c3c([H])c([H])c(Oc4c([H])c([H])c(F)c([H])c4F)c([H])c3[H])c(C(=O)N([H])[H])c2N([H])[H])C1([H])[H]

>  <smiles>  (59) 
[H]C(C(=O)N([H])C([H])([H])C(=O)N([H])C([H])([H])C([H])([H])C([H])([H])C([H])([H])C([H])([H])C([H])([H])C([H])([H])N([H])C(=O)C([H])([H])C([H])([H])Oc1c([H])c([H])c2c(c1[H])C([H])([H])N(C(=O)C([H])(N([H])C(=O)C([H])(N([H])C([H])([H])[H])C([H])([H])[H])C(C([H])([H])[H])(C([H])([H])[H])C([H])([H])[H])C([H])(C(=O)N([H])C1([H])c3c([H])c([H])c([H])c([H])c3C([H])([H])C([H])([H])C1([H])[H])C2([H])[H])=C([H])C([H])([H])N([H])C(=O)N1C([H])([H])C([H])([H])C([H])([H])C([H])(n2nc(-c3c([H])c([H])c(Oc4c([H])c([H])c(F)c([H])c4F)c([H])c3[H])c(C(=O)N([H])[H])c2N([H])[H])C1([H])[H]

$$$$
61:0:0
     RDKit          3D

100107  0  0  1  0  0  0  0  0999 V2000
  -25.3020  -21.9700   18.2940 C   0  0  0  0  0  0  0  0  0  0  0  0
  -26.0940  -22.4680   17.3350 N   0  0  0  0  0  0  0  0  0  0  0  0
  -24.1050  -22.2420   18.3770 O   0  0  0  0  0  0  0  0  0  0  0  0
  -27.0230  -22.0790   17.2470 H   0  0  0  0  0  0  0  0  0  0  0  0
  -25.9500  -21.1000   19.3700 C   0  0  0  0  0  2  0  0  0  0  0  0
  -26.1040  -19.6150   18.9700 C   0  0  0  0  0  2  0  0  0  0  0  0
  -27.5550  -19.1910   18.6640 C   0  0  0  0  0  2  0  0  0  0  0  0
  -28.5110  -19.4690   19.8440 C   0  0  0  0  0  2  0  0  0  0  0  0
  -29.7620  -17.3840   20.2990 C   0  0  0  0  0  0  0  0  0  0  0  0
  -29.7050  -18.6290   19.8230 N   0  0  0  0  0  0  0  0  0  0  0  0
  -28.7700  -16.7940   20.7410 O   0  0  0  0  0  0  0  0  0  0  0  0
  -30.5710  -19.0450   19.5030 H   0  0  0  0  0  0  0  0  0  0  0  0
  -31.1200  -16.6870   20.2820 C   0  0  0  0  0  2  0  0  0  0  0  0
  -31.3920  -14.2660   19.8420 C   0  0  0  0  0  0  0  0  0  0  0  0
  -30.9530  -11.9990   18.9850 C   0  0  0  0  0  2  0  0  0  0  0  0
  -29.9790  -12.0790   17.7920 C   0  0  0  0  0  2  0  0  0  0  0  0
  -28.5160  -12.0570   18.2770 C   0  0  0  0  0  2  0  0  0  0  0  0
  -28.2560  -13.0910   19.4080 C   0  0  0  0  0  3  0  0  0  0  0  0
  -29.3340  -12.9730   20.5080 C   0  0  0  0  0  2  0  0  0  0  0  0
  -30.6600  -13.1220   19.8820 N   0  0  0  0  0  0  0  0  0  0  0  0
  -32.4200  -14.4030   19.1760 O   0  0  0  0  0  0  0  0  0  0  0  0
  -30.8770  -15.2770   20.5410 N   0  0  0  0  0  0  0  0  0  0  0  0
  -30.0180  -15.0930   21.0400 H   0  0  0  0  0  0  0  0  0  0  0  0
  -25.9700  -13.9330   20.2530 C   0  0  0  0  0  0  0  0  0  0  0  0
  -24.8520  -13.2620   20.6810 C   0  0  0  0  0  0  0  0  0  0  0  0
  -25.1770  -11.8740   20.6150 C   0  0  0  0  0  0  0  0  0  0  0  0
  -26.9080  -12.9550   19.9600 N   0  0  0  0  0  0  0  0  0  0  0  0
  -26.4350  -11.7120   20.2280 N   0  0  0  0  0  0  0  0  0  0  0  0
  -24.3440  -10.6870   20.8390 C   0  0  0  0  0  0  0  0  0  0  0  0
  -24.7070   -9.7020   21.7830 C   0  0  0  0  0  3  0  0  0  0  0  0
  -23.8840   -8.5750   21.9890 C   0  0  0  0  0  3  0  0  0  0  0  0
  -22.6840   -8.4290   21.2570 C   0  0  0  0  0  0  0  0  0  0  0  0
  -22.3410   -9.4000   20.3000 C   0  0  0  0  0  3  0  0  0  0  0  0
  -23.1640  -10.5190   20.0900 C   0  0  0  0  0  3  0  0  0  0  0  0
  -21.8270   -7.3610   21.3780 O   0  0  0  0  0  0  0  0  0  0  0  0
  -21.6890   -6.6780   22.5590 C   0  0  0  0  0  0  0  0  0  0  0  0
  -21.2810   -7.3180   23.7500 C   0  0  0  0  0  3  0  0  0  0  0  0
  -21.0840   -6.5630   24.9240 C   0  0  0  0  0  3  0  0  0  0  0  0
  -21.2860   -5.1700   24.9080 C   0  0  0  0  0  0  0  0  0  0  0  0
  -21.6950   -4.5320   23.7220 C   0  0  0  0  0  3  0  0  0  0  0  0
  -21.8920   -5.2830   22.5510 C   0  0  0  0  0  0  0  0  0  0  0  0
  -22.2600   -4.6590   21.4070 F   0  0  0  0  0  0  0  0  0  0  0  0
  -21.0940   -4.4440   26.0330 F   0  0  0  0  0  0  0  0  0  0  0  0
  -23.5280  -13.8700   21.0460 C   0  0  0  0  0  0  0  0  0  0  0  0
  -22.7970  -13.2470   21.9660 N   0  0  0  0  0  0  0  0  0  0  0  0
  -23.1550  -14.9330   20.5540 O   0  0  0  0  0  0  0  0  0  0  0  0
  -23.1060  -12.3850   22.3910 H   0  0  0  0  0  0  0  0  0  0  0  0
  -21.9070  -13.6370   22.2470 H   0  0  0  0  0  0  0  0  0  0  0  0
  -26.2530  -15.2810   20.0780 N   0  0  0  0  0  0  0  0  0  0  0  0
  -25.5770  -15.9980   20.3090 H   0  0  0  0  0  0  0  0  0  0  0  0
  -27.1810  -15.6540   19.9110 H   0  0  0  0  0  0  0  0  0  0  0  0
  -25.6730  -23.5420   16.4250 C   0  0  0  0  0  2  0  0  0  0  0  0
  -26.8130  -24.4210   15.8560 C   0  0  0  0  0  2  0  0  0  0  0  0
  -27.9870  -24.6300   16.7420 N   0  0  0  0  0  4  0  0  0  0  0  0
  -28.3810  -23.7260   16.9440 H   0  0  0  0  0  0  0  0  0  0  0  0
  -28.6780  -25.1320   16.2080 H   0  0  0  0  0  0  0  0  0  0  0  0
  -27.7640  -25.3600   18.0160 C   0  0  0  0  0  2  0  0  0  0  0  0
  -29.0370  -25.3710   18.9000 C   0  0  0  0  0  2  0  0  0  0  0  0
  -28.8080  -25.6900   20.3990 C   0  0  0  0  0  2  0  0  0  0  0  0
  -28.7940  -27.0880   20.6880 O   0  0  0  0  0  0  0  0  0  0  0  0
  -24.9390  -32.1210   23.8850 C   0  0  0  0  0  0  0  0  0  0  0  0
  -27.5960  -27.7660   20.7090 C   0  0  0  0  0  0  0  0  0  0  0  0
  -23.7560  -30.7940   22.1650 C   0  0  0  0  0  3  0  0  0  0  0  0
  -25.2140  -29.2820   20.7340 C   0  0  0  0  0  0  0  0  0  0  0  0
  -26.2870  -31.1280   22.0380 C   0  0  0  0  0  2  0  0  0  0  0  0
  -26.3650  -29.7760   21.3600 C   0  0  0  0  0  0  0  0  0  0  0  0
  -27.5550  -29.0190   21.3540 C   0  0  0  0  0  3  0  0  0  0  0  0
  -26.4180  -27.2760   20.0950 C   0  0  0  0  0  3  0  0  0  0  0  0
  -25.2300  -28.0270   20.1090 C   0  0  0  0  0  3  0  0  0  0  0  0
  -23.9870  -30.1590   20.7680 C   0  0  0  0  0  2  0  0  0  0  0  0
  -25.0110  -31.3600   22.7550 N   0  0  0  0  0  0  0  0  0  0  0  0
  -23.8480  -32.3870   24.4110 O   0  0  0  0  0  0  0  0  0  0  0  0
  -23.0660  -29.7490   23.0730 C   0  0  0  0  0  0  0  0  0  0  0  0
  -21.7800  -29.4730   22.7990 N   0  0  0  0  0  0  0  0  0  0  0  0
  -23.6940  -29.1880   23.9750 O   0  0  0  0  0  0  0  0  0  0  0  0
  -21.3310  -29.9850   22.0530 H   0  0  0  0  0  0  0  0  0  0  0  0
  -18.5240  -27.9220   22.8070 C   0  0  0  0  0  0  0  0  0  0  0  0
  -20.9450  -28.5030   23.5030 C   0  0  0  0  0  3  0  0  0  0  0  0
  -21.3030  -27.0590   23.0860 C   0  0  0  0  0  2  0  0  0  0  0  0
  -20.4540  -26.5420   21.9210 C   0  0  0  0  0  2  0  0  0  0  0  0
  -18.9680  -26.5630   22.2850 C   0  0  0  0  0  2  0  0  0  0  0  0
  -19.4560  -28.8370   23.3630 C   0  0  0  0  0  0  0  0  0  0  0  0
  -19.0020  -30.1030   23.7930 C   0  0  0  0  0  3  0  0  0  0  0  0
  -17.6440  -30.4550   23.6830 C   0  0  0  0  0  3  0  0  0  0  0  0
  -16.7220  -29.5420   23.1480 C   0  0  0  0  0  3  0  0  0  0  0  0
  -17.1620  -28.2760   22.7180 C   0  0  0  0  0  3  0  0  0  0  0  0
  -26.2220  -32.7100   24.5520 C   0  0  0  0  0  3  0  0  0  0  0  0
  -25.9470  -34.1200   24.8580 N   0  0  0  0  0  0  0  0  0  0  0  0
  -26.3370  -35.1540   24.1010 C   0  0  0  0  0  0  0  0  0  0  0  0
  -27.0360  -35.0200   23.0930 O   0  0  0  0  0  0  0  0  0  0  0  0
  -25.3320  -34.2990   25.6410 H   0  0  0  0  0  0  0  0  0  0  0  0
  -24.6720  -36.9910   23.6810 C   0  0  0  0  0  1  0  0  0  0  0  0
  -25.8800  -36.5600   24.5280 C   0  0  0  0  0  3  0  0  0  0  0  0
  -28.0150  -37.3940   25.4090 C   0  0  0  0  0  1  0  0  0  0  0  0
  -26.9460  -37.5800   24.4320 N   0  0  0  0  0  0  0  0  0  0  0  0
  -26.5600  -38.5090   24.5640 H   0  0  0  0  0  0  0  0  0  0  0  0
  -26.6630  -31.9250   25.8480 C   0  0  1  0  0  0  0  0  0  0  0  0
  -25.5160  -31.7040   26.8590 C   0  0  0  0  0  1  0  0  0  0  0  0
  -27.2420  -30.5380   25.4830 C   0  0  0  0  0  1  0  0  0  0  0  0
  -27.7850  -32.7010   26.5760 C   0  0  0  0  0  1  0  0  0  0  0  0
  1  3  2  0
  1  5  1  0
  2  1  1  0
  4  2  1  0
  6  5  1  0
  7  6  1  0
  7  8  1  0
  9 11  2  0
 10  8  1  0
 10  9  1  0
 12 10  1  0
 13  9  1  0
 13 22  1  0
 14 20  1  0
 14 22  1  0
 15 20  1  0
 16 17  1  0
 16 15  1  0
 18 17  1  0
 18 27  1  0
 18 19  1  0
 20 19  1  0
 21 14  2  0
 22 23  1  0
 24 25  2  0
 25 44  1  0
 26 25  1  0
 26 29  1  0
 27 28  1  0
 27 24  1  0
 28 26  2  0
 29 30  1  0
 30 31  2  0
 32 35  1  0
 32 31  1  0
 33 32  2  0
 34 33  1  0
 34 29  2  0
 35 36  1  0
 36 37  1  0
 37 38  2  0
 39 38  1  0
 39 43  1  0
 40 39  2  0
 41 36  2  0
 41 40  1  0
 42 41  1  0
 44 45  1  0
 45 48  1  0
 45 47  1  0
 46 44  2  0
 49 24  1  0
 49 50  1  0
 51 49  1  0
 52  2  1  0
 53 52  1  0
 53 54  1  0
 54 55  1  0
 54 57  1  0
 56 54  1  0
 57 58  1  0
 58 59  1  0
 59 60  1  0
 60 62  1  0
 61 72  2  0
 62 67  1  0
 63 71  1  0
 63 73  1  0
 64 70  1  0
 64 66  1  0
 65 71  1  0
 66 65  1  0
 67 66  2  0
 68 69  1  0
 68 62  2  0
 69 64  2  0
 70 63  1  0
 71 61  1  0
 73 75  2  0
 74 73  1  0
 76 74  1  0
 77 82  1  0
 78 74  1  0
 79 78  1  0
 80 81  1  0
 80 79  1  0
 81 77  1  0
 82 78  1  0
 82 83  2  0
 84 83  1  0
 85 84  2  0
 86 77  2  0
 86 85  1  0
 87 61  1  0
 87 88  1  0
 87 97  1  0
 88 91  1  0
 89 93  1  0
 89 88  1  0
 90 89  2  0
 93 92  1  0
 95 93  1  0
 95 96  1  0
 95 94  1  0
 97100  1  1
 97 98  1  0
 99 97  1  0
M  ISO  4  14 100  22 100  59 101  60 101
M  END
>  <TORSDO>  (60) 
F 28

>  <SCORE>  (60) 
-8.141

>  <name>  (60) 
61

>  <ligand_id>  (60) 
61

>  <original_smiles>  (60) 
[H]c1c([H])c([H])c2c(c1[H])C([H])([H])C([H])([H])C([H])([H])C2([H])N([H])C(=O)C1([H])N(C(=O)C([H])(N([H])C(=O)C([H])(N([H])C([H])([H])[H])C([H])([H])[H])C(C([H])([H])[H])(C([H])([H])[H])C([H])([H])[H])C([H])([H])c2c([H])c(OC([H])([H])C([H])([H])C([H])([H])[N+]([H])([H])C([H])([H])C([H])([H])N([H])C(=O)C([H])([H])C([H])([H])C([H])([H])C([H])([H])N([H])C(=O)C([H])([H])N([H])C(=O)N3C([H])([H])C([H])([H])C([H])([H])C([H])(n4nc(-c5c([H])c([H])c(Oc6c([H])c([H])c(F)c([H])c6F)c([H])c5[H])c(C(=O)N([H])[H])c4N([H])[H])C3([H])[H])c([H])c([H])c2C1([H])[H]

>  <smiles>  (60) 
[H]c1c([H])c([H])c2c(c1[H])C([H])([H])C([H])([H])C([H])([H])C2([H])N([H])C(=O)C1([H])N(C(=O)C([H])(N([H])C(=O)C([H])(N([H])C([H])([H])[H])C([H])([H])[H])C(C([H])([H])[H])(C([H])([H])[H])C([H])([H])[H])C([H])([H])c2c([H])c(OC([H])([H])C([H])([H])C([H])([H])[N+]([H])([H])C([H])([H])C([H])([H])N([H])C(=O)C([H])([H])C([H])([H])C([H])([H])C([H])([H])N([H])C(=O)C([H])([H])N([H])C(=O)N3C([H])([H])C([H])([H])C([H])([H])C([H])(n4nc(-c5c([H])c([H])c(Oc6c([H])c([H])c(F)c([H])c6F)c([H])c5[H])c(C(=O)N([H])[H])c4N([H])[H])C3([H])[H])c([H])c([H])c2C1([H])[H]

$$$$
62:0:0
     RDKit          3D

104111  0  0  1  0  0  0  0  0999 V2000
  -31.5470  -26.8270   23.4910 C   0  0  0  0  0  2  0  0  0  0  0  0
  -30.4250  -27.3290   24.3170 N   0  0  0  0  0  4  0  0  0  0  0  0
  -30.5240  -28.3310   24.3840 H   0  0  0  0  0  0  0  0  0  0  0  0
  -30.5370  -26.9760   25.2560 H   0  0  0  0  0  0  0  0  0  0  0  0
  -29.0440  -27.0320   23.8610 C   0  0  0  0  0  2  0  0  0  0  0  0
  -28.5000  -25.6350   24.2540 C   0  0  0  0  0  2  0  0  0  0  0  0
  -28.8220  -24.4400   23.3230 C   0  0  0  0  0  2  0  0  0  0  0  0
  -28.2020  -24.5530   21.9840 N   0  0  0  0  0  4  0  0  0  0  0  0
  -27.5560  -25.3260   21.9810 H   0  0  0  0  0  0  0  0  0  0  0  0
  -27.6530  -23.7220   21.8160 H   0  0  0  0  0  0  0  0  0  0  0  0
  -29.1650  -24.7000   20.8690 C   0  0  0  0  0  2  0  0  0  0  0  0
  -28.5400  -25.4170   19.6710 C   0  0  0  0  0  2  0  0  0  0  0  0
  -28.4350  -26.7900   20.0580 O   0  0  0  0  0  0  0  0  0  0  0  0
  -24.6130  -31.8700   23.2120 C   0  0  0  0  0  0  0  0  0  0  0  0
  -27.2270  -27.4530   20.0680 C   0  0  0  0  0  0  0  0  0  0  0  0
  -23.3960  -30.4970   21.5550 C   0  0  0  0  0  3  0  0  0  0  0  0
  -24.8370  -28.9630   20.1210 C   0  0  0  0  0  0  0  0  0  0  0  0
  -25.9210  -30.8420   21.3570 C   0  0  0  0  0  2  0  0  0  0  0  0
  -25.9970  -29.4740   20.7110 C   0  0  0  0  0  0  0  0  0  0  0  0
  -27.1920  -28.7240   20.6840 C   0  0  0  0  0  3  0  0  0  0  0  0
  -26.0430  -26.9520   19.4780 C   0  0  0  0  0  3  0  0  0  0  0  0
  -24.8540  -27.7010   19.5080 C   0  0  0  0  0  3  0  0  0  0  0  0
  -23.6000  -29.8290   20.1710 C   0  0  0  0  0  2  0  0  0  0  0  0
  -24.6620  -31.0830   22.1010 N   0  0  0  0  0  0  0  0  0  0  0  0
  -23.5340  -32.1430   23.7560 O   0  0  0  0  0  0  0  0  0  0  0  0
  -22.7390  -29.4690   22.5030 C   0  0  0  0  0  0  0  0  0  0  0  0
  -21.4130  -29.3040   22.3770 N   0  0  0  0  0  0  0  0  0  0  0  0
  -23.4210  -28.8240   23.3040 O   0  0  0  0  0  0  0  0  0  0  0  0
  -20.9290  -29.8790   21.7010 H   0  0  0  0  0  0  0  0  0  0  0  0
  -18.0260  -28.1370   22.8500 C   0  0  0  0  0  0  0  0  0  0  0  0
  -20.5850  -28.3660   23.1340 C   0  0  0  0  0  3  0  0  0  0  0  0
  -20.6750  -26.9410   22.5420 C   0  0  0  0  0  2  0  0  0  0  0  0
  -19.5730  -26.6390   21.5220 C   0  0  0  0  0  2  0  0  0  0  0  0
  -18.1910  -26.7930   22.1620 C   0  0  0  0  0  2  0  0  0  0  0  0
  -19.1500  -28.8830   23.2910 C   0  0  0  0  0  0  0  0  0  0  0  0
  -18.9440  -30.1450   23.8920 C   0  0  0  0  0  3  0  0  0  0  0  0
  -17.6440  -30.6580   24.0570 C   0  0  0  0  0  3  0  0  0  0  0  0
  -16.5330  -29.9080   23.6340 C   0  0  0  0  0  3  0  0  0  0  0  0
  -16.7250  -28.6500   23.0350 C   0  0  0  0  0  3  0  0  0  0  0  0
  -25.9040  -32.4840   23.8380 C   0  0  0  0  0  3  0  0  0  0  0  0
  -25.5910  -33.8630   24.2330 N   0  0  0  0  0  0  0  0  0  0  0  0
  -25.9040  -34.9480   23.5110 C   0  0  0  0  0  0  0  0  0  0  0  0
  -26.5580  -34.8920   22.4670 O   0  0  0  0  0  0  0  0  0  0  0  0
  -25.0070  -33.9800   25.0480 H   0  0  0  0  0  0  0  0  0  0  0  0
  -24.1500  -36.7350   23.2620 C   0  0  0  0  0  1  0  0  0  0  0  0
  -25.4120  -36.3110   24.0310 C   0  0  0  0  0  3  0  0  0  0  0  0
  -27.5580  -37.1810   24.8470 C   0  0  0  0  0  1  0  0  0  0  0  0
  -26.4300  -37.3800   23.9400 N   0  0  0  0  0  0  0  0  0  0  0  0
  -26.0170  -38.2870   24.1390 H   0  0  0  0  0  0  0  0  0  0  0  0
  -26.4470  -31.6580   25.0680 C   0  0  1  0  0  0  0  0  0  0  0  0
  -25.3740  -31.3670   26.1420 C   0  0  0  0  0  1  0  0  0  0  0  0
  -27.0320  -30.3010   24.6070 C   0  0  0  0  0  1  0  0  0  0  0  0
  -27.6060  -32.4270   25.7460 C   0  0  0  0  0  1  0  0  0  0  0  0
  -31.6750  -27.5270   22.1190 C   0  0  0  0  0  2  0  0  0  0  0  0
  -32.9310  -27.1260   21.3090 C   0  0  0  0  0  2  0  0  0  0  0  0
  -32.7360  -24.7670   20.4700 C   0  0  0  0  0  0  0  0  0  0  0  0
  -33.1890  -25.6860   21.3320 N   0  0  0  0  0  0  0  0  0  0  0  0
  -32.1210  -25.0570   19.4430 O   0  0  0  0  0  0  0  0  0  0  0  0
  -33.7450  -25.3390   22.1020 H   0  0  0  0  0  0  0  0  0  0  0  0
  -32.9940  -23.4250   20.9600 C   0  0  0  0  0  3  0  0  0  0  0  0
  -32.5160  -22.3330   20.3360 C   0  0  0  0  0  3  0  0  0  0  0  0
  -32.7420  -20.9230   20.8500 C   0  0  0  0  0  2  0  0  0  0  0  0
  -31.4960  -20.0250   20.7670 C   0  0  0  0  0  2  0  0  0  0  0  0
  -31.6780  -18.7530   21.6150 C   0  0  0  0  0  2  0  0  0  0  0  0
  -30.7310  -17.6030   21.2410 C   0  0  0  0  0  2  0  0  0  0  0  0
  -30.9540  -16.3730   22.1420 C   0  0  0  0  0  2  0  0  0  0  0  0
  -30.7630  -14.3680   20.6810 C   0  0  0  0  0  0  0  0  0  0  0  0
  -30.4150  -12.2920   19.3960 C   0  0  0  0  0  2  0  0  0  0  0  0
  -29.4840  -12.5280   18.1930 C   0  0  0  0  0  2  0  0  0  0  0  0
  -28.0080  -12.3850   18.6100 C   0  0  0  0  0  2  0  0  0  0  0  0
  -27.6660  -13.2030   19.8830 C   0  0  0  0  0  3  0  0  0  0  0  0
  -28.7040  -12.9430   20.9960 C   0  0  0  0  0  2  0  0  0  0  0  0
  -30.0440  -13.2380   20.4580 N   0  0  0  0  0  0  0  0  0  0  0  0
  -31.8010  -14.6430   20.0700 O   0  0  0  0  0  0  0  0  0  0  0  0
  -30.2870  -15.1740   21.6390 N   0  0  0  0  0  0  0  0  0  0  0  0
  -29.4350  -14.8870   22.0980 H   0  0  0  0  0  0  0  0  0  0  0  0
  -25.2600  -13.8150   20.5680 C   0  0  0  0  0  0  0  0  0  0  0  0
  -24.1860  -13.0450   20.9160 C   0  0  0  0  0  0  0  0  0  0  0  0
  -24.6400  -11.6900   20.8730 C   0  0  0  0  0  0  0  0  0  0  0  0
  -26.3050  -12.9320   20.3390 N   0  0  0  0  0  0  0  0  0  0  0  0
  -25.9320  -11.6480   20.5760 N   0  0  0  0  0  0  0  0  0  0  0  0
  -23.9060  -10.4300   21.0400 C   0  0  0  0  0  0  0  0  0  0  0  0
  -24.3610   -9.4210   21.9190 C   0  0  0  0  0  3  0  0  0  0  0  0
  -23.6290   -8.2250   22.0760 C   0  0  0  0  0  3  0  0  0  0  0  0
  -22.4270   -8.0280   21.3540 C   0  0  0  0  0  0  0  0  0  0  0  0
  -21.9900   -9.0260   20.4650 C   0  0  0  0  0  3  0  0  0  0  0  0
  -22.7230  -10.2140   20.3050 C   0  0  0  0  0  3  0  0  0  0  0  0
  -21.6640   -6.8880   21.4240 O   0  0  0  0  0  0  0  0  0  0  0  0
  -21.6860   -6.0730   22.5280 C   0  0  0  0  0  0  0  0  0  0  0  0
  -21.4020   -6.5640   23.8210 C   0  0  0  0  0  3  0  0  0  0  0  0
  -21.3660   -5.6790   24.9170 C   0  0  0  0  0  3  0  0  0  0  0  0
  -21.6040   -4.3050   24.7220 C   0  0  0  0  0  0  0  0  0  0  0  0
  -21.8820   -3.8150   23.4340 C   0  0  0  0  0  3  0  0  0  0  0  0
  -21.9190   -4.6960   22.3400 C   0  0  0  0  0  0  0  0  0  0  0  0
  -22.1660   -4.2150   21.0980 F   0  0  0  0  0  0  0  0  0  0  0  0
  -21.5630   -3.4540   25.7740 F   0  0  0  0  0  0  0  0  0  0  0  0
  -22.7870  -13.5240   21.1830 C   0  0  0  0  0  0  0  0  0  0  0  0
  -22.0510  -12.8250   22.0380 N   0  0  0  0  0  0  0  0  0  0  0  0
  -22.3560  -14.5560   20.6690 O   0  0  0  0  0  0  0  0  0  0  0  0
  -22.4110  -11.9890   22.4760 H   0  0  0  0  0  0  0  0  0  0  0  0
  -21.1130  -13.1280   22.2600 H   0  0  0  0  0  0  0  0  0  0  0  0
  -25.4350  -15.1880   20.4090 N   0  0  0  0  0  0  0  0  0  0  0  0
  -24.6740  -15.8480   20.5210 H   0  0  0  0  0  0  0  0  0  0  0  0
  -26.2980  -15.6230   20.1100 H   0  0  0  0  0  0  0  0  0  0  0  0
  1  2  1  0
  2  3  1  0
  2  4  1  0
  5  6  1  0
  5  2  1  0
  7  6  1  0
  8  7  1  0
  9  8  1  0
 10  8  1  0
 11  8  1  0
 12 13  1  0
 12 11  1  0
 13 15  1  0
 14 25  2  0
 15 20  1  0
 16 24  1  0
 16 26  1  0
 17 23  1  0
 17 19  1  0
 18 24  1  0
 19 18  1  0
 20 19  2  0
 21 22  1  0
 21 15  2  0
 22 17  2  0
 23 16  1  0
 24 14  1  0
 26 28  2  0
 27 26  1  0
 29 27  1  0
 30 39  2  0
 30 35  1  0
 31 27  1  0
 31 35  1  0
 32 31  1  0
 33 34  1  0
 33 32  1  0
 34 30  1  0
 35 36  2  0
 36 37  1  0
 38 37  2  0
 39 38  1  0
 40 14  1  0
 40 41  1  0
 40 50  1  0
 41 44  1  0
 42 46  1  0
 42 41  1  0
 43 42  2  0
 46 45  1  0
 48 46  1  0
 48 49  1  0
 48 47  1  0
 50 53  1  1
 50 51  1  0
 52 50  1  0
 54  1  1  0
 55 57  1  0
 55 54  1  0
 56 60  1  0
 56 57  1  0
 57 59  1  0
 58 56  2  0
 61 62  1  0
 61 60  2  0
 63 62  1  0
 63 64  1  0
 65 64  1  0
 65 66  1  0
 67 75  1  0
 68 73  1  0
 69 70  1  0
 69 68  1  0
 71 70  1  0
 71 80  1  0
 71 72  1  0
 73 67  1  0
 73 72  1  0
 74 67  2  0
 75 76  1  0
 75 66  1  0
 77 78  2  0
 78 97  1  0
 79 78  1  0
 79 82  1  0
 80 77  1  0
 80 81  1  0
 81 79  2  0
 82 83  1  0
 83 84  2  0
 85 88  1  0
 85 84  1  0
 86 85  2  0
 87 86  1  0
 87 82  2  0
 88 89  1  0
 89 90  1  0
 90 91  2  0
 92 91  1  0
 92 96  1  0
 93 92  2  0
 94 89  2  0
 94 93  1  0
 95 94  1  0
 97 98  1  0
 98101  1  0
 98100  1  0
 99 97  2  0
102103  1  0
102 77  1  0
104102  1  0
M  ISO  4  12 101  13 101  67 100  75 100
M  END
>  <TORSDO>  (61) 
F 32

>  <SCORE>  (61) 
-8.744

>  <name>  (61) 
62

>  <ligand_id>  (61) 
62

>  <original_smiles>  (61) 
[H]C(C(=O)N([H])C([H])([H])C([H])([H])C([H])([H])[N+]([H])([H])C([H])([H])C([H])([H])C([H])([H])[N+]([H])([H])C([H])([H])C([H])([H])Oc1c([H])c([H])c2c(c1[H])C([H])([H])N(C(=O)C([H])(N([H])C(=O)C([H])(N([H])C([H])([H])[H])C([H])([H])[H])C(C([H])([H])[H])(C([H])([H])[H])C([H])([H])[H])C([H])(C(=O)N([H])C1([H])c3c([H])c([H])c([H])c([H])c3C([H])([H])C([H])([H])C1([H])[H])C2([H])[H])=C([H])C([H])([H])C([H])([H])C([H])([H])C([H])([H])C([H])([H])N([H])C(=O)N1C([H])([H])C([H])([H])C([H])([H])C([H])(n2nc(-c3c([H])c([H])c(Oc4c([H])c([H])c(F)c([H])c4F)c([H])c3[H])c(C(=O)N([H])[H])c2N([H])[H])C1([H])[H]

>  <smiles>  (61) 
[H]C(C(=O)N([H])C([H])([H])C([H])([H])C([H])([H])[N+]([H])([H])C([H])([H])C([H])([H])C([H])([H])[N+]([H])([H])C([H])([H])C([H])([H])Oc1c([H])c([H])c2c(c1[H])C([H])([H])N(C(=O)C([H])(N([H])C(=O)C([H])(N([H])C([H])([H])[H])C([H])([H])[H])C(C([H])([H])[H])(C([H])([H])[H])C([H])([H])[H])C([H])(C(=O)N([H])C1([H])c3c([H])c([H])c([H])c([H])c3C([H])([H])C([H])([H])C1([H])[H])C2([H])[H])=C([H])C([H])([H])C([H])([H])C([H])([H])C([H])([H])C([H])([H])N([H])C(=O)N1C([H])([H])C([H])([H])C([H])([H])C([H])(n2nc(-c3c([H])c([H])c(Oc4c([H])c([H])c(F)c([H])c4F)c([H])c3[H])c(C(=O)N([H])[H])c2N([H])[H])C1([H])[H]

$$$$
63:0:0
     RDKit          3D

106114  0  0  1  0  0  0  0  0999 V2000
  -23.7190  -24.5690   22.5410 C   0  0  0  0  0  3  0  0  0  0  0  0
  -23.1890  -23.3630   22.3270 N   0  0  0  0  0  0  0  0  0  0  0  0
  -23.4180  -25.5510   21.8590 O   0  0  0  0  0  0  0  0  0  0  0  0
  -23.5160  -22.5940   22.8960 H   0  0  0  0  0  0  0  0  0  0  0  0
  -24.1630  -25.5560   24.8040 C   0  0  0  0  0  1  0  0  0  0  0  0
  -24.7530  -24.6890   23.6800 C   0  0  0  0  0  3  0  0  0  0  0  0
  -26.6470  -24.9620   22.0960 C   0  0  0  0  0  0  0  0  0  0  0  0
  -25.9720  -25.3340   23.1900 N   0  0  0  0  0  0  0  0  0  0  0  0
  -26.3670  -23.9490   21.4510 O   0  0  0  0  0  0  0  0  0  0  0  0
  -26.2380  -26.1990   23.6410 H   0  0  0  0  0  0  0  0  0  0  0  0
  -27.7740  -25.8790   21.6330 C   0  0  0  0  0  2  0  0  0  0  0  0
  -28.1240  -25.5760   20.2300 N   0  0  0  0  0  4  0  0  0  0  0  0
  -27.2490  -25.5450   19.7300 H   0  0  0  0  0  0  0  0  0  0  0  0
  -28.5100  -24.6450   20.1840 H   0  0  0  0  0  0  0  0  0  0  0  0
  -29.0250  -26.5650   19.5980 C   0  0  0  0  0  2  0  0  0  0  0  0
  -28.7390  -26.7420   18.0890 C   0  0  0  0  0  2  0  0  0  0  0  0
  -28.4430  -28.1080   17.7920 O   0  0  0  0  0  0  0  0  0  0  0  0
  -25.8930  -29.8180   24.1910 C   0  0  0  0  0  0  0  0  0  0  0  0
  -27.3880  -28.6350   18.4990 C   0  0  0  0  0  0  0  0  0  0  0  0
  -24.2620  -29.8900   22.3310 C   0  0  0  0  0  3  0  0  0  0  0  0
  -25.2470  -29.7050   19.9890 C   0  0  0  0  0  0  0  0  0  0  0  0
  -26.7480  -30.2970   21.9000 C   0  0  0  0  0  2  0  0  0  0  0  0
  -26.5410  -29.7110   20.5200 C   0  0  0  0  0  0  0  0  0  0  0  0
  -27.6180  -29.1880   19.7760 C   0  0  0  0  0  3  0  0  0  0  0  0
  -26.0800  -28.6360   17.9680 C   0  0  0  0  0  3  0  0  0  0  0  0
  -25.0080  -29.1640   18.7110 C   0  0  0  0  0  3  0  0  0  0  0  0
  -24.1560  -30.3110   20.8420 C   0  0  0  0  0  2  0  0  0  0  0  0
  -25.6640  -29.9720   22.8560 N   0  0  0  0  0  0  0  0  0  0  0  0
  -24.9570  -29.6580   24.9870 O   0  0  0  0  0  0  0  0  0  0  0  0
  -23.6260  -28.4900   22.4910 C   0  0  0  0  0  0  0  0  0  0  0  0
  -22.3270  -28.3850   22.1750 N   0  0  0  0  0  0  0  0  0  0  0  0
  -24.3040  -27.5270   22.8640 O   0  0  0  0  0  0  0  0  0  0  0  0
  -21.8440  -29.2220   21.8790 H   0  0  0  0  0  0  0  0  0  0  0  0
  -19.1300  -26.9660   21.2730 C   0  0  0  0  0  0  0  0  0  0  0  0
  -21.5280  -27.1610   22.2130 C   0  0  0  0  0  3  0  0  0  0  0  0
  -21.9410  -26.1910   21.0830 C   0  0  0  0  0  3  0  0  0  0  0  0
  -21.1050  -26.3610   19.8090 C   0  0  0  0  0  2  0  0  0  0  0  0
  -19.6230  -26.1200   20.1100 C   0  0  0  0  0  2  0  0  0  0  0  0
  -20.0280  -27.4680   22.2510 C   0  0  0  0  0  0  0  0  0  0  0  0
  -19.5240  -28.2780   23.2930 C   0  0  0  0  0  3  0  0  0  0  0  0
  -18.1530  -28.5890   23.3640 C   0  0  0  0  0  3  0  0  0  0  0  0
  -17.2670  -28.0780   22.4010 C   0  0  0  0  0  3  0  0  0  0  0  0
  -17.7550  -27.2650   21.3610 C   0  0  0  0  0  3  0  0  0  0  0  0
  -27.3370  -29.8610   24.7830 C   0  0  0  0  0  3  0  0  0  0  0  0
  -27.3500  -30.8810   25.8390 N   0  0  0  0  0  0  0  0  0  0  0  0
  -27.9130  -32.0910   25.7200 C   0  0  0  0  0  0  0  0  0  0  0  0
  -28.5480  -32.4390   24.7200 O   0  0  0  0  0  0  0  0  0  0  0  0
  -26.8010  -30.6870   26.6630 H   0  0  0  0  0  0  0  0  0  0  0  0
  -26.6740  -34.1170   26.5500 C   0  0  0  0  0  1  0  0  0  0  0  0
  -27.7460  -33.0710   26.8970 C   0  0  0  0  0  3  0  0  0  0  0  0
  -29.9900  -32.8590   27.8710 C   0  0  0  0  0  1  0  0  0  0  0  0
  -29.0030  -33.7550   27.2750 N   0  0  0  0  0  0  0  0  0  0  0  0
  -28.8210  -34.5100   27.9320 H   0  0  0  0  0  0  0  0  0  0  0  0
  -27.8220  -28.4670   25.3440 C   0  0  1  0  0  0  0  0  0  0  0  0
  -26.8230  -27.8110   26.3240 C   0  0  0  0  0  1  0  0  0  0  0  0
  -28.0710  -27.4720   24.1860 C   0  0  0  0  0  1  0  0  0  0  0  0
  -29.1710  -28.6390   26.0800 C   0  0  0  0  0  1  0  0  0  0  0  0
  -22.3660  -23.0090   21.1750 C   0  0  0  0  0  2  0  0  0  0  0  0
  -23.2060  -22.1510   20.2270 C   0  0  0  0  0  0  0  0  0  0  0  0
  -23.3600  -22.5940   18.9730 N   0  0  0  0  0  0  0  0  0  0  0  0
  -23.7180  -21.1090   20.6430 O   0  0  0  0  0  0  0  0  0  0  0  0
  -22.8760  -23.4510   18.7360 H   0  0  0  0  0  0  0  0  0  0  0  0
  -24.1320  -21.9560   17.9110 C   0  0  0  0  0  2  0  0  0  0  0  0
  -25.6560  -22.0240   18.1410 C   0  0  0  0  0  2  0  0  0  0  0  0
  -26.3430  -20.6730   17.8920 C   0  0  0  0  0  2  0  0  0  0  0  0
  -27.5770  -20.4420   18.7800 C   0  0  0  0  0  2  0  0  0  0  0  0
  -28.3150  -19.1600   18.3670 C   0  0  0  0  0  2  0  0  0  0  0  0
  -29.3200  -18.6390   19.4040 C   0  0  0  0  0  2  0  0  0  0  0  0
  -31.2200  -16.9870   19.2150 C   0  0  0  0  0  0  0  0  0  0  0  0
  -31.4110  -14.5530   18.9510 C   0  0  0  0  0  2  0  0  0  0  0  0
  -30.5350  -14.1300   17.7540 C   0  0  0  0  0  2  0  0  0  0  0  0
  -29.0860  -13.8620   18.2100 C   0  0  0  0  0  2  0  0  0  0  0  0
  -28.5090  -14.9990   19.0990 C   0  0  0  0  0  3  0  0  0  0  0  0
  -29.5180  -15.3930   20.2030 C   0  0  0  0  0  2  0  0  0  0  0  0
  -30.7810  -15.7420   19.5430 N   0  0  0  0  0  0  0  0  0  0  0  0
  -32.3690  -17.2170   18.8410 O   0  0  0  0  0  0  0  0  0  0  0  0
  -30.2900  -17.8020   18.7090 N   0  0  0  0  0  0  0  0  0  0  0  0
  -30.6940  -18.3090   17.9350 H   0  0  0  0  0  0  0  0  0  0  0  0
  -26.1220  -15.4440   19.9430 C   0  0  0  0  0  0  0  0  0  0  0  0
  -25.1260  -14.6020   20.3550 C   0  0  0  0  0  0  0  0  0  0  0  0
  -25.6700  -13.2830   20.2780 C   0  0  0  0  0  0  0  0  0  0  0  0
  -27.2080  -14.6350   19.6470 N   0  0  0  0  0  0  0  0  0  0  0  0
  -26.9410  -13.3300   19.9020 N   0  0  0  0  0  0  0  0  0  0  0  0
  -25.0400  -11.9760   20.4870 C   0  0  0  0  0  0  0  0  0  0  0  0
  -25.3560  -11.1700   21.6050 C   0  0  0  0  0  3  0  0  0  0  0  0
  -24.7200   -9.9240   21.7910 C   0  0  0  0  0  3  0  0  0  0  0  0
  -23.7580   -9.4720   20.8590 C   0  0  0  0  0  0  0  0  0  0  0  0
  -23.4630  -10.2670   19.7380 C   0  0  0  0  0  3  0  0  0  0  0  0
  -24.0990  -11.5040   19.5490 C   0  0  0  0  0  3  0  0  0  0  0  0
  -23.1090   -8.2650   20.9430 O   0  0  0  0  0  0  0  0  0  0  0  0
  -22.6280   -7.7900   22.1360 C   0  0  0  0  0  0  0  0  0  0  0  0
  -21.6480   -8.4870   22.8770 C   0  0  0  0  0  3  0  0  0  0  0  0
  -21.1310   -7.9280   24.0630 C   0  0  0  0  0  3  0  0  0  0  0  0
  -21.5870   -6.6710   24.5050 C   0  0  0  0  0  0  0  0  0  0  0  0
  -22.5620   -5.9740   23.7680 C   0  0  0  0  0  3  0  0  0  0  0  0
  -23.0780   -6.5330   22.5850 C   0  0  0  0  0  0  0  0  0  0  0  0
  -24.0000   -5.8470   21.8670 F   0  0  0  0  0  0  0  0  0  0  0  0
  -21.0860   -6.1310   25.6410 F   0  0  0  0  0  0  0  0  0  0  0  0
  -23.7190  -14.9880   20.7100 C   0  0  0  0  0  0  0  0  0  0  0  0
  -23.1010  -14.2520   21.6250 N   0  0  0  0  0  0  0  0  0  0  0  0
  -23.1800  -15.9760   20.2130 O   0  0  0  0  0  0  0  0  0  0  0  0
  -23.5590  -13.4550   22.0390 H   0  0  0  0  0  0  0  0  0  0  0  0
  -22.1630  -14.4860   21.9160 H   0  0  0  0  0  0  0  0  0  0  0  0
  -26.1850  -16.8230   19.7830 N   0  0  0  0  0  0  0  0  0  0  0  0
  -25.3950  -17.4220   19.9920 H   0  0  0  0  0  0  0  0  0  0  0  0
  -27.0090  -17.3360   19.4940 H   0  0  0  0  0  0  0  0  0  0  0  0
  1  2  1  0
  1  6  1  0
  2  4  1  0
  3  1  1  0
  6  5  1  0
  7  8  1  0
  8 10  1  0
  8  6  1  0
  9  7  2  0
 11  7  1  0
 12 11  1  0
 13 12  1  0
 14 12  1  0
 15 12  1  0
 16 15  1  0
 17 16  1  0
 17 19  1  0
 18 29  2  0
 19 24  1  0
 20 27  1  0
 20 30  1  0
 20 28  1  0
 21 23  1  0
 21 27  1  0
 22 28  1  0
 23 22  1  0
 24 23  2  0
 25 19  2  0
 25 26  1  0
 26 21  2  0
 28 18  1  0
 30 32  2  0
 31 35  1  0
 31 30  1  0
 33 31  1  0
 34 43  2  0
 34 39  1  0
 35 39  1  0
 36 37  1  0
 36  3  1  0
 36 35  1  0
 37 38  1  0
 38 34  1  0
 39 40  2  0
 40 41  1  0
 42 41  2  0
 43 42  1  0
 44 18  1  0
 44 54  1  0
 44 45  1  0
 45 48  1  0
 46 45  1  0
 46 50  1  0
 47 46  2  0
 50 49  1  0
 50 52  1  0
 52 51  1  0
 52 53  1  0
 54 57  1  1
 54 55  1  0
 56 54  1  0
 58  2  1  0
 59 61  2  0
 59 58  1  0
 60 59  1  0
 62 60  1  0
 63 64  1  0
 63 60  1  0
 65 64  1  0
 65 66  1  0
 67 66  1  0
 67 68  1  0
 69 75  1  0
 70 75  1  0
 71 72  1  0
 71 70  1  0
 73 72  1  0
 73 82  1  0
 73 74  1  0
 75 74  1  0
 76 69  2  0
 77 69  1  0
 77 68  1  0
 78 77  1  0
 79 80  2  0
 80 99  1  0
 81 80  1  0
 81 84  1  0
 82 83  1  0
 82 79  1  0
 83 81  2  0
 84 85  1  0
 85 86  2  0
 87 90  1  0
 87 86  1  0
 88 87  2  0
 89 88  1  0
 89 84  2  0
 90 91  1  0
 91 96  2  0
 91 92  1  0
 92 93  2  0
 93 94  1  0
 94 98  1  0
 95 94  2  0
 96 95  1  0
 97 96  1  0
 99100  1  0
100103  1  0
100102  1  0
101 99  2  0
104 79  1  0
104105  1  0
106104  1  0
M  ISO  4  16 101  17 101  69 100  77 100
M  END
>  <TORSDO>  (62) 
F 30

>  <SCORE>  (62) 
1.533

>  <name>  (62) 
63

>  <ligand_id>  (62) 
63

>  <original_smiles>  (62) 
[H]c1c([H])c([H])c2c(c1[H])C([H])([H])C([H])([H])C([H])([H])C2([H])N([H])C(=O)C1([H])N(C(=O)C([H])(N([H])C(=O)C([H])(N([H])C([H])([H])[H])C([H])([H])[H])C(C([H])([H])[H])(C([H])([H])[H])C([H])([H])[H])C([H])([H])c2c([H])c(OC([H])([H])C([H])([H])[N+]([H])([H])C([H])([H])C(=O)N([H])C([H])(C(=O)N([H])C([H])([H])C(=O)N([H])C([H])([H])C([H])([H])C([H])([H])C([H])([H])C([H])([H])C([H])([H])N([H])C(=O)N3C([H])([H])C([H])([H])C([H])([H])C([H])(n4nc(-c5c([H])c([H])c(Oc6c([H])c([H])c(F)c([H])c6F)c([H])c5[H])c(C(=O)N([H])[H])c4N([H])[H])C3([H])[H])C([H])([H])[H])c([H])c([H])c2C1([H])[H]

>  <smiles>  (62) 
[H]c1c([H])c([H])c2c(c1[H])C([H])([H])C([H])([H])C([H])([H])C2([H])N([H])C(=O)C1([H])N(C(=O)C([H])(N([H])C(=O)C([H])(N([H])C([H])([H])[H])C([H])([H])[H])C(C([H])([H])[H])(C([H])([H])[H])C([H])([H])[H])C([H])([H])c2c([H])c(OC([H])([H])C([H])([H])[N+]([H])([H])C([H])([H])C(=O)N([H])C([H])(C(=O)N([H])C([H])([H])C(=O)N([H])C([H])([H])C([H])([H])C([H])([H])C([H])([H])C([H])([H])C([H])([H])N([H])C(=O)N3C([H])([H])C([H])([H])C([H])([H])C([H])(n4nc(-c5c([H])c([H])c(Oc6c([H])c([H])c(F)c([H])c6F)c([H])c5[H])c(C(=O)N([H])[H])c4N([H])[H])C3([H])[H])C([H])([H])[H])c([H])c([H])c2C1([H])[H]

$$$$
64:0:0
     RDKit          3D

 97104  0  0  1  0  0  0  0  0999 V2000
  -29.3200  -22.2330   22.8930 C   0  0  0  0  0  2  0  0  0  0  0  0
  -28.3290  -24.1280   21.6360 C   0  0  0  0  0  0  0  0  0  0  0  0
  -29.3870  -23.4040   22.0150 N   0  0  0  0  0  0  0  0  0  0  0  0
  -27.1720  -23.7970   21.8980 O   0  0  0  0  0  0  0  0  0  0  0  0
  -30.3050  -23.7400   21.7520 H   0  0  0  0  0  0  0  0  0  0  0  0
  -28.6060  -25.4250   20.8810 C   0  0  0  0  0  2  0  0  0  0  0  0
  -27.7680  -25.5440   19.6010 C   0  0  0  0  0  2  0  0  0  0  0  0
  -28.2740  -26.6560   18.6690 C   0  0  0  0  0  2  0  0  0  0  0  0
  -27.2170  -27.0930   17.8260 O   0  0  0  0  0  0  0  0  0  0  0  0
  -25.3590  -31.0350   23.4630 C   0  0  0  0  0  0  0  0  0  0  0  0
  -26.2850  -27.8910   18.4380 C   0  0  0  0  0  0  0  0  0  0  0  0
  -23.5610  -30.5640   21.8240 C   0  0  0  0  0  3  0  0  0  0  0  0
  -24.3220  -29.5320   19.6180 C   0  0  0  0  0  0  0  0  0  0  0  0
  -26.0070  -30.6510   21.0900 C   0  0  0  0  0  2  0  0  0  0  0  0
  -25.6580  -29.6360   20.0220 C   0  0  0  0  0  0  0  0  0  0  0  0
  -26.6470  -28.8190   19.4380 C   0  0  0  0  0  3  0  0  0  0  0  0
  -24.9400  -27.7950   18.0320 C   0  0  0  0  0  3  0  0  0  0  0  0
  -23.9530  -28.6060   18.6260 C   0  0  0  0  0  3  0  0  0  0  0  0
  -23.3300  -30.4530   20.2910 C   0  0  0  0  0  2  0  0  0  0  0  0
  -25.0080  -30.7360   22.1790 N   0  0  0  0  0  0  0  0  0  0  0  0
  -24.5020  -31.2080   24.3380 O   0  0  0  0  0  0  0  0  0  0  0  0
  -22.9100  -29.3420   22.5090 C   0  0  0  0  0  0  0  0  0  0  0  0
  -21.5800  -29.2150   22.3670 N   0  0  0  0  0  0  0  0  0  0  0  0
  -23.5950  -28.5190   23.1220 O   0  0  0  0  0  0  0  0  0  0  0  0
  -21.0890  -29.9360   21.8570 H   0  0  0  0  0  0  0  0  0  0  0  0
  -18.2600  -27.8000   22.3190 C   0  0  0  0  0  0  0  0  0  0  0  0
  -20.7610  -28.1210   22.8880 C   0  0  0  0  0  3  0  0  0  0  0  0
  -21.0050  -26.8160   22.0960 C   0  0  0  0  0  2  0  0  0  0  0  0
  -20.0230  -26.6180   20.9360 C   0  0  0  0  0  2  0  0  0  0  0  0
  -18.5790  -26.5930   21.4530 C   0  0  0  0  0  2  0  0  0  0  0  0
  -19.2850  -28.5260   22.9810 C   0  0  0  0  0  0  0  0  0  0  0  0
  -18.9360  -29.6620   23.7430 C   0  0  0  0  0  3  0  0  0  0  0  0
  -17.5950  -30.0720   23.8520 C   0  0  0  0  0  3  0  0  0  0  0  0
  -16.5810  -29.3400   23.2090 C   0  0  0  0  0  3  0  0  0  0  0  0
  -16.9160  -28.2050   22.4500 C   0  0  0  0  0  3  0  0  0  0  0  0
  -26.8550  -31.1960   23.8840 C   0  0  0  0  0  3  0  0  0  0  0  0
  -27.3790  -30.0100   24.7830 C   0  0  1  0  0  0  0  0  0  0  0  0
  -26.4610  -29.6880   25.9850 C   0  0  0  0  0  1  0  0  0  0  0  0
  -27.5300  -28.7200   23.9450 C   0  0  0  0  0  1  0  0  0  0  0  0
  -28.7840  -30.3490   25.3360 C   0  0  0  0  0  1  0  0  0  0  0  0
  -26.9770  -32.4790   24.5880 N   0  0  0  0  0  0  0  0  0  0  0  0
  -27.6540  -33.5390   24.1250 C   0  0  0  0  0  0  0  0  0  0  0  0
  -28.3080  -33.5120   23.0780 O   0  0  0  0  0  0  0  0  0  0  0  0
  -26.4270  -32.5900   25.4270 H   0  0  0  0  0  0  0  0  0  0  0  0
  -26.6760  -35.8510   24.2570 C   0  0  0  0  0  1  0  0  0  0  0  0
  -27.5950  -34.8360   24.9540 C   0  0  0  0  0  3  0  0  0  0  0  0
  -29.7800  -34.6430   26.0630 C   0  0  0  0  0  1  0  0  0  0  0  0
  -28.9230  -35.4430   25.1900 N   0  0  0  0  0  0  0  0  0  0  0  0
  -28.8300  -36.3670   25.6010 H   0  0  0  0  0  0  0  0  0  0  0  0
  -30.2600  -21.0690   22.4510 C   0  0  0  0  0  2  0  0  0  0  0  0
  -31.8100  -21.0010   22.6160 C   0  0  0  0  0  2  0  0  0  0  0  0
  -32.4240  -19.6340   23.0140 C   0  0  0  0  0  2  0  0  0  0  0  0
  -33.3690  -18.6680   20.8810 C   0  0  0  0  0  0  0  0  0  0  0  0
  -33.4870  -19.2600   22.0790 N   0  0  0  0  0  0  0  0  0  0  0  0
  -34.3430  -18.5370   20.1410 O   0  0  0  0  0  0  0  0  0  0  0  0
  -34.4200  -19.5570   22.3350 H   0  0  0  0  0  0  0  0  0  0  0  0
  -32.0360  -18.1860   20.5670 C   0  0  0  0  0  3  0  0  0  0  0  0
  -31.1330  -19.0120   20.0020 C   0  0  0  0  0  3  0  0  0  0  0  0
  -29.6960  -18.6690   19.6400 C   0  0  0  0  0  2  0  0  0  0  0  0
  -29.9140  -16.2720   19.0270 C   0  0  0  0  0  0  0  0  0  0  0  0
  -30.3670  -13.8510   18.9730 C   0  0  0  0  0  2  0  0  0  0  0  0
  -29.5160  -13.1010   17.9360 C   0  0  0  0  0  2  0  0  0  0  0  0
  -28.1650  -12.6920   18.5470 C   0  0  0  0  0  2  0  0  0  0  0  0
  -27.4430  -13.8780   19.2340 C   0  0  0  0  0  3  0  0  0  0  0  0
  -28.3960  -14.6310   20.1890 C   0  0  0  0  0  2  0  0  0  0  0  0
  -29.6130  -15.0180   19.4490 N   0  0  0  0  0  0  0  0  0  0  0  0
  -30.7230  -16.5180   18.1270 O   0  0  0  0  0  0  0  0  0  0  0  0
  -29.3870  -17.2480   19.7760 N   0  0  0  0  0  0  0  0  0  0  0  0
  -28.7770  -16.9640   20.5260 H   0  0  0  0  0  0  0  0  0  0  0  0
  -25.1840  -14.1840   20.4350 C   0  0  0  0  0  0  0  0  0  0  0  0
  -24.2710  -13.2810   20.9100 C   0  0  0  0  0  0  0  0  0  0  0  0
  -24.8180  -11.9890   20.6410 C   0  0  0  0  0  0  0  0  0  0  0  0
  -26.2300  -13.4340   19.9190 N   0  0  0  0  0  0  0  0  0  0  0  0
  -26.0240  -12.1030   20.0970 N   0  0  0  0  0  0  0  0  0  0  0  0
  -24.2410  -10.6500   20.8230 C   0  0  0  0  0  0  0  0  0  0  0  0
  -24.7170   -9.7680   21.8190 C   0  0  0  0  0  3  0  0  0  0  0  0
  -24.1350   -8.4930   21.9850 C   0  0  0  0  0  3  0  0  0  0  0  0
  -23.0620   -8.0890   21.1540 C   0  0  0  0  0  0  0  0  0  0  0  0
  -22.6070   -8.9620   20.1500 C   0  0  0  0  0  3  0  0  0  0  0  0
  -23.1910  -10.2280   19.9830 C   0  0  0  0  0  3  0  0  0  0  0  0
  -22.4510   -6.8610   21.2270 O   0  0  0  0  0  0  0  0  0  0  0  0
  -22.0910   -6.3050   22.4270 C   0  0  0  0  0  0  0  0  0  0  0  0
  -21.2440   -6.9770   23.3360 C   0  0  0  0  0  3  0  0  0  0  0  0
  -20.8430   -6.3400   24.5270 C   0  0  0  0  0  3  0  0  0  0  0  0
  -21.2810   -5.0340   24.8110 C   0  0  0  0  0  0  0  0  0  0  0  0
  -22.1210   -4.3610   23.9050 C   0  0  0  0  0  3  0  0  0  0  0  0
  -22.5230   -4.9940   22.7170 C   0  0  0  0  0  0  0  0  0  0  0  0
  -23.3160   -4.3350   21.8390 F   0  0  0  0  0  0  0  0  0  0  0  0
  -20.8910   -4.4180   25.9510 F   0  0  0  0  0  0  0  0  0  0  0  0
  -22.9210  -13.5930   21.4920 C   0  0  0  0  0  0  0  0  0  0  0  0
  -22.4690  -12.7980   22.4540 N   0  0  0  0  0  0  0  0  0  0  0  0
  -22.2790  -14.5760   21.1250 O   0  0  0  0  0  0  0  0  0  0  0  0
  -23.0010  -12.0010   22.7700 H   0  0  0  0  0  0  0  0  0  0  0  0
  -21.5760  -12.9900   22.8860 H   0  0  0  0  0  0  0  0  0  0  0  0
  -25.2070  -15.5760   20.3840 N   0  0  0  0  0  0  0  0  0  0  0  0
  -24.4320  -16.1460   20.7050 H   0  0  0  0  0  0  0  0  0  0  0  0
  -25.9520  -16.1190   19.9640 H   0  0  0  0  0  0  0  0  0  0  0  0
  2  4  2  0
  2  3  1  0
  3  1  1  0
  5  3  1  0
  6  2  1  0
  7  6  1  0
  8  7  1  0
  9 11  1  0
  9  8  1  0
 10 21  2  0
 11 16  1  0
 12 20  1  0
 12 22  1  0
 13 15  1  0
 13 19  1  0
 14 20  1  0
 15 14  1  0
 16 15  2  0
 17 11  2  0
 17 18  1  0
 18 13  2  0
 19 12  1  0
 20 10  1  0
 22 24  2  0
 23 22  1  0
 25 23  1  0
 26 35  2  0
 26 31  1  0
 27 23  1  0
 27 31  1  0
 28 27  1  0
 29 30  1  0
 29 28  1  0
 30 26  1  0
 31 32  2  0
 32 33  1  0
 34 33  2  0
 35 34  1  0
 36 10  1  0
 36 41  1  0
 36 37  1  0
 37 40  1  1
 37 38  1  0
 39 37  1  0
 41 44  1  0
 42 41  1  0
 42 46  1  0
 43 42  2  0
 46 45  1  0
 46 48  1  0
 48 49  1  0
 48 47  1  0
 50 51  1  0
 50  1  1  0
 51 52  1  0
 53 54  1  0
 54 56  1  0
 54 52  1  0
 55 53  2  0
 57 53  1  0
 58 57  2  0
 59 68  1  0
 59 58  1  0
 60 66  1  0
 60 68  1  0
 61 66  1  0
 62 63  1  0
 62 61  1  0
 64 63  1  0
 64 73  1  0
 64 65  1  0
 66 65  1  0
 67 60  2  0
 68 69  1  0
 70 71  2  0
 71 90  1  0
 72 75  1  0
 72 71  1  0
 73 74  1  0
 73 70  1  0
 74 72  2  0
 75 76  1  0
 76 77  2  0
 78 81  1  0
 78 77  1  0
 79 78  2  0
 80 79  1  0
 80 75  2  0
 81 82  1  0
 82 87  2  0
 82 83  1  0
 83 84  2  0
 84 85  1  0
 85 89  1  0
 86 85  2  0
 87 86  1  0
 88 87  1  0
 90 91  1  0
 91 93  1  0
 91 94  1  0
 92 90  2  0
 95 70  1  0
 95 96  1  0
 97 95  1  0
M  ISO  4   8 101   9 101  60 100  68 100
M  END
>  <TORSDO>  (63) 
F 26

>  <SCORE>  (63) 
-9.033

>  <name>  (63) 
64

>  <ligand_id>  (63) 
64

>  <original_smiles>  (63) 
[H]C(C(=O)N([H])C([H])([H])C([H])([H])C([H])([H])C([H])([H])N([H])C(=O)C([H])([H])C([H])([H])C([H])([H])Oc1c([H])c([H])c2c(c1[H])C([H])([H])N(C(=O)C([H])(N([H])C(=O)C([H])(N([H])C([H])([H])[H])C([H])([H])[H])C(C([H])([H])[H])(C([H])([H])[H])C([H])([H])[H])C([H])(C(=O)N([H])C1([H])c3c([H])c([H])c([H])c([H])c3C([H])([H])C([H])([H])C1([H])[H])C2([H])[H])=C([H])C([H])([H])N([H])C(=O)N1C([H])([H])C([H])([H])C([H])([H])C([H])(n2nc(-c3c([H])c([H])c(Oc4c([H])c([H])c(F)c([H])c4F)c([H])c3[H])c(C(=O)N([H])[H])c2N([H])[H])C1([H])[H]

>  <smiles>  (63) 
[H]C(C(=O)N([H])C([H])([H])C([H])([H])C([H])([H])C([H])([H])N([H])C(=O)C([H])([H])C([H])([H])C([H])([H])Oc1c([H])c([H])c2c(c1[H])C([H])([H])N(C(=O)C([H])(N([H])C(=O)C([H])(N([H])C([H])([H])[H])C([H])([H])[H])C(C([H])([H])[H])(C([H])([H])[H])C([H])([H])[H])C([H])(C(=O)N([H])C1([H])c3c([H])c([H])c([H])c([H])c3C([H])([H])C([H])([H])C1([H])[H])C2([H])[H])=C([H])C([H])([H])N([H])C(=O)N1C([H])([H])C([H])([H])C([H])([H])C([H])(n2nc(-c3c([H])c([H])c(Oc4c([H])c([H])c(F)c([H])c4F)c([H])c3[H])c(C(=O)N([H])[H])c2N([H])[H])C1([H])[H]

$$$$
65:0:0
     RDKit          3D

103110  0  0  1  0  0  0  0  0999 V2000
  -29.4830  -27.4200   15.6740 C   0  0  0  0  0  0  0  0  0  0  0  0
  -28.4000  -27.0270   16.3710 N   0  0  0  0  0  0  0  0  0  0  0  0
  -30.1660  -26.6600   14.9860 O   0  0  0  0  0  0  0  0  0  0  0  0
  -27.9740  -27.7460   16.9420 H   0  0  0  0  0  0  0  0  0  0  0  0
  -27.6620  -25.7550   16.3550 C   0  0  0  0  0  2  0  0  0  0  0  0
  -28.4950  -24.4530   16.3630 C   0  0  0  0  0  2  0  0  0  0  0  0
  -27.6580  -23.2270   16.7920 C   0  0  0  0  0  2  0  0  0  0  0  0
  -28.3740  -21.8710   16.6140 C   0  0  0  0  0  2  0  0  0  0  0  0
  -29.6040  -21.6320   17.5190 C   0  0  0  0  0  2  0  0  0  0  0  0
  -29.2970  -20.8590   18.8070 C   0  0  0  0  0  0  0  0  0  0  0  0
  -29.9280  -19.6870   18.9850 N   0  0  0  0  0  0  0  0  0  0  0  0
  -28.5390  -21.3390   19.6500 O   0  0  0  0  0  0  0  0  0  0  0  0
  -30.5370  -19.3700   18.2420 H   0  0  0  0  0  0  0  0  0  0  0  0
  -29.9840  -18.9520   20.2500 C   0  0  0  0  0  2  0  0  0  0  0  0
  -30.0060  -17.4220   20.0810 C   0  0  0  0  0  2  0  0  0  0  0  0
  -30.2410  -16.7280   21.4440 C   0  0  0  0  0  2  0  0  0  0  0  0
  -30.6630  -14.3070   21.0040 C   0  0  0  0  0  0  0  0  0  0  0  0
  -30.4770  -12.1170   19.9140 C   0  0  0  0  0  2  0  0  0  0  0  0
  -29.6310  -12.2960   18.6380 C   0  0  0  0  0  2  0  0  0  0  0  0
  -28.1280  -12.1580   18.9540 C   0  0  0  0  0  2  0  0  0  0  0  0
  -27.6870  -13.0180   20.1690 C   0  0  0  0  0  3  0  0  0  0  0  0
  -28.6570  -12.8240   21.3580 C   0  0  0  0  0  2  0  0  0  0  0  0
  -30.0210  -13.1190   20.8820 N   0  0  0  0  0  0  0  0  0  0  0  0
  -31.8100  -14.5170   20.6010 O   0  0  0  0  0  0  0  0  0  0  0  0
  -29.8950  -15.3090   21.4440 N   0  0  0  0  0  0  0  0  0  0  0  0
  -28.9670  -15.0580   21.7520 H   0  0  0  0  0  0  0  0  0  0  0  0
  -25.2350  -13.6110   20.6930 C   0  0  0  0  0  0  0  0  0  0  0  0
  -24.1460  -12.8330   20.9890 C   0  0  0  0  0  0  0  0  0  0  0  0
  -24.6190  -11.4860   20.9980 C   0  0  0  0  0  0  0  0  0  0  0  0
  -26.3020  -12.7380   20.5450 N   0  0  0  0  0  0  0  0  0  0  0  0
  -25.9300  -11.4550   20.7850 N   0  0  0  0  0  0  0  0  0  0  0  0
  -23.8910  -10.2180   21.1460 C   0  0  0  0  0  0  0  0  0  0  0  0
  -24.2670   -9.2580   22.1110 C   0  0  0  0  0  3  0  0  0  0  0  0
  -23.5420   -8.0560   22.2450 C   0  0  0  0  0  3  0  0  0  0  0  0
  -22.4280   -7.8020   21.4100 C   0  0  0  0  0  0  0  0  0  0  0  0
  -22.0720   -8.7490   20.4340 C   0  0  0  0  0  3  0  0  0  0  0  0
  -22.8000   -9.9440   20.2990 C   0  0  0  0  0  3  0  0  0  0  0  0
  -21.6800   -6.6500   21.4500 O   0  0  0  0  0  0  0  0  0  0  0  0
  -21.5650   -5.9060   22.5950 C   0  0  0  0  0  0  0  0  0  0  0  0
  -21.0360   -6.4490   23.7870 C   0  0  0  0  0  3  0  0  0  0  0  0
  -20.8710   -5.6310   24.9220 C   0  0  0  0  0  3  0  0  0  0  0  0
  -21.2240   -4.2680   24.8660 C   0  0  0  0  0  0  0  0  0  0  0  0
  -21.7440   -3.7240   23.6790 C   0  0  0  0  0  3  0  0  0  0  0  0
  -21.9100   -4.5390   22.5470 C   0  0  0  0  0  0  0  0  0  0  0  0
  -22.3950   -4.0050   21.4000 F   0  0  0  0  0  0  0  0  0  0  0  0
  -21.0560   -3.4800   25.9540 F   0  0  0  0  0  0  0  0  0  0  0  0
  -22.7280  -13.2990   21.1560 C   0  0  0  0  0  0  0  0  0  0  0  0
  -21.9460  -12.6050   21.9720 N   0  0  0  0  0  0  0  0  0  0  0  0
  -22.3210  -14.3160   20.5940 O   0  0  0  0  0  0  0  0  0  0  0  0
  -22.2830  -11.7820   22.4480 H   0  0  0  0  0  0  0  0  0  0  0  0
  -20.9930  -12.9010   22.1240 H   0  0  0  0  0  0  0  0  0  0  0  0
  -25.4030  -14.9840   20.5170 N   0  0  0  0  0  0  0  0  0  0  0  0
  -24.6300  -15.6380   20.5630 H   0  0  0  0  0  0  0  0  0  0  0  0
  -26.2760  -15.4220   20.2500 H   0  0  0  0  0  0  0  0  0  0  0  0
  -29.8300  -28.9160   15.7410 C   0  0  0  0  0  2  0  0  0  0  0  0
  -31.2480  -29.2810   16.2620 C   0  0  0  0  0  2  0  0  0  0  0  0
  -31.1860  -28.2290   18.5230 C   0  0  0  0  0  0  0  0  0  0  0  0
  -31.7390  -28.4060   17.3190 N   0  0  0  0  0  0  0  0  0  0  0  0
  -30.3560  -29.0030   19.0010 O   0  0  0  0  0  0  0  0  0  0  0  0
  -32.4860  -27.7720   17.0670 H   0  0  0  0  0  0  0  0  0  0  0  0
  -31.5880  -26.9380   19.2320 C   0  0  0  0  0  2  0  0  0  0  0  0
  -30.6220  -25.7860   18.8640 C   0  0  0  0  0  2  0  0  0  0  0  0
  -29.4720  -25.5530   19.6780 O   0  0  0  0  0  0  0  0  0  0  0  0
  -26.5740  -30.2010   24.1620 C   0  0  0  0  0  0  0  0  0  0  0  0
  -28.5300  -26.5390   19.8480 C   0  0  0  0  0  0  0  0  0  0  0  0
  -25.2250  -29.6620   22.1540 C   0  0  0  0  0  3  0  0  0  0  0  0
  -26.4420  -28.3940   20.3040 C   0  0  0  0  0  0  0  0  0  0  0  0
  -27.7720  -29.5620   22.0790 C   0  0  0  0  0  2  0  0  0  0  0  0
  -27.6290  -28.4730   21.0400 C   0  0  0  0  0  0  0  0  0  0  0  0
  -28.6610  -27.5430   20.8310 C   0  0  0  0  0  3  0  0  0  0  0  0
  -27.3180  -26.4520   19.1300 C   0  0  0  0  0  3  0  0  0  0  0  0
  -26.2750  -27.3770   19.3440 C   0  0  0  0  0  3  0  0  0  0  0  0
  -25.3870  -29.4250   20.6260 C   0  0  0  0  0  2  0  0  0  0  0  0
  -26.5410  -29.7990   22.8590 N   0  0  0  0  0  0  0  0  0  0  0  0
  -25.5350  -30.5030   24.7620 O   0  0  0  0  0  0  0  0  0  0  0  0
  -24.3290  -28.5470   22.7370 C   0  0  0  0  0  0  0  0  0  0  0  0
  -23.0110  -28.6590   22.5050 N   0  0  0  0  0  0  0  0  0  0  0  0
  -24.8170  -27.5980   23.3580 O   0  0  0  0  0  0  0  0  0  0  0  0
  -22.6890  -29.4730   21.9990 H   0  0  0  0  0  0  0  0  0  0  0  0
  -19.4750  -27.9490   22.3250 C   0  0  0  0  0  0  0  0  0  0  0  0
  -21.9780  -27.7130   22.9200 C   0  0  0  0  0  3  0  0  0  0  0  0
  -21.9710  -26.4630   22.0090 C   0  0  0  0  0  2  0  0  0  0  0  0
  -20.9920  -26.5770   20.8370 C   0  0  0  0  0  2  0  0  0  0  0  0
  -19.5640  -26.7880   21.3510 C   0  0  0  0  0  2  0  0  0  0  0  0
  -20.6110  -28.3970   23.0490 C   0  0  0  0  0  0  0  0  0  0  0  0
  -20.4770  -29.5050   23.9140 C   0  0  0  0  0  3  0  0  0  0  0  0
  -19.2400  -30.1590   24.0620 C   0  0  0  0  0  3  0  0  0  0  0  0
  -18.1160  -29.7020   23.3550 C   0  0  0  0  0  3  0  0  0  0  0  0
  -18.2330  -28.5950   22.4930 C   0  0  0  0  0  3  0  0  0  0  0  0
  -27.9140  -30.3200   24.9540 C   0  0  0  0  0  3  0  0  0  0  0  0
  -27.8220  -31.5130   25.8070 N   0  0  0  0  0  0  0  0  0  0  0  0
  -28.3730  -32.7000   25.5110 C   0  0  0  0  0  0  0  0  0  0  0  0
  -29.0810  -32.8810   24.5170 O   0  0  0  0  0  0  0  0  0  0  0  0
  -27.2170  -31.4490   26.6110 H   0  0  0  0  0  0  0  0  0  0  0  0
  -26.9900  -34.7640   25.8900 C   0  0  0  0  0  1  0  0  0  0  0  0
  -28.0960  -33.8690   26.4740 C   0  0  0  0  0  3  0  0  0  0  0  0
  -30.2920  -33.9770   27.5630 C   0  0  0  0  0  1  0  0  0  0  0  0
  -29.2920  -34.6870   26.7690 N   0  0  0  0  0  0  0  0  0  0  0  0
  -29.0380  -35.5370   27.2630 H   0  0  0  0  0  0  0  0  0  0  0  0
  -28.2480  -29.0400   25.8180 C   0  0  1  0  0  0  0  0  0  0  0  0
  -27.0900  -28.5940   26.7410 C   0  0  0  0  0  1  0  0  0  0  0  0
  -28.6060  -27.8500   24.9000 C   0  0  0  0  0  1  0  0  0  0  0  0
  -29.4910  -29.3090   26.7010 C   0  0  0  0  0  1  0  0  0  0  0  0
  1 55  1  0
  1  2  1  0
  2  4  1  0
  3  1  2  0
  5  6  1  0
  5  2  1  0
  6  7  1  0
  8  7  1  0
  8  9  1  0
  9 10  1  0
 10 11  1  0
 10 12  2  0
 11 14  1  0
 13 11  1  0
 15 14  1  0
 15 16  1  0
 17 25  1  0
 18 23  1  0
 19 20  1  0
 19 18  1  0
 21 20  1  0
 21 30  1  0
 21 22  1  0
 23 17  1  0
 23 22  1  0
 24 17  2  0
 25 16  1  0
 25 26  1  0
 27 28  2  0
 28 29  1  0
 28 47  1  0
 29 32  1  0
 30 27  1  0
 30 31  1  0
 31 29  2  0
 32 33  1  0
 33 34  2  0
 35 38  1  0
 35 34  1  0
 36 35  2  0
 37 36  1  0
 37 32  2  0
 38 39  1  0
 39 40  1  0
 40 41  2  0
 42 41  1  0
 42 46  1  0
 43 42  2  0
 44 39  2  0
 44 43  1  0
 45 44  1  0
 47 48  1  0
 48 51  1  0
 48 50  1  0
 49 47  2  0
 52 53  1  0
 52 27  1  0
 54 52  1  0
 55 56  1  0
 56 58  1  0
 57 59  2  0
 57 61  1  0
 58 57  1  0
 60 58  1  0
 62 61  1  0
 62 63  1  0
 63 65  1  0
 64 75  2  0
 65 70  1  0
 66 76  1  0
 66 74  1  0
 67 73  1  0
 67 69  1  0
 68 74  1  0
 69 68  1  0
 70 69  2  0
 71 72  1  0
 71 65  2  0
 72 67  2  0
 73 66  1  0
 74 64  1  0
 76 78  2  0
 77 76  1  0
 79 77  1  0
 80 89  2  0
 80 85  1  0
 81 77  1  0
 81 85  1  0
 82 81  1  0
 83 84  1  0
 83 82  1  0
 84 80  1  0
 85 86  2  0
 86 87  1  0
 88 87  2  0
 89 88  1  0
 90 64  1  0
 90 91  1  0
 90100  1  0
 91 94  1  0
 92 91  1  0
 92 96  1  0
 93 92  2  0
 96 95  1  0
 96 98  1  0
 98 99  1  0
 98 97  1  0
100103  1  1
100101  1  0
102100  1  0
M  ISO  4  17 100  25 100  62 101  63 101
M  END
>  <TORSDO>  (64) 
F 30

>  <SCORE>  (64) 
-6.998

>  <name>  (64) 
65

>  <ligand_id>  (64) 
65

>  <original_smiles>  (64) 
[H]c1c([H])c([H])c2c(c1[H])C([H])([H])C([H])([H])C([H])([H])C2([H])N([H])C(=O)C1([H])N(C(=O)C([H])(N([H])C(=O)C([H])(N([H])C([H])([H])[H])C([H])([H])[H])C(C([H])([H])[H])(C([H])([H])[H])C([H])([H])[H])C([H])([H])c2c([H])c(OC([H])([H])C([H])([H])C(=O)N([H])C([H])([H])C([H])([H])C(=O)N([H])C([H])([H])C([H])([H])C([H])([H])C([H])([H])C([H])([H])C(=O)N([H])C([H])([H])C([H])([H])C([H])([H])N([H])C(=O)N3C([H])([H])C([H])([H])C([H])([H])C([H])(n4nc(-c5c([H])c([H])c(Oc6c([H])c([H])c(F)c([H])c6F)c([H])c5[H])c(C(=O)N([H])[H])c4N([H])[H])C3([H])[H])c([H])c([H])c2C1([H])[H]

>  <smiles>  (64) 
[H]c1c([H])c([H])c2c(c1[H])C([H])([H])C([H])([H])C([H])([H])C2([H])N([H])C(=O)C1([H])N(C(=O)C([H])(N([H])C(=O)C([H])(N([H])C([H])([H])[H])C([H])([H])[H])C(C([H])([H])[H])(C([H])([H])[H])C([H])([H])[H])C([H])([H])c2c([H])c(OC([H])([H])C([H])([H])C(=O)N([H])C([H])([H])C([H])([H])C(=O)N([H])C([H])([H])C([H])([H])C([H])([H])C([H])([H])C([H])([H])C(=O)N([H])C([H])([H])C([H])([H])C([H])([H])N([H])C(=O)N3C([H])([H])C([H])([H])C([H])([H])C([H])(n4nc(-c5c([H])c([H])c(Oc6c([H])c([H])c(F)c([H])c6F)c([H])c5[H])c(C(=O)N([H])[H])c4N([H])[H])C3([H])[H])c([H])c([H])c2C1([H])[H]

$$$$
66:0:0
     RDKit          3D

107114  0  0  1  0  0  0  0  0999 V2000
  -23.6120  -19.6920   16.4450 C   0  0  0  0  0  0  0  0  0  0  0  0
  -23.9720  -19.8330   15.1650 N   0  0  0  0  0  0  0  0  0  0  0  0
  -23.3920  -18.5940   16.9560 O   0  0  0  0  0  0  0  0  0  0  0  0
  -24.1030  -20.7740   14.8190 H   0  0  0  0  0  0  0  0  0  0  0  0
  -24.3520  -18.7470   14.2590 C   0  0  0  0  0  2  0  0  0  0  0  0
  -25.6790  -18.0700   14.6690 C   0  0  0  0  0  2  0  0  0  0  0  0
  -26.8080  -18.7930   16.8020 C   0  0  0  0  0  3  0  0  0  0  0  0
  -26.5800  -18.9780   15.4890 C   0  0  0  0  0  3  0  0  0  0  0  0
  -27.6030  -19.7250   17.5770 C   0  0  0  0  0  0  0  0  0  0  0  0
  -27.5860  -19.4050   18.8760 N   0  0  0  0  0  0  0  0  0  0  0  0
  -28.1790  -20.7230   17.1400 O   0  0  0  0  0  0  0  0  0  0  0  0
  -27.1010  -18.5590   19.1380 H   0  0  0  0  0  0  0  0  0  0  0  0
  -28.0850  -20.2400   19.9630 C   0  0  0  0  0  2  0  0  0  0  0  0
  -29.5180  -19.8820   20.3830 C   0  0  0  0  0  2  0  0  0  0  0  0
  -29.6560  -18.4810   21.0010 C   0  0  0  0  0  2  0  0  0  0  0  0
  -31.0960  -18.2050   21.4600 C   0  0  0  0  0  2  0  0  0  0  0  0
  -31.2270  -17.0590   22.4820 C   0  0  0  0  0  2  0  0  0  0  0  0
  -31.2750  -15.0260   21.0370 C   0  0  0  0  0  0  0  0  0  0  0  0
  -31.0680  -12.9750   19.6840 C   0  0  0  0  0  2  0  0  0  0  0  0
  -30.1810  -13.2140   18.4490 C   0  0  0  0  0  2  0  0  0  0  0  0
  -28.6960  -13.0000   18.7950 C   0  0  0  0  0  2  0  0  0  0  0  0
  -28.2660  -13.7680   20.0720 C   0  0  0  0  0  3  0  0  0  0  0  0
  -29.2630  -13.5150   21.2240 C   0  0  0  0  0  2  0  0  0  0  0  0
  -30.6150  -13.8750   20.7540 N   0  0  0  0  0  0  0  0  0  0  0  0
  -32.3280  -15.3590   20.4840 O   0  0  0  0  0  0  0  0  0  0  0  0
  -30.7090  -15.7880   21.9800 N   0  0  0  0  0  0  0  0  0  0  0  0
  -29.8600  -15.4350   22.3980 H   0  0  0  0  0  0  0  0  0  0  0  0
  -25.8110  -14.2600   20.6750 C   0  0  0  0  0  0  0  0  0  0  0  0
  -24.7520  -13.4350   20.9460 C   0  0  0  0  0  0  0  0  0  0  0  0
  -25.2650  -12.1040   20.8870 C   0  0  0  0  0  0  0  0  0  0  0  0
  -26.8980  -13.4270   20.4620 N   0  0  0  0  0  0  0  0  0  0  0  0
  -26.5700  -12.1230   20.6470 N   0  0  0  0  0  0  0  0  0  0  0  0
  -24.5790  -10.8100   20.9920 C   0  0  0  0  0  0  0  0  0  0  0  0
  -24.9220   -9.8720   21.9900 C   0  0  0  0  0  3  0  0  0  0  0  0
  -24.2360   -8.6410   22.0820 C   0  0  0  0  0  3  0  0  0  0  0  0
  -23.1960   -8.3410   21.1710 C   0  0  0  0  0  0  0  0  0  0  0  0
  -22.8740   -9.2680   20.1650 C   0  0  0  0  0  3  0  0  0  0  0  0
  -23.5600  -10.4900   20.0730 C   0  0  0  0  0  3  0  0  0  0  0  0
  -22.4920   -7.1600   21.1670 O   0  0  0  0  0  0  0  0  0  0  0  0
  -22.1340   -6.5310   22.3320 C   0  0  0  0  0  0  0  0  0  0  0  0
  -21.3950   -7.1900   23.3390 C   0  0  0  0  0  3  0  0  0  0  0  0
  -20.9880   -6.4860   24.4900 C   0  0  0  0  0  3  0  0  0  0  0  0
  -21.3110   -5.1230   24.6330 C   0  0  0  0  0  0  0  0  0  0  0  0
  -22.0420   -4.4640   23.6290 C   0  0  0  0  0  3  0  0  0  0  0  0
  -22.4500   -5.1660   22.4820 C   0  0  0  0  0  0  0  0  0  0  0  0
  -23.1360   -4.5200   21.5070 F   0  0  0  0  0  0  0  0  0  0  0  0
  -20.9130   -4.4440   25.7340 F   0  0  0  0  0  0  0  0  0  0  0  0
  -23.3250  -13.8520   21.1610 C   0  0  0  0  0  0  0  0  0  0  0  0
  -22.5860  -13.1020   21.9730 N   0  0  0  0  0  0  0  0  0  0  0  0
  -22.8730  -14.8740   20.6510 O   0  0  0  0  0  0  0  0  0  0  0  0
  -22.9630  -12.2740   22.4090 H   0  0  0  0  0  0  0  0  0  0  0  0
  -21.6270  -13.3610   22.1600 H   0  0  0  0  0  0  0  0  0  0  0  0
  -25.9400  -15.6410   20.5850 N   0  0  0  0  0  0  0  0  0  0  0  0
  -25.1610  -16.2630   20.7600 H   0  0  0  0  0  0  0  0  0  0  0  0
  -26.8190  -16.1150   20.4290 H   0  0  0  0  0  0  0  0  0  0  0  0
  -23.5260  -20.9690   17.2880 C   0  0  0  0  0  2  0  0  0  0  0  0
  -24.7210  -21.0920   18.2550 C   0  0  0  0  0  2  0  0  0  0  0  0
  -25.0990  -22.5410   18.6170 C   0  0  0  0  0  2  0  0  0  0  0  0
  -26.0520  -22.5910   19.8260 C   0  0  0  0  0  2  0  0  0  0  0  0
  -26.8710  -23.8910   19.9770 C   0  0  0  0  0  2  0  0  0  0  0  0
  -28.1850  -23.8250   19.2970 N   0  0  0  0  0  4  0  0  0  0  0  0
  -28.0940  -24.2240   18.3780 H   0  0  0  0  0  0  0  0  0  0  0  0
  -28.4300  -22.8540   19.1990 H   0  0  0  0  0  0  0  0  0  0  0  0
  -29.2790  -24.4890   20.0470 C   0  0  0  0  0  2  0  0  0  0  0  0
  -30.6150  -24.5330   19.2720 C   0  0  0  0  0  2  0  0  0  0  0  0
  -30.7980  -25.6780   18.2510 C   0  0  0  0  0  2  0  0  0  0  0  0
  -30.5840  -26.9800   18.8140 O   0  0  0  0  0  0  0  0  0  0  0  0
  -26.1980  -29.1650   23.9470 C   0  0  0  0  0  0  0  0  0  0  0  0
  -29.3070  -27.4090   19.1060 C   0  0  0  0  0  0  0  0  0  0  0  0
  -25.1370  -28.6870   21.7630 C   0  0  0  0  0  3  0  0  0  0  0  0
  -26.7320  -28.3440   19.8060 C   0  0  0  0  0  0  0  0  0  0  0  0
  -27.5780  -29.4380   21.8880 C   0  0  0  0  0  2  0  0  0  0  0  0
  -27.8250  -28.6270   20.6320 C   0  0  0  0  0  0  0  0  0  0  0  0
  -29.1130  -28.1640   20.2850 C   0  0  0  0  0  3  0  0  0  0  0  0
  -28.1930  -27.1520   18.2730 C   0  0  0  0  0  3  0  0  0  0  0  0
  -26.9100  -27.6090   18.6240 C   0  0  0  0  0  3  0  0  0  0  0  0
  -25.3860  -28.8710   20.2430 C   0  0  0  0  0  2  0  0  0  0  0  0
  -26.3240  -29.0800   22.5920 N   0  0  0  0  0  0  0  0  0  0  0  0
  -25.1100  -28.9640   24.5030 O   0  0  0  0  0  0  0  0  0  0  0  0
  -24.6670  -27.2360   22.0170 C   0  0  0  0  0  0  0  0  0  0  0  0
  -23.4440  -26.9140   21.5650 N   0  0  0  0  0  0  0  0  0  0  0  0
  -25.4040  -26.4230   22.5820 O   0  0  0  0  0  0  0  0  0  0  0  0
  -22.8950  -27.6410   21.1280 H   0  0  0  0  0  0  0  0  0  0  0  0
  -20.5490  -24.9980   20.5680 C   0  0  0  0  0  0  0  0  0  0  0  0
  -22.8130  -25.5980   21.6590 C   0  0  0  0  0  3  0  0  0  0  0  0
  -23.4400  -24.6010   20.6570 C   0  0  0  0  0  2  0  0  0  0  0  0
  -22.7010  -24.5470   19.3160 C   0  0  0  0  0  2  0  0  0  0  0  0
  -21.2430  -24.1330   19.5310 C   0  0  0  0  0  2  0  0  0  0  0  0
  -21.2870  -25.6990   21.5580 C   0  0  0  0  0  0  0  0  0  0  0  0
  -20.5950  -26.5200   22.4760 C   0  0  0  0  0  3  0  0  0  0  0  0
  -19.1940  -26.6430   22.4170 C   0  0  0  0  0  3  0  0  0  0  0  0
  -18.4670  -25.9350   21.4440 C   0  0  0  0  0  3  0  0  0  0  0  0
  -19.1430  -25.1110   20.5270 C   0  0  0  0  0  3  0  0  0  0  0  0
  -27.4070  -29.5430   24.8590 C   0  0  0  0  0  3  0  0  0  0  0  0
  -27.6980  -28.4730   25.9830 C   0  0  1  0  0  0  0  0  0  0  0  0
  -26.4570  -28.1040   26.8310 C   0  0  0  0  0  1  0  0  0  0  0  0
  -28.2450  -27.1660   25.3650 C   0  0  0  0  0  1  0  0  0  0  0  0
  -28.7960  -29.0020   26.9360 C   0  0  0  0  0  1  0  0  0  0  0  0
  -27.1240  -30.8570   25.4520 N   0  0  0  0  0  0  0  0  0  0  0  0
  -27.6810  -32.0070   25.0480 C   0  0  0  0  0  0  0  0  0  0  0  0
  -28.5540  -32.0580   24.1770 O   0  0  0  0  0  0  0  0  0  0  0  0
  -26.3840  -30.8970   26.1380 H   0  0  0  0  0  0  0  0  0  0  0  0
  -26.2350  -34.0460   24.7680 C   0  0  0  0  0  1  0  0  0  0  0  0
  -27.1930  -33.3070   25.7160 C   0  0  0  0  0  3  0  0  0  0  0  0
  -29.1050  -33.6840   27.2110 C   0  0  0  0  0  1  0  0  0  0  0  0
  -28.2930  -34.2110   26.1160 N   0  0  0  0  0  0  0  0  0  0  0  0
  -27.9280  -35.1160   26.4020 H   0  0  0  0  0  0  0  0  0  0  0  0
  1  3  2  0
  1 56  1  0
  2  1  1  0
  4  2  1  0
  5  6  1  0
  5  2  1  0
  6  8  1  0
  7  9  1  0
  8  7  2  0
  9 10  1  0
 10 12  1  0
 10 13  1  0
 11  9  2  0
 13 14  1  0
 14 15  1  0
 15 16  1  0
 16 17  1  0
 18 26  1  0
 19 24  1  0
 20 21  1  0
 20 19  1  0
 22 21  1  0
 22 31  1  0
 22 23  1  0
 24 18  1  0
 24 23  1  0
 25 18  2  0
 26 27  1  0
 26 17  1  0
 28 29  2  0
 29 48  1  0
 30 29  1  0
 30 33  1  0
 31 32  1  0
 31 28  1  0
 32 30  2  0
 33 34  1  0
 34 35  2  0
 36 35  1  0
 37 36  2  0
 38 37  1  0
 38 33  2  0
 39 36  1  0
 39 40  1  0
 40 45  2  0
 40 41  1  0
 41 42  2  0
 42 43  1  0
 43 47  1  0
 44 43  2  0
 45 44  1  0
 46 45  1  0
 48 49  1  0
 49 52  1  0
 49 51  1  0
 50 48  2  0
 53 28  1  0
 53 54  1  0
 55 53  1  0
 56 57  1  0
 57 58  1  0
 58 59  1  0
 59 60  1  0
 61 60  1  0
 61 64  1  0
 62 61  1  0
 63 61  1  0
 65 64  1  0
 66 67  1  0
 66 65  1  0
 67 69  1  0
 68 79  2  0
 69 74  1  0
 70 80  1  0
 70 78  1  0
 71 77  1  0
 71 73  1  0
 72 78  1  0
 73 72  1  0
 74 73  2  0
 75 76  1  0
 75 69  2  0
 76 71  2  0
 77 70  1  0
 78 68  1  0
 80 82  2  0
 81 80  1  0
 83 81  1  0
 84 89  1  0
 85 81  1  0
 86 85  1  0
 87 88  1  0
 87 86  1  0
 88 84  1  0
 89 85  1  0
 89 90  2  0
 91 90  1  0
 92 91  2  0
 93 84  2  0
 93 92  1  0
 94 68  1  0
 94 99  1  0
 94 95  1  0
 95 96  1  1
 95 98  1  0
 97 95  1  0
 99102  1  0
100 99  1  0
100104  1  0
101100  2  0
104103  1  0
104106  1  0
106107  1  0
106105  1  0
M  ISO  4  18 100  26 100  66 101  67 101
M  END
>  <TORSDO>  (65) 
F 34

>  <SCORE>  (65) 
0.092

>  <name>  (65) 
66

>  <ligand_id>  (65) 
66

>  <original_smiles>  (65) 
[H]C(C(=O)N([H])C([H])([H])C([H])([H])C([H])([H])C([H])([H])C([H])([H])N([H])C(=O)N1C([H])([H])C([H])([H])C([H])([H])C([H])(n2nc(-c3c([H])c([H])c(Oc4c([H])c([H])c(F)c([H])c4F)c([H])c3[H])c(C(=O)N([H])[H])c2N([H])[H])C1([H])[H])=C([H])C([H])([H])C([H])([H])N([H])C(=O)C([H])([H])C([H])([H])C([H])([H])C([H])([H])C([H])([H])[N+]([H])([H])C([H])([H])C([H])([H])C([H])([H])Oc1c([H])c([H])c2c(c1[H])C([H])([H])N(C(=O)C([H])(N([H])C(=O)C([H])(N([H])C([H])([H])[H])C([H])([H])[H])C(C([H])([H])[H])(C([H])([H])[H])C([H])([H])[H])C([H])(C(=O)N([H])C1([H])c3c([H])c([H])c([H])c([H])c3C([H])([H])C([H])([H])C1([H])[H])C2([H])[H]

>  <smiles>  (65) 
[H]C(C(=O)N([H])C([H])([H])C([H])([H])C([H])([H])C([H])([H])C([H])([H])N([H])C(=O)N1C([H])([H])C([H])([H])C([H])([H])C([H])(n2nc(-c3c([H])c([H])c(Oc4c([H])c([H])c(F)c([H])c4F)c([H])c3[H])c(C(=O)N([H])[H])c2N([H])[H])C1([H])[H])=C([H])C([H])([H])C([H])([H])N([H])C(=O)C([H])([H])C([H])([H])C([H])([H])C([H])([H])C([H])([H])[N+]([H])([H])C([H])([H])C([H])([H])C([H])([H])Oc1c([H])c([H])c2c(c1[H])C([H])([H])N(C(=O)C([H])(N([H])C(=O)C([H])(N([H])C([H])([H])[H])C([H])([H])[H])C(C([H])([H])[H])(C([H])([H])[H])C([H])([H])[H])C([H])(C(=O)N([H])C1([H])c3c([H])c([H])c([H])c([H])c3C([H])([H])C([H])([H])C1([H])[H])C2([H])[H]

$$$$
67:0:0
     RDKit          3D

 99106  0  0  1  0  0  0  0  0999 V2000
  -29.8550  -19.2280   20.6500 C   0  0  0  0  0  2  0  0  0  0  0  0
  -30.6250  -20.4920   21.0390 C   0  0  0  0  0  0  0  0  0  0  0  0
  -31.7570  -20.4110   21.5250 O   0  0  0  0  0  0  0  0  0  0  0  0
  -30.5030  -22.7490   20.7520 C   0  0  0  0  0  3  0  0  0  0  0  0
  -29.8920  -21.6270   20.7490 N   0  0  0  0  0  0  0  0  0  0  0  0
  -29.8800  -24.0800   20.4370 C   0  0  0  0  0  0  0  0  0  0  0  0
  -28.6710  -24.2200   20.2050 O   0  0  0  0  0  0  0  0  0  0  0  0
  -30.8580  -25.2580   20.3890 C   0  0  0  0  0  2  0  0  0  0  0  0
  -30.2040  -26.6150   20.0980 C   0  0  0  0  0  2  0  0  0  0  0  0
  -29.5030  -27.0340   21.2640 O   0  0  0  0  0  0  0  0  0  0  0  0
  -25.0520  -31.8370   23.9770 C   0  0  0  0  0  0  0  0  0  0  0  0
  -28.3250  -27.7170   21.0850 C   0  0  0  0  0  0  0  0  0  0  0  0
  -24.2010  -30.5710   22.0260 C   0  0  0  0  0  3  0  0  0  0  0  0
  -25.9270  -29.1720   20.7790 C   0  0  0  0  0  0  0  0  0  0  0  0
  -26.7080  -30.9680   22.3340 C   0  0  0  0  0  2  0  0  0  0  0  0
  -26.9390  -29.6560   21.6170 C   0  0  0  0  0  0  0  0  0  0  0  0
  -28.1360  -28.9280   21.7800 C   0  0  0  0  0  3  0  0  0  0  0  0
  -27.2860  -27.2220   20.2650 C   0  0  0  0  0  3  0  0  0  0  0  0
  -26.0920  -27.9490   20.1050 C   0  0  0  0  0  3  0  0  0  0  0  0
  -24.6790  -30.0120   20.6590 C   0  0  0  0  0  2  0  0  0  0  0  0
  -25.3270  -31.1360   22.8400 N   0  0  0  0  0  0  0  0  0  0  0  0
  -23.8840  -32.0560   24.3260 O   0  0  0  0  0  0  0  0  0  0  0  0
  -23.4080  -29.4680   22.7610 C   0  0  0  0  0  0  0  0  0  0  0  0
  -22.1030  -29.3670   22.4590 N   0  0  0  0  0  0  0  0  0  0  0  0
  -23.9680  -28.7100   23.5570 O   0  0  0  0  0  0  0  0  0  0  0  0
  -21.7160  -30.0360   21.8070 H   0  0  0  0  0  0  0  0  0  0  0  0
  -18.6190  -28.4210   22.5730 C   0  0  0  0  0  0  0  0  0  0  0  0
  -21.1690  -28.3810   22.9980 C   0  0  0  0  0  3  0  0  0  0  0  0
  -21.1830  -27.0810   22.1610 C   0  0  0  0  0  2  0  0  0  0  0  0
  -20.1200  -27.0610   21.0580 C   0  0  0  0  0  2  0  0  0  0  0  0
  -18.7200  -27.2140   21.6580 C   0  0  0  0  0  2  0  0  0  0  0  0
  -19.7720  -28.9790   23.1900 C   0  0  0  0  0  0  0  0  0  0  0  0
  -19.6260  -30.1240   24.0030 C   0  0  0  0  0  3  0  0  0  0  0  0
  -18.3620  -30.7090   24.2060 C   0  0  0  0  0  3  0  0  0  0  0  0
  -17.2230  -30.1440   23.6060 C   0  0  0  0  0  3  0  0  0  0  0  0
  -17.3530  -29.0010   22.7970 C   0  0  0  0  0  3  0  0  0  0  0  0
  -26.1880  -32.4200   24.8740 C   0  0  0  0  0  3  0  0  0  0  0  0
  -25.8190  -33.8020   25.2120 N   0  0  0  0  0  0  0  0  0  0  0  0
  -26.2730  -34.8870   24.5700 C   0  0  0  0  0  0  0  0  0  0  0  0
  -27.1140  -34.8310   23.6690 O   0  0  0  0  0  0  0  0  0  0  0  0
  -25.0950  -33.9210   25.9050 H   0  0  0  0  0  0  0  0  0  0  0  0
  -24.6190  -36.6940   24.0020 C   0  0  0  0  0  1  0  0  0  0  0  0
  -25.7030  -36.2530   24.9980 C   0  0  0  0  0  3  0  0  0  0  0  0
  -27.6640  -37.0900   26.2170 C   0  0  0  0  0  1  0  0  0  0  0  0
  -26.7320  -37.3090   25.1150 N   0  0  0  0  0  0  0  0  0  0  0  0
  -26.2980  -38.2200   25.2410 H   0  0  0  0  0  0  0  0  0  0  0  0
  -26.4450  -31.5750   26.1820 C   0  0  1  0  0  0  0  0  0  0  0  0
  -25.1540  -31.2150   26.9520 C   0  0  0  0  0  1  0  0  0  0  0  0
  -27.1780  -30.2560   25.8430 C   0  0  0  0  0  1  0  0  0  0  0  0
  -27.3690  -32.3610   27.1420 C   0  0  0  0  0  1  0  0  0  0  0  0
  -30.6630  -17.9220   20.7710 C   0  0  0  0  0  2  0  0  0  0  0  0
  -30.0840  -16.9280   21.7790 C   0  0  0  0  0  0  0  0  0  0  0  0
  -30.9720  -16.2710   22.5290 N   0  0  0  0  0  0  0  0  0  0  0  0
  -28.8690  -16.7290   21.8530 O   0  0  0  0  0  0  0  0  0  0  0  0
  -31.9470  -16.5040   22.3940 H   0  0  0  0  0  0  0  0  0  0  0  0
  -30.6870  -15.1060   23.3630 C   0  0  0  0  0  2  0  0  0  0  0  0
  -31.2870  -13.8270   22.7450 C   0  0  0  0  0  2  0  0  0  0  0  0
  -32.7570  -13.9910   22.3060 C   0  0  0  0  0  2  0  0  0  0  0  0
  -33.2160  -12.9260   21.2920 C   0  0  0  0  0  2  0  0  0  0  0  0
  -34.3180  -13.4430   20.3570 C   0  0  0  0  0  2  0  0  0  0  0  0
  -33.7640  -14.3020   19.2020 C   0  0  0  0  0  2  0  0  0  0  0  0
  -31.6680  -14.0310   17.9310 C   0  0  0  0  0  0  0  0  0  0  0  0
  -30.4900  -12.1000   16.9910 C   0  0  0  0  0  2  0  0  0  0  0  0
  -29.2200  -12.4250   16.2020 C   0  0  0  0  0  2  0  0  0  0  0  0
  -28.0070  -12.4990   17.1440 C   0  0  0  0  0  2  0  0  0  0  0  0
  -28.2550  -13.4340   18.3540 C   0  0  0  0  0  3  0  0  0  0  0  0
  -29.6070  -13.1220   19.0390 C   0  0  0  0  0  2  0  0  0  0  0  0
  -30.6740  -13.1220   18.0240 N   0  0  0  0  0  0  0  0  0  0  0  0
  -32.1860  -14.3950   16.8720 O   0  0  0  0  0  0  0  0  0  0  0  0
  -32.3140  -14.1500   19.0940 N   0  0  0  0  0  0  0  0  0  0  0  0
  -31.8480  -13.7440   19.8890 H   0  0  0  0  0  0  0  0  0  0  0  0
  -26.5040  -14.3970   19.9790 C   0  0  0  0  0  0  0  0  0  0  0  0
  -25.4730  -13.8140   20.6670 C   0  0  0  0  0  0  0  0  0  0  0  0
  -25.5270  -12.4220   20.3530 C   0  0  0  0  0  0  0  0  0  0  0  0
  -27.1380  -13.3690   19.2970 N   0  0  0  0  0  0  0  0  0  0  0  0
  -26.5680  -12.1670   19.5680 N   0  0  0  0  0  0  0  0  0  0  0  0
  -24.6170  -11.3240   20.7080 C   0  0  0  0  0  0  0  0  0  0  0  0
  -24.9580  -10.3650   21.6880 C   0  0  0  0  0  3  0  0  0  0  0  0
  -24.0570   -9.3340   22.0260 C   0  0  0  0  0  3  0  0  0  0  0  0
  -22.7980   -9.2530   21.3850 C   0  0  0  0  0  0  0  0  0  0  0  0
  -22.4720  -10.1940   20.3910 C   0  0  0  0  0  3  0  0  0  0  0  0
  -23.3740  -11.2160   20.0530 C   0  0  0  0  0  3  0  0  0  0  0  0
  -21.8720   -8.2670   21.6310 O   0  0  0  0  0  0  0  0  0  0  0  0
  -21.6500   -7.7850   22.8960 C   0  0  0  0  0  0  0  0  0  0  0  0
  -21.1860   -8.6160   23.9400 C   0  0  0  0  0  3  0  0  0  0  0  0
  -20.9010   -8.0660   25.2070 C   0  0  0  0  0  3  0  0  0  0  0  0
  -21.0730   -6.6870   25.4320 C   0  0  0  0  0  0  0  0  0  0  0  0
  -21.5290   -5.8570   24.3920 C   0  0  0  0  0  3  0  0  0  0  0  0
  -21.8130   -6.4030   23.1290 C   0  0  0  0  0  0  0  0  0  0  0  0
  -22.2310   -5.5950   22.1260 F   0  0  0  0  0  0  0  0  0  0  0  0
  -20.7900   -6.1570   26.6440 F   0  0  0  0  0  0  0  0  0  0  0  0
  -24.4410  -14.5190   21.4960 C   0  0  0  0  0  0  0  0  0  0  0  0
  -23.9200  -13.8520   22.5200 N   0  0  0  0  0  0  0  0  0  0  0  0
  -24.1230  -15.6870   21.2710 O   0  0  0  0  0  0  0  0  0  0  0  0
  -24.1880  -12.8990   22.7160 H   0  0  0  0  0  0  0  0  0  0  0  0
  -23.2440  -14.3060   23.1140 H   0  0  0  0  0  0  0  0  0  0  0  0
  -26.9420  -15.7120   19.8540 N   0  0  0  0  0  0  0  0  0  0  0  0
  -26.4840  -16.4950   20.3080 H   0  0  0  0  0  0  0  0  0  0  0  0
  -27.7110  -15.9980   19.2600 H   0  0  0  0  0  0  0  0  0  0  0  0
  1 51  1  0
  1  2  1  0
  2  3  2  0
  5  4  2  0
  5  2  1  0
  6  4  1  0
  7  6  2  0
  8  6  1  0
  9  8  1  0
  9 10  1  0
 11 22  2  0
 12 10  1  0
 12 17  1  0
 13 23  1  0
 13 21  1  0
 14 16  1  0
 15 21  1  0
 16 17  2  0
 16 15  1  0
 18 12  2  0
 19 18  1  0
 19 14  2  0
 20 14  1  0
 20 13  1  0
 21 11  1  0
 23 25  2  0
 24 23  1  0
 26 24  1  0
 27 36  2  0
 27 32  1  0
 28 24  1  0
 28 32  1  0
 29 28  1  0
 30 31  1  0
 30 29  1  0
 31 27  1  0
 32 33  2  0
 33 34  1  0
 35 34  2  0
 36 35  1  0
 37 11  1  0
 37 38  1  0
 37 47  1  0
 38 41  1  0
 39 43  1  0
 39 38  1  0
 40 39  2  0
 43 42  1  0
 43 45  1  0
 45 46  1  0
 45 44  1  0
 47 48  1  1
 47 50  1  0
 49 47  1  0
 51 52  1  0
 52 54  2  0
 52 53  1  0
 53 56  1  0
 55 53  1  0
 57 56  1  0
 58 57  1  0
 59 58  1  0
 60 59  1  0
 61 60  1  0
 62 68  1  0
 62 70  1  0
 63 68  1  0
 64 63  1  0
 64 65  1  0
 66 65  1  0
 66 67  1  0
 66 75  1  0
 68 67  1  0
 69 62  2  0
 70 61  1  0
 70 71  1  0
 72 73  2  0
 73 92  1  0
 74 73  1  0
 74 77  1  0
 75 76  1  0
 75 72  1  0
 76 74  2  0
 77 78  1  0
 78 79  2  0
 80 83  1  0
 80 79  1  0
 81 80  2  0
 82 81  1  0
 82 77  2  0
 83 84  1  0
 84 89  2  0
 84 85  1  0
 85 86  2  0
 86 87  1  0
 87 91  1  0
 88 87  2  0
 89 88  1  0
 90 89  1  0
 92 93  1  0
 93 95  1  0
 93 96  1  0
 94 92  2  0
 97 72  1  0
 97 98  1  0
 99 97  1  0
M  ISO  4   9 101  10 101  62 100  70 100
M  END
>  <TORSDO>  (66) 
F 29

>  <SCORE>  (66) 
4.176

>  <name>  (66) 
67

>  <ligand_id>  (66) 
67

>  <original_smiles>  (66) 
[H]C(=NC(=O)C([H])([H])C([H])([H])C(=O)N([H])C([H])([H])C([H])([H])C([H])([H])C([H])([H])C([H])([H])C([H])([H])N([H])C(=O)N1C([H])([H])C([H])([H])C([H])([H])C([H])(n2nc(-c3c([H])c([H])c(Oc4c([H])c([H])c(F)c([H])c4F)c([H])c3[H])c(C(=O)N([H])[H])c2N([H])[H])C1([H])[H])C(=O)C([H])([H])C([H])([H])Oc1c([H])c([H])c2c(c1[H])C([H])([H])N(C(=O)C([H])(N([H])C(=O)C([H])(N([H])C([H])([H])[H])C([H])([H])[H])C(C([H])([H])[H])(C([H])([H])[H])C([H])([H])[H])C([H])(C(=O)N([H])C1([H])c3c([H])c([H])c([H])c([H])c3C([H])([H])C([H])([H])C1([H])[H])C2([H])[H]

>  <smiles>  (66) 
[H]C(=NC(=O)C([H])([H])C([H])([H])C(=O)N([H])C([H])([H])C([H])([H])C([H])([H])C([H])([H])C([H])([H])C([H])([H])N([H])C(=O)N1C([H])([H])C([H])([H])C([H])([H])C([H])(n2nc(-c3c([H])c([H])c(Oc4c([H])c([H])c(F)c([H])c4F)c([H])c3[H])c(C(=O)N([H])[H])c2N([H])[H])C1([H])[H])C(=O)C([H])([H])C([H])([H])Oc1c([H])c([H])c2c(c1[H])C([H])([H])N(C(=O)C([H])(N([H])C(=O)C([H])(N([H])C([H])([H])[H])C([H])([H])[H])C(C([H])([H])[H])(C([H])([H])[H])C([H])([H])[H])C([H])(C(=O)N([H])C1([H])c3c([H])c([H])c([H])c([H])c3C([H])([H])C([H])([H])C1([H])[H])C2([H])[H]

$$$$
68:0:0
     RDKit          3D

106113  0  0  1  0  0  0  0  0999 V2000
  -26.8220  -24.4780   22.8670 C   0  0  0  0  0  0  0  0  0  0  0  0
  -25.9880  -24.1280   21.8880 N   0  0  0  0  0  0  0  0  0  0  0  0
  -26.6810  -25.4950   23.5480 O   0  0  0  0  0  0  0  0  0  0  0  0
  -26.2290  -23.2740   21.4060 H   0  0  0  0  0  0  0  0  0  0  0  0
  -28.0010  -23.6500   22.7950 C   0  0  0  0  0  3  0  0  0  0  0  0
  -29.1230  -24.1640   22.2660 C   0  0  0  0  0  3  0  0  0  0  0  0
  -30.3430  -23.3480   21.9060 C   0  0  0  0  0  2  0  0  0  0  0  0
  -30.2450  -22.9950   20.4130 C   0  0  0  0  0  2  0  0  0  0  0  0
  -31.0490  -21.7600   19.9970 C   0  0  0  0  0  2  0  0  0  0  0  0
  -30.8010  -21.4230   18.5150 C   0  0  0  0  0  2  0  0  0  0  0  0
  -31.3240  -20.0430   18.0710 C   0  0  0  0  0  2  0  0  0  0  0  0
  -30.3250  -18.9730   18.2910 N   0  0  0  0  0  4  0  0  0  0  0  0
  -30.2720  -18.4260   17.4460 H   0  0  0  0  0  0  0  0  0  0  0  0
  -29.4250  -19.4040   18.4200 H   0  0  0  0  0  0  0  0  0  0  0  0
  -30.6120  -18.0310   19.3990 C   0  0  0  0  0  2  0  0  0  0  0  0
  -29.3400  -17.2270   19.7800 C   0  0  0  0  0  2  0  0  0  0  0  0
  -30.3240  -14.9830   20.1050 C   0  0  0  0  0  0  0  0  0  0  0  0
  -30.1440  -12.7340   19.1500 C   0  0  0  0  0  2  0  0  0  0  0  0
  -29.1100  -12.7850   18.0070 C   0  0  0  0  0  2  0  0  0  0  0  0
  -27.6940  -12.5300   18.5540 C   0  0  0  0  0  2  0  0  0  0  0  0
  -27.3600  -13.4150   19.7830 C   0  0  0  0  0  3  0  0  0  0  0  0
  -28.5050  -13.3830   20.8260 C   0  0  0  0  0  2  0  0  0  0  0  0
  -29.7640  -13.7440   20.1470 N   0  0  0  0  0  0  0  0  0  0  0  0
  -31.3690  -15.2310   19.5030 O   0  0  0  0  0  0  0  0  0  0  0  0
  -29.5360  -15.9760   20.5310 N   0  0  0  0  0  0  0  0  0  0  0  0
  -28.7720  -15.6960   21.1280 H   0  0  0  0  0  0  0  0  0  0  0  0
  -25.0510  -13.8480   20.8390 C   0  0  0  0  0  0  0  0  0  0  0  0
  -24.0440  -13.0000   21.2160 C   0  0  0  0  0  0  0  0  0  0  0  0
  -24.5150  -11.6810   20.9420 C   0  0  0  0  0  0  0  0  0  0  0  0
  -26.0750  -13.0380   20.3700 N   0  0  0  0  0  0  0  0  0  0  0  0
  -25.7610  -11.7230   20.4850 N   0  0  0  0  0  0  0  0  0  0  0  0
  -23.8330  -10.3830   21.0340 C   0  0  0  0  0  0  0  0  0  0  0  0
  -24.3750   -9.3170   21.7850 C   0  0  0  0  0  3  0  0  0  0  0  0
  -23.6940   -8.0850   21.8750 C   0  0  0  0  0  3  0  0  0  0  0  0
  -22.4560   -7.9080   21.2110 C   0  0  0  0  0  0  0  0  0  0  0  0
  -21.9330   -8.9630   20.4440 C   0  0  0  0  0  3  0  0  0  0  0  0
  -22.6140  -10.1890   20.3520 C   0  0  0  0  0  3  0  0  0  0  0  0
  -21.7360   -6.7370   21.2190 O   0  0  0  0  0  0  0  0  0  0  0  0
  -21.7040   -5.9200   22.3210 C   0  0  0  0  0  0  0  0  0  0  0  0
  -21.2330   -6.3760   23.5720 C   0  0  0  0  0  3  0  0  0  0  0  0
  -21.1510   -5.4840   24.6600 C   0  0  0  0  0  3  0  0  0  0  0  0
  -21.5300   -4.1370   24.4990 C   0  0  0  0  0  0  0  0  0  0  0  0
  -21.9930   -3.6810   23.2520 C   0  0  0  0  0  3  0  0  0  0  0  0
  -22.0780   -4.5710   22.1670 C   0  0  0  0  0  0  0  0  0  0  0  0
  -22.5050   -4.1210   20.9620 F   0  0  0  0  0  0  0  0  0  0  0  0
  -21.4450   -3.2800   25.5420 F   0  0  0  0  0  0  0  0  0  0  0  0
  -22.6820  -13.3920   21.7140 C   0  0  0  0  0  0  0  0  0  0  0  0
  -22.0910  -12.5810   22.5850 N   0  0  0  0  0  0  0  0  0  0  0  0
  -22.1550  -14.4490   21.3700 O   0  0  0  0  0  0  0  0  0  0  0  0
  -22.5320  -11.7250   22.8880 H   0  0  0  0  0  0  0  0  0  0  0  0
  -21.1840  -12.8220   22.9590 H   0  0  0  0  0  0  0  0  0  0  0  0
  -25.1770  -15.2330   20.8390 N   0  0  0  0  0  0  0  0  0  0  0  0
  -24.4210  -15.8470   21.1220 H   0  0  0  0  0  0  0  0  0  0  0  0
  -25.9830  -15.7330   20.4880 H   0  0  0  0  0  0  0  0  0  0  0  0
  -25.2120  -25.0750   21.0870 C   0  0  0  0  0  3  0  0  0  0  0  0
  -25.9390  -25.2450   19.7220 C   0  0  0  0  0  0  0  0  0  0  0  0
  -27.2560  -25.4820   19.7790 N   0  0  0  0  0  0  0  0  0  0  0  0
  -25.3540  -25.1120   18.6470 O   0  0  0  0  0  0  0  0  0  0  0  0
  -27.6410  -25.6140   20.7040 H   0  0  0  0  0  0  0  0  0  0  0  0
  -28.1950  -25.5260   18.6580 C   0  0  0  0  0  2  0  0  0  0  0  0
  -28.8970  -26.9010   18.5470 C   0  0  0  0  0  2  0  0  0  0  0  0
  -28.3400  -27.7080   17.5180 O   0  0  0  0  0  0  0  0  0  0  0  0
  -24.2900  -30.6390   22.5550 C   0  0  0  0  0  0  0  0  0  0  0  0
  -27.1320  -28.2540   17.8550 C   0  0  0  0  0  0  0  0  0  0  0  0
  -23.1290  -30.0060   20.4650 C   0  0  0  0  0  3  0  0  0  0  0  0
  -24.6370  -29.3680   18.5150 C   0  0  0  0  0  0  0  0  0  0  0  0
  -25.6090  -30.6250   20.4490 C   0  0  0  0  0  2  0  0  0  0  0  0
  -25.7680  -29.6790   19.2820 C   0  0  0  0  0  0  0  0  0  0  0  0
  -27.0200  -29.1190   18.9600 C   0  0  0  0  0  3  0  0  0  0  0  0
  -25.9960  -27.9570   17.0790 C   0  0  0  0  0  3  0  0  0  0  0  0
  -24.7410  -28.4980   17.4150 C   0  0  0  0  0  3  0  0  0  0  0  0
  -23.3360  -30.0160   18.9290 C   0  0  0  0  0  2  0  0  0  0  0  0
  -24.3610  -30.4140   21.2140 N   0  0  0  0  0  0  0  0  0  0  0  0
  -23.2130  -30.5530   23.1590 O   0  0  0  0  0  0  0  0  0  0  0  0
  -22.5890  -28.6210   20.8730 C   0  0  0  0  0  0  0  0  0  0  0  0
  -21.2530  -28.4850   20.9090 N   0  0  0  0  0  0  0  0  0  0  0  0
  -23.3610  -27.6890   21.1210 O   0  0  0  0  0  0  0  0  0  0  0  0
  -20.6860  -29.2920   20.6950 H   0  0  0  0  0  0  0  0  0  0  0  0
  -17.9720  -27.1810   21.6550 C   0  0  0  0  0  0  0  0  0  0  0  0
  -20.5200  -27.2670   21.2410 C   0  0  0  0  0  3  0  0  0  0  0  0
  -20.2410  -26.4320   19.9740 C   0  0  0  0  0  2  0  0  0  0  0  0
  -18.8820  -26.7300   19.3330 C   0  0  0  0  0  2  0  0  0  0  0  0
  -17.7510  -26.4690   20.3320 C   0  0  0  0  0  2  0  0  0  0  0  0
  -19.2710  -27.5700   22.0770 C   0  0  0  0  0  0  0  0  0  0  0  0
  -19.4180  -28.2610   23.3020 C   0  0  0  0  0  3  0  0  0  0  0  0
  -18.2980  -28.5580   24.0980 C   0  0  0  0  0  3  0  0  0  0  0  0
  -17.0170  -28.1570   23.6830 C   0  0  0  0  0  3  0  0  0  0  0  0
  -16.8530  -27.4710   22.4650 C   0  0  0  0  0  3  0  0  0  0  0  0
  -25.5510  -31.0370   23.3870 C   0  0  0  0  0  3  0  0  0  0  0  0
  -25.3490  -32.4140   23.8590 N   0  0  0  0  0  0  0  0  0  0  0  0
  -25.8700  -33.5010   23.2730 C   0  0  0  0  0  0  0  0  0  0  0  0
  -26.6420  -33.4400   22.3100 O   0  0  0  0  0  0  0  0  0  0  0  0
  -24.6870  -32.5410   24.6080 H   0  0  0  0  0  0  0  0  0  0  0  0
  -24.3870  -35.5100   22.9710 C   0  0  0  0  0  1  0  0  0  0  0  0
  -25.4750  -34.8720   23.8500 C   0  0  0  0  0  3  0  0  0  0  0  0
  -27.6100  -35.3740   24.9560 C   0  0  0  0  0  1  0  0  0  0  0  0
  -26.6120  -35.8090   23.9820 N   0  0  0  0  0  0  0  0  0  0  0  0
  -26.2830  -36.7300   24.2570 H   0  0  0  0  0  0  0  0  0  0  0  0
  -25.8240  -30.0630   24.5990 C   0  0  1  0  0  0  0  0  0  0  0  0
  -24.5640  -29.7400   25.4300 C   0  0  0  0  0  1  0  0  0  0  0  0
  -26.4160  -28.7220   24.1040 C   0  0  0  0  0  1  0  0  0  0  0  0
  -26.8610  -30.6940   25.5550 C   0  0  0  0  0  1  0  0  0  0  0  0
  -23.1310  -24.2700   22.3050 C   0  0  0  0  0  1  0  0  0  0  0  0
  -23.7620  -24.5270   20.9250 C   0  0  0  0  0  3  0  0  0  0  0  0
  -22.2900  -23.2020   19.2850 C   0  0  0  0  0  1  0  0  0  0  0  0
  -23.6270  -23.2590   20.0410 C   0  0  0  0  0  2  0  0  0  0  0  0
  1  3  2  0
  2  1  1  0
  4  2  1  0
  5  1  1  0
  6  5  2  0
  7  6  1  0
  8  7  1  0
  9  8  1  0
 10  9  1  0
 11 12  1  0
 11 10  1  0
 12 14  1  0
 12 15  1  0
 13 12  1  0
 15 16  1  0
 16 25  1  0
 17 23  1  0
 17 25  1  0
 18 23  1  0
 19 20  1  0
 19 18  1  0
 21 20  1  0
 21 30  1  0
 21 22  1  0
 23 22  1  0
 24 17  2  0
 25 26  1  0
 27 52  1  0
 27 28  2  0
 28 47  1  0
 29 32  1  0
 29 28  1  0
 30 31  1  0
 30 27  1  0
 31 29  2  0
 32 33  1  0
 33 34  2  0
 35 38  1  0
 35 34  1  0
 36 35  2  0
 37 36  1  0
 37 32  2  0
 38 39  1  0
 39 40  1  0
 40 41  2  0
 42 41  1  0
 42 46  1  0
 43 42  2  0
 44 39  2  0
 44 43  1  0
 45 44  1  0
 47 48  1  0
 48 50  1  0
 48 51  1  0
 49 47  2  0
 52 53  1  0
 54 52  1  0
 55 56  1  0
 55  2  1  0
 56 57  1  0
 57 59  1  0
 58 56  2  0
 60 57  1  0
 61 60  1  0
 62 64  1  0
 62 61  1  0
 63 74  2  0
 64 69  1  0
 65 75  1  0
 65 73  1  0
 66 72  1  0
 66 68  1  0
 67 73  1  0
 68 67  1  0
 69 68  2  0
 70 71  1  0
 70 64  2  0
 71 66  2  0
 72 65  1  0
 73 63  1  0
 75 76  1  0
 75 77  2  0
 78 76  1  0
 79 84  2  0
 79 88  1  0
 80 76  1  0
 80 84  1  0
 81 80  1  0
 82 81  1  0
 82 83  1  0
 83 79  1  0
 84 85  1  0
 85 86  2  0
 87 86  1  0
 88 87  2  0
 89 63  1  0
 89 90  1  0
 89 99  1  0
 90 93  1  0
 91 95  1  0
 91 90  1  0
 92 91  2  0
 95 94  1  0
 95 97  1  0
 97 98  1  0
 97 96  1  0
 99100  1  1
 99102  1  0
101 99  1  0
104 55  1  0
104103  1  0
105106  1  0
106104  1  0
M  ISO  4  17 100  25 100  61 101  62 101
M  END
>  <TORSDO>  (67) 
F 31

>  <SCORE>  (67) 
-5.516

>  <name>  (67) 
68

>  <ligand_id>  (67) 
68

>  <original_smiles>  (67) 
[H]C(C(=O)N([H])C([H])(C(=O)N([H])C([H])([H])C([H])([H])Oc1c([H])c([H])c2c(c1[H])C([H])([H])N(C(=O)C([H])(N([H])C(=O)C([H])(N([H])C([H])([H])[H])C([H])([H])[H])C(C([H])([H])[H])(C([H])([H])[H])C([H])([H])[H])C([H])(C(=O)N([H])C1([H])c3c([H])c([H])c([H])c([H])c3C([H])([H])C([H])([H])C1([H])[H])C2([H])[H])C([H])(C([H])([H])[H])C([H])([H])C([H])([H])[H])=C([H])C([H])([H])C([H])([H])C([H])([H])C([H])([H])C([H])([H])[N+]([H])([H])C([H])([H])C([H])([H])N([H])C(=O)N1C([H])([H])C([H])([H])C([H])([H])C([H])(n2nc(-c3c([H])c([H])c(Oc4c([H])c([H])c(F)c([H])c4F)c([H])c3[H])c(C(=O)N([H])[H])c2N([H])[H])C1([H])[H]

>  <smiles>  (67) 
[H]C(C(=O)N([H])C([H])(C(=O)N([H])C([H])([H])C([H])([H])Oc1c([H])c([H])c2c(c1[H])C([H])([H])N(C(=O)C([H])(N([H])C(=O)C([H])(N([H])C([H])([H])[H])C([H])([H])[H])C(C([H])([H])[H])(C([H])([H])[H])C([H])([H])[H])C([H])(C(=O)N([H])C1([H])c3c([H])c([H])c([H])c([H])c3C([H])([H])C([H])([H])C1([H])[H])C2([H])[H])C([H])(C([H])([H])[H])C([H])([H])C([H])([H])[H])=C([H])C([H])([H])C([H])([H])C([H])([H])C([H])([H])C([H])([H])[N+]([H])([H])C([H])([H])C([H])([H])N([H])C(=O)N1C([H])([H])C([H])([H])C([H])([H])C([H])(n2nc(-c3c([H])c([H])c(Oc4c([H])c([H])c(F)c([H])c4F)c([H])c3[H])c(C(=O)N([H])[H])c2N([H])[H])C1([H])[H]

$$$$
69:0:0
     RDKit          3D

111118  0  0  1  0  0  0  0  0999 V2000
  -23.8980  -16.3650   22.9050 C   0  0  0  0  0  0  0  0  0  0  0  0
  -25.0420  -15.9600   22.3490 N   0  0  0  0  0  0  0  0  0  0  0  0
  -22.9220  -16.7020   22.2330 O   0  0  0  0  0  0  0  0  0  0  0  0
  -25.8120  -15.6690   22.9390 H   0  0  0  0  0  0  0  0  0  0  0  0
  -25.2750  -15.8390   20.9160 C   0  0  0  0  0  2  0  0  0  0  0  0
  -26.2990  -16.8760   20.4490 C   0  0  0  0  0  0  0  0  0  0  0  0
  -26.0750  -17.4370   19.2560 N   0  0  0  0  0  0  0  0  0  0  0  0
  -27.2640  -17.1720   21.1600 O   0  0  0  0  0  0  0  0  0  0  0  0
  -25.2790  -17.0950   18.7360 H   0  0  0  0  0  0  0  0  0  0  0  0
  -26.8790  -18.4860   18.6300 C   0  0  0  0  0  2  0  0  0  0  0  0
  -26.4630  -19.8920   19.1010 C   0  0  0  0  0  2  0  0  0  0  0  0
  -25.6980  -20.7080   18.0420 C   0  0  0  0  0  2  0  0  0  0  0  0
  -24.6930  -21.6840   18.6720 C   0  0  0  0  0  2  0  0  0  0  0  0
  -24.5550  -22.9990   17.8820 C   0  0  0  0  0  2  0  0  0  0  0  0
  -23.0950  -23.4570   17.7010 C   0  0  0  0  0  2  0  0  0  0  0  0
  -21.5710  -23.3810   15.7210 C   0  0  0  0  0  0  0  0  0  0  0  0
  -22.5470  -22.8760   16.4800 N   0  0  0  0  0  0  0  0  0  0  0  0
  -20.8670  -24.3340   16.0600 O   0  0  0  0  0  0  0  0  0  0  0  0
  -23.0290  -22.0650   16.1170 H   0  0  0  0  0  0  0  0  0  0  0  0
  -21.3940  -22.7200   14.3470 C   0  0  0  0  0  2  0  0  0  0  0  0
  -21.1460  -24.9550   13.0860 C   0  0  0  0  0  0  0  0  0  0  0  0
  -21.4150  -27.1520   14.1670 C   0  0  0  0  0  2  0  0  0  0  0  0
  -22.4480  -28.0720   13.4960 C   0  0  0  0  0  2  0  0  0  0  0  0
  -23.8490  -27.8100   14.0720 C   0  0  0  0  0  2  0  0  0  0  0  0
  -24.2190  -26.3080   14.0390 C   0  0  0  0  0  3  0  0  0  0  0  0
  -23.0930  -25.4400   14.6270 C   0  0  0  0  0  2  0  0  0  0  0  0
  -21.8100  -25.7490   13.9680 N   0  0  0  0  0  0  0  0  0  0  0  0
  -20.3900  -25.4040   12.2210 O   0  0  0  0  0  0  0  0  0  0  0  0
  -21.2700  -23.6200   13.1870 N   0  0  0  0  0  0  0  0  0  0  0  0
  -20.8590  -23.1570   12.3890 H   0  0  0  0  0  0  0  0  0  0  0  0
  -26.6120  -25.3840   14.2660 C   0  0  0  0  0  0  0  0  0  0  0  0
  -27.5450  -25.4920   15.2640 C   0  0  0  0  0  0  0  0  0  0  0  0
  -26.9190  -26.2400   16.3070 C   0  0  0  0  0  0  0  0  0  0  0  0
  -25.4870  -26.0520   14.7230 N   0  0  0  0  0  0  0  0  0  0  0  0
  -25.6630  -26.5160   15.9870 N   0  0  0  0  0  0  0  0  0  0  0  0
  -27.4640  -26.7560   17.5680 C   0  0  0  0  0  0  0  0  0  0  0  0
  -26.7150  -26.7250   18.7650 C   0  0  0  0  0  3  0  0  0  0  0  0
  -27.2690  -27.2080   19.9700 C   0  0  0  0  0  3  0  0  0  0  0  0
  -28.5850  -27.7300   19.9860 C   0  0  0  0  0  0  0  0  0  0  0  0
  -29.3170  -27.7830   18.7870 C   0  0  0  0  0  3  0  0  0  0  0  0
  -28.7620  -27.3040   17.5880 C   0  0  0  0  0  3  0  0  0  0  0  0
  -29.1950  -28.2510   21.1020 O   0  0  0  0  0  0  0  0  0  0  0  0
  -28.6890  -28.0440   22.3610 C   0  0  0  0  0  0  0  0  0  0  0  0
  -28.5480  -26.7470   22.9040 C   0  0  0  0  0  3  0  0  0  0  0  0
  -28.0920  -26.5840   24.2260 C   0  0  0  0  0  3  0  0  0  0  0  0
  -27.7830  -27.7120   25.0100 C   0  0  0  0  0  0  0  0  0  0  0  0
  -27.9280  -29.0040   24.4730 C   0  0  0  0  0  3  0  0  0  0  0  0
  -28.3820  -29.1680   23.1530 C   0  0  0  0  0  0  0  0  0  0  0  0
  -28.5410  -30.4150   22.6480 F   0  0  0  0  0  0  0  0  0  0  0  0
  -27.3520  -27.5560   26.2830 F   0  0  0  0  0  0  0  0  0  0  0  0
  -28.9670  -25.0140   15.2150 C   0  0  0  0  0  0  0  0  0  0  0  0
  -29.4720  -24.4850   16.3260 N   0  0  0  0  0  0  0  0  0  0  0  0
  -29.6210  -25.0560   14.1760 O   0  0  0  0  0  0  0  0  0  0  0  0
  -28.9760  -24.5380   17.2030 H   0  0  0  0  0  0  0  0  0  0  0  0
  -30.4300  -24.1600   16.3260 H   0  0  0  0  0  0  0  0  0  0  0  0
  -26.6320  -24.7930   13.0070 N   0  0  0  0  0  0  0  0  0  0  0  0
  -27.4580  -24.3430   12.6290 H   0  0  0  0  0  0  0  0  0  0  0  0
  -25.8600  -24.8170   12.3530 H   0  0  0  0  0  0  0  0  0  0  0  0
  -23.8360  -16.4150   24.4340 C   0  0  0  0  0  2  0  0  0  0  0  0
  -22.4640  -15.9700   24.9850 C   0  0  0  0  0  2  0  0  0  0  0  0
  -21.8770  -16.8890   26.0760 C   0  0  0  0  0  2  0  0  0  0  0  0
  -20.3960  -16.6170   26.3980 C   0  0  0  0  0  2  0  0  0  0  0  0
  -19.4070  -17.1990   25.3750 C   0  0  0  0  0  2  0  0  0  0  0  0
  -17.9820  -17.3360   25.9410 C   0  0  0  0  0  2  0  0  0  0  0  0
  -16.9520  -16.8890   24.9800 N   0  0  0  0  0  4  0  0  0  0  0  0
  -16.3430  -16.2540   25.4720 H   0  0  0  0  0  0  0  0  0  0  0  0
  -17.3920  -16.3650   24.2390 H   0  0  0  0  0  0  0  0  0  0  0  0
  -16.1140  -17.9720   24.4160 C   0  0  0  0  0  2  0  0  0  0  0  0
  -14.7300  -17.4500   23.9730 C   0  0  0  0  0  2  0  0  0  0  0  0
  -13.6840  -18.5510   23.7050 C   0  0  0  0  0  2  0  0  0  0  0  0
  -13.3440  -19.2520   24.8990 O   0  0  0  0  0  0  0  0  0  0  0  0
  -12.5590  -26.3050   25.5080 C   0  0  0  0  0  0  0  0  0  0  0  0
  -13.9330  -20.4800   25.0510 C   0  0  0  0  0  0  0  0  0  0  0  0
  -14.8780  -25.4900   25.2110 C   0  0  0  0  0  3  0  0  0  0  0  0
  -15.1980  -22.9670   25.4240 C   0  0  0  0  0  0  0  0  0  0  0  0
  -13.1040  -24.0110   26.3040 C   0  0  0  0  0  2  0  0  0  0  0  0
  -13.8430  -22.8150   25.7430 C   0  0  0  0  0  0  0  0  0  0  0  0
  -13.2010  -21.5750   25.5520 C   0  0  0  0  0  3  0  0  0  0  0  0
  -15.3010  -20.6340   24.7530 C   0  0  0  0  0  3  0  0  0  0  0  0
  -15.9340  -21.8790   24.9210 C   0  0  0  0  0  3  0  0  0  0  0  0
  -15.8080  -24.3300   25.6610 C   0  0  0  0  0  2  0  0  0  0  0  0
  -13.4590  -25.2910   25.6520 N   0  0  0  0  0  0  0  0  0  0  0  0
  -12.9030  -27.4060   25.0580 O   0  0  0  0  0  0  0  0  0  0  0  0
  -15.0240  -25.6730   23.6840 C   0  0  0  0  0  0  0  0  0  0  0  0
  -16.2380  -25.4250   23.1670 N   0  0  0  0  0  0  0  0  0  0  0  0
  -14.0580  -26.0020   22.9910 O   0  0  0  0  0  0  0  0  0  0  0  0
  -16.9810  -25.1700   23.8040 H   0  0  0  0  0  0  0  0  0  0  0  0
  -18.3210  -23.9310   20.6270 C   0  0  0  0  0  0  0  0  0  0  0  0
  -16.6010  -25.4950   21.7530 C   0  0  0  0  0  3  0  0  0  0  0  0
  -15.5410  -24.7950   20.8710 C   0  0  0  0  0  2  0  0  0  0  0  0
  -15.8650  -23.3240   20.5940 C   0  0  0  0  0  2  0  0  0  0  0  0
  -17.2170  -23.1990   19.8840 C   0  0  0  0  0  2  0  0  0  0  0  0
  -18.0300  -24.9980   21.5170 C   0  0  0  0  0  0  0  0  0  0  0  0
  -19.0920  -25.6190   22.2120 C   0  0  0  0  0  3  0  0  0  0  0  0
  -20.4210  -25.1930   22.0260 C   0  0  0  0  0  3  0  0  0  0  0  0
  -20.7050  -24.1480   21.1290 C   0  0  0  0  0  3  0  0  0  0  0  0
  -19.6570  -23.5220   20.4310 C   0  0  0  0  0  3  0  0  0  0  0  0
  -11.0650  -26.1370   25.9250 C   0  0  0  0  0  3  0  0  0  0  0  0
  -10.0560  -26.3990   24.7410 C   0  0  1  0  0  0  0  0  0  0  0  0
  -10.2800  -27.7510   24.0240 C   0  0  0  0  0  1  0  0  0  0  0  0
  -10.1600  -25.2790   23.6800 C   0  0  0  0  0  1  0  0  0  0  0  0
   -8.6030  -26.3740   25.2720 C   0  0  0  0  0  1  0  0  0  0  0  0
  -10.8100  -27.0590   27.0390 N   0  0  0  0  0  0  0  0  0  0  0  0
  -10.6310  -26.6800   28.3120 C   0  0  0  0  0  0  0  0  0  0  0  0
  -10.5880  -25.4960   28.6590 O   0  0  0  0  0  0  0  0  0  0  0  0
  -10.8840  -28.0450   26.8380 H   0  0  0  0  0  0  0  0  0  0  0  0
  -11.7420  -27.8670   30.2290 C   0  0  0  0  0  1  0  0  0  0  0  0
  -10.4730  -27.7910   29.3660 C   0  0  0  0  0  3  0  0  0  0  0  0
   -8.0240  -27.8230   29.5360 C   0  0  0  0  0  1  0  0  0  0  0  0
   -9.2890  -27.6130   30.2350 N   0  0  0  0  0  0  0  0  0  0  0  0
   -9.3240  -28.2540   31.0240 H   0  0  0  0  0  0  0  0  0  0  0  0
  1 59  1  0
  2  1  1  0
  2  4  1  0
  3  1  2  0
  5  2  1  0
  6  5  1  0
  6  8  2  0
  7  6  1  0
  9  7  1  0
 10 11  1  0
 10  7  1  0
 12 13  1  0
 12 11  1  0
 14 13  1  0
 15 14  1  0
 16 18  2  0
 16 17  1  0
 17 15  1  0
 19 17  1  0
 20 16  1  0
 21 29  1  0
 21 27  1  0
 23 24  1  0
 23 22  1  0
 25 24  1  0
 25 26  1  0
 25 34  1  0
 27 22  1  0
 27 26  1  0
 28 21  2  0
 29 20  1  0
 30 29  1  0
 31 34  1  0
 31 32  2  0
 32 33  1  0
 33 36  1  0
 34 35  1  0
 35 33  2  0
 36 41  2  0
 36 37  1  0
 37 38  2  0
 38 39  1  0
 39 42  1  0
 40 39  2  0
 41 40  1  0
 42 43  1  0
 43 44  2  0
 43 48  1  0
 44 45  1  0
 45 46  2  0
 46 50  1  0
 47 46  1  0
 48 47  2  0
 49 48  1  0
 51 32  1  0
 51 52  1  0
 52 55  1  0
 52 54  1  0
 53 51  2  0
 56 31  1  0
 57 56  1  0
 58 56  1  0
 59 60  1  0
 60 61  1  0
 61 62  1  0
 63 64  1  0
 63 62  1  0
 65 66  1  0
 65 64  1  0
 67 65  1  0
 68 65  1  0
 69 68  1  0
 70 69  1  0
 70 71  1  0
 71 73  1  0
 72 82  1  0
 73 78  1  0
 74 84  1  0
 74 82  1  0
 74 81  1  0
 75 81  1  0
 75 77  1  0
 77 76  1  0
 78 77  2  0
 79 80  1  0
 79 73  2  0
 80 75  2  0
 82 76  1  0
 83 72  2  0
 85 84  1  0
 85 87  1  0
 86 84  2  0
 88 93  1  0
 89 85  1  0
 90 89  1  0
 91 90  1  0
 92 91  1  0
 92 88  1  0
 93 89  1  0
 93 94  2  0
 95 94  1  0
 96 95  2  0
 97 88  2  0
 97 96  1  0
 98 72  1  0
 98103  1  0
 99102  1  1
 99 98  1  0
100 99  1  0
101 99  1  0
103104  1  0
104105  2  0
104108  1  0
106103  1  0
108107  1  0
108110  1  0
109110  1  0
110111  1  0
M  ISO  4  21 100  29 100  70 101  71 101
M  END
>  <TORSDO>  (68) 
F 36

>  <SCORE>  (68) 
28.091

>  <name>  (68) 
69

>  <ligand_id>  (68) 
69

>  <original_smiles>  (68) 
[H]c1c([H])c([H])c2c(c1[H])C([H])([H])C([H])([H])C([H])([H])C2([H])N([H])C(=O)C1([H])N(C(=O)C([H])(N([H])C(=O)C([H])(N([H])C([H])([H])[H])C([H])([H])[H])C(C([H])([H])[H])(C([H])([H])[H])C([H])([H])[H])C([H])([H])c2c([H])c(OC([H])([H])C([H])([H])C([H])([H])[N+]([H])([H])C([H])([H])C([H])([H])C([H])([H])C([H])([H])C([H])([H])C([H])([H])C(=O)N([H])C([H])([H])C(=O)N([H])C([H])([H])C([H])([H])C([H])([H])C([H])([H])C([H])([H])C([H])([H])N([H])C(=O)C([H])([H])N([H])C(=O)N3C([H])([H])C([H])([H])C([H])([H])C([H])(n4nc(-c5c([H])c([H])c(Oc6c([H])c([H])c(F)c([H])c6F)c([H])c5[H])c(C(=O)N([H])[H])c4N([H])[H])C3([H])[H])c([H])c([H])c2C1([H])[H]

>  <smiles>  (68) 
[H]c1c([H])c([H])c2c(c1[H])C([H])([H])C([H])([H])C([H])([H])C2([H])N([H])C(=O)C1([H])N(C(=O)C([H])(N([H])C(=O)C([H])(N([H])C([H])([H])[H])C([H])([H])[H])C(C([H])([H])[H])(C([H])([H])[H])C([H])([H])[H])C([H])([H])c2c([H])c(OC([H])([H])C([H])([H])C([H])([H])[N+]([H])([H])C([H])([H])C([H])([H])C([H])([H])C([H])([H])C([H])([H])C([H])([H])C(=O)N([H])C([H])([H])C(=O)N([H])C([H])([H])C([H])([H])C([H])([H])C([H])([H])C([H])([H])C([H])([H])N([H])C(=O)C([H])([H])N([H])C(=O)N3C([H])([H])C([H])([H])C([H])([H])C([H])(n4nc(-c5c([H])c([H])c(Oc6c([H])c([H])c(F)c([H])c6F)c([H])c5[H])c(C(=O)N([H])[H])c4N([H])[H])C3([H])[H])c([H])c([H])c2C1([H])[H]

$$$$
70:0:0
     RDKit          3D

105112  0  0  1  0  0  0  0  0999 V2000
  -32.6790  -18.3850   20.0880 C   0  0  0  0  0  0  0  0  0  0  0  0
  -32.1430  -19.1120   21.0770 N   0  0  0  0  0  0  0  0  0  0  0  0
  -32.0550  -18.0870   19.0670 O   0  0  0  0  0  0  0  0  0  0  0  0
  -32.7270  -19.2910   21.8840 H   0  0  0  0  0  0  0  0  0  0  0  0
  -30.7890  -19.6640   21.1080 C   0  0  0  0  0  2  0  0  0  0  0  0
  -30.5840  -20.8200   20.1080 C   0  0  0  0  0  2  0  0  0  0  0  0
  -31.5790  -21.9840   20.2770 C   0  0  0  0  0  2  0  0  0  0  0  0
  -31.4730  -23.0380   19.1620 C   0  0  0  0  0  2  0  0  0  0  0  0
  -29.9090  -24.8800   19.7730 C   0  0  0  0  0  0  0  0  0  0  0  0
  -30.1800  -23.7190   19.1600 N   0  0  0  0  0  0  0  0  0  0  0  0
  -30.7470  -25.4790   20.4530 O   0  0  0  0  0  0  0  0  0  0  0  0
  -29.4370  -23.2980   18.6160 H   0  0  0  0  0  0  0  0  0  0  0  0
  -28.4950  -25.4490   19.5850 C   0  0  0  0  0  2  0  0  0  0  0  0
  -28.4460  -26.7870   20.0830 O   0  0  0  0  0  0  0  0  0  0  0  0
  -24.6120  -31.8690   23.2100 C   0  0  0  0  0  0  0  0  0  0  0  0
  -27.2430  -27.4580   20.0830 C   0  0  0  0  0  0  0  0  0  0  0  0
  -23.3980  -30.4920   21.5510 C   0  0  0  0  0  3  0  0  0  0  0  0
  -24.8450  -28.9570   20.1180 C   0  0  0  0  0  0  0  0  0  0  0  0
  -25.9250  -30.8390   21.3610 C   0  0  0  0  0  2  0  0  0  0  0  0
  -26.0020  -29.4740   20.7110 C   0  0  0  0  0  0  0  0  0  0  0  0
  -27.2000  -28.7300   20.6940 C   0  0  0  0  0  3  0  0  0  0  0  0
  -26.0620  -26.9440   19.4950 C   0  0  0  0  0  3  0  0  0  0  0  0
  -24.8680  -27.6890   19.5120 C   0  0  0  0  0  3  0  0  0  0  0  0
  -23.6050  -29.8210   20.1660 C   0  0  0  0  0  2  0  0  0  0  0  0
  -24.6630  -31.0810   22.0990 N   0  0  0  0  0  0  0  0  0  0  0  0
  -23.5320  -32.1430   23.7520 O   0  0  0  0  0  0  0  0  0  0  0  0
  -22.7390  -29.4670   22.5000 C   0  0  0  0  0  0  0  0  0  0  0  0
  -21.4120  -29.3030   22.3740 N   0  0  0  0  0  0  0  0  0  0  0  0
  -23.4180  -28.8210   23.3030 O   0  0  0  0  0  0  0  0  0  0  0  0
  -20.9270  -29.8760   21.6970 H   0  0  0  0  0  0  0  0  0  0  0  0
  -18.0270  -28.1370   22.8490 C   0  0  0  0  0  0  0  0  0  0  0  0
  -20.5850  -28.3660   23.1320 C   0  0  0  0  0  3  0  0  0  0  0  0
  -20.6750  -26.9390   22.5420 C   0  0  0  0  0  2  0  0  0  0  0  0
  -19.5740  -26.6380   21.5210 C   0  0  0  0  0  2  0  0  0  0  0  0
  -18.1920  -26.7920   22.1620 C   0  0  0  0  0  2  0  0  0  0  0  0
  -19.1520  -28.8830   23.2910 C   0  0  0  0  0  0  0  0  0  0  0  0
  -18.9450  -30.1440   23.8920 C   0  0  0  0  0  3  0  0  0  0  0  0
  -17.6450  -30.6580   24.0560 C   0  0  0  0  0  3  0  0  0  0  0  0
  -16.5340  -29.9090   23.6330 C   0  0  0  0  0  3  0  0  0  0  0  0
  -16.7260  -28.6510   23.0340 C   0  0  0  0  0  3  0  0  0  0  0  0
  -25.9020  -32.4820   23.8400 C   0  0  0  0  0  3  0  0  0  0  0  0
  -26.4470  -31.6600   25.0720 C   0  0  1  0  0  0  0  0  0  0  0  0
  -25.3740  -31.3710   26.1480 C   0  0  0  0  0  1  0  0  0  0  0  0
  -27.0290  -30.3040   24.6090 C   0  0  0  0  0  1  0  0  0  0  0  0
  -27.6050  -32.4320   25.7480 C   0  0  0  0  0  1  0  0  0  0  0  0
  -25.5890  -33.8630   24.2330 N   0  0  0  0  0  0  0  0  0  0  0  0
  -25.9030  -34.9470   23.5130 C   0  0  0  0  0  0  0  0  0  0  0  0
  -26.5590  -34.8930   22.4700 O   0  0  0  0  0  0  0  0  0  0  0  0
  -25.0040  -33.9790   25.0470 H   0  0  0  0  0  0  0  0  0  0  0  0
  -24.1490  -36.7320   23.2640 C   0  0  0  0  0  1  0  0  0  0  0  0
  -25.4100  -36.3110   24.0340 C   0  0  0  0  0  3  0  0  0  0  0  0
  -27.5580  -37.1810   24.8460 C   0  0  0  0  0  1  0  0  0  0  0  0
  -26.4290  -37.3790   23.9410 N   0  0  0  0  0  0  0  0  0  0  0  0
  -26.0180  -38.2880   24.1410 H   0  0  0  0  0  0  0  0  0  0  0  0
  -34.1330  -17.9300   20.2700 C   0  0  0  0  0  2  0  0  0  0  0  0
  -34.2080  -16.5210   20.0820 O   0  0  0  0  0  0  0  0  0  0  0  0
  -35.5370  -16.0260   20.1240 C   0  0  0  0  0  2  0  0  0  0  0  0
  -35.5300  -14.5050   19.9120 C   0  0  0  0  0  2  0  0  0  0  0  0
  -34.9510  -13.7210   21.1000 C   0  0  0  0  0  2  0  0  0  0  0  0
  -35.0400  -12.1980   20.8980 C   0  0  0  0  0  2  0  0  0  0  0  0
  -34.7480  -11.3780   22.1700 C   0  0  0  0  0  2  0  0  0  0  0  0
  -33.2860  -10.9170   22.3540 C   0  0  0  0  0  2  0  0  0  0  0  0
  -32.0750  -12.8500   23.3840 C   0  0  0  0  0  0  0  0  0  0  0  0
  -32.3060  -11.9990   22.3770 N   0  0  0  0  0  0  0  0  0  0  0  0
  -32.7730  -12.8810   24.3960 O   0  0  0  0  0  0  0  0  0  0  0  0
  -31.6620  -12.0300   21.5980 H   0  0  0  0  0  0  0  0  0  0  0  0
  -30.8750  -13.8030   23.2570 C   0  0  0  0  0  2  0  0  0  0  0  0
  -30.8620  -14.2520   20.7720 C   0  0  0  0  0  0  0  0  0  0  0  0
  -30.4120  -12.2800   19.3760 C   0  0  0  0  0  2  0  0  0  0  0  0
  -29.4760  -12.5280   18.1830 C   0  0  0  0  0  2  0  0  0  0  0  0
  -28.0110  -12.3580   18.6110 C   0  0  0  0  0  2  0  0  0  0  0  0
  -27.6700  -13.1970   19.8670 C   0  0  0  0  0  3  0  0  0  0  0  0
  -28.7050  -12.9770   20.9920 C   0  0  0  0  0  2  0  0  0  0  0  0
  -30.0700  -13.1910   20.4760 N   0  0  0  0  0  0  0  0  0  0  0  0
  -31.6650  -14.7380   19.9820 O   0  0  0  0  0  0  0  0  0  0  0  0
  -30.8770  -14.6490   22.0520 N   0  0  0  0  0  0  0  0  0  0  0  0
  -31.3810  -15.5130   22.1830 H   0  0  0  0  0  0  0  0  0  0  0  0
  -25.2670  -13.8150   20.5680 C   0  0  0  0  0  0  0  0  0  0  0  0
  -24.1900  -13.0450   20.9180 C   0  0  0  0  0  0  0  0  0  0  0  0
  -24.6410  -11.6900   20.8690 C   0  0  0  0  0  0  0  0  0  0  0  0
  -26.3090  -12.9300   20.3330 N   0  0  0  0  0  0  0  0  0  0  0  0
  -25.9330  -11.6460   20.5720 N   0  0  0  0  0  0  0  0  0  0  0  0
  -23.9040  -10.4310   21.0380 C   0  0  0  0  0  0  0  0  0  0  0  0
  -24.3590   -9.4230   21.9160 C   0  0  0  0  0  3  0  0  0  0  0  0
  -23.6290   -8.2260   22.0750 C   0  0  0  0  0  3  0  0  0  0  0  0
  -22.4260   -8.0300   21.3550 C   0  0  0  0  0  0  0  0  0  0  0  0
  -21.9890   -9.0260   20.4640 C   0  0  0  0  0  3  0  0  0  0  0  0
  -22.7210  -10.2150   20.3040 C   0  0  0  0  0  3  0  0  0  0  0  0
  -21.6640   -6.8890   21.4240 O   0  0  0  0  0  0  0  0  0  0  0  0
  -21.6860   -6.0750   22.5280 C   0  0  0  0  0  0  0  0  0  0  0  0
  -21.4010   -6.5660   23.8220 C   0  0  0  0  0  3  0  0  0  0  0  0
  -21.3660   -5.6800   24.9180 C   0  0  0  0  0  3  0  0  0  0  0  0
  -21.6060   -4.3070   24.7220 C   0  0  0  0  0  0  0  0  0  0  0  0
  -21.8830   -3.8170   23.4340 C   0  0  0  0  0  3  0  0  0  0  0  0
  -21.9190   -4.6980   22.3400 C   0  0  0  0  0  0  0  0  0  0  0  0
  -22.1650   -4.2180   21.0980 F   0  0  0  0  0  0  0  0  0  0  0  0
  -21.5640   -3.4550   25.7730 F   0  0  0  0  0  0  0  0  0  0  0  0
  -22.7920  -13.5250   21.1870 C   0  0  0  0  0  0  0  0  0  0  0  0
  -22.0550  -12.8240   22.0410 N   0  0  0  0  0  0  0  0  0  0  0  0
  -22.3600  -14.5560   20.6740 O   0  0  0  0  0  0  0  0  0  0  0  0
  -22.4110  -11.9850   22.4760 H   0  0  0  0  0  0  0  0  0  0  0  0
  -21.1180  -13.1300   22.2630 H   0  0  0  0  0  0  0  0  0  0  0  0
  -25.4480  -15.1870   20.4120 N   0  0  0  0  0  0  0  0  0  0  0  0
  -24.6960  -15.8560   20.5310 H   0  0  0  0  0  0  0  0  0  0  0  0
  -26.3160  -15.6140   20.1140 H   0  0  0  0  0  0  0  0  0  0  0  0
  1 55  1  0
  1  2  1  0
  2  5  1  0
  2  4  1  0
  3  1  2  0
  6  7  1  0
  6  5  1  0
  8  7  1  0
  9 11  2  0
 10  8  1  0
 10  9  1  0
 12 10  1  0
 13  9  1  0
 13 14  1  0
 14 16  1  0
 15 26  2  0
 16 21  1  0
 17 25  1  0
 17 27  1  0
 18 24  1  0
 18 20  1  0
 19 25  1  0
 20 19  1  0
 21 20  2  0
 22 23  1  0
 22 16  2  0
 23 18  2  0
 24 17  1  0
 25 15  1  0
 27 29  2  0
 28 27  1  0
 30 28  1  0
 31 40  2  0
 31 36  1  0
 32 28  1  0
 32 36  1  0
 33 32  1  0
 34 35  1  0
 34 33  1  0
 35 31  1  0
 36 37  2  0
 37 38  1  0
 39 38  2  0
 40 39  1  0
 41 15  1  0
 41 46  1  0
 41 42  1  0
 42 45  1  1
 42 43  1  0
 44 42  1  0
 46 49  1  0
 47 51  1  0
 47 46  1  0
 48 47  2  0
 51 50  1  0
 53 51  1  0
 53 54  1  0
 53 52  1  0
 56 57  1  0
 56 55  1  0
 58 57  1  0
 58 59  1  0
 60 59  1  0
 60 61  1  0
 61 62  1  0
 62 64  1  0
 63 65  2  0
 64 63  1  0
 66 64  1  0
 67 63  1  0
 68 76  1  0
 69 74  1  0
 70 71  1  0
 70 69  1  0
 72 71  1  0
 72 81  1  0
 72 73  1  0
 74 68  1  0
 74 73  1  0
 75 68  2  0
 76 77  1  0
 76 67  1  0
 78 79  2  0
 79 98  1  0
 80 79  1  0
 80 83  1  0
 81 78  1  0
 81 82  1  0
 82 80  2  0
 83 84  1  0
 84 85  2  0
 86 89  1  0
 86 85  1  0
 87 86  2  0
 88 87  1  0
 88 83  2  0
 89 90  1  0
 90 91  1  0
 91 92  2  0
 93 92  1  0
 93 97  1  0
 94 93  2  0
 95 90  2  0
 95 94  1  0
 96 95  1  0
 98 99  1  0
 99102  1  0
 99101  1  0
100 98  2  0
103104  1  0
103 78  1  0
105103  1  0
M  ISO  4  13 101  14 101  68 100  76 100
M  END
>  <TORSDO>  (69) 
F 32

>  <SCORE>  (69) 
-2.468

>  <name>  (69) 
70

>  <ligand_id>  (69) 
70

>  <original_smiles>  (69) 
[H]c1c([H])c([H])c2c(c1[H])C([H])([H])C([H])([H])C([H])([H])C2([H])N([H])C(=O)C1([H])N(C(=O)C([H])(N([H])C(=O)C([H])(N([H])C([H])([H])[H])C([H])([H])[H])C(C([H])([H])[H])(C([H])([H])[H])C([H])([H])[H])C([H])([H])c2c([H])c(OC([H])([H])C(=O)N([H])C([H])([H])C([H])([H])C([H])([H])C([H])([H])N([H])C(=O)C([H])([H])OC([H])([H])C([H])([H])C([H])([H])C([H])([H])C([H])([H])C([H])([H])N([H])C(=O)C([H])([H])N([H])C(=O)N3C([H])([H])C([H])([H])C([H])([H])C([H])(n4nc(-c5c([H])c([H])c(Oc6c([H])c([H])c(F)c([H])c6F)c([H])c5[H])c(C(=O)N([H])[H])c4N([H])[H])C3([H])[H])c([H])c([H])c2C1([H])[H]

>  <smiles>  (69) 
[H]c1c([H])c([H])c2c(c1[H])C([H])([H])C([H])([H])C([H])([H])C2([H])N([H])C(=O)C1([H])N(C(=O)C([H])(N([H])C(=O)C([H])(N([H])C([H])([H])[H])C([H])([H])[H])C(C([H])([H])[H])(C([H])([H])[H])C([H])([H])[H])C([H])([H])c2c([H])c(OC([H])([H])C(=O)N([H])C([H])([H])C([H])([H])C([H])([H])C([H])([H])N([H])C(=O)C([H])([H])OC([H])([H])C([H])([H])C([H])([H])C([H])([H])C([H])([H])C([H])([H])N([H])C(=O)C([H])([H])N([H])C(=O)N3C([H])([H])C([H])([H])C([H])([H])C([H])(n4nc(-c5c([H])c([H])c(Oc6c([H])c([H])c(F)c([H])c6F)c([H])c5[H])c(C(=O)N([H])[H])c4N([H])[H])C3([H])[H])c([H])c([H])c2C1([H])[H]

$$$$
71:0:0
     RDKit          3D

109116  0  0  1  0  0  0  0  0999 V2000
  -34.0390  -18.7330   20.2660 C   0  0  0  0  0  0  0  0  0  0  0  0
  -33.8820  -17.8750   19.2500 N   0  0  0  0  0  0  0  0  0  0  0  0
  -34.6670  -19.7860   20.1420 O   0  0  0  0  0  0  0  0  0  0  0  0
  -33.3670  -17.0190   19.4110 H   0  0  0  0  0  0  0  0  0  0  0  0
  -34.3760  -18.1400   17.9020 C   0  0  0  0  0  2  0  0  0  0  0  0
  -33.9590  -17.0740   16.8760 C   0  0  0  0  0  2  0  0  0  0  0  0
  -32.4530  -16.7540   16.8750 C   0  0  0  0  0  2  0  0  0  0  0  0
  -31.9460  -16.2670   15.5060 C   0  0  0  0  0  2  0  0  0  0  0  0
  -30.5360  -15.6480   15.5270 C   0  0  0  0  0  2  0  0  0  0  0  0
  -29.4140  -16.5550   16.0670 C   0  0  0  0  0  2  0  0  0  0  0  0
  -29.2760  -17.7970   15.2790 N   0  0  0  0  0  4  0  0  0  0  0  0
  -29.2320  -17.5300   14.3090 H   0  0  0  0  0  0  0  0  0  0  0  0
  -30.0940  -18.3740   15.3900 H   0  0  0  0  0  0  0  0  0  0  0  0
  -28.0620  -18.6030   15.5460 C   0  0  0  0  0  2  0  0  0  0  0  0
  -28.0990  -19.4020   16.8710 C   0  0  0  0  0  2  0  0  0  0  0  0
  -27.7060  -18.5990   18.1320 C   0  0  0  0  0  2  0  0  0  0  0  0
  -28.8270  -18.4650   19.1900 C   0  0  0  0  0  2  0  0  0  0  0  0
  -28.7210  -17.1430   19.9750 C   0  0  0  0  0  2  0  0  0  0  0  0
  -29.9550  -16.8020   20.8330 C   0  0  0  0  0  2  0  0  0  0  0  0
  -30.6740  -14.4260   20.6000 C   0  0  0  0  0  0  0  0  0  0  0  0
  -30.4220  -12.2860   19.4150 C   0  0  0  0  0  2  0  0  0  0  0  0
  -29.4910  -12.5280   18.2090 C   0  0  0  0  0  2  0  0  0  0  0  0
  -28.0080  -12.3970   18.6110 C   0  0  0  0  0  2  0  0  0  0  0  0
  -27.6650  -13.1980   19.8970 C   0  0  0  0  0  3  0  0  0  0  0  0
  -28.7020  -12.9160   21.0080 C   0  0  0  0  0  2  0  0  0  0  0  0
  -30.0410  -13.2320   20.4740 N   0  0  0  0  0  0  0  0  0  0  0  0
  -31.7600  -14.6820   20.0720 O   0  0  0  0  0  0  0  0  0  0  0  0
  -29.9280  -15.3790   21.1790 N   0  0  0  0  0  0  0  0  0  0  0  0
  -29.0970  -15.0500   21.6480 H   0  0  0  0  0  0  0  0  0  0  0  0
  -25.2510  -13.8120   20.5540 C   0  0  0  0  0  0  0  0  0  0  0  0
  -24.1780  -13.0380   20.9120 C   0  0  0  0  0  0  0  0  0  0  0  0
  -24.6370  -11.6870   20.8730 C   0  0  0  0  0  0  0  0  0  0  0  0
  -26.3010  -12.9290   20.3450 N   0  0  0  0  0  0  0  0  0  0  0  0
  -25.9300  -11.6460   20.5840 N   0  0  0  0  0  0  0  0  0  0  0  0
  -23.9040  -10.4250   21.0380 C   0  0  0  0  0  0  0  0  0  0  0  0
  -24.3590   -9.4180   21.9160 C   0  0  0  0  0  3  0  0  0  0  0  0
  -23.6260   -8.2220   22.0750 C   0  0  0  0  0  3  0  0  0  0  0  0
  -22.4240   -8.0250   21.3540 C   0  0  0  0  0  0  0  0  0  0  0  0
  -21.9870   -9.0210   20.4650 C   0  0  0  0  0  3  0  0  0  0  0  0
  -22.7210  -10.2080   20.3050 C   0  0  0  0  0  3  0  0  0  0  0  0
  -21.6600   -6.8840   21.4220 O   0  0  0  0  0  0  0  0  0  0  0  0
  -21.6850   -6.0710   22.5250 C   0  0  0  0  0  0  0  0  0  0  0  0
  -21.4040   -6.5630   23.8180 C   0  0  0  0  0  3  0  0  0  0  0  0
  -21.3670   -5.6790   24.9140 C   0  0  0  0  0  3  0  0  0  0  0  0
  -21.6050   -4.3050   24.7210 C   0  0  0  0  0  0  0  0  0  0  0  0
  -21.8820   -3.8130   23.4340 C   0  0  0  0  0  3  0  0  0  0  0  0
  -21.9190   -4.6940   22.3380 C   0  0  0  0  0  0  0  0  0  0  0  0
  -22.1650   -4.2130   21.0970 F   0  0  0  0  0  0  0  0  0  0  0  0
  -21.5610   -3.4560   25.7730 F   0  0  0  0  0  0  0  0  0  0  0  0
  -22.7820  -13.5200   21.1800 C   0  0  0  0  0  0  0  0  0  0  0  0
  -22.0510  -12.8200   22.0430 N   0  0  0  0  0  0  0  0  0  0  0  0
  -22.3500  -14.5490   20.6620 O   0  0  0  0  0  0  0  0  0  0  0  0
  -22.4220  -11.9900   22.4810 H   0  0  0  0  0  0  0  0  0  0  0  0
  -21.1120  -13.1170   22.2680 H   0  0  0  0  0  0  0  0  0  0  0  0
  -25.4060  -15.1790   20.3690 N   0  0  0  0  0  0  0  0  0  0  0  0
  -24.6100  -15.8080   20.4010 H   0  0  0  0  0  0  0  0  0  0  0  0
  -26.2440  -15.6210   20.0150 H   0  0  0  0  0  0  0  0  0  0  0  0
  -33.4060  -18.3740   21.6150 C   0  0  0  0  0  2  0  0  0  0  0  0
  -32.7040  -19.5680   22.2980 C   0  0  0  0  0  2  0  0  0  0  0  0
  -31.4350  -20.0710   21.5730 C   0  0  0  0  0  2  0  0  0  0  0  0
  -31.5130  -21.5560   21.1790 C   0  0  0  0  0  2  0  0  0  0  0  0
  -30.3000  -22.0170   20.3600 C   0  0  0  0  0  2  0  0  0  0  0  0
  -29.7110  -24.0460   19.0550 C   0  0  0  0  0  0  0  0  0  0  0  0
  -30.4400  -23.4180   19.9860 N   0  0  0  0  0  0  0  0  0  0  0  0
  -28.8060  -23.4900   18.4300 O   0  0  0  0  0  0  0  0  0  0  0  0
  -31.1600  -23.9530   20.4520 H   0  0  0  0  0  0  0  0  0  0  0  0
  -30.0870  -25.5000   18.7570 C   0  0  0  0  0  2  0  0  0  0  0  0
  -28.8860  -26.4620   18.7140 C   0  0  0  0  0  2  0  0  0  0  0  0
  -28.4210  -26.7670   20.0290 O   0  0  0  0  0  0  0  0  0  0  0  0
  -24.6120  -31.8700   23.2120 C   0  0  0  0  0  0  0  0  0  0  0  0
  -27.2430  -27.4720   20.0700 C   0  0  0  0  0  0  0  0  0  0  0  0
  -23.3980  -30.4930   21.5520 C   0  0  0  0  0  3  0  0  0  0  0  0
  -24.8450  -28.9590   20.1200 C   0  0  0  0  0  0  0  0  0  0  0  0
  -25.9240  -30.8410   21.3640 C   0  0  0  0  0  2  0  0  0  0  0  0
  -26.0020  -29.4760   20.7170 C   0  0  0  0  0  0  0  0  0  0  0  0
  -27.2010  -28.7310   20.7040 C   0  0  0  0  0  3  0  0  0  0  0  0
  -26.0650  -26.9510   19.4920 C   0  0  0  0  0  3  0  0  0  0  0  0
  -24.8670  -27.6910   19.5130 C   0  0  0  0  0  3  0  0  0  0  0  0
  -23.6070  -29.8240   20.1670 C   0  0  0  0  0  2  0  0  0  0  0  0
  -24.6620  -31.0810   22.1020 N   0  0  0  0  0  0  0  0  0  0  0  0
  -23.5320  -32.1450   23.7530 O   0  0  0  0  0  0  0  0  0  0  0  0
  -22.7390  -29.4660   22.5000 C   0  0  0  0  0  0  0  0  0  0  0  0
  -21.4120  -29.3040   22.3750 N   0  0  0  0  0  0  0  0  0  0  0  0
  -23.4170  -28.8210   23.3040 O   0  0  0  0  0  0  0  0  0  0  0  0
  -20.9270  -29.8760   21.6980 H   0  0  0  0  0  0  0  0  0  0  0  0
  -18.0270  -28.1380   22.8490 C   0  0  0  0  0  0  0  0  0  0  0  0
  -20.5850  -28.3660   23.1330 C   0  0  0  0  0  3  0  0  0  0  0  0
  -20.6760  -26.9400   22.5420 C   0  0  0  0  0  2  0  0  0  0  0  0
  -19.5740  -26.6390   21.5210 C   0  0  0  0  0  2  0  0  0  0  0  0
  -18.1920  -26.7930   22.1620 C   0  0  0  0  0  2  0  0  0  0  0  0
  -19.1510  -28.8840   23.2910 C   0  0  0  0  0  0  0  0  0  0  0  0
  -18.9450  -30.1440   23.8920 C   0  0  0  0  0  3  0  0  0  0  0  0
  -17.6450  -30.6590   24.0570 C   0  0  0  0  0  3  0  0  0  0  0  0
  -16.5340  -29.9100   23.6330 C   0  0  0  0  0  3  0  0  0  0  0  0
  -16.7250  -28.6510   23.0340 C   0  0  0  0  0  3  0  0  0  0  0  0
  -25.9020  -32.4840   23.8410 C   0  0  0  0  0  3  0  0  0  0  0  0
  -25.5890  -33.8640   24.2340 N   0  0  0  0  0  0  0  0  0  0  0  0
  -25.9030  -34.9490   23.5140 C   0  0  0  0  0  0  0  0  0  0  0  0
  -26.5590  -34.8930   22.4700 O   0  0  0  0  0  0  0  0  0  0  0  0
  -25.0040  -33.9810   25.0490 H   0  0  0  0  0  0  0  0  0  0  0  0
  -24.1480  -36.7320   23.2640 C   0  0  0  0  0  1  0  0  0  0  0  0
  -25.4100  -36.3120   24.0340 C   0  0  0  0  0  3  0  0  0  0  0  0
  -27.5590  -37.1810   24.8460 C   0  0  0  0  0  1  0  0  0  0  0  0
  -26.4290  -37.3810   23.9420 N   0  0  0  0  0  0  0  0  0  0  0  0
  -26.0180  -38.2880   24.1450 H   0  0  0  0  0  0  0  0  0  0  0  0
  -26.4470  -31.6610   25.0720 C   0  0  1  0  0  0  0  0  0  0  0  0
  -25.3750  -31.3700   26.1480 C   0  0  0  0  0  1  0  0  0  0  0  0
  -27.0290  -30.3060   24.6080 C   0  0  0  0  0  1  0  0  0  0  0  0
  -27.6050  -32.4320   25.7480 C   0  0  0  0  0  1  0  0  0  0  0  0
  1 58  1  0
  2  4  1  0
  2  1  1  0
  3  1  2  0
  5  2  1  0
  6  5  1  0
  7  6  1  0
  8  9  1  0
  8  7  1  0
  9 10  1  0
 11 13  1  0
 11 14  1  0
 11 10  1  0
 12 11  1  0
 14 15  1  0
 15 16  1  0
 16 17  1  0
 17 18  1  0
 18 19  1  0
 19 28  1  0
 20 28  1  0
 21 26  1  0
 22 23  1  0
 22 21  1  0
 24 23  1  0
 24 33  1  0
 24 25  1  0
 26 20  1  0
 26 25  1  0
 27 20  2  0
 28 29  1  0
 30 31  2  0
 31 50  1  0
 32 31  1  0
 32 35  1  0
 33 30  1  0
 33 34  1  0
 34 32  2  0
 35 36  1  0
 36 37  2  0
 38 41  1  0
 38 37  1  0
 39 38  2  0
 40 39  1  0
 40 35  2  0
 41 42  1  0
 42 43  1  0
 43 44  2  0
 45 44  1  0
 45 49  1  0
 46 45  2  0
 47 42  2  0
 47 46  1  0
 48 47  1  0
 50 51  1  0
 51 54  1  0
 51 53  1  0
 52 50  2  0
 55 56  1  0
 55 30  1  0
 57 55  1  0
 58 59  1  0
 60 59  1  0
 61 60  1  0
 62 61  1  0
 63 64  1  0
 64 62  1  0
 64 66  1  0
 65 63  2  0
 67 63  1  0
 68 67  1  0
 68 69  1  0
 69 71  1  0
 70 81  2  0
 71 76  1  0
 72 80  1  0
 72 82  1  0
 73 79  1  0
 73 75  1  0
 74 80  1  0
 75 74  1  0
 76 75  2  0
 77 78  1  0
 77 71  2  0
 78 73  2  0
 79 72  1  0
 80 70  1  0
 82 84  2  0
 83 82  1  0
 85 83  1  0
 86 95  2  0
 86 91  1  0
 87 83  1  0
 87 91  1  0
 88 87  1  0
 89 90  1  0
 89 88  1  0
 90 86  1  0
 91 92  2  0
 92 93  1  0
 94 93  2  0
 95 94  1  0
 96 70  1  0
 96 97  1  0
 96106  1  0
 97100  1  0
 98102  1  0
 98 97  1  0
 99 98  2  0
102101  1  0
104102  1  0
104105  1  0
104103  1  0
106109  1  1
106107  1  0
108106  1  0
M  ISO  4  20 100  28 100  68 101  69 101
M  END
>  <TORSDO>  (70) 
F 37

>  <SCORE>  (70) 
-3.529

>  <name>  (70) 
71

>  <ligand_id>  (70) 
71

>  <original_smiles>  (70) 
[H]c1c([H])c([H])c2c(c1[H])C([H])([H])C([H])([H])C([H])([H])C2([H])N([H])C(=O)C1([H])N(C(=O)C([H])(N([H])C(=O)C([H])(N([H])C([H])([H])[H])C([H])([H])[H])C(C([H])([H])[H])(C([H])([H])[H])C([H])([H])[H])C([H])([H])c2c([H])c(OC([H])([H])C([H])([H])C(=O)N([H])C([H])([H])C([H])([H])C([H])([H])C([H])([H])C([H])([H])C(=O)N([H])C([H])([H])C([H])([H])C([H])([H])C([H])([H])C([H])([H])C([H])([H])[N+]([H])([H])C([H])([H])C([H])([H])C([H])([H])C([H])([H])C([H])([H])C([H])([H])N([H])C(=O)N3C([H])([H])C([H])([H])C([H])([H])C([H])(n4nc(-c5c([H])c([H])c(Oc6c([H])c([H])c(F)c([H])c6F)c([H])c5[H])c(C(=O)N([H])[H])c4N([H])[H])C3([H])[H])c([H])c([H])c2C1([H])[H]

>  <smiles>  (70) 
[H]c1c([H])c([H])c2c(c1[H])C([H])([H])C([H])([H])C([H])([H])C2([H])N([H])C(=O)C1([H])N(C(=O)C([H])(N([H])C(=O)C([H])(N([H])C([H])([H])[H])C([H])([H])[H])C(C([H])([H])[H])(C([H])([H])[H])C([H])([H])[H])C([H])([H])c2c([H])c(OC([H])([H])C([H])([H])C(=O)N([H])C([H])([H])C([H])([H])C([H])([H])C([H])([H])C([H])([H])C(=O)N([H])C([H])([H])C([H])([H])C([H])([H])C([H])([H])C([H])([H])C([H])([H])[N+]([H])([H])C([H])([H])C([H])([H])C([H])([H])C([H])([H])C([H])([H])C([H])([H])N([H])C(=O)N3C([H])([H])C([H])([H])C([H])([H])C([H])(n4nc(-c5c([H])c([H])c(Oc6c([H])c([H])c(F)c([H])c6F)c([H])c5[H])c(C(=O)N([H])[H])c4N([H])[H])C3([H])[H])c([H])c([H])c2C1([H])[H]

$$$$
72:0:0
     RDKit          3D

103110  0  0  1  0  0  0  0  0999 V2000
  -23.5790  -27.6200   24.9520 C   0  0  0  0  0  2  0  0  0  0  0  0
  -23.6380  -26.0940   24.0410 C   0  0  0  0  0  2  0  0  0  0  0  0
  -24.9660  -25.0940   23.6050 C   0  0  0  0  0  2  0  0  0  0  0  0
  -26.3760  -23.7260   21.6130 C   0  0  0  0  0  0  0  0  0  0  0  0
  -25.2210  -24.3580   22.1950 N   0  0  0  0  0  0  0  0  0  0  0  0
  -27.3800  -23.6910   22.3310 O   0  0  0  0  0  0  0  0  0  0  0  0
  -24.4170  -24.3600   21.5840 H   0  0  0  0  0  0  0  0  0  0  0  0
  -26.5740  -23.0680   20.0650 C   0  0  0  0  0  2  0  0  0  0  0  0
  -28.4040  -21.9820   18.1910 C   0  0  0  0  0  0  0  0  0  0  0  0
  -27.4550  -21.9710   19.2700 N   0  0  0  0  0  0  0  0  0  0  0  0
  -28.8370  -23.0780   17.8450 O   0  0  0  0  0  0  0  0  0  0  0  0
  -27.1800  -21.0340   19.5320 H   0  0  0  0  0  0  0  0  0  0  0  0
  -28.9780  -20.6740   17.2910 C   0  0  0  0  0  2  0  0  0  0  0  0
  -30.5840  -20.3810   16.7310 C   0  0  0  0  0  2  0  0  0  0  0  0
  -32.1810  -18.7780   14.9900 C   0  0  0  0  0  0  0  0  0  0  0  0
  -33.5710  -18.2030   12.8980 C   0  0  0  0  0  2  0  0  0  0  0  0
  -34.0770  -19.4930   12.1950 C   0  0  0  0  0  2  0  0  0  0  0  0
  -32.9740  -20.1220   11.3190 C   0  0  0  0  0  2  0  0  0  0  0  0
  -31.6140  -20.1680   12.0570 C   0  0  0  0  0  3  0  0  0  0  0  0
  -31.2550  -18.8010   12.6610 C   0  0  0  0  0  2  0  0  0  0  0  0
  -32.2980  -18.5020   13.6320 N   0  0  0  0  0  0  0  0  0  0  0  0
  -33.1340  -18.4170   15.7060 O   0  0  0  0  0  0  0  0  0  0  0  0
  -31.0440  -19.5530   15.4340 N   0  0  0  0  0  0  0  0  0  0  0  0
  -30.3960  -19.6700   14.6700 H   0  0  0  0  0  0  0  0  0  0  0  0
  -29.6080  -21.6360   11.5010 C   0  0  0  0  0  0  0  0  0  0  0  0
  -28.8400  -21.7440   10.3700 C   0  0  0  0  0  0  0  0  0  0  0  0
  -29.3570  -20.7860    9.4490 C   0  0  0  0  0  0  0  0  0  0  0  0
  -30.5350  -20.6500   11.2190 N   0  0  0  0  0  0  0  0  0  0  0  0
  -30.3430  -20.0940   10.0000 N   0  0  0  0  0  0  0  0  0  0  0  0
  -29.0120  -20.5280    8.0450 C   0  0  0  0  0  0  0  0  0  0  0  0
  -28.6420  -19.2420    7.5950 C   0  0  0  0  0  3  0  0  0  0  0  0
  -28.2970  -19.0290    6.2420 C   0  0  0  0  0  3  0  0  0  0  0  0
  -28.3200  -20.1090    5.3290 C   0  0  0  0  0  0  0  0  0  0  0  0
  -28.7120  -21.3820    5.7770 C   0  0  0  0  0  3  0  0  0  0  0  0
  -29.0600  -21.5900    7.1210 C   0  0  0  0  0  3  0  0  0  0  0  0
  -28.0230  -19.9910    3.9930 O   0  0  0  0  0  0  0  0  0  0  0  0
  -27.2050  -18.9950    3.5220 C   0  0  0  0  0  0  0  0  0  0  0  0
  -25.8700  -18.8570    3.9620 C   0  0  0  0  0  3  0  0  0  0  0  0
  -25.0440  -17.8650    3.4000 C   0  0  0  0  0  3  0  0  0  0  0  0
  -25.5440  -17.0170    2.3950 C   0  0  0  0  0  0  0  0  0  0  0  0
  -26.8710  -17.1560    1.9520 C   0  0  0  0  0  3  0  0  0  0  0  0
  -27.6990  -18.1440    2.5120 C   0  0  0  0  0  0  0  0  0  0  0  0
  -28.9700  -18.2880    2.0670 F   0  0  0  0  0  0  0  0  0  0  0  0
  -24.7480  -16.0690    1.8490 F   0  0  0  0  0  0  0  0  0  0  0  0
  -27.7530  -22.7470   10.1350 C   0  0  0  0  0  0  0  0  0  0  0  0
  -26.7150  -22.3590    9.3990 N   0  0  0  0  0  0  0  0  0  0  0  0
  -27.7900  -23.8650   10.6420 O   0  0  0  0  0  0  0  0  0  0  0  0
  -26.6790  -21.4350    8.9960 H   0  0  0  0  0  0  0  0  0  0  0  0
  -25.9470  -22.9950    9.2390 H   0  0  0  0  0  0  0  0  0  0  0  0
  -29.6150  -22.3000   12.7220 N   0  0  0  0  0  0  0  0  0  0  0  0
  -29.0240  -23.1050   12.9020 H   0  0  0  0  0  0  0  0  0  0  0  0
  -30.3350  -22.1750   13.4230 H   0  0  0  0  0  0  0  0  0  0  0  0
  -23.2010  -29.3910   24.7070 C   0  0  0  0  0  3  0  0  0  0  0  0
  -23.7400  -30.9320   23.7810 C   0  0  0  0  0  3  0  0  0  0  0  0
  -24.9600  -31.4160   22.5090 C   0  0  0  0  0  2  0  0  0  0  0  0
  -26.7280  -31.6670   22.3490 C   0  0  0  0  0  2  0  0  0  0  0  0
  -29.2430  -31.0860   23.7550 C   0  0  0  0  0  0  0  0  0  0  0  0
  -27.9390  -31.0260   23.2140 N   0  0  0  0  0  0  0  0  0  0  0  0
  -30.1680  -31.4610   23.0370 O   0  0  0  0  0  0  0  0  0  0  0  0
  -27.4450  -30.4290   23.8740 H   0  0  0  0  0  0  0  0  0  0  0  0
  -29.5640  -30.5940   25.3340 C   0  0  0  0  0  2  0  0  0  0  0  0
  -30.8970  -30.6630   26.4100 C   0  0  0  0  0  2  0  0  0  0  0  0
  -31.0910  -31.0210   27.9430 O   0  0  0  0  0  0  0  0  0  0  0  0
  -25.1380  -28.5600   29.4660 C   0  0  0  0  0  0  0  0  0  0  0  0
  -30.0930  -31.7550   28.4680 C   0  0  0  0  0  0  0  0  0  0  0  0
  -25.9400  -29.5450   27.2900 C   0  0  0  0  0  3  0  0  0  0  0  0
  -27.5850  -31.4550   27.5140 C   0  0  0  0  0  0  0  0  0  0  0  0
  -26.6700  -30.4630   29.5620 C   0  0  0  0  0  2  0  0  0  0  0  0
  -27.8370  -31.0360   28.8070 C   0  0  0  0  0  0  0  0  0  0  0  0
  -29.1440  -31.1330   29.3120 C   0  0  0  0  0  3  0  0  0  0  0  0
  -29.6890  -32.6240   27.4770 C   0  0  0  0  0  3  0  0  0  0  0  0
  -28.4620  -32.3460   26.8910 C   0  0  0  0  0  3  0  0  0  0  0  0
  -26.2950  -31.0250   26.9300 C   0  0  0  0  0  2  0  0  0  0  0  0
  -25.8860  -29.4730   28.7900 N   0  0  0  0  0  0  0  0  0  0  0  0
  -24.3750  -27.7780   28.9180 O   0  0  0  0  0  0  0  0  0  0  0  0
  -26.9340  -28.4250   26.7170 C   0  0  0  0  0  0  0  0  0  0  0  0
  -27.0180  -28.0860   25.3540 N   0  0  0  0  0  0  0  0  0  0  0  0
  -27.5560  -27.8510   27.5700 O   0  0  0  0  0  0  0  0  0  0  0  0
  -26.2660  -28.6550   24.9870 H   0  0  0  0  0  0  0  0  0  0  0  0
  -28.0890  -27.8300   21.6410 C   0  0  0  0  0  0  0  0  0  0  0  0
  -27.3280  -27.2050   24.1230 C   0  0  0  0  0  3  0  0  0  0  0  0
  -28.7810  -26.7660   24.2920 C   0  0  0  0  0  2  0  0  0  0  0  0
  -29.7910  -27.5240   23.4320 C   0  0  0  0  0  2  0  0  0  0  0  0
  -29.4670  -27.3200   21.9710 C   0  0  0  0  0  2  0  0  0  0  0  0
  -27.0440  -27.7040   22.6000 C   0  0  0  0  0  0  0  0  0  0  0  0
  -25.7610  -27.9320   22.0080 C   0  0  0  0  0  3  0  0  0  0  0  0
  -25.5180  -28.4680   20.7330 C   0  0  0  0  0  3  0  0  0  0  0  0
  -26.5900  -28.6540   19.8660 C   0  0  0  0  0  3  0  0  0  0  0  0
  -27.8700  -28.3110   20.3230 C   0  0  0  0  0  3  0  0  0  0  0  0
  -25.1610  -28.4510   31.0070 C   0  0  0  0  0  3  0  0  0  0  0  0
  -23.7650  -28.2960   31.4480 N   0  0  0  0  0  0  0  0  0  0  0  0
  -23.0190  -29.2770   31.9700 C   0  0  0  0  0  0  0  0  0  0  0  0
  -23.4780  -30.3890   32.2350 O   0  0  0  0  0  0  0  0  0  0  0  0
  -23.3260  -27.4130   31.2360 H   0  0  0  0  0  0  0  0  0  0  0  0
  -20.6440  -29.6510   31.2080 C   0  0  0  0  0  1  0  0  0  0  0  0
  -21.5380  -28.9750   32.2630 C   0  0  0  0  0  3  0  0  0  0  0  0
  -21.7300  -28.5960   34.6850 C   0  0  0  0  0  1  0  0  0  0  0  0
  -21.1190  -29.3890   33.6200 N   0  0  0  0  0  0  0  0  0  0  0  0
  -20.1100  -29.3200   33.7200 H   0  0  0  0  0  0  0  0  0  0  0  0
  -26.0290  -27.2380   31.5050 C   0  0  1  0  0  0  0  0  0  0  0  0
  -25.7270  -25.9110   30.7770 C   0  0  0  0  0  1  0  0  0  0  0  0
  -27.5430  -27.5250   31.3630 C   0  0  0  0  0  1  0  0  0  0  0  0
  -25.7610  -27.0540   33.0110 C   0  0  0  0  0  1  0  0  0  0  0  0
  2  1  1  0
  3  2  1  0
  4  5  1  0
  4  6  2  0
  5  3  1  0
  7  5  1  0
  8  4  1  0
  9 10  1  0
 10 12  1  0
 10  8  1  0
 11  9  2  0
 13  9  1  0
 14 13  1  0
 15 23  1  0
 15 22  2  0
 16 21  1  0
 17 16  1  0
 18 19  1  0
 18 17  1  0
 19 28  1  0
 19 20  1  0
 20 21  1  0
 21 15  1  0
 23 14  1  0
 24 23  1  0
 25 50  1  0
 26 25  2  0
 27 29  2  0
 27 26  1  0
 28 25  1  0
 29 28  1  0
 30 27  1  0
 31 30  1  0
 32 31  2  0
 33 34  2  0
 33 32  1  0
 34 35  1  0
 35 30  2  0
 36 33  1  0
 37 38  1  0
 37 36  1  0
 39 38  2  0
 40 39  1  0
 41 40  2  0
 41 42  1  0
 42 37  2  0
 43 42  1  0
 44 40  1  0
 45 26  1  0
 45 47  2  0
 46 45  1  0
 48 46  1  0
 49 46  1  0
 50 51  1  0
 50 52  1  0
 53  1  1  0
 54 53  2  0
 55 54  1  0
 56 55  1  0
 56 58  1  0
 57 61  1  0
 58 57  1  0
 58 60  1  0
 59 57  2  0
 61 62  1  0
 62 63  1  0
 63 65  1  0
 65 70  1  0
 66 76  1  0
 66 74  1  0
 67 69  1  0
 69 70  2  0
 69 68  1  0
 71 65  2  0
 72 71  1  0
 72 67  2  0
 73 66  1  0
 73 67  1  0
 74 64  1  0
 74 68  1  0
 75 64  2  0
 76 78  2  0
 77 76  1  0
 79 77  1  0
 80 84  1  0
 80 85  1  0
 81 82  1  0
 81 77  1  0
 83 82  1  0
 84 83  1  0
 85 81  1  0
 86 85  2  0
 87 86  1  0
 88 89  1  0
 88 87  2  0
 89 80  2  0
 90 64  1  0
 90 91  1  0
 90100  1  0
 91 92  1  0
 92 93  2  0
 92 96  1  0
 94 91  1  0
 96 95  1  0
 96 98  1  0
 98 99  1  0
 98 97  1  0
100103  1  1
101100  1  0
102100  1  0
M  ISO  4  15 100  23 100  62 101  63 101
M  END
>  <TORSDO>  (71) 
F 30

>  <SCORE>  (71) 
-5.012

>  <name>  (71) 
72

>  <ligand_id>  (71) 
72

>  <original_smiles>  (71) 
[H]c1c([H])c([H])c2c(c1[H])C([H])([H])C([H])([H])C([H])([H])C2([H])N([H])C(=O)C1([H])N(C(=O)C([H])(N([H])C(=O)C([H])(N([H])C([H])([H])[H])C([H])([H])[H])C(C([H])([H])[H])(C([H])([H])[H])C([H])([H])[H])C([H])([H])c2c([H])c(OC([H])([H])C([H])([H])C(=O)N([H])C([H])([H])C([H])([H])C([H])([H])C([H])([H])C([H])([H])C([H])([H])C([H])([H])N([H])C(=O)C([H])([H])N([H])C(=O)C([H])([H])C([H])([H])N([H])C(=O)N3C([H])([H])C([H])([H])C([H])([H])C([H])(n4nc(-c5c([H])c([H])c(Oc6c([H])c([H])c(F)c([H])c6F)c([H])c5[H])c(C(=O)N([H])[H])c4N([H])[H])C3([H])[H])c([H])c([H])c2C1([H])[H]

>  <smiles>  (71) 
[H]c1c([H])c([H])c2c(c1[H])C([H])([H])C([H])([H])C([H])([H])C2([H])N([H])C(=O)C1([H])N(C(=O)C([H])(N([H])C(=O)C([H])(N([H])C([H])([H])[H])C([H])([H])[H])C(C([H])([H])[H])(C([H])([H])[H])C([H])([H])[H])C([H])([H])c2c([H])c(OC([H])([H])C([H])([H])C(=O)N([H])C([H])([H])C([H])([H])C([H])([H])C([H])([H])C([H])([H])C([H])([H])C([H])([H])N([H])C(=O)C([H])([H])N([H])C(=O)C([H])([H])C([H])([H])N([H])C(=O)N3C([H])([H])C([H])([H])C([H])([H])C([H])(n4nc(-c5c([H])c([H])c(Oc6c([H])c([H])c(F)c([H])c6F)c([H])c5[H])c(C(=O)N([H])[H])c4N([H])[H])C3([H])[H])c([H])c([H])c2C1([H])[H]

$$$$
73:0:0
     RDKit          3D

100104  0  0  1  0  0  0  0  0999 V2000
  -24.5850  -29.7910   18.7940 C   0  0  0  0  0  1  0  0  0  0  0  0
  -24.4580  -28.2390   17.9620 N   0  0  0  0  0  4  0  0  0  0  0  0
  -23.9140  -28.4540   17.1410 H   0  0  0  0  0  0  0  0  0  0  0  0
  -23.8670  -27.7250   18.5880 H   0  0  0  0  0  0  0  0  0  0  0  0
  -25.5360  -26.9940   17.3690 C   0  0  0  0  0  2  0  0  0  0  0  0
  -25.6510  -25.0810   17.5980 C   0  0  0  0  0  2  0  0  0  0  0  0
  -26.7910  -22.2470   17.8310 C   0  0  0  0  0  0  0  0  0  0  0  0
  -26.7840  -23.7700   17.9580 N   0  0  0  0  0  0  0  0  0  0  0  0
  -25.8750  -21.9310   17.0710 O   0  0  0  0  0  0  0  0  0  0  0  0
  -27.5960  -24.0890   18.4780 H   0  0  0  0  0  0  0  0  0  0  0  0
  -27.7490  -20.9770   18.4550 C   0  0  0  0  0  3  0  0  0  0  0  0
  -28.0650  -19.4740   18.5760 C   0  0  0  0  0  3  0  0  0  0  0  0
  -29.2890  -18.2730   19.1830 C   0  0  0  0  0  2  0  0  0  0  0  0
  -30.2930  -15.3750   19.7940 C   0  0  0  0  0  0  0  0  0  0  0  0
  -30.5830  -12.8120   19.3020 C   0  0  0  0  0  2  0  0  0  0  0  0
  -29.6670  -12.3730   18.1290 C   0  0  0  0  0  2  0  0  0  0  0  0
  -28.2550  -12.0320   18.6480 C   0  0  0  0  0  2  0  0  0  0  0  0
  -27.7590  -13.0600   19.6950 C   0  0  0  0  0  3  0  0  0  0  0  0
  -28.8240  -13.3990   20.7460 C   0  0  0  0  0  2  0  0  0  0  0  0
  -29.9160  -14.0000   19.9650 N   0  0  0  0  0  0  0  0  0  0  0  0
  -31.5340  -15.4560   19.7500 O   0  0  0  0  0  0  0  0  0  0  0  0
  -29.3510  -16.5580   19.4780 N   0  0  0  0  0  0  0  0  0  0  0  0
  -28.3990  -16.2170   19.4590 H   0  0  0  0  0  0  0  0  0  0  0  0
  -25.4520  -13.5840   20.6020 C   0  0  0  0  0  0  0  0  0  0  0  0
  -24.4130  -12.7800   21.0030 C   0  0  0  0  0  0  0  0  0  0  0  0
  -24.9030  -11.4450   20.9410 C   0  0  0  0  0  0  0  0  0  0  0  0
  -26.4870  -12.7230   20.2980 N   0  0  0  0  0  0  0  0  0  0  0  0
  -26.1810  -11.4340   20.5730 N   0  0  0  0  0  0  0  0  0  0  0  0
  -24.2120  -10.1640   21.1410 C   0  0  0  0  0  0  0  0  0  0  0  0
  -24.6320   -9.2480   22.1290 C   0  0  0  0  0  3  0  0  0  0  0  0
  -23.9330   -8.0350   22.3160 C   0  0  0  0  0  3  0  0  0  0  0  0
  -22.8080   -7.7360   21.5140 C   0  0  0  0  0  0  0  0  0  0  0  0
  -22.4110   -8.6430   20.5180 C   0  0  0  0  0  3  0  0  0  0  0  0
  -23.1080   -9.8470   20.3290 C   0  0  0  0  0  3  0  0  0  0  0  0
  -22.0820   -6.5760   21.6080 O   0  0  0  0  0  0  0  0  0  0  0  0
  -21.9230   -5.9220   22.8040 C   0  0  0  0  0  0  0  0  0  0  0  0
  -21.2940   -6.5340   23.9110 C   0  0  0  0  0  3  0  0  0  0  0  0
  -21.0910   -5.8030   25.0990 C   0  0  0  0  0  3  0  0  0  0  0  0
  -21.5060   -4.4600   25.1770 C   0  0  0  0  0  0  0  0  0  0  0  0
  -22.1210   -3.8460   24.0740 C   0  0  0  0  0  3  0  0  0  0  0  0
  -22.3280   -4.5750   22.8910 C   0  0  0  0  0  0  0  0  0  0  0  0
  -22.9070   -3.9740   21.8230 F   0  0  0  0  0  0  0  0  0  0  0  0
  -21.3000   -3.7540   26.3140 F   0  0  0  0  0  0  0  0  0  0  0  0
  -23.0230  -13.2390   21.3210 C   0  0  0  0  0  0  0  0  0  0  0  0
  -22.3360  -12.5200   22.2070 N   0  0  0  0  0  0  0  0  0  0  0  0
  -22.5540  -14.2560   20.8260 O   0  0  0  0  0  0  0  0  0  0  0  0
  -22.7350  -11.6960   22.6280 H   0  0  0  0  0  0  0  0  0  0  0  0
  -21.4010  -12.8020   22.4630 H   0  0  0  0  0  0  0  0  0  0  0  0
  -25.5770  -14.9540   20.4390 N   0  0  0  0  0  0  0  0  0  0  0  0
  -24.7970  -15.5800   20.6020 H   0  0  0  0  0  0  0  0  0  0  0  0
  -26.4000  -15.4320   20.0950 H   0  0  0  0  0  0  0  0  0  0  0  0
  -23.7030  -30.7690   20.3030 C   0  0  0  0  0 15  0  0  0  0  0  0
  -23.2090  -30.9990   22.2320 C   0  0  0  0  0 15  0  0  0  0  0  0
  -23.0850  -29.9270   23.9410 C   0  0  0  0  0  1  0  0  0  0  0  0
  -24.3720  -29.1410   24.9580 N   0  0  0  0  0  4  0  0  0  0  0  0
  -23.7980  -28.3830   25.2980 H   0  0  0  0  0  0  0  0  0  0  0  0
  -24.5080  -29.7290   25.7680 H   0  0  0  0  0  0  0  0  0  0  0  0
  -25.8520  -28.1670   24.7570 C   0  0  0  0  0  3  0  0  0  0  0  0
  -27.6210  -28.2820   24.5720 C   0  0  0  0  0  3  0  0  0  0  0  0
  -28.8500  -27.2680   24.2120 O   0  0  0  0  0  0  0  0  0  0  0  0
  -26.0540  -31.3740   23.1640 C   0  0  0  0  0  0  0  0  0  0  0  0
  -29.4640  -27.1420   22.9940 C   0  0  0  0  0  3  0  0  0  0  0  0
  -25.4160  -28.5180   22.2060 C   0  0  0  0  0  3  0  0  0  0  0  0
  -27.2700  -27.4990   21.6970 C   0  0  0  0  0  0  0  0  0  0  0  0
  -27.6070  -30.0540   21.9660 C   0  0  0  0  0  2  0  0  0  0  0  0
  -28.0980  -28.6310   21.9170 C   0  0  0  0  0  3  0  0  0  0  0  0
  -29.3780  -28.3740   22.3830 C   0  0  0  0  0  2  0  0  0  0  0  0
  -28.9060  -26.0030   22.4310 C   0  0  0  0  0  2  0  0  0  0  0  0
  -27.6570  -26.1890   21.9080 C   0  0  0  0  0  3  0  0  0  0  0  0
  -25.9210  -27.5260   21.3330 C   0  0  0  0  0  2  0  0  0  0  0  0
  -26.2890  -30.0470   22.5390 N   0  0  0  0  0  0  0  0  0  0  0  0
  -25.0530  -32.0670   22.9230 O   0  0  0  0  0  0  0  0  0  0  0  0
  -24.1340  -27.6590   22.7470 C   0  0  0  0  0  0  0  0  0  0  0  0
  -22.8740  -27.7850   22.2910 N   0  0  0  0  0  0  0  0  0  0  0  0
  -24.2430  -26.9830   23.7460 O   0  0  0  0  0  0  0  0  0  0  0  0
  -22.6290  -28.3150   21.4640 H   0  0  0  0  0  0  0  0  0  0  0  0
  -19.4310  -27.2340   22.3320 C   0  0  0  0  0  0  0  0  0  0  0  0
  -21.8460  -27.0990   23.0360 C   0  0  0  0  0  3  0  0  0  0  0  0
  -21.8180  -25.6540   22.4870 C   0  0  0  0  0  2  0  0  0  0  0  0
  -21.0240  -25.5970   21.2020 C   0  0  0  0  0  2  0  0  0  0  0  0
  -19.5800  -25.9280   21.5660 C   0  0  0  0  0  2  0  0  0  0  0  0
  -20.5250  -27.8150   22.9980 C   0  0  0  0  0  0  0  0  0  0  0  0
  -20.3740  -29.0590   23.6490 C   0  0  0  0  0  3  0  0  0  0  0  0
  -19.1230  -29.6890   23.6790 C   0  0  0  0  0  3  0  0  0  0  0  0
  -18.0170  -29.0780   23.0690 C   0  0  0  0  0  3  0  0  0  0  0  0
  -18.1760  -27.8620   22.3720 C   0  0  0  0  0  3  0  0  0  0  0  0
  -26.7840  -32.1920   24.3230 C   0  0  0  0  0  3  0  0  0  0  0  0
  -26.2360  -33.5940   24.3010 N   0  0  0  0  0  0  0  0  0  0  0  0
  -26.5610  -34.5780   23.4600 C   0  0  0  0  0  0  0  0  0  0  0  0
  -27.5300  -34.4790   22.7140 O   0  0  0  0  0  0  0  0  0  0  0  0
  -25.4480  -33.7730   24.9010 H   0  0  0  0  0  0  0  0  0  0  0  0
  -24.8320  -35.9430   22.2190 C   0  0  0  0  0  1  0  0  0  0  0  0
  -25.7030  -35.8580   23.4820 C   0  0  0  0  0  3  0  0  0  0  0  0
  -27.1320  -37.2200   24.9250 C   0  0  0  0  0  1  0  0  0  0  0  0
  -26.4890  -37.1000   23.6190 N   0  0  0  0  0  0  0  0  0  0  0  0
  -25.8790  -37.9090   23.5140 H   0  0  0  0  0  0  0  0  0  0  0  0
  -26.6650  -31.8360   25.8940 C   0  0  1  0  0  0  0  0  0  0  0  0
  -25.2520  -31.5510   26.4490 C   0  0  0  0  0  1  0  0  0  0  0  0
  -27.5770  -30.7450   26.4620 C   0  0  0  0  0  1  0  0  0  0  0  0
  -27.2230  -33.0600   26.6970 C   0  0  0  0  0  1  0  0  0  0  0  0
  2  4  1  0
  2  1  1  0
  3  2  1  0
  5  6  1  0
  5  2  1  0
  6  8  1  0
  7  8  1  0
  7 11  1  0
  8 10  1  0
  9  7  2  0
 11 12  2  0
 12 13  1  0
 13 22  1  0
 14 20  1  0
 15 20  1  0
 16 17  1  0
 16 15  1  0
 18 17  1  0
 18 27  1  0
 18 19  1  0
 20 19  1  0
 21 14  2  0
 22 14  1  0
 23 22  1  0
 24 25  2  0
 25 44  1  0
 26 25  1  0
 26 29  1  0
 27 28  1  0
 27 24  1  0
 28 26  2  0
 29 30  1  0
 30 31  2  0
 32 35  1  0
 32 31  1  0
 33 32  2  0
 34 33  1  0
 34 29  2  0
 35 36  1  0
 36 41  2  0
 36 37  1  0
 37 38  2  0
 38 39  1  0
 39 43  1  0
 40 39  2  0
 41 40  1  0
 42 41  1  0
 44 45  1  0
 45 48  1  0
 45 47  1  0
 46 44  2  0
 49 50  1  0
 49 24  1  0
 51 49  1  0
 54 55  1  0
 55 56  1  0
 55 57  1  0
 58 55  1  0
 59 58  2  0
 60 59  1  0
 62 60  1  0
 63 71  1  0
 63 73  1  0
 64 69  2  0
 64 66  1  0
 65 71  1  0
 66 65  1  0
 66 67  1  0
 67 62  1  0
 68 62  1  0
 69 68  1  0
 70 64  1  0
 70 63  1  0
 71 61  1  0
 72 61  2  0
 73 75  2  0
 74 73  1  0
 76 74  1  0
 77 86  2  0
 77 82  1  0
 78 74  1  0
 79 78  1  0
 80 81  1  0
 80 79  1  0
 81 77  1  0
 82 78  1  0
 82 83  2  0
 83 84  1  0
 85 84  2  0
 86 85  1  0
 87 61  1  0
 87 97  1  0
 88 87  1  0
 88 91  1  0
 89 93  1  0
 89 88  1  0
 90 89  2  0
 93 92  1  0
 93 95  1  0
 95 94  1  0
 96 95  1  0
 97 98  1  1
 97 99  1  0
 97100  1  0
M  ISO  4  14 100  22 100  59 101  60 101
M  END
>  <TORSDO>  (72) 
F 28

>  <SCORE>  (72) 
-13.446

>  <name>  (72) 
73

>  <ligand_id>  (72) 
73

>  <original_smiles>  (72) 
[H]C(C(=O)N([H])C([H])([H])C([H])([H])[N+]([H])([H])C([H])([H])C([H])([H])C([H])([H])C([H])([H])[N+]([H])([H])C([H])([H])C([H])([H])Oc1c([H])c([H])c2c(c1[H])C([H])([H])N(C(=O)C([H])(N([H])C(=O)C([H])(N([H])C([H])([H])[H])C([H])([H])[H])C(C([H])([H])[H])(C([H])([H])[H])C([H])([H])[H])C([H])(C(=O)N([H])C1([H])c3c([H])c([H])c([H])c([H])c3C([H])([H])C([H])([H])C1([H])[H])C2([H])[H])=C([H])C([H])([H])N([H])C(=O)N1C([H])([H])C([H])([H])C([H])([H])C([H])(n2nc(-c3c([H])c([H])c(Oc4c([H])c([H])c(F)c([H])c4F)c([H])c3[H])c(C(=O)N([H])[H])c2N([H])[H])C1([H])[H]

>  <smiles>  (72) 
[H]C(C(=O)N([H])C([H])([H])C([H])([H])[N+]([H])([H])C([H])([H])C([H])([H])C([H])([H])C([H])([H])[N+]([H])([H])C([H])([H])C([H])([H])Oc1c([H])c([H])c2c(c1[H])C([H])([H])N(C(=O)C([H])(N([H])C(=O)C([H])(N([H])C([H])([H])[H])C([H])([H])[H])C(C([H])([H])[H])(C([H])([H])[H])C([H])([H])[H])C([H])(C(=O)N([H])C1([H])c3c([H])c([H])c([H])c([H])c3C([H])([H])C([H])([H])C1([H])[H])C2([H])[H])=C([H])C([H])([H])N([H])C(=O)N1C([H])([H])C([H])([H])C([H])([H])C([H])(n2nc(-c3c([H])c([H])c(Oc4c([H])c([H])c(F)c([H])c4F)c([H])c3[H])c(C(=O)N([H])[H])c2N([H])[H])C1([H])[H]

$$$$
74:0:0
     RDKit          3D

105112  0  0  1  0  0  0  0  0999 V2000
  -21.6930  -22.8090   23.7060 C   0  0  0  0  0  2  0  0  0  0  0  0
  -23.5210  -23.7780   22.3110 C   0  0  0  0  0  0  0  0  0  0  0  0
  -22.9610  -22.7640   22.9810 N   0  0  0  0  0  0  0  0  0  0  0  0
  -23.1530  -24.9490   22.4220 O   0  0  0  0  0  0  0  0  0  0  0  0
  -23.3640  -21.8480   22.8300 H   0  0  0  0  0  0  0  0  0  0  0  0
  -24.6220  -23.4020   21.3200 C   0  0  0  0  0  2  0  0  0  0  0  0
  -24.7220  -24.4280   20.1720 C   0  0  0  0  0  2  0  0  0  0  0  0
  -25.5930  -23.9000   19.0210 C   0  0  0  0  0  2  0  0  0  0  0  0
  -26.6310  -24.9000   18.4880 C   0  0  0  0  0  2  0  0  0  0  0  0
  -27.4830  -24.2210   17.4070 C   0  0  0  0  0  2  0  0  0  0  0  0
  -29.8360  -23.8770   16.8000 C   0  0  0  0  0  0  0  0  0  0  0  0
  -28.8980  -24.5760   17.4490 N   0  0  0  0  0  0  0  0  0  0  0  0
  -29.5680  -22.8460   16.1780 O   0  0  0  0  0  0  0  0  0  0  0  0
  -29.1730  -25.4160   17.9410 H   0  0  0  0  0  0  0  0  0  0  0  0
  -31.2770  -24.3920   16.7930 C   0  0  0  0  0  2  0  0  0  0  0  0
  -32.8650  -24.5190   14.8370 C   0  0  0  0  0  0  0  0  0  0  0  0
  -33.9320  -24.9980   12.6540 C   0  0  0  0  0  2  0  0  0  0  0  0
  -34.0590  -26.5130   12.3990 C   0  0  0  0  0  2  0  0  0  0  0  0
  -32.7600  -27.0910   11.8090 C   0  0  0  0  0  2  0  0  0  0  0  0
  -31.4980  -26.6570   12.5990 C   0  0  0  0  0  3  0  0  0  0  0  0
  -31.5070  -25.1260   12.8060 C   0  0  0  0  0  2  0  0  0  0  0  0
  -32.7570  -24.7520   13.5030 N   0  0  0  0  0  0  0  0  0  0  0  0
  -33.9280  -24.5310   15.4630 O   0  0  0  0  0  0  0  0  0  0  0  0
  -31.7000  -24.2300   15.4110 N   0  0  0  0  0  0  0  0  0  0  0  0
  -30.9120  -24.1010   14.7870 H   0  0  0  0  0  0  0  0  0  0  0  0
  -29.3450  -28.0530   12.3330 C   0  0  0  0  0  0  0  0  0  0  0  0
  -28.4230  -28.1300   11.3220 C   0  0  0  0  0  0  0  0  0  0  0  0
  -28.8520  -27.2010   10.3270 C   0  0  0  0  0  0  0  0  0  0  0  0
  -30.2710  -27.1010   11.9340 N   0  0  0  0  0  0  0  0  0  0  0  0
  -29.9360  -26.5530   10.7380 N   0  0  0  0  0  0  0  0  0  0  0  0
  -28.3270  -26.9320    8.9830 C   0  0  0  0  0  0  0  0  0  0  0  0
  -28.0550  -25.6160    8.5490 C   0  0  0  0  0  3  0  0  0  0  0  0
  -27.5400  -25.3830    7.2550 C   0  0  0  0  0  3  0  0  0  0  0  0
  -27.2870  -26.4720    6.3860 C   0  0  0  0  0  0  0  0  0  0  0  0
  -27.5810  -27.7770    6.8170 C   0  0  0  0  0  3  0  0  0  0  0  0
  -28.0980  -28.0070    8.1020 C   0  0  0  0  0  3  0  0  0  0  0  0
  -26.8070  -26.3400    5.1060 O   0  0  0  0  0  0  0  0  0  0  0  0
  -26.1080  -25.2280    4.7100 C   0  0  0  0  0  0  0  0  0  0  0  0
  -24.9260  -24.8190    5.3640 C   0  0  0  0  0  3  0  0  0  0  0  0
  -24.2010  -23.7120    4.8790 C   0  0  0  0  0  3  0  0  0  0  0  0
  -24.6500  -23.0190    3.7390 C   0  0  0  0  0  0  0  0  0  0  0  0
  -25.8240  -23.4270    3.0840 C   0  0  0  0  0  3  0  0  0  0  0  0
  -26.5510  -24.5300    3.5670 C   0  0  0  0  0  0  0  0  0  0  0  0
  -27.6700  -24.9330    2.9190 F   0  0  0  0  0  0  0  0  0  0  0  0
  -23.9510  -21.9580    3.2710 F   0  0  0  0  0  0  0  0  0  0  0  0
  -27.2600  -29.0780   11.2460 C   0  0  0  0  0  0  0  0  0  0  0  0
  -26.1500  -28.6360   10.6660 N   0  0  0  0  0  0  0  0  0  0  0  0
  -27.3130  -30.2030   11.7380 O   0  0  0  0  0  0  0  0  0  0  0  0
  -26.1060  -27.7010   10.2890 H   0  0  0  0  0  0  0  0  0  0  0  0
  -25.3380  -29.2350   10.6030 H   0  0  0  0  0  0  0  0  0  0  0  0
  -29.4760  -28.7190   13.5460 N   0  0  0  0  0  0  0  0  0  0  0  0
  -28.8480  -29.4650   13.8250 H   0  0  0  0  0  0  0  0  0  0  0  0
  -30.2460  -28.5800   14.1880 H   0  0  0  0  0  0  0  0  0  0  0  0
  -20.6170  -21.9680   22.9860 C   0  0  0  0  0  2  0  0  0  0  0  0
  -19.8970  -22.6780   21.8200 C   0  0  0  0  0  2  0  0  0  0  0  0
  -18.4550  -23.1280   22.1260 C   0  0  0  0  0  2  0  0  0  0  0  0
  -18.1330  -24.4370   21.3780 C   0  0  0  0  0  2  0  0  0  0  0  0
  -16.7100  -25.8500   22.8540 C   0  0  0  0  0  0  0  0  0  0  0  0
  -16.8810  -25.0660   21.7870 N   0  0  0  0  0  0  0  0  0  0  0  0
  -17.5480  -25.9610   23.7490 O   0  0  0  0  0  0  0  0  0  0  0  0
  -16.1120  -25.0220   21.1320 H   0  0  0  0  0  0  0  0  0  0  0  0
  -15.4500  -26.5600   22.7880 C   0  0  0  0  0  3  0  0  0  0  0  0
  -15.0210  -27.3390   23.8000 C   0  0  0  0  0  3  0  0  0  0  0  0
  -13.6980  -28.0850   23.7780 C   0  0  0  0  0  2  0  0  0  0  0  0
  -12.9530  -27.8770   24.9750 O   0  0  0  0  0  0  0  0  0  0  0  0
   -8.9840  -23.6800   29.0950 C   0  0  0  0  0  0  0  0  0  0  0  0
  -11.9590  -26.9200   24.9910 C   0  0  0  0  0  0  0  0  0  0  0  0
   -8.8600  -23.2160   26.6680 C   0  0  0  0  0  3  0  0  0  0  0  0
   -9.9100  -24.9720   25.1460 C   0  0  0  0  0  0  0  0  0  0  0  0
   -9.4030  -25.5660   27.5200 C   0  0  0  0  0  2  0  0  0  0  0  0
  -10.2090  -25.7690   26.2570 C   0  0  0  0  0  0  0  0  0  0  0  0
  -11.2280  -26.7400   26.1830 C   0  0  0  0  0  3  0  0  0  0  0  0
  -11.6210  -26.1290   23.8650 C   0  0  0  0  0  3  0  0  0  0  0  0
  -10.6140  -25.1510   23.9440 C   0  0  0  0  0  3  0  0  0  0  0  0
   -8.8020  -23.9570   25.3050 C   0  0  0  0  0  2  0  0  0  0  0  0
   -9.1070  -24.1450   27.8190 N   0  0  0  0  0  0  0  0  0  0  0  0
   -8.6330  -22.5120   29.3220 O   0  0  0  0  0  0  0  0  0  0  0  0
   -9.9010  -22.0780   26.5700 C   0  0  0  0  0  0  0  0  0  0  0  0
  -10.1620  -21.6180   25.3340 N   0  0  0  0  0  0  0  0  0  0  0  0
  -10.4650  -21.6500   27.5780 O   0  0  0  0  0  0  0  0  0  0  0  0
   -9.6530  -22.0150   24.5580 H   0  0  0  0  0  0  0  0  0  0  0  0
  -12.5970  -20.6040   22.8670 C   0  0  0  0  0  0  0  0  0  0  0  0
  -11.1350  -20.5800   24.9960 C   0  0  0  0  0  3  0  0  0  0  0  0
  -12.4520  -20.7750   25.7840 C   0  0  0  0  0  2  0  0  0  0  0  0
  -13.5000  -21.5910   25.0190 C   0  0  0  0  0  2  0  0  0  0  0  0
  -13.8380  -20.9120   23.6860 C   0  0  0  0  0  2  0  0  0  0  0  0
  -11.3250  -20.4650   23.4810 C   0  0  0  0  0  0  0  0  0  0  0  0
  -10.1980  -20.2140   22.6690 C   0  0  0  0  0  3  0  0  0  0  0  0
  -10.3250  -20.0980   21.2720 C   0  0  0  0  0  3  0  0  0  0  0  0
  -11.5880  -20.2230   20.6710 C   0  0  0  0  0  3  0  0  0  0  0  0
  -12.7210  -20.4730   21.4680 C   0  0  0  0  0  3  0  0  0  0  0  0
   -9.2540  -24.5980   30.3260 C   0  0  0  0  0  3  0  0  0  0  0  0
   -8.3130  -24.2030   31.3820 N   0  0  0  0  0  0  0  0  0  0  0  0
   -7.2970  -24.9590   31.8190 C   0  0  0  0  0  0  0  0  0  0  0  0
   -7.0970  -26.1070   31.4170 O   0  0  0  0  0  0  0  0  0  0  0  0
   -8.3820  -23.2520   31.7150 H   0  0  0  0  0  0  0  0  0  0  0  0
   -5.0620  -23.8640   32.1920 C   0  0  0  0  0  1  0  0  0  0  0  0
   -6.3540  -24.3420   32.8710 C   0  0  0  0  0  3  0  0  0  0  0  0
   -7.1310  -25.4820   34.9030 C   0  0  0  0  0  1  0  0  0  0  0  0
   -6.0220  -25.2660   33.9770 N   0  0  0  0  0  0  0  0  0  0  0  0
   -5.2280  -24.9210   34.5090 H   0  0  0  0  0  0  0  0  0  0  0  0
  -10.7410  -24.5220   30.8460 C   0  0  1  0  0  0  0  0  0  0  0  0
  -11.2160  -23.0860   31.1680 C   0  0  0  0  0  1  0  0  0  0  0  0
  -11.7120  -25.1190   29.7980 C   0  0  0  0  0  1  0  0  0  0  0  0
  -10.8940  -25.3760   32.1270 C   0  0  0  0  0  1  0  0  0  0  0  0
  2  4  2  0
  2  3  1  0
  3  1  1  0
  5  3  1  0
  6  2  1  0
  7  6  1  0
  8  7  1  0
  9  8  1  0
 10 12  1  0
 10  9  1  0
 11 12  1  0
 12 14  1  0
 13 11  2  0
 15 11  1  0
 16 24  1  0
 16 23  2  0
 17 22  1  0
 18 17  1  0
 19 18  1  0
 20 19  1  0
 20 21  1  0
 21 22  1  0
 22 16  1  0
 24 15  1  0
 25 24  1  0
 26 51  1  0
 27 26  2  0
 28 30  2  0
 28 27  1  0
 29 26  1  0
 29 20  1  0
 30 29  1  0
 31 28  1  0
 32 31  1  0
 33 32  2  0
 34 35  2  0
 34 33  1  0
 35 36  1  0
 36 31  2  0
 37 34  1  0
 38 37  1  0
 38 39  1  0
 40 39  2  0
 41 40  1  0
 42 43  1  0
 42 41  2  0
 43 38  2  0
 44 43  1  0
 45 41  1  0
 46 27  1  0
 46 48  2  0
 47 46  1  0
 49 47  1  0
 50 47  1  0
 51 52  1  0
 51 53  1  0
 54  1  1  0
 55 56  1  0
 55 54  1  0
 57 59  1  0
 57 56  1  0
 58 60  2  0
 59 58  1  0
 61 59  1  0
 62 58  1  0
 62 63  2  0
 64 63  1  0
 64 65  1  0
 65 67  1  0
 66 77  2  0
 67 72  1  0
 68 78  1  0
 68 76  1  0
 69 75  1  0
 69 71  1  0
 70 76  1  0
 71 70  1  0
 72 71  2  0
 73 74  1  0
 73 67  2  0
 74 69  2  0
 75 68  1  0
 76 66  1  0
 78 80  2  0
 79 78  1  0
 81 79  1  0
 82 87  1  0
 82 86  1  0
 83 79  1  0
 83 84  1  0
 85 84  1  0
 86 85  1  0
 87 83  1  0
 88 87  2  0
 89 88  1  0
 90 89  2  0
 90 91  1  0
 91 82  2  0
 92 66  1  0
 92102  1  0
 92 93  1  0
 93 96  1  0
 93 94  1  0
 94 98  1  0
 95 94  2  0
 98 97  1  0
 98100  1  0
100101  1  0
100 99  1  0
102103  1  1
102105  1  0
104102  1  0
M  ISO  4  16 100  24 100  64 101  65 101
M  END
>  <TORSDO>  (73) 
F 31

>  <SCORE>  (73) 
4.163

>  <name>  (73) 
74

>  <ligand_id>  (73) 
74

>  <original_smiles>  (73) 
[H]C(C(=O)N([H])C([H])([H])C([H])([H])C([H])([H])C([H])([H])C([H])([H])N([H])C(=O)C([H])([H])C([H])([H])C([H])([H])C([H])([H])C([H])([H])N([H])C(=O)C([H])([H])N([H])C(=O)N1C([H])([H])C([H])([H])C([H])([H])C([H])(n2nc(-c3c([H])c([H])c(Oc4c([H])c([H])c(F)c([H])c4F)c([H])c3[H])c(C(=O)N([H])[H])c2N([H])[H])C1([H])[H])=C([H])C([H])([H])Oc1c([H])c([H])c2c(c1[H])C([H])([H])N(C(=O)C([H])(N([H])C(=O)C([H])(N([H])C([H])([H])[H])C([H])([H])[H])C(C([H])([H])[H])(C([H])([H])[H])C([H])([H])[H])C([H])(C(=O)N([H])C1([H])c3c([H])c([H])c([H])c([H])c3C([H])([H])C([H])([H])C1([H])[H])C2([H])[H]

>  <smiles>  (73) 
[H]C(C(=O)N([H])C([H])([H])C([H])([H])C([H])([H])C([H])([H])C([H])([H])N([H])C(=O)C([H])([H])C([H])([H])C([H])([H])C([H])([H])C([H])([H])N([H])C(=O)C([H])([H])N([H])C(=O)N1C([H])([H])C([H])([H])C([H])([H])C([H])(n2nc(-c3c([H])c([H])c(Oc4c([H])c([H])c(F)c([H])c4F)c([H])c3[H])c(C(=O)N([H])[H])c2N([H])[H])C1([H])[H])=C([H])C([H])([H])Oc1c([H])c([H])c2c(c1[H])C([H])([H])N(C(=O)C([H])(N([H])C(=O)C([H])(N([H])C([H])([H])[H])C([H])([H])[H])C(C([H])([H])[H])(C([H])([H])[H])C([H])([H])[H])C([H])(C(=O)N([H])C1([H])c3c([H])c([H])c([H])c([H])c3C([H])([H])C([H])([H])C1([H])[H])C2([H])[H]

$$$$
75:0:0
     RDKit          3D

102109  0  0  1  0  0  0  0  0999 V2000
  -32.9790  -25.0560   20.3350 C   0  0  0  0  0  2  0  0  0  0  0  0
  -33.9680  -26.2320   20.4170 C   0  0  0  0  0  2  0  0  0  0  0  0
  -34.1420  -26.7520   21.8610 C   0  0  0  0  0  2  0  0  0  0  0  0
  -33.2520  -27.9410   22.2990 C   0  0  0  0  0  2  0  0  0  0  0  0
  -30.7980  -27.5520   21.9240 C   0  0  0  0  0  0  0  0  0  0  0  0
  -31.9880  -28.0560   21.5810 N   0  0  0  0  0  0  0  0  0  0  0  0
  -30.6120  -26.8590   22.9280 O   0  0  0  0  0  0  0  0  0  0  0  0
  -32.0090  -28.6120   20.7360 H   0  0  0  0  0  0  0  0  0  0  0  0
  -29.6450  -27.8910   20.9770 C   0  0  0  0  0  2  0  0  0  0  0  0
  -28.8600  -26.7280   20.5280 N   0  0  0  0  0  0  0  0  0  0  0  0
  -28.1030  -26.5170   21.1710 H   0  0  0  0  0  0  0  0  0  0  0  0
  -28.2330  -27.1190   19.2790 O   0  0  0  0  0  0  0  0  0  0  0  0
  -24.3900  -31.8190   22.9900 C   0  0  0  0  0  0  0  0  0  0  0  0
  -27.0300  -27.7490   19.4770 C   0  0  0  0  0  0  0  0  0  0  0  0
  -23.1330  -30.4630   21.3390 C   0  0  0  0  0  3  0  0  0  0  0  0
  -24.5570  -29.0840   19.7360 C   0  0  0  0  0  0  0  0  0  0  0  0
  -25.6100  -30.9770   20.9940 C   0  0  0  0  0  2  0  0  0  0  0  0
  -25.7200  -29.6530   20.2690 C   0  0  0  0  0  0  0  0  0  0  0  0
  -26.9590  -29.0020   20.1240 C   0  0  0  0  0  3  0  0  0  0  0  0
  -25.8550  -27.1750   18.9530 C   0  0  0  0  0  3  0  0  0  0  0  0
  -24.6160  -27.8420   19.0750 C   0  0  0  0  0  3  0  0  0  0  0  0
  -23.2790  -29.8700   19.9110 C   0  0  0  0  0  2  0  0  0  0  0  0
  -24.3980  -31.0960   21.8350 N   0  0  0  0  0  0  0  0  0  0  0  0
  -23.3390  -32.0030   23.6200 O   0  0  0  0  0  0  0  0  0  0  0  0
  -22.5990  -29.3570   22.2740 C   0  0  0  0  0  0  0  0  0  0  0  0
  -21.2840  -29.1000   22.2030 N   0  0  0  0  0  0  0  0  0  0  0  0
  -23.3640  -28.7330   23.0150 O   0  0  0  0  0  0  0  0  0  0  0  0
  -20.7260  -29.6680   21.5810 H   0  0  0  0  0  0  0  0  0  0  0  0
  -18.0230  -27.6520   22.7500 C   0  0  0  0  0  0  0  0  0  0  0  0
  -20.5630  -28.0750   22.9570 C   0  0  0  0  0  3  0  0  0  0  0  0
  -20.7450  -26.6800   22.3140 C   0  0  0  0  0  2  0  0  0  0  0  0
  -19.6340  -26.3250   21.3190 C   0  0  0  0  0  2  0  0  0  0  0  0
  -18.2690  -26.3470   22.0110 C   0  0  0  0  0  2  0  0  0  0  0  0
  -19.1010  -28.4700   23.1800 C   0  0  0  0  0  0  0  0  0  0  0  0
  -18.8170  -29.6910   23.8300 C   0  0  0  0  0  3  0  0  0  0  0  0
  -17.4870  -30.0960   24.0550 C   0  0  0  0  0  3  0  0  0  0  0  0
  -16.4250  -29.2720   23.6430 C   0  0  0  0  0  3  0  0  0  0  0  0
  -16.6930  -28.0520   22.9960 C   0  0  0  0  0  3  0  0  0  0  0  0
  -25.6880  -32.4700   23.5630 C   0  0  0  0  0  3  0  0  0  0  0  0
  -25.3410  -33.8310   23.9940 N   0  0  0  0  0  0  0  0  0  0  0  0
  -25.6330  -34.9420   23.3070 C   0  0  0  0  0  0  0  0  0  0  0  0
  -26.2880  -34.9310   22.2620 O   0  0  0  0  0  0  0  0  0  0  0  0
  -24.7410  -33.9140   24.8020 H   0  0  0  0  0  0  0  0  0  0  0  0
  -23.8500  -36.7060   23.1080 C   0  0  0  0  0  1  0  0  0  0  0  0
  -25.1140  -36.2790   23.8680 C   0  0  0  0  0  3  0  0  0  0  0  0
  -27.2390  -37.1650   24.7250 C   0  0  0  0  0  1  0  0  0  0  0  0
  -26.1150  -37.3680   23.8150 N   0  0  0  0  0  0  0  0  0  0  0  0
  -25.6860  -38.2630   24.0390 H   0  0  0  0  0  0  0  0  0  0  0  0
  -26.3310  -31.6520   24.7500 C   0  0  1  0  0  0  0  0  0  0  0  0
  -25.3290  -31.2900   25.8700 C   0  0  0  0  0  1  0  0  0  0  0  0
  -26.9610  -30.3370   24.2290 C   0  0  0  0  0  1  0  0  0  0  0  0
  -27.4800  -32.4710   25.3850 C   0  0  0  0  0  1  0  0  0  0  0  0
  -32.6460  -24.6190   18.8970 C   0  0  0  0  0  2  0  0  0  0  0  0
  -31.4130  -23.6990   18.8160 C   0  0  0  0  0  2  0  0  0  0  0  0
  -30.6430  -21.6660   20.0280 C   0  0  0  0  0  0  0  0  0  0  0  0
  -31.6080  -22.4890   19.6110 N   0  0  0  0  0  0  0  0  0  0  0  0
  -29.4580  -21.8080   19.7080 O   0  0  0  0  0  0  0  0  0  0  0  0
  -32.5510  -22.2900   19.9180 H   0  0  0  0  0  0  0  0  0  0  0  0
  -31.0640  -20.5180   20.9500 C   0  0  0  0  0  2  0  0  0  0  0  0
  -30.4580  -18.1070   21.0640 C   0  0  0  0  0  0  0  0  0  0  0  0
  -30.1900  -19.3730   20.7370 N   0  0  0  0  0  0  0  0  0  0  0  0
  -31.4670  -17.7790   21.6910 O   0  0  0  0  0  0  0  0  0  0  0  0
  -29.3270  -19.5890   20.2510 H   0  0  0  0  0  0  0  0  0  0  0  0
  -29.4280  -17.0740   20.6040 C   0  0  0  0  0  2  0  0  0  0  0  0
  -30.4120  -14.8000   20.5610 C   0  0  0  0  0  0  0  0  0  0  0  0
  -30.2070  -12.6980   19.3060 C   0  0  0  0  0  2  0  0  0  0  0  0
  -29.2340  -12.9620   18.1360 C   0  0  0  0  0  2  0  0  0  0  0  0
  -27.7700  -12.7540   18.5780 C   0  0  0  0  0  2  0  0  0  0  0  0
  -27.4320  -13.4890   19.9020 C   0  0  0  0  0  3  0  0  0  0  0  0
  -28.5130  -13.1990   20.9710 C   0  0  0  0  0  2  0  0  0  0  0  0
  -29.8230  -13.5850   20.4150 N   0  0  0  0  0  0  0  0  0  0  0  0
  -31.4840  -15.1070   20.0320 O   0  0  0  0  0  0  0  0  0  0  0  0
  -29.6090  -15.7150   21.1180 N   0  0  0  0  0  0  0  0  0  0  0  0
  -28.8180  -15.3400   21.6170 H   0  0  0  0  0  0  0  0  0  0  0  0
  -25.0120  -13.9780   20.6400 C   0  0  0  0  0  0  0  0  0  0  0  0
  -23.9800  -13.1500   20.9950 C   0  0  0  0  0  0  0  0  0  0  0  0
  -24.4970  -11.8200   20.9170 C   0  0  0  0  0  0  0  0  0  0  0  0
  -26.0910  -13.1500   20.3770 N   0  0  0  0  0  0  0  0  0  0  0  0
  -25.7850  -11.8450   20.5970 N   0  0  0  0  0  0  0  0  0  0  0  0
  -23.8270  -10.5230   21.0760 C   0  0  0  0  0  0  0  0  0  0  0  0
  -24.3080   -9.5510   21.9810 C   0  0  0  0  0  3  0  0  0  0  0  0
  -23.6380   -8.3180   22.1270 C   0  0  0  0  0  3  0  0  0  0  0  0
  -22.4740   -8.0470   21.3690 C   0  0  0  0  0  0  0  0  0  0  0  0
  -22.0130   -9.0100   20.4540 C   0  0  0  0  0  3  0  0  0  0  0  0
  -22.6840  -10.2350   20.3040 C   0  0  0  0  0  3  0  0  0  0  0  0
  -21.7720   -6.8680   21.4260 O   0  0  0  0  0  0  0  0  0  0  0  0
  -21.7520   -6.0980   22.5630 C   0  0  0  0  0  0  0  0  0  0  0  0
  -21.2850   -6.6010   23.7960 C   0  0  0  0  0  3  0  0  0  0  0  0
  -21.2140   -5.7550   24.9210 C   0  0  0  0  0  3  0  0  0  0  0  0
  -21.6020   -4.4070   24.8140 C   0  0  0  0  0  0  0  0  0  0  0  0
  -22.0640   -3.9020   23.5850 C   0  0  0  0  0  3  0  0  0  0  0  0
  -22.1350   -4.7460   22.4620 C   0  0  0  0  0  0  0  0  0  0  0  0
  -22.5600   -4.2480   21.2750 F   0  0  0  0  0  0  0  0  0  0  0  0
  -21.5280   -3.5910   25.8920 F   0  0  0  0  0  0  0  0  0  0  0  0
  -22.5650  -13.5580   21.2980 C   0  0  0  0  0  0  0  0  0  0  0  0
  -21.8800  -12.8080   22.1530 N   0  0  0  0  0  0  0  0  0  0  0  0
  -22.0760  -14.5770   20.8120 O   0  0  0  0  0  0  0  0  0  0  0  0
  -22.2900  -11.9830   22.5680 H   0  0  0  0  0  0  0  0  0  0  0  0
  -20.9330  -13.0610   22.3970 H   0  0  0  0  0  0  0  0  0  0  0  0
  -25.1180  -15.3580   20.5000 N   0  0  0  0  0  0  0  0  0  0  0  0
  -24.3270  -15.9810   20.6300 H   0  0  0  0  0  0  0  0  0  0  0  0
  -25.9450  -15.8360   20.1640 H   0  0  0  0  0  0  0  0  0  0  0  0
  1  2  1  0
  2  3  1  0
  3  4  1  0
  5  7  2  0
  6  5  1  0
  6  4  1  0
  8  6  1  0
  9  5  1  0
 10  9  1  0
 10 11  1  0
 12 14  1  0
 12 10  1  0
 13 24  2  0
 14 19  1  0
 15 23  1  0
 15 25  1  0
 16 22  1  0
 16 18  1  0
 17 23  1  0
 18 17  1  0
 19 18  2  0
 20 21  1  0
 20 14  2  0
 21 16  2  0
 22 15  1  0
 23 13  1  0
 25 27  2  0
 26 25  1  0
 28 26  1  0
 29 38  2  0
 29 34  1  0
 30 26  1  0
 30 34  1  0
 31 30  1  0
 32 33  1  0
 32 31  1  0
 33 29  1  0
 34 35  2  0
 35 36  1  0
 37 36  2  0
 38 37  1  0
 39 13  1  0
 39 40  1  0
 39 49  1  0
 40 43  1  0
 41 45  1  0
 41 40  1  0
 42 41  2  0
 45 44  1  0
 47 45  1  0
 47 48  1  0
 47 46  1  0
 49 52  1  1
 49 50  1  0
 51 49  1  0
 53  1  1  0
 54 53  1  0
 54 56  1  0
 55 59  1  0
 56 58  1  0
 56 55  1  0
 57 55  2  0
 60 62  2  0
 61 59  1  0
 61 60  1  0
 63 61  1  0
 64 60  1  0
 64 73  1  0
 65 73  1  0
 66 71  1  0
 67 68  1  0
 67 66  1  0
 69 68  1  0
 69 78  1  0
 69 70  1  0
 71 65  1  0
 71 70  1  0
 72 65  2  0
 73 74  1  0
 75 76  2  0
 76 95  1  0
 77 76  1  0
 77 80  1  0
 78 79  1  0
 78 75  1  0
 79 77  2  0
 80 81  1  0
 81 82  2  0
 83 86  1  0
 83 82  1  0
 84 83  2  0
 85 84  1  0
 85 80  2  0
 86 87  1  0
 87 88  1  0
 88 89  2  0
 90 89  1  0
 90 94  1  0
 91 90  2  0
 92 87  2  0
 92 91  1  0
 93 92  1  0
 95 96  1  0
 96 99  1  0
 96 98  1  0
 97 95  2  0
100101  1  0
100 75  1  0
102100  1  0
M  ISO  4  10 101  12 101  65 100  73 100
M  END
>  <TORSDO>  (74) 
F 28

>  <SCORE>  (74) 
-10.903

>  <name>  (74) 
75

>  <ligand_id>  (74) 
75

>  <original_smiles>  (74) 
[H]c1c([H])c([H])c2c(c1[H])C([H])([H])C([H])([H])C([H])([H])C2([H])N([H])C(=O)C1([H])N(C(=O)C([H])(N([H])C(=O)C([H])(N([H])C([H])([H])[H])C([H])([H])[H])C(C([H])([H])[H])(C([H])([H])[H])C([H])([H])[H])C([H])([H])c2c([H])c(ON([H])C([H])([H])C(=O)N([H])C([H])([H])C([H])([H])C([H])([H])C([H])([H])C([H])([H])C([H])([H])N([H])C(=O)C([H])([H])N([H])C(=O)C([H])([H])N([H])C(=O)N3C([H])([H])C([H])([H])C([H])([H])C([H])(n4nc(-c5c([H])c([H])c(Oc6c([H])c([H])c(F)c([H])c6F)c([H])c5[H])c(C(=O)N([H])[H])c4N([H])[H])C3([H])[H])c([H])c([H])c2C1([H])[H]

>  <smiles>  (74) 
[H]c1c([H])c([H])c2c(c1[H])C([H])([H])C([H])([H])C([H])([H])C2([H])N([H])C(=O)C1([H])N(C(=O)C([H])(N([H])C(=O)C([H])(N([H])C([H])([H])[H])C([H])([H])[H])C(C([H])([H])[H])(C([H])([H])[H])C([H])([H])[H])C([H])([H])c2c([H])c(ON([H])C([H])([H])C(=O)N([H])C([H])([H])C([H])([H])C([H])([H])C([H])([H])C([H])([H])C([H])([H])N([H])C(=O)C([H])([H])N([H])C(=O)C([H])([H])N([H])C(=O)N3C([H])([H])C([H])([H])C([H])([H])C([H])(n4nc(-c5c([H])c([H])c(Oc6c([H])c([H])c(F)c([H])c6F)c([H])c5[H])c(C(=O)N([H])[H])c4N([H])[H])C3([H])[H])c([H])c([H])c2C1([H])[H]

$$$$
77:0:0
     RDKit          3D

101108  0  0  1  0  0  0  0  0999 V2000
  -22.1920  -27.2510   19.4110 C   0  0  0  0  0  2  0  0  0  0  0  0
  -21.4950  -28.6550   20.3780 C   0  0  0  0  0  2  0  0  0  0  0  0
  -21.8240  -29.7890   21.7860 C   0  0  0  0  0  2  0  0  0  0  0  0
  -22.3090  -29.6850   23.5980 C   0  0  0  0  0  2  0  0  0  0  0  0
  -24.1550  -27.5680   25.0340 C   0  0  0  0  0  0  0  0  0  0  0  0
  -23.0360  -28.5100   24.6560 N   0  0  0  0  0  0  0  0  0  0  0  0
  -23.7270  -26.7720   25.8720 O   0  0  0  0  0  0  0  0  0  0  0  0
  -22.3490  -28.3130   25.3670 H   0  0  0  0  0  0  0  0  0  0  0  0
  -25.9050  -27.2380   24.6950 C   0  0  0  0  0  2  0  0  0  0  0  0
  -27.1730  -26.4200   23.6180 C   0  0  0  0  0  2  0  0  0  0  0  0
  -28.6040  -26.5250   22.8020 O   0  0  0  0  0  0  0  0  0  0  0  0
  -25.3700  -30.7530   23.3250 C   0  0  0  0  0  0  0  0  0  0  0  0
  -28.7140  -26.8080   21.4660 C   0  0  0  0  0  3  0  0  0  0  0  0
  -24.7550  -28.8140   21.5640 C   0  0  0  0  0  3  0  0  0  0  0  0
  -26.5850  -27.9250   20.3120 C   0  0  0  0  0  0  0  0  0  0  0  0
  -26.9990  -29.9410   21.7690 C   0  0  0  0  0  2  0  0  0  0  0  0
  -27.4620  -28.6830   21.0930 C   0  0  0  0  0  0  0  0  0  0  0  0
  -28.7060  -28.1770   21.4180 C   0  0  0  0  0  2  0  0  0  0  0  0
  -28.0270  -26.0320   20.5200 C   0  0  0  0  0  3  0  0  0  0  0  0
  -26.9320  -26.6300   19.8730 C   0  0  0  0  0  3  0  0  0  0  0  0
  -25.2840  -28.5780   20.1440 C   0  0  0  0  0  2  0  0  0  0  0  0
  -25.6870  -29.7640   22.3810 N   0  0  0  0  0  0  0  0  0  0  0  0
  -24.2270  -31.0960   23.6120 O   0  0  0  0  0  0  0  0  0  0  0  0
  -24.1840  -27.3180   22.0940 C   0  0  0  0  0  0  0  0  0  0  0  0
  -22.8750  -26.8800   22.1730 N   0  0  0  0  0  0  0  0  0  0  0  0
  -24.8450  -26.5720   22.7000 O   0  0  0  0  0  0  0  0  0  0  0  0
  -22.3590  -27.3960   21.4700 H   0  0  0  0  0  0  0  0  0  0  0  0
  -19.5490  -25.5430   21.9250 C   0  0  0  0  0  0  0  0  0  0  0  0
  -21.8780  -26.1830   22.9810 C   0  0  0  0  0  3  0  0  0  0  0  0
  -22.1970  -24.7190   22.7910 C   0  0  0  0  0  2  0  0  0  0  0  0
  -21.6170  -24.1150   21.5050 C   0  0  0  0  0  2  0  0  0  0  0  0
  -20.0950  -24.1900   21.5130 C   0  0  0  0  0  2  0  0  0  0  0  0
  -20.3620  -26.4910   22.6120 C   0  0  0  0  0  0  0  0  0  0  0  0
  -19.6990  -27.6730   23.0370 C   0  0  0  0  0  3  0  0  0  0  0  0
  -18.3530  -27.9620   22.7110 C   0  0  0  0  0  3  0  0  0  0  0  0
  -17.5810  -27.0040   22.0340 C   0  0  0  0  0  3  0  0  0  0  0  0
  -18.1820  -25.7920   21.6590 C   0  0  0  0  0  3  0  0  0  0  0  0
  -26.4040  -31.6050   24.1430 C   0  0  0  0  0  3  0  0  0  0  0  0
  -25.8310  -32.9500   24.3160 N   0  0  0  0  0  0  0  0  0  0  0  0
  -26.1060  -33.9870   23.5310 C   0  0  0  0  0  0  0  0  0  0  0  0
  -26.9340  -33.9350   22.6190 O   0  0  0  0  0  0  0  0  0  0  0  0
  -25.0980  -33.0540   25.0050 H   0  0  0  0  0  0  0  0  0  0  0  0
  -24.2280  -35.4780   22.7900 C   0  0  0  0  0  1  0  0  0  0  0  0
  -25.3530  -35.2920   23.8170 C   0  0  0  0  0  3  0  0  0  0  0  0
  -27.1660  -36.5110   24.9380 C   0  0  0  0  0  1  0  0  0  0  0  0
  -26.2360  -36.4760   23.8130 N   0  0  0  0  0  0  0  0  0  0  0  0
  -25.6830  -37.3290   23.8360 H   0  0  0  0  0  0  0  0  0  0  0  0
  -26.7830  -31.0590   25.5790 C   0  0  1  0  0  0  0  0  0  0  0  0
  -25.5900  -30.7830   26.5310 C   0  0  0  0  0  1  0  0  0  0  0  0
  -27.7810  -29.8870   25.4760 C   0  0  0  0  0  1  0  0  0  0  0  0
  -27.5980  -32.1180   26.3400 C   0  0  0  0  0  1  0  0  0  0  0  0
  -22.7940  -25.5610   19.5480 C   0  0  0  0  0  3  0  0  0  0  0  0
  -23.8130  -24.5630   18.5130 C   0  0  0  0  0  3  0  0  0  0  0  0
  -25.7500  -22.4440   18.4970 C   0  0  0  0  0  0  0  0  0  0  0  0
  -24.4390  -23.0580   18.6740 N   0  0  0  0  0  0  0  0  0  0  0  0
  -26.7120  -23.2110   18.4370 O   0  0  0  0  0  0  0  0  0  0  0  0
  -23.7180  -22.3520   18.7240 H   0  0  0  0  0  0  0  0  0  0  0  0
  -26.1720  -20.7950   18.3140 C   0  0  0  0  0  2  0  0  0  0  0  0
  -27.9780  -18.5830   18.4940 C   0  0  0  0  0  0  0  0  0  0  0  0
  -27.5660  -19.9750   18.6060 N   0  0  0  0  0  0  0  0  0  0  0  0
  -27.1440  -17.8310   17.9940 O   0  0  0  0  0  0  0  0  0  0  0  0
  -28.2740  -20.5720   19.0170 H   0  0  0  0  0  0  0  0  0  0  0  0
  -29.4550  -17.7950   18.8990 C   0  0  0  0  0  2  0  0  0  0  0  0
  -30.8220  -15.2770   19.5360 C   0  0  0  0  0  0  0  0  0  0  0  0
  -31.1170  -12.7470   19.2410 C   0  0  0  0  0  2  0  0  0  0  0  0
  -30.2250  -12.3310   18.0450 C   0  0  0  0  0  2  0  0  0  0  0  0
  -28.7550  -12.1590   18.4860 C   0  0  0  0  0  2  0  0  0  0  0  0
  -28.2880  -13.3190   19.4030 C   0  0  0  0  0  3  0  0  0  0  0  0
  -29.2810  -13.5680   20.5430 C   0  0  0  0  0  2  0  0  0  0  0  0
  -30.5040  -13.9590   19.8670 N   0  0  0  0  0  0  0  0  0  0  0  0
  -32.0250  -15.4510   19.2460 O   0  0  0  0  0  0  0  0  0  0  0  0
  -29.7410  -16.2610   19.3960 N   0  0  0  0  0  0  0  0  0  0  0  0
  -28.8790  -15.8580   19.7360 H   0  0  0  0  0  0  0  0  0  0  0  0
  -26.0190  -14.1120   20.2350 C   0  0  0  0  0  0  0  0  0  0  0  0
  -24.9040  -13.4260   20.6330 C   0  0  0  0  0  0  0  0  0  0  0  0
  -25.2420  -12.0440   20.5530 C   0  0  0  0  0  0  0  0  0  0  0  0
  -26.9510  -13.1390   19.9190 N   0  0  0  0  0  0  0  0  0  0  0  0
  -26.5070  -11.8910   20.1870 N   0  0  0  0  0  0  0  0  0  0  0  0
  -24.4160  -10.8510   20.7340 C   0  0  0  0  0  0  0  0  0  0  0  0
  -24.7420   -9.8670   21.6920 C   0  0  0  0  0  3  0  0  0  0  0  0
  -23.9170   -8.7320   21.8550 C   0  0  0  0  0  3  0  0  0  0  0  0
  -22.7520   -8.5840   21.0610 C   0  0  0  0  0  0  0  0  0  0  0  0
  -22.4510   -9.5550   20.0910 C   0  0  0  0  0  3  0  0  0  0  0  0
  -23.2760  -10.6800   19.9270 C   0  0  0  0  0  3  0  0  0  0  0  0
  -21.9040   -7.5050   21.1330 O   0  0  0  0  0  0  0  0  0  0  0  0
  -21.6960   -6.8400   22.3140 C   0  0  0  0  0  0  0  0  0  0  0  0
  -21.1940   -7.4930   23.4600 C   0  0  0  0  0  3  0  0  0  0  0  0
  -20.9280   -6.7540   24.6310 C   0  0  0  0  0  3  0  0  0  0  0  0
  -21.1530   -5.3630   24.6520 C   0  0  0  0  0  0  0  0  0  0  0  0
  -21.6470   -4.7120   23.5080 C   0  0  0  0  0  3  0  0  0  0  0  0
  -21.9140   -5.4490   22.3420 C   0  0  0  0  0  0  0  0  0  0  0  0
  -22.3720   -4.8120   21.2350 F   0  0  0  0  0  0  0  0  0  0  0  0
  -20.8890   -4.6510   25.7730 F   0  0  0  0  0  0  0  0  0  0  0  0
  -23.5700  -14.0310   20.9510 C   0  0  0  0  0  0  0  0  0  0  0  0
  -22.8080  -13.3910   21.8340 N   0  0  0  0  0  0  0  0  0  0  0  0
  -23.2150  -15.0970   20.4580 O   0  0  0  0  0  0  0  0  0  0  0  0
  -23.1090  -12.5240   22.2510 H   0  0  0  0  0  0  0  0  0  0  0  0
  -21.9100  -13.7780   22.0930 H   0  0  0  0  0  0  0  0  0  0  0  0
  -26.2830  -15.4620   20.0850 N   0  0  0  0  0  0  0  0  0  0  0  0
  -25.5300  -16.1200   20.2490 H   0  0  0  0  0  0  0  0  0  0  0  0
  -26.9790  -15.8590   19.4620 H   0  0  0  0  0  0  0  0  0  0  0  0
  1 52  1  0
  1  2  1  0
  2  3  1  0
  3  4  1  0
  4  6  1  0
  5  7  2  0
  6  5  1  0
  6  8  1  0
  9  5  1  0
 10  9  1  0
 11 10  1  0
 12 23  2  0
 13 11  1  0
 14 24  1  0
 14 22  1  0
 15 17  2  0
 16 22  1  0
 17 18  1  0
 17 16  1  0
 18 13  1  0
 19 13  1  0
 20 15  1  0
 20 19  2  0
 21 15  1  0
 21 14  1  0
 22 12  1  0
 24 25  1  0
 24 26  2  0
 27 25  1  0
 28 33  1  0
 29 25  1  0
 30 29  1  0
 31 32  1  0
 31 30  1  0
 32 28  1  0
 33 29  1  0
 33 34  2  0
 35 34  1  0
 36 35  2  0
 37 28  2  0
 37 36  1  0
 38 12  1  0
 38 39  1  0
 38 48  1  0
 39 42  1  0
 40 44  1  0
 40 39  1  0
 41 40  2  0
 44 43  1  0
 46 44  1  0
 46 47  1  0
 46 45  1  0
 48 51  1  1
 48 49  1  0
 50 48  1  0
 53 55  1  0
 53 52  2  0
 54 55  1  0
 55 57  1  0
 56 54  2  0
 58 54  1  0
 58 60  1  0
 59 60  1  0
 59 63  1  0
 60 62  1  0
 61 59  2  0
 63 72  1  0
 64 70  1  0
 65 70  1  0
 66 67  1  0
 66 65  1  0
 68 67  1  0
 68 77  1  0
 68 69  1  0
 70 69  1  0
 71 64  2  0
 72 64  1  0
 72 73  1  0
 74 75  2  0
 75 94  1  0
 76 75  1  0
 76 79  1  0
 77 78  1  0
 77 74  1  0
 78 76  2  0
 79 80  1  0
 80 81  2  0
 82 85  1  0
 82 81  1  0
 83 82  2  0
 84 83  1  0
 84 79  2  0
 85 86  1  0
 86 91  2  0
 86 87  1  0
 87 88  2  0
 88 89  1  0
 89 93  1  0
 90 89  2  0
 91 90  1  0
 92 91  1  0
 94 95  1  0
 95 98  1  0
 95 97  1  0
 96 94  2  0
 99 74  1  0
 99100  1  0
101 99  1  0
M  ISO  4  10 101  11 101  64 100  72 100
M  END
>  <TORSDO>  (75) 
F 28

>  <SCORE>  (75) 
-11.377

>  <name>  (75) 
77

>  <ligand_id>  (75) 
77

>  <original_smiles>  (75) 
[H]c1c([H])c([H])c2c(c1[H])C([H])([H])C([H])([H])C([H])([H])C2([H])N([H])C(=O)C1([H])N(C(=O)C([H])(N([H])C(=O)C([H])(N([H])C([H])([H])[H])C([H])([H])[H])C(C([H])([H])[H])(C([H])([H])[H])C([H])([H])[H])C([H])([H])c2c([H])c(OC([H])([H])C([H])([H])C(=O)N([H])C([H])([H])C([H])([H])C([H])([H])C([H])([H])C([H])([H])C([H])([H])N([H])C(=O)C([H])([H])N([H])C(=O)C([H])([H])N([H])C(=O)N3C([H])([H])C([H])([H])C([H])([H])C([H])(n4nc(-c5c([H])c([H])c(Oc6c([H])c([H])c(F)c([H])c6F)c([H])c5[H])c(C(=O)N([H])[H])c4N([H])[H])C3([H])[H])c([H])c([H])c2C1([H])[H]

>  <smiles>  (75) 
[H]c1c([H])c([H])c2c(c1[H])C([H])([H])C([H])([H])C([H])([H])C2([H])N([H])C(=O)C1([H])N(C(=O)C([H])(N([H])C(=O)C([H])(N([H])C([H])([H])[H])C([H])([H])[H])C(C([H])([H])[H])(C([H])([H])[H])C([H])([H])[H])C([H])([H])c2c([H])c(OC([H])([H])C([H])([H])C(=O)N([H])C([H])([H])C([H])([H])C([H])([H])C([H])([H])C([H])([H])C([H])([H])N([H])C(=O)C([H])([H])N([H])C(=O)C([H])([H])N([H])C(=O)N3C([H])([H])C([H])([H])C([H])([H])C([H])(n4nc(-c5c([H])c([H])c(Oc6c([H])c([H])c(F)c([H])c6F)c([H])c5[H])c(C(=O)N([H])[H])c4N([H])[H])C3([H])[H])c([H])c([H])c2C1([H])[H]

$$$$
78:0:0
     RDKit          3D

100107  0  0  1  0  0  0  0  0999 V2000
  -30.6560  -20.7180   23.2580 C   0  0  0  0  0  0  0  0  0  0  0  0
  -31.9540  -20.7810   22.9110 N   0  0  0  0  0  0  0  0  0  0  0  0
  -30.0510  -19.6460   23.3230 O   0  0  0  0  0  0  0  0  0  0  0  0
  -32.4040  -21.6830   22.8460 H   0  0  0  0  0  0  0  0  0  0  0  0
  -32.8450  -19.6370   22.6560 C   0  0  0  0  0  2  0  0  0  0  0  0
  -32.6290  -19.0000   21.2800 C   0  0  0  0  0  0  0  0  0  0  0  0
  -31.4100  -18.5050   21.0410 N   0  0  0  0  0  0  0  0  0  0  0  0
  -33.5350  -18.9770   20.4430 O   0  0  0  0  0  0  0  0  0  0  0  0
  -30.7170  -18.6460   21.7710 H   0  0  0  0  0  0  0  0  0  0  0  0
  -30.9820  -17.8410   19.8150 C   0  0  0  0  0  3  0  0  0  0  0  0
  -30.5030  -18.8740   18.7610 C   0  0  0  0  0  0  0  0  0  0  0  0
  -30.1340  -18.3540   17.3730 C   0  0  0  0  0  1  0  0  0  0  0  0
  -30.3940  -20.0820   18.9910 O   0  0  0  0  0  0  0  0  0  0  0  0
  -29.7750  -16.9460   20.1940 C   0  0  0  0  0  2  0  0  0  0  0  0
  -30.8500  -14.7420   20.4750 C   0  0  0  0  0  0  0  0  0  0  0  0
  -30.6350  -12.5690   19.3620 C   0  0  0  0  0  2  0  0  0  0  0  0
  -29.7310  -12.7770   18.1280 C   0  0  0  0  0  2  0  0  0  0  0  0
  -28.2470  -12.6170   18.5120 C   0  0  0  0  0  2  0  0  0  0  0  0
  -27.8600  -13.4570   19.7610 C   0  0  0  0  0  3  0  0  0  0  0  0
  -28.8800  -13.2340   20.9060 C   0  0  0  0  0  2  0  0  0  0  0  0
  -30.2240  -13.5430   20.3840 N   0  0  0  0  0  0  0  0  0  0  0  0
  -31.9550  -14.9690   19.9830 O   0  0  0  0  0  0  0  0  0  0  0  0
  -30.0760  -15.7270   20.9500 N   0  0  0  0  0  0  0  0  0  0  0  0
  -29.2980  -15.3990   21.5050 H   0  0  0  0  0  0  0  0  0  0  0  0
  -25.4300  -14.0430   20.3760 C   0  0  0  0  0  0  0  0  0  0  0  0
  -24.3650  -13.2590   20.7240 C   0  0  0  0  0  0  0  0  0  0  0  0
  -24.8470  -11.9140   20.7300 C   0  0  0  0  0  0  0  0  0  0  0  0
  -26.4960  -13.1730   20.1920 N   0  0  0  0  0  0  0  0  0  0  0  0
  -26.1450  -11.8910   20.4620 N   0  0  0  0  0  0  0  0  0  0  0  0
  -24.1430  -10.6400   20.9190 C   0  0  0  0  0  0  0  0  0  0  0  0
  -24.5270   -9.7270   21.9280 C   0  0  0  0  0  3  0  0  0  0  0  0
  -23.8190   -8.5210   22.1100 C   0  0  0  0  0  3  0  0  0  0  0  0
  -22.7130   -8.2160   21.2800 C   0  0  0  0  0  0  0  0  0  0  0  0
  -22.3450   -9.1180   20.2670 C   0  0  0  0  0  3  0  0  0  0  0  0
  -23.0530  -10.3190   20.0840 C   0  0  0  0  0  3  0  0  0  0  0  0
  -21.9840   -7.0560   21.3640 O   0  0  0  0  0  0  0  0  0  0  0  0
  -21.8180   -6.3940   22.5540 C   0  0  0  0  0  0  0  0  0  0  0  0
  -21.2130   -7.0110   23.6690 C   0  0  0  0  0  3  0  0  0  0  0  0
  -21.0020   -6.2720   24.8530 C   0  0  0  0  0  3  0  0  0  0  0  0
  -21.3750   -4.9180   24.9120 C   0  0  0  0  0  0  0  0  0  0  0  0
  -21.9720   -4.3000   23.7970 C   0  0  0  0  0  3  0  0  0  0  0  0
  -22.1870   -5.0350   22.6190 C   0  0  0  0  0  0  0  0  0  0  0  0
  -22.7420   -4.4290   21.5410 F   0  0  0  0  0  0  0  0  0  0  0  0
  -21.1640   -4.2060   26.0440 F   0  0  0  0  0  0  0  0  0  0  0  0
  -22.9510  -13.7130   20.9500 C   0  0  0  0  0  0  0  0  0  0  0  0
  -22.2180  -13.0250   21.8150 N   0  0  0  0  0  0  0  0  0  0  0  0
  -22.5050  -14.7180   20.3960 O   0  0  0  0  0  0  0  0  0  0  0  0
  -22.5910  -12.2140   22.2870 H   0  0  0  0  0  0  0  0  0  0  0  0
  -21.2670  -13.3090   22.0120 H   0  0  0  0  0  0  0  0  0  0  0  0
  -25.5790  -15.4140   20.1840 N   0  0  0  0  0  0  0  0  0  0  0  0
  -24.7980  -16.0560   20.2710 H   0  0  0  0  0  0  0  0  0  0  0  0
  -26.4370  -15.8680   19.8990 H   0  0  0  0  0  0  0  0  0  0  0  0
  -29.9310  -22.0380   23.5630 C   0  0  0  0  0  2  0  0  0  0  0  0
  -29.3410  -22.6320   22.3420 N   0  0  0  0  0  4  0  0  0  0  0  0
  -28.4800  -22.1500   22.1280 H   0  0  0  0  0  0  0  0  0  0  0  0
  -29.9690  -22.4640   21.5730 H   0  0  0  0  0  0  0  0  0  0  0  0
  -29.1070  -24.0930   22.4530 C   0  0  0  0  0  2  0  0  0  0  0  0
  -28.8980  -24.7860   21.0900 C   0  0  0  0  0  2  0  0  0  0  0  0
  -28.9670  -26.3140   21.2430 C   0  0  0  0  0  2  0  0  0  0  0  0
  -28.5490  -26.9200   20.0300 O   0  0  0  0  0  0  0  0  0  0  0  0
  -24.5990  -31.9360   23.2430 C   0  0  0  0  0  0  0  0  0  0  0  0
  -27.3720  -27.6150   20.1150 C   0  0  0  0  0  0  0  0  0  0  0  0
  -23.4470  -30.5320   21.5570 C   0  0  0  0  0  3  0  0  0  0  0  0
  -24.9550  -29.0520   20.1350 C   0  0  0  0  0  0  0  0  0  0  0  0
  -25.9640  -30.9550   21.4040 C   0  0  0  0  0  2  0  0  0  0  0  0
  -26.0900  -29.5960   20.7480 C   0  0  0  0  0  0  0  0  0  0  0  0
  -27.3070  -28.8780   20.7430 C   0  0  0  0  0  3  0  0  0  0  0  0
  -26.2200  -27.0760   19.5100 C   0  0  0  0  0  3  0  0  0  0  0  0
  -25.0090  -27.7910   19.5140 C   0  0  0  0  0  3  0  0  0  0  0  0
  -23.6930  -29.8820   20.1710 C   0  0  0  0  0  2  0  0  0  0  0  0
  -24.6860  -31.1540   22.1280 N   0  0  0  0  0  0  0  0  0  0  0  0
  -23.5030  -32.1820   23.7680 O   0  0  0  0  0  0  0  0  0  0  0  0
  -22.8050  -29.4810   22.4920 C   0  0  0  0  0  0  0  0  0  0  0  0
  -21.4920  -29.2650   22.3240 N   0  0  0  0  0  0  0  0  0  0  0  0
  -23.4830  -28.8620   23.3170 O   0  0  0  0  0  0  0  0  0  0  0  0
  -21.0140  -29.8140   21.6250 H   0  0  0  0  0  0  0  0  0  0  0  0
  -18.1320  -27.9900   22.7030 C   0  0  0  0  0  0  0  0  0  0  0  0
  -20.6710  -28.3050   23.0610 C   0  0  0  0  0  3  0  0  0  0  0  0
  -20.8280  -26.8830   22.4720 C   0  0  0  0  0  2  0  0  0  0  0  0
  -19.7640  -26.5450   21.4230 C   0  0  0  0  0  2  0  0  0  0  0  0
  -18.3610  -26.6500   22.0250 C   0  0  0  0  0  2  0  0  0  0  0  0
  -19.2190  -28.7730   23.1760 C   0  0  0  0  0  0  0  0  0  0  0  0
  -18.9480  -30.0270   23.7670 C   0  0  0  0  0  3  0  0  0  0  0  0
  -17.6230  -30.4910   23.8940 C   0  0  0  0  0  3  0  0  0  0  0  0
  -16.5530  -29.7010   23.4410 C   0  0  0  0  0  3  0  0  0  0  0  0
  -16.8100  -28.4520   22.8490 C   0  0  0  0  0  3  0  0  0  0  0  0
  -25.8650  -32.5790   23.8960 C   0  0  0  0  0  3  0  0  0  0  0  0
  -26.3640  -31.8080   25.1820 C   0  0  1  0  0  0  0  0  0  0  0  0
  -25.2450  -31.5430   26.2160 C   0  0  0  0  0  1  0  0  0  0  0  0
  -26.9780  -30.4420   24.7980 C   0  0  0  0  0  1  0  0  0  0  0  0
  -27.4840  -32.6140   25.8830 C   0  0  0  0  0  1  0  0  0  0  0  0
  -25.5450  -33.9750   24.2180 N   0  0  0  0  0  0  0  0  0  0  0  0
  -25.9020  -35.0260   23.4680 C   0  0  0  0  0  0  0  0  0  0  0  0
  -26.6040  -34.9210   22.4600 O   0  0  0  0  0  0  0  0  0  0  0  0
  -24.9290  -34.1300   25.0010 H   0  0  0  0  0  0  0  0  0  0  0  0
  -24.1840  -36.8090   23.0370 C   0  0  0  0  0  1  0  0  0  0  0  0
  -25.3890  -36.4100   23.9030 C   0  0  0  0  0  3  0  0  0  0  0  0
  -27.4780  -37.2960   24.8390 C   0  0  0  0  0  1  0  0  0  0  0  0
  -26.4230  -37.4640   23.8440 N   0  0  0  0  0  0  0  0  0  0  0  0
  -26.0100  -38.3830   23.9790 H   0  0  0  0  0  0  0  0  0  0  0  0
  1  3  2  0
  1 53  1  0
  2  1  1  0
  4  2  1  0
  5  2  1  0
  6  5  1  0
  7  6  1  0
  7  9  1  0
  8  6  2  0
 10 14  1  0
 10  7  1  0
 11 13  2  0
 11 10  1  0
 12 11  1  0
 14 23  1  0
 15 23  1  0
 16 21  1  0
 17 18  1  0
 17 16  1  0
 19 18  1  0
 19 28  1  0
 19 20  1  0
 21 15  1  0
 21 20  1  0
 22 15  2  0
 23 24  1  0
 25 26  2  0
 26 27  1  0
 26 45  1  0
 27 30  1  0
 28 25  1  0
 28 29  1  0
 29 27  2  0
 30 31  1  0
 31 32  2  0
 33 36  1  0
 33 32  1  0
 34 33  2  0
 35 34  1  0
 35 30  2  0
 36 37  1  0
 37 42  2  0
 37 38  1  0
 38 39  2  0
 39 40  1  0
 40 44  1  0
 41 40  2  0
 42 41  1  0
 43 42  1  0
 45 46  1  0
 46 49  1  0
 46 48  1  0
 47 45  2  0
 50 51  1  0
 50 25  1  0
 52 50  1  0
 54 57  1  0
 54 53  1  0
 55 54  1  0
 56 54  1  0
 58 59  1  0
 58 57  1  0
 60 62  1  0
 60 59  1  0
 61 72  2  0
 62 67  1  0
 63 71  1  0
 63 73  1  0
 64 70  1  0
 64 66  1  0
 65 71  1  0
 66 65  1  0
 67 66  2  0
 68 69  1  0
 68 62  2  0
 69 64  2  0
 70 63  1  0
 71 61  1  0
 73 75  2  0
 74 73  1  0
 76 74  1  0
 77 86  2  0
 77 82  1  0
 78 74  1  0
 78 82  1  0
 79 78  1  0
 80 81  1  0
 80 79  1  0
 81 77  1  0
 82 83  2  0
 83 84  1  0
 85 84  2  0
 86 85  1  0
 87 61  1  0
 87 92  1  0
 87 88  1  0
 88 91  1  1
 88 89  1  0
 90 88  1  0
 92 95  1  0
 93 97  1  0
 93 92  1  0
 94 93  2  0
 97 96  1  0
 99 97  1  0
 99100  1  0
 99 98  1  0
M  ISO  4  15 100  23 100  59 101  60 101
M  END
>  <TORSDO>  (76) 
F 26

>  <SCORE>  (76) 
-11.349

>  <name>  (76) 
78

>  <ligand_id>  (76) 
78

>  <original_smiles>  (76) 
[H]c1c([H])c([H])c2c(c1[H])C([H])([H])C([H])([H])C([H])([H])C2([H])N([H])C(=O)C1([H])N(C(=O)C([H])(N([H])C(=O)C([H])(N([H])C([H])([H])[H])C([H])([H])[H])C(C([H])([H])[H])(C([H])([H])[H])C([H])([H])[H])C([H])([H])c2c([H])c(OC([H])([H])C([H])([H])C([H])([H])[N+]([H])([H])C([H])([H])C(=O)N([H])C([H])([H])C(=O)N([H])C([H])(C(=O)C([H])([H])[H])C([H])([H])N([H])C(=O)N3C([H])([H])C([H])([H])C([H])([H])C([H])(n4nc(-c5c([H])c([H])c(Oc6c([H])c([H])c(F)c([H])c6F)c([H])c5[H])c(C(=O)N([H])[H])c4N([H])[H])C3([H])[H])c([H])c([H])c2C1([H])[H]

>  <smiles>  (76) 
[H]c1c([H])c([H])c2c(c1[H])C([H])([H])C([H])([H])C([H])([H])C2([H])N([H])C(=O)C1([H])N(C(=O)C([H])(N([H])C(=O)C([H])(N([H])C([H])([H])[H])C([H])([H])[H])C(C([H])([H])[H])(C([H])([H])[H])C([H])([H])[H])C([H])([H])c2c([H])c(OC([H])([H])C([H])([H])C([H])([H])[N+]([H])([H])C([H])([H])C(=O)N([H])C([H])([H])C(=O)N([H])C([H])(C(=O)C([H])([H])[H])C([H])([H])N([H])C(=O)N3C([H])([H])C([H])([H])C([H])([H])C([H])(n4nc(-c5c([H])c([H])c(Oc6c([H])c([H])c(F)c([H])c6F)c([H])c5[H])c(C(=O)N([H])[H])c4N([H])[H])C3([H])[H])c([H])c([H])c2C1([H])[H]

$$$$
79:0:0
     RDKit          3D

103110  0  0  1  0  0  0  0  0999 V2000
  -26.9110  -18.6280   17.6430 N   0  0  0  0  0  4  0  0  0  0  0  0
  -26.5420  -17.7140   17.4310 H   0  0  0  0  0  0  0  0  0  0  0  0
  -27.7490  -18.7590   17.0990 H   0  0  0  0  0  0  0  0  0  0  0  0
  -25.9190  -19.6320   17.2030 C   0  0  0  0  0  2  0  0  0  0  0  0
  -26.5730  -20.8870   16.5820 C   0  0  0  0  0  2  0  0  0  0  0  0
  -27.2810  -22.3530   18.4670 C   0  0  0  0  0  0  0  0  0  0  0  0
  -27.5660  -21.5500   17.4350 N   0  0  0  0  0  0  0  0  0  0  0  0
  -26.1290  -22.5200   18.8690 O   0  0  0  0  0  0  0  0  0  0  0  0
  -28.5340  -21.4930   17.1440 H   0  0  0  0  0  0  0  0  0  0  0  0
  -28.4580  -23.0630   19.1590 C   0  0  0  0  0  2  0  0  0  0  0  0
  -28.0880  -24.4990   19.6530 C   0  0  0  0  0  2  0  0  0  0  0  0
  -28.8380  -25.8640   19.5130 C   0  0  0  0  0  2  0  0  0  0  0  0
  -28.5540  -26.7500   20.6030 O   0  0  0  0  0  0  0  0  0  0  0  0
  -24.6370  -32.0030   23.4050 C   0  0  0  0  0  0  0  0  0  0  0  0
  -27.3550  -27.4360   20.5740 C   0  0  0  0  0  0  0  0  0  0  0  0
  -23.4670  -30.5290   21.7970 C   0  0  0  0  0  3  0  0  0  0  0  0
  -24.9530  -28.9300   20.4870 C   0  0  0  0  0  0  0  0  0  0  0  0
  -25.9980  -30.8730   21.6540 C   0  0  0  0  0  2  0  0  0  0  0  0
  -26.0950  -29.4720   21.0870 C   0  0  0  0  0  0  0  0  0  0  0  0
  -27.2910  -28.7240   21.1500 C   0  0  0  0  0  3  0  0  0  0  0  0
  -26.1860  -26.9010   19.9800 C   0  0  0  0  0  3  0  0  0  0  0  0
  -24.9900  -27.6360   19.9440 C   0  0  0  0  0  3  0  0  0  0  0  0
  -23.7130  -29.7900   20.4570 C   0  0  0  0  0  2  0  0  0  0  0  0
  -24.7160  -31.1540   22.3420 N   0  0  0  0  0  0  0  0  0  0  0  0
  -23.5430  -32.3020   23.9050 O   0  0  0  0  0  0  0  0  0  0  0  0
  -22.7960  -29.5480   22.7840 C   0  0  0  0  0  0  0  0  0  0  0  0
  -21.4770  -29.3500   22.6240 N   0  0  0  0  0  0  0  0  0  0  0  0
  -23.4570  -28.9660   23.6490 O   0  0  0  0  0  0  0  0  0  0  0  0
  -21.0050  -29.8700   21.8980 H   0  0  0  0  0  0  0  0  0  0  0  0
  -18.0950  -28.1610   23.0700 C   0  0  0  0  0  0  0  0  0  0  0  0
  -20.6420  -28.4440   23.4120 C   0  0  0  0  0  3  0  0  0  0  0  0
  -20.7700  -26.9880   22.9090 C   0  0  0  0  0  2  0  0  0  0  0  0
  -19.7030  -26.6100   21.8780 C   0  0  0  0  0  2  0  0  0  0  0  0
  -18.2980  -26.7810   22.4670 C   0  0  0  0  0  2  0  0  0  0  0  0
  -19.1960  -28.9480   23.5000 C   0  0  0  0  0  0  0  0  0  0  0  0
  -18.9560  -30.2400   24.0190 C   0  0  0  0  0  3  0  0  0  0  0  0
  -17.6450  -30.7440   24.1140 C   0  0  0  0  0  3  0  0  0  0  0  0
  -16.5560  -29.9540   23.7030 C   0  0  0  0  0  3  0  0  0  0  0  0
  -16.7820  -28.6660   23.1890 C   0  0  0  0  0  3  0  0  0  0  0  0
  -25.9100  -32.6570   24.0290 C   0  0  0  0  0  3  0  0  0  0  0  0
  -26.4100  -31.9290   25.3370 C   0  0  1  0  0  0  0  0  0  0  0  0
  -25.2950  -31.7040   26.3840 C   0  0  0  0  0  1  0  0  0  0  0  0
  -27.0210  -30.5520   24.9910 C   0  0  0  0  0  1  0  0  0  0  0  0
  -27.5330  -32.7590   26.0040 C   0  0  0  0  0  1  0  0  0  0  0  0
  -25.5950  -34.0640   24.3060 N   0  0  0  0  0  0  0  0  0  0  0  0
  -25.9360  -35.0880   23.5150 C   0  0  0  0  0  0  0  0  0  0  0  0
  -26.6250  -34.9520   22.5000 O   0  0  0  0  0  0  0  0  0  0  0  0
  -24.9970  -34.2500   25.0980 H   0  0  0  0  0  0  0  0  0  0  0  0
  -24.2160  -36.8600   23.0570 C   0  0  0  0  0  1  0  0  0  0  0  0
  -25.4350  -36.4870   23.9140 C   0  0  0  0  0  3  0  0  0  0  0  0
  -27.5420  -37.4050   24.7760 C   0  0  0  0  0  1  0  0  0  0  0  0
  -26.4660  -37.5390   23.7960 N   0  0  0  0  0  0  0  0  0  0  0  0
  -26.0540  -38.4610   23.9070 H   0  0  0  0  0  0  0  0  0  0  0  0
  -27.2360  -18.6790   19.0830 C   0  0  0  0  0  2  0  0  0  0  0  0
  -28.5870  -18.0230   19.4100 C   0  0  0  0  0  2  0  0  0  0  0  0
  -29.7420  -18.4940   18.5050 C   0  0  0  0  0  2  0  0  0  0  0  0
  -31.1120  -18.1840   19.1190 C   0  0  0  0  0  2  0  0  0  0  0  0
  -32.2760  -18.2430   18.1090 C   0  0  0  0  0  2  0  0  0  0  0  0
  -33.6700  -18.1100   18.7570 C   0  0  0  0  0  2  0  0  0  0  0  0
  -33.6480  -15.8880   19.8650 C   0  0  0  0  0  0  0  0  0  0  0  0
  -33.6290  -17.2240   19.9150 N   0  0  0  0  0  0  0  0  0  0  0  0
  -34.0260  -15.2640   18.8710 O   0  0  0  0  0  0  0  0  0  0  0  0
  -33.3880  -17.6520   20.7990 H   0  0  0  0  0  0  0  0  0  0  0  0
  -33.1410  -15.1620   21.1160 C   0  0  0  0  0  2  0  0  0  0  0  0
  -32.7360  -13.6880   20.8880 C   0  0  0  0  0  2  0  0  0  0  0  0
  -31.0890  -13.1920   19.0770 C   0  0  0  0  0  0  0  0  0  0  0  0
  -30.1920  -11.2250   17.9060 C   0  0  0  0  0  2  0  0  0  0  0  0
  -29.0070  -11.4700   16.9620 C   0  0  0  0  0  2  0  0  0  0  0  0
  -27.6830  -11.4180   17.7420 C   0  0  0  0  0  2  0  0  0  0  0  0
  -27.7020  -12.3310   18.9920 C   0  0  0  0  0  3  0  0  0  0  0  0
  -28.9650  -12.0890   19.8450 C   0  0  0  0  0  2  0  0  0  0  0  0
  -30.1560  -12.2180   18.9870 N   0  0  0  0  0  0  0  0  0  0  0  0
  -31.8050  -13.5440   18.1360 O   0  0  0  0  0  0  0  0  0  0  0  0
  -31.3850  -13.4810   20.3530 N   0  0  0  0  0  0  0  0  0  0  0  0
  -30.7070  -13.1370   21.0180 H   0  0  0  0  0  0  0  0  0  0  0  0
  -25.6300  -13.1400   20.2890 C   0  0  0  0  0  0  0  0  0  0  0  0
  -24.5990  -12.4610   20.8810 C   0  0  0  0  0  0  0  0  0  0  0  0
  -24.8780  -11.0740   20.6890 C   0  0  0  0  0  0  0  0  0  0  0  0
  -26.4810  -12.1710   19.7790 N   0  0  0  0  0  0  0  0  0  0  0  0
  -26.0430  -10.9200   20.0730 N   0  0  0  0  0  0  0  0  0  0  0  0
  -24.0760   -9.8840   21.0050 C   0  0  0  0  0  0  0  0  0  0  0  0
  -24.5560   -8.8780   21.8720 C   0  0  0  0  0  3  0  0  0  0  0  0
  -23.7580   -7.7530   22.1740 C   0  0  0  0  0  3  0  0  0  0  0  0
  -22.4660   -7.6270   21.6110 C   0  0  0  0  0  0  0  0  0  0  0  0
  -22.0030   -8.6200   20.7300 C   0  0  0  0  0  3  0  0  0  0  0  0
  -22.7990   -9.7360   20.4260 C   0  0  0  0  0  3  0  0  0  0  0  0
  -21.6320   -6.5570   21.8280 O   0  0  0  0  0  0  0  0  0  0  0  0
  -21.6550   -5.8530   23.0050 C   0  0  0  0  0  0  0  0  0  0  0  0
  -21.3990   -6.4720   24.2480 C   0  0  0  0  0  3  0  0  0  0  0  0
  -21.3650   -5.6970   25.4250 C   0  0  0  0  0  3  0  0  0  0  0  0
  -21.5760   -4.3060   25.3600 C   0  0  0  0  0  0  0  0  0  0  0  0
  -21.8260   -3.6890   24.1230 C   0  0  0  0  0  3  0  0  0  0  0  0
  -21.8620   -4.4600   22.9480 C   0  0  0  0  0  0  0  0  0  0  0  0
  -22.0830   -3.8570   21.7550 F   0  0  0  0  0  0  0  0  0  0  0  0
  -21.5350   -3.5620   26.4900 F   0  0  0  0  0  0  0  0  0  0  0  0
  -23.3740  -13.0630   21.5090 C   0  0  0  0  0  0  0  0  0  0  0  0
  -22.8160  -12.4020   22.5170 N   0  0  0  0  0  0  0  0  0  0  0  0
  -22.9360  -14.1520   21.1390 O   0  0  0  0  0  0  0  0  0  0  0  0
  -23.1880  -11.5180   22.8310 H   0  0  0  0  0  0  0  0  0  0  0  0
  -22.0030  -12.7840   22.9810 H   0  0  0  0  0  0  0  0  0  0  0  0
  -25.9090  -14.4930   20.1210 N   0  0  0  0  0  0  0  0  0  0  0  0
  -25.2840  -15.2220   20.4470 H   0  0  0  0  0  0  0  0  0  0  0  0
  -26.7260  -14.8440   19.6420 H   0  0  0  0  0  0  0  0  0  0  0  0
  1 54  1  0
  2  1  1  0
  3  1  1  0
  4  1  1  0
  5  4  1  0
  5  7  1  0
  6  8  2  0
  6 10  1  0
  7  6  1  0
  9  7  1  0
 10 11  1  0
 12 11  1  0
 12 13  1  0
 14 25  2  0
 15 13  1  0
 15 20  1  0
 16 24  1  0
 16 26  1  0
 17 19  1  0
 18 24  1  0
 19 20  2  0
 19 18  1  0
 21 15  2  0
 22 21  1  0
 22 17  2  0
 23 17  1  0
 23 16  1  0
 24 14  1  0
 26 28  2  0
 27 26  1  0
 29 27  1  0
 30 39  2  0
 30 35  1  0
 31 27  1  0
 31 35  1  0
 32 31  1  0
 33 34  1  0
 33 32  1  0
 34 30  1  0
 35 36  2  0
 36 37  1  0
 38 37  2  0
 39 38  1  0
 40 14  1  0
 40 45  1  0
 40 41  1  0
 41 44  1  1
 41 42  1  0
 43 41  1  0
 45 48  1  0
 46 50  1  0
 46 45  1  0
 47 46  2  0
 50 49  1  0
 52 53  1  0
 52 50  1  0
 52 51  1  0
 54 55  1  0
 56 57  1  0
 56 55  1  0
 58 59  1  0
 58 57  1  0
 59 61  1  0
 60 61  1  0
 60 64  1  0
 61 63  1  0
 62 60  2  0
 65 64  1  0
 66 74  1  0
 67 72  1  0
 68 69  1  0
 68 67  1  0
 70 69  1  0
 70 79  1  0
 70 71  1  0
 72 66  1  0
 72 71  1  0
 73 66  2  0
 74 65  1  0
 74 75  1  0
 76 77  2  0
 77 96  1  0
 78 77  1  0
 78 81  1  0
 79 80  1  0
 79 76  1  0
 80 78  2  0
 81 82  1  0
 82 83  2  0
 84 87  1  0
 84 83  1  0
 85 84  2  0
 86 85  1  0
 86 81  2  0
 87 88  1  0
 88 89  1  0
 89 90  2  0
 91 90  1  0
 91 95  1  0
 92 91  2  0
 93 88  2  0
 93 92  1  0
 94 93  1  0
 96 97  1  0
 97 99  1  0
 97100  1  0
 98 96  2  0
101 76  1  0
101102  1  0
103101  1  0
M  ISO  4  12 101  13 101  66 100  74 100
M  END
>  <TORSDO>  (77) 
F 31

>  <SCORE>  (77) 
-4.707

>  <name>  (77) 
79

>  <ligand_id>  (77) 
79

>  <original_smiles>  (77) 
[H]c1c([H])c([H])c2c(c1[H])C([H])([H])C([H])([H])C([H])([H])C2([H])N([H])C(=O)C1([H])N(C(=O)C([H])(N([H])C(=O)C([H])(N([H])C([H])([H])[H])C([H])([H])[H])C(C([H])([H])[H])(C([H])([H])[H])C([H])([H])[H])C([H])([H])c2c([H])c(OC([H])([H])C([H])([H])C([H])([H])C(=O)N([H])C([H])([H])C([H])([H])[N+]([H])([H])C([H])([H])C([H])([H])C([H])([H])C([H])([H])C([H])([H])C([H])([H])N([H])C(=O)C([H])([H])C([H])([H])N([H])C(=O)N3C([H])([H])C([H])([H])C([H])([H])C([H])(n4nc(-c5c([H])c([H])c(Oc6c([H])c([H])c(F)c([H])c6F)c([H])c5[H])c(C(=O)N([H])[H])c4N([H])[H])C3([H])[H])c([H])c([H])c2C1([H])[H]

>  <smiles>  (77) 
[H]c1c([H])c([H])c2c(c1[H])C([H])([H])C([H])([H])C([H])([H])C2([H])N([H])C(=O)C1([H])N(C(=O)C([H])(N([H])C(=O)C([H])(N([H])C([H])([H])[H])C([H])([H])[H])C(C([H])([H])[H])(C([H])([H])[H])C([H])([H])[H])C([H])([H])c2c([H])c(OC([H])([H])C([H])([H])C([H])([H])C(=O)N([H])C([H])([H])C([H])([H])[N+]([H])([H])C([H])([H])C([H])([H])C([H])([H])C([H])([H])C([H])([H])C([H])([H])N([H])C(=O)C([H])([H])C([H])([H])N([H])C(=O)N3C([H])([H])C([H])([H])C([H])([H])C([H])(n4nc(-c5c([H])c([H])c(Oc6c([H])c([H])c(F)c([H])c6F)c([H])c5[H])c(C(=O)N([H])[H])c4N([H])[H])C3([H])[H])c([H])c([H])c2C1([H])[H]

$$$$
80:0:0
     RDKit          3D

 97104  0  0  1  0  0  0  0  0999 V2000
  -27.5650  -22.3670   19.6250 C   0  0  0  0  0  0  0  0  0  0  0  0
  -27.0700  -22.2060   18.3930 N   0  0  0  0  0  0  0  0  0  0  0  0
  -26.8990  -22.1660   20.6440 O   0  0  0  0  0  0  0  0  0  0  0  0
  -27.6830  -22.4350   17.6200 H   0  0  0  0  0  0  0  0  0  0  0  0
  -29.9550  -21.7100   20.3090 C   0  0  0  0  0  1  0  0  0  0  0  0
  -29.0300  -22.8050   19.7420 C   0  0  0  0  0  3  0  0  0  0  0  0
  -29.9970  -25.0040   20.4150 C   0  0  0  0  0  0  0  0  0  0  0  0
  -29.0990  -24.0220   20.5450 N   0  0  0  0  0  0  0  0  0  0  0  0
  -30.9610  -24.9260   19.6510 O   0  0  0  0  0  0  0  0  0  0  0  0
  -28.3340  -24.1530   21.1940 H   0  0  0  0  0  0  0  0  0  0  0  0
  -29.7710  -26.2750   21.2450 C   0  0  0  0  0  2  0  0  0  0  0  0
  -29.5790  -27.3900   20.3740 O   0  0  0  0  0  0  0  0  0  0  0  0
  -24.9530  -31.7730   23.5110 C   0  0  0  0  0  0  0  0  0  0  0  0
  -28.3140  -27.9190   20.3720 C   0  0  0  0  0  0  0  0  0  0  0  0
  -24.0210  -30.3100   21.7460 C   0  0  0  0  0  3  0  0  0  0  0  0
  -25.7340  -29.0510   20.3340 C   0  0  0  0  0  0  0  0  0  0  0  0
  -26.4750  -31.0200   21.6910 C   0  0  0  0  0  2  0  0  0  0  0  0
  -26.7780  -29.7060   21.0000 C   0  0  0  0  0  0  0  0  0  0  0  0
  -28.0730  -29.1510   21.0120 C   0  0  0  0  0  3  0  0  0  0  0  0
  -27.2580  -27.2590   19.7090 C   0  0  0  0  0  3  0  0  0  0  0  0
  -25.9670  -27.8240   19.6870 C   0  0  0  0  0  3  0  0  0  0  0  0
  -24.3840  -29.7290   20.3510 C   0  0  0  0  0  2  0  0  0  0  0  0
  -25.1620  -31.0480   22.3770 N   0  0  0  0  0  0  0  0  0  0  0  0
  -23.8240  -31.8730   24.0090 O   0  0  0  0  0  0  0  0  0  0  0  0
  -23.4720  -29.1630   22.6240 C   0  0  0  0  0  0  0  0  0  0  0  0
  -22.2480  -28.7080   22.3130 N   0  0  0  0  0  0  0  0  0  0  0  0
  -24.1440  -28.6880   23.5440 O   0  0  0  0  0  0  0  0  0  0  0  0
  -21.7620  -29.1560   21.5470 H   0  0  0  0  0  0  0  0  0  0  0  0
  -19.1910  -26.7830   22.2940 C   0  0  0  0  0  0  0  0  0  0  0  0
  -21.5430  -27.6100   22.9750 C   0  0  0  0  0  3  0  0  0  0  0  0
  -22.0570  -26.2390   22.4790 C   0  0  0  0  0  2  0  0  0  0  0  0
  -21.2430  -25.6760   21.3100 C   0  0  0  0  0  2  0  0  0  0  0  0
  -19.7760  -25.5070   21.7130 C   0  0  0  0  0  2  0  0  0  0  0  0
  -20.0220  -27.7770   22.8730 C   0  0  0  0  0  0  0  0  0  0  0  0
  -19.4330  -28.9590   23.3700 C   0  0  0  0  0  3  0  0  0  0  0  0
  -18.0420  -29.1560   23.2970 C   0  0  0  0  0  3  0  0  0  0  0  0
  -17.2200  -28.1610   22.7370 C   0  0  0  0  0  3  0  0  0  0  0  0
  -17.7950  -26.9750   22.2420 C   0  0  0  0  0  3  0  0  0  0  0  0
  -26.1140  -32.5310   24.2260 C   0  0  0  0  0  3  0  0  0  0  0  0
  -26.5770  -31.8420   25.5690 C   0  0  1  0  0  0  0  0  0  0  0  0
  -25.4030  -31.4120   26.4820 C   0  0  0  0  0  1  0  0  0  0  0  0
  -27.4280  -30.5840   25.2660 C   0  0  0  0  0  1  0  0  0  0  0  0
  -27.4810  -32.8070   26.3710 C   0  0  0  0  0  1  0  0  0  0  0  0
  -25.6620  -33.9050   24.4750 N   0  0  0  0  0  0  0  0  0  0  0  0
  -25.9750  -34.9570   23.7070 C   0  0  0  0  0  0  0  0  0  0  0  0
  -26.7430  -34.8810   22.7450 O   0  0  0  0  0  0  0  0  0  0  0  0
  -24.9810  -34.0310   25.2100 H   0  0  0  0  0  0  0  0  0  0  0  0
  -24.1430  -36.5770   23.1240 C   0  0  0  0  0  1  0  0  0  0  0  0
  -25.3300  -36.3100   24.0630 C   0  0  0  0  0  3  0  0  0  0  0  0
  -27.2920  -37.4050   25.0540 C   0  0  0  0  0  1  0  0  0  0  0  0
  -26.2780  -37.4450   24.0030 N   0  0  0  0  0  0  0  0  0  0  0  0
  -25.7850  -38.3300   24.0730 H   0  0  0  0  0  0  0  0  0  0  0  0
  -25.7710  -21.6250   18.0650 C   0  0  0  0  0  2  0  0  0  0  0  0
  -25.8940  -20.1000   17.8560 C   0  0  0  0  0  2  0  0  0  0  0  0
  -27.2500  -19.6690   17.2380 C   0  0  0  0  0  2  0  0  0  0  0  0
  -27.7550  -18.2390   17.5600 C   0  0  0  0  0  2  0  0  0  0  0  0
  -28.3600  -18.1130   18.9780 C   0  0  0  0  0  2  0  0  0  0  0  0
  -29.2520  -16.8840   19.2730 C   0  0  0  0  0  2  0  0  0  0  0  0
  -29.4440  -16.6630   20.7970 C   0  0  0  0  0  2  0  0  0  0  0  0
  -31.1480  -14.7760   20.5770 C   0  0  0  0  0  0  0  0  0  0  0  0
  -30.8250  -12.5570   19.5130 C   0  0  0  0  0  2  0  0  0  0  0  0
  -29.9740  -12.6640   18.2280 C   0  0  0  0  0  2  0  0  0  0  0  0
  -28.4710  -12.8980   18.5000 C   0  0  0  0  0  2  0  0  0  0  0  0
  -28.1280  -12.9640   19.9990 C   0  0  0  0  0  3  0  0  0  0  0  0
  -29.1200  -13.4310   21.0610 C   0  0  0  0  0  2  0  0  0  0  0  0
  -30.4320  -13.6340   20.4460 N   0  0  0  0  0  0  0  0  0  0  0  0
  -32.2880  -14.9040   20.1380 O   0  0  0  0  0  0  0  0  0  0  0  0
  -30.5740  -15.8050   21.2330 N   0  0  0  0  0  0  0  0  0  0  0  0
  -31.2720  -16.3540   21.7160 H   0  0  0  0  0  0  0  0  0  0  0  0
  -25.7320  -13.9920   20.5330 C   0  0  0  0  0  0  0  0  0  0  0  0
  -24.5940  -13.2930   20.8410 C   0  0  0  0  0  0  0  0  0  0  0  0
  -24.9640  -11.9180   20.8020 C   0  0  0  0  0  0  0  0  0  0  0  0
  -26.7200  -13.0170   20.3480 N   0  0  0  0  0  0  0  0  0  0  0  0
  -26.2290  -11.7880   20.5350 N   0  0  0  0  0  0  0  0  0  0  0  0
  -24.2120  -10.6850   20.9320 C   0  0  0  0  0  0  0  0  0  0  0  0
  -24.6180   -9.6830   21.8400 C   0  0  0  0  0  3  0  0  0  0  0  0
  -23.8780   -8.4890   21.9480 C   0  0  0  0  0  3  0  0  0  0  0  0
  -22.7320   -8.2960   21.1410 C   0  0  0  0  0  0  0  0  0  0  0  0
  -22.3630   -9.2830   20.2100 C   0  0  0  0  0  3  0  0  0  0  0  0
  -23.0990  -10.4690   20.1020 C   0  0  0  0  0  3  0  0  0  0  0  0
  -21.9610   -7.1610   21.1610 O   0  0  0  0  0  0  0  0  0  0  0  0
  -21.7120   -6.4870   22.3260 C   0  0  0  0  0  0  0  0  0  0  0  0
  -21.0530   -7.1000   23.4130 C   0  0  0  0  0  3  0  0  0  0  0  0
  -20.7550   -6.3510   24.5690 C   0  0  0  0  0  3  0  0  0  0  0  0
  -21.1100   -4.9910   24.6370 C   0  0  0  0  0  0  0  0  0  0  0  0
  -21.7630   -4.3780   23.5540 C   0  0  0  0  0  3  0  0  0  0  0  0
  -22.0590   -5.1230   22.3990 C   0  0  0  0  0  0  0  0  0  0  0  0
  -22.6670   -4.5220   21.3480 F   0  0  0  0  0  0  0  0  0  0  0  0
  -20.8170   -4.2720   25.7470 F   0  0  0  0  0  0  0  0  0  0  0  0
  -23.2110  -13.8220   21.0810 C   0  0  0  0  0  0  0  0  0  0  0  0
  -22.4330  -13.1310   21.9100 N   0  0  0  0  0  0  0  0  0  0  0  0
  -22.8260  -14.8740   20.5680 O   0  0  0  0  0  0  0  0  0  0  0  0
  -22.7540  -12.2810   22.3520 H   0  0  0  0  0  0  0  0  0  0  0  0
  -21.4950  -13.4510   22.1020 H   0  0  0  0  0  0  0  0  0  0  0  0
  -25.9650  -15.3580   20.4200 N   0  0  0  0  0  0  0  0  0  0  0  0
  -25.2040  -16.0240   20.5120 H   0  0  0  0  0  0  0  0  0  0  0  0
  -26.8200  -15.7750   20.0790 H   0  0  0  0  0  0  0  0  0  0  0  0
  1  6  1  0
  1  3  2  0
  2  1  1  0
  4  2  1  0
  6  5  1  0
  6  8  1  0
  7  8  1  0
  7 11  1  0
  8 10  1  0
  9  7  2  0
 12 11  1  0
 13 24  2  0
 14 12  1  0
 14 19  1  0
 15 23  1  0
 15 25  1  0
 16 22  1  0
 16 18  1  0
 17 23  1  0
 18 19  2  0
 18 17  1  0
 20 14  2  0
 21 20  1  0
 21 16  2  0
 22 15  1  0
 23 13  1  0
 25 27  2  0
 26 25  1  0
 28 26  1  0
 29 34  1  0
 30 26  1  0
 31 30  1  0
 32 33  1  0
 32 31  1  0
 33 29  1  0
 34 30  1  0
 34 35  2  0
 36 35  1  0
 37 36  2  0
 38 29  2  0
 38 37  1  0
 39 13  1  0
 39 44  1  0
 39 40  1  0
 40 43  1  1
 40 41  1  0
 42 40  1  0
 44 47  1  0
 45 49  1  0
 45 44  1  0
 46 45  2  0
 49 48  1  0
 51 49  1  0
 51 52  1  0
 51 50  1  0
 53  2  1  0
 54 53  1  0
 55 56  1  0
 55 54  1  0
 56 57  1  0
 57 58  1  0
 58 59  1  0
 59 68  1  0
 60 68  1  0
 61 66  1  0
 62 63  1  0
 62 61  1  0
 64 63  1  0
 64 73  1  0
 64 65  1  0
 66 60  1  0
 66 65  1  0
 67 60  2  0
 68 69  1  0
 70 71  2  0
 71 90  1  0
 72 71  1  0
 72 75  1  0
 73 70  1  0
 73 74  1  0
 74 72  2  0
 75 76  1  0
 76 77  2  0
 78 81  1  0
 78 77  1  0
 79 78  2  0
 80 79  1  0
 80 75  2  0
 81 82  1  0
 82 87  2  0
 82 83  1  0
 83 84  2  0
 84 85  1  0
 85 89  1  0
 86 85  2  0
 87 86  1  0
 88 87  1  0
 90 91  1  0
 91 94  1  0
 91 93  1  0
 92 90  2  0
 95 96  1  0
 95 70  1  0
 97 95  1  0
M  ISO  4  11 101  12 101  60 100  68 100
M  END
>  <TORSDO>  (78) 
F 26

>  <SCORE>  (78) 
-10.429

>  <name>  (78) 
80

>  <ligand_id>  (78) 
80

>  <original_smiles>  (78) 
[H]c1c([H])c([H])c2c(c1[H])C([H])([H])C([H])([H])C([H])([H])C2([H])N([H])C(=O)C1([H])N(C(=O)C([H])(N([H])C(=O)C([H])(N([H])C([H])([H])[H])C([H])([H])[H])C(C([H])([H])[H])(C([H])([H])[H])C([H])([H])[H])C([H])([H])c2c([H])c(OC([H])([H])C(=O)N([H])C([H])(C(=O)N([H])C([H])([H])C([H])([H])C([H])([H])C([H])([H])C([H])([H])C([H])([H])C([H])([H])N([H])C(=O)N3C([H])([H])C([H])([H])C([H])([H])C([H])(n4nc(-c5c([H])c([H])c(Oc6c([H])c([H])c(F)c([H])c6F)c([H])c5[H])c(C(=O)N([H])[H])c4N([H])[H])C3([H])[H])C([H])([H])[H])c([H])c([H])c2C1([H])[H]

>  <smiles>  (78) 
[H]c1c([H])c([H])c2c(c1[H])C([H])([H])C([H])([H])C([H])([H])C2([H])N([H])C(=O)C1([H])N(C(=O)C([H])(N([H])C(=O)C([H])(N([H])C([H])([H])[H])C([H])([H])[H])C(C([H])([H])[H])(C([H])([H])[H])C([H])([H])[H])C([H])([H])c2c([H])c(OC([H])([H])C(=O)N([H])C([H])(C(=O)N([H])C([H])([H])C([H])([H])C([H])([H])C([H])([H])C([H])([H])C([H])([H])C([H])([H])N([H])C(=O)N3C([H])([H])C([H])([H])C([H])([H])C([H])(n4nc(-c5c([H])c([H])c(Oc6c([H])c([H])c(F)c([H])c6F)c([H])c5[H])c(C(=O)N([H])[H])c4N([H])[H])C3([H])[H])C([H])([H])[H])c([H])c([H])c2C1([H])[H]

$$$$
81:0:0
     RDKit          3D

109116  0  0  1  0  0  0  0  0999 V2000
  -28.9370  -21.5960   22.5920 C   0  0  0  0  0  2  0  0  0  0  0  0
  -30.0830  -22.1520   23.4590 C   0  0  0  0  0  2  0  0  0  0  0  0
  -31.4770  -21.6520   23.0310 C   0  0  0  0  0  2  0  0  0  0  0  0
  -31.6640  -22.6240   20.7470 C   0  0  0  0  0  0  0  0  0  0  0  0
  -31.5690  -21.5800   21.5760 N   0  0  0  0  0  0  0  0  0  0  0  0
  -31.8930  -23.7730   21.1310 O   0  0  0  0  0  0  0  0  0  0  0  0
  -31.4300  -20.6690   21.1620 H   0  0  0  0  0  0  0  0  0  0  0  0
  -31.4310  -22.3370   19.2640 C   0  0  0  0  0  2  0  0  0  0  0  0
  -31.2740  -23.5780   18.4740 N   0  0  0  0  0  4  0  0  0  0  0  0
  -31.2250  -23.3280   17.4990 H   0  0  0  0  0  0  0  0  0  0  0  0
  -32.1080  -24.1250   18.6190 H   0  0  0  0  0  0  0  0  0  0  0  0
  -30.0910  -24.4050   18.8120 C   0  0  0  0  0  2  0  0  0  0  0  0
  -30.1870  -25.8110   18.1940 C   0  0  0  0  0  2  0  0  0  0  0  0
  -29.2450  -26.8340   18.8390 C   0  0  0  0  0  2  0  0  0  0  0  0
  -27.8890  -26.6100   18.4540 O   0  0  0  0  0  0  0  0  0  0  0  0
  -25.4040  -30.7270   23.7410 C   0  0  0  0  0  0  0  0  0  0  0  0
  -26.9400  -27.4900   18.9310 C   0  0  0  0  0  0  0  0  0  0  0  0
  -23.8730  -30.3790   21.8230 C   0  0  0  0  0  3  0  0  0  0  0  0
  -24.9110  -29.2770   19.7690 C   0  0  0  0  0  0  0  0  0  0  0  0
  -26.4040  -30.2870   21.5070 C   0  0  0  0  0  2  0  0  0  0  0  0
  -26.1630  -29.2960   20.3920 C   0  0  0  0  0  0  0  0  0  0  0  0
  -27.1750  -28.4070   19.9850 C   0  0  0  0  0  3  0  0  0  0  0  0
  -25.6690  -27.4750   18.3180 C   0  0  0  0  0  3  0  0  0  0  0  0
  -24.6520  -28.3610   18.7320 C   0  0  0  0  0  3  0  0  0  0  0  0
  -23.8920  -30.2740   20.2730 C   0  0  0  0  0  2  0  0  0  0  0  0
  -25.2490  -30.4490   22.4150 N   0  0  0  0  0  0  0  0  0  0  0  0
  -24.4280  -30.9720   24.4610 O   0  0  0  0  0  0  0  0  0  0  0  0
  -23.0250  -29.2150   22.3830 C   0  0  0  0  0  0  0  0  0  0  0  0
  -21.6930  -29.3590   22.3080 N   0  0  0  0  0  0  0  0  0  0  0  0
  -23.5630  -28.2030   22.8410 O   0  0  0  0  0  0  0  0  0  0  0  0
  -21.3310  -30.2190   21.9210 H   0  0  0  0  0  0  0  0  0  0  0  0
  -18.1460  -28.7330   22.5310 C   0  0  0  0  0  0  0  0  0  0  0  0
  -20.6990  -28.3770   22.7330 C   0  0  0  0  0  3  0  0  0  0  0  0
  -20.5270  -27.2660   21.6710 C   0  0  0  0  0  2  0  0  0  0  0  0
  -19.4020  -27.5560   20.6740 C   0  0  0  0  0  2  0  0  0  0  0  0
  -18.0640  -27.7170   21.4030 C   0  0  0  0  0  2  0  0  0  0  0  0
  -19.3860  -29.0540   23.1430 C   0  0  0  0  0  0  0  0  0  0  0  0
  -19.4150  -30.0320   24.1620 C   0  0  0  0  0  3  0  0  0  0  0  0
  -18.2330  -30.6790   24.5720 C   0  0  0  0  0  3  0  0  0  0  0  0
  -17.0070  -30.3440   23.9740 C   0  0  0  0  0  3  0  0  0  0  0  0
  -16.9630  -29.3720   22.9590 C   0  0  0  0  0  3  0  0  0  0  0  0
  -26.8160  -30.7740   24.4090 C   0  0  0  0  0  3  0  0  0  0  0  0
  -27.2180  -29.4180   25.1070 C   0  0  1  0  0  0  0  0  0  0  0  0
  -26.1360  -28.8710   26.0670 C   0  0  0  0  0  1  0  0  0  0  0  0
  -27.5120  -28.3310   24.0470 C   0  0  0  0  0  1  0  0  0  0  0  0
  -28.5230  -29.6120   25.9160 C   0  0  0  0  0  1  0  0  0  0  0  0
  -26.8100  -31.8770   25.3780 N   0  0  0  0  0  0  0  0  0  0  0  0
  -27.3780  -33.0720   25.1710 C   0  0  0  0  0  0  0  0  0  0  0  0
  -28.0290  -33.3380   24.1570 O   0  0  0  0  0  0  0  0  0  0  0  0
  -26.2570  -31.7470   26.2120 H   0  0  0  0  0  0  0  0  0  0  0  0
  -26.1090  -35.1400   25.8160 C   0  0  0  0  0  1  0  0  0  0  0  0
  -27.1890  -34.1430   26.2610 C   0  0  0  0  0  3  0  0  0  0  0  0
  -29.4230  -34.0380   27.2730 C   0  0  0  0  0  1  0  0  0  0  0  0
  -28.4340  -34.8710   26.5940 N   0  0  0  0  0  0  0  0  0  0  0  0
  -28.2350  -35.6710   27.1870 H   0  0  0  0  0  0  0  0  0  0  0  0
  -28.0490  -22.6980   21.9840 C   0  0  0  0  0  2  0  0  0  0  0  0
  -27.0340  -22.1890   20.9380 C   0  0  0  0  0  2  0  0  0  0  0  0
  -27.6800  -21.7250   19.6270 C   0  0  0  0  0  0  0  0  0  0  0  0
  -27.4560  -20.4560   19.2660 N   0  0  0  0  0  0  0  0  0  0  0  0
  -28.3930  -22.4900   18.9780 O   0  0  0  0  0  0  0  0  0  0  0  0
  -26.8360  -19.9090   19.8480 H   0  0  0  0  0  0  0  0  0  0  0  0
  -28.1160  -19.7560   18.1690 C   0  0  0  0  0  2  0  0  0  0  0  0
  -29.5290  -19.2920   18.5710 C   0  0  0  0  0  2  0  0  0  0  0  0
  -29.5270  -18.1320   19.5820 C   0  0  0  0  0  2  0  0  0  0  0  0
  -30.9160  -17.4830   19.7470 C   0  0  0  0  0  2  0  0  0  0  0  0
  -31.0650  -16.5770   20.9930 C   0  0  0  0  0  3  0  0  0  0  0  0
  -31.0080  -14.3110   19.9430 C   0  0  0  0  0  0  0  0  0  0  0  0
  -30.6890  -12.0400   19.0400 C   0  0  0  0  0  2  0  0  0  0  0  0
  -29.7250  -12.0570   17.8380 C   0  0  0  0  0  2  0  0  0  0  0  0
  -28.2610  -11.9600   18.3080 C   0  0  0  0  0  2  0  0  0  0  0  0
  -27.9280  -12.9740   19.4350 C   0  0  0  0  0  3  0  0  0  0  0  0
  -28.9950  -12.9170   20.5490 C   0  0  0  0  0  2  0  0  0  0  0  0
  -30.3190  -13.1430   19.9380 N   0  0  0  0  0  0  0  0  0  0  0  0
  -32.0200  -14.5100   19.2640 O   0  0  0  0  0  0  0  0  0  0  0  0
  -30.5150  -15.2490   20.7530 N   0  0  0  0  0  0  0  0  0  0  0  0
  -29.7200  -15.0100   21.3270 H   0  0  0  0  0  0  0  0  0  0  0  0
  -25.5830  -13.6820   20.2300 C   0  0  0  0  0  0  0  0  0  0  0  0
  -24.5000  -12.9540   20.6470 C   0  0  0  0  0  0  0  0  0  0  0  0
  -24.9040  -11.5850   20.6020 C   0  0  0  0  0  0  0  0  0  0  0  0
  -26.5830  -12.7590   19.9640 N   0  0  0  0  0  0  0  0  0  0  0  0
  -26.1780  -11.4920   20.2400 N   0  0  0  0  0  0  0  0  0  0  0  0
  -24.1380  -10.3520   20.8280 C   0  0  0  0  0  0  0  0  0  0  0  0
  -24.5910   -9.3520   21.7150 C   0  0  0  0  0  3  0  0  0  0  0  0
  -23.8270   -8.1850   21.9290 C   0  0  0  0  0  3  0  0  0  0  0  0
  -22.5950   -8.0100   21.2550 C   0  0  0  0  0  0  0  0  0  0  0  0
  -22.1590   -8.9980   20.3570 C   0  0  0  0  0  3  0  0  0  0  0  0
  -22.9230  -10.1570   20.1410 C   0  0  0  0  0  3  0  0  0  0  0  0
  -21.7990   -6.8980   21.3820 O   0  0  0  0  0  0  0  0  0  0  0  0
  -21.7370   -6.1840   22.5520 C   0  0  0  0  0  0  0  0  0  0  0  0
  -21.4420   -6.8030   23.7860 C   0  0  0  0  0  3  0  0  0  0  0  0
  -21.3190   -6.0230   24.9530 C   0  0  0  0  0  3  0  0  0  0  0  0
  -21.4830   -4.6260   24.8880 C   0  0  0  0  0  0  0  0  0  0  0  0
  -21.7720   -4.0090   23.6590 C   0  0  0  0  0  3  0  0  0  0  0  0
  -21.8950   -4.7850   22.4940 C   0  0  0  0  0  0  0  0  0  0  0  0
  -22.1530   -4.1830   21.3080 F   0  0  0  0  0  0  0  0  0  0  0  0
  -21.3580   -3.8750   26.0070 F   0  0  0  0  0  0  0  0  0  0  0  0
  -23.1350  -13.4870   20.9770 C   0  0  0  0  0  0  0  0  0  0  0  0
  -22.4340  -12.8440   21.9040 N   0  0  0  0  0  0  0  0  0  0  0  0
  -22.7030  -14.5100   20.4460 O   0  0  0  0  0  0  0  0  0  0  0  0
  -22.7970  -12.0180   22.3540 H   0  0  0  0  0  0  0  0  0  0  0  0
  -21.5200  -13.1850   22.1670 H   0  0  0  0  0  0  0  0  0  0  0  0
  -25.7950  -15.0440   20.0400 N   0  0  0  0  0  0  0  0  0  0  0  0
  -25.0580  -15.7290   20.1710 H   0  0  0  0  0  0  0  0  0  0  0  0
  -26.6520  -15.4430   19.6810 H   0  0  0  0  0  0  0  0  0  0  0  0
  -30.4620  -17.1370   22.2860 C   0  0  0  0  0  0  0  0  0  0  0  0
  -31.0620  -18.1790   22.8430 N   0  0  0  0  0  0  0  0  0  0  0  0
  -29.4540  -16.6340   22.7840 O   0  0  0  0  0  0  0  0  0  0  0  0
  -31.8960  -18.5700   22.4280 H   0  0  0  0  0  0  0  0  0  0  0  0
  -30.7040  -18.5740   23.7000 H   0  0  0  0  0  0  0  0  0  0  0  0
  1  2  1  0
  3  2  1  0
  4  6  2  0
  4  5  1  0
  5  3  1  0
  7  5  1  0
  8  4  1  0
  9 11  1  0
  9 12  1  0
  9  8  1  0
 10  9  1  0
 13 12  1  0
 13 14  1  0
 15 14  1  0
 15 17  1  0
 16 27  2  0
 17 22  1  0
 18 28  1  0
 18 26  1  0
 19 25  1  0
 19 21  1  0
 20 26  1  0
 21 20  1  0
 22 21  2  0
 23 24  1  0
 23 17  2  0
 24 19  2  0
 25 18  1  0
 26 16  1  0
 28 30  2  0
 29 28  1  0
 31 29  1  0
 32 41  2  0
 32 37  1  0
 33 29  1  0
 33 37  1  0
 34 33  1  0
 35 36  1  0
 35 34  1  0
 36 32  1  0
 37 38  2  0
 38 39  1  0
 40 39  2  0
 41 40  1  0
 42 16  1  0
 42 43  1  0
 42 47  1  0
 43 46  1  1
 43 44  1  0
 45 43  1  0
 47 50  1  0
 48 47  1  0
 48 52  1  0
 49 48  2  0
 52 51  1  0
 52 54  1  0
 54 55  1  0
 54 53  1  0
 56  1  1  0
 57 56  1  0
 58 57  1  0
 59 58  1  0
 59 61  1  0
 60 58  2  0
 62 63  1  0
 62 59  1  0
 63 64  1  0
 64 65  1  0
 66 65  1  0
 66105  1  0
 67 75  1  0
 68 73  1  0
 69 70  1  0
 69 68  1  0
 71 70  1  0
 71 80  1  0
 71 72  1  0
 73 67  1  0
 73 72  1  0
 74 67  2  0
 75 66  1  0
 75 76  1  0
 77 78  2  0
 78 97  1  0
 79 78  1  0
 79 82  1  0
 80 77  1  0
 80 81  1  0
 81 79  2  0
 82 83  1  0
 83 84  2  0
 85 88  1  0
 85 84  1  0
 86 85  2  0
 87 86  1  0
 87 82  2  0
 88 89  1  0
 89 90  1  0
 90 91  2  0
 92 91  1  0
 92 96  1  0
 93 92  2  0
 94 89  2  0
 94 93  1  0
 95 94  1  0
 97 98  1  0
 98101  1  0
 98100  1  0
 99 97  2  0
102103  1  0
102 77  1  0
104102  1  0
105107  2  0
105106  1  0
106109  1  0
108106  1  0
M  ISO  4  14 101  15 101  67 100  75 100
M  END
>  <TORSDO>  (79) 
F 33

>  <SCORE>  (79) 
-7.508

>  <name>  (79) 
81

>  <ligand_id>  (79) 
81

>  <original_smiles>  (79) 
[H]c1c([H])c([H])c2c(c1[H])C([H])([H])C([H])([H])C([H])([H])C2([H])N([H])C(=O)C1([H])N(C(=O)C([H])(N([H])C(=O)C([H])(N([H])C([H])([H])[H])C([H])([H])[H])C(C([H])([H])[H])(C([H])([H])[H])C([H])([H])[H])C([H])([H])c2c([H])c(OC([H])([H])C([H])([H])C([H])([H])[N+]([H])([H])C([H])([H])C(=O)N([H])C([H])([H])C([H])([H])C([H])([H])C([H])([H])C([H])([H])C(=O)N([H])C([H])([H])C([H])([H])C([H])([H])C([H])([H])C([H])(C(=O)N([H])[H])N([H])C(=O)N3C([H])([H])C([H])([H])C([H])([H])C([H])(n4nc(-c5c([H])c([H])c(Oc6c([H])c([H])c(F)c([H])c6F)c([H])c5[H])c(C(=O)N([H])[H])c4N([H])[H])C3([H])[H])c([H])c([H])c2C1([H])[H]

>  <smiles>  (79) 
[H]c1c([H])c([H])c2c(c1[H])C([H])([H])C([H])([H])C([H])([H])C2([H])N([H])C(=O)C1([H])N(C(=O)C([H])(N([H])C(=O)C([H])(N([H])C([H])([H])[H])C([H])([H])[H])C(C([H])([H])[H])(C([H])([H])[H])C([H])([H])[H])C([H])([H])c2c([H])c(OC([H])([H])C([H])([H])C([H])([H])[N+]([H])([H])C([H])([H])C(=O)N([H])C([H])([H])C([H])([H])C([H])([H])C([H])([H])C([H])([H])C(=O)N([H])C([H])([H])C([H])([H])C([H])([H])C([H])([H])C([H])(C(=O)N([H])[H])N([H])C(=O)N3C([H])([H])C([H])([H])C([H])([H])C([H])(n4nc(-c5c([H])c([H])c(Oc6c([H])c([H])c(F)c([H])c6F)c([H])c5[H])c(C(=O)N([H])[H])c4N([H])[H])C3([H])[H])c([H])c([H])c2C1([H])[H]

$$$$
83:0:0
     RDKit          3D

102108  0  0  1  0  0  0  0  0999 V2000
  -22.3620  -23.9780   26.6720 C   0  0  0  0  0  3  0  0  0  0  0  0
  -21.2960  -24.8020   26.7670 C   0  0  0  0  0  3  0  0  0  0  0  0
  -23.6790  -24.2790   27.2770 C   0  0  0  0  0  0  0  0  0  0  0  0
  -23.8280  -25.0770   28.2130 O   0  0  0  0  0  0  0  0  0  0  0  0
  -24.9020  -23.5090   26.6860 C   0  0  0  0  0  0  0  0  0  0  0  0
  -25.9180  -23.3960   27.5560 N   0  0  0  0  0  0  0  0  0  0  0  0
  -24.9160  -23.0270   25.5490 O   0  0  0  0  0  0  0  0  0  0  0  0
  -25.7740  -23.8530   28.4480 H   0  0  0  0  0  0  0  0  0  0  0  0
  -27.1060  -22.5550   27.3920 C   0  0  0  0  0  2  0  0  0  0  0  0
  -28.2970  -23.2920   26.7460 C   0  0  0  0  0  2  0  0  0  0  0  0
  -29.4070  -22.3160   26.2990 C   0  0  0  0  0  2  0  0  0  0  0  0
  -30.3460  -22.8880   25.2220 C   0  0  0  0  0  2  0  0  0  0  0  0
  -31.2240  -21.8080   24.5510 C   0  0  0  0  0  2  0  0  0  0  0  0
  -31.9880  -22.3420   23.3230 C   0  0  0  0  0  2  0  0  0  0  0  0
  -33.2130  -21.5020   22.9090 C   0  0  0  0  0  2  0  0  0  0  0  0
  -33.6540  -20.0120   20.9510 C   0  0  0  0  0  0  0  0  0  0  0  0
  -33.8900  -18.4160   19.0810 C   0  0  0  0  0  2  0  0  0  0  0  0
  -33.1060  -18.8860   17.8420 C   0  0  0  0  0  2  0  0  0  0  0  0
  -31.6400  -18.4190   17.9130 C   0  0  0  0  0  2  0  0  0  0  0  0
  -30.9790  -18.7400   19.2800 C   0  0  0  0  0  3  0  0  0  0  0  0
  -31.8820  -18.2860   20.4470 C   0  0  0  0  0  2  0  0  0  0  0  0
  -33.2030  -18.9200   20.2810 N   0  0  0  0  0  0  0  0  0  0  0  0
  -34.7010  -20.5970   20.6560 O   0  0  0  0  0  0  0  0  0  0  0  0
  -32.8890  -20.4170   21.9790 N   0  0  0  0  0  0  0  0  0  0  0  0
  -32.0520  -19.8830   22.1580 H   0  0  0  0  0  0  0  0  0  0  0  0
  -28.4040  -18.7670   19.2580 C   0  0  0  0  0  0  0  0  0  0  0  0
  -27.4790  -17.7630   19.3590 C   0  0  0  0  0  0  0  0  0  0  0  0
  -28.2230  -16.5560   19.5320 C   0  0  0  0  0  0  0  0  0  0  0  0
  -29.6440  -18.1550   19.3760 N   0  0  0  0  0  0  0  0  0  0  0  0
  -29.5220  -16.8210   19.5930 N   0  0  0  0  0  0  0  0  0  0  0  0
  -27.7790  -15.1570   19.5830 C   0  0  0  0  0  0  0  0  0  0  0  0
  -28.1480  -14.3040   20.6470 C   0  0  0  0  0  3  0  0  0  0  0  0
  -27.6930  -12.9680   20.6820 C   0  0  0  0  0  3  0  0  0  0  0  0
  -26.8590  -12.4740   19.6530 C   0  0  0  0  0  0  0  0  0  0  0  0
  -26.5130  -13.3210   18.5850 C   0  0  0  0  0  3  0  0  0  0  0  0
  -26.9700  -14.6480   18.5470 C   0  0  0  0  0  3  0  0  0  0  0  0
  -26.3910  -11.1830   19.5920 O   0  0  0  0  0  0  0  0  0  0  0  0
  -26.1050  -10.4670   20.7260 C   0  0  0  0  0  0  0  0  0  0  0  0
  -25.2250  -10.9580   21.7150 C   0  0  0  0  0  3  0  0  0  0  0  0
  -24.9050  -10.1590   22.8300 C   0  0  0  0  0  3  0  0  0  0  0  0
  -25.4540   -8.8690   22.9550 C   0  0  0  0  0  0  0  0  0  0  0  0
  -26.3270   -8.3770   21.9680 C   0  0  0  0  0  3  0  0  0  0  0  0
  -26.6480   -9.1730   20.8550 C   0  0  0  0  0  0  0  0  0  0  0  0
  -27.4730   -8.6870   19.8970 F   0  0  0  0  0  0  0  0  0  0  0  0
  -25.1420   -8.0980   24.0230 F   0  0  0  0  0  0  0  0  0  0  0  0
  -25.9910  -17.8990   19.2110 C   0  0  0  0  0  0  0  0  0  0  0  0
  -25.2270  -17.0460   19.8850 N   0  0  0  0  0  0  0  0  0  0  0  0
  -25.4960  -18.7960   18.5310 O   0  0  0  0  0  0  0  0  0  0  0  0
  -25.6350  -16.3230   20.4590 H   0  0  0  0  0  0  0  0  0  0  0  0
  -24.2210  -17.1180   19.8270 H   0  0  0  0  0  0  0  0  0  0  0  0
  -28.2990  -20.1390   19.0590 N   0  0  0  0  0  0  0  0  0  0  0  0
  -27.4060  -20.6010   18.9210 H   0  0  0  0  0  0  0  0  0  0  0  0
  -29.0880  -20.7690   18.9740 H   0  0  0  0  0  0  0  0  0  0  0  0
  -19.9420  -24.5090   26.1240 C   0  0  0  0  0  2  0  0  0  0  0  0
  -19.6290  -25.3480   24.8590 C   0  0  0  0  0  2  0  0  0  0  0  0
  -20.8150  -25.4140   23.8770 C   0  0  0  0  0  2  0  0  0  0  0  0
  -20.5210  -25.4790   22.2980 C   0  0  0  0  0  3  0  0  0  0  0  0
  -22.1040  -26.0060   20.0250 C   0  0  0  0  0  2  0  0  0  0  0  0
  -23.8990  -25.7320   19.7890 C   0  0  0  0  0  2  0  0  0  0  0  0
  -25.4120  -25.2520   20.6100 C   0  0  0  0  0  2  0  0  0  0  0  0
  -26.5780  -25.9260   21.7370 C   0  0  0  0  0  2  0  0  0  0  0  0
  -28.1910  -26.0280   21.8140 O   0  0  0  0  0  0  0  0  0  0  0  0
  -25.3950  -31.3960   23.5660 C   0  0  0  0  0  0  0  0  0  0  0  0
  -28.7380  -27.0880   21.1790 C   0  0  0  0  0  3  0  0  0  0  0  0
  -24.8000  -29.9670   21.6860 C   0  0  0  0  0  3  0  0  0  0  0  0
  -26.6830  -28.7320   20.4750 C   0  0  0  0  0  0  0  0  0  0  0  0
  -27.2450  -30.4600   22.1820 C   0  0  0  0  0  2  0  0  0  0  0  0
  -27.5570  -29.1550   21.4840 C   0  0  0  0  0  0  0  0  0  0  0  0
  -28.6420  -28.3340   21.8430 C   0  0  0  0  0  2  0  0  0  0  0  0
  -28.1950  -26.9200   19.9160 C   0  0  0  0  0  3  0  0  0  0  0  0
  -27.0460  -27.6700   19.6300 C   0  0  0  0  0  3  0  0  0  0  0  0
  -25.4000  -29.5080   20.3320 C   0  0  0  0  0  2  0  0  0  0  0  0
  -25.8160  -30.6430   22.5180 N   0  0  0  0  0  0  0  0  0  0  0  0
  -24.1900  -31.5730   23.7970 O   0  0  0  0  0  0  0  0  0  0  0  0
  -24.1300  -28.8550   22.5250 C   0  0  0  0  0  0  0  0  0  0  0  0
  -22.8290  -28.8200   22.4950 N   0  0  0  0  0  0  0  0  0  0  0  0
  -24.7390  -28.1170   23.2920 O   0  0  0  0  0  0  0  0  0  0  0  0
  -22.3520  -29.5060   21.9280 H   0  0  0  0  0  0  0  0  0  0  0  0
  -19.1340  -28.0220   21.9810 C   0  0  0  0  0  0  0  0  0  0  0  0
  -21.9890  -27.7760   23.0590 C   0  0  0  0  0  2  0  0  0  0  0  0
  -22.2900  -25.9200   22.2850 C   0  0  0  0  0  1  0  0  0  0  0  0
  -20.7120  -25.2170   21.1390 C   0  0  0  0  0  2  0  0  0  0  0  0
  -19.1140  -26.4200   21.0610 C   0  0  0  0  0  1  0  0  0  0  0  0
  -20.3750  -28.6020   22.8280 C   0  0  0  0  0  0  0  0  0  0  0  0
  -20.1470  -29.6870   23.6910 C   0  0  0  0  0  3  0  0  0  0  0  0
  -18.8600  -30.2050   23.8890 C   0  0  0  0  0  3  0  0  0  0  0  0
  -17.7440  -29.6300   23.2550 C   0  0  0  0  0  3  0  0  0  0  0  0
  -17.8770  -28.5640   22.3400 C   0  0  0  0  0  3  0  0  0  0  0  0
  -26.4200  -32.0890   24.5000 C   0  0  0  0  0  3  0  0  0  0  0  0
  -25.9260  -33.4500   24.7240 N   0  0  0  0  0  0  0  0  0  0  0  0
  -26.3340  -34.5220   24.0340 C   0  0  0  0  0  0  0  0  0  0  0  0
  -27.2340  -34.4750   23.1920 O   0  0  0  0  0  0  0  0  0  0  0  0
  -25.1450  -33.5500   25.3560 H   0  0  0  0  0  0  0  0  0  0  0  0
  -24.6020  -36.1610   23.2310 C   0  0  0  0  0  1  0  0  0  0  0  0
  -25.6320  -35.8600   24.3310 C   0  0  0  0  0  3  0  0  0  0  0  0
  -27.4260  -36.9020   25.6430 C   0  0  0  0  0  1  0  0  0  0  0  0
  -26.5730  -36.9930   24.4610 N   0  0  0  0  0  0  0  0  0  0  0  0
  -26.0710  -37.8770   24.4980 H   0  0  0  0  0  0  0  0  0  0  0  0
  -26.6200  -31.3250   25.8620 C   0  0  1  0  0  0  0  0  0  0  0  0
  -25.2970  -30.9730   26.5820 C   0  0  0  0  0  1  0  0  0  0  0  0
  -27.4060  -30.0090   25.6500 C   0  0  0  0  0  1  0  0  0  0  0  0
  -27.4700  -32.1940   26.8120 C   0  0  0  0  0  1  0  0  0  0  0  0
  1  2  2  0
  1  3  1  0
  3  4  2  0
  5  3  1  0
  5  6  1  0
  6  8  1  0
  7  5  2  0
  9  6  1  0
 10  9  1  0
 11 10  1  0
 12 11  1  0
 13 12  1  0
 14 13  1  0
 15 14  1  0
 16 24  1  0
 17 22  1  0
 18 19  1  0
 18 17  1  0
 20 19  1  0
 20 29  1  0
 20 21  1  0
 22 21  1  0
 22 16  1  0
 23 16  2  0
 24 25  1  0
 24 15  1  0
 26 27  2  0
 26 29  1  0
 27 28  1  0
 28 31  1  0
 28 30  2  0
 29 30  1  0
 31 32  1  0
 32 33  2  0
 34 33  1  0
 35 34  2  0
 36 35  1  0
 36 31  2  0
 37 34  1  0
 37 38  1  0
 38 43  2  0
 38 39  1  0
 39 40  2  0
 40 41  1  0
 41 45  1  0
 42 41  2  0
 43 42  1  0
 44 43  1  0
 46 27  1  0
 46 47  1  0
 47 49  1  0
 48 46  2  0
 50 47  1  0
 51 26  1  0
 52 51  1  0
 53 51  1  0
 54  2  1  0
 55 54  1  0
 56 55  1  0
 57 81  1  0
 57 56  1  0
 58 82  1  0
 59 58  1  0
 59 60  1  0
 60 61  1  0
 61 62  1  0
 63 74  2  0
 64 62  1  0
 64 69  1  0
 65 73  1  0
 65 75  1  0
 66 68  2  0
 67 73  1  0
 68 69  1  0
 68 67  1  0
 70 64  1  0
 71 70  2  0
 71 66  1  0
 72 66  1  0
 72 65  1  0
 73 63  1  0
 75 77  2  0
 76 75  1  0
 76 80  1  0
 78 76  1  0
 79 88  2  0
 79 84  1  0
 82 57  1  0
 83 79  1  0
 84 80  1  0
 84 85  2  0
 85 86  1  0
 87 86  2  0
 88 87  1  0
 89 63  1  0
 89 90  1  0
 89 99  1  0
 90 93  1  0
 91 95  1  0
 91 90  1  0
 92 91  2  0
 95 94  1  0
 95 97  1  0
 97 98  1  0
 97 96  1  0
 99100  1  1
 99102  1  0
101 99  1  0
M  ISO  4  16 100  24 100  61 101  62 101
M  END
>  <TORSDO>  (80) 
F 33

>  <SCORE>  (80) 
55.140

>  <name>  (80) 
83

>  <ligand_id>  (80) 
83

>  <original_smiles>  (80) 
[H]C(C(=O)C(=O)N([H])C([H])([H])C([H])([H])C([H])([H])C([H])([H])C([H])([H])C([H])([H])C([H])([H])N([H])C(=O)N1C([H])([H])C([H])([H])C([H])([H])C([H])(n2nc(-c3c([H])c([H])c(Oc4c([H])c([H])c(F)c([H])c4F)c([H])c3[H])c(C(=O)N([H])[H])c2N([H])[H])C1([H])[H])=C([H])C([H])([H])C([H])([H])C([H])([H])C([H])([H])C([H])([H])C([H])([H])C([H])([H])C([H])([H])Oc1c([H])c([H])c2c(c1[H])C([H])([H])N(C(=O)C([H])(N([H])C(=O)C([H])(N([H])C([H])([H])[H])C([H])([H])[H])C(C([H])([H])[H])(C([H])([H])[H])C([H])([H])[H])C([H])(C(=O)N([H])C1([H])c3c([H])c([H])c([H])c([H])c3C([H])([H])C([H])([H])C1([H])[H])C2([H])[H]

>  <smiles>  (80) 
[H]C(C(=O)C(=O)N([H])C([H])([H])C([H])([H])C([H])([H])C([H])([H])C([H])([H])C([H])([H])C([H])([H])N([H])C(=O)N1C([H])([H])C([H])([H])C([H])([H])C([H])(n2nc(-c3c([H])c([H])c(Oc4c([H])c([H])c(F)c([H])c4F)c([H])c3[H])c(C(=O)N([H])[H])c2N([H])[H])C1([H])[H])=C([H])C([H])([H])C([H])([H])C([H])([H])C([H])([H])C([H])([H])C([H])([H])C([H])([H])C([H])([H])Oc1c([H])c([H])c2c(c1[H])C([H])([H])N(C(=O)C([H])(N([H])C(=O)C([H])(N([H])C([H])([H])[H])C([H])([H])[H])C(C([H])([H])[H])(C([H])([H])[H])C([H])([H])[H])C([H])(C(=O)N([H])C1([H])c3c([H])c([H])c([H])c([H])c3C([H])([H])C([H])([H])C1([H])[H])C2([H])[H]

$$$$
84:0:0
     RDKit          3D

 95102  0  0  1  0  0  0  0  0999 V2000
  -25.9770  -22.9130   20.1600 C   0  0  0  0  0  2  0  0  0  0  0  0
  -26.6410  -23.6180   21.3470 C   0  0  0  0  0  0  0  0  0  0  0  0
  -27.5550  -24.5500   21.0690 N   0  0  0  0  0  0  0  0  0  0  0  0
  -26.3150  -23.3310   22.5000 O   0  0  0  0  0  0  0  0  0  0  0  0
  -27.7820  -24.7160   20.0970 H   0  0  0  0  0  0  0  0  0  0  0  0
  -28.1650  -25.4520   22.0410 C   0  0  0  0  0  2  0  0  0  0  0  0
  -29.0320  -26.5130   21.3360 C   0  0  0  0  0  2  0  0  0  0  0  0
  -28.4510  -26.9190   20.0960 O   0  0  0  0  0  0  0  0  0  0  0  0
  -24.5770  -31.9310   23.3910 C   0  0  0  0  0  0  0  0  0  0  0  0
  -27.2980  -27.6590   20.1760 C   0  0  0  0  0  0  0  0  0  0  0  0
  -23.4040  -30.5970   21.6690 C   0  0  0  0  0  3  0  0  0  0  0  0
  -24.8910  -29.1230   20.2140 C   0  0  0  0  0  0  0  0  0  0  0  0
  -25.9270  -30.9760   21.5330 C   0  0  0  0  0  2  0  0  0  0  0  0
  -26.0300  -29.6310   20.8500 C   0  0  0  0  0  0  0  0  0  0  0  0
  -27.2380  -28.9020   20.8410 C   0  0  0  0  0  3  0  0  0  0  0  0
  -26.1480  -27.1590   19.5330 C   0  0  0  0  0  3  0  0  0  0  0  0
  -24.9400  -27.8790   19.5590 C   0  0  0  0  0  3  0  0  0  0  0  0
  -23.6420  -29.9720   20.2680 C   0  0  0  0  0  2  0  0  0  0  0  0
  -24.6530  -31.1800   22.2570 N   0  0  0  0  0  0  0  0  0  0  0  0
  -23.4850  -32.1800   23.9230 O   0  0  0  0  0  0  0  0  0  0  0  0
  -22.7380  -29.5340   22.5710 C   0  0  0  0  0  0  0  0  0  0  0  0
  -21.4150  -29.3640   22.4150 N   0  0  0  0  0  0  0  0  0  0  0  0
  -23.4080  -28.8700   23.3660 O   0  0  0  0  0  0  0  0  0  0  0  0
  -20.9360  -29.9530   21.7490 H   0  0  0  0  0  0  0  0  0  0  0  0
  -18.0270  -28.1820   22.8190 C   0  0  0  0  0  0  0  0  0  0  0  0
  -20.5830  -28.3970   23.1300 C   0  0  0  0  0  3  0  0  0  0  0  0
  -20.6780  -26.9960   22.4830 C   0  0  0  0  0  2  0  0  0  0  0  0
  -19.5840  -26.7380   21.4430 C   0  0  0  0  0  2  0  0  0  0  0  0
  -18.1980  -26.8660   22.0800 C   0  0  0  0  0  2  0  0  0  0  0  0
  -19.1490  -28.9080   23.2980 C   0  0  0  0  0  0  0  0  0  0  0  0
  -18.9380  -30.1450   23.9470 C   0  0  0  0  0  3  0  0  0  0  0  0
  -17.6370  -30.6510   24.1260 C   0  0  0  0  0  3  0  0  0  0  0  0
  -16.5290  -29.9190   23.6650 C   0  0  0  0  0  3  0  0  0  0  0  0
  -16.7250  -28.6880   23.0150 C   0  0  0  0  0  3  0  0  0  0  0  0
  -25.8520  -32.5350   24.0590 C   0  0  0  0  0  3  0  0  0  0  0  0
  -26.3240  -31.7360   25.3360 C   0  0  1  0  0  0  0  0  0  0  0  0
  -25.1960  -31.4920   26.3680 C   0  0  0  0  0  1  0  0  0  0  0  0
  -26.9040  -30.3590   24.9350 C   0  0  0  0  0  1  0  0  0  0  0  0
  -27.4630  -32.5050   26.0460 C   0  0  0  0  0  1  0  0  0  0  0  0
  -25.5540  -33.9330   24.4000 N   0  0  0  0  0  0  0  0  0  0  0  0
  -25.9230  -34.9890   23.6640 C   0  0  0  0  0  0  0  0  0  0  0  0
  -26.6200  -34.8910   22.6500 O   0  0  0  0  0  0  0  0  0  0  0  0
  -24.9400  -34.0850   25.1870 H   0  0  0  0  0  0  0  0  0  0  0  0
  -24.2280  -36.8080   23.2760 C   0  0  0  0  0  1  0  0  0  0  0  0
  -25.4360  -36.3770   24.1230 C   0  0  0  0  0  3  0  0  0  0  0  0
  -27.5500  -37.2240   25.0410 C   0  0  0  0  0  1  0  0  0  0  0  0
  -26.4860  -37.4180   24.0600 N   0  0  0  0  0  0  0  0  0  0  0  0
  -26.0870  -38.3400   24.2070 H   0  0  0  0  0  0  0  0  0  0  0  0
  -27.5310  -21.1100   19.4940 C   0  0  0  0  0  0  0  0  0  0  0  0
  -26.4080  -21.5220   20.0920 N   0  0  0  0  0  0  0  0  0  0  0  0
  -28.2580  -21.8750   18.8590 O   0  0  0  0  0  0  0  0  0  0  0  0
  -25.8640  -20.8490   20.6150 H   0  0  0  0  0  0  0  0  0  0  0  0
  -27.8980  -19.6340   19.6460 C   0  0  0  0  0  2  0  0  0  0  0  0
  -29.4090  -19.4350   19.8660 C   0  0  0  0  0  2  0  0  0  0  0  0
  -29.7470  -18.0640   20.4650 C   0  0  0  0  0  2  0  0  0  0  0  0
  -31.2630  -17.8580   20.6110 C   0  0  0  0  0  2  0  0  0  0  0  0
  -31.6460  -16.6480   21.4800 C   0  0  0  0  0  2  0  0  0  0  0  0
  -31.2690  -14.6490   20.0350 C   0  0  0  0  0  0  0  0  0  0  0  0
  -30.8330  -12.4760   18.9530 C   0  0  0  0  0  2  0  0  0  0  0  0
  -29.8490  -12.5960   17.7760 C   0  0  0  0  0  2  0  0  0  0  0  0
  -28.3940  -12.5060   18.2690 C   0  0  0  0  0  2  0  0  0  0  0  0
  -28.1100  -13.4660   19.4530 C   0  0  0  0  0  3  0  0  0  0  0  0
  -29.1910  -13.3150   20.5460 C   0  0  0  0  0  2  0  0  0  0  0  0
  -30.5180  -13.5240   19.9320 N   0  0  0  0  0  0  0  0  0  0  0  0
  -32.2240  -14.9040   19.2950 O   0  0  0  0  0  0  0  0  0  0  0  0
  -30.9570  -15.4270   21.0760 N   0  0  0  0  0  0  0  0  0  0  0  0
  -30.1950  -15.1120   21.6580 H   0  0  0  0  0  0  0  0  0  0  0  0
  -25.7930  -14.1950   20.3120 C   0  0  0  0  0  0  0  0  0  0  0  0
  -24.6990  -13.4750   20.7120 C   0  0  0  0  0  0  0  0  0  0  0  0
  -25.0700  -12.1000   20.6060 C   0  0  0  0  0  0  0  0  0  0  0  0
  -26.7670  -13.2600   19.9940 N   0  0  0  0  0  0  0  0  0  0  0  0
  -26.3360  -11.9930   20.2240 N   0  0  0  0  0  0  0  0  0  0  0  0
  -24.2780  -10.8780   20.7920 C   0  0  0  0  0  0  0  0  0  0  0  0
  -24.6500   -9.8920   21.7320 C   0  0  0  0  0  3  0  0  0  0  0  0
  -23.8620   -8.7340   21.9060 C   0  0  0  0  0  3  0  0  0  0  0  0
  -22.6880   -8.5530   21.1380 C   0  0  0  0  0  0  0  0  0  0  0  0
  -22.3340   -9.5260   20.1870 C   0  0  0  0  0  3  0  0  0  0  0  0
  -23.1220  -10.6770   20.0120 C   0  0  0  0  0  3  0  0  0  0  0  0
  -21.8750   -7.4480   21.2180 O   0  0  0  0  0  0  0  0  0  0  0  0
  -21.7100   -6.7610   22.3940 C   0  0  0  0  0  0  0  0  0  0  0  0
  -21.2200   -7.3870   23.5600 C   0  0  0  0  0  3  0  0  0  0  0  0
  -20.9990   -6.6290   24.7280 C   0  0  0  0  0  3  0  0  0  0  0  0
  -21.2580   -5.2450   24.7280 C   0  0  0  0  0  0  0  0  0  0  0  0
  -21.7410   -4.6180   23.5650 C   0  0  0  0  0  3  0  0  0  0  0  0
  -21.9630   -5.3740   22.4000 C   0  0  0  0  0  0  0  0  0  0  0  0
  -22.4090   -4.7620   21.2770 F   0  0  0  0  0  0  0  0  0  0  0  0
  -21.0400   -4.5140   25.8440 F   0  0  0  0  0  0  0  0  0  0  0  0
  -23.3520  -14.0260   21.0820 C   0  0  0  0  0  0  0  0  0  0  0  0
  -22.6370  -13.3480   21.9740 N   0  0  0  0  0  0  0  0  0  0  0  0
  -22.9440  -15.0900   20.6170 O   0  0  0  0  0  0  0  0  0  0  0  0
  -22.9790  -12.4860   22.3730 H   0  0  0  0  0  0  0  0  0  0  0  0
  -21.7340  -13.6970   22.2640 H   0  0  0  0  0  0  0  0  0  0  0  0
  -26.0360  -15.5580   20.1760 N   0  0  0  0  0  0  0  0  0  0  0  0
  -25.3240  -16.2580   20.3600 H   0  0  0  0  0  0  0  0  0  0  0  0
  -26.9050  -15.9540   19.8400 H   0  0  0  0  0  0  0  0  0  0  0  0
  1  2  1  0
  2  4  2  0
  3  2  1  0
  3  6  1  0
  5  3  1  0
  7  6  1  0
  8 10  1  0
  8  7  1  0
  9 20  2  0
 10 15  1  0
 11 19  1  0
 11 21  1  0
 12 18  1  0
 12 14  1  0
 13 19  1  0
 14 13  1  0
 15 14  2  0
 16 17  1  0
 16 10  2  0
 17 12  2  0
 18 11  1  0
 19  9  1  0
 21 23  2  0
 22 21  1  0
 24 22  1  0
 25 34  2  0
 25 30  1  0
 26 22  1  0
 26 30  1  0
 27 26  1  0
 28 29  1  0
 28 27  1  0
 29 25  1  0
 30 31  2  0
 31 32  1  0
 33 32  2  0
 34 33  1  0
 35  9  1  0
 35 40  1  0
 35 36  1  0
 36 39  1  1
 36 37  1  0
 38 36  1  0
 40 43  1  0
 41 45  1  0
 41 40  1  0
 42 41  2  0
 45 44  1  0
 47 45  1  0
 47 48  1  0
 47 46  1  0
 49 53  1  0
 49 50  1  0
 50  1  1  0
 50 52  1  0
 51 49  2  0
 53 54  1  0
 54 55  1  0
 55 56  1  0
 56 57  1  0
 58 66  1  0
 59 64  1  0
 60 61  1  0
 60 59  1  0
 62 61  1  0
 62 71  1  0
 62 63  1  0
 64 58  1  0
 64 63  1  0
 65 58  2  0
 66 57  1  0
 66 67  1  0
 68 69  2  0
 69 88  1  0
 70 69  1  0
 70 73  1  0
 71 72  1  0
 71 68  1  0
 72 70  2  0
 73 74  1  0
 74 75  2  0
 76 79  1  0
 76 75  1  0
 77 76  2  0
 78 77  1  0
 78 73  2  0
 79 80  1  0
 80 85  2  0
 80 81  1  0
 81 82  2  0
 83 82  1  0
 83 87  1  0
 84 83  2  0
 85 84  1  0
 86 85  1  0
 88 89  1  0
 89 92  1  0
 89 91  1  0
 90 88  2  0
 93 68  1  0
 93 94  1  0
 95 93  1  0
M  ISO  4   7 101   8 101  58 100  66 100
M  END
>  <TORSDO>  (81) 
F 25

>  <SCORE>  (81) 
-10.942

>  <name>  (81) 
84

>  <ligand_id>  (81) 
84

>  <original_smiles>  (81) 
[H]c1c([H])c([H])c2c(c1[H])C([H])([H])C([H])([H])C([H])([H])C2([H])N([H])C(=O)C1([H])N(C(=O)C([H])(N([H])C(=O)C([H])(N([H])C([H])([H])[H])C([H])([H])[H])C(C([H])([H])[H])(C([H])([H])[H])C([H])([H])[H])C([H])([H])c2c([H])c(OC([H])([H])C([H])([H])N([H])C(=O)C([H])([H])N([H])C(=O)C([H])([H])C([H])([H])C([H])([H])C([H])([H])C([H])([H])N([H])C(=O)N3C([H])([H])C([H])([H])C([H])([H])C([H])(n4nc(-c5c([H])c([H])c(Oc6c([H])c([H])c(F)c([H])c6F)c([H])c5[H])c(C(=O)N([H])[H])c4N([H])[H])C3([H])[H])c([H])c([H])c2C1([H])[H]

>  <smiles>  (81) 
[H]c1c([H])c([H])c2c(c1[H])C([H])([H])C([H])([H])C([H])([H])C2([H])N([H])C(=O)C1([H])N(C(=O)C([H])(N([H])C(=O)C([H])(N([H])C([H])([H])[H])C([H])([H])[H])C(C([H])([H])[H])(C([H])([H])[H])C([H])([H])[H])C([H])([H])c2c([H])c(OC([H])([H])C([H])([H])N([H])C(=O)C([H])([H])N([H])C(=O)C([H])([H])C([H])([H])C([H])([H])C([H])([H])C([H])([H])N([H])C(=O)N3C([H])([H])C([H])([H])C([H])([H])C([H])(n4nc(-c5c([H])c([H])c(Oc6c([H])c([H])c(F)c([H])c6F)c([H])c5[H])c(C(=O)N([H])[H])c4N([H])[H])C3([H])[H])c([H])c([H])c2C1([H])[H]

$$$$
85:0:0
     RDKit          3D

105112  0  0  1  0  0  0  0  0999 V2000
  -25.7570  -21.8250   19.6070 C   0  0  0  0  0  2  0  0  0  0  0  0
  -25.9630  -23.3350   19.4120 C   0  0  0  0  0  2  0  0  0  0  0  0
  -27.8910  -24.0740   20.8150 C   0  0  0  0  0  0  0  0  0  0  0  0
  -26.5770  -23.9480   20.5880 N   0  0  0  0  0  0  0  0  0  0  0  0
  -28.7490  -23.6610   20.0300 O   0  0  0  0  0  0  0  0  0  0  0  0
  -25.9510  -24.3300   21.2850 H   0  0  0  0  0  0  0  0  0  0  0  0
  -28.2960  -24.7690   22.1180 C   0  0  0  0  0  2  0  0  0  0  0  0
  -30.4730  -25.9680   22.0710 C   0  0  0  0  0  0  0  0  0  0  0  0
  -29.1550  -25.9220   21.8570 N   0  0  0  0  0  0  0  0  0  0  0  0
  -31.1060  -25.0140   22.5310 O   0  0  0  0  0  0  0  0  0  0  0  0
  -28.7040  -26.7250   21.4360 H   0  0  0  0  0  0  0  0  0  0  0  0
  -31.1890  -27.2770   21.7190 C   0  0  0  0  0  2  0  0  0  0  0  0
  -30.4750  -27.9160   20.6590 O   0  0  0  0  0  0  0  0  0  0  0  0
  -25.9810  -30.2980   25.6420 C   0  0  0  0  0  0  0  0  0  0  0  0
  -29.2450  -28.4330   20.9800 C   0  0  0  0  0  0  0  0  0  0  0  0
  -25.0030  -29.8790   23.4060 C   0  0  0  0  0  3  0  0  0  0  0  0
  -26.6780  -29.4630   21.5300 C   0  0  0  0  0  0  0  0  0  0  0  0
  -27.4620  -30.5280   23.6540 C   0  0  0  0  0  2  0  0  0  0  0  0
  -27.7360  -29.7100   22.4140 C   0  0  0  0  0  0  0  0  0  0  0  0
  -29.0210  -29.2020   22.1440 C   0  0  0  0  0  3  0  0  0  0  0  0
  -28.1760  -28.2020   20.0900 C   0  0  0  0  0  3  0  0  0  0  0  0
  -26.8910  -28.7080   20.3630 C   0  0  0  0  0  3  0  0  0  0  0  0
  -25.3350  -30.0470   21.8980 C   0  0  0  0  0  2  0  0  0  0  0  0
  -26.1630  -30.2170   24.2930 N   0  0  0  0  0  0  0  0  0  0  0  0
  -24.8600  -30.1410   26.1470 O   0  0  0  0  0  0  0  0  0  0  0  0
  -24.4560  -28.4510   23.6300 C   0  0  0  0  0  0  0  0  0  0  0  0
  -23.3050  -28.1470   23.0080 N   0  0  0  0  0  0  0  0  0  0  0  0
  -25.0740  -27.6380   24.3230 O   0  0  0  0  0  0  0  0  0  0  0  0
  -22.8560  -28.8710   22.4660 H   0  0  0  0  0  0  0  0  0  0  0  0
  -20.5060  -26.3020   21.6690 C   0  0  0  0  0  0  0  0  0  0  0  0
  -22.6260  -26.8540   23.0410 C   0  0  0  0  0  3  0  0  0  0  0  0
  -23.3510  -25.8230   22.1470 C   0  0  0  0  0  2  0  0  0  0  0  0
  -22.7890  -25.7590   20.7230 C   0  0  0  0  0  2  0  0  0  0  0  0
  -21.3020  -25.3950   20.7480 C   0  0  0  0  0  2  0  0  0  0  0  0
  -21.1300  -27.0020   22.7360 C   0  0  0  0  0  0  0  0  0  0  0  0
  -20.3490  -27.8620   23.5410 C   0  0  0  0  0  3  0  0  0  0  0  0
  -18.9740  -28.0250   23.2960 C   0  0  0  0  0  3  0  0  0  0  0  0
  -18.3590  -27.3190   22.2470 C   0  0  0  0  0  3  0  0  0  0  0  0
  -19.1230  -26.4570   21.4400 C   0  0  0  0  0  3  0  0  0  0  0  0
  -27.1640  -30.6160   26.6120 C   0  0  0  0  0  3  0  0  0  0  0  0
  -27.2080  -29.6650   27.8710 C   0  0  1  0  0  0  0  0  0  0  0  0
  -25.8580  -29.5570   28.6160 C   0  0  0  0  0  1  0  0  0  0  0  0
  -27.6370  -28.2370   27.4570 C   0  0  0  0  0  1  0  0  0  0  0  0
  -28.2660  -30.1730   28.8770 C   0  0  0  0  0  1  0  0  0  0  0  0
  -27.0340  -32.0200   27.0240 N   0  0  0  0  0  0  0  0  0  0  0  0
  -27.9010  -32.9880   26.7000 C   0  0  0  0  0  0  0  0  0  0  0  0
  -28.9440  -32.7730   26.0760 O   0  0  0  0  0  0  0  0  0  0  0  0
  -26.1790  -32.2770   27.4960 H   0  0  0  0  0  0  0  0  0  0  0  0
  -27.1260  -35.2470   25.9150 C   0  0  0  0  0  1  0  0  0  0  0  0
  -27.5560  -34.4240   27.1400 C   0  0  0  0  0  3  0  0  0  0  0  0
  -28.9750  -34.5310   29.1410 C   0  0  0  0  0  1  0  0  0  0  0  0
  -28.6660  -35.1100   27.8360 N   0  0  0  0  0  0  0  0  0  0  0  0
  -28.4490  -36.0940   27.9680 H   0  0  0  0  0  0  0  0  0  0  0  0
  -24.7590  -21.2080   18.6090 C   0  0  0  0  0  2  0  0  0  0  0  0
  -25.3210  -19.9500   17.9320 C   0  0  0  0  0  2  0  0  0  0  0  0
  -26.7280  -19.9340   18.1200 O   0  0  0  0  0  0  0  0  0  0  0  0
  -27.2900  -18.6270   18.1790 C   0  0  0  0  0  2  0  0  0  0  0  0
  -28.8100  -18.7700   18.3350 C   0  0  0  0  0  2  0  0  0  0  0  0
  -29.8460  -17.5010   20.2140 C   0  0  0  0  0  0  0  0  0  0  0  0
  -29.1910  -18.5610   19.7310 N   0  0  0  0  0  0  0  0  0  0  0  0
  -30.3830  -16.6660   19.4850 O   0  0  0  0  0  0  0  0  0  0  0  0
  -28.7730  -19.1940   20.4010 H   0  0  0  0  0  0  0  0  0  0  0  0
  -29.8680  -17.3640   21.7430 C   0  0  0  0  0  2  0  0  0  0  0  0
  -31.0600  -16.5800   22.3330 C   0  0  0  0  0  2  0  0  0  0  0  0
  -31.1950  -15.1180   21.8560 C   0  0  0  0  0  2  0  0  0  0  0  0
  -32.6610  -14.6500   21.8780 C   0  0  0  0  0  2  0  0  0  0  0  0
  -32.8450  -13.1220   21.8320 C   0  0  0  0  0  2  0  0  0  0  0  0
  -31.9290  -12.1430   19.7260 C   0  0  0  0  0  0  0  0  0  0  0  0
  -30.7360  -11.2520   17.7580 C   0  0  0  0  0  2  0  0  0  0  0  0
  -29.8600  -12.3430   17.1150 C   0  0  0  0  0  2  0  0  0  0  0  0
  -28.4780  -12.4090   17.7940 C   0  0  0  0  0  2  0  0  0  0  0  0
  -28.5790  -12.4670   19.3400 C   0  0  0  0  0  3  0  0  0  0  0  0
  -29.5310  -11.3720   19.8670 C   0  0  0  0  0  2  0  0  0  0  0  0
  -30.8350  -11.5360   19.1970 N   0  0  0  0  0  0  0  0  0  0  0  0
  -32.9470  -12.4000   19.0770 O   0  0  0  0  0  0  0  0  0  0  0  0
  -31.8260  -12.4550   21.0250 N   0  0  0  0  0  0  0  0  0  0  0  0
  -30.9650  -12.1970   21.4850 H   0  0  0  0  0  0  0  0  0  0  0  0
  -26.3860  -13.3850   20.3310 C   0  0  0  0  0  0  0  0  0  0  0  0
  -25.2660  -12.7600   20.8110 C   0  0  0  0  0  0  0  0  0  0  0  0
  -25.5230  -11.3590   20.7090 C   0  0  0  0  0  0  0  0  0  0  0  0
  -27.2590  -12.3730   19.9640 N   0  0  0  0  0  0  0  0  0  0  0  0
  -26.7490  -11.1470   20.2470 N   0  0  0  0  0  0  0  0  0  0  0  0
  -24.6500  -10.2070   20.9670 C   0  0  0  0  0  0  0  0  0  0  0  0
  -24.9920   -9.2240   21.9220 C   0  0  0  0  0  3  0  0  0  0  0  0
  -24.1280   -8.1340   22.1650 C   0  0  0  0  0  3  0  0  0  0  0  0
  -22.9080   -8.0220   21.4560 C   0  0  0  0  0  0  0  0  0  0  0  0
  -22.5850   -8.9910   20.4890 C   0  0  0  0  0  3  0  0  0  0  0  0
  -23.4480  -10.0720   20.2430 C   0  0  0  0  0  3  0  0  0  0  0  0
  -22.0190   -6.9860   21.6100 O   0  0  0  0  0  0  0  0  0  0  0  0
  -21.7910   -6.4110   22.8340 C   0  0  0  0  0  0  0  0  0  0  0  0
  -21.2950   -7.1550   23.9270 C   0  0  0  0  0  3  0  0  0  0  0  0
  -21.0060   -6.5080   25.1460 C   0  0  0  0  0  3  0  0  0  0  0  0
  -21.2040   -5.1210   25.2730 C   0  0  0  0  0  0  0  0  0  0  0  0
  -21.6940   -4.3780   24.1840 C   0  0  0  0  0  3  0  0  0  0  0  0
  -21.9830   -5.0200   22.9680 C   0  0  0  0  0  0  0  0  0  0  0  0
  -22.4320   -4.2960   21.9150 F   0  0  0  0  0  0  0  0  0  0  0  0
  -20.9230   -4.4980   26.4420 F   0  0  0  0  0  0  0  0  0  0  0  0
  -23.9890  -13.4220   21.2450 C   0  0  0  0  0  0  0  0  0  0  0  0
  -23.2730  -12.8100   22.1840 N   0  0  0  0  0  0  0  0  0  0  0  0
  -23.6430  -14.5110   20.7900 O   0  0  0  0  0  0  0  0  0  0  0  0
  -23.5680  -11.9260   22.5700 H   0  0  0  0  0  0  0  0  0  0  0  0
  -22.4190  -13.2290   22.5190 H   0  0  0  0  0  0  0  0  0  0  0  0
  -26.7210  -14.7210   20.1610 N   0  0  0  0  0  0  0  0  0  0  0  0
  -26.0530  -15.4490   20.3700 H   0  0  0  0  0  0  0  0  0  0  0  0
  -27.5220  -15.0670   19.6420 H   0  0  0  0  0  0  0  0  0  0  0  0
  2  1  1  0
  2  4  1  0
  3  7  1  0
  4  3  1  0
  4  6  1  0
  5  3  2  0
  8 10  2  0
  9  8  1  0
  9  7  1  0
 11  9  1  0
 12  8  1  0
 13 15  1  0
 13 12  1  0
 14 25  2  0
 15 20  1  0
 16 26  1  0
 16 24  1  0
 17 23  1  0
 17 19  1  0
 18 24  1  0
 19 18  1  0
 20 19  2  0
 21 22  1  0
 21 15  2  0
 22 17  2  0
 23 16  1  0
 24 14  1  0
 26 28  2  0
 27 26  1  0
 29 27  1  0
 30 35  1  0
 31 27  1  0
 32 31  1  0
 33 34  1  0
 33 32  1  0
 34 30  1  0
 35 31  1  0
 35 36  2  0
 37 36  1  0
 38 37  2  0
 39 30  2  0
 39 38  1  0
 40 14  1  0
 40 45  1  0
 40 41  1  0
 41 42  1  1
 41 44  1  0
 43 41  1  0
 45 48  1  0
 46 45  1  0
 46 50  1  0
 47 46  2  0
 50 49  1  0
 50 52  1  0
 52 53  1  0
 52 51  1  0
 54  1  1  0
 55 56  1  0
 55 54  1  0
 56 57  1  0
 57 58  1  0
 58 60  1  0
 59 63  1  0
 60 59  1  0
 60 62  1  0
 61 59  2  0
 63 64  1  0
 65 66  1  0
 65 64  1  0
 67 66  1  0
 68 76  1  0
 69 74  1  0
 70 69  1  0
 70 71  1  0
 72 71  1  0
 72 73  1  0
 72 81  1  0
 74 68  1  0
 74 73  1  0
 75 68  2  0
 76 77  1  0
 76 67  1  0
 78 79  2  0
 79 98  1  0
 80 79  1  0
 80 83  1  0
 81 82  1  0
 81 78  1  0
 82 80  2  0
 83 84  1  0
 84 85  2  0
 86 89  1  0
 86 85  1  0
 87 86  2  0
 88 87  1  0
 88 83  2  0
 89 90  1  0
 90 95  2  0
 90 91  1  0
 91 92  2  0
 92 93  1  0
 93 97  1  0
 94 93  2  0
 95 94  1  0
 96 95  1  0
 98 99  1  0
 99102  1  0
 99101  1  0
100 98  2  0
103 78  1  0
103104  1  0
105103  1  0
M  ISO  4  12 101  13 101  68 100  76 100
M  END
>  <TORSDO>  (82) 
F 32

>  <SCORE>  (82) 
-2.914

>  <name>  (82) 
85

>  <ligand_id>  (82) 
85

>  <original_smiles>  (82) 
[H]c1c([H])c([H])c2c(c1[H])C([H])([H])C([H])([H])C([H])([H])C2([H])N([H])C(=O)C1([H])N(C(=O)C([H])(N([H])C(=O)C([H])(N([H])C([H])([H])[H])C([H])([H])[H])C(C([H])([H])[H])(C([H])([H])[H])C([H])([H])[H])C([H])([H])c2c([H])c(OC([H])([H])C(=O)N([H])C([H])([H])C(=O)N([H])C([H])([H])C([H])([H])C([H])([H])C([H])([H])OC([H])([H])C([H])([H])N([H])C(=O)C([H])([H])C([H])([H])C([H])([H])C([H])([H])C([H])([H])N([H])C(=O)N3C([H])([H])C([H])([H])C([H])([H])C([H])(n4nc(-c5c([H])c([H])c(Oc6c([H])c([H])c(F)c([H])c6F)c([H])c5[H])c(C(=O)N([H])[H])c4N([H])[H])C3([H])[H])c([H])c([H])c2C1([H])[H]

>  <smiles>  (82) 
[H]c1c([H])c([H])c2c(c1[H])C([H])([H])C([H])([H])C([H])([H])C2([H])N([H])C(=O)C1([H])N(C(=O)C([H])(N([H])C(=O)C([H])(N([H])C([H])([H])[H])C([H])([H])[H])C(C([H])([H])[H])(C([H])([H])[H])C([H])([H])[H])C([H])([H])c2c([H])c(OC([H])([H])C(=O)N([H])C([H])([H])C(=O)N([H])C([H])([H])C([H])([H])C([H])([H])C([H])([H])OC([H])([H])C([H])([H])N([H])C(=O)C([H])([H])C([H])([H])C([H])([H])C([H])([H])C([H])([H])N([H])C(=O)N3C([H])([H])C([H])([H])C([H])([H])C([H])(n4nc(-c5c([H])c([H])c(Oc6c([H])c([H])c(F)c([H])c6F)c([H])c5[H])c(C(=O)N([H])[H])c4N([H])[H])C3([H])[H])c([H])c([H])c2C1([H])[H]

$$$$
86:0:0
     RDKit          3D

104111  0  0  1  0  0  0  0  0999 V2000
  -29.6240  -23.3340   13.9710 C   0  0  0  0  0  2  0  0  0  0  0  0
  -30.7900  -23.4800   14.8770 N   0  0  0  0  0  4  0  0  0  0  0  0
  -31.6260  -23.2730   14.3530 H   0  0  0  0  0  0  0  0  0  0  0  0
  -30.7120  -22.8010   15.6180 H   0  0  0  0  0  0  0  0  0  0  0  0
  -30.9220  -24.8440   15.4500 C   0  0  0  0  0  2  0  0  0  0  0  0
  -31.9890  -24.9600   16.5670 C   0  0  0  0  0  2  0  0  0  0  0  0
  -31.5380  -24.5020   17.9730 C   0  0  0  0  0  2  0  0  0  0  0  0
  -30.6840  -25.4920   18.6720 N   0  0  0  0  0  4  0  0  0  0  0  0
  -29.9220  -25.7730   18.0750 H   0  0  0  0  0  0  0  0  0  0  0  0
  -31.2190  -26.3250   18.8720 H   0  0  0  0  0  0  0  0  0  0  0  0
  -30.0940  -25.0120   19.9430 C   0  0  0  0  0  2  0  0  0  0  0  0
  -28.6640  -25.5350   20.1160 C   0  0  0  0  0  2  0  0  0  0  0  0
  -28.6770  -26.9630   20.1650 O   0  0  0  0  0  0  0  0  0  0  0  0
  -24.5770  -31.8190   23.3510 C   0  0  0  0  0  0  0  0  0  0  0  0
  -27.4580  -27.6060   20.1700 C   0  0  0  0  0  0  0  0  0  0  0  0
  -23.4630  -30.4420   21.6260 C   0  0  0  0  0  3  0  0  0  0  0  0
  -25.0050  -29.0140   20.1860 C   0  0  0  0  0  0  0  0  0  0  0  0
  -25.9780  -30.9000   21.5060 C   0  0  0  0  0  2  0  0  0  0  0  0
  -26.1280  -29.5590   20.8180 C   0  0  0  0  0  0  0  0  0  0  0  0
  -27.3570  -28.8640   20.8050 C   0  0  0  0  0  3  0  0  0  0  0  0
  -26.3080  -27.0690   19.5410 C   0  0  0  0  0  3  0  0  0  0  0  0
  -25.0880  -27.7680   19.5480 C   0  0  0  0  0  3  0  0  0  0  0  0
  -23.7300  -29.8240   20.2280 C   0  0  0  0  0  2  0  0  0  0  0  0
  -24.6890  -31.0660   22.2200 N   0  0  0  0  0  0  0  0  0  0  0  0
  -23.4740  -32.0310   23.8730 O   0  0  0  0  0  0  0  0  0  0  0  0
  -22.8270  -29.3590   22.5280 C   0  0  0  0  0  0  0  0  0  0  0  0
  -21.5190  -29.1200   22.3430 N   0  0  0  0  0  0  0  0  0  0  0  0
  -23.5100  -28.7380   23.3480 O   0  0  0  0  0  0  0  0  0  0  0  0
  -21.0290  -29.6770   21.6560 H   0  0  0  0  0  0  0  0  0  0  0  0
  -18.2000  -27.7240   22.6300 C   0  0  0  0  0  0  0  0  0  0  0  0
  -20.7190  -28.1220   23.0510 C   0  0  0  0  0  3  0  0  0  0  0  0
  -20.9380  -26.7100   22.4600 C   0  0  0  0  0  2  0  0  0  0  0  0
  -19.9150  -26.3430   21.3790 C   0  0  0  0  0  2  0  0  0  0  0  0
  -18.4930  -26.3980   21.9460 C   0  0  0  0  0  2  0  0  0  0  0  0
  -19.2470  -28.5400   23.1350 C   0  0  0  0  0  0  0  0  0  0  0  0
  -18.9230  -29.7780   23.7300 C   0  0  0  0  0  3  0  0  0  0  0  0
  -17.5840  -30.2030   23.8280 C   0  0  0  0  0  3  0  0  0  0  0  0
  -16.5510  -29.3830   23.3410 C   0  0  0  0  0  3  0  0  0  0  0  0
  -16.8590  -28.1450   22.7480 C   0  0  0  0  0  3  0  0  0  0  0  0
  -25.8250  -32.4700   24.0270 C   0  0  0  0  0  3  0  0  0  0  0  0
  -25.4940  -33.8740   24.3050 N   0  0  0  0  0  0  0  0  0  0  0  0
  -25.8750  -34.9080   23.5430 C   0  0  0  0  0  0  0  0  0  0  0  0
  -26.6130  -34.7800   22.5620 O   0  0  0  0  0  0  0  0  0  0  0  0
  -24.8480  -34.0460   25.0600 H   0  0  0  0  0  0  0  0  0  0  0  0
  -24.1700  -36.6830   23.0320 C   0  0  0  0  0  1  0  0  0  0  0  0
  -25.3560  -36.3050   23.9320 C   0  0  0  0  0  3  0  0  0  0  0  0
  -27.4340  -37.2140   24.8730 C   0  0  0  0  0  1  0  0  0  0  0  0
  -26.3930  -37.3580   23.8610 N   0  0  0  0  0  0  0  0  0  0  0  0
  -25.9760  -38.2800   23.9630 H   0  0  0  0  0  0  0  0  0  0  0  0
  -26.2730  -31.7300   25.3470 C   0  0  1  0  0  0  0  0  0  0  0  0
  -25.1210  -31.5030   26.3560 C   0  0  0  0  0  1  0  0  0  0  0  0
  -26.8880  -30.3490   25.0150 C   0  0  0  0  0  1  0  0  0  0  0  0
  -27.3770  -32.5470   26.0580 C   0  0  0  0  0  1  0  0  0  0  0  0
  -29.5550  -21.9610   13.2670 C   0  0  0  0  0  2  0  0  0  0  0  0
  -29.8330  -20.7350   14.1570 C   0  0  0  0  0  2  0  0  0  0  0  0
  -29.0170  -20.6850   15.4590 C   0  0  0  0  0  2  0  0  0  0  0  0
  -29.3880  -19.4580   16.3160 C   0  0  0  0  0  2  0  0  0  0  0  0
  -30.4050  -20.2660   18.4200 C   0  0  0  0  0  0  0  0  0  0  0  0
  -29.3680  -19.7510   17.7450 N   0  0  0  0  0  0  0  0  0  0  0  0
  -31.4200  -20.6880   17.8570 O   0  0  0  0  0  0  0  0  0  0  0  0
  -28.5640  -19.4410   18.2750 H   0  0  0  0  0  0  0  0  0  0  0  0
  -30.3130  -20.2930   19.9450 C   0  0  0  0  0  2  0  0  0  0  0  0
  -31.2650  -19.2710   20.5970 C   0  0  0  0  0  2  0  0  0  0  0  0
  -30.7210  -17.8310   20.5500 C   0  0  0  0  0  2  0  0  0  0  0  0
  -31.7200  -16.7710   21.0370 C   0  0  0  0  0  2  0  0  0  0  0  0
  -31.1290  -15.3560   20.9180 C   0  0  0  0  0  2  0  0  0  0  0  0
  -32.3940  -13.2740   20.6420 C   0  0  0  0  0  0  0  0  0  0  0  0
  -31.6090  -11.2920   19.4030 C   0  0  0  0  0  2  0  0  0  0  0  0
  -30.7570  -11.7160   18.1900 C   0  0  0  0  0  2  0  0  0  0  0  0
  -29.2810  -11.8960   18.5990 C   0  0  0  0  0  2  0  0  0  0  0  0
  -29.1150  -12.7680   19.8700 C   0  0  0  0  0  3  0  0  0  0  0  0
  -30.0810  -12.3110   20.9880 C   0  0  0  0  0  2  0  0  0  0  0  0
  -31.4470  -12.3160   20.4440 N   0  0  0  0  0  0  0  0  0  0  0  0
  -33.5280  -13.2120   20.1650 O   0  0  0  0  0  0  0  0  0  0  0  0
  -32.0550  -14.3290   21.3980 N   0  0  0  0  0  0  0  0  0  0  0  0
  -32.8690  -14.7460   21.8250 H   0  0  0  0  0  0  0  0  0  0  0  0
  -26.9310  -13.8970   20.6180 C   0  0  0  0  0  0  0  0  0  0  0  0
  -25.7020  -13.3860   20.9380 C   0  0  0  0  0  0  0  0  0  0  0  0
  -25.8230  -11.9690   20.8200 C   0  0  0  0  0  0  0  0  0  0  0  0
  -27.7320  -12.8040   20.3300 N   0  0  0  0  0  0  0  0  0  0  0  0
  -27.0680  -11.6350   20.5070 N   0  0  0  0  0  0  0  0  0  0  0  0
  -24.8110  -10.9110   20.9230 C   0  0  0  0  0  0  0  0  0  0  0  0
  -25.0060   -9.7820   21.7470 C   0  0  0  0  0  3  0  0  0  0  0  0
  -24.0100   -8.7860   21.8410 C   0  0  0  0  0  3  0  0  0  0  0  0
  -22.8060   -8.9170   21.1120 C   0  0  0  0  0  0  0  0  0  0  0  0
  -22.6270  -10.0320   20.2750 C   0  0  0  0  0  3  0  0  0  0  0  0
  -23.6220  -11.0200   20.1770 C   0  0  0  0  0  3  0  0  0  0  0  0
  -21.7920   -7.9890   21.1250 O   0  0  0  0  0  0  0  0  0  0  0  0
  -21.5970   -7.1540   22.1940 C   0  0  0  0  0  0  0  0  0  0  0  0
  -21.3760   -7.6480   23.4980 C   0  0  0  0  0  3  0  0  0  0  0  0
  -21.1150   -6.7550   24.5550 C   0  0  0  0  0  3  0  0  0  0  0  0
  -21.0600   -5.3690   24.3090 C   0  0  0  0  0  0  0  0  0  0  0  0
  -21.2730   -4.8760   23.0100 C   0  0  0  0  0  3  0  0  0  0  0  0
  -21.5380   -5.7660   21.9570 C   0  0  0  0  0  0  0  0  0  0  0  0
  -21.7230   -5.2860   20.7030 F   0  0  0  0  0  0  0  0  0  0  0  0
  -20.7970   -4.5110   25.3220 F   0  0  0  0  0  0  0  0  0  0  0  0
  -24.4590  -14.1710   21.2420 C   0  0  0  0  0  0  0  0  0  0  0  0
  -23.5790  -13.6280   22.0770 N   0  0  0  0  0  0  0  0  0  0  0  0
  -24.2820  -15.2930   20.7720 O   0  0  0  0  0  0  0  0  0  0  0  0
  -23.7320  -12.7150   22.4800 H   0  0  0  0  0  0  0  0  0  0  0  0
  -22.7390  -14.1380   22.3140 H   0  0  0  0  0  0  0  0  0  0  0  0
  -27.4240  -15.1950   20.5290 N   0  0  0  0  0  0  0  0  0  0  0  0
  -26.8360  -16.0080   20.6680 H   0  0  0  0  0  0  0  0  0  0  0  0
  -28.3540  -15.4320   20.2140 H   0  0  0  0  0  0  0  0  0  0  0  0
  1  2  1  0
  2  5  1  0
  2  4  1  0
  3  2  1  0
  5  6  1  0
  6  7  1  0
  7  8  1  0
  8 10  1  0
  8 11  1  0
  9  8  1  0
 11 12  1  0
 12 13  1  0
 13 15  1  0
 14 25  2  0
 15 20  1  0
 16 24  1  0
 16 26  1  0
 17 23  1  0
 17 19  1  0
 18 24  1  0
 19 18  1  0
 20 19  2  0
 21 22  1  0
 21 15  2  0
 22 17  2  0
 23 16  1  0
 24 14  1  0
 26 28  2  0
 27 26  1  0
 29 27  1  0
 30 39  2  0
 30 35  1  0
 31 27  1  0
 31 35  1  0
 32 31  1  0
 33 34  1  0
 33 32  1  0
 34 30  1  0
 35 36  2  0
 36 37  1  0
 38 37  2  0
 39 38  1  0
 40 14  1  0
 40 41  1  0
 40 50  1  0
 41 44  1  0
 42 46  1  0
 42 41  1  0
 43 42  2  0
 46 45  1  0
 48 46  1  0
 48 49  1  0
 48 47  1  0
 50 53  1  1
 50 51  1  0
 52 50  1  0
 54  1  1  0
 54 55  1  0
 55 56  1  0
 56 57  1  0
 57 59  1  0
 58 62  1  0
 59 61  1  0
 59 58  1  0
 60 58  2  0
 62 63  1  0
 64 63  1  0
 64 65  1  0
 66 65  1  0
 66 75  1  0
 67 75  1  0
 68 73  1  0
 69 70  1  0
 69 68  1  0
 71 70  1  0
 71 80  1  0
 71 72  1  0
 73 67  1  0
 73 72  1  0
 74 67  2  0
 75 76  1  0
 77 78  2  0
 78 97  1  0
 79 82  1  0
 79 78  1  0
 80 81  1  0
 80 77  1  0
 81 79  2  0
 82 83  1  0
 83 84  2  0
 85 88  1  0
 85 84  1  0
 86 85  2  0
 87 86  1  0
 87 82  2  0
 88 89  1  0
 89 90  1  0
 90 91  2  0
 92 91  1  0
 92 96  1  0
 93 92  2  0
 94 89  2  0
 94 93  1  0
 95 94  1  0
 97 98  1  0
 98101  1  0
 98100  1  0
 99 97  2  0
102 77  1  0
102103  1  0
104102  1  0
M  ISO  4  12 101  13 101  67 100  75 100
M  END
>  <TORSDO>  (83) 
F 33

>  <SCORE>  (83) 
-8.701

>  <name>  (83) 
86

>  <ligand_id>  (83) 
86

>  <original_smiles>  (83) 
[H]c1c([H])c([H])c2c(c1[H])C([H])([H])C([H])([H])C([H])([H])C2([H])N([H])C(=O)C1([H])N(C(=O)C([H])(N([H])C(=O)C([H])(N([H])C([H])([H])[H])C([H])([H])[H])C(C([H])([H])[H])(C([H])([H])[H])C([H])([H])[H])C([H])([H])c2c([H])c(OC([H])([H])C([H])([H])[N+]([H])([H])C([H])([H])C([H])([H])C([H])([H])[N+]([H])([H])C([H])([H])C([H])([H])C([H])([H])C([H])([H])C([H])([H])N([H])C(=O)C([H])([H])C([H])([H])C([H])([H])C([H])([H])C([H])([H])N([H])C(=O)N3C([H])([H])C([H])([H])C([H])([H])C([H])(n4nc(-c5c([H])c([H])c(Oc6c([H])c([H])c(F)c([H])c6F)c([H])c5[H])c(C(=O)N([H])[H])c4N([H])[H])C3([H])[H])c([H])c([H])c2C1([H])[H]

>  <smiles>  (83) 
[H]c1c([H])c([H])c2c(c1[H])C([H])([H])C([H])([H])C([H])([H])C2([H])N([H])C(=O)C1([H])N(C(=O)C([H])(N([H])C(=O)C([H])(N([H])C([H])([H])[H])C([H])([H])[H])C(C([H])([H])[H])(C([H])([H])[H])C([H])([H])[H])C([H])([H])c2c([H])c(OC([H])([H])C([H])([H])[N+]([H])([H])C([H])([H])C([H])([H])C([H])([H])[N+]([H])([H])C([H])([H])C([H])([H])C([H])([H])C([H])([H])C([H])([H])N([H])C(=O)C([H])([H])C([H])([H])C([H])([H])C([H])([H])C([H])([H])N([H])C(=O)N3C([H])([H])C([H])([H])C([H])([H])C([H])(n4nc(-c5c([H])c([H])c(Oc6c([H])c([H])c(F)c([H])c6F)c([H])c5[H])c(C(=O)N([H])[H])c4N([H])[H])C3([H])[H])c([H])c([H])c2C1([H])[H]

$$$$
88:0:0
     RDKit          3D

 99106  0  0  1  0  0  0  0  0999 V2000
  -28.0210  -22.6930   17.7540 C   0  0  0  0  0  2  0  0  0  0  0  0
  -27.0680  -21.6950   17.0710 C   0  0  0  0  0  2  0  0  0  0  0  0
  -25.9040  -21.2260   17.9670 C   0  0  0  0  0  2  0  0  0  0  0  0
  -26.8580  -19.2670   19.1620 C   0  0  0  0  0  0  0  0  0  0  0  0
  -26.3890  -20.5200   19.1500 N   0  0  0  0  0  0  0  0  0  0  0  0
  -26.8110  -18.5290   18.1770 O   0  0  0  0  0  0  0  0  0  0  0  0
  -26.4390  -21.0480   20.0110 H   0  0  0  0  0  0  0  0  0  0  0  0
  -27.4910  -18.7690   20.4620 C   0  0  0  0  0  2  0  0  0  0  0  0
  -29.0270  -18.6340   20.3490 C   0  0  0  0  0  2  0  0  0  0  0  0
  -29.5910  -17.3720   21.0220 C   0  0  0  0  0  2  0  0  0  0  0  0
  -31.1010  -17.2010   20.7640 C   0  0  0  0  0  2  0  0  0  0  0  0
  -31.7020  -15.9430   21.4180 C   0  0  0  0  0  2  0  0  0  0  0  0
  -31.3700  -13.8560   20.0760 C   0  0  0  0  0  0  0  0  0  0  0  0
  -30.8580  -11.6980   18.9890 C   0  0  0  0  0  2  0  0  0  0  0  0
  -29.8990  -11.8640   17.7960 C   0  0  0  0  0  2  0  0  0  0  0  0
  -28.4310  -11.8650   18.2630 C   0  0  0  0  0  2  0  0  0  0  0  0
  -28.1810  -12.8300   19.4530 C   0  0  0  0  0  3  0  0  0  0  0  0
  -29.2340  -12.6060   20.5580 C   0  0  0  0  0  2  0  0  0  0  0  0
  -30.5760  -12.7610   19.9640 N   0  0  0  0  0  0  0  0  0  0  0  0
  -32.3840  -14.0350   19.3950 O   0  0  0  0  0  0  0  0  0  0  0  0
  -31.0050  -14.7180   21.0330 N   0  0  0  0  0  0  0  0  0  0  0  0
  -30.1820  -14.4690   21.5640 H   0  0  0  0  0  0  0  0  0  0  0  0
  -25.8700  -13.6720   20.2260 C   0  0  0  0  0  0  0  0  0  0  0  0
  -24.7460  -13.0090   20.6380 C   0  0  0  0  0  0  0  0  0  0  0  0
  -25.0750  -11.6190   20.6070 C   0  0  0  0  0  0  0  0  0  0  0  0
  -26.8200  -12.6930   19.9720 N   0  0  0  0  0  0  0  0  0  0  0  0
  -26.3450  -11.4540   20.2610 N   0  0  0  0  0  0  0  0  0  0  0  0
  -24.2400  -10.4330   20.8350 C   0  0  0  0  0  0  0  0  0  0  0  0
  -24.6030   -9.4450   21.7760 C   0  0  0  0  0  3  0  0  0  0  0  0
  -23.7730   -8.3220   21.9900 C   0  0  0  0  0  3  0  0  0  0  0  0
  -22.5650   -8.1830   21.2660 C   0  0  0  0  0  0  0  0  0  0  0  0
  -22.2210   -9.1590   20.3140 C   0  0  0  0  0  3  0  0  0  0  0  0
  -23.0500  -10.2720   20.0980 C   0  0  0  0  0  3  0  0  0  0  0  0
  -21.7080   -7.1160   21.3930 O   0  0  0  0  0  0  0  0  0  0  0  0
  -21.6170   -6.4010   22.5610 C   0  0  0  0  0  0  0  0  0  0  0  0
  -21.2770   -7.0140   23.7870 C   0  0  0  0  0  3  0  0  0  0  0  0
  -21.1240   -6.2290   24.9480 C   0  0  0  0  0  3  0  0  0  0  0  0
  -21.3010   -4.8340   24.8840 C   0  0  0  0  0  0  0  0  0  0  0  0
  -21.6310   -4.2220   23.6630 C   0  0  0  0  0  3  0  0  0  0  0  0
  -21.7870   -5.0030   22.5040 C   0  0  0  0  0  0  0  0  0  0  0  0
  -22.0850   -4.4050   21.3260 F   0  0  0  0  0  0  0  0  0  0  0  0
  -21.1480   -4.0800   25.9970 F   0  0  0  0  0  0  0  0  0  0  0  0
  -23.4080  -13.6180   20.9460 C   0  0  0  0  0  0  0  0  0  0  0  0
  -22.6500  -13.0100   21.8520 N   0  0  0  0  0  0  0  0  0  0  0  0
  -23.0460  -14.6660   20.4140 O   0  0  0  0  0  0  0  0  0  0  0  0
  -22.9530  -12.1610   22.3090 H   0  0  0  0  0  0  0  0  0  0  0  0
  -21.7510  -13.4010   22.0970 H   0  0  0  0  0  0  0  0  0  0  0  0
  -26.1560  -15.0200   20.0210 N   0  0  0  0  0  0  0  0  0  0  0  0
  -25.4520  -15.7400   20.1310 H   0  0  0  0  0  0  0  0  0  0  0  0
  -27.0150  -15.3710   19.6120 H   0  0  0  0  0  0  0  0  0  0  0  0
  -29.4080  -22.7340   17.0800 C   0  0  0  0  0  2  0  0  0  0  0  0
  -30.2660  -23.9720   17.4190 C   0  0  0  0  0  2  0  0  0  0  0  0
  -30.5010  -24.2240   18.9120 C   0  0  0  0  0  0  0  0  0  0  0  0
  -30.6130  -25.5060   19.2760 N   0  0  0  0  0  0  0  0  0  0  0  0
  -30.5670  -23.2900   19.7130 O   0  0  0  0  0  0  0  0  0  0  0  0
  -30.5540  -26.1970   18.5410 H   0  0  0  0  0  0  0  0  0  0  0  0
  -30.5980  -26.0170   20.6440 C   0  0  0  0  0  2  0  0  0  0  0  0
  -29.5500  -27.1320   20.7760 C   0  0  0  0  0  2  0  0  0  0  0  0
  -28.3230  -26.6390   20.2490 O   0  0  0  0  0  0  0  0  0  0  0  0
  -24.5690  -31.9060   23.2930 C   0  0  0  0  0  0  0  0  0  0  0  0
  -27.2010  -27.4320   20.2900 C   0  0  0  0  0  0  0  0  0  0  0  0
  -23.3490  -30.4790   21.6780 C   0  0  0  0  0  3  0  0  0  0  0  0
  -24.7950  -28.9110   20.2800 C   0  0  0  0  0  0  0  0  0  0  0  0
  -25.8690  -30.8380   21.4590 C   0  0  0  0  0  2  0  0  0  0  0  0
  -25.9500  -29.4560   20.8520 C   0  0  0  0  0  0  0  0  0  0  0  0
  -27.1570  -28.7270   20.8580 C   0  0  0  0  0  3  0  0  0  0  0  0
  -26.0280  -26.8930   19.7250 C   0  0  0  0  0  3  0  0  0  0  0  0
  -24.8250  -27.6240   19.7140 C   0  0  0  0  0  3  0  0  0  0  0  0
  -23.5500  -29.7680   20.3110 C   0  0  0  0  0  2  0  0  0  0  0  0
  -24.6130  -31.0890   22.2030 N   0  0  0  0  0  0  0  0  0  0  0  0
  -23.4920  -32.1920   23.8330 O   0  0  0  0  0  0  0  0  0  0  0  0
  -22.6980  -29.4800   22.6600 C   0  0  0  0  0  0  0  0  0  0  0  0
  -21.3740  -29.2940   22.5310 N   0  0  0  0  0  0  0  0  0  0  0  0
  -23.3790  -28.8720   23.4890 O   0  0  0  0  0  0  0  0  0  0  0  0
  -20.8870  -29.8350   21.8300 H   0  0  0  0  0  0  0  0  0  0  0  0
  -18.0030  -28.0970   23.0180 C   0  0  0  0  0  0  0  0  0  0  0  0
  -20.5540  -28.3740   23.3180 C   0  0  0  0  0  3  0  0  0  0  0  0
  -20.6720  -26.9280   22.7830 C   0  0  0  0  0  2  0  0  0  0  0  0
  -19.5840  -26.5710   21.7630 C   0  0  0  0  0  2  0  0  0  0  0  0
  -18.1930  -26.7290   22.3850 C   0  0  0  0  0  2  0  0  0  0  0  0
  -19.1110  -28.8760   23.4410 C   0  0  0  0  0  0  0  0  0  0  0  0
  -18.8810  -30.1550   23.9910 C   0  0  0  0  0  3  0  0  0  0  0  0
  -17.5720  -30.6560   24.1240 C   0  0  0  0  0  3  0  0  0  0  0  0
  -16.4760  -29.8740   23.7180 C   0  0  0  0  0  3  0  0  0  0  0  0
  -16.6920  -28.5970   23.1710 C   0  0  0  0  0  3  0  0  0  0  0  0
  -25.8620  -32.5370   23.8960 C   0  0  0  0  0  3  0  0  0  0  0  0
  -25.5640  -33.9410   24.2090 N   0  0  0  0  0  0  0  0  0  0  0  0
  -25.9010  -34.9800   23.4330 C   0  0  0  0  0  0  0  0  0  0  0  0
  -26.5680  -34.8570   22.4020 O   0  0  0  0  0  0  0  0  0  0  0  0
  -24.9730  -34.1110   25.0090 H   0  0  0  0  0  0  0  0  0  0  0  0
  -24.1770  -36.7720   23.0560 C   0  0  0  0  0  1  0  0  0  0  0  0
  -25.4210  -36.3770   23.8700 C   0  0  0  0  0  3  0  0  0  0  0  0
  -27.5670  -37.2580   24.6720 C   0  0  0  0  0  1  0  0  0  0  0  0
  -26.4560  -37.4240   23.7380 N   0  0  0  0  0  0  0  0  0  0  0  0
  -26.0550  -38.3470   23.8830 H   0  0  0  0  0  0  0  0  0  0  0  0
  -26.3880  -31.7790   25.1760 C   0  0  1  0  0  0  0  0  0  0  0  0
  -25.3040  -31.5590   26.2570 C   0  0  0  0  0  1  0  0  0  0  0  0
  -26.9590  -30.3930   24.7910 C   0  0  0  0  0  1  0  0  0  0  0  0
  -27.5480  -32.5740   25.8180 C   0  0  0  0  0  1  0  0  0  0  0  0
  2  1  1  0
  2  3  1  0
  3  5  1  0
  4  8  1  0
  5  4  1  0
  5  7  1  0
  6  4  2  0
  9  8  1  0
  9 10  1  0
 11 10  1  0
 11 12  1  0
 13 21  1  0
 14 19  1  0
 15 16  1  0
 15 14  1  0
 17 16  1  0
 17 26  1  0
 17 18  1  0
 19 13  1  0
 19 18  1  0
 20 13  2  0
 21 12  1  0
 21 22  1  0
 23 24  2  0
 24 43  1  0
 25 24  1  0
 25 28  1  0
 26 23  1  0
 26 27  1  0
 27 25  2  0
 28 29  1  0
 29 30  2  0
 31 34  1  0
 31 30  1  0
 32 31  2  0
 33 32  1  0
 33 28  2  0
 34 35  1  0
 35 36  1  0
 36 37  2  0
 38 37  1  0
 38 42  1  0
 39 38  2  0
 40 35  2  0
 40 39  1  0
 41 40  1  0
 43 44  1  0
 44 47  1  0
 44 46  1  0
 45 43  2  0
 48 49  1  0
 48 23  1  0
 50 48  1  0
 51 52  1  0
 51  1  1  0
 52 53  1  0
 53 54  1  0
 53 55  2  0
 54 57  1  0
 56 54  1  0
 57 58  1  0
 59 61  1  0
 59 58  1  0
 60 71  2  0
 61 66  1  0
 62 70  1  0
 62 72  1  0
 63 69  1  0
 63 65  1  0
 64 70  1  0
 65 66  2  0
 65 64  1  0
 67 61  2  0
 68 67  1  0
 68 63  2  0
 69 62  1  0
 70 60  1  0
 72 74  2  0
 73 72  1  0
 75 73  1  0
 76 85  2  0
 76 81  1  0
 77 73  1  0
 77 81  1  0
 78 77  1  0
 79 80  1  0
 79 78  1  0
 80 76  1  0
 81 82  2  0
 82 83  1  0
 84 83  2  0
 85 84  1  0
 86 60  1  0
 86 87  1  0
 86 96  1  0
 87 90  1  0
 88 92  1  0
 88 87  1  0
 89 88  2  0
 92 91  1  0
 94 92  1  0
 94 95  1  0
 94 93  1  0
 96 99  1  1
 96 97  1  0
 98 96  1  0
M  ISO  4  13 100  21 100  58 101  59 101
M  END
>  <TORSDO>  (84) 
F 29

>  <SCORE>  (84) 
-9.771

>  <name>  (84) 
88

>  <ligand_id>  (84) 
88

>  <original_smiles>  (84) 
[H]c1c([H])c([H])c2c(c1[H])C([H])([H])C([H])([H])C([H])([H])C2([H])N([H])C(=O)C1([H])N(C(=O)C([H])(N([H])C(=O)C([H])(N([H])C([H])([H])[H])C([H])([H])[H])C(C([H])([H])[H])(C([H])([H])[H])C([H])([H])[H])C([H])([H])c2c([H])c(OC([H])([H])C([H])([H])N([H])C(=O)C([H])([H])C([H])([H])C([H])([H])C([H])([H])C([H])([H])N([H])C(=O)C([H])([H])C([H])([H])C([H])([H])C([H])([H])C([H])([H])N([H])C(=O)N3C([H])([H])C([H])([H])C([H])([H])C([H])(n4nc(-c5c([H])c([H])c(Oc6c([H])c([H])c(F)c([H])c6F)c([H])c5[H])c(C(=O)N([H])[H])c4N([H])[H])C3([H])[H])c([H])c([H])c2C1([H])[H]

>  <smiles>  (84) 
[H]c1c([H])c([H])c2c(c1[H])C([H])([H])C([H])([H])C([H])([H])C2([H])N([H])C(=O)C1([H])N(C(=O)C([H])(N([H])C(=O)C([H])(N([H])C([H])([H])[H])C([H])([H])[H])C(C([H])([H])[H])(C([H])([H])[H])C([H])([H])[H])C([H])([H])c2c([H])c(OC([H])([H])C([H])([H])N([H])C(=O)C([H])([H])C([H])([H])C([H])([H])C([H])([H])C([H])([H])N([H])C(=O)C([H])([H])C([H])([H])C([H])([H])C([H])([H])C([H])([H])N([H])C(=O)N3C([H])([H])C([H])([H])C([H])([H])C([H])(n4nc(-c5c([H])c([H])c(Oc6c([H])c([H])c(F)c([H])c6F)c([H])c5[H])c(C(=O)N([H])[H])c4N([H])[H])C3([H])[H])c([H])c([H])c2C1([H])[H]

$$$$
90:0:0
     RDKit          3D

106113  0  0  1  0  0  0  0  0999 V2000
  -24.4910  -16.0780   22.8080 N   0  0  0  0  0  4  0  0  0  0  0  0
  -23.5320  -15.9210   22.5310 H   0  0  0  0  0  0  0  0  0  0  0  0
  -24.8880  -15.1520   22.8490 H   0  0  0  0  0  0  0  0  0  0  0  0
  -25.2870  -16.7720   21.7600 C   0  0  0  0  0  2  0  0  0  0  0  0
  -24.5440  -17.6280   20.6870 C   0  0  0  0  0  2  0  0  0  0  0  0
  -25.4990  -18.1450   19.5250 C   0  0  0  0  0  2  0  0  0  0  0  0
  -25.7990  -19.6620   19.5520 C   0  0  0  0  0  2  0  0  0  0  0  0
  -27.3410  -21.5120   18.9510 C   0  0  0  0  0  0  0  0  0  0  0  0
  -26.9380  -20.2270   18.7790 N   0  0  0  0  0  0  0  0  0  0  0  0
  -26.6920  -22.2160   19.7450 O   0  0  0  0  0  0  0  0  0  0  0  0
  -27.4910  -19.5710   18.2400 H   0  0  0  0  0  0  0  0  0  0  0  0
  -28.5920  -22.1310   18.2240 C   0  0  0  0  0  2  0  0  0  0  0  0
  -28.4140  -23.6880   18.0380 C   0  0  0  0  0  2  0  0  0  0  0  0
  -29.3610  -24.8290   18.2040 O   0  0  0  0  0  0  0  0  0  0  0  0
  -27.3380  -29.4910   23.3390 C   0  0  0  0  0  0  0  0  0  0  0  0
  -28.6730  -26.0120   18.5350 C   0  0  0  0  0  0  0  0  0  0  0  0
  -25.8310  -29.1650   21.4120 C   0  0  0  0  0  3  0  0  0  0  0  0
  -26.8560  -28.0420   19.3760 C   0  0  0  0  0  0  0  0  0  0  0  0
  -28.3730  -28.9030   21.1410 C   0  0  0  0  0  2  0  0  0  0  0  0
  -28.0990  -27.9150   20.0130 C   0  0  0  0  0  0  0  0  0  0  0  0
  -29.0090  -26.8840   19.6100 C   0  0  0  0  0  3  0  0  0  0  0  0
  -27.4630  -26.3030   17.8470 C   0  0  0  0  0  3  0  0  0  0  0  0
  -26.5330  -27.2410   18.2850 C   0  0  0  0  0  3  0  0  0  0  0  0
  -25.8820  -29.0790   19.8740 C   0  0  0  0  0  2  0  0  0  0  0  0
  -27.2010  -29.1830   22.0190 N   0  0  0  0  0  0  0  0  0  0  0  0
  -26.3510  -29.7790   24.0290 O   0  0  0  0  0  0  0  0  0  0  0  0
  -24.9420  -28.0200   21.9600 C   0  0  0  0  0  0  0  0  0  0  0  0
  -23.6130  -28.1610   21.8050 N   0  0  0  0  0  0  0  0  0  0  0  0
  -25.4440  -27.0260   22.4930 O   0  0  0  0  0  0  0  0  0  0  0  0
  -23.2780  -29.0080   21.3630 H   0  0  0  0  0  0  0  0  0  0  0  0
  -20.0510  -27.5030   21.7760 C   0  0  0  0  0  0  0  0  0  0  0  0
  -22.5800  -27.2040   22.2190 C   0  0  0  0  0  3  0  0  0  0  0  0
  -22.5060  -26.0030   21.2460 C   0  0  0  0  0  2  0  0  0  0  0  0
  -21.4610  -26.1940   20.1390 C   0  0  0  0  0  2  0  0  0  0  0  0
  -20.0680  -26.3970   20.7390 C   0  0  0  0  0  2  0  0  0  0  0  0
  -21.2310  -27.8910   22.4600 C   0  0  0  0  0  0  0  0  0  0  0  0
  -21.1650  -28.9460   23.3950 C   0  0  0  0  0  3  0  0  0  0  0  0
  -19.9490  -29.6070   23.6490 C   0  0  0  0  0  3  0  0  0  0  0  0
  -18.7780  -29.2060   22.9770 C   0  0  0  0  0  3  0  0  0  0  0  0
  -18.8300  -28.1510   22.0480 C   0  0  0  0  0  3  0  0  0  0  0  0
  -28.7350  -29.5260   24.0250 C   0  0  0  0  0  3  0  0  0  0  0  0
  -28.7730  -30.7120   24.8870 N   0  0  0  0  0  0  0  0  0  0  0  0
  -29.3750  -31.8640   24.5680 C   0  0  0  0  0  0  0  0  0  0  0  0
  -30.0220  -32.0140   23.5280 O   0  0  0  0  0  0  0  0  0  0  0  0
  -28.2250  -30.6730   25.7330 H   0  0  0  0  0  0  0  0  0  0  0  0
  -28.1780  -34.0260   25.0420 C   0  0  0  0  0  1  0  0  0  0  0  0
  -29.2350  -33.0360   25.5580 C   0  0  0  0  0  3  0  0  0  0  0  0
  -31.4820  -32.9530   26.5450 C   0  0  0  0  0  1  0  0  0  0  0  0
  -30.5030  -33.7480   25.8090 N   0  0  0  0  0  0  0  0  0  0  0  0
  -30.3390  -34.6060   26.3260 H   0  0  0  0  0  0  0  0  0  0  0  0
  -29.0460  -28.2200   24.8500 C   0  0  1  0  0  0  0  0  0  0  0  0
  -27.9360  -27.8360   25.8570 C   0  0  0  0  0  1  0  0  0  0  0  0
  -29.2670  -27.0140   23.9100 C   0  0  0  0  0  1  0  0  0  0  0  0
  -30.3590  -28.4050   25.6470 C   0  0  0  0  0  1  0  0  0  0  0  0
  -24.5500  -16.4790   24.2350 C   0  0  0  0  0  2  0  0  0  0  0  0
  -23.7880  -17.8000   24.5650 C   0  0  0  0  0  2  0  0  0  0  0  0
  -24.1060  -18.5940   25.8590 C   0  0  0  0  0  2  0  0  0  0  0  0
  -25.2480  -19.6270   25.7660 C   0  0  0  0  0  2  0  0  0  0  0  0
  -26.6200  -19.0540   26.2450 C   0  0  0  0  0  2  0  0  0  0  0  0
  -27.8030  -20.0350   26.0670 C   0  0  0  0  0  2  0  0  0  0  0  0
  -29.2210  -19.5130   26.1120 N   0  0  0  0  0  4  0  0  0  0  0  0
  -29.5240  -19.6160   27.0750 H   0  0  0  0  0  0  0  0  0  0  0  0
  -29.8200  -20.1370   25.6110 H   0  0  0  0  0  0  0  0  0  0  0  0
  -29.5590  -18.1120   25.6890 C   0  0  0  0  0  2  0  0  0  0  0  0
  -30.7230  -17.8520   24.6460 C   0  0  0  0  0  2  0  0  0  0  0  0
  -30.5710  -17.5530   23.0960 C   0  0  0  0  0  2  0  0  0  0  0  0
  -30.5220  -16.0680   22.5260 C   0  0  0  0  0  3  0  0  0  0  0  0
  -31.1140  -15.7320   21.0850 C   0  0  0  0  0  3  0  0  0  0  0  0
  -31.5250  -13.5030   19.7020 C   0  0  0  0  0  0  0  0  0  0  0  0
  -30.9810  -11.5170   18.2830 C   0  0  0  0  0  2  0  0  0  0  0  0
  -29.9150  -11.8620   17.2250 C   0  0  0  0  0  2  0  0  0  0  0  0
  -28.4780  -11.8300   17.7970 C   0  0  0  0  0  2  0  0  0  0  0  0
  -28.3740  -12.5770   19.1480 C   0  0  0  0  0  3  0  0  0  0  0  0
  -29.4850  -12.0920   20.0970 C   0  0  0  0  0  2  0  0  0  0  0  0
  -30.7820  -12.3840   19.4560 N   0  0  0  0  0  0  0  0  0  0  0  0
  -32.5540  -13.7570   19.0540 O   0  0  0  0  0  0  0  0  0  0  0  0
  -30.9540  -14.3120   20.6510 N   0  0  0  0  0  0  0  0  0  0  0  0
  -30.1460  -13.8870   21.0810 H   0  0  0  0  0  0  0  0  0  0  0  0
  -26.1080  -13.4480   19.9770 C   0  0  0  0  0  0  0  0  0  0  0  0
  -25.0360  -12.8420   20.5510 C   0  0  0  0  0  0  0  0  0  0  0  0
  -25.3600  -11.4500   20.5570 C   0  0  0  0  0  0  0  0  0  0  0  0
  -27.0520  -12.4640   19.7450 N   0  0  0  0  0  0  0  0  0  0  0  0
  -26.6060  -11.2500   20.1520 N   0  0  0  0  0  0  0  0  0  0  0  0
  -24.5170  -10.2970   20.8610 C   0  0  0  0  0  0  0  0  0  0  0  0
  -24.8850   -9.3360   21.8280 C   0  0  0  0  0  3  0  0  0  0  0  0
  -24.0420   -8.2370   22.0900 C   0  0  0  0  0  3  0  0  0  0  0  0
  -22.8190   -8.0920   21.3950 C   0  0  0  0  0  0  0  0  0  0  0  0
  -22.4700   -9.0440   20.4150 C   0  0  0  0  0  3  0  0  0  0  0  0
  -23.3190  -10.1310   20.1420 C   0  0  0  0  0  3  0  0  0  0  0  0
  -21.9640   -7.0340   21.5700 O   0  0  0  0  0  0  0  0  0  0  0  0
  -21.7960   -6.4640   22.8010 C   0  0  0  0  0  0  0  0  0  0  0  0
  -21.3900   -7.2180   23.9260 C   0  0  0  0  0  3  0  0  0  0  0  0
  -21.1700   -6.5790   25.1590 C   0  0  0  0  0  3  0  0  0  0  0  0
  -21.3370   -5.1880   25.2790 C   0  0  0  0  0  0  0  0  0  0  0  0
  -21.7300   -4.4350   24.1610 C   0  0  0  0  0  3  0  0  0  0  0  0
  -21.9580   -5.0690   22.9270 C   0  0  0  0  0  0  0  0  0  0  0  0
  -22.3270   -4.3340   21.8530 F   0  0  0  0  0  0  0  0  0  0  0  0
  -21.1100   -4.5660   26.4620 F   0  0  0  0  0  0  0  0  0  0  0  0
  -23.7420  -13.4850   20.9800 C   0  0  0  0  0  0  0  0  0  0  0  0
  -23.0540  -12.9590   21.9840 N   0  0  0  0  0  0  0  0  0  0  0  0
  -23.4080  -14.5680   20.4980 O   0  0  0  0  0  0  0  0  0  0  0  0
  -23.3230  -12.0770   22.3930 H   0  0  0  0  0  0  0  0  0  0  0  0
  -22.1730  -13.3660   22.2940 H   0  0  0  0  0  0  0  0  0  0  0  0
  -26.3760  -14.7670   19.6200 N   0  0  0  0  0  0  0  0  0  0  0  0
  -25.5890  -15.3620   19.3860 H   0  0  0  0  0  0  0  0  0  0  0  0
  -27.1690  -14.9610   19.0320 H   0  0  0  0  0  0  0  0  0  0  0  0
  1  3  1  0
  1 55  1  0
  2  1  1  0
  4  1  1  0
  5  4  1  0
  6  7  1  0
  6  5  1  0
  8 10  2  0
  9  8  1  0
  9  7  1  0
 11  9  1  0
 12  8  1  0
 13 14  1  0
 13 12  1  0
 14 16  1  0
 15 26  2  0
 16 21  1  0
 17 27  1  0
 17 25  1  0
 18 24  1  0
 18 20  1  0
 19 25  1  0
 20 19  1  0
 21 20  2  0
 22 23  1  0
 22 16  2  0
 23 18  2  0
 24 17  1  0
 25 15  1  0
 27 29  2  0
 28 27  1  0
 30 28  1  0
 31 40  2  0
 31 36  1  0
 32 28  1  0
 32 36  1  0
 33 32  1  0
 34 35  1  0
 34 33  1  0
 35 31  1  0
 36 37  2  0
 37 38  1  0
 39 38  2  0
 40 39  1  0
 41 15  1  0
 41 51  1  0
 41 42  1  0
 42 45  1  0
 43 42  1  0
 43 47  1  0
 44 43  2  0
 47 46  1  0
 47 49  1  0
 49 50  1  0
 49 48  1  0
 51 54  1  1
 51 52  1  0
 53 51  1  0
 55 56  1  0
 56 57  1  0
 58 57  1  0
 58 59  1  0
 60 61  1  0
 60 59  1  0
 61 62  1  0
 63 61  1  0
 64 61  1  0
 65 64  1  0
 66 65  1  0
 67 66  1  0
 68 67  2  0
 69 77  1  0
 70 75  1  0
 71 72  1  0
 71 70  1  0
 73 72  1  0
 73 82  1  0
 73 74  1  0
 75 69  1  0
 75 74  1  0
 76 69  2  0
 77 78  1  0
 77 68  1  0
 79 80  2  0
 80 81  1  0
 80 99  1  0
 81 84  1  0
 82 79  1  0
 82 83  1  0
 83 81  2  0
 84 85  1  0
 85 86  2  0
 87 90  1  0
 87 86  1  0
 88 87  2  0
 89 88  1  0
 89 84  2  0
 90 91  1  0
 91 96  2  0
 91 92  1  0
 92 93  2  0
 93 94  1  0
 94 98  1  0
 95 94  2  0
 96 95  1  0
 97 96  1  0
 99100  1  0
100103  1  0
100102  1  0
101 99  2  0
104 79  1  0
105104  1  0
106104  1  0
M  ISO  4  13 101  14 101  69 100  77 100
M  END
>  <TORSDO>  (85) 
F 35

>  <SCORE>  (85) 
28.936

>  <name>  (85) 
90

>  <ligand_id>  (85) 
90

>  <original_smiles>  (85) 
[H]c1c([H])c([H])c2c(c1[H])C([H])([H])C([H])([H])C([H])([H])C2([H])N([H])C(=O)C1([H])N(C(=O)C([H])(N([H])C(=O)C([H])(N([H])C([H])([H])[H])C([H])([H])[H])C(C([H])([H])[H])(C([H])([H])[H])C([H])([H])[H])C([H])([H])c2c([H])c(OC([H])([H])C([H])([H])C(=O)N([H])C([H])([H])C([H])([H])C([H])([H])C([H])([H])[N+]([H])([H])C([H])([H])C([H])([H])C([H])([H])C([H])([H])C([H])([H])C([H])([H])[N+]([H])([H])C([H])([H])C([H])([H])C([H])([H])C([H])([H])C([H])([H])N([H])C(=O)N3C([H])([H])C([H])([H])C([H])([H])C([H])(n4nc(-c5c([H])c([H])c(Oc6c([H])c([H])c(F)c([H])c6F)c([H])c5[H])c(C(=O)N([H])[H])c4N([H])[H])C3([H])[H])c([H])c([H])c2C1([H])[H]

>  <smiles>  (85) 
[H]c1c([H])c([H])c2c(c1[H])C([H])([H])C([H])([H])C([H])([H])C2([H])N([H])C(=O)C1([H])N(C(=O)C([H])(N([H])C(=O)C([H])(N([H])C([H])([H])[H])C([H])([H])[H])C(C([H])([H])[H])(C([H])([H])[H])C([H])([H])[H])C([H])([H])c2c([H])c(OC([H])([H])C([H])([H])C(=O)N([H])C([H])([H])C([H])([H])C([H])([H])C([H])([H])[N+]([H])([H])C([H])([H])C([H])([H])C([H])([H])C([H])([H])C([H])([H])C([H])([H])[N+]([H])([H])C([H])([H])C([H])([H])C([H])([H])C([H])([H])C([H])([H])N([H])C(=O)N3C([H])([H])C([H])([H])C([H])([H])C([H])(n4nc(-c5c([H])c([H])c(Oc6c([H])c([H])c(F)c([H])c6F)c([H])c5[H])c(C(=O)N([H])[H])c4N([H])[H])C3([H])[H])c([H])c([H])c2C1([H])[H]

$$$$
91:0:0
     RDKit          3D

108115  0  0  1  0  0  0  0  0999 V2000
  -33.4960  -24.7980   26.5520 C   0  0  0  0  0  2  0  0  0  0  0  0
  -32.6760  -23.4810   24.6030 C   0  0  0  0  0  0  0  0  0  0  0  0
  -32.7160  -23.7280   25.9180 N   0  0  0  0  0  0  0  0  0  0  0  0
  -33.3070  -24.1550   23.7880 O   0  0  0  0  0  0  0  0  0  0  0  0
  -32.2050  -23.1040   26.5310 H   0  0  0  0  0  0  0  0  0  0  0  0
  -31.7760  -22.3970   24.2740 C   0  0  0  0  0  3  0  0  0  0  0  0
  -32.0890  -21.5490   23.2770 C   0  0  0  0  0  3  0  0  0  0  0  0
  -31.2390  -20.3660   22.8640 C   0  0  0  0  0  2  0  0  0  0  0  0
  -31.4430  -19.9660   21.3950 C   0  0  0  0  0  2  0  0  0  0  0  0
  -32.9060  -19.7330   20.9790 C   0  0  0  0  0  2  0  0  0  0  0  0
  -32.9930  -18.9710   19.6430 C   0  0  0  0  0  2  0  0  0  0  0  0
  -34.3630  -19.0470   18.9450 C   0  0  0  0  0  2  0  0  0  0  0  0
  -36.0950  -17.6170   20.0130 C   0  0  0  0  0  0  0  0  0  0  0  0
  -35.4580  -18.7830   19.8720 N   0  0  0  0  0  0  0  0  0  0  0  0
  -35.8450  -16.6240   19.3240 O   0  0  0  0  0  0  0  0  0  0  0  0
  -35.7510  -19.5480   20.4680 H   0  0  0  0  0  0  0  0  0  0  0  0
  -37.1660  -17.5530   21.0990 C   0  0  0  0  0  2  0  0  0  0  0  0
  -39.2060  -16.2070   21.4850 C   0  0  0  0  0  0  0  0  0  0  0  0
  -41.1670  -14.7270   21.6790 C   0  0  0  0  0  2  0  0  0  0  0  0
  -42.3270  -15.2080   20.7880 C   0  0  0  0  0  2  0  0  0  0  0  0
  -42.1890  -14.6500   19.3600 C   0  0  0  0  0  2  0  0  0  0  0  0
  -40.7720  -14.8730   18.7700 C   0  0  0  0  0  3  0  0  0  0  0  0
  -39.6870  -14.4210   19.7700 C   0  0  0  0  0  2  0  0  0  0  0  0
  -39.9020  -15.1280   21.0470 N   0  0  0  0  0  0  0  0  0  0  0  0
  -39.5590  -16.9120   22.4350 O   0  0  0  0  0  0  0  0  0  0  0  0
  -38.0660  -16.4410   20.8370 N   0  0  0  0  0  0  0  0  0  0  0  0
  -37.8080  -15.8390   20.0680 H   0  0  0  0  0  0  0  0  0  0  0  0
  -40.2680  -14.7410   16.2470 C   0  0  0  0  0  0  0  0  0  0  0  0
  -40.3470  -13.7080   15.3520 C   0  0  0  0  0  0  0  0  0  0  0  0
  -40.7700  -12.5690   16.1010 C   0  0  0  0  0  0  0  0  0  0  0  0
  -40.6250  -14.2090   17.4760 N   0  0  0  0  0  0  0  0  0  0  0  0
  -40.8800  -12.8780   17.3870 N   0  0  0  0  0  0  0  0  0  0  0  0
  -41.1330  -11.2150   15.6620 C   0  0  0  0  0  0  0  0  0  0  0  0
  -40.4630  -10.0740   16.1560 C   0  0  0  0  0  3  0  0  0  0  0  0
  -40.8170   -8.7850   15.7050 C   0  0  0  0  0  3  0  0  0  0  0  0
  -41.8480   -8.6260   14.7480 C   0  0  0  0  0  0  0  0  0  0  0  0
  -42.5270   -9.7630   14.2770 C   0  0  0  0  0  3  0  0  0  0  0  0
  -42.1760  -11.0460   14.7310 C   0  0  0  0  0  3  0  0  0  0  0  0
  -42.2770   -7.4110   14.2720 O   0  0  0  0  0  0  0  0  0  0  0  0
  -41.4330   -6.3330   14.1860 C   0  0  0  0  0  0  0  0  0  0  0  0
  -40.2620   -6.3630   13.3970 C   0  0  0  0  0  3  0  0  0  0  0  0
  -39.4610   -5.2100   13.2830 C   0  0  0  0  0  3  0  0  0  0  0  0
  -39.8310   -4.0250   13.9460 C   0  0  0  0  0  0  0  0  0  0  0  0
  -41.0000   -3.9910   14.7270 C   0  0  0  0  0  3  0  0  0  0  0  0
  -41.8000   -5.1410   14.8440 C   0  0  0  0  0  0  0  0  0  0  0  0
  -42.9360   -5.0970   15.5800 F   0  0  0  0  0  0  0  0  0  0  0  0
  -39.0660   -2.9140   13.8290 F   0  0  0  0  0  0  0  0  0  0  0  0
  -40.1360  -13.7900   13.8670 C   0  0  0  0  0  0  0  0  0  0  0  0
  -39.5580  -12.7530   13.2720 N   0  0  0  0  0  0  0  0  0  0  0  0
  -40.4380  -14.8010   13.2330 O   0  0  0  0  0  0  0  0  0  0  0  0
  -39.2910  -11.9320   13.7950 H   0  0  0  0  0  0  0  0  0  0  0  0
  -39.3800  -12.7790   12.2770 H   0  0  0  0  0  0  0  0  0  0  0  0
  -39.9400  -16.0880   16.1170 N   0  0  0  0  0  0  0  0  0  0  0  0
  -39.7210  -16.5120   15.2220 H   0  0  0  0  0  0  0  0  0  0  0  0
  -39.9460  -16.7540   16.8800 H   0  0  0  0  0  0  0  0  0  0  0  0
  -33.4120  -26.1470   25.8050 C   0  0  0  0  0  2  0  0  0  0  0  0
  -32.1120  -26.3070   25.1140 N   0  0  0  0  0  4  0  0  0  0  0  0
  -31.9320  -25.4310   24.6520 H   0  0  0  0  0  0  0  0  0  0  0  0
  -31.3970  -26.4380   25.8110 H   0  0  0  0  0  0  0  0  0  0  0  0
  -32.0650  -27.3970   24.1100 C   0  0  0  0  0  2  0  0  0  0  0  0
  -30.6430  -27.5920   23.5380 C   0  0  0  0  0  2  0  0  0  0  0  0
  -30.4330  -28.8570   22.6740 C   0  0  0  0  0  2  0  0  0  0  0  0
  -30.5520  -30.1100   23.4590 N   0  0  0  0  0  4  0  0  0  0  0  0
  -31.5310  -30.3130   23.6030 H   0  0  0  0  0  0  0  0  0  0  0  0
  -30.1300  -29.9600   24.3630 H   0  0  0  0  0  0  0  0  0  0  0  0
  -29.9030  -31.2970   22.8530 C   0  0  0  0  0  2  0  0  0  0  0  0
  -29.5750  -32.3600   23.9160 C   0  0  0  0  0  2  0  0  0  0  0  0
  -28.3840  -33.0580   23.5420 O   0  0  0  0  0  0  0  0  0  0  0  0
  -24.3840  -28.5790   27.4160 C   0  0  0  0  0  0  0  0  0  0  0  0
  -27.1600  -32.4810   23.8090 C   0  0  0  0  0  0  0  0  0  0  0  0
  -23.3440  -29.4560   25.3460 C   0  0  0  0  0  3  0  0  0  0  0  0
  -24.5880  -31.3740   24.2120 C   0  0  0  0  0  0  0  0  0  0  0  0
  -25.1070  -30.8170   26.5960 C   0  0  0  0  0  2  0  0  0  0  0  0
  -25.5140  -31.3980   25.2610 C   0  0  0  0  0  0  0  0  0  0  0  0
  -26.7900  -31.9580   25.0700 C   0  0  0  0  0  3  0  0  0  0  0  0
  -26.2120  -32.4620   22.7640 C   0  0  0  0  0  3  0  0  0  0  0  0
  -24.9310  -31.9100   22.9560 C   0  0  0  0  0  3  0  0  0  0  0  0
  -23.2380  -30.7660   24.5160 C   0  0  0  0  0  2  0  0  0  0  0  0
  -24.3110  -29.5730   26.4850 N   0  0  0  0  0  0  0  0  0  0  0  0
  -23.6300  -27.5990   27.3640 O   0  0  0  0  0  0  0  0  0  0  0  0
  -23.6690  -28.2890   24.3850 C   0  0  0  0  0  0  0  0  0  0  0  0
  -22.7760  -28.0570   23.4100 N   0  0  0  0  0  0  0  0  0  0  0  0
  -24.7110  -27.6390   24.5030 O   0  0  0  0  0  0  0  0  0  0  0  0
  -21.9440  -28.6290   23.3890 H   0  0  0  0  0  0  0  0  0  0  0  0
  -21.3760  -26.9540   20.2670 C   0  0  0  0  0  0  0  0  0  0  0  0
  -22.8860  -27.0410   22.3640 C   0  0  0  0  0  3  0  0  0  0  0  0
  -24.0440  -27.3630   21.3920 C   0  0  0  0  0  2  0  0  0  0  0  0
  -23.5970  -28.1630   20.1650 C   0  0  0  0  0  2  0  0  0  0  0  0
  -22.5300  -27.3920   19.3810 C   0  0  0  0  0  2  0  0  0  0  0  0
  -21.5400  -26.8040   21.6690 C   0  0  0  0  0  0  0  0  0  0  0  0
  -20.4290  -26.4250   22.4540 C   0  0  0  0  0  3  0  0  0  0  0  0
  -19.1740  -26.1940   21.8580 C   0  0  0  0  0  3  0  0  0  0  0  0
  -19.0210  -26.3280   20.4660 C   0  0  0  0  0  3  0  0  0  0  0  0
  -20.1210  -26.7040   19.6740 C   0  0  0  0  0  3  0  0  0  0  0  0
  -25.4000  -28.6400   28.6010 C   0  0  0  0  0  3  0  0  0  0  0  0
  -26.7720  -27.9300   28.2810 C   0  0  1  0  0  0  0  0  0  0  0  0
  -26.6170  -26.4970   27.7210 C   0  0  0  0  0  1  0  0  0  0  0  0
  -27.5830  -28.7520   27.2530 C   0  0  0  0  0  1  0  0  0  0  0  0
  -27.6330  -27.8480   29.5630 C   0  0  0  0  0  1  0  0  0  0  0  0
  -24.7530  -28.0260   29.7660 N   0  0  0  0  0  0  0  0  0  0  0  0
  -24.2940  -28.7040   30.8260 C   0  0  0  0  0  0  0  0  0  0  0  0
  -24.4380  -29.9230   30.9560 O   0  0  0  0  0  0  0  0  0  0  0  0
  -24.5430  -27.0410   29.6980 H   0  0  0  0  0  0  0  0  0  0  0  0
  -22.0440  -28.1540   31.8080 C   0  0  0  0  0  1  0  0  0  0  0  0
  -23.5570  -27.9050   31.9180 C   0  0  0  0  0  3  0  0  0  0  0  0
  -25.3660  -27.7430   33.5700 C   0  0  0  0  0  1  0  0  0  0  0  0
  -24.0150  -28.2180   33.2890 N   0  0  0  0  0  0  0  0  0  0  0  0
  -23.3860  -27.8170   33.9780 H   0  0  0  0  0  0  0  0  0  0  0  0
  2  3  1  0
  3  5  1  0
  3  1  1  0
  4  2  2  0
  6  2  1  0
  7  6  2  0
  8  7  1  0
  9  8  1  0
 10  9  1  0
 11 10  1  0
 12 11  1  0
 12 14  1  0
 13 17  1  0
 14 13  1  0
 14 16  1  0
 15 13  2  0
 18 25  2  0
 20 19  1  0
 21 20  1  0
 22 31  1  0
 22 21  1  0
 22 23  1  0
 23 24  1  0
 24 18  1  0
 24 19  1  0
 26 17  1  0
 26 18  1  0
 27 26  1  0
 28 31  1  0
 29 30  1  0
 29 28  2  0
 30 32  2  0
 32 31  1  0
 33 30  1  0
 33 34  1  0
 35 34  2  0
 36 35  1  0
 37 38  1  0
 37 36  2  0
 38 33  2  0
 39 36  1  0
 40 39  1  0
 40 45  1  0
 41 40  2  0
 42 41  1  0
 42 43  2  0
 43 44  1  0
 44 45  2  0
 45 46  1  0
 47 43  1  0
 48 29  1  0
 49 51  1  0
 49 48  1  0
 50 48  2  0
 52 49  1  0
 53 28  1  0
 53 55  1  0
 54 53  1  0
 56  1  1  0
 57 56  1  0
 57 59  1  0
 58 57  1  0
 60 57  1  0
 61 60  1  0
 62 63  1  0
 62 61  1  0
 63 64  1  0
 63 65  1  0
 66 63  1  0
 66 67  1  0
 68 70  1  0
 68 67  1  0
 70 75  1  0
 71 81  1  0
 71 79  1  0
 72 78  1  0
 72 74  1  0
 74 73  1  0
 75 74  2  0
 76 77  1  0
 76 70  2  0
 77 72  2  0
 78 71  1  0
 79 73  1  0
 79 69  1  0
 80 69  2  0
 81 83  2  0
 82 81  1  0
 84 82  1  0
 85 90  1  0
 86 82  1  0
 87 86  1  0
 88 87  1  0
 89 88  1  0
 89 85  1  0
 90 86  1  0
 90 91  2  0
 92 91  1  0
 93 92  2  0
 94 85  2  0
 94 93  1  0
 95 69  1  0
 95100  1  0
 96 95  1  0
 96 99  1  1
 97 96  1  0
 98 96  1  0
100101  1  0
101102  2  0
101105  1  0
103100  1  0
105104  1  0
105107  1  0
107106  1  0
107108  1  0
M  ISO  4  18 100  26 100  67 101  68 101
M  END
>  <TORSDO>  (86) 
F 33

>  <SCORE>  (86) 
22.852

>  <name>  (86) 
91

>  <ligand_id>  (86) 
91

>  <original_smiles>  (86) 
[H]C(C(=O)N([H])C([H])([H])C([H])([H])[N+]([H])([H])C([H])([H])C([H])([H])C([H])([H])[N+]([H])([H])C([H])([H])C([H])([H])Oc1c([H])c([H])c2c(c1[H])C([H])([H])N(C(=O)C([H])(N([H])C(=O)C([H])(N([H])C([H])([H])[H])C([H])([H])[H])C(C([H])([H])[H])(C([H])([H])[H])C([H])([H])[H])C([H])(C(=O)N([H])C1([H])c3c([H])c([H])c([H])c([H])c3C([H])([H])C([H])([H])C1([H])[H])C2([H])[H])=C([H])C([H])([H])C([H])([H])C([H])([H])C([H])([H])C([H])([H])N([H])C(=O)C([H])([H])N([H])C(=O)N1C([H])([H])C([H])([H])C([H])([H])C([H])(n2nc(-c3c([H])c([H])c(Oc4c([H])c([H])c(F)c([H])c4F)c([H])c3[H])c(C(=O)N([H])[H])c2N([H])[H])C1([H])[H]

>  <smiles>  (86) 
[H]C(C(=O)N([H])C([H])([H])C([H])([H])[N+]([H])([H])C([H])([H])C([H])([H])C([H])([H])[N+]([H])([H])C([H])([H])C([H])([H])Oc1c([H])c([H])c2c(c1[H])C([H])([H])N(C(=O)C([H])(N([H])C(=O)C([H])(N([H])C([H])([H])[H])C([H])([H])[H])C(C([H])([H])[H])(C([H])([H])[H])C([H])([H])[H])C([H])(C(=O)N([H])C1([H])c3c([H])c([H])c([H])c([H])c3C([H])([H])C([H])([H])C1([H])[H])C2([H])[H])=C([H])C([H])([H])C([H])([H])C([H])([H])C([H])([H])C([H])([H])N([H])C(=O)C([H])([H])N([H])C(=O)N1C([H])([H])C([H])([H])C([H])([H])C([H])(n2nc(-c3c([H])c([H])c(Oc4c([H])c([H])c(F)c([H])c4F)c([H])c3[H])c(C(=O)N([H])[H])c2N([H])[H])C1([H])[H]

$$$$
92:0:0
     RDKit          3D

101108  0  0  1  0  0  0  0  0999 V2000
  -25.0780  -20.7260   18.6360 C   0  0  0  0  0  2  0  0  0  0  0  0
  -25.6060  -22.0800   18.8950 N   0  0  0  0  0  4  0  0  0  0  0  0
  -24.9740  -22.7650   18.5170 H   0  0  0  0  0  0  0  0  0  0  0  0
  -26.5090  -22.1960   18.4590 H   0  0  0  0  0  0  0  0  0  0  0  0
  -25.8080  -22.3980   20.3200 C   0  0  0  0  0  2  0  0  0  0  0  0
  -26.3490  -23.8260   20.4530 C   0  0  0  0  0  2  0  0  0  0  0  0
  -27.6310  -23.9410   19.7590 N   0  0  0  0  0  0  0  0  0  0  0  0
  -27.6030  -24.7060   19.0890 H   0  0  0  0  0  0  0  0  0  0  0  0
  -28.7080  -24.2890   20.6830 C   0  0  0  0  0  2  0  0  0  0  0  0
  -28.6150  -25.7540   21.1660 C   0  0  0  0  0  2  0  0  0  0  0  0
  -28.5450  -26.6660   20.0630 O   0  0  0  0  0  0  0  0  0  0  0  0
  -24.7400  -31.7790   23.2100 C   0  0  0  0  0  0  0  0  0  0  0  0
  -27.4000  -27.4230   20.0540 C   0  0  0  0  0  0  0  0  0  0  0  0
  -23.5410  -30.4100   21.5310 C   0  0  0  0  0  3  0  0  0  0  0  0
  -25.0070  -28.9100   20.0750 C   0  0  0  0  0  0  0  0  0  0  0  0
  -26.0650  -30.7770   21.3560 C   0  0  0  0  0  2  0  0  0  0  0  0
  -26.1540  -29.4190   20.6990 C   0  0  0  0  0  0  0  0  0  0  0  0
  -27.3510  -28.6710   20.7090 C   0  0  0  0  0  3  0  0  0  0  0  0
  -26.2560  -26.9520   19.3800 C   0  0  0  0  0  3  0  0  0  0  0  0
  -25.0510  -27.6730   19.4090 C   0  0  0  0  0  3  0  0  0  0  0  0
  -23.7540  -29.7510   20.1380 C   0  0  0  0  0  2  0  0  0  0  0  0
  -24.8000  -31.0010   22.0930 N   0  0  0  0  0  0  0  0  0  0  0  0
  -23.6570  -32.0360   23.7530 O   0  0  0  0  0  0  0  0  0  0  0  0
  -22.8920  -29.3700   22.4690 C   0  0  0  0  0  0  0  0  0  0  0  0
  -21.5710  -29.1760   22.3240 N   0  0  0  0  0  0  0  0  0  0  0  0
  -23.5730  -28.7380   23.2830 O   0  0  0  0  0  0  0  0  0  0  0  0
  -21.0810  -29.7360   21.6410 H   0  0  0  0  0  0  0  0  0  0  0  0
  -18.2060  -27.9490   22.7740 C   0  0  0  0  0  0  0  0  0  0  0  0
  -20.7580  -28.2170   23.0740 C   0  0  0  0  0  3  0  0  0  0  0  0
  -20.8800  -26.7960   22.4750 C   0  0  0  0  0  2  0  0  0  0  0  0
  -19.7890  -26.4820   21.4480 C   0  0  0  0  0  2  0  0  0  0  0  0
  -18.4000  -26.6120   22.0770 C   0  0  0  0  0  2  0  0  0  0  0  0
  -19.3140  -28.7100   23.2280 C   0  0  0  0  0  0  0  0  0  0  0  0
  -19.0810  -29.9640   23.8340 C   0  0  0  0  0  3  0  0  0  0  0  0
  -17.7710  -30.4510   23.9980 C   0  0  0  0  0  3  0  0  0  0  0  0
  -16.6760  -29.6870   23.5590 C   0  0  0  0  0  3  0  0  0  0  0  0
  -16.8950  -28.4380   22.9500 C   0  0  0  0  0  3  0  0  0  0  0  0
  -26.0250  -32.4000   23.8460 C   0  0  0  0  0  3  0  0  0  0  0  0
  -25.7280  -33.8010   24.1710 N   0  0  0  0  0  0  0  0  0  0  0  0
  -26.0830  -34.8490   23.4140 C   0  0  0  0  0  0  0  0  0  0  0  0
  -26.7670  -34.7370   22.3950 O   0  0  0  0  0  0  0  0  0  0  0  0
  -25.1440  -33.9630   24.9770 H   0  0  0  0  0  0  0  0  0  0  0  0
  -24.3870  -36.6570   23.0070 C   0  0  0  0  0  1  0  0  0  0  0  0
  -25.5990  -36.2430   23.8590 C   0  0  0  0  0  3  0  0  0  0  0  0
  -27.7180  -37.0970   24.7540 C   0  0  0  0  0  1  0  0  0  0  0  0
  -26.6460  -37.2850   23.7810 N   0  0  0  0  0  0  0  0  0  0  0  0
  -26.2460  -38.2090   23.9190 H   0  0  0  0  0  0  0  0  0  0  0  0
  -26.5210  -31.6240   25.1260 C   0  0  1  0  0  0  0  0  0  0  0  0
  -25.4100  -31.3960   26.1750 C   0  0  0  0  0  1  0  0  0  0  0  0
  -27.0960  -30.2420   24.7400 C   0  0  0  0  0  1  0  0  0  0  0  0
  -27.6680  -32.4110   25.8030 C   0  0  0  0  0  1  0  0  0  0  0  0
  -24.5980  -20.5340   17.1890 C   0  0  0  0  0  2  0  0  0  0  0  0
  -25.6870  -20.5260   16.0980 C   0  0  0  0  0  2  0  0  0  0  0  0
  -26.8440  -19.5240   16.3270 C   0  0  0  0  0  2  0  0  0  0  0  0
  -28.1600  -20.2210   16.7320 C   0  0  0  0  0  2  0  0  0  0  0  0
  -29.4620  -19.3840   16.6430 C   0  0  0  0  0  2  0  0  0  0  0  0
  -29.5790  -18.3020   18.9520 C   0  0  0  0  0  0  0  0  0  0  0  0
  -29.6720  -18.2920   17.6120 N   0  0  0  0  0  0  0  0  0  0  0  0
  -28.9730  -19.1710   19.5760 O   0  0  0  0  0  0  0  0  0  0  0  0
  -30.1730  -17.5000   17.2330 H   0  0  0  0  0  0  0  0  0  0  0  0
  -30.3550  -17.2410   19.5780 C   0  0  0  0  0  3  0  0  0  0  0  0
  -30.0480  -16.7780   20.8040 C   0  0  0  0  0  3  0  0  0  0  0  0
  -30.9010  -15.7950   21.6020 C   0  0  0  0  0  2  0  0  0  0  0  0
  -31.1800  -13.3550   21.1060 C   0  0  0  0  0  0  0  0  0  0  0  0
  -30.8550  -11.2500   19.8760 C   0  0  0  0  0  2  0  0  0  0  0  0
  -29.9810  -11.5560   18.6420 C   0  0  0  0  0  2  0  0  0  0  0  0
  -28.4820  -11.4810   18.9990 C   0  0  0  0  0  2  0  0  0  0  0  0
  -28.1310  -12.2680   20.2920 C   0  0  0  0  0  3  0  0  0  0  0  0
  -29.1250  -11.9460   21.4290 C   0  0  0  0  0  2  0  0  0  0  0  0
  -30.4800  -12.2070   20.9250 N   0  0  0  0  0  0  0  0  0  0  0  0
  -32.3540  -13.4930   20.7430 O   0  0  0  0  0  0  0  0  0  0  0  0
  -30.4490  -14.4050   21.5240 N   0  0  0  0  0  0  0  0  0  0  0  0
  -29.4940  -14.2150   21.7850 H   0  0  0  0  0  0  0  0  0  0  0  0
  -25.7160  -12.9600   20.8330 C   0  0  0  0  0  0  0  0  0  0  0  0
  -24.6130  -12.2260   21.1790 C   0  0  0  0  0  0  0  0  0  0  0  0
  -25.0440  -10.8670   21.2420 C   0  0  0  0  0  0  0  0  0  0  0  0
  -26.7500  -12.0440   20.7070 N   0  0  0  0  0  0  0  0  0  0  0  0
  -26.3470  -10.7860   21.0140 N   0  0  0  0  0  0  0  0  0  0  0  0
  -24.2830   -9.6290   21.4530 C   0  0  0  0  0  0  0  0  0  0  0  0
  -24.6610   -8.6950   22.4430 C   0  0  0  0  0  3  0  0  0  0  0  0
  -23.9090   -7.5170   22.6410 C   0  0  0  0  0  3  0  0  0  0  0  0
  -22.7620   -7.2670   21.8510 C   0  0  0  0  0  0  0  0  0  0  0  0
  -22.4030   -8.1880   20.8510 C   0  0  0  0  0  3  0  0  0  0  0  0
  -23.1540   -9.3590   20.6510 C   0  0  0  0  0  3  0  0  0  0  0  0
  -21.9810   -6.1410   21.9580 O   0  0  0  0  0  0  0  0  0  0  0  0
  -21.8780   -5.4410   23.1330 C   0  0  0  0  0  0  0  0  0  0  0  0
  -21.3880   -6.0370   24.3150 C   0  0  0  0  0  3  0  0  0  0  0  0
  -21.2330   -5.2630   25.4820 C   0  0  0  0  0  3  0  0  0  0  0  0
  -21.5580   -3.8940   25.4680 C   0  0  0  0  0  0  0  0  0  0  0  0
  -22.0380   -3.2960   24.2900 C   0  0  0  0  0  3  0  0  0  0  0  0
  -22.1950   -4.0670   23.1250 C   0  0  0  0  0  0  0  0  0  0  0  0
  -22.6390   -3.4790   21.9870 F   0  0  0  0  0  0  0  0  0  0  0  0
  -21.4000   -3.1490   26.5870 F   0  0  0  0  0  0  0  0  0  0  0  0
  -23.2120  -12.7370   21.3490 C   0  0  0  0  0  0  0  0  0  0  0  0
  -22.4250  -12.0970   22.2050 N   0  0  0  0  0  0  0  0  0  0  0  0
  -22.8210  -13.7390   20.7520 O   0  0  0  0  0  0  0  0  0  0  0  0
  -22.7540  -11.2900   22.7140 H   0  0  0  0  0  0  0  0  0  0  0  0
  -21.4790  -12.4180   22.3530 H   0  0  0  0  0  0  0  0  0  0  0  0
  -25.9280  -14.3150   20.5930 N   0  0  0  0  0  0  0  0  0  0  0  0
  -25.1850  -15.0040   20.5950 H   0  0  0  0  0  0  0  0  0  0  0  0
  -26.8100  -14.6970   20.2760 H   0  0  0  0  0  0  0  0  0  0  0  0
  1  2  1  0
  2  5  1  0
  3  2  1  0
  4  2  1  0
  5  6  1  0
  7  6  1  0
  7  9  1  0
  8  7  1  0
  9 10  1  0
 11 10  1  0
 12 23  2  0
 13 11  1  0
 13 18  1  0
 14 22  1  0
 14 24  1  0
 15 21  1  0
 15 17  1  0
 16 22  1  0
 17 18  2  0
 17 16  1  0
 19 20  1  0
 19 13  2  0
 20 15  2  0
 21 14  1  0
 22 12  1  0
 24 26  2  0
 25 24  1  0
 27 25  1  0
 28 37  2  0
 28 33  1  0
 29 25  1  0
 29 33  1  0
 30 29  1  0
 31 32  1  0
 31 30  1  0
 32 28  1  0
 33 34  2  0
 34 35  1  0
 36 35  2  0
 37 36  1  0
 38 12  1  0
 38 39  1  0
 38 48  1  0
 39 42  1  0
 40 44  1  0
 40 39  1  0
 41 40  2  0
 44 43  1  0
 46 44  1  0
 46 47  1  0
 46 45  1  0
 48 51  1  1
 48 49  1  0
 50 48  1  0
 52  1  1  0
 53 54  1  0
 53 52  1  0
 54 55  1  0
 56 55  1  0
 56 58  1  0
 57 59  2  0
 57 61  1  0
 58 57  1  0
 60 58  1  0
 61 62  2  0
 62 63  1  0
 64 72  1  0
 65 70  1  0
 66 67  1  0
 66 65  1  0
 68 67  1  0
 68 77  1  0
 68 69  1  0
 70 64  1  0
 70 69  1  0
 71 64  2  0
 72 63  1  0
 72 73  1  0
 74 75  2  0
 75 76  1  0
 75 94  1  0
 76 79  1  0
 77 74  1  0
 77 78  1  0
 78 76  2  0
 79 80  1  0
 80 81  2  0
 82 85  1  0
 82 81  1  0
 83 82  2  0
 84 83  1  0
 84 79  2  0
 85 86  1  0
 86 87  1  0
 87 88  2  0
 89 88  1  0
 89 93  1  0
 90 89  2  0
 91 86  2  0
 91 90  1  0
 92 91  1  0
 94 95  1  0
 95 98  1  0
 95 97  1  0
 96 94  2  0
 99100  1  0
 99 74  1  0
101 99  1  0
M  ISO  4  10 101  11 101  64 100  72 100
M  END
>  <TORSDO>  (87) 
F 30

>  <SCORE>  (87) 
-7.382

>  <name>  (87) 
92

>  <ligand_id>  (87) 
92

>  <original_smiles>  (87) 
[H]C(C(=O)N([H])C([H])([H])C([H])([H])C([H])([H])C([H])([H])C([H])([H])C([H])([H])[N+]([H])([H])C([H])([H])C([H])([H])N([H])C([H])([H])C([H])([H])Oc1c([H])c([H])c2c(c1[H])C([H])([H])N(C(=O)C([H])(N([H])C(=O)C([H])(N([H])C([H])([H])[H])C([H])([H])[H])C(C([H])([H])[H])(C([H])([H])[H])C([H])([H])[H])C([H])(C(=O)N([H])C1([H])c3c([H])c([H])c([H])c([H])c3C([H])([H])C([H])([H])C1([H])[H])C2([H])[H])=C([H])C([H])([H])N([H])C(=O)N1C([H])([H])C([H])([H])C([H])([H])C([H])(n2nc(-c3c([H])c([H])c(Oc4c([H])c([H])c(F)c([H])c4F)c([H])c3[H])c(C(=O)N([H])[H])c2N([H])[H])C1([H])[H]

>  <smiles>  (87) 
[H]C(C(=O)N([H])C([H])([H])C([H])([H])C([H])([H])C([H])([H])C([H])([H])C([H])([H])[N+]([H])([H])C([H])([H])C([H])([H])N([H])C([H])([H])C([H])([H])Oc1c([H])c([H])c2c(c1[H])C([H])([H])N(C(=O)C([H])(N([H])C(=O)C([H])(N([H])C([H])([H])[H])C([H])([H])[H])C(C([H])([H])[H])(C([H])([H])[H])C([H])([H])[H])C([H])(C(=O)N([H])C1([H])c3c([H])c([H])c([H])c([H])c3C([H])([H])C([H])([H])C1([H])[H])C2([H])[H])=C([H])C([H])([H])N([H])C(=O)N1C([H])([H])C([H])([H])C([H])([H])C([H])(n2nc(-c3c([H])c([H])c(Oc4c([H])c([H])c(F)c([H])c4F)c([H])c3[H])c(C(=O)N([H])[H])c2N([H])[H])C1([H])[H]

$$$$
93:0:0
     RDKit          3D

110117  0  0  1  0  0  0  0  0999 V2000
  -27.1210  -18.7870   17.1260 C   0  0  0  0  0  2  0  0  0  0  0  0
  -29.0770  -19.6790   15.8280 C   0  0  0  0  0  0  0  0  0  0  0  0
  -27.7720  -19.4490   15.9980 N   0  0  0  0  0  0  0  0  0  0  0  0
  -29.9510  -19.2470   16.5860 O   0  0  0  0  0  0  0  0  0  0  0  0
  -27.1550  -19.8070   15.2800 H   0  0  0  0  0  0  0  0  0  0  0  0
  -29.4250  -20.5700   14.6330 C   0  0  0  0  0  2  0  0  0  0  0  0
  -30.9280  -20.8280   14.4190 C   0  0  0  0  0  2  0  0  0  0  0  0
  -31.1980  -22.3020   14.0510 C   0  0  0  0  0  2  0  0  0  0  0  0
  -32.6190  -22.7800   14.4160 C   0  0  0  0  0  2  0  0  0  0  0  0
  -32.7540  -24.3050   14.6110 C   0  0  0  0  0  2  0  0  0  0  0  0
  -31.4590  -25.1680   16.5770 C   0  0  0  0  0  0  0  0  0  0  0  0
  -31.5770  -24.8370   15.2860 N   0  0  0  0  0  0  0  0  0  0  0  0
  -32.4110  -25.2280   17.3590 O   0  0  0  0  0  0  0  0  0  0  0  0
  -30.7240  -24.8650   14.7440 H   0  0  0  0  0  0  0  0  0  0  0  0
  -30.0220  -25.4160   17.0370 C   0  0  0  0  0  2  0  0  0  0  0  0
  -29.9780  -26.0640   18.3060 O   0  0  0  0  0  0  0  0  0  0  0  0
  -26.1260  -29.0730   23.4700 C   0  0  0  0  0  0  0  0  0  0  0  0
  -28.8000  -26.7030   18.6320 C   0  0  0  0  0  0  0  0  0  0  0  0
  -24.9690  -28.7730   21.3070 C   0  0  0  0  0  3  0  0  0  0  0  0
  -26.4470  -28.1000   19.3490 C   0  0  0  0  0  0  0  0  0  0  0  0
  -27.5120  -29.0430   21.4020 C   0  0  0  0  0  2  0  0  0  0  0  0
  -27.5850  -28.1860   20.1570 C   0  0  0  0  0  0  0  0  0  0  0  0
  -28.7620  -27.4900   19.8040 C   0  0  0  0  0  3  0  0  0  0  0  0
  -27.6280  -26.6140   17.8370 C   0  0  0  0  0  3  0  0  0  0  0  0
  -26.4590  -27.3090   18.1910 C   0  0  0  0  0  3  0  0  0  0  0  0
  -25.2320  -28.8840   19.7820 C   0  0  0  0  0  2  0  0  0  0  0  0
  -26.2190  -28.9440   22.1170 N   0  0  0  0  0  0  0  0  0  0  0  0
  -25.0270  -29.0920   24.0400 O   0  0  0  0  0  0  0  0  0  0  0  0
  -24.2360  -27.4400   21.5840 C   0  0  0  0  0  0  0  0  0  0  0  0
  -22.9270  -27.4030   21.2860 N   0  0  0  0  0  0  0  0  0  0  0  0
  -24.8450  -26.4650   22.0320 O   0  0  0  0  0  0  0  0  0  0  0  0
  -22.5010  -28.2470   20.9290 H   0  0  0  0  0  0  0  0  0  0  0  0
  -19.5690  -26.2210   20.6910 C   0  0  0  0  0  0  0  0  0  0  0  0
  -22.0430  -26.2490   21.4330 C   0  0  0  0  0  3  0  0  0  0  0  0
  -22.2870  -25.2150   20.3100 C   0  0  0  0  0  2  0  0  0  0  0  0
  -21.3640  -25.4060   19.1030 C   0  0  0  0  0  2  0  0  0  0  0  0
  -19.8950  -25.3000   19.5260 C   0  0  0  0  0  2  0  0  0  0  0  0
  -20.5800  -26.6790   21.5750 C   0  0  0  0  0  0  0  0  0  0  0  0
  -20.2280  -27.5600   22.6200 C   0  0  0  0  0  3  0  0  0  0  0  0
  -18.8940  -27.9830   22.7870 C   0  0  0  0  0  3  0  0  0  0  0  0
  -17.8950  -27.5130   21.9180 C   0  0  0  0  0  3  0  0  0  0  0  0
  -18.2310  -26.6310   20.8750 C   0  0  0  0  0  3  0  0  0  0  0  0
  -27.3970  -29.2290   24.3640 C   0  0  0  0  0  3  0  0  0  0  0  0
  -27.7550  -27.9190   25.1670 C   0  0  1  0  0  0  0  0  0  0  0  0
  -26.5960  -27.3910   26.0430 C   0  0  0  0  0  1  0  0  0  0  0  0
  -28.1730  -26.7850   24.2030 C   0  0  0  0  0  1  0  0  0  0  0  0
  -28.9690  -28.1870   26.0900 C   0  0  0  0  0  1  0  0  0  0  0  0
  -27.1590  -30.3530   25.2790 N   0  0  0  0  0  0  0  0  0  0  0  0
  -27.7650  -31.5430   25.1930 C   0  0  0  0  0  0  0  0  0  0  0  0
  -28.6510  -31.7870   24.3700 O   0  0  0  0  0  0  0  0  0  0  0  0
  -26.4080  -30.2420   25.9460 H   0  0  0  0  0  0  0  0  0  0  0  0
  -26.4900  -33.6960   25.4360 C   0  0  0  0  0  1  0  0  0  0  0  0
  -27.3210  -32.6390   26.1810 C   0  0  0  0  0  3  0  0  0  0  0  0
  -29.1170  -32.4170   27.8390 C   0  0  0  0  0  1  0  0  0  0  0  0
  -28.4480  -33.2920   26.8820 N   0  0  0  0  0  0  0  0  0  0  0  0
  -28.1310  -34.1220   27.3770 H   0  0  0  0  0  0  0  0  0  0  0  0
  -27.2280  -19.5830   18.4420 C   0  0  0  0  0  2  0  0  0  0  0  0
  -27.6730  -21.0540   18.2950 C   0  0  0  0  0  2  0  0  0  0  0  0
  -28.7300  -21.3980   19.3420 C   0  0  0  0  0  0  0  0  0  0  0  0
  -29.9940  -21.4790   18.9110 N   0  0  0  0  0  0  0  0  0  0  0  0
  -28.4100  -21.5490   20.5200 O   0  0  0  0  0  0  0  0  0  0  0  0
  -30.1570  -21.3820   17.9180 H   0  0  0  0  0  0  0  0  0  0  0  0
  -31.1760  -21.5660   19.7600 C   0  0  0  0  0  2  0  0  0  0  0  0
  -31.4920  -20.2290   20.4590 C   0  0  0  0  0  2  0  0  0  0  0  0
  -31.9070  -19.0900   19.5020 C   0  0  0  0  0  2  0  0  0  0  0  0
  -33.0270  -18.2200   20.0950 C   0  0  0  0  0  2  0  0  0  0  0  0
  -33.6140  -17.1690   19.1320 C   0  0  0  0  0  2  0  0  0  0  0  0
  -33.5920  -14.7280   19.6210 C   0  0  0  0  0  0  0  0  0  0  0  0
  -32.9760  -15.8540   19.2440 N   0  0  0  0  0  0  0  0  0  0  0  0
  -34.7850  -14.6850   19.9240 O   0  0  0  0  0  0  0  0  0  0  0  0
  -32.0010  -15.7810   18.9650 H   0  0  0  0  0  0  0  0  0  0  0  0
  -32.7610  -13.4520   19.6580 C   0  0  0  0  0  2  0  0  0  0  0  0
  -33.1030  -11.8270   21.4610 C   0  0  0  0  0  0  0  0  0  0  0  0
  -32.3670   -9.5610   22.0840 C   0  0  0  0  0  2  0  0  0  0  0  0
  -31.6960   -8.9410   20.8420 C   0  0  0  0  0  2  0  0  0  0  0  0
  -30.2020   -9.3250   20.7710 C   0  0  0  0  0  2  0  0  0  0  0  0
  -29.9680  -10.8450   20.9580 C   0  0  0  0  0  3  0  0  0  0  0  0
  -30.7440  -11.3730   22.1870 C   0  0  0  0  0  2  0  0  0  0  0  0
  -32.1690  -11.0160   22.0170 N   0  0  0  0  0  0  0  0  0  0  0  0
  -34.2560  -11.4750   21.2050 O   0  0  0  0  0  0  0  0  0  0  0  0
  -32.5840  -12.9740   21.0250 N   0  0  0  0  0  0  0  0  0  0  0  0
  -31.6700  -13.1510   21.4050 H   0  0  0  0  0  0  0  0  0  0  0  0
  -27.9180  -12.4040   20.9230 C   0  0  0  0  0  0  0  0  0  0  0  0
  -26.5760  -12.1480   21.0200 C   0  0  0  0  0  0  0  0  0  0  0  0
  -26.4560  -10.7350   21.2030 C   0  0  0  0  0  0  0  0  0  0  0  0
  -28.5490  -11.1720   21.0420 N   0  0  0  0  0  0  0  0  0  0  0  0
  -27.6560  -10.1750   21.2650 N   0  0  0  0  0  0  0  0  0  0  0  0
  -25.2670   -9.8790   21.2670 C   0  0  0  0  0  0  0  0  0  0  0  0
  -25.1800   -8.8120   22.1910 C   0  0  0  0  0  3  0  0  0  0  0  0
  -24.0170   -8.0110   22.2490 C   0  0  0  0  0  3  0  0  0  0  0  0
  -22.9290   -8.2760   21.3860 C   0  0  0  0  0  0  0  0  0  0  0  0
  -23.0290   -9.3260   20.4560 C   0  0  0  0  0  3  0  0  0  0  0  0
  -24.1870  -10.1190   20.3950 C   0  0  0  0  0  3  0  0  0  0  0  0
  -21.7700   -7.5350   21.3560 O   0  0  0  0  0  0  0  0  0  0  0  0
  -21.3970   -6.7410   22.4100 C   0  0  0  0  0  0  0  0  0  0  0  0
  -21.0500   -7.2830   23.6670 C   0  0  0  0  0  3  0  0  0  0  0  0
  -20.6040   -6.4370   24.7010 C   0  0  0  0  0  3  0  0  0  0  0  0
  -20.4880   -5.0520   24.4760 C   0  0  0  0  0  0  0  0  0  0  0  0
  -20.8220   -4.5110   23.2220 C   0  0  0  0  0  3  0  0  0  0  0  0
  -21.2700   -5.3550   22.1910 C   0  0  0  0  0  0  0  0  0  0  0  0
  -21.5730   -4.8290   20.9790 F   0  0  0  0  0  0  0  0  0  0  0  0
  -20.0490   -4.2390   25.4670 F   0  0  0  0  0  0  0  0  0  0  0  0
  -25.4630  -13.1420   20.8570 C   0  0  0  0  0  0  0  0  0  0  0  0
  -24.3430  -12.9280   21.5430 N   0  0  0  0  0  0  0  0  0  0  0  0
  -25.5940  -14.1390   20.1510 O   0  0  0  0  0  0  0  0  0  0  0  0
  -24.2390  -12.1190   22.1380 H   0  0  0  0  0  0  0  0  0  0  0  0
  -23.5800  -13.5850   21.4720 H   0  0  0  0  0  0  0  0  0  0  0  0
  -28.6550  -13.5680   20.7350 N   0  0  0  0  0  0  0  0  0  0  0  0
  -28.2010  -14.4700   20.6350 H   0  0  0  0  0  0  0  0  0  0  0  0
  -29.6530  -13.6080   20.5620 H   0  0  0  0  0  0  0  0  0  0  0  0
  1 57  1  0
  2  3  1  0
  2  4  2  0
  3  1  1  0
  5  3  1  0
  6  2  1  0
  7  6  1  0
  8  9  1  0
  8  7  1  0
  9 10  1  0
 10 12  1  0
 11 15  1  0
 11 13  2  0
 12 11  1  0
 14 12  1  0
 15 16  1  0
 16 18  1  0
 17 28  2  0
 18 23  1  0
 19 29  1  0
 19 27  1  0
 20 26  1  0
 20 22  1  0
 21 27  1  0
 22 21  1  0
 23 22  2  0
 24 25  1  0
 24 18  2  0
 25 20  2  0
 26 19  1  0
 27 17  1  0
 29 31  2  0
 30 29  1  0
 32 30  1  0
 33 42  2  0
 33 38  1  0
 34 30  1  0
 34 38  1  0
 35 34  1  0
 36 37  1  0
 36 35  1  0
 37 33  1  0
 38 39  2  0
 39 40  1  0
 41 40  2  0
 42 41  1  0
 43 17  1  0
 43 44  1  0
 43 48  1  0
 44 45  1  1
 44 47  1  0
 46 44  1  0
 48 51  1  0
 49 48  1  0
 49 53  1  0
 50 49  2  0
 53 52  1  0
 53 55  1  0
 55 56  1  0
 55 54  1  0
 58 57  1  0
 58 59  1  0
 59 61  2  0
 60 59  1  0
 60 63  1  0
 62 60  1  0
 63 64  1  0
 65 66  1  0
 65 64  1  0
 67 69  1  0
 67 66  1  0
 68 72  1  0
 68 70  2  0
 69 68  1  0
 71 69  1  0
 72 81  1  0
 73 79  1  0
 75 74  1  0
 76 75  1  0
 77 76  1  0
 77 86  1  0
 77 78  1  0
 79 74  1  0
 79 78  1  0
 80 73  2  0
 81 82  1  0
 81 73  1  0
 83 84  2  0
 83 86  1  0
 84 85  1  0
 85 87  2  0
 85 88  1  0
 86 87  1  0
 88 89  1  0
 89 90  2  0
 91 90  1  0
 92 91  2  0
 93 92  1  0
 93 88  2  0
 94 91  1  0
 94 95  1  0
 95 96  1  0
 96 97  2  0
 98 97  1  0
 98102  1  0
 99 98  2  0
100 95  2  0
100 99  1  0
101100  1  0
103 84  1  0
103104  1  0
104106  1  0
105103  2  0
107104  1  0
108 83  1  0
109108  1  0
110108  1  0
M  ISO  4  15 101  16 101  73 100  81 100
M  END
>  <TORSDO>  (88) 
F 34

>  <SCORE>  (88) 
-6.889

>  <name>  (88) 
93

>  <ligand_id>  (88) 
93

>  <original_smiles>  (88) 
[H]c1c([H])c([H])c2c(c1[H])C([H])([H])C([H])([H])C([H])([H])C2([H])N([H])C(=O)C1([H])N(C(=O)C([H])(N([H])C(=O)C([H])(N([H])C([H])([H])[H])C([H])([H])[H])C(C([H])([H])[H])(C([H])([H])[H])C([H])([H])[H])C([H])([H])c2c([H])c(OC([H])([H])C(=O)N([H])C([H])([H])C([H])([H])C([H])([H])C([H])([H])C([H])([H])C(=O)N([H])C([H])([H])C([H])([H])C([H])([H])C(=O)N([H])C([H])([H])C([H])([H])C([H])([H])C([H])([H])C([H])([H])N([H])C(=O)C([H])([H])N([H])C(=O)N3C([H])([H])C([H])([H])C([H])([H])C([H])(n4nc(-c5c([H])c([H])c(Oc6c([H])c([H])c(F)c([H])c6F)c([H])c5[H])c(C(=O)N([H])[H])c4N([H])[H])C3([H])[H])c([H])c([H])c2C1([H])[H]

>  <smiles>  (88) 
[H]c1c([H])c([H])c2c(c1[H])C([H])([H])C([H])([H])C([H])([H])C2([H])N([H])C(=O)C1([H])N(C(=O)C([H])(N([H])C(=O)C([H])(N([H])C([H])([H])[H])C([H])([H])[H])C(C([H])([H])[H])(C([H])([H])[H])C([H])([H])[H])C([H])([H])c2c([H])c(OC([H])([H])C(=O)N([H])C([H])([H])C([H])([H])C([H])([H])C([H])([H])C([H])([H])C(=O)N([H])C([H])([H])C([H])([H])C([H])([H])C(=O)N([H])C([H])([H])C([H])([H])C([H])([H])C([H])([H])C([H])([H])N([H])C(=O)C([H])([H])N([H])C(=O)N3C([H])([H])C([H])([H])C([H])([H])C([H])(n4nc(-c5c([H])c([H])c(Oc6c([H])c([H])c(F)c([H])c6F)c([H])c5[H])c(C(=O)N([H])[H])c4N([H])[H])C3([H])[H])c([H])c([H])c2C1([H])[H]

$$$$
94:0:0
     RDKit          3D

102109  0  0  1  0  0  0  0  0999 V2000
  -32.4460  -26.0510   17.9930 C   0  0  0  0  0  2  0  0  0  0  0  0
  -31.8310  -27.1240   20.1370 C   0  0  0  0  0  0  0  0  0  0  0  0
  -32.5020  -26.2000   19.4450 N   0  0  0  0  0  0  0  0  0  0  0  0
  -31.2790  -28.0920   19.6100 O   0  0  0  0  0  0  0  0  0  0  0  0
  -32.9650  -25.4640   19.9640 H   0  0  0  0  0  0  0  0  0  0  0  0
  -31.6840  -26.9100   21.6390 C   0  0  0  0  0  2  0  0  0  0  0  0
  -30.4520  -27.5870   22.0820 N   0  0  0  0  0  4  0  0  0  0  0  0
  -30.2160  -28.1720   21.2890 H   0  0  0  0  0  0  0  0  0  0  0  0
  -30.6770  -28.1910   22.8570 H   0  0  0  0  0  0  0  0  0  0  0  0
  -29.2950  -26.7250   22.4430 C   0  0  0  0  0  2  0  0  0  0  0  0
  -28.7130  -25.9280   21.2540 C   0  0  0  0  0  2  0  0  0  0  0  0
  -28.4410  -26.7540   20.1190 O   0  0  0  0  0  0  0  0  0  0  0  0
  -24.5970  -31.8700   23.2060 C   0  0  0  0  0  0  0  0  0  0  0  0
  -27.2590  -27.4480   20.1640 C   0  0  0  0  0  0  0  0  0  0  0  0
  -23.3880  -30.4470   21.5780 C   0  0  0  0  0  3  0  0  0  0  0  0
  -24.8430  -28.8980   20.1690 C   0  0  0  0  0  0  0  0  0  0  0  0
  -25.9050  -30.8280   21.3620 C   0  0  0  0  0  2  0  0  0  0  0  0
  -25.9950  -29.4510   20.7430 C   0  0  0  0  0  0  0  0  0  0  0  0
  -27.2060  -28.7360   20.7320 C   0  0  0  0  0  3  0  0  0  0  0  0
  -26.0960  -26.8950   19.5850 C   0  0  0  0  0  3  0  0  0  0  0  0
  -24.8860  -27.6170   19.5880 C   0  0  0  0  0  3  0  0  0  0  0  0
  -23.5930  -29.7460   20.2060 C   0  0  0  0  0  2  0  0  0  0  0  0
  -24.6490  -31.0630   22.1060 N   0  0  0  0  0  0  0  0  0  0  0  0
  -23.5190  -32.1400   23.7510 O   0  0  0  0  0  0  0  0  0  0  0  0
  -22.7500  -29.4340   22.5540 C   0  0  0  0  0  0  0  0  0  0  0  0
  -21.4240  -29.2550   22.4420 N   0  0  0  0  0  0  0  0  0  0  0  0
  -23.4420  -28.8130   23.3630 O   0  0  0  0  0  0  0  0  0  0  0  0
  -20.9290  -29.8110   21.7590 H   0  0  0  0  0  0  0  0  0  0  0  0
  -18.0510  -28.0840   22.9770 C   0  0  0  0  0  0  0  0  0  0  0  0
  -20.6110  -28.3230   23.2240 C   0  0  0  0  0  3  0  0  0  0  0  0
  -20.6980  -26.8910   22.6470 C   0  0  0  0  0  2  0  0  0  0  0  0
  -19.5830  -26.5750   21.6460 C   0  0  0  0  0  2  0  0  0  0  0  0
  -18.2110  -26.7320   22.3060 C   0  0  0  0  0  2  0  0  0  0  0  0
  -19.1790  -28.8380   23.3960 C   0  0  0  0  0  0  0  0  0  0  0  0
  -18.9750  -30.1060   23.9820 C   0  0  0  0  0  3  0  0  0  0  0  0
  -17.6750  -30.6160   24.1600 C   0  0  0  0  0  3  0  0  0  0  0  0
  -16.5610  -29.8570   23.7590 C   0  0  0  0  0  3  0  0  0  0  0  0
  -16.7510  -28.5940   23.1730 C   0  0  0  0  0  3  0  0  0  0  0  0
  -25.8850  -32.5090   23.8140 C   0  0  0  0  0  3  0  0  0  0  0  0
  -26.4240  -31.7380   25.0810 C   0  0  1  0  0  0  0  0  0  0  0  0
  -25.3480  -31.4940   26.1640 C   0  0  0  0  0  1  0  0  0  0  0  0
  -27.0080  -30.3640   24.6730 C   0  0  0  0  0  1  0  0  0  0  0  0
  -27.5790  -32.5380   25.7280 C   0  0  0  0  0  1  0  0  0  0  0  0
  -25.5680  -33.9050   24.1450 N   0  0  0  0  0  0  0  0  0  0  0  0
  -25.9020  -34.9610   23.3900 C   0  0  0  0  0  0  0  0  0  0  0  0
  -26.5770  -34.8630   22.3610 O   0  0  0  0  0  0  0  0  0  0  0  0
  -24.9580  -34.0560   24.9340 H   0  0  0  0  0  0  0  0  0  0  0  0
  -24.1700  -36.7460   23.0360 C   0  0  0  0  0  1  0  0  0  0  0  0
  -25.4100  -36.3460   23.8510 C   0  0  0  0  0  3  0  0  0  0  0  0
  -27.5400  -37.2330   24.6910 C   0  0  0  0  0  1  0  0  0  0  0  0
  -26.4400  -37.4020   23.7440 N   0  0  0  0  0  0  0  0  0  0  0  0
  -26.0310  -38.3200   23.8940 H   0  0  0  0  0  0  0  0  0  0  0  0
  -31.1500  -25.3280   17.5630 C   0  0  0  0  0  2  0  0  0  0  0  0
  -30.9560  -23.9730   18.2710 C   0  0  0  0  0  2  0  0  0  0  0  0
  -29.6170  -23.2860   17.9640 C   0  0  0  0  0  2  0  0  0  0  0  0
  -29.4490  -22.0350   18.8410 C   0  0  0  0  0  2  0  0  0  0  0  0
  -28.1740  -21.2200   18.5500 C   0  0  0  0  0  2  0  0  0  0  0  0
  -27.9920  -20.0400   19.5270 C   0  0  0  0  0  2  0  0  0  0  0  0
  -29.1530  -19.1260   19.4880 N   0  0  0  0  0  4  0  0  0  0  0  0
  -29.9790  -19.6960   19.5600 H   0  0  0  0  0  0  0  0  0  0  0  0
  -29.1820  -18.6570   18.5960 H   0  0  0  0  0  0  0  0  0  0  0  0
  -29.2070  -18.1190   20.5710 C   0  0  0  0  0  2  0  0  0  0  0  0
  -30.6510  -17.6270   20.7900 C   0  0  0  0  0  2  0  0  0  0  0  0
  -30.7960  -16.5160   21.8510 C   0  0  0  0  0  2  0  0  0  0  0  0
  -30.7200  -14.3970   20.5380 C   0  0  0  0  0  0  0  0  0  0  0  0
  -30.3660  -12.3040   19.2880 C   0  0  0  0  0  2  0  0  0  0  0  0
  -29.4360  -12.5340   18.0820 C   0  0  0  0  0  2  0  0  0  0  0  0
  -27.9590  -12.4100   18.4980 C   0  0  0  0  0  2  0  0  0  0  0  0
  -27.6220  -13.2490   19.7600 C   0  0  0  0  0  3  0  0  0  0  0  0
  -28.6560  -12.9880   20.8780 C   0  0  0  0  0  2  0  0  0  0  0  0
  -30.0010  -13.2650   20.3380 N   0  0  0  0  0  0  0  0  0  0  0  0
  -31.7700  -14.6530   19.9420 O   0  0  0  0  0  0  0  0  0  0  0  0
  -30.2010  -15.2480   21.4340 N   0  0  0  0  0  0  0  0  0  0  0  0
  -29.3520  -14.9540   21.8960 H   0  0  0  0  0  0  0  0  0  0  0  0
  -25.2150  -13.8900   20.4180 C   0  0  0  0  0  0  0  0  0  0  0  0
  -24.1360  -13.1310   20.7850 C   0  0  0  0  0  0  0  0  0  0  0  0
  -24.5860  -11.7760   20.7820 C   0  0  0  0  0  0  0  0  0  0  0  0
  -26.2580  -12.9970   20.2180 N   0  0  0  0  0  0  0  0  0  0  0  0
  -25.8790  -11.7210   20.4910 N   0  0  0  0  0  0  0  0  0  0  0  0
  -23.8490  -10.5210   20.9830 C   0  0  0  0  0  0  0  0  0  0  0  0
  -24.2660   -9.5640   21.9310 C   0  0  0  0  0  3  0  0  0  0  0  0
  -23.5300   -8.3730   22.1180 C   0  0  0  0  0  3  0  0  0  0  0  0
  -22.3630   -8.1330   21.3550 C   0  0  0  0  0  0  0  0  0  0  0  0
  -21.9650   -9.0810   20.3960 C   0  0  0  0  0  3  0  0  0  0  0  0
  -22.7010  -10.2630   20.2070 C   0  0  0  0  0  3  0  0  0  0  0  0
  -21.6000   -6.9950   21.4500 O   0  0  0  0  0  0  0  0  0  0  0  0
  -21.5430   -6.2620   22.6080 C   0  0  0  0  0  0  0  0  0  0  0  0
  -21.1290   -6.8310   23.8310 C   0  0  0  0  0  3  0  0  0  0  0  0
  -21.0190   -6.0260   24.9810 C   0  0  0  0  0  3  0  0  0  0  0  0
  -21.3110   -4.6510   24.9100 C   0  0  0  0  0  0  0  0  0  0  0  0
  -21.7170   -4.0790   23.6910 C   0  0  0  0  0  3  0  0  0  0  0  0
  -21.8300   -4.8830   22.5420 C   0  0  0  0  0  0  0  0  0  0  0  0
  -22.2010   -4.3250   21.3650 F   0  0  0  0  0  0  0  0  0  0  0  0
  -21.1960   -3.8740   26.0120 F   0  0  0  0  0  0  0  0  0  0  0  0
  -22.7390  -13.6240   21.0320 C   0  0  0  0  0  0  0  0  0  0  0  0
  -21.9940  -12.9460   21.9000 N   0  0  0  0  0  0  0  0  0  0  0  0
  -22.3140  -14.6440   20.4900 O   0  0  0  0  0  0  0  0  0  0  0  0
  -22.3490  -12.1220   22.3610 H   0  0  0  0  0  0  0  0  0  0  0  0
  -21.0560  -13.2590   22.1080 H   0  0  0  0  0  0  0  0  0  0  0  0
  -25.3940  -15.2550   20.2190 N   0  0  0  0  0  0  0  0  0  0  0  0
  -24.6290  -15.9170   20.2990 H   0  0  0  0  0  0  0  0  0  0  0  0
  -26.2500  -15.6740   19.8810 H   0  0  0  0  0  0  0  0  0  0  0  0
  1  3  1  0
  2  6  1  0
  3  5  1  0
  3  2  1  0
  4  2  2  0
  6  7  1  0
  7 10  1  0
  7  9  1  0
  8  7  1  0
 11 10  1  0
 12 14  1  0
 12 11  1  0
 13 24  2  0
 14 19  1  0
 15 23  1  0
 15 25  1  0
 16 22  1  0
 16 18  1  0
 17 23  1  0
 18 17  1  0
 19 18  2  0
 20 21  1  0
 20 14  2  0
 21 16  2  0
 22 15  1  0
 23 13  1  0
 25 27  2  0
 26 25  1  0
 28 26  1  0
 29 38  2  0
 29 34  1  0
 30 26  1  0
 30 34  1  0
 31 30  1  0
 32 33  1  0
 32 31  1  0
 33 29  1  0
 34 35  2  0
 35 36  1  0
 37 36  2  0
 38 37  1  0
 39 13  1  0
 39 44  1  0
 39 40  1  0
 40 43  1  1
 40 41  1  0
 42 40  1  0
 44 47  1  0
 45 49  1  0
 45 44  1  0
 46 45  2  0
 49 48  1  0
 51 49  1  0
 51 52  1  0
 51 50  1  0
 53  1  1  0
 53 54  1  0
 55 54  1  0
 55 56  1  0
 57 56  1  0
 57 58  1  0
 59 58  1  0
 59 60  1  0
 59 62  1  0
 61 59  1  0
 62 63  1  0
 63 64  1  0
 65 73  1  0
 66 71  1  0
 67 68  1  0
 67 66  1  0
 69 68  1  0
 69 78  1  0
 69 70  1  0
 71 65  1  0
 71 70  1  0
 72 65  2  0
 73 64  1  0
 73 74  1  0
 75 76  2  0
 76 95  1  0
 77 76  1  0
 77 80  1  0
 78 75  1  0
 78 79  1  0
 79 77  2  0
 80 81  1  0
 81 82  2  0
 83 86  1  0
 83 82  1  0
 84 83  2  0
 85 84  1  0
 85 80  2  0
 86 87  1  0
 87 88  1  0
 88 89  2  0
 90 89  1  0
 90 94  1  0
 91 90  2  0
 92 87  2  0
 92 91  1  0
 93 92  1  0
 95 96  1  0
 96 99  1  0
 96 98  1  0
 97 95  2  0
100101  1  0
100 75  1  0
102100  1  0
M  ISO  4  11 101  12 101  65 100  73 100
M  END
>  <TORSDO>  (89) 
F 31

>  <SCORE>  (89) 
-10.840

>  <name>  (89) 
94

>  <ligand_id>  (89) 
94

>  <original_smiles>  (89) 
[H]c1c([H])c([H])c2c(c1[H])C([H])([H])C([H])([H])C([H])([H])C2([H])N([H])C(=O)C1([H])N(C(=O)C([H])(N([H])C(=O)C([H])(N([H])C([H])([H])[H])C([H])([H])[H])C(C([H])([H])[H])(C([H])([H])[H])C([H])([H])[H])C([H])([H])c2c([H])c(OC([H])([H])C([H])([H])[N+]([H])([H])C([H])([H])C(=O)N([H])C([H])([H])C([H])([H])C([H])([H])C([H])([H])C([H])([H])C([H])([H])C([H])([H])[N+]([H])([H])C([H])([H])C([H])([H])C([H])([H])N([H])C(=O)N3C([H])([H])C([H])([H])C([H])([H])C([H])(n4nc(-c5c([H])c([H])c(Oc6c([H])c([H])c(F)c([H])c6F)c([H])c5[H])c(C(=O)N([H])[H])c4N([H])[H])C3([H])[H])c([H])c([H])c2C1([H])[H]

>  <smiles>  (89) 
[H]c1c([H])c([H])c2c(c1[H])C([H])([H])C([H])([H])C([H])([H])C2([H])N([H])C(=O)C1([H])N(C(=O)C([H])(N([H])C(=O)C([H])(N([H])C([H])([H])[H])C([H])([H])[H])C(C([H])([H])[H])(C([H])([H])[H])C([H])([H])[H])C([H])([H])c2c([H])c(OC([H])([H])C([H])([H])[N+]([H])([H])C([H])([H])C(=O)N([H])C([H])([H])C([H])([H])C([H])([H])C([H])([H])C([H])([H])C([H])([H])C([H])([H])[N+]([H])([H])C([H])([H])C([H])([H])C([H])([H])N([H])C(=O)N3C([H])([H])C([H])([H])C([H])([H])C([H])(n4nc(-c5c([H])c([H])c(Oc6c([H])c([H])c(F)c([H])c6F)c([H])c5[H])c(C(=O)N([H])[H])c4N([H])[H])C3([H])[H])c([H])c([H])c2C1([H])[H]

$$$$
95:0:0
     RDKit          3D

106114  0  0  1  0  0  0  0  0999 V2000
  -35.4030  -20.5020   23.2910 N   0  0  0  0  0  4  0  0  0  0  0  0
  -34.6690  -19.9790   23.7410 H   0  0  0  0  0  0  0  0  0  0  0  0
  -35.2460  -20.4610   22.2970 H   0  0  0  0  0  0  0  0  0  0  0  0
  -36.6840  -19.8280   23.5750 C   0  0  0  0  0  2  0  0  0  0  0  0
  -36.4870  -17.3160   23.8200 C   0  0  0  0  0  3  0  0  0  0  0  0
  -36.5920  -18.4120   23.0470 C   0  0  0  0  0  3  0  0  0  0  0  0
  -36.3090  -16.0100   23.2160 C   0  0  0  0  0  0  0  0  0  0  0  0
  -35.9870  -15.0890   24.1270 N   0  0  0  0  0  0  0  0  0  0  0  0
  -36.3700  -15.7640   22.0090 O   0  0  0  0  0  0  0  0  0  0  0  0
  -35.9920  -15.3680   25.0980 H   0  0  0  0  0  0  0  0  0  0  0  0
  -35.4150  -13.7830   23.8300 C   0  0  0  0  0  2  0  0  0  0  0  0
  -31.9660  -13.5820   25.4710 C   0  0  0  0  0  3  0  0  0  0  0  0
  -33.3580  -13.5260   25.2770 C   0  0  0  0  0  3  0  0  0  0  0  0
  -31.1200  -13.9340   24.4010 C   0  0  0  0  0  3  0  0  0  0  0  0
  -33.0580  -14.1810   22.9420 C   0  0  0  0  0  3  0  0  0  0  0  0
  -33.9070  -13.8160   24.0130 C   0  0  0  0  0  0  0  0  0  0  0  0
  -31.6550  -14.2320   23.1290 C   0  0  0  0  0  0  0  0  0  0  0  0
  -30.8650  -14.2250   20.8080 C   0  0  0  0  0  0  0  0  0  0  0  0
  -30.4060  -12.2940   19.3510 C   0  0  0  0  0  2  0  0  0  0  0  0
  -29.4620  -12.5370   18.1660 C   0  0  0  0  0  2  0  0  0  0  0  0
  -27.9970  -12.3710   18.6010 C   0  0  0  0  0  2  0  0  0  0  0  0
  -27.6620  -13.2000   19.8670 C   0  0  0  0  0  3  0  0  0  0  0  0
  -28.7000  -12.9530   20.9820 C   0  0  0  0  0  2  0  0  0  0  0  0
  -30.0510  -13.2070   20.4440 N   0  0  0  0  0  0  0  0  0  0  0  0
  -31.7750  -14.6700   20.0990 O   0  0  0  0  0  0  0  0  0  0  0  0
  -30.7290  -14.5570   22.0980 N   0  0  0  0  0  0  0  0  0  0  0  0
  -29.7760  -14.4250   22.4000 H   0  0  0  0  0  0  0  0  0  0  0  0
  -25.2600  -13.8160   20.5670 C   0  0  0  0  0  0  0  0  0  0  0  0
  -24.1840  -13.0440   20.9170 C   0  0  0  0  0  0  0  0  0  0  0  0
  -24.6380  -11.6900   20.8720 C   0  0  0  0  0  0  0  0  0  0  0  0
  -26.3030  -12.9310   20.3320 N   0  0  0  0  0  0  0  0  0  0  0  0
  -25.9300  -11.6480   20.5720 N   0  0  0  0  0  0  0  0  0  0  0  0
  -23.9040  -10.4290   21.0390 C   0  0  0  0  0  0  0  0  0  0  0  0
  -24.3610   -9.4210   21.9170 C   0  0  0  0  0  3  0  0  0  0  0  0
  -23.6280   -8.2250   22.0750 C   0  0  0  0  0  3  0  0  0  0  0  0
  -22.4260   -8.0280   21.3550 C   0  0  0  0  0  0  0  0  0  0  0  0
  -21.9900   -9.0250   20.4650 C   0  0  0  0  0  3  0  0  0  0  0  0
  -22.7220  -10.2130   20.3050 C   0  0  0  0  0  3  0  0  0  0  0  0
  -21.6640   -6.8870   21.4240 O   0  0  0  0  0  0  0  0  0  0  0  0
  -21.6850   -6.0730   22.5280 C   0  0  0  0  0  0  0  0  0  0  0  0
  -21.4010   -6.5640   23.8220 C   0  0  0  0  0  3  0  0  0  0  0  0
  -21.3660   -5.6790   24.9180 C   0  0  0  0  0  3  0  0  0  0  0  0
  -21.6040   -4.3060   24.7230 C   0  0  0  0  0  0  0  0  0  0  0  0
  -21.8820   -3.8150   23.4350 C   0  0  0  0  0  3  0  0  0  0  0  0
  -21.9200   -4.6960   22.3410 C   0  0  0  0  0  0  0  0  0  0  0  0
  -22.1660   -4.2150   21.0980 F   0  0  0  0  0  0  0  0  0  0  0  0
  -21.5630   -3.4540   25.7730 F   0  0  0  0  0  0  0  0  0  0  0  0
  -22.7870  -13.5250   21.1840 C   0  0  0  0  0  0  0  0  0  0  0  0
  -22.0510  -12.8240   22.0390 N   0  0  0  0  0  0  0  0  0  0  0  0
  -22.3550  -14.5550   20.6690 O   0  0  0  0  0  0  0  0  0  0  0  0
  -22.4120  -11.9900   22.4790 H   0  0  0  0  0  0  0  0  0  0  0  0
  -21.1120  -13.1260   22.2590 H   0  0  0  0  0  0  0  0  0  0  0  0
  -25.4330  -15.1880   20.4100 N   0  0  0  0  0  0  0  0  0  0  0  0
  -24.6710  -15.8460   20.5300 H   0  0  0  0  0  0  0  0  0  0  0  0
  -26.2930  -15.6280   20.1070 H   0  0  0  0  0  0  0  0  0  0  0  0
  -35.3060  -21.9120   23.7200 C   0  0  0  0  0  2  0  0  0  0  0  0
  -33.9860  -22.5260   23.2210 C   0  0  0  0  0  2  0  0  0  0  0  0
  -33.8010  -24.0170   23.5460 C   0  0  0  0  0  2  0  0  0  0  0  0
  -32.3890  -24.4820   23.1530 C   0  0  0  0  0  2  0  0  0  0  0  0
  -32.2010  -26.0100   23.1840 C   0  0  0  0  0  2  0  0  0  0  0  0
  -30.7960  -26.3970   22.9330 N   0  0  0  0  0  4  0  0  0  0  0  0
  -30.6940  -27.3570   23.2250 H   0  0  0  0  0  0  0  0  0  0  0  0
  -30.2030  -25.8470   23.5360 H   0  0  0  0  0  0  0  0  0  0  0  0
  -30.3370  -26.2860   21.5250 C   0  0  0  0  0  2  0  0  0  0  0  0
  -28.8100  -26.3940   21.4340 C   0  0  0  0  0  2  0  0  0  0  0  0
  -28.3910  -26.7400   20.1110 O   0  0  0  0  0  0  0  0  0  0  0  0
  -24.6050  -31.8700   23.2120 C   0  0  0  0  0  0  0  0  0  0  0  0
  -27.2410  -27.4870   20.0980 C   0  0  0  0  0  0  0  0  0  0  0  0
  -23.3920  -30.4910   21.5520 C   0  0  0  0  0  3  0  0  0  0  0  0
  -24.8410  -28.9640   20.1120 C   0  0  0  0  0  0  0  0  0  0  0  0
  -25.9120  -30.8570   21.3540 C   0  0  0  0  0  2  0  0  0  0  0  0
  -25.9940  -29.4930   20.7070 C   0  0  0  0  0  0  0  0  0  0  0  0
  -27.1960  -28.7640   20.6980 C   0  0  0  0  0  3  0  0  0  0  0  0
  -26.0840  -26.9660   19.4870 C   0  0  0  0  0  3  0  0  0  0  0  0
  -24.8790  -27.6990   19.4950 C   0  0  0  0  0  3  0  0  0  0  0  0
  -23.5970  -29.8200   20.1660 C   0  0  0  0  0  2  0  0  0  0  0  0
  -24.6550  -31.0850   22.0990 N   0  0  0  0  0  0  0  0  0  0  0  0
  -23.5250  -32.1420   23.7550 O   0  0  0  0  0  0  0  0  0  0  0  0
  -22.7360  -29.4640   22.5000 C   0  0  0  0  0  0  0  0  0  0  0  0
  -21.4100  -29.3000   22.3770 N   0  0  0  0  0  0  0  0  0  0  0  0
  -23.4170  -28.8170   23.3010 O   0  0  0  0  0  0  0  0  0  0  0  0
  -20.9200  -29.8740   21.7050 H   0  0  0  0  0  0  0  0  0  0  0  0
  -18.0260  -28.1370   22.8500 C   0  0  0  0  0  0  0  0  0  0  0  0
  -20.5840  -28.3610   23.1360 C   0  0  0  0  0  3  0  0  0  0  0  0
  -20.6750  -26.9360   22.5450 C   0  0  0  0  0  2  0  0  0  0  0  0
  -19.5740  -26.6370   21.5230 C   0  0  0  0  0  2  0  0  0  0  0  0
  -18.1900  -26.7920   22.1620 C   0  0  0  0  0  2  0  0  0  0  0  0
  -19.1500  -28.8810   23.2920 C   0  0  0  0  0  0  0  0  0  0  0  0
  -18.9460  -30.1430   23.8900 C   0  0  0  0  0  3  0  0  0  0  0  0
  -17.6460  -30.6580   24.0570 C   0  0  0  0  0  3  0  0  0  0  0  0
  -16.5340  -29.9100   23.6330 C   0  0  0  0  0  3  0  0  0  0  0  0
  -16.7250  -28.6520   23.0330 C   0  0  0  0  0  3  0  0  0  0  0  0
  -25.8950  -32.4810   23.8400 C   0  0  0  0  0  3  0  0  0  0  0  0
  -25.5820  -33.8610   24.2340 N   0  0  0  0  0  0  0  0  0  0  0  0
  -25.9010  -34.9470   23.5150 C   0  0  0  0  0  0  0  0  0  0  0  0
  -26.5600  -34.8890   22.4730 O   0  0  0  0  0  0  0  0  0  0  0  0
  -24.9900  -33.9790   25.0430 H   0  0  0  0  0  0  0  0  0  0  0  0
  -24.1480  -36.7320   23.2650 C   0  0  0  0  0  1  0  0  0  0  0  0
  -25.4090  -36.3100   24.0350 C   0  0  0  0  0  3  0  0  0  0  0  0
  -27.5580  -37.1800   24.8460 C   0  0  0  0  0  1  0  0  0  0  0  0
  -26.4280  -37.3780   23.9410 N   0  0  0  0  0  0  0  0  0  0  0  0
  -26.0170  -38.2850   24.1440 H   0  0  0  0  0  0  0  0  0  0  0  0
  -26.4420  -31.6580   25.0700 C   0  0  1  0  0  0  0  0  0  0  0  0
  -25.3700  -31.3710   26.1470 C   0  0  0  0  0  1  0  0  0  0  0  0
  -27.0260  -30.3050   24.6000 C   0  0  0  0  0  1  0  0  0  0  0  0
  -27.6010  -32.4290   25.7410 C   0  0  0  0  0  1  0  0  0  0  0  0
  1  4  1  0
  1 56  1  0
  1  2  1  0
  3  1  1  0
  6  4  1  0
  6  5  2  0
  7  5  1  0
  7  8  1  0
  8 10  1  0
  9  7  2  0
 11 16  1  0
 11  8  1  0
 13 12  1  0
 14 12  2  0
 15 17  2  0
 15 16  1  0
 16 13  2  0
 17 14  1  0
 18 26  1  0
 19 24  1  0
 20 21  1  0
 20 19  1  0
 22 21  1  0
 22 31  1  0
 22 23  1  0
 24 18  1  0
 24 23  1  0
 25 18  2  0
 26 27  1  0
 26 17  1  0
 28 29  2  0
 29 48  1  0
 30 29  1  0
 30 33  1  0
 31 28  1  0
 31 32  1  0
 32 30  2  0
 33 34  1  0
 34 35  2  0
 36 39  1  0
 36 35  1  0
 37 36  2  0
 38 37  1  0
 38 33  2  0
 39 40  1  0
 40 41  1  0
 41 42  2  0
 43 42  1  0
 43 47  1  0
 44 43  2  0
 45 40  2  0
 45 44  1  0
 46 45  1  0
 48 49  1  0
 49 52  1  0
 49 51  1  0
 50 48  2  0
 53 54  1  0
 53 28  1  0
 55 53  1  0
 57 58  1  0
 57 56  1  0
 59 60  1  0
 59 58  1  0
 61 60  1  0
 61 62  1  0
 61 63  1  0
 64 61  1  0
 65 64  1  0
 66 65  1  0
 67 78  2  0
 68 66  1  0
 68 73  1  0
 69 77  1  0
 69 79  1  0
 70 76  1  0
 70 72  1  0
 71 77  1  0
 72 71  1  0
 73 72  2  0
 74 75  1  0
 74 68  2  0
 75 70  2  0
 76 69  1  0
 77 67  1  0
 79 81  2  0
 80 79  1  0
 82 80  1  0
 83 92  2  0
 83 88  1  0
 84 80  1  0
 84 88  1  0
 85 84  1  0
 86 87  1  0
 86 85  1  0
 87 83  1  0
 88 89  2  0
 89 90  1  0
 91 90  2  0
 92 91  1  0
 93 67  1  0
 93 94  1  0
 93103  1  0
 94 97  1  0
 95 99  1  0
 95 94  1  0
 96 95  2  0
 99 98  1  0
101 99  1  0
101102  1  0
101100  1  0
103106  1  1
103104  1  0
105103  1  0
M  ISO  4  18 100  26 100  65 101  66 101
M  END
>  <TORSDO>  (90) 
F 29

>  <SCORE>  (90) 
38.142

>  <name>  (90) 
95

>  <ligand_id>  (90) 
95

>  <original_smiles>  (90) 
[H]C(C(=O)N([H])C([H])([H])c1c([H])c([H])c([H])c(N([H])C(=O)N2C([H])([H])C([H])([H])C([H])([H])C([H])(n3nc(-c4c([H])c([H])c(Oc5c([H])c([H])c(F)c([H])c5F)c([H])c4[H])c(C(=O)N([H])[H])c3N([H])[H])C2([H])[H])c1[H])=C([H])C([H])([H])[N+]([H])([H])C([H])([H])C([H])([H])C([H])([H])C([H])([H])C([H])([H])[N+]([H])([H])C([H])([H])C([H])([H])Oc1c([H])c([H])c2c(c1[H])C([H])([H])N(C(=O)C([H])(N([H])C(=O)C([H])(N([H])C([H])([H])[H])C([H])([H])[H])C(C([H])([H])[H])(C([H])([H])[H])C([H])([H])[H])C([H])(C(=O)N([H])C1([H])c3c([H])c([H])c([H])c([H])c3C([H])([H])C([H])([H])C1([H])[H])C2([H])[H]

>  <smiles>  (90) 
[H]C(C(=O)N([H])C([H])([H])c1c([H])c([H])c([H])c(N([H])C(=O)N2C([H])([H])C([H])([H])C([H])([H])C([H])(n3nc(-c4c([H])c([H])c(Oc5c([H])c([H])c(F)c([H])c5F)c([H])c4[H])c(C(=O)N([H])[H])c3N([H])[H])C2([H])[H])c1[H])=C([H])C([H])([H])[N+]([H])([H])C([H])([H])C([H])([H])C([H])([H])C([H])([H])C([H])([H])[N+]([H])([H])C([H])([H])C([H])([H])Oc1c([H])c([H])c2c(c1[H])C([H])([H])N(C(=O)C([H])(N([H])C(=O)C([H])(N([H])C([H])([H])[H])C([H])([H])[H])C(C([H])([H])[H])(C([H])([H])[H])C([H])([H])[H])C([H])(C(=O)N([H])C1([H])c3c([H])c([H])c([H])c([H])c3C([H])([H])C([H])([H])C1([H])[H])C2([H])[H]

$$$$
96:0:0
     RDKit          3D

102109  0  0  1  0  0  0  0  0999 V2000
  -29.9740  -21.1120   25.2670 C   0  0  0  0  0  0  0  0  0  0  0  0
  -29.9140  -20.3300   26.3550 N   0  0  0  0  0  0  0  0  0  0  0  0
  -30.6690  -22.1290   25.2110 O   0  0  0  0  0  0  0  0  0  0  0  0
  -29.3100  -19.5180   26.3150 H   0  0  0  0  0  0  0  0  0  0  0  0
  -30.5300  -20.6360   27.6460 C   0  0  0  0  0  2  0  0  0  0  0  0
  -32.0460  -20.3620   27.6570 C   0  0  0  0  0  2  0  0  0  0  0  0
  -32.4110  -18.8650   27.6510 C   0  0  0  0  0  2  0  0  0  0  0  0
  -33.8150  -18.5800   27.0770 C   0  0  0  0  0  2  0  0  0  0  0  0
  -33.8510  -18.5850   25.5360 C   0  0  0  0  0  2  0  0  0  0  0  0
  -33.2400  -17.3580   24.9820 N   0  0  0  0  0  4  0  0  0  0  0  0
  -32.6630  -16.9460   25.6960 H   0  0  0  0  0  0  0  0  0  0  0  0
  -33.9780  -16.7030   24.7760 H   0  0  0  0  0  0  0  0  0  0  0  0
  -32.4100  -17.5630   23.7750 C   0  0  0  0  0  2  0  0  0  0  0  0
  -31.8030  -16.2390   23.2730 C   0  0  0  0  0  2  0  0  0  0  0  0
  -30.8470  -16.4270   22.0830 C   0  0  0  0  0  2  0  0  0  0  0  0
  -30.7620  -14.3640   20.6790 C   0  0  0  0  0  0  0  0  0  0  0  0
  -30.4180  -12.2880   19.3900 C   0  0  0  0  0  2  0  0  0  0  0  0
  -29.4840  -12.5260   18.1890 C   0  0  0  0  0  2  0  0  0  0  0  0
  -28.0070  -12.3820   18.6070 C   0  0  0  0  0  2  0  0  0  0  0  0
  -27.6660  -13.2010   19.8800 C   0  0  0  0  0  3  0  0  0  0  0  0
  -28.7050  -12.9340   20.9910 C   0  0  0  0  0  2  0  0  0  0  0  0
  -30.0480  -13.2290   20.4560 N   0  0  0  0  0  0  0  0  0  0  0  0
  -31.7880  -14.6560   20.0580 O   0  0  0  0  0  0  0  0  0  0  0  0
  -30.2820  -15.1490   21.6490 N   0  0  0  0  0  0  0  0  0  0  0  0
  -29.4400  -14.8330   22.1070 H   0  0  0  0  0  0  0  0  0  0  0  0
  -25.2610  -13.8150   20.5660 C   0  0  0  0  0  0  0  0  0  0  0  0
  -24.1850  -13.0440   20.9160 C   0  0  0  0  0  0  0  0  0  0  0  0
  -24.6390  -11.6900   20.8720 C   0  0  0  0  0  0  0  0  0  0  0  0
  -26.3050  -12.9320   20.3390 N   0  0  0  0  0  0  0  0  0  0  0  0
  -25.9320  -11.6470   20.5750 N   0  0  0  0  0  0  0  0  0  0  0  0
  -23.9060  -10.4290   21.0400 C   0  0  0  0  0  0  0  0  0  0  0  0
  -24.3610   -9.4210   21.9180 C   0  0  0  0  0  3  0  0  0  0  0  0
  -23.6280   -8.2250   22.0750 C   0  0  0  0  0  3  0  0  0  0  0  0
  -22.4270   -8.0280   21.3540 C   0  0  0  0  0  0  0  0  0  0  0  0
  -21.9900   -9.0250   20.4650 C   0  0  0  0  0  3  0  0  0  0  0  0
  -22.7230  -10.2130   20.3050 C   0  0  0  0  0  3  0  0  0  0  0  0
  -21.6640   -6.8880   21.4240 O   0  0  0  0  0  0  0  0  0  0  0  0
  -21.6850   -6.0730   22.5280 C   0  0  0  0  0  0  0  0  0  0  0  0
  -21.4010   -6.5640   23.8210 C   0  0  0  0  0  3  0  0  0  0  0  0
  -21.3660   -5.6790   24.9170 C   0  0  0  0  0  3  0  0  0  0  0  0
  -21.6040   -4.3050   24.7220 C   0  0  0  0  0  0  0  0  0  0  0  0
  -21.8830   -3.8150   23.4350 C   0  0  0  0  0  3  0  0  0  0  0  0
  -21.9190   -4.6970   22.3400 C   0  0  0  0  0  0  0  0  0  0  0  0
  -22.1660   -4.2150   21.0980 F   0  0  0  0  0  0  0  0  0  0  0  0
  -21.5630   -3.4540   25.7740 F   0  0  0  0  0  0  0  0  0  0  0  0
  -22.7880  -13.5240   21.1830 C   0  0  0  0  0  0  0  0  0  0  0  0
  -22.0500  -12.8240   22.0390 N   0  0  0  0  0  0  0  0  0  0  0  0
  -22.3570  -14.5550   20.6690 O   0  0  0  0  0  0  0  0  0  0  0  0
  -22.4120  -11.9890   22.4770 H   0  0  0  0  0  0  0  0  0  0  0  0
  -21.1130  -13.1270   22.2590 H   0  0  0  0  0  0  0  0  0  0  0  0
  -25.4350  -15.1870   20.4080 N   0  0  0  0  0  0  0  0  0  0  0  0
  -24.6720  -15.8460   20.5160 H   0  0  0  0  0  0  0  0  0  0  0  0
  -26.2970  -15.6230   20.1050 H   0  0  0  0  0  0  0  0  0  0  0  0
  -29.1230  -20.7210   24.0560 C   0  0  0  0  0  2  0  0  0  0  0  0
  -28.3990  -21.9330   23.4310 C   0  0  0  0  0  2  0  0  0  0  0  0
  -29.3170  -22.8520   22.7200 N   0  0  0  0  0  4  0  0  0  0  0  0
  -29.5290  -22.4760   21.8110 H   0  0  0  0  0  0  0  0  0  0  0  0
  -30.1770  -22.9020   23.2530 H   0  0  0  0  0  0  0  0  0  0  0  0
  -28.8030  -24.2320   22.5880 C   0  0  0  0  0  2  0  0  0  0  0  0
  -29.2860  -24.9190   21.2990 C   0  0  0  0  0  2  0  0  0  0  0  0
  -28.9480  -26.4190   21.2820 C   0  0  0  0  0  2  0  0  0  0  0  0
  -28.3820  -26.7330   20.0170 O   0  0  0  0  0  0  0  0  0  0  0  0
  -24.6100  -31.8700   23.2090 C   0  0  0  0  0  0  0  0  0  0  0  0
  -27.2330  -27.4780   20.0740 C   0  0  0  0  0  0  0  0  0  0  0  0
  -23.3950  -30.4950   21.5480 C   0  0  0  0  0  3  0  0  0  0  0  0
  -24.8390  -28.9620   20.1120 C   0  0  0  0  0  0  0  0  0  0  0  0
  -25.9200  -30.8460   21.3580 C   0  0  0  0  0  2  0  0  0  0  0  0
  -25.9940  -29.4810   20.7120 C   0  0  0  0  0  0  0  0  0  0  0  0
  -27.1950  -28.7430   20.7000 C   0  0  0  0  0  3  0  0  0  0  0  0
  -26.0710  -26.9640   19.4690 C   0  0  0  0  0  3  0  0  0  0  0  0
  -24.8680  -27.6970   19.4940 C   0  0  0  0  0  3  0  0  0  0  0  0
  -23.5990  -29.8250   20.1640 C   0  0  0  0  0  2  0  0  0  0  0  0
  -24.6600  -31.0860   22.0970 N   0  0  0  0  0  0  0  0  0  0  0  0
  -23.5300  -32.1400   23.7540 O   0  0  0  0  0  0  0  0  0  0  0  0
  -22.7390  -29.4690   22.5010 C   0  0  0  0  0  0  0  0  0  0  0  0
  -21.4110  -29.3020   22.3750 N   0  0  0  0  0  0  0  0  0  0  0  0
  -23.4200  -28.8240   23.3010 O   0  0  0  0  0  0  0  0  0  0  0  0
  -20.9270  -29.8700   21.6950 H   0  0  0  0  0  0  0  0  0  0  0  0
  -18.0280  -28.1380   22.8520 C   0  0  0  0  0  0  0  0  0  0  0  0
  -20.5870  -28.3650   23.1350 C   0  0  0  0  0  3  0  0  0  0  0  0
  -20.6780  -26.9390   22.5410 C   0  0  0  0  0  2  0  0  0  0  0  0
  -19.5750  -26.6380   21.5230 C   0  0  0  0  0  2  0  0  0  0  0  0
  -18.1920  -26.7930   22.1630 C   0  0  0  0  0  2  0  0  0  0  0  0
  -19.1520  -28.8840   23.2930 C   0  0  0  0  0  0  0  0  0  0  0  0
  -18.9470  -30.1460   23.8900 C   0  0  0  0  0  3  0  0  0  0  0  0
  -17.6460  -30.6580   24.0580 C   0  0  0  0  0  3  0  0  0  0  0  0
  -16.5360  -29.9090   23.6340 C   0  0  0  0  0  3  0  0  0  0  0  0
  -16.7260  -28.6510   23.0340 C   0  0  0  0  0  3  0  0  0  0  0  0
  -25.9010  -32.4830   23.8390 C   0  0  0  0  0  3  0  0  0  0  0  0
  -26.4460  -31.6600   25.0720 C   0  0  1  0  0  0  0  0  0  0  0  0
  -25.3730  -31.3700   26.1500 C   0  0  0  0  0  1  0  0  0  0  0  0
  -27.0270  -30.3070   24.6020 C   0  0  0  0  0  1  0  0  0  0  0  0
  -27.6030  -32.4330   25.7470 C   0  0  0  0  0  1  0  0  0  0  0  0
  -25.5890  -33.8630   24.2330 N   0  0  0  0  0  0  0  0  0  0  0  0
  -25.9020  -34.9490   23.5130 C   0  0  0  0  0  0  0  0  0  0  0  0
  -26.5590  -34.8930   22.4690 O   0  0  0  0  0  0  0  0  0  0  0  0
  -25.0100  -33.9810   25.0520 H   0  0  0  0  0  0  0  0  0  0  0  0
  -24.1490  -36.7330   23.2650 C   0  0  0  0  0  1  0  0  0  0  0  0
  -25.4100  -36.3120   24.0350 C   0  0  0  0  0  3  0  0  0  0  0  0
  -27.5570  -37.1810   24.8470 C   0  0  0  0  0  1  0  0  0  0  0  0
  -26.4290  -37.3800   23.9410 N   0  0  0  0  0  0  0  0  0  0  0  0
  -26.0190  -38.2890   24.1400 H   0  0  0  0  0  0  0  0  0  0  0  0
  1  2  1  0
  2  5  1  0
  3  1  2  0
  4  2  1  0
  5  6  1  0
  7  6  1  0
  8  7  1  0
  9  8  1  0
 10  9  1  0
 10 11  1  0
 12 10  1  0
 13 10  1  0
 14 13  1  0
 15 14  1  0
 16 24  1  0
 17 22  1  0
 18 19  1  0
 18 17  1  0
 20 19  1  0
 20 29  1  0
 20 21  1  0
 22 16  1  0
 22 21  1  0
 23 16  2  0
 24 15  1  0
 24 25  1  0
 26 27  2  0
 27 46  1  0
 28 27  1  0
 28 31  1  0
 29 26  1  0
 29 30  1  0
 30 28  2  0
 31 32  1  0
 32 33  2  0
 34 37  1  0
 34 33  1  0
 35 34  2  0
 36 35  1  0
 36 31  2  0
 37 38  1  0
 38 39  1  0
 39 40  2  0
 41 40  1  0
 41 45  1  0
 42 41  2  0
 43 38  2  0
 43 42  1  0
 44 43  1  0
 46 47  1  0
 47 50  1  0
 47 49  1  0
 48 46  2  0
 51 52  1  0
 51 26  1  0
 53 51  1  0
 54  1  1  0
 55 54  1  0
 56 58  1  0
 56 55  1  0
 57 56  1  0
 59 56  1  0
 60 59  1  0
 61 60  1  0
 62 64  1  0
 62 61  1  0
 63 74  2  0
 64 69  1  0
 65 73  1  0
 65 75  1  0
 66 72  1  0
 66 68  1  0
 67 73  1  0
 68 67  1  0
 69 68  2  0
 70 71  1  0
 70 64  2  0
 71 66  2  0
 72 65  1  0
 73 63  1  0
 75 77  2  0
 76 75  1  0
 78 76  1  0
 79 88  2  0
 79 84  1  0
 80 76  1  0
 80 84  1  0
 81 80  1  0
 82 83  1  0
 82 81  1  0
 83 79  1  0
 84 85  2  0
 85 86  1  0
 87 86  2  0
 88 87  1  0
 89 63  1  0
 89 94  1  0
 89 90  1  0
 90 93  1  1
 90 91  1  0
 92 90  1  0
 94 97  1  0
 95 99  1  0
 95 94  1  0
 96 95  2  0
 99 98  1  0
101 99  1  0
101102  1  0
101100  1  0
M  ISO  4  16 100  24 100  61 101  62 101
M  END
>  <TORSDO>  (91) 
F 31

>  <SCORE>  (91) 
50.966

>  <name>  (91) 
96

>  <ligand_id>  (91) 
96

>  <original_smiles>  (91) 
[H]c1c([H])c([H])c2c(c1[H])C([H])([H])C([H])([H])C([H])([H])C2([H])N([H])C(=O)C1([H])N(C(=O)C([H])(N([H])C(=O)C([H])(N([H])C([H])([H])[H])C([H])([H])[H])C(C([H])([H])[H])(C([H])([H])[H])C([H])([H])[H])C([H])([H])c2c([H])c(OC([H])([H])C([H])([H])C([H])([H])[N+]([H])([H])C([H])([H])C([H])([H])C(=O)N([H])C([H])([H])C([H])([H])C([H])([H])C([H])([H])C([H])([H])[N+]([H])([H])C([H])([H])C([H])([H])C([H])([H])N([H])C(=O)N3C([H])([H])C([H])([H])C([H])([H])C([H])(n4nc(-c5c([H])c([H])c(Oc6c([H])c([H])c(F)c([H])c6F)c([H])c5[H])c(C(=O)N([H])[H])c4N([H])[H])C3([H])[H])c([H])c([H])c2C1([H])[H]

>  <smiles>  (91) 
[H]c1c([H])c([H])c2c(c1[H])C([H])([H])C([H])([H])C([H])([H])C2([H])N([H])C(=O)C1([H])N(C(=O)C([H])(N([H])C(=O)C([H])(N([H])C([H])([H])[H])C([H])([H])[H])C(C([H])([H])[H])(C([H])([H])[H])C([H])([H])[H])C([H])([H])c2c([H])c(OC([H])([H])C([H])([H])C([H])([H])[N+]([H])([H])C([H])([H])C([H])([H])C(=O)N([H])C([H])([H])C([H])([H])C([H])([H])C([H])([H])C([H])([H])[N+]([H])([H])C([H])([H])C([H])([H])C([H])([H])N([H])C(=O)N3C([H])([H])C([H])([H])C([H])([H])C([H])(n4nc(-c5c([H])c([H])c(Oc6c([H])c([H])c(F)c([H])c6F)c([H])c5[H])c(C(=O)N([H])[H])c4N([H])[H])C3([H])[H])c([H])c([H])c2C1([H])[H]

$$$$
97:0:0
     RDKit          3D

106114  0  0  1  0  0  0  0  0999 V2000
  -24.3960  -23.1840   19.9020 C   0  0  0  0  0  3  0  0  0  0  0  0
  -23.4640  -24.6720   21.6950 C   0  0  0  0  0  3  0  0  0  0  0  0
  -23.6410  -23.4690   21.1330 N   0  0  0  0  0  0  0  0  0  0  0  0
  -23.8970  -25.7040   21.1770 O   0  0  0  0  0  0  0  0  0  0  0  0
  -23.3530  -22.6370   21.6370 H   0  0  0  0  0  0  0  0  0  0  0  0
  -22.6700  -24.7670   23.0030 C   0  0  0  0  0  2  0  0  0  0  0  0
  -21.8300  -26.0670   23.1160 C   0  0  0  0  0  2  0  0  0  0  0  0
  -22.5980  -27.2360   23.6020 N   0  0  0  0  0  4  0  0  0  0  0  0
  -22.9010  -27.1080   24.5510 H   0  0  0  0  0  0  0  0  0  0  0  0
  -22.0160  -28.0570   23.5780 H   0  0  0  0  0  0  0  0  0  0  0  0
  -23.4030  -27.3950   23.0200 H   0  0  0  0  0  0  0  0  0  0  0  0
  -25.9030  -23.1040   20.2780 C   0  0  0  0  0  0  0  0  0  0  0  0
  -26.8950  -23.2850   19.3950 N   0  0  0  0  0  0  0  0  0  0  0  0
  -26.2060  -22.8470   21.4450 O   0  0  0  0  0  0  0  0  0  0  0  0
  -27.8230  -23.2800   19.7960 H   0  0  0  0  0  0  0  0  0  0  0  0
  -26.8450  -23.4640   17.9470 C   0  0  0  0  0  2  0  0  0  0  0  0
  -28.1760  -24.0340   17.4240 C   0  0  0  0  0  2  0  0  0  0  0  0
  -28.0860  -24.5490   15.9630 C   0  0  0  0  0  2  0  0  0  0  0  0
  -28.1290  -25.9820   15.9110 O   0  0  0  0  0  0  0  0  0  0  0  0
  -24.5310  -29.0890   21.1890 C   0  0  0  0  0  0  0  0  0  0  0  0
  -26.9760  -26.6490   16.2590 C   0  0  0  0  0  0  0  0  0  0  0  0
  -23.2510  -28.6640   19.1140 C   0  0  0  0  0  3  0  0  0  0  0  0
  -24.6270  -27.9780   17.0780 C   0  0  0  0  0  0  0  0  0  0  0  0
  -25.7850  -29.0200   19.0330 C   0  0  0  0  0  2  0  0  0  0  0  0
  -25.8110  -28.1260   17.8140 C   0  0  0  0  0  0  0  0  0  0  0  0
  -26.9840  -27.4580   17.4150 C   0  0  0  0  0  3  0  0  0  0  0  0
  -25.7760  -26.5270   15.5190 C   0  0  0  0  0  3  0  0  0  0  0  0
  -24.6020  -27.1710   15.9310 C   0  0  0  0  0  3  0  0  0  0  0  0
  -23.4170  -28.7280   17.5740 C   0  0  0  0  0  2  0  0  0  0  0  0
  -24.5420  -28.9160   19.8380 N   0  0  0  0  0  0  0  0  0  0  0  0
  -23.4680  -29.0910   21.8260 O   0  0  0  0  0  0  0  0  0  0  0  0
  -22.5910  -27.3140   19.4880 C   0  0  0  0  0  3  0  0  0  0  0  0
  -21.2880  -27.1810   19.1830 N   0  0  0  0  0  0  0  0  0  0  0  0
  -23.2470  -26.4070   20.0100 O   0  0  0  0  0  0  0  0  0  0  0  0
  -20.8220  -27.9750   18.7630 H   0  0  0  0  0  0  0  0  0  0  0  0
  -17.9490  -25.8450   18.8840 C   0  0  0  0  0  0  0  0  0  0  0  0
  -20.4720  -25.9910   19.4120 C   0  0  0  0  0  3  0  0  0  0  0  0
  -20.6600  -24.9580   18.2780 C   0  0  0  0  0  2  0  0  0  0  0  0
  -19.6410  -25.1260   17.1460 C   0  0  0  0  0  2  0  0  0  0  0  0
  -18.2180  -24.9490   17.6860 C   0  0  0  0  0  2  0  0  0  0  0  0
  -19.0100  -26.3530   19.6780 C   0  0  0  0  0  0  0  0  0  0  0  0
  -18.7090  -27.2230   20.7490 C   0  0  0  0  0  3  0  0  0  0  0  0
  -17.3790  -27.5780   21.0350 C   0  0  0  0  0  3  0  0  0  0  0  0
  -16.3300  -27.0580   20.2580 C   0  0  0  0  0  3  0  0  0  0  0  0
  -16.6180  -26.1920   19.1850 C   0  0  0  0  0  3  0  0  0  0  0  0
  -25.8480  -29.3230   21.9940 C   0  0  0  0  0  3  0  0  0  0  0  0
  -26.3340  -28.0390   22.7720 C   0  0  1  0  0  0  0  0  0  0  0  0
  -25.2420  -27.3950   23.6580 C   0  0  0  0  0  1  0  0  0  0  0  0
  -26.8430  -26.9590   21.7920 C   0  0  0  0  0  1  0  0  0  0  0  0
  -27.5370  -28.4060   23.6740 C   0  0  0  0  0  1  0  0  0  0  0  0
  -25.6030  -30.4320   22.9280 N   0  0  0  0  0  0  0  0  0  0  0  0
  -26.0590  -31.6810   22.7630 C   0  0  0  0  0  0  0  0  0  0  0  0
  -26.8090  -32.0000   21.8350 O   0  0  0  0  0  0  0  0  0  0  0  0
  -24.9550  -30.2490   23.6790 H   0  0  0  0  0  0  0  0  0  0  0  0
  -24.5180  -33.6310   23.1740 C   0  0  0  0  0  1  0  0  0  0  0  0
  -25.6180  -32.7480   23.7860 C   0  0  0  0  0  3  0  0  0  0  0  0
  -27.7020  -32.8670   25.0890 C   0  0  0  0  0  1  0  0  0  0  0  0
  -26.7340  -33.5930   24.2680 N   0  0  0  0  0  0  0  0  0  0  0  0
  -26.3870  -34.3860   24.7990 H   0  0  0  0  0  0  0  0  0  0  0  0
  -23.8070  -21.9320   19.1960 C   0  0  0  0  0  2  0  0  0  0  0  0
  -24.5130  -20.6870   19.5920 N   0  0  0  0  0  4  0  0  0  0  0  0
  -25.2100  -20.9190   20.2780 H   0  0  0  0  0  0  0  0  0  0  0  0
  -23.8400  -20.0900   20.0440 H   0  0  0  0  0  0  0  0  0  0  0  0
  -25.1270  -19.9250   18.4850 C   0  0  0  0  0  2  0  0  0  0  0  0
  -26.6720  -20.0430   18.4390 C   0  0  0  0  0  2  0  0  0  0  0  0
  -27.4050  -19.1070   19.4130 C   0  0  0  0  0  2  0  0  0  0  0  0
  -28.2510  -18.0820   18.6420 C   0  0  0  0  0  2  0  0  0  0  0  0
  -28.7580  -16.9310   19.5040 C   0  0  0  0  0  2  0  0  0  0  0  0
  -30.7700  -15.3970   19.0720 C   0  0  0  0  0  0  0  0  0  0  0  0
  -30.9130  -12.9550   19.2470 C   0  0  0  0  0  2  0  0  0  0  0  0
  -30.0300  -12.3060   18.1630 C   0  0  0  0  0  2  0  0  0  0  0  0
  -28.5760  -12.1510   18.6500 C   0  0  0  0  0  2  0  0  0  0  0  0
  -28.0100  -13.4450   19.2980 C   0  0  0  0  0  3  0  0  0  0  0  0
  -29.0280  -13.9990   20.3250 C   0  0  0  0  0  2  0  0  0  0  0  0
  -30.2920  -14.2390   19.6080 N   0  0  0  0  0  0  0  0  0  0  0  0
  -31.8700  -15.4770   18.5240 O   0  0  0  0  0  0  0  0  0  0  0  0
  -29.9550  -16.4320   18.8590 N   0  0  0  0  0  0  0  0  0  0  0  0
  -30.3800  -17.1140   18.2480 H   0  0  0  0  0  0  0  0  0  0  0  0
  -25.7460  -14.1330   20.3230 C   0  0  0  0  0  0  0  0  0  0  0  0
  -24.6660  -13.3970   20.7270 C   0  0  0  0  0  0  0  0  0  0  0  0
  -25.0210  -12.0260   20.5170 C   0  0  0  0  0  0  0  0  0  0  0  0
  -26.6970  -13.2140   19.8980 N   0  0  0  0  0  0  0  0  0  0  0  0
  -26.2630  -11.9390   20.0600 N   0  0  0  0  0  0  0  0  0  0  0  0
  -24.2310  -10.8010   20.6610 C   0  0  0  0  0  0  0  0  0  0  0  0
  -24.6220   -9.7710   21.5440 C   0  0  0  0  0  3  0  0  0  0  0  0
  -23.8340   -8.6090   21.6830 C   0  0  0  0  0  3  0  0  0  0  0  0
  -22.6400   -8.4690   20.9390 C   0  0  0  0  0  0  0  0  0  0  0  0
  -22.2680   -9.4850   20.0430 C   0  0  0  0  0  3  0  0  0  0  0  0
  -23.0550  -10.6380   19.9000 C   0  0  0  0  0  3  0  0  0  0  0  0
  -21.8270   -7.3620   20.9870 O   0  0  0  0  0  0  0  0  0  0  0  0
  -21.7050   -6.6070   22.1250 C   0  0  0  0  0  0  0  0  0  0  0  0
  -21.1940   -7.1450   23.3260 C   0  0  0  0  0  3  0  0  0  0  0  0
  -21.0180   -6.3160   24.4530 C   0  0  0  0  0  3  0  0  0  0  0  0
  -21.3430   -4.9470   24.3770 C   0  0  0  0  0  0  0  0  0  0  0  0
  -21.8500   -4.4080   23.1800 C   0  0  0  0  0  3  0  0  0  0  0  0
  -22.0230   -5.2370   22.0580 C   0  0  0  0  0  0  0  0  0  0  0  0
  -22.4890   -4.7050   20.9030 F   0  0  0  0  0  0  0  0  0  0  0  0
  -21.1680   -4.1490   25.4560 F   0  0  0  0  0  0  0  0  0  0  0  0
  -23.3470  -13.9300   21.2000 C   0  0  0  0  0  0  0  0  0  0  0  0
  -22.6670  -13.2050   22.0810 N   0  0  0  0  0  0  0  0  0  0  0  0
  -22.9290  -15.0280   20.8270 O   0  0  0  0  0  0  0  0  0  0  0  0
  -23.0170  -12.3140   22.4060 H   0  0  0  0  0  0  0  0  0  0  0  0
  -21.7900  -13.5480   22.4440 H   0  0  0  0  0  0  0  0  0  0  0  0
  -25.9850  -15.5050   20.2640 N   0  0  0  0  0  0  0  0  0  0  0  0
  -25.2430  -16.1660   20.4710 H   0  0  0  0  0  0  0  0  0  0  0  0
  -26.8040  -15.9280   19.8450 H   0  0  0  0  0  0  0  0  0  0  0  0
  1 60  1  0
  1 12  1  0
  1  3  1  0
  2  6  1  0
  3  5  1  0
  3  2  1  0
  4  2  1  0
  6  7  1  0
  7  8  1  0
  8  9  1  0
 10  8  1  0
 11  8  1  0
 12 14  2  0
 13 15  1  0
 13 12  1  0
 16 13  1  0
 17 16  1  0
 18 17  1  0
 19 18  1  0
 19 21  1  0
 20 31  2  0
 21 26  1  0
 22 29  1  0
 22 32  1  0
 22 30  1  0
 23 29  1  0
 23 25  1  0
 24 30  1  0
 25 24  1  0
 26 25  2  0
 27 28  1  0
 27 21  2  0
 28 23  2  0
 30 20  1  0
 32 33  1  0
 32 34  1  0
 34  4  1  0
 35 33  1  0
 36 45  2  0
 36 41  1  0
 37 33  1  0
 37 41  1  0
 38 37  1  0
 39 40  1  0
 39 38  1  0
 40 36  1  0
 41 42  2  0
 42 43  1  0
 44 43  2  0
 45 44  1  0
 46 20  1  0
 46 47  1  0
 46 51  1  0
 47 48  1  1
 47 50  1  0
 49 47  1  0
 51 54  1  0
 52 51  1  0
 52 56  1  0
 53 52  2  0
 56 55  1  0
 56 58  1  0
 58 59  1  0
 58 57  1  0
 60 61  1  0
 61 63  1  0
 61 62  1  0
 64 61  1  0
 65 64  1  0
 65 66  1  0
 67 66  1  0
 67 68  1  0
 69 75  1  0
 70 75  1  0
 71 72  1  0
 71 70  1  0
 73 72  1  0
 73 82  1  0
 73 74  1  0
 75 74  1  0
 76 69  2  0
 77 69  1  0
 77 68  1  0
 78 77  1  0
 79 80  2  0
 80 99  1  0
 81 84  1  0
 81 80  1  0
 82 83  1  0
 82 79  1  0
 83 81  2  0
 84 85  1  0
 85 86  2  0
 87 90  1  0
 87 86  1  0
 88 87  2  0
 89 88  1  0
 89 84  2  0
 90 91  1  0
 91 92  1  0
 92 93  2  0
 94 93  1  0
 94 98  1  0
 95 94  2  0
 96 91  2  0
 96 95  1  0
 97 96  1  0
 99100  1  0
100102  1  0
100103  1  0
101 99  2  0
104 79  1  0
104105  1  0
106104  1  0
M  ISO  4  18 101  19 101  69 100  77 100
M  END
>  <TORSDO>  (92) 
F 31

>  <SCORE>  (92) 
-4.859

>  <name>  (92) 
97

>  <ligand_id>  (92) 
97

>  <original_smiles>  (92) 
[H]c1c([H])c([H])c2c(c1[H])C([H])([H])C([H])([H])C([H])([H])C2([H])N([H])C(=O)C1([H])N(C(=O)C([H])(N([H])C(=O)C([H])(N([H])C([H])([H])[H])C([H])([H])[H])C(C([H])([H])[H])(C([H])([H])[H])C([H])([H])[H])C([H])([H])c2c([H])c(OC([H])([H])C([H])([H])C([H])([H])N([H])C(=O)C([H])(N([H])C(=O)C([H])([H])C([H])([H])[N+]([H])([H])[H])C([H])([H])[N+]([H])([H])C([H])([H])C([H])([H])C([H])([H])C([H])([H])C([H])([H])N([H])C(=O)N3C([H])([H])C([H])([H])C([H])([H])C([H])(n4nc(-c5c([H])c([H])c(Oc6c([H])c([H])c(F)c([H])c6F)c([H])c5[H])c(C(=O)N([H])[H])c4N([H])[H])C3([H])[H])c([H])c([H])c2C1([H])[H]

>  <smiles>  (92) 
[H]c1c([H])c([H])c2c(c1[H])C([H])([H])C([H])([H])C([H])([H])C2([H])N([H])C(=O)C1([H])N(C(=O)C([H])(N([H])C(=O)C([H])(N([H])C([H])([H])[H])C([H])([H])[H])C(C([H])([H])[H])(C([H])([H])[H])C([H])([H])[H])C([H])([H])c2c([H])c(OC([H])([H])C([H])([H])C([H])([H])N([H])C(=O)C([H])(N([H])C(=O)C([H])([H])C([H])([H])[N+]([H])([H])[H])C([H])([H])[N+]([H])([H])C([H])([H])C([H])([H])C([H])([H])C([H])([H])C([H])([H])N([H])C(=O)N3C([H])([H])C([H])([H])C([H])([H])C([H])(n4nc(-c5c([H])c([H])c(Oc6c([H])c([H])c(F)c([H])c6F)c([H])c5[H])c(C(=O)N([H])[H])c4N([H])[H])C3([H])[H])c([H])c([H])c2C1([H])[H]

$$$$
98:0:0
     RDKit          3D

108115  0  0  1  0  0  0  0  0999 V2000
  -34.6090  -20.8230   22.7670 C   0  0  0  0  0  0  0  0  0  0  0  0
  -35.1360  -19.7150   22.2310 N   0  0  0  0  0  0  0  0  0  0  0  0
  -33.4510  -21.1870   22.5530 O   0  0  0  0  0  0  0  0  0  0  0  0
  -36.1050  -19.5280   22.4590 H   0  0  0  0  0  0  0  0  0  0  0  0
  -34.3860  -18.6230   21.6130 C   0  0  0  0  0  2  0  0  0  0  0  0
  -33.9060  -18.8990   20.1780 C   0  0  0  0  0  2  0  0  0  0  0  0
  -34.9810  -18.6900   19.0870 C   0  0  0  0  0  2  0  0  0  0  0  0
  -34.6820  -19.3750   17.7330 C   0  0  0  0  0  2  0  0  0  0  0  0
  -33.7290  -18.6170   16.7880 C   0  0  0  0  0  2  0  0  0  0  0  0
  -32.3590  -18.3540   17.4160 C   0  0  0  0  0  2  0  0  0  0  0  0
  -31.1960  -18.0790   16.4450 C   0  0  0  0  0  2  0  0  0  0  0  0
  -29.9020  -17.5790   17.1440 C   0  0  0  0  0  2  0  0  0  0  0  0
  -29.1800  -17.1860   19.5110 C   0  0  0  0  0  0  0  0  0  0  0  0
  -29.9740  -17.7440   18.5970 N   0  0  0  0  0  0  0  0  0  0  0  0
  -28.1280  -16.6150   19.2190 O   0  0  0  0  0  0  0  0  0  0  0  0
  -30.7970  -18.2180   18.9430 H   0  0  0  0  0  0  0  0  0  0  0  0
  -29.6740  -17.2660   20.9650 C   0  0  0  0  0  2  0  0  0  0  0  0
  -29.3860  -16.0110   21.8310 C   0  0  0  0  0  2  0  0  0  0  0  0
  -30.7780  -14.3270   20.6770 C   0  0  0  0  0  0  0  0  0  0  0  0
  -30.4060  -12.3070   19.3160 C   0  0  0  0  0  2  0  0  0  0  0  0
  -29.4340  -12.5690   18.1530 C   0  0  0  0  0  2  0  0  0  0  0  0
  -27.9720  -12.4130   18.6000 C   0  0  0  0  0  2  0  0  0  0  0  0
  -27.6700  -13.1850   19.9070 C   0  0  0  0  0  3  0  0  0  0  0  0
  -28.7330  -12.8720   20.9850 C   0  0  0  0  0  2  0  0  0  0  0  0
  -30.0550  -13.2070   20.4240 N   0  0  0  0  0  0  0  0  0  0  0  0
  -31.7940  -14.6370   20.0510 O   0  0  0  0  0  0  0  0  0  0  0  0
  -30.4550  -15.0030   21.7820 N   0  0  0  0  0  0  0  0  0  0  0  0
  -31.2900  -15.3280   22.2470 H   0  0  0  0  0  0  0  0  0  0  0  0
  -25.2680  -13.8140   20.5830 C   0  0  0  0  0  0  0  0  0  0  0  0
  -24.1890  -13.0460   20.9190 C   0  0  0  0  0  0  0  0  0  0  0  0
  -24.6370  -11.6890   20.8730 C   0  0  0  0  0  0  0  0  0  0  0  0
  -26.3090  -12.9250   20.3600 N   0  0  0  0  0  0  0  0  0  0  0  0
  -25.9290  -11.6420   20.5840 N   0  0  0  0  0  0  0  0  0  0  0  0
  -23.9050  -10.4290   21.0400 C   0  0  0  0  0  0  0  0  0  0  0  0
  -24.3650   -9.4220   21.9180 C   0  0  0  0  0  3  0  0  0  0  0  0
  -23.6340   -8.2260   22.0750 C   0  0  0  0  0  3  0  0  0  0  0  0
  -22.4310   -8.0290   21.3560 C   0  0  0  0  0  0  0  0  0  0  0  0
  -21.9940   -9.0260   20.4660 C   0  0  0  0  0  3  0  0  0  0  0  0
  -22.7240  -10.2130   20.3040 C   0  0  0  0  0  3  0  0  0  0  0  0
  -21.6720   -6.8860   21.4210 O   0  0  0  0  0  0  0  0  0  0  0  0
  -21.6880   -6.0750   22.5270 C   0  0  0  0  0  0  0  0  0  0  0  0
  -21.4010   -6.5660   23.8190 C   0  0  0  0  0  3  0  0  0  0  0  0
  -21.3620   -5.6830   24.9180 C   0  0  0  0  0  3  0  0  0  0  0  0
  -21.6040   -4.3090   24.7280 C   0  0  0  0  0  0  0  0  0  0  0  0
  -21.8820   -3.8170   23.4400 C   0  0  0  0  0  3  0  0  0  0  0  0
  -21.9200   -4.6970   22.3430 C   0  0  0  0  0  0  0  0  0  0  0  0
  -22.1660   -4.2130   21.1030 F   0  0  0  0  0  0  0  0  0  0  0  0
  -21.5660   -3.4580   25.7790 F   0  0  0  0  0  0  0  0  0  0  0  0
  -22.7900  -13.5230   21.1870 C   0  0  0  0  0  0  0  0  0  0  0  0
  -22.0610  -12.8180   22.0430 N   0  0  0  0  0  0  0  0  0  0  0  0
  -22.3570  -14.5520   20.6700 O   0  0  0  0  0  0  0  0  0  0  0  0
  -22.4380  -11.9830   22.4690 H   0  0  0  0  0  0  0  0  0  0  0  0
  -21.1200  -13.1090   22.2720 H   0  0  0  0  0  0  0  0  0  0  0  0
  -25.4590  -15.1860   20.4230 N   0  0  0  0  0  0  0  0  0  0  0  0
  -24.7220  -15.8730   20.5290 H   0  0  0  0  0  0  0  0  0  0  0  0
  -26.3350  -15.5820   20.0910 H   0  0  0  0  0  0  0  0  0  0  0  0
  -35.5180  -21.5800   23.7420 C   0  0  0  0  0  2  0  0  0  0  0  0
  -35.1270  -23.0350   24.0710 C   0  0  0  0  0  2  0  0  0  0  0  0
  -35.0140  -23.9950   22.8710 C   0  0  0  0  0  2  0  0  0  0  0  0
  -34.8810  -25.4600   23.3320 C   0  0  0  0  0  2  0  0  0  0  0  0
  -34.3130  -26.4190   22.2690 C   0  0  0  0  0  2  0  0  0  0  0  0
  -32.1440  -26.7850   21.1030 C   0  0  0  0  0  0  0  0  0  0  0  0
  -32.9110  -26.1120   21.9730 N   0  0  0  0  0  0  0  0  0  0  0  0
  -32.5460  -27.8060   20.5370 O   0  0  0  0  0  0  0  0  0  0  0  0
  -32.5110  -25.3030   22.4350 H   0  0  0  0  0  0  0  0  0  0  0  0
  -30.7570  -26.2070   20.7680 C   0  0  0  0  0  2  0  0  0  0  0  0
  -29.6020  -27.2320   20.8080 C   0  0  0  0  0  2  0  0  0  0  0  0
  -28.4450  -26.7320   20.1100 O   0  0  0  0  0  0  0  0  0  0  0  0
  -24.6070  -31.8690   23.2130 C   0  0  0  0  0  0  0  0  0  0  0  0
  -27.2890  -27.4890   20.1340 C   0  0  0  0  0  0  0  0  0  0  0  0
  -23.3980  -30.4820   21.5480 C   0  0  0  0  0  3  0  0  0  0  0  0
  -24.8610  -28.9530   20.1160 C   0  0  0  0  0  0  0  0  0  0  0  0
  -25.9120  -30.8610   21.3500 C   0  0  0  0  0  2  0  0  0  0  0  0
  -26.0040  -29.4900   20.7190 C   0  0  0  0  0  0  0  0  0  0  0  0
  -27.2080  -28.7660   20.7370 C   0  0  0  0  0  3  0  0  0  0  0  0
  -26.1290  -26.9580   19.5230 C   0  0  0  0  0  3  0  0  0  0  0  0
  -24.9180  -27.6830   19.5120 C   0  0  0  0  0  3  0  0  0  0  0  0
  -23.6100  -29.8020   20.1630 C   0  0  0  0  0  2  0  0  0  0  0  0
  -24.6570  -31.0850   22.0980 N   0  0  0  0  0  0  0  0  0  0  0  0
  -23.5270  -32.1380   23.7550 O   0  0  0  0  0  0  0  0  0  0  0  0
  -22.7390  -29.4630   22.5040 C   0  0  0  0  0  0  0  0  0  0  0  0
  -21.4140  -29.2990   22.3770 N   0  0  0  0  0  0  0  0  0  0  0  0
  -23.4190  -28.8200   23.3090 O   0  0  0  0  0  0  0  0  0  0  0  0
  -20.9330  -29.8660   21.6940 H   0  0  0  0  0  0  0  0  0  0  0  0
  -18.0250  -28.1380   22.8450 C   0  0  0  0  0  0  0  0  0  0  0  0
  -20.5850  -28.3640   23.1350 C   0  0  0  0  0  3  0  0  0  0  0  0
  -20.6760  -26.9370   22.5450 C   0  0  0  0  0  2  0  0  0  0  0  0
  -19.5760  -26.6380   21.5220 C   0  0  0  0  0  2  0  0  0  0  0  0
  -18.1910  -26.7930   22.1580 C   0  0  0  0  0  2  0  0  0  0  0  0
  -19.1500  -28.8830   23.2890 C   0  0  0  0  0  0  0  0  0  0  0  0
  -18.9430  -30.1430   23.8910 C   0  0  0  0  0  3  0  0  0  0  0  0
  -17.6440  -30.6580   24.0550 C   0  0  0  0  0  3  0  0  0  0  0  0
  -16.5330  -29.9090   23.6330 C   0  0  0  0  0  3  0  0  0  0  0  0
  -16.7240  -28.6510   23.0320 C   0  0  0  0  0  3  0  0  0  0  0  0
  -25.8970  -32.4850   23.8410 C   0  0  0  0  0  3  0  0  0  0  0  0
  -26.4460  -31.6570   25.0660 C   0  0  1  0  0  0  0  0  0  0  0  0
  -25.3790  -31.3640   26.1450 C   0  0  0  0  0  1  0  0  0  0  0  0
  -27.0250  -30.3030   24.5930 C   0  0  0  0  0  1  0  0  0  0  0  0
  -27.6050  -32.4290   25.7400 C   0  0  0  0  0  1  0  0  0  0  0  0
  -25.5850  -33.8630   24.2360 N   0  0  0  0  0  0  0  0  0  0  0  0
  -25.9010  -34.9480   23.5150 C   0  0  0  0  0  0  0  0  0  0  0  0
  -26.5560  -34.8930   22.4710 O   0  0  0  0  0  0  0  0  0  0  0  0
  -24.9970  -33.9790   25.0480 H   0  0  0  0  0  0  0  0  0  0  0  0
  -24.1480  -36.7330   23.2640 C   0  0  0  0  0  1  0  0  0  0  0  0
  -25.4100  -36.3130   24.0350 C   0  0  0  0  0  3  0  0  0  0  0  0
  -27.5590  -37.1800   24.8450 C   0  0  0  0  0  1  0  0  0  0  0  0
  -26.4280  -37.3810   23.9430 N   0  0  0  0  0  0  0  0  0  0  0  0
  -26.0190  -38.2870   24.1510 H   0  0  0  0  0  0  0  0  0  0  0  0
  1 57  1  0
  2  4  1  0
  2  1  1  0
  3  1  2  0
  5  2  1  0
  6  5  1  0
  7  6  1  0
  8  7  1  0
  9 10  1  0
  9  8  1  0
 11 12  1  0
 11 10  1  0
 12 14  1  0
 13 17  1  0
 14 16  1  0
 14 13  1  0
 15 13  2  0
 17 18  1  0
 19 27  1  0
 20 25  1  0
 21 22  1  0
 21 20  1  0
 23 22  1  0
 23 32  1  0
 23 24  1  0
 25 19  1  0
 25 24  1  0
 26 19  2  0
 27 18  1  0
 27 28  1  0
 29 30  2  0
 30 49  1  0
 31 30  1  0
 31 34  1  0
 32 29  1  0
 32 33  1  0
 33 31  2  0
 34 35  1  0
 35 36  2  0
 37 40  1  0
 37 36  1  0
 38 37  2  0
 39 38  1  0
 39 34  2  0
 40 41  1  0
 41 42  1  0
 42 43  2  0
 44 43  1  0
 44 48  1  0
 45 44  2  0
 46 41  2  0
 46 45  1  0
 47 46  1  0
 49 50  1  0
 50 53  1  0
 50 52  1  0
 51 49  2  0
 54 55  1  0
 54 29  1  0
 56 54  1  0
 57 58  1  0
 59 60  1  0
 59 58  1  0
 61 60  1  0
 62 63  1  0
 63 61  1  0
 63 65  1  0
 64 62  2  0
 66 67  1  0
 66 62  1  0
 68 70  1  0
 68 67  1  0
 69 80  2  0
 70 75  1  0
 71 79  1  0
 71 81  1  0
 72 78  1  0
 72 74  1  0
 73 79  1  0
 74 75  2  0
 74 73  1  0
 76 70  2  0
 77 76  1  0
 77 72  2  0
 78 71  1  0
 79 69  1  0
 81 83  2  0
 82 81  1  0
 84 82  1  0
 85 94  2  0
 85 90  1  0
 86 82  1  0
 86 90  1  0
 87 86  1  0
 88 89  1  0
 88 87  1  0
 89 85  1  0
 90 91  2  0
 91 92  1  0
 93 92  2  0
 94 93  1  0
 95 69  1  0
 95100  1  0
 95 96  1  0
 96 99  1  1
 96 97  1  0
 98 96  1  0
100103  1  0
101105  1  0
101100  1  0
102101  2  0
105104  1  0
107105  1  0
107108  1  0
107106  1  0
M  ISO  4  19 100  27 100  67 101  68 101
M  END
>  <TORSDO>  (93) 
F 35

>  <SCORE>  (93) 
1.028

>  <name>  (93) 
98

>  <ligand_id>  (93) 
98

>  <original_smiles>  (93) 
[H]c1c([H])c([H])c2c(c1[H])C([H])([H])C([H])([H])C([H])([H])C2([H])N([H])C(=O)C1([H])N(C(=O)C([H])(N([H])C(=O)C([H])(N([H])C([H])([H])[H])C([H])([H])[H])C(C([H])([H])[H])(C([H])([H])[H])C([H])([H])[H])C([H])([H])c2c([H])c(OC([H])([H])C([H])([H])C(=O)N([H])C([H])([H])C([H])([H])C([H])([H])C([H])([H])C([H])([H])C(=O)N([H])C([H])([H])C([H])([H])C([H])([H])C([H])([H])C([H])([H])C([H])([H])C([H])([H])C([H])([H])N([H])C(=O)C([H])([H])C([H])([H])N([H])C(=O)N3C([H])([H])C([H])([H])C([H])([H])C([H])(n4nc(-c5c([H])c([H])c(Oc6c([H])c([H])c(F)c([H])c6F)c([H])c5[H])c(C(=O)N([H])[H])c4N([H])[H])C3([H])[H])c([H])c([H])c2C1([H])[H]

>  <smiles>  (93) 
[H]c1c([H])c([H])c2c(c1[H])C([H])([H])C([H])([H])C([H])([H])C2([H])N([H])C(=O)C1([H])N(C(=O)C([H])(N([H])C(=O)C([H])(N([H])C([H])([H])[H])C([H])([H])[H])C(C([H])([H])[H])(C([H])([H])[H])C([H])([H])[H])C([H])([H])c2c([H])c(OC([H])([H])C([H])([H])C(=O)N([H])C([H])([H])C([H])([H])C([H])([H])C([H])([H])C([H])([H])C(=O)N([H])C([H])([H])C([H])([H])C([H])([H])C([H])([H])C([H])([H])C([H])([H])C([H])([H])C([H])([H])N([H])C(=O)C([H])([H])C([H])([H])N([H])C(=O)N3C([H])([H])C([H])([H])C([H])([H])C([H])(n4nc(-c5c([H])c([H])c(Oc6c([H])c([H])c(F)c([H])c6F)c([H])c5[H])c(C(=O)N([H])[H])c4N([H])[H])C3([H])[H])c([H])c([H])c2C1([H])[H]

$$$$
