0:0:0
     RDKit          3D

116122  0  0  1  0  0  0  0  0999 V2000
  -27.8710  -22.0620   22.6600 C   0  0  0  0  0  0  0  0  0  0  0  0
  -26.9160  -22.9770   22.4640 N   0  0  0  0  0  0  0  0  0  0  0  0
  -27.9030  -21.0010   22.0320 O   0  0  0  0  0  0  0  0  0  0  0  0
  -26.9390  -23.8200   23.0230 H   0  0  0  0  0  0  0  0  0  0  0  0
  -25.8470  -22.8550   21.4700 C   0  0  0  0  0  2  0  0  0  0  0  0
  -26.3250  -23.2390   20.0710 C   0  0  0  0  0  0  0  0  0  0  0  0
  -26.4330  -24.5460   19.8310 N   0  0  0  0  0  0  0  0  0  0  0  0
  -26.6030  -22.3840   19.2300 O   0  0  0  0  0  0  0  0  0  0  0  0
  -26.2110  -25.1890   20.5790 H   0  0  0  0  0  0  0  0  0  0  0  0
  -26.8410  -25.1340   18.5570 C   0  0  0  0  0  2  0  0  0  0  0  0
  -28.2340  -25.7670   18.6110 C   0  0  0  0  0  0  0  0  0  0  0  0
  -28.9940  -25.5650   19.7010 N   0  0  0  0  0  0  0  0  0  0  0  0
  -28.6050  -26.4770   17.6730 O   0  0  0  0  0  0  0  0  0  0  0  0
  -28.6030  -25.0070   20.4470 H   0  0  0  0  0  0  0  0  0  0  0  0
  -30.2030  -26.3350   19.9460 C   0  0  0  0  0  2  0  0  0  0  0  0
  -31.2290  -25.7310   20.9360 C   0  0  0  0  0  2  0  0  0  0  0  0
  -32.1100  -26.8120   21.6720 C   0  0  0  0  0  2  0  0  0  0  0  0
  -31.9850  -28.0880   22.3740 O   0  0  0  0  0  0  0  0  0  0  0  0
  -26.7920  -30.4790   26.5720 C   0  0  0  0  0  0  0  0  0  0  0  0
  -30.7780  -28.7820   22.4050 C   0  0  0  0  0  0  0  0  0  0  0  0
  -26.2270  -30.2780   24.1730 C   0  0  0  0  0  3  0  0  0  0  0  0
  -28.2010  -29.9380   22.6000 C   0  0  0  0  0  0  0  0  0  0  0  0
  -28.6280  -30.7500   24.9210 C   0  0  0  0  0  2  0  0  0  0  0  0
  -29.0950  -30.0280   23.6750 C   0  0  0  0  0  0  0  0  0  0  0  0
  -30.3790  -29.4390   23.5910 C   0  0  0  0  0  3  0  0  0  0  0  0
  -29.8930  -28.7980   21.3040 C   0  0  0  0  0  3  0  0  0  0  0  0
  -28.5930  -29.3150   21.4100 C   0  0  0  0  0  3  0  0  0  0  0  0
  -26.8360  -30.5600   22.7750 C   0  0  0  0  0  2  0  0  0  0  0  0
  -27.2180  -30.4730   25.2790 N   0  0  0  0  0  0  0  0  0  0  0  0
  -25.5900  -30.3620   26.8520 O   0  0  0  0  0  0  0  0  0  0  0  0
  -25.5970  -28.8660   24.1660 C   0  0  0  0  0  0  0  0  0  0  0  0
  -24.7470  -28.5960   23.1620 N   0  0  0  0  0  0  0  0  0  0  0  0
  -25.8900  -28.0390   25.0330 O   0  0  0  0  0  0  0  0  0  0  0  0
  -24.5540  -29.3300   22.4960 H   0  0  0  0  0  0  0  0  0  0  0  0
  -22.7130  -26.7570   20.8070 C   0  0  0  0  0  0  0  0  0  0  0  0
  -24.0560  -27.3240   22.9420 C   0  0  0  0  0  3  0  0  0  0  0  0
  -25.0390  -26.2170   22.4940 C   0  0  0  0  0  2  0  0  0  0  0  0
  -25.1420  -26.0730   20.9710 C   0  0  0  0  0  2  0  0  0  0  0  0
  -23.7700  -25.7610   20.3680 C   0  0  0  0  0  2  0  0  0  0  0  0
  -22.8510  -27.4970   22.0120 C   0  0  0  0  0  0  0  0  0  0  0  0
  -21.8480  -28.4280   22.3600 C   0  0  0  0  0  3  0  0  0  0  0  0
  -20.7250  -28.6190   21.5350 C   0  0  0  0  0  3  0  0  0  0  0  0
  -20.5880  -27.8730   20.3530 C   0  0  0  0  0  3  0  0  0  0  0  0
  -21.5770  -26.9420   19.9920 C   0  0  0  0  0  3  0  0  0  0  0  0
  -27.7910  -30.6640   27.7600 C   0  0  0  0  0  3  0  0  0  0  0  0
  -27.6600  -29.5420   28.8600 C   0  0  1  0  0  0  0  0  0  0  0  0
  -26.2070  -29.3110   29.3340 C   0  0  0  0  0  1  0  0  0  0  0  0
  -28.2120  -28.1930   28.3420 C   0  0  0  0  0  1  0  0  0  0  0  0
  -28.5150  -29.9180   30.0950 C   0  0  0  0  0  1  0  0  0  0  0  0
  -27.5500  -31.9930   28.3350 N   0  0  0  0  0  0  0  0  0  0  0  0
  -28.3530  -33.0510   28.1620 C   0  0  0  0  0  0  0  0  0  0  0  0
  -29.4250  -32.9870   27.5540 O   0  0  0  0  0  0  0  0  0  0  0  0
  -26.6660  -32.1350   28.8030 H   0  0  0  0  0  0  0  0  0  0  0  0
  -27.4050  -35.3160   27.6290 C   0  0  0  0  0  1  0  0  0  0  0  0
  -27.8940  -34.3950   28.7570 C   0  0  0  0  0  3  0  0  0  0  0  0
  -29.2780  -34.3900   30.7860 C   0  0  0  0  0  1  0  0  0  0  0  0
  -28.9440  -35.0790   29.5420 N   0  0  0  0  0  0  0  0  0  0  0  0
  -28.6600  -36.0280   29.7710 H   0  0  0  0  0  0  0  0  0  0  0  0
  -28.9490  -22.3840   23.7060 C   0  0  0  0  0  2  0  0  0  0  0  0
  -30.9720  -20.9600   23.4020 C   0  0  0  0  0  0  0  0  0  0  0  0
  -30.2820  -22.0810   23.1810 N   0  0  0  0  0  0  0  0  0  0  0  0
  -30.6440  -20.1270   24.2510 O   0  0  0  0  0  0  0  0  0  0  0  0
  -30.6350  -22.7090   22.4740 H   0  0  0  0  0  0  0  0  0  0  0  0
  -32.2100  -20.7290   22.5290 C   0  0  0  0  0  2  0  0  0  0  0  0
  -31.5440  -18.7310   21.2140 C   0  0  0  0  0  0  0  0  0  0  0  0
  -32.3040  -19.3210   22.1460 N   0  0  0  0  0  0  0  0  0  0  0  0
  -30.7510  -19.3570   20.5090 O   0  0  0  0  0  0  0  0  0  0  0  0
  -32.9160  -18.7440   22.7070 H   0  0  0  0  0  0  0  0  0  0  0  0
  -31.6710  -17.2160   21.0610 C   0  0  0  0  0  2  0  0  0  0  0  0
  -30.5490  -16.6750   20.2630 N   0  0  0  0  0  4  0  0  0  0  0  0
  -30.6300  -17.0090   19.3160 H   0  0  0  0  0  0  0  0  0  0  0  0
  -29.7210  -17.1000   20.6500 H   0  0  0  0  0  0  0  0  0  0  0  0
  -30.4450  -15.1980   20.3090 C   0  0  0  0  0  2  0  0  0  0  0  0
  -29.2370  -14.6120   19.5360 C   0  0  0  0  0  2  0  0  0  0  0  0
  -29.3260  -13.1070   18.9320 C   0  0  0  0  0  1  0  0  0  0  0  0
  -28.7290  -10.5380   19.8780 C   0  0  0  0  0  1  0  0  0  0  0  0
  -29.5690   -9.4990   20.8610 C   0  0  0  0  0  2  0  0  0  0  0  0
  -30.3110   -9.9000   22.2230 C   0  0  0  0  0  2  0  0  0  0  0  0
  -31.3540  -12.0750   21.4870 C   0  0  0  0  0  0  0  0  0  0  0  0
  -30.7260  -11.3970   19.1080 C   0  0  0  0  0  2  0  0  0  0  0  0
  -29.3140  -11.3250   17.7600 C   0  0  0  0  0  3  0  0  0  0  0  0
  -27.4860  -11.7820   18.2980 C   0  0  0  0  0  3  0  0  0  0  0  0
  -27.2300  -12.4780   20.0880 C   0  0  0  0  0  0  0  0  0  0  0  0
  -28.6920  -12.4370   21.3580 C   0  0  0  0  0  3  0  0  0  0  0  0
  -30.3280  -12.0250   20.7540 N   0  0  0  0  0  0  0  0  0  0  0  0
  -32.2880  -12.8170   21.2020 O   0  0  0  0  0  0  0  0  0  0  0  0
  -31.4080  -10.9190   22.1640 N   0  0  0  0  0  0  0  0  0  0  0  0
  -32.2750  -10.7150   22.6470 H   0  0  0  0  0  0  0  0  0  0  0  0
  -25.0630  -13.1850   20.9600 C   0  0  0  0  0  0  0  0  0  0  0  0
  -23.9370  -12.4650   21.1670 C   0  0  0  0  0  0  0  0  0  0  0  0
  -24.2990  -11.0900   21.0130 C   0  0  0  0  0  0  0  0  0  0  0  0
  -25.9920  -12.2300   20.6510 N   0  0  0  0  0  0  0  0  0  0  0  0
  -25.5750  -10.9630   20.7470 N   0  0  0  0  0  0  0  0  0  0  0  0
  -23.5000   -9.8770   21.0190 C   0  0  0  0  0  0  0  0  0  0  0  0
  -23.7870   -8.8210   21.9080 C   0  0  0  0  0  3  0  0  0  0  0  0
  -22.9800   -7.6700   21.9160 C   0  0  0  0  0  3  0  0  0  0  0  0
  -21.8800   -7.5770   21.0320 C   0  0  0  0  0  0  0  0  0  0  0  0
  -21.6280   -8.6180   20.1200 C   0  0  0  0  0  3  0  0  0  0  0  0
  -22.4360   -9.7610   20.1080 C   0  0  0  0  0  3  0  0  0  0  0  0
  -21.0370   -6.4960   20.9650 O   0  0  0  0  0  0  0  0  0  0  0  0
  -20.7440   -5.7500   22.0730 C   0  0  0  0  0  0  0  0  0  0  0  0
  -20.1640   -6.3220   23.2270 C   0  0  0  0  0  3  0  0  0  0  0  0
  -19.8180   -5.5000   24.3180 C   0  0  0  0  0  3  0  0  0  0  0  0
  -20.0450   -4.1110   24.2520 C   0  0  0  0  0  0  0  0  0  0  0  0
  -20.6200   -3.5430   23.1020 C   0  0  0  0  0  3  0  0  0  0  0  0
  -20.9680   -4.3620   22.0160 C   0  0  0  0  0  0  0  0  0  0  0  0
  -21.5050   -3.8110   20.9010 F   0  0  0  0  0  0  0  0  0  0  0  0
  -19.7010   -3.3190   25.2960 F   0  0  0  0  0  0  0  0  0  0  0  0
  -22.5770  -13.0380   21.3640 C   0  0  0  0  0  0  0  0  0  0  0  0
  -21.7450  -12.3430   22.1240 N   0  0  0  0  0  0  0  0  0  0  0  0
  -22.2720  -14.1310   20.8860 O   0  0  0  0  0  0  0  0  0  0  0  0
  -22.0260  -11.4640   22.5290 H   0  0  0  0  0  0  0  0  0  0  0  0
  -20.8180  -12.7000   22.3070 H   0  0  0  0  0  0  0  0  0  0  0  0
  -25.3600  -14.5510   20.9330 N   0  0  0  0  0  0  0  0  0  0  0  0
  -24.6480  -15.2560   21.0870 H   0  0  0  0  0  0  0  0  0  0  0  0
  -26.2720  -14.9390   20.7390 H   0  0  0  0  0  0  0  0  0  0  0  0
  1 59  1  0
  2  1  1  0
  2  4  1  0
  3  1  2  0
  5  2  1  0
  6  5  1  0
  7  6  1  0
  7  9  1  0
  8  6  2  0
 10 11  1  0
 10  7  1  0
 11 12  1  0
 12 15  1  0
 12 14  1  0
 13 11  2  0
 15 16  1  0
 16 17  1  0
 17 18  1  0
 18 20  1  0
 19 30  2  0
 20 25  1  0
 21 31  1  0
 21 29  1  0
 22 28  1  0
 22 24  1  0
 23 29  1  0
 24 23  1  0
 25 24  2  0
 26 27  1  0
 26 20  2  0
 27 22  2  0
 28 21  1  0
 29 19  1  0
 31 33  2  0
 32 31  1  0
 34 32  1  0
 35 40  1  0
 36 32  1  0
 37 36  1  0
 38 37  1  0
 39 35  1  0
 39 38  1  0
 40 41  2  0
 40 36  1  0
 42 41  1  0
 43 42  2  0
 44 43  1  0
 44 35  2  0
 45 19  1  0
 45 50  1  0
 45 46  1  0
 46 47  1  1
 46 49  1  0
 48 46  1  0
 50 53  1  0
 51 50  1  0
 51 55  1  0
 52 51  2  0
 55 54  1  0
 55 57  1  0
 57 58  1  0
 57 56  1  0
 60 62  2  0
 61 60  1  0
 61 59  1  0
 63 61  1  0
 64 60  1  0
 65 66  1  0
 66 64  1  0
 66 68  1  0
 67 65  2  0
 69 65  1  0
 70 73  1  0
 70 72  1  0
 70 69  1  0
 71 70  1  0
 74 73  1  0
 75 74  1  0
 76 77  1  0
 77 78  1  0
 79 87  1  0
 80 85  1  0
 81 82  2  0
 81 80  1  0
 82 83  1  0
 83 92  1  0
 83 84  2  0
 85 84  1  0
 85 79  1  0
 86 79  2  0
 87 78  1  0
 87 88  1  0
 89 90  2  0
 90109  1  0
 91 94  1  0
 91 90  1  0
 92 93  1  0
 92 89  1  0
 93 91  2  0
 94 95  1  0
 95 96  2  0
 97 96  1  0
 98 97  2  0
 99 98  1  0
 99 94  2  0
100 97  1  0
100101  1  0
101102  1  0
102103  2  0
104103  1  0
104108  1  0
105104  2  0
106101  2  0
106105  1  0
107106  1  0
109110  1  0
110113  1  0
110112  1  0
111109  2  0
114 89  1  0
114115  1  0
116114  1  0
M  ISO  4  17 101  18 101  79 100  87 100
M  END
>  <TORSDO>  (1) 
F 35

>  <SCORE>  (1) 
-3.541

>  <name>  (1) 
0

>  <ligand_id>  (1) 
0

>  <original_smiles>  (1) 
[H]c1c([H])c([H])c2c(c1[H])C([H])([H])C([H])([H])C([H])([H])C2([H])N([H])C(=O)C1([H])N(C(=O)C([H])(N([H])C(=O)C([H])(N([H])C([H])([H])[H])C([H])([H])[H])C(C([H])([H])[H])(C([H])([H])[H])C([H])([H])[H])C([H])([H])c2c([H])c(OC([H])([H])C([H])([H])C([H])([H])N([H])C(=O)C([H])([H])N([H])C(=O)C([H])([H])N([H])C(=O)C([H])([H])N([H])C(=O)C([H])([H])N([H])C(=O)C([H])([H])[N+]([H])([H])C([H])([H])C([H])([H])C([H])([H])C([H])([H])C([H])([H])C([H])([H])N([H])C(=O)N3C([H])([H])C([H])([H])C([H])([H])C([H])(n4nc(-c5c([H])c([H])c(Oc6c([H])c([H])c(F)c([H])c6F)c([H])c5[H])c(C(=O)N([H])[H])c4N([H])[H])C3([H])[H])c([H])c([H])c2C1([H])[H]

>  <smiles>  (1) 
[H]c1c([H])c([H])c2c(c1[H])C([H])([H])C([H])([H])C([H])([H])C2([H])N([H])C(=O)C1([H])N(C(=O)C([H])(N([H])C(=O)C([H])(N([H])C([H])([H])[H])C([H])([H])[H])C(C([H])([H])[H])(C([H])([H])[H])C([H])([H])[H])C([H])([H])c2c([H])c(OC([H])([H])C([H])([H])C([H])([H])N([H])C(=O)C([H])([H])N([H])C(=O)C([H])([H])N([H])C(=O)C([H])([H])N([H])C(=O)C([H])([H])N([H])C(=O)C([H])([H])[N+]([H])([H])C([H])([H])C([H])([H])C([H])([H])C([H])([H])C([H])([H])C([H])([H])N([H])C(=O)N3C([H])([H])C([H])([H])C([H])([H])C([H])(n4nc(-c5c([H])c([H])c(Oc6c([H])c([H])c(F)c([H])c6F)c([H])c5[H])c(C(=O)N([H])[H])c4N([H])[H])C3([H])[H])c([H])c([H])c2C1([H])[H]

$$$$
1:0:0
     RDKit          3D

111118  0  0  1  0  0  0  0  0999 V2000
  -23.6580  -20.0490   16.3120 C   0  0  0  0  0  0  0  0  0  0  0  0
  -24.4440  -21.0830   16.6220 N   0  0  0  0  0  0  0  0  0  0  0  0
  -23.0320  -20.0190   15.2530 O   0  0  0  0  0  0  0  0  0  0  0  0
  -24.9890  -21.0310   17.4720 H   0  0  0  0  0  0  0  0  0  0  0  0
  -24.4450  -22.3120   15.8300 C   0  0  0  0  0  2  0  0  0  0  0  0
  -25.3490  -23.4450   16.3490 C   0  0  0  0  0  2  0  0  0  0  0  0
  -25.8380  -23.3580   17.8020 C   0  0  0  0  0  2  0  0  0  0  0  0
  -27.1330  -24.1660   17.9690 C   0  0  0  0  0  2  0  0  0  0  0  0
  -27.4710  -24.4880   19.4290 C   0  0  0  0  0  2  0  0  0  0  0  0
  -28.1970  -23.3930   20.2370 C   0  0  0  0  0  2  0  0  0  0  0  0
  -28.8330  -23.8930   21.4810 N   0  0  0  0  0  4  0  0  0  0  0  0
  -29.6760  -24.3740   21.2220 H   0  0  0  0  0  0  0  0  0  0  0  0
  -29.1100  -23.1020   22.0410 H   0  0  0  0  0  0  0  0  0  0  0  0
  -28.0130  -24.7640   22.3520 C   0  0  0  0  0  2  0  0  0  0  0  0
  -28.8150  -25.9650   22.8980 C   0  0  0  0  0  2  0  0  0  0  0  0
  -29.6470  -26.7010   21.8220 C   0  0  0  0  0  2  0  0  0  0  0  0
  -28.9650  -26.7940   20.5740 O   0  0  0  0  0  0  0  0  0  0  0  0
  -24.7450  -31.7680   23.4730 C   0  0  0  0  0  0  0  0  0  0  0  0
  -27.7930  -27.5100   20.5470 C   0  0  0  0  0  0  0  0  0  0  0  0
  -23.7070  -30.3180   21.7550 C   0  0  0  0  0  3  0  0  0  0  0  0
  -25.3190  -28.8610   20.4230 C   0  0  0  0  0  0  0  0  0  0  0  0
  -26.2170  -30.7970   21.7220 C   0  0  0  0  0  2  0  0  0  0  0  0
  -26.4060  -29.4370   21.0940 C   0  0  0  0  0  0  0  0  0  0  0  0
  -27.6440  -28.7670   21.1690 C   0  0  0  0  0  3  0  0  0  0  0  0
  -26.7050  -26.9530   19.8490 C   0  0  0  0  0  3  0  0  0  0  0  0
  -25.4600  -27.6070   19.8040 C   0  0  0  0  0  3  0  0  0  0  0  0
  -24.0380  -29.6630   20.3890 C   0  0  0  0  0  2  0  0  0  0  0  0
  -24.9030  -30.9730   22.3780 N   0  0  0  0  0  0  0  0  0  0  0  0
  -23.6230  -31.9970   23.9440 O   0  0  0  0  0  0  0  0  0  0  0  0
  -23.0430  -29.2620   22.6660 C   0  0  0  0  0  0  0  0  0  0  0  0
  -21.7580  -28.9710   22.3990 N   0  0  0  0  0  0  0  0  0  0  0  0
  -23.6800  -28.7070   23.5650 O   0  0  0  0  0  0  0  0  0  0  0  0
  -21.3100  -29.4560   21.6350 H   0  0  0  0  0  0  0  0  0  0  0  0
  -18.4620  -27.4980   22.5360 C   0  0  0  0  0  0  0  0  0  0  0  0
  -20.9360  -27.9900   23.1040 C   0  0  0  0  0  3  0  0  0  0  0  0
  -21.2410  -26.5540   22.6050 C   0  0  0  0  0  2  0  0  0  0  0  0
  -20.2750  -26.0370   21.5390 C   0  0  0  0  0  2  0  0  0  0  0  0
  -18.8220  -26.1280   21.9990 C   0  0  0  0  0  2  0  0  0  0  0  0
  -19.4520  -28.3720   23.0560 C   0  0  0  0  0  0  0  0  0  0  0  0
  -19.0540  -29.6340   23.5490 C   0  0  0  0  0  3  0  0  0  0  0  0
  -17.7000  -30.0190   23.5300 C   0  0  0  0  0  3  0  0  0  0  0  0
  -16.7250  -29.1470   23.0190 C   0  0  0  0  0  3  0  0  0  0  0  0
  -17.1060  -27.8870   22.5250 C   0  0  0  0  0  3  0  0  0  0  0  0
  -25.9680  -32.4440   24.1770 C   0  0  0  0  0  3  0  0  0  0  0  0
  -26.3720  -31.7440   25.5320 C   0  0  1  0  0  0  0  0  0  0  0  0
  -25.1800  -31.5270   26.4900 C   0  0  0  0  0  1  0  0  0  0  0  0
  -27.0250  -30.3660   25.2620 C   0  0  0  0  0  1  0  0  0  0  0  0
  -27.4300  -32.5970   26.2680 C   0  0  0  0  0  1  0  0  0  0  0  0
  -25.6260  -33.8540   24.3990 N   0  0  0  0  0  0  0  0  0  0  0  0
  -26.0180  -34.8640   23.6130 C   0  0  0  0  0  0  0  0  0  0  0  0
  -26.7840  -34.7120   22.6560 O   0  0  0  0  0  0  0  0  0  0  0  0
  -24.9640  -34.0470   25.1370 H   0  0  0  0  0  0  0  0  0  0  0  0
  -24.3140  -36.6050   22.9990 C   0  0  0  0  0  1  0  0  0  0  0  0
  -25.4780  -36.2670   23.9420 C   0  0  0  0  0  3  0  0  0  0  0  0
  -27.5240  -37.2300   24.8980 C   0  0  0  0  0  1  0  0  0  0  0  0
  -26.5060  -37.3260   23.8550 N   0  0  0  0  0  0  0  0  0  0  0  0
  -26.0790  -38.2470   23.9110 H   0  0  0  0  0  0  0  0  0  0  0  0
  -23.5190  -18.8710   17.2840 C   0  0  0  0  0  2  0  0  0  0  0  0
  -25.2470  -19.6570   18.9660 C   0  0  0  0  0  0  0  0  0  0  0  0
  -24.5880  -18.7210   18.2690 N   0  0  0  0  0  0  0  0  0  0  0  0
  -24.9810  -20.8580   18.9160 O   0  0  0  0  0  0  0  0  0  0  0  0
  -24.9200  -17.7750   18.3730 H   0  0  0  0  0  0  0  0  0  0  0  0
  -26.4100  -19.1500   19.8330 C   0  0  0  0  0  2  0  0  0  0  0  0
  -28.2840  -18.4290   18.4520 C   0  0  0  0  0  0  0  0  0  0  0  0
  -27.7330  -19.3750   19.2320 N   0  0  0  0  0  0  0  0  0  0  0  0
  -27.5950  -17.5510   17.9240 O   0  0  0  0  0  0  0  0  0  0  0  0
  -28.2780  -20.1430   19.6050 H   0  0  0  0  0  0  0  0  0  0  0  0
  -29.7980  -18.3590   18.2510 C   0  0  0  0  0  2  0  0  0  0  0  0
  -31.2110  -16.6660   19.4480 C   0  0  0  0  0  0  0  0  0  0  0  0
  -30.1810  -17.0260   18.6840 N   0  0  0  0  0  0  0  0  0  0  0  0
  -32.1200  -17.4270   19.7810 O   0  0  0  0  0  0  0  0  0  0  0  0
  -29.4820  -16.3230   18.4630 H   0  0  0  0  0  0  0  0  0  0  0  0
  -31.1640  -15.2220   19.9220 C   0  0  0  0  0  2  0  0  0  0  0  0
  -32.8680  -13.5560   20.5160 C   0  0  0  0  0  0  0  0  0  0  0  0
  -32.4840  -11.1130   20.4710 C   0  0  0  0  0  2  0  0  0  0  0  0
  -31.6330  -10.7070   19.2530 C   0  0  0  0  0  2  0  0  0  0  0  0
  -30.1290  -10.8100   19.5790 C   0  0  0  0  0  2  0  0  0  0  0  0
  -29.7610  -12.1810   20.1980 C   0  0  0  0  0  3  0  0  0  0  0  0
  -30.7210  -12.5110   21.3670 C   0  0  0  0  0  2  0  0  0  0  0  0
  -32.1000  -12.4790   20.8530 N   0  0  0  0  0  0  0  0  0  0  0  0
  -34.0170  -13.4450   20.0860 O   0  0  0  0  0  0  0  0  0  0  0  0
  -32.3280  -14.7740   20.6940 N   0  0  0  0  0  0  0  0  0  0  0  0
  -33.0160  -15.5080   20.7730 H   0  0  0  0  0  0  0  0  0  0  0  0
  -27.5670  -13.3780   20.8190 C   0  0  0  0  0  0  0  0  0  0  0  0
  -26.3250  -12.8900   21.1470 C   0  0  0  0  0  0  0  0  0  0  0  0
  -26.4380  -11.4690   21.0930 C   0  0  0  0  0  0  0  0  0  0  0  0
  -28.3630  -12.2580   20.6080 N   0  0  0  0  0  0  0  0  0  0  0  0
  -27.6870  -11.1090   20.8350 N   0  0  0  0  0  0  0  0  0  0  0  0
  -25.4160  -10.4230   21.1970 C   0  0  0  0  0  0  0  0  0  0  0  0
  -25.5730   -9.3230   22.0660 C   0  0  0  0  0  3  0  0  0  0  0  0
  -24.5700   -8.3370   22.1540 C   0  0  0  0  0  3  0  0  0  0  0  0
  -23.3930   -8.4510   21.3750 C   0  0  0  0  0  0  0  0  0  0  0  0
  -23.2540   -9.5370   20.4930 C   0  0  0  0  0  3  0  0  0  0  0  0
  -24.2620  -10.5120   20.3980 C   0  0  0  0  0  3  0  0  0  0  0  0
  -22.3800   -7.5240   21.3800 O   0  0  0  0  0  0  0  0  0  0  0  0
  -22.1490   -6.7270   22.4730 C   0  0  0  0  0  0  0  0  0  0  0  0
  -21.8340   -7.2670   23.7400 C   0  0  0  0  0  3  0  0  0  0  0  0
  -21.5300   -6.4110   24.8160 C   0  0  0  0  0  3  0  0  0  0  0  0
  -21.5400   -5.0140   24.6290 C   0  0  0  0  0  0  0  0  0  0  0  0
  -21.8610   -4.4730   23.3720 C   0  0  0  0  0  3  0  0  0  0  0  0
  -22.1600   -5.3290   22.2960 C   0  0  0  0  0  0  0  0  0  0  0  0
  -22.4410   -4.8040   21.0790 F   0  0  0  0  0  0  0  0  0  0  0  0
  -21.2420   -4.1910   25.6610 F   0  0  0  0  0  0  0  0  0  0  0  0
  -25.0820  -13.7010   21.3750 C   0  0  0  0  0  0  0  0  0  0  0  0
  -24.1620  -13.1930   22.1930 N   0  0  0  0  0  0  0  0  0  0  0  0
  -24.9380  -14.8090   20.8670 O   0  0  0  0  0  0  0  0  0  0  0  0
  -24.2840  -12.2870   22.6160 H   0  0  0  0  0  0  0  0  0  0  0  0
  -23.3230  -13.7200   22.3930 H   0  0  0  0  0  0  0  0  0  0  0  0
  -28.0540  -14.6630   20.6350 N   0  0  0  0  0  0  0  0  0  0  0  0
  -27.2970  -15.3400   20.5740 H   0  0  0  0  0  0  0  0  0  0  0  0
  -28.6220  -14.6980   19.7990 H   0  0  0  0  0  0  0  0  0  0  0  0
  1  2  1  0
  1 58  1  0
  2  4  1  0
  3  1  2  0
  5  6  1  0
  5  2  1  0
  6  7  1  0
  7  8  1  0
  8  9  1  0
  9 10  1  0
 10 11  1  0
 11 13  1  0
 11 14  1  0
 12 11  1  0
 14 15  1  0
 16 15  1  0
 17 16  1  0
 18 29  2  0
 19 17  1  0
 19 24  1  0
 20 28  1  0
 20 30  1  0
 21 23  1  0
 22 28  1  0
 23 24  2  0
 23 22  1  0
 25 19  2  0
 26 25  1  0
 26 21  2  0
 27 21  1  0
 27 20  1  0
 28 18  1  0
 30 32  2  0
 31 30  1  0
 33 31  1  0
 34 39  1  0
 35 31  1  0
 36 35  1  0
 37 38  1  0
 37 36  1  0
 38 34  1  0
 39 35  1  0
 39 40  2  0
 41 40  1  0
 42 41  2  0
 43 34  2  0
 43 42  1  0
 44 18  1  0
 44 49  1  0
 44 45  1  0
 45 48  1  1
 45 46  1  0
 47 45  1  0
 49 52  1  0
 50 54  1  0
 50 49  1  0
 51 50  2  0
 54 53  1  0
 56 57  1  0
 56 54  1  0
 56 55  1  0
 58 60  1  0
 59 63  1  0
 60 62  1  0
 60 59  1  0
 61 59  2  0
 64 65  1  0
 65 67  1  0
 65 63  1  0
 66 64  2  0
 68 64  1  0
 68 70  1  0
 69 71  2  0
 69 73  1  0
 70 69  1  0
 72 70  1  0
 73 82  1  0
 74 82  1  0
 74 80  1  0
 75 80  1  0
 76 77  1  0
 76 75  1  0
 78 77  1  0
 78 87  1  0
 78 79  1  0
 80 79  1  0
 81 74  2  0
 82 83  1  0
 84 85  2  0
 85104  1  0
 86 85  1  0
 86 89  1  0
 87 84  1  0
 87 88  1  0
 88 86  2  0
 89 90  1  0
 90 91  2  0
 92 95  1  0
 92 91  1  0
 93 92  2  0
 94 93  1  0
 94 89  2  0
 95 96  1  0
 96 97  1  0
 97 98  2  0
 99 98  1  0
 99103  1  0
100 99  2  0
101 96  2  0
101100  1  0
102101  1  0
104105  1  0
105108  1  0
105107  1  0
106104  2  0
109 84  1  0
110109  1  0
111109  1  0
M  ISO  4  16 101  17 101  74 100  82 100
M  END
>  <TORSDO>  (2) 
F 33

>  <SCORE>  (2) 
-4.182

>  <name>  (2) 
1

>  <ligand_id>  (2) 
1

>  <original_smiles>  (2) 
[H]c1c([H])c([H])c2c(c1[H])C([H])([H])C([H])([H])C([H])([H])C2([H])N([H])C(=O)C1([H])N(C(=O)C([H])(N([H])C(=O)C([H])(N([H])C([H])([H])[H])C([H])([H])[H])C(C([H])([H])[H])(C([H])([H])[H])C([H])([H])[H])C([H])([H])c2c([H])c(OC([H])([H])C([H])([H])C([H])([H])[N+]([H])([H])C([H])([H])C([H])([H])C([H])([H])C([H])([H])C([H])([H])C([H])([H])N([H])C(=O)C([H])([H])N([H])C(=O)C([H])([H])N([H])C(=O)C([H])([H])N([H])C(=O)C([H])([H])N([H])C(=O)N3C([H])([H])C([H])([H])C([H])([H])C([H])(n4nc(-c5c([H])c([H])c(Oc6c([H])c([H])c(F)c([H])c6F)c([H])c5[H])c(C(=O)N([H])[H])c4N([H])[H])C3([H])[H])c([H])c([H])c2C1([H])[H]

>  <smiles>  (2) 
[H]c1c([H])c([H])c2c(c1[H])C([H])([H])C([H])([H])C([H])([H])C2([H])N([H])C(=O)C1([H])N(C(=O)C([H])(N([H])C(=O)C([H])(N([H])C([H])([H])[H])C([H])([H])[H])C(C([H])([H])[H])(C([H])([H])[H])C([H])([H])[H])C([H])([H])c2c([H])c(OC([H])([H])C([H])([H])C([H])([H])[N+]([H])([H])C([H])([H])C([H])([H])C([H])([H])C([H])([H])C([H])([H])C([H])([H])N([H])C(=O)C([H])([H])N([H])C(=O)C([H])([H])N([H])C(=O)C([H])([H])N([H])C(=O)C([H])([H])N([H])C(=O)N3C([H])([H])C([H])([H])C([H])([H])C([H])(n4nc(-c5c([H])c([H])c(Oc6c([H])c([H])c(F)c([H])c6F)c([H])c5[H])c(C(=O)N([H])[H])c4N([H])[H])C3([H])[H])c([H])c([H])c2C1([H])[H]

$$$$
2:0:0
     RDKit          3D

108116  0  0  1  0  0  0  0  0999 V2000
  -31.2040  -28.5190   26.5970 C   0  0  0  0  0  2  0  0  0  0  0  0
  -31.2770  -29.3040   27.9180 C   0  0  0  0  0  2  0  0  0  0  0  0
  -32.1370  -30.5760   27.8700 C   0  0  0  0  0  2  0  0  0  0  0  0
  -31.4170  -31.8610   27.4070 C   0  0  0  0  0  3  0  0  0  0  0  0
  -31.2870  -32.0180   25.8760 C   0  0  0  0  0  2  0  0  0  0  0  0
  -29.8060  -31.0280   24.1440 C   0  0  0  0  0  0  0  0  0  0  0  0
  -30.0040  -31.5530   25.3630 N   0  0  0  0  0  0  0  0  0  0  0  0
  -30.7340  -30.7470   23.3830 O   0  0  0  0  0  0  0  0  0  0  0  0
  -29.1820  -31.8020   25.8980 H   0  0  0  0  0  0  0  0  0  0  0  0
  -28.3470  -30.8350   23.6910 C   0  0  0  0  0  2  0  0  0  0  0  0
  -27.7570  -29.7000   24.3270 O   0  0  0  0  0  0  0  0  0  0  0  0
  -27.8700  -28.4780   23.6080 C   0  0  0  0  0  2  0  0  0  0  0  0
  -26.4730  -27.8640   23.3850 C   0  0  0  0  0  2  0  0  0  0  0  0
  -26.1950  -26.6300   24.2710 C   0  0  0  0  0  2  0  0  0  0  0  0
  -24.8210  -26.5150   24.6500 O   0  0  0  0  0  0  0  0  0  0  0  0
  -26.3920  -30.7480   30.1920 C   0  0  0  0  0  0  0  0  0  0  0  0
  -24.4600  -27.0700   25.8590 C   0  0  0  0  0  0  0  0  0  0  0  0
  -24.4050  -29.2930   30.4580 C   0  0  0  0  0  3  0  0  0  0  0  0
  -23.5950  -28.1210   28.3400 C   0  0  0  0  0  0  0  0  0  0  0  0
  -25.1770  -30.0580   28.1460 C   0  0  0  0  0  2  0  0  0  0  0  0
  -24.5760  -28.7870   27.5960 C   0  0  0  0  0  0  0  0  0  0  0  0
  -25.0090  -28.2690   26.3640 C   0  0  0  0  0  3  0  0  0  0  0  0
  -23.4710  -26.4110   26.6160 C   0  0  0  0  0  3  0  0  0  0  0  0
  -23.0400  -26.9230   27.8560 C   0  0  0  0  0  3  0  0  0  0  0  0
  -23.1920  -28.7560   29.6480 C   0  0  0  0  0  2  0  0  0  0  0  0
  -25.3740  -30.0550   29.6100 N   0  0  0  0  0  0  0  0  0  0  0  0
  -26.5130  -30.8070   31.4240 O   0  0  0  0  0  0  0  0  0  0  0  0
  -25.0610  -28.1170   31.2170 C   0  0  0  0  0  0  0  0  0  0  0  0
  -24.5060  -27.7790   32.3900 N   0  0  0  0  0  0  0  0  0  0  0  0
  -26.0330  -27.5200   30.7430 O   0  0  0  0  0  0  0  0  0  0  0  0
  -23.7140  -28.3220   32.7110 H   0  0  0  0  0  0  0  0  0  0  0  0
  -23.8530  -26.1340   35.5360 C   0  0  0  0  0  0  0  0  0  0  0  0
  -24.9350  -26.6790   33.2550 C   0  0  0  0  0  3  0  0  0  0  0  0
  -24.3520  -25.3350   32.7680 C   0  0  0  0  0  2  0  0  0  0  0  0
  -23.0250  -24.9770   33.4440 C   0  0  0  0  0  2  0  0  0  0  0  0
  -23.2020  -24.8860   34.9620 C   0  0  0  0  0  2  0  0  0  0  0  0
  -24.6550  -26.9810   34.7280 C   0  0  0  0  0  0  0  0  0  0  0  0
  -25.2120  -28.1460   35.2980 C   0  0  0  0  0  3  0  0  0  0  0  0
  -24.9840  -28.4650   36.6490 C   0  0  0  0  0  3  0  0  0  0  0  0
  -24.1950  -27.6190   37.4460 C   0  0  0  0  0  3  0  0  0  0  0  0
  -23.6340  -26.4540   36.8930 C   0  0  0  0  0  3  0  0  0  0  0  0
  -27.4320  -31.5300   29.3380 C   0  0  0  0  0  3  0  0  0  0  0  0
  -28.7860  -30.7460   29.1130 C   0  0  1  0  0  0  0  0  0  0  0  0
  -29.4430  -30.2420   30.4170 C   0  0  0  0  0  1  0  0  0  0  0  0
  -28.5970  -29.5130   28.2020 C   0  0  0  0  0  1  0  0  0  0  0  0
  -29.7710  -31.6940   28.3890 C   0  0  0  0  0  2  0  0  0  0  0  0
  -27.6880  -32.8110   30.0090 N   0  0  0  0  0  0  0  0  0  0  0  0
  -27.1480  -33.9820   29.6410 C   0  0  0  0  0  0  0  0  0  0  0  0
  -26.4090  -34.0990   28.6580 O   0  0  0  0  0  0  0  0  0  0  0  0
  -28.2540  -32.7810   30.8440 H   0  0  0  0  0  0  0  0  0  0  0  0
  -26.3170  -35.4200   31.5170 C   0  0  0  0  0  1  0  0  0  0  0  0
  -27.4640  -35.2060   30.5150 C   0  0  0  0  0  3  0  0  0  0  0  0
  -28.9700  -36.3980   28.9910 C   0  0  0  0  0  1  0  0  0  0  0  0
  -27.7210  -36.4460   29.7490 N   0  0  0  0  0  0  0  0  0  0  0  0
  -27.7740  -37.2410   30.3780 H   0  0  0  0  0  0  0  0  0  0  0  0
  -30.3890  -27.2230   26.7560 C   0  0  0  0  0  2  0  0  0  0  0  0
  -30.2950  -26.4040   25.4620 C   0  0  0  0  0  2  0  0  0  0  0  0
  -29.8580  -24.9530   25.7100 C   0  0  0  0  0  2  0  0  0  0  0  0
  -29.9090  -24.0920   24.4350 C   0  0  0  0  0  2  0  0  0  0  0  0
  -29.3400  -22.6760   24.6320 C   0  0  0  0  0  2  0  0  0  0  0  0
  -29.9400  -20.7100   23.2090 C   0  0  0  0  0  0  0  0  0  0  0  0
  -29.3940  -21.9240   23.3760 N   0  0  0  0  0  0  0  0  0  0  0  0
  -30.4740  -20.0910   24.1340 O   0  0  0  0  0  0  0  0  0  0  0  0
  -28.9760  -22.3600   22.5640 H   0  0  0  0  0  0  0  0  0  0  0  0
  -29.8870  -20.1080   21.7980 C   0  0  0  0  0  2  0  0  0  0  0  0
  -30.3850  -17.7190   21.2120 C   0  0  0  0  0  0  0  0  0  0  0  0
  -30.7080  -18.9000   21.7490 N   0  0  0  0  0  0  0  0  0  0  0  0
  -29.3500  -17.5310   20.5730 O   0  0  0  0  0  0  0  0  0  0  0  0
  -31.5510  -18.9420   22.3060 H   0  0  0  0  0  0  0  0  0  0  0  0
  -31.3900  -16.5840   21.4400 C   0  0  0  0  0  2  0  0  0  0  0  0
  -31.2060  -14.4090   20.2220 C   0  0  0  0  0  0  0  0  0  0  0  0
  -30.7520  -12.3030   19.0200 C   0  0  0  0  0  2  0  0  0  0  0  0
  -29.8320  -12.5660   17.8140 C   0  0  0  0  0  2  0  0  0  0  0  0
  -28.3500  -12.5080   18.2280 C   0  0  0  0  0  2  0  0  0  0  0  0
  -28.0500  -13.3560   19.4940 C   0  0  0  0  0  3  0  0  0  0  0  0
  -29.0850  -13.0870   20.6110 C   0  0  0  0  0  2  0  0  0  0  0  0
  -30.4360  -13.2970   20.0590 N   0  0  0  0  0  0  0  0  0  0  0  0
  -32.2300  -14.6160   19.5700 O   0  0  0  0  0  0  0  0  0  0  0  0
  -30.7980  -15.2690   21.1660 N   0  0  0  0  0  0  0  0  0  0  0  0
  -29.9500  -15.0500   21.6640 H   0  0  0  0  0  0  0  0  0  0  0  0
  -25.6560  -14.0740   20.1120 C   0  0  0  0  0  0  0  0  0  0  0  0
  -24.5640  -13.3610   20.5320 C   0  0  0  0  0  0  0  0  0  0  0  0
  -24.9920  -12.0020   20.6220 C   0  0  0  0  0  0  0  0  0  0  0  0
  -26.6820  -13.1530   19.9700 N   0  0  0  0  0  0  0  0  0  0  0  0
  -26.2840  -11.9060   20.3310 N   0  0  0  0  0  0  0  0  0  0  0  0
  -24.2320  -10.7790   20.9210 C   0  0  0  0  0  0  0  0  0  0  0  0
  -24.6510   -9.8750   21.9210 C   0  0  0  0  0  3  0  0  0  0  0  0
  -23.8940   -8.7170   22.2020 C   0  0  0  0  0  3  0  0  0  0  0  0
  -22.7040   -8.4560   21.4830 C   0  0  0  0  0  0  0  0  0  0  0  0
  -22.3030   -9.3500   20.4740 C   0  0  0  0  0  3  0  0  0  0  0  0
  -23.0590  -10.5000   20.1910 C   0  0  0  0  0  3  0  0  0  0  0  0
  -21.9180   -7.3430   21.6660 O   0  0  0  0  0  0  0  0  0  0  0  0
  -21.8750   -6.6830   22.8680 C   0  0  0  0  0  0  0  0  0  0  0  0
  -21.5400   -7.3460   24.0690 C   0  0  0  0  0  3  0  0  0  0  0  0
  -21.4390   -6.6170   25.2710 C   0  0  0  0  0  3  0  0  0  0  0  0
  -21.6570   -5.2270   25.2720 C   0  0  0  0  0  0  0  0  0  0  0  0
  -21.9860   -4.5640   24.0760 C   0  0  0  0  0  3  0  0  0  0  0  0
  -22.0930   -5.2910   22.8770 C   0  0  0  0  0  0  0  0  0  0  0  0
  -22.3870   -4.6440   21.7230 F   0  0  0  0  0  0  0  0  0  0  0  0
  -21.5540   -4.5230   26.4250 F   0  0  0  0  0  0  0  0  0  0  0  0
  -23.1770  -13.8970   20.7440 C   0  0  0  0  0  0  0  0  0  0  0  0
  -22.4260  -13.3020   21.6650 N   0  0  0  0  0  0  0  0  0  0  0  0
  -22.7700  -14.8830   20.1320 O   0  0  0  0  0  0  0  0  0  0  0  0
  -22.7680  -12.5130   22.1910 H   0  0  0  0  0  0  0  0  0  0  0  0
  -21.4940  -13.6490   21.8460 H   0  0  0  0  0  0  0  0  0  0  0  0
  -25.8550  -15.4210   19.8250 N   0  0  0  0  0  0  0  0  0  0  0  0
  -25.1170  -16.1120   19.9150 H   0  0  0  0  0  0  0  0  0  0  0  0
  -26.7410  -15.8270   19.5500 H   0  0  0  0  0  0  0  0  0  0  0  0
  1 56  1  0
  1  2  1  0
  3  2  1  0
  4  3  1  0
  4 46  1  0
  5  4  1  0
  6  7  1  0
  7  5  1  0
  7  9  1  0
  8  6  2  0
 10  6  1  0
 10 11  1  0
 12 11  1  0
 13 12  1  0
 13 14  1  0
 14 15  1  0
 15 17  1  0
 16 27  2  0
 17 22  2  0
 17 23  1  0
 18 28  1  0
 19 25  1  0
 20 26  1  0
 21 20  1  0
 21 19  2  0
 22 21  1  0
 23 24  2  0
 24 19  1  0
 25 18  1  0
 26 16  1  0
 26 18  1  0
 28 29  1  0
 29 31  1  0
 30 28  2  0
 32 41  1  0
 33 29  1  0
 33 37  1  0
 34 33  1  0
 34 35  1  0
 35 36  1  0
 36 32  1  0
 37 38  1  0
 37 32  2  0
 38 39  2  0
 39 40  1  0
 41 40  2  0
 42 47  1  0
 42 16  1  0
 43 42  1  0
 43 44  1  1
 45 43  1  0
 46 43  1  0
 47 50  1  0
 48 47  1  0
 48 52  1  0
 49 48  2  0
 52 51  1  0
 53 54  1  0
 54 55  1  0
 54 52  1  0
 57 58  1  0
 57 56  1  0
 59 60  1  0
 59 58  1  0
 61 62  1  0
 61 63  2  0
 62 60  1  0
 64 62  1  0
 65 61  1  0
 66 70  1  0
 66 67  1  0
 67 65  1  0
 67 69  1  0
 68 66  2  0
 71 79  1  0
 72 77  1  0
 73 74  1  0
 73 72  1  0
 75 74  1  0
 75 84  1  0
 75 76  1  0
 77 71  1  0
 77 76  1  0
 78 71  2  0
 79 70  1  0
 79 80  1  0
 81 82  2  0
 82 83  1  0
 82101  1  0
 83 86  1  0
 84 81  1  0
 84 85  1  0
 85 83  2  0
 86 87  1  0
 87 88  2  0
 89 92  1  0
 89 88  1  0
 90 89  2  0
 91 90  1  0
 91 86  2  0
 92 93  1  0
 93 98  2  0
 93 94  1  0
 94 95  2  0
 95 96  1  0
 96100  1  0
 97 96  2  0
 98 97  1  0
 99 98  1  0
101102  1  0
102105  1  0
102104  1  0
103101  2  0
106107  1  0
106 81  1  0
108106  1  0
M  ISO  4  14 101  15 101  71 100  79 100
M  END
>  <TORSDO>  (3) 
F 35

>  <SCORE>  (3) 
9.617

>  <name>  (3) 
2

>  <ligand_id>  (3) 
2

>  <original_smiles>  (3) 
[H]c1c([H])c([H])c2c(c1[H])C([H])([H])C([H])([H])C([H])([H])C2([H])N([H])C(=O)C1([H])N(C(=O)C([H])(N([H])C(=O)C([H])(N([H])C([H])([H])[H])C([H])([H])[H])C(C([H])([H])[H])(C([H])([H])[H])C([H])([H])[H])C([H])([H])c2c([H])c(OC([H])([H])C([H])([H])C([H])([H])OC([H])([H])C(=O)N([H])C([H])([H])C([H])([H])C([H])([H])C([H])([H])C([H])([H])C([H])([H])C([H])([H])C([H])([H])C([H])([H])C([H])([H])N([H])C(=O)C([H])([H])N([H])C(=O)C([H])([H])N([H])C(=O)N3C([H])([H])C([H])([H])C([H])([H])C([H])(n4nc(-c5c([H])c([H])c(Oc6c([H])c([H])c(F)c([H])c6F)c([H])c5[H])c(C(=O)N([H])[H])c4N([H])[H])C3([H])[H])c([H])c([H])c2C1([H])[H]

>  <smiles>  (3) 
[H]c1c([H])c([H])c2c(c1[H])C([H])([H])C([H])([H])C([H])([H])C2([H])N([H])C(=O)C1([H])N(C(=O)C([H])(N([H])C(=O)C([H])(N([H])C([H])([H])[H])C([H])([H])[H])C(C([H])([H])[H])(C([H])([H])[H])C([H])([H])[H])C([H])([H])c2c([H])c(OC([H])([H])C([H])([H])C([H])([H])OC([H])([H])C(=O)N([H])C([H])([H])C([H])([H])C([H])([H])C([H])([H])C([H])([H])C([H])([H])C([H])([H])C([H])([H])C([H])([H])C([H])([H])N([H])C(=O)C([H])([H])N([H])C(=O)C([H])([H])N([H])C(=O)N3C([H])([H])C([H])([H])C([H])([H])C([H])(n4nc(-c5c([H])c([H])c(Oc6c([H])c([H])c(F)c([H])c6F)c([H])c5[H])c(C(=O)N([H])[H])c4N([H])[H])C3([H])[H])c([H])c([H])c2C1([H])[H]

$$$$
3:0:0
     RDKit          3D

108116  0  0  1  0  0  0  0  0999 V2000
  -24.1000  -17.4100   23.7640 C   0  0  0  0  0  0  0  0  0  0  0  0
  -21.7490  -18.1140   26.2110 C   0  0  0  0  0  2  0  0  0  0  0  0
  -22.5650  -16.9270   25.6380 C   0  0  0  0  0  2  0  0  0  0  0  0
  -21.7130  -16.7170   23.3250 C   0  0  0  0  0  2  0  0  0  0  0  0
  -21.2600  -19.1530   25.1760 C   0  0  0  0  0  2  0  0  0  0  0  0
  -20.3360  -17.1940   23.8630 C   0  0  0  0  0  2  0  0  0  0  0  0
  -22.8530  -17.0700   24.1940 N   0  0  0  0  0  0  0  0  0  0  0  0
  -20.2650  -18.6530   24.1770 N   0  0  2  0  0  4  0  0  0  0  0  0
  -25.0240  -17.6060   24.5590 O   0  0  0  0  0  0  0  0  0  0  0  0
  -19.3620  -18.7610   24.6160 H   0  0  0  0  0  0  0  0  0  0  0  0
  -24.4330  -17.5620   22.2710 C   0  0  0  0  0  2  0  0  0  0  0  0
  -26.4860  -16.9460   20.9700 C   0  0  0  0  0  0  0  0  0  0  0  0
  -25.6520  -16.8150   22.0010 N   0  0  0  0  0  0  0  0  0  0  0  0
  -26.3390  -17.7690   20.0640 O   0  0  0  0  0  0  0  0  0  0  0  0
  -25.9020  -16.1220   22.6940 H   0  0  0  0  0  0  0  0  0  0  0  0
  -28.6600  -16.2260   22.1170 C   0  0  0  0  0  1  0  0  0  0  0  0
  -27.6530  -15.9600   20.9820 C   0  0  0  0  0  3  0  0  0  0  0  0
  -29.0830  -14.9180   19.0860 C   0  0  0  0  0  0  0  0  0  0  0  0
  -29.1580  -12.6090   18.2250 C   0  0  0  0  0  2  0  0  0  0  0  0
  -27.9240  -12.3520   17.3290 C   0  0  0  0  0  2  0  0  0  0  0  0
  -26.6660  -11.9740   18.1440 C   0  0  0  0  0  2  0  0  0  0  0  0
  -26.4570  -12.8920   19.3800 C   0  0  0  0  0  3  0  0  0  0  0  0
  -27.7980  -12.9650   20.1490 C   0  0  0  0  0  2  0  0  0  0  0  0
  -28.7750  -13.5960   19.2510 N   0  0  0  0  0  0  0  0  0  0  0  0
  -29.9000  -15.2890   18.2370 O   0  0  0  0  0  0  0  0  0  0  0  0
  -28.3340  -15.8670   19.6890 N   0  0  0  0  0  0  0  0  0  0  0  0
  -28.4370  -16.7810   19.2690 H   0  0  0  0  0  0  0  0  0  0  0  0
  -24.4200  -13.1510   20.9380 C   0  0  0  0  0  0  0  0  0  0  0  0
  -23.5680  -12.2260   21.4840 C   0  0  0  0  0  0  0  0  0  0  0  0
  -24.0300  -10.9520   21.0360 C   0  0  0  0  0  0  0  0  0  0  0  0
  -25.3550  -12.4230   20.2160 N   0  0  0  0  0  0  0  0  0  0  0  0
  -25.1330  -11.0880   20.3140 N   0  0  0  0  0  0  0  0  0  0  0  0
  -23.4550   -9.6100   21.2060 C   0  0  0  0  0  0  0  0  0  0  0  0
  -23.9270   -8.7280   22.2020 C   0  0  0  0  0  3  0  0  0  0  0  0
  -23.3490   -7.4510   22.3570 C   0  0  0  0  0  3  0  0  0  0  0  0
  -22.2820   -7.0460   21.5180 C   0  0  0  0  0  0  0  0  0  0  0  0
  -21.8320   -7.9200   20.5140 C   0  0  0  0  0  3  0  0  0  0  0  0
  -22.4110   -9.1900   20.3570 C   0  0  0  0  0  3  0  0  0  0  0  0
  -21.6750   -5.8160   21.5820 O   0  0  0  0  0  0  0  0  0  0  0  0
  -21.2840   -5.2690   22.7770 C   0  0  0  0  0  0  0  0  0  0  0  0
  -20.3420   -5.9030   23.6150 C   0  0  0  0  0  3  0  0  0  0  0  0
  -19.9160   -5.2720   24.8010 C   0  0  0  0  0  3  0  0  0  0  0  0
  -20.4200   -4.0020   25.1440 C   0  0  0  0  0  0  0  0  0  0  0  0
  -21.3550   -3.3660   24.3070 C   0  0  0  0  0  3  0  0  0  0  0  0
  -21.7820   -3.9980   23.1260 C   0  0  0  0  0  0  0  0  0  0  0  0
  -22.6670   -3.3720   22.3140 F   0  0  0  0  0  0  0  0  0  0  0  0
  -20.0090   -3.3920   26.2800 F   0  0  0  0  0  0  0  0  0  0  0  0
  -22.3400  -12.5110   22.2990 C   0  0  0  0  0  0  0  0  0  0  0  0
  -22.0020  -11.6220   23.2250 N   0  0  0  0  0  0  0  0  0  0  0  0
  -21.7040  -13.5560   22.1600 O   0  0  0  0  0  0  0  0  0  0  0  0
  -22.5360  -10.7740   23.3500 H   0  0  0  0  0  0  0  0  0  0  0  0
  -21.1870  -11.7790   23.8010 H   0  0  0  0  0  0  0  0  0  0  0  0
  -24.4660  -14.5390   20.9850 N   0  0  0  0  0  0  0  0  0  0  0  0
  -23.6710  -15.0670   21.3230 H   0  0  0  0  0  0  0  0  0  0  0  0
  -25.0920  -15.0960   20.4160 H   0  0  0  0  0  0  0  0  0  0  0  0
  -20.2150  -19.4910   22.9450 C   0  0  0  0  0  2  0  0  0  0  0  0
  -19.0920  -20.5560   22.9510 C   0  0  0  0  0  2  0  0  0  0  0  0
  -19.1770  -21.5250   21.7560 C   0  0  0  0  0  2  0  0  0  0  0  0
  -20.1480  -22.6900   22.0040 C   0  0  0  0  0  2  0  0  0  0  0  0
  -20.5140  -23.4510   20.7180 C   0  0  0  0  0  2  0  0  0  0  0  0
  -21.4900  -24.6120   20.9740 C   0  0  0  0  0  2  0  0  0  0  0  0
  -22.7640  -24.1890   21.5970 N   0  0  0  0  0  4  0  0  0  0  0  0
  -23.1110  -24.9800   22.1180 H   0  0  0  0  0  0  0  0  0  0  0  0
  -22.5860  -23.4580   22.2670 H   0  0  0  0  0  0  0  0  0  0  0  0
  -23.8220  -23.7560   20.6530 C   0  0  0  0  0  2  0  0  0  0  0  0
  -25.2410  -24.1430   21.1440 C   0  0  0  0  0  2  0  0  0  0  0  0
  -26.2110  -24.5730   20.0110 C   0  0  0  0  0  2  0  0  0  0  0  0
  -26.7790  -25.8740   20.2140 O   0  0  0  0  0  0  0  0  0  0  0  0
  -25.0830  -30.9650   24.8480 C   0  0  0  0  0  0  0  0  0  0  0  0
  -25.9280  -26.9250   20.4800 C   0  0  0  0  0  0  0  0  0  0  0  0
  -23.4130  -30.5310   23.0740 C   0  0  0  0  0  3  0  0  0  0  0  0
  -24.1970  -29.0560   21.1480 C   0  0  0  0  0  0  0  0  0  0  0  0
  -25.8970  -30.0850   22.6640 C   0  0  0  0  0  2  0  0  0  0  0  0
  -25.4800  -28.9910   21.7060 C   0  0  0  0  0  0  0  0  0  0  0  0
  -26.3480  -27.9300   21.3740 C   0  0  0  0  0  3  0  0  0  0  0  0
  -24.6480  -27.0280   19.8950 C   0  0  0  0  0  3  0  0  0  0  0  0
  -23.7740  -28.0750   20.2350 C   0  0  0  0  0  3  0  0  0  0  0  0
  -23.3260  -30.2190   21.5550 C   0  0  0  0  0  2  0  0  0  0  0  0
  -24.8210  -30.5180   23.5860 N   0  0  0  0  0  0  0  0  0  0  0  0
  -24.1820  -31.4140   25.5680 O   0  0  0  0  0  0  0  0  0  0  0  0
  -22.4810  -29.5560   23.8260 C   0  0  0  0  0  0  0  0  0  0  0  0
  -21.1770  -29.6210   23.5140 N   0  0  0  0  0  0  0  0  0  0  0  0
  -22.9350  -28.7460   24.6380 O   0  0  0  0  0  0  0  0  0  0  0  0
  -20.8800  -30.3410   22.8710 H   0  0  0  0  0  0  0  0  0  0  0  0
  -17.6910  -28.7450   23.1690 C   0  0  0  0  0  0  0  0  0  0  0  0
  -20.1200  -28.7620   24.0420 C   0  0  0  0  0  3  0  0  0  0  0  0
  -20.2410  -27.3250   23.4790 C   0  0  0  0  0  2  0  0  0  0  0  0
  -19.3630  -27.0770   22.2480 C   0  0  0  0  0  2  0  0  0  0  0  0
  -17.8900  -27.3780   22.5400 C   0  0  0  0  0  2  0  0  0  0  0  0
  -18.7400  -29.4030   23.8570 C   0  0  0  0  0  0  0  0  0  0  0  0
  -18.5150  -30.6970   24.3780 C   0  0  0  0  0  3  0  0  0  0  0  0
  -17.2620  -31.3240   24.2380 C   0  0  0  0  0  3  0  0  0  0  0  0
  -16.2190  -30.6560   23.5740 C   0  0  0  0  0  3  0  0  0  0  0  0
  -16.4320  -29.3710   23.0440 C   0  0  0  0  0  3  0  0  0  0  0  0
  -26.5290  -30.9510   25.4380 C   0  0  0  0  0  3  0  0  0  0  0  0
  -26.7270  -32.2200   26.1540 N   0  0  0  0  0  0  0  0  0  0  0  0
  -27.3700  -33.2830   25.6500 C   0  0  0  0  0  0  0  0  0  0  0  0
  -27.9250  -33.2690   24.5470 O   0  0  0  0  0  0  0  0  0  0  0  0
  -26.2610  -32.3190   27.0440 H   0  0  0  0  0  0  0  0  0  0  0  0
  -26.3720  -35.5700   25.9560 C   0  0  0  0  0  1  0  0  0  0  0  0
  -27.4010  -34.5650   26.5010 C   0  0  0  0  0  3  0  0  0  0  0  0
  -29.7130  -34.4180   27.3160 C   0  0  0  0  0  1  0  0  0  0  0  0
  -28.7380  -35.2000   26.5620 N   0  0  0  0  0  0  0  0  0  0  0  0
  -28.6800  -36.1230   26.9800 H   0  0  0  0  0  0  0  0  0  0  0  0
  -26.8000  -29.7230   26.3940 C   0  0  1  0  0  0  0  0  0  0  0  0
  -25.7360  -29.5480   27.5020 C   0  0  0  0  0  1  0  0  0  0  0  0
  -26.8510  -28.4040   25.5860 C   0  0  0  0  0  1  0  0  0  0  0  0
  -28.1800  -29.8760   27.0750 C   0  0  0  0  0  1  0  0  0  0  0  0
  1  7  1  0
  1  9  2  0
  3  2  1  0
  4  6  1  0
  4  7  1  0
  5  2  1  0
  6  8  1  0
  7  3  1  0
  8 10  1  1
  8  5  1  0
 11  1  1  0
 12 17  1  0
 12 13  1  0
 13 11  1  0
 13 15  1  0
 14 12  2  0
 17 16  1  0
 18 24  1  0
 18 26  1  0
 19 24  1  0
 20 21  1  0
 20 19  1  0
 22 21  1  0
 22 23  1  0
 22 31  1  0
 24 23  1  0
 25 18  2  0
 26 17  1  0
 27 26  1  0
 28 53  1  0
 28 29  2  0
 29 48  1  0
 30 33  1  0
 30 29  1  0
 31 32  1  0
 31 28  1  0
 32 30  2  0
 33 34  1  0
 34 35  2  0
 36 39  1  0
 36 35  1  0
 37 36  2  0
 38 37  1  0
 38 33  2  0
 39 40  1  0
 40 45  2  0
 40 41  1  0
 41 42  2  0
 42 43  1  0
 43 47  1  0
 44 43  2  0
 45 44  1  0
 46 45  1  0
 48 49  1  0
 49 51  1  0
 49 52  1  0
 50 48  2  0
 53 54  1  0
 55 53  1  0
 56 57  1  0
 56  8  1  0
 58 59  1  0
 58 57  1  0
 60 61  1  0
 60 59  1  0
 61 62  1  0
 62 63  1  0
 62 64  1  0
 65 66  1  0
 65 62  1  0
 67 68  1  0
 67 66  1  0
 68 70  1  0
 69 80  2  0
 70 75  1  0
 71 79  1  0
 71 81  1  0
 72 78  1  0
 72 74  1  0
 73 79  1  0
 74 73  1  0
 75 74  2  0
 76 77  1  0
 76 70  2  0
 77 72  2  0
 78 71  1  0
 79 69  1  0
 81 83  2  0
 82 81  1  0
 84 82  1  0
 85 90  1  0
 86 82  1  0
 87 86  1  0
 88 89  1  0
 88 87  1  0
 89 85  1  0
 90 86  1  0
 90 91  2  0
 92 91  1  0
 93 92  2  0
 94 85  2  0
 94 93  1  0
 95 69  1  0
 95 96  1  0
 95105  1  0
 96 99  1  0
 97 96  1  0
 97101  1  0
 98 97  2  0
101100  1  0
101103  1  0
103104  1  0
103102  1  0
105108  1  1
105106  1  0
107105  1  0
M  ISO  4  18 100  26 100  67 101  68 101
M  END
>  <TORSDO>  (4) 
F 29

>  <SCORE>  (4) 
58.869

>  <name>  (4) 
3

>  <ligand_id>  (4) 
3

>  <original_smiles>  (4) 
[H]c1c([H])c([H])c2c(c1[H])C([H])([H])C([H])([H])C([H])([H])C2([H])N([H])C(=O)C1([H])N(C(=O)C([H])(N([H])C(=O)C([H])(N([H])C([H])([H])[H])C([H])([H])[H])C(C([H])([H])[H])(C([H])([H])[H])C([H])([H])[H])C([H])([H])c2c([H])c(OC([H])([H])C([H])([H])C([H])([H])[N+]([H])([H])C([H])([H])C([H])([H])C([H])([H])C([H])([H])C([H])([H])C([H])([H])[N+]3([H])C([H])([H])C([H])([H])N(C(=O)C([H])([H])N([H])C(=O)C([H])(N([H])C(=O)N4C([H])([H])C([H])([H])C([H])([H])C([H])(n5nc(-c6c([H])c([H])c(Oc7c([H])c([H])c(F)c([H])c7F)c([H])c6[H])c(C(=O)N([H])[H])c5N([H])[H])C4([H])[H])C([H])([H])[H])C([H])([H])C([H])([H])C3([H])[H])c([H])c([H])c2C1([H])[H]

>  <smiles>  (4) 
[H]c1c([H])c([H])c2c(c1[H])C([H])([H])C([H])([H])C([H])([H])C2([H])N([H])C(=O)C1([H])N(C(=O)C([H])(N([H])C(=O)C([H])(N([H])C([H])([H])[H])C([H])([H])[H])C(C([H])([H])[H])(C([H])([H])[H])C([H])([H])[H])C([H])([H])c2c([H])c(OC([H])([H])C([H])([H])C([H])([H])[N+]([H])([H])C([H])([H])C([H])([H])C([H])([H])C([H])([H])C([H])([H])C([H])([H])[N+]3([H])C([H])([H])C([H])([H])N(C(=O)C([H])([H])N([H])C(=O)C([H])(N([H])C(=O)N4C([H])([H])C([H])([H])C([H])([H])C([H])(n5nc(-c6c([H])c([H])c(Oc7c([H])c([H])c(F)c([H])c7F)c([H])c6[H])c(C(=O)N([H])[H])c5N([H])[H])C4([H])[H])C([H])([H])[H])C([H])([H])C([H])([H])C3([H])[H])c([H])c([H])c2C1([H])[H]

$$$$
4:0:0
     RDKit          3D

113120  0  0  1  0  0  0  0  0999 V2000
  -30.7110  -23.2850   21.4130 C   0  0  0  0  0  0  0  0  0  0  0  0
  -31.7370  -24.1000   21.1370 N   0  0  0  0  0  0  0  0  0  0  0  0
  -30.8490  -22.0670   21.5600 O   0  0  0  0  0  0  0  0  0  0  0  0
  -31.5340  -25.0860   21.0450 H   0  0  0  0  0  0  0  0  0  0  0  0
  -33.1320  -23.6880   20.9930 C   0  0  0  0  0  2  0  0  0  0  0  0
  -33.8800  -24.5880   19.9950 C   0  0  0  0  0  2  0  0  0  0  0  0
  -33.4060  -24.4010   18.5450 C   0  0  0  0  0  2  0  0  0  0  0  0
  -34.0540  -25.4040   17.5680 C   0  0  0  0  0  2  0  0  0  0  0  0
  -33.6470  -25.2280   16.0890 C   0  0  0  0  0  2  0  0  0  0  0  0
  -32.1330  -25.2550   15.8690 C   0  0  0  0  0  0  0  0  0  0  0  0
  -31.5300  -26.4500   15.9230 N   0  0  0  0  0  0  0  0  0  0  0  0
  -31.5230  -24.2010   15.6820 O   0  0  0  0  0  0  0  0  0  0  0  0
  -32.1200  -27.2620   16.0480 H   0  0  0  0  0  0  0  0  0  0  0  0
  -30.0830  -26.6650   15.9510 C   0  0  0  0  0  2  0  0  0  0  0  0
  -29.6320  -27.3960   17.2310 C   0  0  0  0  0  2  0  0  0  0  0  0
  -30.2690  -26.8470   18.5250 C   0  0  0  0  0  2  0  0  0  0  0  0
  -29.6330  -27.3990   19.8050 C   0  0  0  0  0  2  0  0  0  0  0  0
  -28.3890  -26.7340   19.9950 O   0  0  0  0  0  0  0  0  0  0  0  0
  -24.6080  -31.8690   23.2140 C   0  0  0  0  0  0  0  0  0  0  0  0
  -27.2480  -27.4910   20.0750 C   0  0  0  0  0  0  0  0  0  0  0  0
  -23.3930  -30.4910   21.5530 C   0  0  0  0  0  3  0  0  0  0  0  0
  -24.8400  -28.9590   20.1200 C   0  0  0  0  0  0  0  0  0  0  0  0
  -25.9120  -30.8540   21.3550 C   0  0  0  0  0  2  0  0  0  0  0  0
  -25.9940  -29.4890   20.7110 C   0  0  0  0  0  0  0  0  0  0  0  0
  -27.1990  -28.7600   20.6960 C   0  0  0  0  0  3  0  0  0  0  0  0
  -26.0730  -26.9520   19.5170 C   0  0  0  0  0  3  0  0  0  0  0  0
  -24.8690  -27.6820   19.5310 C   0  0  0  0  0  3  0  0  0  0  0  0
  -23.5980  -29.8180   20.1680 C   0  0  0  0  0  2  0  0  0  0  0  0
  -24.6560  -31.0840   22.1000 N   0  0  0  0  0  0  0  0  0  0  0  0
  -23.5300  -32.1420   23.7580 O   0  0  0  0  0  0  0  0  0  0  0  0
  -22.7380  -29.4650   22.5040 C   0  0  0  0  0  0  0  0  0  0  0  0
  -21.4110  -29.2990   22.3760 N   0  0  0  0  0  0  0  0  0  0  0  0
  -23.4180  -28.8200   23.3060 O   0  0  0  0  0  0  0  0  0  0  0  0
  -20.9260  -29.8750   21.7030 H   0  0  0  0  0  0  0  0  0  0  0  0
  -18.0260  -28.1370   22.8500 C   0  0  0  0  0  0  0  0  0  0  0  0
  -20.5840  -28.3630   23.1340 C   0  0  0  0  0  3  0  0  0  0  0  0
  -20.6740  -26.9380   22.5420 C   0  0  0  0  0  2  0  0  0  0  0  0
  -19.5730  -26.6370   21.5200 C   0  0  0  0  0  2  0  0  0  0  0  0
  -18.1900  -26.7930   22.1610 C   0  0  0  0  0  2  0  0  0  0  0  0
  -19.1510  -28.8830   23.2910 C   0  0  0  0  0  0  0  0  0  0  0  0
  -18.9430  -30.1450   23.8900 C   0  0  0  0  0  3  0  0  0  0  0  0
  -17.6420  -30.6580   24.0570 C   0  0  0  0  0  3  0  0  0  0  0  0
  -16.5320  -29.9060   23.6340 C   0  0  0  0  0  3  0  0  0  0  0  0
  -16.7240  -28.6490   23.0350 C   0  0  0  0  0  3  0  0  0  0  0  0
  -25.9010  -32.4840   23.8410 C   0  0  0  0  0  3  0  0  0  0  0  0
  -26.4480  -31.6600   25.0730 C   0  0  1  0  0  0  0  0  0  0  0  0
  -25.3770  -31.3680   26.1490 C   0  0  0  0  0  1  0  0  0  0  0  0
  -27.0300  -30.3050   24.6090 C   0  0  0  0  0  1  0  0  0  0  0  0
  -27.6050  -32.4300   25.7510 C   0  0  0  0  0  1  0  0  0  0  0  0
  -25.5870  -33.8630   24.2340 N   0  0  0  0  0  0  0  0  0  0  0  0
  -25.9000  -34.9490   23.5130 C   0  0  0  0  0  0  0  0  0  0  0  0
  -26.5570  -34.8960   22.4700 O   0  0  0  0  0  0  0  0  0  0  0  0
  -25.0050  -33.9790   25.0510 H   0  0  0  0  0  0  0  0  0  0  0  0
  -24.1460  -36.7330   23.2630 C   0  0  0  0  0  1  0  0  0  0  0  0
  -25.4080  -36.3130   24.0340 C   0  0  0  0  0  3  0  0  0  0  0  0
  -27.5580  -37.1810   24.8470 C   0  0  0  0  0  1  0  0  0  0  0  0
  -26.4290  -37.3810   23.9440 N   0  0  0  0  0  0  0  0  0  0  0  0
  -26.0160  -38.2860   24.1510 H   0  0  0  0  0  0  0  0  0  0  0  0
  -29.3310  -23.9450   21.5300 C   0  0  0  0  0  2  0  0  0  0  0  0
  -28.3410  -22.9580   21.7900 O   0  0  0  0  0  0  0  0  0  0  0  0
  -27.0170  -23.4750   21.8050 C   0  0  0  0  0  2  0  0  0  0  0  0
  -26.0640  -22.3280   21.4380 C   0  0  0  0  0  2  0  0  0  0  0  0
  -26.3710  -21.7780   20.0350 C   0  0  0  0  0  2  0  0  0  0  0  0
  -25.5370  -20.5460   19.6340 C   0  0  0  0  0  2  0  0  0  0  0  0
  -26.0370  -19.8790   18.3340 C   0  0  0  0  0  2  0  0  0  0  0  0
  -27.9340  -18.4690   19.0990 C   0  0  0  0  0  0  0  0  0  0  0  0
  -27.4520  -19.5250   18.4350 N   0  0  0  0  0  0  0  0  0  0  0  0
  -27.2220  -17.5550   19.5200 O   0  0  0  0  0  0  0  0  0  0  0  0
  -28.1110  -20.2010   18.0710 H   0  0  0  0  0  0  0  0  0  0  0  0
  -29.4300  -18.4410   19.3820 C   0  0  0  0  0  2  0  0  0  0  0  0
  -29.6340  -17.7700   20.6790 N   0  0  0  0  0  4  0  0  0  0  0  0
  -29.1150  -16.9100   20.6220 H   0  0  0  0  0  0  0  0  0  0  0  0
  -29.1950  -18.3200   21.4000 H   0  0  0  0  0  0  0  0  0  0  0  0
  -31.0310  -17.4820   21.0490 C   0  0  0  0  0  2  0  0  0  0  0  0
  -31.1170  -16.3420   22.0900 C   0  0  0  0  0  2  0  0  0  0  0  0
  -30.8030  -14.3320   20.6710 C   0  0  0  0  0  0  0  0  0  0  0  0
  -30.4080  -12.2680   19.3970 C   0  0  0  0  0  2  0  0  0  0  0  0
  -29.4820  -12.5210   18.1940 C   0  0  0  0  0  2  0  0  0  0  0  0
  -28.0060  -12.3840   18.6120 C   0  0  0  0  0  2  0  0  0  0  0  0
  -27.6680  -13.2090   19.8820 C   0  0  0  0  0  3  0  0  0  0  0  0
  -28.7090  -12.9600   21.0000 C   0  0  0  0  0  2  0  0  0  0  0  0
  -30.0570  -13.2200   20.4610 N   0  0  0  0  0  0  0  0  0  0  0  0
  -31.8030  -14.6180   20.0090 O   0  0  0  0  0  0  0  0  0  0  0  0
  -30.4070  -15.1240   21.6740 N   0  0  0  0  0  0  0  0  0  0  0  0
  -29.6490  -14.7880   22.2510 H   0  0  0  0  0  0  0  0  0  0  0  0
  -25.2590  -13.8190   20.5670 C   0  0  0  0  0  0  0  0  0  0  0  0
  -24.1850  -13.0440   20.9190 C   0  0  0  0  0  0  0  0  0  0  0  0
  -24.6410  -11.6920   20.8740 C   0  0  0  0  0  0  0  0  0  0  0  0
  -26.3060  -12.9370   20.3400 N   0  0  0  0  0  0  0  0  0  0  0  0
  -25.9350  -11.6530   20.5790 N   0  0  0  0  0  0  0  0  0  0  0  0
  -23.9080  -10.4290   21.0400 C   0  0  0  0  0  0  0  0  0  0  0  0
  -24.3630   -9.4210   21.9180 C   0  0  0  0  0  3  0  0  0  0  0  0
  -23.6300   -8.2250   22.0760 C   0  0  0  0  0  3  0  0  0  0  0  0
  -22.4280   -8.0290   21.3550 C   0  0  0  0  0  0  0  0  0  0  0  0
  -21.9920   -9.0260   20.4650 C   0  0  0  0  0  3  0  0  0  0  0  0
  -22.7250  -10.2130   20.3050 C   0  0  0  0  0  3  0  0  0  0  0  0
  -21.6640   -6.8890   21.4250 O   0  0  0  0  0  0  0  0  0  0  0  0
  -21.6850   -6.0740   22.5290 C   0  0  0  0  0  0  0  0  0  0  0  0
  -21.4010   -6.5640   23.8220 C   0  0  0  0  0  3  0  0  0  0  0  0
  -21.3670   -5.6790   24.9180 C   0  0  0  0  0  3  0  0  0  0  0  0
  -21.6050   -4.3050   24.7220 C   0  0  0  0  0  0  0  0  0  0  0  0
  -21.8810   -3.8150   23.4340 C   0  0  0  0  0  3  0  0  0  0  0  0
  -21.9190   -4.6970   22.3400 C   0  0  0  0  0  0  0  0  0  0  0  0
  -22.1650   -4.2160   21.0980 F   0  0  0  0  0  0  0  0  0  0  0  0
  -21.5640   -3.4540   25.7730 F   0  0  0  0  0  0  0  0  0  0  0  0
  -22.7870  -13.5240   21.1860 C   0  0  0  0  0  0  0  0  0  0  0  0
  -22.0500  -12.8210   22.0410 N   0  0  0  0  0  0  0  0  0  0  0  0
  -22.3540  -14.5550   20.6720 O   0  0  0  0  0  0  0  0  0  0  0  0
  -22.4090  -11.9850   22.4770 H   0  0  0  0  0  0  0  0  0  0  0  0
  -21.1120  -13.1240   22.2620 H   0  0  0  0  0  0  0  0  0  0  0  0
  -25.4210  -15.1910   20.4060 N   0  0  0  0  0  0  0  0  0  0  0  0
  -24.6390  -15.8280   20.5100 H   0  0  0  0  0  0  0  0  0  0  0  0
  -26.2460  -15.6610   20.0450 H   0  0  0  0  0  0  0  0  0  0  0  0
  1 59  1  0
  1  3  2  0
  2  1  1  0
  4  2  1  0
  5  2  1  0
  6  5  1  0
  7  6  1  0
  8  7  1  0
  9  8  1  0
 10 11  1  0
 10  9  1  0
 11 14  1  0
 11 13  1  0
 12 10  2  0
 14 15  1  0
 15 16  1  0
 16 17  1  0
 17 18  1  0
 18 20  1  0
 19 30  2  0
 20 25  1  0
 21 29  1  0
 21 31  1  0
 22 28  1  0
 22 24  1  0
 23 29  1  0
 24 23  1  0
 25 24  2  0
 26 27  1  0
 26 20  2  0
 27 22  2  0
 28 21  1  0
 29 19  1  0
 31 33  2  0
 32 31  1  0
 34 32  1  0
 35 44  2  0
 35 40  1  0
 36 32  1  0
 36 40  1  0
 37 36  1  0
 38 39  1  0
 38 37  1  0
 39 35  1  0
 40 41  2  0
 41 42  1  0
 43 42  2  0
 44 43  1  0
 45 19  1  0
 45 50  1  0
 45 46  1  0
 46 49  1  1
 46 47  1  0
 48 46  1  0
 50 53  1  0
 51 55  1  0
 51 50  1  0
 52 51  2  0
 55 54  1  0
 57 55  1  0
 57 58  1  0
 57 56  1  0
 59 60  1  0
 60 61  1  0
 62 61  1  0
 63 62  1  0
 64 63  1  0
 65 67  1  0
 65 64  1  0
 66 70  1  0
 66 68  2  0
 67 66  1  0
 69 67  1  0
 70 71  1  0
 71 74  1  0
 71 73  1  0
 72 71  1  0
 74 75  1  0
 76 84  1  0
 77 82  1  0
 78 79  1  0
 78 77  1  0
 80 79  1  0
 80 89  1  0
 80 81  1  0
 82 76  1  0
 82 81  1  0
 83 76  2  0
 84 75  1  0
 84 85  1  0
 86 87  2  0
 87106  1  0
 88 87  1  0
 88 91  1  0
 89 86  1  0
 89 90  1  0
 90 88  2  0
 91 92  1  0
 92 93  2  0
 94 97  1  0
 94 93  1  0
 95 94  2  0
 96 95  1  0
 96 91  2  0
 97 98  1  0
 98 99  1  0
 99100  2  0
101100  1  0
101105  1  0
102101  2  0
103 98  2  0
103102  1  0
104103  1  0
106107  1  0
107110  1  0
107109  1  0
108106  2  0
111112  1  0
111 86  1  0
113111  1  0
M  ISO  4  17 101  18 101  76 100  84 100
M  END
>  <TORSDO>  (5) 
F 38

>  <SCORE>  (5) 
-6.662

>  <name>  (5) 
4

>  <ligand_id>  (5) 
4

>  <original_smiles>  (5) 
[H]c1c([H])c([H])c2c(c1[H])C([H])([H])C([H])([H])C([H])([H])C2([H])N([H])C(=O)C1([H])N(C(=O)C([H])(N([H])C(=O)C([H])(N([H])C([H])([H])[H])C([H])([H])[H])C(C([H])([H])[H])(C([H])([H])[H])C([H])([H])[H])C([H])([H])c2c([H])c(OC([H])([H])C([H])([H])C([H])([H])C([H])([H])N([H])C(=O)C([H])([H])C([H])([H])C([H])([H])C([H])([H])C([H])([H])N([H])C(=O)C([H])([H])OC([H])([H])C([H])([H])C([H])([H])C([H])([H])C([H])([H])N([H])C(=O)C([H])([H])[N+]([H])([H])C([H])([H])C([H])([H])N([H])C(=O)N3C([H])([H])C([H])([H])C([H])([H])C([H])(n4nc(-c5c([H])c([H])c(Oc6c([H])c([H])c(F)c([H])c6F)c([H])c5[H])c(C(=O)N([H])[H])c4N([H])[H])C3([H])[H])c([H])c([H])c2C1([H])[H]

>  <smiles>  (5) 
[H]c1c([H])c([H])c2c(c1[H])C([H])([H])C([H])([H])C([H])([H])C2([H])N([H])C(=O)C1([H])N(C(=O)C([H])(N([H])C(=O)C([H])(N([H])C([H])([H])[H])C([H])([H])[H])C(C([H])([H])[H])(C([H])([H])[H])C([H])([H])[H])C([H])([H])c2c([H])c(OC([H])([H])C([H])([H])C([H])([H])C([H])([H])N([H])C(=O)C([H])([H])C([H])([H])C([H])([H])C([H])([H])C([H])([H])N([H])C(=O)C([H])([H])OC([H])([H])C([H])([H])C([H])([H])C([H])([H])C([H])([H])N([H])C(=O)C([H])([H])[N+]([H])([H])C([H])([H])C([H])([H])N([H])C(=O)N3C([H])([H])C([H])([H])C([H])([H])C([H])(n4nc(-c5c([H])c([H])c(Oc6c([H])c([H])c(F)c([H])c6F)c([H])c5[H])c(C(=O)N([H])[H])c4N([H])[H])C3([H])[H])c([H])c([H])c2C1([H])[H]

$$$$
5:0:0
     RDKit          3D

105112  0  0  1  0  0  0  0  0999 V2000
  -26.2110  -21.8370   20.2280 C   0  0  0  0  0  2  0  0  0  0  0  0
  -24.9890  -22.6480   19.7580 C   0  0  0  0  0  2  0  0  0  0  0  0
  -25.2270  -23.2020   18.4670 O   0  0  0  0  0  0  0  0  0  0  0  0
  -25.6260  -24.5680   18.4620 C   0  0  0  0  0  2  0  0  0  0  0  0
  -26.3410  -24.8480   17.1290 C   0  0  0  0  0  2  0  0  0  0  0  0
  -27.4520  -23.9000   16.8360 N   0  0  0  0  0  4  0  0  0  0  0  0
  -27.0310  -22.9930   16.6940 H   0  0  0  0  0  0  0  0  0  0  0  0
  -27.8870  -24.1580   15.9640 H   0  0  0  0  0  0  0  0  0  0  0  0
  -28.5010  -23.7290   17.8720 C   0  0  0  0  0  2  0  0  0  0  0  0
  -29.3340  -25.0030   18.1420 C   0  0  0  0  0  2  0  0  0  0  0  0
  -29.6600  -25.2170   19.6360 C   0  0  0  0  0  2  0  0  0  0  0  0
  -30.1270  -26.6500   19.9680 C   0  0  0  0  0  2  0  0  0  0  0  0
  -29.5590  -27.1600   21.1820 O   0  0  0  0  0  0  0  0  0  0  0  0
  -24.9540  -31.9870   23.7050 C   0  0  0  0  0  0  0  0  0  0  0  0
  -28.3130  -27.7390   21.0790 C   0  0  0  0  0  0  0  0  0  0  0  0
  -24.0700  -30.4520   21.9800 C   0  0  0  0  0  3  0  0  0  0  0  0
  -25.8020  -29.0090   20.7940 C   0  0  0  0  0  0  0  0  0  0  0  0
  -26.5640  -31.0140   22.0770 C   0  0  0  0  0  2  0  0  0  0  0  0
  -26.8340  -29.6440   21.4980 C   0  0  0  0  0  0  0  0  0  0  0  0
  -28.0880  -29.0100   21.6520 C   0  0  0  0  0  3  0  0  0  0  0  0
  -27.2480  -27.1030   20.4040 C   0  0  0  0  0  3  0  0  0  0  0  0
  -26.0000  -27.7300   20.2520 C   0  0  0  0  0  3  0  0  0  0  0  0
  -24.5000  -29.7630   20.6580 C   0  0  0  0  0  2  0  0  0  0  0  0
  -25.2060  -31.1680   22.6460 N   0  0  0  0  0  0  0  0  0  0  0  0
  -23.7980  -32.1830   24.1040 O   0  0  0  0  0  0  0  0  0  0  0  0
  -23.3950  -29.3990   22.8870 C   0  0  0  0  0  0  0  0  0  0  0  0
  -22.1220  -29.0890   22.5950 N   0  0  0  0  0  0  0  0  0  0  0  0
  -24.0180  -28.8620   23.8070 O   0  0  0  0  0  0  0  0  0  0  0  0
  -21.6800  -29.5740   21.8260 H   0  0  0  0  0  0  0  0  0  0  0  0
  -18.8220  -27.6250   22.7150 C   0  0  0  0  0  0  0  0  0  0  0  0
  -21.2970  -28.1010   23.2900 C   0  0  0  0  0  3  0  0  0  0  0  0
  -21.5860  -26.6730   22.7750 C   0  0  0  0  0  2  0  0  0  0  0  0
  -20.6480  -26.2370   21.6460 C   0  0  0  0  0  2  0  0  0  0  0  0
  -19.1890  -26.2800   22.1110 C   0  0  0  0  0  2  0  0  0  0  0  0
  -19.8130  -28.4870   23.2520 C   0  0  0  0  0  0  0  0  0  0  0  0
  -19.4220  -29.7430   23.7660 C   0  0  0  0  0  3  0  0  0  0  0  0
  -18.0690  -30.1360   23.7580 C   0  0  0  0  0  3  0  0  0  0  0  0
  -17.0910  -29.2710   23.2380 C   0  0  0  0  0  3  0  0  0  0  0  0
  -17.4670  -28.0200   22.7190 C   0  0  0  0  0  3  0  0  0  0  0  0
  -26.1050  -32.7360   24.4490 C   0  0  0  0  0  3  0  0  0  0  0  0
  -26.4390  -32.1130   25.8600 C   0  0  1  0  0  0  0  0  0  0  0  0
  -25.1970  -31.8930   26.7550 C   0  0  0  0  0  1  0  0  0  0  0  0
  -27.1500  -30.7480   25.7010 C   0  0  0  0  0  1  0  0  0  0  0  0
  -27.4140  -33.0380   26.6240 C   0  0  0  0  0  1  0  0  0  0  0  0
  -25.6990  -34.1420   24.5850 N   0  0  0  0  0  0  0  0  0  0  0  0
  -26.0960  -35.1280   23.7720 C   0  0  0  0  0  0  0  0  0  0  0  0
  -26.9110  -34.9590   22.8610 O   0  0  0  0  0  0  0  0  0  0  0  0
  -24.9970  -34.3470   25.2800 H   0  0  0  0  0  0  0  0  0  0  0  0
  -24.3620  -36.7760   22.9970 C   0  0  0  0  0  1  0  0  0  0  0  0
  -25.4920  -36.5250   24.0070 C   0  0  0  0  0  3  0  0  0  0  0  0
  -27.4470  -37.6110   25.0230 C   0  0  0  0  0  1  0  0  0  0  0  0
  -26.4860  -37.6180   23.9220 N   0  0  0  0  0  0  0  0  0  0  0  0
  -26.0240  -38.5250   23.9110 H   0  0  0  0  0  0  0  0  0  0  0  0
  -27.3080  -22.6560   20.9400 C   0  0  0  0  0  2  0  0  0  0  0  0
  -28.7170  -22.1220   20.6420 C   0  0  0  0  0  2  0  0  0  0  0  0
  -29.8220  -22.7880   21.4830 C   0  0  0  0  0  2  0  0  0  0  0  0
  -31.2080  -22.8140   20.8030 C   0  0  0  0  0  2  0  0  0  0  0  0
  -32.0260  -20.4670   20.6870 C   0  0  0  0  0  0  0  0  0  0  0  0
  -31.5170  -21.5630   20.1150 N   0  0  0  0  0  0  0  0  0  0  0  0
  -32.3600  -20.4300   21.8740 O   0  0  0  0  0  0  0  0  0  0  0  0
  -31.2940  -21.5130   19.1290 H   0  0  0  0  0  0  0  0  0  0  0  0
  -32.1860  -19.2330   19.7890 C   0  0  0  0  0  2  0  0  0  0  0  0
  -31.1160  -17.3080   20.9330 C   0  0  0  0  0  0  0  0  0  0  0  0
  -32.1980  -18.0020   20.5730 N   0  0  0  0  0  0  0  0  0  0  0  0
  -29.9750  -17.6170   20.5860 O   0  0  0  0  0  0  0  0  0  0  0  0
  -33.0940  -17.7060   20.9330 H   0  0  0  0  0  0  0  0  0  0  0  0
  -31.3440  -16.0830   21.8230 C   0  0  0  0  0  2  0  0  0  0  0  0
  -30.8620  -14.2480   20.2220 C   0  0  0  0  0  0  0  0  0  0  0  0
  -30.3790  -12.2080   18.9260 C   0  0  0  0  0  2  0  0  0  0  0  0
  -29.3820  -12.4600   17.7800 C   0  0  0  0  0  2  0  0  0  0  0  0
  -27.9330  -12.3340   18.2830 C   0  0  0  0  0  2  0  0  0  0  0  0
  -27.6770  -13.1660   19.5660 C   0  0  0  0  0  3  0  0  0  0  0  0
  -28.7710  -12.8980   20.6240 C   0  0  0  0  0  2  0  0  0  0  0  0
  -30.0890  -13.1520   20.0140 N   0  0  0  0  0  0  0  0  0  0  0  0
  -31.8120  -14.5590   19.4970 O   0  0  0  0  0  0  0  0  0  0  0  0
  -30.5930  -14.9230   21.3450 N   0  0  0  0  0  0  0  0  0  0  0  0
  -29.8090  -14.6160   21.8980 H   0  0  0  0  0  0  0  0  0  0  0  0
  -25.3500  -13.8240   20.4540 C   0  0  0  0  0  0  0  0  0  0  0  0
  -24.2690  -13.0740   20.8280 C   0  0  0  0  0  0  0  0  0  0  0  0
  -24.6630  -11.7080   20.6740 C   0  0  0  0  0  0  0  0  0  0  0  0
  -26.3390  -12.9180   20.1010 N   0  0  0  0  0  0  0  0  0  0  0  0
  -25.9310  -11.6370   20.2880 N   0  0  0  0  0  0  0  0  0  0  0  0
  -23.8920  -10.4670   20.8180 C   0  0  0  0  0  0  0  0  0  0  0  0
  -24.2630   -9.4690   21.7460 C   0  0  0  0  0  3  0  0  0  0  0  0
  -23.4950   -8.2930   21.8770 C   0  0  0  0  0  3  0  0  0  0  0  0
  -22.3400   -8.1060   21.0800 C   0  0  0  0  0  0  0  0  0  0  0  0
  -21.9870   -9.0920   20.1430 C   0  0  0  0  0  3  0  0  0  0  0  0
  -22.7570  -10.2600   20.0090 C   0  0  0  0  0  3  0  0  0  0  0  0
  -21.5490   -6.9840   21.1220 O   0  0  0  0  0  0  0  0  0  0  0  0
  -21.3670   -6.2730   22.2810 C   0  0  0  0  0  0  0  0  0  0  0  0
  -20.8110   -6.8620   23.4370 C   0  0  0  0  0  3  0  0  0  0  0  0
  -20.5780   -6.0780   24.5840 C   0  0  0  0  0  3  0  0  0  0  0  0
  -20.8900   -4.7060   24.5760 C   0  0  0  0  0  0  0  0  0  0  0  0
  -21.4380   -4.1160   23.4230 C   0  0  0  0  0  3  0  0  0  0  0  0
  -21.6730   -4.8970   22.2780 C   0  0  0  0  0  0  0  0  0  0  0  0
  -22.1820   -4.3190   21.1630 F   0  0  0  0  0  0  0  0  0  0  0  0
  -20.6590   -3.9500   25.6740 F   0  0  0  0  0  0  0  0  0  0  0  0
  -22.9120  -13.5870   21.2190 C   0  0  0  0  0  0  0  0  0  0  0  0
  -22.2070  -12.8630   22.0810 N   0  0  0  0  0  0  0  0  0  0  0  0
  -22.4910  -14.6630   20.7970 O   0  0  0  0  0  0  0  0  0  0  0  0
  -22.5620  -11.9900   22.4440 H   0  0  0  0  0  0  0  0  0  0  0  0
  -21.2990  -13.1860   22.3840 H   0  0  0  0  0  0  0  0  0  0  0  0
  -25.5690  -15.1950   20.3640 N   0  0  0  0  0  0  0  0  0  0  0  0
  -24.8460  -15.8760   20.5690 H   0  0  0  0  0  0  0  0  0  0  0  0
  -26.4320  -15.6180   20.0440 H   0  0  0  0  0  0  0  0  0  0  0  0
  1 54  1  0
  2  1  1  0
  3  2  1  0
  4  3  1  0
  5  4  1  0
  6  5  1  0
  6  9  1  0
  7  6  1  0
  8  6  1  0
  9 10  1  0
 10 11  1  0
 11 12  1  0
 12 13  1  0
 14 25  2  0
 15 13  1  0
 15 20  1  0
 16 24  1  0
 16 26  1  0
 17 19  1  0
 18 24  1  0
 19 20  2  0
 19 18  1  0
 21 15  2  0
 22 21  1  0
 22 17  2  0
 23 17  1  0
 23 16  1  0
 24 14  1  0
 26 28  2  0
 27 26  1  0
 29 27  1  0
 30 39  2  0
 30 35  1  0
 31 27  1  0
 32 31  1  0
 33 34  1  0
 33 32  1  0
 34 30  1  0
 35 31  1  0
 35 36  2  0
 37 36  1  0
 38 37  2  0
 39 38  1  0
 40 14  1  0
 40 45  1  0
 40 41  1  0
 41 44  1  1
 41 42  1  0
 43 41  1  0
 45 48  1  0
 46 50  1  0
 46 45  1  0
 47 46  2  0
 50 49  1  0
 52 50  1  0
 52 51  1  0
 53 52  1  0
 55 54  1  0
 55 56  1  0
 57 56  1  0
 58 60  2  0
 59 58  1  0
 59 57  1  0
 61 59  1  0
 62 64  1  0
 62 58  1  0
 63 67  1  0
 64 66  1  0
 64 63  1  0
 65 63  2  0
 68 76  1  0
 69 74  1  0
 70 71  1  0
 70 69  1  0
 72 71  1  0
 72 81  1  0
 72 73  1  0
 74 68  1  0
 74 73  1  0
 75 68  2  0
 76 67  1  0
 76 77  1  0
 78 79  2  0
 79 98  1  0
 80 83  1  0
 80 79  1  0
 81 82  1  0
 81 78  1  0
 82 80  2  0
 83 84  1  0
 84 85  2  0
 86 89  1  0
 86 85  1  0
 87 86  2  0
 88 87  1  0
 88 83  2  0
 89 90  1  0
 90 91  1  0
 91 92  2  0
 93 92  1  0
 93 97  1  0
 94 93  2  0
 95 90  2  0
 95 94  1  0
 96 95  1  0
 98 99  1  0
 99102  1  0
 99101  1  0
100 98  2  0
103 78  1  0
103104  1  0
105103  1  0
M  ISO  4  12 101  13 101  68 100  76 100
M  END
>  <TORSDO>  (6) 
F 33

>  <SCORE>  (6) 
-8.461

>  <name>  (6) 
5

>  <ligand_id>  (6) 
5

>  <original_smiles>  (6) 
[H]c1c([H])c([H])c2c(c1[H])C([H])([H])C([H])([H])C([H])([H])C2([H])N([H])C(=O)C1([H])N(C(=O)C([H])(N([H])C(=O)C([H])(N([H])C([H])([H])[H])C([H])([H])[H])C(C([H])([H])[H])(C([H])([H])[H])C([H])([H])[H])C([H])([H])c2c([H])c(OC([H])([H])C([H])([H])C([H])([H])C([H])([H])[N+]([H])([H])C([H])([H])C([H])([H])OC([H])([H])C([H])([H])C([H])([H])C([H])([H])C([H])([H])C([H])([H])N([H])C(=O)C([H])([H])N([H])C(=O)C([H])([H])N([H])C(=O)N3C([H])([H])C([H])([H])C([H])([H])C([H])(n4nc(-c5c([H])c([H])c(Oc6c([H])c([H])c(F)c([H])c6F)c([H])c5[H])c(C(=O)N([H])[H])c4N([H])[H])C3([H])[H])c([H])c([H])c2C1([H])[H]

>  <smiles>  (6) 
[H]c1c([H])c([H])c2c(c1[H])C([H])([H])C([H])([H])C([H])([H])C2([H])N([H])C(=O)C1([H])N(C(=O)C([H])(N([H])C(=O)C([H])(N([H])C([H])([H])[H])C([H])([H])[H])C(C([H])([H])[H])(C([H])([H])[H])C([H])([H])[H])C([H])([H])c2c([H])c(OC([H])([H])C([H])([H])C([H])([H])C([H])([H])[N+]([H])([H])C([H])([H])C([H])([H])OC([H])([H])C([H])([H])C([H])([H])C([H])([H])C([H])([H])C([H])([H])N([H])C(=O)C([H])([H])N([H])C(=O)C([H])([H])N([H])C(=O)N3C([H])([H])C([H])([H])C([H])([H])C([H])(n4nc(-c5c([H])c([H])c(Oc6c([H])c([H])c(F)c([H])c6F)c([H])c5[H])c(C(=O)N([H])[H])c4N([H])[H])C3([H])[H])c([H])c([H])c2C1([H])[H]

$$$$
6:0:0
     RDKit          3D

105112  0  0  1  0  0  0  0  0999 V2000
  -29.7250  -15.4170   26.1630 C   0  0  0  0  0  0  0  0  0  0  0  0
  -30.6750  -15.6860   25.2560 N   0  0  0  0  0  0  0  0  0  0  0  0
  -29.0910  -16.2960   26.7480 O   0  0  0  0  0  0  0  0  0  0  0  0
  -31.1410  -14.8710   24.8850 H   0  0  0  0  0  0  0  0  0  0  0  0
  -31.2160  -16.9750   24.8630 C   0  0  0  0  0  2  0  0  0  0  0  0
  -30.7240  -17.4280   23.4820 C   0  0  0  0  0  2  0  0  0  0  0  0
  -31.5100  -18.6420   22.9850 C   0  0  0  0  0  2  0  0  0  0  0  0
  -30.7680  -19.4260   21.8970 C   0  0  0  0  0  2  0  0  0  0  0  0
  -31.4520  -20.7740   21.6050 C   0  0  0  0  0  2  0  0  0  0  0  0
  -30.5140  -21.8520   21.0480 C   0  0  0  0  0  0  0  0  0  0  0  0
  -31.1050  -22.9360   20.5390 N   0  0  0  0  0  0  0  0  0  0  0  0
  -29.2880  -21.7350   21.1050 O   0  0  0  0  0  0  0  0  0  0  0  0
  -32.1160  -22.9660   20.5330 H   0  0  0  0  0  0  0  0  0  0  0  0
  -30.3940  -24.1410   20.1270 C   0  0  0  0  0  2  0  0  0  0  0  0
  -31.3310  -25.1140   19.3880 C   0  0  0  0  0  2  0  0  0  0  0  0
  -30.9470  -26.4620   19.6420 O   0  0  0  0  0  0  0  0  0  0  0  0
  -25.7720  -29.1520   23.6820 C   0  0  0  0  0  0  0  0  0  0  0  0
  -29.6110  -26.7840   19.7070 C   0  0  0  0  0  0  0  0  0  0  0  0
  -25.0480  -28.1840   21.5260 C   0  0  0  0  0  3  0  0  0  0  0  0
  -26.9100  -27.6020   19.8920 C   0  0  0  0  0  0  0  0  0  0  0  0
  -27.3980  -29.1490   21.7900 C   0  0  0  0  0  2  0  0  0  0  0  0
  -27.8630  -28.1330   20.7680 C   0  0  0  0  0  0  0  0  0  0  0  0
  -29.2120  -27.7290   20.6770 C   0  0  0  0  0  3  0  0  0  0  0  0
  -28.6340  -26.2490   18.8350 C   0  0  0  0  0  3  0  0  0  0  0  0
  -27.2890  -26.6530   18.9260 C   0  0  0  0  0  3  0  0  0  0  0  0
  -25.4900  -28.0960   20.0410 C   0  0  0  0  0  2  0  0  0  0  0  0
  -26.0880  -28.8240   22.3970 N   0  0  0  0  0  0  0  0  0  0  0  0
  -24.6300  -28.9680   24.1260 O   0  0  0  0  0  0  0  0  0  0  0  0
  -24.6330  -26.7720   21.9980 C   0  0  0  0  0  0  0  0  0  0  0  0
  -23.4340  -26.3340   21.5820 N   0  0  0  0  0  0  0  0  0  0  0  0
  -25.3850  -26.0910   22.7000 O   0  0  0  0  0  0  0  0  0  0  0  0
  -22.8710  -26.9550   21.0190 H   0  0  0  0  0  0  0  0  0  0  0  0
  -20.5480  -24.2480   20.9820 C   0  0  0  0  0  0  0  0  0  0  0  0
  -22.8480  -25.0260   21.8710 C   0  0  0  0  0  3  0  0  0  0  0  0
  -23.4570  -23.9310   20.9650 C   0  0  0  0  0  2  0  0  0  0  0  0
  -22.6500  -23.6890   19.6870 C   0  0  0  0  0  2  0  0  0  0  0  0
  -21.2150  -23.2750   20.0250 C   0  0  0  0  0  2  0  0  0  0  0  0
  -21.3160  -25.0800   21.8390 C   0  0  0  0  0  0  0  0  0  0  0  0
  -20.6460  -25.9940   22.6830 C   0  0  0  0  0  3  0  0  0  0  0  0
  -19.2400  -26.0750   22.6880 C   0  0  0  0  0  3  0  0  0  0  0  0
  -18.4860  -25.2340   21.8520 C   0  0  0  0  0  3  0  0  0  0  0  0
  -19.1400  -24.3250   21.0010 C   0  0  0  0  0  3  0  0  0  0  0  0
  -26.8200  -29.7920   24.6420 C   0  0  0  0  0  3  0  0  0  0  0  0
  -26.3630  -31.1540   24.9520 N   0  0  0  0  0  0  0  0  0  0  0  0
  -26.8140  -32.2620   24.3500 C   0  0  0  0  0  0  0  0  0  0  0  0
  -27.7250  -32.2490   23.5170 O   0  0  0  0  0  0  0  0  0  0  0  0
  -25.5810  -31.2330   25.5850 H   0  0  0  0  0  0  0  0  0  0  0  0
  -25.1540  -34.0150   23.6460 C   0  0  0  0  0  1  0  0  0  0  0  0
  -26.1500  -33.5970   24.7370 C   0  0  0  0  0  3  0  0  0  0  0  0
  -28.0120  -34.4450   26.0970 C   0  0  0  0  0  1  0  0  0  0  0  0
  -27.1210  -34.6900   24.9680 N   0  0  0  0  0  0  0  0  0  0  0  0
  -26.6370  -35.5680   25.1350 H   0  0  0  0  0  0  0  0  0  0  0  0
  -27.0430  -28.9560   25.9630 C   0  0  1  0  0  0  0  0  0  0  0  0
  -25.7290  -28.5130   26.6480 C   0  0  0  0  0  1  0  0  0  0  0  0
  -27.8710  -27.6840   25.6630 C   0  0  0  0  0  1  0  0  0  0  0  0
  -27.8570  -29.7880   26.9820 C   0  0  0  0  0  1  0  0  0  0  0  0
  -29.4780  -13.9290   26.4750 C   0  0  0  0  0  2  0  0  0  0  0  0
  -31.5400  -12.5260   26.5080 C   0  0  0  0  0  0  0  0  0  0  0  0
  -30.4900  -13.0590   25.8680 N   0  0  0  0  0  0  0  0  0  0  0  0
  -31.6410  -12.5240   27.7350 O   0  0  0  0  0  0  0  0  0  0  0  0
  -30.4940  -12.9820   24.8580 H   0  0  0  0  0  0  0  0  0  0  0  0
  -32.6940  -12.0330   25.6280 C   0  0  0  0  0  2  0  0  0  0  0  0
  -32.7210  -12.4140   23.1660 C   0  0  0  0  0  0  0  0  0  0  0  0
  -32.8160  -12.8630   24.4220 N   0  0  0  0  0  0  0  0  0  0  0  0
  -32.5860  -11.2130   22.9180 O   0  0  0  0  0  0  0  0  0  0  0  0
  -32.8930  -13.8610   24.5710 H   0  0  0  0  0  0  0  0  0  0  0  0
  -32.6800  -13.4500   22.0390 C   0  0  0  0  0  2  0  0  0  0  0  0
  -31.3460  -12.8640   20.0510 C   0  0  0  0  0  0  0  0  0  0  0  0
  -30.5220  -10.9080   18.8060 C   0  0  0  0  0  2  0  0  0  0  0  0
  -29.5000  -11.2180   17.7050 C   0  0  0  0  0  2  0  0  0  0  0  0
  -28.0790  -11.2530   18.2900 C   0  0  0  0  0  2  0  0  0  0  0  0
  -27.9780  -12.1720   19.5330 C   0  0  0  0  0  3  0  0  0  0  0  0
  -29.0940  -11.8600   20.5530 C   0  0  0  0  0  2  0  0  0  0  0  0
  -30.3970  -11.9160   19.8640 N   0  0  0  0  0  0  0  0  0  0  0  0
  -32.2270  -13.1370   19.2300 O   0  0  0  0  0  0  0  0  0  0  0  0
  -31.4240  -13.2660   21.3170 N   0  0  0  0  0  0  0  0  0  0  0  0
  -30.6750  -12.9200   21.9000 H   0  0  0  0  0  0  0  0  0  0  0  0
  -25.8380  -13.1040   20.6210 C   0  0  0  0  0  0  0  0  0  0  0  0
  -24.6750  -12.4980   21.0180 C   0  0  0  0  0  0  0  0  0  0  0  0
  -24.8460  -11.1050   20.7510 C   0  0  0  0  0  0  0  0  0  0  0  0
  -26.6530  -12.0890   20.1450 N   0  0  0  0  0  0  0  0  0  0  0  0
  -26.0630  -10.8730   20.2770 N   0  0  0  0  0  0  0  0  0  0  0  0
  -23.8990   -9.9870   20.8650 C   0  0  0  0  0  0  0  0  0  0  0  0
  -24.0570   -8.9830   21.8450 C   0  0  0  0  0  3  0  0  0  0  0  0
  -23.1240   -7.9280   21.9470 C   0  0  0  0  0  3  0  0  0  0  0  0
  -22.0190   -7.8720   21.0640 C   0  0  0  0  0  0  0  0  0  0  0  0
  -21.8800   -8.8600   20.0750 C   0  0  0  0  0  3  0  0  0  0  0  0
  -22.8110   -9.9070   19.9720 C   0  0  0  0  0  3  0  0  0  0  0  0
  -21.0780   -6.8710   21.0720 O   0  0  0  0  0  0  0  0  0  0  0  0
  -20.6410   -6.3020   22.2410 C   0  0  0  0  0  0  0  0  0  0  0  0
  -19.9490   -7.0500   23.2200 C   0  0  0  0  0  3  0  0  0  0  0  0
  -19.4560   -6.4110   24.3750 C   0  0  0  0  0  3  0  0  0  0  0  0
  -19.6450   -5.0280   24.5510 C   0  0  0  0  0  0  0  0  0  0  0  0
  -20.3300   -4.2800   23.5760 C   0  0  0  0  0  3  0  0  0  0  0  0
  -20.8230   -4.9170   22.4230 C   0  0  0  0  0  0  0  0  0  0  0  0
  -21.4640   -4.1900   21.4760 F   0  0  0  0  0  0  0  0  0  0  0  0
  -19.1660   -4.4120   25.6570 F   0  0  0  0  0  0  0  0  0  0  0  0
  -23.4400  -13.1800   21.5280 C   0  0  0  0  0  0  0  0  0  0  0  0
  -22.6850  -12.5140   22.3970 N   0  0  0  0  0  0  0  0  0  0  0  0
  -23.1590  -14.3320   21.1960 O   0  0  0  0  0  0  0  0  0  0  0  0
  -22.9240  -11.5770   22.6840 H   0  0  0  0  0  0  0  0  0  0  0  0
  -21.8580  -12.9480   22.7810 H   0  0  0  0  0  0  0  0  0  0  0  0
  -26.2630  -14.4290   20.6060 N   0  0  0  0  0  0  0  0  0  0  0  0
  -25.6680  -15.1950   20.9020 H   0  0  0  0  0  0  0  0  0  0  0  0
  -27.1570  -14.7380   20.2480 H   0  0  0  0  0  0  0  0  0  0  0  0
  1 57  1  0
  1  3  2  0
  2  1  1  0
  4  2  1  0
  5  2  1  0
  6  5  1  0
  7  6  1  0
  8  7  1  0
  9  8  1  0
 10 12  2  0
 10  9  1  0
 11 10  1  0
 13 11  1  0
 14 11  1  0
 15 16  1  0
 15 14  1  0
 16 18  1  0
 17 28  2  0
 18 23  1  0
 19 29  1  0
 19 27  1  0
 20 26  1  0
 20 22  1  0
 21 27  1  0
 22 21  1  0
 23 22  2  0
 24 25  1  0
 24 18  2  0
 25 20  2  0
 26 19  1  0
 27 17  1  0
 29 31  2  0
 30 29  1  0
 32 30  1  0
 33 42  2  0
 33 38  1  0
 34 30  1  0
 35 34  1  0
 36 37  1  0
 36 35  1  0
 37 33  1  0
 38 34  1  0
 38 39  2  0
 39 40  1  0
 41 40  2  0
 42 41  1  0
 43 17  1  0
 43 44  1  0
 43 53  1  0
 44 47  1  0
 45 49  1  0
 45 44  1  0
 46 45  2  0
 49 48  1  0
 49 51  1  0
 51 52  1  0
 51 50  1  0
 53 54  1  1
 53 56  1  0
 55 53  1  0
 58 60  2  0
 59 57  1  0
 59 58  1  0
 61 59  1  0
 62 58  1  0
 63 64  1  0
 64 66  1  0
 64 62  1  0
 65 63  2  0
 67 63  1  0
 68 76  1  0
 69 74  1  0
 70 71  1  0
 70 69  1  0
 72 71  1  0
 72 81  1  0
 72 73  1  0
 74 68  1  0
 74 73  1  0
 75 68  2  0
 76 77  1  0
 76 67  1  0
 78 79  2  0
 79 98  1  0
 80 83  1  0
 80 79  1  0
 81 82  1  0
 81 78  1  0
 82 80  2  0
 83 84  1  0
 84 85  2  0
 86 89  1  0
 86 85  1  0
 87 86  2  0
 88 87  1  0
 88 83  2  0
 89 90  1  0
 90 95  2  0
 90 91  1  0
 91 92  2  0
 92 93  1  0
 93 97  1  0
 94 93  2  0
 95 94  1  0
 96 95  1  0
 98 99  1  0
 99101  1  0
 99102  1  0
100 98  2  0
103 78  1  0
103104  1  0
105103  1  0
M  ISO  4  15 101  16 101  68 100  76 100
M  END
>  <TORSDO>  (7) 
F 29

>  <SCORE>  (7) 
43.078

>  <name>  (7) 
6

>  <ligand_id>  (7) 
6

>  <original_smiles>  (7) 
[H]c1c([H])c([H])c2c(c1[H])C([H])([H])C([H])([H])C([H])([H])C2([H])N([H])C(=O)C1([H])N(C(=O)C([H])(N([H])C(=O)C([H])(N([H])C([H])([H])[H])C([H])([H])[H])C(C([H])([H])[H])(C([H])([H])[H])C([H])([H])[H])C([H])([H])c2c([H])c(OC([H])([H])C([H])([H])N([H])C(=O)C([H])([H])C([H])([H])C([H])([H])C([H])([H])C([H])([H])N([H])C(=O)C([H])([H])N([H])C(=O)C([H])([H])N([H])C(=O)C([H])([H])N([H])C(=O)N3C([H])([H])C([H])([H])C([H])([H])C([H])(n4nc(-c5c([H])c([H])c(Oc6c([H])c([H])c(F)c([H])c6F)c([H])c5[H])c(C(=O)N([H])[H])c4N([H])[H])C3([H])[H])c([H])c([H])c2C1([H])[H]

>  <smiles>  (7) 
[H]c1c([H])c([H])c2c(c1[H])C([H])([H])C([H])([H])C([H])([H])C2([H])N([H])C(=O)C1([H])N(C(=O)C([H])(N([H])C(=O)C([H])(N([H])C([H])([H])[H])C([H])([H])[H])C(C([H])([H])[H])(C([H])([H])[H])C([H])([H])[H])C([H])([H])c2c([H])c(OC([H])([H])C([H])([H])N([H])C(=O)C([H])([H])C([H])([H])C([H])([H])C([H])([H])C([H])([H])N([H])C(=O)C([H])([H])N([H])C(=O)C([H])([H])N([H])C(=O)C([H])([H])N([H])C(=O)N3C([H])([H])C([H])([H])C([H])([H])C([H])(n4nc(-c5c([H])c([H])c(Oc6c([H])c([H])c(F)c([H])c6F)c([H])c5[H])c(C(=O)N([H])[H])c4N([H])[H])C3([H])[H])c([H])c([H])c2C1([H])[H]

$$$$
7:0:0
     RDKit          3D

106113  0  0  1  0  0  0  0  0999 V2000
  -30.2720  -18.6150   14.3240 C   0  0  0  0  0  2  0  0  0  0  0  0
  -30.8760  -20.0240   14.4800 C   0  0  0  0  0  2  0  0  0  0  0  0
  -30.1170  -20.7870   16.7200 C   0  0  0  0  0  0  0  0  0  0  0  0
  -30.1000  -20.8720   15.3840 N   0  0  0  0  0  0  0  0  0  0  0  0
  -30.8020  -19.9550   17.3170 O   0  0  0  0  0  0  0  0  0  0  0  0
  -29.5280  -21.5930   14.9620 H   0  0  0  0  0  0  0  0  0  0  0  0
  -29.2470  -21.7780   17.5010 C   0  0  0  0  0  2  0  0  0  0  0  0
  -29.9290  -22.2450   18.8030 C   0  0  0  0  0  2  0  0  0  0  0  0
  -29.1060  -24.5370   19.3490 C   0  0  0  0  0  0  0  0  0  0  0  0
  -29.1270  -23.2130   19.5510 N   0  0  0  0  0  0  0  0  0  0  0  0
  -29.6830  -25.0730   18.3990 O   0  0  0  0  0  0  0  0  0  0  0  0
  -28.6150  -22.8630   20.3510 H   0  0  0  0  0  0  0  0  0  0  0  0
  -28.3490  -25.3690   20.3930 C   0  0  0  0  0  2  0  0  0  0  0  0
  -28.4160  -26.7630   20.0740 O   0  0  0  0  0  0  0  0  0  0  0  0
  -24.6120  -31.8700   23.2130 C   0  0  0  0  0  0  0  0  0  0  0  0
  -27.2320  -27.4610   20.0870 C   0  0  0  0  0  0  0  0  0  0  0  0
  -23.3970  -30.4940   21.5530 C   0  0  0  0  0  3  0  0  0  0  0  0
  -24.8410  -28.9620   20.1160 C   0  0  0  0  0  0  0  0  0  0  0  0
  -25.9230  -30.8430   21.3610 C   0  0  0  0  0  2  0  0  0  0  0  0
  -26.0000  -29.4800   20.7080 C   0  0  0  0  0  0  0  0  0  0  0  0
  -27.1990  -28.7360   20.6890 C   0  0  0  0  0  3  0  0  0  0  0  0
  -26.0600  -26.9540   19.4840 C   0  0  0  0  0  3  0  0  0  0  0  0
  -24.8640  -27.6990   19.5010 C   0  0  0  0  0  3  0  0  0  0  0  0
  -23.6010  -29.8260   20.1680 C   0  0  0  0  0  2  0  0  0  0  0  0
  -24.6620  -31.0820   22.1010 N   0  0  0  0  0  0  0  0  0  0  0  0
  -23.5320  -32.1440   23.7540 O   0  0  0  0  0  0  0  0  0  0  0  0
  -22.7390  -29.4670   22.5020 C   0  0  0  0  0  0  0  0  0  0  0  0
  -21.4120  -29.3030   22.3760 N   0  0  0  0  0  0  0  0  0  0  0  0
  -23.4180  -28.8200   23.3040 O   0  0  0  0  0  0  0  0  0  0  0  0
  -20.9270  -29.8770   21.7000 H   0  0  0  0  0  0  0  0  0  0  0  0
  -18.0260  -28.1370   22.8500 C   0  0  0  0  0  0  0  0  0  0  0  0
  -20.5850  -28.3650   23.1340 C   0  0  0  0  0  3  0  0  0  0  0  0
  -20.6760  -26.9390   22.5420 C   0  0  0  0  0  2  0  0  0  0  0  0
  -19.5730  -26.6380   21.5220 C   0  0  0  0  0  2  0  0  0  0  0  0
  -18.1910  -26.7920   22.1620 C   0  0  0  0  0  2  0  0  0  0  0  0
  -19.1510  -28.8830   23.2910 C   0  0  0  0  0  0  0  0  0  0  0  0
  -18.9450  -30.1440   23.8920 C   0  0  0  0  0  3  0  0  0  0  0  0
  -17.6450  -30.6580   24.0570 C   0  0  0  0  0  3  0  0  0  0  0  0
  -16.5340  -29.9080   23.6320 C   0  0  0  0  0  3  0  0  0  0  0  0
  -16.7250  -28.6500   23.0350 C   0  0  0  0  0  3  0  0  0  0  0  0
  -25.9030  -32.4830   23.8410 C   0  0  0  0  0  3  0  0  0  0  0  0
  -26.4470  -31.6610   25.0730 C   0  0  1  0  0  0  0  0  0  0  0  0
  -25.3750  -31.3690   26.1480 C   0  0  0  0  0  1  0  0  0  0  0  0
  -27.0290  -30.3060   24.6080 C   0  0  0  0  0  1  0  0  0  0  0  0
  -27.6050  -32.4320   25.7490 C   0  0  0  0  0  1  0  0  0  0  0  0
  -25.5890  -33.8640   24.2340 N   0  0  0  0  0  0  0  0  0  0  0  0
  -25.9030  -34.9480   23.5140 C   0  0  0  0  0  0  0  0  0  0  0  0
  -26.5590  -34.8930   22.4700 O   0  0  0  0  0  0  0  0  0  0  0  0
  -25.0060  -33.9800   25.0500 H   0  0  0  0  0  0  0  0  0  0  0  0
  -24.1480  -36.7320   23.2640 C   0  0  0  0  0  1  0  0  0  0  0  0
  -25.4100  -36.3120   24.0340 C   0  0  0  0  0  3  0  0  0  0  0  0
  -27.5580  -37.1810   24.8460 C   0  0  0  0  0  1  0  0  0  0  0  0
  -26.4290  -37.3800   23.9410 N   0  0  0  0  0  0  0  0  0  0  0  0
  -26.0190  -38.2880   24.1420 H   0  0  0  0  0  0  0  0  0  0  0  0
  -28.8970  -18.6270   13.6390 C   0  0  0  0  0  2  0  0  0  0  0  0
  -28.2790  -17.2310   13.4900 C   0  0  0  0  0  2  0  0  0  0  0  0
  -26.9420  -17.2980   12.7320 C   0  0  0  0  0  2  0  0  0  0  0  0
  -26.0610  -16.0410   12.8460 C   0  0  0  0  0  2  0  0  0  0  0  0
  -25.0430  -16.0890   14.0030 C   0  0  0  0  0  2  0  0  0  0  0  0
  -25.8430  -17.0070   16.1900 C   0  0  0  0  0  0  0  0  0  0  0  0
  -25.6760  -16.0060   15.3170 N   0  0  0  0  0  0  0  0  0  0  0  0
  -25.5210  -18.1720   15.9460 O   0  0  0  0  0  0  0  0  0  0  0  0
  -25.9500  -15.0820   15.6240 H   0  0  0  0  0  0  0  0  0  0  0  0
  -26.4060  -16.6180   17.5600 C   0  0  0  0  0  2  0  0  0  0  0  0
  -27.2950  -17.6800   18.2600 C   0  0  0  0  0  2  0  0  0  0  0  0
  -28.6680  -17.1560   18.7550 C   0  0  0  0  0  2  0  0  0  0  0  0
  -29.0120  -17.6080   20.1950 C   0  0  0  0  0  2  0  0  0  0  0  0
  -30.1990  -16.8700   20.8550 C   0  0  0  0  0  2  0  0  0  0  0  0
  -30.6890  -14.4320   20.5540 C   0  0  0  0  0  0  0  0  0  0  0  0
  -30.4210  -12.2640   19.4280 C   0  0  0  0  0  2  0  0  0  0  0  0
  -29.5040  -12.4910   18.2080 C   0  0  0  0  0  2  0  0  0  0  0  0
  -28.0170  -12.3710   18.6090 C   0  0  0  0  0  2  0  0  0  0  0  0
  -27.6650  -13.1930   19.8800 C   0  0  0  0  0  3  0  0  0  0  0  0
  -28.7050  -12.9430   20.9990 C   0  0  0  0  0  2  0  0  0  0  0  0
  -30.0400  -13.2450   20.4530 N   0  0  0  0  0  0  0  0  0  0  0  0
  -31.8170  -14.6340   20.0950 O   0  0  0  0  0  0  0  0  0  0  0  0
  -29.9330  -15.4360   21.0200 N   0  0  0  0  0  0  0  0  0  0  0  0
  -29.0370  -15.1760   21.4050 H   0  0  0  0  0  0  0  0  0  0  0  0
  -25.2670  -13.8090   20.5820 C   0  0  0  0  0  0  0  0  0  0  0  0
  -24.1870  -13.0380   20.9180 C   0  0  0  0  0  0  0  0  0  0  0  0
  -24.6400  -11.6840   20.8690 C   0  0  0  0  0  0  0  0  0  0  0  0
  -26.3050  -12.9230   20.3370 N   0  0  0  0  0  0  0  0  0  0  0  0
  -25.9300  -11.6400   20.5680 N   0  0  0  0  0  0  0  0  0  0  0  0
  -23.9060  -10.4250   21.0410 C   0  0  0  0  0  0  0  0  0  0  0  0
  -24.3620   -9.4180   21.9190 C   0  0  0  0  0  3  0  0  0  0  0  0
  -23.6300   -8.2220   22.0760 C   0  0  0  0  0  3  0  0  0  0  0  0
  -22.4280   -8.0270   21.3560 C   0  0  0  0  0  0  0  0  0  0  0  0
  -21.9920   -9.0220   20.4650 C   0  0  0  0  0  3  0  0  0  0  0  0
  -22.7250  -10.2100   20.3070 C   0  0  0  0  0  3  0  0  0  0  0  0
  -21.6630   -6.8890   21.4270 O   0  0  0  0  0  0  0  0  0  0  0  0
  -21.6830   -6.0770   22.5320 C   0  0  0  0  0  0  0  0  0  0  0  0
  -21.3980   -6.5660   23.8250 C   0  0  0  0  0  3  0  0  0  0  0  0
  -21.3650   -5.6810   24.9200 C   0  0  0  0  0  3  0  0  0  0  0  0
  -21.6060   -4.3070   24.7270 C   0  0  0  0  0  0  0  0  0  0  0  0
  -21.8790   -3.8180   23.4380 C   0  0  0  0  0  3  0  0  0  0  0  0
  -21.9160   -4.7000   22.3440 C   0  0  0  0  0  0  0  0  0  0  0  0
  -22.1630   -4.2200   21.1020 F   0  0  0  0  0  0  0  0  0  0  0  0
  -21.5660   -3.4540   25.7770 F   0  0  0  0  0  0  0  0  0  0  0  0
  -22.7910  -13.5200   21.1860 C   0  0  0  0  0  0  0  0  0  0  0  0
  -22.0530  -12.8200   22.0420 N   0  0  0  0  0  0  0  0  0  0  0  0
  -22.3620  -14.5530   20.6740 O   0  0  0  0  0  0  0  0  0  0  0  0
  -22.4100  -11.9790   22.4720 H   0  0  0  0  0  0  0  0  0  0  0  0
  -21.1160  -13.1240   22.2650 H   0  0  0  0  0  0  0  0  0  0  0  0
  -25.4510  -15.1820   20.4520 N   0  0  0  0  0  0  0  0  0  0  0  0
  -24.7010  -15.8470   20.6060 H   0  0  0  0  0  0  0  0  0  0  0  0
  -26.3110  -15.6180   20.1430 H   0  0  0  0  0  0  0  0  0  0  0  0
  1  2  1  0
  2  4  1  0
  3  5  2  0
  3  7  1  0
  4  3  1  0
  6  4  1  0
  7  8  1  0
  8 10  1  0
  9 10  1  0
  9 13  1  0
 10 12  1  0
 11  9  2  0
 14 16  1  0
 14 13  1  0
 15 26  2  0
 16 21  1  0
 17 25  1  0
 17 27  1  0
 18 24  1  0
 18 20  1  0
 19 25  1  0
 20 19  1  0
 21 20  2  0
 22 23  1  0
 22 16  2  0
 23 18  2  0
 24 17  1  0
 25 15  1  0
 27 29  2  0
 28 27  1  0
 30 28  1  0
 31 40  2  0
 31 36  1  0
 32 28  1  0
 32 36  1  0
 33 32  1  0
 34 35  1  0
 34 33  1  0
 35 31  1  0
 36 37  2  0
 37 38  1  0
 39 38  2  0
 40 39  1  0
 41 15  1  0
 41 46  1  0
 41 42  1  0
 42 45  1  1
 42 43  1  0
 44 42  1  0
 46 49  1  0
 47 51  1  0
 47 46  1  0
 48 47  2  0
 51 50  1  0
 53 51  1  0
 53 54  1  0
 53 52  1  0
 55  1  1  0
 56 55  1  0
 57 58  1  0
 57 56  1  0
 58 59  1  0
 59 61  1  0
 60 64  1  0
 61 63  1  0
 61 60  1  0
 62 60  2  0
 64 65  1  0
 65 66  1  0
 66 67  1  0
 67 68  1  0
 68 77  1  0
 69 77  1  0
 70 75  1  0
 71 72  1  0
 71 70  1  0
 73 72  1  0
 73 82  1  0
 73 74  1  0
 75 69  1  0
 75 74  1  0
 76 69  2  0
 77 78  1  0
 79 80  2  0
 80 99  1  0
 81 80  1  0
 81 84  1  0
 82 83  1  0
 82 79  1  0
 83 81  2  0
 84 85  1  0
 85 86  2  0
 87 90  1  0
 87 86  1  0
 88 87  2  0
 89 88  1  0
 89 84  2  0
 90 91  1  0
 91 92  1  0
 92 93  2  0
 94 93  1  0
 94 98  1  0
 95 94  2  0
 96 91  2  0
 96 95  1  0
 97 96  1  0
 99100  1  0
100103  1  0
100102  1  0
101 99  2  0
104 79  1  0
104105  1  0
106104  1  0
M  ISO  4  13 101  14 101  69 100  77 100
M  END
>  <TORSDO>  (8) 
F 33

>  <SCORE>  (8) 
31.361

>  <name>  (8) 
7

>  <ligand_id>  (8) 
7

>  <original_smiles>  (8) 
[H]c1c([H])c([H])c2c(c1[H])C([H])([H])C([H])([H])C([H])([H])C2([H])N([H])C(=O)C1([H])N(C(=O)C([H])(N([H])C(=O)C([H])(N([H])C([H])([H])[H])C([H])([H])[H])C(C([H])([H])[H])(C([H])([H])[H])C([H])([H])[H])C([H])([H])c2c([H])c(OC([H])([H])C(=O)N([H])C([H])([H])C([H])([H])C(=O)N([H])C([H])([H])C([H])([H])C([H])([H])C([H])([H])C([H])([H])C([H])([H])C([H])([H])N([H])C(=O)C([H])([H])C([H])([H])C([H])([H])C([H])([H])C([H])([H])N([H])C(=O)N3C([H])([H])C([H])([H])C([H])([H])C([H])(n4nc(-c5c([H])c([H])c(Oc6c([H])c([H])c(F)c([H])c6F)c([H])c5[H])c(C(=O)N([H])[H])c4N([H])[H])C3([H])[H])c([H])c([H])c2C1([H])[H]

>  <smiles>  (8) 
[H]c1c([H])c([H])c2c(c1[H])C([H])([H])C([H])([H])C([H])([H])C2([H])N([H])C(=O)C1([H])N(C(=O)C([H])(N([H])C(=O)C([H])(N([H])C([H])([H])[H])C([H])([H])[H])C(C([H])([H])[H])(C([H])([H])[H])C([H])([H])[H])C([H])([H])c2c([H])c(OC([H])([H])C(=O)N([H])C([H])([H])C([H])([H])C(=O)N([H])C([H])([H])C([H])([H])C([H])([H])C([H])([H])C([H])([H])C([H])([H])C([H])([H])N([H])C(=O)C([H])([H])C([H])([H])C([H])([H])C([H])([H])C([H])([H])N([H])C(=O)N3C([H])([H])C([H])([H])C([H])([H])C([H])(n4nc(-c5c([H])c([H])c(Oc6c([H])c([H])c(F)c([H])c6F)c([H])c5[H])c(C(=O)N([H])[H])c4N([H])[H])C3([H])[H])c([H])c([H])c2C1([H])[H]

$$$$
8:0:0
     RDKit          3D

 98105  0  0  1  0  0  0  0  0999 V2000
  -26.9480  -21.1540   19.2780 C   0  0  0  0  0  0  0  0  0  0  0  0
  -27.8730  -21.5950   20.1420 N   0  0  0  0  0  0  0  0  0  0  0  0
  -25.8440  -21.6850   19.1580 O   0  0  0  0  0  0  0  0  0  0  0  0
  -28.7290  -21.0650   20.2060 H   0  0  0  0  0  0  0  0  0  0  0  0
  -27.3180  -19.9210   18.4430 C   0  0  0  0  0  2  0  0  0  0  0  0
  -27.6060  -18.0620   20.0620 C   0  0  0  0  0  0  0  0  0  0  0  0
  -28.1140  -18.9500   19.1910 N   0  0  0  0  0  0  0  0  0  0  0  0
  -26.4010  -17.9940   20.2930 O   0  0  0  0  0  0  0  0  0  0  0  0
  -29.1170  -18.9940   19.0720 H   0  0  0  0  0  0  0  0  0  0  0  0
  -28.5710  -17.1060   20.7680 C   0  0  0  0  0  2  0  0  0  0  0  0
  -30.6660  -16.4050   19.6020 C   0  0  0  0  0  0  0  0  0  0  0  0
  -29.3490  -16.3080   19.8200 N   0  0  0  0  0  0  0  0  0  0  0  0
  -31.4000  -17.1700   20.2230 O   0  0  0  0  0  0  0  0  0  0  0  0
  -28.8540  -15.6180   19.2690 H   0  0  0  0  0  0  0  0  0  0  0  0
  -31.2350  -15.3950   18.6130 C   0  0  0  0  0  2  0  0  0  0  0  0
  -31.6430  -13.1260   19.5620 C   0  0  0  0  0  0  0  0  0  0  0  0
  -31.6300  -11.0530   20.9040 C   0  0  0  0  0  2  0  0  0  0  0  0
  -30.8870   -9.9320   20.1560 C   0  0  0  0  0  2  0  0  0  0  0  0
  -29.3690  -10.0050   20.4110 C   0  0  0  0  0  2  0  0  0  0  0  0
  -28.7940  -11.4270   20.1900 C   0  0  0  0  0  3  0  0  0  0  0  0
  -29.6380  -12.4670   20.9510 C   0  0  0  0  0  2  0  0  0  0  0  0
  -31.0390  -12.3240   20.4720 N   0  0  0  0  0  0  0  0  0  0  0  0
  -32.7910  -12.9730   19.1270 O   0  0  0  0  0  0  0  0  0  0  0  0
  -30.8490  -14.0990   19.1490 N   0  0  0  0  0  0  0  0  0  0  0  0
  -29.9200  -14.0530   19.5290 H   0  0  0  0  0  0  0  0  0  0  0  0
  -26.5700  -12.6110   20.7490 C   0  0  0  0  0  0  0  0  0  0  0  0
  -25.3290  -12.1160   21.0410 C   0  0  0  0  0  0  0  0  0  0  0  0
  -25.4490  -10.6950   21.0260 C   0  0  0  0  0  0  0  0  0  0  0  0
  -27.3880  -11.4980   20.5780 N   0  0  0  0  0  0  0  0  0  0  0  0
  -26.7070  -10.3480   20.8000 N   0  0  0  0  0  0  0  0  0  0  0  0
  -24.4350   -9.6450   21.1500 C   0  0  0  0  0  0  0  0  0  0  0  0
  -24.4360   -8.7490   22.2420 C   0  0  0  0  0  3  0  0  0  0  0  0
  -23.4380   -7.7550   22.3510 C   0  0  0  0  0  3  0  0  0  0  0  0
  -22.4220   -7.6590   21.3730 C   0  0  0  0  0  0  0  0  0  0  0  0
  -22.4380   -8.5410   20.2780 C   0  0  0  0  0  3  0  0  0  0  0  0
  -23.4310   -9.5240   20.1640 C   0  0  0  0  0  3  0  0  0  0  0  0
  -21.4230   -6.7120   21.3820 O   0  0  0  0  0  0  0  0  0  0  0  0
  -20.8480   -6.2860   22.5520 C   0  0  0  0  0  0  0  0  0  0  0  0
  -20.1370   -7.1640   23.3980 C   0  0  0  0  0  3  0  0  0  0  0  0
  -19.5070   -6.6710   24.5580 C   0  0  0  0  0  3  0  0  0  0  0  0
  -19.5700   -5.2980   24.8620 C   0  0  0  0  0  0  0  0  0  0  0  0
  -20.2750   -4.4210   24.0210 C   0  0  0  0  0  3  0  0  0  0  0  0
  -20.9090   -4.9120   22.8670 C   0  0  0  0  0  0  0  0  0  0  0  0
  -21.5700   -4.0580   22.0490 F   0  0  0  0  0  0  0  0  0  0  0  0
  -18.9580   -4.8250   25.9740 F   0  0  0  0  0  0  0  0  0  0  0  0
  -24.0670  -12.9160   21.2250 C   0  0  0  0  0  0  0  0  0  0  0  0
  -23.1630  -12.4440   22.0730 N   0  0  0  0  0  0  0  0  0  0  0  0
  -23.9040  -13.9920   20.6520 O   0  0  0  0  0  0  0  0  0  0  0  0
  -23.3150  -11.5760   22.5640 H   0  0  0  0  0  0  0  0  0  0  0  0
  -22.3100  -12.9580   22.2420 H   0  0  0  0  0  0  0  0  0  0  0  0
  -27.0760  -13.8970   20.6060 N   0  0  0  0  0  0  0  0  0  0  0  0
  -26.4680  -14.7090   20.6610 H   0  0  0  0  0  0  0  0  0  0  0  0
  -28.0030  -14.1180   20.2630 H   0  0  0  0  0  0  0  0  0  0  0  0
  -27.8070  -22.8580   20.8590 C   0  0  0  0  0  2  0  0  0  0  0  0
  -28.5310  -23.9390   20.0400 C   0  0  0  0  0  2  0  0  0  0  0  0
  -28.4970  -25.3240   20.6790 C   0  0  0  0  0  2  0  0  0  0  0  0
  -29.3560  -26.3140   19.8670 C   0  0  0  0  0  2  0  0  0  0  0  0
  -29.2000  -27.6400   20.3490 O   0  0  0  0  0  0  0  0  0  0  0  0
  -24.7860  -32.1160   23.5840 C   0  0  0  0  0  0  0  0  0  0  0  0
  -27.9440  -28.2000   20.3200 C   0  0  0  0  0  0  0  0  0  0  0  0
  -23.7720  -30.7480   21.7870 C   0  0  0  0  0  3  0  0  0  0  0  0
  -25.4170  -29.4470   20.3390 C   0  0  0  0  0  0  0  0  0  0  0  0
  -26.2560  -31.3410   21.7360 C   0  0  0  0  0  2  0  0  0  0  0  0
  -26.4930  -30.0350   21.0110 C   0  0  0  0  0  0  0  0  0  0  0  0
  -27.7600  -29.4160   21.0030 C   0  0  0  0  0  3  0  0  0  0  0  0
  -26.8500  -27.6120   19.6420 C   0  0  0  0  0  3  0  0  0  0  0  0
  -25.5870  -28.2280   19.6620 C   0  0  0  0  0  3  0  0  0  0  0  0
  -24.0980  -30.1870   20.3750 C   0  0  0  0  0  2  0  0  0  0  0  0
  -24.9540  -31.4110   22.4310 N   0  0  0  0  0  0  0  0  0  0  0  0
  -23.6640  -32.2650   24.0840 O   0  0  0  0  0  0  0  0  0  0  0  0
  -23.1710  -29.6100   22.6380 C   0  0  0  0  0  0  0  0  0  0  0  0
  -21.8860  -29.2930   22.3940 N   0  0  0  0  0  0  0  0  0  0  0  0
  -23.8600  -29.0110   23.4690 O   0  0  0  0  0  0  0  0  0  0  0  0
  -21.3930  -29.8390   21.7000 H   0  0  0  0  0  0  0  0  0  0  0  0
  -18.6310  -27.7510   22.5800 C   0  0  0  0  0  0  0  0  0  0  0  0
  -21.1250  -28.2330   23.0500 C   0  0  0  0  0  3  0  0  0  0  0  0
  -21.4100  -26.8620   22.3940 C   0  0  0  0  0  2  0  0  0  0  0  0
  -20.4160  -26.5050   21.2860 C   0  0  0  0  0  2  0  0  0  0  0  0
  -18.9880  -26.4720   21.8370 C   0  0  0  0  0  2  0  0  0  0  0  0
  -19.6360  -28.5870   23.1330 C   0  0  0  0  0  0  0  0  0  0  0  0
  -19.2560  -29.7820   23.7810 C   0  0  0  0  0  3  0  0  0  0  0  0
  -17.9000  -30.1470   23.8790 C   0  0  0  0  0  3  0  0  0  0  0  0
  -16.9070  -29.3080   23.3430 C   0  0  0  0  0  3  0  0  0  0  0  0
  -17.2730  -28.1110   22.7020 C   0  0  0  0  0  3  0  0  0  0  0  0
  -25.9920  -32.7980   24.3040 C   0  0  0  0  0  3  0  0  0  0  0  0
  -26.4030  -32.0740   25.6440 C   0  0  1  0  0  0  0  0  0  0  0  0
  -25.2150  -31.8120   26.5960 C   0  0  0  0  0  1  0  0  0  0  0  0
  -27.0870  -30.7180   25.3420 C   0  0  0  0  0  1  0  0  0  0  0  0
  -27.4390  -32.9360   26.4090 C   0  0  0  0  0  1  0  0  0  0  0  0
  -25.6210  -34.1930   24.5580 N   0  0  0  0  0  0  0  0  0  0  0  0
  -26.0040  -35.2330   23.8070 C   0  0  0  0  0  0  0  0  0  0  0  0
  -26.7760  -35.1220   22.8510 O   0  0  0  0  0  0  0  0  0  0  0  0
  -24.9520  -34.3560   25.2980 H   0  0  0  0  0  0  0  0  0  0  0  0
  -24.2730  -36.9600   23.2240 C   0  0  0  0  0  1  0  0  0  0  0  0
  -25.4360  -36.6150   24.1670 C   0  0  0  0  0  3  0  0  0  0  0  0
  -27.4480  -37.5900   25.1780 C   0  0  0  0  0  1  0  0  0  0  0  0
  -26.4420  -37.6950   24.1270 N   0  0  0  0  0  0  0  0  0  0  0  0
  -25.9970  -38.6040   24.2030 H   0  0  0  0  0  0  0  0  0  0  0  0
  1  2  1  0
  2  4  1  0
  2 54  1  0
  3  1  2  0
  5  7  1  0
  5  1  1  0
  6  8  2  0
  6 10  1  0
  7  6  1  0
  9  7  1  0
 11 12  1  0
 11 13  2  0
 12 10  1  0
 14 12  1  0
 15 24  1  0
 15 11  1  0
 16 22  1  0
 18 19  1  0
 18 17  1  0
 20 19  1  0
 20 29  1  0
 20 21  1  0
 22 17  1  0
 22 21  1  0
 23 16  2  0
 24 25  1  0
 24 16  1  0
 26 27  2  0
 27 46  1  0
 28 27  1  0
 28 31  1  0
 29 26  1  0
 29 30  1  0
 30 28  2  0
 31 32  1  0
 32 33  2  0
 34 37  1  0
 34 33  1  0
 35 34  2  0
 36 35  1  0
 36 31  2  0
 37 38  1  0
 38 43  2  0
 38 39  1  0
 39 40  2  0
 40 41  1  0
 41 45  1  0
 42 41  2  0
 43 42  1  0
 44 43  1  0
 46 47  1  0
 47 50  1  0
 47 49  1  0
 48 46  2  0
 51 52  1  0
 51 26  1  0
 53 51  1  0
 55 56  1  0
 55 54  1  0
 57 58  1  0
 57 56  1  0
 59 70  2  0
 60 58  1  0
 60 65  1  0
 61 69  1  0
 61 71  1  0
 62 68  1  0
 62 64  1  0
 63 69  1  0
 64 63  1  0
 65 64  2  0
 66 67  1  0
 66 60  2  0
 67 62  2  0
 68 61  1  0
 69 59  1  0
 71 73  2  0
 72 71  1  0
 74 72  1  0
 75 84  2  0
 75 80  1  0
 76 72  1  0
 76 80  1  0
 77 76  1  0
 78 79  1  0
 78 77  1  0
 79 75  1  0
 80 81  2  0
 81 82  1  0
 83 82  2  0
 84 83  1  0
 85 59  1  0
 85 90  1  0
 85 86  1  0
 86 89  1  1
 86 87  1  0
 88 86  1  0
 90 93  1  0
 91 95  1  0
 91 90  1  0
 92 91  2  0
 95 94  1  0
 97 95  1  0
 97 98  1  0
 97 96  1  0
M  ISO  4  16 100  24 100  57 101  58 101
M  END
>  <TORSDO>  (9) 
F 25

>  <SCORE>  (9) 
-9.114

>  <name>  (9) 
8

>  <ligand_id>  (9) 
8

>  <original_smiles>  (9) 
[H]c1c([H])c([H])c2c(c1[H])C([H])([H])C([H])([H])C([H])([H])C2([H])N([H])C(=O)C1([H])N(C(=O)C([H])(N([H])C(=O)C([H])(N([H])C([H])([H])[H])C([H])([H])[H])C(C([H])([H])[H])(C([H])([H])[H])C([H])([H])[H])C([H])([H])c2c([H])c(OC([H])([H])C([H])([H])C([H])([H])C([H])([H])N([H])C(=O)C([H])([H])N([H])C(=O)C([H])([H])N([H])C(=O)C([H])([H])N([H])C(=O)N3C([H])([H])C([H])([H])C([H])([H])C([H])(n4nc(-c5c([H])c([H])c(Oc6c([H])c([H])c(F)c([H])c6F)c([H])c5[H])c(C(=O)N([H])[H])c4N([H])[H])C3([H])[H])c([H])c([H])c2C1([H])[H]

>  <smiles>  (9) 
[H]c1c([H])c([H])c2c(c1[H])C([H])([H])C([H])([H])C([H])([H])C2([H])N([H])C(=O)C1([H])N(C(=O)C([H])(N([H])C(=O)C([H])(N([H])C([H])([H])[H])C([H])([H])[H])C(C([H])([H])[H])(C([H])([H])[H])C([H])([H])[H])C([H])([H])c2c([H])c(OC([H])([H])C([H])([H])C([H])([H])C([H])([H])N([H])C(=O)C([H])([H])N([H])C(=O)C([H])([H])N([H])C(=O)C([H])([H])N([H])C(=O)N3C([H])([H])C([H])([H])C([H])([H])C([H])(n4nc(-c5c([H])c([H])c(Oc6c([H])c([H])c(F)c([H])c6F)c([H])c5[H])c(C(=O)N([H])[H])c4N([H])[H])C3([H])[H])c([H])c([H])c2C1([H])[H]

$$$$
9:0:0
     RDKit          3D

103110  0  0  1  0  0  0  0  0999 V2000
  -31.7860  -27.9880   22.2770 C   0  0  0  0  0  0  0  0  0  0  0  0
  -30.7040  -27.2000   22.2610 N   0  0  0  0  0  0  0  0  0  0  0  0
  -32.4240  -28.2190   23.3070 O   0  0  0  0  0  0  0  0  0  0  0  0
  -30.2510  -27.0900   21.3600 H   0  0  0  0  0  0  0  0  0  0  0  0
  -30.1400  -26.5270   23.4260 C   0  0  0  0  0  2  0  0  0  0  0  0
  -29.1040  -25.4650   23.0210 C   0  0  0  0  0  2  0  0  0  0  0  0
  -29.6870  -24.3300   22.1640 C   0  0  0  0  0  2  0  0  0  0  0  0
  -28.6120  -23.3420   21.6850 C   0  0  0  0  0  2  0  0  0  0  0  0
  -29.1750  -22.2560   20.7540 C   0  0  0  0  0  2  0  0  0  0  0  0
  -28.0980  -21.2520   20.3010 C   0  0  0  0  0  2  0  0  0  0  0  0
  -28.5780  -20.2600   19.2270 C   0  0  0  0  0  2  0  0  0  0  0  0
  -29.7610  -18.3120   20.2500 C   0  0  0  0  0  0  0  0  0  0  0  0
  -29.7570  -19.5100   19.6540 N   0  0  0  0  0  0  0  0  0  0  0  0
  -28.7280  -17.6870   20.5010 O   0  0  0  0  0  0  0  0  0  0  0  0
  -30.6540  -19.9410   19.4750 H   0  0  0  0  0  0  0  0  0  0  0  0
  -31.1420  -17.7450   20.6090 C   0  0  0  0  0  2  0  0  0  0  0  0
  -31.1690  -16.6910   21.7470 C   0  0  0  0  0  2  0  0  0  0  0  0
  -31.1480  -14.4810   20.5730 C   0  0  0  0  0  0  0  0  0  0  0  0
  -30.7940  -12.3440   19.3920 C   0  0  0  0  0  2  0  0  0  0  0  0
  -29.8850  -12.5480   18.1650 C   0  0  0  0  0  2  0  0  0  0  0  0
  -28.3990  -12.4590   18.5620 C   0  0  0  0  0  2  0  0  0  0  0  0
  -28.0560  -13.3400   19.7940 C   0  0  0  0  0  3  0  0  0  0  0  0
  -29.0690  -13.0990   20.9320 C   0  0  0  0  0  2  0  0  0  0  0  0
  -30.4240  -13.3460   20.4020 N   0  0  0  0  0  0  0  0  0  0  0  0
  -32.2260  -14.6910   20.0090 O   0  0  0  0  0  0  0  0  0  0  0  0
  -30.5970  -15.3910   21.3850 N   0  0  0  0  0  0  0  0  0  0  0  0
  -29.7030  -15.1520   21.7900 H   0  0  0  0  0  0  0  0  0  0  0  0
  -25.6590  -14.0380   20.4260 C   0  0  0  0  0  0  0  0  0  0  0  0
  -24.5570  -13.3040   20.7790 C   0  0  0  0  0  0  0  0  0  0  0  0
  -24.9750  -11.9390   20.7810 C   0  0  0  0  0  0  0  0  0  0  0  0
  -26.6810  -13.1200   20.2380 N   0  0  0  0  0  0  0  0  0  0  0  0
  -26.2700  -11.8540   20.5060 N   0  0  0  0  0  0  0  0  0  0  0  0
  -24.2040  -10.7040   20.9740 C   0  0  0  0  0  0  0  0  0  0  0  0
  -24.5810   -9.7410   21.9370 C   0  0  0  0  0  3  0  0  0  0  0  0
  -23.8150   -8.5700   22.1150 C   0  0  0  0  0  3  0  0  0  0  0  0
  -22.6570   -8.3520   21.3300 C   0  0  0  0  0  0  0  0  0  0  0  0
  -22.3000   -9.3030   20.3570 C   0  0  0  0  0  3  0  0  0  0  0  0
  -23.0670  -10.4660   20.1780 C   0  0  0  0  0  3  0  0  0  0  0  0
  -21.8670   -7.2330   21.4170 O   0  0  0  0  0  0  0  0  0  0  0  0
  -21.7490   -6.5220   22.5840 C   0  0  0  0  0  0  0  0  0  0  0  0
  -21.2910   -7.1210   23.7780 C   0  0  0  0  0  3  0  0  0  0  0  0
  -21.1190   -6.3390   24.9380 C   0  0  0  0  0  3  0  0  0  0  0  0
  -21.3950   -4.9590   24.9040 C   0  0  0  0  0  0  0  0  0  0  0  0
  -21.8450   -4.3600   23.7150 C   0  0  0  0  0  3  0  0  0  0  0  0
  -22.0180   -5.1380   22.5570 C   0  0  0  0  0  0  0  0  0  0  0  0
  -22.4320   -4.5520   21.4080 F   0  0  0  0  0  0  0  0  0  0  0  0
  -21.2220   -4.2050   26.0150 F   0  0  0  0  0  0  0  0  0  0  0  0
  -23.1700  -13.8300   21.0120 C   0  0  0  0  0  0  0  0  0  0  0  0
  -22.4080  -13.1830   21.8870 N   0  0  0  0  0  0  0  0  0  0  0  0
  -22.7690  -14.8500   20.4520 O   0  0  0  0  0  0  0  0  0  0  0  0
  -22.7430  -12.3590   22.3620 H   0  0  0  0  0  0  0  0  0  0  0  0
  -21.4760  -13.5180   22.0870 H   0  0  0  0  0  0  0  0  0  0  0  0
  -25.8730  -15.4000   20.2380 N   0  0  0  0  0  0  0  0  0  0  0  0
  -25.1340  -16.0860   20.3510 H   0  0  0  0  0  0  0  0  0  0  0  0
  -26.7710  -15.8190   20.0250 H   0  0  0  0  0  0  0  0  0  0  0  0
  -32.2140  -28.6050   20.9410 C   0  0  0  0  0  2  0  0  0  0  0  0
  -31.2680  -28.2750   19.9280 O   0  0  0  0  0  0  0  0  0  0  0  0
  -31.6560  -28.7310   18.6410 C   0  0  0  0  0  2  0  0  0  0  0  0
  -30.5510  -28.3830   17.6380 C   0  0  0  0  0  2  0  0  0  0  0  0
  -30.5260  -26.9720   17.4280 O   0  0  0  0  0  0  0  0  0  0  0  0
  -29.2250  -26.3950   17.4790 C   0  0  0  0  0  2  0  0  0  0  0  0
  -28.9570  -25.7810   18.8690 C   0  0  0  0  0  2  0  0  0  0  0  0
  -28.6770  -26.7620   19.8660 O   0  0  0  0  0  0  0  0  0  0  0  0
  -24.6030  -31.6840   22.9640 C   0  0  0  0  0  0  0  0  0  0  0  0
  -27.4470  -27.3850   19.8680 C   0  0  0  0  0  0  0  0  0  0  0  0
  -23.4700  -30.2630   21.2850 C   0  0  0  0  0  3  0  0  0  0  0  0
  -24.9960  -28.7910   19.8730 C   0  0  0  0  0  0  0  0  0  0  0  0
  -25.9840  -30.7060   21.1380 C   0  0  0  0  0  2  0  0  0  0  0  0
  -26.1220  -29.3440   20.4920 C   0  0  0  0  0  0  0  0  0  0  0  0
  -27.3440  -28.6400   20.5030 C   0  0  0  0  0  3  0  0  0  0  0  0
  -26.2970  -26.8310   19.2590 C   0  0  0  0  0  3  0  0  0  0  0  0
  -25.0750  -27.5280   19.2620 C   0  0  0  0  0  3  0  0  0  0  0  0
  -23.7250  -29.6080   19.9020 C   0  0  0  0  0  2  0  0  0  0  0  0
  -24.7020  -30.9000   21.8550 N   0  0  0  0  0  0  0  0  0  0  0  0
  -23.5050  -31.9160   23.4890 O   0  0  0  0  0  0  0  0  0  0  0  0
  -22.8380  -29.2080   22.2220 C   0  0  0  0  0  0  0  0  0  0  0  0
  -21.5090  -29.0480   22.1280 N   0  0  0  0  0  0  0  0  0  0  0  0
  -23.5400  -28.5420   22.9880 O   0  0  0  0  0  0  0  0  0  0  0  0
  -21.0050  -29.6390   21.4840 H   0  0  0  0  0  0  0  0  0  0  0  0
  -18.1270  -27.9380   22.7490 C   0  0  0  0  0  0  0  0  0  0  0  0
  -20.7040  -28.0890   22.8860 C   0  0  0  0  0  3  0  0  0  0  0  0
  -20.7200  -26.6950   22.2140 C   0  0  0  0  0  2  0  0  0  0  0  0
  -19.5510  -26.4790   21.2480 C   0  0  0  0  0  2  0  0  0  0  0  0
  -18.2140  -26.6300   21.9810 C   0  0  0  0  0  2  0  0  0  0  0  0
  -19.2970  -28.6310   23.1600 C   0  0  0  0  0  0  0  0  0  0  0  0
  -19.1610  -29.8600   23.8400 C   0  0  0  0  0  3  0  0  0  0  0  0
  -17.8880  -30.3960   24.1120 C   0  0  0  0  0  3  0  0  0  0  0  0
  -16.7330  -29.6980   23.7170 C   0  0  0  0  0  3  0  0  0  0  0  0
  -16.8540  -28.4710   23.0420 C   0  0  0  0  0  3  0  0  0  0  0  0
  -25.8590  -32.3480   23.6110 C   0  0  0  0  0  3  0  0  0  0  0  0
  -26.4240  -31.5400   24.8430 C   0  0  1  0  0  0  0  0  0  0  0  0
  -25.3560  -31.2020   25.9080 C   0  0  0  0  0  1  0  0  0  0  0  0
  -27.0670  -30.2110   24.3790 C   0  0  0  0  0  1  0  0  0  0  0  0
  -27.5430  -32.3550   25.5340 C   0  0  0  0  0  1  0  0  0  0  0  0
  -25.4820  -33.7100   24.0090 N   0  0  0  0  0  0  0  0  0  0  0  0
  -25.7640  -34.8130   23.3030 C   0  0  0  0  0  0  0  0  0  0  0  0
  -26.4420  -34.7940   22.2710 O   0  0  0  0  0  0  0  0  0  0  0  0
  -24.8770  -33.7950   24.8130 H   0  0  0  0  0  0  0  0  0  0  0  0
  -23.9550  -36.5370   23.0220 C   0  0  0  0  0  1  0  0  0  0  0  0
  -25.2080  -36.1520   23.8250 C   0  0  0  0  0  3  0  0  0  0  0  0
  -27.2890  -37.0950   24.7210 C   0  0  0  0  0  1  0  0  0  0  0  0
  -26.1890  -37.2570   23.7750 N   0  0  0  0  0  0  0  0  0  0  0  0
  -25.7380  -38.1470   23.9660 H   0  0  0  0  0  0  0  0  0  0  0  0
  1  3  2  0
  2  1  1  0
  2  5  1  0
  4  2  1  0
  6  5  1  0
  7  6  1  0
  8  7  1  0
  9  8  1  0
 10  9  1  0
 11 13  1  0
 11 10  1  0
 12 14  2  0
 12 16  1  0
 13 12  1  0
 15 13  1  0
 16 17  1  0
 18 26  1  0
 19 24  1  0
 20 21  1  0
 20 19  1  0
 22 21  1  0
 22 31  1  0
 22 23  1  0
 24 18  1  0
 24 23  1  0
 25 18  2  0
 26 17  1  0
 26 27  1  0
 28 29  2  0
 29 30  1  0
 29 48  1  0
 30 33  1  0
 31 28  1  0
 31 32  1  0
 32 30  2  0
 33 34  1  0
 34 35  2  0
 36 39  1  0
 36 35  1  0
 37 36  2  0
 38 37  1  0
 38 33  2  0
 39 40  1  0
 40 41  1  0
 41 42  2  0
 43 42  1  0
 43 47  1  0
 44 43  2  0
 45 40  2  0
 45 44  1  0
 46 45  1  0
 48 49  1  0
 49 52  1  0
 49 51  1  0
 50 48  2  0
 53 54  1  0
 53 28  1  0
 55 53  1  0
 56  1  1  0
 57 56  1  0
 58 57  1  0
 59 58  1  0
 60 61  1  0
 60 59  1  0
 61 62  1  0
 62 63  1  0
 63 65  1  0
 64 75  2  0
 65 70  1  0
 66 74  1  0
 66 76  1  0
 67 73  1  0
 67 69  1  0
 68 74  1  0
 69 70  2  0
 69 68  1  0
 71 72  1  0
 71 65  2  0
 72 67  2  0
 73 66  1  0
 74 64  1  0
 76 78  2  0
 77 76  1  0
 79 77  1  0
 80 89  2  0
 80 85  1  0
 81 77  1  0
 81 85  1  0
 82 81  1  0
 83 84  1  0
 83 82  1  0
 84 80  1  0
 85 86  2  0
 86 87  1  0
 88 87  2  0
 89 88  1  0
 90 64  1  0
 90 95  1  0
 90 91  1  0
 91 94  1  1
 91 92  1  0
 93 91  1  0
 95 98  1  0
 96100  1  0
 96 95  1  0
 97 96  2  0
100 99  1  0
102100  1  0
102103  1  0
102101  1  0
M  ISO  4  18 100  26 100  62 101  63 101
M  END
>  <TORSDO>  (10) 
F 33

>  <SCORE>  (10) 
-10.256

>  <name>  (10) 
9

>  <ligand_id>  (10) 
9

>  <original_smiles>  (10) 
[H]c1c([H])c([H])c2c(c1[H])C([H])([H])C([H])([H])C([H])([H])C2([H])N([H])C(=O)C1([H])N(C(=O)C([H])(N([H])C(=O)C([H])(N([H])C([H])([H])[H])C([H])([H])[H])C(C([H])([H])[H])(C([H])([H])[H])C([H])([H])[H])C([H])([H])c2c([H])c(OC([H])([H])C([H])([H])OC([H])([H])C([H])([H])OC([H])([H])C(=O)N([H])C([H])([H])C([H])([H])C([H])([H])C([H])([H])C([H])([H])C([H])([H])C([H])([H])N([H])C(=O)C([H])([H])C([H])([H])N([H])C(=O)N3C([H])([H])C([H])([H])C([H])([H])C([H])(n4nc(-c5c([H])c([H])c(Oc6c([H])c([H])c(F)c([H])c6F)c([H])c5[H])c(C(=O)N([H])[H])c4N([H])[H])C3([H])[H])c([H])c([H])c2C1([H])[H]

>  <smiles>  (10) 
[H]c1c([H])c([H])c2c(c1[H])C([H])([H])C([H])([H])C([H])([H])C2([H])N([H])C(=O)C1([H])N(C(=O)C([H])(N([H])C(=O)C([H])(N([H])C([H])([H])[H])C([H])([H])[H])C(C([H])([H])[H])(C([H])([H])[H])C([H])([H])[H])C([H])([H])c2c([H])c(OC([H])([H])C([H])([H])OC([H])([H])C([H])([H])OC([H])([H])C(=O)N([H])C([H])([H])C([H])([H])C([H])([H])C([H])([H])C([H])([H])C([H])([H])C([H])([H])N([H])C(=O)C([H])([H])C([H])([H])N([H])C(=O)N3C([H])([H])C([H])([H])C([H])([H])C([H])(n4nc(-c5c([H])c([H])c(Oc6c([H])c([H])c(F)c([H])c6F)c([H])c5[H])c(C(=O)N([H])[H])c4N([H])[H])C3([H])[H])c([H])c([H])c2C1([H])[H]

$$$$
10:0:0
     RDKit          3D

102108  0  0  1  0  0  0  0  0999 V2000
  -25.0600  -23.5290   23.3940 C   0  0  0  0  0  2  0  0  0  0  0  0
  -23.5480  -23.5770   23.6650 C   0  0  0  0  0  2  0  0  0  0  0  0
  -23.2720  -24.7740   24.3810 O   0  0  0  0  0  0  0  0  0  0  0  0
  -21.9470  -24.8790   24.9020 C   0  0  0  0  0  2  0  0  0  0  0  0
  -21.4580  -26.3160   24.6620 C   0  0  0  0  0  0  0  0  0  0  0  0
  -20.2720  -26.4460   24.0510 N   0  0  0  0  0  0  0  0  0  0  0  0
  -22.1960  -27.2770   24.8900 O   0  0  0  0  0  0  0  0  0  0  0  0
  -19.6950  -25.6160   24.0530 H   0  0  0  0  0  0  0  0  0  0  0  0
  -20.0070  -27.3930   22.9480 C   0  0  0  0  0  3  0  0  0  0  0  0
  -20.3340  -26.7500   21.4870 C   0  0  0  0  0  3  0  0  0  0  0  0
  -22.6270  -27.1340   19.4490 C   0  0  0  0  0 15  0  0  0  0  0  0
  -24.5950  -26.5150   19.6540 O   0  0  0  0  0  1  0  0  0  0  0  0
  -26.1260  -30.3590   22.9250 C   0  0  0  0  0  0  0  0  0  0  0  0
  -26.0980  -26.4230   19.2440 C   0  0  0  0  0  3  0  0  0  0  0  0
  -24.9090  -29.8740   20.8910 C   0  0  0  0  0  3  0  0  0  0  0  0
  -26.1360  -28.8340   18.8660 C   0  0  0  0  0  3  0  0  0  0  0  0
  -27.3930  -29.4640   20.9480 C   0  0  0  0  0  2  0  0  0  0  0  0
  -27.0620  -28.4680   19.8500 C   0  0  0  0  0  3  0  0  0  0  0  0
  -27.1760  -27.0760   19.9810 C   0  0  0  0  0  2  0  0  0  0  0  0
  -26.3220  -26.6190   17.8990 C   0  0  0  0  0  2  0  0  0  0  0  0
  -25.9050  -27.9450   17.7720 C   0  0  0  0  0  2  0  0  0  0  0  0
  -25.1040  -29.8190   19.3260 C   0  0  0  0  0  2  0  0  0  0  0  0
  -26.1810  -29.9660   21.6240 N   0  0  0  0  0  0  0  0  0  0  0  0
  -25.0630  -30.7230   23.4560 O   0  0  0  0  0  0  0  0  0  0  0  0
  -24.1670  -28.7070   21.5690 C   0  0  0  0  0  0  0  0  0  0  0  0
  -22.9440  -28.9330   21.9080 N   0  0  0  0  0  0  0  0  0  0  0  0
  -24.6600  -27.6150   21.8470 O   0  0  0  0  0  0  0  0  0  0  0  0
  -22.5370  -29.8500   21.7770 H   0  0  0  0  0  0  0  0  0  0  0  0
  -19.5500  -29.2410   21.5200 C   0  0  0  0  0  0  0  0  0  0  0  0
  -22.0410  -27.8440   22.1700 C   0  0  0  0  0  2  0  0  0  0  0  0
  -21.8010  -26.0360   20.9720 C   0  0  0  0  0  1  0  0  0  0  0  0
  -20.1480  -26.5650   19.6060 C   0  0  0  0  0  2  0  0  0  0  0  0
  -19.3340  -28.2910   20.0270 C   0  0  0  0  0  2  0  0  0  0  0  0
  -20.7890  -29.0780   22.3850 C   0  0  2  0  0  0  0  0  0  0  0  0
  -20.8080  -29.8060   23.6270 C   0  0  0  0  0  2  0  0  0  0  0  0
  -19.7180  -30.5390   24.1570 C   0  0  0  0  0  3  0  0  0  0  0  0
  -18.4870  -30.4940   23.4900 C   0  0  0  0  0  3  0  0  0  0  0  0
  -18.4100  -29.8420   22.2210 C   0  0  0  0  0  3  0  0  0  0  0  0
  -27.4030  -30.3940   23.7900 C   0  0  0  0  0  3  0  0  0  0  0  0
  -27.2080  -31.5050   24.7250 N   0  0  0  0  0  0  0  0  0  0  0  0
  -27.7350  -32.7210   24.5610 C   0  0  0  0  0  0  0  0  0  0  0  0
  -28.5230  -32.9880   23.6510 O   0  0  0  0  0  0  0  0  0  0  0  0
  -26.5350  -31.3680   25.4630 H   0  0  0  0  0  0  0  0  0  0  0  0
  -26.2900  -34.7430   24.9400 C   0  0  0  0  0  1  0  0  0  0  0  0
  -27.3310  -33.8050   25.5730 C   0  0  0  0  0  3  0  0  0  0  0  0
  -29.3890  -33.8150   26.9080 C   0  0  0  0  0  1  0  0  0  0  0  0
  -28.4780  -34.5910   26.0690 N   0  0  0  0  0  0  0  0  0  0  0  0
  -28.1620  -35.3940   26.6070 H   0  0  0  0  0  0  0  0  0  0  0  0
  -27.6760  -29.0470   24.5610 C   0  0  1  0  0  0  0  0  0  0  0  0
  -26.4570  -28.5030   25.3420 C   0  0  0  0  0  1  0  0  0  0  0  0
  -28.1400  -27.9320   23.5960 C   0  0  0  0  0  1  0  0  0  0  0  0
  -28.8350  -29.2700   25.5610 C   0  0  0  0  0  1  0  0  0  0  0  0
  -25.4300  -23.0880   21.9650 C   0  0  0  0  0  2  0  0  0  0  0  0
  -27.3640  -23.4180   20.4300 C   0  0  0  0  0  0  0  0  0  0  0  0
  -26.7930  -23.4960   21.6370 N   0  0  0  0  0  0  0  0  0  0  0  0
  -26.7550  -23.0280   19.4290 O   0  0  0  0  0  0  0  0  0  0  0  0
  -27.3710  -23.8380   22.3950 H   0  0  0  0  0  0  0  0  0  0  0  0
  -28.8310  -23.8580   20.3330 C   0  0  0  0  0  2  0  0  0  0  0  0
  -30.0630  -21.7080   20.5720 C   0  0  0  0  0  0  0  0  0  0  0  0
  -29.7180  -22.7910   19.8640 N   0  0  0  0  0  0  0  0  0  0  0  0
  -29.6150  -21.4890   21.6990 O   0  0  0  0  0  0  0  0  0  0  0  0
  -30.0770  -22.8860   18.9240 H   0  0  0  0  0  0  0  0  0  0  0  0
  -31.0580  -20.7360   19.9200 C   0  0  0  0  0  2  0  0  0  0  0  0
  -32.0690  -20.0980   20.9110 C   0  0  0  0  0  2  0  0  0  0  0  0
  -32.6200  -17.6510   20.7900 C   0  0  0  0  0  0  0  0  0  0  0  0
  -32.7840  -15.1940   20.6130 C   0  0  0  0  0  2  0  0  0  0  0  0
  -32.2070  -14.7030   19.2710 C   0  0  0  0  0  2  0  0  0  0  0  0
  -30.6810  -14.5040   19.3630 C   0  0  0  0  0  2  0  0  0  0  0  0
  -29.9590  -15.7300   19.9780 C   0  0  0  0  0  3  0  0  0  0  0  0
  -30.6530  -16.1590   21.2870 C   0  0  0  0  0  2  0  0  0  0  0  0
  -32.0770  -16.4230   20.9930 N   0  0  0  0  0  0  0  0  0  0  0  0
  -33.7570  -17.8300   20.3410 O   0  0  0  0  0  0  0  0  0  0  0  0
  -31.8180  -18.6710   21.1220 N   0  0  0  0  0  0  0  0  0  0  0  0
  -30.9310  -18.4160   21.5360 H   0  0  0  0  0  0  0  0  0  0  0  0
  -27.4620  -16.3400   20.1690 C   0  0  0  0  0  0  0  0  0  0  0  0
  -26.3460  -15.5700   20.3620 C   0  0  0  0  0  0  0  0  0  0  0  0
  -26.8130  -14.2240   20.4810 C   0  0  0  0  0  0  0  0  0  0  0  0
  -28.5370  -15.4640   20.1900 N   0  0  0  0  0  0  0  0  0  0  0  0
  -28.1380  -14.1890   20.4310 N   0  0  0  0  0  0  0  0  0  0  0  0
  -26.0710  -12.9610   20.5870 C   0  0  0  0  0  0  0  0  0  0  0  0
  -26.2680  -12.0780   21.6720 C   0  0  0  0  0  3  0  0  0  0  0  0
  -25.5300  -10.8770   21.7610 C   0  0  0  0  0  3  0  0  0  0  0  0
  -24.5810  -10.5520   20.7630 C   0  0  0  0  0  0  0  0  0  0  0  0
  -24.4040  -11.4240   19.6730 C   0  0  0  0  0  3  0  0  0  0  0  0
  -25.1440  -12.6150   19.5840 C   0  0  0  0  0  3  0  0  0  0  0  0
  -23.8380   -9.3960   20.7530 O   0  0  0  0  0  0  0  0  0  0  0  0
  -23.2830   -8.8870   21.8990 C   0  0  0  0  0  0  0  0  0  0  0  0
  -22.3950   -9.6420   22.6970 C   0  0  0  0  0  3  0  0  0  0  0  0
  -21.7930   -9.0570   23.8280 C   0  0  0  0  0  3  0  0  0  0  0  0
  -22.0700   -7.7170   24.1590 C   0  0  0  0  0  0  0  0  0  0  0  0
  -22.9500   -6.9620   23.3630 C   0  0  0  0  0  3  0  0  0  0  0  0
  -23.5520   -7.5450   22.2350 C   0  0  0  0  0  0  0  0  0  0  0  0
  -24.3830   -6.8070   21.4600 F   0  0  0  0  0  0  0  0  0  0  0  0
  -21.4860   -7.1510   25.2400 F   0  0  0  0  0  0  0  0  0  0  0  0
  -24.9190  -16.0370   20.3380 C   0  0  0  0  0  0  0  0  0  0  0  0
  -24.0300  -15.3240   21.0230 N   0  0  0  0  0  0  0  0  0  0  0  0
  -24.5930  -17.0680   19.7520 O   0  0  0  0  0  0  0  0  0  0  0  0
  -24.3030  -14.4890   21.5200 H   0  0  0  0  0  0  0  0  0  0  0  0
  -23.0640  -15.6170   21.0510 H   0  0  0  0  0  0  0  0  0  0  0  0
  -27.6510  -17.7030   19.9640 N   0  0  0  0  0  0  0  0  0  0  0  0
  -26.8740  -18.3520   19.8980 H   0  0  0  0  0  0  0  0  0  0  0  0
  -28.5510  -18.1420   19.8130 H   0  0  0  0  0  0  0  0  0  0  0  0
  1  2  1  0
  2  3  1  0
  3  4  1  0
  5  7  2  0
  5  4  1  0
  6  8  1  0
  6  5  1  0
  9  6  1  0
 10 31  1  0
 10  9  1  0
 13 24  2  0
 14 12  1  0
 14 19  1  0
 15 25  1  0
 15 23  1  0
 16 21  1  0
 16 22  1  0
 16 18  1  0
 17 23  1  0
 18 19  1  0
 18 17  1  0
 20 14  1  0
 21 20  1  0
 22 15  1  0
 23 13  1  0
 25 27  2  0
 25 26  1  0
 26 30  1  0
 28 26  1  0
 29 38  2  0
 29 34  1  0
 32 33  1  0
 32 10  1  0
 33 29  1  0
 34 30  1  6
 34  9  1  0
 34 35  1  0
 35 36  1  0
 37 36  2  0
 38 37  1  0
 39 13  1  0
 39 49  1  0
 39 40  1  0
 40 43  1  0
 41 40  1  0
 41 45  1  0
 42 41  2  0
 45 44  1  0
 45 47  1  0
 47 48  1  0
 47 46  1  0
 49 50  1  1
 49 52  1  0
 51 49  1  0
 53  1  1  0
 54 55  1  0
 55 53  1  0
 55 57  1  0
 56 54  2  0
 58 54  1  0
 59 61  2  0
 60 58  1  0
 60 59  1  0
 62 60  1  0
 63 59  1  0
 63 64  1  0
 64 73  1  0
 65 71  1  0
 65 73  1  0
 66 71  1  0
 67 68  1  0
 67 66  1  0
 69 68  1  0
 69 78  1  0
 69 70  1  0
 71 70  1  0
 72 65  2  0
 73 74  1  0
 75 78  1  0
 75 76  2  0
 76 77  1  0
 77 80  1  0
 78 79  1  0
 79 77  2  0
 80 81  1  0
 81 82  2  0
 83 82  1  0
 84 83  2  0
 85 84  1  0
 85 80  2  0
 86 83  1  0
 86 87  1  0
 87 92  2  0
 87 88  1  0
 88 89  2  0
 89 90  1  0
 90 94  1  0
 91 90  2  0
 92 91  1  0
 93 92  1  0
 95 76  1  0
 95 96  1  0
 96 99  1  0
 96 98  1  0
 97 95  2  0
100 75  1  0
101100  1  0
102100  1  0
M  ISO  4  11 101  12 101  65 100  73 100
M  END
>  <TORSDO>  (11) 
F 29

>  <SCORE>  (11) 
7.748

>  <name>  (11) 
10

>  <ligand_id>  (11) 
10

>  <original_smiles>  (11) 
[H]c1c([H])c([H])c2c(c1[H])C([H])([H])C([H])([H])C([H])([H])C2([H])N([H])C(=O)C1([H])N(C(=O)C([H])(N([H])C(=O)C([H])(N([H])C([H])([H])[H])C([H])([H])[H])C(C([H])([H])[H])(C([H])([H])[H])C([H])([H])[H])C([H])([H])c2c([H])c(OC([H])([H])C([H])([H])C([H])([H])N([H])C(=O)C([H])([H])OC([H])([H])C([H])([H])C([H])([H])N([H])C(=O)C([H])([H])N([H])C(=O)C([H])([H])C([H])([H])N([H])C(=O)N3C([H])([H])C([H])([H])C([H])([H])C([H])(n4nc(-c5c([H])c([H])c(Oc6c([H])c([H])c(F)c([H])c6F)c([H])c5[H])c(C(=O)N([H])[H])c4N([H])[H])C3([H])[H])c([H])c([H])c2C1([H])[H]

>  <smiles>  (11) 
[H]c1c([H])c([H])c2c(c1[H])C([H])([H])C([H])([H])C([H])([H])C2([H])N([H])C(=O)C1([H])N(C(=O)C([H])(N([H])C(=O)C([H])(N([H])C([H])([H])[H])C([H])([H])[H])C(C([H])([H])[H])(C([H])([H])[H])C([H])([H])[H])C([H])([H])c2c([H])c(OC([H])([H])C([H])([H])C([H])([H])N([H])C(=O)C([H])([H])OC([H])([H])C([H])([H])C([H])([H])N([H])C(=O)C([H])([H])N([H])C(=O)C([H])([H])C([H])([H])N([H])C(=O)N3C([H])([H])C([H])([H])C([H])([H])C([H])(n4nc(-c5c([H])c([H])c(Oc6c([H])c([H])c(F)c([H])c6F)c([H])c5[H])c(C(=O)N([H])[H])c4N([H])[H])C3([H])[H])c([H])c([H])c2C1([H])[H]

$$$$
12:0:0
     RDKit          3D

104111  0  0  1  0  0  0  0  0999 V2000
  -21.5080  -29.1020   20.7740 C   0  0  0  0  0  0  0  0  0  0  0  0
  -22.3340  -28.6980   19.7130 N   0  0  0  0  0  0  0  0  0  0  0  0
  -20.2990  -29.3130   20.5850 O   0  0  0  0  0  0  0  0  0  0  0  0
  -22.8870  -29.4910   19.3660 H   0  0  0  0  0  0  0  0  0  0  0  0
  -22.3870  -27.4220   18.7540 C   0  0  0  0  0  2  0  0  0  0  0  0
  -23.5720  -26.2380   18.1610 C   0  0  0  0  0  2  0  0  0  0  0  0
  -24.6670  -25.1820   18.7870 N   0  0  0  0  0  4  0  0  0  0  0  0
  -25.4360  -25.7510   19.1100 H   0  0  0  0  0  0  0  0  0  0  0  0
  -24.2490  -24.8370   19.6280 H   0  0  0  0  0  0  0  0  0  0  0  0
  -25.3340  -23.8980   17.9760 C   0  0  0  0  0  2  0  0  0  0  0  0
  -26.7090  -22.7950   18.3470 C   0  0  0  0  0  3  0  0  0  0  0  0
  -27.0780  -21.0780   17.8960 C   0  0  0  0  0  3  0  0  0  0  0  0
  -28.4920  -19.9480   18.0390 C   0  0  0  0  0  2  0  0  0  0  0  0
  -28.7680  -18.2090   18.4690 C   0  0  0  0  0  3  0  0  0  0  0  0
  -30.1500  -17.0410   18.4100 C   0  0  0  0  0  3  0  0  0  0  0  0
  -31.3090  -14.4180   19.2660 C   0  0  0  0  0  0  0  0  0  0  0  0
  -31.3570  -11.8240   19.2030 C   0  0  0  0  0  2  0  0  0  0  0  0
  -30.3790  -11.2760   18.1350 C   0  0  0  0  0  2  0  0  0  0  0  0
  -28.9370  -11.2360   18.6800 C   0  0  0  0  0  2  0  0  0  0  0  0
  -28.5730  -12.5270   19.4530 C   0  0  0  0  0  3  0  0  0  0  0  0
  -29.6470  -12.9440   20.4620 C   0  0  0  0  0  2  0  0  0  0  0  0
  -30.8400  -13.1490   19.6770 N   0  0  0  0  0  0  0  0  0  0  0  0
  -32.5300  -14.4640   19.0790 O   0  0  0  0  0  0  0  0  0  0  0  0
  -30.3120  -15.4760   18.9120 N   0  0  0  0  0  0  0  0  0  0  0  0
  -29.4280  -15.0060   18.7530 H   0  0  0  0  0  0  0  0  0  0  0  0
  -26.5020  -13.5470   20.5080 C   0  0  0  0  0  0  0  0  0  0  0  0
  -25.3490  -13.0060   20.9720 C   0  0  0  0  0  0  0  0  0  0  0  0
  -25.4930  -11.5880   20.8270 C   0  0  0  0  0  0  0  0  0  0  0  0
  -27.2770  -12.4870   20.0890 N   0  0  0  0  0  0  0  0  0  0  0  0
  -26.6980  -11.2950   20.3610 N   0  0  0  0  0  0  0  0  0  0  0  0
  -24.5290  -10.5060   21.0160 C   0  0  0  0  0  0  0  0  0  0  0  0
  -24.8440   -9.3570   21.7750 C   0  0  0  0  0  3  0  0  0  0  0  0
  -23.8840   -8.3360   21.9520 C   0  0  0  0  0  3  0  0  0  0  0  0
  -22.6030   -8.4600   21.3690 C   0  0  0  0  0  0  0  0  0  0  0  0
  -22.3060   -9.5910   20.5870 C   0  0  0  0  0  3  0  0  0  0  0  0
  -23.2620  -10.6040   20.4050 C   0  0  0  0  0  3  0  0  0  0  0  0
  -21.6210   -7.5100   21.4670 O   0  0  0  0  0  0  0  0  0  0  0  0
  -21.5600   -6.6450   22.5320 C   0  0  0  0  0  0  0  0  0  0  0  0
  -21.4360   -7.1060   23.8620 C   0  0  0  0  0  3  0  0  0  0  0  0
  -21.3110   -6.1830   24.9160 C   0  0  0  0  0  3  0  0  0  0  0  0
  -21.2980   -4.8000   24.6490 C   0  0  0  0  0  0  0  0  0  0  0  0
  -21.4160   -4.3420   23.3260 C   0  0  0  0  0  3  0  0  0  0  0  0
  -21.5450   -5.2590   22.2720 C   0  0  0  0  0  0  0  0  0  0  0  0
  -21.6370   -4.8130   20.9950 F   0  0  0  0  0  0  0  0  0  0  0  0
  -21.1670   -3.9140   25.6610 F   0  0  0  0  0  0  0  0  0  0  0  0
  -24.1190  -13.7510   21.4140 C   0  0  0  0  0  0  0  0  0  0  0  0
  -23.3590  -13.2050   22.3400 N   0  0  0  0  0  0  0  0  0  0  0  0
  -23.8650  -14.8670   20.9510 O   0  0  0  0  0  0  0  0  0  0  0  0
  -23.5800  -12.2910   22.7290 H   0  0  0  0  0  0  0  0  0  0  0  0
  -22.5350  -13.6870   22.6690 H   0  0  0  0  0  0  0  0  0  0  0  0
  -26.9360  -14.8640   20.3360 N   0  0  0  0  0  0  0  0  0  0  0  0
  -26.1800  -15.5470   20.3020 H   0  0  0  0  0  0  0  0  0  0  0  0
  -27.5850  -15.0190   19.5800 H   0  0  0  0  0  0  0  0  0  0  0  0
  -22.0730  -29.5540   22.2640 C   0  0  0  0  0  2  0  0  0  0  0  0
  -22.4070  -28.7490   23.7250 C   0  0  0  0  0  2  0  0  0  0  0  0
  -23.4310  -27.4220   24.4100 C   0  0  0  0  0  2  0  0  0  0  0  0
  -25.0990  -27.0000   24.4760 C   0  0  0  0  0  2  0  0  0  0  0  0
  -26.0190  -25.6160   24.4900 C   0  0  0  0  0  2  0  0  0  0  0  0
  -28.6680  -25.4600   23.5040 C   0  0  0  0  0  0  0  0  0  0  0  0
  -27.2730  -25.3600   23.5460 N   0  0  0  0  0  0  0  0  0  0  0  0
  -29.2590  -25.8140   24.5150 O   0  0  0  0  0  0  0  0  0  0  0  0
  -26.9110  -25.0670   22.6250 H   0  0  0  0  0  0  0  0  0  0  0  0
  -29.5910  -24.8820   22.2800 C   0  0  0  0  0  2  0  0  0  0  0  0
  -30.4950  -25.6870   21.3330 O   0  0  0  0  0  0  0  0  0  0  0  0
  -26.0070  -29.9110   23.1940 C   0  0  0  0  0  0  0  0  0  0  0  0
  -29.8360  -26.5040   20.4910 C   0  0  0  0  0  0  0  0  0  0  0  0
  -25.4830  -28.4130   21.1460 C   0  0  0  0  0  3  0  0  0  0  0  0
  -27.5100  -27.6900   19.8110 C   0  0  0  0  0  0  0  0  0  0  0  0
  -27.7690  -29.4680   21.5400 C   0  0  0  0  0  2  0  0  0  0  0  0
  -28.2930  -28.2770   20.7860 C   0  0  0  0  0  0  0  0  0  0  0  0
  -29.5160  -27.7230   21.0740 C   0  0  0  0  0  3  0  0  0  0  0  0
  -29.1670  -26.0110   19.3630 C   0  0  0  0  0  3  0  0  0  0  0  0
  -27.9800  -26.6430   19.0060 C   0  0  0  0  0  3  0  0  0  0  0  0
  -26.1380  -28.2170   19.7470 C   0  0  0  0  0  2  0  0  0  0  0  0
  -26.4010  -29.2400   22.0570 N   0  0  0  0  0  0  0  0  0  0  0  0
  -24.8590  -29.9090   23.6110 O   0  0  0  0  0  0  0  0  0  0  0  0
  -24.9580  -26.9380   21.5440 C   0  0  0  0  0  0  0  0  0  0  0  0
  -23.6820  -26.5540   21.5810 N   0  0  0  0  0  0  0  0  0  0  0  0
  -25.7660  -26.0880   21.7360 O   0  0  0  0  0  0  0  0  0  0  0  0
  -23.0560  -27.3340   21.4230 H   0  0  0  0  0  0  0  0  0  0  0  0
  -20.6400  -24.6100   20.9080 C   0  0  0  0  0  0  0  0  0  0  0  0
  -22.8980  -25.3670   21.9910 C   0  0  0  0  0  3  0  0  0  0  0  0
  -23.4880  -24.0800   21.4630 C   0  0  0  0  0  2  0  0  0  0  0  0
  -22.7950  -23.3700   20.2960 C   0  0  0  0  0  2  0  0  0  0  0  0
  -21.2750  -23.3970   20.2940 C   0  0  0  0  0  2  0  0  0  0  0  0
  -21.3540  -25.4770   21.7610 C   0  0  0  0  0  0  0  0  0  0  0  0
  -20.5080  -26.3790   22.4590 C   0  0  0  0  0  3  0  0  0  0  0  0
  -19.1490  -26.6410   22.2030 C   0  0  0  0  0  3  0  0  0  0  0  0
  -18.4980  -25.8110   21.3120 C   0  0  0  0  0  3  0  0  0  0  0  0
  -19.2340  -24.7550   20.7420 C   0  0  0  0  0  3  0  0  0  0  0  0
  -26.9900  -30.6110   24.1660 C   0  0  0  0  0  3  0  0  0  0  0  0
  -27.2500  -29.9350   25.5680 C   0  0  1  0  0  0  0  0  0  0  0  0
  -26.0370  -29.7220   26.5040 C   0  0  0  0  0  1  0  0  0  0  0  0
  -27.9470  -28.6040   25.3810 C   0  0  0  0  0  1  0  0  0  0  0  0
  -28.2420  -30.7890   26.3840 C   0  0  0  0  0  1  0  0  0  0  0  0
  -26.4450  -31.9360   24.3960 N   0  0  0  0  0  0  0  0  0  0  0  0
  -26.9740  -33.0570   23.9040 C   0  0  0  0  0  0  0  0  0  0  0  0
  -28.0240  -33.0750   23.2490 O   0  0  0  0  0  0  0  0  0  0  0  0
  -25.5320  -31.9750   24.8260 H   0  0  0  0  0  0  0  0  0  0  0  0
  -25.4380  -34.7790   22.9370 C   0  0  0  0  0  1  0  0  0  0  0  0
  -26.2150  -34.3610   24.1960 C   0  0  0  0  0  3  0  0  0  0  0  0
  -27.7010  -35.2160   25.9480 C   0  0  0  0  0  1  0  0  0  0  0  0
  -27.1010  -35.4600   24.6310 N   0  0  0  0  0  0  0  0  0  0  0  0
  -26.6030  -36.3390   24.6630 H   0  0  0  0  0  0  0  0  0  0  0  0
  1 54  1  0
  2  1  1  0
  3  1  2  0
  4  2  1  0
  5  2  1  0
  6  5  1  0
  6  7  1  0
  7  8  1  0
  7  9  1  0
 10 11  1  0
 10  7  1  0
 12 13  1  0
 12 11  2  0
 13 14  1  0
 15 14  2  0
 15 24  1  0
 16 22  1  0
 17 22  1  0
 18 19  1  0
 18 17  1  0
 20 19  1  0
 20 29  1  0
 20 21  1  0
 22 21  1  0
 23 16  2  0
 24 16  1  0
 25 24  1  0
 26 27  2  0
 27 46  1  0
 28 27  1  0
 28 31  1  0
 29 30  1  0
 29 26  1  0
 30 28  2  0
 31 32  1  0
 32 33  2  0
 34 37  1  0
 34 33  1  0
 35 34  2  0
 36 35  1  0
 36 31  2  0
 37 38  1  0
 38 39  1  0
 39 40  2  0
 41 40  1  0
 41 45  1  0
 42 41  2  0
 43 38  2  0
 43 42  1  0
 44 43  1  0
 46 47  1  0
 47 50  1  0
 47 49  1  0
 48 46  2  0
 51 26  1  0
 52 51  1  0
 53 51  1  0
 54 55  1  0
 55 56  1  0
 56 57  1  0
 57 58  1  0
 59 60  1  0
 59 61  2  0
 60 58  1  0
 62 60  1  0
 63 59  1  0
 64 63  1  0
 65 76  2  0
 66 71  1  0
 66 64  1  0
 67 77  1  0
 67 75  1  0
 68 70  1  0
 69 75  1  0
 70 71  2  0
 70 69  1  0
 72 66  2  0
 73 72  1  0
 73 68  2  0
 74 68  1  0
 74 67  1  0
 75 65  1  0
 77 78  1  0
 77 79  2  0
 80 78  1  0
 81 86  1  0
 82 78  1  0
 83 82  1  0
 84 83  1  0
 85 84  1  0
 85 81  1  0
 86 82  1  0
 86 87  2  0
 88 87  1  0
 89 88  2  0
 90 81  2  0
 90 89  1  0
 91 65  1  0
 91 96  1  0
 91 92  1  0
 92 95  1  1
 92 93  1  0
 94 92  1  0
 96 99  1  0
 97101  1  0
 97 96  1  0
 98 97  2  0
101100  1  0
101103  1  0
103104  1  0
103102  1  0
M  ISO  4  16 100  24 100  63 101  64 101
M  END
>  <TORSDO>  (12) 
F 32

>  <SCORE>  (12) 
-8.205

>  <name>  (12) 
12

>  <ligand_id>  (12) 
12

>  <original_smiles>  (12) 
[H]c1c([H])c([H])c2c(c1[H])C([H])([H])C([H])([H])C([H])([H])C2([H])N([H])C(=O)C1([H])N(C(=O)C([H])(N([H])C(=O)C([H])(N([H])C([H])([H])[H])C([H])([H])[H])C(C([H])([H])[H])(C([H])([H])[H])C([H])([H])[H])C([H])([H])c2c([H])c(OC([H])([H])C(=O)N([H])C([H])([H])C([H])([H])C([H])([H])C([H])([H])C([H])([H])C(=O)N([H])C([H])([H])C([H])([H])[N+]([H])([H])C([H])([H])C([H])([H])C([H])([H])C([H])([H])C([H])([H])C([H])([H])N([H])C(=O)N3C([H])([H])C([H])([H])C([H])([H])C([H])(n4nc(-c5c([H])c([H])c(Oc6c([H])c([H])c(F)c([H])c6F)c([H])c5[H])c(C(=O)N([H])[H])c4N([H])[H])C3([H])[H])c([H])c([H])c2C1([H])[H]

>  <smiles>  (12) 
[H]c1c([H])c([H])c2c(c1[H])C([H])([H])C([H])([H])C([H])([H])C2([H])N([H])C(=O)C1([H])N(C(=O)C([H])(N([H])C(=O)C([H])(N([H])C([H])([H])[H])C([H])([H])[H])C(C([H])([H])[H])(C([H])([H])[H])C([H])([H])[H])C([H])([H])c2c([H])c(OC([H])([H])C(=O)N([H])C([H])([H])C([H])([H])C([H])([H])C([H])([H])C([H])([H])C(=O)N([H])C([H])([H])C([H])([H])[N+]([H])([H])C([H])([H])C([H])([H])C([H])([H])C([H])([H])C([H])([H])C([H])([H])N([H])C(=O)N3C([H])([H])C([H])([H])C([H])([H])C([H])(n4nc(-c5c([H])c([H])c(Oc6c([H])c([H])c(F)c([H])c6F)c([H])c5[H])c(C(=O)N([H])[H])c4N([H])[H])C3([H])[H])c([H])c([H])c2C1([H])[H]

$$$$
13:0:0
     RDKit          3D

121129  0  0  1  0  0  0  0  0999 V2000
  -30.2520  -18.4210   11.6720 C   0  0  0  0  0  2  0  0  0  0  0  0
  -29.0690  -17.6790   12.3100 C   0  0  0  0  0  2  0  0  0  0  0  0
  -27.7800  -18.5190   12.3270 C   0  0  0  0  0  2  0  0  0  0  0  0
  -26.6860  -17.9620   13.2610 C   0  0  0  0  0  2  0  0  0  0  0  0
  -27.0790  -17.8600   14.7480 C   0  0  0  0  0  2  0  0  0  0  0  0
  -27.5940  -19.1750   15.3550 C   0  0  0  0  0  2  0  0  0  0  0  0
  -28.0560  -19.0080   16.8090 C   0  0  0  0  0  2  0  0  0  0  0  0
  -28.7140  -20.2790   17.3650 C   0  0  0  0  0  2  0  0  0  0  0  0
  -29.2370  -20.0800   18.7920 C   0  0  0  0  0  2  0  0  0  0  0  0
  -30.0370  -21.2840   19.3090 C   0  0  0  0  0  2  0  0  0  0  0  0
  -30.6060  -21.0500   20.7200 C   0  0  0  0  0  3  0  0  0  0  0  0
  -31.3850  -22.2470   21.2940 C   0  0  0  0  0  2  0  0  0  0  0  0
  -32.7240  -23.5590   19.6450 C   0  0  0  0  0  0  0  0  0  0  0  0
  -32.5840  -22.5490   20.5140 N   0  0  0  0  0  0  0  0  0  0  0  0
  -31.8280  -24.3770   19.4230 O   0  0  0  0  0  0  0  0  0  0  0  0
  -33.3860  -21.9500   20.6600 H   0  0  0  0  0  0  0  0  0  0  0  0
  -34.0620  -23.6530   18.9000 C   0  0  0  0  0  2  0  0  0  0  0  0
  -34.3860  -25.0180   18.6720 O   0  0  0  0  0  0  0  0  0  0  0  0
  -35.4980  -25.1910   17.8030 C   0  0  0  0  0  2  0  0  0  0  0  0
  -35.6430  -26.6870   17.4970 C   0  0  0  0  0  2  0  0  0  0  0  0
  -34.4530  -27.0870   16.8260 O   0  0  0  0  0  0  0  0  0  0  0  0
  -35.2470  -33.5040   19.8460 C   0  0  0  0  0  0  0  0  0  0  0  0
  -33.9050  -28.2800   17.2240 C   0  0  0  0  0  0  0  0  0  0  0  0
  -32.9210  -32.7650   19.4400 C   0  0  0  0  0  3  0  0  0  0  0  0
  -32.6570  -30.6910   17.9830 C   0  0  0  0  0  0  0  0  0  0  0  0
  -34.8310  -31.9290   17.9660 C   0  0  0  0  0  2  0  0  0  0  0  0
  -34.0420  -30.6530   17.7770 C   0  0  0  0  0  0  0  0  0  0  0  0
  -34.6750  -29.4510   17.4010 C   0  0  0  0  0  3  0  0  0  0  0  0
  -32.5130  -28.3280   17.4260 C   0  0  0  0  0  3  0  0  0  0  0  0
  -31.8850  -29.5270   17.8140 C   0  0  0  0  0  3  0  0  0  0  0  0
  -32.0630  -32.0210   18.3810 C   0  0  0  0  0  2  0  0  0  0  0  0
  -34.3850  -32.7380   19.1210 N   0  0  0  0  0  0  0  0  0  0  0  0
  -34.8390  -34.2580   20.7400 O   0  0  0  0  0  0  0  0  0  0  0  0
  -32.5880  -32.1880   20.8340 C   0  0  0  0  0  0  0  0  0  0  0  0
  -31.4660  -32.6420   21.4160 N   0  0  0  0  0  0  0  0  0  0  0  0
  -33.3110  -31.3340   21.3550 O   0  0  0  0  0  0  0  0  0  0  0  0
  -30.9320  -33.3470   20.9270 H   0  0  0  0  0  0  0  0  0  0  0  0
  -28.7820  -33.1740   23.7740 C   0  0  0  0  0  0  0  0  0  0  0  0
  -30.9330  -32.2150   22.7080 C   0  0  0  0  0  3  0  0  0  0  0  0
  -30.1530  -30.8860   22.5770 C   0  0  0  0  0  2  0  0  0  0  0  0
  -28.6520  -31.0880   22.3490 C   0  0  0  0  0  2  0  0  0  0  0  0
  -28.0340  -31.8810   23.5030 C   0  0  0  0  0  2  0  0  0  0  0  0
  -30.1380  -33.3370   23.3860 C   0  0  0  0  0  0  0  0  0  0  0  0
  -30.7760  -34.5740   23.6290 C   0  0  0  0  0  3  0  0  0  0  0  0
  -30.0830  -35.6310   24.2490 C   0  0  0  0  0  3  0  0  0  0  0  0
  -28.7460  -35.4580   24.6460 C   0  0  0  0  0  3  0  0  0  0  0  0
  -28.1000  -34.2310   24.4120 C   0  0  0  0  0  3  0  0  0  0  0  0
  -36.7850  -33.4860   19.5740 C   0  0  0  0  0  3  0  0  0  0  0  0
  -37.5830  -32.5580   20.5690 C   0  0  1  0  0  0  0  0  0  0  0  0
  -37.2770  -32.8320   22.0600 C   0  0  0  0  0  1  0  0  0  0  0  0
  -37.2730  -31.0690   20.2900 C   0  0  0  0  0  1  0  0  0  0  0  0
  -39.1040  -32.7420   20.3500 C   0  0  0  0  0  1  0  0  0  0  0  0
  -37.2630  -34.8720   19.6560 N   0  0  0  0  0  0  0  0  0  0  0  0
  -37.4870  -35.6630   18.5980 C   0  0  0  0  0  0  0  0  0  0  0  0
  -37.3770  -35.2720   17.4330 O   0  0  0  0  0  0  0  0  0  0  0  0
  -37.3210  -35.2780   20.5790 H   0  0  0  0  0  0  0  0  0  0  0  0
  -36.6710  -38.0370   18.7270 C   0  0  0  0  0  1  0  0  0  0  0  0
  -37.8970  -37.1220   18.8770 C   0  0  0  0  0  3  0  0  0  0  0  0
  -40.2670  -36.9470   18.2660 C   0  0  0  0  0  1  0  0  0  0  0  0
  -38.9900  -37.6060   18.0050 N   0  0  0  0  0  0  0  0  0  0  0  0
  -39.1220  -38.6070   18.1170 H   0  0  0  0  0  0  0  0  0  0  0  0
  -31.5590  -17.6150   11.7650 C   0  0  0  0  0  2  0  0  0  0  0  0
  -32.7850  -18.3390   11.1810 C   0  0  0  0  0  2  0  0  0  0  0  0
  -33.7060  -19.7500   13.0210 C   0  0  0  0  0  0  0  0  0  0  0  0
  -33.0660  -19.6050   11.8540 N   0  0  0  0  0  0  0  0  0  0  0  0
  -34.1190  -18.7930   13.6810 O   0  0  0  0  0  0  0  0  0  0  0  0
  -32.7830  -20.4510   11.3750 H   0  0  0  0  0  0  0  0  0  0  0  0
  -33.9400  -21.1920   13.4910 C   0  0  0  0  0  2  0  0  0  0  0  0
  -33.5070  -21.3250   15.9370 C   0  0  0  0  0  0  0  0  0  0  0  0
  -34.3410  -21.2740   14.8940 N   0  0  0  0  0  0  0  0  0  0  0  0
  -32.2800  -21.3240   15.8070 O   0  0  0  0  0  0  0  0  0  0  0  0
  -35.3350  -21.2440   15.0840 H   0  0  0  0  0  0  0  0  0  0  0  0
  -34.1540  -21.4260   17.3250 C   0  0  0  0  0  2  0  0  0  0  0  0
  -32.9470  -20.0300   18.9910 C   0  0  0  0  0  0  0  0  0  0  0  0
  -33.1890  -21.2050   18.4020 N   0  0  0  0  0  0  0  0  0  0  0  0
  -33.5550  -19.0010   18.6860 O   0  0  0  0  0  0  0  0  0  0  0  0
  -32.6230  -21.9980   18.6640 H   0  0  0  0  0  0  0  0  0  0  0  0
  -31.8860  -20.0230   20.1000 C   0  0  0  0  0  3  0  0  0  0  0  0
  -31.3700  -17.6830   20.7630 C   0  0  0  0  0  0  0  0  0  0  0  0
  -32.0030  -18.8430   20.9520 N   0  0  0  0  0  0  0  0  0  0  0  0
  -30.5150  -17.5220   19.8910 O   0  0  0  0  0  0  0  0  0  0  0  0
  -32.7090  -18.8780   21.6750 H   0  0  0  0  0  0  0  0  0  0  0  0
  -31.7550  -16.5450   21.7140 C   0  0  0  0  0  2  0  0  0  0  0  0
  -31.5900  -14.4820   20.3320 C   0  0  0  0  0  0  0  0  0  0  0  0
  -31.1010  -12.4520   19.0150 C   0  0  0  0  0  2  0  0  0  0  0  0
  -30.1920  -12.7630   17.8110 C   0  0  0  0  0  2  0  0  0  0  0  0
  -28.7060  -12.7430   18.2170 C   0  0  0  0  0  2  0  0  0  0  0  0
  -28.4260  -13.5820   19.4900 C   0  0  0  0  0  3  0  0  0  0  0  0
  -29.4270  -13.2190   20.6070 C   0  0  0  0  0  2  0  0  0  0  0  0
  -30.7950  -13.4120   20.0860 N   0  0  0  0  0  0  0  0  0  0  0  0
  -32.6430  -14.7070   19.7240 O   0  0  0  0  0  0  0  0  0  0  0  0
  -31.1630  -15.2710   21.3220 N   0  0  0  0  0  0  0  0  0  0  0  0
  -30.2900  -15.0180   21.7590 H   0  0  0  0  0  0  0  0  0  0  0  0
  -26.0730  -14.3900   20.1620 C   0  0  0  0  0  0  0  0  0  0  0  0
  -24.9340  -13.7100   20.5000 C   0  0  0  0  0  0  0  0  0  0  0  0
  -25.2760  -12.3230   20.4580 C   0  0  0  0  0  0  0  0  0  0  0  0
  -27.0430  -13.4250   19.9390 N   0  0  0  0  0  0  0  0  0  0  0  0
  -26.5650  -12.1760   20.1710 N   0  0  0  0  0  0  0  0  0  0  0  0
  -24.4410  -11.1260   20.6190 C   0  0  0  0  0  0  0  0  0  0  0  0
  -24.8050  -10.0860   21.5030 C   0  0  0  0  0  3  0  0  0  0  0  0
  -23.9760   -8.9520   21.6530 C   0  0  0  0  0  3  0  0  0  0  0  0
  -22.7710   -8.8530   20.9200 C   0  0  0  0  0  0  0  0  0  0  0  0
  -22.4250   -9.8790   20.0240 C   0  0  0  0  0  3  0  0  0  0  0  0
  -23.2540  -11.0040   19.8710 C   0  0  0  0  0  3  0  0  0  0  0  0
  -21.9170   -7.7770   20.9800 O   0  0  0  0  0  0  0  0  0  0  0  0
  -21.8580   -6.9690   22.0870 C   0  0  0  0  0  0  0  0  0  0  0  0
  -21.5930   -7.4850   23.3740 C   0  0  0  0  0  3  0  0  0  0  0  0
  -21.4700   -6.6090   24.4700 C   0  0  0  0  0  3  0  0  0  0  0  0
  -21.6040   -5.2210   24.2830 C   0  0  0  0  0  0  0  0  0  0  0  0
  -21.8620   -4.7040   23.0010 C   0  0  0  0  0  3  0  0  0  0  0  0
  -21.9860   -5.5770   21.9060 C   0  0  0  0  0  0  0  0  0  0  0  0
  -22.2150   -5.0720   20.6700 F   0  0  0  0  0  0  0  0  0  0  0  0
  -21.4780   -4.3790   25.3370 F   0  0  0  0  0  0  0  0  0  0  0  0
  -23.5780  -14.3030   20.7590 C   0  0  0  0  0  0  0  0  0  0  0  0
  -22.7810  -13.6630   21.6070 N   0  0  0  0  0  0  0  0  0  0  0  0
  -23.2360  -15.3690   20.2470 O   0  0  0  0  0  0  0  0  0  0  0  0
  -23.0700  -12.8000   22.0430 H   0  0  0  0  0  0  0  0  0  0  0  0
  -21.8700  -14.0420   21.8240 H   0  0  0  0  0  0  0  0  0  0  0  0
  -26.3640  -15.7420   20.0150 N   0  0  0  0  0  0  0  0  0  0  0  0
  -25.6580  -16.4620   20.1160 H   0  0  0  0  0  0  0  0  0  0  0  0
  -27.2650  -16.1050   19.7350 H   0  0  0  0  0  0  0  0  0  0  0  0
  1 62  1  0
  1  2  1  0
  2  3  1  0
  3  4  1  0
  4  5  1  0
  5  6  1  0
  6  7  1  0
  7  8  1  0
  8  9  1  0
  9 10  1  0
 10 11  1  0
 11 12  1  0
 13 14  1  0
 14 16  1  0
 14 12  1  0
 15 13  2  0
 17 13  1  0
 18 17  1  0
 19 18  1  0
 20 19  1  0
 21 23  1  0
 21 20  1  0
 22 33  2  0
 23 28  2  0
 23 29  1  0
 24 34  1  0
 25 31  1  0
 26 32  1  0
 27 26  1  0
 27 25  2  0
 28 27  1  0
 29 30  2  0
 30 25  1  0
 31 24  1  0
 32 24  1  0
 32 22  1  0
 34 36  2  0
 34 35  1  0
 37 35  1  0
 38 47  1  0
 39 35  1  0
 39 43  1  0
 40 39  1  0
 41 40  1  0
 41 42  1  0
 42 38  1  0
 43 44  1  0
 43 38  2  0
 44 45  2  0
 45 46  1  0
 47 46  2  0
 48 53  1  0
 48 22  1  0
 48 49  1  0
 49 50  1  1
 51 49  1  0
 52 49  1  0
 53 56  1  0
 54 58  1  0
 54 53  1  0
 55 54  2  0
 58 57  1  0
 60 61  1  0
 60 59  1  0
 60 58  1  0
 63 62  1  0
 63 65  1  0
 64 68  1  0
 64 66  2  0
 65 64  1  0
 67 65  1  0
 68 70  1  0
 69 73  1  0
 70 72  1  0
 70 69  1  0
 71 69  2  0
 73 75  1  0
 74 78  1  0
 75 77  1  0
 75 74  1  0
 76 74  2  0
 78 11  1  0
 78 80  1  0
 79 80  1  0
 79 83  1  0
 80 82  1  0
 81 79  2  0
 84 92  1  0
 85 90  1  0
 86 87  1  0
 86 85  1  0
 88 87  1  0
 88 97  1  0
 88 89  1  0
 90 84  1  0
 90 89  1  0
 91 84  2  0
 92 83  1  0
 92 93  1  0
 94 95  2  0
 95114  1  0
 96 95  1  0
 96 99  1  0
 97 94  1  0
 97 98  1  0
 98 96  2  0
 99100  1  0
100101  2  0
102105  1  0
102101  1  0
103102  2  0
104103  1  0
104 99  2  0
105106  1  0
106107  1  0
107108  2  0
109108  1  0
109113  1  0
110109  2  0
111106  2  0
111110  1  0
112111  1  0
114115  1  0
115118  1  0
115117  1  0
116114  2  0
119120  1  0
119 94  1  0
121119  1  0
M  ISO  4  20 101  21 101  84 100  92 100
M  END
>  <TORSDO>  (13) 
F 42

>  <SCORE>  (13) 
4.368

>  <name>  (13) 
13

>  <ligand_id>  (13) 
13

>  <original_smiles>  (13) 
[H]c1c([H])c([H])c2c(c1[H])C([H])([H])C([H])([H])C([H])([H])C2([H])N([H])C(=O)C1([H])N(C(=O)C([H])(N([H])C(=O)C([H])(N([H])C([H])([H])[H])C([H])([H])[H])C(C([H])([H])[H])(C([H])([H])[H])C([H])([H])[H])C([H])([H])c2c([H])c(OC([H])([H])C([H])([H])OC([H])([H])C(=O)N([H])C([H])([H])C([H])([H])C([H])([H])C([H])([H])C([H])([H])C([H])([H])C([H])([H])C([H])([H])C([H])([H])C([H])([H])C([H])([H])C([H])([H])C([H])([H])C([H])([H])N([H])C(=O)C([H])([H])N([H])C(=O)C([H])([H])N([H])C(=O)C([H])([H])N([H])C(=O)C([H])([H])N([H])C(=O)N3C([H])([H])C([H])([H])C([H])([H])C([H])(n4nc(-c5c([H])c([H])c(Oc6c([H])c([H])c(F)c([H])c6F)c([H])c5[H])c(C(=O)N([H])[H])c4N([H])[H])C3([H])[H])c([H])c([H])c2C1([H])[H]

>  <smiles>  (13) 
[H]c1c([H])c([H])c2c(c1[H])C([H])([H])C([H])([H])C([H])([H])C2([H])N([H])C(=O)C1([H])N(C(=O)C([H])(N([H])C(=O)C([H])(N([H])C([H])([H])[H])C([H])([H])[H])C(C([H])([H])[H])(C([H])([H])[H])C([H])([H])[H])C([H])([H])c2c([H])c(OC([H])([H])C([H])([H])OC([H])([H])C(=O)N([H])C([H])([H])C([H])([H])C([H])([H])C([H])([H])C([H])([H])C([H])([H])C([H])([H])C([H])([H])C([H])([H])C([H])([H])C([H])([H])C([H])([H])C([H])([H])C([H])([H])N([H])C(=O)C([H])([H])N([H])C(=O)C([H])([H])N([H])C(=O)C([H])([H])N([H])C(=O)C([H])([H])N([H])C(=O)N3C([H])([H])C([H])([H])C([H])([H])C([H])(n4nc(-c5c([H])c([H])c(Oc6c([H])c([H])c(F)c([H])c6F)c([H])c5[H])c(C(=O)N([H])[H])c4N([H])[H])C3([H])[H])c([H])c([H])c2C1([H])[H]

$$$$
14:0:0
     RDKit          3D

105112  0  0  1  0  0  0  0  0999 V2000
  -26.8830  -14.9240   17.9190 C   0  0  0  0  0  2  0  0  0  0  0  0
  -27.3900  -13.5630   17.3110 C   0  0  0  0  0  2  0  0  0  0  0  0
  -26.8710  -12.2790   18.0710 C   0  0  0  0  0  2  0  0  0  0  0  0
  -27.3600  -10.8380   17.6490 C   0  0  0  0  0  2  0  0  0  0  0  0
  -28.8100   -9.5290   19.3540 C   0  0  0  0  0  0  0  0  0  0  0  0
  -28.6160  -10.3110   18.2550 N   0  0  0  0  0  0  0  0  0  0  0  0
  -27.8690   -9.1290   20.0410 O   0  0  0  0  0  0  0  0  0  0  0  0
  -29.4540  -10.5590   17.7500 H   0  0  0  0  0  0  0  0  0  0  0  0
  -30.2860   -9.1370   19.7430 C   0  0  0  0  0  2  0  0  0  0  0  0
  -32.2090   -9.6990   21.3080 C   0  0  0  0  0  0  0  0  0  0  0  0
  -30.8930   -9.7600   20.9670 N   0  0  0  0  0  0  0  0  0  0  0  0
  -32.9560   -8.9080   20.7250 O   0  0  0  0  0  0  0  0  0  0  0  0
  -30.3010  -10.4140   21.4640 H   0  0  0  0  0  0  0  0  0  0  0  0
  -32.8450  -10.6470   22.4010 C   0  0  0  0  0  2  0  0  0  0  0  0
  -34.0240  -11.6530   21.9780 C   0  0  0  0  0  2  0  0  0  0  0  0
  -33.4220  -13.8340   20.8400 C   0  0  0  0  0  0  0  0  0  0  0  0
  -32.6690  -12.2910   19.2750 C   0  0  0  0  0  2  0  0  0  0  0  0
  -31.5370  -12.2150   18.3040 C   0  0  0  0  0  2  0  0  0  0  0  0
  -30.1980  -12.2620   19.0160 C   0  0  0  0  0  2  0  0  0  0  0  0
  -29.9790  -13.3840   20.0010 C   0  0  0  0  0  3  0  0  0  0  0  0
  -31.0600  -13.2630   21.0550 C   0  0  0  0  0  2  0  0  0  0  0  0
  -32.3640  -13.2200   20.3730 N   0  0  0  0  0  0  0  0  0  0  0  0
  -34.1510  -14.5770   20.1710 O   0  0  0  0  0  0  0  0  0  0  0  0
  -33.8160  -13.1480   21.9390 N   0  0  0  0  0  0  0  0  0  0  0  0
  -34.4890  -13.6650   22.4850 H   0  0  0  0  0  0  0  0  0  0  0  0
  -27.8190  -14.3170   21.0080 C   0  0  0  0  0  0  0  0  0  0  0  0
  -26.6140  -13.7560   21.3110 C   0  0  0  0  0  0  0  0  0  0  0  0
  -26.7350  -12.3630   21.0130 C   0  0  0  0  0  0  0  0  0  0  0  0
  -28.6250  -13.2890   20.5590 N   0  0  0  0  0  0  0  0  0  0  0  0
  -27.9730  -12.0910   20.6130 N   0  0  0  0  0  0  0  0  0  0  0  0
  -25.7290  -11.2920   21.0660 C   0  0  0  0  0  0  0  0  0  0  0  0
  -25.8580  -10.2020   21.9550 C   0  0  0  0  0  3  0  0  0  0  0  0
  -24.8750   -9.1880   22.0060 C   0  0  0  0  0  3  0  0  0  0  0  0
  -23.7410   -9.2610   21.1640 C   0  0  0  0  0  0  0  0  0  0  0  0
  -23.6230  -10.3340   20.2640 C   0  0  0  0  0  3  0  0  0  0  0  0
  -24.6060  -11.3360   20.2150 C   0  0  0  0  0  3  0  0  0  0  0  0
  -22.7510   -8.3110   21.1170 O   0  0  0  0  0  0  0  0  0  0  0  0
  -22.1440   -7.8460   22.2540 C   0  0  0  0  0  0  0  0  0  0  0  0
  -21.5580   -8.7190   23.1980 C   0  0  0  0  0  3  0  0  0  0  0  0
  -20.8830   -8.1940   24.3190 C   0  0  0  0  0  3  0  0  0  0  0  0
  -20.7850   -6.7980   24.4880 C   0  0  0  0  0  0  0  0  0  0  0  0
  -21.3590   -5.9290   23.5450 C   0  0  0  0  0  3  0  0  0  0  0  0
  -22.0310   -6.4500   22.4250 C   0  0  0  0  0  0  0  0  0  0  0  0
  -22.5650   -5.6070   21.5090 F   0  0  0  0  0  0  0  0  0  0  0  0
  -20.1370   -6.2910   25.5610 F   0  0  0  0  0  0  0  0  0  0  0  0
  -25.3820  -14.4760   21.7710 C   0  0  0  0  0  0  0  0  0  0  0  0
  -24.5610  -13.8250   22.5800 N   0  0  0  0  0  0  0  0  0  0  0  0
  -25.1710  -15.6450   21.4490 O   0  0  0  0  0  0  0  0  0  0  0  0
  -24.7280  -12.8590   22.8390 H   0  0  0  0  0  0  0  0  0  0  0  0
  -23.7380  -14.3000   22.9260 H   0  0  0  0  0  0  0  0  0  0  0  0
  -28.3080  -15.6180   21.0690 N   0  0  0  0  0  0  0  0  0  0  0  0
  -27.7380  -16.3810   21.4130 H   0  0  0  0  0  0  0  0  0  0  0  0
  -29.2900  -15.8380   20.9380 H   0  0  0  0  0  0  0  0  0  0  0  0
  -27.8140  -16.1630   17.6980 C   0  0  0  0  0  2  0  0  0  0  0  0
  -28.5280  -18.3410   18.7460 C   0  0  0  0  0  0  0  0  0  0  0  0
  -27.6940  -17.2740   18.6840 N   0  0  0  0  0  0  0  0  0  0  0  0
  -29.4310  -18.4990   17.9210 O   0  0  0  0  0  0  0  0  0  0  0  0
  -26.9530  -17.2190   19.3720 H   0  0  0  0  0  0  0  0  0  0  0  0
  -28.2790  -19.2550   19.8720 C   0  0  0  0  0  3  0  0  0  0  0  0
  -29.0920  -20.3100   20.1670 C   0  0  0  0  0  3  0  0  0  0  0  0
  -28.8950  -21.2680   21.3580 C   0  0  0  0  0  2  0  0  0  0  0  0
  -29.7140  -22.4680   21.3440 O   0  0  0  0  0  0  0  0  0  0  0  0
  -29.2780  -23.4450   22.3220 C   0  0  0  0  0  2  0  0  0  0  0  0
  -30.3220  -24.4840   22.9050 C   0  0  0  0  0  2  0  0  0  0  0  0
  -30.5980  -25.8030   22.3350 O   0  0  0  0  0  0  0  0  0  0  0  0
  -26.0900  -30.7970   24.9170 C   0  0  0  0  0  0  0  0  0  0  0  0
  -29.5140  -26.6420   22.1590 C   0  0  0  0  0  0  0  0  0  0  0  0
  -25.4010  -29.5990   22.8710 C   0  0  0  0  0  3  0  0  0  0  0  0
  -27.2140  -28.2310   21.7190 C   0  0  0  0  0  0  0  0  0  0  0  0
  -27.8870  -29.9170   23.4300 C   0  0  0  0  0  2  0  0  0  0  0  0
  -28.1620  -28.6310   22.6710 C   0  0  0  0  0  0  0  0  0  0  0  0
  -29.3200  -27.8400   22.8980 C   0  0  0  0  0  3  0  0  0  0  0  0
  -28.5940  -26.3240   21.1460 C   0  0  0  0  0  3  0  0  0  0  0  0
  -27.4340  -27.0850   20.9430 C   0  0  0  0  0  3  0  0  0  0  0  0
  -25.9940  -29.0970   21.5300 C   0  0  0  0  0  2  0  0  0  0  0  0
  -26.4600  -30.1180   23.7950 N   0  0  0  0  0  0  0  0  0  0  0  0
  -24.8970  -31.0180   25.1700 O   0  0  0  0  0  0  0  0  0  0  0  0
  -24.5430  -28.4730   23.4980 C   0  0  0  0  0  0  0  0  0  0  0  0
  -23.3520  -28.2350   22.9250 N   0  0  0  0  0  0  0  0  0  0  0  0
  -24.9600  -27.8250   24.4620 O   0  0  0  0  0  0  0  0  0  0  0  0
  -23.0780  -28.8200   22.1470 H   0  0  0  0  0  0  0  0  0  0  0  0
  -20.1530  -26.7570   22.1090 C   0  0  0  0  0  0  0  0  0  0  0  0
  -22.3890  -27.2070   23.3270 C   0  0  0  0  0  3  0  0  0  0  0  0
  -22.8240  -25.8100   22.8270 C   0  0  0  0  0  2  0  0  0  0  0  0
  -22.2150  -25.4360   21.4740 C   0  0  0  0  0  2  0  0  0  0  0  0
  -20.6860  -25.4480   21.5500 C   0  0  0  0  0  2  0  0  0  0  0  0
  -20.9570  -27.5920   22.9310 C   0  0  0  0  0  0  0  0  0  0  0  0
  -20.4220  -28.8130   23.3970 C   0  0  0  0  0  3  0  0  0  0  0  0
  -19.1130  -29.2020   23.0560 C   0  0  0  0  0  3  0  0  0  0  0  0
  -18.3170  -28.3670   22.2550 C   0  0  0  0  0  3  0  0  0  0  0  0
  -18.8340  -27.1460   21.7880 C   0  0  0  0  0  3  0  0  0  0  0  0
  -27.1500  -31.3470   25.9220 C   0  0  0  0  0  3  0  0  0  0  0  0
  -26.7590  -32.7190   26.2710 N   0  0  0  0  0  0  0  0  0  0  0  0
  -27.2850  -33.8240   25.7250 C   0  0  0  0  0  0  0  0  0  0  0  0
  -28.2180  -33.7920   24.9170 O   0  0  0  0  0  0  0  0  0  0  0  0
  -25.9690  -32.8200   26.8940 H   0  0  0  0  0  0  0  0  0  0  0  0
  -25.7240  -35.6770   25.0480 C   0  0  0  0  0  1  0  0  0  0  0  0
  -26.6830  -35.1800   26.1420 C   0  0  0  0  0  3  0  0  0  0  0  0
  -28.4890  -35.9470   27.6180 C   0  0  0  0  0  1  0  0  0  0  0  0
  -27.7010  -36.2170   26.4190 N   0  0  0  0  0  0  0  0  0  0  0  0
  -27.2640  -37.1280   26.5270 H   0  0  0  0  0  0  0  0  0  0  0  0
  -27.2960  -30.4630   27.2220 C   0  0  1  0  0  0  0  0  0  0  0  0
  -25.9510  -30.1560   27.9200 C   0  0  0  0  0  1  0  0  0  0  0  0
  -27.9740  -29.1120   26.8960 C   0  0  0  0  0  1  0  0  0  0  0  0
  -28.2110  -31.1790   28.2420 C   0  0  0  0  0  1  0  0  0  0  0  0
  2  1  1  0
  2  3  1  0
  4  3  1  0
  4  6  1  0
  5  9  1  0
  5  7  2  0
  6  5  1  0
  8  6  1  0
  9 11  1  0
 10 14  1  0
 11 10  1  0
 11 13  1  0
 12 10  2  0
 15 14  1  0
 16 24  1  0
 17 22  1  0
 18 19  1  0
 18 17  1  0
 20 19  1  0
 20 29  1  0
 20 21  1  0
 22 16  1  0
 22 21  1  0
 23 16  2  0
 24 15  1  0
 24 25  1  0
 26 51  1  0
 26 27  2  0
 27 46  1  0
 28 31  1  0
 28 27  1  0
 29 30  1  0
 29 26  1  0
 30 28  2  0
 31 32  1  0
 32 33  2  0
 34 33  1  0
 35 34  2  0
 36 35  1  0
 36 31  2  0
 37 34  1  0
 37 38  1  0
 38 43  2  0
 38 39  1  0
 39 40  2  0
 40 41  1  0
 41 45  1  0
 42 41  2  0
 43 42  1  0
 44 43  1  0
 46 47  1  0
 47 49  1  0
 47 50  1  0
 48 46  2  0
 51 52  1  0
 53 51  1  0
 54  1  1  0
 54 56  1  0
 55 59  1  0
 56 55  1  0
 56 58  1  0
 57 55  2  0
 59 60  2  0
 60 61  1  0
 62 61  1  0
 62 63  1  0
 63 64  1  0
 65 64  1  0
 66 77  2  0
 67 65  1  0
 67 72  1  0
 68 78  1  0
 68 76  1  0
 69 71  1  0
 70 76  1  0
 71 72  2  0
 71 70  1  0
 73 67  2  0
 74 73  1  0
 74 69  2  0
 75 69  1  0
 75 68  1  0
 76 66  1  0
 78 80  2  0
 79 78  1  0
 81 79  1  0
 82 87  1  0
 83 79  1  0
 84 83  1  0
 85 86  1  0
 85 84  1  0
 86 82  1  0
 87 83  1  0
 87 88  2  0
 89 88  1  0
 90 89  2  0
 91 82  2  0
 91 90  1  0
 92 66  1  0
 92 93  1  0
 92102  1  0
 93 96  1  0
 94 98  1  0
 94 93  1  0
 95 94  2  0
 98 97  1  0
 98100  1  0
100101  1  0
100 99  1  0
102103  1  1
102105  1  0
104102  1  0
M  ISO  4  16 100  24 100  64 101  65 101
M  END
>  <TORSDO>  (14) 
F 31

>  <SCORE>  (14) 
1.966

>  <name>  (14) 
14

>  <ligand_id>  (14) 
14

>  <original_smiles>  (14) 
[H]C(C(=O)N([H])C([H])([H])C([H])([H])C([H])([H])C([H])([H])C([H])([H])N([H])C(=O)C([H])([H])N([H])C(=O)C([H])([H])C([H])([H])N([H])C(=O)N1C([H])([H])C([H])([H])C([H])([H])C([H])(n2nc(-c3c([H])c([H])c(Oc4c([H])c([H])c(F)c([H])c4F)c([H])c3[H])c(C(=O)N([H])[H])c2N([H])[H])C1([H])[H])=C([H])C([H])([H])OC([H])([H])C([H])([H])Oc1c([H])c([H])c2c(c1[H])C([H])([H])N(C(=O)C([H])(N([H])C(=O)C([H])(N([H])C([H])([H])[H])C([H])([H])[H])C(C([H])([H])[H])(C([H])([H])[H])C([H])([H])[H])C([H])(C(=O)N([H])C1([H])c3c([H])c([H])c([H])c([H])c3C([H])([H])C([H])([H])C1([H])[H])C2([H])[H]

>  <smiles>  (14) 
[H]C(C(=O)N([H])C([H])([H])C([H])([H])C([H])([H])C([H])([H])C([H])([H])N([H])C(=O)C([H])([H])N([H])C(=O)C([H])([H])C([H])([H])N([H])C(=O)N1C([H])([H])C([H])([H])C([H])([H])C([H])(n2nc(-c3c([H])c([H])c(Oc4c([H])c([H])c(F)c([H])c4F)c([H])c3[H])c(C(=O)N([H])[H])c2N([H])[H])C1([H])[H])=C([H])C([H])([H])OC([H])([H])C([H])([H])Oc1c([H])c([H])c2c(c1[H])C([H])([H])N(C(=O)C([H])(N([H])C(=O)C([H])(N([H])C([H])([H])[H])C([H])([H])[H])C(C([H])([H])[H])(C([H])([H])[H])C([H])([H])[H])C([H])(C(=O)N([H])C1([H])c3c([H])c([H])c([H])c([H])c3C([H])([H])C([H])([H])C1([H])[H])C2([H])[H]

$$$$
15:0:0
     RDKit          3D

108115  0  0  1  0  0  0  0  0999 V2000
  -19.4010  -19.3470   22.6200 C   0  0  0  0  0  2  0  0  0  0  0  0
  -19.8580  -20.7620   23.0260 C   0  0  0  0  0  2  0  0  0  0  0  0
  -19.3530  -21.8690   22.0790 C   0  0  0  0  0  2  0  0  0  0  0  0
  -20.1090  -23.1910   22.2710 C   0  0  0  0  0  2  0  0  0  0  0  0
  -20.1980  -24.0470   20.9940 C   0  0  0  0  0  2  0  0  0  0  0  0
  -21.5840  -24.7000   20.8610 C   0  0  0  0  0  2  0  0  0  0  0  0
  -21.8030  -25.4940   19.5600 C   0  0  0  0  0  2  0  0  0  0  0  0
  -23.2510  -25.3590   19.0390 C   0  0  0  0  0  2  0  0  0  0  0  0
  -23.8800  -26.6560   18.6980 N   0  0  0  0  0  4  0  0  0  0  0  0
  -24.0880  -27.1330   19.5660 H   0  0  0  0  0  0  0  0  0  0  0  0
  -23.2190  -27.2190   18.1860 H   0  0  0  0  0  0  0  0  0  0  0  0
  -25.1200  -26.5310   17.8870 C   0  0  0  0  0  2  0  0  0  0  0  0
  -26.2900  -27.4370   18.3460 C   0  0  0  0  0  2  0  0  0  0  0  0
  -26.0550  -28.8270   18.1270 O   0  0  0  0  0  0  0  0  0  0  0  0
  -25.4760  -30.1710   25.1050 C   0  0  0  0  0  0  0  0  0  0  0  0
  -25.3870  -29.4510   19.1470 C   0  0  0  0  0  0  0  0  0  0  0  0
  -23.5300  -30.7820   23.7040 C   0  0  0  0  0  3  0  0  0  0  0  0
  -23.9150  -30.7230   21.1830 C   0  0  0  0  0  0  0  0  0  0  0  0
  -25.8840  -30.7670   22.7210 C   0  0  0  0  0  2  0  0  0  0  0  0
  -25.2610  -30.3920   21.3940 C   0  0  0  0  0  0  0  0  0  0  0  0
  -26.0040  -29.7430   20.3840 C   0  0  0  0  0  3  0  0  0  0  0  0
  -24.0440  -29.8200   18.9340 C   0  0  0  0  0  3  0  0  0  0  0  0
  -23.2980  -30.4360   19.9540 C   0  0  0  0  0  3  0  0  0  0  0  0
  -23.1910  -31.4020   22.3230 C   0  0  0  0  0  2  0  0  0  0  0  0
  -24.9960  -30.5300   23.8810 N   0  0  0  0  0  0  0  0  0  0  0  0
  -24.7270  -30.0890   26.0890 O   0  0  0  0  0  0  0  0  0  0  0  0
  -22.6660  -29.5160   23.8960 C   0  0  0  0  0  0  0  0  0  0  0  0
  -21.3520  -29.6510   23.6590 N   0  0  0  0  0  0  0  0  0  0  0  0
  -23.1810  -28.4440   24.2210 O   0  0  0  0  0  0  0  0  0  0  0  0
  -21.0090  -30.5650   23.4020 H   0  0  0  0  0  0  0  0  0  0  0  0
  -18.1470  -28.5710   22.3910 C   0  0  0  0  0  0  0  0  0  0  0  0
  -20.3480  -28.5940   23.7420 C   0  0  0  0  0  3  0  0  0  0  0  0
  -20.7600  -27.3650   22.8990 C   0  0  0  0  0  2  0  0  0  0  0  0
  -20.1910  -27.3840   21.4770 C   0  0  0  0  0  2  0  0  0  0  0  0
  -18.6610  -27.4360   21.5190 C   0  0  0  0  0  2  0  0  0  0  0  0
  -18.9470  -29.1240   23.4250 C   0  0  0  0  0  0  0  0  0  0  0  0
  -18.4380  -30.1960   24.1880 C   0  0  0  0  0  3  0  0  0  0  0  0
  -17.1530  -30.7130   23.9360 C   0  0  0  0  0  3  0  0  0  0  0  0
  -16.3550  -30.1470   22.9270 C   0  0  0  0  0  3  0  0  0  0  0  0
  -16.8510  -29.0790   22.1560 C   0  0  0  0  0  3  0  0  0  0  0  0
  -26.9900  -29.8700   25.3370 C   0  0  0  0  0  3  0  0  0  0  0  0
  -27.2850  -28.3390   25.5780 C   0  0  1  0  0  0  0  0  0  0  0  0
  -26.4330  -27.7140   26.7080 C   0  0  0  0  0  1  0  0  0  0  0  0
  -27.0250  -27.5310   24.2850 C   0  0  0  0  0  1  0  0  0  0  0  0
  -28.7790  -28.1410   25.9270 C   0  0  0  0  0  1  0  0  0  0  0  0
  -27.4330  -30.6740   26.4840 N   0  0  0  0  0  0  0  0  0  0  0  0
  -28.1880  -31.7790   26.3900 C   0  0  0  0  0  0  0  0  0  0  0  0
  -28.6510  -32.1850   25.3210 O   0  0  0  0  0  0  0  0  0  0  0  0
  -27.0410  -30.4310   27.3830 H   0  0  0  0  0  0  0  0  0  0  0  0
  -27.6230  -33.8330   27.7210 C   0  0  0  0  0  1  0  0  0  0  0  0
  -28.4770  -32.5550   27.6890 C   0  0  0  0  0  3  0  0  0  0  0  0
  -30.7600  -31.7350   28.0630 C   0  0  0  0  0  1  0  0  0  0  0  0
  -29.9040  -32.9010   27.8590 N   0  0  0  0  0  0  0  0  0  0  0  0
  -30.0310  -33.5300   28.6470 H   0  0  0  0  0  0  0  0  0  0  0  0
  -20.5540  -18.3390   22.4120 C   0  0  0  0  0  2  0  0  0  0  0  0
  -22.3580  -17.8820   20.7520 C   0  0  0  0  0  0  0  0  0  0  0  0
  -21.2710  -18.5510   21.1570 N   0  0  0  0  0  0  0  0  0  0  0  0
  -22.8700  -16.9740   21.4130 O   0  0  0  0  0  0  0  0  0  0  0  0
  -20.9190  -19.2760   20.5490 H   0  0  0  0  0  0  0  0  0  0  0  0
  -22.9590  -18.2970   19.4050 C   0  0  0  0  0  2  0  0  0  0  0  0
  -25.2620  -18.7970   18.6350 C   0  0  0  0  0  0  0  0  0  0  0  0
  -24.4030  -18.1010   19.3840 N   0  0  0  0  0  0  0  0  0  0  0  0
  -24.8950  -19.7050   17.8840 O   0  0  0  0  0  0  0  0  0  0  0  0
  -24.7620  -17.4010   20.0200 H   0  0  0  0  0  0  0  0  0  0  0  0
  -26.7430  -18.4290   18.7460 C   0  0  0  0  0  2  0  0  0  0  0  0
  -27.9010  -20.5000   19.5260 C   0  0  0  0  0  0  0  0  0  0  0  0
  -27.5730  -19.6200   18.5770 N   0  0  0  0  0  0  0  0  0  0  0  0
  -27.5200  -20.3920   20.6920 O   0  0  0  0  0  0  0  0  0  0  0  0
  -27.8900  -19.8180   17.6390 H   0  0  0  0  0  0  0  0  0  0  0  0
  -28.7940  -21.6800   19.1260 C   0  0  0  0  0  2  0  0  0  0  0  0
  -31.0740  -21.8050   19.9780 C   0  0  0  0  0  0  0  0  0  0  0  0
  -32.5870  -21.1860   21.8290 C   0  0  0  0  0  2  0  0  0  0  0  0
  -33.8310  -20.4490   21.2960 C   0  0  0  0  0  2  0  0  0  0  0  0
  -33.5590  -18.9400   21.1300 C   0  0  0  0  0  2  0  0  0  0  0  0
  -32.2400  -18.6560   20.3680 C   0  0  0  0  0  3  0  0  0  0  0  0
  -31.0910  -19.4860   20.9780 C   0  0  0  0  0  2  0  0  0  0  0  0
  -31.4630  -20.9090   20.9230 N   0  0  0  0  0  0  0  0  0  0  0  0
  -31.5380  -22.9470   19.8970 O   0  0  0  0  0  0  0  0  0  0  0  0
  -30.2220  -21.3550   19.0500 N   0  0  0  0  0  0  0  0  0  0  0  0
  -30.5540  -21.5810   18.1240 H   0  0  0  0  0  0  0  0  0  0  0  0
  -30.6920  -16.5970   20.3590 C   0  0  0  0  0  0  0  0  0  0  0  0
  -30.9550  -15.2550   20.2760 C   0  0  0  0  0  0  0  0  0  0  0  0
  -32.3770  -15.1380   20.2070 C   0  0  0  0  0  0  0  0  0  0  0  0
  -31.9250  -17.2290   20.3560 N   0  0  0  0  0  0  0  0  0  0  0  0
  -32.9430  -16.3320   20.3190 N   0  0  0  0  0  0  0  0  0  0  0  0
  -33.2290  -13.9610   19.9920 C   0  0  0  0  0  0  0  0  0  0  0  0
  -34.1240  -13.5090   20.9880 C   0  0  0  0  0  3  0  0  0  0  0  0
  -34.9220  -12.3660   20.7690 C   0  0  0  0  0  3  0  0  0  0  0  0
  -34.8300  -11.6560   19.5480 C   0  0  0  0  0  0  0  0  0  0  0  0
  -33.9570  -12.1240   18.5500 C   0  0  0  0  0  3  0  0  0  0  0  0
  -33.1680  -13.2690   18.7660 C   0  0  0  0  0  3  0  0  0  0  0  0
  -35.5910  -10.5520   19.2390 O   0  0  0  0  0  0  0  0  0  0  0  0
  -35.4820   -9.3810   19.9450 C   0  0  0  0  0  0  0  0  0  0  0  0
  -34.5310   -9.2210   20.9790 C   0  0  0  0  0  3  0  0  0  0  0  0
  -34.4040   -7.9790   21.6310 C   0  0  0  0  0  3  0  0  0  0  0  0
  -35.2120   -6.8930   21.2440 C   0  0  0  0  0  0  0  0  0  0  0  0
  -36.1510   -7.0460   20.2100 C   0  0  0  0  0  3  0  0  0  0  0  0
  -36.2850   -8.2870   19.5630 C   0  0  0  0  0  0  0  0  0  0  0  0
  -37.1770   -8.4260   18.5520 F   0  0  0  0  0  0  0  0  0  0  0  0
  -35.0840   -5.6960   21.8640 F   0  0  0  0  0  0  0  0  0  0  0  0
  -29.9490  -14.1480   20.1610 C   0  0  0  0  0  0  0  0  0  0  0  0
  -30.2960  -12.9620   20.6500 N   0  0  0  0  0  0  0  0  0  0  0  0
  -28.8340  -14.3400   19.6790 O   0  0  0  0  0  0  0  0  0  0  0  0
  -31.2090  -12.8170   21.0510 H   0  0  0  0  0  0  0  0  0  0  0  0
  -29.6570  -12.1820   20.5980 H   0  0  0  0  0  0  0  0  0  0  0  0
  -29.5120  -17.3320   20.4180 N   0  0  0  0  0  0  0  0  0  0  0  0
  -28.6030  -16.8930   20.3520 H   0  0  0  0  0  0  0  0  0  0  0  0
  -29.4590  -18.3410   20.4200 H   0  0  0  0  0  0  0  0  0  0  0  0
  1  2  1  0
  3  4  1  0
  3  2  1  0
  5  4  1  0
  6  5  1  0
  7  6  1  0
  8  7  1  0
  9  8  1  0
  9 10  1  0
 11  9  1  0
 12 13  1  0
 12  9  1  0
 14 13  1  0
 14 16  1  0
 15 26  2  0
 16 21  1  0
 17 25  1  0
 17 27  1  0
 18 20  1  0
 18 24  1  0
 19 25  1  0
 20 19  1  0
 21 20  2  0
 22 16  2  0
 22 23  1  0
 23 18  2  0
 24 17  1  0
 25 15  1  0
 27 29  2  0
 28 27  1  0
 30 28  1  0
 31 36  1  0
 32 28  1  0
 33 32  1  0
 34 35  1  0
 34 33  1  0
 35 31  1  0
 36 32  1  0
 36 37  2  0
 38 37  1  0
 39 38  2  0
 40 31  2  0
 40 39  1  0
 41 15  1  0
 41 42  1  0
 41 46  1  0
 42 45  1  1
 42 43  1  0
 44 42  1  0
 46 49  1  0
 47 46  1  0
 47 51  1  0
 48 47  2  0
 51 50  1  0
 51 53  1  0
 53 52  1  0
 53 54  1  0
 55  1  1  0
 56 57  1  0
 56 58  2  0
 57 55  1  0
 59 57  1  0
 60 56  1  0
 61 65  1  0
 61 62  1  0
 62 60  1  0
 62 64  1  0
 63 61  2  0
 66 68  2  0
 67 65  1  0
 67 66  1  0
 69 67  1  0
 70 66  1  0
 71 77  1  0
 73 72  1  0
 74 73  1  0
 75 84  1  0
 75 76  1  0
 75 74  1  0
 77 76  1  0
 77 72  1  0
 78 71  2  0
 79 70  1  0
 79 71  1  0
 80 79  1  0
 81106  1  0
 82 81  2  0
 83 82  1  0
 83 85  2  0
 84 81  1  0
 85 84  1  0
 86 83  1  0
 86 87  1  0
 88 87  2  0
 89 88  1  0
 90 91  1  0
 90 89  2  0
 91 86  2  0
 92 89  1  0
 92 93  1  0
 93 94  1  0
 94 95  2  0
 96 95  1  0
 96100  1  0
 97 96  2  0
 98 93  2  0
 98 97  1  0
 99 98  1  0
101 82  1  0
101102  1  0
102104  1  0
103101  2  0
105102  1  0
106108  1  0
107106  1  0
M  ISO  4  13 101  14 101  71 100  79 100
M  END
>  <TORSDO>  (15) 
F 33

>  <SCORE>  (15) 
16.221

>  <name>  (15) 
15

>  <ligand_id>  (15) 
15

>  <original_smiles>  (15) 
[H]c1c([H])c([H])c2c(c1[H])C([H])([H])C([H])([H])C([H])([H])C2([H])N([H])C(=O)C1([H])N(C(=O)C([H])(N([H])C(=O)C([H])(N([H])C([H])([H])[H])C([H])([H])[H])C(C([H])([H])[H])(C([H])([H])[H])C([H])([H])[H])C([H])([H])c2c([H])c(OC([H])([H])C([H])([H])[N+]([H])([H])C([H])([H])C([H])([H])C([H])([H])C([H])([H])C([H])([H])C([H])([H])C([H])([H])C([H])([H])C([H])([H])N([H])C(=O)C([H])([H])N([H])C(=O)C([H])([H])N([H])C(=O)C([H])([H])N([H])C(=O)N3C([H])([H])C([H])([H])C([H])([H])C([H])(n4nc(-c5c([H])c([H])c(Oc6c([H])c([H])c(F)c([H])c6F)c([H])c5[H])c(C(=O)N([H])[H])c4N([H])[H])C3([H])[H])c([H])c([H])c2C1([H])[H]

>  <smiles>  (15) 
[H]c1c([H])c([H])c2c(c1[H])C([H])([H])C([H])([H])C([H])([H])C2([H])N([H])C(=O)C1([H])N(C(=O)C([H])(N([H])C(=O)C([H])(N([H])C([H])([H])[H])C([H])([H])[H])C(C([H])([H])[H])(C([H])([H])[H])C([H])([H])[H])C([H])([H])c2c([H])c(OC([H])([H])C([H])([H])[N+]([H])([H])C([H])([H])C([H])([H])C([H])([H])C([H])([H])C([H])([H])C([H])([H])C([H])([H])C([H])([H])C([H])([H])N([H])C(=O)C([H])([H])N([H])C(=O)C([H])([H])N([H])C(=O)C([H])([H])N([H])C(=O)N3C([H])([H])C([H])([H])C([H])([H])C([H])(n4nc(-c5c([H])c([H])c(Oc6c([H])c([H])c(F)c([H])c6F)c([H])c5[H])c(C(=O)N([H])[H])c4N([H])[H])C3([H])[H])c([H])c([H])c2C1([H])[H]

$$$$
18:0:0
     RDKit          3D

108115  0  0  1  0  0  0  0  0999 V2000
  -29.1170  -22.0300   31.1800 C   0  0  0  0  0  2  0  0  0  0  0  0
  -29.4860  -22.3430   29.7820 N   0  0  0  0  0  4  0  0  0  0  0  0
  -30.4350  -22.6770   29.7150 H   0  0  0  0  0  0  0  0  0  0  0  0
  -29.4270  -21.5100   29.2130 H   0  0  0  0  0  0  0  0  0  0  0  0
  -28.5880  -23.2700   29.0720 C   0  0  0  0  0  2  0  0  0  0  0  0
  -28.5060  -22.8000   27.6250 C   0  0  0  0  0  0  0  0  0  0  0  0
  -28.1000  -23.6680   26.6980 N   0  0  0  0  0  0  0  0  0  0  0  0
  -28.8120  -21.6390   27.3510 O   0  0  0  0  0  0  0  0  0  0  0  0
  -27.8330  -24.6010   26.9860 H   0  0  0  0  0  0  0  0  0  0  0  0
  -28.0260  -23.3550   25.2790 C   0  0  0  0  0  2  0  0  0  0  0  0
  -28.0800  -24.6450   24.4660 C   0  0  0  0  0  2  0  0  0  0  0  0
  -28.1420  -24.3780   22.9620 C   0  0  0  0  0  2  0  0  0  0  0  0
  -28.2610  -25.6950   22.1930 C   0  0  0  0  0  2  0  0  0  0  0  0
  -28.3750  -25.5060   20.6750 C   0  0  0  0  0  2  0  0  0  0  0  0
  -28.4180  -26.7780   20.0380 O   0  0  0  0  0  0  0  0  0  0  0  0
  -24.6080  -31.8720   23.2130 C   0  0  0  0  0  0  0  0  0  0  0  0
  -27.2420  -27.4830   20.0630 C   0  0  0  0  0  0  0  0  0  0  0  0
  -23.3970  -30.4930   21.5530 C   0  0  0  0  0  3  0  0  0  0  0  0
  -24.8470  -28.9630   20.1160 C   0  0  0  0  0  0  0  0  0  0  0  0
  -25.9270  -30.8420   21.3690 C   0  0  0  0  0  2  0  0  0  0  0  0
  -26.0060  -29.4850   20.7090 C   0  0  0  0  0  0  0  0  0  0  0  0
  -27.2100  -28.7510   20.6760 C   0  0  0  0  0  3  0  0  0  0  0  0
  -26.0700  -26.9590   19.4770 C   0  0  0  0  0  3  0  0  0  0  0  0
  -24.8730  -27.6980   19.5020 C   0  0  0  0  0  3  0  0  0  0  0  0
  -23.6060  -29.8220   20.1700 C   0  0  0  0  0  2  0  0  0  0  0  0
  -24.6630  -31.0810   22.1040 N   0  0  0  0  0  0  0  0  0  0  0  0
  -23.5270  -32.1480   23.7510 O   0  0  0  0  0  0  0  0  0  0  0  0
  -22.7410  -29.4650   22.5020 C   0  0  0  0  0  0  0  0  0  0  0  0
  -21.4150  -29.2970   22.3760 N   0  0  0  0  0  0  0  0  0  0  0  0
  -23.4230  -28.8170   23.3000 O   0  0  0  0  0  0  0  0  0  0  0  0
  -20.9310  -29.8730   21.7030 H   0  0  0  0  0  0  0  0  0  0  0  0
  -18.0260  -28.1390   22.8470 C   0  0  0  0  0  0  0  0  0  0  0  0
  -20.5860  -28.3630   23.1350 C   0  0  0  0  0  3  0  0  0  0  0  0
  -20.6780  -26.9370   22.5420 C   0  0  0  0  0  2  0  0  0  0  0  0
  -19.5750  -26.6390   21.5220 C   0  0  0  0  0  2  0  0  0  0  0  0
  -18.1910  -26.7930   22.1620 C   0  0  0  0  0  2  0  0  0  0  0  0
  -19.1520  -28.8820   23.2900 C   0  0  0  0  0  0  0  0  0  0  0  0
  -18.9440  -30.1430   23.8900 C   0  0  0  0  0  3  0  0  0  0  0  0
  -17.6450  -30.6560   24.0550 C   0  0  0  0  0  3  0  0  0  0  0  0
  -16.5340  -29.9070   23.6340 C   0  0  0  0  0  3  0  0  0  0  0  0
  -16.7270  -28.6510   23.0310 C   0  0  0  0  0  3  0  0  0  0  0  0
  -25.8950  -32.4890   23.8450 C   0  0  0  0  0  3  0  0  0  0  0  0
  -26.4390  -31.6690   25.0790 C   0  0  1  0  0  0  0  0  0  0  0  0
  -25.3630  -31.3780   26.1540 C   0  0  0  0  0  1  0  0  0  0  0  0
  -27.0300  -30.3170   24.6150 C   0  0  0  0  0  1  0  0  0  0  0  0
  -27.5970  -32.4440   25.7510 C   0  0  0  0  0  1  0  0  0  0  0  0
  -25.5780  -33.8690   24.2340 N   0  0  0  0  0  0  0  0  0  0  0  0
  -25.9030  -34.9540   23.5170 C   0  0  0  0  0  0  0  0  0  0  0  0
  -26.5620  -34.8960   22.4730 O   0  0  0  0  0  0  0  0  0  0  0  0
  -24.9880  -33.9840   25.0450 H   0  0  0  0  0  0  0  0  0  0  0  0
  -24.1470  -36.7320   23.2660 C   0  0  0  0  0  1  0  0  0  0  0  0
  -25.4100  -36.3160   24.0360 C   0  0  0  0  0  3  0  0  0  0  0  0
  -27.5590  -37.1830   24.8460 C   0  0  0  0  0  1  0  0  0  0  0  0
  -26.4320  -37.3830   23.9390 N   0  0  0  0  0  0  0  0  0  0  0  0
  -26.0250  -38.2920   24.1440 H   0  0  0  0  0  0  0  0  0  0  0  0
  -29.6720  -20.6710   31.6610 C   0  0  0  0  0  2  0  0  0  0  0  0
  -28.9230  -19.4270   31.1340 C   0  0  0  0  0  2  0  0  0  0  0  0
  -29.2150  -19.0580   29.6650 C   0  0  0  0  0  2  0  0  0  0  0  0
  -28.5920  -17.7100   29.2570 C   0  0  0  0  0  2  0  0  0  0  0  0
  -28.6470  -17.4120   27.7440 C   0  0  0  0  0  2  0  0  0  0  0  0
  -30.8020  -16.4610   26.9110 C   0  0  0  0  0  0  0  0  0  0  0  0
  -29.9980  -17.4920   27.1920 N   0  0  0  0  0  0  0  0  0  0  0  0
  -30.5250  -15.2910   27.1880 O   0  0  0  0  0  0  0  0  0  0  0  0
  -30.3180  -18.4050   26.8940 H   0  0  0  0  0  0  0  0  0  0  0  0
  -32.1190  -16.7960   26.1950 C   0  0  0  0  0  2  0  0  0  0  0  0
  -31.6710  -15.9520   23.8950 C   0  0  0  0  0  0  0  0  0  0  0  0
  -32.3540  -15.9240   25.0450 N   0  0  0  0  0  0  0  0  0  0  0  0
  -30.7510  -16.7410   23.6790 O   0  0  0  0  0  0  0  0  0  0  0  0
  -33.0710  -15.2200   25.1520 H   0  0  0  0  0  0  0  0  0  0  0  0
  -32.1100  -14.9650   22.8200 C   0  0  0  0  0  2  0  0  0  0  0  0
  -30.8900  -14.2110   20.7910 C   0  0  0  0  0  0  0  0  0  0  0  0
  -30.4020  -12.2810   19.3570 C   0  0  0  0  0  2  0  0  0  0  0  0
  -29.4640  -12.5460   18.1730 C   0  0  0  0  0  2  0  0  0  0  0  0
  -28.0010  -12.3800   18.6090 C   0  0  0  0  0  2  0  0  0  0  0  0
  -27.6690  -13.2070   19.8770 C   0  0  0  0  0  3  0  0  0  0  0  0
  -28.7120  -12.9800   20.9970 C   0  0  0  0  0  2  0  0  0  0  0  0
  -30.0670  -13.1950   20.4560 N   0  0  0  0  0  0  0  0  0  0  0  0
  -31.7330  -14.6980   20.0290 O   0  0  0  0  0  0  0  0  0  0  0  0
  -30.9660  -14.3910   22.1120 N   0  0  0  0  0  0  0  0  0  0  0  0
  -30.2750  -13.9230   22.6770 H   0  0  0  0  0  0  0  0  0  0  0  0
  -25.2620  -13.8180   20.5690 C   0  0  0  0  0  0  0  0  0  0  0  0
  -24.1860  -13.0440   20.9160 C   0  0  0  0  0  0  0  0  0  0  0  0
  -24.6410  -11.6910   20.8730 C   0  0  0  0  0  0  0  0  0  0  0  0
  -26.3070  -12.9350   20.3420 N   0  0  0  0  0  0  0  0  0  0  0  0
  -25.9350  -11.6500   20.5780 N   0  0  0  0  0  0  0  0  0  0  0  0
  -23.9070  -10.4290   21.0400 C   0  0  0  0  0  0  0  0  0  0  0  0
  -24.3620   -9.4220   21.9180 C   0  0  0  0  0  3  0  0  0  0  0  0
  -23.6290   -8.2260   22.0760 C   0  0  0  0  0  3  0  0  0  0  0  0
  -22.4280   -8.0280   21.3540 C   0  0  0  0  0  0  0  0  0  0  0  0
  -21.9920   -9.0260   20.4650 C   0  0  0  0  0  3  0  0  0  0  0  0
  -22.7240  -10.2130   20.3050 C   0  0  0  0  0  3  0  0  0  0  0  0
  -21.6640   -6.8880   21.4240 O   0  0  0  0  0  0  0  0  0  0  0  0
  -21.6850   -6.0730   22.5280 C   0  0  0  0  0  0  0  0  0  0  0  0
  -21.4020   -6.5640   23.8210 C   0  0  0  0  0  3  0  0  0  0  0  0
  -21.3660   -5.6790   24.9170 C   0  0  0  0  0  3  0  0  0  0  0  0
  -21.6050   -4.3060   24.7230 C   0  0  0  0  0  0  0  0  0  0  0  0
  -21.8810   -3.8150   23.4350 C   0  0  0  0  0  3  0  0  0  0  0  0
  -21.9200   -4.6960   22.3410 C   0  0  0  0  0  0  0  0  0  0  0  0
  -22.1660   -4.2150   21.0980 F   0  0  0  0  0  0  0  0  0  0  0  0
  -21.5620   -3.4540   25.7740 F   0  0  0  0  0  0  0  0  0  0  0  0
  -22.7880  -13.5240   21.1830 C   0  0  0  0  0  0  0  0  0  0  0  0
  -22.0520  -12.8230   22.0360 N   0  0  0  0  0  0  0  0  0  0  0  0
  -22.3570  -14.5550   20.6680 O   0  0  0  0  0  0  0  0  0  0  0  0
  -22.4110  -11.9870   22.4730 H   0  0  0  0  0  0  0  0  0  0  0  0
  -21.1140  -13.1260   22.2570 H   0  0  0  0  0  0  0  0  0  0  0  0
  -25.4340  -15.1880   20.4100 N   0  0  0  0  0  0  0  0  0  0  0  0
  -24.6700  -15.8480   20.5230 H   0  0  0  0  0  0  0  0  0  0  0  0
  -26.2970  -15.6290   20.1130 H   0  0  0  0  0  0  0  0  0  0  0  0
  1 56  1  0
  2  1  1  0
  3  2  1  0
  4  2  1  0
  5  2  1  0
  6  5  1  0
  7  9  1  0
  7  6  1  0
  8  6  2  0
 10  7  1  0
 11 10  1  0
 12 11  1  0
 13 12  1  0
 14 13  1  0
 15 17  1  0
 15 14  1  0
 16 27  2  0
 17 22  1  0
 18 26  1  0
 18 28  1  0
 19 25  1  0
 19 21  1  0
 20 26  1  0
 21 20  1  0
 22 21  2  0
 23 24  1  0
 23 17  2  0
 24 19  2  0
 25 18  1  0
 26 16  1  0
 28 30  2  0
 29 28  1  0
 31 29  1  0
 32 41  2  0
 32 37  1  0
 33 29  1  0
 33 37  1  0
 34 33  1  0
 35 36  1  0
 35 34  1  0
 36 32  1  0
 37 38  2  0
 38 39  1  0
 40 39  2  0
 41 40  1  0
 42 16  1  0
 42 47  1  0
 42 43  1  0
 43 46  1  1
 43 44  1  0
 45 43  1  0
 47 50  1  0
 48 52  1  0
 48 47  1  0
 49 48  2  0
 52 51  1  0
 54 52  1  0
 54 55  1  0
 54 53  1  0
 57 56  1  0
 58 57  1  0
 59 58  1  0
 60 59  1  0
 61 63  2  0
 61 62  1  0
 62 60  1  0
 64 62  1  0
 65 61  1  0
 66 67  1  0
 67 69  1  0
 67 65  1  0
 68 66  2  0
 70 66  1  0
 71 79  1  0
 72 77  1  0
 73 74  1  0
 73 72  1  0
 75 74  1  0
 75 84  1  0
 75 76  1  0
 77 71  1  0
 77 76  1  0
 78 71  2  0
 79 80  1  0
 79 70  1  0
 81 82  2  0
 82101  1  0
 83 82  1  0
 83 86  1  0
 84 81  1  0
 84 85  1  0
 85 83  2  0
 86 87  1  0
 87 88  2  0
 89 92  1  0
 89 88  1  0
 90 89  2  0
 91 90  1  0
 91 86  2  0
 92 93  1  0
 93 94  1  0
 94 95  2  0
 96 95  1  0
 96100  1  0
 97 96  2  0
 98 93  2  0
 98 97  1  0
 99 98  1  0
101102  1  0
102105  1  0
102104  1  0
103101  2  0
106107  1  0
106 81  1  0
108106  1  0
M  ISO  4  14 101  15 101  71 100  79 100
M  END
>  <TORSDO>  (16) 
F 33

>  <SCORE>  (16) 
69.279

>  <name>  (16) 
18

>  <ligand_id>  (16) 
18

>  <original_smiles>  (16) 
[H]c1c([H])c([H])c2c(c1[H])C([H])([H])C([H])([H])C([H])([H])C2([H])N([H])C(=O)C1([H])N(C(=O)C([H])(N([H])C(=O)C([H])(N([H])C([H])([H])[H])C([H])([H])[H])C(C([H])([H])[H])(C([H])([H])[H])C([H])([H])[H])C([H])([H])c2c([H])c(OC([H])([H])C([H])([H])C([H])([H])C([H])([H])C([H])([H])N([H])C(=O)C([H])([H])[N+]([H])([H])C([H])([H])C([H])([H])C([H])([H])C([H])([H])C([H])([H])C([H])([H])N([H])C(=O)C([H])([H])N([H])C(=O)C([H])([H])N([H])C(=O)N3C([H])([H])C([H])([H])C([H])([H])C([H])(n4nc(-c5c([H])c([H])c(Oc6c([H])c([H])c(F)c([H])c6F)c([H])c5[H])c(C(=O)N([H])[H])c4N([H])[H])C3([H])[H])c([H])c([H])c2C1([H])[H]

>  <smiles>  (16) 
[H]c1c([H])c([H])c2c(c1[H])C([H])([H])C([H])([H])C([H])([H])C2([H])N([H])C(=O)C1([H])N(C(=O)C([H])(N([H])C(=O)C([H])(N([H])C([H])([H])[H])C([H])([H])[H])C(C([H])([H])[H])(C([H])([H])[H])C([H])([H])[H])C([H])([H])c2c([H])c(OC([H])([H])C([H])([H])C([H])([H])C([H])([H])C([H])([H])N([H])C(=O)C([H])([H])[N+]([H])([H])C([H])([H])C([H])([H])C([H])([H])C([H])([H])C([H])([H])C([H])([H])N([H])C(=O)C([H])([H])N([H])C(=O)C([H])([H])N([H])C(=O)N3C([H])([H])C([H])([H])C([H])([H])C([H])(n4nc(-c5c([H])c([H])c(Oc6c([H])c([H])c(F)c([H])c6F)c([H])c5[H])c(C(=O)N([H])[H])c4N([H])[H])C3([H])[H])c([H])c([H])c2C1([H])[H]

$$$$
19:0:0
     RDKit          3D

108114  0  0  1  0  0  0  0  0999 V2000
  -18.5340  -29.4840   24.5590 C   0  0  0  0  0  1  0  0  0  0  0  0
  -16.2290  -29.7170   22.1280 C   0  0  0  0  0  1  0  0  0  0  0  0
  -16.1430  -28.3890   19.1460 C   0  0  0  0  0  0  0  0  0  0  0  0
  -16.5000  -29.1720   20.4210 N   0  0  0  0  0  0  0  0  0  0  0  0
  -14.9490  -28.1000   19.0500 O   0  0  0  0  0  0  0  0  0  0  0  0
  -17.5000  -29.2670   20.2980 H   0  0  0  0  0  0  0  0  0  0  0  0
  -17.1400  -27.7060   17.7360 C   0  0  0  0  0  2  0  0  0  0  0  0
  -17.7930  -26.2770   15.0490 C   0  0  0  0  0  0  0  0  0  0  0  0
  -16.9960  -26.6990   16.2980 N   0  0  0  0  0  0  0  0  0  0  0  0
  -18.9360  -26.7320   15.0590 O   0  0  0  0  0  0  0  0  0  0  0  0
  -16.0630  -26.3100   16.2460 H   0  0  0  0  0  0  0  0  0  0  0  0
  -17.4970  -25.2840   13.5190 C   0  0  0  0  0  2  0  0  0  0  0  0
  -17.9320  -24.3140   10.5990 C   0  0  0  0  0  0  0  0  0  0  0  0
  -18.2720  -24.8990   11.9830 N   0  0  0  0  0  0  0  0  0  0  0  0
  -16.7470  -23.9860   10.5240 O   0  0  0  0  0  0  0  0  0  0  0  0
  -19.2600  -25.1200   12.0420 H   0  0  0  0  0  0  0  0  0  0  0  0
  -18.7980  -23.9930    8.9990 C   0  0  0  0  0  2  0  0  0  0  0  0
  -18.9260  -23.0430    5.9640 C   0  0  0  0  0  0  0  0  0  0  0  0
  -18.0010  -22.7720    3.4990 C   0  0  0  0  0  2  0  0  0  0  0  0
  -16.8030  -23.7420    3.3020 C   0  0  0  0  0  2  0  0  0  0  0  0
  -15.5280  -23.1700    3.9590 C   0  0  0  0  0  2  0  0  0  0  0  0
  -15.8420  -22.5420    5.3370 C   0  0  0  0  0  3  0  0  0  0  0  0
  -17.0070  -21.5570    5.2760 C   0  0  0  0  0  2  0  0  0  0  0  0
  -18.1120  -22.4280    4.9730 N   0  0  0  0  0  0  0  0  0  0  0  0
  -19.9970  -23.4030    5.4110 O   0  0  0  0  0  0  0  0  0  0  0  0
  -18.4450  -23.3200    7.4130 N   0  0  0  0  0  0  0  0  0  0  0  0
  -17.5300  -22.9000    7.4980 H   0  0  0  0  0  0  0  0  0  0  0  0
  -14.3480  -22.0670    7.3080 C   0  0  0  0  0  0  0  0  0  0  0  0
  -13.2180  -21.3170    7.4360 C   0  0  0  0  0  0  0  0  0  0  0  0
  -12.9930  -20.7240    6.1550 C   0  0  0  0  0  0  0  0  0  0  0  0
  -14.7290  -21.9220    5.9910 N   0  0  0  0  0  0  0  0  0  0  0  0
  -13.9620  -21.0440    5.3130 N   0  0  0  0  0  0  0  0  0  0  0  0
  -11.8720  -19.9300    5.6570 C   0  0  0  0  0  0  0  0  0  0  0  0
  -12.0720  -18.6650    5.0630 C   0  0  0  0  0  3  0  0  0  0  0  0
  -10.9710  -17.9140    4.6030 C   0  0  0  0  0  3  0  0  0  0  0  0
   -9.6590  -18.4280    4.7340 C   0  0  0  0  0  0  0  0  0  0  0  0
   -9.4710  -19.7020    5.2990 C   0  0  0  0  0  3  0  0  0  0  0  0
  -10.5670  -20.4500    5.7540 C   0  0  0  0  0  3  0  0  0  0  0  0
   -8.5310  -17.7790    4.2970 O   0  0  0  0  0  0  0  0  0  0  0  0
   -8.4620  -16.4100    4.2520 C   0  0  0  0  0  0  0  0  0  0  0  0
   -8.7010  -15.6140    5.3950 C   0  0  0  0  0  3  0  0  0  0  0  0
   -8.5520  -14.2150    5.3190 C   0  0  0  0  0  3  0  0  0  0  0  0
   -8.1530  -13.6120    4.1100 C   0  0  0  0  0  0  0  0  0  0  0  0
   -7.9110  -14.4040    2.9750 C   0  0  0  0  0  3  0  0  0  0  0  0
   -8.0630  -15.7990    3.0470 C   0  0  0  0  0  0  0  0  0  0  0  0
   -7.8080  -16.5620    1.9550 F   0  0  0  0  0  0  0  0  0  0  0  0
   -8.0010  -12.2700    4.0400 F   0  0  0  0  0  0  0  0  0  0  0  0
  -12.3280  -21.2560    8.6400 C   0  0  0  0  0  0  0  0  0  0  0  0
  -11.6610  -20.1280    8.8470 N   0  0  0  0  0  0  0  0  0  0  0  0
  -12.2570  -22.2010    9.4260 O   0  0  0  0  0  0  0  0  0  0  0  0
  -11.7360  -19.3520    8.2060 H   0  0  0  0  0  0  0  0  0  0  0  0
  -11.0610  -20.0400    9.6550 H   0  0  0  0  0  0  0  0  0  0  0  0
  -15.0640  -22.8880    8.1750 N   0  0  0  0  0  0  0  0  0  0  0  0
  -14.6950  -23.0800    9.1000 H   0  0  0  0  0  0  0  0  0  0  0  0
  -15.5560  -23.6950    7.8150 H   0  0  0  0  0  0  0  0  0  0  0  0
  -20.3370  -29.5110   24.2450 C   0  0  0  0  0  3  0  0  0  0  0  0
  -21.4240  -29.7810   22.8730 C   0  0  0  0  0  3  0  0  0  0  0  0
  -23.1780  -29.6430   22.6570 C   0  0  0  0  0  2  0  0  0  0  0  0
  -24.3100  -29.8930   21.2800 C   0  0  0  0  0  2  0  0  0  0  0  0
  -25.7170  -29.0810   20.4080 C   0  0  0  0  0  2  0  0  0  0  0  0
  -26.1430  -28.1190   18.8470 C   0  0  0  0  0  2  0  0  0  0  0  0
  -26.2140  -26.4140   18.0780 C   0  0  0  0  0  2  0  0  0  0  0  0
  -27.0110  -23.5480   17.9910 C   0  0  0  0  0  0  0  0  0  0  0  0
  -26.3820  -24.7850   18.4680 N   0  0  0  0  0  0  0  0  0  0  0  0
  -27.7710  -23.6970   17.0320 O   0  0  0  0  0  0  0  0  0  0  0  0
  -25.7150  -24.5520   19.1910 H   0  0  0  0  0  0  0  0  0  0  0  0
  -26.7870  -21.8710   18.3810 C   0  0  0  0  0  2  0  0  0  0  0  0
  -27.7940  -20.5840   18.5120 O   0  0  0  0  0  0  0  0  0  0  0  0
  -32.4200  -23.7910   16.1860 C   0  0  0  0  0  0  0  0  0  0  0  0
  -29.0150  -20.7060   19.1930 C   0  0  0  0  0  0  0  0  0  0  0  0
  -33.3950  -22.4850   18.0050 C   0  0  0  0  0  3  0  0  0  0  0  0
  -31.7110  -21.4280   19.5510 C   0  0  0  0  0  0  0  0  0  0  0  0
  -31.1700  -23.5370   18.3090 C   0  0  0  0  0  2  0  0  0  0  0  0
  -30.7780  -22.2710   18.9880 C   0  0  0  0  0  0  0  0  0  0  0  0
  -29.4650  -21.9780   19.0070 C   0  0  0  0  0  3  0  0  0  0  0  0
  -29.9160  -19.7910   19.8620 C   0  0  0  0  0  3  0  0  0  0  0  0
  -31.2770  -20.1930   20.0940 C   0  0  0  0  0  3  0  0  0  0  0  0
  -33.1140  -21.9800   19.4540 C   0  0  0  0  0  2  0  0  0  0  0  0
  -32.2880  -23.2760   17.4200 N   0  0  0  0  0  0  0  0  0  0  0  0
  -33.5320  -23.8980   15.6820 O   0  0  0  0  0  0  0  0  0  0  0  0
  -33.6830  -21.2550   17.1500 C   0  0  0  0  0  0  0  0  0  0  0  0
  -34.8540  -20.7380   17.3230 N   0  0  0  0  0  0  0  0  0  0  0  0
  -32.8860  -20.7240   16.3930 O   0  0  0  0  0  0  0  0  0  0  0  0
  -35.5150  -21.2820   17.8630 H   0  0  0  0  0  0  0  0  0  0  0  0
  -38.0630  -19.0720   16.5580 C   0  0  0  0  0  0  0  0  0  0  0  0
  -35.4260  -19.7290   16.4770 C   0  0  0  0  0  3  0  0  0  0  0  0
  -35.2960  -18.2690   16.9380 C   0  0  0  0  0  2  0  0  0  0  0  0
  -36.4750  -17.3910   17.4950 C   0  0  0  0  0  2  0  0  0  0  0  0
  -37.9260  -17.7850   17.3190 C   0  0  0  0  0  2  0  0  0  0  0  0
  -36.7660  -20.1510   16.4510 C   0  0  0  0  0  0  0  0  0  0  0  0
  -37.0970  -21.8250   16.6900 C   0  0  0  0  0  3  0  0  0  0  0  0
  -38.6700  -22.2620   16.9230 C   0  0  0  0  0  3  0  0  0  0  0  0
  -39.8370  -21.1700   16.9600 C   0  0  0  0  0  3  0  0  0  0  0  0
  -39.5510  -19.6380   16.7690 C   0  0  0  0  0  3  0  0  0  0  0  0
  -31.2210  -24.2770   15.3960 C   0  0  0  0  0  3  0  0  0  0  0  0
  -30.7080  -23.0430   14.2750 C   0  0  1  0  0  0  0  0  0  0  0  0
  -31.8010  -22.3360   13.4530 C   0  0  0  0  0  1  0  0  0  0  0  0
  -30.2020  -21.8810   15.1450 C   0  0  0  0  0  1  0  0  0  0  0  0
  -29.5520  -22.9820   13.1370 C   0  0  0  0  0  1  0  0  0  0  0  0
  -31.7290  -25.6730   15.1060 N   0  0  0  0  0  0  0  0  0  0  0  0
  -31.3700  -26.9190   15.4780 C   0  0  0  0  0  0  0  0  0  0  0  0
  -30.5480  -27.1270   16.3650 O   0  0  0  0  0  0  0  0  0  0  0  0
  -32.4490  -25.6370   14.3990 H   0  0  0  0  0  0  0  0  0  0  0  0
  -33.2710  -28.5810   15.3900 C   0  0  0  0  0  1  0  0  0  0  0  0
  -31.9920  -28.1110   14.6860 C   0  0  0  0  0  3  0  0  0  0  0  0
  -30.0140  -29.0950   13.5300 C   0  0  0  0  0  1  0  0  0  0  0  0
  -31.1060  -29.2890   14.4790 N   0  0  0  0  0  0  0  0  0  0  0  0
  -31.6540  -30.0790   14.1490 H   0  0  0  0  0  0  0  0  0  0  0  0
  3  4  1  0
  4  2  1  0
  5  3  2  0
  6  4  1  0
  7  3  1  0
  8 10  2  0
  8  9  1  0
  9  7  1  0
 11  9  1  0
 12  8  1  0
 13 14  1  0
 14 16  1  0
 14 12  1  0
 15 13  2  0
 17 13  1  0
 18 26  1  0
 19 24  1  0
 20 19  1  0
 20 21  1  0
 22 21  1  0
 22 31  1  0
 23 22  1  0
 24 23  1  0
 24 18  1  0
 25 18  2  0
 26 27  1  0
 26 17  1  0
 28 29  2  0
 28 53  1  0
 29 48  1  0
 30 29  1  0
 31 28  1  0
 32 31  1  0
 32 30  2  0
 33 38  1  0
 33 30  1  0
 34 33  2  0
 35 36  2  0
 35 34  1  0
 36 37  1  0
 37 38  2  0
 39 36  1  0
 40 39  1  0
 40 41  1  0
 42 41  2  0
 43 42  1  0
 44 45  1  0
 44 43  2  0
 45 40  2  0
 46 45  1  0
 47 43  1  0
 48 49  1  0
 48 50  2  0
 49 52  1  0
 51 49  1  0
 53 54  1  0
 55 53  1  0
 56  1  1  0
 57 56  2  0
 58 57  1  0
 59 58  1  0
 60 59  1  0
 61 60  1  0
 62 64  1  0
 62 61  1  0
 63 67  1  0
 63 64  1  0
 64 66  1  0
 65 63  2  0
 67 68  1  0
 68 70  1  0
 69 79  1  0
 70 76  1  0
 71 81  1  0
 71 78  1  0
 72 77  1  0
 73 74  1  0
 74 75  1  0
 74 72  2  0
 75 70  2  0
 76 77  2  0
 78 72  1  0
 79 71  1  0
 79 73  1  0
 80 69  2  0
 81 82  1  0
 82 84  1  0
 83 81  2  0
 85 94  1  0
 85 89  1  0
 86 87  1  0
 86 82  1  0
 87 88  1  0
 89 88  1  0
 90 86  1  0
 90 85  2  0
 90 91  1  0
 91 92  2  0
 92 93  1  0
 94 93  2  0
 95 69  1  0
 96 98  1  1
 96 95  1  0
 97 96  1  0
 99 96  1  0
100 95  1  0
100101  1  0
101102  2  0
103100  1  0
105104  1  0
105101  1  0
106107  1  0
107105  1  0
108107  1  0
M  ISO  4  18 100  26 100  67 101  68 101
M  END
>  <TORSDO>  (17) 
F 32

>  <SCORE>  (17) 
6.493

>  <name>  (17) 
19

>  <ligand_id>  (17) 
19

>  <original_smiles>  (17) 
[H]c1c([H])c([H])c2c(c1[H])C([H])([H])C([H])([H])C([H])([H])C2([H])N([H])C(=O)C1([H])N(C(=O)C([H])(N([H])C(=O)C([H])(N([H])C([H])([H])[H])C([H])([H])[H])C(C([H])([H])[H])(C([H])([H])[H])C([H])([H])[H])C([H])([H])c2c([H])c(OC([H])([H])C(=O)N([H])C([H])([H])C([H])([H])C([H])([H])C([H])([H])C([H])([H])C([H])([H])C([H])([H])C([H])([H])C([H])([H])N([H])C(=O)C([H])([H])N([H])C(=O)C([H])([H])N([H])C(=O)C([H])([H])N([H])C(=O)N3C([H])([H])C([H])([H])C([H])([H])C([H])(n4nc(-c5c([H])c([H])c(Oc6c([H])c([H])c(F)c([H])c6F)c([H])c5[H])c(C(=O)N([H])[H])c4N([H])[H])C3([H])[H])c([H])c([H])c2C1([H])[H]

>  <smiles>  (17) 
[H]c1c([H])c([H])c2c(c1[H])C([H])([H])C([H])([H])C([H])([H])C2([H])N([H])C(=O)C1([H])N(C(=O)C([H])(N([H])C(=O)C([H])(N([H])C([H])([H])[H])C([H])([H])[H])C(C([H])([H])[H])(C([H])([H])[H])C([H])([H])[H])C([H])([H])c2c([H])c(OC([H])([H])C(=O)N([H])C([H])([H])C([H])([H])C([H])([H])C([H])([H])C([H])([H])C([H])([H])C([H])([H])C([H])([H])C([H])([H])N([H])C(=O)C([H])([H])N([H])C(=O)C([H])([H])N([H])C(=O)C([H])([H])N([H])C(=O)N3C([H])([H])C([H])([H])C([H])([H])C([H])(n4nc(-c5c([H])c([H])c(Oc6c([H])c([H])c(F)c([H])c6F)c([H])c5[H])c(C(=O)N([H])[H])c4N([H])[H])C3([H])[H])c([H])c([H])c2C1([H])[H]

$$$$
20:0:0
     RDKit          3D

108115  0  0  1  0  0  0  0  0999 V2000
  -25.8440  -25.3990   28.6990 C   0  0  0  0  0  0  0  0  0  0  0  0
  -26.4300  -26.5320   29.1010 N   0  0  0  0  0  0  0  0  0  0  0  0
  -26.4340  -24.3160   28.6570 O   0  0  0  0  0  0  0  0  0  0  0  0
  -25.8560  -27.3640   29.1100 H   0  0  0  0  0  0  0  0  0  0  0  0
  -27.8580  -26.7110   29.3540 C   0  0  0  0  0  2  0  0  0  0  0  0
  -28.4900  -27.5470   28.2280 C   0  0  0  0  0  2  0  0  0  0  0  0
  -28.2110  -29.0590   28.3530 C   0  0  0  0  0  2  0  0  0  0  0  0
  -27.1110  -29.5610   27.4030 C   0  0  0  0  0  2  0  0  0  0  0  0
  -27.1060  -31.0970   27.3040 C   0  0  0  0  0  2  0  0  0  0  0  0
  -25.1810  -31.5180   25.7650 C   0  0  0  0  0  0  0  0  0  0  0  0
  -25.8260  -31.6900   26.9280 N   0  0  0  0  0  0  0  0  0  0  0  0
  -25.3250  -30.5260   25.0470 O   0  0  0  0  0  0  0  0  0  0  0  0
  -25.5760  -32.5330   27.4290 H   0  0  0  0  0  0  0  0  0  0  0  0
  -24.3430  -32.7170   25.2810 C   0  0  0  0  0  2  0  0  0  0  0  0
  -24.7640  -33.1250   23.9690 O   0  0  0  0  0  0  0  0  0  0  0  0
  -31.2830  -30.4080   23.4870 C   0  0  0  0  0  0  0  0  0  0  0  0
  -26.1040  -33.4110   23.8550 C   0  0  0  0  0  0  0  0  0  0  0  0
  -31.1670  -32.8260   23.9980 C   0  0  0  0  0  3  0  0  0  0  0  0
  -28.8750  -33.9080   23.7240 C   0  0  0  0  0  0  0  0  0  0  0  0
  -29.3140  -31.6870   22.6560 C   0  0  0  0  0  2  0  0  0  0  0  0
  -28.3540  -32.7030   23.2350 C   0  0  0  0  0  0  0  0  0  0  0  0
  -26.9690  -32.4540   23.2870 C   0  0  0  0  0  3  0  0  0  0  0  0
  -26.6310  -34.6220   24.3450 C   0  0  0  0  0  3  0  0  0  0  0  0
  -28.0160  -34.8750   24.2810 C   0  0  0  0  0  3  0  0  0  0  0  0
  -30.3690  -34.1000   23.6150 C   0  0  0  0  0  2  0  0  0  0  0  0
  -30.5910  -31.5780   23.3990 N   0  0  0  0  0  0  0  0  0  0  0  0
  -32.4030  -30.3650   24.0120 O   0  0  0  0  0  0  0  0  0  0  0  0
  -31.2880  -32.7680   25.5380 C   0  0  0  0  0  0  0  0  0  0  0  0
  -31.9230  -33.7940   26.1280 N   0  0  0  0  0  0  0  0  0  0  0  0
  -30.7920  -31.8360   26.1760 O   0  0  0  0  0  0  0  0  0  0  0  0
  -32.3130  -34.5130   25.5350 H   0  0  0  0  0  0  0  0  0  0  0  0
  -32.8720  -36.1950   28.6510 C   0  0  0  0  0  0  0  0  0  0  0  0
  -32.1190  -33.9740   27.5650 C   0  0  0  0  0  3  0  0  0  0  0  0
  -30.7700  -34.1950   28.2900 C   0  0  0  0  0  2  0  0  0  0  0  0
  -30.4040  -35.6740   28.4390 C   0  0  0  0  0  2  0  0  0  0  0  0
  -31.4850  -36.4150   29.2320 C   0  0  0  0  0  2  0  0  0  0  0  0
  -33.1660  -35.0550   27.8560 C   0  0  0  0  0  0  0  0  0  0  0  0
  -34.4600  -34.9190   27.3100 C   0  0  0  0  0  3  0  0  0  0  0  0
  -35.4510  -35.8910   27.5480 C   0  0  0  0  0  3  0  0  0  0  0  0
  -35.1570  -37.0100   28.3470 C   0  0  0  0  0  3  0  0  0  0  0  0
  -33.8720  -37.1580   28.9020 C   0  0  0  0  0  3  0  0  0  0  0  0
  -30.7160  -29.0720   22.9100 C   0  0  0  0  0  3  0  0  0  0  0  0
  -29.7610  -28.3150   23.9120 C   0  0  1  0  0  0  0  0  0  0  0  0
  -30.3150  -28.2110   25.3530 C   0  0  0  0  0  1  0  0  0  0  0  0
  -28.3920  -29.0280   23.9780 C   0  0  0  0  0  1  0  0  0  0  0  0
  -29.4910  -26.8810   23.3980 C   0  0  0  0  0  1  0  0  0  0  0  0
  -31.8620  -28.2300   22.5470 N   0  0  0  0  0  0  0  0  0  0  0  0
  -32.2690  -28.0020   21.2920 C   0  0  0  0  0  0  0  0  0  0  0  0
  -31.6680  -28.4360   20.3040 O   0  0  0  0  0  0  0  0  0  0  0  0
  -32.4360  -27.8950   23.3080 H   0  0  0  0  0  0  0  0  0  0  0  0
  -34.7330  -28.0930   20.7960 C   0  0  0  0  0  1  0  0  0  0  0  0
  -33.5470  -27.1630   21.1010 C   0  0  0  0  0  3  0  0  0  0  0  0
  -32.4960  -25.0690   20.3680 C   0  0  0  0  0  1  0  0  0  0  0  0
  -33.4280  -26.1440   20.0360 N   0  0  0  0  0  0  0  0  0  0  0  0
  -34.3310  -25.7280   19.8330 H   0  0  0  0  0  0  0  0  0  0  0  0
  -24.3970  -25.5040   28.2110 C   0  0  0  0  0  2  0  0  0  0  0  0
  -24.3650  -26.4630   27.1600 O   0  0  0  0  0  0  0  0  0  0  0  0
  -23.0660  -26.9480   26.8660 C   0  0  0  0  0  2  0  0  0  0  0  0
  -23.1780  -28.4320   26.4910 C   0  0  0  0  0  2  0  0  0  0  0  0
  -23.2470  -28.6620   24.9700 C   0  0  0  0  0  2  0  0  0  0  0  0
  -21.1170  -29.2300   23.8050 C   0  0  0  0  0  0  0  0  0  0  0  0
  -22.1990  -29.5730   24.5160 N   0  0  0  0  0  0  0  0  0  0  0  0
  -20.8980  -28.0730   23.4420 O   0  0  0  0  0  0  0  0  0  0  0  0
  -22.3020  -30.5510   24.7550 H   0  0  0  0  0  0  0  0  0  0  0  0
  -20.1270  -30.3510   23.4730 C   0  0  0  0  0  2  0  0  0  0  0  0
  -19.0200  -30.2750   24.3640 O   0  0  0  0  0  0  0  0  0  0  0  0
  -18.5320  -31.5550   24.7300 C   0  0  0  0  0  2  0  0  0  0  0  0
  -18.0390  -31.5180   26.1800 C   0  0  0  0  0  2  0  0  0  0  0  0
  -19.1240  -31.1500   27.2090 C   0  0  0  0  0  2  0  0  0  0  0  0
  -18.9300  -31.9300   28.5170 C   0  0  0  0  0  2  0  0  0  0  0  0
  -20.6650  -31.9510   30.2930 C   0  0  0  0  0  0  0  0  0  0  0  0
  -21.0690  -32.7130   32.5950 C   0  0  0  0  0  2  0  0  0  0  0  0
  -22.4070  -32.2870   33.2160 C   0  0  0  0  0  2  0  0  0  0  0  0
  -22.2780  -30.9010   33.8640 C   0  0  0  0  0  2  0  0  0  0  0  0
  -21.6620  -29.8570   32.8990 C   0  0  0  0  0  3  0  0  0  0  0  0
  -20.3680  -30.3910   32.2430 C   0  0  0  0  0  2  0  0  0  0  0  0
  -20.6460  -31.6980   31.6230 N   0  0  0  0  0  0  0  0  0  0  0  0
  -21.3170  -32.8620   29.7750 O   0  0  0  0  0  0  0  0  0  0  0  0
  -19.6600  -31.3500   29.6440 N   0  0  0  0  0  0  0  0  0  0  0  0
  -19.1770  -30.6360   30.1710 H   0  0  0  0  0  0  0  0  0  0  0  0
  -22.3440  -27.5870   33.9080 C   0  0  0  0  0  0  0  0  0  0  0  0
  -21.6340  -26.6430   34.6020 C   0  0  0  0  0  0  0  0  0  0  0  0
  -20.2920  -27.1290   34.6690 C   0  0  0  0  0  0  0  0  0  0  0  0
  -21.4360  -28.5820   33.5800 N   0  0  0  0  0  0  0  0  0  0  0  0
  -20.1830  -28.2700   34.0000 N   0  0  0  0  0  0  0  0  0  0  0  0
  -19.1190  -26.6040   35.3780 C   0  0  0  0  0  0  0  0  0  0  0  0
  -17.8200  -26.7030   34.8340 C   0  0  0  0  0  3  0  0  0  0  0  0
  -16.7100  -26.1730   35.5280 C   0  0  0  0  0  3  0  0  0  0  0  0
  -16.8940  -25.5340   36.7770 C   0  0  0  0  0  0  0  0  0  0  0  0
  -18.1860  -25.4580   37.3250 C   0  0  0  0  0  3  0  0  0  0  0  0
  -19.2880  -25.9900   36.6360 C   0  0  0  0  0  3  0  0  0  0  0  0
  -15.8710  -25.0140   37.5340 O   0  0  0  0  0  0  0  0  0  0  0  0
  -14.5890  -24.9330   37.0530 C   0  0  0  0  0  0  0  0  0  0  0  0
  -14.2700  -24.1860   35.8980 C   0  0  0  0  0  3  0  0  0  0  0  0
  -12.9300  -24.0740   35.4790 C   0  0  0  0  0  3  0  0  0  0  0  0
  -11.9070  -24.6990   36.2180 C   0  0  0  0  0  0  0  0  0  0  0  0
  -12.2210  -25.4390   37.3700 C   0  0  0  0  0  3  0  0  0  0  0  0
  -13.5590  -25.5530   37.7880 C   0  0  0  0  0  0  0  0  0  0  0  0
  -13.8530  -26.2510   38.9120 F   0  0  0  0  0  0  0  0  0  0  0  0
  -10.6170  -24.5840   35.8200 F   0  0  0  0  0  0  0  0  0  0  0  0
  -22.1860  -25.4070   35.2500 C   0  0  0  0  0  0  0  0  0  0  0  0
  -21.4220  -24.3190   35.2460 N   0  0  0  0  0  0  0  0  0  0  0  0
  -23.3200  -25.3850   35.7250 O   0  0  0  0  0  0  0  0  0  0  0  0
  -20.4980  -24.3320   34.8400 H   0  0  0  0  0  0  0  0  0  0  0  0
  -21.7660  -23.4610   35.6560 H   0  0  0  0  0  0  0  0  0  0  0  0
  -23.6830  -27.6930   33.5470 N   0  0  0  0  0  0  0  0  0  0  0  0
  -24.3770  -27.0030   33.8150 H   0  0  0  0  0  0  0  0  0  0  0  0
  -24.0790  -28.4800   33.0470 H   0  0  0  0  0  0  0  0  0  0  0  0
  1  2  1  0
  2  4  1  0
  2  5  1  0
  3  1  2  0
  6  7  1  0
  6  5  1  0
  8  7  1  0
  9  8  1  0
 10 11  1  0
 11  9  1  0
 11 13  1  0
 12 10  2  0
 14 10  1  0
 15 14  1  0
 16 27  2  0
 17 15  1  0
 17 23  1  0
 18 28  1  0
 19 24  1  0
 20 21  1  0
 20 26  1  0
 21 22  1  0
 21 19  2  0
 22 17  2  0
 24 23  2  0
 25 19  1  0
 25 18  1  0
 26 16  1  0
 26 18  1  0
 28 29  1  0
 28 30  2  0
 31 29  1  0
 32 41  1  0
 32 36  1  0
 33 29  1  0
 33 37  1  0
 33 34  1  0
 34 35  1  0
 35 36  1  0
 37 32  2  0
 38 39  2  0
 38 37  1  0
 39 40  1  0
 40 41  2  0
 42 16  1  0
 42 43  1  0
 43 45  1  1
 43 44  1  0
 46 43  1  0
 47 42  1  0
 47 50  1  0
 48 47  1  0
 49 48  2  0
 52 51  1  0
 52 48  1  0
 54 53  1  0
 54 52  1  0
 55 54  1  0
 56  1  1  0
 57 56  1  0
 58 57  1  0
 59 58  1  0
 60 59  1  0
 61 62  1  0
 62 64  1  0
 62 60  1  0
 63 61  2  0
 65 61  1  0
 65 66  1  0
 66 67  1  0
 67 68  1  0
 68 69  1  0
 69 70  1  0
 70 79  1  0
 71 77  1  0
 72 73  1  0
 73 74  1  0
 75 76  1  0
 75 84  1  0
 75 74  1  0
 77 76  1  0
 77 72  1  0
 78 71  2  0
 79 80  1  0
 79 71  1  0
 81 82  2  0
 82 83  1  0
 82101  1  0
 83 86  1  0
 84 81  1  0
 84 85  1  0
 85 83  2  0
 86 91  1  0
 87 86  2  0
 87 88  1  0
 88 89  2  0
 89 90  1  0
 89 92  1  0
 91 90  2  0
 93 92  1  0
 93 98  1  0
 94 93  2  0
 95 94  1  0
 95 96  2  0
 96 97  1  0
 97 98  2  0
 98 99  1  0
100 96  1  0
101103  2  0
102101  1  0
102105  1  0
104102  1  0
106107  1  0
106 81  1  0
108106  1  0
M  ISO  4  14 101  15 101  71 100  79 100
M  END
>  <TORSDO>  (18) 
F 35

>  <SCORE>  (18) 
13.746

>  <name>  (18) 
20

>  <ligand_id>  (18) 
20

>  <original_smiles>  (18) 
[H]c1c([H])c([H])c2c(c1[H])C([H])([H])C([H])([H])C([H])([H])C2([H])N([H])C(=O)C1([H])N(C(=O)C([H])(N([H])C(=O)C([H])(N([H])C([H])([H])[H])C([H])([H])[H])C(C([H])([H])[H])(C([H])([H])[H])C([H])([H])[H])C([H])([H])c2c([H])c(OC([H])([H])C(=O)N([H])C([H])([H])C([H])([H])C([H])([H])C([H])([H])C([H])([H])N([H])C(=O)C([H])([H])OC([H])([H])C([H])([H])C([H])([H])N([H])C(=O)C([H])([H])OC([H])([H])C([H])([H])C([H])([H])C([H])([H])N([H])C(=O)N3C([H])([H])C([H])([H])C([H])([H])C([H])(n4nc(-c5c([H])c([H])c(Oc6c([H])c([H])c(F)c([H])c6F)c([H])c5[H])c(C(=O)N([H])[H])c4N([H])[H])C3([H])[H])c([H])c([H])c2C1([H])[H]

>  <smiles>  (18) 
[H]c1c([H])c([H])c2c(c1[H])C([H])([H])C([H])([H])C([H])([H])C2([H])N([H])C(=O)C1([H])N(C(=O)C([H])(N([H])C(=O)C([H])(N([H])C([H])([H])[H])C([H])([H])[H])C(C([H])([H])[H])(C([H])([H])[H])C([H])([H])[H])C([H])([H])c2c([H])c(OC([H])([H])C(=O)N([H])C([H])([H])C([H])([H])C([H])([H])C([H])([H])C([H])([H])N([H])C(=O)C([H])([H])OC([H])([H])C([H])([H])C([H])([H])N([H])C(=O)C([H])([H])OC([H])([H])C([H])([H])C([H])([H])C([H])([H])N([H])C(=O)N3C([H])([H])C([H])([H])C([H])([H])C([H])(n4nc(-c5c([H])c([H])c(Oc6c([H])c([H])c(F)c([H])c6F)c([H])c5[H])c(C(=O)N([H])[H])c4N([H])[H])C3([H])[H])c([H])c([H])c2C1([H])[H]

$$$$
21:0:0
     RDKit          3D

105112  0  0  1  0  0  0  0  0999 V2000
  -28.1940  -21.2870   18.0000 C   0  0  0  0  0  0  0  0  0  0  0  0
  -28.9140  -21.7520   19.0290 N   0  0  0  0  0  0  0  0  0  0  0  0
  -27.7640  -22.0780   17.1620 O   0  0  0  0  0  0  0  0  0  0  0  0
  -29.1770  -22.7210   18.9430 H   0  0  0  0  0  0  0  0  0  0  0  0
  -29.5840  -21.0110   20.0950 C   0  0  0  0  0  2  0  0  0  0  0  0
  -28.7360  -20.8160   21.3740 C   0  0  0  0  0  2  0  0  0  0  0  0
  -27.7640  -21.9440   21.7890 C   0  0  0  0  0  2  0  0  0  0  0  0
  -28.3990  -23.3280   22.0480 C   0  0  0  0  0  2  0  0  0  0  0  0
  -27.9960  -24.2950   21.0010 N   0  0  0  0  0  4  0  0  0  0  0  0
  -27.8970  -23.7760   20.1430 H   0  0  0  0  0  0  0  0  0  0  0  0
  -27.0890  -24.6650   21.2430 H   0  0  0  0  0  0  0  0  0  0  0  0
  -28.9370  -25.4220   20.7910 C   0  0  0  0  0  2  0  0  0  0  0  0
  -28.7770  -26.1070   19.4120 C   0  0  0  0  0  2  0  0  0  0  0  0
  -28.6370  -27.5230   19.5370 O   0  0  0  0  0  0  0  0  0  0  0  0
  -24.6210  -31.9320   23.3600 C   0  0  0  0  0  0  0  0  0  0  0  0
  -27.3870  -28.0820   19.6680 C   0  0  0  0  0  0  0  0  0  0  0  0
  -23.4180  -30.6250   21.6370 C   0  0  0  0  0  3  0  0  0  0  0  0
  -24.8870  -29.3680   19.9740 C   0  0  0  0  0  0  0  0  0  0  0  0
  -25.8940  -31.2030   21.3460 C   0  0  0  0  0  2  0  0  0  0  0  0
  -26.0350  -29.9230   20.5500 C   0  0  0  0  0  0  0  0  0  0  0  0
  -27.2850  -29.2900   20.3900 C   0  0  0  0  0  3  0  0  0  0  0  0
  -26.2160  -27.5240   19.1010 C   0  0  0  0  0  3  0  0  0  0  0  0
  -24.9720  -28.1660   19.2480 C   0  0  0  0  0  3  0  0  0  0  0  0
  -23.5870  -30.1110   20.1810 C   0  0  0  0  0  2  0  0  0  0  0  0
  -24.6650  -31.2630   22.1720 N   0  0  0  0  0  0  0  0  0  0  0  0
  -23.5590  -32.0620   23.9840 O   0  0  0  0  0  0  0  0  0  0  0  0
  -22.9030  -29.4600   22.5100 C   0  0  0  0  0  0  0  0  0  0  0  0
  -21.6120  -29.1270   22.3590 N   0  0  0  0  0  0  0  0  0  0  0  0
  -23.6640  -28.8560   23.2710 O   0  0  0  0  0  0  0  0  0  0  0  0
  -21.0540  -29.6670   21.7140 H   0  0  0  0  0  0  0  0  0  0  0  0
  -18.4570  -27.3930   22.5950 C   0  0  0  0  0  0  0  0  0  0  0  0
  -20.9160  -28.0420   23.0470 C   0  0  0  0  0  3  0  0  0  0  0  0
  -21.2870  -26.6720   22.4330 C   0  0  0  0  0  2  0  0  0  0  0  0
  -20.3140  -26.2200   21.3390 C   0  0  0  0  0  2  0  0  0  0  0  0
  -18.8910  -26.1180   21.8950 C   0  0  0  0  0  2  0  0  0  0  0  0
  -19.4080  -28.3070   23.1210 C   0  0  0  0  0  0  0  0  0  0  0  0
  -18.9510  -29.4960   23.7270 C   0  0  0  0  0  3  0  0  0  0  0  0
  -17.5750  -29.7750   23.8190 C   0  0  0  0  0  3  0  0  0  0  0  0
  -16.6380  -28.8580   23.3160 C   0  0  0  0  0  3  0  0  0  0  0  0
  -17.0790  -27.6700   22.7040 C   0  0  0  0  0  3  0  0  0  0  0  0
  -25.8980  -32.5900   23.9770 C   0  0  0  0  0  3  0  0  0  0  0  0
  -25.5720  -33.9910   24.2710 N   0  0  0  0  0  0  0  0  0  0  0  0
  -25.9500  -35.0340   23.5190 C   0  0  0  0  0  0  0  0  0  0  0  0
  -26.6780  -34.9180   22.5300 O   0  0  0  0  0  0  0  0  0  0  0  0
  -24.9330  -34.1580   25.0340 H   0  0  0  0  0  0  0  0  0  0  0  0
  -24.2480  -36.8230   23.0410 C   0  0  0  0  0  1  0  0  0  0  0  0
  -25.4370  -36.4250   23.9310 C   0  0  0  0  0  3  0  0  0  0  0  0
  -27.5190  -37.3120   24.8820 C   0  0  0  0  0  1  0  0  0  0  0  0
  -26.4740  -37.4770   23.8750 N   0  0  0  0  0  0  0  0  0  0  0  0
  -26.0610  -38.3960   23.9970 H   0  0  0  0  0  0  0  0  0  0  0  0
  -26.4120  -31.8530   25.2740 C   0  0  1  0  0  0  0  0  0  0  0  0
  -25.3170  -31.6330   26.3430 C   0  0  0  0  0  1  0  0  0  0  0  0
  -27.0020  -30.4700   24.9130 C   0  0  0  0  0  1  0  0  0  0  0  0
  -27.5550  -32.6680   25.9240 C   0  0  0  0  0  1  0  0  0  0  0  0
  -27.8910  -19.7880   17.8680 C   0  0  0  0  0  2  0  0  0  0  0  0
  -28.5910  -19.1200   16.6610 C   0  0  0  0  0  2  0  0  0  0  0  0
  -30.9440  -19.9320   16.3940 C   0  0  0  0  0  0  0  0  0  0  0  0
  -30.0510  -19.0210   16.8060 N   0  0  0  0  0  0  0  0  0  0  0  0
  -30.6120  -20.9650   15.8110 O   0  0  0  0  0  0  0  0  0  0  0  0
  -30.4020  -18.1820   17.2530 H   0  0  0  0  0  0  0  0  0  0  0  0
  -32.4250  -19.6610   16.6830 C   0  0  0  0  0  2  0  0  0  0  0  0
  -32.9660  -20.5480   17.8360 C   0  0  0  0  0  2  0  0  0  0  0  0
  -34.7820  -19.1660   18.9320 C   0  0  0  0  0  0  0  0  0  0  0  0
  -34.3390  -20.2340   18.2530 N   0  0  0  0  0  0  0  0  0  0  0  0
  -35.9500  -19.1080   19.3160 O   0  0  0  0  0  0  0  0  0  0  0  0
  -35.0370  -20.9420   18.0580 H   0  0  0  0  0  0  0  0  0  0  0  0
  -33.8360  -17.9930   19.2390 C   0  0  0  0  0  2  0  0  0  0  0  0
  -34.8230  -16.2610   17.7150 C   0  0  0  0  0  0  0  0  0  0  0  0
  -35.1370  -14.2670   16.3140 C   0  0  0  0  0  2  0  0  0  0  0  0
  -33.7500  -13.7170   15.9220 C   0  0  0  0  0  2  0  0  0  0  0  0
  -33.1900  -12.7790   17.0120 C   0  0  0  0  0  2  0  0  0  0  0  0
  -33.2940  -13.3820   18.4380 C   0  0  0  0  0  3  0  0  0  0  0  0
  -34.7110  -13.9420   18.6880 C   0  0  0  0  0  2  0  0  0  0  0  0
  -35.0080  -14.9190   17.6240 N   0  0  0  0  0  0  0  0  0  0  0  0
  -34.9340  -17.0240   16.7490 O   0  0  0  0  0  0  0  0  0  0  0  0
  -34.4040  -16.6830   18.9180 N   0  0  0  0  0  0  0  0  0  0  0  0
  -34.3690  -15.9880   19.6490 H   0  0  0  0  0  0  0  0  0  0  0  0
  -31.7970  -12.3920   20.2900 C   0  0  0  0  0  0  0  0  0  0  0  0
  -31.8850  -11.2360   21.0120 C   0  0  0  0  0  0  0  0  0  0  0  0
  -33.0740  -10.5790   20.5650 C   0  0  0  0  0  0  0  0  0  0  0  0
  -32.9080  -12.4080   19.4570 N   0  0  0  0  0  0  0  0  0  0  0  0
  -33.7020  -11.3270   19.6680 N   0  0  0  0  0  0  0  0  0  0  0  0
  -33.6220   -9.2590   20.9000 C   0  0  0  0  0  0  0  0  0  0  0  0
  -34.9790   -9.0870   21.2540 C   0  0  0  0  0  3  0  0  0  0  0  0
  -35.4750   -7.8100   21.5900 C   0  0  0  0  0  3  0  0  0  0  0  0
  -34.6120   -6.6880   21.5780 C   0  0  0  0  0  0  0  0  0  0  0  0
  -33.2680   -6.8590   21.2030 C   0  0  0  0  0  3  0  0  0  0  0  0
  -32.7770   -8.1320   20.8630 C   0  0  0  0  0  3  0  0  0  0  0  0
  -35.0130   -5.4050   21.8640 O   0  0  0  0  0  0  0  0  0  0  0  0
  -36.1110   -5.1520   22.6450 C   0  0  0  0  0  0  0  0  0  0  0  0
  -36.2200   -5.6460   23.9620 C   0  0  0  0  0  3  0  0  0  0  0  0
  -37.3340   -5.3030   24.7540 C   0  0  0  0  0  3  0  0  0  0  0  0
  -38.3340   -4.4600   24.2350 C   0  0  0  0  0  0  0  0  0  0  0  0
  -38.2260   -3.9620   22.9230 C   0  0  0  0  0  3  0  0  0  0  0  0
  -37.1160   -4.3050   22.1330 C   0  0  0  0  0  0  0  0  0  0  0  0
  -37.0050   -3.8060   20.8780 F   0  0  0  0  0  0  0  0  0  0  0  0
  -39.4010   -4.1230   24.9980 F   0  0  0  0  0  0  0  0  0  0  0  0
  -30.8780  -10.7150   21.9980 C   0  0  0  0  0  0  0  0  0  0  0  0
  -31.3310  -10.0100   23.0260 N   0  0  0  0  0  0  0  0  0  0  0  0
  -29.6810  -10.9730   21.8820 O   0  0  0  0  0  0  0  0  0  0  0  0
  -32.3160   -9.8120   23.1290 H   0  0  0  0  0  0  0  0  0  0  0  0
  -30.6870   -9.6580   23.7200 H   0  0  0  0  0  0  0  0  0  0  0  0
  -30.8610  -13.4230   20.2620 N   0  0  0  0  0  0  0  0  0  0  0  0
  -30.0270  -13.4000   20.8390 H   0  0  0  0  0  0  0  0  0  0  0  0
  -30.9020  -14.2320   19.6580 H   0  0  0  0  0  0  0  0  0  0  0  0
  1  2  1  0
  2  5  1  0
  3  1  2  0
  4  2  1  0
  5  6  1  0
  6  7  1  0
  7  8  1  0
  9 11  1  0
  9  8  1  0
 10  9  1  0
 12  9  1  0
 13 14  1  0
 13 12  1  0
 14 16  1  0
 15 26  2  0
 16 21  1  0
 17 25  1  0
 17 27  1  0
 18 24  1  0
 18 20  1  0
 19 25  1  0
 20 19  1  0
 21 20  2  0
 22 23  1  0
 22 16  2  0
 23 18  2  0
 24 17  1  0
 25 15  1  0
 27 29  2  0
 28 27  1  0
 30 28  1  0
 31 40  2  0
 31 36  1  0
 32 28  1  0
 32 36  1  0
 33 32  1  0
 34 35  1  0
 34 33  1  0
 35 31  1  0
 36 37  2  0
 37 38  1  0
 39 38  2  0
 40 39  1  0
 41 15  1  0
 41 42  1  0
 41 51  1  0
 42 45  1  0
 43 47  1  0
 43 42  1  0
 44 43  2  0
 47 46  1  0
 49 47  1  0
 49 50  1  0
 49 48  1  0
 51 54  1  1
 51 52  1  0
 53 51  1  0
 55  1  1  0
 56 58  1  0
 56 55  1  0
 57 61  1  0
 57 58  1  0
 58 60  1  0
 59 57  2  0
 61 62  1  0
 62 64  1  0
 63 67  1  0
 63 65  2  0
 64 63  1  0
 66 64  1  0
 68 76  1  0
 69 74  1  0
 70 69  1  0
 70 71  1  0
 72 71  1  0
 72 73  1  0
 72 81  1  0
 74 68  1  0
 74 73  1  0
 75 68  2  0
 76 67  1  0
 76 77  1  0
 78 79  2  0
 79 98  1  0
 80 83  1  0
 80 79  1  0
 81 82  1  0
 81 78  1  0
 82 80  2  0
 83 84  1  0
 84 85  2  0
 86 85  1  0
 86 89  1  0
 87 86  2  0
 88 83  2  0
 88 87  1  0
 89 90  1  0
 90 91  1  0
 91 92  2  0
 93 92  1  0
 93 97  1  0
 94 93  2  0
 95 90  2  0
 95 94  1  0
 96 95  1  0
 98 99  1  0
 99101  1  0
 99102  1  0
100 98  2  0
103 78  1  0
103104  1  0
105103  1  0
M  ISO  4  13 101  14 101  68 100  76 100
M  END
>  <TORSDO>  (19) 
F 30

>  <SCORE>  (19) 
-6.668

>  <name>  (19) 
21

>  <ligand_id>  (19) 
21

>  <original_smiles>  (19) 
[H]c1c([H])c([H])c2c(c1[H])C([H])([H])C([H])([H])C([H])([H])C2([H])N([H])C(=O)C1([H])N(C(=O)C([H])(N([H])C(=O)C([H])(N([H])C([H])([H])[H])C([H])([H])[H])C(C([H])([H])[H])(C([H])([H])[H])C([H])([H])[H])C([H])([H])c2c([H])c(OC([H])([H])C([H])([H])[N+]([H])([H])C([H])([H])C([H])([H])C([H])([H])C([H])([H])N([H])C(=O)C([H])([H])C([H])([H])N([H])C(=O)C([H])([H])C([H])([H])N([H])C(=O)C([H])([H])N([H])C(=O)N3C([H])([H])C([H])([H])C([H])([H])C([H])(n4nc(-c5c([H])c([H])c(Oc6c([H])c([H])c(F)c([H])c6F)c([H])c5[H])c(C(=O)N([H])[H])c4N([H])[H])C3([H])[H])c([H])c([H])c2C1([H])[H]

>  <smiles>  (19) 
[H]c1c([H])c([H])c2c(c1[H])C([H])([H])C([H])([H])C([H])([H])C2([H])N([H])C(=O)C1([H])N(C(=O)C([H])(N([H])C(=O)C([H])(N([H])C([H])([H])[H])C([H])([H])[H])C(C([H])([H])[H])(C([H])([H])[H])C([H])([H])[H])C([H])([H])c2c([H])c(OC([H])([H])C([H])([H])[N+]([H])([H])C([H])([H])C([H])([H])C([H])([H])C([H])([H])N([H])C(=O)C([H])([H])C([H])([H])N([H])C(=O)C([H])([H])C([H])([H])N([H])C(=O)C([H])([H])N([H])C(=O)N3C([H])([H])C([H])([H])C([H])([H])C([H])(n4nc(-c5c([H])c([H])c(Oc6c([H])c([H])c(F)c([H])c6F)c([H])c5[H])c(C(=O)N([H])[H])c4N([H])[H])C3([H])[H])c([H])c([H])c2C1([H])[H]

$$$$
22:0:0
     RDKit          3D

106113  0  0  1  0  0  0  0  0999 V2000
  -30.9850  -21.9180   22.2860 C   0  0  0  0  0  2  0  0  0  0  0  0
  -32.3720  -22.4190   22.3540 N   0  0  0  0  0  4  0  0  0  0  0  0
  -32.7870  -22.1100   23.2170 H   0  0  0  0  0  0  0  0  0  0  0  0
  -32.3710  -23.4260   22.3580 H   0  0  0  0  0  0  0  0  0  0  0  0
  -33.2540  -21.9620   21.2600 C   0  0  0  0  0  2  0  0  0  0  0  0
  -34.5650  -21.3760   21.8180 C   0  0  0  0  0  2  0  0  0  0  0  0
  -33.8900  -19.1170   22.5990 C   0  0  0  0  0  0  0  0  0  0  0  0
  -34.3170  -20.3620   22.8450 N   0  0  0  0  0  0  0  0  0  0  0  0
  -33.7050  -18.7000   21.4530 O   0  0  0  0  0  0  0  0  0  0  0  0
  -34.5320  -20.5980   23.8060 H   0  0  0  0  0  0  0  0  0  0  0  0
  -33.6150  -18.2380   23.8250 C   0  0  0  0  0  2  0  0  0  0  0  0
  -32.1170  -16.3910   23.0630 C   0  0  0  0  0  0  0  0  0  0  0  0
  -33.2950  -16.8510   23.4960 N   0  0  0  0  0  0  0  0  0  0  0  0
  -31.1380  -17.1130   22.8620 O   0  0  0  0  0  0  0  0  0  0  0  0
  -34.0430  -16.1800   23.6090 H   0  0  0  0  0  0  0  0  0  0  0  0
  -32.0330  -14.8770   22.8870 C   0  0  0  0  0  2  0  0  0  0  0  0
  -30.8700  -14.2270   20.7990 C   0  0  0  0  0  0  0  0  0  0  0  0
  -30.4040  -12.2970   19.3510 C   0  0  0  0  0  2  0  0  0  0  0  0
  -29.4600  -12.5470   18.1680 C   0  0  0  0  0  2  0  0  0  0  0  0
  -27.9970  -12.3780   18.6050 C   0  0  0  0  0  2  0  0  0  0  0  0
  -27.6630  -13.2060   19.8720 C   0  0  0  0  0  3  0  0  0  0  0  0
  -28.7050  -12.9700   20.9870 C   0  0  0  0  0  2  0  0  0  0  0  0
  -30.0540  -13.2090   20.4450 N   0  0  0  0  0  0  0  0  0  0  0  0
  -31.7500  -14.6960   20.0690 O   0  0  0  0  0  0  0  0  0  0  0  0
  -30.8760  -14.4220   22.1200 N   0  0  0  0  0  0  0  0  0  0  0  0
  -30.1360  -13.9780   22.6420 H   0  0  0  0  0  0  0  0  0  0  0  0
  -25.2600  -13.8170   20.5680 C   0  0  0  0  0  0  0  0  0  0  0  0
  -24.1840  -13.0450   20.9160 C   0  0  0  0  0  0  0  0  0  0  0  0
  -24.6390  -11.6910   20.8730 C   0  0  0  0  0  0  0  0  0  0  0  0
  -26.3040  -12.9340   20.3370 N   0  0  0  0  0  0  0  0  0  0  0  0
  -25.9320  -11.6500   20.5760 N   0  0  0  0  0  0  0  0  0  0  0  0
  -23.9060  -10.4300   21.0400 C   0  0  0  0  0  0  0  0  0  0  0  0
  -24.3610   -9.4210   21.9180 C   0  0  0  0  0  3  0  0  0  0  0  0
  -23.6290   -8.2250   22.0750 C   0  0  0  0  0  3  0  0  0  0  0  0
  -22.4270   -8.0280   21.3540 C   0  0  0  0  0  0  0  0  0  0  0  0
  -21.9910   -9.0250   20.4650 C   0  0  0  0  0  3  0  0  0  0  0  0
  -22.7230  -10.2130   20.3050 C   0  0  0  0  0  3  0  0  0  0  0  0
  -21.6640   -6.8880   21.4240 O   0  0  0  0  0  0  0  0  0  0  0  0
  -21.6850   -6.0740   22.5280 C   0  0  0  0  0  0  0  0  0  0  0  0
  -21.4010   -6.5640   23.8210 C   0  0  0  0  0  3  0  0  0  0  0  0
  -21.3660   -5.6790   24.9170 C   0  0  0  0  0  3  0  0  0  0  0  0
  -21.6040   -4.3060   24.7220 C   0  0  0  0  0  0  0  0  0  0  0  0
  -21.8820   -3.8150   23.4350 C   0  0  0  0  0  3  0  0  0  0  0  0
  -21.9190   -4.6960   22.3400 C   0  0  0  0  0  0  0  0  0  0  0  0
  -22.1660   -4.2150   21.0980 F   0  0  0  0  0  0  0  0  0  0  0  0
  -21.5630   -3.4540   25.7740 F   0  0  0  0  0  0  0  0  0  0  0  0
  -22.7860  -13.5240   21.1840 C   0  0  0  0  0  0  0  0  0  0  0  0
  -22.0500  -12.8230   22.0400 N   0  0  0  0  0  0  0  0  0  0  0  0
  -22.3550  -14.5550   20.6690 O   0  0  0  0  0  0  0  0  0  0  0  0
  -22.4110  -11.9890   22.4780 H   0  0  0  0  0  0  0  0  0  0  0  0
  -21.1120  -13.1260   22.2600 H   0  0  0  0  0  0  0  0  0  0  0  0
  -25.4330  -15.1880   20.4100 N   0  0  0  0  0  0  0  0  0  0  0  0
  -24.6720  -15.8500   20.5230 H   0  0  0  0  0  0  0  0  0  0  0  0
  -26.2980  -15.6260   20.1170 H   0  0  0  0  0  0  0  0  0  0  0  0
  -30.1470  -22.4090   23.4800 C   0  0  0  0  0  2  0  0  0  0  0  0
  -28.6650  -22.0150   23.3620 C   0  0  0  0  0  2  0  0  0  0  0  0
  -27.7700  -22.7560   24.3740 C   0  0  0  0  0  2  0  0  0  0  0  0
  -26.2980  -22.8380   23.9220 C   0  0  0  0  0  2  0  0  0  0  0  0
  -25.5840  -24.1400   24.3470 C   0  0  0  0  0  2  0  0  0  0  0  0
  -25.5170  -25.1680   23.2780 N   0  0  0  0  0  4  0  0  0  0  0  0
  -24.8220  -25.8310   23.5870 H   0  0  0  0  0  0  0  0  0  0  0  0
  -25.1590  -24.7670   22.4270 H   0  0  0  0  0  0  0  0  0  0  0  0
  -26.7340  -25.9730   23.0060 C   0  0  0  0  0  2  0  0  0  0  0  0
  -27.7150  -25.3220   21.9990 C   0  0  0  0  0  2  0  0  0  0  0  0
  -28.7580  -26.2850   21.3880 C   0  0  0  0  0  2  0  0  0  0  0  0
  -28.3720  -26.7280   20.0880 O   0  0  0  0  0  0  0  0  0  0  0  0
  -24.6080  -31.8710   23.2140 C   0  0  0  0  0  0  0  0  0  0  0  0
  -27.2380  -27.4940   20.0790 C   0  0  0  0  0  0  0  0  0  0  0  0
  -23.3940  -30.4940   21.5520 C   0  0  0  0  0  3  0  0  0  0  0  0
  -24.8430  -28.9680   20.1120 C   0  0  0  0  0  0  0  0  0  0  0  0
  -25.9160  -30.8540   21.3580 C   0  0  0  0  0  2  0  0  0  0  0  0
  -25.9970  -29.4910   20.7090 C   0  0  0  0  0  0  0  0  0  0  0  0
  -27.2000  -28.7590   20.6980 C   0  0  0  0  0  3  0  0  0  0  0  0
  -26.0800  -26.9760   19.4690 C   0  0  0  0  0  3  0  0  0  0  0  0
  -24.8760  -27.7050   19.4910 C   0  0  0  0  0  3  0  0  0  0  0  0
  -23.6000  -29.8250   20.1660 C   0  0  0  0  0  2  0  0  0  0  0  0
  -24.6570  -31.0840   22.1020 N   0  0  0  0  0  0  0  0  0  0  0  0
  -23.5300  -32.1430   23.7580 O   0  0  0  0  0  0  0  0  0  0  0  0
  -22.7410  -29.4630   22.5000 C   0  0  0  0  0  0  0  0  0  0  0  0
  -21.4140  -29.3040   22.3810 N   0  0  0  0  0  0  0  0  0  0  0  0
  -23.4250  -28.8060   23.2910 O   0  0  0  0  0  0  0  0  0  0  0  0
  -20.9270  -29.8880   21.7150 H   0  0  0  0  0  0  0  0  0  0  0  0
  -18.0290  -28.1370   22.8510 C   0  0  0  0  0  0  0  0  0  0  0  0
  -20.5870  -28.3640   23.1370 C   0  0  0  0  0  3  0  0  0  0  0  0
  -20.6790  -26.9400   22.5430 C   0  0  0  0  0  2  0  0  0  0  0  0
  -19.5760  -26.6400   21.5220 C   0  0  0  0  0  2  0  0  0  0  0  0
  -18.1940  -26.7910   22.1640 C   0  0  0  0  0  2  0  0  0  0  0  0
  -19.1530  -28.8830   23.2940 C   0  0  0  0  0  0  0  0  0  0  0  0
  -18.9460  -30.1430   23.8940 C   0  0  0  0  0  3  0  0  0  0  0  0
  -17.6460  -30.6590   24.0580 C   0  0  0  0  0  3  0  0  0  0  0  0
  -16.5360  -29.9090   23.6320 C   0  0  0  0  0  3  0  0  0  0  0  0
  -16.7280  -28.6510   23.0340 C   0  0  0  0  0  3  0  0  0  0  0  0
  -25.9000  -32.4830   23.8410 C   0  0  0  0  0  3  0  0  0  0  0  0
  -26.4470  -31.6580   25.0700 C   0  0  1  0  0  0  0  0  0  0  0  0
  -25.3770  -31.3660   26.1480 C   0  0  0  0  0  1  0  0  0  0  0  0
  -27.0270  -30.3020   24.6030 C   0  0  0  0  0  1  0  0  0  0  0  0
  -27.6050  -32.4280   25.7470 C   0  0  0  0  0  1  0  0  0  0  0  0
  -25.5880  -33.8640   24.2350 N   0  0  0  0  0  0  0  0  0  0  0  0
  -25.9020  -34.9480   23.5140 C   0  0  0  0  0  0  0  0  0  0  0  0
  -26.5580  -34.8930   22.4700 O   0  0  0  0  0  0  0  0  0  0  0  0
  -25.0060  -33.9830   25.0510 H   0  0  0  0  0  0  0  0  0  0  0  0
  -24.1480  -36.7330   23.2640 C   0  0  0  0  0  1  0  0  0  0  0  0
  -25.4100  -36.3120   24.0340 C   0  0  0  0  0  3  0  0  0  0  0  0
  -27.5580  -37.1810   24.8460 C   0  0  0  0  0  1  0  0  0  0  0  0
  -26.4290  -37.3800   23.9410 N   0  0  0  0  0  0  0  0  0  0  0  0
  -26.0190  -38.2880   24.1400 H   0  0  0  0  0  0  0  0  0  0  0  0
  1  2  1  0
  1 55  1  0
  2  4  1  0
  2  3  1  0
  5  6  1  0
  5  2  1  0
  6  8  1  0
  7  8  1  0
  7 11  1  0
  8 10  1  0
  9  7  2  0
 12 13  1  0
 13 15  1  0
 13 11  1  0
 14 12  2  0
 16 12  1  0
 17 25  1  0
 18 23  1  0
 19 20  1  0
 19 18  1  0
 21 20  1  0
 21 30  1  0
 21 22  1  0
 23 17  1  0
 23 22  1  0
 24 17  2  0
 25 26  1  0
 25 16  1  0
 27 28  2  0
 28 47  1  0
 29 28  1  0
 29 32  1  0
 30 27  1  0
 30 31  1  0
 31 29  2  0
 32 33  1  0
 33 34  2  0
 35 38  1  0
 35 34  1  0
 36 35  2  0
 37 36  1  0
 37 32  2  0
 38 39  1  0
 39 40  1  0
 40 41  2  0
 42 41  1  0
 42 46  1  0
 43 42  2  0
 44 39  2  0
 44 43  1  0
 45 44  1  0
 47 48  1  0
 48 51  1  0
 48 50  1  0
 49 47  2  0
 52 53  1  0
 52 27  1  0
 54 52  1  0
 56 55  1  0
 56 57  1  0
 58 59  1  0
 58 57  1  0
 60 61  1  0
 60 59  1  0
 62 60  1  0
 63 60  1  0
 64 63  1  0
 65 64  1  0
 66 65  1  0
 67 78  2  0
 68 66  1  0
 68 73  1  0
 69 77  1  0
 69 79  1  0
 70 76  1  0
 70 72  1  0
 71 77  1  0
 72 71  1  0
 73 72  2  0
 74 75  1  0
 74 68  2  0
 75 70  2  0
 76 69  1  0
 77 67  1  0
 79 81  2  0
 80 79  1  0
 82 80  1  0
 83 92  2  0
 83 88  1  0
 84 80  1  0
 84 88  1  0
 85 84  1  0
 86 87  1  0
 86 85  1  0
 87 83  1  0
 88 89  2  0
 89 90  1  0
 91 90  2  0
 92 91  1  0
 93 67  1  0
 93 98  1  0
 93 94  1  0
 94 97  1  1
 94 95  1  0
 96 94  1  0
 98101  1  0
 99103  1  0
 99 98  1  0
100 99  2  0
103102  1  0
105103  1  0
105106  1  0
105104  1  0
M  ISO  4  17 100  25 100  65 101  66 101
M  END
>  <TORSDO>  (20) 
F 32

>  <SCORE>  (20) 
17.304

>  <name>  (20) 
22

>  <ligand_id>  (20) 
22

>  <original_smiles>  (20) 
[H]c1c([H])c([H])c2c(c1[H])C([H])([H])C([H])([H])C([H])([H])C2([H])N([H])C(=O)C1([H])N(C(=O)C([H])(N([H])C(=O)C([H])(N([H])C([H])([H])[H])C([H])([H])[H])C(C([H])([H])[H])(C([H])([H])[H])C([H])([H])[H])C([H])([H])c2c([H])c(OC([H])([H])C([H])([H])C([H])([H])[N+]([H])([H])C([H])([H])C([H])([H])C([H])([H])C([H])([H])C([H])([H])C([H])([H])[N+]([H])([H])C([H])([H])C([H])([H])N([H])C(=O)C([H])([H])N([H])C(=O)C([H])([H])N([H])C(=O)N3C([H])([H])C([H])([H])C([H])([H])C([H])(n4nc(-c5c([H])c([H])c(Oc6c([H])c([H])c(F)c([H])c6F)c([H])c5[H])c(C(=O)N([H])[H])c4N([H])[H])C3([H])[H])c([H])c([H])c2C1([H])[H]

>  <smiles>  (20) 
[H]c1c([H])c([H])c2c(c1[H])C([H])([H])C([H])([H])C([H])([H])C2([H])N([H])C(=O)C1([H])N(C(=O)C([H])(N([H])C(=O)C([H])(N([H])C([H])([H])[H])C([H])([H])[H])C(C([H])([H])[H])(C([H])([H])[H])C([H])([H])[H])C([H])([H])c2c([H])c(OC([H])([H])C([H])([H])C([H])([H])[N+]([H])([H])C([H])([H])C([H])([H])C([H])([H])C([H])([H])C([H])([H])C([H])([H])[N+]([H])([H])C([H])([H])C([H])([H])N([H])C(=O)C([H])([H])N([H])C(=O)C([H])([H])N([H])C(=O)N3C([H])([H])C([H])([H])C([H])([H])C([H])(n4nc(-c5c([H])c([H])c(Oc6c([H])c([H])c(F)c([H])c6F)c([H])c5[H])c(C(=O)N([H])[H])c4N([H])[H])C3([H])[H])c([H])c([H])c2C1([H])[H]

$$$$
24:0:0
     RDKit          3D

104111  0  0  1  0  0  0  0  0999 V2000
  -23.2230  -27.7490   24.6140 C   0  0  0  0  0  2  0  0  0  0  0  0
  -21.8170  -28.7270   24.0670 C   0  0  0  0  0  2  0  0  0  0  0  0
  -20.8410  -29.2810   22.5940 C   0  0  0  0  0  2  0  0  0  0  0  0
  -19.6640  -27.9630   20.1280 C   0  0  0  0  0  0  0  0  0  0  0  0
  -19.8560  -28.6140   21.4270 N   0  0  0  0  0  0  0  0  0  0  0  0
  -18.4700  -27.7790   19.9130 O   0  0  0  0  0  0  0  0  0  0  0  0
  -18.9170  -28.6780   21.7970 H   0  0  0  0  0  0  0  0  0  0  0  0
  -20.6230  -27.4030   18.7990 C   0  0  0  0  0  2  0  0  0  0  0  0
  -21.8880  -26.4670   18.6390 O   0  0  0  0  0  0  0  0  0  0  0  0
  -23.2910  -26.5330   17.9630 C   0  0  0  0  0  3  0  0  0  0  0  0
  -24.0170  -25.8480   16.6730 C   0  0  0  0  0  3  0  0  0  0  0  0
  -25.6390  -26.1650   16.3120 C   0  0  0  0  0  2  0  0  0  0  0  0
  -26.3440  -27.4090   15.7320 O   0  0  0  0  0  0  0  0  0  0  0  0
  -26.7180  -28.4760   22.4740 C   0  0  0  0  0  0  0  0  0  0  0  0
  -26.0860  -28.4500   16.5350 C   0  0  0  0  0  0  0  0  0  0  0  0
  -24.5870  -28.1930   21.1620 C   0  0  0  0  0  3  0  0  0  0  0  0
  -24.6570  -29.0870   18.7740 C   0  0  0  0  0  0  0  0  0  0  0  0
  -26.6600  -29.3510   20.1940 C   0  0  0  0  0  2  0  0  0  0  0  0
  -26.0470  -29.0700   18.8480 C   0  0  0  0  0  0  0  0  0  0  0  0
  -26.8060  -28.7140   17.7180 C   0  0  0  0  0  3  0  0  0  0  0  0
  -24.7570  -28.8120   16.3910 C   0  0  0  0  0  3  0  0  0  0  0  0
  -23.9950  -29.0090   17.5400 C   0  0  0  0  0  3  0  0  0  0  0  0
  -23.9690  -29.1370   20.0930 C   0  0  0  0  0  2  0  0  0  0  0  0
  -26.0120  -28.6470   21.3250 N   0  0  0  0  0  0  0  0  0  0  0  0
  -26.2570  -27.9760   23.4870 O   0  0  0  0  0  0  0  0  0  0  0  0
  -24.5280  -26.6240   20.8350 C   0  0  0  0  0  0  0  0  0  0  0  0
  -23.3650  -25.8360   20.8620 N   0  0  0  0  0  0  0  0  0  0  0  0
  -25.6020  -26.1680   20.5310 O   0  0  0  0  0  0  0  0  0  0  0  0
  -22.7060  -26.5080   21.2350 H   0  0  0  0  0  0  0  0  0  0  0  0
  -20.3050  -23.5870   20.1620 C   0  0  0  0  0  0  0  0  0  0  0  0
  -22.6000  -24.5200   21.1640 C   0  0  0  0  0  3  0  0  0  0  0  0
  -23.1870  -23.4420   20.2630 C   0  0  0  0  0  2  0  0  0  0  0  0
  -22.4600  -23.2360   18.9450 C   0  0  0  0  0  2  0  0  0  0  0  0
  -21.0720  -22.7180   19.2030 C   0  0  0  0  0  2  0  0  0  0  0  0
  -20.9680  -24.4140   21.1150 C   0  0  0  0  0  0  0  0  0  0  0  0
  -20.0360  -24.9870   22.0470 C   0  0  0  0  0  3  0  0  0  0  0  0
  -18.6390  -24.9990   21.9160 C   0  0  0  0  0  3  0  0  0  0  0  0
  -18.0540  -24.2100   20.9330 C   0  0  0  0  0  3  0  0  0  0  0  0
  -18.8960  -23.4680   20.0960 C   0  0  0  0  0  3  0  0  0  0  0  0
  -28.1910  -28.9210   22.6190 C   0  0  0  0  0  3  0  0  0  0  0  0
  -29.1800  -27.7040   22.4880 C   0  0  1  0  0  0  0  0  0  0  0  0
  -28.9450  -26.5610   23.5060 C   0  0  0  0  0  1  0  0  0  0  0  0
  -29.1240  -27.0940   21.0680 C   0  0  0  0  0  1  0  0  0  0  0  0
  -30.6220  -28.2090   22.6910 C   0  0  0  0  0  1  0  0  0  0  0  0
  -28.3160  -29.5440   23.9470 N   0  0  0  0  0  0  0  0  0  0  0  0
  -28.3010  -30.8610   24.1710 C   0  0  0  0  0  0  0  0  0  0  0  0
  -28.2690  -31.6890   23.2580 O   0  0  0  0  0  0  0  0  0  0  0  0
  -28.2900  -28.9200   24.7400 H   0  0  0  0  0  0  0  0  0  0  0  0
  -26.9400  -31.7780   26.0830 C   0  0  0  0  0  1  0  0  0  0  0  0
  -28.3440  -31.3350   25.6360 C   0  0  0  0  0  3  0  0  0  0  0  0
  -30.7020  -32.0050   25.7600 C   0  0  0  0  0  1  0  0  0  0  0  0
  -29.3100  -32.4310   25.8650 N   0  0  0  0  0  0  0  0  0  0  0  0
  -29.1710  -32.8500   26.7810 H   0  0  0  0  0  0  0  0  0  0  0  0
  -23.8810  -26.1380   24.3290 C   0  0  0  0  0  2  0  0  0  0  0  0
  -25.4860  -25.5900   24.0070 C   0  0  0  0  0  2  0  0  0  0  0  0
  -25.9730  -24.3980   22.8550 C   0  0  0  0  0  2  0  0  0  0  0  0
  -27.8300  -23.2680   21.0920 C   0  0  0  0  0  0  0  0  0  0  0  0
  -27.3860  -24.1920   22.1070 N   0  0  0  0  0  0  0  0  0  0  0  0
  -27.1080  -22.2950   20.8790 O   0  0  0  0  0  0  0  0  0  0  0  0
  -28.0670  -24.9130   22.3150 H   0  0  0  0  0  0  0  0  0  0  0  0
  -29.1850  -23.3730   20.0960 C   0  0  0  0  0  2  0  0  0  0  0  0
  -30.5640  -22.4600   17.8220 C   0  0  0  0  0  0  0  0  0  0  0  0
  -29.7800  -22.3270   19.0210 N   0  0  0  0  0  0  0  0  0  0  0  0
  -30.6250  -23.5770   17.3130 O   0  0  0  0  0  0  0  0  0  0  0  0
  -29.6890  -21.3680   19.3340 H   0  0  0  0  0  0  0  0  0  0  0  0
  -31.5170  -21.2940   17.0720 C   0  0  0  0  0  2  0  0  0  0  0  0
  -33.1210  -20.6640   14.7760 C   0  0  0  0  0  0  0  0  0  0  0  0
  -34.0080  -20.5150   12.3540 C   0  0  0  0  0  2  0  0  0  0  0  0
  -34.0620  -21.8980   11.6520 C   0  0  0  0  0  2  0  0  0  0  0  0
  -32.6710  -22.3310   11.1400 C   0  0  0  0  0  2  0  0  0  0  0  0
  -31.5710  -22.0830   12.2030 C   0  0  0  0  0  3  0  0  0  0  0  0
  -31.6420  -20.6480   12.7450 C   0  0  0  0  0  2  0  0  0  0  0  0
  -32.9380  -20.5380   13.4030 N   0  0  0  0  0  0  0  0  0  0  0  0
  -34.2500  -20.3700   15.2100 O   0  0  0  0  0  0  0  0  0  0  0  0
  -32.0310  -21.2030   15.5550 N   0  0  0  0  0  0  0  0  0  0  0  0
  -31.2920  -21.4870   14.9310 H   0  0  0  0  0  0  0  0  0  0  0  0
  -29.3130  -23.2760   12.2300 C   0  0  0  0  0  0  0  0  0  0  0  0
  -28.2380  -23.2160   11.3910 C   0  0  0  0  0  0  0  0  0  0  0  0
  -28.5740  -22.2530   10.3870 C   0  0  0  0  0  0  0  0  0  0  0  0
  -30.2370  -22.3820   11.7190 N   0  0  0  0  0  0  0  0  0  0  0  0
  -29.7590  -21.7180   10.6380 N   0  0  0  0  0  0  0  0  0  0  0  0
  -27.8630  -21.8580    9.1680 C   0  0  0  0  0  0  0  0  0  0  0  0
  -27.4750  -20.5190    8.9380 C   0  0  0  0  0  3  0  0  0  0  0  0
  -26.7780  -20.1700    7.7630 C   0  0  0  0  0  3  0  0  0  0  0  0
  -26.4570  -21.1630    6.8070 C   0  0  0  0  0  0  0  0  0  0  0  0
  -26.8660  -22.4890    7.0300 C   0  0  0  0  0  3  0  0  0  0  0  0
  -27.5650  -22.8350    8.1970 C   0  0  0  0  0  3  0  0  0  0  0  0
  -25.8010  -20.9120    5.6270 O   0  0  0  0  0  0  0  0  0  0  0  0
  -24.8940  -19.8900    5.5100 C   0  0  0  0  0  0  0  0  0  0  0  0
  -23.7350  -19.8290    6.3140 C   0  0  0  0  0  3  0  0  0  0  0  0
  -22.7940  -18.7990    6.1130 C   0  0  0  0  0  3  0  0  0  0  0  0
  -23.0030  -17.8380    5.1050 C   0  0  0  0  0  0  0  0  0  0  0  0
  -24.1530  -17.9030    4.3000 C   0  0  0  0  0  3  0  0  0  0  0  0
  -25.0950  -18.9280    4.5000 C   0  0  0  0  0  0  0  0  0  0  0  0
  -26.1920  -18.9970    3.7070 F   0  0  0  0  0  0  0  0  0  0  0  0
  -22.0950  -16.8550    4.9060 F   0  0  0  0  0  0  0  0  0  0  0  0
  -27.0110  -24.0750   11.4520 C   0  0  0  0  0  0  0  0  0  0  0  0
  -25.8610  -23.5320   11.0720 N   0  0  0  0  0  0  0  0  0  0  0  0
  -27.0600  -25.2250   11.8910 O   0  0  0  0  0  0  0  0  0  0  0  0
  -25.8170  -22.5820   10.7340 H   0  0  0  0  0  0  0  0  0  0  0  0
  -25.0100  -24.0760   11.1180 H   0  0  0  0  0  0  0  0  0  0  0  0
  -29.5980  -24.0280   13.3680 N   0  0  0  0  0  0  0  0  0  0  0  0
  -28.9650  -24.7470   13.7020 H   0  0  0  0  0  0  0  0  0  0  0  0
  -30.5070  -24.0720   13.8090 H   0  0  0  0  0  0  0  0  0  0  0  0
  2  1  1  0
  3  2  1  0
  4  5  1  0
  5  7  1  0
  5  3  1  0
  6  4  2  0
  8  4  1  0
  9  8  1  0
 10  9  1  0
 11 10  2  0
 12 11  1  0
 13 12  1  0
 13 15  1  0
 14 25  2  0
 15 20  1  0
 16 26  1  0
 16 24  1  0
 17 19  1  0
 17 23  1  0
 18 24  1  0
 19 18  1  0
 20 19  2  0
 21 15  2  0
 21 22  1  0
 22 17  2  0
 23 16  1  0
 24 14  1  0
 26 27  1  0
 27 29  1  0
 28 26  2  0
 30 35  1  0
 31 27  1  0
 32 31  1  0
 33 34  1  0
 33 32  1  0
 34 30  1  0
 35 31  1  0
 35 36  2  0
 37 36  1  0
 38 37  2  0
 39 30  2  0
 39 38  1  0
 40 14  1  0
 40 45  1  0
 41 40  1  0
 41 44  1  1
 41 42  1  0
 43 41  1  0
 45 46  1  0
 45 48  1  0
 46 50  1  0
 47 46  2  0
 50 52  1  0
 50 49  1  0
 51 52  1  0
 52 53  1  0
 54  1  1  0
 55 54  1  0
 56 55  1  0
 57 58  1  0
 58 60  1  0
 58 56  1  0
 59 57  2  0
 61 57  1  0
 62 63  1  0
 63 65  1  0
 63 61  1  0
 64 62  2  0
 66 62  1  0
 67 74  2  0
 67 75  1  0
 68 73  1  0
 69 68  1  0
 70 69  1  0
 71 70  1  0
 71 72  1  0
 72 73  1  0
 73 67  1  0
 75 66  1  0
 76 75  1  0
 77102  1  0
 78 97  1  0
 78 77  2  0
 79 81  2  0
 79 78  1  0
 80 71  1  0
 80 77  1  0
 81 80  1  0
 82 79  1  0
 83 82  1  0
 84 83  2  0
 85 86  2  0
 85 84  1  0
 86 87  1  0
 87 82  2  0
 88 85  1  0
 89 88  1  0
 89 90  1  0
 91 90  2  0
 92 91  1  0
 93 94  1  0
 93 92  2  0
 94 89  2  0
 95 94  1  0
 96 92  1  0
 97 99  2  0
 98101  1  0
 98 97  1  0
100 98  1  0
102103  1  0
102104  1  0
M  ISO  4  12 101  13 101  67 100  75 100
M  END
>  <TORSDO>  (21) 
F 31

>  <SCORE>  (21) 
-3.575

>  <name>  (21) 
24

>  <ligand_id>  (21) 
24

>  <original_smiles>  (21) 
[H]c1c([H])c([H])c2c(c1[H])C([H])([H])C([H])([H])C([H])([H])C2([H])N([H])C(=O)C1([H])N(C(=O)C([H])(N([H])C(=O)C([H])(N([H])C([H])([H])[H])C([H])([H])[H])C(C([H])([H])[H])(C([H])([H])[H])C([H])([H])[H])C([H])([H])c2c([H])c(OC([H])([H])C([H])([H])C([H])([H])OC([H])([H])C(=O)N([H])C([H])([H])C([H])([H])C([H])([H])C([H])([H])C([H])([H])C([H])([H])N([H])C(=O)C([H])([H])N([H])C(=O)C([H])([H])N([H])C(=O)N3C([H])([H])C([H])([H])C([H])([H])C([H])(n4nc(-c5c([H])c([H])c(Oc6c([H])c([H])c(F)c([H])c6F)c([H])c5[H])c(C(=O)N([H])[H])c4N([H])[H])C3([H])[H])c([H])c([H])c2C1([H])[H]

>  <smiles>  (21) 
[H]c1c([H])c([H])c2c(c1[H])C([H])([H])C([H])([H])C([H])([H])C2([H])N([H])C(=O)C1([H])N(C(=O)C([H])(N([H])C(=O)C([H])(N([H])C([H])([H])[H])C([H])([H])[H])C(C([H])([H])[H])(C([H])([H])[H])C([H])([H])[H])C([H])([H])c2c([H])c(OC([H])([H])C([H])([H])C([H])([H])OC([H])([H])C(=O)N([H])C([H])([H])C([H])([H])C([H])([H])C([H])([H])C([H])([H])C([H])([H])N([H])C(=O)C([H])([H])N([H])C(=O)C([H])([H])N([H])C(=O)N3C([H])([H])C([H])([H])C([H])([H])C([H])(n4nc(-c5c([H])c([H])c(Oc6c([H])c([H])c(F)c([H])c6F)c([H])c5[H])c(C(=O)N([H])[H])c4N([H])[H])C3([H])[H])c([H])c([H])c2C1([H])[H]

$$$$
25:0:0
     RDKit          3D

109116  0  0  1  0  0  0  0  0999 V2000
  -34.7340  -22.7870   16.9310 C   0  0  0  0  0  0  0  0  0  0  0  0
  -34.7260  -21.8800   15.9490 N   0  0  0  0  0  0  0  0  0  0  0  0
  -33.8330  -23.6220   17.0600 O   0  0  0  0  0  0  0  0  0  0  0  0
  -35.4990  -21.2280   15.9200 H   0  0  0  0  0  0  0  0  0  0  0  0
  -35.9110  -22.7470   17.9110 C   0  0  0  0  0  2  0  0  0  0  0  0
  -35.0510  -21.9490   20.0930 C   0  0  0  0  0  0  0  0  0  0  0  0
  -35.4560  -22.9350   19.2870 N   0  0  0  0  0  0  0  0  0  0  0  0
  -35.0800  -20.7650   19.7470 O   0  0  0  0  0  0  0  0  0  0  0  0
  -35.3810  -23.8870   19.6180 H   0  0  0  0  0  0  0  0  0  0  0  0
  -34.5470  -22.3520   21.4870 C   0  0  0  0  0  2  0  0  0  0  0  0
  -32.8910  -20.6060   22.0810 C   0  0  0  0  0  0  0  0  0  0  0  0
  -34.0710  -21.2070   22.2650 N   0  0  0  0  0  0  0  0  0  0  0  0
  -32.0410  -21.0490   21.3010 O   0  0  0  0  0  0  0  0  0  0  0  0
  -34.7300  -20.7790   22.9010 H   0  0  0  0  0  0  0  0  0  0  0  0
  -32.6230  -19.3160   22.8630 C   0  0  0  0  0  2  0  0  0  0  0  0
  -31.3180  -17.2680   22.2600 C   0  0  0  0  0  0  0  0  0  0  0  0
  -31.6020  -18.5640   22.1460 N   0  0  0  0  0  0  0  0  0  0  0  0
  -31.8770  -16.5260   23.0700 O   0  0  0  0  0  0  0  0  0  0  0  0
  -31.1100  -19.1130   21.4500 H   0  0  0  0  0  0  0  0  0  0  0  0
  -30.2210  -16.7570   21.3270 C   0  0  0  0  0  2  0  0  0  0  0  0
  -30.7040  -14.4090   20.6420 C   0  0  0  0  0  0  0  0  0  0  0  0
  -30.4360  -12.2920   19.4080 C   0  0  0  0  0  2  0  0  0  0  0  0
  -29.5010  -12.5180   18.2000 C   0  0  0  0  0  2  0  0  0  0  0  0
  -28.0190  -12.3800   18.6050 C   0  0  0  0  0  2  0  0  0  0  0  0
  -27.6700  -13.1930   19.8800 C   0  0  0  0  0  3  0  0  0  0  0  0
  -28.7040  -12.9150   20.9960 C   0  0  0  0  0  2  0  0  0  0  0  0
  -30.0470  -13.2320   20.4690 N   0  0  0  0  0  0  0  0  0  0  0  0
  -31.7720  -14.6850   20.0880 O   0  0  0  0  0  0  0  0  0  0  0  0
  -30.0210  -15.3100   21.3580 N   0  0  0  0  0  0  0  0  0  0  0  0
  -29.1840  -14.9810   21.8120 H   0  0  0  0  0  0  0  0  0  0  0  0
  -25.2640  -13.8130   20.5650 C   0  0  0  0  0  0  0  0  0  0  0  0
  -24.1840  -13.0460   20.9130 C   0  0  0  0  0  0  0  0  0  0  0  0
  -24.6370  -11.6910   20.8700 C   0  0  0  0  0  0  0  0  0  0  0  0
  -26.3050  -12.9270   20.3310 N   0  0  0  0  0  0  0  0  0  0  0  0
  -25.9280  -11.6440   20.5690 N   0  0  0  0  0  0  0  0  0  0  0  0
  -23.9020  -10.4300   21.0400 C   0  0  0  0  0  0  0  0  0  0  0  0
  -24.3590   -9.4220   21.9180 C   0  0  0  0  0  3  0  0  0  0  0  0
  -23.6250   -8.2270   22.0760 C   0  0  0  0  0  3  0  0  0  0  0  0
  -22.4230   -8.0300   21.3550 C   0  0  0  0  0  0  0  0  0  0  0  0
  -21.9860   -9.0270   20.4670 C   0  0  0  0  0  3  0  0  0  0  0  0
  -22.7210  -10.2140   20.3050 C   0  0  0  0  0  3  0  0  0  0  0  0
  -21.6630   -6.8870   21.4230 O   0  0  0  0  0  0  0  0  0  0  0  0
  -21.6860   -6.0720   22.5270 C   0  0  0  0  0  0  0  0  0  0  0  0
  -21.4030   -6.5630   23.8210 C   0  0  0  0  0  3  0  0  0  0  0  0
  -21.3640   -5.6780   24.9170 C   0  0  0  0  0  3  0  0  0  0  0  0
  -21.6040   -4.3040   24.7220 C   0  0  0  0  0  0  0  0  0  0  0  0
  -21.8820   -3.8130   23.4350 C   0  0  0  0  0  3  0  0  0  0  0  0
  -21.9200   -4.6940   22.3400 C   0  0  0  0  0  0  0  0  0  0  0  0
  -22.1670   -4.2140   21.0970 F   0  0  0  0  0  0  0  0  0  0  0  0
  -21.5600   -3.4520   25.7730 F   0  0  0  0  0  0  0  0  0  0  0  0
  -22.7880  -13.5310   21.1770 C   0  0  0  0  0  0  0  0  0  0  0  0
  -22.0490  -12.8350   22.0340 N   0  0  0  0  0  0  0  0  0  0  0  0
  -22.3590  -14.5620   20.6610 O   0  0  0  0  0  0  0  0  0  0  0  0
  -22.4070  -12.0060   22.4840 H   0  0  0  0  0  0  0  0  0  0  0  0
  -21.1100  -13.1420   22.2480 H   0  0  0  0  0  0  0  0  0  0  0  0
  -25.4400  -15.1850   20.4080 N   0  0  0  0  0  0  0  0  0  0  0  0
  -24.6770  -15.8450   20.5140 H   0  0  0  0  0  0  0  0  0  0  0  0
  -26.2970  -15.6200   20.0870 H   0  0  0  0  0  0  0  0  0  0  0  0
  -33.7370  -21.7820   14.8760 C   0  0  0  0  0  2  0  0  0  0  0  0
  -32.5460  -20.8540   15.2110 C   0  0  0  0  0  2  0  0  0  0  0  0
  -31.7330  -21.2170   16.4710 C   0  0  0  0  0  2  0  0  0  0  0  0
  -31.2590  -22.6170   16.4490 N   0  0  0  0  0  4  0  0  0  0  0  0
  -32.0840  -23.2090   16.4600 H   0  0  0  0  0  0  0  0  0  0  0  0
  -30.7400  -22.7880   15.6020 H   0  0  0  0  0  0  0  0  0  0  0  0
  -30.4390  -22.9970   17.6130 C   0  0  0  0  0  2  0  0  0  0  0  0
  -30.0110  -24.4710   17.5390 C   0  0  0  0  0  2  0  0  0  0  0  0
  -29.2950  -24.9320   18.8160 C   0  0  0  0  0  2  0  0  0  0  0  0
  -28.9220  -26.4160   18.7790 C   0  0  0  0  0  2  0  0  0  0  0  0
  -28.4310  -26.7940   20.0600 O   0  0  0  0  0  0  0  0  0  0  0  0
  -24.6100  -31.8700   23.2130 C   0  0  0  0  0  0  0  0  0  0  0  0
  -27.2470  -27.4850   20.0730 C   0  0  0  0  0  0  0  0  0  0  0  0
  -23.3970  -30.4920   21.5520 C   0  0  0  0  0  3  0  0  0  0  0  0
  -24.8450  -28.9590   20.1160 C   0  0  0  0  0  0  0  0  0  0  0  0
  -25.9200  -30.8450   21.3620 C   0  0  0  0  0  2  0  0  0  0  0  0
  -25.9980  -29.4800   20.7170 C   0  0  0  0  0  0  0  0  0  0  0  0
  -27.1980  -28.7410   20.7090 C   0  0  0  0  0  3  0  0  0  0  0  0
  -26.0780  -26.9570   19.4850 C   0  0  0  0  0  3  0  0  0  0  0  0
  -24.8750  -27.6920   19.5060 C   0  0  0  0  0  3  0  0  0  0  0  0
  -23.6040  -29.8200   20.1670 C   0  0  0  0  0  2  0  0  0  0  0  0
  -24.6600  -31.0840   22.1010 N   0  0  0  0  0  0  0  0  0  0  0  0
  -23.5300  -32.1440   23.7550 O   0  0  0  0  0  0  0  0  0  0  0  0
  -22.7380  -29.4660   22.5020 C   0  0  0  0  0  0  0  0  0  0  0  0
  -21.4120  -29.3030   22.3740 N   0  0  0  0  0  0  0  0  0  0  0  0
  -23.4170  -28.8210   23.3040 O   0  0  0  0  0  0  0  0  0  0  0  0
  -20.9270  -29.8750   21.6980 H   0  0  0  0  0  0  0  0  0  0  0  0
  -18.0260  -28.1370   22.8490 C   0  0  0  0  0  0  0  0  0  0  0  0
  -20.5850  -28.3650   23.1330 C   0  0  0  0  0  3  0  0  0  0  0  0
  -20.6750  -26.9390   22.5420 C   0  0  0  0  0  2  0  0  0  0  0  0
  -19.5740  -26.6390   21.5210 C   0  0  0  0  0  2  0  0  0  0  0  0
  -18.1910  -26.7920   22.1620 C   0  0  0  0  0  2  0  0  0  0  0  0
  -19.1510  -28.8830   23.2910 C   0  0  0  0  0  0  0  0  0  0  0  0
  -18.9440  -30.1430   23.8920 C   0  0  0  0  0  3  0  0  0  0  0  0
  -17.6450  -30.6580   24.0570 C   0  0  0  0  0  3  0  0  0  0  0  0
  -16.5340  -29.9090   23.6320 C   0  0  0  0  0  3  0  0  0  0  0  0
  -16.7260  -28.6500   23.0350 C   0  0  0  0  0  3  0  0  0  0  0  0
  -25.9010  -32.4830   23.8410 C   0  0  0  0  0  3  0  0  0  0  0  0
  -26.4450  -31.6610   25.0720 C   0  0  1  0  0  0  0  0  0  0  0  0
  -25.3750  -31.3710   26.1490 C   0  0  0  0  0  1  0  0  0  0  0  0
  -27.0270  -30.3050   24.6070 C   0  0  0  0  0  1  0  0  0  0  0  0
  -27.6050  -32.4320   25.7460 C   0  0  0  0  0  1  0  0  0  0  0  0
  -25.5870  -33.8640   24.2350 N   0  0  0  0  0  0  0  0  0  0  0  0
  -25.9020  -34.9480   23.5140 C   0  0  0  0  0  0  0  0  0  0  0  0
  -26.5580  -34.8930   22.4700 O   0  0  0  0  0  0  0  0  0  0  0  0
  -25.0040  -33.9810   25.0500 H   0  0  0  0  0  0  0  0  0  0  0  0
  -24.1490  -36.7330   23.2640 C   0  0  0  0  0  1  0  0  0  0  0  0
  -25.4100  -36.3120   24.0340 C   0  0  0  0  0  3  0  0  0  0  0  0
  -27.5580  -37.1820   24.8470 C   0  0  0  0  0  1  0  0  0  0  0  0
  -26.4300  -37.3800   23.9390 N   0  0  0  0  0  0  0  0  0  0  0  0
  -26.0200  -38.2880   24.1350 H   0  0  0  0  0  0  0  0  0  0  0  0
  1  3  2  0
  1  5  1  0
  2  1  1  0
  4  2  1  0
  5  7  1  0
  6 10  1  0
  7  9  1  0
  7  6  1  0
  8  6  2  0
 10 12  1  0
 11 12  1  0
 11 15  1  0
 12 14  1  0
 13 11  2  0
 16 18  2  0
 17 16  1  0
 17 15  1  0
 19 17  1  0
 20 29  1  0
 20 16  1  0
 21 29  1  0
 22 27  1  0
 23 24  1  0
 23 22  1  0
 25 24  1  0
 25 34  1  0
 25 26  1  0
 27 21  1  0
 27 26  1  0
 28 21  2  0
 29 30  1  0
 31 32  2  0
 32 51  1  0
 33 32  1  0
 33 36  1  0
 34 31  1  0
 34 35  1  0
 35 33  2  0
 36 37  1  0
 37 38  2  0
 39 42  1  0
 39 38  1  0
 40 39  2  0
 41 40  1  0
 41 36  2  0
 42 43  1  0
 43 44  1  0
 44 45  2  0
 46 45  1  0
 46 50  1  0
 47 46  2  0
 48 43  2  0
 48 47  1  0
 49 48  1  0
 51 52  1  0
 52 55  1  0
 52 54  1  0
 53 51  2  0
 56 57  1  0
 56 31  1  0
 58 56  1  0
 59 60  1  0
 59  2  1  0
 60 61  1  0
 62 63  1  0
 62 61  1  0
 62 65  1  0
 64 62  1  0
 66 65  1  0
 66 67  1  0
 68 67  1  0
 68 69  1  0
 69 71  1  0
 70 81  2  0
 71 76  1  0
 72 80  1  0
 72 82  1  0
 73 79  1  0
 73 75  1  0
 74 80  1  0
 75 74  1  0
 76 75  2  0
 77 78  1  0
 77 71  2  0
 78 73  2  0
 79 72  1  0
 80 70  1  0
 82 84  2  0
 83 82  1  0
 85 83  1  0
 86 95  2  0
 86 91  1  0
 87 83  1  0
 87 91  1  0
 88 87  1  0
 89 90  1  0
 89 88  1  0
 90 86  1  0
 91 92  2  0
 92 93  1  0
 94 93  2  0
 95 94  1  0
 96 70  1  0
 96101  1  0
 96 97  1  0
 97100  1  1
 97 98  1  0
 99 97  1  0
101104  1  0
102106  1  0
102101  1  0
103102  2  0
106105  1  0
108106  1  0
108109  1  0
108107  1  0
M  ISO  4  21 100  29 100  68 101  69 101
M  END
>  <TORSDO>  (22) 
F 31

>  <SCORE>  (22) 
-8.619

>  <name>  (22) 
25

>  <ligand_id>  (22) 
25

>  <original_smiles>  (22) 
[H]c1c([H])c([H])c2c(c1[H])C([H])([H])C([H])([H])C([H])([H])C2([H])N([H])C(=O)C1([H])N(C(=O)C([H])(N([H])C(=O)C([H])(N([H])C([H])([H])[H])C([H])([H])[H])C(C([H])([H])[H])(C([H])([H])[H])C([H])([H])[H])C([H])([H])c2c([H])c(OC([H])([H])C([H])([H])C([H])([H])C([H])([H])[N+]([H])([H])C([H])([H])C([H])([H])C([H])([H])N([H])C(=O)C([H])([H])N([H])C(=O)C([H])([H])N([H])C(=O)C([H])([H])N([H])C(=O)C([H])([H])N([H])C(=O)N3C([H])([H])C([H])([H])C([H])([H])C([H])(n4nc(-c5c([H])c([H])c(Oc6c([H])c([H])c(F)c([H])c6F)c([H])c5[H])c(C(=O)N([H])[H])c4N([H])[H])C3([H])[H])c([H])c([H])c2C1([H])[H]

>  <smiles>  (22) 
[H]c1c([H])c([H])c2c(c1[H])C([H])([H])C([H])([H])C([H])([H])C2([H])N([H])C(=O)C1([H])N(C(=O)C([H])(N([H])C(=O)C([H])(N([H])C([H])([H])[H])C([H])([H])[H])C(C([H])([H])[H])(C([H])([H])[H])C([H])([H])[H])C([H])([H])c2c([H])c(OC([H])([H])C([H])([H])C([H])([H])C([H])([H])[N+]([H])([H])C([H])([H])C([H])([H])C([H])([H])N([H])C(=O)C([H])([H])N([H])C(=O)C([H])([H])N([H])C(=O)C([H])([H])N([H])C(=O)C([H])([H])N([H])C(=O)N3C([H])([H])C([H])([H])C([H])([H])C([H])(n4nc(-c5c([H])c([H])c(Oc6c([H])c([H])c(F)c([H])c6F)c([H])c5[H])c(C(=O)N([H])[H])c4N([H])[H])C3([H])[H])c([H])c([H])c2C1([H])[H]

$$$$
26:0:0
     RDKit          3D

 95 97  0  0  1  0  0  0  0  0999 V2000
  -24.3180  -26.1850   16.5330 O   0  0  0  0  0  0  0  0  0  0  0  0
  -23.3230  -26.3520   17.6210 C   0  0  0  0  0  2  0  0  0  0  0  0
  -23.2130  -25.4380   18.9490 C   0  0  0  0  0  2  0  0  0  0  0  0
  -24.2060  -25.5040   20.0580 O   0  0  0  0  0  0  0  0  0  0  0  0
  -25.5250  -24.7570   20.2450 C   0  0  0  0  0  1  0  0  0  0  0  0
  -28.1300  -25.9580   20.4440 C   0  0  0  0  0 15  0  0  0  0  0  0
  -28.9280  -27.2650   19.0300 C   0  0  0  0  0  1  0  0  0  0  0  0
  -29.8130  -27.5570   17.4250 O   0  0  0  0  0  0  0  0  0  0  0  0
  -35.0940  -27.0790   16.6750 C   0  0  0  0  0  0  0  0  0  0  0  0
  -29.5990  -28.1720   16.1040 C   0  0  0  0  0  3  0  0  0  0  0  0
  -33.5230  -28.2770   18.0900 C   0  0  0  0  0  3  0  0  0  0  0  0
  -31.5580  -29.5260   16.9780 C   0  0  0  0  0  3  0  0  0  0  0  0
  -33.3020  -28.4240   15.5710 C   0  0  0  0  0  2  0  0  0  0  0  0
  -31.8500  -28.7270   15.8680 C   0  0  0  0  0  3  0  0  0  0  0  0
  -30.7470  -28.1240   15.2430 C   0  0  0  0  0  2  0  0  0  0  0  0
  -29.1980  -29.4530   16.3680 C   0  0  0  0  0  2  0  0  0  0  0  0
  -30.2340  -30.0520   17.1010 C   0  0  0  0  0  2  0  0  0  0  0  0
  -32.6050  -29.5540   18.0610 C   0  0  0  0  0  2  0  0  0  0  0  0
  -34.0340  -27.9240   16.7520 N   0  0  0  0  0  0  0  0  0  0  0  0
  -35.6820  -26.6770   17.6910 O   0  0  0  0  0  0  0  0  0  0  0  0
  -32.9010  -26.9810   18.6590 C   0  0  0  0  0  0  0  0  0  0  0  0
  -33.6480  -25.9250   18.6660 N   0  0  0  0  0  0  0  0  0  0  0  0
  -31.7290  -26.8650   18.9960 O   0  0  0  0  0  0  0  0  0  0  0  0
  -34.5740  -25.9770   18.2680 H   0  0  0  0  0  0  0  0  0  0  0  0
  -34.8360  -22.4890   18.2160 C   0  0  0  0  0  0  0  0  0  0  0  0
  -33.3730  -24.7750   19.5090 C   0  0  0  0  0  2  0  0  0  0  0  0
  -34.2990  -24.6220   21.3870 C   0  0  0  0  0 15  0  0  0  0  0  0
  -35.9000  -23.1590   21.3120 C   0  0  0  0  0 15  0  0  0  0  0  0
  -35.9900  -22.1870   19.5760 C   0  0  0  0  0  1  0  0  0  0  0  0
  -33.7430  -23.6030   18.2020 C   0  0  0  0  0  0  0  0  0  0  0  0
  -32.8000  -23.5820   17.1320 C   0  0  0  0  0  3  0  0  0  0  0  0
  -32.7120  -22.5490   16.1770 C   0  0  0  0  0  3  0  0  0  0  0  0
  -33.5570  -21.4360   16.2860 C   0  0  0  0  0  3  0  0  0  0  0  0
  -34.5710  -21.4090   17.2850 C   0  0  0  0  0  3  0  0  0  0  0  0
  -35.6290  -26.6080   15.3040 C   0  0  0  0  0  3  0  0  0  0  0  0
  -35.7490  -25.0410   15.1910 C   0  0  1  0  0  0  0  0  0  0  0  0
  -36.5000  -24.3790   16.3680 C   0  0  0  0  0  1  0  0  0  0  0  0
  -34.3520  -24.3820   15.0990 C   0  0  0  0  0  1  0  0  0  0  0  0
  -36.4870  -24.6850   13.8810 C   0  0  0  0  0  1  0  0  0  0  0  0
  -36.9370  -27.2510   15.1310 N   0  0  0  0  0  0  0  0  0  0  0  0
  -37.1280  -28.3860   14.4520 C   0  0  0  0  0  0  0  0  0  0  0  0
  -36.2300  -28.9500   13.8240 O   0  0  0  0  0  0  0  0  0  0  0  0
  -37.7050  -26.8670   15.6620 H   0  0  0  0  0  0  0  0  0  0  0  0
  -38.6010  -30.1680   15.4430 C   0  0  0  0  0  1  0  0  0  0  0  0
  -38.5480  -28.9830   14.4650 C   0  0  0  0  0  3  0  0  0  0  0  0
  -39.2800  -28.2950   12.2250 C   0  0  0  0  0  1  0  0  0  0  0  0
  -39.0120  -29.4120   13.1280 N   0  0  0  0  0  0  0  0  0  0  0  0
  -39.8590  -29.9700   13.2020 H   0  0  0  0  0  0  0  0  0  0  0  0
  -24.5520  -24.7860   16.0880 C   0  0  0  0  0  2  0  0  0  0  0  0
  -25.7180  -24.4940   15.0400 C   0  0  0  0  0  0  0  0  0  0  0  0
  -27.0170  -24.7610   15.4030 N   0  0  0  0  0  0  0  0  0  0  0  0
  -25.4530  -23.9530   13.9650 O   0  0  0  0  0  0  0  0  0  0  0  0
  -27.0570  -25.2970   16.2610 H   0  0  0  0  0  0  0  0  0  0  0  0
  -28.3610  -24.1320   15.0670 C   0  0  0  0  0  2  0  0  0  0  0  0
  -28.5190  -23.0190   13.9440 C   0  0  0  0  0  2  0  0  0  0  0  0
  -27.3250  -21.9990   13.5770 C   0  0  0  0  0  2  0  0  0  0  0  0
  -26.8230  -21.6550   12.0970 C   0  0  0  0  0  2  0  0  0  0  0  0
  -25.2930  -22.8040   10.2580 C   0  0  0  0  0  0  0  0  0  0  0  0
  -25.1810  -22.3420    7.8040 C   0  0  0  0  0  2  0  0  0  0  0  0
  -25.2140  -20.8150    7.5710 C   0  0  0  0  0  2  0  0  0  0  0  0
  -26.6630  -20.2810    7.5740 C   0  0  0  0  0  2  0  0  0  0  0  0
  -27.4970  -20.8320    8.7620 C   0  0  0  0  0  3  0  0  0  0  0  0
  -27.3480  -22.3580    8.8780 C   0  0  0  0  0  2  0  0  0  0  0  0
  -25.9210  -22.6210    9.0570 N   0  0  0  0  0  0  0  0  0  0  0  0
  -24.0890  -23.0900   10.2880 O   0  0  0  0  0  0  0  0  0  0  0  0
  -26.0250  -22.7550   11.4280 N   0  0  0  0  0  0  0  0  0  0  0  0
  -25.5570  -23.3100   12.1290 H   0  0  0  0  0  0  0  0  0  0  0  0
  -29.6970  -19.8420    9.6230 C   0  0  0  0  0  0  0  0  0  0  0  0
  -30.9110  -19.6590    9.0220 C   0  0  0  0  0  0  0  0  0  0  0  0
  -30.7760  -20.1730    7.6960 C   0  0  0  0  0  0  0  0  0  0  0  0
  -28.8960  -20.4510    8.6730 N   0  0  0  0  0  0  0  0  0  0  0  0
  -29.5710  -20.6990    7.5230 N   0  0  0  0  0  0  0  0  0  0  0  0
  -31.7010  -20.1340    6.5590 C   0  0  0  0  0  0  0  0  0  0  0  0
  -32.6680  -21.1410    6.3620 C   0  0  0  0  0  3  0  0  0  0  0  0
  -33.5580  -21.0710    5.2710 C   0  0  0  0  0  3  0  0  0  0  0  0
  -33.4900  -19.9850    4.3670 C   0  0  0  0  0  0  0  0  0  0  0  0
  -32.5080  -18.9960    4.5570 C   0  0  0  0  0  3  0  0  0  0  0  0
  -31.6190  -19.0690    5.6410 C   0  0  0  0  0  3  0  0  0  0  0  0
  -34.3000  -19.8440    3.2680 O   0  0  0  0  0  0  0  0  0  0  0  0
  -35.6450  -19.6040    3.3900 C   0  0  0  0  0  0  0  0  0  0  0  0
  -36.1400  -18.3940    3.9260 C   0  0  0  0  0  3  0  0  0  0  0  0
  -37.5290  -18.1600    3.9650 C   0  0  0  0  0  3  0  0  0  0  0  0
  -38.4210  -19.1290    3.4670 C   0  0  0  0  0  0  0  0  0  0  0  0
  -37.9290  -20.3320    2.9330 C   0  0  0  0  0  3  0  0  0  0  0  0
  -36.5440  -20.5680    2.8940 C   0  0  0  0  0  0  0  0  0  0  0  0
  -36.0720  -21.7190    2.3540 F   0  0  0  0  0  0  0  0  0  0  0  0
  -39.7560  -18.9020    3.4990 F   0  0  0  0  0  0  0  0  0  0  0  0
  -32.0960  -18.9510    9.6100 C   0  0  0  0  0  0  0  0  0  0  0  0
  -33.2990  -19.3430    9.2100 N   0  0  0  0  0  0  0  0  0  0  0  0
  -31.9610  -18.0800   10.4670 O   0  0  0  0  0  0  0  0  0  0  0  0
  -33.4120  -20.0700    8.5180 H   0  0  0  0  0  0  0  0  0  0  0  0
  -34.1200  -18.9000    9.5970 H   0  0  0  0  0  0  0  0  0  0  0  0
  -29.2050  -19.5170   10.8810 N   0  0  0  0  0  0  0  0  0  0  0  0
  -29.7590  -19.0130   11.5630 H   0  0  0  0  0  0  0  0  0  0  0  0
  -28.2370  -19.6200   11.1500 H   0  0  0  0  0  0  0  0  0  0  0  0
  1  2  1  0
  2  3  1  0
  3  4  1  0
  4  5  1  0
  8  7  1  0
  9 19  1  0
  9 20  2  0
 10 16  1  0
 10  8  1  0
 11 21  1  0
 12 17  1  0
 12 18  1  0
 13 14  1  0
 13 19  1  0
 14 15  1  0
 14 12  1  0
 15 10  1  0
 16 17  1  0
 18 11  1  0
 19 11  1  0
 21 22  1  0
 21 23  2  0
 22 26  1  0
 24 22  1  0
 25 29  1  0
 30 25  1  0
 30 26  1  0
 31 30  2  0
 32 33  2  0
 32 31  1  0
 33 34  1  0
 34 25  2  0
 35  9  1  0
 36 35  1  0
 36 37  1  1
 38 36  1  0
 39 36  1  0
 40 35  1  0
 40 43  1  0
 41 45  1  0
 41 40  1  0
 42 41  2  0
 45 44  1  0
 46 47  1  0
 47 48  1  0
 47 45  1  0
 49  1  1  0
 50 51  1  0
 50 49  1  0
 51 53  1  0
 52 50  2  0
 54 51  1  0
 55 54  1  0
 56 55  1  0
 57 56  1  0
 58 65  2  0
 58 66  1  0
 59 64  1  0
 60 61  1  0
 60 59  1  0
 62 61  1  0
 62 63  1  0
 63 64  1  0
 64 58  1  0
 66 57  1  0
 66 67  1  0
 68 93  1  0
 69 88  1  0
 69 68  2  0
 70 69  1  0
 71 62  1  0
 71 68  1  0
 72 70  2  0
 72 71  1  0
 73 70  1  0
 74 73  1  0
 75 74  2  0
 76 77  2  0
 76 75  1  0
 77 78  1  0
 78 73  2  0
 79 80  1  0
 79 76  1  0
 80 81  1  0
 81 82  2  0
 83 87  1  0
 83 82  1  0
 84 83  2  0
 85 84  1  0
 85 80  2  0
 86 85  1  0
 88 90  2  0
 89 92  1  0
 89 88  1  0
 91 89  1  0
 93 95  1  0
 93 94  1  0
M  ISO  4   7 101   8 101  58 100  66 100
M  END
>  <TORSDO>  (23) 
F 28

>  <SCORE>  (23) 
14.100

>  <name>  (23) 
26

>  <ligand_id>  (23) 
26

>  <original_smiles>  (23) 
[H]c1c([H])c([H])c2c(c1[H])C([H])([H])C([H])([H])C([H])([H])C2([H])N([H])C(=O)C1([H])N(C(=O)C([H])(N([H])C(=O)C([H])(N([H])C([H])([H])[H])C([H])([H])[H])C(C([H])([H])[H])(C([H])([H])[H])C([H])([H])[H])C([H])([H])c2c([H])c(OC([H])([H])C([H])([H])C([H])([H])OC([H])([H])C([H])([H])OC([H])([H])C(=O)N([H])C([H])([H])C([H])([H])C([H])([H])C([H])([H])N([H])C(=O)N3C([H])([H])C([H])([H])C([H])([H])C([H])(n4nc(-c5c([H])c([H])c(Oc6c([H])c([H])c(F)c([H])c6F)c([H])c5[H])c(C(=O)N([H])[H])c4N([H])[H])C3([H])[H])c([H])c([H])c2C1([H])[H]

>  <smiles>  (23) 
[H]c1c([H])c([H])c2c(c1[H])C([H])([H])C([H])([H])C([H])([H])C2([H])N([H])C(=O)C1([H])N(C(=O)C([H])(N([H])C(=O)C([H])(N([H])C([H])([H])[H])C([H])([H])[H])C(C([H])([H])[H])(C([H])([H])[H])C([H])([H])[H])C([H])([H])c2c([H])c(OC([H])([H])C([H])([H])C([H])([H])OC([H])([H])C([H])([H])OC([H])([H])C(=O)N([H])C([H])([H])C([H])([H])C([H])([H])C([H])([H])N([H])C(=O)N3C([H])([H])C([H])([H])C([H])([H])C([H])(n4nc(-c5c([H])c([H])c(Oc6c([H])c([H])c(F)c([H])c6F)c([H])c5[H])c(C(=O)N([H])[H])c4N([H])[H])C3([H])[H])c([H])c([H])c2C1([H])[H]

$$$$
27:0:0
     RDKit          3D

113120  0  0  1  0  0  0  0  0999 V2000
  -31.7930  -19.0800   22.1920 C   0  0  0  0  0  2  0  0  0  0  0  0
  -31.5620  -19.4550   23.6680 C   0  0  0  0  0  2  0  0  0  0  0  0
  -30.3560  -20.3870   23.8990 C   0  0  0  0  0  2  0  0  0  0  0  0
  -30.5060  -21.8330   23.3760 C   0  0  0  0  0  2  0  0  0  0  0  0
  -29.1390  -21.9980   21.2980 C   0  0  0  0  0  0  0  0  0  0  0  0
  -30.3190  -21.9760   21.9320 N   0  0  0  0  0  0  0  0  0  0  0  0
  -28.0650  -21.8340   21.8810 O   0  0  0  0  0  0  0  0  0  0  0  0
  -31.1380  -22.1750   21.3740 H   0  0  0  0  0  0  0  0  0  0  0  0
  -29.1570  -22.2590   19.7900 C   0  0  0  0  0  2  0  0  0  0  0  0
  -29.1020  -20.3240   18.2590 C   0  0  0  0  0  0  0  0  0  0  0  0
  -28.4890  -21.1620   19.1010 N   0  0  0  0  0  0  0  0  0  0  0  0
  -30.2600  -20.4970   17.8740 O   0  0  0  0  0  0  0  0  0  0  0  0
  -27.5670  -20.9170   19.4370 H   0  0  0  0  0  0  0  0  0  0  0  0
  -28.3270  -19.0890   17.7960 C   0  0  0  0  0  2  0  0  0  0  0  0
  -29.5720  -17.2110   18.8080 C   0  0  0  0  0  0  0  0  0  0  0  0
  -29.2370  -17.9510   17.7470 N   0  0  0  0  0  0  0  0  0  0  0  0
  -29.0380  -17.3400   19.9110 O   0  0  0  0  0  0  0  0  0  0  0  0
  -29.7340  -17.8080   16.8800 H   0  0  0  0  0  0  0  0  0  0  0  0
  -30.6820  -16.1900   18.6020 C   0  0  0  0  0  2  0  0  0  0  0  0
  -31.4000  -14.0890   19.6380 C   0  0  0  0  0  0  0  0  0  0  0  0
  -31.1060  -11.6620   19.4900 C   0  0  0  0  0  2  0  0  0  0  0  0
  -30.1520  -11.4050   18.3060 C   0  0  0  0  0  2  0  0  0  0  0  0
  -28.6790  -11.4670   18.7620 C   0  0  0  0  0  2  0  0  0  0  0  0
  -28.3670  -12.7320   19.6060 C   0  0  0  0  0  3  0  0  0  0  0  0
  -29.4340  -12.9400   20.7070 C   0  0  0  0  0  2  0  0  0  0  0  0
  -30.7600  -12.9700   20.0600 N   0  0  0  0  0  0  0  0  0  0  0  0
  -32.5000  -14.0900   19.0750 O   0  0  0  0  0  0  0  0  0  0  0  0
  -30.6340  -15.1780   19.6450 N   0  0  0  0  0  0  0  0  0  0  0  0
  -29.7850  -15.1610   20.1930 H   0  0  0  0  0  0  0  0  0  0  0  0
  -26.1580  -13.7210   20.4910 C   0  0  0  0  0  0  0  0  0  0  0  0
  -24.9970  -13.1300   20.9080 C   0  0  0  0  0  0  0  0  0  0  0  0
  -25.2120  -11.7210   20.8060 C   0  0  0  0  0  0  0  0  0  0  0  0
  -27.0190  -12.6840   20.1630 N   0  0  0  0  0  0  0  0  0  0  0  0
  -26.4520  -11.4750   20.4080 N   0  0  0  0  0  0  0  0  0  0  0  0
  -24.2920  -10.5960   21.0080 C   0  0  0  0  0  0  0  0  0  0  0  0
  -24.6330   -9.5000   21.8320 C   0  0  0  0  0  3  0  0  0  0  0  0
  -23.7210   -8.4400   22.0280 C   0  0  0  0  0  3  0  0  0  0  0  0
  -22.4540   -8.4690   21.3960 C   0  0  0  0  0  0  0  0  0  0  0  0
  -22.1300   -9.5510   20.5580 C   0  0  0  0  0  3  0  0  0  0  0  0
  -23.0410  -10.6000   20.3610 C   0  0  0  0  0  3  0  0  0  0  0  0
  -21.5180   -7.4690   21.5050 O   0  0  0  0  0  0  0  0  0  0  0  0
  -21.4600   -6.6530   22.6060 C   0  0  0  0  0  0  0  0  0  0  0  0
  -21.2710   -7.1670   23.9070 C   0  0  0  0  0  3  0  0  0  0  0  0
  -21.1480   -6.2870   25.0010 C   0  0  0  0  0  3  0  0  0  0  0  0
  -21.2100   -4.8950   24.7970 C   0  0  0  0  0  0  0  0  0  0  0  0
  -21.3960   -4.3820   23.5010 C   0  0  0  0  0  3  0  0  0  0  0  0
  -21.5180   -5.2580   22.4080 C   0  0  0  0  0  0  0  0  0  0  0  0
  -21.6770   -4.7570   21.1590 F   0  0  0  0  0  0  0  0  0  0  0  0
  -21.0840   -4.0490   25.8460 F   0  0  0  0  0  0  0  0  0  0  0  0
  -23.7240  -13.8280   21.2920 C   0  0  0  0  0  0  0  0  0  0  0  0
  -22.9590  -13.2440   22.2070 N   0  0  0  0  0  0  0  0  0  0  0  0
  -23.4270  -14.9250   20.8190 O   0  0  0  0  0  0  0  0  0  0  0  0
  -23.2090  -12.3500   22.6050 H   0  0  0  0  0  0  0  0  0  0  0  0
  -22.1100  -13.6960   22.5140 H   0  0  0  0  0  0  0  0  0  0  0  0
  -26.5460  -15.0530   20.3460 N   0  0  0  0  0  0  0  0  0  0  0  0
  -25.9300  -15.8200   20.5850 H   0  0  0  0  0  0  0  0  0  0  0  0
  -27.4430  -15.3600   19.9940 H   0  0  0  0  0  0  0  0  0  0  0  0
  -32.6480  -20.0960   21.4100 C   0  0  0  0  0  2  0  0  0  0  0  0
  -33.9720  -19.5620   21.0100 N   0  0  0  0  0  4  0  0  0  0  0  0
  -34.6600  -20.2870   21.1420 H   0  0  0  0  0  0  0  0  0  0  0  0
  -34.2310  -18.8240   21.6460 H   0  0  0  0  0  0  0  0  0  0  0  0
  -34.1090  -19.0560   19.6200 C   0  0  0  0  0  2  0  0  0  0  0  0
  -33.4920  -19.9690   18.5320 C   0  0  0  0  0  2  0  0  0  0  0  0
  -33.8980  -21.4500   18.6430 C   0  0  0  0  0  2  0  0  0  0  0  0
  -32.9880  -22.3970   17.8370 C   0  0  0  0  0  2  0  0  0  0  0  0
  -33.2700  -23.8720   18.1670 C   0  0  0  0  0  2  0  0  0  0  0  0
  -32.3300  -24.8790   17.4780 C   0  0  0  0  0  2  0  0  0  0  0  0
  -30.5720  -25.5160   19.1390 C   0  0  0  0  0  0  0  0  0  0  0  0
  -30.9690  -24.8980   18.0150 N   0  0  0  0  0  0  0  0  0  0  0  0
  -31.3700  -25.9710   19.9640 O   0  0  0  0  0  0  0  0  0  0  0  0
  -30.2400  -24.5420   17.4090 H   0  0  0  0  0  0  0  0  0  0  0  0
  -29.0570  -25.6940   19.3330 C   0  0  0  0  0  2  0  0  0  0  0  0
  -28.8020  -26.7820   20.2310 O   0  0  0  0  0  0  0  0  0  0  0  0
  -24.5570  -31.7270   23.1030 C   0  0  0  0  0  0  0  0  0  0  0  0
  -27.5700  -27.4000   20.1860 C   0  0  0  0  0  0  0  0  0  0  0  0
  -23.5090  -30.2730   21.3980 C   0  0  0  0  0  3  0  0  0  0  0  0
  -25.1060  -28.7880   20.0770 C   0  0  0  0  0  0  0  0  0  0  0  0
  -26.0260  -30.7300   21.3540 C   0  0  0  0  0  2  0  0  0  0  0  0
  -26.2030  -29.3620   20.7310 C   0  0  0  0  0  0  0  0  0  0  0  0
  -27.4320  -28.6700   20.7910 C   0  0  0  0  0  3  0  0  0  0  0  0
  -26.4410  -26.8250   19.5530 C   0  0  0  0  0  3  0  0  0  0  0  0
  -25.2160  -27.5150   19.4950 C   0  0  0  0  0  3  0  0  0  0  0  0
  -23.8300  -29.5980   20.0380 C   0  0  0  0  0  2  0  0  0  0  0  0
  -24.7130  -30.9260   22.0110 N   0  0  0  0  0  0  0  0  0  0  0  0
  -23.4350  -31.9590   23.5730 O   0  0  0  0  0  0  0  0  0  0  0  0
  -22.8410  -29.2300   22.3200 C   0  0  0  0  0  0  0  0  0  0  0  0
  -21.5120  -29.0850   22.1960 N   0  0  0  0  0  0  0  0  0  0  0  0
  -23.5150  -28.5540   23.1030 O   0  0  0  0  0  0  0  0  0  0  0  0
  -21.0310  -29.6820   21.5370 H   0  0  0  0  0  0  0  0  0  0  0  0
  -18.1010  -28.0330   22.7490 C   0  0  0  0  0  0  0  0  0  0  0  0
  -20.6770  -28.1380   22.9330 C   0  0  0  0  0  3  0  0  0  0  0  0
  -20.6810  -26.7480   22.2560 C   0  0  0  0  0  2  0  0  0  0  0  0
  -19.5260  -26.5550   21.2680 C   0  0  0  0  0  2  0  0  0  0  0  0
  -18.1780  -26.7270   21.9760 C   0  0  0  0  0  2  0  0  0  0  0  0
  -19.2740  -28.7030   23.1830 C   0  0  0  0  0  0  0  0  0  0  0  0
  -19.1470  -29.9330   23.8650 C   0  0  0  0  0  3  0  0  0  0  0  0
  -17.8780  -30.4900   24.1150 C   0  0  0  0  0  3  0  0  0  0  0  0
  -16.7200  -29.8130   23.6970 C   0  0  0  0  0  3  0  0  0  0  0  0
  -16.8320  -28.5860   23.0190 C   0  0  0  0  0  3  0  0  0  0  0  0
  -25.7770  -32.4080   23.7970 C   0  0  0  0  0  3  0  0  0  0  0  0
  -26.2520  -31.6540   25.1000 C   0  0  1  0  0  0  0  0  0  0  0  0
  -25.1140  -31.3790   26.1080 C   0  0  0  0  0  1  0  0  0  0  0  0
  -26.9020  -30.2980   24.7380 C   0  0  0  0  0  1  0  0  0  0  0  0
  -27.3400  -32.4860   25.8180 C   0  0  0  0  0  1  0  0  0  0  0  0
  -25.3940  -33.7910   24.1070 N   0  0  0  0  0  0  0  0  0  0  0  0
  -25.7480  -34.8600   23.3800 C   0  0  0  0  0  0  0  0  0  0  0  0
  -26.5020  -34.7860   22.4060 O   0  0  0  0  0  0  0  0  0  0  0  0
  -24.7320  -33.9200   24.8580 H   0  0  0  0  0  0  0  0  0  0  0  0
  -24.0090  -36.6020   22.8690 C   0  0  0  0  0  1  0  0  0  0  0  0
  -25.1740  -36.2260   23.7990 C   0  0  0  0  0  3  0  0  0  0  0  0
  -27.1840  -37.1620   24.8520 C   0  0  0  0  0  1  0  0  0  0  0  0
  -26.1800  -37.3100   23.8020 N   0  0  0  0  0  0  0  0  0  0  0  0
  -25.7320  -38.2160   23.9160 H   0  0  0  0  0  0  0  0  0  0  0  0
  1  2  1  0
  2  3  1  0
  4  3  1  0
  5  7  2  0
  5  6  1  0
  6  4  1  0
  8  6  1  0
  9  5  1  0
 10 11  1  0
 11 13  1  0
 11  9  1  0
 12 10  2  0
 14 10  1  0
 15 17  2  0
 16 14  1  0
 16 15  1  0
 18 16  1  0
 19 15  1  0
 19 28  1  0
 20 28  1  0
 20 26  1  0
 21 26  1  0
 22 23  1  0
 22 21  1  0
 24 23  1  0
 24 33  1  0
 24 25  1  0
 26 25  1  0
 27 20  2  0
 28 29  1  0
 30 31  2  0
 31 50  1  0
 32 31  1  0
 32 35  1  0
 33 34  1  0
 33 30  1  0
 34 32  2  0
 35 36  1  0
 36 37  2  0
 38 41  1  0
 38 37  1  0
 39 38  2  0
 40 39  1  0
 40 35  2  0
 41 42  1  0
 42 43  1  0
 43 44  2  0
 45 44  1  0
 45 49  1  0
 46 45  2  0
 47 42  2  0
 47 46  1  0
 48 47  1  0
 50 51  1  0
 51 54  1  0
 51 53  1  0
 52 50  2  0
 55 30  1  0
 55 56  1  0
 57 55  1  0
 58  1  1  0
 59 60  1  0
 59 58  1  0
 59 61  1  0
 62 59  1  0
 63 64  1  0
 63 62  1  0
 65 66  1  0
 65 64  1  0
 67 69  1  0
 67 66  1  0
 68 72  1  0
 68 70  2  0
 69 68  1  0
 71 69  1  0
 72 73  1  0
 74 85  2  0
 75 73  1  0
 75 80  1  0
 76 84  1  0
 76 86  1  0
 77 79  1  0
 78 84  1  0
 79 80  2  0
 79 78  1  0
 81 75  2  0
 82 81  1  0
 82 77  2  0
 83 77  1  0
 83 76  1  0
 84 74  1  0
 86 88  2  0
 87 86  1  0
 89 87  1  0
 90 99  2  0
 90 95  1  0
 91 87  1  0
 91 95  1  0
 92 91  1  0
 93 94  1  0
 93 92  1  0
 94 90  1  0
 95 96  2  0
 96 97  1  0
 98 97  2  0
 99 98  1  0
100 74  1  0
100105  1  0
100101  1  0
101104  1  1
101102  1  0
103101  1  0
105108  1  0
106110  1  0
106105  1  0
107106  2  0
110109  1  0
110112  1  0
112113  1  0
112111  1  0
M  ISO  4  20 100  28 100  72 101  73 101
M  END
>  <TORSDO>  (24) 
F 35

>  <SCORE>  (24) 
-9.566

>  <name>  (24) 
27

>  <ligand_id>  (24) 
27

>  <original_smiles>  (24) 
[H]c1c([H])c([H])c2c(c1[H])C([H])([H])C([H])([H])C([H])([H])C2([H])N([H])C(=O)C1([H])N(C(=O)C([H])(N([H])C(=O)C([H])(N([H])C([H])([H])[H])C([H])([H])[H])C(C([H])([H])[H])(C([H])([H])[H])C([H])([H])[H])C([H])([H])c2c([H])c(OC([H])([H])C(=O)N([H])C([H])([H])C([H])([H])C([H])([H])C([H])([H])C([H])([H])C([H])([H])[N+]([H])([H])C([H])([H])C([H])([H])C([H])([H])C([H])([H])C([H])([H])N([H])C(=O)C([H])([H])N([H])C(=O)C([H])([H])N([H])C(=O)C([H])([H])N([H])C(=O)N3C([H])([H])C([H])([H])C([H])([H])C([H])(n4nc(-c5c([H])c([H])c(Oc6c([H])c([H])c(F)c([H])c6F)c([H])c5[H])c(C(=O)N([H])[H])c4N([H])[H])C3([H])[H])c([H])c([H])c2C1([H])[H]

>  <smiles>  (24) 
[H]c1c([H])c([H])c2c(c1[H])C([H])([H])C([H])([H])C([H])([H])C2([H])N([H])C(=O)C1([H])N(C(=O)C([H])(N([H])C(=O)C([H])(N([H])C([H])([H])[H])C([H])([H])[H])C(C([H])([H])[H])(C([H])([H])[H])C([H])([H])[H])C([H])([H])c2c([H])c(OC([H])([H])C(=O)N([H])C([H])([H])C([H])([H])C([H])([H])C([H])([H])C([H])([H])C([H])([H])[N+]([H])([H])C([H])([H])C([H])([H])C([H])([H])C([H])([H])C([H])([H])N([H])C(=O)C([H])([H])N([H])C(=O)C([H])([H])N([H])C(=O)C([H])([H])N([H])C(=O)N3C([H])([H])C([H])([H])C([H])([H])C([H])(n4nc(-c5c([H])c([H])c(Oc6c([H])c([H])c(F)c([H])c6F)c([H])c5[H])c(C(=O)N([H])[H])c4N([H])[H])C3([H])[H])c([H])c([H])c2C1([H])[H]

$$$$
28:0:0
     RDKit          3D

108115  0  0  1  0  0  0  0  0999 V2000
  -22.4610  -24.7720   18.9960 C   0  0  0  0  0  2  0  0  0  0  0  0
  -23.0440  -24.5390   20.4010 C   0  0  0  0  0  2  0  0  0  0  0  0
  -24.1540  -23.5600   20.4440 N   0  0  0  0  0  4  0  0  0  0  0  0
  -24.8810  -23.8300   19.8010 H   0  0  0  0  0  0  0  0  0  0  0  0
  -23.7910  -22.6640   20.1560 H   0  0  0  0  0  0  0  0  0  0  0  0
  -24.7720  -23.3930   21.7780 C   0  0  0  0  0  2  0  0  0  0  0  0
  -26.1270  -24.1160   21.8610 C   0  0  0  0  0  2  0  0  0  0  0  0
  -28.4460  -23.7640   21.0790 C   0  0  0  0  0  0  0  0  0  0  0  0
  -27.1330  -23.5200   20.9820 N   0  0  0  0  0  0  0  0  0  0  0  0
  -28.9170  -24.5430   21.9180 O   0  0  0  0  0  0  0  0  0  0  0  0
  -26.8330  -22.8550   20.2800 H   0  0  0  0  0  0  0  0  0  0  0  0
  -29.3740  -23.0160   20.1170 C   0  0  0  0  0  2  0  0  0  0  0  0
  -31.6750  -22.1130   20.2110 C   0  0  0  0  0  0  0  0  0  0  0  0
  -30.6840  -22.8320   20.7330 N   0  0  0  0  0  0  0  0  0  0  0  0
  -31.5760  -21.5810   19.1030 O   0  0  0  0  0  0  0  0  0  0  0  0
  -30.8140  -23.2750   21.6310 H   0  0  0  0  0  0  0  0  0  0  0  0
  -32.9550  -21.9520   21.0380 C   0  0  0  0  0  2  0  0  0  0  0  0
  -34.2360  -19.9140   20.4230 C   0  0  0  0  0  0  0  0  0  0  0  0
  -34.7630  -17.8660   19.1580 C   0  0  0  0  0  2  0  0  0  0  0  0
  -33.9900  -17.8830   17.8250 C   0  0  0  0  0  2  0  0  0  0  0  0
  -32.5840  -17.2780   18.0040 C   0  0  0  0  0  2  0  0  0  0  0  0
  -31.8290  -17.8930   19.2080 C   0  0  0  0  0  3  0  0  0  0  0  0
  -32.7170  -17.9070   20.4730 C   0  0  0  0  0  2  0  0  0  0  0  0
  -33.9730  -18.6100   20.1480 N   0  0  0  0  0  0  0  0  0  0  0  0
  -35.2340  -20.5120   20.0070 O   0  0  0  0  0  0  0  0  0  0  0  0
  -33.2830  -20.5300   21.1240 N   0  0  0  0  0  0  0  0  0  0  0  0
  -32.5270  -19.9420   21.4360 H   0  0  0  0  0  0  0  0  0  0  0  0
  -29.2720  -17.7370   19.4460 C   0  0  0  0  0  0  0  0  0  0  0  0
  -28.4390  -16.6680   19.6550 C   0  0  0  0  0  0  0  0  0  0  0  0
  -29.2870  -15.5230   19.7590 C   0  0  0  0  0  0  0  0  0  0  0  0
  -30.5560  -17.2180   19.4430 N   0  0  0  0  0  0  0  0  0  0  0  0
  -30.5600  -15.8850   19.6890 N   0  0  0  0  0  0  0  0  0  0  0  0
  -28.9610  -14.0950   19.8700 C   0  0  0  0  0  0  0  0  0  0  0  0
  -29.6900  -13.2360   20.7230 C   0  0  0  0  0  3  0  0  0  0  0  0
  -29.3500  -11.8690   20.8240 C   0  0  0  0  0  3  0  0  0  0  0  0
  -28.2690  -11.3500   20.0730 C   0  0  0  0  0  0  0  0  0  0  0  0
  -27.5610  -12.2030   19.2090 C   0  0  0  0  0  3  0  0  0  0  0  0
  -27.9040  -13.5620   19.1060 C   0  0  0  0  0  3  0  0  0  0  0  0
  -27.8820  -10.0330   20.0860 O   0  0  0  0  0  0  0  0  0  0  0  0
  -28.3110   -9.1690   21.0590 C   0  0  0  0  0  0  0  0  0  0  0  0
  -28.2300   -9.4940   22.4310 C   0  0  0  0  0  3  0  0  0  0  0  0
  -28.6210   -8.5490   23.4010 C   0  0  0  0  0  3  0  0  0  0  0  0
  -29.0810   -7.2780   23.0030 C   0  0  0  0  0  0  0  0  0  0  0  0
  -29.1570   -6.9540   21.6380 C   0  0  0  0  0  3  0  0  0  0  0  0
  -28.7710   -7.8950   20.6680 C   0  0  0  0  0  0  0  0  0  0  0  0
  -28.8250   -7.5710   19.3530 F   0  0  0  0  0  0  0  0  0  0  0  0
  -29.4480   -6.3660   23.9330 F   0  0  0  0  0  0  0  0  0  0  0  0
  -26.9380  -16.6860   19.6630 C   0  0  0  0  0  0  0  0  0  0  0  0
  -26.3240  -15.7800   20.4180 N   0  0  0  0  0  0  0  0  0  0  0  0
  -26.3020  -17.5340   19.0370 O   0  0  0  0  0  0  0  0  0  0  0  0
  -26.8520  -15.0950   20.9390 H   0  0  0  0  0  0  0  0  0  0  0  0
  -25.3160  -15.7650   20.4740 H   0  0  0  0  0  0  0  0  0  0  0  0
  -29.0480  -19.0950   19.2360 N   0  0  0  0  0  0  0  0  0  0  0  0
  -28.1180  -19.4930   19.1680 H   0  0  0  0  0  0  0  0  0  0  0  0
  -29.7860  -19.7610   19.0310 H   0  0  0  0  0  0  0  0  0  0  0  0
  -21.2670  -23.8810   18.6060 C   0  0  0  0  0  2  0  0  0  0  0  0
  -21.6060  -22.6020   17.8220 C   0  0  0  0  0  2  0  0  0  0  0  0
  -22.0440  -22.8220   16.3550 C   0  0  0  0  0  2  0  0  0  0  0  0
  -23.5060  -22.4420   16.0380 C   0  0  0  0  0  2  0  0  0  0  0  0
  -25.7240  -23.2920   16.8040 C   0  0  0  0  0  0  0  0  0  0  0  0
  -24.4830  -23.4930   16.3430 N   0  0  0  0  0  0  0  0  0  0  0  0
  -26.1160  -22.1800   17.1700 O   0  0  0  0  0  0  0  0  0  0  0  0
  -24.2530  -24.4360   16.0600 H   0  0  0  0  0  0  0  0  0  0  0  0
  -26.6650  -24.5050   16.8930 C   0  0  0  0  0  2  0  0  0  0  0  0
  -27.2260  -24.5730   18.2060 O   0  0  0  0  0  0  0  0  0  0  0  0
  -28.5140  -25.1930   18.2740 C   0  0  0  0  0  2  0  0  0  0  0  0
  -28.5490  -26.7210   18.0400 C   0  0  0  0  0  2  0  0  0  0  0  0
  -28.3460  -27.4770   19.2360 O   0  0  0  0  0  0  0  0  0  0  0  0
  -24.5560  -31.8340   23.3750 C   0  0  0  0  0  0  0  0  0  0  0  0
  -27.1230  -28.0780   19.4450 C   0  0  0  0  0  0  0  0  0  0  0  0
  -23.2800  -30.6440   21.6200 C   0  0  0  0  0  3  0  0  0  0  0  0
  -24.6730  -29.4180   19.8810 C   0  0  0  0  0  0  0  0  0  0  0  0
  -25.7660  -31.1590   21.3030 C   0  0  0  0  0  2  0  0  0  0  0  0
  -25.8530  -29.9060   20.4600 C   0  0  0  0  0  0  0  0  0  0  0  0
  -27.0750  -29.2330   20.2510 C   0  0  0  0  0  3  0  0  0  0  0  0
  -25.9210  -27.5910   18.8840 C   0  0  0  0  0  3  0  0  0  0  0  0
  -24.7010  -28.2530   19.0980 C   0  0  0  0  0  3  0  0  0  0  0  0
  -23.4090  -30.1970   20.1430 C   0  0  0  0  0  2  0  0  0  0  0  0
  -24.5550  -31.2240   22.1560 N   0  0  0  0  0  0  0  0  0  0  0  0
  -23.5110  -31.9600   24.0270 O   0  0  0  0  0  0  0  0  0  0  0  0
  -22.7500  -29.4510   22.4470 C   0  0  0  0  0  0  0  0  0  0  0  0
  -21.4470  -29.1600   22.2990 N   0  0  0  0  0  0  0  0  0  0  0  0
  -23.5010  -28.7990   23.1770 O   0  0  0  0  0  0  0  0  0  0  0  0
  -20.9020  -29.7390   21.6750 H   0  0  0  0  0  0  0  0  0  0  0  0
  -18.2540  -27.4880   22.5170 C   0  0  0  0  0  0  0  0  0  0  0  0
  -20.7360  -28.0630   22.9520 C   0  0  0  0  0  3  0  0  0  0  0  0
  -21.0640  -26.7080   22.2830 C   0  0  0  0  0  2  0  0  0  0  0  0
  -20.0660  -26.3200   21.1850 C   0  0  0  0  0  2  0  0  0  0  0  0
  -18.6450  -26.2310   21.7580 C   0  0  0  0  0  2  0  0  0  0  0  0
  -19.2350  -28.3540   23.0660 C   0  0  0  0  0  0  0  0  0  0  0  0
  -18.8190  -29.5250   23.7380 C   0  0  0  0  0  3  0  0  0  0  0  0
  -17.4500  -29.8340   23.8640 C   0  0  0  0  0  3  0  0  0  0  0  0
  -16.4820  -28.9650   23.3310 C   0  0  0  0  0  3  0  0  0  0  0  0
  -16.8840  -27.7920   22.6660 C   0  0  0  0  0  3  0  0  0  0  0  0
  -25.8590  -32.4220   23.9970 C   0  0  0  0  0  3  0  0  0  0  0  0
  -26.3600  -31.6310   25.2680 C   0  0  1  0  0  0  0  0  0  0  0  0
  -25.2630  -31.4310   26.3430 C   0  0  0  0  0  1  0  0  0  0  0  0
  -26.8970  -30.2350   24.8690 C   0  0  0  0  0  1  0  0  0  0  0  0
  -27.5410  -32.3860   25.9250 C   0  0  0  0  0  1  0  0  0  0  0  0
  -25.5960  -33.8290   24.3250 N   0  0  0  0  0  0  0  0  0  0  0  0
  -25.9770  -34.8690   23.5710 C   0  0  0  0  0  0  0  0  0  0  0  0
  -26.6600  -34.7440   22.5500 O   0  0  0  0  0  0  0  0  0  0  0  0
  -24.9920  -34.0040   25.1150 H   0  0  0  0  0  0  0  0  0  0  0  0
  -24.3180  -36.7220   23.1880 C   0  0  0  0  0  1  0  0  0  0  0  0
  -25.5290  -36.2710   24.0220 C   0  0  0  0  0  3  0  0  0  0  0  0
  -27.6790  -37.0730   24.8960 C   0  0  0  0  0  1  0  0  0  0  0  0
  -26.5990  -37.2860   23.9360 N   0  0  0  0  0  0  0  0  0  0  0  0
  -26.2250  -38.2190   24.0860 H   0  0  0  0  0  0  0  0  0  0  0  0
  1  2  1  0
  2  3  1  0
  3  6  1  0
  4  3  1  0
  5  3  1  0
  6  7  1  0
  8 10  2  0
  9  8  1  0
  9  7  1  0
 11  9  1  0
 12 14  1  0
 12  8  1  0
 13 14  1  0
 13 17  1  0
 14 16  1  0
 15 13  2  0
 17 26  1  0
 18 26  1  0
 19 24  1  0
 20 21  1  0
 20 19  1  0
 22 21  1  0
 22 31  1  0
 22 23  1  0
 24 18  1  0
 24 23  1  0
 25 18  2  0
 26 27  1  0
 28 29  2  0
 29 48  1  0
 29 30  1  0
 30 33  1  0
 31 28  1  0
 31 32  1  0
 32 30  2  0
 33 34  1  0
 34 35  2  0
 36 39  1  0
 36 35  1  0
 37 36  2  0
 38 37  1  0
 38 33  2  0
 39 40  1  0
 40 41  1  0
 41 42  2  0
 43 42  1  0
 43 47  1  0
 44 43  2  0
 45 40  2  0
 45 44  1  0
 46 45  1  0
 48 49  1  0
 49 52  1  0
 49 51  1  0
 50 48  2  0
 53 28  1  0
 54 53  1  0
 55 53  1  0
 56  1  1  0
 57 56  1  0
 58 57  1  0
 59 61  1  0
 59 58  1  0
 60 64  1  0
 60 62  2  0
 61 60  1  0
 63 61  1  0
 64 65  1  0
 65 66  1  0
 67 66  1  0
 67 68  1  0
 68 70  1  0
 69 80  2  0
 70 75  1  0
 71 79  1  0
 71 81  1  0
 72 78  1  0
 72 74  1  0
 73 79  1  0
 74 73  1  0
 75 74  2  0
 76 77  1  0
 76 70  2  0
 77 72  2  0
 78 71  1  0
 79 69  1  0
 81 83  2  0
 82 81  1  0
 84 82  1  0
 85 94  2  0
 85 90  1  0
 86 82  1  0
 86 90  1  0
 87 86  1  0
 88 89  1  0
 88 87  1  0
 89 85  1  0
 90 91  2  0
 91 92  1  0
 93 92  2  0
 94 93  1  0
 95 69  1  0
 95100  1  0
 95 96  1  0
 96 99  1  1
 96 97  1  0
 98 96  1  0
100103  1  0
101105  1  0
101100  1  0
102101  2  0
105104  1  0
107105  1  0
107108  1  0
107106  1  0
M  ISO  4  18 100  26 100  67 101  68 101
M  END
>  <TORSDO>  (25) 
F 33

>  <SCORE>  (25) 
-6.146

>  <name>  (25) 
28

>  <ligand_id>  (25) 
28

>  <original_smiles>  (25) 
[H]c1c([H])c([H])c2c(c1[H])C([H])([H])C([H])([H])C([H])([H])C2([H])N([H])C(=O)C1([H])N(C(=O)C([H])(N([H])C(=O)C([H])(N([H])C([H])([H])[H])C([H])([H])[H])C(C([H])([H])[H])(C([H])([H])[H])C([H])([H])[H])C([H])([H])c2c([H])c(OC([H])([H])C([H])([H])OC([H])([H])C(=O)N([H])C([H])([H])C([H])([H])C([H])([H])C([H])([H])C([H])([H])C([H])([H])[N+]([H])([H])C([H])([H])C([H])([H])N([H])C(=O)C([H])([H])N([H])C(=O)C([H])([H])N([H])C(=O)N3C([H])([H])C([H])([H])C([H])([H])C([H])(n4nc(-c5c([H])c([H])c(Oc6c([H])c([H])c(F)c([H])c6F)c([H])c5[H])c(C(=O)N([H])[H])c4N([H])[H])C3([H])[H])c([H])c([H])c2C1([H])[H]

>  <smiles>  (25) 
[H]c1c([H])c([H])c2c(c1[H])C([H])([H])C([H])([H])C([H])([H])C2([H])N([H])C(=O)C1([H])N(C(=O)C([H])(N([H])C(=O)C([H])(N([H])C([H])([H])[H])C([H])([H])[H])C(C([H])([H])[H])(C([H])([H])[H])C([H])([H])[H])C([H])([H])c2c([H])c(OC([H])([H])C([H])([H])OC([H])([H])C(=O)N([H])C([H])([H])C([H])([H])C([H])([H])C([H])([H])C([H])([H])C([H])([H])[N+]([H])([H])C([H])([H])C([H])([H])N([H])C(=O)C([H])([H])N([H])C(=O)C([H])([H])N([H])C(=O)N3C([H])([H])C([H])([H])C([H])([H])C([H])(n4nc(-c5c([H])c([H])c(Oc6c([H])c([H])c(F)c([H])c6F)c([H])c5[H])c(C(=O)N([H])[H])c4N([H])[H])C3([H])[H])c([H])c([H])c2C1([H])[H]

$$$$
29:0:0
     RDKit          3D

105110  0  0  1  0  0  0  0  0999 V2000
  -24.4410  -14.4260   22.3390 C   0  0  0  0  0  0  0  0  0  0  0  0
  -24.4410  -15.3690   21.3420 N   0  0  0  0  0  0  0  0  0  0  0  0
  -25.4880  -14.1230   22.9070 O   0  0  0  0  0  0  0  0  0  0  0  0
  -23.5470  -15.6750   20.9840 H   0  0  0  0  0  0  0  0  0  0  0  0
  -25.6400  -15.8540   20.5660 C   0  0  0  0  0  2  0  0  0  0  0  0
  -25.7050  -17.3100   19.9680 C   0  0  0  0  0  0  0  0  0  0  0  0
  -26.7720  -17.6890   19.1900 N   0  0  0  0  0  0  0  0  0  0  0  0
  -24.7680  -18.0810   20.1830 O   0  0  0  0  0  0  0  0  0  0  0  0
  -27.5150  -17.0080   19.0980 H   0  0  0  0  0  0  0  0  0  0  0  0
  -26.9850  -19.0010   18.4780 C   0  0  0  0  0  2  0  0  0  0  0  0
  -28.3280  -19.1900   17.6270 C   0  0  0  0  0  2  0  0  0  0  0  0
  -28.8870  -20.6740   17.4140 C   0  0  0  0  0  3  0  0  0  0  0  0
  -29.7800  -21.0540   16.1390 C   0  0  0  0  0  3  0  0  0  0  0  0
  -30.5380  -22.4550   16.1980 C   0  0  0  0  0  2  0  0  0  0  0  0
  -30.5870  -23.3740   15.0400 O   0  0  0  0  0  0  0  0  0  0  0  0
  -25.1710  -26.2280   18.6840 C   0  0  0  0  0  0  0  0  0  0  0  0
  -29.5630  -24.3020   15.0430 C   0  0  0  0  0  0  0  0  0  0  0  0
  -25.0360  -26.3250   16.2210 C   0  0  0  0  0  3  0  0  0  0  0  0
  -27.2120  -25.8700   14.9610 C   0  0  0  0  0  0  0  0  0  0  0  0
  -27.3100  -26.3940   17.4000 C   0  0  0  0  0  2  0  0  0  0  0  0
  -27.9060  -25.7270   16.1710 C   0  0  0  0  0  0  0  0  0  0  0  0
  -29.0970  -24.9530   16.2180 C   0  0  0  0  0  3  0  0  0  0  0  0
  -28.8830  -24.5150   13.8320 C   0  0  0  0  0  3  0  0  0  0  0  0
  -27.7080  -25.2840   13.7870 C   0  0  0  0  0  3  0  0  0  0  0  0
  -25.9180  -26.6560   14.9870 C   0  0  0  0  0  2  0  0  0  0  0  0
  -25.8300  -26.2890   17.4910 N   0  0  0  0  0  0  0  0  0  0  0  0
  -23.9330  -26.2320   18.7360 O   0  0  0  0  0  0  0  0  0  0  0  0
  -24.2610  -25.0150   15.9470 C   0  0  0  0  0  0  0  0  0  0  0  0
  -23.1570  -25.1180   15.1880 N   0  0  0  0  0  0  0  0  0  0  0  0
  -24.6610  -23.9390   16.3970 O   0  0  0  0  0  0  0  0  0  0  0  0
  -22.8910  -26.0360   14.8630 H   0  0  0  0  0  0  0  0  0  0  0  0
  -20.1500  -24.3040   13.3550 C   0  0  0  0  0  0  0  0  0  0  0  0
  -22.2900  -24.0140   14.7770 C   0  0  0  0  0  3  0  0  0  0  0  0
  -22.8770  -23.2700   13.5560 C   0  0  0  0  0  2  0  0  0  0  0  0
  -22.3530  -23.8000   12.2170 C   0  0  0  0  0  2  0  0  0  0  0  0
  -20.8280  -23.6750   12.1500 C   0  0  0  0  0  2  0  0  0  0  0  0
  -20.8400  -24.4780   14.5840 C   0  0  0  0  0  0  0  0  0  0  0  0
  -20.1740  -25.0980   15.6630 C   0  0  0  0  0  3  0  0  0  0  0  0
  -18.8430  -25.5380   15.5290 C   0  0  0  0  0  3  0  0  0  0  0  0
  -18.1580  -25.3490   14.3170 C   0  0  0  0  0  3  0  0  0  0  0  0
  -18.8100  -24.7310   13.2350 C   0  0  0  0  0  3  0  0  0  0  0  0
  -25.9410  -26.1710   20.0400 C   0  0  0  0  0  3  0  0  0  0  0  0
  -25.0900  -26.8010   21.0580 N   0  0  0  0  0  0  0  0  0  0  0  0
  -25.2730  -28.0340   21.5460 C   0  0  0  0  0  0  0  0  0  0  0  0
  -26.2340  -28.7420   21.2320 O   0  0  0  0  0  0  0  0  0  0  0  0
  -24.2510  -26.3010   21.3190 H   0  0  0  0  0  0  0  0  0  0  0  0
  -23.2730  -29.5360   21.8210 C   0  0  0  0  0  1  0  0  0  0  0  0
  -24.2260  -28.5690   22.5430 C   0  0  0  0  0  3  0  0  0  0  0  0
  -25.5140  -28.3240   24.6180 C   0  0  0  0  0  1  0  0  0  0  0  0
  -24.8210  -29.2410   23.7180 N   0  0  0  0  0  0  0  0  0  0  0  0
  -24.1070  -29.7300   24.2520 H   0  0  0  0  0  0  0  0  0  0  0  0
  -26.3330  -24.7050   20.4710 C   0  0  1  0  0  0  0  0  0  0  0  0
  -25.1500  -23.7080   20.4350 C   0  0  0  0  0  1  0  0  0  0  0  0
  -27.4480  -24.1460   19.5570 C   0  0  0  0  0  1  0  0  0  0  0  0
  -26.9050  -24.7140   21.9080 C   0  0  0  0  0  1  0  0  0  0  0  0
  -23.1260  -13.6770   22.7990 C   0  0  0  0  0  2  0  0  0  0  0  0
  -22.4930  -11.1510   22.9570 C   0  0  0  0  0  0  0  0  0  0  0  0
  -23.2960  -12.2350   23.2250 N   0  0  0  0  0  0  0  0  0  0  0  0
  -21.3490  -11.3930   22.5670 O   0  0  0  0  0  0  0  0  0  0  0  0
  -24.1960  -12.0380   23.6500 H   0  0  0  0  0  0  0  0  0  0  0  0
  -22.9770   -9.5550   22.9240 C   0  0  0  0  0  1  0  0  0  0  0  0
  -27.0140   -8.3210   22.6590 C   0  0  0  0  0  0  0  0  0  0  0  0
  -25.5890   -8.1400   22.8350 N   0  0  2  0  0  4  0  0  0  0  0  0
  -27.6400   -7.2890   22.4160 O   0  0  0  0  0  0  0  0  0  0  0  0
  -25.3820   -7.1520   22.8030 H   0  0  0  0  0  0  0  0  0  0  0  0
  -27.9710   -9.6630   22.7730 C   0  0  0  0  0  3  0  0  0  0  0  0
  -29.1910   -9.9970   21.7060 C   0  0  0  0  0  3  0  0  0  0  0  0
  -30.9770  -12.4480   20.8760 C   0  0  2  0  0  0  0  0  0  0  0  0
  -32.1920  -11.4400   21.1310 C   0  0  0  0  0  1  0  0  0  0  0  0
  -31.4150  -10.4580   19.6960 C   0  0  0  0  0  1  0  0  0  0  0  0
  -29.8480  -10.9980   19.0520 C   0  0  0  0  0  2  0  0  0  0  0  0
  -28.9990  -12.4510   19.6030 C   0  0  0  0  0  2  0  0  0  0  0  0
  -29.7520  -13.4690   20.9950 C   0  0  0  0  0  1  0  0  0  0  0  0
  -31.2830  -12.8910   21.6890 N   0  0  0  0  0  1  0  0  0  0  0  0
  -31.5860  -13.0400   19.7520 O   0  0  0  0  0  1  0  0  0  0  0  0
  -30.0190  -11.3490   21.7140 N   0  0  0  0  0  2  0  0  0  0  0  0
  -30.0810  -11.6540   22.6740 H   0  0  0  0  0  0  0  0  0  0  0  0
  -26.5670  -13.1570   19.4010 C   0  0  0  0  0  0  0  0  0  0  0  0
  -25.3790  -12.5810   19.7260 C   0  0  0  0  0  0  0  0  0  0  0  0
  -25.7730  -11.3460   20.2580 C   0  0  0  0  0  0  0  0  0  0  0  0
  -27.5640  -12.2800   19.7480 N   0  0  0  0  0  0  0  0  0  0  0  0
  -27.0560  -11.1790   20.2890 N   0  0  0  0  0  0  0  0  0  0  0  0
  -25.0060  -10.2760   20.6340 C   0  0  0  0  0  0  0  0  0  0  0  0
  -25.2400   -9.2930   22.1330 C   0  0  0  0  0  0  0  0  0  0  0  0
  -24.2240   -7.8510   22.3510 C   0  0  0  0  0  0  0  0  0  0  0  0
  -23.0250   -7.4560   21.1190 C   0  0  0  0  0  0  0  0  0  0  0  0
  -22.8420   -8.4130   19.7090 C   0  0  0  0  0  3  0  0  0  0  0  0
  -23.8040   -9.8110   19.4540 C   0  0  0  0  0  3  0  0  0  0  0  0
  -22.0470   -6.5380   21.2530 O   0  0  0  0  0  0  0  0  0  0  0  0
  -21.8180   -6.0320   22.4870 C   0  0  0  0  0  0  0  0  0  0  0  0
  -21.3530   -6.8070   23.5730 C   0  0  0  0  0  3  0  0  0  0  0  0
  -21.1180   -6.1860   24.8130 C   0  0  0  0  0  3  0  0  0  0  0  0
  -21.3040   -4.7950   24.9400 C   0  0  0  0  0  0  0  0  0  0  0  0
  -21.7410   -4.0280   23.8440 C   0  0  0  0  0  3  0  0  0  0  0  0
  -22.0010   -4.6550   22.6180 C   0  0  0  0  0  0  0  0  0  0  0  0
  -22.4030   -3.9340   21.5430 F   0  0  0  0  0  0  0  0  0  0  0  0
  -21.0500   -4.1850   26.1160 F   0  0  0  0  0  0  0  0  0  0  0  0
  -24.0020  -13.1140   19.4490 C   0  0  0  0  0  0  0  0  0  0  0  0
  -22.9750  -12.7910   20.2130 N   0  0  0  0  0  0  0  0  0  0  0  0
  -23.8190  -13.9300   18.5610 O   0  0  0  0  0  0  0  0  0  0  0  0
  -23.1160  -12.3330   21.0960 H   0  0  0  0  0  0  0  0  0  0  0  0
  -22.0830  -13.2220   20.0150 H   0  0  0  0  0  0  0  0  0  0  0  0
  -26.8980  -14.3530   18.8120 N   0  0  0  0  0  0  0  0  0  0  0  0
  -26.1780  -14.8450   18.2950 H   0  0  0  0  0  0  0  0  0  0  0  0
  -27.8160  -14.4600   18.4040 H   0  0  0  0  0  0  0  0  0  0  0  0
  1 56  1  0
  1  3  2  0
  2  1  1  0
  4  2  1  0
  5  2  1  0
  6  8  2  0
  6  5  1  0
  7  6  1  0
  9  7  1  0
 10  7  1  0
 11 10  1  0
 12 11  1  0
 13 14  1  0
 13 12  2  0
 15 17  1  0
 15 14  1  0
 16 27  2  0
 17 22  1  0
 18 28  1  0
 18 26  1  0
 19 25  1  0
 19 21  1  0
 20 26  1  0
 21 22  2  0
 21 20  1  0
 23 17  2  0
 24 23  1  0
 24 19  2  0
 25 18  1  0
 26 16  1  0
 28 30  2  0
 29 28  1  0
 31 29  1  0
 32 37  1  0
 33 29  1  0
 34 33  1  0
 35 34  1  0
 36 35  1  0
 36 32  1  0
 37 33  1  0
 37 38  2  0
 39 38  1  0
 40 39  2  0
 41 32  2  0
 41 40  1  0
 42 16  1  0
 42 52  1  0
 42 43  1  0
 43 46  1  0
 43 44  1  0
 44 48  1  0
 45 44  2  0
 48 47  1  0
 48 50  1  0
 50 51  1  0
 50 49  1  0
 52 55  1  1
 53 52  1  0
 54 52  1  0
 56 58  1  0
 57 58  1  0
 58 60  1  0
 59 57  2  0
 61 57  1  0
 62 66  1  0
 62 63  1  0
 64 62  2  0
 63 65  1  6
 67 76  1  0
 67 66  2  0
 68 73  1  6
 68 69  1  0
 68 74  1  0
 71 72  1  0
 71 70  1  0
 72 81  1  0
 75 68  1  0
 76 77  1  0
 78 79  2  0
 78 81  1  0
 79 80  1  0
 80 82  2  0
 80 83  1  0
 81 82  1  0
 83 84  1  0
 84 85  2  0
 84 63  1  0
 85 63  1  0
 86 89  1  0
 86 85  1  0
 87 86  2  0
 88 87  1  0
 88 83  2  0
 89 90  1  0
 90 95  2  0
 90 91  1  0
 91 92  2  0
 92 93  1  0
 93 97  1  0
 94 93  2  0
 95 94  1  0
 96 95  1  0
 98 79  1  0
 98 99  1  0
 99101  1  0
100 98  2  0
102 99  1  0
103 78  1  0
104103  1  0
105103  1  0
M  ISO  4  14 101  15 101  68 100  76 100
M  END
>  <TORSDO>  (26) 
F 29

>  <SCORE>  (26) 
1.324

>  <name>  (26) 
29

>  <ligand_id>  (26) 
29

>  <original_smiles>  (26) 
[H]c1c([H])c([H])c2c(c1[H])C([H])([H])C([H])([H])C([H])([H])C2([H])N([H])C(=O)C1([H])N(C(=O)C([H])(N([H])C(=O)C([H])(N([H])C([H])([H])[H])C([H])([H])[H])C(C([H])([H])[H])(C([H])([H])[H])C([H])([H])[H])C([H])([H])c2c([H])c(OC([H])([H])C([H])([H])C([H])([H])C([H])([H])C([H])([H])N([H])C(=O)C([H])([H])N([H])C(=O)C([H])([H])N([H])C(=O)C([H])([H])N([H])C(=O)C([H])([H])C([H])([H])N([H])C(=O)N3C([H])([H])C([H])([H])C([H])([H])C([H])(n4nc(-c5c([H])c([H])c(Oc6c([H])c([H])c(F)c([H])c6F)c([H])c5[H])c(C(=O)N([H])[H])c4N([H])[H])C3([H])[H])c([H])c([H])c2C1([H])[H]

>  <smiles>  (26) 
[H]c1c([H])c([H])c2c(c1[H])C([H])([H])C([H])([H])C([H])([H])C2([H])N([H])C(=O)C1([H])N(C(=O)C([H])(N([H])C(=O)C([H])(N([H])C([H])([H])[H])C([H])([H])[H])C(C([H])([H])[H])(C([H])([H])[H])C([H])([H])[H])C([H])([H])c2c([H])c(OC([H])([H])C([H])([H])C([H])([H])C([H])([H])C([H])([H])N([H])C(=O)C([H])([H])N([H])C(=O)C([H])([H])N([H])C(=O)C([H])([H])N([H])C(=O)C([H])([H])C([H])([H])N([H])C(=O)N3C([H])([H])C([H])([H])C([H])([H])C([H])(n4nc(-c5c([H])c([H])c(Oc6c([H])c([H])c(F)c([H])c6F)c([H])c5[H])c(C(=O)N([H])[H])c4N([H])[H])C3([H])[H])c([H])c([H])c2C1([H])[H]

$$$$
30:0:0
     RDKit          3D

113120  0  0  1  0  0  0  0  0999 V2000
  -22.0540  -14.6590   21.1090 C   0  0  0  0  0  2  0  0  0  0  0  0
  -21.9930  -13.1190   21.2620 C   0  0  0  0  0  2  0  0  0  0  0  0
  -22.2860  -12.5540   22.6780 C   0  0  0  0  0  2  0  0  0  0  0  0
  -24.3100  -11.0120   22.6390 C   0  0  0  0  0  0  0  0  0  0  0  0
  -23.6800  -12.1650   22.9350 N   0  0  0  0  0  0  0  0  0  0  0  0
  -23.7180  -10.0580   22.1250 O   0  0  0  0  0  0  0  0  0  0  0  0
  -24.2260  -12.8400   23.4560 H   0  0  0  0  0  0  0  0  0  0  0  0
  -25.8380  -10.9840   22.9690 C   0  0  0  0  0  2  0  0  0  0  0  0
  -26.5240   -9.7470   23.6660 C   0  0  0  0  0  1  0  0  0  0  0  0
  -29.8820   -7.2920   22.9830 C   0  0  0  0  0  0  0  0  0  0  0  0
  -28.5000   -7.6400   22.9990 N   0  0  0  0  0  0  0  0  0  0  0  0
  -30.1920   -6.4050   22.1880 O   0  0  0  0  0  0  0  0  0  0  0  0
  -28.0280   -6.9240   22.4760 H   0  0  0  0  0  0  0  0  0  0  0  0
  -31.0810   -7.8220   23.9360 C   0  0  0  0  0  2  0  0  0  0  0  0
  -33.5680   -8.5710   23.4100 C   0  0  0  0  0  0  0  0  0  0  0  0
  -32.2110   -8.7880   23.5380 N   0  0  0  0  0  0  0  0  0  0  0  0
  -33.9980   -7.4150   23.3610 O   0  0  0  0  0  0  0  0  0  0  0  0
  -31.9160   -9.7470   23.3780 H   0  0  0  0  0  0  0  0  0  0  0  0
  -34.6590   -9.7630   23.4990 C   0  0  0  0  0  2  0  0  0  0  0  0
  -36.0860  -10.2890   21.2790 C   0  0  0  0  0  0  0  0  0  0  0  0
  -35.1270   -8.4640   20.2330 C   0  0  0  0  0  2  0  0  0  0  0  0
  -34.1080   -8.1630   19.1630 C   0  0  0  0  0  2  0  0  0  0  0  0
  -32.7450   -8.7240   19.5400 C   0  0  0  0  0  2  0  0  0  0  0  0
  -32.7950  -10.2340   19.7980 C   0  0  0  0  0  3  0  0  0  0  0  0
  -33.8290  -10.6870   20.7840 C   0  0  0  0  0  2  0  0  0  0  0  0
  -35.0190   -9.8450   20.7120 N   0  0  0  0  0  0  0  0  0  0  0  0
  -37.1530  -10.4640   20.6580 O   0  0  0  0  0  0  0  0  0  0  0  0
  -35.8870  -10.0660   22.6220 N   0  0  0  0  0  0  0  0  0  0  0  0
  -36.6720  -10.3560   23.1780 H   0  0  0  0  0  0  0  0  0  0  0  0
  -31.1340  -12.0650   20.3040 C   0  0  0  0  0  0  0  0  0  0  0  0
  -29.8050  -12.0430   20.5650 C   0  0  0  0  0  0  0  0  0  0  0  0
  -29.4630  -10.6990   20.7350 C   0  0  0  0  0  0  0  0  0  0  0  0
  -31.5030  -10.7510   20.1780 N   0  0  0  0  0  0  0  0  0  0  0  0
  -30.4920   -9.9140   20.4850 N   0  0  0  0  0  0  0  0  0  0  0  0
  -28.1780  -10.1300   20.9400 C   0  0  0  0  0  0  0  0  0  0  0  0
  -27.8550   -8.8890   22.1690 C   0  0  0  0  0  0  0  0  0  0  0  0
  -26.4460   -7.8190   21.9640 C   0  0  0  0  0  3  0  0  0  0  0  0
  -25.3670   -8.0710   20.5750 C   0  0  0  0  0  0  0  0  0  0  0  0
  -25.7180   -9.3090   19.3900 C   0  0  0  0  0  3  0  0  0  0  0  0
  -27.1020  -10.3350   19.5800 C   0  0  0  0  0  3  0  0  0  0  0  0
  -24.0570   -7.7940   20.6210 O   0  0  0  0  0  0  0  0  0  0  0  0
  -23.5690   -7.2510   21.7570 C   0  0  0  0  0  0  0  0  0  0  0  0
  -23.4300   -7.9410   22.9850 C   0  0  0  0  0  3  0  0  0  0  0  0
  -22.8670   -7.2620   24.0800 C   0  0  0  0  0  3  0  0  0  0  0  0
  -22.4390   -5.9310   23.9260 C   0  0  0  0  0  0  0  0  0  0  0  0
  -22.5830   -5.2630   22.6970 C   0  0  0  0  0  3  0  0  0  0  0  0
  -23.1580   -5.9290   21.6130 C   0  0  0  0  0  0  0  0  0  0  0  0
  -23.3110   -5.3270   20.4110 F   0  0  0  0  0  0  0  0  0  0  0  0
  -21.8660   -5.2800   24.9630 F   0  0  0  0  0  0  0  0  0  0  0  0
  -28.9160  -13.2160   20.5930 C   0  0  0  0  0  0  0  0  0  0  0  0
  -28.1950  -13.3700   21.6620 N   0  0  0  0  0  0  0  0  0  0  0  0
  -28.9660  -14.0910   19.7510 O   0  0  0  0  0  0  0  0  0  0  0  0
  -28.2870  -12.7400   22.4410 H   0  0  0  0  0  0  0  0  0  0  0  0
  -27.7060  -14.2450   21.7600 H   0  0  0  0  0  0  0  0  0  0  0  0
  -32.0400  -13.0910   20.1210 N   0  0  0  0  0  0  0  0  0  0  0  0
  -31.7990  -14.0680   20.2210 H   0  0  0  0  0  0  0  0  0  0  0  0
  -32.9900  -12.9360   19.7990 H   0  0  0  0  0  0  0  0  0  0  0  0
  -23.0350  -15.1290   20.0010 C   0  0  0  0  0  2  0  0  0  0  0  0
  -24.3490  -15.7470   20.5380 C   0  0  0  0  0  2  0  0  0  0  0  0
  -25.5490  -15.5370   19.5890 C   0  0  0  0  0  2  0  0  0  0  0  0
  -26.8730  -16.1980   20.0440 C   0  0  0  0  0  2  0  0  0  0  0  0
  -27.8890  -16.3180   18.8840 C   0  0  0  0  0  2  0  0  0  0  0  0
  -29.2310  -18.4420   18.8410 C   0  0  0  0  0  0  0  0  0  0  0  0
  -29.0590  -17.1550   19.1890 N   0  0  0  0  0  0  0  0  0  0  0  0
  -28.3250  -19.1250   18.3590 O   0  0  0  0  0  0  0  0  0  0  0  0
  -29.8610  -16.6850   19.5930 H   0  0  0  0  0  0  0  0  0  0  0  0
  -30.6390  -19.0370   19.0200 C   0  0  0  0  0  2  0  0  0  0  0  0
  -30.9850  -21.4730   19.5420 C   0  0  0  0  0  0  0  0  0  0  0  0
  -30.6620  -20.2190   19.8880 N   0  0  0  0  0  0  0  0  0  0  0  0
  -31.3030  -21.7880   18.3920 O   0  0  0  0  0  0  0  0  0  0  0  0
  -30.4000  -20.0680   20.8520 H   0  0  0  0  0  0  0  0  0  0  0  0
  -30.9540  -22.5130   20.6800 C   0  0  0  0  0  2  0  0  0  0  0  0
  -31.4010  -23.8110   20.2620 O   0  0  0  0  0  0  0  0  0  0  0  0
  -25.3320  -27.3410   21.4360 C   0  0  0  0  0  0  0  0  0  0  0  0
  -30.4070  -24.6050   19.7440 C   0  0  0  0  0  0  0  0  0  0  0  0
  -25.9980  -27.0820   19.0680 C   0  0  0  0  0  3  0  0  0  0  0  0
  -28.3640  -26.2250   18.6710 C   0  0  0  0  0  0  0  0  0  0  0  0
  -27.7600  -27.1310   20.9240 C   0  0  0  0  0  2  0  0  0  0  0  0
  -28.6180  -26.2430   20.0490 C   0  0  0  0  0  0  0  0  0  0  0  0
  -29.6440  -25.4390   20.5910 C   0  0  0  0  0  3  0  0  0  0  0  0
  -30.1400  -24.5990   18.3590 C   0  0  0  0  0  3  0  0  0  0  0  0
  -29.1230  -25.4050   17.8200 C   0  0  0  0  0  3  0  0  0  0  0  0
  -27.2610  -27.1250   18.1680 C   0  0  0  0  0  2  0  0  0  0  0  0
  -26.3330  -27.1670   20.5280 N   0  0  0  0  0  0  0  0  0  0  0  0
  -24.1540  -27.4710   21.0750 O   0  0  0  0  0  0  0  0  0  0  0  0
  -25.1730  -25.8280   18.7010 C   0  0  0  0  0  0  0  0  0  0  0  0
  -24.4690  -25.8900   17.5590 N   0  0  0  0  0  0  0  0  0  0  0  0
  -25.1940  -24.8250   19.4190 O   0  0  0  0  0  0  0  0  0  0  0  0
  -24.4990  -26.7510   17.0310 H   0  0  0  0  0  0  0  0  0  0  0  0
  -22.3820  -24.9940   14.7510 C   0  0  0  0  0  0  0  0  0  0  0  0
  -23.6480  -24.8190   16.9970 C   0  0  0  0  0  3  0  0  0  0  0  0
  -24.5230  -23.7500   16.3040 C   0  0  0  0  0  2  0  0  0  0  0  0
  -24.7110  -24.0050   14.8040 C   0  0  0  0  0  2  0  0  0  0  0  0
  -23.3560  -24.0320   14.0910 C   0  0  0  0  0  2  0  0  0  0  0  0
  -22.5280  -25.3750   16.1110 C   0  0  0  0  0  0  0  0  0  0  0  0
  -21.6160  -26.3000   16.6650 C   0  0  0  0  0  3  0  0  0  0  0  0
  -20.5740  -26.8380   15.8870 C   0  0  0  0  0  3  0  0  0  0  0  0
  -20.4240  -26.4460   14.5460 C   0  0  0  0  0  3  0  0  0  0  0  0
  -21.3230  -25.5230   13.9820 C   0  0  0  0  0  3  0  0  0  0  0  0
  -25.6230  -27.4080   22.9680 C   0  0  0  0  0  3  0  0  0  0  0  0
  -25.3770  -26.0370   23.7100 C   0  0  1  0  0  0  0  0  0  0  0  0
  -23.9940  -25.4120   23.4160 C   0  0  0  0  0  1  0  0  0  0  0  0
  -26.4560  -25.0010   23.3160 C   0  0  0  0  0  1  0  0  0  0  0  0
  -25.4960  -26.2390   25.2390 C   0  0  0  0  0  1  0  0  0  0  0  0
  -24.7720  -28.4640   23.5320 N   0  0  0  0  0  0  0  0  0  0  0  0
  -25.2090  -29.6770   23.9000 C   0  0  0  0  0  0  0  0  0  0  0  0
  -26.4000  -29.9980   23.8660 O   0  0  0  0  0  0  0  0  0  0  0  0
  -23.7770  -28.2900   23.5360 H   0  0  0  0  0  0  0  0  0  0  0  0
  -23.8630  -31.7020   23.2620 C   0  0  0  0  0  1  0  0  0  0  0  0
  -24.1570  -30.6920   24.3830 C   0  0  0  0  0  3  0  0  0  0  0  0
  -24.6030  -30.5570   26.7930 C   0  0  0  0  0  1  0  0  0  0  0  0
  -24.5570  -31.4130   25.6110 N   0  0  0  0  0  0  0  0  0  0  0  0
  -23.9210  -32.1830   25.8010 H   0  0  0  0  0  0  0  0  0  0  0  0
  1  2  1  0
  2  3  1  0
  3  5  1  0
  4  5  1  0
  4  8  1  0
  5  7  1  0
  6  4  2  0
  8  9  1  0
 10 11  1  0
 10 14  1  0
 12 10  2  0
 13 11  1  0
 15 19  1  0
 15 16  1  0
 16 14  1  0
 17 15  2  0
 18 16  1  0
 20 28  1  0
 21 26  1  0
 22 23  1  0
 22 21  1  0
 24 23  1  0
 24 33  1  0
 24 25  1  0
 26 25  1  0
 26 20  1  0
 27 20  2  0
 28 29  1  0
 28 19  1  0
 30 31  2  0
 31 50  1  0
 31 32  1  0
 32 35  1  0
 33 30  1  0
 33 34  1  0
 34 32  2  0
 35 36  1  0
 36 11  1  0
 37 36  2  0
 38 41  1  0
 38 37  1  0
 39 40  1  0
 39 38  2  0
 40 35  2  0
 41 42  1  0
 42 43  1  0
 43 44  2  0
 45 44  1  0
 45 49  1  0
 46 45  2  0
 47 42  2  0
 47 46  1  0
 48 47  1  0
 50 51  1  0
 51 54  1  0
 51 53  1  0
 52 50  2  0
 55 56  1  0
 55 30  1  0
 57 55  1  0
 58 59  1  0
 58  1  1  0
 60 61  1  0
 60 59  1  0
 62 64  1  0
 62 61  1  0
 63 67  1  0
 63 64  1  0
 64 66  1  0
 65 63  2  0
 67 69  1  0
 68 69  1  0
 68 72  1  0
 69 71  1  0
 70 68  2  0
 73 72  1  0
 75 73  1  0
 75 80  1  0
 76 86  1  0
 76 84  1  0
 77 79  1  0
 79 80  2  0
 79 78  1  0
 81 75  2  0
 82 81  1  0
 82 77  2  0
 83 77  1  0
 83 76  1  0
 84 78  1  0
 84 74  1  0
 85 74  2  0
 86 88  2  0
 87 86  1  0
 89 87  1  0
 90 95  1  0
 91 87  1  0
 92 91  1  0
 93 92  1  0
 94 90  1  0
 94 93  1  0
 95 96  2  0
 95 91  1  0
 97 96  1  0
 98 97  2  0
 99 98  1  0
 99 90  2  0
100 74  1  0
100105  1  0
100101  1  0
101104  1  1
102101  1  0
103101  1  0
105108  1  0
105106  1  0
106110  1  0
107106  2  0
110109  1  0
110112  1  0
112113  1  0
112111  1  0
M  ISO  4  20 100  28 100  72 101  73 101
M  END
>  <TORSDO>  (27) 
F 34

>  <SCORE>  (27) 
4.082

>  <name>  (27) 
30

>  <ligand_id>  (27) 
30

>  <original_smiles>  (27) 
[H]c1c([H])c([H])c2c(c1[H])C([H])([H])C([H])([H])C([H])([H])C2([H])N([H])C(=O)C1([H])N(C(=O)C([H])(N([H])C(=O)C([H])(N([H])C([H])([H])[H])C([H])([H])[H])C(C([H])([H])[H])(C([H])([H])[H])C([H])([H])[H])C([H])([H])c2c([H])c(OC([H])([H])C(=O)N([H])C([H])([H])C(=O)N([H])C([H])([H])C([H])([H])C([H])([H])C([H])([H])C([H])([H])C([H])([H])C([H])([H])C([H])([H])N([H])C(=O)C([H])([H])C([H])([H])N([H])C(=O)C([H])([H])N([H])C(=O)C([H])([H])N([H])C(=O)N3C([H])([H])C([H])([H])C([H])([H])C([H])(n4nc(-c5c([H])c([H])c(Oc6c([H])c([H])c(F)c([H])c6F)c([H])c5[H])c(C(=O)N([H])[H])c4N([H])[H])C3([H])[H])c([H])c([H])c2C1([H])[H]

>  <smiles>  (27) 
[H]c1c([H])c([H])c2c(c1[H])C([H])([H])C([H])([H])C([H])([H])C2([H])N([H])C(=O)C1([H])N(C(=O)C([H])(N([H])C(=O)C([H])(N([H])C([H])([H])[H])C([H])([H])[H])C(C([H])([H])[H])(C([H])([H])[H])C([H])([H])[H])C([H])([H])c2c([H])c(OC([H])([H])C(=O)N([H])C([H])([H])C(=O)N([H])C([H])([H])C([H])([H])C([H])([H])C([H])([H])C([H])([H])C([H])([H])C([H])([H])C([H])([H])N([H])C(=O)C([H])([H])C([H])([H])N([H])C(=O)C([H])([H])N([H])C(=O)C([H])([H])N([H])C(=O)N3C([H])([H])C([H])([H])C([H])([H])C([H])(n4nc(-c5c([H])c([H])c(Oc6c([H])c([H])c(F)c([H])c6F)c([H])c5[H])c(C(=O)N([H])[H])c4N([H])[H])C3([H])[H])c([H])c([H])c2C1([H])[H]

$$$$
31:0:0
     RDKit          3D

102104  0  0  1  0  0  0  0  0999 V2000
  -29.3410  -15.3450   18.9430 C   0  0  0  0  0  0  0  0  0  0  0  0
  -30.4670  -16.0510   18.7280 N   0  0  0  0  0  0  0  0  0  0  0  0
  -28.3590  -15.9060   19.4370 O   0  0  0  0  0  0  0  0  0  0  0  0
  -31.2160  -15.5580   18.2580 H   0  0  0  0  0  0  0  0  0  0  0  0
  -30.8940  -17.2250   19.4870 C   0  0  0  0  0  2  0  0  0  0  0  0
  -30.2900  -18.5520   19.0210 C   0  0  0  0  0  2  0  0  0  0  0  0
  -30.7190  -19.6940   19.9490 C   0  0  0  0  0  2  0  0  0  0  0  0
  -30.0840  -20.8720   19.4980 O   0  0  0  0  0  0  0  0  0  0  0  0
  -30.3380  -22.0030   20.3130 C   0  0  0  0  0  2  0  0  0  0  0  0
  -29.3840  -23.0710   19.7910 C   0  0  0  0  0  2  0  0  0  0  0  0
  -29.4940  -24.4420   20.4730 C   0  0  0  0  0  2  0  0  0  0  0  0
  -28.3120  -25.3000   20.0220 C   0  0  0  0  0  2  0  0  0  0  0  0
  -28.3630  -26.6340   20.5180 O   0  0  0  0  0  0  0  0  0  0  0  0
  -24.5580  -31.9090   23.3580 C   0  0  0  0  0  0  0  0  0  0  0  0
  -27.1890  -27.3570   20.4490 C   0  0  0  0  0  0  0  0  0  0  0  0
  -23.3610  -30.4870   21.7270 C   0  0  0  0  0  3  0  0  0  0  0  0
  -24.8150  -28.8950   20.3760 C   0  0  0  0  0  0  0  0  0  0  0  0
  -25.8960  -30.8010   21.5740 C   0  0  0  0  0  2  0  0  0  0  0  0
  -25.9690  -29.4130   20.9750 C   0  0  0  0  0  0  0  0  0  0  0  0
  -27.1570  -28.6500   21.0150 C   0  0  0  0  0  3  0  0  0  0  0  0
  -26.0110  -26.8550   19.8370 C   0  0  0  0  0  3  0  0  0  0  0  0
  -24.8300  -27.6120   19.8080 C   0  0  0  0  0  3  0  0  0  0  0  0
  -23.5870  -29.7720   20.3700 C   0  0  0  0  0  2  0  0  0  0  0  0
  -24.6220  -31.0810   22.2780 N   0  0  0  0  0  0  0  0  0  0  0  0
  -23.4710  -32.2150   23.8650 O   0  0  0  0  0  0  0  0  0  0  0  0
  -22.6730  -29.5000   22.6970 C   0  0  0  0  0  0  0  0  0  0  0  0
  -21.3520  -29.3220   22.5310 N   0  0  0  0  0  0  0  0  0  0  0  0
  -23.3250  -28.8970   23.5530 O   0  0  0  0  0  0  0  0  0  0  0  0
  -20.8900  -29.8590   21.8090 H   0  0  0  0  0  0  0  0  0  0  0  0
  -17.9530  -28.1790   22.9540 C   0  0  0  0  0  0  0  0  0  0  0  0
  -20.5010  -28.4190   23.3040 C   0  0  0  0  0  3  0  0  0  0  0  0
  -20.6080  -26.9680   22.7780 C   0  0  0  0  0  2  0  0  0  0  0  0
  -19.5370  -26.6240   21.7380 C   0  0  0  0  0  2  0  0  0  0  0  0
  -18.1360  -26.8060   22.3310 C   0  0  0  0  0  2  0  0  0  0  0  0
  -19.0650  -28.9420   23.3960 C   0  0  0  0  0  0  0  0  0  0  0  0
  -18.8420  -30.2280   23.9360 C   0  0  0  0  0  3  0  0  0  0  0  0
  -17.5380  -30.7490   24.0390 C   0  0  0  0  0  3  0  0  0  0  0  0
  -16.4390  -29.9830   23.6140 C   0  0  0  0  0  3  0  0  0  0  0  0
  -16.6480  -28.7000   23.0760 C   0  0  0  0  0  3  0  0  0  0  0  0
  -25.8430  -32.5310   23.9880 C   0  0  0  0  0  3  0  0  0  0  0  0
  -25.5570  -33.9440   24.2660 N   0  0  0  0  0  0  0  0  0  0  0  0
  -25.9120  -34.9630   23.4720 C   0  0  0  0  0  0  0  0  0  0  0  0
  -26.5880  -34.8110   22.4500 O   0  0  0  0  0  0  0  0  0  0  0  0
  -24.9590  -34.1380   25.0560 H   0  0  0  0  0  0  0  0  0  0  0  0
  -24.2040  -36.7600   23.0500 C   0  0  0  0  0  1  0  0  0  0  0  0
  -25.4420  -36.3730   23.8740 C   0  0  0  0  0  3  0  0  0  0  0  0
  -27.5900  -37.2640   24.6660 C   0  0  0  0  0  1  0  0  0  0  0  0
  -26.4890  -37.4070   23.7170 N   0  0  0  0  0  0  0  0  0  0  0  0
  -26.0950  -38.3380   23.8280 H   0  0  0  0  0  0  0  0  0  0  0  0
  -26.3170  -31.7870   25.2950 C   0  0  1  0  0  0  0  0  0  0  0  0
  -25.1960  -31.5920   26.3410 C   0  0  0  0  0  1  0  0  0  0  0  0
  -26.8900  -30.3920   24.9510 C   0  0  0  0  0  1  0  0  0  0  0  0
  -27.4630  -32.5820   25.9650 C   0  0  0  0  0  1  0  0  0  0  0  0
  -29.3070  -13.7910   18.4720 C   0  0  0  0  0  1  0  0  0  0  0  0
  -29.0790  -10.2100   19.4710 C   0  0  0  0  0  0  0  0  0  0  0  0
  -28.9490  -11.5850   19.4260 N   0  0  0  0  0  2  0  0  0  0  0  0
  -29.3250   -9.4550   18.5320 O   0  0  0  0  0  0  0  0  0  0  0  0
  -28.6270  -11.8010   20.3540 H   0  0  0  0  0  0  0  0  0  0  0  0
  -29.0130   -9.5860   20.8840 C   0  0  0  0  0  2  0  0  0  0  0  0
  -30.9910  -10.6700   21.9870 C   0  0  0  0  0  0  0  0  0  0  0  0
  -29.6760  -10.3940   21.9220 N   0  0  0  0  0  0  0  0  0  0  0  0
  -31.8400  -10.0340   21.3600 O   0  0  0  0  0  0  0  0  0  0  0  0
  -29.0610  -10.9010   22.5470 H   0  0  0  0  0  0  0  0  0  0  0  0
  -31.3920  -11.9350   22.7870 C   0  0  0  0  0  2  0  0  0  0  0  0
  -31.7110  -13.5540   20.8140 C   0  0  0  0  0  0  0  0  0  0  0  0
  -31.0850  -12.1870   18.5980 C   0  0  0  0  0  1  0  0  0  0  0  0
  -29.5580  -11.9630   17.1840 C   0  0  0  0  0 15  0  0  0  0  0  0
  -27.6400  -12.4630   17.7610 C   0  0  0  0  0 15  0  0  0  0  0  0
  -27.4370  -13.3410   19.6040 C   0  0  0  0  0  1  0  0  0  0  0  0
  -29.0190  -13.4280   20.8750 C   0  0  0  0  0  1  0  0  0  0  0  0
  -30.7000  -12.9580   20.2610 N   0  0  0  0  0  0  0  0  0  0  0  0
  -32.4490  -14.2730   20.1480 O   0  0  0  0  0  0  0  0  0  0  0  0
  -32.0560  -13.0160   22.0010 N   0  0  0  0  0  0  0  0  0  0  0  0
  -32.9450  -13.3270   22.3650 H   0  0  0  0  0  0  0  0  0  0  0  0
  -25.3330  -13.9060   20.6340 C   0  0  0  0  0  0  0  0  0  0  0  0
  -24.2980  -13.1190   20.9940 C   0  0  0  0  0  0  0  0  0  0  0  0
  -24.7550  -11.7660   20.8960 C   0  0  0  0  0  0  0  0  0  0  0  0
  -26.2890  -13.0060   20.2760 N   0  0  0  0  0  0  0  0  0  0  0  0
  -26.0190  -11.7180   20.5230 N   0  0  0  0  0  0  0  0  0  0  0  0
  -24.0390  -10.5080   21.0560 C   0  0  0  0  0  0  0  0  0  0  0  0
  -24.4650   -9.5320   21.9780 C   0  0  0  0  0  3  0  0  0  0  0  0
  -23.7280   -8.3440   22.1410 C   0  0  0  0  0  3  0  0  0  0  0  0
  -22.5570   -8.1300   21.3770 C   0  0  0  0  0  0  0  0  0  0  0  0
  -22.1620   -9.0910   20.4320 C   0  0  0  0  0  3  0  0  0  0  0  0
  -22.9000  -10.2720   20.2650 C   0  0  0  0  0  3  0  0  0  0  0  0
  -21.7810   -7.0010   21.4540 O   0  0  0  0  0  0  0  0  0  0  0  0
  -21.6590   -6.3000   22.6240 C   0  0  0  0  0  0  0  0  0  0  0  0
  -21.1910   -6.9020   23.8120 C   0  0  0  0  0  3  0  0  0  0  0  0
  -21.0200   -6.1220   24.9730 C   0  0  0  0  0  3  0  0  0  0  0  0
  -21.3010   -4.7420   24.9430 C   0  0  0  0  0  0  0  0  0  0  0  0
  -21.7590   -4.1410   23.7550 C   0  0  0  0  0  3  0  0  0  0  0  0
  -21.9360   -4.9190   22.6000 C   0  0  0  0  0  0  0  0  0  0  0  0
  -22.3600   -4.3350   21.4550 F   0  0  0  0  0  0  0  0  0  0  0  0
  -21.1250   -3.9890   26.0540 F   0  0  0  0  0  0  0  0  0  0  0  0
  -22.9280  -13.6170   21.2870 C   0  0  0  0  0  0  0  0  0  0  0  0
  -22.2190  -12.9320   22.1730 N   0  0  0  0  0  0  0  0  0  0  0  0
  -22.5060  -14.6500   20.7690 O   0  0  0  0  0  0  0  0  0  0  0  0
  -22.5970  -12.1000   22.6010 H   0  0  0  0  0  0  0  0  0  0  0  0
  -21.2890  -13.2410   22.4210 H   0  0  0  0  0  0  0  0  0  0  0  0
  -25.5290  -15.2830   20.5160 N   0  0  0  0  0  0  0  0  0  0  0  0
  -24.8040  -15.9560   20.7370 H   0  0  0  0  0  0  0  0  0  0  0  0
  -26.4020  -15.7140   20.2220 H   0  0  0  0  0  0  0  0  0  0  0  0
  1  3  2  0
  2  1  1  0
  2  5  1  0
  4  2  1  0
  6  5  1  0
  6  7  1  0
  8  7  1  0
  8  9  1  0
 10  9  1  0
 10 11  1  0
 12 11  1  0
 12 13  1  0
 14 25  2  0
 15 13  1  0
 15 20  1  0
 16 24  1  0
 16 26  1  0
 17 19  1  0
 18 24  1  0
 19 20  2  0
 19 18  1  0
 21 15  2  0
 22 21  1  0
 22 17  2  0
 23 17  1  0
 23 16  1  0
 24 14  1  0
 26 28  2  0
 27 26  1  0
 29 27  1  0
 30 39  2  0
 30 35  1  0
 31 27  1  0
 31 35  1  0
 32 31  1  0
 33 34  1  0
 33 32  1  0
 34 30  1  0
 35 36  2  0
 36 37  1  0
 38 37  2  0
 39 38  1  0
 40 14  1  0
 40 41  1  0
 40 50  1  0
 41 44  1  0
 42 46  1  0
 42 41  1  0
 43 42  2  0
 46 45  1  0
 48 49  1  0
 48 46  1  0
 48 47  1  0
 50 53  1  1
 50 51  1  0
 52 50  1  0
 54  1  1  0
 55 59  1  0
 56 55  1  0
 56 58  1  0
 57 55  2  0
 59 61  1  0
 60 64  1  0
 61 60  1  0
 61 63  1  0
 62 60  2  0
 65 73  1  0
 66 71  1  0
 69 78  1  0
 71 65  1  0
 71 70  1  0
 72 65  2  0
 73 74  1  0
 73 64  1  0
 75 76  2  0
 76 95  1  0
 77 76  1  0
 77 80  1  0
 78 79  1  0
 78 75  1  0
 79 77  2  0
 80 81  1  0
 81 82  2  0
 83 86  1  0
 83 82  1  0
 84 83  2  0
 85 84  1  0
 85 80  2  0
 86 87  1  0
 87 88  1  0
 88 89  2  0
 90 89  1  0
 90 94  1  0
 91 90  2  0
 92 87  2  0
 92 91  1  0
 93 92  1  0
 95 96  1  0
 96 99  1  0
 96 98  1  0
 97 95  2  0
100 75  1  0
100101  1  0
102100  1  0
M  ISO  4  12 101  13 101  65 100  73 100
M  END
>  <TORSDO>  (28) 
F 29

>  <SCORE>  (28) 
-10.276

>  <name>  (28) 
31

>  <ligand_id>  (28) 
31

>  <original_smiles>  (28) 
[H]c1c([H])c([H])c2c(c1[H])C([H])([H])C([H])([H])C([H])([H])C2([H])N([H])C(=O)C1([H])N(C(=O)C([H])(N([H])C(=O)C([H])(N([H])C([H])([H])[H])C([H])([H])[H])C(C([H])([H])[H])(C([H])([H])[H])C([H])([H])[H])C([H])([H])c2c([H])c(OC([H])([H])C([H])([H])C([H])([H])C([H])([H])OC([H])([H])C([H])([H])C([H])([H])N([H])C(=O)C([H])([H])N([H])C(=O)C([H])([H])N([H])C(=O)C([H])([H])N([H])C(=O)N3C([H])([H])C([H])([H])C([H])([H])C([H])(n4nc(-c5c([H])c([H])c(Oc6c([H])c([H])c(F)c([H])c6F)c([H])c5[H])c(C(=O)N([H])[H])c4N([H])[H])C3([H])[H])c([H])c([H])c2C1([H])[H]

>  <smiles>  (28) 
[H]c1c([H])c([H])c2c(c1[H])C([H])([H])C([H])([H])C([H])([H])C2([H])N([H])C(=O)C1([H])N(C(=O)C([H])(N([H])C(=O)C([H])(N([H])C([H])([H])[H])C([H])([H])[H])C(C([H])([H])[H])(C([H])([H])[H])C([H])([H])[H])C([H])([H])c2c([H])c(OC([H])([H])C([H])([H])C([H])([H])C([H])([H])OC([H])([H])C([H])([H])C([H])([H])N([H])C(=O)C([H])([H])N([H])C(=O)C([H])([H])N([H])C(=O)C([H])([H])N([H])C(=O)N3C([H])([H])C([H])([H])C([H])([H])C([H])(n4nc(-c5c([H])c([H])c(Oc6c([H])c([H])c(F)c([H])c6F)c([H])c5[H])c(C(=O)N([H])[H])c4N([H])[H])C3([H])[H])c([H])c([H])c2C1([H])[H]

$$$$
32:0:0
     RDKit          3D

109116  0  0  1  0  0  0  0  0999 V2000
  -32.7420  -28.7130   22.4550 C   0  0  0  0  0  0  0  0  0  0  0  0
  -31.6730  -29.0150   23.2010 N   0  0  0  0  0  0  0  0  0  0  0  0
  -33.7450  -28.1630   22.9180 O   0  0  0  0  0  0  0  0  0  0  0  0
  -30.9000  -29.4760   22.7390 H   0  0  0  0  0  0  0  0  0  0  0  0
  -31.5020  -28.6930   24.6160 C   0  0  0  0  0  2  0  0  0  0  0  0
  -31.1030  -27.2200   24.8400 C   0  0  0  0  0  2  0  0  0  0  0  0
  -29.8060  -26.8230   24.1150 C   0  0  0  0  0  2  0  0  0  0  0  0
  -29.4160  -25.3460   24.3220 C   0  0  0  0  0  2  0  0  0  0  0  0
  -28.0780  -24.9680   23.6580 C   0  0  0  0  0  2  0  0  0  0  0  0
  -28.3160  -24.6190   21.1860 C   0  0  0  0  0  0  0  0  0  0  0  0
  -28.0590  -25.3740   22.2590 N   0  0  0  0  0  0  0  0  0  0  0  0
  -28.4550  -23.3950   21.2470 O   0  0  0  0  0  0  0  0  0  0  0  0
  -27.9600  -26.3630   22.0660 H   0  0  0  0  0  0  0  0  0  0  0  0
  -28.4710  -25.3590   19.8480 C   0  0  0  0  0  2  0  0  0  0  0  0
  -28.4320  -26.7810   20.0440 O   0  0  0  0  0  0  0  0  0  0  0  0
  -24.6130  -31.8680   23.2140 C   0  0  0  0  0  0  0  0  0  0  0  0
  -27.2280  -27.4530   20.0670 C   0  0  0  0  0  0  0  0  0  0  0  0
  -23.3980  -30.4950   21.5550 C   0  0  0  0  0  3  0  0  0  0  0  0
  -24.8390  -28.9620   20.1210 C   0  0  0  0  0  0  0  0  0  0  0  0
  -25.9280  -30.8370   21.3660 C   0  0  0  0  0  2  0  0  0  0  0  0
  -26.0020  -29.4740   20.7090 C   0  0  0  0  0  0  0  0  0  0  0  0
  -27.1970  -28.7250   20.6810 C   0  0  0  0  0  3  0  0  0  0  0  0
  -26.0410  -26.9430   19.4940 C   0  0  0  0  0  3  0  0  0  0  0  0
  -24.8520  -27.6930   19.5180 C   0  0  0  0  0  3  0  0  0  0  0  0
  -23.6050  -29.8310   20.1690 C   0  0  0  0  0  2  0  0  0  0  0  0
  -24.6650  -31.0820   22.1030 N   0  0  0  0  0  0  0  0  0  0  0  0
  -23.5340  -32.1420   23.7560 O   0  0  0  0  0  0  0  0  0  0  0  0
  -22.7400  -29.4650   22.5000 C   0  0  0  0  0  0  0  0  0  0  0  0
  -21.4130  -29.3010   22.3740 N   0  0  0  0  0  0  0  0  0  0  0  0
  -23.4170  -28.8170   23.3030 O   0  0  0  0  0  0  0  0  0  0  0  0
  -20.9280  -29.8740   21.6980 H   0  0  0  0  0  0  0  0  0  0  0  0
  -18.0260  -28.1370   22.8490 C   0  0  0  0  0  0  0  0  0  0  0  0
  -20.5850  -28.3640   23.1330 C   0  0  0  0  0  3  0  0  0  0  0  0
  -20.6760  -26.9380   22.5420 C   0  0  0  0  0  2  0  0  0  0  0  0
  -19.5740  -26.6380   21.5210 C   0  0  0  0  0  2  0  0  0  0  0  0
  -18.1910  -26.7910   22.1610 C   0  0  0  0  0  2  0  0  0  0  0  0
  -19.1510  -28.8820   23.2900 C   0  0  0  0  0  0  0  0  0  0  0  0
  -18.9450  -30.1420   23.8910 C   0  0  0  0  0  3  0  0  0  0  0  0
  -17.6460  -30.6570   24.0560 C   0  0  0  0  0  3  0  0  0  0  0  0
  -16.5340  -29.9070   23.6330 C   0  0  0  0  0  3  0  0  0  0  0  0
  -16.7250  -28.6490   23.0350 C   0  0  0  0  0  3  0  0  0  0  0  0
  -25.9050  -32.4810   23.8400 C   0  0  0  0  0  3  0  0  0  0  0  0
  -26.4500  -31.6570   25.0710 C   0  0  1  0  0  0  0  0  0  0  0  0
  -25.3780  -31.3670   26.1470 C   0  0  0  0  0  1  0  0  0  0  0  0
  -27.0350  -30.3020   24.6060 C   0  0  0  0  0  1  0  0  0  0  0  0
  -27.6080  -32.4290   25.7460 C   0  0  0  0  0  1  0  0  0  0  0  0
  -25.5920  -33.8610   24.2350 N   0  0  0  0  0  0  0  0  0  0  0  0
  -25.9050  -34.9470   23.5140 C   0  0  0  0  0  0  0  0  0  0  0  0
  -26.5590  -34.8920   22.4690 O   0  0  0  0  0  0  0  0  0  0  0  0
  -25.0090  -33.9760   25.0500 H   0  0  0  0  0  0  0  0  0  0  0  0
  -24.1490  -36.7310   23.2640 C   0  0  0  0  0  1  0  0  0  0  0  0
  -25.4120  -36.3100   24.0340 C   0  0  0  0  0  3  0  0  0  0  0  0
  -27.5600  -37.1790   24.8450 C   0  0  0  0  0  1  0  0  0  0  0  0
  -26.4290  -37.3800   23.9430 N   0  0  0  0  0  0  0  0  0  0  0  0
  -26.0190  -38.2860   24.1490 H   0  0  0  0  0  0  0  0  0  0  0  0
  -32.6840  -29.0920   20.9690 C   0  0  0  0  0  2  0  0  0  0  0  0
  -32.6160  -26.8800   19.8480 C   0  0  0  0  0  0  0  0  0  0  0  0
  -33.2300  -28.0370   20.1160 N   0  0  0  0  0  0  0  0  0  0  0  0
  -31.4880  -26.6240   20.2730 O   0  0  0  0  0  0  0  0  0  0  0  0
  -34.1620  -28.1770   19.7500 H   0  0  0  0  0  0  0  0  0  0  0  0
  -33.3740  -25.8800   18.9620 C   0  0  0  0  0  2  0  0  0  0  0  0
  -32.6820  -23.6330   19.7720 C   0  0  0  0  0  0  0  0  0  0  0  0
  -32.6890  -24.5930   18.8400 N   0  0  0  0  0  0  0  0  0  0  0  0
  -33.3270  -23.7250   20.8190 O   0  0  0  0  0  0  0  0  0  0  0  0
  -32.1330  -24.4510   18.0080 H   0  0  0  0  0  0  0  0  0  0  0  0
  -31.8300  -22.3950   19.4710 C   0  0  0  0  0  2  0  0  0  0  0  0
  -32.0050  -21.2600   20.4980 C   0  0  0  0  0  2  0  0  0  0  0  0
  -31.1630  -20.0160   20.1700 C   0  0  0  0  0  2  0  0  0  0  0  0
  -31.3470  -18.9070   21.2170 C   0  0  0  0  0  2  0  0  0  0  0  0
  -30.6200  -17.6040   20.8530 C   0  0  0  0  0  2  0  0  0  0  0  0
  -30.8210  -16.5110   21.9220 C   0  0  0  0  0  2  0  0  0  0  0  0
  -30.7580  -14.3740   20.6510 C   0  0  0  0  0  0  0  0  0  0  0  0
  -30.4170  -12.2810   19.3960 C   0  0  0  0  0  2  0  0  0  0  0  0
  -29.4830  -12.5120   18.1920 C   0  0  0  0  0  2  0  0  0  0  0  0
  -28.0070  -12.3760   18.6110 C   0  0  0  0  0  2  0  0  0  0  0  0
  -27.6660  -13.2010   19.8790 C   0  0  0  0  0  3  0  0  0  0  0  0
  -28.7060  -12.9440   20.9920 C   0  0  0  0  0  2  0  0  0  0  0  0
  -30.0460  -13.2350   20.4500 N   0  0  0  0  0  0  0  0  0  0  0  0
  -31.8140  -14.6260   20.0640 O   0  0  0  0  0  0  0  0  0  0  0  0
  -30.2300  -15.2340   21.5300 N   0  0  0  0  0  0  0  0  0  0  0  0
  -29.3690  -14.9580   21.9790 H   0  0  0  0  0  0  0  0  0  0  0  0
  -25.2610  -13.8160   20.5680 C   0  0  0  0  0  0  0  0  0  0  0  0
  -24.1850  -13.0440   20.9170 C   0  0  0  0  0  0  0  0  0  0  0  0
  -24.6390  -11.6910   20.8730 C   0  0  0  0  0  0  0  0  0  0  0  0
  -26.3050  -12.9320   20.3380 N   0  0  0  0  0  0  0  0  0  0  0  0
  -25.9320  -11.6480   20.5770 N   0  0  0  0  0  0  0  0  0  0  0  0
  -23.9050  -10.4300   21.0400 C   0  0  0  0  0  0  0  0  0  0  0  0
  -24.3610   -9.4210   21.9180 C   0  0  0  0  0  3  0  0  0  0  0  0
  -23.6290   -8.2250   22.0760 C   0  0  0  0  0  3  0  0  0  0  0  0
  -22.4270   -8.0280   21.3540 C   0  0  0  0  0  0  0  0  0  0  0  0
  -21.9900   -9.0260   20.4640 C   0  0  0  0  0  3  0  0  0  0  0  0
  -22.7230  -10.2130   20.3050 C   0  0  0  0  0  3  0  0  0  0  0  0
  -21.6640   -6.8880   21.4240 O   0  0  0  0  0  0  0  0  0  0  0  0
  -21.6850   -6.0730   22.5280 C   0  0  0  0  0  0  0  0  0  0  0  0
  -21.4010   -6.5640   23.8210 C   0  0  0  0  0  3  0  0  0  0  0  0
  -21.3660   -5.6790   24.9180 C   0  0  0  0  0  3  0  0  0  0  0  0
  -21.6050   -4.3060   24.7230 C   0  0  0  0  0  0  0  0  0  0  0  0
  -21.8820   -3.8150   23.4350 C   0  0  0  0  0  3  0  0  0  0  0  0
  -21.9190   -4.6960   22.3400 C   0  0  0  0  0  0  0  0  0  0  0  0
  -22.1660   -4.2150   21.0980 F   0  0  0  0  0  0  0  0  0  0  0  0
  -21.5630   -3.4540   25.7730 F   0  0  0  0  0  0  0  0  0  0  0  0
  -22.7870  -13.5240   21.1830 C   0  0  0  0  0  0  0  0  0  0  0  0
  -22.0500  -12.8240   22.0380 N   0  0  0  0  0  0  0  0  0  0  0  0
  -22.3560  -14.5550   20.6690 O   0  0  0  0  0  0  0  0  0  0  0  0
  -22.4110  -11.9890   22.4780 H   0  0  0  0  0  0  0  0  0  0  0  0
  -21.1120  -13.1270   22.2580 H   0  0  0  0  0  0  0  0  0  0  0  0
  -25.4360  -15.1870   20.4100 N   0  0  0  0  0  0  0  0  0  0  0  0
  -24.6770  -15.8500   20.5240 H   0  0  0  0  0  0  0  0  0  0  0  0
  -26.2990  -15.6230   20.1090 H   0  0  0  0  0  0  0  0  0  0  0  0
  1  3  2  0
  1  2  1  0
  2  5  1  0
  4  2  1  0
  5  6  1  0
  7  8  1  0
  7  6  1  0
  9  8  1  0
 10 12  2  0
 10 11  1  0
 11  9  1  0
 13 11  1  0
 14 15  1  0
 14 10  1  0
 15 17  1  0
 16 27  2  0
 17 22  1  0
 18 26  1  0
 18 28  1  0
 19 25  1  0
 19 21  1  0
 20 26  1  0
 21 20  1  0
 22 21  2  0
 23 24  1  0
 23 17  2  0
 24 19  2  0
 25 18  1  0
 26 16  1  0
 28 30  2  0
 29 28  1  0
 31 29  1  0
 32 41  2  0
 32 37  1  0
 33 29  1  0
 33 37  1  0
 34 33  1  0
 35 36  1  0
 35 34  1  0
 36 32  1  0
 37 38  2  0
 38 39  1  0
 40 39  2  0
 41 40  1  0
 42 16  1  0
 42 47  1  0
 42 43  1  0
 43 46  1  1
 43 44  1  0
 45 43  1  0
 47 50  1  0
 48 52  1  0
 48 47  1  0
 49 48  2  0
 52 51  1  0
 54 52  1  0
 54 55  1  0
 54 53  1  0
 56  1  1  0
 57 58  1  0
 57 59  2  0
 58 56  1  0
 60 58  1  0
 61 57  1  0
 62 64  2  0
 63 61  1  0
 63 62  1  0
 65 63  1  0
 66 62  1  0
 66 67  1  0
 68 67  1  0
 68 69  1  0
 70 69  1  0
 70 71  1  0
 72 80  1  0
 73 78  1  0
 74 75  1  0
 74 73  1  0
 76 75  1  0
 76 85  1  0
 76 77  1  0
 78 72  1  0
 78 77  1  0
 79 72  2  0
 80 71  1  0
 80 81  1  0
 82 83  2  0
 83102  1  0
 84 83  1  0
 84 87  1  0
 85 82  1  0
 85 86  1  0
 86 84  2  0
 87 88  1  0
 88 89  2  0
 90 93  1  0
 90 89  1  0
 91 90  2  0
 92 91  1  0
 92 87  2  0
 93 94  1  0
 94 95  1  0
 95 96  2  0
 97 96  1  0
 97101  1  0
 98 97  2  0
 99 94  2  0
 99 98  1  0
100 99  1  0
102103  1  0
103106  1  0
103105  1  0
104102  2  0
107108  1  0
107 82  1  0
109107  1  0
M  ISO  4  14 101  15 101  72 100  80 100
M  END
>  <TORSDO>  (29) 
F 33

>  <SCORE>  (29) 
-8.876

>  <name>  (29) 
32

>  <ligand_id>  (29) 
32

>  <original_smiles>  (29) 
[H]c1c([H])c([H])c2c(c1[H])C([H])([H])C([H])([H])C([H])([H])C2([H])N([H])C(=O)C1([H])N(C(=O)C([H])(N([H])C(=O)C([H])(N([H])C([H])([H])[H])C([H])([H])[H])C(C([H])([H])[H])(C([H])([H])[H])C([H])([H])[H])C([H])([H])c2c([H])c(OC([H])([H])C(=O)N([H])C([H])([H])C([H])([H])C([H])([H])C([H])([H])C([H])([H])N([H])C(=O)C([H])([H])N([H])C(=O)C([H])([H])N([H])C(=O)C([H])([H])C([H])([H])C([H])([H])C([H])([H])C([H])([H])C([H])([H])N([H])C(=O)N3C([H])([H])C([H])([H])C([H])([H])C([H])(n4nc(-c5c([H])c([H])c(Oc6c([H])c([H])c(F)c([H])c6F)c([H])c5[H])c(C(=O)N([H])[H])c4N([H])[H])C3([H])[H])c([H])c([H])c2C1([H])[H]

>  <smiles>  (29) 
[H]c1c([H])c([H])c2c(c1[H])C([H])([H])C([H])([H])C([H])([H])C2([H])N([H])C(=O)C1([H])N(C(=O)C([H])(N([H])C(=O)C([H])(N([H])C([H])([H])[H])C([H])([H])[H])C(C([H])([H])[H])(C([H])([H])[H])C([H])([H])[H])C([H])([H])c2c([H])c(OC([H])([H])C(=O)N([H])C([H])([H])C([H])([H])C([H])([H])C([H])([H])C([H])([H])N([H])C(=O)C([H])([H])N([H])C(=O)C([H])([H])N([H])C(=O)C([H])([H])C([H])([H])C([H])([H])C([H])([H])C([H])([H])C([H])([H])N([H])C(=O)N3C([H])([H])C([H])([H])C([H])([H])C([H])(n4nc(-c5c([H])c([H])c(Oc6c([H])c([H])c(F)c([H])c6F)c([H])c5[H])c(C(=O)N([H])[H])c4N([H])[H])C3([H])[H])c([H])c([H])c2C1([H])[H]

$$$$
33:0:0
     RDKit          3D

112120  0  0  1  0  0  0  0  0999 V2000
  -20.3070  -17.8260   17.1790 C   0  0  0  0  0  2  0  0  0  0  0  0
  -20.7750  -17.5850   18.6300 C   0  0  0  0  0  2  0  0  0  0  0  0
  -25.5810  -16.4900   20.4290 C   0  0  0  0  0  0  0  0  0  0  0  0
  -23.3830  -15.3360   20.3250 C   0  0  0  0  0  2  0  0  0  0  0  0
  -24.3310  -16.1730   18.2740 C   0  0  0  0  0  2  0  0  0  0  0  0
  -22.1380  -16.2290   20.1640 C   0  0  0  0  0  2  0  0  0  0  0  0
  -23.1190  -17.0890   18.0370 C   0  0  0  0  0  2  0  0  0  0  0  0
  -24.5350  -16.0090   19.7140 N   0  0  0  0  0  0  0  0  0  0  0  0
  -21.8900  -16.6150   18.7430 N   0  0  2  0  0  4  0  0  0  0  0  0
  -25.6850  -16.2800   21.6370 O   0  0  0  0  0  0  0  0  0  0  0  0
  -21.5850  -15.7690   18.2810 H   0  0  0  0  0  0  0  0  0  0  0  0
  -26.6670  -17.3260   19.7210 C   0  0  0  0  0  2  0  0  0  0  0  0
  -28.6960  -16.2280   20.7000 C   0  0  0  0  0  0  0  0  0  0  0  0
  -27.9790  -16.6670   19.6580 N   0  0  0  0  0  0  0  0  0  0  0  0
  -28.2860  -16.2990   21.8610 O   0  0  0  0  0  0  0  0  0  0  0  0
  -28.3680  -16.5260   18.7350 H   0  0  0  0  0  0  0  0  0  0  0  0
  -30.0820  -15.6450   20.3810 C   0  0  0  0  0  2  0  0  0  0  0  0
  -30.6380  -14.5800   21.3690 C   0  0  0  0  0  2  0  0  0  0  0  0
  -30.7160  -12.4280   20.1300 C   0  0  0  0  0  0  0  0  0  0  0  0
  -29.8770  -11.2030   18.1860 C   0  0  0  0  0  2  0  0  0  0  0  0
  -28.8420  -12.1020   17.4780 C   0  0  0  0  0  2  0  0  0  0  0  0
  -27.4430  -11.8970   18.0960 C   0  0  0  0  0  2  0  0  0  0  0  0
  -27.4450  -12.0410   19.6440 C   0  0  0  0  0  3  0  0  0  0  0  0
  -28.5620  -11.1530   20.2450 C   0  0  0  0  0  2  0  0  0  0  0  0
  -29.8390  -11.5350   19.6150 N   0  0  0  0  0  0  0  0  0  0  0  0
  -31.8170  -12.6800   19.6290 O   0  0  0  0  0  0  0  0  0  0  0  0
  -30.1800  -13.2250   21.0620 N   0  0  0  0  0  0  0  0  0  0  0  0
  -29.2630  -12.9620   21.3950 H   0  0  0  0  0  0  0  0  0  0  0  0
  -25.0640  -12.5640   20.4820 C   0  0  0  0  0  0  0  0  0  0  0  0
  -24.0670  -11.7530   20.9510 C   0  0  0  0  0  0  0  0  0  0  0  0
  -24.5990  -10.4280   20.9470 C   0  0  0  0  0  0  0  0  0  0  0  0
  -26.1390  -11.7270   20.2160 N   0  0  0  0  0  0  0  0  0  0  0  0
  -25.8660  -10.4440   20.5530 N   0  0  0  0  0  0  0  0  0  0  0  0
  -23.9620   -9.1390   21.2320 C   0  0  0  0  0  0  0  0  0  0  0  0
  -24.5000   -8.2500   22.1880 C   0  0  0  0  0  3  0  0  0  0  0  0
  -23.8560   -7.0230   22.4590 C   0  0  0  0  0  3  0  0  0  0  0  0
  -22.6690   -6.6730   21.7730 C   0  0  0  0  0  0  0  0  0  0  0  0
  -22.1510   -7.5530   20.8070 C   0  0  0  0  0  3  0  0  0  0  0  0
  -22.7900   -8.7750   20.5380 C   0  0  0  0  0  3  0  0  0  0  0  0
  -22.0000   -5.4850   21.9460 O   0  0  0  0  0  0  0  0  0  0  0  0
  -21.9440   -4.8650   23.1670 C   0  0  0  0  0  0  0  0  0  0  0  0
  -21.5410   -5.5510   24.3350 C   0  0  0  0  0  3  0  0  0  0  0  0
  -21.4310   -4.8590   25.5560 C   0  0  0  0  0  3  0  0  0  0  0  0
  -21.7090   -3.4800   25.6100 C   0  0  0  0  0  0  0  0  0  0  0  0
  -22.1020   -2.7910   24.4490 C   0  0  0  0  0  3  0  0  0  0  0  0
  -22.2160   -3.4810   23.2290 C   0  0  0  0  0  0  0  0  0  0  0  0
  -22.5750   -2.8110   22.1070 F   0  0  0  0  0  0  0  0  0  0  0  0
  -21.5940   -2.8100   26.7820 F   0  0  0  0  0  0  0  0  0  0  0  0
  -22.6650  -12.1680   21.2970 C   0  0  0  0  0  0  0  0  0  0  0  0
  -22.0720  -11.5310   22.2980 N   0  0  0  0  0  0  0  0  0  0  0  0
  -22.1060  -13.0880   20.7020 O   0  0  0  0  0  0  0  0  0  0  0  0
  -22.5420  -10.7840   22.7870 H   0  0  0  0  0  0  0  0  0  0  0  0
  -21.1420  -11.8000   22.5830 H   0  0  0  0  0  0  0  0  0  0  0  0
  -25.1390  -13.9320   20.2390 N   0  0  0  0  0  0  0  0  0  0  0  0
  -24.3460  -14.5460   20.3790 H   0  0  0  0  0  0  0  0  0  0  0  0
  -25.9020  -14.4010   19.7600 H   0  0  0  0  0  0  0  0  0  0  0  0
  -20.0510  -19.3120   16.8830 C   0  0  0  0  0  2  0  0  0  0  0  0
  -21.9350  -20.9480   16.6600 C   0  0  0  0  0  0  0  0  0  0  0  0
  -21.2140  -19.9090   16.2210 N   0  0  0  0  0  0  0  0  0  0  0  0
  -21.6580  -21.5550   17.6950 O   0  0  0  0  0  0  0  0  0  0  0  0
  -21.5240  -19.4620   15.3670 H   0  0  0  0  0  0  0  0  0  0  0  0
  -23.1490  -21.3710   15.8260 C   0  0  0  0  0  2  0  0  0  0  0  0
  -24.4850  -21.2430   16.5910 C   0  0  0  0  0  2  0  0  0  0  0  0
  -25.0620  -22.6000   17.0350 C   0  0  0  0  0  2  0  0  0  0  0  0
  -26.3770  -22.4440   17.8200 C   0  0  0  0  0  2  0  0  0  0  0  0
  -26.5100  -23.3900   19.0340 C   0  0  0  0  0  2  0  0  0  0  0  0
  -28.3450  -24.8460   19.9010 C   0  0  0  0  0  0  0  0  0  0  0  0
  -27.6760  -24.2620   18.8970 N   0  0  0  0  0  0  0  0  0  0  0  0
  -28.0950  -24.6300   21.0900 O   0  0  0  0  0  0  0  0  0  0  0  0
  -27.9650  -24.4960   17.9560 H   0  0  0  0  0  0  0  0  0  0  0  0
  -29.4400  -25.8560   19.4940 C   0  0  0  0  0  2  0  0  0  0  0  0
  -29.2920  -27.1100   20.1800 O   0  0  0  0  0  0  0  0  0  0  0  0
  -24.9580  -31.3090   23.9340 C   0  0  0  0  0  0  0  0  0  0  0  0
  -28.0520  -27.7180   20.2260 C   0  0  0  0  0  0  0  0  0  0  0  0
  -23.9270  -30.1430   22.0140 C   0  0  0  0  0  3  0  0  0  0  0  0
  -25.5440  -29.0140   20.4080 C   0  0  0  0  0  0  0  0  0  0  0  0
  -26.4200  -30.7240   22.0020 C   0  0  0  0  0  2  0  0  0  0  0  0
  -26.6370  -29.5020   21.1340 C   0  0  0  0  0  0  0  0  0  0  0  0
  -27.8900  -28.8600   21.0420 C   0  0  0  0  0  3  0  0  0  0  0  0
  -26.9330  -27.2460   19.4970 C   0  0  0  0  0  3  0  0  0  0  0  0
  -25.6870  -27.8860   19.5900 C   0  0  0  0  0  3  0  0  0  0  0  0
  -24.2350  -29.7520   20.5440 C   0  0  0  0  0  2  0  0  0  0  0  0
  -25.1170  -30.7310   22.7100 N   0  0  0  0  0  0  0  0  0  0  0  0
  -23.8410  -31.3910   24.4620 O   0  0  0  0  0  0  0  0  0  0  0  0
  -23.3370  -28.9140   22.7390 C   0  0  0  0  0  0  0  0  0  0  0  0
  -22.0710  -28.5870   22.4300 N   0  0  0  0  0  0  0  0  0  0  0  0
  -24.0170  -28.2630   23.5390 O   0  0  0  0  0  0  0  0  0  0  0  0
  -21.5790  -29.1740   21.7700 H   0  0  0  0  0  0  0  0  0  0  0  0
  -18.8940  -26.8760   22.2720 C   0  0  0  0  0  0  0  0  0  0  0  0
  -21.3180  -27.4530   22.9630 C   0  0  0  0  0  3  0  0  0  0  0  0
  -21.7250  -26.1370   22.2580 C   0  0  0  0  0  2  0  0  0  0  0  0
  -20.8340  -25.7960   21.0590 C   0  0  0  0  0  2  0  0  0  0  0  0
  -19.3710  -25.6640   21.4940 C   0  0  0  0  0  2  0  0  0  0  0  0
  -19.8100  -27.7250   22.9500 C   0  0  0  0  0  0  0  0  0  0  0  0
  -19.3200  -28.8600   23.6310 C   0  0  0  0  0  3  0  0  0  0  0  0
  -17.9430  -29.1490   23.6510 C   0  0  0  0  0  3  0  0  0  0  0  0
  -17.0380  -28.2970   22.9940 C   0  0  0  0  0  3  0  0  0  0  0  0
  -17.5120  -27.1640   22.3090 C   0  0  0  0  0  3  0  0  0  0  0  0
  -26.1670  -31.9150   24.7130 C   0  0  0  0  0  3  0  0  0  0  0  0
  -25.9640  -33.3660   24.7810 N   0  0  0  0  0  0  0  0  0  0  0  0
  -26.6500  -34.2630   24.0640 C   0  0  0  0  0  0  0  0  0  0  0  0
  -27.5810  -33.9510   23.3140 O   0  0  0  0  0  0  0  0  0  0  0  0
  -25.1860  -33.6890   25.3370 H   0  0  0  0  0  0  0  0  0  0  0  0
  -25.4450  -36.1660   22.9420 C   0  0  0  0  0  1  0  0  0  0  0  0
  -26.2370  -35.7430   24.1910 C   0  0  0  0  0  3  0  0  0  0  0  0
  -28.0290  -36.5010   25.6880 C   0  0  0  0  0  1  0  0  0  0  0  0
  -27.3790  -36.6620   24.3890 N   0  0  0  0  0  0  0  0  0  0  0  0
  -27.0790  -37.6300   24.3040 H   0  0  0  0  0  0  0  0  0  0  0  0
  -26.3380  -31.3060   26.1580 C   0  0  1  0  0  0  0  0  0  0  0  0
  -25.0450  -31.3400   27.0050 C   0  0  0  0  0  1  0  0  0  0  0  0
  -26.8160  -29.8380   26.0750 C   0  0  0  0  0  1  0  0  0  0  0  0
  -27.4280  -32.0850   26.9280 C   0  0  0  0  0  1  0  0  0  0  0  0
  1  2  1  0
  2  9  1  0
  3 10  2  0
  5  8  1  0
  6  4  1  0
  7  5  1  0
  7  9  1  0
  8  4  1  0
  8  3  1  0
  9  6  1  0
  9 11  1  6
 12  3  1  0
 13 15  2  0
 14 12  1  0
 14 13  1  0
 16 14  1  0
 17 13  1  0
 17 18  1  0
 19 27  1  0
 20 25  1  0
 21 22  1  0
 21 20  1  0
 23 22  1  0
 23 32  1  0
 23 24  1  0
 25 19  1  0
 25 24  1  0
 26 19  2  0
 27 18  1  0
 27 28  1  0
 29 30  2  0
 30 49  1  0
 31 30  1  0
 31 34  1  0
 32 29  1  0
 32 33  1  0
 33 31  2  0
 34 35  1  0
 35 36  2  0
 37 40  1  0
 37 36  1  0
 38 37  2  0
 39 38  1  0
 39 34  2  0
 40 41  1  0
 41 46  2  0
 41 42  1  0
 42 43  2  0
 43 44  1  0
 44 48  1  0
 45 44  2  0
 46 45  1  0
 47 46  1  0
 49 50  1  0
 50 53  1  0
 50 52  1  0
 51 49  2  0
 54 55  1  0
 54 29  1  0
 56 54  1  0
 57  1  1  0
 58 60  2  0
 59 58  1  0
 59 57  1  0
 61 59  1  0
 62 63  1  0
 62 58  1  0
 63 64  1  0
 64 65  1  0
 65 66  1  0
 67 69  2  0
 68 66  1  0
 68 67  1  0
 70 68  1  0
 71 67  1  0
 71 72  1  0
 72 74  1  0
 73 84  2  0
 74 79  1  0
 75 83  1  0
 75 85  1  0
 76 82  1  0
 76 78  1  0
 77 83  1  0
 78 77  1  0
 79 78  2  0
 80 81  1  0
 80 74  2  0
 81 76  2  0
 82 75  1  0
 83 73  1  0
 85 87  2  0
 86 85  1  0
 88 86  1  0
 89 98  2  0
 89 94  1  0
 90 86  1  0
 91 90  1  0
 92 93  1  0
 92 91  1  0
 93 89  1  0
 94 90  1  0
 94 95  2  0
 95 96  1  0
 97 96  2  0
 98 97  1  0
 99 73  1  0
 99100  1  0
 99109  1  0
100103  1  0
101105  1  0
101100  1  0
102101  2  0
105104  1  0
105107  1  0
107106  1  0
108107  1  0
109112  1  1
109110  1  0
111109  1  0
M  ISO  4  19 100  27 100  71 101  72 101
M  END
>  <TORSDO>  (30) 
F 31

>  <SCORE>  (30) 
34.916

>  <name>  (30) 
33

>  <ligand_id>  (30) 
33

>  <original_smiles>  (30) 
[H]c1c([H])c([H])c2c(c1[H])C([H])([H])C([H])([H])C([H])([H])C2([H])N([H])C(=O)C1([H])N(C(=O)C([H])(N([H])C(=O)C([H])(N([H])C([H])([H])[H])C([H])([H])[H])C(C([H])([H])[H])(C([H])([H])[H])C([H])([H])[H])C([H])([H])c2c([H])c(OC([H])([H])C(=O)N([H])C([H])([H])C([H])([H])C([H])([H])C([H])([H])C([H])([H])C(=O)N([H])C([H])([H])C([H])([H])C([H])([H])[N+]3([H])C([H])([H])C([H])([H])N(C(=O)C([H])([H])N([H])C(=O)C([H])([H])C([H])([H])N([H])C(=O)N4C([H])([H])C([H])([H])C([H])([H])C([H])(n5nc(-c6c([H])c([H])c(Oc7c([H])c([H])c(F)c([H])c7F)c([H])c6[H])c(C(=O)N([H])[H])c5N([H])[H])C4([H])[H])C([H])([H])C3([H])[H])c([H])c([H])c2C1([H])[H]

>  <smiles>  (30) 
[H]c1c([H])c([H])c2c(c1[H])C([H])([H])C([H])([H])C([H])([H])C2([H])N([H])C(=O)C1([H])N(C(=O)C([H])(N([H])C(=O)C([H])(N([H])C([H])([H])[H])C([H])([H])[H])C(C([H])([H])[H])(C([H])([H])[H])C([H])([H])[H])C([H])([H])c2c([H])c(OC([H])([H])C(=O)N([H])C([H])([H])C([H])([H])C([H])([H])C([H])([H])C([H])([H])C(=O)N([H])C([H])([H])C([H])([H])C([H])([H])[N+]3([H])C([H])([H])C([H])([H])N(C(=O)C([H])([H])N([H])C(=O)C([H])([H])C([H])([H])N([H])C(=O)N4C([H])([H])C([H])([H])C([H])([H])C([H])(n5nc(-c6c([H])c([H])c(Oc7c([H])c([H])c(F)c([H])c7F)c([H])c6[H])c(C(=O)N([H])[H])c5N([H])[H])C4([H])[H])C([H])([H])C3([H])[H])c([H])c([H])c2C1([H])[H]

$$$$
34:0:0
     RDKit          3D

107114  0  0  1  0  0  0  0  0999 V2000
  -25.3730  -18.4890   28.4520 O   0  0  0  0  0  0  0  0  0  0  0  0
  -24.0160  -18.0660   28.3990 C   0  0  0  0  0  2  0  0  0  0  0  0
  -23.8840  -16.6880   29.0610 C   0  0  0  0  0  2  0  0  0  0  0  0
  -24.8010  -15.6410   28.4100 C   0  0  0  0  0  2  0  0  0  0  0  0
  -24.5240  -14.2010   28.8750 C   0  0  0  0  0  2  0  0  0  0  0  0
  -25.6230  -13.2040   28.4620 C   0  0  0  0  0  2  0  0  0  0  0  0
  -27.1060  -13.6310   26.4960 C   0  0  0  0  0  0  0  0  0  0  0  0
  -25.9260  -13.3000   27.0360 N   0  0  0  0  0  0  0  0  0  0  0  0
  -28.1200  -13.8380   27.1670 O   0  0  0  0  0  0  0  0  0  0  0  0
  -25.1610  -13.1260   26.3970 H   0  0  0  0  0  0  0  0  0  0  0  0
  -27.1360  -13.7530   24.9700 C   0  0  0  0  0  2  0  0  0  0  0  0
  -29.2650  -14.5900   23.9800 C   0  0  0  0  0  0  0  0  0  0  0  0
  -28.4800  -13.6020   24.4180 N   0  0  0  0  0  0  0  0  0  0  0  0
  -28.9700  -15.7820   24.0780 O   0  0  0  0  0  0  0  0  0  0  0  0
  -28.8240  -12.6560   24.3350 H   0  0  0  0  0  0  0  0  0  0  0  0
  -30.5480  -14.1650   23.2630 C   0  0  0  0  0  2  0  0  0  0  0  0
  -30.8320  -14.2880   20.7720 C   0  0  0  0  0  0  0  0  0  0  0  0
  -30.4110  -12.2850   19.3910 C   0  0  0  0  0  2  0  0  0  0  0  0
  -29.4830  -12.5300   18.1890 C   0  0  0  0  0  2  0  0  0  0  0  0
  -28.0110  -12.3590   18.5970 C   0  0  0  0  0  2  0  0  0  0  0  0
  -27.6600  -13.1980   19.8460 C   0  0  0  0  0  3  0  0  0  0  0  0
  -28.6860  -12.9770   20.9700 C   0  0  0  0  0  2  0  0  0  0  0  0
  -30.0570  -13.2090   20.4800 N   0  0  0  0  0  0  0  0  0  0  0  0
  -31.7060  -14.7120   20.0120 O   0  0  0  0  0  0  0  0  0  0  0  0
  -30.6820  -14.8580   21.9760 N   0  0  0  0  0  0  0  0  0  0  0  0
  -31.1170  -15.7660   22.0540 H   0  0  0  0  0  0  0  0  0  0  0  0
  -25.2620  -13.8140   20.5640 C   0  0  0  0  0  0  0  0  0  0  0  0
  -24.1880  -13.0430   20.9180 C   0  0  0  0  0  0  0  0  0  0  0  0
  -24.6410  -11.6890   20.8720 C   0  0  0  0  0  0  0  0  0  0  0  0
  -26.3010  -12.9290   20.3180 N   0  0  0  0  0  0  0  0  0  0  0  0
  -25.9310  -11.6460   20.5660 N   0  0  0  0  0  0  0  0  0  0  0  0
  -23.9080  -10.4290   21.0420 C   0  0  0  0  0  0  0  0  0  0  0  0
  -24.3630   -9.4200   21.9200 C   0  0  0  0  0  3  0  0  0  0  0  0
  -23.6300   -8.2250   22.0770 C   0  0  0  0  0  3  0  0  0  0  0  0
  -22.4280   -8.0280   21.3560 C   0  0  0  0  0  0  0  0  0  0  0  0
  -21.9920   -9.0260   20.4670 C   0  0  0  0  0  3  0  0  0  0  0  0
  -22.7250  -10.2130   20.3080 C   0  0  0  0  0  3  0  0  0  0  0  0
  -21.6640   -6.8880   21.4250 O   0  0  0  0  0  0  0  0  0  0  0  0
  -21.6860   -6.0730   22.5290 C   0  0  0  0  0  0  0  0  0  0  0  0
  -21.4010   -6.5640   23.8220 C   0  0  0  0  0  3  0  0  0  0  0  0
  -21.3650   -5.6800   24.9190 C   0  0  0  0  0  3  0  0  0  0  0  0
  -21.6040   -4.3060   24.7240 C   0  0  0  0  0  0  0  0  0  0  0  0
  -21.8820   -3.8150   23.4360 C   0  0  0  0  0  3  0  0  0  0  0  0
  -21.9190   -4.6960   22.3410 C   0  0  0  0  0  0  0  0  0  0  0  0
  -22.1670   -4.2150   21.0990 F   0  0  0  0  0  0  0  0  0  0  0  0
  -21.5620   -3.4540   25.7750 F   0  0  0  0  0  0  0  0  0  0  0  0
  -22.7900  -13.5230   21.1860 C   0  0  0  0  0  0  0  0  0  0  0  0
  -22.0520  -12.8230   22.0390 N   0  0  0  0  0  0  0  0  0  0  0  0
  -22.3590  -14.5550   20.6710 O   0  0  0  0  0  0  0  0  0  0  0  0
  -22.4080  -11.9860   22.4760 H   0  0  0  0  0  0  0  0  0  0  0  0
  -21.1150  -13.1300   22.2590 H   0  0  0  0  0  0  0  0  0  0  0  0
  -25.4390  -15.1870   20.4120 N   0  0  0  0  0  0  0  0  0  0  0  0
  -24.6840  -15.8500   20.5490 H   0  0  0  0  0  0  0  0  0  0  0  0
  -26.3020  -15.6230   20.1100 H   0  0  0  0  0  0  0  0  0  0  0  0
  -25.9020  -18.8360   27.1740 C   0  0  0  0  0  2  0  0  0  0  0  0
  -27.3780  -19.2240   27.3130 C   0  0  0  0  0  0  0  0  0  0  0  0
  -27.8070  -20.2490   26.5670 N   0  0  0  0  0  0  0  0  0  0  0  0
  -28.1190  -18.6090   28.0850 O   0  0  0  0  0  0  0  0  0  0  0  0
  -27.1340  -20.6920   25.9560 H   0  0  0  0  0  0  0  0  0  0  0  0
  -29.1700  -20.7700   26.5570 C   0  0  0  0  0  2  0  0  0  0  0  0
  -29.2220  -22.1980   25.9880 C   0  0  0  0  0  2  0  0  0  0  0  0
  -28.8220  -22.2940   24.5050 C   0  0  0  0  0  2  0  0  0  0  0  0
  -28.8670  -23.7380   23.9810 C   0  0  0  0  0  2  0  0  0  0  0  0
  -28.5560  -23.8400   22.4790 C   0  0  0  0  0  2  0  0  0  0  0  0
  -28.5970  -25.2900   21.9690 C   0  0  0  0  0  2  0  0  0  0  0  0
  -28.4050  -25.3970   20.4480 C   0  0  0  0  0  2  0  0  0  0  0  0
  -28.4270  -26.7710   20.0590 O   0  0  0  0  0  0  0  0  0  0  0  0
  -24.6120  -31.8690   23.2120 C   0  0  0  0  0  0  0  0  0  0  0  0
  -27.2360  -27.4580   20.0960 C   0  0  0  0  0  0  0  0  0  0  0  0
  -23.3980  -30.4930   21.5530 C   0  0  0  0  0  3  0  0  0  0  0  0
  -24.8430  -28.9580   20.1200 C   0  0  0  0  0  0  0  0  0  0  0  0
  -25.9230  -30.8430   21.3590 C   0  0  0  0  0  2  0  0  0  0  0  0
  -26.0020  -29.4770   20.7120 C   0  0  0  0  0  0  0  0  0  0  0  0
  -27.2010  -28.7350   20.6960 C   0  0  0  0  0  3  0  0  0  0  0  0
  -26.0620  -26.9480   19.4970 C   0  0  0  0  0  3  0  0  0  0  0  0
  -24.8670  -27.6910   19.5110 C   0  0  0  0  0  3  0  0  0  0  0  0
  -23.6050  -29.8240   20.1680 C   0  0  0  0  0  2  0  0  0  0  0  0
  -24.6630  -31.0810   22.1010 N   0  0  0  0  0  0  0  0  0  0  0  0
  -23.5320  -32.1440   23.7530 O   0  0  0  0  0  0  0  0  0  0  0  0
  -22.7390  -29.4660   22.5000 C   0  0  0  0  0  0  0  0  0  0  0  0
  -21.4120  -29.3030   22.3750 N   0  0  0  0  0  0  0  0  0  0  0  0
  -23.4170  -28.8210   23.3040 O   0  0  0  0  0  0  0  0  0  0  0  0
  -20.9260  -29.8750   21.6970 H   0  0  0  0  0  0  0  0  0  0  0  0
  -18.0270  -28.1380   22.8490 C   0  0  0  0  0  0  0  0  0  0  0  0
  -20.5850  -28.3650   23.1330 C   0  0  0  0  0  3  0  0  0  0  0  0
  -20.6760  -26.9400   22.5420 C   0  0  0  0  0  2  0  0  0  0  0  0
  -19.5740  -26.6390   21.5220 C   0  0  0  0  0  2  0  0  0  0  0  0
  -18.1920  -26.7930   22.1620 C   0  0  0  0  0  2  0  0  0  0  0  0
  -19.1520  -28.8840   23.2910 C   0  0  0  0  0  0  0  0  0  0  0  0
  -18.9450  -30.1440   23.8920 C   0  0  0  0  0  3  0  0  0  0  0  0
  -17.6450  -30.6590   24.0570 C   0  0  0  0  0  3  0  0  0  0  0  0
  -16.5340  -29.9090   23.6330 C   0  0  0  0  0  3  0  0  0  0  0  0
  -16.7260  -28.6510   23.0340 C   0  0  0  0  0  3  0  0  0  0  0  0
  -25.9020  -32.4830   23.8410 C   0  0  0  0  0  3  0  0  0  0  0  0
  -26.4460  -31.6590   25.0710 C   0  0  1  0  0  0  0  0  0  0  0  0
  -25.3740  -31.3690   26.1470 C   0  0  0  0  0  1  0  0  0  0  0  0
  -27.0280  -30.3040   24.6040 C   0  0  0  0  0  1  0  0  0  0  0  0
  -27.6040  -32.4290   25.7470 C   0  0  0  0  0  1  0  0  0  0  0  0
  -25.5890  -33.8620   24.2340 N   0  0  0  0  0  0  0  0  0  0  0  0
  -25.9030  -34.9480   23.5140 C   0  0  0  0  0  0  0  0  0  0  0  0
  -26.5590  -34.8920   22.4690 O   0  0  0  0  0  0  0  0  0  0  0  0
  -25.0050  -33.9800   25.0490 H   0  0  0  0  0  0  0  0  0  0  0  0
  -24.1490  -36.7320   23.2640 C   0  0  0  0  0  1  0  0  0  0  0  0
  -25.4100  -36.3110   24.0340 C   0  0  0  0  0  3  0  0  0  0  0  0
  -27.5580  -37.1810   24.8460 C   0  0  0  0  0  1  0  0  0  0  0  0
  -26.4290  -37.3790   23.9410 N   0  0  0  0  0  0  0  0  0  0  0  0
  -26.0180  -38.2870   24.1420 H   0  0  0  0  0  0  0  0  0  0  0  0
  2  1  1  0
  2  3  1  0
  4  5  1  0
  4  3  1  0
  6  5  1  0
  7  8  1  0
  7  9  2  0
  8  6  1  0
 10  8  1  0
 11  7  1  0
 12 14  2  0
 12 13  1  0
 13 11  1  0
 15 13  1  0
 16 12  1  0
 17 25  1  0
 18 23  1  0
 19 20  1  0
 19 18  1  0
 21 20  1  0
 21 30  1  0
 21 22  1  0
 23 17  1  0
 23 22  1  0
 24 17  2  0
 25 26  1  0
 25 16  1  0
 27 28  2  0
 28 47  1  0
 29 28  1  0
 29 32  1  0
 30 27  1  0
 30 31  1  0
 31 29  2  0
 32 33  1  0
 33 34  2  0
 35 38  1  0
 35 34  1  0
 36 35  2  0
 37 36  1  0
 37 32  2  0
 38 39  1  0
 39 40  1  0
 40 41  2  0
 42 41  1  0
 42 46  1  0
 43 42  2  0
 44 39  2  0
 44 43  1  0
 45 44  1  0
 47 48  1  0
 48 51  1  0
 48 50  1  0
 49 47  2  0
 52 53  1  0
 52 27  1  0
 54 52  1  0
 55 56  1  0
 55  1  1  0
 56 58  2  0
 57 56  1  0
 59 57  1  0
 60 57  1  0
 61 60  1  0
 62 61  1  0
 63 62  1  0
 64 63  1  0
 65 64  1  0
 66 65  1  0
 67 69  1  0
 67 66  1  0
 68 79  2  0
 69 74  1  0
 70 78  1  0
 70 80  1  0
 71 77  1  0
 71 73  1  0
 72 78  1  0
 73 72  1  0
 74 73  2  0
 75 76  1  0
 75 69  2  0
 76 71  2  0
 77 70  1  0
 78 68  1  0
 80 82  2  0
 81 80  1  0
 83 81  1  0
 84 93  2  0
 84 89  1  0
 85 81  1  0
 85 89  1  0
 86 85  1  0
 87 88  1  0
 87 86  1  0
 88 84  1  0
 89 90  2  0
 90 91  1  0
 92 91  2  0
 93 92  1  0
 94 68  1  0
 94 99  1  0
 94 95  1  0
 95 98  1  1
 95 96  1  0
 97 95  1  0
 99102  1  0
100104  1  0
100 99  1  0
101100  2  0
104103  1  0
106104  1  0
106107  1  0
106105  1  0
M  ISO  4  17 100  25 100  66 101  67 101
M  END
>  <TORSDO>  (31) 
F 34

>  <SCORE>  (31) 
89.081

>  <name>  (31) 
34

>  <ligand_id>  (31) 
34

>  <original_smiles>  (31) 
[H]c1c([H])c([H])c2c(c1[H])C([H])([H])C([H])([H])C([H])([H])C2([H])N([H])C(=O)C1([H])N(C(=O)C([H])(N([H])C(=O)C([H])(N([H])C([H])([H])[H])C([H])([H])[H])C(C([H])([H])[H])(C([H])([H])[H])C([H])([H])[H])C([H])([H])c2c([H])c(OC([H])([H])C([H])([H])C([H])([H])C([H])([H])C([H])([H])C([H])([H])C([H])([H])N([H])C(=O)C([H])([H])OC([H])([H])C([H])([H])C([H])([H])C([H])([H])C([H])([H])N([H])C(=O)C([H])([H])N([H])C(=O)C([H])([H])N([H])C(=O)N3C([H])([H])C([H])([H])C([H])([H])C([H])(n4nc(-c5c([H])c([H])c(Oc6c([H])c([H])c(F)c([H])c6F)c([H])c5[H])c(C(=O)N([H])[H])c4N([H])[H])C3([H])[H])c([H])c([H])c2C1([H])[H]

>  <smiles>  (31) 
[H]c1c([H])c([H])c2c(c1[H])C([H])([H])C([H])([H])C([H])([H])C2([H])N([H])C(=O)C1([H])N(C(=O)C([H])(N([H])C(=O)C([H])(N([H])C([H])([H])[H])C([H])([H])[H])C(C([H])([H])[H])(C([H])([H])[H])C([H])([H])[H])C([H])([H])c2c([H])c(OC([H])([H])C([H])([H])C([H])([H])C([H])([H])C([H])([H])C([H])([H])C([H])([H])N([H])C(=O)C([H])([H])OC([H])([H])C([H])([H])C([H])([H])C([H])([H])C([H])([H])N([H])C(=O)C([H])([H])N([H])C(=O)C([H])([H])N([H])C(=O)N3C([H])([H])C([H])([H])C([H])([H])C([H])(n4nc(-c5c([H])c([H])c(Oc6c([H])c([H])c(F)c([H])c6F)c([H])c5[H])c(C(=O)N([H])[H])c4N([H])[H])C3([H])[H])c([H])c([H])c2C1([H])[H]

$$$$
35:0:0
     RDKit          3D

117124  0  0  1  0  0  0  0  0999 V2000
  -35.3970  -21.0780   16.8720 C   0  0  0  0  0  0  0  0  0  0  0  0
  -34.7900  -21.8990   17.7330 N   0  0  0  0  0  0  0  0  0  0  0  0
  -36.5360  -20.6530   17.0570 O   0  0  0  0  0  0  0  0  0  0  0  0
  -33.8510  -22.1690   17.4910 H   0  0  0  0  0  0  0  0  0  0  0  0
  -35.2730  -22.3650   19.0250 C   0  0  0  0  0  2  0  0  0  0  0  0
  -34.4730  -21.6740   20.1310 C   0  0  0  0  0  0  0  0  0  0  0  0
  -33.8000  -22.4780   20.9660 N   0  0  0  0  0  0  0  0  0  0  0  0
  -34.4750  -20.4450   20.1990 O   0  0  0  0  0  0  0  0  0  0  0  0
  -33.8870  -23.4640   20.7590 H   0  0  0  0  0  0  0  0  0  0  0  0
  -32.9080  -22.1800   22.0960 C   0  0  0  0  0  2  0  0  0  0  0  0
  -32.5990  -20.6940   22.3730 C   0  0  0  0  0  2  0  0  0  0  0  0
  -31.5630  -20.4740   23.4900 C   0  0  0  0  0  2  0  0  0  0  0  0
  -30.0940  -20.4470   23.0360 C   0  0  0  0  0  2  0  0  0  0  0  0
  -29.6320  -21.7120   22.2960 C   0  0  0  0  0  2  0  0  0  0  0  0
  -28.1140  -21.7510   22.0580 C   0  0  0  0  0  2  0  0  0  0  0  0
  -27.7040  -22.5980   20.8410 C   0  0  0  0  0  2  0  0  0  0  0  0
  -28.1270  -24.8830   19.9770 C   0  0  0  0  0  0  0  0  0  0  0  0
  -28.0630  -24.0080   20.9920 N   0  0  0  0  0  0  0  0  0  0  0  0
  -27.8240  -24.5710   18.8220 O   0  0  0  0  0  0  0  0  0  0  0  0
  -28.2760  -24.3430   21.9240 H   0  0  0  0  0  0  0  0  0  0  0  0
  -28.6170  -26.3040   20.3040 C   0  0  0  0  0  2  0  0  0  0  0  0
  -28.3430  -27.2080   19.2230 O   0  0  0  0  0  0  0  0  0  0  0  0
  -24.4690  -31.7350   23.0940 C   0  0  0  0  0  0  0  0  0  0  0  0
  -27.1690  -27.9030   19.3610 C   0  0  0  0  0  0  0  0  0  0  0  0
  -23.2610  -30.5390   21.2950 C   0  0  0  0  0  3  0  0  0  0  0  0
  -24.7240  -29.2760   19.6340 C   0  0  0  0  0  0  0  0  0  0  0  0
  -25.7630  -31.0300   21.0840 C   0  0  0  0  0  2  0  0  0  0  0  0
  -25.8780  -29.7660   20.2620 C   0  0  0  0  0  0  0  0  0  0  0  0
  -27.1040  -29.0840   20.1310 C   0  0  0  0  0  3  0  0  0  0  0  0
  -26.0110  -27.4290   18.7160 C   0  0  0  0  0  3  0  0  0  0  0  0
  -24.7830  -28.1030   18.8580 C   0  0  0  0  0  3  0  0  0  0  0  0
  -23.4510  -30.0680   19.8290 C   0  0  0  0  0  2  0  0  0  0  0  0
  -24.5180  -31.1080   21.8840 N   0  0  0  0  0  0  0  0  0  0  0  0
  -23.3970  -31.8840   23.6950 O   0  0  0  0  0  0  0  0  0  0  0  0
  -22.6720  -29.3690   22.1140 C   0  0  0  0  0  0  0  0  0  0  0  0
  -21.3440  -29.1890   22.0290 N   0  0  0  0  0  0  0  0  0  0  0  0
  -23.4050  -28.6310   22.7780 O   0  0  0  0  0  0  0  0  0  0  0  0
  -20.8120  -29.8360   21.4620 H   0  0  0  0  0  0  0  0  0  0  0  0
  -18.0050  -27.9110   22.5430 C   0  0  0  0  0  0  0  0  0  0  0  0
  -20.5780  -28.1300   22.6840 C   0  0  0  0  0  3  0  0  0  0  0  0
  -20.6330  -26.8190   21.8680 C   0  0  0  0  0  2  0  0  0  0  0  0
  -19.4630  -26.6690   20.8900 C   0  0  0  0  0  2  0  0  0  0  0  0
  -18.1280  -26.6960   21.6400 C   0  0  0  0  0  2  0  0  0  0  0  0
  -19.1550  -28.5930   23.0210 C   0  0  0  0  0  0  0  0  0  0  0  0
  -18.9850  -29.7380   23.8300 C   0  0  0  0  0  3  0  0  0  0  0  0
  -17.6960  -30.1990   24.1650 C   0  0  0  0  0  3  0  0  0  0  0  0
  -16.5630  -29.5100   23.7030 C   0  0  0  0  0  3  0  0  0  0  0  0
  -16.7170  -28.3680   22.8970 C   0  0  0  0  0  3  0  0  0  0  0  0
  -25.7530  -32.3160   23.7660 C   0  0  0  0  0  3  0  0  0  0  0  0
  -26.2680  -31.4480   24.9780 C   0  0  1  0  0  0  0  0  0  0  0  0
  -25.1760  -31.1420   26.0290 C   0  0  0  0  0  1  0  0  0  0  0  0
  -26.8350  -30.0980   24.4780 C   0  0  0  0  0  1  0  0  0  0  0  0
  -27.4290  -32.1800   25.6930 C   0  0  0  0  0  1  0  0  0  0  0  0
  -25.4450  -33.6880   24.1960 N   0  0  0  0  0  0  0  0  0  0  0  0
  -25.7810  -34.7910   23.5150 C   0  0  0  0  0  0  0  0  0  0  0  0
  -26.4540  -34.7610   22.4800 O   0  0  0  0  0  0  0  0  0  0  0  0
  -24.8500  -33.7870   25.0050 H   0  0  0  0  0  0  0  0  0  0  0  0
  -24.0500  -36.5990   23.2910 C   0  0  0  0  0  1  0  0  0  0  0  0
  -25.2940  -36.1420   24.0680 C   0  0  0  0  0  3  0  0  0  0  0  0
  -27.4340  -36.9660   24.9510 C   0  0  0  0  0  1  0  0  0  0  0  0
  -26.3270  -37.2000   24.0270 N   0  0  0  0  0  0  0  0  0  0  0  0
  -25.9230  -38.1070   24.2400 H   0  0  0  0  0  0  0  0  0  0  0  0
  -34.6030  -20.6550   15.6220 C   0  0  0  0  0  2  0  0  0  0  0  0
  -32.5870  -22.1260   15.4420 C   0  0  0  0  0  0  0  0  0  0  0  0
  -33.1660  -20.9440   15.6840 N   0  0  0  0  0  0  0  0  0  0  0  0
  -33.2240  -23.1190   15.0950 O   0  0  0  0  0  0  0  0  0  0  0  0
  -32.5710  -20.1800   15.9690 H   0  0  0  0  0  0  0  0  0  0  0  0
  -31.0890  -22.2300   15.7200 C   0  0  0  0  0  2  0  0  0  0  0  0
  -30.7500  -22.1200   18.2230 C   0  0  0  0  0  0  0  0  0  0  0  0
  -30.8880  -22.7760   17.0610 N   0  0  0  0  0  0  0  0  0  0  0  0
  -30.6920  -22.7630   19.2700 O   0  0  0  0  0  0  0  0  0  0  0  0
  -30.9280  -23.7870   17.1190 H   0  0  0  0  0  0  0  0  0  0  0  0
  -30.6710  -20.5770   18.2570 C   0  0  0  0  0  2  0  0  0  0  0  0
  -30.0450  -20.0510   19.5660 C   0  0  0  0  0  2  0  0  0  0  0  0
  -30.1690  -17.6850   20.3760 C   0  0  0  0  0  0  0  0  0  0  0  0
  -29.7090  -18.6200   19.5340 N   0  0  0  0  0  0  0  0  0  0  0  0
  -31.0860  -17.8930   21.1740 O   0  0  0  0  0  0  0  0  0  0  0  0
  -28.9650  -18.3420   18.9060 H   0  0  0  0  0  0  0  0  0  0  0  0
  -29.4780  -16.3170   20.3560 C   0  0  0  0  0  2  0  0  0  0  0  0
  -30.8790  -14.3590   20.1970 C   0  0  0  0  0  0  0  0  0  0  0  0
  -30.5060  -12.1930   19.0830 C   0  0  0  0  0  2  0  0  0  0  0  0
  -29.5360  -12.3610   17.8970 C   0  0  0  0  0  2  0  0  0  0  0  0
  -28.0780  -12.2260   18.3760 C   0  0  0  0  0  2  0  0  0  0  0  0
  -27.7690  -13.1200   19.6060 C   0  0  0  0  0  3  0  0  0  0  0  0
  -28.8470  -12.9430   20.6990 C   0  0  0  0  0  2  0  0  0  0  0  0
  -30.1660  -13.2050   20.0920 N   0  0  0  0  0  0  0  0  0  0  0  0
  -31.9460  -14.5610   19.6140 O   0  0  0  0  0  0  0  0  0  0  0  0
  -30.3450  -15.3100   20.9610 N   0  0  0  0  0  0  0  0  0  0  0  0
  -31.0700  -15.8350   21.4360 H   0  0  0  0  0  0  0  0  0  0  0  0
  -25.4020  -13.7670   20.3770 C   0  0  0  0  0  0  0  0  0  0  0  0
  -24.3320  -13.0100   20.7800 C   0  0  0  0  0  0  0  0  0  0  0  0
  -24.7720  -11.6520   20.7420 C   0  0  0  0  0  0  0  0  0  0  0  0
  -26.4270  -12.8690   20.1230 N   0  0  0  0  0  0  0  0  0  0  0  0
  -26.0510  -11.5930   20.3940 N   0  0  0  0  0  0  0  0  0  0  0  0
  -24.0330  -10.4020   20.9590 C   0  0  0  0  0  0  0  0  0  0  0  0
  -24.4600   -9.4470   21.9090 C   0  0  0  0  0  3  0  0  0  0  0  0
  -23.7250   -8.2590   22.1110 C   0  0  0  0  0  3  0  0  0  0  0  0
  -22.5480   -8.0190   21.3620 C   0  0  0  0  0  0  0  0  0  0  0  0
  -22.1360   -8.9620   20.4030 C   0  0  0  0  0  3  0  0  0  0  0  0
  -22.8740  -10.1420   20.2000 C   0  0  0  0  0  3  0  0  0  0  0  0
  -21.7820   -6.8840   21.4760 O   0  0  0  0  0  0  0  0  0  0  0  0
  -21.6980   -6.1880   22.6540 C   0  0  0  0  0  0  0  0  0  0  0  0
  -21.2450   -6.7920   23.8480 C   0  0  0  0  0  3  0  0  0  0  0  0
  -21.1100   -6.0230   25.0190 C   0  0  0  0  0  3  0  0  0  0  0  0
  -21.4160   -4.6490   24.9990 C   0  0  0  0  0  0  0  0  0  0  0  0
  -21.8630   -4.0430   23.8110 C   0  0  0  0  0  3  0  0  0  0  0  0
  -22.0010   -4.8120   22.6420 C   0  0  0  0  0  0  0  0  0  0  0  0
  -22.4130   -4.2200   21.4950 F   0  0  0  0  0  0  0  0  0  0  0  0
  -21.2760   -3.9060   26.1210 F   0  0  0  0  0  0  0  0  0  0  0  0
  -22.9510  -13.5100   21.0930 C   0  0  0  0  0  0  0  0  0  0  0  0
  -22.2460  -12.8380   21.9980 N   0  0  0  0  0  0  0  0  0  0  0  0
  -22.5060  -14.5290   20.5690 O   0  0  0  0  0  0  0  0  0  0  0  0
  -22.6190  -12.0100   22.4390 H   0  0  0  0  0  0  0  0  0  0  0  0
  -21.3210  -13.1530   22.2530 H   0  0  0  0  0  0  0  0  0  0  0  0
  -25.5800  -15.1330   20.1850 N   0  0  0  0  0  0  0  0  0  0  0  0
  -24.8170  -15.7920   20.2910 H   0  0  0  0  0  0  0  0  0  0  0  0
  -26.4190  -15.5530   19.8080 H   0  0  0  0  0  0  0  0  0  0  0  0
  1  3  2  0
  1  2  1  0
  2  5  1  0
  4  2  1  0
  5  6  1  0
  6  8  2  0
  6  7  1  0
  7 10  1  0
  9  7  1  0
 10 11  1  0
 11 12  1  0
 13 12  1  0
 14 13  1  0
 15 14  1  0
 16 18  1  0
 16 15  1  0
 17 21  1  0
 17 18  1  0
 18 20  1  0
 19 17  2  0
 22 24  1  0
 22 21  1  0
 23 34  2  0
 24 29  1  0
 25 33  1  0
 25 35  1  0
 26 32  1  0
 26 28  1  0
 27 33  1  0
 28 27  1  0
 29 28  2  0
 30 31  1  0
 30 24  2  0
 31 26  2  0
 32 25  1  0
 33 23  1  0
 35 37  2  0
 36 35  1  0
 38 36  1  0
 39 48  2  0
 39 44  1  0
 40 36  1  0
 40 44  1  0
 41 40  1  0
 42 43  1  0
 42 41  1  0
 43 39  1  0
 44 45  2  0
 45 46  1  0
 47 46  2  0
 48 47  1  0
 49 23  1  0
 49 54  1  0
 49 50  1  0
 50 53  1  1
 50 51  1  0
 52 50  1  0
 54 57  1  0
 55 59  1  0
 55 54  1  0
 56 55  2  0
 59 58  1  0
 61 59  1  0
 61 62  1  0
 61 60  1  0
 63 65  1  0
 63  1  1  0
 64 65  1  0
 64 68  1  0
 65 67  1  0
 66 64  2  0
 68 70  1  0
 69 73  1  0
 69 71  2  0
 70 72  1  0
 70 69  1  0
 73 74  1  0
 75 77  2  0
 76 74  1  0
 76 75  1  0
 78 76  1  0
 79 75  1  0
 79 88  1  0
 80 88  1  0
 81 86  1  0
 82 83  1  0
 82 81  1  0
 84 83  1  0
 84 93  1  0
 84 85  1  0
 86 80  1  0
 86 85  1  0
 87 80  2  0
 88 89  1  0
 90 91  2  0
 91110  1  0
 92 91  1  0
 92 95  1  0
 93 90  1  0
 93 94  1  0
 94 92  2  0
 95 96  1  0
 96 97  2  0
 98101  1  0
 98 97  1  0
 99 98  2  0
100 99  1  0
100 95  2  0
101102  1  0
102103  1  0
103104  2  0
105104  1  0
105109  1  0
106105  2  0
107102  2  0
107106  1  0
108107  1  0
110111  1  0
111114  1  0
111113  1  0
112110  2  0
115116  1  0
115 90  1  0
117115  1  0
M  ISO  4  21 101  22 101  80 100  88 100
M  END
>  <TORSDO>  (32) 
F 35

>  <SCORE>  (32) 
-8.411

>  <name>  (32) 
35

>  <ligand_id>  (32) 
35

>  <original_smiles>  (32) 
[H]c1c([H])c([H])c2c(c1[H])C([H])([H])C([H])([H])C([H])([H])C2([H])N([H])C(=O)C1([H])N(C(=O)C([H])(N([H])C(=O)C([H])(N([H])C([H])([H])[H])C([H])([H])[H])C(C([H])([H])[H])(C([H])([H])[H])C([H])([H])[H])C([H])([H])c2c([H])c(OC([H])([H])C(=O)N([H])C([H])([H])C([H])([H])C([H])([H])C([H])([H])C([H])([H])C([H])([H])C([H])([H])N([H])C(=O)C([H])([H])N([H])C(=O)C([H])([H])N([H])C(=O)C([H])([H])N([H])C(=O)C([H])([H])C([H])([H])N([H])C(=O)C([H])([H])N([H])C(=O)N3C([H])([H])C([H])([H])C([H])([H])C([H])(n4nc(-c5c([H])c([H])c(Oc6c([H])c([H])c(F)c([H])c6F)c([H])c5[H])c(C(=O)N([H])[H])c4N([H])[H])C3([H])[H])c([H])c([H])c2C1([H])[H]

>  <smiles>  (32) 
[H]c1c([H])c([H])c2c(c1[H])C([H])([H])C([H])([H])C([H])([H])C2([H])N([H])C(=O)C1([H])N(C(=O)C([H])(N([H])C(=O)C([H])(N([H])C([H])([H])[H])C([H])([H])[H])C(C([H])([H])[H])(C([H])([H])[H])C([H])([H])[H])C([H])([H])c2c([H])c(OC([H])([H])C(=O)N([H])C([H])([H])C([H])([H])C([H])([H])C([H])([H])C([H])([H])C([H])([H])C([H])([H])N([H])C(=O)C([H])([H])N([H])C(=O)C([H])([H])N([H])C(=O)C([H])([H])N([H])C(=O)C([H])([H])C([H])([H])N([H])C(=O)C([H])([H])N([H])C(=O)N3C([H])([H])C([H])([H])C([H])([H])C([H])(n4nc(-c5c([H])c([H])c(Oc6c([H])c([H])c(F)c([H])c6F)c([H])c5[H])c(C(=O)N([H])[H])c4N([H])[H])C3([H])[H])c([H])c([H])c2C1([H])[H]

$$$$
36:0:0
     RDKit          3D

106113  0  0  1  0  0  0  0  0999 V2000
  -33.4930  -22.1920   20.1300 C   0  0  0  0  0  2  0  0  0  0  0  0
  -33.8810  -21.9160   22.5830 C   0  0  0  0  0  0  0  0  0  0  0  0
  -34.0420  -21.5260   21.3120 N   0  0  0  0  0  0  0  0  0  0  0  0
  -33.1520  -22.8530   22.9130 O   0  0  0  0  0  0  0  0  0  0  0  0
  -34.5920  -20.6900   21.1600 H   0  0  0  0  0  0  0  0  0  0  0  0
  -34.6730  -21.1530   23.6480 C   0  0  0  0  0  2  0  0  0  0  0  0
  -33.5330  -18.9800   23.9360 C   0  0  0  0  0  0  0  0  0  0  0  0
  -33.8370  -20.2040   24.3770 N   0  0  0  0  0  0  0  0  0  0  0  0
  -33.9020  -18.5770   22.8290 O   0  0  0  0  0  0  0  0  0  0  0  0
  -33.4950  -20.4870   25.2850 H   0  0  0  0  0  0  0  0  0  0  0  0
  -32.7380  -18.0700   24.8850 C   0  0  0  0  0  2  0  0  0  0  0  0
  -31.7460  -16.2760   23.4810 C   0  0  0  0  0  0  0  0  0  0  0  0
  -32.6500  -16.7110   24.3610 N   0  0  0  0  0  0  0  0  0  0  0  0
  -30.7700  -16.9420   23.1280 O   0  0  0  0  0  0  0  0  0  0  0  0
  -33.4260  -16.1000   24.5740 H   0  0  0  0  0  0  0  0  0  0  0  0
  -32.0010  -14.8810   22.9210 C   0  0  0  0  0  2  0  0  0  0  0  0
  -30.8700  -14.2120   20.8080 C   0  0  0  0  0  0  0  0  0  0  0  0
  -30.4000  -12.2860   19.3520 C   0  0  0  0  0  2  0  0  0  0  0  0
  -29.4600  -12.5390   18.1690 C   0  0  0  0  0  2  0  0  0  0  0  0
  -27.9950  -12.3750   18.6050 C   0  0  0  0  0  2  0  0  0  0  0  0
  -27.6620  -13.2040   19.8710 C   0  0  0  0  0  3  0  0  0  0  0  0
  -28.7010  -12.9670   20.9870 C   0  0  0  0  0  2  0  0  0  0  0  0
  -30.0510  -13.1990   20.4440 N   0  0  0  0  0  0  0  0  0  0  0  0
  -31.7390  -14.7010   20.0780 O   0  0  0  0  0  0  0  0  0  0  0  0
  -30.8860  -14.3660   22.1330 N   0  0  0  0  0  0  0  0  0  0  0  0
  -30.1550  -13.8970   22.6460 H   0  0  0  0  0  0  0  0  0  0  0  0
  -25.2590  -13.8160   20.5660 C   0  0  0  0  0  0  0  0  0  0  0  0
  -24.1840  -13.0440   20.9160 C   0  0  0  0  0  0  0  0  0  0  0  0
  -24.6390  -11.6910   20.8720 C   0  0  0  0  0  0  0  0  0  0  0  0
  -26.3030  -12.9330   20.3350 N   0  0  0  0  0  0  0  0  0  0  0  0
  -25.9320  -11.6490   20.5740 N   0  0  0  0  0  0  0  0  0  0  0  0
  -23.9050  -10.4300   21.0410 C   0  0  0  0  0  0  0  0  0  0  0  0
  -24.3600   -9.4220   21.9190 C   0  0  0  0  0  3  0  0  0  0  0  0
  -23.6290   -8.2250   22.0750 C   0  0  0  0  0  3  0  0  0  0  0  0
  -22.4270   -8.0290   21.3540 C   0  0  0  0  0  0  0  0  0  0  0  0
  -21.9910   -9.0250   20.4640 C   0  0  0  0  0  3  0  0  0  0  0  0
  -22.7230  -10.2140   20.3050 C   0  0  0  0  0  3  0  0  0  0  0  0
  -21.6630   -6.8890   21.4240 O   0  0  0  0  0  0  0  0  0  0  0  0
  -21.6840   -6.0740   22.5270 C   0  0  0  0  0  0  0  0  0  0  0  0
  -21.4030   -6.5640   23.8210 C   0  0  0  0  0  3  0  0  0  0  0  0
  -21.3650   -5.6790   24.9160 C   0  0  0  0  0  3  0  0  0  0  0  0
  -21.6030   -4.3060   24.7230 C   0  0  0  0  0  0  0  0  0  0  0  0
  -21.8820   -3.8150   23.4350 C   0  0  0  0  0  3  0  0  0  0  0  0
  -21.9200   -4.6960   22.3410 C   0  0  0  0  0  0  0  0  0  0  0  0
  -22.1660   -4.2150   21.0990 F   0  0  0  0  0  0  0  0  0  0  0  0
  -21.5620   -3.4540   25.7740 F   0  0  0  0  0  0  0  0  0  0  0  0
  -22.7870  -13.5240   21.1850 C   0  0  0  0  0  0  0  0  0  0  0  0
  -22.0490  -12.8230   22.0390 N   0  0  0  0  0  0  0  0  0  0  0  0
  -22.3560  -14.5560   20.6710 O   0  0  0  0  0  0  0  0  0  0  0  0
  -22.4100  -11.9870   22.4760 H   0  0  0  0  0  0  0  0  0  0  0  0
  -21.1130  -13.1260   22.2620 H   0  0  0  0  0  0  0  0  0  0  0  0
  -25.4330  -15.1880   20.4070 N   0  0  0  0  0  0  0  0  0  0  0  0
  -24.6740  -15.8500   20.5210 H   0  0  0  0  0  0  0  0  0  0  0  0
  -26.2950  -15.6200   20.0990 H   0  0  0  0  0  0  0  0  0  0  0  0
  -32.2800  -21.4560   19.5330 C   0  0  0  0  0  2  0  0  0  0  0  0
  -31.1750  -21.1660   20.5610 C   0  0  0  0  0  2  0  0  0  0  0  0
  -29.8760  -20.6370   19.9270 C   0  0  0  0  0  2  0  0  0  0  0  0
  -28.8170  -20.1890   20.9570 C   0  0  0  0  0  2  0  0  0  0  0  0
  -28.4550  -21.2520   22.0120 C   0  0  0  0  0  2  0  0  0  0  0  0
  -27.9820  -22.5090   21.4020 N   0  0  0  0  0  4  0  0  0  0  0  0
  -26.9860  -22.4470   21.2550 H   0  0  0  0  0  0  0  0  0  0  0  0
  -28.4260  -22.5920   20.5030 H   0  0  0  0  0  0  0  0  0  0  0  0
  -28.2910  -23.7080   22.2140 C   0  0  0  0  0  2  0  0  0  0  0  0
  -27.7740  -25.0150   21.5930 C   0  0  0  0  0  2  0  0  0  0  0  0
  -28.4460  -25.4030   20.2560 C   0  0  0  0  0  2  0  0  0  0  0  0
  -28.4490  -26.8130   20.0700 O   0  0  0  0  0  0  0  0  0  0  0  0
  -24.6140  -31.8680   23.2110 C   0  0  0  0  0  0  0  0  0  0  0  0
  -27.2480  -27.4790   20.0840 C   0  0  0  0  0  0  0  0  0  0  0  0
  -23.4000  -30.4910   21.5520 C   0  0  0  0  0  3  0  0  0  0  0  0
  -24.8480  -28.9550   20.1260 C   0  0  0  0  0  0  0  0  0  0  0  0
  -25.9250  -30.8470   21.3600 C   0  0  0  0  0  2  0  0  0  0  0  0
  -26.0050  -29.4820   20.7120 C   0  0  0  0  0  0  0  0  0  0  0  0
  -27.2060  -28.7500   20.6880 C   0  0  0  0  0  3  0  0  0  0  0  0
  -26.0740  -26.9470   19.5050 C   0  0  0  0  0  3  0  0  0  0  0  0
  -24.8740  -27.6830   19.5230 C   0  0  0  0  0  3  0  0  0  0  0  0
  -23.6100  -29.8200   20.1680 C   0  0  0  0  0  2  0  0  0  0  0  0
  -24.6650  -31.0810   22.1010 N   0  0  0  0  0  0  0  0  0  0  0  0
  -23.5340  -32.1430   23.7520 O   0  0  0  0  0  0  0  0  0  0  0  0
  -22.7430  -29.4650   22.5020 C   0  0  0  0  0  0  0  0  0  0  0  0
  -21.4160  -29.3020   22.3760 N   0  0  0  0  0  0  0  0  0  0  0  0
  -23.4220  -28.8200   23.3030 O   0  0  0  0  0  0  0  0  0  0  0  0
  -20.9330  -29.8790   21.7040 H   0  0  0  0  0  0  0  0  0  0  0  0
  -18.0260  -28.1370   22.8490 C   0  0  0  0  0  0  0  0  0  0  0  0
  -20.5860  -28.3640   23.1330 C   0  0  0  0  0  3  0  0  0  0  0  0
  -20.6750  -26.9370   22.5440 C   0  0  0  0  0  2  0  0  0  0  0  0
  -19.5720  -26.6370   21.5230 C   0  0  0  0  0  2  0  0  0  0  0  0
  -18.1880  -26.7920   22.1630 C   0  0  0  0  0  2  0  0  0  0  0  0
  -19.1510  -28.8820   23.2890 C   0  0  0  0  0  0  0  0  0  0  0  0
  -18.9450  -30.1430   23.8900 C   0  0  0  0  0  3  0  0  0  0  0  0
  -17.6450  -30.6560   24.0580 C   0  0  0  0  0  3  0  0  0  0  0  0
  -16.5340  -29.9070   23.6350 C   0  0  0  0  0  3  0  0  0  0  0  0
  -16.7260  -28.6510   23.0340 C   0  0  0  0  0  3  0  0  0  0  0  0
  -25.9030  -32.4830   23.8410 C   0  0  0  0  0  3  0  0  0  0  0  0
  -26.4460  -31.6620   25.0760 C   0  0  1  0  0  0  0  0  0  0  0  0
  -25.3710  -31.3630   26.1500 C   0  0  0  0  0  1  0  0  0  0  0  0
  -27.0320  -30.3100   24.6080 C   0  0  0  0  0  1  0  0  0  0  0  0
  -27.6100  -32.4300   25.7500 C   0  0  0  0  0  1  0  0  0  0  0  0
  -25.5890  -33.8630   24.2350 N   0  0  0  0  0  0  0  0  0  0  0  0
  -25.9030  -34.9470   23.5140 C   0  0  0  0  0  0  0  0  0  0  0  0
  -26.5600  -34.8900   22.4700 O   0  0  0  0  0  0  0  0  0  0  0  0
  -25.0050  -33.9810   25.0500 H   0  0  0  0  0  0  0  0  0  0  0  0
  -24.1480  -36.7330   23.2630 C   0  0  0  0  0  1  0  0  0  0  0  0
  -25.4100  -36.3130   24.0340 C   0  0  0  0  0  3  0  0  0  0  0  0
  -27.5560  -37.1790   24.8440 C   0  0  0  0  0  1  0  0  0  0  0  0
  -26.4280  -37.3800   23.9410 N   0  0  0  0  0  0  0  0  0  0  0  0
  -26.0190  -38.2880   24.1490 H   0  0  0  0  0  0  0  0  0  0  0  0
  1  3  1  0
  2  4  2  0
  2  6  1  0
  3  2  1  0
  5  3  1  0
  6  8  1  0
  7  8  1  0
  7 11  1  0
  8 10  1  0
  9  7  2  0
 12 13  1  0
 13 15  1  0
 13 11  1  0
 14 12  2  0
 16 12  1  0
 17 25  1  0
 18 23  1  0
 19 20  1  0
 19 18  1  0
 21 20  1  0
 21 30  1  0
 21 22  1  0
 23 17  1  0
 23 22  1  0
 24 17  2  0
 25 26  1  0
 25 16  1  0
 27 28  2  0
 28 47  1  0
 29 28  1  0
 29 32  1  0
 30 27  1  0
 30 31  1  0
 31 29  2  0
 32 33  1  0
 33 34  2  0
 35 38  1  0
 35 34  1  0
 36 35  2  0
 37 36  1  0
 37 32  2  0
 38 39  1  0
 39 40  1  0
 40 41  2  0
 42 41  1  0
 42 46  1  0
 43 42  2  0
 44 39  2  0
 44 43  1  0
 45 44  1  0
 47 48  1  0
 48 51  1  0
 48 50  1  0
 49 47  2  0
 52 53  1  0
 52 27  1  0
 54 52  1  0
 55  1  1  0
 55 56  1  0
 57 56  1  0
 57 58  1  0
 58 59  1  0
 60 59  1  0
 60 63  1  0
 61 60  1  0
 62 60  1  0
 64 63  1  0
 65 64  1  0
 66 68  1  0
 66 65  1  0
 67 78  2  0
 68 73  1  0
 69 77  1  0
 69 79  1  0
 70 76  1  0
 70 72  1  0
 71 77  1  0
 72 71  1  0
 73 72  2  0
 74 75  1  0
 74 68  2  0
 75 70  2  0
 76 69  1  0
 77 67  1  0
 79 81  2  0
 80 79  1  0
 82 80  1  0
 83 92  2  0
 83 88  1  0
 84 80  1  0
 84 88  1  0
 85 84  1  0
 86 87  1  0
 86 85  1  0
 87 83  1  0
 88 89  2  0
 89 90  1  0
 91 90  2  0
 92 91  1  0
 93 67  1  0
 93 98  1  0
 93 94  1  0
 94 97  1  1
 94 95  1  0
 96 94  1  0
 98101  1  0
 99103  1  0
 99 98  1  0
100 99  2  0
103102  1  0
105103  1  0
105106  1  0
105104  1  0
M  ISO  4  17 100  25 100  65 101  66 101
M  END
>  <TORSDO>  (33) 
F 31

>  <SCORE>  (33) 
13.735

>  <name>  (33) 
36

>  <ligand_id>  (33) 
36

>  <original_smiles>  (33) 
[H]c1c([H])c([H])c2c(c1[H])C([H])([H])C([H])([H])C([H])([H])C2([H])N([H])C(=O)C1([H])N(C(=O)C([H])(N([H])C(=O)C([H])(N([H])C([H])([H])[H])C([H])([H])[H])C(C([H])([H])[H])(C([H])([H])[H])C([H])([H])[H])C([H])([H])c2c([H])c(OC([H])([H])C([H])([H])C([H])([H])[N+]([H])([H])C([H])([H])C([H])([H])C([H])([H])C([H])([H])C([H])([H])C([H])([H])N([H])C(=O)C([H])([H])N([H])C(=O)C([H])([H])N([H])C(=O)C([H])([H])N([H])C(=O)N3C([H])([H])C([H])([H])C([H])([H])C([H])(n4nc(-c5c([H])c([H])c(Oc6c([H])c([H])c(F)c([H])c6F)c([H])c5[H])c(C(=O)N([H])[H])c4N([H])[H])C3([H])[H])c([H])c([H])c2C1([H])[H]

>  <smiles>  (33) 
[H]c1c([H])c([H])c2c(c1[H])C([H])([H])C([H])([H])C([H])([H])C2([H])N([H])C(=O)C1([H])N(C(=O)C([H])(N([H])C(=O)C([H])(N([H])C([H])([H])[H])C([H])([H])[H])C(C([H])([H])[H])(C([H])([H])[H])C([H])([H])[H])C([H])([H])c2c([H])c(OC([H])([H])C([H])([H])C([H])([H])[N+]([H])([H])C([H])([H])C([H])([H])C([H])([H])C([H])([H])C([H])([H])C([H])([H])N([H])C(=O)C([H])([H])N([H])C(=O)C([H])([H])N([H])C(=O)C([H])([H])N([H])C(=O)N3C([H])([H])C([H])([H])C([H])([H])C([H])(n4nc(-c5c([H])c([H])c(Oc6c([H])c([H])c(F)c([H])c6F)c([H])c5[H])c(C(=O)N([H])[H])c4N([H])[H])C3([H])[H])c([H])c([H])c2C1([H])[H]

$$$$
37:0:0
     RDKit          3D

112119  0  0  1  0  0  0  0  0999 V2000
  -25.5970  -19.9640   12.9520 N   0  0  0  0  0  4  0  0  0  0  0  0
  -26.3110  -19.2810   13.1460 H   0  0  0  0  0  0  0  0  0  0  0  0
  -25.1560  -19.6960   12.0850 H   0  0  0  0  0  0  0  0  0  0  0  0
  -24.5540  -19.9500   14.0010 C   0  0  0  0  0  2  0  0  0  0  0  0
  -24.2200  -18.5200   14.4740 C   0  0  0  0  0  2  0  0  0  0  0  0
  -25.2770  -17.8900   15.4040 C   0  0  0  0  0  2  0  0  0  0  0  0
  -25.2720  -18.4860   16.8260 C   0  0  0  0  0  2  0  0  0  0  0  0
  -26.4130  -17.9500   17.7140 C   0  0  0  0  0  2  0  0  0  0  0  0
  -26.3700  -18.4670   19.1670 C   0  0  0  0  0  2  0  0  0  0  0  0
  -26.7260  -20.7190   20.2000 C   0  0  0  0  0  0  0  0  0  0  0  0
  -26.2830  -19.9230   19.2180 N   0  0  0  0  0  0  0  0  0  0  0  0
  -27.2980  -20.3000   21.2060 O   0  0  0  0  0  0  0  0  0  0  0  0
  -25.8010  -20.3710   18.4500 H   0  0  0  0  0  0  0  0  0  0  0  0
  -26.4690  -22.2180   20.0170 C   0  0  0  0  0  2  0  0  0  0  0  0
  -27.6090  -22.9990   20.4040 O   0  0  0  0  0  0  0  0  0  0  0  0
  -27.3850  -24.3590   20.0440 C   0  0  0  0  0  3  0  0  0  0  0  0
  -28.3510  -25.3910   20.6710 C   0  0  0  0  0  3  0  0  0  0  0  0
  -28.3730  -26.6900   20.0400 O   0  0  0  0  0  0  0  0  0  0  0  0
  -24.6190  -31.8700   23.2210 C   0  0  0  0  0  0  0  0  0  0  0  0
  -27.2150  -27.4380   20.0790 C   0  0  0  0  0  0  0  0  0  0  0  0
  -23.4030  -30.5040   21.5600 C   0  0  0  0  0  3  0  0  0  0  0  0
  -24.8410  -28.9790   20.1150 C   0  0  0  0  0  0  0  0  0  0  0  0
  -25.9390  -30.8290   21.3830 C   0  0  0  0  0  2  0  0  0  0  0  0
  -26.0050  -29.4700   20.7220 C   0  0  0  0  0  0  0  0  0  0  0  0
  -27.1940  -28.7020   20.7110 C   0  0  0  0  0  3  0  0  0  0  0  0
  -26.0460  -26.9990   19.4190 C   0  0  0  0  0  3  0  0  0  0  0  0
  -24.8570  -27.7390   19.4640 C   0  0  0  0  0  3  0  0  0  0  0  0
  -23.6100  -29.8500   20.1710 C   0  0  0  0  0  2  0  0  0  0  0  0
  -24.6720  -31.0820   22.1120 N   0  0  0  0  0  0  0  0  0  0  0  0
  -23.5380  -32.1460   23.7590 O   0  0  0  0  0  0  0  0  0  0  0  0
  -22.7410  -29.4710   22.5000 C   0  0  0  0  0  0  0  0  0  0  0  0
  -21.4140  -29.3040   22.3710 N   0  0  0  0  0  0  0  0  0  0  0  0
  -23.4180  -28.8220   23.3020 O   0  0  0  0  0  0  0  0  0  0  0  0
  -20.9290  -29.8740   21.6920 H   0  0  0  0  0  0  0  0  0  0  0  0
  -18.0270  -28.1380   22.8490 C   0  0  0  0  0  0  0  0  0  0  0  0
  -20.5860  -28.3670   23.1310 C   0  0  0  0  0  3  0  0  0  0  0  0
  -20.6780  -26.9410   22.5400 C   0  0  0  0  0  2  0  0  0  0  0  0
  -19.5760  -26.6380   21.5220 C   0  0  0  0  0  2  0  0  0  0  0  0
  -18.1920  -26.7930   22.1610 C   0  0  0  0  0  2  0  0  0  0  0  0
  -19.1520  -28.8840   23.2890 C   0  0  0  0  0  0  0  0  0  0  0  0
  -18.9440  -30.1430   23.8900 C   0  0  0  0  0  3  0  0  0  0  0  0
  -17.6450  -30.6580   24.0560 C   0  0  0  0  0  3  0  0  0  0  0  0
  -16.5340  -29.9070   23.6360 C   0  0  0  0  0  3  0  0  0  0  0  0
  -16.7260  -28.6490   23.0380 C   0  0  0  0  0  3  0  0  0  0  0  0
  -25.9090  -32.4840   23.8460 C   0  0  0  0  0  3  0  0  0  0  0  0
  -26.4500  -31.6610   25.0790 C   0  0  1  0  0  0  0  0  0  0  0  0
  -25.3760  -31.3670   26.1530 C   0  0  0  0  0  1  0  0  0  0  0  0
  -27.0370  -30.3070   24.6210 C   0  0  0  0  0  1  0  0  0  0  0  0
  -27.6090  -32.4320   25.7520 C   0  0  0  0  0  1  0  0  0  0  0  0
  -25.5980  -33.8650   24.2390 N   0  0  0  0  0  0  0  0  0  0  0  0
  -25.9050  -34.9490   23.5160 C   0  0  0  0  0  0  0  0  0  0  0  0
  -26.5550  -34.8920   22.4680 O   0  0  0  0  0  0  0  0  0  0  0  0
  -25.0280  -33.9800   25.0650 H   0  0  0  0  0  0  0  0  0  0  0  0
  -24.1470  -36.7290   23.2640 C   0  0  0  0  0  1  0  0  0  0  0  0
  -25.4090  -36.3130   24.0350 C   0  0  0  0  0  3  0  0  0  0  0  0
  -27.5560  -37.1800   24.8490 C   0  0  0  0  0  1  0  0  0  0  0  0
  -26.4280  -37.3820   23.9430 N   0  0  0  0  0  0  0  0  0  0  0  0
  -26.0170  -38.2890   24.1430 H   0  0  0  0  0  0  0  0  0  0  0  0
  -26.2430  -21.2760   12.7360 C   0  0  0  0  0  2  0  0  0  0  0  0
  -27.5850  -21.4170   13.4870 C   0  0  0  0  0  2  0  0  0  0  0  0
  -27.5050  -21.3100   15.0220 C   0  0  0  0  0  2  0  0  0  0  0  0
  -28.8480  -21.6340   15.6980 C   0  0  0  0  0  2  0  0  0  0  0  0
  -28.8820  -21.2270   17.1790 C   0  0  0  0  0  2  0  0  0  0  0  0
  -30.1730  -21.6660   17.8850 C   0  0  0  0  0  2  0  0  0  0  0  0
  -30.8360  -20.1310   19.7370 C   0  0  0  0  0  0  0  0  0  0  0  0
  -30.2050  -21.2180   19.2750 N   0  0  0  0  0  0  0  0  0  0  0  0
  -31.4380  -19.3430   19.0010 O   0  0  0  0  0  0  0  0  0  0  0  0
  -29.7280  -21.8000   19.9530 H   0  0  0  0  0  0  0  0  0  0  0  0
  -30.8200  -19.9350   21.2600 C   0  0  0  0  0  2  0  0  0  0  0  0
  -30.4840  -17.4980   21.6470 C   0  0  0  0  0  0  0  0  0  0  0  0
  -31.2350  -18.6020   21.6970 N   0  0  0  0  0  0  0  0  0  0  0  0
  -29.3500  -17.4800   21.1650 O   0  0  0  0  0  0  0  0  0  0  0  0
  -32.1720  -18.5180   22.0670 H   0  0  0  0  0  0  0  0  0  0  0  0
  -31.0840  -16.2380   22.2720 C   0  0  0  0  0  2  0  0  0  0  0  0
  -30.7880  -14.3390   20.7040 C   0  0  0  0  0  0  0  0  0  0  0  0
  -30.4120  -12.2880   19.3840 C   0  0  0  0  0  2  0  0  0  0  0  0
  -29.4800  -12.5380   18.1860 C   0  0  0  0  0  2  0  0  0  0  0  0
  -28.0030  -12.3930   18.6000 C   0  0  0  0  0  2  0  0  0  0  0  0
  -27.6650  -13.2060   19.8770 C   0  0  0  0  0  3  0  0  0  0  0  0
  -28.7050  -12.9480   20.9900 C   0  0  0  0  0  2  0  0  0  0  0  0
  -30.0500  -13.2290   20.4550 N   0  0  0  0  0  0  0  0  0  0  0  0
  -31.7780  -14.6620   20.0430 O   0  0  0  0  0  0  0  0  0  0  0  0
  -30.4280  -15.0240   21.7940 N   0  0  0  0  0  0  0  0  0  0  0  0
  -29.6050  -14.7160   22.2880 H   0  0  0  0  0  0  0  0  0  0  0  0
  -25.2590  -13.8140   20.5680 C   0  0  0  0  0  0  0  0  0  0  0  0
  -24.1840  -13.0430   20.9160 C   0  0  0  0  0  0  0  0  0  0  0  0
  -24.6400  -11.6900   20.8710 C   0  0  0  0  0  0  0  0  0  0  0  0
  -26.3040  -12.9320   20.3380 N   0  0  0  0  0  0  0  0  0  0  0  0
  -25.9330  -11.6480   20.5750 N   0  0  0  0  0  0  0  0  0  0  0  0
  -23.9070  -10.4290   21.0370 C   0  0  0  0  0  0  0  0  0  0  0  0
  -24.3620   -9.4220   21.9160 C   0  0  0  0  0  3  0  0  0  0  0  0
  -23.6290   -8.2270   22.0750 C   0  0  0  0  0  3  0  0  0  0  0  0
  -22.4280   -8.0290   21.3540 C   0  0  0  0  0  0  0  0  0  0  0  0
  -21.9900   -9.0260   20.4650 C   0  0  0  0  0  3  0  0  0  0  0  0
  -22.7230  -10.2130   20.3040 C   0  0  0  0  0  3  0  0  0  0  0  0
  -21.6640   -6.8890   21.4240 O   0  0  0  0  0  0  0  0  0  0  0  0
  -21.6860   -6.0740   22.5280 C   0  0  0  0  0  0  0  0  0  0  0  0
  -21.4020   -6.5640   23.8220 C   0  0  0  0  0  3  0  0  0  0  0  0
  -21.3660   -5.6790   24.9180 C   0  0  0  0  0  3  0  0  0  0  0  0
  -21.6050   -4.3050   24.7230 C   0  0  0  0  0  0  0  0  0  0  0  0
  -21.8810   -3.8150   23.4340 C   0  0  0  0  0  3  0  0  0  0  0  0
  -21.9190   -4.6970   22.3400 C   0  0  0  0  0  0  0  0  0  0  0  0
  -22.1650   -4.2160   21.0980 F   0  0  0  0  0  0  0  0  0  0  0  0
  -21.5640   -3.4540   25.7740 F   0  0  0  0  0  0  0  0  0  0  0  0
  -22.7870  -13.5240   21.1830 C   0  0  0  0  0  0  0  0  0  0  0  0
  -22.0490  -12.8250   22.0380 N   0  0  0  0  0  0  0  0  0  0  0  0
  -22.3570  -14.5560   20.6680 O   0  0  0  0  0  0  0  0  0  0  0  0
  -22.4050  -11.9900   22.4790 H   0  0  0  0  0  0  0  0  0  0  0  0
  -21.1110  -13.1300   22.2550 H   0  0  0  0  0  0  0  0  0  0  0  0
  -25.4330  -15.1860   20.4160 N   0  0  0  0  0  0  0  0  0  0  0  0
  -24.6770  -15.8440   20.5560 H   0  0  0  0  0  0  0  0  0  0  0  0
  -26.3100  -15.6240   20.1670 H   0  0  0  0  0  0  0  0  0  0  0  0
  1  2  1  0
  1  4  1  0
  3  1  1  0
  4  5  1  0
  5  6  1  0
  6  7  1  0
  7  8  1  0
  8  9  1  0
  9 11  1  0
 10 12  2  0
 11 10  1  0
 13 11  1  0
 14 10  1  0
 14 15  1  0
 16 15  1  0
 16 17  2  0
 18 20  1  0
 18 17  1  0
 19 30  2  0
 20 25  1  0
 21 29  1  0
 21 31  1  0
 22 28  1  0
 22 24  1  0
 23 29  1  0
 24 23  1  0
 25 24  2  0
 26 27  1  0
 26 20  2  0
 27 22  2  0
 28 21  1  0
 29 19  1  0
 31 33  2  0
 32 31  1  0
 34 32  1  0
 35 44  2  0
 35 40  1  0
 36 32  1  0
 36 40  1  0
 37 36  1  0
 38 39  1  0
 38 37  1  0
 39 35  1  0
 40 41  2  0
 41 42  1  0
 43 42  2  0
 44 43  1  0
 45 19  1  0
 45 50  1  0
 45 46  1  0
 46 49  1  1
 46 47  1  0
 48 46  1  0
 50 53  1  0
 51 55  1  0
 51 50  1  0
 52 51  2  0
 55 54  1  0
 57 55  1  0
 57 58  1  0
 57 56  1  0
 59  1  1  0
 59 60  1  0
 60 61  1  0
 61 62  1  0
 62 63  1  0
 63 64  1  0
 64 66  1  0
 65 69  1  0
 66 65  1  0
 66 68  1  0
 67 65  2  0
 69 71  1  0
 70 71  1  0
 70 74  1  0
 71 73  1  0
 72 70  2  0
 75 83  1  0
 76 81  1  0
 77 78  1  0
 77 76  1  0
 79 78  1  0
 79 88  1  0
 79 80  1  0
 81 75  1  0
 81 80  1  0
 82 75  2  0
 83 74  1  0
 83 84  1  0
 85 86  2  0
 86105  1  0
 87 86  1  0
 87 90  1  0
 88 85  1  0
 88 89  1  0
 89 87  2  0
 90 91  1  0
 91 92  2  0
 93 96  1  0
 93 92  1  0
 94 93  2  0
 95 94  1  0
 95 90  2  0
 96 97  1  0
 97 98  1  0
 98 99  2  0
100 99  1  0
100104  1  0
101100  2  0
102 97  2  0
102101  1  0
103102  1  0
105106  1  0
106109  1  0
106108  1  0
107105  2  0
110111  1  0
110 85  1  0
112110  1  0
M  ISO  4  17 101  18 101  75 100  83 100
M  END
>  <TORSDO>  (34) 
F 37

>  <SCORE>  (34) 
20.343

>  <name>  (34) 
37

>  <ligand_id>  (34) 
37

>  <original_smiles>  (34) 
[H]c1c([H])c([H])c2c(c1[H])C([H])([H])C([H])([H])C([H])([H])C2([H])N([H])C(=O)C1([H])N(C(=O)C([H])(N([H])C(=O)C([H])(N([H])C([H])([H])[H])C([H])([H])[H])C(C([H])([H])[H])(C([H])([H])[H])C([H])([H])[H])C([H])([H])c2c([H])c(OC([H])([H])C([H])([H])OC([H])([H])C(=O)N([H])C([H])([H])C([H])([H])C([H])([H])C([H])([H])C([H])([H])C([H])([H])[N+]([H])([H])C([H])([H])C([H])([H])C([H])([H])C([H])([H])C([H])([H])C([H])([H])N([H])C(=O)C([H])([H])N([H])C(=O)C([H])([H])N([H])C(=O)N3C([H])([H])C([H])([H])C([H])([H])C([H])(n4nc(-c5c([H])c([H])c(Oc6c([H])c([H])c(F)c([H])c6F)c([H])c5[H])c(C(=O)N([H])[H])c4N([H])[H])C3([H])[H])c([H])c([H])c2C1([H])[H]

>  <smiles>  (34) 
[H]c1c([H])c([H])c2c(c1[H])C([H])([H])C([H])([H])C([H])([H])C2([H])N([H])C(=O)C1([H])N(C(=O)C([H])(N([H])C(=O)C([H])(N([H])C([H])([H])[H])C([H])([H])[H])C(C([H])([H])[H])(C([H])([H])[H])C([H])([H])[H])C([H])([H])c2c([H])c(OC([H])([H])C([H])([H])OC([H])([H])C(=O)N([H])C([H])([H])C([H])([H])C([H])([H])C([H])([H])C([H])([H])C([H])([H])[N+]([H])([H])C([H])([H])C([H])([H])C([H])([H])C([H])([H])C([H])([H])C([H])([H])N([H])C(=O)C([H])([H])N([H])C(=O)C([H])([H])N([H])C(=O)N3C([H])([H])C([H])([H])C([H])([H])C([H])(n4nc(-c5c([H])c([H])c(Oc6c([H])c([H])c(F)c([H])c6F)c([H])c5[H])c(C(=O)N([H])[H])c4N([H])[H])C3([H])[H])c([H])c([H])c2C1([H])[H]

$$$$
38:0:0
     RDKit          3D

100107  0  0  1  0  0  0  0  0999 V2000
  -24.3710  -18.9570   22.7750 C   0  0  0  0  0  2  0  0  0  0  0  0
  -24.0310  -18.5620   21.3260 C   0  0  0  0  0  2  0  0  0  0  0  0
  -26.3050  -18.5610   20.2630 C   0  0  0  0  0  0  0  0  0  0  0  0
  -25.1590  -17.9590   20.6130 N   0  0  0  0  0  0  0  0  0  0  0  0
  -26.6330  -19.6750   20.6820 O   0  0  0  0  0  0  0  0  0  0  0  0
  -25.0020  -17.0330   20.2340 H   0  0  0  0  0  0  0  0  0  0  0  0
  -27.1910  -17.8310   19.2440 C   0  0  0  0  0  2  0  0  0  0  0  0
  -28.4070  -17.3830   19.8470 O   0  0  0  0  0  0  0  0  0  0  0  0
  -29.5520  -17.5680   19.0080 C   0  0  0  0  0  2  0  0  0  0  0  0
  -30.1590  -16.2150   18.5610 C   0  0  0  0  0  2  0  0  0  0  0  0
  -31.4370  -16.3570   17.9180 O   0  0  0  0  0  0  0  0  0  0  0  0
  -35.7890  -21.8970   17.1480 C   0  0  0  0  0  0  0  0  0  0  0  0
  -31.6640  -17.5320   17.2370 C   0  0  0  0  0  0  0  0  0  0  0  0
  -33.5740  -22.1190   16.0770 C   0  0  0  0  0  3  0  0  0  0  0  0
  -32.1890  -19.9830   15.9330 C   0  0  0  0  0  0  0  0  0  0  0  0
  -34.6430  -19.8180   16.3920 C   0  0  0  0  0  2  0  0  0  0  0  0
  -33.2430  -19.2480   16.4910 C   0  0  0  0  0  0  0  0  0  0  0  0
  -32.9870  -18.0190   17.1330 C   0  0  0  0  0  3  0  0  0  0  0  0
  -30.6120  -18.2770   16.6560 C   0  0  0  0  0  3  0  0  0  0  0  0
  -30.8720  -19.5000   16.0090 C   0  0  0  0  0  3  0  0  0  0  0  0
  -32.5480  -21.2900   15.2610 C   0  0  0  0  0  2  0  0  0  0  0  0
  -34.7080  -21.2850   16.5890 N   0  0  0  0  0  0  0  0  0  0  0  0
  -35.8700  -23.1310   17.2070 O   0  0  0  0  0  0  0  0  0  0  0  0
  -32.8210  -22.8790   17.1920 C   0  0  0  0  0  0  0  0  0  0  0  0
  -32.2380  -24.0360   16.8380 N   0  0  0  0  0  0  0  0  0  0  0  0
  -32.7480  -22.4180   18.3340 O   0  0  0  0  0  0  0  0  0  0  0  0
  -32.3430  -24.3470   15.8830 H   0  0  0  0  0  0  0  0  0  0  0  0
  -30.4340  -27.1610   16.9750 C   0  0  0  0  0  0  0  0  0  0  0  0
  -31.4490  -24.9010   17.7120 C   0  0  0  0  0  3  0  0  0  0  0  0
  -29.9920  -24.3970   17.8230 C   0  0  0  0  0  2  0  0  0  0  0  0
  -29.0480  -25.0490   16.8090 C   0  0  0  0  0  2  0  0  0  0  0  0
  -29.0330  -26.5700   16.9870 C   0  0  0  0  0  2  0  0  0  0  0  0
  -31.5670  -26.3740   17.3020 C   0  0  0  0  0  0  0  0  0  0  0  0
  -32.8510  -26.9630   17.2410 C   0  0  0  0  0  3  0  0  0  0  0  0
  -33.0060  -28.3110   16.8710 C   0  0  0  0  0  3  0  0  0  0  0  0
  -31.8770  -29.0910   16.5640 C   0  0  0  0  0  3  0  0  0  0  0  0
  -30.5940  -28.5150   16.6180 C   0  0  0  0  0  3  0  0  0  0  0  0
  -36.9870  -21.0780   17.7230 C   0  0  0  0  0  3  0  0  0  0  0  0
  -38.2240  -21.7030   17.2370 N   0  0  0  0  0  0  0  0  0  0  0  0
  -38.9250  -21.2740   16.1770 C   0  0  0  0  0  0  0  0  0  0  0  0
  -38.6290  -20.2560   15.5470 O   0  0  0  0  0  0  0  0  0  0  0  0
  -38.4910  -22.5760   17.6660 H   0  0  0  0  0  0  0  0  0  0  0  0
  -39.7680  -23.0090   14.5640 C   0  0  0  0  0  1  0  0  0  0  0  0
  -40.1490  -22.1090   15.7500 C   0  0  0  0  0  3  0  0  0  0  0  0
  -41.9070  -20.5860   16.5390 C   0  0  0  0  0  1  0  0  0  0  0  0
  -41.3260  -21.2850   15.3960 N   0  0  0  0  0  0  0  0  0  0  0  0
  -42.0520  -21.8570   14.9730 H   0  0  0  0  0  0  0  0  0  0  0  0
  -36.9850  -20.9940   19.3000 C   0  0  1  0  0  0  0  0  0  0  0  0
  -36.8860  -22.3710   19.9960 C   0  0  0  0  0  1  0  0  0  0  0  0
  -35.8030  -20.1300   19.7960 C   0  0  0  0  0  1  0  0  0  0  0  0
  -38.2750  -20.2940   19.7890 C   0  0  0  0  0  1  0  0  0  0  0  0
  -23.1310  -19.3250   23.6100 C   0  0  0  0  0  2  0  0  0  0  0  0
  -22.6910  -20.7710   23.3470 C   0  0  0  0  0  2  0  0  0  0  0  0
  -21.4090  -21.1750   24.1070 C   0  0  0  0  0  2  0  0  0  0  0  0
  -20.2500  -21.4950   23.1590 C   0  0  0  0  0  0  0  0  0  0  0  0
  -20.4700  -22.4680   22.2700 N   0  0  0  0  0  0  0  0  0  0  0  0
  -19.1940  -20.8660   23.2250 O   0  0  0  0  0  0  0  0  0  0  0  0
  -21.3590  -22.9460   22.3330 H   0  0  0  0  0  0  0  0  0  0  0  0
  -19.5750  -22.8680   21.1980 C   0  0  0  0  0  2  0  0  0  0  0  0
  -19.9770  -22.2370   19.8430 C   0  0  0  0  0  2  0  0  0  0  0  0
  -19.5100  -23.0480   18.6190 C   0  0  0  0  0  2  0  0  0  0  0  0
  -20.3110  -24.3450   18.3630 C   0  0  0  0  0  2  0  0  0  0  0  0
  -19.0300  -26.1020   17.0880 C   0  0  0  0  0  0  0  0  0  0  0  0
  -16.6440  -26.6600   16.8310 C   0  0  0  0  0  2  0  0  0  0  0  0
  -16.1750  -27.8060   17.7460 C   0  0  0  0  0  2  0  0  0  0  0  0
  -15.7550  -27.2780   19.1290 C   0  0  0  0  0  2  0  0  0  0  0  0
  -16.8110  -26.3290   19.7360 C   0  0  0  0  0  3  0  0  0  0  0  0
  -17.2570  -25.2730   18.7090 C   0  0  0  0  0  2  0  0  0  0  0  0
  -17.7400  -25.9350   17.4880 N   0  0  0  0  0  0  0  0  0  0  0  0
  -19.3820  -26.9950   16.3160 O   0  0  0  0  0  0  0  0  0  0  0  0
  -19.8100  -25.0120   17.1640 N   0  0  0  0  0  0  0  0  0  0  0  0
  -20.4630  -24.9670   16.3950 H   0  0  0  0  0  0  0  0  0  0  0  0
  -16.8050  -25.8320   22.2620 C   0  0  0  0  0  0  0  0  0  0  0  0
  -15.9650  -25.0910   23.0490 C   0  0  0  0  0  0  0  0  0  0  0  0
  -14.9890  -24.5350   22.1650 C   0  0  0  0  0  0  0  0  0  0  0  0
  -16.3310  -25.7030   20.9670 N   0  0  0  0  0  0  0  0  0  0  0  0
  -15.2590  -24.8710   20.9100 N   0  0  0  0  0  0  0  0  0  0  0  0
  -13.7780  -23.7550   22.4510 C   0  0  0  0  0  0  0  0  0  0  0  0
  -13.5290  -22.5200   21.8130 C   0  0  0  0  0  3  0  0  0  0  0  0
  -12.3650  -21.7810   22.1120 C   0  0  0  0  0  3  0  0  0  0  0  0
  -11.4380  -22.2740   23.0620 C   0  0  0  0  0  0  0  0  0  0  0  0
  -11.6810  -23.5140   23.6760 C   0  0  0  0  0  3  0  0  0  0  0  0
  -12.8390  -24.2490   23.3760 C   0  0  0  0  0  3  0  0  0  0  0  0
  -10.2720  -21.6360   23.4050 O   0  0  0  0  0  0  0  0  0  0  0  0
  -10.1250  -20.2790   23.2650 C   0  0  0  0  0  0  0  0  0  0  0  0
  -11.1260  -19.3710   23.6780 C   0  0  0  0  0  3  0  0  0  0  0  0
  -10.9040  -17.9840   23.5790 C   0  0  0  0  0  3  0  0  0  0  0  0
   -9.6830  -17.4990   23.0750 C   0  0  0  0  0  0  0  0  0  0  0  0
   -8.6820  -18.3990   22.6720 C   0  0  0  0  0  3  0  0  0  0  0  0
   -8.9020  -19.7840   22.7660 C   0  0  0  0  0  0  0  0  0  0  0  0
   -7.9250  -20.6470   22.3940 F   0  0  0  0  0  0  0  0  0  0  0  0
   -9.4680  -16.1640   22.9880 F   0  0  0  0  0  0  0  0  0  0  0  0
  -16.0000  -24.9810   24.5440 C   0  0  0  0  0  0  0  0  0  0  0  0
  -15.7750  -23.7810   25.0740 N   0  0  0  0  0  0  0  0  0  0  0  0
  -16.2770  -25.9480   25.2510 O   0  0  0  0  0  0  0  0  0  0  0  0
  -15.5850  -22.9840   24.4890 H   0  0  0  0  0  0  0  0  0  0  0  0
  -15.8200  -23.6560   26.0740 H   0  0  0  0  0  0  0  0  0  0  0  0
  -17.9200  -26.6160   22.5440 N   0  0  0  0  0  0  0  0  0  0  0  0
  -18.1890  -26.8400   23.4940 H   0  0  0  0  0  0  0  0  0  0  0  0
  -18.3900  -27.1910   21.8580 H   0  0  0  0  0  0  0  0  0  0  0  0
  1 52  1  0
  2  1  1  0
  3  4  1  0
  3  5  2  0
  4  2  1  0
  6  4  1  0
  7  8  1  0
  7  3  1  0
  9  8  1  0
 10  9  1  0
 11 10  1  0
 12 23  2  0
 13 11  1  0
 14 22  1  0
 14 24  1  0
 15 20  2  0
 15 17  1  0
 16 17  1  0
 16 22  1  0
 17 18  2  0
 18 13  1  0
 19 13  2  0
 20 19  1  0
 21 15  1  0
 21 14  1  0
 22 12  1  0
 24 26  2  0
 25 24  1  0
 27 25  1  0
 28 32  1  0
 28 33  1  0
 29 25  1  0
 29 30  1  0
 31 32  1  0
 31 30  1  0
 33 29  1  0
 34 33  2  0
 35 34  1  0
 36 37  1  0
 36 35  2  0
 37 28  2  0
 38 12  1  0
 38 48  1  0
 39 42  1  0
 39 38  1  0
 40 39  1  0
 41 40  2  0
 44 43  1  0
 44 40  1  0
 46 44  1  0
 46 45  1  0
 47 46  1  0
 48 51  1  1
 48 50  1  0
 48 49  1  0
 53 52  1  0
 53 54  1  0
 55 57  2  0
 55 54  1  0
 56 58  1  0
 56 55  1  0
 59 56  1  0
 60 59  1  0
 61 60  1  0
 62 61  1  0
 63 71  1  0
 63 69  1  0
 64 69  1  0
 64 65  1  0
 65 66  1  0
 66 67  1  0
 67 68  1  0
 67 76  1  0
 69 68  1  0
 70 63  2  0
 71 62  1  0
 72 71  1  0
 73 98  1  0
 73 74  2  0
 74 93  1  0
 75 78  1  0
 75 74  1  0
 76 73  1  0
 77 76  1  0
 77 75  2  0
 78 83  1  0
 79 80  1  0
 79 78  2  0
 80 81  2  0
 81 84  1  0
 81 82  1  0
 83 82  2  0
 85 84  1  0
 85 86  1  0
 87 86  2  0
 88 87  1  0
 89 90  1  0
 89 88  2  0
 90 85  2  0
 91 90  1  0
 92 88  1  0
 93 94  1  0
 93 95  2  0
 94 97  1  0
 96 94  1  0
 98 99  1  0
100 98  1  0
M  ISO  4  10 101  11 101  63 100  71 100
M  END
>  <TORSDO>  (35) 
F 30

>  <SCORE>  (35) 
35.275

>  <name>  (35) 
38

>  <ligand_id>  (35) 
38

>  <original_smiles>  (35) 
[H]c1c([H])c([H])c2c(c1[H])C([H])([H])C([H])([H])C([H])([H])C2([H])N([H])C(=O)C1([H])N(C(=O)C([H])(N([H])C(=O)C([H])(N([H])C([H])([H])[H])C([H])([H])[H])C(C([H])([H])[H])(C([H])([H])[H])C([H])([H])[H])C([H])([H])c2c([H])c(OC([H])([H])C([H])([H])OC([H])([H])C(=O)N([H])C([H])([H])C([H])([H])C([H])([H])C([H])([H])C([H])([H])C(=O)N([H])C([H])([H])C([H])([H])C([H])([H])C([H])([H])N([H])C(=O)N3C([H])([H])C([H])([H])C([H])([H])C([H])(n4nc(-c5c([H])c([H])c(Oc6c([H])c([H])c(F)c([H])c6F)c([H])c5[H])c(C(=O)N([H])[H])c4N([H])[H])C3([H])[H])c([H])c([H])c2C1([H])[H]

>  <smiles>  (35) 
[H]c1c([H])c([H])c2c(c1[H])C([H])([H])C([H])([H])C([H])([H])C2([H])N([H])C(=O)C1([H])N(C(=O)C([H])(N([H])C(=O)C([H])(N([H])C([H])([H])[H])C([H])([H])[H])C(C([H])([H])[H])(C([H])([H])[H])C([H])([H])[H])C([H])([H])c2c([H])c(OC([H])([H])C([H])([H])OC([H])([H])C(=O)N([H])C([H])([H])C([H])([H])C([H])([H])C([H])([H])C([H])([H])C(=O)N([H])C([H])([H])C([H])([H])C([H])([H])C([H])([H])N([H])C(=O)N3C([H])([H])C([H])([H])C([H])([H])C([H])(n4nc(-c5c([H])c([H])c(Oc6c([H])c([H])c(F)c([H])c6F)c([H])c5[H])c(C(=O)N([H])[H])c4N([H])[H])C3([H])[H])c([H])c([H])c2C1([H])[H]

$$$$
39:0:0
     RDKit          3D

100107  0  0  1  0  0  0  0  0999 V2000
  -24.8250  -22.0850   18.9950 C   0  0  0  0  0  2  0  0  0  0  0  0
  -24.8080  -20.6420   18.4400 C   0  0  0  0  0  2  0  0  0  0  0  0
  -26.0030  -20.2880   17.5310 C   0  0  0  0  0  2  0  0  0  0  0  0
  -28.1790  -19.3930   18.4070 C   0  0  0  0  0  0  0  0  0  0  0  0
  -27.2850  -20.3760   18.2320 N   0  0  0  0  0  0  0  0  0  0  0  0
  -28.0000  -18.2380   18.0050 O   0  0  0  0  0  0  0  0  0  0  0  0
  -27.5590  -21.2910   18.5630 H   0  0  0  0  0  0  0  0  0  0  0  0
  -29.4890  -19.8000   19.0980 C   0  0  0  0  0  2  0  0  0  0  0  0
  -29.9820  -17.8870   20.6540 C   0  0  0  0  0  0  0  0  0  0  0  0
  -30.3090  -18.7190   19.6580 N   0  0  0  0  0  0  0  0  0  0  0  0
  -28.8600  -17.8390   21.1560 O   0  0  0  0  0  0  0  0  0  0  0  0
  -31.2470  -18.6380   19.2950 H   0  0  0  0  0  0  0  0  0  0  0  0
  -31.1020  -16.9930   21.1870 C   0  0  0  0  0  2  0  0  0  0  0  0
  -31.2260  -14.7450   20.1490 C   0  0  0  0  0  0  0  0  0  0  0  0
  -30.8550  -12.5900   19.0130 C   0  0  0  0  0  2  0  0  0  0  0  0
  -29.8820  -12.7920   17.8350 C   0  0  0  0  0  2  0  0  0  0  0  0
  -28.4220  -12.6840   18.3150 C   0  0  0  0  0  2  0  0  0  0  0  0
  -28.1370  -13.5790   19.5480 C   0  0  0  0  0  3  0  0  0  0  0  0
  -29.2050  -13.3230   20.6330 C   0  0  0  0  0  2  0  0  0  0  0  0
  -30.5300  -13.5870   20.0390 N   0  0  0  0  0  0  0  0  0  0  0  0
  -32.2350  -15.0050   19.4890 O   0  0  0  0  0  0  0  0  0  0  0  0
  -30.7150  -15.6000   21.0370 N   0  0  0  0  0  0  0  0  0  0  0  0
  -29.8550  -15.3210   21.4860 H   0  0  0  0  0  0  0  0  0  0  0  0
  -25.8030  -14.2900   20.3650 C   0  0  0  0  0  0  0  0  0  0  0  0
  -24.7070  -13.5610   20.7410 C   0  0  0  0  0  0  0  0  0  0  0  0
  -25.0880  -12.1890   20.6300 C   0  0  0  0  0  0  0  0  0  0  0  0
  -26.7880  -13.3640   20.0600 N   0  0  0  0  0  0  0  0  0  0  0  0
  -26.3600  -12.0910   20.2680 N   0  0  0  0  0  0  0  0  0  0  0  0
  -24.3010  -10.9600   20.7900 C   0  0  0  0  0  0  0  0  0  0  0  0
  -24.6710   -9.9640   21.7200 C   0  0  0  0  0  3  0  0  0  0  0  0
  -23.8910   -8.7970   21.8680 C   0  0  0  0  0  3  0  0  0  0  0  0
  -22.7250   -8.6200   21.0880 C   0  0  0  0  0  0  0  0  0  0  0  0
  -22.3720   -9.6040   20.1470 C   0  0  0  0  0  3  0  0  0  0  0  0
  -23.1530  -10.7620   19.9970 C   0  0  0  0  0  3  0  0  0  0  0  0
  -21.9220   -7.5080   21.1490 O   0  0  0  0  0  0  0  0  0  0  0  0
  -21.7580   -6.8010   22.3140 C   0  0  0  0  0  0  0  0  0  0  0  0
  -21.2580   -7.4050   23.4880 C   0  0  0  0  0  3  0  0  0  0  0  0
  -21.0350   -6.6260   24.6400 C   0  0  0  0  0  3  0  0  0  0  0  0
  -21.3030   -5.2440   24.6220 C   0  0  0  0  0  0  0  0  0  0  0  0
  -21.7980   -4.6410   23.4530 C   0  0  0  0  0  3  0  0  0  0  0  0
  -22.0200   -5.4160   22.3010 C   0  0  0  0  0  0  0  0  0  0  0  0
  -22.4780   -4.8260   21.1700 F   0  0  0  0  0  0  0  0  0  0  0  0
  -21.0810   -4.4920   25.7250 F   0  0  0  0  0  0  0  0  0  0  0  0
  -23.3510  -14.0990   21.0980 C   0  0  0  0  0  0  0  0  0  0  0  0
  -22.6280  -13.3990   21.9660 N   0  0  0  0  0  0  0  0  0  0  0  0
  -22.9460  -15.1690   20.6450 O   0  0  0  0  0  0  0  0  0  0  0  0
  -22.9700  -12.5280   22.3450 H   0  0  0  0  0  0  0  0  0  0  0  0
  -21.7220  -13.7400   22.2570 H   0  0  0  0  0  0  0  0  0  0  0  0
  -26.0410  -15.6540   20.2380 N   0  0  0  0  0  0  0  0  0  0  0  0
  -25.3250  -16.3530   20.3940 H   0  0  0  0  0  0  0  0  0  0  0  0
  -26.9080  -16.0560   19.9040 H   0  0  0  0  0  0  0  0  0  0  0  0
  -24.8210  -22.1250   20.5370 C   0  0  0  0  0  2  0  0  0  0  0  0
  -25.1020  -23.5200   21.1230 C   0  0  0  0  0  2  0  0  0  0  0  0
  -26.5340  -23.8460   20.9680 N   0  0  0  0  0  4  0  0  0  0  0  0
  -26.7230  -23.9210   19.9830 H   0  0  0  0  0  0  0  0  0  0  0  0
  -27.0650  -23.0700   21.3310 H   0  0  0  0  0  0  0  0  0  0  0  0
  -27.0050  -25.0690   21.6450 C   0  0  0  0  0  2  0  0  0  0  0  0
  -28.4730  -25.3650   21.2810 C   0  0  0  0  0  2  0  0  0  0  0  0
  -28.7230  -25.8460   19.8360 C   0  0  0  0  0  2  0  0  0  0  0  0
  -28.6450  -27.2610   19.7490 O   0  0  0  0  0  0  0  0  0  0  0  0
  -24.6520  -31.9580   23.2130 C   0  0  0  0  0  0  0  0  0  0  0  0
  -27.4150  -27.8670   19.8110 C   0  0  0  0  0  0  0  0  0  0  0  0
  -23.4760  -30.6420   21.4800 C   0  0  0  0  0  3  0  0  0  0  0  0
  -24.9610  -29.2560   19.9450 C   0  0  0  0  0  0  0  0  0  0  0  0
  -25.9820  -31.1010   21.2920 C   0  0  0  0  0  2  0  0  0  0  0  0
  -26.1000  -29.7790   20.5680 C   0  0  0  0  0  0  0  0  0  0  0  0
  -27.3240  -29.0870   20.5070 C   0  0  0  0  0  3  0  0  0  0  0  0
  -26.2650  -27.3520   19.1690 C   0  0  0  0  0  3  0  0  0  0  0  0
  -25.0360  -28.0350   19.2490 C   0  0  0  0  0  3  0  0  0  0  0  0
  -23.6910  -30.0680   20.0540 C   0  0  0  0  0  2  0  0  0  0  0  0
  -24.7220  -31.2440   22.0550 N   0  0  0  0  0  0  0  0  0  0  0  0
  -23.5640  -32.1590   23.7730 O   0  0  0  0  0  0  0  0  0  0  0  0
  -22.8620  -29.5360   22.3660 C   0  0  0  0  0  0  0  0  0  0  0  0
  -21.5430  -29.3260   22.2290 N   0  0  0  0  0  0  0  0  0  0  0  0
  -23.5660  -28.8720   23.1310 O   0  0  0  0  0  0  0  0  0  0  0  0
  -21.0330  -29.9220   21.5930 H   0  0  0  0  0  0  0  0  0  0  0  0
  -18.1990  -28.0210   22.6290 C   0  0  0  0  0  0  0  0  0  0  0  0
  -20.7500  -28.3130   22.9270 C   0  0  0  0  0  3  0  0  0  0  0  0
  -20.8880  -26.9320   22.2470 C   0  0  0  0  0  2  0  0  0  0  0  0
  -19.7930  -26.6590   21.2120 C   0  0  0  0  0  2  0  0  0  0  0  0
  -18.4070  -26.7260   21.8590 C   0  0  0  0  0  2  0  0  0  0  0  0
  -19.3010  -28.7730   23.1160 C   0  0  0  0  0  0  0  0  0  0  0  0
  -19.0530  -29.9870   23.7930 C   0  0  0  0  0  3  0  0  0  0  0  0
  -17.7380  -30.4460   23.9910 C   0  0  0  0  0  3  0  0  0  0  0  0
  -16.6510  -29.6860   23.5260 C   0  0  0  0  0  3  0  0  0  0  0  0
  -16.8830  -28.4770   22.8490 C   0  0  0  0  0  3  0  0  0  0  0  0
  -25.9220  -32.5750   23.8780 C   0  0  0  0  0  3  0  0  0  0  0  0
  -25.5990  -33.9550   24.2620 N   0  0  0  0  0  0  0  0  0  0  0  0
  -25.9340  -35.0390   23.5490 C   0  0  0  0  0  0  0  0  0  0  0  0
  -26.6190  -34.9810   22.5240 O   0  0  0  0  0  0  0  0  0  0  0  0
  -25.0050  -34.0790   25.0680 H   0  0  0  0  0  0  0  0  0  0  0  0
  -24.1920  -36.8210   23.2360 C   0  0  0  0  0  1  0  0  0  0  0  0
  -25.4270  -36.4050   24.0510 C   0  0  0  0  0  3  0  0  0  0  0  0
  -27.5420  -37.2740   24.9420 C   0  0  0  0  0  1  0  0  0  0  0  0
  -26.4510  -37.4700   23.9890 N   0  0  0  0  0  0  0  0  0  0  0  0
  -26.0380  -38.3830   24.1600 H   0  0  0  0  0  0  0  0  0  0  0  0
  -26.4350  -31.7520   25.1230 C   0  0  1  0  0  0  0  0  0  0  0  0
  -25.3370  -31.4500   26.1700 C   0  0  0  0  0  1  0  0  0  0  0  0
  -27.0350  -30.4050   24.6560 C   0  0  0  0  0  1  0  0  0  0  0  0
  -27.5730  -32.5260   25.8290 C   0  0  0  0  0  1  0  0  0  0  0  0
  1 52  1  0
  2  1  1  0
  3  5  1  0
  3  2  1  0
  4  8  1  0
  5  4  1  0
  5  7  1  0
  6  4  2  0
  8 10  1  0
  9 11  2  0
  9 13  1  0
 10  9  1  0
 12 10  1  0
 14 22  1  0
 15 20  1  0
 16 17  1  0
 16 15  1  0
 18 17  1  0
 18 27  1  0
 18 19  1  0
 20 14  1  0
 20 19  1  0
 21 14  2  0
 22 13  1  0
 22 23  1  0
 24 25  2  0
 25 44  1  0
 26 25  1  0
 26 29  1  0
 27 28  1  0
 27 24  1  0
 28 26  2  0
 29 30  1  0
 30 31  2  0
 32 35  1  0
 32 31  1  0
 33 32  2  0
 34 33  1  0
 34 29  2  0
 35 36  1  0
 36 37  1  0
 37 38  2  0
 39 38  1  0
 39 43  1  0
 40 39  2  0
 41 36  2  0
 41 40  1  0
 42 41  1  0
 44 45  1  0
 45 48  1  0
 45 47  1  0
 46 44  2  0
 49 24  1  0
 49 50  1  0
 51 49  1  0
 52 53  1  0
 54 53  1  0
 54 56  1  0
 54 57  1  0
 55 54  1  0
 58 57  1  0
 59 58  1  0
 60 62  1  0
 60 59  1  0
 61 72  2  0
 62 67  1  0
 63 71  1  0
 63 73  1  0
 64 70  1  0
 64 66  1  0
 65 71  1  0
 66 65  1  0
 67 66  2  0
 68 69  1  0
 68 62  2  0
 69 64  2  0
 70 63  1  0
 71 61  1  0
 73 75  2  0
 74 73  1  0
 76 74  1  0
 77 86  2  0
 77 82  1  0
 78 74  1  0
 78 82  1  0
 79 78  1  0
 80 81  1  0
 80 79  1  0
 81 77  1  0
 82 83  2  0
 83 84  1  0
 85 84  2  0
 86 85  1  0
 87 61  1  0
 87 88  1  0
 87 97  1  0
 88 91  1  0
 89 93  1  0
 89 88  1  0
 90 89  2  0
 93 92  1  0
 95 93  1  0
 95 96  1  0
 95 94  1  0
 97100  1  1
 97 98  1  0
 99 97  1  0
M  ISO  4  14 100  22 100  59 101  60 101
M  END
>  <TORSDO>  (36) 
F 28

>  <SCORE>  (36) 
-9.362

>  <name>  (36) 
39

>  <ligand_id>  (36) 
39

>  <original_smiles>  (36) 
[H]c1c([H])c([H])c2c(c1[H])C([H])([H])C([H])([H])C([H])([H])C2([H])N([H])C(=O)C1([H])N(C(=O)C([H])(N([H])C(=O)C([H])(N([H])C([H])([H])[H])C([H])([H])[H])C(C([H])([H])[H])(C([H])([H])[H])C([H])([H])[H])C([H])([H])c2c([H])c(OC([H])([H])C([H])([H])C([H])([H])[N+]([H])([H])C([H])([H])C([H])([H])C([H])([H])C([H])([H])C([H])([H])N([H])C(=O)C([H])([H])N([H])C(=O)C([H])([H])N([H])C(=O)N3C([H])([H])C([H])([H])C([H])([H])C([H])(n4nc(-c5c([H])c([H])c(Oc6c([H])c([H])c(F)c([H])c6F)c([H])c5[H])c(C(=O)N([H])[H])c4N([H])[H])C3([H])[H])c([H])c([H])c2C1([H])[H]

>  <smiles>  (36) 
[H]c1c([H])c([H])c2c(c1[H])C([H])([H])C([H])([H])C([H])([H])C2([H])N([H])C(=O)C1([H])N(C(=O)C([H])(N([H])C(=O)C([H])(N([H])C([H])([H])[H])C([H])([H])[H])C(C([H])([H])[H])(C([H])([H])[H])C([H])([H])[H])C([H])([H])c2c([H])c(OC([H])([H])C([H])([H])C([H])([H])[N+]([H])([H])C([H])([H])C([H])([H])C([H])([H])C([H])([H])C([H])([H])N([H])C(=O)C([H])([H])N([H])C(=O)C([H])([H])N([H])C(=O)N3C([H])([H])C([H])([H])C([H])([H])C([H])(n4nc(-c5c([H])c([H])c(Oc6c([H])c([H])c(F)c([H])c6F)c([H])c5[H])c(C(=O)N([H])[H])c4N([H])[H])C3([H])[H])c([H])c([H])c2C1([H])[H]

$$$$
40:0:0
     RDKit          3D

108112  0  0  1  0  0  0  0  0999 V2000
  -15.6320  -19.8660   24.7420 C   0  0  0  0  0  2  0  0  0  0  0  0
  -14.9200  -20.9490   25.5650 C   0  0  0  0  0  0  0  0  0  0  0  0
  -13.5930  -21.0430   25.4150 N   0  0  0  0  0  0  0  0  0  0  0  0
  -15.5550  -21.6790   26.3310 O   0  0  0  0  0  0  0  0  0  0  0  0
  -13.1510  -20.3830   24.7860 H   0  0  0  0  0  0  0  0  0  0  0  0
  -12.7190  -22.0160   26.0730 C   0  0  0  0  0  2  0  0  0  0  0  0
  -13.0520  -23.4700   25.6770 C   0  0  0  0  0  2  0  0  0  0  0  0
  -13.4150  -23.6190   24.1930 C   0  0  0  0  0  2  0  0  0  0  0  0
  -14.5010  -24.6730   23.9160 C   0  0  0  0  0  2  0  0  0  0  0  0
  -15.2490  -24.3370   22.6080 C   0  0  0  0  0  2  0  0  0  0  0  0
  -16.7550  -24.9040   22.4670 C   0  0  0  0  0  2  0  0  0  0  0  0
  -18.8260  -24.7690   20.4610 C   0  0  0  0  0  1  0  0  0  0  0  0
  -20.7590  -24.0160   20.6870 C   0  0  0  0  0  1  0  0  0  0  0  0
  -22.4440  -24.0330   21.4680 O   0  0  0  0  0  0  0  0  0  0  0  0
  -23.9200  -28.7630   23.4430 C   0  0  0  0  0  0  0  0  0  0  0  0
  -23.8290  -23.6030   21.2050 C   0  0  0  0  0  3  0  0  0  0  0  0
  -22.7510  -27.8490   21.5170 C   0  0  0  0  0  3  0  0  0  0  0  0
  -23.8480  -25.9260   20.1960 C   0  0  0  0  0  3  0  0  0  0  0  0
  -25.0830  -27.0240   22.0720 C   0  0  0  0  0  2  0  0  0  0  0  0
  -24.6560  -25.7780   21.3300 C   0  0  0  0  0  3  0  0  0  0  0  0
  -24.8220  -24.4590   21.7870 C   0  0  0  0  0  2  0  0  0  0  0  0
  -23.9400  -23.5180   19.8430 C   0  0  0  0  0  2  0  0  0  0  0  0
  -23.6610  -24.7990   19.3410 C   0  0  0  0  0  2  0  0  0  0  0  0
  -23.0470  -27.1970   20.1180 C   0  0  0  0  0  2  0  0  0  0  0  0
  -23.9530  -27.9270   22.3710 N   0  0  0  0  0  0  0  0  0  0  0  0
  -22.9520  -29.5100   23.6570 O   0  0  0  0  0  0  0  0  0  0  0  0
  -21.6560  -27.1740   22.3710 C   0  0  0  0  0  0  0  0  0  0  0  0
  -20.6030  -27.8810   22.6250 N   0  0  0  0  0  0  0  0  0  0  0  0
  -21.7660  -26.0760   22.9020 O   0  0  0  0  0  0  0  0  0  0  0  0
  -20.5740  -28.8330   22.2880 H   0  0  0  0  0  0  0  0  0  0  0  0
  -17.3040  -29.3680   22.1660 C   0  0  0  0  0  0  0  0  0  0  0  0
  -19.3350  -27.3340   23.0780 C   0  0  0  0  0  2  0  0  0  0  0  0
  -18.4680  -25.7000   22.1140 C   0  0  0  0  0  2  0  0  0  0  0  0
  -16.8500  -26.3220   20.8810 C   0  0  0  0  0 15  0  0  0  0  0  0
  -16.4670  -28.2790   20.9800 C   0  0  0  0  0  1  0  0  0  0  0  0
  -18.5610  -28.9630   23.0080 C   0  0  0  0  0  0  0  0  0  0  0  0
  -18.9410  -29.8220   24.0770 C   0  0  0  0  0  3  0  0  0  0  0  0
  -18.1870  -30.9360   24.4950 C   0  0  0  0  0  3  0  0  0  0  0  0
  -16.9620  -31.2130   23.8760 C   0  0  0  0  0  3  0  0  0  0  0  0
  -16.5430  -30.4510   22.7520 C   0  0  0  0  0  3  0  0  0  0  0  0
  -25.1120  -28.8320   24.4250 C   0  0  0  0  0  3  0  0  0  0  0  0
  -24.8280  -28.1060   25.7950 C   0  0  1  0  0  0  0  0  0  0  0  0
  -23.5760  -28.6310   26.5400 C   0  0  0  0  0  1  0  0  0  0  0  0
  -24.6460  -26.5850   25.5880 C   0  0  0  0  0  1  0  0  0  0  0  0
  -26.0520  -28.2820   26.7230 C   0  0  0  0  0  1  0  0  0  0  0  0
  -25.3870  -30.2560   24.6350 N   0  0  0  0  0  0  0  0  0  0  0  0
  -26.3460  -30.9370   23.9990 C   0  0  0  0  0  0  0  0  0  0  0  0
  -27.1560  -30.3980   23.2380 O   0  0  0  0  0  0  0  0  0  0  0  0
  -24.7310  -30.7670   25.2090 H   0  0  0  0  0  0  0  0  0  0  0  0
  -25.8880  -33.2120   23.0330 C   0  0  0  0  0  1  0  0  0  0  0  0
  -26.4240  -32.4520   24.2560 C   0  0  0  0  0  3  0  0  0  0  0  0
  -28.2660  -32.4540   25.8780 C   0  0  0  0  0  1  0  0  0  0  0  0
  -27.7890  -32.9180   24.5770 N   0  0  0  0  0  0  0  0  0  0  0  0
  -27.8360  -33.9330   24.5670 H   0  0  0  0  0  0  0  0  0  0  0  0
  -17.7130  -20.3700   23.4610 C   0  0  0  0  0  0  0  0  0  0  0  0
  -17.0650  -20.1330   24.6070 N   0  0  0  0  0  0  0  0  0  0  0  0
  -17.1570  -20.3140   22.3610 O   0  0  0  0  0  0  0  0  0  0  0  0
  -17.5820  -20.2270   25.4700 H   0  0  0  0  0  0  0  0  0  0  0  0
  -19.2060  -20.7150   23.5790 C   0  0  0  0  0  2  0  0  0  0  0  0
  -20.6450  -20.0680   21.6420 C   0  0  0  0  0  0  0  0  0  0  0  0
  -20.0690  -19.8040   22.8220 N   0  0  0  0  0  0  0  0  0  0  0  0
  -20.5300  -21.1610   21.0820 O   0  0  0  0  0  0  0  0  0  0  0  0
  -20.2090  -18.8830   23.2160 H   0  0  0  0  0  0  0  0  0  0  0  0
  -21.4720  -18.9400   21.0030 C   0  0  0  0  0  2  0  0  0  0  0  0
  -22.6830  -19.4650   20.4560 O   0  0  0  0  0  0  0  0  0  0  0  0
  -23.5960  -18.4500   20.0530 C   0  0  0  0  0  2  0  0  0  0  0  0
  -24.7590  -19.1000   19.2870 C   0  0  0  0  0  2  0  0  0  0  0  0
  -25.8130  -18.1070   18.7590 C   0  0  0  0  0  2  0  0  0  0  0  0
  -26.8800  -17.6570   19.7730 C   0  0  0  0  0  2  0  0  0  0  0  0
  -28.1410  -17.1400   19.0470 C   0  0  0  0  0  2  0  0  0  0  0  0
  -30.0040  -15.7020   19.6750 C   0  0  0  0  0  0  0  0  0  0  0  0
  -30.4020  -13.2800   19.9570 C   0  0  0  0  0  2  0  0  0  0  0  0
  -29.6750  -12.4740   18.8660 C   0  0  0  0  0  2  0  0  0  0  0  0
  -28.2190  -12.1830   19.2810 C   0  0  0  0  0  2  0  0  0  0  0  0
  -27.4750  -13.4580   19.7560 C   0  0  0  0  0  3  0  0  0  0  0  0
  -28.3210  -14.2090   20.8040 C   0  0  0  0  0  2  0  0  0  0  0  0
  -29.6320  -14.5080   20.2000 N   0  0  0  0  0  0  0  0  0  0  0  0
  -31.0490  -15.8750   19.0370 O   0  0  0  0  0  0  0  0  0  0  0  0
  -29.2020  -16.7330   19.9680 N   0  0  0  0  0  0  0  0  0  0  0  0
  -29.7470  -17.5420   20.2320 H   0  0  0  0  0  0  0  0  0  0  0  0
  -25.0880  -13.9910   20.5630 C   0  0  0  0  0  0  0  0  0  0  0  0
  -24.0550  -13.1850   20.9550 C   0  0  0  0  0  0  0  0  0  0  0  0
  -24.5450  -11.8460   20.8640 C   0  0  0  0  0  0  0  0  0  0  0  0
  -26.1460  -13.1430   20.2710 N   0  0  0  0  0  0  0  0  0  0  0  0
  -25.8210  -11.8450   20.5010 N   0  0  0  0  0  0  0  0  0  0  0  0
  -23.8560  -10.5620   21.0380 C   0  0  0  0  0  0  0  0  0  0  0  0
  -24.3450   -9.5800   21.9280 C   0  0  0  0  0  3  0  0  0  0  0  0
  -23.6580   -8.3590   22.0940 C   0  0  0  0  0  3  0  0  0  0  0  0
  -22.4680   -8.1110   21.3690 C   0  0  0  0  0  0  0  0  0  0  0  0
  -21.9980   -9.0830   20.4680 C   0  0  0  0  0  3  0  0  0  0  0  0
  -22.6850  -10.2960   20.3010 C   0  0  0  0  0  3  0  0  0  0  0  0
  -21.7460   -6.9450   21.4450 O   0  0  0  0  0  0  0  0  0  0  0  0
  -21.7170   -6.1900   22.5900 C   0  0  0  0  0  0  0  0  0  0  0  0
  -21.2540   -6.7130   23.8160 C   0  0  0  0  0  3  0  0  0  0  0  0
  -21.1750   -5.8810   24.9510 C   0  0  0  0  0  3  0  0  0  0  0  0
  -21.5510   -4.5270   24.8600 C   0  0  0  0  0  0  0  0  0  0  0  0
  -22.0080   -4.0040   23.6380 C   0  0  0  0  0  3  0  0  0  0  0  0
  -22.0900   -4.8330   22.5060 C   0  0  0  0  0  0  0  0  0  0  0  0
  -22.5100   -4.3190   21.3260 F   0  0  0  0  0  0  0  0  0  0  0  0
  -21.4690   -3.7260   25.9480 F   0  0  0  0  0  0  0  0  0  0  0  0
  -22.6600  -13.6230   21.2990 C   0  0  0  0  0  0  0  0  0  0  0  0
  -21.9930  -12.8970   22.1870 N   0  0  0  0  0  0  0  0  0  0  0  0
  -22.1730  -14.6440   20.8170 O   0  0  0  0  0  0  0  0  0  0  0  0
  -22.4020  -12.0740   22.6010 H   0  0  0  0  0  0  0  0  0  0  0  0
  -21.0540  -13.1640   22.4500 H   0  0  0  0  0  0  0  0  0  0  0  0
  -25.2050  -15.3670   20.4070 N   0  0  0  0  0  0  0  0  0  0  0  0
  -24.3900  -15.9650   20.4720 H   0  0  0  0  0  0  0  0  0  0  0  0
  -26.0130  -15.8310   20.0130 H   0  0  0  0  0  0  0  0  0  0  0  0
  1  2  1  0
  2  4  2  0
  3  2  1  0
  3  6  1  0
  5  3  1  0
  7  6  1  0
  8  7  1  0
  9  8  1  0
 10  9  1  0
 11 10  1  0
 12 33  1  0
 13 14  1  0
 15 26  2  0
 16 14  1  0
 16 21  1  0
 17 27  1  0
 17 25  1  0
 18 23  1  0
 18 20  1  0
 19 25  1  0
 20 21  1  0
 20 19  1  0
 22 16  1  0
 23 22  1  0
 24 18  1  0
 24 17  1  0
 25 15  1  0
 27 28  1  0
 27 29  2  0
 28 32  1  0
 30 28  1  0
 31 40  2  0
 31 36  1  0
 33 11  1  0
 35 31  1  0
 36 32  1  0
 36 37  2  0
 37 38  1  0
 39 38  2  0
 40 39  1  0
 41 15  1  0
 41 46  1  0
 41 42  1  0
 42 43  1  1
 42 45  1  0
 44 42  1  0
 46 49  1  0
 47 51  1  0
 47 46  1  0
 48 47  2  0
 51 50  1  0
 51 53  1  0
 53 52  1  0
 54 53  1  0
 55 59  1  0
 55 56  1  0
 56  1  1  0
 56 58  1  0
 57 55  2  0
 60 61  1  0
 61 63  1  0
 61 59  1  0
 62 60  2  0
 64 60  1  0
 65 64  1  0
 66 65  1  0
 67 66  1  0
 68 67  1  0
 68 69  1  0
 70 69  1  0
 70 79  1  0
 71 79  1  0
 71 77  1  0
 72 77  1  0
 73 74  1  0
 73 72  1  0
 75 74  1  0
 75 84  1  0
 75 76  1  0
 77 76  1  0
 78 71  2  0
 79 80  1  0
 81 82  2  0
 82101  1  0
 83 82  1  0
 83 86  1  0
 84 85  1  0
 84 81  1  0
 85 83  2  0
 86 87  1  0
 87 88  2  0
 89 92  1  0
 89 88  1  0
 90 89  2  0
 91 90  1  0
 91 86  2  0
 92 93  1  0
 93 94  1  0
 94 95  2  0
 96 95  1  0
 96100  1  0
 97 96  2  0
 98 93  2  0
 98 97  1  0
 99 98  1  0
101102  1  0
102105  1  0
102104  1  0
103101  2  0
106107  1  0
106 81  1  0
108106  1  0
M  ISO  4  13 101  14 101  71 100  79 100
M  END
>  <TORSDO>  (37) 
F 35

>  <SCORE>  (37) 
9.718

>  <name>  (37) 
40

>  <ligand_id>  (37) 
40

>  <original_smiles>  (37) 
[H]c1c([H])c([H])c2c(c1[H])C([H])([H])C([H])([H])C([H])([H])C2([H])N([H])C(=O)C1([H])N(C(=O)C([H])(N([H])C(=O)C([H])(N([H])C([H])([H])[H])C([H])([H])[H])C(C([H])([H])[H])(C([H])([H])[H])C([H])([H])[H])C([H])([H])c2c([H])c(OC([H])([H])C([H])([H])C([H])([H])C([H])([H])C([H])([H])C([H])([H])C([H])([H])C([H])([H])N([H])C(=O)C([H])([H])N([H])C(=O)C([H])([H])N([H])C(=O)C([H])([H])OC([H])([H])C([H])([H])C([H])([H])C([H])([H])C([H])([H])N([H])C(=O)N3C([H])([H])C([H])([H])C([H])([H])C([H])(n4nc(-c5c([H])c([H])c(Oc6c([H])c([H])c(F)c([H])c6F)c([H])c5[H])c(C(=O)N([H])[H])c4N([H])[H])C3([H])[H])c([H])c([H])c2C1([H])[H]

>  <smiles>  (37) 
[H]c1c([H])c([H])c2c(c1[H])C([H])([H])C([H])([H])C([H])([H])C2([H])N([H])C(=O)C1([H])N(C(=O)C([H])(N([H])C(=O)C([H])(N([H])C([H])([H])[H])C([H])([H])[H])C(C([H])([H])[H])(C([H])([H])[H])C([H])([H])[H])C([H])([H])c2c([H])c(OC([H])([H])C([H])([H])C([H])([H])C([H])([H])C([H])([H])C([H])([H])C([H])([H])C([H])([H])N([H])C(=O)C([H])([H])N([H])C(=O)C([H])([H])N([H])C(=O)C([H])([H])OC([H])([H])C([H])([H])C([H])([H])C([H])([H])C([H])([H])N([H])C(=O)N3C([H])([H])C([H])([H])C([H])([H])C([H])(n4nc(-c5c([H])c([H])c(Oc6c([H])c([H])c(F)c([H])c6F)c([H])c5[H])c(C(=O)N([H])[H])c4N([H])[H])C3([H])[H])c([H])c([H])c2C1([H])[H]

$$$$
41:0:0
     RDKit          3D

109116  0  0  1  0  0  0  0  0999 V2000
  -18.6490  -22.2590   21.2660 C   0  0  0  0  0  0  0  0  0  0  0  0
  -19.7420  -22.8790   21.7250 N   0  0  0  0  0  0  0  0  0  0  0  0
  -17.7160  -21.9250   22.0010 O   0  0  0  0  0  0  0  0  0  0  0  0
  -20.4820  -23.0570   21.0630 H   0  0  0  0  0  0  0  0  0  0  0  0
  -19.9310  -23.4230   23.0630 C   0  0  0  0  0  2  0  0  0  0  0  0
  -20.6850  -24.7600   22.9850 C   0  0  0  0  0  2  0  0  0  0  0  0
  -20.5200  -25.5330   21.6540 C   0  0  0  0  0  2  0  0  0  0  0  0
  -21.7630  -26.3500   21.2510 C   0  0  0  0  0  2  0  0  0  0  0  0
  -22.5200  -25.7010   20.0800 C   0  0  0  0  0  2  0  0  0  0  0  0
  -24.0420  -25.9260   20.0530 C   0  0  0  0  0  2  0  0  0  0  0  0
  -24.5600  -25.9750   18.5990 C   0  0  0  0  0  2  0  0  0  0  0  0
  -26.0260  -25.5400   18.4060 C   0  0  0  0  0  2  0  0  0  0  0  0
  -28.1770  -26.6820   17.9280 C   0  0  0  0  0  0  0  0  0  0  0  0
  -26.9300  -26.6840   18.4210 N   0  0  0  0  0  0  0  0  0  0  0  0
  -28.5640  -25.8520   17.1040 O   0  0  0  0  0  0  0  0  0  0  0  0
  -26.6830  -27.4560   19.0280 H   0  0  0  0  0  0  0  0  0  0  0  0
  -29.1550  -27.7020   18.5460 C   0  0  0  0  0  2  0  0  0  0  0  0
  -30.4560  -27.1260   18.7610 O   0  0  0  0  0  0  0  0  0  0  0  0
  -34.0000  -20.9860   18.8190 C   0  0  0  0  0  0  0  0  0  0  0  0
  -30.5660  -25.8900   19.3700 C   0  0  0  0  0  0  0  0  0  0  0  0
  -31.8850  -21.0090   20.1000 C   0  0  0  0  0  3  0  0  0  0  0  0
  -30.8460  -23.3060   20.4810 C   0  0  0  0  0  0  0  0  0  0  0  0
  -33.2390  -23.1570   19.7740 C   0  0  0  0  0  2  0  0  0  0  0  0
  -31.9310  -23.9140   19.8370 C   0  0  0  0  0  0  0  0  0  0  0  0
  -31.7940  -25.2020   19.2740 C   0  0  0  0  0  3  0  0  0  0  0  0
  -29.5040  -25.2820   20.0800 C   0  0  0  0  0  3  0  0  0  0  0  0
  -29.6260  -23.9870   20.6060 C   0  0  0  0  0  3  0  0  0  0  0  0
  -31.0650  -21.9250   21.0480 C   0  0  0  0  0  2  0  0  0  0  0  0
  -33.0770  -21.7070   19.5140 N   0  0  0  0  0  0  0  0  0  0  0  0
  -33.8990  -19.7570   18.7030 O   0  0  0  0  0  0  0  0  0  0  0  0
  -30.9290  -20.4280   19.0350 C   0  0  0  0  0  0  0  0  0  0  0  0
  -30.0610  -19.4950   19.4560 N   0  0  0  0  0  0  0  0  0  0  0  0
  -30.9610  -20.8280   17.8690 O   0  0  0  0  0  0  0  0  0  0  0  0
  -30.1100  -19.2120   20.4240 H   0  0  0  0  0  0  0  0  0  0  0  0
  -27.1290  -17.3860   19.6030 C   0  0  0  0  0  0  0  0  0  0  0  0
  -29.0420  -18.8350   18.6420 C   0  0  0  0  0  3  0  0  0  0  0  0
  -27.9390  -19.8310   18.2190 C   0  0  0  0  0  2  0  0  0  0  0  0
  -26.7510  -19.8420   19.1850 C   0  0  0  0  0  2  0  0  0  0  0  0
  -26.1100  -18.4560   19.2530 C   0  0  0  0  0  2  0  0  0  0  0  0
  -28.5100  -17.5720   19.3280 C   0  0  0  0  0  0  0  0  0  0  0  0
  -29.4230  -16.5620   19.7020 C   0  0  0  0  0  3  0  0  0  0  0  0
  -28.9780  -15.3870   20.3340 C   0  0  0  0  0  3  0  0  0  0  0  0
  -27.6100  -15.2010   20.5900 C   0  0  0  0  0  3  0  0  0  0  0  0
  -26.6870  -16.1970   20.2220 C   0  0  0  0  0  3  0  0  0  0  0  0
  -35.2420  -21.6660   18.1620 C   0  0  0  0  0  3  0  0  0  0  0  0
  -35.0640  -21.9260   16.6150 C   0  0  1  0  0  0  0  0  0  0  0  0
  -34.6250  -20.6740   15.8230 C   0  0  0  0  0  1  0  0  0  0  0  0
  -34.0180  -23.0380   16.3640 C   0  0  0  0  0  1  0  0  0  0  0  0
  -36.3980  -22.4300   16.0120 C   0  0  0  0  0  1  0  0  0  0  0  0
  -36.4040  -20.8040   18.4140 N   0  0  0  0  0  0  0  0  0  0  0  0
  -37.3110  -21.0180   19.3780 C   0  0  0  0  0  0  0  0  0  0  0  0
  -37.2930  -22.0130   20.1060 O   0  0  0  0  0  0  0  0  0  0  0  0
  -36.4550  -19.9420   17.8910 H   0  0  0  0  0  0  0  0  0  0  0  0
  -38.0590  -19.0510   20.7570 C   0  0  0  0  0  1  0  0  0  0  0  0
  -38.4120  -19.9550   19.5640 C   0  0  0  0  0  3  0  0  0  0  0  0
  -40.2890  -21.1720   18.5570 C   0  0  0  0  0  1  0  0  0  0  0  0
  -39.7600  -20.5310   19.7570 N   0  0  0  0  0  0  0  0  0  0  0  0
  -40.4180  -19.8140   20.0540 H   0  0  0  0  0  0  0  0  0  0  0  0
  -18.6070  -21.9880   19.7550 C   0  0  0  0  0  2  0  0  0  0  0  0
  -17.9460  -23.1200   18.9290 C   0  0  0  0  0  2  0  0  0  0  0  0
  -19.7820  -23.6000   17.2950 C   0  0  0  0  0  0  0  0  0  0  0  0
  -18.9110  -23.9820   18.2390 N   0  0  0  0  0  0  0  0  0  0  0  0
  -19.9440  -22.4180   16.9830 O   0  0  0  0  0  0  0  0  0  0  0  0
  -18.8590  -24.9700   18.4520 H   0  0  0  0  0  0  0  0  0  0  0  0
  -20.5670  -24.7100   16.5790 C   0  0  0  0  0  2  0  0  0  0  0  0
  -21.2840  -24.2060   15.3090 C   0  0  0  0  0  2  0  0  0  0  0  0
  -23.3720  -24.6550   14.0670 C   0  0  0  0  0  0  0  0  0  0  0  0
  -22.4220  -25.0450   14.9230 N   0  0  0  0  0  0  0  0  0  0  0  0
  -23.3740  -23.5330   13.5510 O   0  0  0  0  0  0  0  0  0  0  0  0
  -22.4700  -25.9790   15.3040 H   0  0  0  0  0  0  0  0  0  0  0  0
  -24.4690  -25.6490   13.6850 C   0  0  0  0  0  2  0  0  0  0  0  0
  -25.7920  -25.8220   11.5840 C   0  0  0  0  0  0  0  0  0  0  0  0
  -26.2890  -26.1770    9.1910 C   0  0  0  0  0  2  0  0  0  0  0  0
  -25.4260  -27.3220    8.6300 C   0  0  0  0  0  2  0  0  0  0  0  0
  -24.0430  -26.8040    8.1830 C   0  0  0  0  0  2  0  0  0  0  0  0
  -23.3510  -25.9350    9.2650 C   0  0  0  0  0  3  0  0  0  0  0  0
  -24.3270  -24.8550    9.7870 C   0  0  0  0  0  2  0  0  0  0  0  0
  -25.5510  -25.5230   10.2810 N   0  0  0  0  0  0  0  0  0  0  0  0
  -26.6440  -26.6310   11.9670 O   0  0  0  0  0  0  0  0  0  0  0  0
  -25.0220  -25.1530   12.4370 N   0  0  0  0  0  0  0  0  0  0  0  0
  -24.4860  -24.3930   12.0390 H   0  0  0  0  0  0  0  0  0  0  0  0
  -20.7930  -25.7370    8.9780 C   0  0  0  0  0  0  0  0  0  0  0  0
  -20.0190  -24.8960    8.2260 C   0  0  0  0  0  0  0  0  0  0  0  0
  -20.9280  -24.0180    7.5580 C   0  0  0  0  0  0  0  0  0  0  0  0
  -22.1070  -25.3480    8.7630 N   0  0  0  0  0  0  0  0  0  0  0  0
  -22.1750  -24.2740    7.9350 N   0  0  0  0  0  0  0  0  0  0  0  0
  -20.6850  -22.9850    6.5410 C   0  0  0  0  0  0  0  0  0  0  0  0
  -20.8340  -21.6120    6.8370 C   0  0  0  0  0  3  0  0  0  0  0  0
  -20.5810  -20.6330    5.8520 C   0  0  0  0  0  3  0  0  0  0  0  0
  -20.1710  -21.0210    4.5540 C   0  0  0  0  0  0  0  0  0  0  0  0
  -20.0410  -22.3900    4.2570 C   0  0  0  0  0  3  0  0  0  0  0  0
  -20.2980  -23.3620    5.2400 C   0  0  0  0  0  3  0  0  0  0  0  0
  -19.9270  -20.1420    3.5280 O   0  0  0  0  0  0  0  0  0  0  0  0
  -19.2530  -18.9660    3.7310 C   0  0  0  0  0  0  0  0  0  0  0  0
  -17.9300  -18.9400    4.2280 C   0  0  0  0  0  3  0  0  0  0  0  0
  -17.2500  -17.7140    4.3570 C   0  0  0  0  0  3  0  0  0  0  0  0
  -17.8840  -16.5140    3.9810 C   0  0  0  0  0  0  0  0  0  0  0  0
  -19.1970  -16.5370    3.4790 C   0  0  0  0  0  3  0  0  0  0  0  0
  -19.8780  -17.7610    3.3500 C   0  0  0  0  0  0  0  0  0  0  0  0
  -21.1360  -17.7830    2.8500 F   0  0  0  0  0  0  0  0  0  0  0  0
  -17.2270  -15.3360    4.0950 F   0  0  0  0  0  0  0  0  0  0  0  0
  -18.5270  -24.9600    8.0570 C   0  0  0  0  0  0  0  0  0  0  0  0
  -17.8720  -23.8110    7.9350 N   0  0  0  0  0  0  0  0  0  0  0  0
  -17.9270  -26.0340    8.0810 O   0  0  0  0  0  0  0  0  0  0  0  0
  -18.3540  -22.9250    7.9460 H   0  0  0  0  0  0  0  0  0  0  0  0
  -16.8650  -23.8150    7.8380 H   0  0  0  0  0  0  0  0  0  0  0  0
  -20.4840  -26.8140    9.8060 N   0  0  0  0  0  0  0  0  0  0  0  0
  -19.5230  -27.1220    9.9010 H   0  0  0  0  0  0  0  0  0  0  0  0
  -21.1570  -27.4480   10.2120 H   0  0  0  0  0  0  0  0  0  0  0  0
  1  2  1  0
  1  3  2  0
  2  5  1  0
  4  2  1  0
  6  5  1  0
  7  6  1  0
  8  7  1  0
  9  8  1  0
 10  9  1  0
 11 10  1  0
 12 14  1  0
 12 11  1  0
 13 14  1  0
 13 17  1  0
 14 16  1  0
 15 13  2  0
 17 18  1  0
 18 20  1  0
 19 29  1  0
 20 26  1  0
 21 31  1  0
 21 28  1  0
 22 27  1  0
 22 28  1  0
 23 24  1  0
 24 22  2  0
 25 20  2  0
 25 24  1  0
 26 27  2  0
 29 23  1  0
 29 21  1  0
 30 19  2  0
 31 32  1  0
 32 34  1  0
 33 31  2  0
 35 44  1  0
 36 40  1  0
 36 32  1  0
 37 36  1  0
 37 38  1  0
 38 39  1  0
 39 35  1  0
 40 35  2  0
 40 41  1  0
 41 42  2  0
 42 43  1  0
 44 43  2  0
 45 50  1  0
 45 19  1  0
 46 45  1  0
 46 47  1  6
 48 46  1  0
 49 46  1  0
 50 51  1  0
 51 55  1  0
 51 52  2  0
 53 50  1  0
 55 57  1  0
 55 54  1  0
 56 57  1  0
 57 58  1  0
 59  1  1  0
 60 59  1  0
 61 62  1  0
 62 64  1  0
 62 60  1  0
 63 61  2  0
 65 61  1  0
 66 65  1  0
 67 68  1  0
 68 70  1  0
 68 66  1  0
 69 67  2  0
 71 67  1  0
 72 79  2  0
 72 80  1  0
 73 78  1  0
 74 73  1  0
 75 74  1  0
 76 75  1  0
 76 77  1  0
 77 78  1  0
 78 72  1  0
 80 71  1  0
 81 80  1  0
 82107  1  0
 83 82  2  0
 84 86  2  0
 84 83  1  0
 85 82  1  0
 85 76  1  0
 86 85  1  0
 87 88  1  0
 87 84  1  0
 89 88  2  0
 90 89  1  0
 91 90  2  0
 91 92  1  0
 92 87  2  0
 93 94  1  0
 93 90  1  0
 94 95  1  0
 95 96  2  0
 97101  1  0
 97 96  1  0
 98 97  2  0
 99 98  1  0
 99 94  2  0
100 99  1  0
102104  2  0
102 83  1  0
103105  1  0
103102  1  0
106103  1  0
107108  1  0
107109  1  0
M  ISO  4  17 101  18 101  72 100  80 100
M  END
>  <TORSDO>  (38) 
F 33

>  <SCORE>  (38) 
-0.409

>  <name>  (38) 
41

>  <ligand_id>  (38) 
41

>  <original_smiles>  (38) 
[H]c1c([H])c([H])c2c(c1[H])C([H])([H])C([H])([H])C([H])([H])C2([H])N([H])C(=O)C1([H])N(C(=O)C([H])(N([H])C(=O)C([H])(N([H])C([H])([H])[H])C([H])([H])[H])C(C([H])([H])[H])(C([H])([H])[H])C([H])([H])[H])C([H])([H])c2c([H])c(OC([H])([H])C(=O)N([H])C([H])([H])C([H])([H])C([H])([H])C([H])([H])C([H])([H])C([H])([H])C([H])([H])C([H])([H])N([H])C(=O)C([H])([H])C([H])([H])N([H])C(=O)C([H])([H])C([H])([H])N([H])C(=O)C([H])([H])N([H])C(=O)N3C([H])([H])C([H])([H])C([H])([H])C([H])(n4nc(-c5c([H])c([H])c(Oc6c([H])c([H])c(F)c([H])c6F)c([H])c5[H])c(C(=O)N([H])[H])c4N([H])[H])C3([H])[H])c([H])c([H])c2C1([H])[H]

>  <smiles>  (38) 
[H]c1c([H])c([H])c2c(c1[H])C([H])([H])C([H])([H])C([H])([H])C2([H])N([H])C(=O)C1([H])N(C(=O)C([H])(N([H])C(=O)C([H])(N([H])C([H])([H])[H])C([H])([H])[H])C(C([H])([H])[H])(C([H])([H])[H])C([H])([H])[H])C([H])([H])c2c([H])c(OC([H])([H])C(=O)N([H])C([H])([H])C([H])([H])C([H])([H])C([H])([H])C([H])([H])C([H])([H])C([H])([H])C([H])([H])N([H])C(=O)C([H])([H])C([H])([H])N([H])C(=O)C([H])([H])C([H])([H])N([H])C(=O)C([H])([H])N([H])C(=O)N3C([H])([H])C([H])([H])C([H])([H])C([H])(n4nc(-c5c([H])c([H])c(Oc6c([H])c([H])c(F)c([H])c6F)c([H])c5[H])c(C(=O)N([H])[H])c4N([H])[H])C3([H])[H])c([H])c([H])c2C1([H])[H]

$$$$
42:0:0
     RDKit          3D

 99106  0  0  1  0  0  0  0  0999 V2000
  -25.4240  -22.1660   22.9080 C   0  0  0  0  0  2  0  0  0  0  0  0
  -24.8760  -23.4520   22.2850 C   0  0  0  0  0  0  0  0  0  0  0  0
  -25.7550  -24.4250   22.0080 N   0  0  0  0  0  0  0  0  0  0  0  0
  -23.6670  -23.5590   22.0720 O   0  0  0  0  0  0  0  0  0  0  0  0
  -26.7210  -24.2350   22.2410 H   0  0  0  0  0  0  0  0  0  0  0  0
  -25.4380  -25.7800   21.5480 C   0  0  0  0  0  2  0  0  0  0  0  0
  -26.0180  -26.1270   20.1570 C   0  0  0  0  0  2  0  0  0  0  0  0
  -26.5020  -27.5850   20.0580 C   0  0  0  0  0  2  0  0  0  0  0  0
  -26.4330  -28.1560   18.6190 C   0  0  0  0  0  2  0  0  0  0  0  0
  -25.9050  -29.4840   18.5870 O   0  0  0  0  0  0  0  0  0  0  0  0
  -25.9320  -30.0310   25.6390 C   0  0  0  0  0  0  0  0  0  0  0  0
  -25.1760  -29.8570   19.6930 C   0  0  0  0  0  0  0  0  0  0  0  0
  -23.7180  -30.2690   24.5620 C   0  0  0  0  0  3  0  0  0  0  0  0
  -23.7460  -30.5330   22.0270 C   0  0  0  0  0  0  0  0  0  0  0  0
  -25.8560  -30.9170   23.3150 C   0  0  0  0  0  2  0  0  0  0  0  0
  -25.1450  -30.5450   22.0330 C   0  0  0  0  0  0  0  0  0  0  0  0
  -25.8650  -30.2170   20.8670 C   0  0  0  0  0  3  0  0  0  0  0  0
  -23.7620  -29.8600   19.6910 C   0  0  0  0  0  3  0  0  0  0  0  0
  -23.0460  -30.1900   20.8570 C   0  0  0  0  0  3  0  0  0  0  0  0
  -23.0540  -30.9150   23.3150 C   0  0  0  0  0  2  0  0  0  0  0  0
  -25.2130  -30.3730   24.5330 N   0  0  0  0  0  0  0  0  0  0  0  0
  -25.3670  -29.6750   26.6830 O   0  0  0  0  0  0  0  0  0  0  0  0
  -23.2060  -28.8180   24.6960 C   0  0  0  0  0  0  0  0  0  0  0  0
  -22.0680  -28.5220   24.0440 N   0  0  0  0  0  0  0  0  0  0  0  0
  -23.8360  -27.9810   25.3470 O   0  0  0  0  0  0  0  0  0  0  0  0
  -21.6080  -29.2650   23.5360 H   0  0  0  0  0  0  0  0  0  0  0  0
  -20.1810  -26.2890   21.9230 C   0  0  0  0  0  0  0  0  0  0  0  0
  -21.4160  -27.2150   23.9980 C   0  0  0  0  0  3  0  0  0  0  0  0
  -22.4480  -26.0870   23.7620 C   0  0  0  0  0  2  0  0  0  0  0  0
  -22.6240  -25.7330   22.2830 C   0  0  0  0  0  2  0  0  0  0  0  0
  -21.2920  -25.2820   21.6750 C   0  0  0  0  0  2  0  0  0  0  0  0
  -20.2480  -27.2060   23.0050 C   0  0  0  0  0  0  0  0  0  0  0  0
  -19.2060  -28.1440   23.1720 C   0  0  0  0  0  3  0  0  0  0  0  0
  -18.1130  -28.1750   22.2840 C   0  0  0  0  0  3  0  0  0  0  0  0
  -18.0420  -27.2520   21.2260 C   0  0  0  0  0  3  0  0  0  0  0  0
  -19.0720  -26.3100   21.0510 C   0  0  0  0  0  3  0  0  0  0  0  0
  -27.4920  -30.0940   25.6540 C   0  0  0  0  0  3  0  0  0  0  0  0
  -28.1680  -28.6720   25.7520 C   0  0  1  0  0  0  0  0  0  0  0  0
  -27.6360  -27.8100   26.9190 C   0  0  0  0  0  1  0  0  0  0  0  0
  -27.9640  -27.8780   24.4410 C   0  0  0  0  0  1  0  0  0  0  0  0
  -29.6960  -28.8300   25.9360 C   0  0  0  0  0  1  0  0  0  0  0  0
  -27.8870  -30.9400   26.7890 N   0  0  0  0  0  0  0  0  0  0  0  0
  -28.3770  -32.1820   26.6780 C   0  0  0  0  0  0  0  0  0  0  0  0
  -28.6110  -32.7150   25.5900 O   0  0  0  0  0  0  0  0  0  0  0  0
  -27.6740  -30.5860   27.7090 H   0  0  0  0  0  0  0  0  0  0  0  0
  -27.5390  -33.9900   28.2110 C   0  0  0  0  0  1  0  0  0  0  0  0
  -28.6510  -32.9540   27.9820 C   0  0  0  0  0  3  0  0  0  0  0  0
  -31.0910  -32.6960   28.0710 C   0  0  0  0  0  1  0  0  0  0  0  0
  -29.9680  -33.6270   28.0020 N   0  0  0  0  0  0  0  0  0  0  0  0
  -30.0350  -34.2630   28.7920 H   0  0  0  0  0  0  0  0  0  0  0  0
  -27.2620  -21.4960   21.3670 C   0  0  0  0  0  0  0  0  0  0  0  0
  -26.0450  -21.3240   21.8900 N   0  0  0  0  0  0  0  0  0  0  0  0
  -28.0270  -22.3870   21.7440 O   0  0  0  0  0  0  0  0  0  0  0  0
  -25.4790  -20.5710   21.5200 H   0  0  0  0  0  0  0  0  0  0  0  0
  -27.6570  -20.5170   20.2550 C   0  0  0  0  0  2  0  0  0  0  0  0
  -28.4010  -21.1670   19.0670 C   0  0  0  0  0  2  0  0  0  0  0  0
  -29.4470  -20.2390   16.9960 C   0  0  0  0  0  0  0  0  0  0  0  0
  -29.1510  -20.1630   18.3030 N   0  0  0  0  0  0  0  0  0  0  0  0
  -29.1210  -21.2040   16.3040 O   0  0  0  0  0  0  0  0  0  0  0  0
  -29.4270  -19.3260   18.7950 H   0  0  0  0  0  0  0  0  0  0  0  0
  -30.2410  -19.0960   16.3550 C   0  0  0  0  0  2  0  0  0  0  0  0
  -31.1950  -16.8910   17.0220 C   0  0  0  0  0  0  0  0  0  0  0  0
  -32.1210  -14.8470   18.0530 C   0  0  0  0  0  2  0  0  0  0  0  0
  -31.4780  -13.5600   17.5020 C   0  0  0  0  0  2  0  0  0  0  0  0
  -30.1880  -13.2210   18.2720 C   0  0  0  0  0  2  0  0  0  0  0  0
  -29.2340  -14.4360   18.3800 C   0  0  0  0  0  3  0  0  0  0  0  0
  -29.9840  -15.6920   18.8720 C   0  0  0  0  0  2  0  0  0  0  0  0
  -31.1380  -15.9380   17.9850 N   0  0  0  0  0  0  0  0  0  0  0  0
  -31.9940  -16.8690   16.0810 O   0  0  0  0  0  0  0  0  0  0  0  0
  -30.3860  -17.9350   17.2320 N   0  0  0  0  0  0  0  0  0  0  0  0
  -29.8680  -17.9420   18.0970 H   0  0  0  0  0  0  0  0  0  0  0  0
  -27.2180  -15.0010   19.8760 C   0  0  0  0  0  0  0  0  0  0  0  0
  -26.2790  -14.2090   20.4800 C   0  0  0  0  0  0  0  0  0  0  0  0
  -26.6320  -12.8630   20.1580 C   0  0  0  0  0  0  0  0  0  0  0  0
  -28.0840  -14.1340   19.2300 N   0  0  0  0  0  0  0  0  0  0  0  0
  -27.7510  -12.8370   19.4480 N   0  0  0  0  0  0  0  0  0  0  0  0
  -25.9390  -11.5980   20.4350 C   0  0  0  0  0  0  0  0  0  0  0  0
  -26.3170  -10.7650   21.5140 C   0  0  0  0  0  3  0  0  0  0  0  0
  -25.6200   -9.5620   21.7680 C   0  0  0  0  0  3  0  0  0  0  0  0
  -24.5380   -9.1820   20.9410 C   0  0  0  0  0  0  0  0  0  0  0  0
  -24.1810  -10.0010   19.8540 C   0  0  0  0  0  3  0  0  0  0  0  0
  -24.8780  -11.1950   19.6020 C   0  0  0  0  0  3  0  0  0  0  0  0
  -23.8190   -8.0190   21.0960 O   0  0  0  0  0  0  0  0  0  0  0  0
  -23.1040   -7.7630   22.2370 C   0  0  0  0  0  0  0  0  0  0  0  0
  -22.1260   -8.6580   22.7200 C   0  0  0  0  0  3  0  0  0  0  0  0
  -21.3650   -8.3250   23.8580 C   0  0  0  0  0  3  0  0  0  0  0  0
  -21.5720   -7.0920   24.5080 C   0  0  0  0  0  0  0  0  0  0  0  0
  -22.5430   -6.1980   24.0250 C   0  0  0  0  0  3  0  0  0  0  0  0
  -23.3040   -6.5300   22.8920 C   0  0  0  0  0  0  0  0  0  0  0  0
  -24.2220   -5.6530   22.4170 F   0  0  0  0  0  0  0  0  0  0  0  0
  -20.8380   -6.7680   25.5970 F   0  0  0  0  0  0  0  0  0  0  0  0
  -25.0700  -14.6720   21.2410 C   0  0  0  0  0  0  0  0  0  0  0  0
  -24.6130  -13.8730   22.1990 N   0  0  0  0  0  0  0  0  0  0  0  0
  -24.5580  -15.7700   21.0260 O   0  0  0  0  0  0  0  0  0  0  0  0
  -25.0540  -12.9860   22.3970 H   0  0  0  0  0  0  0  0  0  0  0  0
  -23.8250  -14.1570   22.7610 H   0  0  0  0  0  0  0  0  0  0  0  0
  -27.4030  -16.3780   19.8050 N   0  0  0  0  0  0  0  0  0  0  0  0
  -26.7470  -17.0430   20.1950 H   0  0  0  0  0  0  0  0  0  0  0  0
  -28.1280  -16.8180   19.2530 H   0  0  0  0  0  0  0  0  0  0  0  0
  2  1  1  0
  3  5  1  0
  3  2  1  0
  4  2  2  0
  6  3  1  0
  7  6  1  0
  8  7  1  0
  9  8  1  0
 10  9  1  0
 10 12  1  0
 11 22  2  0
 12 17  1  0
 13 23  1  0
 14 16  1  0
 14 20  1  0
 15 21  1  0
 16 15  1  0
 17 16  2  0
 18 12  2  0
 18 19  1  0
 19 14  2  0
 20 13  1  0
 21 13  1  0
 21 11  1  0
 23 25  2  0
 24 23  1  0
 26 24  1  0
 27 32  1  0
 28 24  1  0
 29 28  1  0
 30 29  1  0
 31 27  1  0
 31 30  1  0
 32 33  2  0
 32 28  1  0
 34 33  1  0
 35 34  2  0
 36 35  1  0
 36 27  2  0
 37 11  1  0
 37 38  1  0
 37 42  1  0
 38 41  1  1
 38 39  1  0
 40 38  1  0
 42 45  1  0
 43 42  1  0
 43 47  1  0
 44 43  2  0
 47 49  1  0
 47 46  1  0
 49 48  1  0
 49 50  1  0
 51 53  2  0
 51 52  1  0
 52  1  1  0
 54 52  1  0
 55 51  1  0
 56 55  1  0
 57 58  1  0
 58 60  1  0
 58 56  1  0
 59 57  2  0
 61 57  1  0
 61 70  1  0
 62 70  1  0
 62 68  1  0
 64 63  1  0
 64 65  1  0
 66 65  1  0
 66 67  1  0
 66 75  1  0
 68 63  1  0
 68 67  1  0
 69 62  2  0
 70 71  1  0
 72 73  2  0
 73 92  1  0
 74 77  1  0
 74 73  1  0
 75 76  1  0
 75 72  1  0
 76 74  2  0
 77 78  1  0
 78 79  2  0
 80 83  1  0
 80 79  1  0
 81 80  2  0
 82 81  1  0
 82 77  2  0
 83 84  1  0
 84 85  2  0
 84 89  1  0
 85 86  1  0
 86 87  2  0
 87 91  1  0
 88 87  1  0
 89 88  2  0
 90 89  1  0
 92 93  1  0
 93 95  1  0
 93 96  1  0
 94 92  2  0
 97 72  1  0
 97 98  1  0
 99 97  1  0
M  ISO  4   9 101  10 101  62 100  70 100
M  END
>  <TORSDO>  (39) 
F 26

>  <SCORE>  (39) 
3.632

>  <name>  (39) 
42

>  <ligand_id>  (39) 
42

>  <original_smiles>  (39) 
[H]c1c([H])c([H])c2c(c1[H])C([H])([H])C([H])([H])C([H])([H])C2([H])N([H])C(=O)C1([H])N(C(=O)C([H])(N([H])C(=O)C([H])(N([H])C([H])([H])[H])C([H])([H])[H])C(C([H])([H])[H])(C([H])([H])[H])C([H])([H])[H])C([H])([H])c2c([H])c(OC([H])([H])C([H])([H])C([H])([H])C([H])([H])N([H])C(=O)C([H])([H])N([H])C(=O)C([H])([H])C([H])([H])N([H])C(=O)C([H])([H])N([H])C(=O)N3C([H])([H])C([H])([H])C([H])([H])C([H])(n4nc(-c5c([H])c([H])c(Oc6c([H])c([H])c(F)c([H])c6F)c([H])c5[H])c(C(=O)N([H])[H])c4N([H])[H])C3([H])[H])c([H])c([H])c2C1([H])[H]

>  <smiles>  (39) 
[H]c1c([H])c([H])c2c(c1[H])C([H])([H])C([H])([H])C([H])([H])C2([H])N([H])C(=O)C1([H])N(C(=O)C([H])(N([H])C(=O)C([H])(N([H])C([H])([H])[H])C([H])([H])[H])C(C([H])([H])[H])(C([H])([H])[H])C([H])([H])[H])C([H])([H])c2c([H])c(OC([H])([H])C([H])([H])C([H])([H])C([H])([H])N([H])C(=O)C([H])([H])N([H])C(=O)C([H])([H])C([H])([H])N([H])C(=O)C([H])([H])N([H])C(=O)N3C([H])([H])C([H])([H])C([H])([H])C([H])(n4nc(-c5c([H])c([H])c(Oc6c([H])c([H])c(F)c([H])c6F)c([H])c5[H])c(C(=O)N([H])[H])c4N([H])[H])C3([H])[H])c([H])c([H])c2C1([H])[H]

$$$$
43:0:0
     RDKit          3D

107114  0  0  1  0  0  0  0  0999 V2000
  -26.5820  -15.5090   18.1860 C   0  0  0  0  0  2  0  0  0  0  0  0
  -26.7050  -16.6600   19.2550 C   0  0  0  0  0  0  0  0  0  0  0  0
  -27.6530  -17.6380   19.1290 N   0  0  0  0  0  0  0  0  0  0  0  0
  -25.9170  -16.6690   20.2020 O   0  0  0  0  0  0  0  0  0  0  0  0
  -28.2580  -17.6040   18.3170 H   0  0  0  0  0  0  0  0  0  0  0  0
  -27.9610  -18.7320   20.1140 C   0  0  0  0  0  2  0  0  0  0  0  0
  -28.5750  -20.0640   19.5510 C   0  0  0  0  0  0  0  0  0  0  0  0
  -28.8180  -21.1210   20.3870 N   0  0  0  0  0  0  0  0  0  0  0  0
  -28.8290  -20.1340   18.3470 O   0  0  0  0  0  0  0  0  0  0  0  0
  -28.6210  -20.9950   21.3720 H   0  0  0  0  0  0  0  0  0  0  0  0
  -29.4270  -22.4380   20.0270 C   0  0  0  0  0  2  0  0  0  0  0  0
  -29.2520  -23.6250   21.0650 C   0  0  0  0  0  2  0  0  0  0  0  0
  -29.9620  -24.9910   20.6320 C   0  0  0  0  0  2  0  0  0  0  0  0
  -29.7490  -26.2970   21.3020 O   0  0  0  0  0  0  0  0  0  0  0  0
  -25.0640  -31.4080   23.4100 C   0  0  0  0  0  0  0  0  0  0  0  0
  -28.5840  -27.0220   21.0580 C   0  0  0  0  0  0  0  0  0  0  0  0
  -24.2980  -29.7780   21.7320 C   0  0  0  0  0  3  0  0  0  0  0  0
  -26.1030  -28.3560   20.6280 C   0  0  0  0  0  0  0  0  0  0  0  0
  -26.7870  -30.3820   21.9010 C   0  0  0  0  0  2  0  0  0  0  0  0
  -27.1020  -28.9860   21.3790 C   0  0  0  0  0  0  0  0  0  0  0  0
  -28.3410  -28.3190   21.6120 C   0  0  0  0  0  3  0  0  0  0  0  0
  -27.5670  -26.4610   20.2610 C   0  0  0  0  0  3  0  0  0  0  0  0
  -26.3340  -27.0960   20.0630 C   0  0  0  0  0  3  0  0  0  0  0  0
  -24.7850  -29.0730   20.4430 C   0  0  0  0  0  2  0  0  0  0  0  0
  -25.3950  -30.5460   22.4040 N   0  0  0  0  0  0  0  0  0  0  0  0
  -23.8850  -31.5790   23.7500 O   0  0  0  0  0  0  0  0  0  0  0  0
  -23.6350  -28.7300   22.6510 C   0  0  0  0  0  0  0  0  0  0  0  0
  -22.4010  -28.3250   22.3020 N   0  0  0  0  0  0  0  0  0  0  0  0
  -24.2310  -28.2860   23.6350 O   0  0  0  0  0  0  0  0  0  0  0  0
  -21.9850  -28.7440   21.4840 H   0  0  0  0  0  0  0  0  0  0  0  0
  -19.2110  -26.6280   22.2700 C   0  0  0  0  0  0  0  0  0  0  0  0
  -21.5890  -27.3290   23.0010 C   0  0  0  0  0  3  0  0  0  0  0  0
  -22.0220  -25.8940   22.6180 C   0  0  0  0  0  2  0  0  0  0  0  0
  -21.2130  -25.3120   21.4550 C   0  0  0  0  0  2  0  0  0  0  0  0
  -19.7210  -25.2750   21.8010 C   0  0  0  0  0  2  0  0  0  0  0  0
  -20.0900  -27.5970   22.8180 C   0  0  0  0  0  0  0  0  0  0  0  0
  -19.5700  -28.8510   23.2060 C   0  0  0  0  0  3  0  0  0  0  0  0
  -18.1970  -29.1360   23.0650 C   0  0  0  0  0  3  0  0  0  0  0  0
  -17.3290  -28.1670   22.5370 C   0  0  0  0  0  3  0  0  0  0  0  0
  -17.8340  -26.9140   22.1420 C   0  0  0  0  0  3  0  0  0  0  0  0
  -26.1500  -32.2350   24.1620 C   0  0  0  0  0  3  0  0  0  0  0  0
  -25.6490  -33.6110   24.2890 N   0  0  0  0  0  0  0  0  0  0  0  0
  -26.0260  -34.6310   23.5050 C   0  0  0  0  0  0  0  0  0  0  0  0
  -26.8990  -34.5230   22.6390 O   0  0  0  0  0  0  0  0  0  0  0  0
  -24.8810  -33.7600   24.9290 H   0  0  0  0  0  0  0  0  0  0  0  0
  -24.2590  -36.1940   22.6300 C   0  0  0  0  0  1  0  0  0  0  0  0
  -25.3260  -35.9880   23.7180 C   0  0  0  0  0  3  0  0  0  0  0  0
  -27.1400  -37.1540   24.8910 C   0  0  0  0  0  1  0  0  0  0  0  0
  -26.2600  -37.1360   23.7250 N   0  0  0  0  0  0  0  0  0  0  0  0
  -25.7510  -38.0140   23.6950 H   0  0  0  0  0  0  0  0  0  0  0  0
  -26.5030  -31.6390   25.5790 C   0  0  1  0  0  0  0  0  0  0  0  0
  -25.2660  -31.3330   26.4580 C   0  0  0  0  0  1  0  0  0  0  0  0
  -27.3100  -30.3290   25.4320 C   0  0  0  0  0  1  0  0  0  0  0  0
  -27.4090  -32.6240   26.3510 C   0  0  0  0  0  1  0  0  0  0  0  0
  -26.6550  -12.9450   18.0590 C   0  0  0  0  0  0  0  0  0  0  0  0
  -26.2960  -14.1140   18.6800 N   0  0  0  0  0  0  0  0  0  0  0  0
  -27.0510  -12.9550   16.8880 O   0  0  0  0  0  0  0  0  0  0  0  0
  -25.9020  -14.0770   19.6110 H   0  0  0  0  0  0  0  0  0  0  0  0
  -26.7300  -11.5670   18.8360 C   0  0  0  0  0  2  0  0  0  0  0  0
  -28.4940   -9.7300   19.4750 C   0  0  0  0  0  0  0  0  0  0  0  0
  -28.1010  -10.9520   18.9940 N   0  0  0  0  0  0  0  0  0  0  0  0
  -27.6360   -8.8730   19.6810 O   0  0  0  0  0  0  0  0  0  0  0  0
  -28.8420  -11.6280   18.8970 H   0  0  0  0  0  0  0  0  0  0  0  0
  -30.0140   -9.3360   19.7880 C   0  0  0  0  0  2  0  0  0  0  0  0
  -32.1770   -9.9440   21.0970 C   0  0  0  0  0  0  0  0  0  0  0  0
  -30.8560  -10.1190   20.7600 N   0  0  0  0  0  0  0  0  0  0  0  0
  -32.7980   -8.9990   20.6100 O   0  0  0  0  0  0  0  0  0  0  0  0
  -30.3960  -10.9350   21.1400 H   0  0  0  0  0  0  0  0  0  0  0  0
  -32.9570  -10.8710   22.1560 C   0  0  0  0  0  2  0  0  0  0  0  0
  -33.4790  -13.2360   21.1710 C   0  0  0  0  0  0  0  0  0  0  0  0
  -32.6030  -12.4010   19.2730 C   0  0  0  0  0  2  0  0  0  0  0  0
  -31.3900  -12.2140   18.4330 C   0  0  0  0  0  2  0  0  0  0  0  0
  -30.2720  -13.1120   18.9040 C   0  0  0  0  0  2  0  0  0  0  0  0
  -29.9500  -13.3780   20.3920 C   0  0  0  0  0  3  0  0  0  0  0  0
  -31.0670  -13.0410   21.3310 C   0  0  0  0  0  2  0  0  0  0  0  0
  -32.3430  -12.9890   20.5970 N   0  0  0  0  0  0  0  0  0  0  0  0
  -34.2750  -14.0940   20.7430 O   0  0  0  0  0  0  0  0  0  0  0  0
  -33.8380  -12.0610   21.7710 N   0  0  0  0  0  0  0  0  0  0  0  0
  -34.8130  -11.9820   22.0270 H   0  0  0  0  0  0  0  0  0  0  0  0
  -27.7150  -14.0270   21.4210 C   0  0  0  0  0  0  0  0  0  0  0  0
  -26.5790  -13.3440   21.7570 C   0  0  0  0  0  0  0  0  0  0  0  0
  -26.8370  -11.9740   21.4490 C   0  0  0  0  0  0  0  0  0  0  0  0
  -28.6050  -13.0970   20.9210 N   0  0  0  0  0  0  0  0  0  0  0  0
  -28.0940  -11.8370   21.0190 N   0  0  0  0  0  0  0  0  0  0  0  0
  -25.9200  -10.8150   21.4740 C   0  0  0  0  0  0  0  0  0  0  0  0
  -26.1460   -9.6970   22.3080 C   0  0  0  0  0  3  0  0  0  0  0  0
  -25.2320   -8.6180   22.3290 C   0  0  0  0  0  3  0  0  0  0  0  0
  -24.0680   -8.6550   21.5250 C   0  0  0  0  0  0  0  0  0  0  0  0
  -23.8560   -9.7590   20.6810 C   0  0  0  0  0  3  0  0  0  0  0  0
  -24.7750  -10.8230   20.6470 C   0  0  0  0  0  3  0  0  0  0  0  0
  -23.1350   -7.6470   21.4740 O   0  0  0  0  0  0  0  0  0  0  0  0
  -22.6290   -7.0770   22.6160 C   0  0  0  0  0  0  0  0  0  0  0  0
  -22.0300   -7.8590   23.6270 C   0  0  0  0  0  3  0  0  0  0  0  0
  -21.4440   -7.2330   24.7440 C   0  0  0  0  0  3  0  0  0  0  0  0
  -21.4550   -5.8310   24.8530 C   0  0  0  0  0  0  0  0  0  0  0  0
  -22.0530   -5.0520   23.8480 C   0  0  0  0  0  3  0  0  0  0  0  0
  -22.6310   -5.6730   22.7300 C   0  0  0  0  0  0  0  0  0  0  0  0
  -23.1810   -4.9160   21.7470 F   0  0  0  0  0  0  0  0  0  0  0  0
  -20.8980   -5.2250   25.9290 F   0  0  0  0  0  0  0  0  0  0  0  0
  -25.3150  -13.9560   22.2810 C   0  0  0  0  0  0  0  0  0  0  0  0
  -24.5810  -13.2180   23.1100 N   0  0  0  0  0  0  0  0  0  0  0  0
  -24.9960  -15.1110   22.0010 O   0  0  0  0  0  0  0  0  0  0  0  0
  -24.8700  -12.2800   23.3560 H   0  0  0  0  0  0  0  0  0  0  0  0
  -23.7460  -13.6140   23.5140 H   0  0  0  0  0  0  0  0  0  0  0  0
  -28.0640  -15.3650   21.5030 N   0  0  0  0  0  0  0  0  0  0  0  0
  -27.3890  -16.0880   21.7210 H   0  0  0  0  0  0  0  0  0  0  0  0
  -28.9790  -15.7380   21.2800 H   0  0  0  0  0  0  0  0  0  0  0  0
  1 56  1  0
  1  2  1  0
  2  4  2  0
  3  2  1  0
  3  6  1  0
  5  3  1  0
  7  6  1  0
  7  8  1  0
  8 10  1  0
  9  7  2  0
 11  8  1  0
 11 12  1  0
 13 12  1  0
 13 14  1  0
 15 26  2  0
 16 14  1  0
 16 21  1  0
 17 25  1  0
 17 27  1  0
 18 20  1  0
 19 25  1  0
 20 21  2  0
 20 19  1  0
 22 16  2  0
 23 22  1  0
 23 18  2  0
 24 18  1  0
 24 17  1  0
 25 15  1  0
 27 29  2  0
 28 27  1  0
 30 28  1  0
 31 36  1  0
 32 28  1  0
 33 32  1  0
 34 35  1  0
 34 33  1  0
 35 31  1  0
 36 32  1  0
 36 37  2  0
 38 37  1  0
 39 38  2  0
 40 31  2  0
 40 39  1  0
 41 15  1  0
 41 42  1  0
 41 51  1  0
 42 45  1  0
 43 47  1  0
 43 42  1  0
 44 43  2  0
 47 46  1  0
 47 49  1  0
 49 48  1  0
 50 49  1  0
 51 54  1  1
 51 52  1  0
 53 51  1  0
 55 56  1  0
 55 59  1  0
 56 58  1  0
 57 55  2  0
 59 61  1  0
 60 62  2  0
 60 64  1  0
 61 60  1  0
 63 61  1  0
 64 66  1  0
 65 69  1  0
 66 65  1  0
 66 68  1  0
 67 65  2  0
 70 78  1  0
 71 76  1  0
 72 73  1  0
 72 71  1  0
 74 73  1  0
 74 83  1  0
 74 75  1  0
 76 70  1  0
 76 75  1  0
 77 70  2  0
 78 79  1  0
 78 69  1  0
 80105  1  0
 80 81  2  0
 81100  1  0
 82 85  1  0
 82 81  1  0
 83 84  1  0
 83 80  1  0
 84 82  2  0
 85 86  1  0
 86 87  2  0
 88 87  1  0
 89 88  2  0
 90 89  1  0
 90 85  2  0
 91 88  1  0
 91 92  1  0
 92 97  2  0
 92 93  1  0
 93 94  2  0
 94 95  1  0
 95 99  1  0
 96 95  2  0
 97 96  1  0
 98 97  1  0
100101  1  0
101103  1  0
101104  1  0
102100  2  0
105106  1  0
107105  1  0
M  ISO  4  13 101  14 101  70 100  78 100
M  END
>  <TORSDO>  (40) 
F 28

>  <SCORE>  (40) 
-1.780

>  <name>  (40) 
43

>  <ligand_id>  (40) 
43

>  <original_smiles>  (40) 
[H]c1c([H])c([H])c2c(c1[H])C([H])([H])C([H])([H])C([H])([H])C2([H])N([H])C(=O)C1([H])N(C(=O)C([H])(N([H])C(=O)C([H])(N([H])C([H])([H])[H])C([H])([H])[H])C(C([H])([H])[H])(C([H])([H])[H])C([H])([H])[H])C([H])([H])c2c([H])c(OC([H])([H])C([H])([H])C([H])([H])N([H])C(=O)C([H])([H])N([H])C(=O)C([H])([H])N([H])C(=O)C([H])([H])N([H])C(=O)C([H])([H])N([H])C(=O)C([H])([H])N([H])C(=O)N3C([H])([H])C([H])([H])C([H])([H])C([H])(n4nc(-c5c([H])c([H])c(Oc6c([H])c([H])c(F)c([H])c6F)c([H])c5[H])c(C(=O)N([H])[H])c4N([H])[H])C3([H])[H])c([H])c([H])c2C1([H])[H]

>  <smiles>  (40) 
[H]c1c([H])c([H])c2c(c1[H])C([H])([H])C([H])([H])C([H])([H])C2([H])N([H])C(=O)C1([H])N(C(=O)C([H])(N([H])C(=O)C([H])(N([H])C([H])([H])[H])C([H])([H])[H])C(C([H])([H])[H])(C([H])([H])[H])C([H])([H])[H])C([H])([H])c2c([H])c(OC([H])([H])C([H])([H])C([H])([H])N([H])C(=O)C([H])([H])N([H])C(=O)C([H])([H])N([H])C(=O)C([H])([H])N([H])C(=O)C([H])([H])N([H])C(=O)C([H])([H])N([H])C(=O)N3C([H])([H])C([H])([H])C([H])([H])C([H])(n4nc(-c5c([H])c([H])c(Oc6c([H])c([H])c(F)c([H])c6F)c([H])c5[H])c(C(=O)N([H])[H])c4N([H])[H])C3([H])[H])c([H])c([H])c2C1([H])[H]

$$$$
44:0:0
     RDKit          3D

109116  0  0  1  0  0  0  0  0999 V2000
  -23.6330  -27.1870   25.8240 C   0  0  0  0  0  2  0  0  0  0  0  0
  -24.5580  -28.4660   25.4510 C   0  0  0  0  0  2  0  0  0  0  0  0
  -26.1970  -29.5790   27.1000 C   0  0  0  0  0  0  0  0  0  0  0  0
  -24.9700  -29.5200   26.4600 N   0  0  0  0  0  0  0  0  0  0  0  0
  -27.0610  -28.7440   26.8220 O   0  0  0  0  0  0  0  0  0  0  0  0
  -24.2830  -30.2280   26.6880 H   0  0  0  0  0  0  0  0  0  0  0  0
  -26.5740  -30.6900   28.1800 C   0  0  0  0  0  2  0  0  0  0  0  0
  -26.8130  -30.9580   30.7830 C   0  0  0  0  0  0  0  0  0  0  0  0
  -27.0000  -30.2760   29.5890 N   0  0  0  0  0  0  0  0  0  0  0  0
  -26.2140  -32.0360   30.7810 O   0  0  0  0  0  0  0  0  0  0  0  0
  -27.4780  -29.3810   29.6330 H   0  0  0  0  0  0  0  0  0  0  0  0
  -27.3420  -30.4240   32.1950 C   0  0  0  0  0  2  0  0  0  0  0  0
  -26.8330  -30.3610   34.7820 C   0  0  0  0  0  0  0  0  0  0  0  0
  -26.4990  -30.6240   33.4600 N   0  0  0  0  0  0  0  0  0  0  0  0
  -27.9730  -29.9900   35.0640 O   0  0  0  0  0  0  0  0  0  0  0  0
  -25.5710  -30.9790   33.2830 H   0  0  0  0  0  0  0  0  0  0  0  0
  -25.8010  -30.4880   36.0040 C   0  0  0  0  0  2  0  0  0  0  0  0
  -26.3500  -30.2640   38.6860 C   0  0  0  0  0  0  0  0  0  0  0  0
  -25.0970  -29.4070   40.6830 C   0  0  0  0  0  2  0  0  0  0  0  0
  -24.7760  -27.9000   40.5230 C   0  0  0  0  0  2  0  0  0  0  0  0
  -23.4650  -27.7200   39.7420 C   0  0  0  0  0  2  0  0  0  0  0  0
  -23.4620  -28.5710   38.4430 C   0  0  0  0  0  3  0  0  0  0  0  0
  -23.8290  -30.0370   38.7440 C   0  0  0  0  0  2  0  0  0  0  0  0
  -25.1610  -30.0320   39.3330 N   0  0  0  0  0  0  0  0  0  0  0  0
  -27.3970  -30.1670   39.3390 O   0  0  0  0  0  0  0  0  0  0  0  0
  -26.4300  -30.7160   37.3780 N   0  0  0  0  0  0  0  0  0  0  0  0
  -27.3790  -31.0190   37.2220 H   0  0  0  0  0  0  0  0  0  0  0  0
  -21.9560  -28.2230   36.4120 C   0  0  0  0  0  0  0  0  0  0  0  0
  -20.5840  -28.2300   36.2790 C   0  0  0  0  0  0  0  0  0  0  0  0
  -20.0650  -28.4980   37.5770 C   0  0  0  0  0  0  0  0  0  0  0  0
  -22.1890  -28.4890   37.7500 N   0  0  0  0  0  0  0  0  0  0  0  0
  -21.0460  -28.7170   38.4400 N   0  0  0  0  0  0  0  0  0  0  0  0
  -18.6800  -28.5070   38.0680 C   0  0  0  0  0  0  0  0  0  0  0  0
  -18.1400  -29.6230   38.7450 C   0  0  0  0  0  3  0  0  0  0  0  0
  -16.8000  -29.6030   39.1920 C   0  0  0  0  0  3  0  0  0  0  0  0
  -15.9900  -28.4680   38.9580 C   0  0  0  0  0  0  0  0  0  0  0  0
  -16.5460  -27.3510   38.3100 C   0  0  0  0  0  3  0  0  0  0  0  0
  -17.8790  -27.3660   37.8710 C   0  0  0  0  0  3  0  0  0  0  0  0
  -14.6890  -28.3480   39.3780 O   0  0  0  0  0  0  0  0  0  0  0  0
  -13.8670  -29.4420   39.4850 C   0  0  0  0  0  0  0  0  0  0  0  0
  -13.6110  -30.2850   38.3830 C   0  0  0  0  0  3  0  0  0  0  0  0
  -12.7070  -31.3580   38.5140 C   0  0  0  0  0  3  0  0  0  0  0  0
  -12.0510  -31.5820   39.7380 C   0  0  0  0  0  0  0  0  0  0  0  0
  -12.3000  -30.7390   40.8350 C   0  0  0  0  0  3  0  0  0  0  0  0
  -13.2070  -29.6690   40.7060 C   0  0  0  0  0  0  0  0  0  0  0  0
  -13.4270  -28.8480   41.7590 F   0  0  0  0  0  0  0  0  0  0  0  0
  -11.1760  -32.6090   39.8620 F   0  0  0  0  0  0  0  0  0  0  0  0
  -19.8230  -27.9000   35.0360 C   0  0  0  0  0  0  0  0  0  0  0  0
  -18.6570  -28.5180   34.8710 N   0  0  0  0  0  0  0  0  0  0  0  0
  -20.2710  -27.1420   34.1830 O   0  0  0  0  0  0  0  0  0  0  0  0
  -18.3380  -29.1870   35.5530 H   0  0  0  0  0  0  0  0  0  0  0  0
  -18.1310  -28.3770   34.0220 H   0  0  0  0  0  0  0  0  0  0  0  0
  -22.9930  -28.0000   35.5190 N   0  0  0  0  0  0  0  0  0  0  0  0
  -22.8230  -27.7740   34.5450 H   0  0  0  0  0  0  0  0  0  0  0  0
  -23.9760  -27.9390   35.7620 H   0  0  0  0  0  0  0  0  0  0  0  0
  -23.0090  -27.3200   27.2680 C   0  0  0  0  0  2  0  0  0  0  0  0
  -21.5500  -26.9350   27.8700 C   0  0  0  0  0  2  0  0  0  0  0  0
  -20.3430  -27.9850   27.4460 C   0  0  0  0  0  2  0  0  0  0  0  0
  -18.6530  -27.9670   27.0570 C   0  0  0  0  0  2  0  0  0  0  0  0
  -17.4560  -26.9400   26.3740 C   0  0  0  0  0  2  0  0  0  0  0  0
  -15.8890  -26.3610   26.7230 C   0  0  0  0  0  3  0  0  0  0  0  0
  -15.4290  -25.5640   28.1520 C   0  0  0  0  0  3  0  0  0  0  0  0
  -13.9570  -25.0380   28.5160 N   0  0  0  0  0  4  0  0  0  0  0  0
  -14.0700  -24.0560   28.7280 H   0  0  0  0  0  0  0  0  0  0  0  0
  -13.4060  -25.0650   27.6720 H   0  0  0  0  0  0  0  0  0  0  0  0
  -13.0510  -25.6260   29.7140 C   0  0  0  0  0  2  0  0  0  0  0  0
  -11.3560  -25.5390   29.8570 C   0  0  0  0  0  3  0  0  0  0  0  0
  -10.3170  -26.7680   30.4070 C   0  0  0  0  0  3  0  0  0  0  0  0
   -8.7590  -26.9570   30.3430 O   0  0  0  0  0  0  0  0  0  0  0  0
  -12.0250  -25.5120   24.6630 C   0  0  0  0  0  0  0  0  0  0  0  0
   -8.2380  -26.5190   29.1920 C   0  0  0  0  0  3  0  0  0  0  0  0
  -10.9510  -23.7570   26.1030 C   0  0  0  0  0  3  0  0  0  0  0  0
   -9.5850  -24.5410   27.9920 C   0  0  0  0  0  0  0  0  0  0  0  0
  -11.0830  -26.1910   26.8020 C   0  0  0  0  0  2  0  0  0  0  0  0
   -9.8680  -25.8690   27.6320 C   0  0  0  0  0  0  0  0  0  0  0  0
   -9.0600  -26.8910   28.1230 C   0  0  0  0  0  2  0  0  0  0  0  0
   -7.7810  -25.2120   29.3920 C   0  0  0  0  0  3  0  0  0  0  0  0
   -8.4810  -24.1720   28.7770 C   0  0  0  0  0  3  0  0  0  0  0  0
  -10.5770  -23.5630   27.5480 C   0  0  0  0  0  2  0  0  0  0  0  0
  -11.2990  -25.1810   25.7670 N   0  0  0  0  0  0  0  0  0  0  0  0
  -12.5760  -24.6660   23.9830 O   0  0  0  0  0  0  0  0  0  0  0  0
   -9.8100  -23.0230   25.4630 C   0  0  0  0  0  0  0  0  0  0  0  0
   -9.8630  -21.6680   25.4130 N   0  0  0  0  0  0  0  0  0  0  0  0
   -8.8660  -23.7060   25.1070 O   0  0  0  0  0  0  0  0  0  0  0  0
  -10.7310  -21.2270   25.6880 H   0  0  0  0  0  0  0  0  0  0  0  0
   -8.7840  -18.1680   25.0830 C   0  0  0  0  0  0  0  0  0  0  0  0
   -8.8600  -20.7450   24.8570 C   0  0  0  0  0  3  0  0  0  0  0  0
   -7.5430  -20.7750   25.6710 C   0  0  0  0  0  2  0  0  0  0  0  0
   -7.3620  -19.5980   26.6270 C   0  0  0  0  0  2  0  0  0  0  0  0
   -7.4780  -18.2790   25.8680 C   0  0  0  0  0  2  0  0  0  0  0  0
   -9.4150  -19.3270   24.5670 C   0  0  0  0  0  0  0  0  0  0  0  0
  -10.5300  -19.1230   23.7190 C   0  0  0  0  0  3  0  0  0  0  0  0
  -11.1290  -17.8700   23.5300 C   0  0  0  0  0  3  0  0  0  0  0  0
  -10.5390  -16.7420   24.1140 C   0  0  0  0  0  3  0  0  0  0  0  0
   -9.3380  -16.8900   24.8340 C   0  0  0  0  0  3  0  0  0  0  0  0
  -12.2520  -26.9720   24.2010 C   0  0  0  0  0  3  0  0  0  0  0  0
  -11.0830  -27.5100   23.2990 C   0  0  1  0  0  0  0  0  0  0  0  0
  -10.7430  -26.5970   22.1010 C   0  0  0  0  0  1  0  0  0  0  0  0
   -9.8110  -27.7770   24.1400 C   0  0  0  0  0  1  0  0  0  0  0  0
  -11.4920  -28.8580   22.6920 C   0  0  0  0  0  1  0  0  0  0  0  0
  -13.5050  -26.9880   23.4280 N   0  0  0  0  0  0  0  0  0  0  0  0
  -14.7080  -27.1790   23.9780 C   0  0  0  0  0  0  0  0  0  0  0  0
  -14.8510  -27.5130   25.1570 O   0  0  0  0  0  0  0  0  0  0  0  0
  -13.4480  -26.7090   22.4560 H   0  0  0  0  0  0  0  0  0  0  0  0
  -16.6390  -25.6590   23.4250 C   0  0  0  0  0  1  0  0  0  0  0  0
  -15.9390  -26.9790   23.0710 C   0  0  0  0  0  3  0  0  0  0  0  0
  -16.3820  -29.3450   22.5990 C   0  0  0  0  0  1  0  0  0  0  0  0
  -16.9060  -28.0930   23.1380 N   0  0  0  0  0  0  0  0  0  0  0  0
  -17.7650  -27.8660   22.6410 H   0  0  0  0  0  0  0  0  0  0  0  0
  1 56  1  0
  2  1  1  0
  2  4  1  0
  3  7  1  0
  4  6  1  0
  4  3  1  0
  5  3  2  0
  7  9  1  0
  8 12  1  0
  9 11  1  0
  9  8  1  0
 10  8  2  0
 12 14  1  0
 13 15  2  0
 13 17  1  0
 14 13  1  0
 16 14  1  0
 17 26  1  0
 18 24  1  0
 18 25  2  0
 20 19  1  0
 21 20  1  0
 22 31  1  0
 22 23  1  0
 22 21  1  0
 23 24  1  0
 24 19  1  0
 26 18  1  0
 27 26  1  0
 28 31  1  0
 29 28  2  0
 29 30  1  0
 30 33  1  0
 30 32  2  0
 31 32  1  0
 33 34  1  0
 34 35  2  0
 36 35  1  0
 36 39  1  0
 37 36  2  0
 38 33  2  0
 38 37  1  0
 39 40  1  0
 40 45  1  0
 41 42  1  0
 41 40  2  0
 42 43  2  0
 43 47  1  0
 43 44  1  0
 45 44  2  0
 45 46  1  0
 48 29  1  0
 49 48  1  0
 49 51  1  0
 50 48  2  0
 52 49  1  0
 53 55  1  0
 53 28  1  0
 54 53  1  0
 56 57  1  0
 58 57  1  0
 59 58  1  0
 60 61  1  0
 60 59  1  0
 61 62  2  0
 62 63  1  0
 63 64  1  0
 63 66  1  0
 65 63  1  0
 66 67  1  0
 67 68  2  0
 69 68  1  0
 70 80  1  0
 71 77  1  0
 71 69  1  0
 72 82  1  0
 72 79  1  0
 73 78  1  0
 74 75  1  0
 75 73  2  0
 75 76  1  0
 76 71  1  0
 78 77  2  0
 79 73  1  0
 80 72  1  0
 80 74  1  0
 81 70  2  0
 83 82  1  0
 83 85  1  0
 84 82  2  0
 86 90  1  0
 87 83  1  0
 87 88  1  0
 88 89  1  0
 90 89  1  0
 91 87  1  0
 91 86  2  0
 92 91  1  0
 93 92  2  0
 93 94  1  0
 94 95  2  0
 95 86  1  0
 96 70  1  0
 97 99  1  1
 97 96  1  0
 98 97  1  0
100 97  1  0
101102  1  0
101 96  1  0
102103  2  0
104101  1  0
106108  1  0
106105  1  0
106102  1  0
107108  1  0
109108  1  0
M  ISO  4  18 100  26 100  68 101  69 101
M  END
>  <TORSDO>  (41) 
F 34

>  <SCORE>  (41) 
25.731

>  <name>  (41) 
44

>  <ligand_id>  (41) 
44

>  <original_smiles>  (41) 
[H]c1c([H])c([H])c2c(c1[H])C([H])([H])C([H])([H])C([H])([H])C2([H])N([H])C(=O)C1([H])N(C(=O)C([H])(N([H])C(=O)C([H])(N([H])C([H])([H])[H])C([H])([H])[H])C(C([H])([H])[H])(C([H])([H])[H])C([H])([H])[H])C([H])([H])c2c([H])c(OC([H])([H])C([H])([H])C([H])([H])[N+]([H])([H])C([H])([H])C([H])([H])C([H])([H])C([H])([H])C([H])([H])C([H])([H])C([H])([H])C([H])([H])C([H])([H])N([H])C(=O)C([H])([H])N([H])C(=O)C([H])([H])N([H])C(=O)C([H])([H])N([H])C(=O)N3C([H])([H])C([H])([H])C([H])([H])C([H])(n4nc(-c5c([H])c([H])c(Oc6c([H])c([H])c(F)c([H])c6F)c([H])c5[H])c(C(=O)N([H])[H])c4N([H])[H])C3([H])[H])c([H])c([H])c2C1([H])[H]

>  <smiles>  (41) 
[H]c1c([H])c([H])c2c(c1[H])C([H])([H])C([H])([H])C([H])([H])C2([H])N([H])C(=O)C1([H])N(C(=O)C([H])(N([H])C(=O)C([H])(N([H])C([H])([H])[H])C([H])([H])[H])C(C([H])([H])[H])(C([H])([H])[H])C([H])([H])[H])C([H])([H])c2c([H])c(OC([H])([H])C([H])([H])C([H])([H])[N+]([H])([H])C([H])([H])C([H])([H])C([H])([H])C([H])([H])C([H])([H])C([H])([H])C([H])([H])C([H])([H])C([H])([H])N([H])C(=O)C([H])([H])N([H])C(=O)C([H])([H])N([H])C(=O)C([H])([H])N([H])C(=O)N3C([H])([H])C([H])([H])C([H])([H])C([H])(n4nc(-c5c([H])c([H])c(Oc6c([H])c([H])c(F)c([H])c6F)c([H])c5[H])c(C(=O)N([H])[H])c4N([H])[H])C3([H])[H])c([H])c([H])c2C1([H])[H]

$$$$
45:0:0
     RDKit          3D

106113  0  0  1  0  0  0  0  0999 V2000
  -31.3300  -24.2910   29.7600 C   0  0  0  0  0  2  0  0  0  0  0  0
  -30.7400  -22.4570   28.1400 C   0  0  0  0  0  0  0  0  0  0  0  0
  -31.0010  -23.7340   28.4540 N   0  0  0  0  0  0  0  0  0  0  0  0
  -30.7130  -21.5540   28.9880 O   0  0  0  0  0  0  0  0  0  0  0  0
  -30.9340  -24.4310   27.7200 H   0  0  0  0  0  0  0  0  0  0  0  0
  -30.4650  -22.1610   26.6630 C   0  0  0  0  0  2  0  0  0  0  0  0
  -30.5470  -20.0770   25.3050 C   0  0  0  0  0  0  0  0  0  0  0  0
  -30.2140  -20.7360   26.4190 N   0  0  0  0  0  0  0  0  0  0  0  0
  -31.1950  -20.6030   24.3940 O   0  0  0  0  0  0  0  0  0  0  0  0
  -29.7430  -20.2280   27.1570 H   0  0  0  0  0  0  0  0  0  0  0  0
  -30.0210  -18.6400   25.1880 C   0  0  0  0  0  2  0  0  0  0  0  0
  -30.4440  -16.8920   23.4570 C   0  0  0  0  0  0  0  0  0  0  0  0
  -30.1430  -18.1390   23.8170 N   0  0  0  0  0  0  0  0  0  0  0  0
  -30.6310  -15.9850   24.2720 O   0  0  0  0  0  0  0  0  0  0  0  0
  -30.0490  -18.8250   23.0810 H   0  0  0  0  0  0  0  0  0  0  0  0
  -30.5720  -16.6230   21.9640 C   0  0  0  0  0  2  0  0  0  0  0  0
  -30.7350  -14.4450   20.7030 C   0  0  0  0  0  0  0  0  0  0  0  0
  -30.4410  -12.3450   19.4410 C   0  0  0  0  0  2  0  0  0  0  0  0
  -29.5160  -12.5640   18.2300 C   0  0  0  0  0  2  0  0  0  0  0  0
  -28.0300  -12.4170   18.6160 C   0  0  0  0  0  2  0  0  0  0  0  0
  -27.6720  -13.2280   19.8930 C   0  0  0  0  0  3  0  0  0  0  0  0
  -28.7040  -12.9820   21.0180 C   0  0  0  0  0  2  0  0  0  0  0  0
  -30.0490  -13.2810   20.4990 N   0  0  0  0  0  0  0  0  0  0  0  0
  -31.7530  -14.7580   20.0880 O   0  0  0  0  0  0  0  0  0  0  0  0
  -30.1830  -15.2500   21.6340 N   0  0  0  0  0  0  0  0  0  0  0  0
  -29.4370  -14.8620   22.1780 H   0  0  0  0  0  0  0  0  0  0  0  0
  -25.2500  -13.8290   20.5690 C   0  0  0  0  0  0  0  0  0  0  0  0
  -24.1870  -13.0550   20.9170 C   0  0  0  0  0  0  0  0  0  0  0  0
  -24.6460  -11.6960   20.8740 C   0  0  0  0  0  0  0  0  0  0  0  0
  -26.3080  -12.9540   20.3460 N   0  0  0  0  0  0  0  0  0  0  0  0
  -25.9400  -11.6670   20.5770 N   0  0  0  0  0  0  0  0  0  0  0  0
  -23.9150  -10.4350   21.0450 C   0  0  0  0  0  0  0  0  0  0  0  0
  -24.3670   -9.4210   21.9190 C   0  0  0  0  0  3  0  0  0  0  0  0
  -23.6340   -8.2240   22.0790 C   0  0  0  0  0  3  0  0  0  0  0  0
  -22.4270   -8.0310   21.3630 C   0  0  0  0  0  0  0  0  0  0  0  0
  -21.9930   -9.0260   20.4680 C   0  0  0  0  0  3  0  0  0  0  0  0
  -22.7290  -10.2150   20.3090 C   0  0  0  0  0  3  0  0  0  0  0  0
  -21.6630   -6.8900   21.4260 O   0  0  0  0  0  0  0  0  0  0  0  0
  -21.6820   -6.0790   22.5280 C   0  0  0  0  0  0  0  0  0  0  0  0
  -21.4030   -6.5710   23.8220 C   0  0  0  0  0  3  0  0  0  0  0  0
  -21.3650   -5.6850   24.9160 C   0  0  0  0  0  3  0  0  0  0  0  0
  -21.6010   -4.3110   24.7190 C   0  0  0  0  0  0  0  0  0  0  0  0
  -21.8820   -3.8210   23.4310 C   0  0  0  0  0  3  0  0  0  0  0  0
  -21.9230   -4.7030   22.3370 C   0  0  0  0  0  0  0  0  0  0  0  0
  -22.1670   -4.2210   21.0960 F   0  0  0  0  0  0  0  0  0  0  0  0
  -21.5540   -3.4600   25.7700 F   0  0  0  0  0  0  0  0  0  0  0  0
  -22.7830  -13.5240   21.1890 C   0  0  0  0  0  0  0  0  0  0  0  0
  -22.0570  -12.8210   22.0440 N   0  0  0  0  0  0  0  0  0  0  0  0
  -22.3460  -14.5540   20.6730 O   0  0  0  0  0  0  0  0  0  0  0  0
  -22.4170  -11.9800   22.4790 H   0  0  0  0  0  0  0  0  0  0  0  0
  -21.1190  -13.1220   22.2750 H   0  0  0  0  0  0  0  0  0  0  0  0
  -25.4250  -15.2090   20.4050 N   0  0  0  0  0  0  0  0  0  0  0  0
  -24.6770  -15.8850   20.5280 H   0  0  0  0  0  0  0  0  0  0  0  0
  -26.2890  -15.6480   20.1200 H   0  0  0  0  0  0  0  0  0  0  0  0
  -31.6280  -25.7890   29.5340 C   0  0  0  0  0  3  0  0  0  0  0  0
  -32.0380  -26.5880   30.7810 C   0  0  0  0  0  3  0  0  0  0  0  0
  -32.2090  -28.1170   30.5780 C   0  0  0  0  0  2  0  0  0  0  0  0
  -32.9760  -28.5840   29.3030 C   0  0  0  0  0  2  0  0  0  0  0  0
  -32.1010  -29.1740   28.1410 C   0  0  0  0  0  2  0  0  0  0  0  0
  -32.1530  -28.3960   26.9200 O   0  0  0  0  0  0  0  0  0  0  0  0
  -30.8760  -27.9180   26.4240 C   0  0  0  0  0  2  0  0  0  0  0  0
  -30.6190  -28.2290   24.9070 C   0  0  0  0  0  2  0  0  0  0  0  0
  -29.7980  -27.2530   24.1940 O   0  0  0  0  0  0  0  0  0  0  0  0
  -29.6550  -27.5010   22.7640 C   0  0  0  0  0  3  0  0  0  0  0  0
  -28.6720  -26.5570   21.9640 C   0  0  0  0  0  3  0  0  0  0  0  0
  -28.4410  -26.8060   20.5300 O   0  0  0  0  0  0  0  0  0  0  0  0
  -24.5850  -31.8700   23.2130 C   0  0  0  0  0  0  0  0  0  0  0  0
  -27.3030  -27.5310   20.2770 C   0  0  0  0  0  0  0  0  0  0  0  0
  -23.3540  -30.4970   21.5210 C   0  0  0  0  0  3  0  0  0  0  0  0
  -24.8510  -28.9360   20.1210 C   0  0  0  0  0  0  0  0  0  0  0  0
  -25.8480  -30.9270   21.2660 C   0  0  0  0  0  2  0  0  0  0  0  0
  -25.9790  -29.5390   20.6870 C   0  0  0  0  0  0  0  0  0  0  0  0
  -27.2030  -28.8520   20.7500 C   0  0  0  0  0  3  0  0  0  0  0  0
  -26.1830  -26.9390   19.6640 C   0  0  0  0  0  3  0  0  0  0  0  0
  -24.9540  -27.6320   19.5880 C   0  0  0  0  0  3  0  0  0  0  0  0
  -23.5770  -29.7580   20.1600 C   0  0  0  0  0  2  0  0  0  0  0  0
  -24.6190  -31.1100   22.0710 N   0  0  0  0  0  0  0  0  0  0  0  0
  -23.5080  -32.1320   23.7710 O   0  0  0  0  0  0  0  0  0  0  0  0
  -22.6990  -29.5010   22.5020 C   0  0  0  0  0  0  0  0  0  0  0  0
  -21.3760  -29.2930   22.3810 N   0  0  0  0  0  0  0  0  0  0  0  0
  -23.3930  -28.9010   23.3240 O   0  0  0  0  0  0  0  0  0  0  0  0
  -20.8540  -29.7960   21.6820 H   0  0  0  0  0  0  0  0  0  0  0  0
  -18.0150  -28.1340   22.8510 C   0  0  0  0  0  0  0  0  0  0  0  0
  -20.5750  -28.3490   23.1520 C   0  0  0  0  0  3  0  0  0  0  0  0
  -20.6600  -26.9230   22.5580 C   0  0  0  0  0  2  0  0  0  0  0  0
  -19.5560  -26.6180   21.5360 C   0  0  0  0  0  2  0  0  0  0  0  0
  -18.1690  -26.7910   22.1680 C   0  0  0  0  0  2  0  0  0  0  0  0
  -19.1390  -28.8780   23.2960 C   0  0  0  0  0  0  0  0  0  0  0  0
  -18.9250  -30.1450   23.8810 C   0  0  0  0  0  3  0  0  0  0  0  0
  -17.6220  -30.6580   24.0460 C   0  0  0  0  0  3  0  0  0  0  0  0
  -16.5140  -29.9020   23.6220 C   0  0  0  0  0  3  0  0  0  0  0  0
  -16.7110  -28.6420   23.0330 C   0  0  0  0  0  3  0  0  0  0  0  0
  -25.8840  -32.4880   23.8400 C   0  0  0  0  0  3  0  0  0  0  0  0
  -26.5330  -31.6390   25.0160 C   0  0  1  0  0  0  0  0  0  0  0  0
  -25.5690  -31.1100   26.0960 C   0  0  0  0  0  1  0  0  0  0  0  0
  -27.2320  -30.4540   24.3380 C   0  0  0  0  0  1  0  0  0  0  0  0
  -27.6190  -32.4130   25.7950 C   0  0  0  0  0  1  0  0  0  0  0  0
  -25.5590  -33.8580   24.2440 N   0  0  0  0  0  0  0  0  0  0  0  0
  -25.9220  -34.9580   23.5590 C   0  0  0  0  0  0  0  0  0  0  0  0
  -26.6230  -34.9240   22.5430 O   0  0  0  0  0  0  0  0  0  0  0  0
  -24.8390  -33.9310   24.9540 H   0  0  0  0  0  0  0  0  0  0  0  0
  -24.1530  -36.7160   23.2970 C   0  0  0  0  0  1  0  0  0  0  0  0
  -25.4120  -36.3170   24.0680 C   0  0  0  0  0  3  0  0  0  0  0  0
  -27.5520  -37.1750   24.8990 C   0  0  0  0  0  1  0  0  0  0  0  0
  -26.4330  -37.3830   23.9770 N   0  0  0  0  0  0  0  0  0  0  0  0
  -26.0260  -38.3030   24.1170 H   0  0  0  0  0  0  0  0  0  0  0  0
  2  3  1  0
  2  4  2  0
  3  1  1  0
  5  3  1  0
  6  2  1  0
  7  8  1  0
  8  6  1  0
  8 10  1  0
  9  7  2  0
 11  7  1  0
 12 13  1  0
 12 14  2  0
 13 11  1  0
 15 13  1  0
 16 12  1  0
 17 25  1  0
 18 23  1  0
 19 20  1  0
 19 18  1  0
 21 20  1  0
 21 30  1  0
 21 22  1  0
 23 17  1  0
 23 22  1  0
 24 17  2  0
 25 16  1  0
 25 26  1  0
 27 28  2  0
 28 47  1  0
 29 28  1  0
 29 32  1  0
 30 27  1  0
 30 31  1  0
 31 29  2  0
 32 33  1  0
 33 34  2  0
 35 38  1  0
 35 34  1  0
 36 35  2  0
 37 36  1  0
 37 32  2  0
 38 39  1  0
 39 40  1  0
 40 41  2  0
 42 41  1  0
 42 46  1  0
 43 42  2  0
 44 39  2  0
 44 43  1  0
 45 44  1  0
 47 48  1  0
 48 51  1  0
 48 50  1  0
 49 47  2  0
 52 53  1  0
 52 27  1  0
 54 52  1  0
 55  1  1  0
 55 56  2  0
 57 56  1  0
 58 57  1  0
 59 58  1  0
 60 59  1  0
 61 60  1  0
 62 61  1  0
 63 62  1  0
 64 63  1  0
 65 64  2  0
 66 65  1  0
 67 78  2  0
 68 66  1  0
 68 73  1  0
 69 77  1  0
 69 79  1  0
 70 76  1  0
 70 72  1  0
 71 77  1  0
 72 73  2  0
 72 71  1  0
 74 68  2  0
 75 74  1  0
 75 70  2  0
 76 69  1  0
 77 67  1  0
 79 81  2  0
 80 79  1  0
 82 80  1  0
 83 92  2  0
 83 88  1  0
 84 80  1  0
 84 88  1  0
 85 84  1  0
 86 87  1  0
 86 85  1  0
 87 83  1  0
 88 89  2  0
 89 90  1  0
 91 90  2  0
 92 91  1  0
 93 67  1  0
 93 98  1  0
 93 94  1  0
 94 97  1  1
 94 95  1  0
 96 94  1  0
 98101  1  0
 99103  1  0
 99 98  1  0
100 99  2  0
103102  1  0
105103  1  0
105106  1  0
105104  1  0
M  ISO  4  17 100  25 100  65 101  66 101
M  END
>  <TORSDO>  (42) 
F 33

>  <SCORE>  (42) 
57.608

>  <name>  (42) 
45

>  <ligand_id>  (42) 
45

>  <original_smiles>  (42) 
[H]c1c([H])c([H])c2c(c1[H])C([H])([H])C([H])([H])C([H])([H])C2([H])N([H])C(=O)C1([H])N(C(=O)C([H])(N([H])C(=O)C([H])(N([H])C([H])([H])[H])C([H])([H])[H])C(C([H])([H])[H])(C([H])([H])[H])C([H])([H])[H])C([H])([H])c2c([H])c(OC([H])([H])C([H])([H])OC([H])([H])C([H])([H])OC([H])([H])C([H])([H])C([H])([H])C([H])([H])C([H])([H])C([H])([H])N([H])C(=O)C([H])([H])N([H])C(=O)C([H])([H])N([H])C(=O)C([H])([H])N([H])C(=O)N3C([H])([H])C([H])([H])C([H])([H])C([H])(n4nc(-c5c([H])c([H])c(Oc6c([H])c([H])c(F)c([H])c6F)c([H])c5[H])c(C(=O)N([H])[H])c4N([H])[H])C3([H])[H])c([H])c([H])c2C1([H])[H]

>  <smiles>  (42) 
[H]c1c([H])c([H])c2c(c1[H])C([H])([H])C([H])([H])C([H])([H])C2([H])N([H])C(=O)C1([H])N(C(=O)C([H])(N([H])C(=O)C([H])(N([H])C([H])([H])[H])C([H])([H])[H])C(C([H])([H])[H])(C([H])([H])[H])C([H])([H])[H])C([H])([H])c2c([H])c(OC([H])([H])C([H])([H])OC([H])([H])C([H])([H])OC([H])([H])C([H])([H])C([H])([H])C([H])([H])C([H])([H])C([H])([H])N([H])C(=O)C([H])([H])N([H])C(=O)C([H])([H])N([H])C(=O)C([H])([H])N([H])C(=O)N3C([H])([H])C([H])([H])C([H])([H])C([H])(n4nc(-c5c([H])c([H])c(Oc6c([H])c([H])c(F)c([H])c6F)c([H])c5[H])c(C(=O)N([H])[H])c4N([H])[H])C3([H])[H])c([H])c([H])c2C1([H])[H]

$$$$
46:0:0
     RDKit          3D

 94101  0  0  1  0  0  0  0  0999 V2000
  -27.0820  -21.1160   19.5180 C   0  0  0  0  0  0  0  0  0  0  0  0
  -26.9180  -19.7900   19.4470 N   0  0  0  0  0  0  0  0  0  0  0  0
  -27.6980  -21.7580   18.6620 O   0  0  0  0  0  0  0  0  0  0  0  0
  -26.3640  -19.3510   20.1710 H   0  0  0  0  0  0  0  0  0  0  0  0
  -26.4890  -21.8220   20.7410 C   0  0  0  0  0  2  0  0  0  0  0  0
  -26.0530  -23.1280   20.3720 O   0  0  0  0  0  0  0  0  0  0  0  0
  -26.4270  -24.1520   21.2830 C   0  0  0  0  0  2  0  0  0  0  0  0
  -27.8660  -24.6210   21.0100 C   0  0  0  0  0  2  0  0  0  0  0  0
  -28.2600  -25.8350   21.8730 C   0  0  0  0  0  2  0  0  0  0  0  0
  -29.2710  -26.7810   21.1890 C   0  0  0  0  0  2  0  0  0  0  0  0
  -28.7880  -27.2310   19.9190 O   0  0  0  0  0  0  0  0  0  0  0  0
  -24.6950  -31.9390   23.3340 C   0  0  0  0  0  0  0  0  0  0  0  0
  -27.6050  -27.9230   19.9660 C   0  0  0  0  0  0  0  0  0  0  0  0
  -23.5800  -30.6130   21.5650 C   0  0  0  0  0  3  0  0  0  0  0  0
  -25.1290  -29.2630   20.0550 C   0  0  0  0  0  0  0  0  0  0  0  0
  -26.0820  -31.1150   21.4440 C   0  0  0  0  0  2  0  0  0  0  0  0
  -26.2440  -29.8060   20.7050 C   0  0  0  0  0  0  0  0  0  0  0  0
  -27.4850  -29.1380   20.6700 C   0  0  0  0  0  3  0  0  0  0  0  0
  -26.4830  -27.3920   19.2980 C   0  0  0  0  0  3  0  0  0  0  0  0
  -25.2390  -28.0500   19.3520 C   0  0  0  0  0  3  0  0  0  0  0  0
  -23.8410  -30.0490   20.1420 C   0  0  0  0  0  2  0  0  0  0  0  0
  -24.8010  -31.2330   22.1750 N   0  0  0  0  0  0  0  0  0  0  0  0
  -23.5970  -32.1180   23.8770 O   0  0  0  0  0  0  0  0  0  0  0  0
  -22.9680  -29.4910   22.4340 C   0  0  0  0  0  0  0  0  0  0  0  0
  -21.6580  -29.2530   22.2640 N   0  0  0  0  0  0  0  0  0  0  0  0
  -23.6680  -28.8400   23.2140 O   0  0  0  0  0  0  0  0  0  0  0  0
  -21.1520  -29.8290   21.6050 H   0  0  0  0  0  0  0  0  0  0  0  0
  -18.3370  -27.8780   22.6080 C   0  0  0  0  0  0  0  0  0  0  0  0
  -20.8760  -28.2240   22.9470 C   0  0  0  0  0  3  0  0  0  0  0  0
  -21.0520  -26.8500   22.2620 C   0  0  0  0  0  2  0  0  0  0  0  0
  -19.9820  -26.5590   21.2060 C   0  0  0  0  0  2  0  0  0  0  0  0
  -18.5840  -26.5950   21.8320 C   0  0  0  0  0  2  0  0  0  0  0  0
  -19.4140  -28.6500   23.1170 C   0  0  0  0  0  0  0  0  0  0  0  0
  -19.1310  -29.8530   23.8010 C   0  0  0  0  0  3  0  0  0  0  0  0
  -17.8040  -30.2830   23.9820 C   0  0  0  0  0  3  0  0  0  0  0  0
  -16.7410  -29.5060   23.4910 C   0  0  0  0  0  3  0  0  0  0  0  0
  -17.0070  -28.3040   22.8100 C   0  0  0  0  0  3  0  0  0  0  0  0
  -25.9440  -32.5760   24.0220 C   0  0  0  0  0  3  0  0  0  0  0  0
  -26.4230  -31.7860   25.3020 C   0  0  1  0  0  0  0  0  0  0  0  0
  -25.2900  -31.5050   26.3140 C   0  0  0  0  0  1  0  0  0  0  0  0
  -27.0480  -30.4280   24.9040 C   0  0  0  0  0  1  0  0  0  0  0  0
  -27.5280  -32.5860   26.0300 C   0  0  0  0  0  1  0  0  0  0  0  0
  -25.6000  -33.9630   24.3630 N   0  0  0  0  0  0  0  0  0  0  0  0
  -25.9600  -35.0340   23.6420 C   0  0  0  0  0  0  0  0  0  0  0  0
  -26.6860  -34.9600   22.6480 O   0  0  0  0  0  0  0  0  0  0  0  0
  -24.9610  -34.0950   25.1340 H   0  0  0  0  0  0  0  0  0  0  0  0
  -24.2310  -36.8110   23.2240 C   0  0  0  0  0  1  0  0  0  0  0  0
  -25.4280  -36.4050   24.0980 C   0  0  0  0  0  3  0  0  0  0  0  0
  -27.4940  -37.2990   25.0790 C   0  0  0  0  0  1  0  0  0  0  0  0
  -26.4520  -37.4720   24.0690 N   0  0  0  0  0  0  0  0  0  0  0  0
  -26.0260  -38.3840   24.2080 H   0  0  0  0  0  0  0  0  0  0  0  0
  -27.5390  -18.9190   18.4540 C   0  0  0  0  0  2  0  0  0  0  0  0
  -29.0260  -18.6780   18.7740 C   0  0  0  0  0  2  0  0  0  0  0  0
  -29.2450  -17.9130   20.0900 C   0  0  0  0  0  2  0  0  0  0  0  0
  -30.7300  -17.8130   20.4750 C   0  0  0  0  0  2  0  0  0  0  0  0
  -30.9940  -16.8560   21.6540 C   0  0  0  0  0  2  0  0  0  0  0  0
  -31.0510  -14.6320   20.5390 C   0  0  0  0  0  0  0  0  0  0  0  0
  -30.6980  -12.5560   19.2660 C   0  0  0  0  0  2  0  0  0  0  0  0
  -29.7750  -12.8220   18.0600 C   0  0  0  0  0  2  0  0  0  0  0  0
  -28.2950  -12.6950   18.4670 C   0  0  0  0  0  2  0  0  0  0  0  0
  -27.9570  -13.5010   19.7490 C   0  0  0  0  0  3  0  0  0  0  0  0
  -28.9880  -13.2140   20.8640 C   0  0  0  0  0  2  0  0  0  0  0  0
  -30.3340  -13.4990   20.3310 N   0  0  0  0  0  0  0  0  0  0  0  0
  -32.1130  -14.8820   19.9640 O   0  0  0  0  0  0  0  0  0  0  0  0
  -30.5000  -15.5070   21.3910 N   0  0  0  0  0  0  0  0  0  0  0  0
  -29.6390  -15.2280   21.8360 H   0  0  0  0  0  0  0  0  0  0  0  0
  -25.5490  -14.1260   20.4190 C   0  0  0  0  0  0  0  0  0  0  0  0
  -24.4670  -13.3590   20.7600 C   0  0  0  0  0  0  0  0  0  0  0  0
  -24.9140  -12.0030   20.7170 C   0  0  0  0  0  0  0  0  0  0  0  0
  -26.5900  -13.2370   20.1970 N   0  0  0  0  0  0  0  0  0  0  0  0
  -26.2090  -11.9540   20.4290 N   0  0  0  0  0  0  0  0  0  0  0  0
  -24.1720  -10.7460   20.8770 C   0  0  0  0  0  0  0  0  0  0  0  0
  -24.5530   -9.7800   21.8350 C   0  0  0  0  0  3  0  0  0  0  0  0
  -23.8140   -8.5880   21.9820 C   0  0  0  0  0  3  0  0  0  0  0  0
  -22.6790   -8.3520   21.1700 C   0  0  0  0  0  0  0  0  0  0  0  0
  -22.3170   -9.3050   20.2040 C   0  0  0  0  0  3  0  0  0  0  0  0
  -23.0570  -10.4910   20.0550 C   0  0  0  0  0  3  0  0  0  0  0  0
  -21.9160   -7.2100   21.2260 O   0  0  0  0  0  0  0  0  0  0  0  0
  -21.7700   -6.4970   22.3880 C   0  0  0  0  0  0  0  0  0  0  0  0
  -21.2170   -7.0730   23.5520 C   0  0  0  0  0  3  0  0  0  0  0  0
  -21.0220   -6.2850   24.7050 C   0  0  0  0  0  3  0  0  0  0  0  0
  -21.3700   -4.9200   24.6910 C   0  0  0  0  0  0  0  0  0  0  0  0
  -21.9150   -4.3440   23.5310 C   0  0  0  0  0  3  0  0  0  0  0  0
  -22.1120   -5.1300   22.3820 C   0  0  0  0  0  0  0  0  0  0  0  0
  -22.6180   -4.5630   21.2600 F   0  0  0  0  0  0  0  0  0  0  0  0
  -21.1750   -4.1610   25.7950 F   0  0  0  0  0  0  0  0  0  0  0  0
  -23.0710  -13.8480   21.0200 C   0  0  0  0  0  0  0  0  0  0  0  0
  -22.3230  -13.1460   21.8660 N   0  0  0  0  0  0  0  0  0  0  0  0
  -22.6500  -14.8840   20.5090 O   0  0  0  0  0  0  0  0  0  0  0  0
  -22.6770  -12.3060   22.3000 H   0  0  0  0  0  0  0  0  0  0  0  0
  -21.3870  -13.4540   22.0820 H   0  0  0  0  0  0  0  0  0  0  0  0
  -25.7300  -15.4960   20.2600 N   0  0  0  0  0  0  0  0  0  0  0  0
  -24.9620  -16.1520   20.3460 H   0  0  0  0  0  0  0  0  0  0  0  0
  -26.5900  -15.9230   19.9420 H   0  0  0  0  0  0  0  0  0  0  0  0
  1  5  1  0
  2  1  1  0
  2  4  1  0
  3  1  2  0
  6  5  1  0
  6  7  1  0
  8  7  1  0
  8  9  1  0
 10  9  1  0
 11 13  1  0
 11 10  1  0
 12 23  2  0
 13 18  1  0
 14 22  1  0
 14 24  1  0
 15 21  1  0
 15 17  1  0
 16 22  1  0
 17 16  1  0
 18 17  2  0
 19 20  1  0
 19 13  2  0
 20 15  2  0
 21 14  1  0
 22 12  1  0
 24 26  2  0
 25 24  1  0
 27 25  1  0
 28 37  2  0
 28 33  1  0
 29 25  1  0
 29 33  1  0
 30 29  1  0
 31 32  1  0
 31 30  1  0
 32 28  1  0
 33 34  2  0
 34 35  1  0
 36 35  2  0
 37 36  1  0
 38 12  1  0
 38 43  1  0
 38 39  1  0
 39 42  1  1
 39 40  1  0
 41 39  1  0
 43 46  1  0
 44 48  1  0
 44 43  1  0
 45 44  2  0
 48 47  1  0
 50 48  1  0
 50 51  1  0
 50 49  1  0
 52 53  1  0
 52  2  1  0
 53 54  1  0
 54 55  1  0
 55 56  1  0
 57 65  1  0
 58 63  1  0
 59 60  1  0
 59 58  1  0
 61 60  1  0
 61 70  1  0
 61 62  1  0
 63 57  1  0
 63 62  1  0
 64 57  2  0
 65 56  1  0
 65 66  1  0
 67 68  2  0
 68 87  1  0
 69 68  1  0
 69 72  1  0
 70 67  1  0
 70 71  1  0
 71 69  2  0
 72 73  1  0
 73 74  2  0
 75 78  1  0
 75 74  1  0
 76 75  2  0
 77 76  1  0
 77 72  2  0
 78 79  1  0
 79 80  1  0
 80 81  2  0
 82 81  1  0
 82 86  1  0
 83 82  2  0
 84 79  2  0
 84 83  1  0
 85 84  1  0
 87 88  1  0
 88 91  1  0
 88 90  1  0
 89 87  2  0
 92 93  1  0
 92 67  1  0
 94 92  1  0
M  ISO  4  10 101  11 101  57 100  65 100
M  END
>  <TORSDO>  (43) 
F 27

>  <SCORE>  (43) 
-10.374

>  <name>  (43) 
46

>  <ligand_id>  (43) 
46

>  <original_smiles>  (43) 
[H]c1c([H])c([H])c2c(c1[H])C([H])([H])C([H])([H])C([H])([H])C2([H])N([H])C(=O)C1([H])N(C(=O)C([H])(N([H])C(=O)C([H])(N([H])C([H])([H])[H])C([H])([H])[H])C(C([H])([H])[H])(C([H])([H])[H])C([H])([H])[H])C([H])([H])c2c([H])c(OC([H])([H])C([H])([H])C([H])([H])C([H])([H])OC([H])([H])C(=O)N([H])C([H])([H])C([H])([H])C([H])([H])C([H])([H])C([H])([H])N([H])C(=O)N3C([H])([H])C([H])([H])C([H])([H])C([H])(n4nc(-c5c([H])c([H])c(Oc6c([H])c([H])c(F)c([H])c6F)c([H])c5[H])c(C(=O)N([H])[H])c4N([H])[H])C3([H])[H])c([H])c([H])c2C1([H])[H]

>  <smiles>  (43) 
[H]c1c([H])c([H])c2c(c1[H])C([H])([H])C([H])([H])C([H])([H])C2([H])N([H])C(=O)C1([H])N(C(=O)C([H])(N([H])C(=O)C([H])(N([H])C([H])([H])[H])C([H])([H])[H])C(C([H])([H])[H])(C([H])([H])[H])C([H])([H])[H])C([H])([H])c2c([H])c(OC([H])([H])C([H])([H])C([H])([H])C([H])([H])OC([H])([H])C(=O)N([H])C([H])([H])C([H])([H])C([H])([H])C([H])([H])C([H])([H])N([H])C(=O)N3C([H])([H])C([H])([H])C([H])([H])C([H])(n4nc(-c5c([H])c([H])c(Oc6c([H])c([H])c(F)c([H])c6F)c([H])c5[H])c(C(=O)N([H])[H])c4N([H])[H])C3([H])[H])c([H])c([H])c2C1([H])[H]

$$$$
47:0:0
     RDKit          3D

110117  0  0  1  0  0  0  0  0999 V2000
  -34.6760  -27.0840   18.4970 C   0  0  0  0  0  2  0  0  0  0  0  0
  -33.1080  -25.2640   17.8590 C   0  0  0  0  0  0  0  0  0  0  0  0
  -33.3490  -26.4870   18.3460 N   0  0  0  0  0  0  0  0  0  0  0  0
  -34.0120  -24.5220   17.4610 O   0  0  0  0  0  0  0  0  0  0  0  0
  -32.5520  -27.0520   18.6100 H   0  0  0  0  0  0  0  0  0  0  0  0
  -31.6410  -24.8110   17.7960 C   0  0  0  0  0  2  0  0  0  0  0  0
  -31.6430  -22.3700   18.2780 C   0  0  0  0  0  0  0  0  0  0  0  0
  -31.5260  -23.3990   17.4330 N   0  0  0  0  0  0  0  0  0  0  0  0
  -31.7590  -22.5220   19.4970 O   0  0  0  0  0  0  0  0  0  0  0  0
  -31.4790  -23.1930   16.4450 H   0  0  0  0  0  0  0  0  0  0  0  0
  -31.6470  -20.9740   17.6410 C   0  0  0  0  0  2  0  0  0  0  0  0
  -30.8010  -19.3020   19.2760 C   0  0  0  0  0  0  0  0  0  0  0  0
  -31.7980  -19.8920   18.6130 N   0  0  0  0  0  0  0  0  0  0  0  0
  -29.6210  -19.6340   19.1370 O   0  0  0  0  0  0  0  0  0  0  0  0
  -32.7430  -19.5900   18.8090 H   0  0  0  0  0  0  0  0  0  0  0  0
  -31.2860  -18.2310   20.1270 C   0  0  0  0  0  3  0  0  0  0  0  0
  -30.4400  -17.4980   20.8730 C   0  0  0  0  0  3  0  0  0  0  0  0
  -30.8790  -16.3540   21.7690 C   0  0  0  0  0  2  0  0  0  0  0  0
  -30.7700  -14.2930   20.3710 C   0  0  0  0  0  0  0  0  0  0  0  0
  -30.3470  -12.2780   19.0110 C   0  0  0  0  0  2  0  0  0  0  0  0
  -29.3870  -12.5950   17.8480 C   0  0  0  0  0  2  0  0  0  0  0  0
  -27.9200  -12.4710   18.2980 C   0  0  0  0  0  2  0  0  0  0  0  0
  -27.6340  -13.2390   19.6160 C   0  0  0  0  0  3  0  0  0  0  0  0
  -28.6940  -12.8940   20.6850 C   0  0  0  0  0  2  0  0  0  0  0  0
  -30.0280  -13.1820   20.1250 N   0  0  0  0  0  0  0  0  0  0  0  0
  -31.8040  -14.5690   19.7560 O   0  0  0  0  0  0  0  0  0  0  0  0
  -30.2950  -15.0890   21.3370 N   0  0  0  0  0  0  0  0  0  0  0  0
  -29.4540  -14.7810   21.8030 H   0  0  0  0  0  0  0  0  0  0  0  0
  -25.2320  -13.8720   20.2990 C   0  0  0  0  0  0  0  0  0  0  0  0
  -24.1630  -13.1120   20.6920 C   0  0  0  0  0  0  0  0  0  0  0  0
  -24.6240  -11.7600   20.7020 C   0  0  0  0  0  0  0  0  0  0  0  0
  -26.2780  -12.9830   20.0980 N   0  0  0  0  0  0  0  0  0  0  0  0
  -25.9130  -11.7100   20.3940 N   0  0  0  0  0  0  0  0  0  0  0  0
  -23.8970  -10.5040   20.9330 C   0  0  0  0  0  0  0  0  0  0  0  0
  -24.3440   -9.5560   21.8790 C   0  0  0  0  0  3  0  0  0  0  0  0
  -23.6190   -8.3640   22.0950 C   0  0  0  0  0  3  0  0  0  0  0  0
  -22.4340   -8.1130   21.3630 C   0  0  0  0  0  0  0  0  0  0  0  0
  -22.0060   -9.0500   20.4070 C   0  0  0  0  0  3  0  0  0  0  0  0
  -22.7310  -10.2330   20.1890 C   0  0  0  0  0  3  0  0  0  0  0  0
  -21.6790   -6.9720   21.4880 O   0  0  0  0  0  0  0  0  0  0  0  0
  -21.6620   -6.2420   22.6500 C   0  0  0  0  0  0  0  0  0  0  0  0
  -21.2880   -6.8180   23.8840 C   0  0  0  0  0  3  0  0  0  0  0  0
  -21.2170   -6.0160   25.0420 C   0  0  0  0  0  3  0  0  0  0  0  0
  -21.5090   -4.6400   24.9650 C   0  0  0  0  0  0  0  0  0  0  0  0
  -21.8760   -4.0650   23.7360 C   0  0  0  0  0  3  0  0  0  0  0  0
  -21.9490   -4.8640   22.5810 C   0  0  0  0  0  0  0  0  0  0  0  0
  -22.2820   -4.3010   21.3950 F   0  0  0  0  0  0  0  0  0  0  0  0
  -21.4330   -3.8690   26.0740 F   0  0  0  0  0  0  0  0  0  0  0  0
  -22.7670  -13.5980   20.9520 C   0  0  0  0  0  0  0  0  0  0  0  0
  -22.0460  -12.9390   21.8540 N   0  0  0  0  0  0  0  0  0  0  0  0
  -22.3220  -14.5990   20.3910 O   0  0  0  0  0  0  0  0  0  0  0  0
  -22.4180  -12.1300   22.3290 H   0  0  0  0  0  0  0  0  0  0  0  0
  -21.1090  -13.2480   22.0710 H   0  0  0  0  0  0  0  0  0  0  0  0
  -25.3990  -15.2370   20.0790 N   0  0  0  0  0  0  0  0  0  0  0  0
  -24.6370  -15.8990   20.1710 H   0  0  0  0  0  0  0  0  0  0  0  0
  -26.2570  -15.6640   19.7540 H   0  0  0  0  0  0  0  0  0  0  0  0
  -35.3220  -26.7290   19.8500 C   0  0  0  0  0  2  0  0  0  0  0  0
  -34.8350  -27.5920   21.0210 C   0  0  0  0  0  2  0  0  0  0  0  0
  -35.4320  -27.0940   22.2080 O   0  0  0  0  0  0  0  0  0  0  0  0
  -35.3030  -27.9730   23.3200 C   0  0  0  0  0  2  0  0  0  0  0  0
  -35.3790  -27.1330   24.6080 C   0  0  0  0  0  0  0  0  0  0  0  0
  -34.2590  -26.7430   25.2320 N   0  0  0  0  0  0  0  0  0  0  0  0
  -36.4810  -26.7880   25.0380 O   0  0  0  0  0  0  0  0  0  0  0  0
  -34.3780  -26.1710   26.0580 H   0  0  0  0  0  0  0  0  0  0  0  0
  -32.8860  -27.1230   24.9110 C   0  0  0  0  0  2  0  0  0  0  0  0
  -32.3060  -26.3500   23.7090 C   0  0  0  0  0  2  0  0  0  0  0  0
  -31.5010  -27.2580   22.9800 O   0  0  0  0  0  0  0  0  0  0  0  0
  -30.9420  -26.7190   21.7900 C   0  0  0  0  0  2  0  0  0  0  0  0
  -30.1100  -27.8320   21.1430 C   0  0  0  0  0  2  0  0  0  0  0  0
  -29.0740  -27.2940   20.3210 O   0  0  0  0  0  0  0  0  0  0  0  0
  -24.8050  -32.0750   23.4330 C   0  0  0  0  0  0  0  0  0  0  0  0
  -27.8860  -27.9890   20.3120 C   0  0  0  0  0  0  0  0  0  0  0  0
  -23.7660  -30.6820   21.6650 C   0  0  0  0  0  3  0  0  0  0  0  0
  -25.3850  -29.3040   20.2530 C   0  0  0  0  0  0  0  0  0  0  0  0
  -26.2620  -31.2180   21.6080 C   0  0  0  0  0  2  0  0  0  0  0  0
  -26.4660  -29.8860   20.9230 C   0  0  0  0  0  0  0  0  0  0  0  0
  -27.7150  -29.2400   20.9520 C   0  0  0  0  0  3  0  0  0  0  0  0
  -26.7920  -27.4180   19.6320 C   0  0  0  0  0  3  0  0  0  0  0  0
  -25.5400  -28.0640   19.6050 C   0  0  0  0  0  3  0  0  0  0  0  0
  -24.0850  -30.0770   20.2700 C   0  0  0  0  0  2  0  0  0  0  0  0
  -24.9580  -31.3370   22.2970 N   0  0  0  0  0  0  0  0  0  0  0  0
  -23.6860  -32.2540   23.9330 O   0  0  0  0  0  0  0  0  0  0  0  0
  -23.1370  -29.5820   22.5470 C   0  0  0  0  0  0  0  0  0  0  0  0
  -21.8280  -29.3450   22.3610 N   0  0  0  0  0  0  0  0  0  0  0  0
  -23.8240  -28.9450   23.3500 O   0  0  0  0  0  0  0  0  0  0  0  0
  -21.3340  -29.9170   21.6910 H   0  0  0  0  0  0  0  0  0  0  0  0
  -18.4990  -27.9920   22.6760 C   0  0  0  0  0  0  0  0  0  0  0  0
  -21.0330  -28.3300   23.0490 C   0  0  0  0  0  3  0  0  0  0  0  0
  -21.2140  -26.9420   22.3930 C   0  0  0  0  0  2  0  0  0  0  0  0
  -20.1570  -26.6400   21.3260 C   0  0  0  0  0  2  0  0  0  0  0  0
  -18.7510  -26.6930   21.9300 C   0  0  0  0  0  2  0  0  0  0  0  0
  -19.5720  -28.7680   23.1890 C   0  0  0  0  0  0  0  0  0  0  0  0
  -19.2840  -29.9840   23.8450 C   0  0  0  0  0  3  0  0  0  0  0  0
  -17.9570  -30.4250   23.9970 C   0  0  0  0  0  3  0  0  0  0  0  0
  -16.8970  -29.6450   23.5030 C   0  0  0  0  0  3  0  0  0  0  0  0
  -17.1680  -28.4310   22.8470 C   0  0  0  0  0  3  0  0  0  0  0  0
  -26.0210  -32.7470   24.1440 C   0  0  0  0  0  3  0  0  0  0  0  0
  -26.4810  -31.9830   25.4460 C   0  0  1  0  0  0  0  0  0  0  0  0
  -25.3220  -31.6480   26.4130 C   0  0  0  0  0  1  0  0  0  0  0  0
  -27.1880  -30.6580   25.0760 C   0  0  0  0  0  1  0  0  0  0  0  0
  -27.5140  -32.8370   26.2190 C   0  0  0  0  0  1  0  0  0  0  0  0
  -25.6390  -34.1290   24.4570 N   0  0  0  0  0  0  0  0  0  0  0  0
  -26.0660  -35.2070   23.7850 C   0  0  0  0  0  0  0  0  0  0  0  0
  -26.8910  -35.1420   22.8690 O   0  0  0  0  0  0  0  0  0  0  0  0
  -24.9230  -34.2530   25.1600 H   0  0  0  0  0  0  0  0  0  0  0  0
  -24.4110  -37.0000   23.1840 C   0  0  0  0  0  1  0  0  0  0  0  0
  -25.4880  -36.5740   24.1950 C   0  0  0  0  0  3  0  0  0  0  0  0
  -27.4530  -37.4140   25.4040 C   0  0  0  0  0  1  0  0  0  0  0  0
  -26.5100  -37.6380   24.3100 N   0  0  0  0  0  0  0  0  0  0  0  0
  -26.0720  -38.5440   24.4490 H   0  0  0  0  0  0  0  0  0  0  0  0
  1 57  1  0
  2  3  1  0
  3  1  1  0
  3  5  1  0
  4  2  2  0
  6  2  1  0
  7  9  2  0
  8  6  1  0
  8  7  1  0
 10  8  1  0
 11  7  1  0
 11 13  1  0
 12 16  1  0
 13 15  1  0
 13 12  1  0
 14 12  2  0
 16 17  2  0
 17 18  1  0
 19 27  1  0
 20 25  1  0
 21 22  1  0
 21 20  1  0
 23 22  1  0
 23 32  1  0
 23 24  1  0
 25 19  1  0
 25 24  1  0
 26 19  2  0
 27 18  1  0
 27 28  1  0
 29 30  2  0
 30 31  1  0
 30 49  1  0
 31 34  1  0
 32 29  1  0
 32 33  1  0
 33 31  2  0
 34 35  1  0
 35 36  2  0
 37 40  1  0
 37 36  1  0
 38 37  2  0
 39 38  1  0
 39 34  2  0
 40 41  1  0
 41 42  1  0
 42 43  2  0
 44 43  1  0
 44 48  1  0
 45 44  2  0
 46 41  2  0
 46 45  1  0
 47 46  1  0
 49 50  1  0
 50 53  1  0
 50 52  1  0
 51 49  2  0
 54 55  1  0
 54 29  1  0
 56 54  1  0
 57 58  1  0
 58 59  1  0
 59 60  1  0
 60 61  1  0
 61 63  2  0
 61 62  1  0
 62 64  1  0
 65 62  1  0
 66 65  1  0
 67 66  1  0
 68 67  1  0
 69 68  1  0
 70 69  1  0
 71 82  2  0
 72 70  1  0
 72 77  1  0
 73 81  1  0
 73 83  1  0
 74 80  1  0
 74 76  1  0
 75 81  1  0
 76 77  2  0
 76 75  1  0
 78 72  2  0
 79 78  1  0
 79 74  2  0
 80 73  1  0
 81 71  1  0
 83 85  2  0
 84 83  1  0
 86 84  1  0
 87 96  2  0
 87 92  1  0
 88 84  1  0
 88 92  1  0
 89 88  1  0
 90 91  1  0
 90 89  1  0
 91 87  1  0
 92 93  2  0
 93 94  1  0
 95 94  2  0
 96 95  1  0
 97 71  1  0
 97102  1  0
 97 98  1  0
 98101  1  1
 98 99  1  0
100 98  1  0
102105  1  0
103107  1  0
103102  1  0
104103  2  0
107106  1  0
107109  1  0
109110  1  0
109108  1  0
M  ISO  4  19 100  27 100  69 101  70 101
M  END
>  <TORSDO>  (44) 
F 33

>  <SCORE>  (44) 
-2.526

>  <name>  (44) 
47

>  <ligand_id>  (44) 
47

>  <original_smiles>  (44) 
[H]C(C(=O)N([H])C([H])([H])C(=O)N([H])C([H])([H])C(=O)N([H])C([H])([H])C([H])([H])C([H])([H])OC([H])([H])C(=O)N([H])C([H])([H])C([H])([H])OC([H])([H])C([H])([H])Oc1c([H])c([H])c2c(c1[H])C([H])([H])N(C(=O)C([H])(N([H])C(=O)C([H])(N([H])C([H])([H])[H])C([H])([H])[H])C(C([H])([H])[H])(C([H])([H])[H])C([H])([H])[H])C([H])(C(=O)N([H])C1([H])c3c([H])c([H])c([H])c([H])c3C([H])([H])C([H])([H])C1([H])[H])C2([H])[H])=C([H])C([H])([H])N([H])C(=O)N1C([H])([H])C([H])([H])C([H])([H])C([H])(n2nc(-c3c([H])c([H])c(Oc4c([H])c([H])c(F)c([H])c4F)c([H])c3[H])c(C(=O)N([H])[H])c2N([H])[H])C1([H])[H]

>  <smiles>  (44) 
[H]C(C(=O)N([H])C([H])([H])C(=O)N([H])C([H])([H])C(=O)N([H])C([H])([H])C([H])([H])C([H])([H])OC([H])([H])C(=O)N([H])C([H])([H])C([H])([H])OC([H])([H])C([H])([H])Oc1c([H])c([H])c2c(c1[H])C([H])([H])N(C(=O)C([H])(N([H])C(=O)C([H])(N([H])C([H])([H])[H])C([H])([H])[H])C(C([H])([H])[H])(C([H])([H])[H])C([H])([H])[H])C([H])(C(=O)N([H])C1([H])c3c([H])c([H])c([H])c([H])c3C([H])([H])C([H])([H])C1([H])[H])C2([H])[H])=C([H])C([H])([H])N([H])C(=O)N1C([H])([H])C([H])([H])C([H])([H])C([H])(n2nc(-c3c([H])c([H])c(Oc4c([H])c([H])c(F)c([H])c4F)c([H])c3[H])c(C(=O)N([H])[H])c2N([H])[H])C1([H])[H]

$$$$
48:0:0
     RDKit          3D

110117  0  0  1  0  0  0  0  0999 V2000
  -23.1820  -22.2910   24.2800 C   0  0  0  0  0  2  0  0  0  0  0  0
  -23.8220  -23.6870   24.3460 C   0  0  0  0  0  0  0  0  0  0  0  0
  -23.2790  -24.6400   23.5780 N   0  0  0  0  0  0  0  0  0  0  0  0
  -24.8010  -23.9000   25.0680 O   0  0  0  0  0  0  0  0  0  0  0  0
  -22.4660  -24.3960   23.0270 H   0  0  0  0  0  0  0  0  0  0  0  0
  -23.7400  -26.0240   23.5110 C   0  0  0  0  0  2  0  0  0  0  0  0
  -24.9000  -26.1990   22.5130 C   0  0  0  0  0  2  0  0  0  0  0  0
  -24.4660  -26.7710   21.1490 C   0  0  0  0  0  2  0  0  0  0  0  0
  -25.6480  -27.0070   20.1890 C   0  0  0  0  0  2  0  0  0  0  0  0
  -25.6700  -26.0420   19.0650 N   0  0  0  0  0  4  0  0  0  0  0  0
  -24.9820  -26.3380   18.3880 H   0  0  0  0  0  0  0  0  0  0  0  0
  -25.3850  -25.1380   19.4090 H   0  0  0  0  0  0  0  0  0  0  0  0
  -26.9930  -25.9070   18.4060 C   0  0  0  0  0  2  0  0  0  0  0  0
  -26.9550  -26.2060   16.8920 C   0  0  0  0  0  2  0  0  0  0  0  0
  -26.9540  -27.6150   16.6680 O   0  0  0  0  0  0  0  0  0  0  0  0
  -25.6720  -30.6830   22.9320 C   0  0  0  0  0  0  0  0  0  0  0  0
  -26.0760  -28.3500   17.4220 C   0  0  0  0  0  0  0  0  0  0  0  0
  -23.7640  -30.6190   21.3570 C   0  0  0  0  0  3  0  0  0  0  0  0
  -24.3210  -29.9150   18.9730 C   0  0  0  0  0  0  0  0  0  0  0  0
  -26.1690  -30.6460   20.4940 C   0  0  0  0  0  2  0  0  0  0  0  0
  -25.6830  -29.8590   19.2970 C   0  0  0  0  0  0  0  0  0  0  0  0
  -26.5670  -29.0880   18.5170 C   0  0  0  0  0  3  0  0  0  0  0  0
  -24.7010  -28.4060   17.1050 C   0  0  0  0  0  3  0  0  0  0  0  0
  -23.8230  -29.1880   17.8780 C   0  0  0  0  0  3  0  0  0  0  0  0
  -23.4490  -30.7870   19.8470 C   0  0  0  0  0  2  0  0  0  0  0  0
  -25.2350  -30.6250   21.6430 N   0  0  0  0  0  0  0  0  0  0  0  0
  -24.8740  -30.7790   23.8740 O   0  0  0  0  0  0  0  0  0  0  0  0
  -23.0470  -29.3510   21.8720 C   0  0  0  0  0  0  0  0  0  0  0  0
  -21.7050  -29.4000   21.9050 N   0  0  0  0  0  0  0  0  0  0  0  0
  -23.6880  -28.3490   22.1980 O   0  0  0  0  0  0  0  0  0  0  0  0
  -21.2560  -30.2610   21.6300 H   0  0  0  0  0  0  0  0  0  0  0  0
  -18.2370  -28.4210   22.1570 C   0  0  0  0  0  0  0  0  0  0  0  0
  -20.8140  -28.3160   22.3150 C   0  0  0  0  0  3  0  0  0  0  0  0
  -20.7360  -27.2190   21.2290 C   0  0  0  0  0  2  0  0  0  0  0  0
  -19.5710  -27.4180   20.2530 C   0  0  0  0  0  2  0  0  0  0  0  0
  -18.2370  -27.4280   21.0060 C   0  0  0  0  0  2  0  0  0  0  0  0
  -19.4490  -28.8490   22.7610 C   0  0  0  0  0  0  0  0  0  0  0  0
  -19.3980  -29.7990   23.8040 C   0  0  0  0  0  3  0  0  0  0  0  0
  -18.1670  -30.3190   24.2440 C   0  0  0  0  0  3  0  0  0  0  0  0
  -16.9680  -29.8780   23.6560 C   0  0  0  0  0  3  0  0  0  0  0  0
  -17.0060  -28.9270   22.6190 C   0  0  0  0  0  3  0  0  0  0  0  0
  -27.1920  -30.6620   23.2840 C   0  0  0  0  0  3  0  0  0  0  0  0
  -27.7250  -29.2290   23.6780 C   0  0  1  0  0  0  0  0  0  0  0  0
  -26.8420  -28.5000   24.7170 C   0  0  0  0  0  1  0  0  0  0  0  0
  -27.8220  -28.3250   22.4270 C   0  0  0  0  0  1  0  0  0  0  0  0
  -29.1550  -29.3440   24.2580 C   0  0  0  0  0  1  0  0  0  0  0  0
  -27.4050  -31.6160   24.3790 N   0  0  0  0  0  0  0  0  0  0  0  0
  -27.9880  -32.8140   24.2390 C   0  0  0  0  0  0  0  0  0  0  0  0
  -28.4700  -33.2050   23.1720 O   0  0  0  0  0  0  0  0  0  0  0  0
  -26.9830  -31.3870   25.2660 H   0  0  0  0  0  0  0  0  0  0  0  0
  -26.9720  -34.8210   25.3650 C   0  0  0  0  0  1  0  0  0  0  0  0
  -28.0440  -33.7250   25.4790 C   0  0  0  0  0  3  0  0  0  0  0  0
  -30.3990  -33.3890   26.0860 C   0  0  0  0  0  1  0  0  0  0  0  0
  -29.3680  -34.3460   25.6940 N   0  0  0  0  0  0  0  0  0  0  0  0
  -29.3150  -35.0670   26.4100 H   0  0  0  0  0  0  0  0  0  0  0  0
  -24.6750  -20.9340   25.7380 C   0  0  0  0  0  0  0  0  0  0  0  0
  -24.1600  -21.2360   24.5410 N   0  0  0  0  0  0  0  0  0  0  0  0
  -24.2640  -21.4350   26.7860 O   0  0  0  0  0  0  0  0  0  0  0  0
  -24.5710  -20.8010   23.7270 H   0  0  0  0  0  0  0  0  0  0  0  0
  -25.8320  -19.9280   25.7600 C   0  0  0  0  0  2  0  0  0  0  0  0
  -26.8250  -20.1260   26.9320 C   0  0  0  0  0  2  0  0  0  0  0  0
  -29.0090  -20.4600   25.7630 C   0  0  0  0  0  0  0  0  0  0  0  0
  -28.0370  -20.8740   26.5820 N   0  0  0  0  0  0  0  0  0  0  0  0
  -28.9700  -19.3690   25.1870 O   0  0  0  0  0  0  0  0  0  0  0  0
  -28.1570  -21.7830   27.0130 H   0  0  0  0  0  0  0  0  0  0  0  0
  -30.1980  -21.4110   25.5690 C   0  0  0  0  0  2  0  0  0  0  0  0
  -30.8380  -21.1230   24.3320 O   0  0  0  0  0  0  0  0  0  0  0  0
  -32.1160  -21.7230   24.2080 C   0  0  0  0  0  2  0  0  0  0  0  0
  -32.1440  -22.4770   22.8750 C   0  0  0  0  0  2  0  0  0  0  0  0
  -32.0620  -21.5370   21.6600 C   0  0  0  0  0  2  0  0  0  0  0  0
  -32.0880  -22.2950   20.3240 C   0  0  0  0  0  2  0  0  0  0  0  0
  -32.5430  -21.4250   19.1440 C   0  0  0  0  0  2  0  0  0  0  0  0
  -30.8960  -20.5230   17.5050 C   0  0  0  0  0  0  0  0  0  0  0  0
  -30.2390  -18.9500   15.7330 C   0  0  0  0  0  2  0  0  0  0  0  0
  -28.7650  -19.0330   15.3160 C   0  0  0  0  0  2  0  0  0  0  0  0
  -27.9040  -18.1340   16.2170 C   0  0  0  0  0  2  0  0  0  0  0  0
  -28.1590  -18.3930   17.7240 C   0  0  0  0  0  3  0  0  0  0  0  0
  -29.6700  -18.3940   18.0500 C   0  0  0  0  0  2  0  0  0  0  0  0
  -30.3620  -19.3320   17.1460 N   0  0  0  0  0  0  0  0  0  0  0  0
  -31.0460  -21.4700   16.7290 O   0  0  0  0  0  0  0  0  0  0  0  0
  -31.5070  -20.4920   18.6960 N   0  0  0  0  0  0  0  0  0  0  0  0
  -31.3880  -19.6440   19.2300 H   0  0  0  0  0  0  0  0  0  0  0  0
  -26.1550  -17.5390   19.0990 C   0  0  0  0  0  0  0  0  0  0  0  0
  -25.9150  -16.3430   19.7230 C   0  0  0  0  0  0  0  0  0  0  0  0
  -27.0830  -15.5480   19.5110 C   0  0  0  0  0  0  0  0  0  0  0  0
  -27.4250  -17.4360   18.5520 N   0  0  0  0  0  0  0  0  0  0  0  0
  -28.0010  -16.2430   18.8500 N   0  0  0  0  0  0  0  0  0  0  0  0
  -27.3570  -14.1450   19.8490 C   0  0  0  0  0  0  0  0  0  0  0  0
  -28.6500  -13.7140   20.2210 C   0  0  0  0  0  3  0  0  0  0  0  0
  -28.8850  -12.3640   20.5590 C   0  0  0  0  0  3  0  0  0  0  0  0
  -27.8240  -11.4290   20.5290 C   0  0  0  0  0  0  0  0  0  0  0  0
  -26.5430  -11.8590   20.1340 C   0  0  0  0  0  3  0  0  0  0  0  0
  -26.3120  -13.2030   19.7950 C   0  0  0  0  0  3  0  0  0  0  0  0
  -27.9630  -10.0930   20.8160 O   0  0  0  0  0  0  0  0  0  0  0  0
  -29.1240   -9.5890   21.3460 C   0  0  0  0  0  0  0  0  0  0  0  0
  -29.7300  -10.1580   22.4880 C   0  0  0  0  0  3  0  0  0  0  0  0
  -30.8820   -9.5660   23.0420 C   0  0  0  0  0  3  0  0  0  0  0  0
  -31.4240   -8.4020   22.4640 C   0  0  0  0  0  0  0  0  0  0  0  0
  -30.8190   -7.8310   21.3300 C   0  0  0  0  0  3  0  0  0  0  0  0
  -29.6700   -8.4210   20.7760 C   0  0  0  0  0  0  0  0  0  0  0  0
  -29.0780   -7.8550   19.6970 F   0  0  0  0  0  0  0  0  0  0  0  0
  -32.5270   -7.8280   23.0010 F   0  0  0  0  0  0  0  0  0  0  0  0
  -24.6410  -15.9250   20.3980 C   0  0  0  0  0  0  0  0  0  0  0  0
  -24.7410  -15.1340   21.4610 N   0  0  0  0  0  0  0  0  0  0  0  0
  -23.5480  -16.3390   20.0150 O   0  0  0  0  0  0  0  0  0  0  0  0
  -25.6390  -14.8080   21.7870 H   0  0  0  0  0  0  0  0  0  0  0  0
  -23.9070  -14.8450   21.9510 H   0  0  0  0  0  0  0  0  0  0  0  0
  -25.3980  -18.6940   18.9360 N   0  0  0  0  0  0  0  0  0  0  0  0
  -24.4870  -18.8150   19.3650 H   0  0  0  0  0  0  0  0  0  0  0  0
  -25.7320  -19.5340   18.4790 H   0  0  0  0  0  0  0  0  0  0  0  0
  1  2  1  0
  1 57  1  0
  2  4  2  0
  3  2  1  0
  5  3  1  0
  6  3  1  0
  7  6  1  0
  8  7  1  0
  9  8  1  0
 10 12  1  0
 10  9  1  0
 11 10  1  0
 13 10  1  0
 14 13  1  0
 15 14  1  0
 15 17  1  0
 16 27  2  0
 17 22  1  0
 18 26  1  0
 18 28  1  0
 19 21  1  0
 19 25  1  0
 20 26  1  0
 21 20  1  0
 22 21  2  0
 23 17  2  0
 23 24  1  0
 24 19  2  0
 25 18  1  0
 26 16  1  0
 28 29  1  0
 28 30  2  0
 31 29  1  0
 32 41  2  0
 32 37  1  0
 33 29  1  0
 33 37  1  0
 34 33  1  0
 35 36  1  0
 35 34  1  0
 36 32  1  0
 37 38  2  0
 38 39  1  0
 40 39  2  0
 41 40  1  0
 42 16  1  0
 42 43  1  0
 42 47  1  0
 43 46  1  1
 43 44  1  0
 45 43  1  0
 47 50  1  0
 48 47  1  0
 48 52  1  0
 49 48  2  0
 52 51  1  0
 52 54  1  0
 54 53  1  0
 54 55  1  0
 56 60  1  0
 56 58  2  0
 57 56  1  0
 59 57  1  0
 60 61  1  0
 62 63  1  0
 63 61  1  0
 63 65  1  0
 64 62  2  0
 66 62  1  0
 67 66  1  0
 68 67  1  0
 69 68  1  0
 70 69  1  0
 71 70  1  0
 72 71  1  0
 73 81  1  0
 74 79  1  0
 75 74  1  0
 75 76  1  0
 77 76  1  0
 77 78  1  0
 77 86  1  0
 79 73  1  0
 79 78  1  0
 80 73  2  0
 81 72  1  0
 81 82  1  0
 83 84  2  0
 84103  1  0
 85 84  1  0
 85 88  1  0
 86 87  1  0
 86 83  1  0
 87 85  2  0
 88 89  1  0
 89 90  2  0
 91 90  1  0
 91 94  1  0
 92 91  2  0
 93 88  2  0
 93 92  1  0
 94 95  1  0
 95 96  1  0
 96 97  2  0
 98102  1  0
 98 97  1  0
 99 98  2  0
100 99  1  0
100 95  2  0
101100  1  0
103104  1  0
104106  1  0
104107  1  0
105103  2  0
108 83  1  0
108109  1  0
110108  1  0
M  ISO  4  14 101  15 101  73 100  81 100
M  END
>  <TORSDO>  (45) 
F 35

>  <SCORE>  (45) 
27.430

>  <name>  (45) 
48

>  <ligand_id>  (45) 
48

>  <original_smiles>  (45) 
[H]c1c([H])c([H])c2c(c1[H])C([H])([H])C([H])([H])C([H])([H])C2([H])N([H])C(=O)C1([H])N(C(=O)C([H])(N([H])C(=O)C([H])(N([H])C([H])([H])[H])C([H])([H])[H])C(C([H])([H])[H])(C([H])([H])[H])C([H])([H])[H])C([H])([H])c2c([H])c(OC([H])([H])C([H])([H])[N+]([H])([H])C([H])([H])C([H])([H])C([H])([H])C([H])([H])N([H])C(=O)C([H])([H])N([H])C(=O)C([H])([H])C([H])([H])N([H])C(=O)C([H])([H])OC([H])([H])C([H])([H])C([H])([H])C([H])([H])C([H])([H])N([H])C(=O)N3C([H])([H])C([H])([H])C([H])([H])C([H])(n4nc(-c5c([H])c([H])c(Oc6c([H])c([H])c(F)c([H])c6F)c([H])c5[H])c(C(=O)N([H])[H])c4N([H])[H])C3([H])[H])c([H])c([H])c2C1([H])[H]

>  <smiles>  (45) 
[H]c1c([H])c([H])c2c(c1[H])C([H])([H])C([H])([H])C([H])([H])C2([H])N([H])C(=O)C1([H])N(C(=O)C([H])(N([H])C(=O)C([H])(N([H])C([H])([H])[H])C([H])([H])[H])C(C([H])([H])[H])(C([H])([H])[H])C([H])([H])[H])C([H])([H])c2c([H])c(OC([H])([H])C([H])([H])[N+]([H])([H])C([H])([H])C([H])([H])C([H])([H])C([H])([H])N([H])C(=O)C([H])([H])N([H])C(=O)C([H])([H])C([H])([H])N([H])C(=O)C([H])([H])OC([H])([H])C([H])([H])C([H])([H])C([H])([H])C([H])([H])N([H])C(=O)N3C([H])([H])C([H])([H])C([H])([H])C([H])(n4nc(-c5c([H])c([H])c(Oc6c([H])c([H])c(F)c([H])c6F)c([H])c5[H])c(C(=O)N([H])[H])c4N([H])[H])C3([H])[H])c([H])c([H])c2C1([H])[H]

$$$$
49:0:0
     RDKit          3D

119126  0  0  1  0  0  0  0  0999 V2000
  -25.8910  -24.5460   22.8600 C   0  0  0  0  0  2  0  0  0  0  0  0
  -25.8250  -23.3550   21.9870 N   0  0  0  0  0  4  0  0  0  0  0  0
  -24.9450  -23.3430   21.4980 H   0  0  0  0  0  0  0  0  0  0  0  0
  -25.8740  -22.5280   22.5610 H   0  0  0  0  0  0  0  0  0  0  0  0
  -26.9290  -23.3160   21.0020 C   0  0  0  0  0  2  0  0  0  0  0  0
  -26.8740  -22.0870   20.0780 C   0  0  0  0  0  2  0  0  0  0  0  0
  -28.1310  -22.0080   19.1960 C   0  0  0  0  0  2  0  0  0  0  0  0
  -28.2320  -20.7050   18.3840 C   0  0  0  0  0  2  0  0  0  0  0  0
  -29.2740  -20.7730   17.2540 C   0  0  0  0  0  2  0  0  0  0  0  0
  -31.7810  -20.4140   17.4020 C   0  0  0  0  0  3  0  0  0  0  0  0
  -33.0490  -20.9320   18.0200 C   0  0  0  0  0  1  0  0  0  0  0  0
  -31.7890  -19.4050   16.4970 N   0  0  0  0  0  0  0  0  0  0  0  0
  -30.6270  -21.0000   17.7880 N   0  0  0  0  0  0  0  0  0  0  0  0
  -30.8930  -19.0720   16.1610 H   0  0  0  0  0  0  0  0  0  0  0  0
  -30.6880  -21.7130   18.5060 H   0  0  0  0  0  0  0  0  0  0  0  0
  -32.9530  -18.6820   15.9360 C   0  0  0  0  0  2  0  0  0  0  0  0
  -33.8370  -17.9730   16.9890 C   0  0  0  0  0  2  0  0  0  0  0  0
  -33.1080  -16.9520   17.7650 N   0  0  0  0  0  4  0  0  0  0  0  0
  -32.9830  -16.1030   17.2350 H   0  0  0  0  0  0  0  0  0  0  0  0
  -32.1760  -17.3360   17.9720 H   0  0  0  0  0  0  0  0  0  0  0  0
  -33.6180  -16.6860   19.1320 C   0  0  0  0  0  2  0  0  0  0  0  0
  -33.3650  -15.2260   19.6230 C   0  0  0  0  0  2  0  0  0  0  0  0
  -30.8190  -15.0450   19.7000 C   0  0  0  0  0  0  0  0  0  0  0  0
  -30.3560  -12.8310   18.9410 C   0  0  0  0  0  2  0  0  0  0  0  0
  -29.3520  -12.7690   17.7900 C   0  0  0  0  0  2  0  0  0  0  0  0
  -27.9480  -12.5470   18.3540 C   0  0  0  0  0  2  0  0  0  0  0  0
  -27.5630  -13.6150   19.4060 C   0  0  0  0  0  3  0  0  0  0  0  0
  -28.6950  -13.8710   20.4480 C   0  0  0  0  0  2  0  0  0  0  0  0
  -30.0330  -13.9580   19.8250 N   0  0  0  0  0  0  0  0  0  0  0  0
  -30.6460  -15.9490   18.9060 O   0  0  0  0  0  0  0  0  0  0  0  0
  -32.0490  -14.8320   20.1860 N   0  0  0  0  0  0  0  0  0  0  0  0
  -32.0950  -14.0710   20.8550 H   0  0  0  0  0  0  0  0  0  0  0  0
  -25.2450  -14.0740   20.4600 C   0  0  0  0  0  0  0  0  0  0  0  0
  -24.2520  -13.2360   20.8940 C   0  0  0  0  0  0  0  0  0  0  0  0
  -24.7440  -11.9080   20.6990 C   0  0  0  0  0  0  0  0  0  0  0  0
  -26.2870  -13.2560   20.0380 N   0  0  0  0  0  0  0  0  0  0  0  0
  -25.9880  -11.9420   20.2370 N   0  0  0  0  0  0  0  0  0  0  0  0
  -24.0760  -10.6100   20.8740 C   0  0  0  0  0  0  0  0  0  0  0  0
  -24.5450   -9.6610   21.8120 C   0  0  0  0  0  3  0  0  0  0  0  0
  -23.8760   -8.4290   21.9820 C   0  0  0  0  0  3  0  0  0  0  0  0
  -22.7290   -8.1330   21.2090 C   0  0  0  0  0  0  0  0  0  0  0  0
  -22.2800   -9.0680   20.2610 C   0  0  0  0  0  3  0  0  0  0  0  0
  -22.9480  -10.2910   20.0880 C   0  0  0  0  0  3  0  0  0  0  0  0
  -22.0290   -6.9500   21.2860 O   0  0  0  0  0  0  0  0  0  0  0  0
  -21.7790   -6.3380   22.4870 C   0  0  0  0  0  0  0  0  0  0  0  0
  -21.1260   -7.0080   23.5450 C   0  0  0  0  0  3  0  0  0  0  0  0
  -20.8270   -6.3190   24.7380 C   0  0  0  0  0  3  0  0  0  0  0  0
  -21.1700   -4.9610   24.8730 C   0  0  0  0  0  0  0  0  0  0  0  0
  -21.8150   -4.2890   23.8200 C   0  0  0  0  0  3  0  0  0  0  0  0
  -22.1160   -4.9750   22.6290 C   0  0  0  0  0  0  0  0  0  0  0  0
  -22.7170   -4.3170   21.6100 F   0  0  0  0  0  0  0  0  0  0  0  0
  -20.8790   -4.2980   26.0170 F   0  0  0  0  0  0  0  0  0  0  0  0
  -22.8900  -13.6390   21.3790 C   0  0  0  0  0  0  0  0  0  0  0  0
  -22.3090  -12.8650   22.2940 N   0  0  0  0  0  0  0  0  0  0  0  0
  -22.3470  -14.6700   20.9840 O   0  0  0  0  0  0  0  0  0  0  0  0
  -22.7610  -12.0300   22.6320 H   0  0  0  0  0  0  0  0  0  0  0  0
  -21.4040  -13.1150   22.6600 H   0  0  0  0  0  0  0  0  0  0  0  0
  -25.3430  -15.4580   20.3620 N   0  0  0  0  0  0  0  0  0  0  0  0
  -24.5710  -16.0710   20.6010 H   0  0  0  0  0  0  0  0  0  0  0  0
  -26.1200  -15.9500   19.9440 H   0  0  0  0  0  0  0  0  0  0  0  0
  -24.8240  -24.5500   23.9700 C   0  0  0  0  0  2  0  0  0  0  0  0
  -24.6630  -25.9550   24.5480 C   0  0  0  0  0  0  0  0  0  0  0  0
  -24.8190  -26.1140   25.8670 N   0  0  0  0  0  0  0  0  0  0  0  0
  -24.4330  -26.9030   23.8000 O   0  0  0  0  0  0  0  0  0  0  0  0
  -25.0060  -25.3020   26.4370 H   0  0  0  0  0  0  0  0  0  0  0  0
  -24.6890  -27.3890   26.5680 C   0  0  0  0  0  2  0  0  0  0  0  0
  -25.9640  -28.2490   26.5740 C   0  0  0  0  0  0  0  0  0  0  0  0
  -27.0800  -27.7740   25.9980 N   0  0  0  0  0  0  0  0  0  0  0  0
  -25.9420  -29.3470   27.1370 O   0  0  0  0  0  0  0  0  0  0  0  0
  -27.0610  -26.8410   25.6050 H   0  0  0  0  0  0  0  0  0  0  0  0
  -28.3620  -28.4760   25.9770 C   0  0  0  0  0  2  0  0  0  0  0  0
  -29.3940  -27.8210   25.0560 C   0  0  0  0  0  0  0  0  0  0  0  0
  -29.0440  -27.6050   23.7800 N   0  0  0  0  0  0  0  0  0  0  0  0
  -30.5030  -27.5150   25.4980 O   0  0  0  0  0  0  0  0  0  0  0  0
  -28.1060  -27.8670   23.5110 H   0  0  0  0  0  0  0  0  0  0  0  0
  -29.9650  -27.1070   22.7560 C   0  0  0  0  0  2  0  0  0  0  0  0
  -29.5730  -27.5180   21.3170 C   0  0  0  0  0  2  0  0  0  0  0  0
  -28.7430  -26.4620   20.5600 C   0  0  0  0  0  2  0  0  0  0  0  0
  -28.2410  -26.9710   19.3200 O   0  0  0  0  0  0  0  0  0  0  0  0
  -24.5840  -31.9720   22.7830 C   0  0  0  0  0  0  0  0  0  0  0  0
  -27.0530  -27.6440   19.4530 C   0  0  0  0  0  0  0  0  0  0  0  0
  -23.2510  -30.4700   21.3370 C   0  0  0  0  0  3  0  0  0  0  0  0
  -24.5930  -28.9820   19.7580 C   0  0  0  0  0  0  0  0  0  0  0  0
  -25.6970  -30.9700   20.7930 C   0  0  0  0  0  2  0  0  0  0  0  0
  -25.7840  -29.5920   20.1800 C   0  0  0  0  0  0  0  0  0  0  0  0
  -27.0170  -28.9290   20.0250 C   0  0  0  0  0  3  0  0  0  0  0  0
  -25.8510  -27.0300   19.0300 C   0  0  0  0  0  3  0  0  0  0  0  0
  -24.6180  -27.7000   19.1810 C   0  0  0  0  0  3  0  0  0  0  0  0
  -23.3160  -29.7620   19.9570 C   0  0  0  0  0  2  0  0  0  0  0  0
  -24.5370  -31.1530   21.6970 N   0  0  0  0  0  0  0  0  0  0  0  0
  -23.5690  -32.2010   23.4540 O   0  0  0  0  0  0  0  0  0  0  0  0
  -22.7890  -29.4410   22.3930 C   0  0  0  0  0  0  0  0  0  0  0  0
  -21.5400  -28.9670   22.2600 N   0  0  0  0  0  0  0  0  0  0  0  0
  -23.5540  -29.0710   23.2870 O   0  0  0  0  0  0  0  0  0  0  0  0
  -20.9750  -29.3160   21.4990 H   0  0  0  0  0  0  0  0  0  0  0  0
  -18.5910  -26.9210   22.6460 C   0  0  0  0  0  0  0  0  0  0  0  0
  -20.9110  -27.9620   23.1140 C   0  0  0  0  0  3  0  0  0  0  0  0
  -21.4870  -26.5550   22.8340 C   0  0  0  0  0  2  0  0  0  0  0  0
  -20.6810  -25.7700   21.7970 C   0  0  0  0  0  2  0  0  0  0  0  0
  -19.2310  -25.5980   22.2600 C   0  0  0  0  0  2  0  0  0  0  0  0
  -19.3810  -28.0380   23.0280 C   0  0  0  0  0  0  0  0  0  0  0  0
  -18.7400  -29.2580   23.3350 C   0  0  0  0  0  3  0  0  0  0  0  0
  -17.3380  -29.3700   23.2770 C   0  0  0  0  0  3  0  0  0  0  0  0
  -16.5600  -28.2580   22.9080 C   0  0  0  0  0  3  0  0  0  0  0  0
  -17.1840  -27.0370   22.5960 C   0  0  0  0  0  3  0  0  0  0  0  0
  -25.9000  -32.6870   23.2150 C   0  0  0  0  0  3  0  0  0  0  0  0
  -26.7740  -31.8330   24.2150 C   0  0  1  0  0  0  0  0  0  0  0  0
  -25.9900  -31.3410   25.4530 C   0  0  0  0  0  1  0  0  0  0  0  0
  -27.3560  -30.5890   23.5060 C   0  0  0  0  0  1  0  0  0  0  0  0
  -27.9760  -32.6790   24.7020 C   0  0  0  0  0  1  0  0  0  0  0  0
  -25.5230  -33.9740   23.8110 N   0  0  0  0  0  0  0  0  0  0  0  0
  -25.7460  -35.1670   23.2450 C   0  0  0  0  0  0  0  0  0  0  0  0
  -26.3460  -35.3040   22.1730 O   0  0  0  0  0  0  0  0  0  0  0  0
  -24.9600  -33.9450   24.6510 H   0  0  0  0  0  0  0  0  0  0  0  0
  -23.9000  -36.8700   23.3230 C   0  0  0  0  0  1  0  0  0  0  0  0
  -25.2090  -36.4060   23.9830 C   0  0  0  0  0  3  0  0  0  0  0  0
  -27.3470  -37.2520   24.8390 C   0  0  0  0  0  1  0  0  0  0  0  0
  -26.1710  -37.5290   24.0170 N   0  0  0  0  0  0  0  0  0  0  0  0
  -25.7300  -38.3730   24.3700 H   0  0  0  0  0  0  0  0  0  0  0  0
  1 61  1  0
  2  4  1  0
  2  1  1  0
  3  2  1  0
  5  2  1  0
  6  5  1  0
  7  6  1  0
  8  7  1  0
  9 13  1  0
  9  8  1  0
 10 13  1  0
 10 11  1  0
 12 10  1  0
 13 15  1  0
 14 12  1  0
 16 12  1  0
 16 17  1  0
 17 18  1  0
 18 20  1  0
 18 21  1  0
 19 18  1  0
 21 22  1  0
 22 31  1  0
 23 29  1  0
 23 31  1  0
 24 29  1  0
 25 26  1  0
 25 24  1  0
 27 26  1  0
 27 36  1  0
 27 28  1  0
 29 28  1  0
 30 23  2  0
 31 32  1  0
 33 34  2  0
 34 53  1  0
 35 38  1  0
 35 34  1  0
 36 37  1  0
 36 33  1  0
 37 35  2  0
 38 39  1  0
 39 40  2  0
 41 44  1  0
 41 40  1  0
 42 41  2  0
 43 42  1  0
 43 38  2  0
 44 45  1  0
 45 50  2  0
 45 46  1  0
 46 47  2  0
 47 48  1  0
 48 52  1  0
 49 48  2  0
 50 49  1  0
 51 50  1  0
 53 54  1  0
 54 56  1  0
 54 57  1  0
 55 53  2  0
 58 33  1  0
 58 59  1  0
 60 58  1  0
 61 62  1  0
 62 63  1  0
 63 65  1  0
 63 66  1  0
 64 62  2  0
 66 67  1  0
 67 69  2  0
 68 67  1  0
 70 68  1  0
 71 68  1  0
 72 74  2  0
 72 71  1  0
 73 72  1  0
 75 73  1  0
 76 73  1  0
 77 76  1  0
 78 77  1  0
 79 81  1  0
 79 78  1  0
 80 91  2  0
 81 86  1  0
 82 90  1  0
 82 92  1  0
 83 89  1  0
 83 85  1  0
 84 90  1  0
 85 84  1  0
 86 85  2  0
 87 88  1  0
 87 81  2  0
 88 83  2  0
 89 82  1  0
 90 80  1  0
 92 94  2  0
 93 92  1  0
 95 93  1  0
 96101  1  0
 97 93  1  0
 98 97  1  0
 99100  1  0
 99 98  1  0
100 96  1  0
101 97  1  0
101102  2  0
103102  1  0
104103  2  0
105 96  2  0
105104  1  0
106 80  1  0
106111  1  0
106107  1  0
107110  1  1
107108  1  0
109107  1  0
111114  1  0
112111  1  0
112116  1  0
113112  2  0
116115  1  0
116118  1  0
118119  1  0
118117  1  0
M  ISO  4  23 100  31 100  78 101  79 101
M  END
>  <TORSDO>  (46) 
F 37

>  <SCORE>  (46) 
-8.583

>  <name>  (46) 
49

>  <ligand_id>  (46) 
49

>  <original_smiles>  (46) 
[H]c1c([H])c([H])c2c(c1[H])C([H])([H])C([H])([H])C([H])([H])C2([H])N([H])C(=O)C1([H])N(C(=O)C([H])(N([H])C(=O)C([H])(N([H])C([H])([H])[H])C([H])([H])[H])C(C([H])([H])[H])(C([H])([H])[H])C([H])([H])[H])C([H])([H])c2c([H])c(OC([H])([H])C([H])([H])C([H])([H])N([H])C(=O)C([H])([H])N([H])C(=O)C([H])([H])N([H])C(=O)C([H])([H])C([H])([H])[N+]([H])([H])C([H])([H])C([H])([H])C([H])([H])C([H])([H])C([H])([H])[N+]([H])=C(N([H])C([H])([H])C([H])([H])[N+]([H])([H])C([H])([H])C([H])([H])N([H])C(=O)N3C([H])([H])C([H])([H])C([H])([H])C([H])(n4nc(-c5c([H])c([H])c(Oc6c([H])c([H])c(F)c([H])c6F)c([H])c5[H])c(C(=O)N([H])[H])c4N([H])[H])C3([H])[H])C([H])([H])[H])c([H])c([H])c2C1([H])[H]

>  <smiles>  (46) 
[H]c1c([H])c([H])c2c(c1[H])C([H])([H])C([H])([H])C([H])([H])C2([H])N([H])C(=O)C1([H])N(C(=O)C([H])(N([H])C(=O)C([H])(N([H])C([H])([H])[H])C([H])([H])[H])C(C([H])([H])[H])(C([H])([H])[H])C([H])([H])[H])C([H])([H])c2c([H])c(OC([H])([H])C([H])([H])C([H])([H])N([H])C(=O)C([H])([H])N([H])C(=O)C([H])([H])N([H])C(=O)C([H])([H])C([H])([H])[N+]([H])([H])C([H])([H])C([H])([H])C([H])([H])C([H])([H])C([H])([H])[N+]([H])=C(N([H])C([H])([H])C([H])([H])[N+]([H])([H])C([H])([H])C([H])([H])N([H])C(=O)N3C([H])([H])C([H])([H])C([H])([H])C([H])(n4nc(-c5c([H])c([H])c(Oc6c([H])c([H])c(F)c([H])c6F)c([H])c5[H])c(C(=O)N([H])[H])c4N([H])[H])C3([H])[H])C([H])([H])[H])c([H])c([H])c2C1([H])[H]

$$$$
50:0:0
     RDKit          3D

105112  0  0  1  0  0  0  0  0999 V2000
  -32.8890  -26.8430   19.0170 C   0  0  0  0  0  2  0  0  0  0  0  0
  -31.6630  -27.3320   18.2180 C   0  0  0  0  0  2  0  0  0  0  0  0
  -31.4900  -26.6250   16.8620 C   0  0  0  0  0  2  0  0  0  0  0  0
  -30.4950  -24.3980   16.3330 C   0  0  0  0  0  0  0  0  0  0  0  0
  -31.3130  -25.1860   17.0430 N   0  0  0  0  0  0  0  0  0  0  0  0
  -29.8350  -24.8150   15.3780 O   0  0  0  0  0  0  0  0  0  0  0  0
  -31.8150  -24.7630   17.8100 H   0  0  0  0  0  0  0  0  0  0  0  0
  -30.3500  -22.9340   16.7910 C   0  0  0  0  0  2  0  0  0  0  0  0
  -29.2350  -22.7500   17.6730 O   0  0  0  0  0  0  0  0  0  0  0  0
  -29.3290  -23.3860   18.9440 C   0  0  0  0  0  2  0  0  0  0  0  0
  -28.4120  -24.6170   18.9700 C   0  0  0  0  0  2  0  0  0  0  0  0
  -28.4260  -25.3590   20.3110 C   0  0  0  0  0  2  0  0  0  0  0  0
  -28.4310  -26.7750   20.1200 O   0  0  0  0  0  0  0  0  0  0  0  0
  -24.6130  -31.8670   23.2090 C   0  0  0  0  0  0  0  0  0  0  0  0
  -27.2340  -27.4500   20.1060 C   0  0  0  0  0  0  0  0  0  0  0  0
  -23.4000  -30.4890   21.5500 C   0  0  0  0  0  3  0  0  0  0  0  0
  -24.8440  -28.9510   20.1190 C   0  0  0  0  0  0  0  0  0  0  0  0
  -25.9220  -30.8430   21.3500 C   0  0  0  0  0  2  0  0  0  0  0  0
  -26.0000  -29.4740   20.7100 C   0  0  0  0  0  0  0  0  0  0  0  0
  -27.1990  -28.7310   20.6970 C   0  0  0  0  0  3  0  0  0  0  0  0
  -26.0600  -26.9340   19.5120 C   0  0  0  0  0  3  0  0  0  0  0  0
  -24.8680  -27.6820   19.5160 C   0  0  0  0  0  3  0  0  0  0  0  0
  -23.6050  -29.8140   20.1660 C   0  0  0  0  0  2  0  0  0  0  0  0
  -24.6640  -31.0810   22.0970 N   0  0  0  0  0  0  0  0  0  0  0  0
  -23.5320  -32.1400   23.7500 O   0  0  0  0  0  0  0  0  0  0  0  0
  -22.7390  -29.4670   22.5010 C   0  0  0  0  0  0  0  0  0  0  0  0
  -21.4120  -29.3050   22.3750 N   0  0  0  0  0  0  0  0  0  0  0  0
  -23.4170  -28.8220   23.3050 O   0  0  0  0  0  0  0  0  0  0  0  0
  -20.9280  -29.8780   21.6980 H   0  0  0  0  0  0  0  0  0  0  0  0
  -18.0270  -28.1380   22.8490 C   0  0  0  0  0  0  0  0  0  0  0  0
  -20.5850  -28.3660   23.1330 C   0  0  0  0  0  3  0  0  0  0  0  0
  -20.6760  -26.9400   22.5420 C   0  0  0  0  0  2  0  0  0  0  0  0
  -19.5740  -26.6390   21.5210 C   0  0  0  0  0  2  0  0  0  0  0  0
  -18.1920  -26.7930   22.1620 C   0  0  0  0  0  2  0  0  0  0  0  0
  -19.1510  -28.8840   23.2910 C   0  0  0  0  0  0  0  0  0  0  0  0
  -18.9450  -30.1440   23.8920 C   0  0  0  0  0  3  0  0  0  0  0  0
  -17.6450  -30.6590   24.0580 C   0  0  0  0  0  3  0  0  0  0  0  0
  -16.5350  -29.9100   23.6320 C   0  0  0  0  0  3  0  0  0  0  0  0
  -16.7260  -28.6520   23.0340 C   0  0  0  0  0  3  0  0  0  0  0  0
  -25.9020  -32.4830   23.8400 C   0  0  0  0  0  3  0  0  0  0  0  0
  -26.4460  -31.6590   25.0700 C   0  0  1  0  0  0  0  0  0  0  0  0
  -25.3760  -31.3680   26.1490 C   0  0  0  0  0  1  0  0  0  0  0  0
  -27.0260  -30.3050   24.5990 C   0  0  0  0  0  1  0  0  0  0  0  0
  -27.6050  -32.4280   25.7470 C   0  0  0  0  0  1  0  0  0  0  0  0
  -25.5880  -33.8620   24.2330 N   0  0  0  0  0  0  0  0  0  0  0  0
  -25.9020  -34.9490   23.5140 C   0  0  0  0  0  0  0  0  0  0  0  0
  -26.5580  -34.8930   22.4700 O   0  0  0  0  0  0  0  0  0  0  0  0
  -25.0070  -33.9780   25.0510 H   0  0  0  0  0  0  0  0  0  0  0  0
  -24.1480  -36.7340   23.2640 C   0  0  0  0  0  1  0  0  0  0  0  0
  -25.4090  -36.3130   24.0350 C   0  0  0  0  0  3  0  0  0  0  0  0
  -27.5580  -37.1820   24.8460 C   0  0  0  0  0  1  0  0  0  0  0  0
  -26.4280  -37.3800   23.9410 N   0  0  0  0  0  0  0  0  0  0  0  0
  -26.0180  -38.2890   24.1410 H   0  0  0  0  0  0  0  0  0  0  0  0
  -32.5160  -25.9690   20.2290 C   0  0  0  0  0  2  0  0  0  0  0  0
  -33.6050  -24.9460   20.5920 C   0  0  0  0  0  2  0  0  0  0  0  0
  -33.3260  -24.1960   21.9080 C   0  0  0  0  0  2  0  0  0  0  0  0
  -32.1110  -23.2440   21.9140 C   0  0  0  0  0  2  0  0  0  0  0  0
  -31.6490  -20.8960   21.2480 C   0  0  0  0  0  0  0  0  0  0  0  0
  -32.3540  -22.0320   21.1380 N   0  0  0  0  0  0  0  0  0  0  0  0
  -30.6600  -20.8010   21.9820 O   0  0  0  0  0  0  0  0  0  0  0  0
  -33.1600  -22.0270   20.5290 H   0  0  0  0  0  0  0  0  0  0  0  0
  -32.1260  -19.6840   20.4260 C   0  0  0  0  0  2  0  0  0  0  0  0
  -30.9990  -17.5520   21.1000 C   0  0  0  0  0  0  0  0  0  0  0  0
  -32.0040  -18.4330   21.1790 N   0  0  0  0  0  0  0  0  0  0  0  0
  -30.0790  -17.6640   20.2870 O   0  0  0  0  0  0  0  0  0  0  0  0
  -32.7290  -18.2590   21.8630 H   0  0  0  0  0  0  0  0  0  0  0  0
  -31.0200  -16.3870   22.1040 C   0  0  0  0  0  2  0  0  0  0  0  0
  -30.7790  -14.3720   20.6610 C   0  0  0  0  0  0  0  0  0  0  0  0
  -30.4060  -12.2830   19.4020 C   0  0  0  0  0  2  0  0  0  0  0  0
  -29.4810  -12.5160   18.1920 C   0  0  0  0  0  2  0  0  0  0  0  0
  -28.0060  -12.3770   18.6090 C   0  0  0  0  0  2  0  0  0  0  0  0
  -27.6640  -13.2070   19.8760 C   0  0  0  0  0  3  0  0  0  0  0  0
  -28.7050  -12.9670   20.9920 C   0  0  0  0  0  2  0  0  0  0  0  0
  -30.0460  -13.2510   20.4480 N   0  0  0  0  0  0  0  0  0  0  0  0
  -31.8180  -14.6300   20.0470 O   0  0  0  0  0  0  0  0  0  0  0  0
  -30.3330  -15.1810   21.6300 N   0  0  0  0  0  0  0  0  0  0  0  0
  -29.4660  -14.9280   22.0780 H   0  0  0  0  0  0  0  0  0  0  0  0
  -25.2610  -13.8160   20.5680 C   0  0  0  0  0  0  0  0  0  0  0  0
  -24.1850  -13.0450   20.9160 C   0  0  0  0  0  0  0  0  0  0  0  0
  -24.6390  -11.6900   20.8730 C   0  0  0  0  0  0  0  0  0  0  0  0
  -26.3060  -12.9330   20.3380 N   0  0  0  0  0  0  0  0  0  0  0  0
  -25.9310  -11.6490   20.5760 N   0  0  0  0  0  0  0  0  0  0  0  0
  -23.9070  -10.4290   21.0380 C   0  0  0  0  0  0  0  0  0  0  0  0
  -24.3620   -9.4200   21.9150 C   0  0  0  0  0  3  0  0  0  0  0  0
  -23.6290   -8.2240   22.0740 C   0  0  0  0  0  3  0  0  0  0  0  0
  -22.4270   -8.0270   21.3540 C   0  0  0  0  0  0  0  0  0  0  0  0
  -21.9890   -9.0250   20.4640 C   0  0  0  0  0  3  0  0  0  0  0  0
  -22.7240  -10.2120   20.3030 C   0  0  0  0  0  3  0  0  0  0  0  0
  -21.6620   -6.8880   21.4240 O   0  0  0  0  0  0  0  0  0  0  0  0
  -21.6840   -6.0740   22.5280 C   0  0  0  0  0  0  0  0  0  0  0  0
  -21.4020   -6.5630   23.8230 C   0  0  0  0  0  3  0  0  0  0  0  0
  -21.3670   -5.6770   24.9180 C   0  0  0  0  0  3  0  0  0  0  0  0
  -21.6040   -4.3030   24.7210 C   0  0  0  0  0  0  0  0  0  0  0  0
  -21.8820   -3.8140   23.4330 C   0  0  0  0  0  3  0  0  0  0  0  0
  -21.9190   -4.6970   22.3400 C   0  0  0  0  0  0  0  0  0  0  0  0
  -22.1650   -4.2150   21.0970 F   0  0  0  0  0  0  0  0  0  0  0  0
  -21.5630   -3.4520   25.7730 F   0  0  0  0  0  0  0  0  0  0  0  0
  -22.7860  -13.5230   21.1830 C   0  0  0  0  0  0  0  0  0  0  0  0
  -22.0520  -12.8240   22.0390 N   0  0  0  0  0  0  0  0  0  0  0  0
  -22.3550  -14.5550   20.6670 O   0  0  0  0  0  0  0  0  0  0  0  0
  -22.4150  -11.9920   22.4800 H   0  0  0  0  0  0  0  0  0  0  0  0
  -21.1140  -13.1280   22.2610 H   0  0  0  0  0  0  0  0  0  0  0  0
  -25.4350  -15.1880   20.4050 N   0  0  0  0  0  0  0  0  0  0  0  0
  -24.6740  -15.8500   20.5100 H   0  0  0  0  0  0  0  0  0  0  0  0
  -26.2970  -15.6180   20.0940 H   0  0  0  0  0  0  0  0  0  0  0  0
  1 54  1  0
  2  1  1  0
  3  5  1  0
  3  2  1  0
  4  8  1  0
  4  5  1  0
  5  7  1  0
  6  4  2  0
  8  9  1  0
  9 10  1  0
 10 11  1  0
 11 12  1  0
 13 12  1  0
 14 25  2  0
 15 13  1  0
 15 20  1  0
 16 24  1  0
 16 26  1  0
 17 23  1  0
 17 19  1  0
 18 24  1  0
 19 18  1  0
 20 19  2  0
 21 22  1  0
 21 15  2  0
 22 17  2  0
 23 16  1  0
 24 14  1  0
 26 28  2  0
 27 26  1  0
 29 27  1  0
 30 39  2  0
 30 35  1  0
 31 27  1  0
 31 35  1  0
 32 31  1  0
 33 34  1  0
 33 32  1  0
 34 30  1  0
 35 36  2  0
 36 37  1  0
 38 37  2  0
 39 38  1  0
 40 14  1  0
 40 45  1  0
 40 41  1  0
 41 44  1  1
 41 42  1  0
 43 41  1  0
 45 48  1  0
 46 50  1  0
 46 45  1  0
 47 46  2  0
 50 49  1  0
 52 50  1  0
 52 53  1  0
 52 51  1  0
 54 55  1  0
 55 56  1  0
 56 57  1  0
 58 60  2  0
 59 58  1  0
 59 57  1  0
 61 59  1  0
 62 64  1  0
 62 58  1  0
 63 64  1  0
 63 67  1  0
 64 66  1  0
 65 63  2  0
 68 76  1  0
 69 74  1  0
 70 71  1  0
 70 69  1  0
 72 71  1  0
 72 81  1  0
 72 73  1  0
 74 68  1  0
 74 73  1  0
 75 68  2  0
 76 77  1  0
 76 67  1  0
 78 79  2  0
 79 98  1  0
 80 79  1  0
 80 83  1  0
 81 78  1  0
 81 82  1  0
 82 80  2  0
 83 84  1  0
 84 85  2  0
 86 89  1  0
 86 85  1  0
 87 86  2  0
 88 87  1  0
 88 83  2  0
 89 90  1  0
 90 91  1  0
 91 92  2  0
 93 92  1  0
 93 97  1  0
 94 93  2  0
 95 90  2  0
 95 94  1  0
 96 95  1  0
 98 99  1  0
 99102  1  0
 99101  1  0
100 98  2  0
103104  1  0
103 78  1  0
105103  1  0
M  ISO  4  12 101  13 101  68 100  76 100
M  END
>  <TORSDO>  (47) 
F 32

>  <SCORE>  (47) 
-6.388

>  <name>  (47) 
50

>  <ligand_id>  (47) 
50

>  <original_smiles>  (47) 
[H]c1c([H])c([H])c2c(c1[H])C([H])([H])C([H])([H])C([H])([H])C2([H])N([H])C(=O)C1([H])N(C(=O)C([H])(N([H])C(=O)C([H])(N([H])C([H])([H])[H])C([H])([H])[H])C(C([H])([H])[H])(C([H])([H])[H])C([H])([H])[H])C([H])([H])c2c([H])c(OC([H])([H])C([H])([H])C([H])([H])OC([H])([H])C(=O)N([H])C([H])([H])C([H])([H])C([H])([H])C([H])([H])C([H])([H])C([H])([H])C([H])([H])N([H])C(=O)C([H])([H])N([H])C(=O)C([H])([H])N([H])C(=O)N3C([H])([H])C([H])([H])C([H])([H])C([H])(n4nc(-c5c([H])c([H])c(Oc6c([H])c([H])c(F)c([H])c6F)c([H])c5[H])c(C(=O)N([H])[H])c4N([H])[H])C3([H])[H])c([H])c([H])c2C1([H])[H]

>  <smiles>  (47) 
[H]c1c([H])c([H])c2c(c1[H])C([H])([H])C([H])([H])C([H])([H])C2([H])N([H])C(=O)C1([H])N(C(=O)C([H])(N([H])C(=O)C([H])(N([H])C([H])([H])[H])C([H])([H])[H])C(C([H])([H])[H])(C([H])([H])[H])C([H])([H])[H])C([H])([H])c2c([H])c(OC([H])([H])C([H])([H])C([H])([H])OC([H])([H])C(=O)N([H])C([H])([H])C([H])([H])C([H])([H])C([H])([H])C([H])([H])C([H])([H])C([H])([H])N([H])C(=O)C([H])([H])N([H])C(=O)C([H])([H])N([H])C(=O)N3C([H])([H])C([H])([H])C([H])([H])C([H])(n4nc(-c5c([H])c([H])c(Oc6c([H])c([H])c(F)c([H])c6F)c([H])c5[H])c(C(=O)N([H])[H])c4N([H])[H])C3([H])[H])c([H])c([H])c2C1([H])[H]

$$$$
51:0:0
     RDKit          3D

112118  0  0  1  0  0  0  0  0999 V2000
  -29.0550  -27.7270   17.0260 C   0  0  0  0  0  2  0  0  0  0  0  0
  -30.1760  -26.7700   17.1960 N   0  0  0  0  0  4  0  0  0  0  0  0
  -30.3760  -26.3240   16.3130 H   0  0  0  0  0  0  0  0  0  0  0  0
  -29.8770  -26.0620   17.8550 H   0  0  0  0  0  0  0  0  0  0  0  0
  -31.4120  -27.4110   17.7120 C   0  0  0  0  0  2  0  0  0  0  0  0
  -32.5890  -26.4340   17.9630 C   0  0  0  0  0  2  0  0  0  0  0  0
  -32.2680  -25.3460   19.0050 C   0  0  0  0  0  2  0  0  0  0  0  0
  -33.1790  -24.1070   19.0070 C   0  0  0  0  0  2  0  0  0  0  0  0
  -32.6510  -23.0480   19.9970 C   0  0  0  0  0  2  0  0  0  0  0  0
  -32.5910  -20.5880   20.2470 C   0  0  0  0  0  0  0  0  0  0  0  0
  -33.0760  -21.6910   19.6580 N   0  0  0  0  0  0  0  0  0  0  0  0
  -31.7220  -20.6380   21.1210 O   0  0  0  0  0  0  0  0  0  0  0  0
  -33.7870  -21.5760   18.9480 H   0  0  0  0  0  0  0  0  0  0  0  0
  -33.1750  -19.2420   19.7920 C   0  0  0  0  0  2  0  0  0  0  0  0
  -31.6890  -17.4060   20.6140 C   0  0  0  0  0  0  0  0  0  0  0  0
  -32.8110  -18.1350   20.6820 N   0  0  0  0  0  0  0  0  0  0  0  0
  -30.8280  -17.5840   19.7500 O   0  0  0  0  0  0  0  0  0  0  0  0
  -33.4510  -17.9430   21.4390 H   0  0  0  0  0  0  0  0  0  0  0  0
  -31.5050  -16.3150   21.6820 C   0  0  0  0  0  2  0  0  0  0  0  0
  -31.2240  -14.3880   20.1420 C   0  0  0  0  0  0  0  0  0  0  0  0
  -30.6860  -12.5560   18.5860 C   0  0  0  0  0  2  0  0  0  0  0  0
  -29.6670  -13.0250   17.5300 C   0  0  0  0  0  2  0  0  0  0  0  0
  -28.2310  -12.8340   18.0490 C   0  0  0  0  0  2  0  0  0  0  0  0
  -28.0260  -13.4260   19.4690 C   0  0  0  0  0  3  0  0  0  0  0  0
  -29.1510  -12.9690   20.4240 C   0  0  0  0  0  2  0  0  0  0  0  0
  -30.4480  -13.3220   19.8170 N   0  0  0  0  0  0  0  0  0  0  0  0
  -32.2480  -14.6900   19.5230 O   0  0  0  0  0  0  0  0  0  0  0  0
  -30.8120  -15.1230   21.1820 N   0  0  0  0  0  0  0  0  0  0  0  0
  -29.9520  -14.8540   21.6320 H   0  0  0  0  0  0  0  0  0  0  0  0
  -25.6550  -13.9430   20.3350 C   0  0  0  0  0  0  0  0  0  0  0  0
  -24.6200  -13.1280   20.7040 C   0  0  0  0  0  0  0  0  0  0  0  0
  -25.0990  -11.7900   20.5620 C   0  0  0  0  0  0  0  0  0  0  0  0
  -26.7020  -13.0990   19.9950 N   0  0  0  0  0  0  0  0  0  0  0  0
  -26.3730  -11.7950   20.1880 N   0  0  0  0  0  0  0  0  0  0  0  0
  -24.4040  -10.5040   20.7030 C   0  0  0  0  0  0  0  0  0  0  0  0
  -24.8560   -9.5160   21.6050 C   0  0  0  0  0  3  0  0  0  0  0  0
  -24.1600   -8.2940   21.7370 C   0  0  0  0  0  3  0  0  0  0  0  0
  -22.9990   -8.0530   20.9660 C   0  0  0  0  0  0  0  0  0  0  0  0
  -22.5660   -9.0310   20.0530 C   0  0  0  0  0  3  0  0  0  0  0  0
  -23.2630  -10.2430   19.9190 C   0  0  0  0  0  3  0  0  0  0  0  0
  -22.2740   -6.8860   21.0090 O   0  0  0  0  0  0  0  0  0  0  0  0
  -22.1680   -6.1460   22.1590 C   0  0  0  0  0  0  0  0  0  0  0  0
  -21.5320   -6.6520   23.3140 C   0  0  0  0  0  3  0  0  0  0  0  0
  -21.3840   -5.8320   24.4520 C   0  0  0  0  0  3  0  0  0  0  0  0
  -21.8620   -4.5080   24.4340 C   0  0  0  0  0  0  0  0  0  0  0  0
  -22.4910   -4.0020   23.2820 C   0  0  0  0  0  3  0  0  0  0  0  0
  -22.6410   -4.8190   22.1470 C   0  0  0  0  0  0  0  0  0  0  0  0
  -23.2280   -4.3200   21.0330 F   0  0  0  0  0  0  0  0  0  0  0  0
  -21.7130   -3.7180   25.5220 F   0  0  0  0  0  0  0  0  0  0  0  0
  -23.2300  -13.5590   21.0770 C   0  0  0  0  0  0  0  0  0  0  0  0
  -22.5740  -12.8160   21.9620 N   0  0  0  0  0  0  0  0  0  0  0  0
  -22.7360  -14.5900   20.6200 O   0  0  0  0  0  0  0  0  0  0  0  0
  -22.9870  -11.9820   22.3520 H   0  0  0  0  0  0  0  0  0  0  0  0
  -21.6450  -13.0850   22.2530 H   0  0  0  0  0  0  0  0  0  0  0  0
  -25.7910  -15.3250   20.2390 N   0  0  0  0  0  0  0  0  0  0  0  0
  -25.0250  -15.9600   20.4340 H   0  0  0  0  0  0  0  0  0  0  0  0
  -26.6230  -15.7970   19.9090 H   0  0  0  0  0  0  0  0  0  0  0  0
  -27.7020  -27.1080   16.5580 C   0  0  0  0  0  2  0  0  0  0  0  0
  -26.9730  -25.9640   17.4090 C   0  0  0  0  0  1  0  0  0  0  0  0
  -25.9910  -25.9090   20.4830 C   0  0  0  0  0  1  0  0  0  0  0  0
  -25.5450  -24.6800   21.3990 C   0  0  0  0  0  2  0  0  0  0  0  0
  -25.5240  -24.9750   22.9200 C   0  0  0  0  0  2  0  0  0  0  0  0
  -27.8300  -25.6570   23.5830 C   0  0  0  0  0  0  0  0  0  0  0  0
  -26.5420  -25.9390   23.3470 N   0  0  0  0  0  0  0  0  0  0  0  0
  -28.3120  -24.5370   23.4000 O   0  0  0  0  0  0  0  0  0  0  0  0
  -26.2310  -26.8820   23.5310 H   0  0  0  0  0  0  0  0  0  0  0  0
  -28.7190  -26.7930   24.1140 C   0  0  0  0  0  2  0  0  0  0  0  0
  -29.7940  -27.0940   23.2210 O   0  0  0  0  0  0  0  0  0  0  0  0
  -29.4510  -27.8440   22.0600 C   0  0  0  0  0  2  0  0  0  0  0  0
  -28.9780  -26.9020   20.9500 C   0  0  0  0  0  2  0  0  0  0  0  0
  -28.8220  -27.6130   19.6010 C   0  0  0  0  0  2  0  0  0  0  0  0
  -27.6070  -27.1660   19.0020 O   0  0  0  0  0  0  0  0  0  0  0  0
  -24.6040  -32.5160   23.1830 C   0  0  0  0  0  0  0  0  0  0  0  0
  -26.5300  -27.9330   19.2800 C   0  0  0  0  0  0  0  0  0  0  0  0
  -22.9660  -31.3380   21.7430 C   0  0  0  0  0  3  0  0  0  0  0  0
  -23.8490  -29.8370   19.9390 C   0  0  0  0  0  0  0  0  0  0  0  0
  -25.4390  -31.6650   21.0440 C   0  0  0  0  0  2  0  0  0  0  0  0
  -25.3600  -30.3660   20.3550 C   0  0  0  0  0  0  0  0  0  0  0  0
  -26.7140  -29.4270   20.0570 C   0  0  0  0  0  3  0  0  0  0  0  0
  -24.9870  -27.3920   18.8420 C   0  0  0  0  0  3  0  0  0  0  0  0
  -23.6400  -28.3640   19.1680 C   0  0  0  0  0  3  0  0  0  0  0  0
  -22.7590  -30.7770   20.3080 C   0  0  0  0  0  2  0  0  0  0  0  0
  -24.3650  -31.8280   22.0380 N   0  0  0  0  0  0  0  0  0  0  0  0
  -23.6820  -32.8080   23.9550 O   0  0  0  0  0  0  0  0  0  0  0  0
  -22.4460  -30.2940   22.7570 C   0  0  0  0  0  0  0  0  0  0  0  0
  -21.2610  -29.7300   22.4840 N   0  0  0  0  0  0  0  0  0  0  0  0
  -23.0930  -30.0010   23.7630 O   0  0  0  0  0  0  0  0  0  0  0  0
  -20.7710  -30.0310   21.6530 H   0  0  0  0  0  0  0  0  0  0  0  0
  -18.2180  -27.8340   22.7970 C   0  0  0  0  0  0  0  0  0  0  0  0
  -20.5960  -28.7130   23.2900 C   0  0  0  0  0  3  0  0  0  0  0  0
  -21.0910  -27.3010   22.9080 C   0  0  0  0  0  2  0  0  0  0  0  0
  -20.2230  -26.6280   21.8420 C   0  0  0  0  0  2  0  0  0  0  0  0
  -18.7780  -26.5020   22.3300 C   0  0  0  0  0  2  0  0  0  0  0  0
  -19.0750  -28.8780   23.2380 C   0  0  0  0  0  0  0  0  0  0  0  0
  -18.5110  -30.1100   23.6320 C   0  0  0  0  0  3  0  0  0  0  0  0
  -17.1170  -30.3050   23.6000 C   0  0  0  0  0  3  0  0  0  0  0  0
  -16.2720  -29.2650   23.1780 C   0  0  0  0  0  3  0  0  0  0  0  0
  -16.8220  -28.0340   22.7780 C   0  0  0  0  0  3  0  0  0  0  0  0
  -26.0390  -33.0060   23.5600 C   0  0  0  0  0  3  0  0  0  0  0  0
  -26.8820  -31.9230   24.3340 C   0  0  1  0  0  0  0  0  0  0  0  0
  -26.0620  -31.1260   25.3730 C   0  0  0  0  0  1  0  0  0  0  0  0
  -27.5120  -30.9140   23.3410 C   0  0  0  0  0  1  0  0  0  0  0  0
  -28.0520  -32.6110   25.0750 C   0  0  0  0  0  1  0  0  0  0  0  0
  -25.8860  -34.2320   24.3460 N   0  0  0  0  0  0  0  0  0  0  0  0
  -26.0460  -35.4680   23.8520 C   0  0  0  0  0  0  0  0  0  0  0  0
  -26.4150  -35.6900   22.6950 O   0  0  0  0  0  0  0  0  0  0  0  0
  -25.5360  -34.1290   25.2860 H   0  0  0  0  0  0  0  0  0  0  0  0
  -24.3580  -37.2190   24.4760 C   0  0  0  0  0  1  0  0  0  0  0  0
  -25.7470  -36.6450   24.7950 C   0  0  0  0  0  3  0  0  0  0  0  0
  -28.0580  -37.3320   25.2610 C   0  0  0  0  0  1  0  0  0  0  0  0
  -26.7570  -37.7230   24.7260 N   0  0  0  0  0  0  0  0  0  0  0  0
  -26.4380  -38.5450   25.2310 H   0  0  0  0  0  0  0  0  0  0  0  0
  1  2  1  0
  2  5  1  0
  2  4  1  0
  3  2  1  0
  5  6  1  0
  6  7  1  0
  7  8  1  0
  8  9  1  0
 10 12  2  0
 11  9  1  0
 11 10  1  0
 13 11  1  0
 14 10  1  0
 14 16  1  0
 15 16  1  0
 15 19  1  0
 16 18  1  0
 17 15  2  0
 20 28  1  0
 21 26  1  0
 22 23  1  0
 22 21  1  0
 24 23  1  0
 24 33  1  0
 24 25  1  0
 26 20  1  0
 26 25  1  0
 27 20  2  0
 28 29  1  0
 28 19  1  0
 30 31  2  0
 31 50  1  0
 32 35  1  0
 32 31  1  0
 33 34  1  0
 33 30  1  0
 34 32  2  0
 35 36  1  0
 36 37  2  0
 38 41  1  0
 38 37  1  0
 39 38  2  0
 40 39  1  0
 40 35  2  0
 41 42  1  0
 42 43  1  0
 43 44  2  0
 45 44  1  0
 45 49  1  0
 46 45  2  0
 47 42  2  0
 47 46  1  0
 48 47  1  0
 50 51  1  0
 51 54  1  0
 51 53  1  0
 52 50  2  0
 55 30  1  0
 55 56  1  0
 57 55  1  0
 58  1  1  0
 58 59  1  0
 60 61  1  0
 61 62  1  0
 62 64  1  0
 63 67  1  0
 64 66  1  0
 64 63  1  0
 65 63  2  0
 68 67  1  0
 69 68  1  0
 70 69  1  0
 71 70  1  0
 72 74  1  0
 72 71  1  0
 73 84  2  0
 74 79  1  0
 75 83  1  0
 75 85  1  0
 76 82  1  0
 76 78  1  0
 77 83  1  0
 78 77  1  0
 79 78  2  0
 80 81  1  0
 80 74  2  0
 81 76  2  0
 82 75  1  0
 83 73  1  0
 85 87  2  0
 86 85  1  0
 88 86  1  0
 89 94  1  0
 90 86  1  0
 91 90  1  0
 92 93  1  0
 92 91  1  0
 93 89  1  0
 94 90  1  0
 94 95  2  0
 96 95  1  0
 97 96  2  0
 98 89  2  0
 98 97  1  0
 99 73  1  0
 99100  1  0
 99104  1  0
100103  1  1
100101  1  0
102100  1  0
104107  1  0
105104  1  0
105109  1  0
106105  2  0
109108  1  0
111109  1  0
111112  1  0
111110  1  0
M  ISO  4  20 100  28 100  71 101  72 101
M  END
>  <TORSDO>  (48) 
F 37

>  <SCORE>  (48) 
-6.457

>  <name>  (48) 
51

>  <ligand_id>  (48) 
51

>  <original_smiles>  (48) 
[H]c1c([H])c([H])c2c(c1[H])C([H])([H])C([H])([H])C([H])([H])C2([H])N([H])C(=O)C1([H])N(C(=O)C([H])(N([H])C(=O)C([H])(N([H])C([H])([H])[H])C([H])([H])[H])C(C([H])([H])[H])(C([H])([H])[H])C([H])([H])[H])C([H])([H])c2c([H])c(OC([H])([H])C([H])([H])C([H])([H])OC([H])([H])C(=O)N([H])C([H])([H])C([H])([H])C([H])([H])C([H])([H])C([H])([H])C([H])([H])[N+]([H])([H])C([H])([H])C([H])([H])C([H])([H])C([H])([H])C([H])([H])N([H])C(=O)C([H])([H])N([H])C(=O)C([H])([H])N([H])C(=O)N3C([H])([H])C([H])([H])C([H])([H])C([H])(n4nc(-c5c([H])c([H])c(Oc6c([H])c([H])c(F)c([H])c6F)c([H])c5[H])c(C(=O)N([H])[H])c4N([H])[H])C3([H])[H])c([H])c([H])c2C1([H])[H]

>  <smiles>  (48) 
[H]c1c([H])c([H])c2c(c1[H])C([H])([H])C([H])([H])C([H])([H])C2([H])N([H])C(=O)C1([H])N(C(=O)C([H])(N([H])C(=O)C([H])(N([H])C([H])([H])[H])C([H])([H])[H])C(C([H])([H])[H])(C([H])([H])[H])C([H])([H])[H])C([H])([H])c2c([H])c(OC([H])([H])C([H])([H])C([H])([H])OC([H])([H])C(=O)N([H])C([H])([H])C([H])([H])C([H])([H])C([H])([H])C([H])([H])C([H])([H])[N+]([H])([H])C([H])([H])C([H])([H])C([H])([H])C([H])([H])C([H])([H])N([H])C(=O)C([H])([H])N([H])C(=O)C([H])([H])N([H])C(=O)N3C([H])([H])C([H])([H])C([H])([H])C([H])(n4nc(-c5c([H])c([H])c(Oc6c([H])c([H])c(F)c([H])c6F)c([H])c5[H])c(C(=O)N([H])[H])c4N([H])[H])C3([H])[H])c([H])c([H])c2C1([H])[H]

$$$$
52:0:0
     RDKit          3D

108115  0  0  1  0  0  0  0  0999 V2000
  -30.0130  -27.8720   23.5000 N   0  0  0  0  0  4  0  0  0  0  0  0
  -29.7650  -28.3150   24.3730 H   0  0  0  0  0  0  0  0  0  0  0  0
  -30.7920  -27.2620   23.6820 H   0  0  0  0  0  0  0  0  0  0  0  0
  -28.8900  -27.0270   23.0380 C   0  0  0  0  0  2  0  0  0  0  0  0
  -29.1530  -25.5490   23.3800 C   0  0  0  0  0  2  0  0  0  0  0  0
  -29.5890  -24.7250   22.1510 C   0  0  0  0  0  2  0  0  0  0  0  0
  -30.1910  -23.3570   22.5130 C   0  0  0  0  0  2  0  0  0  0  0  0
  -29.8190  -22.2730   21.4880 C   0  0  0  0  0  2  0  0  0  0  0  0
  -31.2040  -20.5030   20.4270 C   0  0  0  0  0  0  0  0  0  0  0  0
  -30.7820  -21.1750   21.5080 N   0  0  0  0  0  0  0  0  0  0  0  0
  -30.7960  -20.7430   19.2870 O   0  0  0  0  0  0  0  0  0  0  0  0
  -31.1570  -20.8990   22.4060 H   0  0  0  0  0  0  0  0  0  0  0  0
  -32.2450  -19.4030   20.6540 C   0  0  0  0  0  2  0  0  0  0  0  0
  -33.8910  -18.2300   19.2170 C   0  0  0  0  0  0  0  0  0  0  0  0
  -33.0920  -19.2640   19.4760 N   0  0  0  0  0  0  0  0  0  0  0  0
  -34.0100  -17.2750   19.9900 O   0  0  0  0  0  0  0  0  0  0  0  0
  -33.0200  -20.0210   18.8060 H   0  0  0  0  0  0  0  0  0  0  0  0
  -34.6770  -18.2660   17.9060 C   0  0  0  0  0  2  0  0  0  0  0  0
  -35.1950  -16.3740   16.3640 C   0  0  0  0  0  0  0  0  0  0  0  0
  -35.6630  -14.3080   15.0970 C   0  0  0  0  0  2  0  0  0  0  0  0
  -34.3790  -13.5070   14.8150 C   0  0  0  0  0  2  0  0  0  0  0  0
  -34.0390  -12.5770   15.9950 C   0  0  0  0  0  2  0  0  0  0  0  0
  -34.0710  -13.3120   17.3590 C   0  0  0  0  0  3  0  0  0  0  0  0
  -35.3720  -14.1310   17.5060 C   0  0  0  0  0  2  0  0  0  0  0  0
  -35.4850  -15.0470   16.3540 N   0  0  0  0  0  0  0  0  0  0  0  0
  -35.0560  -17.0530   15.3420 O   0  0  0  0  0  0  0  0  0  0  0  0
  -35.1180  -16.9160   17.5790 N   0  0  0  0  0  0  0  0  0  0  0  0
  -35.2360  -16.3030   18.3720 H   0  0  0  0  0  0  0  0  0  0  0  0
  -33.0180  -12.4540   19.5480 C   0  0  0  0  0  0  0  0  0  0  0  0
  -33.1960  -11.2950   20.2560 C   0  0  0  0  0  0  0  0  0  0  0  0
  -34.1850  -10.5490   19.5460 C   0  0  0  0  0  0  0  0  0  0  0  0
  -33.8870  -12.3800   18.4700 N   0  0  0  0  0  0  0  0  0  0  0  0
  -34.6270  -11.2420   18.5030 N   0  0  0  0  0  0  0  0  0  0  0  0
  -34.6980   -9.1910   19.7660 C   0  0  0  0  0  0  0  0  0  0  0  0
  -36.0730   -8.9460   19.9750 C   0  0  0  0  0  3  0  0  0  0  0  0
  -36.5400   -7.6320   20.2020 C   0  0  0  0  0  3  0  0  0  0  0  0
  -35.6290   -6.5500   20.2210 C   0  0  0  0  0  0  0  0  0  0  0  0
  -34.2640   -6.7970   19.9870 C   0  0  0  0  0  3  0  0  0  0  0  0
  -33.8020   -8.1030   19.7590 C   0  0  0  0  0  3  0  0  0  0  0  0
  -35.9920   -5.2380   20.4080 O   0  0  0  0  0  0  0  0  0  0  0  0
  -37.1540   -4.8990   21.0530 C   0  0  0  0  0  0  0  0  0  0  0  0
  -37.3690   -5.2140   22.4120 C   0  0  0  0  0  3  0  0  0  0  0  0
  -38.5470   -4.7860   23.0550 C   0  0  0  0  0  3  0  0  0  0  0  0
  -39.5050   -4.0360   22.3460 C   0  0  0  0  0  0  0  0  0  0  0  0
  -39.2890   -3.7180   20.9930 C   0  0  0  0  0  3  0  0  0  0  0  0
  -38.1160   -4.1460   20.3510 C   0  0  0  0  0  0  0  0  0  0  0  0
  -37.9010   -3.8180   19.0540 F   0  0  0  0  0  0  0  0  0  0  0  0
  -40.6340   -3.6180   22.9640 F   0  0  0  0  0  0  0  0  0  0  0  0
  -32.4270  -10.8590   21.4700 C   0  0  0  0  0  0  0  0  0  0  0  0
  -33.1270  -10.4070   22.5050 N   0  0  0  0  0  0  0  0  0  0  0  0
  -31.2030  -10.9660   21.5260 O   0  0  0  0  0  0  0  0  0  0  0  0
  -34.1340  -10.3440   22.4660 H   0  0  0  0  0  0  0  0  0  0  0  0
  -32.6500  -10.1220   23.3480 H   0  0  0  0  0  0  0  0  0  0  0  0
  -32.1810  -13.5530   19.7210 N   0  0  0  0  0  0  0  0  0  0  0  0
  -31.5070  -13.6120   20.4770 H   0  0  0  0  0  0  0  0  0  0  0  0
  -32.1580  -14.3570   19.1060 H   0  0  0  0  0  0  0  0  0  0  0  0
  -30.4850  -28.8920   22.5430 C   0  0  0  0  0  2  0  0  0  0  0  0
  -31.9380  -28.6120   22.1020 C   0  0  0  0  0  2  0  0  0  0  0  0
  -32.1170  -27.3710   21.1980 C   0  0  0  0  0  2  0  0  0  0  0  0
  -31.5720  -27.5390   19.7670 C   0  0  0  0  0  2  0  0  0  0  0  0
  -31.8930  -26.3350   18.8620 C   0  0  0  0  0  2  0  0  0  0  0  0
  -31.1380  -26.3500   17.5190 C   0  0  0  0  0  2  0  0  0  0  0  0
  -28.7090  -26.7160   17.9770 C   0  0  0  0  0  0  0  0  0  0  0  0
  -29.9160  -27.1460   17.5890 N   0  0  0  0  0  0  0  0  0  0  0  0
  -28.4800  -25.5360   18.2580 O   0  0  0  0  0  0  0  0  0  0  0  0
  -29.9990  -28.1270   17.3510 H   0  0  0  0  0  0  0  0  0  0  0  0
  -27.6180  -27.7840   18.0930 C   0  0  0  0  0  2  0  0  0  0  0  0
  -26.4060  -27.3400   17.4830 O   0  0  0  0  0  0  0  0  0  0  0  0
  -22.7640  -27.7350   23.6150 C   0  0  0  0  0  0  0  0  0  0  0  0
  -25.2250  -27.6000   18.1460 C   0  0  0  0  0  0  0  0  0  0  0  0
  -21.4110  -27.7960   21.5390 C   0  0  0  0  0  3  0  0  0  0  0  0
  -22.7250  -28.1010   19.3730 C   0  0  0  0  0  0  0  0  0  0  0  0
  -23.8130  -28.6600   21.5570 C   0  0  0  0  0  2  0  0  0  0  0  0
  -23.9070  -28.2410   20.1080 C   0  0  0  0  0  0  0  0  0  0  0  0
  -25.1550  -27.9970   19.5030 C   0  0  0  0  0  3  0  0  0  0  0  0
  -24.0250  -27.4610   17.4180 C   0  0  0  0  0  3  0  0  0  0  0  0
  -22.7750  -27.7070   18.0230 C   0  0  0  0  0  3  0  0  0  0  0  0
  -21.4330  -28.3930   20.1050 C   0  0  0  0  0  2  0  0  0  0  0  0
  -22.6880  -28.0330   22.2860 N   0  0  0  0  0  0  0  0  0  0  0  0
  -21.7760  -27.3150   24.2310 O   0  0  0  0  0  0  0  0  0  0  0  0
  -21.0280  -26.3030   21.4410 C   0  0  0  0  0  0  0  0  0  0  0  0
  -20.1600  -25.9740   20.4700 N   0  0  0  0  0  0  0  0  0  0  0  0
  -21.5260  -25.4700   22.2020 O   0  0  0  0  0  0  0  0  0  0  0  0
  -19.7910  -26.7180   19.8950 H   0  0  0  0  0  0  0  0  0  0  0  0
  -18.7840  -23.9050   17.8500 C   0  0  0  0  0  0  0  0  0  0  0  0
  -19.6850  -24.6260   20.1630 C   0  0  0  0  0  3  0  0  0  0  0  0
  -20.8680  -23.6690   19.8870 C   0  0  0  0  0  2  0  0  0  0  0  0
  -21.2310  -23.5710   18.4020 C   0  0  0  0  0  2  0  0  0  0  0  0
  -20.0310  -23.0800   17.5870 C   0  0  0  0  0  2  0  0  0  0  0  0
  -18.6280  -24.6440   19.0530 C   0  0  0  0  0  0  0  0  0  0  0  0
  -17.4660  -25.4250   19.2320 C   0  0  0  0  0  3  0  0  0  0  0  0
  -16.4700  -25.4710   18.2380 C   0  0  0  0  0  3  0  0  0  0  0  0
  -16.6210  -24.7250   17.0570 C   0  0  0  0  0  3  0  0  0  0  0  0
  -17.7730  -23.9410   16.8680 C   0  0  0  0  0  3  0  0  0  0  0  0
  -24.0860  -27.9300   24.4260 C   0  0  0  0  0  3  0  0  0  0  0  0
  -25.3230  -27.1820   23.7930 C   0  0  1  0  0  0  0  0  0  0  0  0
  -24.9460  -25.8920   23.0290 C   0  0  0  0  0  1  0  0  0  0  0  0
  -26.0770  -28.1090   22.8090 C   0  0  0  0  0  1  0  0  0  0  0  0
  -26.3310  -26.8020   24.9040 C   0  0  0  0  0  1  0  0  0  0  0  0
  -23.8360  -27.4610   25.7950 N   0  0  0  0  0  0  0  0  0  0  0  0
  -24.3860  -27.9950   26.8940 C   0  0  0  0  0  0  0  0  0  0  0  0
  -25.2260  -28.8970   26.8510 O   0  0  0  0  0  0  0  0  0  0  0  0
  -23.1200  -26.7570   25.9080 H   0  0  0  0  0  0  0  0  0  0  0  0
  -23.1350  -28.5140   29.0110 C   0  0  0  0  0  1  0  0  0  0  0  0
  -23.9330  -27.4390   28.2570 C   0  0  0  0  0  3  0  0  0  0  0  0
  -25.6740  -25.7420   28.5990 C   0  0  0  0  0  1  0  0  0  0  0  0
  -25.0520  -26.9640   29.1000 N   0  0  0  0  0  0  0  0  0  0  0  0
  -24.7390  -26.7930   30.0510 H   0  0  0  0  0  0  0  0  0  0  0  0
  1  3  1  0
  1  2  1  0
  4  5  1  0
  4  1  1  0
  6  7  1  0
  6  5  1  0
  8 10  1  0
  8  7  1  0
  9 13  1  0
  9 10  1  0
 10 12  1  0
 11  9  2  0
 14 15  1  0
 14 16  2  0
 15 13  1  0
 17 15  1  0
 18 14  1  0
 19 27  1  0
 20 25  1  0
 21 20  1  0
 21 22  1  0
 23 22  1  0
 23 24  1  0
 23 32  1  0
 25 19  1  0
 25 24  1  0
 26 19  2  0
 27 18  1  0
 27 28  1  0
 29 54  1  0
 29 30  2  0
 30 49  1  0
 31 34  1  0
 31 30  1  0
 32 33  1  0
 32 29  1  0
 33 31  2  0
 34 35  1  0
 35 36  2  0
 36 37  1  0
 37 40  1  0
 38 37  2  0
 39 34  2  0
 39 38  1  0
 40 41  1  0
 41 42  1  0
 42 43  2  0
 44 48  1  0
 44 43  1  0
 45 44  2  0
 46 45  1  0
 46 41  2  0
 47 46  1  0
 49 51  2  0
 49 50  1  0
 50 53  1  0
 52 50  1  0
 54 55  1  0
 56 54  1  0
 57  1  1  0
 58 57  1  0
 59 58  1  0
 60 59  1  0
 61 60  1  0
 62 64  1  0
 62 61  1  0
 63 67  1  0
 63 65  2  0
 64 63  1  0
 66 64  1  0
 68 67  1  0
 68 70  1  0
 69 80  2  0
 70 75  1  0
 71 81  1  0
 71 79  1  0
 72 78  1  0
 72 74  1  0
 73 79  1  0
 74 73  1  0
 75 74  2  0
 76 77  1  0
 76 70  2  0
 77 72  2  0
 78 71  1  0
 79 69  1  0
 81 83  2  0
 82 81  1  0
 84 82  1  0
 85 90  1  0
 86 82  1  0
 87 86  1  0
 88 87  1  0
 89 85  1  0
 89 88  1  0
 90 91  2  0
 90 86  1  0
 92 91  1  0
 93 92  2  0
 94 93  1  0
 94 85  2  0
 95 69  1  0
 95100  1  0
 96 95  1  0
 96 99  1  1
 97 96  1  0
 98 96  1  0
100103  1  0
100101  1  0
101105  1  0
102101  2  0
105104  1  0
105107  1  0
106107  1  0
107108  1  0
M  ISO  4  19 100  27 100  67 101  68 101
M  END
>  <TORSDO>  (49) 
F 33

>  <SCORE>  (49) 
-5.003

>  <name>  (49) 
52

>  <ligand_id>  (49) 
52

>  <original_smiles>  (49) 
[H]c1c([H])c([H])c2c(c1[H])C([H])([H])C([H])([H])C([H])([H])C2([H])N([H])C(=O)C1([H])N(C(=O)C([H])(N([H])C(=O)C([H])(N([H])C([H])([H])[H])C([H])([H])[H])C(C([H])([H])[H])(C([H])([H])[H])C([H])([H])[H])C([H])([H])c2c([H])c(OC([H])([H])C(=O)N([H])C([H])([H])C([H])([H])C([H])([H])C([H])([H])C([H])([H])C([H])([H])[N+]([H])([H])C([H])([H])C([H])([H])C([H])([H])C([H])([H])C([H])([H])N([H])C(=O)C([H])([H])N([H])C(=O)C([H])([H])N([H])C(=O)N3C([H])([H])C([H])([H])C([H])([H])C([H])(n4nc(-c5c([H])c([H])c(Oc6c([H])c([H])c(F)c([H])c6F)c([H])c5[H])c(C(=O)N([H])[H])c4N([H])[H])C3([H])[H])c([H])c([H])c2C1([H])[H]

>  <smiles>  (49) 
[H]c1c([H])c([H])c2c(c1[H])C([H])([H])C([H])([H])C([H])([H])C2([H])N([H])C(=O)C1([H])N(C(=O)C([H])(N([H])C(=O)C([H])(N([H])C([H])([H])[H])C([H])([H])[H])C(C([H])([H])[H])(C([H])([H])[H])C([H])([H])[H])C([H])([H])c2c([H])c(OC([H])([H])C(=O)N([H])C([H])([H])C([H])([H])C([H])([H])C([H])([H])C([H])([H])C([H])([H])[N+]([H])([H])C([H])([H])C([H])([H])C([H])([H])C([H])([H])C([H])([H])N([H])C(=O)C([H])([H])N([H])C(=O)C([H])([H])N([H])C(=O)N3C([H])([H])C([H])([H])C([H])([H])C([H])(n4nc(-c5c([H])c([H])c(Oc6c([H])c([H])c(F)c([H])c6F)c([H])c5[H])c(C(=O)N([H])[H])c4N([H])[H])C3([H])[H])c([H])c([H])c2C1([H])[H]

$$$$
53:0:0
     RDKit          3D

105112  0  0  1  0  0  0  0  0999 V2000
  -28.6540  -11.0590   23.6430 C   0  0  0  0  0  0  0  0  0  0  0  0
  -28.1990  -12.2860   23.0920 N   0  0  0  0  0  0  0  0  0  0  0  0
  -29.6540  -11.1380   24.3560 O   0  0  0  0  0  0  0  0  0  0  0  0
  -27.4260  -12.1030   22.4570 H   0  0  0  0  0  0  0  0  0  0  0  0
  -28.7780  -13.7480   22.9130 C   0  0  0  0  0  2  0  0  0  0  0  0
  -28.6280  -14.6720   21.5450 C   0  0  0  0  0  0  0  0  0  0  0  0
  -29.6320  -15.4320   20.8870 N   0  0  0  0  0  0  0  0  0  0  0  0
  -27.4820  -14.7480   21.1020 O   0  0  0  0  0  0  0  0  0  0  0  0
  -30.5120  -15.4700   21.3820 H   0  0  0  0  0  0  0  0  0  0  0  0
  -29.6880  -16.0330   19.4290 C   0  0  0  0  0  2  0  0  0  0  0  0
  -30.5010  -17.4150   18.9330 C   0  0  0  0  0  3  0  0  0  0  0  0
  -31.1680  -17.6440   17.4040 C   0  0  0  0  0  3  0  0  0  0  0  0
  -31.6860  -19.0930   16.7380 C   0  0  0  0  0  3  0  0  0  0  0  0
  -32.7850  -19.2820   15.4830 C   0  0  0  0  0  3  0  0  0  0  0  0
  -33.0430  -20.7150   14.6590 C   0  0  0  0  0  2  0  0  0  0  0  0
  -34.2710  -21.1860   13.8430 O   0  0  0  0  0  0  0  0  0  0  0  0
  -31.9520  -25.5300    8.5090 C   0  0  0  0  0  0  0  0  0  0  0  0
  -34.1210  -21.4340   12.4540 C   0  0  0  0  0  0  0  0  0  0  0  0
  -31.9990  -23.1020    8.0780 C   0  0  0  0  0  3  0  0  0  0  0  0
  -33.4230  -21.6960    9.6810 C   0  0  0  0  0  0  0  0  0  0  0  0
  -33.7380  -24.1660    9.6400 C   0  0  0  0  0  2  0  0  0  0  0  0
  -33.8050  -22.8370   10.4000 C   0  0  0  0  0  0  0  0  0  0  0  0
  -34.1800  -22.7100   11.7810 C   0  0  0  0  0  3  0  0  0  0  0  0
  -33.8310  -20.3170   11.6520 C   0  0  0  0  0  3  0  0  0  0  0  0
  -33.4720  -20.4360   10.2970 C   0  0  0  0  0  3  0  0  0  0  0  0
  -32.9350  -21.8770    8.2540 C   0  0  0  0  0  2  0  0  0  0  0  0
  -32.5410  -24.3220    8.7590 N   0  0  0  0  0  0  0  0  0  0  0  0
  -31.0000  -25.6360    7.7210 O   0  0  0  0  0  0  0  0  0  0  0  0
  -30.5710  -22.7250    8.5460 C   0  0  0  0  0  0  0  0  0  0  0  0
  -29.8120  -22.0230    7.6890 N   0  0  0  0  0  0  0  0  0  0  0  0
  -30.1750  -23.0480    9.6700 O   0  0  0  0  0  0  0  0  0  0  0  0
  -30.2010  -21.8030    6.7820 H   0  0  0  0  0  0  0  0  0  0  0  0
  -27.0260  -20.2290    6.2280 C   0  0  0  0  0  0  0  0  0  0  0  0
  -28.4570  -21.5300    7.9470 C   0  0  0  0  0  3  0  0  0  0  0  0
  -28.4870  -20.2150    8.7600 C   0  0  0  0  0  2  0  0  0  0  0  0
  -28.4650  -18.9610    7.8800 C   0  0  0  0  0  2  0  0  0  0  0  0
  -27.2040  -18.9390    7.0100 C   0  0  0  0  0  2  0  0  0  0  0  0
  -27.6270  -21.4430    6.6590 C   0  0  0  0  0  0  0  0  0  0  0  0
  -27.4560  -22.6060    5.8780 C   0  0  0  0  0  3  0  0  0  0  0  0
  -26.7040  -22.5710    4.6890 C   0  0  0  0  0  3  0  0  0  0  0  0
  -26.1010  -21.3720    4.2740 C   0  0  0  0  0  3  0  0  0  0  0  0
  -26.2580  -20.2060    5.0450 C   0  0  0  0  0  3  0  0  0  0  0  0
  -32.4620  -26.8400    9.1840 C   0  0  0  0  0  3  0  0  0  0  0  0
  -32.5970  -27.8620    8.1350 N   0  0  0  0  0  0  0  0  0  0  0  0
  -33.7530  -28.2030    7.5490 C   0  0  0  0  0  0  0  0  0  0  0  0
  -34.8390  -27.7310    7.8900 O   0  0  0  0  0  0  0  0  0  0  0  0
  -31.7400  -28.2490    7.7660 H   0  0  0  0  0  0  0  0  0  0  0  0
  -33.8180  -28.5090    5.0520 C   0  0  0  0  0  1  0  0  0  0  0  0
  -33.6940  -29.2320    6.4020 C   0  0  0  0  0  3  0  0  0  0  0  0
  -34.5130  -31.2050    7.6130 C   0  0  0  0  0  1  0  0  0  0  0  0
  -34.7300  -30.2840    6.5020 N   0  0  0  0  0  0  0  0  0  0  0  0
  -34.7750  -30.8270    5.6430 H   0  0  0  0  0  0  0  0  0  0  0  0
  -31.5100  -27.3560   10.3350 C   0  0  1  0  0  0  0  0  0  0  0  0
  -30.0420  -27.5480    9.8890 C   0  0  0  0  0  1  0  0  0  0  0  0
  -31.5140  -26.3740   11.5290 C   0  0  0  0  0  1  0  0  0  0  0  0
  -32.0290  -28.7070   10.8780 C   0  0  0  0  0  1  0  0  0  0  0  0
  -28.0570   -9.4910   23.4460 C   0  0  0  0  0  2  0  0  0  0  0  0
  -27.3280   -7.7640   21.3430 C   0  0  0  0  0  0  0  0  0  0  0  0
  -28.1410   -8.5460   22.1880 N   0  0  0  0  0  0  0  0  0  0  0  0
  -26.5040   -7.0250   21.8790 O   0  0  0  0  0  0  0  0  0  0  0  0
  -28.8880   -8.9120   21.6170 H   0  0  0  0  0  0  0  0  0  0  0  0
  -27.3320   -7.7610   19.6600 C   0  0  0  0  0  2  0  0  0  0  0  0
  -28.1350   -9.2440   17.5040 C   0  0  0  0  0  0  0  0  0  0  0  0
  -27.3460   -8.9850   18.6490 N   0  0  0  0  0  0  0  0  0  0  0  0
  -28.5700   -8.2770   16.8790 O   0  0  0  0  0  0  0  0  0  0  0  0
  -26.9270   -9.8110   19.0510 H   0  0  0  0  0  0  0  0  0  0  0  0
  -28.6280  -10.7430   16.9800 C   0  0  0  0  0  2  0  0  0  0  0  0
  -30.6370  -12.4780   18.1670 C   0  0  0  0  0  0  0  0  0  0  0  0
  -31.0190  -11.2790   20.0770 C   0  0  0  0  0  2  0  0  0  0  0  0
  -30.1770  -10.1100   19.7020 C   0  0  0  0  0  2  0  0  0  0  0  0
  -28.7850  -10.5690   20.1270 C   0  0  0  0  0  2  0  0  0  0  0  0
  -27.9800  -11.8670   19.6280 C   0  0  0  0  0  3  0  0  0  0  0  0
  -29.0710  -12.8920   19.9700 C   0  0  0  0  0  2  0  0  0  0  0  0
  -30.3330  -12.3950   19.4440 N   0  0  0  0  0  0  0  0  0  0  0  0
  -31.7490  -12.9630   17.9230 O   0  0  0  0  0  0  0  0  0  0  0  0
  -29.9620  -11.5890   17.2680 N   0  0  0  0  0  0  0  0  0  0  0  0
  -30.5320  -11.5350   16.4370 H   0  0  0  0  0  0  0  0  0  0  0  0
  -25.6180  -13.1300   19.8850 C   0  0  0  0  0  0  0  0  0  0  0  0
  -24.4050  -12.7000   20.3930 C   0  0  0  0  0  0  0  0  0  0  0  0
  -24.5540  -11.3320   20.6860 C   0  0  0  0  0  0  0  0  0  0  0  0
  -26.5150  -12.0660   19.9620 N   0  0  0  0  0  0  0  0  0  0  0  0
  -25.7830  -11.0490   20.3940 N   0  0  0  0  0  0  0  0  0  0  0  0
  -23.6340  -10.2660   21.1360 C   0  0  0  0  0  0  0  0  0  0  0  0
  -23.8640   -9.4940   22.2970 C   0  0  0  0  0  3  0  0  0  0  0  0
  -23.0110   -8.4290   22.6550 C   0  0  0  0  0  3  0  0  0  0  0  0
  -21.8290   -8.1980   21.9120 C   0  0  0  0  0  0  0  0  0  0  0  0
  -21.5720   -8.9960   20.7800 C   0  0  0  0  0  3  0  0  0  0  0  0
  -22.4730  -10.0020   20.3850 C   0  0  0  0  0  3  0  0  0  0  0  0
  -20.9050   -7.2240   22.2080 O   0  0  0  0  0  0  0  0  0  0  0  0
  -21.0460   -6.3920   23.2930 C   0  0  0  0  0  0  0  0  0  0  0  0
  -20.9380   -6.8610   24.6210 C   0  0  0  0  0  3  0  0  0  0  0  0
  -21.0200   -5.9560   25.6990 C   0  0  0  0  0  3  0  0  0  0  0  0
  -21.1990   -4.5820   25.4520 C   0  0  0  0  0  0  0  0  0  0  0  0
  -21.2970   -4.1120   24.1310 C   0  0  0  0  0  3  0  0  0  0  0  0
  -21.2160   -5.0130   23.0560 C   0  0  0  0  0  0  0  0  0  0  0  0
  -21.2860   -4.5510   21.7840 F   0  0  0  0  0  0  0  0  0  0  0  0
  -21.2730   -3.7090   26.4840 F   0  0  0  0  0  0  0  0  0  0  0  0
  -23.1210  -13.4510   20.5230 C   0  0  0  0  0  0  0  0  0  0  0  0
  -22.3440  -13.1580   21.5600 N   0  0  0  0  0  0  0  0  0  0  0  0
  -22.8120  -14.3170   19.7090 O   0  0  0  0  0  0  0  0  0  0  0  0
  -22.6010  -12.4450   22.2260 H   0  0  0  0  0  0  0  0  0  0  0  0
  -21.4670  -13.6440   21.6840 H   0  0  0  0  0  0  0  0  0  0  0  0
  -26.0280  -14.3340   19.3430 N   0  0  0  0  0  0  0  0  0  0  0  0
  -25.3660  -15.0970   19.2590 H   0  0  0  0  0  0  0  0  0  0  0  0
  -26.9090  -14.5140   18.8870 H   0  0  0  0  0  0  0  0  0  0  0  0
  1  3  2  0
  2  1  1  0
  4  2  1  0
  5  2  1  0
  6  5  1  0
  7  9  1  0
  7  6  1  0
  8  6  2  0
 10  7  1  0
 11 10  1  0
 12 11  2  0
 13 12  1  0
 14 13  2  0
 15 14  1  0
 16 15  1  0
 17 27  1  0
 18 16  1  0
 19 26  1  0
 19 29  1  0
 19 27  1  0
 20 25  2  0
 20 22  1  0
 21 22  1  0
 22 23  2  0
 23 18  1  0
 24 18  2  0
 25 24  1  0
 26 20  1  0
 27 21  1  0
 28 17  2  0
 29 31  2  0
 30 29  1  0
 32 30  1  0
 33 38  1  0
 33 37  1  0
 34 30  1  0
 34 35  1  0
 36 35  1  0
 37 36  1  0
 38 34  1  0
 39 38  2  0
 40 39  1  0
 41 40  2  0
 41 42  1  0
 42 33  2  0
 43 17  1  0
 43 53  1  0
 44 43  1  0
 45 46  2  0
 45 44  1  0
 47 44  1  0
 49 48  1  0
 49 51  1  0
 49 45  1  0
 51 50  1  0
 52 51  1  0
 53 56  1  1
 53 55  1  0
 54 53  1  0
 57  1  1  0
 58 60  2  0
 58 59  1  0
 59 57  1  0
 61 59  1  0
 62 58  1  0
 63 64  1  0
 64 66  1  0
 64 62  1  0
 65 63  2  0
 67 76  1  0
 67 63  1  0
 68 74  1  0
 70 69  1  0
 70 71  1  0
 72 81  1  0
 72 73  1  0
 72 71  1  0
 74 73  1  0
 74 69  1  0
 75 68  2  0
 76 68  1  0
 77 76  1  0
 78 81  1  0
 78 79  2  0
 79 98  1  0
 79 80  1  0
 80 83  1  0
 81 82  1  0
 82 80  2  0
 83 84  1  0
 84 85  2  0
 86 89  1  0
 86 85  1  0
 87 86  2  0
 88 87  1  0
 88 83  2  0
 89 90  1  0
 90 91  1  0
 91 92  2  0
 93 92  1  0
 93 97  1  0
 94 93  2  0
 95 90  2  0
 95 94  1  0
 96 95  1  0
 98 99  1  0
 99102  1  0
 99101  1  0
100 98  2  0
103 78  1  0
104103  1  0
105103  1  0
M  ISO  4  15 101  16 101  68 100  76 100
M  END
>  <TORSDO>  (50) 
F 29

>  <SCORE>  (50) 
3.938

>  <name>  (50) 
53

>  <ligand_id>  (50) 
53

>  <original_smiles>  (50) 
[H]c1c([H])c([H])c2c(c1[H])C([H])([H])C([H])([H])C([H])([H])C2([H])N([H])C(=O)C1([H])N(C(=O)C([H])(N([H])C(=O)C([H])(N([H])C([H])([H])[H])C([H])([H])[H])C(C([H])([H])[H])(C([H])([H])[H])C([H])([H])[H])C([H])([H])c2c([H])c(OC([H])([H])C([H])([H])C([H])([H])C([H])([H])C([H])([H])C([H])([H])N([H])C(=O)C([H])([H])N([H])C(=O)C([H])([H])N([H])C(=O)C([H])([H])N([H])C(=O)C([H])([H])N([H])C(=O)N3C([H])([H])C([H])([H])C([H])([H])C([H])(n4nc(-c5c([H])c([H])c(Oc6c([H])c([H])c(F)c([H])c6F)c([H])c5[H])c(C(=O)N([H])[H])c4N([H])[H])C3([H])[H])c([H])c([H])c2C1([H])[H]

>  <smiles>  (50) 
[H]c1c([H])c([H])c2c(c1[H])C([H])([H])C([H])([H])C([H])([H])C2([H])N([H])C(=O)C1([H])N(C(=O)C([H])(N([H])C(=O)C([H])(N([H])C([H])([H])[H])C([H])([H])[H])C(C([H])([H])[H])(C([H])([H])[H])C([H])([H])[H])C([H])([H])c2c([H])c(OC([H])([H])C([H])([H])C([H])([H])C([H])([H])C([H])([H])C([H])([H])N([H])C(=O)C([H])([H])N([H])C(=O)C([H])([H])N([H])C(=O)C([H])([H])N([H])C(=O)C([H])([H])N([H])C(=O)N3C([H])([H])C([H])([H])C([H])([H])C([H])(n4nc(-c5c([H])c([H])c(Oc6c([H])c([H])c(F)c([H])c6F)c([H])c5[H])c(C(=O)N([H])[H])c4N([H])[H])C3([H])[H])c([H])c([H])c2C1([H])[H]

$$$$
54:0:0
     RDKit          3D

113120  0  0  1  0  0  0  0  0999 V2000
  -32.6540  -23.8940   31.3100 C   0  0  0  0  0  0  0  0  0  0  0  0
  -32.0250  -25.0740   31.2710 N   0  0  0  0  0  0  0  0  0  0  0  0
  -32.0720  -22.8370   31.5620 O   0  0  0  0  0  0  0  0  0  0  0  0
  -32.5770  -25.9080   31.1180 H   0  0  0  0  0  0  0  0  0  0  0  0
  -30.5760  -25.2370   31.3980 C   0  0  0  0  0  2  0  0  0  0  0  0
  -30.0690  -26.5440   30.7480 C   0  0  0  0  0  2  0  0  0  0  0  0
  -30.6050  -26.8500   29.3290 C   0  0  0  0  0  2  0  0  0  0  0  0
  -30.3660  -25.7380   28.2820 C   0  0  0  0  0  2  0  0  0  0  0  0
  -28.8990  -25.6170   27.8210 C   0  0  0  0  0  2  0  0  0  0  0  0
  -28.5410  -26.4320   26.5700 C   0  0  0  0  0  2  0  0  0  0  0  0
  -28.7310  -25.7830   24.1790 C   0  0  0  0  0  0  0  0  0  0  0  0
  -29.2510  -25.9180   25.4010 N   0  0  0  0  0  0  0  0  0  0  0  0
  -27.5860  -26.1460   23.9070 O   0  0  0  0  0  0  0  0  0  0  0  0
  -30.2020  -25.6050   25.5460 H   0  0  0  0  0  0  0  0  0  0  0  0
  -29.6310  -25.1380   23.1180 C   0  0  0  0  0  2  0  0  0  0  0  0
  -29.0840  -25.2690   21.6840 C   0  0  0  0  0  2  0  0  0  0  0  0
  -29.2300  -26.6830   21.1120 C   0  0  0  0  0  2  0  0  0  0  0  0
  -28.4020  -26.7610   19.9620 O   0  0  0  0  0  0  0  0  0  0  0  0
  -24.6060  -31.8680   23.2170 C   0  0  0  0  0  0  0  0  0  0  0  0
  -27.2480  -27.4950   20.0720 C   0  0  0  0  0  0  0  0  0  0  0  0
  -23.3960  -30.4960   21.5510 C   0  0  0  0  0  3  0  0  0  0  0  0
  -24.8430  -28.9680   20.1210 C   0  0  0  0  0  0  0  0  0  0  0  0
  -25.9230  -30.8490   21.3740 C   0  0  0  0  0  2  0  0  0  0  0  0
  -25.9990  -29.4940   20.7110 C   0  0  0  0  0  0  0  0  0  0  0  0
  -27.2040  -28.7700   20.6810 C   0  0  0  0  0  3  0  0  0  0  0  0
  -26.0770  -26.9690   19.4910 C   0  0  0  0  0  3  0  0  0  0  0  0
  -24.8700  -27.7000   19.5150 C   0  0  0  0  0  3  0  0  0  0  0  0
  -23.6070  -29.8350   20.1650 C   0  0  0  0  0  2  0  0  0  0  0  0
  -24.6570  -31.0880   22.1030 N   0  0  0  0  0  0  0  0  0  0  0  0
  -23.5250  -32.1410   23.7570 O   0  0  0  0  0  0  0  0  0  0  0  0
  -22.7350  -29.4690   22.4990 C   0  0  0  0  0  0  0  0  0  0  0  0
  -21.4090  -29.3040   22.3710 N   0  0  0  0  0  0  0  0  0  0  0  0
  -23.4120  -28.8220   23.3020 O   0  0  0  0  0  0  0  0  0  0  0  0
  -20.9190  -29.8890   21.7080 H   0  0  0  0  0  0  0  0  0  0  0  0
  -18.0260  -28.1360   22.8490 C   0  0  0  0  0  0  0  0  0  0  0  0
  -20.5850  -28.3640   23.1310 C   0  0  0  0  0  3  0  0  0  0  0  0
  -20.6750  -26.9390   22.5430 C   0  0  0  0  0  2  0  0  0  0  0  0
  -19.5740  -26.6390   21.5210 C   0  0  0  0  0  2  0  0  0  0  0  0
  -18.1910  -26.7930   22.1610 C   0  0  0  0  0  2  0  0  0  0  0  0
  -19.1510  -28.8810   23.2910 C   0  0  0  0  0  0  0  0  0  0  0  0
  -18.9470  -30.1430   23.8920 C   0  0  0  0  0  3  0  0  0  0  0  0
  -17.6480  -30.6590   24.0560 C   0  0  0  0  0  3  0  0  0  0  0  0
  -16.5360  -29.9120   23.6310 C   0  0  0  0  0  3  0  0  0  0  0  0
  -16.7250  -28.6520   23.0340 C   0  0  0  0  0  3  0  0  0  0  0  0
  -25.8950  -32.4840   23.8420 C   0  0  0  0  0  3  0  0  0  0  0  0
  -25.5820  -33.8650   24.2340 N   0  0  0  0  0  0  0  0  0  0  0  0
  -25.9020  -34.9470   23.5130 C   0  0  0  0  0  0  0  0  0  0  0  0
  -26.5640  -34.8890   22.4730 O   0  0  0  0  0  0  0  0  0  0  0  0
  -24.9930  -33.9890   25.0460 H   0  0  0  0  0  0  0  0  0  0  0  0
  -24.1500  -36.7320   23.2660 C   0  0  0  0  0  1  0  0  0  0  0  0
  -25.4120  -36.3100   24.0340 C   0  0  0  0  0  3  0  0  0  0  0  0
  -27.5590  -37.1800   24.8460 C   0  0  0  0  0  1  0  0  0  0  0  0
  -26.4310  -37.3770   23.9390 N   0  0  0  0  0  0  0  0  0  0  0  0
  -26.0170  -38.2830   24.1390 H   0  0  0  0  0  0  0  0  0  0  0  0
  -26.4470  -31.6630   25.0720 C   0  0  1  0  0  0  0  0  0  0  0  0
  -25.3830  -31.3730   26.1530 C   0  0  0  0  0  1  0  0  0  0  0  0
  -27.0350  -30.3090   24.6150 C   0  0  0  0  0  1  0  0  0  0  0  0
  -27.6030  -32.4390   25.7440 C   0  0  0  0  0  1  0  0  0  0  0  0
  -34.1520  -23.8680   31.0010 C   0  0  0  0  0  2  0  0  0  0  0  0
  -35.9950  -22.2210   30.9840 C   0  0  0  0  0  1  0  0  0  0  0  0
  -34.5830  -22.4970   30.6280 N   0  0  2  0  0  4  0  0  0  0  0  0
  -33.9950  -21.9170   31.2120 H   0  0  0  0  0  0  0  0  0  0  0  0
  -34.2600  -22.1210   29.2240 C   0  0  0  0  0  2  0  0  0  0  0  0
  -33.8410  -20.6350   29.1010 C   0  0  0  0  0  2  0  0  0  0  0  0
  -32.5800  -20.4810   28.3710 N   0  0  0  0  0  0  0  0  0  0  0  0
  -31.8400  -20.9940   28.8480 H   0  0  0  0  0  0  0  0  0  0  0  0
  -32.2040  -19.0710   28.2940 C   0  0  0  0  0  2  0  0  0  0  0  0
  -30.9220  -18.8600   27.4540 C   0  0  0  0  0  2  0  0  0  0  0  0
  -31.0260  -17.6570   26.6000 N   0  0  0  0  0  4  0  0  0  0  0  0
  -31.8290  -17.7790   26.0050 H   0  0  0  0  0  0  0  0  0  0  0  0
  -31.1980  -16.8590   27.1920 H   0  0  0  0  0  0  0  0  0  0  0  0
  -29.8420  -17.3790   25.7560 C   0  0  0  0  0  2  0  0  0  0  0  0
  -30.1210  -16.2700   24.7150 C   0  0  0  0  0  2  0  0  0  0  0  0
  -30.9750  -16.7560   23.5240 C   0  0  0  0  0  2  0  0  0  0  0  0
  -31.6260  -15.6310   22.7010 C   0  0  0  0  0  2  0  0  0  0  0  0
  -30.8310  -14.2930   20.7600 C   0  0  0  0  0  0  0  0  0  0  0  0
  -30.4080  -12.2880   19.3850 C   0  0  0  0  0  2  0  0  0  0  0  0
  -29.4770  -12.5390   18.1890 C   0  0  0  0  0  2  0  0  0  0  0  0
  -28.0070  -12.3820   18.6120 C   0  0  0  0  0  2  0  0  0  0  0  0
  -27.6690  -13.2050   19.8810 C   0  0  0  0  0  3  0  0  0  0  0  0
  -28.7050  -12.9610   21.0000 C   0  0  0  0  0  2  0  0  0  0  0  0
  -30.0570  -13.2190   20.4680 N   0  0  0  0  0  0  0  0  0  0  0  0
  -31.7600  -14.6740   20.0380 O   0  0  0  0  0  0  0  0  0  0  0  0
  -30.6590  -14.7870   21.9970 N   0  0  0  0  0  0  0  0  0  0  0  0
  -29.9120  -14.3810   22.5400 H   0  0  0  0  0  0  0  0  0  0  0  0
  -25.2610  -13.8160   20.5680 C   0  0  0  0  0  0  0  0  0  0  0  0
  -24.1850  -13.0440   20.9160 C   0  0  0  0  0  0  0  0  0  0  0  0
  -24.6420  -11.6900   20.8740 C   0  0  0  0  0  0  0  0  0  0  0  0
  -26.3060  -12.9330   20.3380 N   0  0  0  0  0  0  0  0  0  0  0  0
  -25.9340  -11.6500   20.5780 N   0  0  0  0  0  0  0  0  0  0  0  0
  -23.9090  -10.4290   21.0410 C   0  0  0  0  0  0  0  0  0  0  0  0
  -24.3630   -9.4210   21.9190 C   0  0  0  0  0  3  0  0  0  0  0  0
  -23.6290   -8.2250   22.0770 C   0  0  0  0  0  3  0  0  0  0  0  0
  -22.4270   -8.0290   21.3550 C   0  0  0  0  0  0  0  0  0  0  0  0
  -21.9910   -9.0270   20.4650 C   0  0  0  0  0  3  0  0  0  0  0  0
  -22.7260  -10.2150   20.3060 C   0  0  0  0  0  3  0  0  0  0  0  0
  -21.6650   -6.8890   21.4240 O   0  0  0  0  0  0  0  0  0  0  0  0
  -21.6860   -6.0750   22.5290 C   0  0  0  0  0  0  0  0  0  0  0  0
  -21.4010   -6.5640   23.8230 C   0  0  0  0  0  3  0  0  0  0  0  0
  -21.3660   -5.6790   24.9170 C   0  0  0  0  0  3  0  0  0  0  0  0
  -21.6050   -4.3060   24.7220 C   0  0  0  0  0  0  0  0  0  0  0  0
  -21.8820   -3.8160   23.4340 C   0  0  0  0  0  3  0  0  0  0  0  0
  -21.9190   -4.6970   22.3390 C   0  0  0  0  0  0  0  0  0  0  0  0
  -22.1670   -4.2150   21.0980 F   0  0  0  0  0  0  0  0  0  0  0  0
  -21.5620   -3.4540   25.7740 F   0  0  0  0  0  0  0  0  0  0  0  0
  -22.7880  -13.5230   21.1820 C   0  0  0  0  0  0  0  0  0  0  0  0
  -22.0520  -12.8250   22.0390 N   0  0  0  0  0  0  0  0  0  0  0  0
  -22.3580  -14.5560   20.6680 O   0  0  0  0  0  0  0  0  0  0  0  0
  -22.4130  -11.9900   22.4760 H   0  0  0  0  0  0  0  0  0  0  0  0
  -21.1130  -13.1280   22.2570 H   0  0  0  0  0  0  0  0  0  0  0  0
  -25.4330  -15.1880   20.4100 N   0  0  0  0  0  0  0  0  0  0  0  0
  -24.6700  -15.8460   20.5260 H   0  0  0  0  0  0  0  0  0  0  0  0
  -26.2950  -15.6290   20.1110 H   0  0  0  0  0  0  0  0  0  0  0  0
  1  3  2  0
  2  1  1  0
  2  5  1  0
  4  2  1  0
  6  5  1  0
  7  6  1  0
  8  7  1  0
  9  8  1  0
 10  9  1  0
 11 12  1  0
 12 14  1  0
 12 10  1  0
 13 11  2  0
 15 11  1  0
 16 15  1  0
 17 16  1  0
 18 20  1  0
 18 17  1  0
 19 30  2  0
 20 25  1  0
 21 29  1  0
 21 31  1  0
 22 28  1  0
 22 24  1  0
 23 29  1  0
 24 23  1  0
 25 24  2  0
 26 27  1  0
 26 20  2  0
 27 22  2  0
 28 21  1  0
 29 19  1  0
 31 33  2  0
 32 31  1  0
 34 32  1  0
 35 44  2  0
 35 40  1  0
 36 32  1  0
 36 40  1  0
 37 36  1  0
 38 39  1  0
 38 37  1  0
 39 35  1  0
 40 41  2  0
 41 42  1  0
 43 42  2  0
 44 43  1  0
 45 19  1  0
 45 46  1  0
 45 55  1  0
 46 49  1  0
 47 51  1  0
 47 46  1  0
 48 47  2  0
 51 50  1  0
 53 51  1  0
 53 54  1  0
 53 52  1  0
 55 58  1  1
 55 56  1  0
 57 55  1  0
 59  1  1  0
 61 60  1  0
 61 59  1  0
 61 62  1  1
 63 61  1  0
 64 63  1  0
 65 66  1  0
 65 64  1  0
 67 65  1  0
 68 67  1  0
 69 71  1  0
 69 68  1  0
 70 69  1  0
 72 69  1  0
 73 72  1  0
 74 73  1  0
 75 74  1  0
 76 84  1  0
 77 82  1  0
 78 79  1  0
 78 77  1  0
 80 79  1  0
 80 89  1  0
 80 81  1  0
 82 76  1  0
 82 81  1  0
 83 76  2  0
 84 85  1  0
 84 75  1  0
 86 87  2  0
 87106  1  0
 88 87  1  0
 88 91  1  0
 89 86  1  0
 89 90  1  0
 90 88  2  0
 91 92  1  0
 92 93  2  0
 94 97  1  0
 94 93  1  0
 95 94  2  0
 96 95  1  0
 96 91  2  0
 97 98  1  0
 98 99  1  0
 99100  2  0
101100  1  0
101105  1  0
102101  2  0
103 98  2  0
103102  1  0
104103  1  0
106107  1  0
107110  1  0
107109  1  0
108106  2  0
111112  1  0
111 86  1  0
113111  1  0
M  ISO  4  17 101  18 101  76 100  84 100
M  END
>  <TORSDO>  (51) 
F 38

>  <SCORE>  (51) 
81.938

>  <name>  (51) 
54

>  <ligand_id>  (51) 
54

>  <original_smiles>  (51) 
[H]c1c([H])c([H])c2c(c1[H])C([H])([H])C([H])([H])C([H])([H])C2([H])N([H])C(=O)C1([H])N(C(=O)C([H])(N([H])C(=O)C([H])(N([H])C([H])([H])[H])C([H])([H])[H])C(C([H])([H])[H])(C([H])([H])[H])C([H])([H])[H])C([H])([H])c2c([H])c(OC([H])([H])C([H])([H])C([H])([H])C(=O)N([H])C([H])([H])C([H])([H])C([H])([H])C([H])([H])C([H])([H])C([H])([H])N([H])C(=O)C([H])([H])[N+]([H])(C([H])([H])[H])C([H])([H])C([H])([H])N([H])C([H])([H])C([H])([H])[N+]([H])([H])C([H])([H])C([H])([H])C([H])([H])C([H])([H])N([H])C(=O)N3C([H])([H])C([H])([H])C([H])([H])C([H])(n4nc(-c5c([H])c([H])c(Oc6c([H])c([H])c(F)c([H])c6F)c([H])c5[H])c(C(=O)N([H])[H])c4N([H])[H])C3([H])[H])c([H])c([H])c2C1([H])[H]

>  <smiles>  (51) 
[H]c1c([H])c([H])c2c(c1[H])C([H])([H])C([H])([H])C([H])([H])C2([H])N([H])C(=O)C1([H])N(C(=O)C([H])(N([H])C(=O)C([H])(N([H])C([H])([H])[H])C([H])([H])[H])C(C([H])([H])[H])(C([H])([H])[H])C([H])([H])[H])C([H])([H])c2c([H])c(OC([H])([H])C([H])([H])C([H])([H])C(=O)N([H])C([H])([H])C([H])([H])C([H])([H])C([H])([H])C([H])([H])C([H])([H])N([H])C(=O)C([H])([H])[N+]([H])(C([H])([H])[H])C([H])([H])C([H])([H])N([H])C([H])([H])C([H])([H])[N+]([H])([H])C([H])([H])C([H])([H])C([H])([H])C([H])([H])N([H])C(=O)N3C([H])([H])C([H])([H])C([H])([H])C([H])(n4nc(-c5c([H])c([H])c(Oc6c([H])c([H])c(F)c([H])c6F)c([H])c5[H])c(C(=O)N([H])[H])c4N([H])[H])C3([H])[H])c([H])c([H])c2C1([H])[H]

$$$$
55:0:0
     RDKit          3D

116123  0  0  1  0  0  0  0  0999 V2000
  -31.9040  -27.4360   19.1680 C   0  0  0  0  0  0  0  0  0  0  0  0
  -31.2470  -28.0670   17.9590 C   0  0  0  0  0  1  0  0  0  0  0  0
  -31.5710  -27.8490   20.3280 N   0  0  0  0  0  0  0  0  0  0  0  0
  -32.1550  -27.3250   21.5520 C   0  0  0  0  0  2  0  0  0  0  0  0
  -31.1000  -27.3150   22.6670 C   0  0  0  0  0  0  0  0  0  0  0  0
  -30.1510  -28.2570   22.6360 N   0  0  0  0  0  0  0  0  0  0  0  0
  -31.0770  -26.4020   23.4920 O   0  0  0  0  0  0  0  0  0  0  0  0
  -30.2240  -28.9120   21.8650 H   0  0  0  0  0  0  0  0  0  0  0  0
  -29.0060  -28.3840   23.5420 C   0  0  0  0  0  2  0  0  0  0  0  0
  -27.9000  -27.3470   23.2520 C   0  0  0  0  0  2  0  0  0  0  0  0
  -28.3770  -25.9600   23.4430 N   0  0  0  0  0  4  0  0  0  0  0  0
  -29.3740  -25.9550   23.2490 H   0  0  0  0  0  0  0  0  0  0  0  0
  -28.2820  -25.7200   24.4180 H   0  0  0  0  0  0  0  0  0  0  0  0
  -27.6930  -24.9320   22.6250 C   0  0  0  0  0  2  0  0  0  0  0  0
  -28.6590  -24.2010   21.6730 C   0  0  0  0  0  2  0  0  0  0  0  0
  -29.3270  -25.0910   20.6000 C   0  0  0  0  0  2  0  0  0  0  0  0
  -28.3710  -25.7340   19.5860 C   0  0  0  0  0  2  0  0  0  0  0  0
  -28.3830  -27.1480   19.7520 O   0  0  0  0  0  0  0  0  0  0  0  0
  -24.5000  -31.9990   23.1170 C   0  0  0  0  0  0  0  0  0  0  0  0
  -27.1790  -27.8110   19.7600 C   0  0  0  0  0  0  0  0  0  0  0  0
  -23.2840  -30.6390   21.4440 C   0  0  0  0  0  3  0  0  0  0  0  0
  -24.7400  -29.2270   19.9010 C   0  0  0  0  0  0  0  0  0  0  0  0
  -25.7880  -31.0960   21.1870 C   0  0  0  0  0  2  0  0  0  0  0  0
  -25.8950  -29.7620   20.4810 C   0  0  0  0  0  0  0  0  0  0  0  0
  -27.1170  -29.0630   20.4070 C   0  0  0  0  0  3  0  0  0  0  0  0
  -26.0090  -27.2910   19.1570 C   0  0  0  0  0  3  0  0  0  0  0  0
  -24.7920  -27.9920   19.2330 C   0  0  0  0  0  3  0  0  0  0  0  0
  -23.4720  -30.0380   20.0250 C   0  0  0  0  0  2  0  0  0  0  0  0
  -24.5430  -31.2590   21.9730 N   0  0  0  0  0  0  0  0  0  0  0  0
  -23.4300  -32.2080   23.7050 O   0  0  0  0  0  0  0  0  0  0  0  0
  -22.7000  -29.5490   22.3700 C   0  0  0  0  0  0  0  0  0  0  0  0
  -21.3780  -29.3340   22.2800 N   0  0  0  0  0  0  0  0  0  0  0  0
  -23.4320  -28.9060   23.1280 O   0  0  0  0  0  0  0  0  0  0  0  0
  -20.8490  -29.9090   21.6430 H   0  0  0  0  0  0  0  0  0  0  0  0
  -18.0580  -28.0230   22.8260 C   0  0  0  0  0  0  0  0  0  0  0  0
  -20.6160  -28.3360   23.0280 C   0  0  0  0  0  3  0  0  0  0  0  0
  -20.7380  -26.9390   22.3750 C   0  0  0  0  0  2  0  0  0  0  0  0
  -19.6110  -26.6400   21.3830 C   0  0  0  0  0  2  0  0  0  0  0  0
  -18.2480  -26.7130   22.0770 C   0  0  0  0  0  2  0  0  0  0  0  0
  -19.1700  -28.7930   23.2580 C   0  0  0  0  0  0  0  0  0  0  0  0
  -18.9380  -30.0200   23.9170 C   0  0  0  0  0  3  0  0  0  0  0  0
  -17.6270  -30.4770   24.1490 C   0  0  0  0  0  3  0  0  0  0  0  0
  -16.5310  -29.7010   23.7340 C   0  0  0  0  0  3  0  0  0  0  0  0
  -16.7460  -28.4780   23.0760 C   0  0  0  0  0  3  0  0  0  0  0  0
  -25.7880  -32.6400   23.7260 C   0  0  0  0  0  3  0  0  0  0  0  0
  -26.3550  -31.8420   24.9640 C   0  0  1  0  0  0  0  0  0  0  0  0
  -25.2960  -31.5500   26.0530 C   0  0  0  0  0  1  0  0  0  0  0  0
  -26.9550  -30.4870   24.5150 C   0  0  0  0  0  1  0  0  0  0  0  0
  -27.5030  -32.6410   25.6210 C   0  0  0  0  0  1  0  0  0  0  0  0
  -25.4590  -34.0200   24.1010 N   0  0  0  0  0  0  0  0  0  0  0  0
  -25.7680  -35.1000   23.3700 C   0  0  0  0  0  0  0  0  0  0  0  0
  -26.4290  -35.0390   22.3300 O   0  0  0  0  0  0  0  0  0  0  0  0
  -24.8710  -34.1410   24.9110 H   0  0  0  0  0  0  0  0  0  0  0  0
  -24.0010  -36.8680   23.0870 C   0  0  0  0  0  1  0  0  0  0  0  0
  -25.2580  -36.4640   23.8730 C   0  0  0  0  0  3  0  0  0  0  0  0
  -27.3860  -37.3630   24.7070 C   0  0  0  0  0  1  0  0  0  0  0  0
  -26.2690  -37.5410   23.7840 N   0  0  0  0  0  0  0  0  0  0  0  0
  -25.8460  -38.4450   23.9690 H   0  0  0  0  0  0  0  0  0  0  0  0
  -32.9490  -26.3640   18.8420 C   0  0  0  0  0  2  0  0  0  0  0  0
  -31.7800  -24.3870   17.8790 C   0  0  0  0  0  0  0  0  0  0  0  0
  -32.4350  -24.9890   18.8830 N   0  0  0  0  0  0  0  0  0  0  0  0
  -31.4250  -25.0010   16.8740 O   0  0  0  0  0  0  0  0  0  0  0  0
  -32.7030  -24.4290   19.6790 H   0  0  0  0  0  0  0  0  0  0  0  0
  -31.5570  -22.8660   17.9620 C   0  0  0  0  0  2  0  0  0  0  0  0
  -30.1440  -22.4070   18.3970 C   0  0  0  0  0  2  0  0  0  0  0  0
  -28.9420  -22.9460   17.5850 C   0  0  0  0  0  2  0  0  0  0  0  0
  -27.6020  -22.9300   18.3580 C   0  0  0  0  0  2  0  0  0  0  0  0
  -26.6830  -21.7190   18.1310 C   0  0  0  0  0  2  0  0  0  0  0  0
  -27.8830  -19.9380   19.4080 C   0  0  0  0  0  0  0  0  0  0  0  0
  -27.3490  -20.4330   18.2850 N   0  0  0  0  0  0  0  0  0  0  0  0
  -27.9740  -20.5670   20.4640 O   0  0  0  0  0  0  0  0  0  0  0  0
  -27.3390  -19.8270   17.4730 H   0  0  0  0  0  0  0  0  0  0  0  0
  -28.3710  -18.5020   19.3320 C   0  0  0  0  0  2  0  0  0  0  0  0
  -29.2980  -18.1800   20.4300 N   0  0  0  0  0  4  0  0  0  0  0  0
  -28.9830  -18.6830   21.2450 H   0  0  0  0  0  0  0  0  0  0  0  0
  -30.2090  -18.5340   20.1860 H   0  0  0  0  0  0  0  0  0  0  0  0
  -29.3550  -16.7290   20.6870 C   0  0  0  0  0  2  0  0  0  0  0  0
  -30.6000  -16.2530   21.4610 C   0  0  0  0  0  2  0  0  0  0  0  0
  -31.0890  -13.9830   20.5980 C   0  0  0  0  0  0  0  0  0  0  0  0
  -30.6760  -11.9720   19.2300 C   0  0  0  0  0  2  0  0  0  0  0  0
  -29.7490  -12.3220   18.0470 C   0  0  0  0  0  2  0  0  0  0  0  0
  -28.2690  -12.2260   18.4630 C   0  0  0  0  0  2  0  0  0  0  0  0
  -27.9690  -12.9950   19.7750 C   0  0  0  0  0  3  0  0  0  0  0  0
  -28.9940  -12.6150   20.8710 C   0  0  0  0  0  2  0  0  0  0  0  0
  -30.3550  -12.8680   20.3540 N   0  0  0  0  0  0  0  0  0  0  0  0
  -32.1070  -14.2900   19.9710 O   0  0  0  0  0  0  0  0  0  0  0  0
  -30.5600  -14.7900   21.5250 N   0  0  0  0  0  0  0  0  0  0  0  0
  -29.8240  -14.3810   22.0840 H   0  0  0  0  0  0  0  0  0  0  0  0
  -25.5720  -13.6960   20.4150 C   0  0  0  0  0  0  0  0  0  0  0  0
  -24.4740  -12.9680   20.7820 C   0  0  0  0  0  0  0  0  0  0  0  0
  -24.8910  -11.6000   20.7800 C   0  0  0  0  0  0  0  0  0  0  0  0
  -26.5940  -12.7790   20.2220 N   0  0  0  0  0  0  0  0  0  0  0  0
  -26.1850  -11.5130   20.4970 N   0  0  0  0  0  0  0  0  0  0  0  0
  -24.1250  -10.3660   20.9760 C   0  0  0  0  0  0  0  0  0  0  0  0
  -24.5120   -9.4100   21.9410 C   0  0  0  0  0  3  0  0  0  0  0  0
  -23.7470   -8.2390   22.1320 C   0  0  0  0  0  3  0  0  0  0  0  0
  -22.5840   -8.0150   21.3580 C   0  0  0  0  0  0  0  0  0  0  0  0
  -22.2160   -8.9610   20.3860 C   0  0  0  0  0  3  0  0  0  0  0  0
  -22.9810  -10.1250   20.1920 C   0  0  0  0  0  3  0  0  0  0  0  0
  -21.7970   -6.8930   21.4530 O   0  0  0  0  0  0  0  0  0  0  0  0
  -21.6960   -6.1820   22.6230 C   0  0  0  0  0  0  0  0  0  0  0  0
  -21.2610   -6.7840   23.8230 C   0  0  0  0  0  3  0  0  0  0  0  0
  -21.1000   -6.0020   24.9850 C   0  0  0  0  0  3  0  0  0  0  0  0
  -21.3660   -4.6190   24.9460 C   0  0  0  0  0  0  0  0  0  0  0  0
  -21.7980   -4.0190   23.7500 C   0  0  0  0  0  3  0  0  0  0  0  0
  -21.9590   -4.7980   22.5910 C   0  0  0  0  0  0  0  0  0  0  0  0
  -22.3530   -4.2090   21.4350 F   0  0  0  0  0  0  0  0  0  0  0  0
  -21.2070   -3.8670   26.0600 F   0  0  0  0  0  0  0  0  0  0  0  0
  -23.0890  -13.4960   21.0250 C   0  0  0  0  0  0  0  0  0  0  0  0
  -22.3290  -12.8420   21.8950 N   0  0  0  0  0  0  0  0  0  0  0  0
  -22.6870  -14.5190   20.4720 O   0  0  0  0  0  0  0  0  0  0  0  0
  -22.6680  -12.0170   22.3650 H   0  0  0  0  0  0  0  0  0  0  0  0
  -21.3940  -13.1700   22.0960 H   0  0  0  0  0  0  0  0  0  0  0  0
  -25.7770  -15.0590   20.2060 N   0  0  0  0  0  0  0  0  0  0  0  0
  -24.9910  -15.6990   20.1990 H   0  0  0  0  0  0  0  0  0  0  0  0
  -26.5830  -15.4120   19.7130 H   0  0  0  0  0  0  0  0  0  0  0  0
  1  3  2  0
  2  1  1  0
  3  4  1  0
  4  5  1  0
  5  7  2  0
  6  5  1  0
  6  9  1  0
  8  6  1  0
 10 11  1  0
 10  9  1  0
 11 13  1  0
 12 11  1  0
 14 11  1  0
 15 14  1  0
 16 15  1  0
 17 18  1  0
 17 16  1  0
 18 20  1  0
 19 30  2  0
 20 25  1  0
 21 29  1  0
 21 31  1  0
 22 28  1  0
 22 24  1  0
 23 29  1  0
 24 23  1  0
 25 24  2  0
 26 27  1  0
 26 20  2  0
 27 22  2  0
 28 21  1  0
 29 19  1  0
 31 33  2  0
 32 31  1  0
 34 32  1  0
 35 44  2  0
 35 40  1  0
 36 32  1  0
 36 40  1  0
 37 36  1  0
 38 39  1  0
 38 37  1  0
 39 35  1  0
 40 41  2  0
 41 42  1  0
 43 42  2  0
 44 43  1  0
 45 19  1  0
 45 50  1  0
 45 46  1  0
 46 49  1  1
 46 47  1  0
 48 46  1  0
 50 53  1  0
 51 55  1  0
 51 50  1  0
 52 51  2  0
 55 54  1  0
 57 55  1  0
 57 58  1  0
 57 56  1  0
 59 61  1  0
 59  1  1  0
 60 64  1  0
 60 61  1  0
 61 63  1  0
 62 60  2  0
 64 65  1  0
 66 67  1  0
 66 65  1  0
 68 70  1  0
 68 67  1  0
 69 71  2  0
 70 69  1  0
 72 70  1  0
 73 69  1  0
 73 74  1  0
 74 77  1  0
 74 75  1  0
 76 74  1  0
 77 78  1  0
 78 87  1  0
 79 87  1  0
 80 85  1  0
 81 82  1  0
 81 80  1  0
 83 82  1  0
 83 92  1  0
 83 84  1  0
 85 79  1  0
 85 84  1  0
 86 79  2  0
 87 88  1  0
 89 90  2  0
 90109  1  0
 91 90  1  0
 91 94  1  0
 92 89  1  0
 92 93  1  0
 93 91  2  0
 94 95  1  0
 95 96  2  0
 97100  1  0
 97 96  1  0
 98 97  2  0
 99 98  1  0
 99 94  2  0
100101  1  0
101102  1  0
102103  2  0
104103  1  0
104108  1  0
105104  2  0
106101  2  0
106105  1  0
107106  1  0
109110  1  0
110113  1  0
110112  1  0
111109  2  0
114 89  1  0
115114  1  0
116114  1  0
M  ISO  4  17 101  18 101  79 100  87 100
M  END
>  <TORSDO>  (52) 
F 37

>  <SCORE>  (52) 
-9.154

>  <name>  (52) 
55

>  <ligand_id>  (52) 
55

>  <original_smiles>  (52) 
[H]c1c([H])c([H])c2c(c1[H])C([H])([H])C([H])([H])C([H])([H])C2([H])N([H])C(=O)C1([H])N(C(=O)C([H])(N([H])C(=O)C([H])(N([H])C([H])([H])[H])C([H])([H])[H])C(C([H])([H])[H])(C([H])([H])[H])C([H])([H])[H])C([H])([H])c2c([H])c(OC([H])([H])C([H])([H])C([H])([H])C([H])([H])[N+]([H])([H])C([H])([H])C([H])([H])N([H])C(=O)C([H])([H])N=C(C([H])([H])[H])C([H])([H])N([H])C(=O)C([H])([H])C([H])([H])C([H])([H])C([H])([H])C([H])([H])N([H])C(=O)C([H])([H])[N+]([H])([H])C([H])([H])C([H])([H])N([H])C(=O)N3C([H])([H])C([H])([H])C([H])([H])C([H])(n4nc(-c5c([H])c([H])c(Oc6c([H])c([H])c(F)c([H])c6F)c([H])c5[H])c(C(=O)N([H])[H])c4N([H])[H])C3([H])[H])c([H])c([H])c2C1([H])[H]

>  <smiles>  (52) 
[H]c1c([H])c([H])c2c(c1[H])C([H])([H])C([H])([H])C([H])([H])C2([H])N([H])C(=O)C1([H])N(C(=O)C([H])(N([H])C(=O)C([H])(N([H])C([H])([H])[H])C([H])([H])[H])C(C([H])([H])[H])(C([H])([H])[H])C([H])([H])[H])C([H])([H])c2c([H])c(OC([H])([H])C([H])([H])C([H])([H])C([H])([H])[N+]([H])([H])C([H])([H])C([H])([H])N([H])C(=O)C([H])([H])N=C(C([H])([H])[H])C([H])([H])N([H])C(=O)C([H])([H])C([H])([H])C([H])([H])C([H])([H])C([H])([H])N([H])C(=O)C([H])([H])[N+]([H])([H])C([H])([H])C([H])([H])N([H])C(=O)N3C([H])([H])C([H])([H])C([H])([H])C([H])(n4nc(-c5c([H])c([H])c(Oc6c([H])c([H])c(F)c([H])c6F)c([H])c5[H])c(C(=O)N([H])[H])c4N([H])[H])C3([H])[H])c([H])c([H])c2C1([H])[H]

$$$$
56:0:0
     RDKit          3D

116123  0  0  1  0  0  0  0  0999 V2000
  -21.9000  -14.6870   20.5500 C   0  0  0  0  0  2  0  0  0  0  0  0
  -22.4860  -12.3730   21.2890 C   0  0  0  0  0  0  0  0  0  0  0  0
  -22.3170  -13.2990   20.3370 N   0  0  0  0  0  0  0  0  0  0  0  0
  -22.0340  -12.5040   22.4290 O   0  0  0  0  0  0  0  0  0  0  0  0
  -22.5600  -13.0190   19.4000 H   0  0  0  0  0  0  0  0  0  0  0  0
  -23.3930  -11.1840   20.9400 C   0  0  0  0  0  2  0  0  0  0  0  0
  -25.6600  -12.2440   20.8450 C   0  0  0  0  0  0  0  0  0  0  0  0
  -24.6320  -11.6020   20.2630 N   0  0  0  0  0  0  0  0  0  0  0  0
  -25.6410  -12.5540   22.0390 O   0  0  0  0  0  0  0  0  0  0  0  0
  -24.7110  -11.3600   19.2860 H   0  0  0  0  0  0  0  0  0  0  0  0
  -26.8860  -12.5910   19.9800 C   0  0  0  0  0  2  0  0  0  0  0  0
  -27.7670  -13.7040   20.5990 C   0  0  0  0  0  2  0  0  0  0  0  0
  -29.2870  -13.4720   20.4510 C   0  0  0  0  0  2  0  0  0  0  0  0
  -30.0220  -14.7320   19.9470 C   0  0  0  0  0  2  0  0  0  0  0  0
  -31.4350  -14.9310   20.5300 C   0  0  0  0  0  2  0  0  0  0  0  0
  -33.5850  -13.6770   19.7460 C   0  0  0  0  0  0  0  0  0  0  0  0
  -32.4530  -14.4000   19.6270 N   0  0  0  0  0  0  0  0  0  0  0  0
  -34.2090  -13.4480   18.7120 O   0  0  0  0  0  0  0  0  0  0  0  0
  -32.2720  -14.6500   18.6630 H   0  0  0  0  0  0  0  0  0  0  0  0
  -34.1950  -13.1030   21.0450 C   0  0  0  0  0  2  0  0  0  0  0  0
  -33.7590  -11.5450   22.9300 C   0  0  0  0  0  0  0  0  0  0  0  0
  -33.0420   -9.6680   24.3780 C   0  0  0  0  0  2  0  0  0  0  0  0
  -32.9570   -8.3690   23.5480 C   0  0  0  0  0  2  0  0  0  0  0  0
  -31.6160   -8.2570   22.7920 C   0  0  0  0  0  2  0  0  0  0  0  0
  -31.2350   -9.5630   22.0490 C   0  0  0  0  0  3  0  0  0  0  0  0
  -31.3740  -10.7550   23.0120 C   0  0  0  0  0  2  0  0  0  0  0  0
  -32.7690  -10.7990   23.4820 N   0  0  0  0  0  0  0  0  0  0  0  0
  -34.9510  -11.4310   23.2430 O   0  0  0  0  0  0  0  0  0  0  0  0
  -33.3360  -12.3810   21.9710 N   0  0  0  0  0  0  0  0  0  0  0  0
  -32.3470  -12.4210   21.7940 H   0  0  0  0  0  0  0  0  0  0  0  0
  -29.4210  -10.0180   20.2850 C   0  0  0  0  0  0  0  0  0  0  0  0
  -28.1210   -9.6050   20.1900 C   0  0  0  0  0  0  0  0  0  0  0  0
  -27.8690   -8.8190   21.3570 C   0  0  0  0  0  0  0  0  0  0  0  0
  -29.8960   -9.4920   21.4750 N   0  0  0  0  0  0  0  0  0  0  0  0
  -28.9340   -8.8090   22.1430 N   0  0  0  0  0  0  0  0  0  0  0  0
  -26.6920   -8.0290   21.7410 C   0  0  0  0  0  0  0  0  0  0  0  0
  -26.0640   -8.2050   22.9950 C   0  0  0  0  0  3  0  0  0  0  0  0
  -24.9270   -7.4420   23.3410 C   0  0  0  0  0  3  0  0  0  0  0  0
  -24.3950   -6.5010   22.4270 C   0  0  0  0  0  0  0  0  0  0  0  0
  -25.0350   -6.3190   21.1870 C   0  0  0  0  0  3  0  0  0  0  0  0
  -26.1720   -7.0710   20.8490 C   0  0  0  0  0  3  0  0  0  0  0  0
  -23.3070   -5.7020   22.6860 O   0  0  0  0  0  0  0  0  0  0  0  0
  -22.2550   -6.1430   23.4520 C   0  0  0  0  0  0  0  0  0  0  0  0
  -21.5700   -7.3420   23.1570 C   0  0  0  0  0  3  0  0  0  0  0  0
  -20.4540   -7.7230   23.9290 C   0  0  0  0  0  3  0  0  0  0  0  0
  -20.0110   -6.9020   24.9820 C   0  0  0  0  0  0  0  0  0  0  0  0
  -20.6880   -5.7050   25.2740 C   0  0  0  0  0  3  0  0  0  0  0  0
  -21.8070   -5.3260   24.5110 C   0  0  0  0  0  0  0  0  0  0  0  0
  -22.4410   -4.1600   24.7820 F   0  0  0  0  0  0  0  0  0  0  0  0
  -18.9330   -7.2630   25.7170 F   0  0  0  0  0  0  0  0  0  0  0  0
  -27.1900   -9.8400   19.0410 C   0  0  0  0  0  0  0  0  0  0  0  0
  -25.9090   -9.5670   19.2400 N   0  0  0  0  0  0  0  0  0  0  0  0
  -27.5840  -10.3060   17.9720 O   0  0  0  0  0  0  0  0  0  0  0  0
  -25.5970   -9.1760   20.1160 H   0  0  0  0  0  0  0  0  0  0  0  0
  -25.2690   -9.6780   18.4810 H   0  0  0  0  0  0  0  0  0  0  0  0
  -30.2380  -10.7780   19.4590 N   0  0  0  0  0  0  0  0  0  0  0  0
  -29.9230  -11.1310   18.5640 H   0  0  0  0  0  0  0  0  0  0  0  0
  -31.2180  -10.9590   19.6360 H   0  0  0  0  0  0  0  0  0  0  0  0
  -23.1260  -15.6250   20.5960 C   0  0  0  0  0  2  0  0  0  0  0  0
  -22.9360  -16.8580   19.8060 N   0  0  0  0  0  4  0  0  0  0  0  0
  -22.9430  -16.6090   18.8280 H   0  0  0  0  0  0  0  0  0  0  0  0
  -22.0310  -17.2470   20.0240 H   0  0  0  0  0  0  0  0  0  0  0  0
  -23.9610  -17.8930   20.0640 C   0  0  0  0  0  2  0  0  0  0  0  0
  -24.3260  -18.7000   18.8030 C   0  0  0  0  0  2  0  0  0  0  0  0
  -24.7780  -20.1330   19.1370 C   0  0  0  0  0  2  0  0  0  0  0  0
  -25.5060  -20.8230   17.9710 C   0  0  0  0  0  2  0  0  0  0  0  0
  -26.2700  -22.0830   18.4230 C   0  0  0  0  0  2  0  0  0  0  0  0
  -27.3990  -22.4710   17.4540 C   0  0  0  0  0  2  0  0  0  0  0  0
  -29.4700  -23.9040   17.5010 C   0  0  0  0  0  0  0  0  0  0  0  0
  -29.8170  -23.6280   16.2340 N   0  0  0  0  0  4  0  0  0  0  0  0
  -28.3740  -23.3750   18.0820 N   0  0  0  0  0  0  0  0  0  0  0  0
  -30.6410  -24.0620   15.8440 H   0  0  0  0  0  0  0  0  0  0  0  0
  -29.3240  -22.9670   15.6590 H   0  0  0  0  0  0  0  0  0  0  0  0
  -28.1830  -23.6450   19.0380 H   0  0  0  0  0  0  0  0  0  0  0  0
  -30.3490  -24.8260   18.2920 C   0  0  0  0  0  2  0  0  0  0  0  0
  -30.0840  -26.2050   18.0280 O   0  0  0  0  0  0  0  0  0  0  0  0
  -26.0540  -28.4920   23.4100 C   0  0  0  0  0  0  0  0  0  0  0  0
  -28.8450  -26.6320   18.4330 C   0  0  0  0  0  0  0  0  0  0  0  0
  -24.8480  -27.9120   21.3290 C   0  0  0  0  0  3  0  0  0  0  0  0
  -26.3080  -27.5260   19.2790 C   0  0  0  0  0  0  0  0  0  0  0  0
  -27.2710  -28.7200   21.2500 C   0  0  0  0  0  2  0  0  0  0  0  0
  -27.4500  -27.8730   20.0080 C   0  0  0  0  0  0  0  0  0  0  0  0
  -28.7240  -27.4360   19.5850 C   0  0  0  0  0  3  0  0  0  0  0  0
  -27.6860  -26.2990   17.6990 C   0  0  0  0  0  3  0  0  0  0  0  0
  -26.4170  -26.7350   18.1240 C   0  0  0  0  0  3  0  0  0  0  0  0
  -24.9830  -28.0430   19.7890 C   0  0  0  0  0  2  0  0  0  0  0  0
  -26.0800  -28.3590   22.0530 N   0  0  0  0  0  0  0  0  0  0  0  0
  -25.0150  -28.2930   24.0540 O   0  0  0  0  0  0  0  0  0  0  0  0
  -24.4310  -26.4630   21.6670 C   0  0  0  0  0  0  0  0  0  0  0  0
  -23.2350  -26.0610   21.2070 N   0  0  0  0  0  0  0  0  0  0  0  0
  -25.1850  -25.7230   22.3050 O   0  0  0  0  0  0  0  0  0  0  0  0
  -22.6760  -26.7340   20.6970 H   0  0  0  0  0  0  0  0  0  0  0  0
  -20.5220  -23.9240   20.1540 C   0  0  0  0  0  0  0  0  0  0  0  0
  -22.6520  -24.7310   21.3730 C   0  0  0  0  0  3  0  0  0  0  0  0
  -23.4100  -23.6820   20.5280 C   0  0  0  0  0  2  0  0  0  0  0  0
  -22.7950  -23.4650   19.1420 C   0  0  0  0  0  2  0  0  0  0  0  0
  -21.3410  -23.0010   19.2680 C   0  0  0  0  0  2  0  0  0  0  0  0
  -21.1380  -24.7470   21.1320 C   0  0  0  0  0  0  0  0  0  0  0  0
  -20.3320  -25.6110   21.9070 C   0  0  0  0  0  3  0  0  0  0  0  0
  -18.9380  -25.6560   21.7190 C   0  0  0  0  0  3  0  0  0  0  0  0
  -18.3310  -24.8280   20.7600 C   0  0  0  0  0  3  0  0  0  0  0  0
  -19.1230  -23.9610   19.9830 C   0  0  0  0  0  3  0  0  0  0  0  0
  -27.3180  -28.9280   24.2130 C   0  0  0  0  0  3  0  0  0  0  0  0
  -27.7770  -27.8590   25.2830 C   0  0  1  0  0  0  0  0  0  0  0  0
  -26.6460  -27.4100   26.2360 C   0  0  0  0  0  1  0  0  0  0  0  0
  -28.3390  -26.5980   24.5870 C   0  0  0  0  0  1  0  0  0  0  0  0
  -28.9260  -28.4380   26.1430 C   0  0  0  0  0  1  0  0  0  0  0  0
  -27.0080  -30.2110   24.8580 N   0  0  0  0  0  0  0  0  0  0  0  0
  -27.4590  -31.4010   24.4380 C   0  0  0  0  0  0  0  0  0  0  0  0
  -28.2500  -31.5260   23.4980 O   0  0  0  0  0  0  0  0  0  0  0  0
  -26.3180  -30.1890   25.5950 H   0  0  0  0  0  0  0  0  0  0  0  0
  -25.9140  -33.3810   24.3200 C   0  0  0  0  0  1  0  0  0  0  0  0
  -26.9540  -32.6500   25.1820 C   0  0  0  0  0  3  0  0  0  0  0  0
  -28.9120  -33.0710   26.6040 C   0  0  0  0  0  1  0  0  0  0  0  0
  -28.0350  -33.5890   25.5560 N   0  0  0  0  0  0  0  0  0  0  0  0
  -27.6480  -34.4720   25.8790 H   0  0  0  0  0  0  0  0  0  0  0  0
  1 59  1  0
  2  4  2  0
  3  1  1  0
  3  2  1  0
  5  3  1  0
  6  2  1  0
  7  9  2  0
  8  7  1  0
  8  6  1  0
 10  8  1  0
 11 12  1  0
 11  7  1  0
 13 12  1  0
 14 13  1  0
 14 15  1  0
 16 20  1  0
 17 16  1  0
 17 15  1  0
 18 16  2  0
 19 17  1  0
 20 29  1  0
 21 28  2  0
 21 27  1  0
 23 22  1  0
 24 23  1  0
 25 34  1  0
 25 24  1  0
 25 26  1  0
 26 27  1  0
 27 22  1  0
 29 21  1  0
 30 29  1  0
 31 34  1  0
 32 31  2  0
 32 33  1  0
 33 36  1  0
 33 35  2  0
 34 35  1  0
 36 37  1  0
 37 38  2  0
 39 42  1  0
 39 38  1  0
 40 39  2  0
 41 40  1  0
 41 36  2  0
 42 43  1  0
 43 48  1  0
 44 43  2  0
 44 45  1  0
 45 46  2  0
 46 47  1  0
 46 50  1  0
 48 49  1  0
 48 47  2  0
 51 52  1  0
 51 32  1  0
 52 54  1  0
 53 51  2  0
 55 52  1  0
 56 58  1  0
 56 31  1  0
 57 56  1  0
 60 62  1  0
 60 63  1  0
 60 59  1  0
 61 60  1  0
 64 65  1  0
 64 63  1  0
 66 67  1  0
 66 65  1  0
 68 71  1  0
 68 67  1  0
 69 71  1  0
 69 75  1  0
 70 69  2  0
 71 74  1  0
 72 70  1  0
 73 70  1  0
 76 75  1  0
 76 78  1  0
 77 88  2  0
 78 83  1  0
 79 89  1  0
 79 87  1  0
 80 86  1  0
 80 82  1  0
 81 87  1  0
 82 81  1  0
 83 82  2  0
 84 85  1  0
 84 78  2  0
 85 80  2  0
 86 79  1  0
 87 77  1  0
 89 91  2  0
 90 89  1  0
 92 90  1  0
 93 98  1  0
 94 90  1  0
 95 94  1  0
 96 97  1  0
 96 95  1  0
 97 93  1  0
 98 94  1  0
 98 99  2  0
100 99  1  0
101100  2  0
102 93  2  0
102101  1  0
103 77  1  0
103108  1  0
103104  1  0
104107  1  1
104105  1  0
106104  1  0
108111  1  0
109108  1  0
109113  1  0
110109  2  0
113112  1  0
113115  1  0
115116  1  0
115114  1  0
M  ISO  4  21 100  29 100  75 101  76 101
M  END
>  <TORSDO>  (53) 
F 36

>  <SCORE>  (53) 
5.758

>  <name>  (53) 
56

>  <ligand_id>  (53) 
56

>  <original_smiles>  (53) 
[H]c1c([H])c([H])c2c(c1[H])C([H])([H])C([H])([H])C([H])([H])C2([H])N([H])C(=O)C1([H])N(C(=O)C([H])(N([H])C(=O)C([H])(N([H])C([H])([H])[H])C([H])([H])[H])C(C([H])([H])[H])(C([H])([H])[H])C([H])([H])[H])C([H])([H])c2c([H])c(OC([H])([H])C(N([H])[H])=[N+]([H])C([H])([H])C([H])([H])C([H])([H])C([H])([H])C([H])([H])C([H])([H])[N+]([H])([H])C([H])([H])C([H])([H])N([H])C(=O)C([H])([H])N([H])C(=O)C([H])([H])C([H])([H])C([H])([H])C([H])([H])C([H])([H])N([H])C(=O)C([H])([H])N([H])C(=O)N3C([H])([H])C([H])([H])C([H])([H])C([H])(n4nc(-c5c([H])c([H])c(Oc6c([H])c([H])c(F)c([H])c6F)c([H])c5[H])c(C(=O)N([H])[H])c4N([H])[H])C3([H])[H])c([H])c([H])c2C1([H])[H]

>  <smiles>  (53) 
[H]c1c([H])c([H])c2c(c1[H])C([H])([H])C([H])([H])C([H])([H])C2([H])N([H])C(=O)C1([H])N(C(=O)C([H])(N([H])C(=O)C([H])(N([H])C([H])([H])[H])C([H])([H])[H])C(C([H])([H])[H])(C([H])([H])[H])C([H])([H])[H])C([H])([H])c2c([H])c(OC([H])([H])C(N([H])[H])=[N+]([H])C([H])([H])C([H])([H])C([H])([H])C([H])([H])C([H])([H])C([H])([H])[N+]([H])([H])C([H])([H])C([H])([H])N([H])C(=O)C([H])([H])N([H])C(=O)C([H])([H])C([H])([H])C([H])([H])C([H])([H])C([H])([H])N([H])C(=O)C([H])([H])N([H])C(=O)N3C([H])([H])C([H])([H])C([H])([H])C([H])(n4nc(-c5c([H])c([H])c(Oc6c([H])c([H])c(F)c([H])c6F)c([H])c5[H])c(C(=O)N([H])[H])c4N([H])[H])C3([H])[H])c([H])c([H])c2C1([H])[H]

$$$$
57:0:0
     RDKit          3D

102107  0  0  1  0  0  0  0  0999 V2000
  -22.4570  -22.9600   20.1130 C   0  0  0  0  0  2  0  0  0  0  0  0
  -21.3830  -21.9050   20.4240 C   0  0  0  0  0  2  0  0  0  0  0  0
  -19.0820  -22.4760   19.6760 C   0  0  0  0  0  0  0  0  0  0  0  0
  -20.3110  -21.9990   19.4410 N   0  0  0  0  0  0  0  0  0  0  0  0
  -18.6640  -22.7190   20.8100 O   0  0  0  0  0  0  0  0  0  0  0  0
  -20.5540  -21.8180   18.4760 H   0  0  0  0  0  0  0  0  0  0  0  0
  -18.2300  -22.8010   18.4480 C   0  0  0  0  0  2  0  0  0  0  0  0
  -18.7110  -24.0250   17.9120 O   0  0  0  0  0  0  0  0  0  0  0  0
  -18.4320  -24.2130   16.5290 C   0  0  0  0  0  2  0  0  0  0  0  0
  -19.1000  -25.5210   15.8820 C   0  0  0  0  0  1  0  0  0  0  0  0
  -22.0140  -26.2040   15.1330 C   0  0  0  0  0  2  0  0  0  0  0  0
  -23.7310  -25.3170   15.8910 O   0  0  0  0  0  1  0  0  0  0  0  0
  -24.3390  -28.4810   20.1380 C   0  0  0  0  0  0  0  0  0  0  0  0
  -25.2730  -25.1160   16.0410 C   0  0  0  0  0  3  0  0  0  0  0  0
  -23.8780  -28.4210   17.7650 C   0  0  0  0  0  3  0  0  0  0  0  0
  -25.6590  -27.5180   16.1180 C   0  0  0  0  0  3  0  0  0  0  0  0
  -26.1470  -27.7010   18.5700 C   0  0  0  0  0  2  0  0  0  0  0  0
  -26.1450  -26.9050   17.2790 C   0  0  0  0  0  3  0  0  0  0  0  0
  -26.0560  -25.5050   17.2110 C   0  0  0  0  0  2  0  0  0  0  0  0
  -25.9940  -25.4440   14.9110 C   0  0  0  0  0  2  0  0  0  0  0  0
  -25.7640  -26.8200   14.8780 C   0  0  0  0  0  2  0  0  0  0  0  0
  -24.6020  -28.5540   16.3660 C   0  0  0  0  0  2  0  0  0  0  0  0
  -24.8160  -28.2560   18.8840 N   0  0  0  0  0  0  0  0  0  0  0  0
  -23.1880  -28.9080   20.3320 O   0  0  0  0  0  0  0  0  0  0  0  0
  -22.8700  -27.2710   17.9490 C   0  0  0  0  0  0  0  0  0  0  0  0
  -21.8620  -27.2770   17.1530 N   0  0  0  0  0  0  0  0  0  0  0  0
  -22.9190  -26.4080   18.8180 O   0  0  0  0  0  0  0  0  0  0  0  0
  -21.7430  -28.0380   16.4970 H   0  0  0  0  0  0  0  0  0  0  0  0
  -21.0750  -26.1080   13.9850 C   0  0  1  0  0  0  0  0  0  0  0  0
  -21.0870  -26.0910   16.9320 C   0  0  0  0  0  2  0  0  0  0  0  0
  -21.7320  -24.0450   17.2920 C   0  0  0  0  0 15  0  0  0  0  0  0
  -22.4310  -23.3710   15.3290 C   0  0  0  0  0  1  0  0  0  0  0  0
  -22.0650  -24.6400   13.8910 C   0  0  0  0  0  2  0  0  0  0  0  0
  -20.7200  -26.7510   15.3260 C   0  0  1  0  0  0  0  0  0  0  0  0
  -19.7290  -27.7950   15.3050 C   0  0  0  0  0  2  0  0  0  0  0  0
  -18.9710  -28.1760   14.1720 C   0  0  0  0  0  3  0  0  0  0  0  0
  -19.1230  -27.4530   12.9830 C   0  0  0  0  0  3  0  0  0  0  0  0
  -20.1280  -26.4390   12.9110 C   0  0  0  0  0  2  0  0  0  0  0  0
  -25.2310  -28.2390   21.3730 C   0  0  0  0  0  3  0  0  0  0  0  0
  -25.0210  -29.4010   22.2390 N   0  0  0  0  0  0  0  0  0  0  0  0
  -25.8650  -30.4320   22.3280 C   0  0  0  0  0  0  0  0  0  0  0  0
  -26.9600  -30.4480   21.7580 O   0  0  0  0  0  0  0  0  0  0  0  0
  -24.1260  -29.4700   22.7020 H   0  0  0  0  0  0  0  0  0  0  0  0
  -25.0980  -32.8290   22.2940 C   0  0  0  0  0  1  0  0  0  0  0  0
  -25.4300  -31.6290   23.1940 C   0  0  0  0  0  3  0  0  0  0  0  0
  -26.6410  -31.0140   25.2380 C   0  0  0  0  0  1  0  0  0  0  0  0
  -26.4460  -32.0150   24.1940 N   0  0  0  0  0  0  0  0  0  0  0  0
  -26.1980  -32.8950   24.6390 H   0  0  0  0  0  0  0  0  0  0  0  0
  -24.9020  -26.9020   22.1330 C   0  0  1  0  0  0  0  0  0  0  0  0
  -23.4000  -26.6870   22.4350 C   0  0  0  0  0  1  0  0  0  0  0  0
  -25.3900  -25.6750   21.3300 C   0  0  0  0  0  1  0  0  0  0  0  0
  -25.6720  -26.8890   23.4720 C   0  0  0  0  0  1  0  0  0  0  0  0
  -23.8810  -22.3960   20.1160 C   0  0  0  0  0  2  0  0  0  0  0  0
  -24.8380  -23.2430   19.2700 C   0  0  0  0  0  2  0  0  0  0  0  0
  -26.1070  -22.6210   19.3110 O   0  0  0  0  0  0  0  0  0  0  0  0
  -27.0430  -23.2270   18.4310 C   0  0  0  0  0  2  0  0  0  0  0  0
  -28.3640  -22.4680   18.5520 C   0  0  0  0  0  0  0  0  0  0  0  0
  -28.7370  -21.7310   17.5000 N   0  0  0  0  0  0  0  0  0  0  0  0
  -29.0060  -22.5000   19.6070 O   0  0  0  0  0  0  0  0  0  0  0  0
  -28.1490  -21.7720   16.6760 H   0  0  0  0  0  0  0  0  0  0  0  0
  -29.7750  -20.7110   17.5330 C   0  0  0  0  0  2  0  0  0  0  0  0
  -29.1100  -19.3550   17.6030 C   0  0  0  0  0  3  0  0  0  0  0  0
  -29.1370  -18.5330   18.6630 C   0  0  0  0  0  3  0  0  0  0  0  0
  -28.3850  -17.2230   18.6670 C   0  0  0  0  0  2  0  0  0  0  0  0
  -29.7610  -15.4510   19.6260 C   0  0  0  0  0  0  0  0  0  0  0  0
  -29.9010  -13.1110   18.9490 C   0  0  0  0  0  2  0  0  0  0  0  0
  -28.8150  -12.8820   17.8760 C   0  0  0  0  0  2  0  0  0  0  0  0
  -27.4730  -12.5000   18.5330 C   0  0  0  0  0  2  0  0  0  0  0  0
  -27.0700  -13.4640   19.6810 C   0  0  0  0  0  3  0  0  0  0  0  0
  -28.2560  -13.7100   20.6450 C   0  0  0  0  0  2  0  0  0  0  0  0
  -29.4140  -14.1590   19.8540 N   0  0  0  0  0  0  0  0  0  0  0  0
  -30.7890  -15.7950   19.0390 O   0  0  0  0  0  0  0  0  0  0  0  0
  -28.7410  -16.3080   19.7550 N   0  0  0  0  0  0  0  0  0  0  0  0
  -27.9740  -15.9770   20.3160 H   0  0  0  0  0  0  0  0  0  0  0  0
  -24.8940  -13.7090   21.0390 C   0  0  0  0  0  0  0  0  0  0  0  0
  -23.9750  -12.7890   21.4670 C   0  0  0  0  0  0  0  0  0  0  0  0
  -24.4620  -11.5170   21.0370 C   0  0  0  0  0  0  0  0  0  0  0  0
  -25.8840  -12.9850   20.3890 N   0  0  0  0  0  0  0  0  0  0  0  0
  -25.6390  -11.6520   20.4400 N   0  0  0  0  0  0  0  0  0  0  0  0
  -23.8490  -10.1850   21.1060 C   0  0  0  0  0  0  0  0  0  0  0  0
  -24.4890   -9.1120   21.7640 C   0  0  0  0  0  3  0  0  0  0  0  0
  -23.8710   -7.8440   21.8320 C   0  0  0  0  0  3  0  0  0  0  0  0
  -22.6000   -7.6410   21.2450 C   0  0  0  0  0  0  0  0  0  0  0  0
  -21.9780   -8.7070   20.5720 C   0  0  0  0  0  3  0  0  0  0  0  0
  -22.5960   -9.9670   20.4990 C   0  0  0  0  0  3  0  0  0  0  0  0
  -21.9360   -6.4380   21.2410 O   0  0  0  0  0  0  0  0  0  0  0  0
  -21.9530   -5.6020   22.3280 C   0  0  0  0  0  0  0  0  0  0  0  0
  -21.5360   -6.0330   23.6060 C   0  0  0  0  0  3  0  0  0  0  0  0
  -21.5040   -5.1220   24.6810 C   0  0  0  0  0  3  0  0  0  0  0  0
  -21.8790   -3.7810   24.4780 C   0  0  0  0  0  0  0  0  0  0  0  0
  -22.2900   -3.3480   23.2050 C   0  0  0  0  0  3  0  0  0  0  0  0
  -22.3250   -4.2570   22.1330 C   0  0  0  0  0  0  0  0  0  0  0  0
  -22.7010   -3.8300   20.9030 F   0  0  0  0  0  0  0  0  0  0  0  0
  -21.8420   -2.9030   25.5080 F   0  0  0  0  0  0  0  0  0  0  0  0
  -22.6690  -13.0780   22.1520 C   0  0  0  0  0  0  0  0  0  0  0  0
  -22.2440  -12.2010   23.0540 N   0  0  0  0  0  0  0  0  0  0  0  0
  -22.0420  -14.1110   21.9230 O   0  0  0  0  0  0  0  0  0  0  0  0
  -22.7710  -11.3650   23.2590 H   0  0  0  0  0  0  0  0  0  0  0  0
  -21.3790  -12.3690   23.5480 H   0  0  0  0  0  0  0  0  0  0  0  0
  -24.9610  -15.0970   21.1290 N   0  0  0  0  0  0  0  0  0  0  0  0
  -24.2150  -15.6450   21.5420 H   0  0  0  0  0  0  0  0  0  0  0  0
  -25.6810  -15.6660   20.7050 H   0  0  0  0  0  0  0  0  0  0  0  0
  1 53  1  0
  1  2  1  0
  3  5  2  0
  4  3  1  0
  4  2  1  0
  6  4  1  0
  7  3  1  0
  8  7  1  0
  9  8  1  0
 10  9  1  0
 11 34  1  0
 13 24  2  0
 14 12  1  0
 14 19  1  0
 15 25  1  0
 15 23  1  0
 16 21  1  0
 16 22  1  0
 16 18  1  0
 17 23  1  0
 18 19  1  0
 18 17  1  0
 20 14  1  0
 21 20  1  0
 22 15  1  0
 23 13  1  0
 25 27  2  0
 26 25  1  0
 28 26  1  0
 29 33  1  1
 29 11  1  0
 29 34  1  0
 30 26  1  0
 33 32  1  0
 34 30  1  1
 35 34  1  0
 36 35  1  0
 37 36  2  0
 38 37  1  0
 38 29  1  0
 39 13  1  0
 39 49  1  0
 39 40  1  0
 40 41  1  0
 40 43  1  0
 41 45  1  0
 42 41  2  0
 45 44  1  0
 45 47  1  0
 47 48  1  0
 47 46  1  0
 49 50  1  1
 49 52  1  0
 51 49  1  0
 54 55  1  0
 54 53  1  0
 56 57  1  0
 56 55  1  0
 57 59  2  0
 58 61  1  0
 58 57  1  0
 60 58  1  0
 61 62  1  0
 62 63  2  0
 63 64  1  0
 64 73  1  0
 65 73  1  0
 65 71  1  0
 66 71  1  0
 67 68  1  0
 67 66  1  0
 69 68  1  0
 69 78  1  0
 69 70  1  0
 71 70  1  0
 72 65  2  0
 73 74  1  0
 75100  1  0
 75 76  2  0
 76 95  1  0
 77 80  1  0
 77 76  1  0
 78 79  1  0
 78 75  1  0
 79 77  2  0
 80 81  1  0
 81 82  2  0
 83 82  1  0
 84 83  2  0
 85 84  1  0
 85 80  2  0
 86 83  1  0
 86 87  1  0
 87 88  1  0
 88 89  2  0
 90 89  1  0
 90 94  1  0
 91 90  2  0
 92 87  2  0
 92 91  1  0
 93 92  1  0
 95 96  1  0
 96 98  1  0
 96 99  1  0
 97 95  2  0
100101  1  0
102100  1  0
M  ISO  4  11 101  12 101  65 100  73 100
M  END
>  <TORSDO>  (54) 
F 31

>  <SCORE>  (54) 
-3.033

>  <name>  (54) 
57

>  <ligand_id>  (54) 
57

>  <original_smiles>  (54) 
[H]C(=C([H])C([H])([H])N([H])C(=O)C([H])([H])OC([H])([H])C([H])([H])C([H])([H])C([H])([H])N([H])C(=O)C([H])([H])OC([H])([H])C([H])([H])C([H])([H])Oc1c([H])c([H])c2c(c1[H])C([H])([H])N(C(=O)C([H])(N([H])C(=O)C([H])(N([H])C([H])([H])[H])C([H])([H])[H])C(C([H])([H])[H])(C([H])([H])[H])C([H])([H])[H])C([H])(C(=O)N([H])C1([H])c3c([H])c([H])c([H])c([H])c3C([H])([H])C([H])([H])C1([H])[H])C2([H])[H])C([H])([H])N([H])C(=O)N1C([H])([H])C([H])([H])C([H])([H])C([H])(n2nc(-c3c([H])c([H])c(Oc4c([H])c([H])c(F)c([H])c4F)c([H])c3[H])c(C(=O)N([H])[H])c2N([H])[H])C1([H])[H]

>  <smiles>  (54) 
[H]C(=C([H])C([H])([H])N([H])C(=O)C([H])([H])OC([H])([H])C([H])([H])C([H])([H])C([H])([H])N([H])C(=O)C([H])([H])OC([H])([H])C([H])([H])C([H])([H])Oc1c([H])c([H])c2c(c1[H])C([H])([H])N(C(=O)C([H])(N([H])C(=O)C([H])(N([H])C([H])([H])[H])C([H])([H])[H])C(C([H])([H])[H])(C([H])([H])[H])C([H])([H])[H])C([H])(C(=O)N([H])C1([H])c3c([H])c([H])c([H])c([H])c3C([H])([H])C([H])([H])C1([H])[H])C2([H])[H])C([H])([H])N([H])C(=O)N1C([H])([H])C([H])([H])C([H])([H])C([H])(n2nc(-c3c([H])c([H])c(Oc4c([H])c([H])c(F)c([H])c4F)c([H])c3[H])c(C(=O)N([H])[H])c2N([H])[H])C1([H])[H]

$$$$
58:0:0
     RDKit          3D

112119  0  0  1  0  0  0  0  0999 V2000
  -33.1050  -27.8430   17.1800 C   0  0  0  0  0  2  0  0  0  0  0  0
  -33.9840  -28.3750   16.0300 C   0  0  0  0  0  2  0  0  0  0  0  0
  -32.7600  -27.7940   13.9520 C   0  0  0  0  0  0  0  0  0  0  0  0
  -33.7660  -27.6010   14.8120 N   0  0  0  0  0  0  0  0  0  0  0  0
  -32.0280  -28.7840   13.9920 O   0  0  0  0  0  0  0  0  0  0  0  0
  -34.3470  -26.7820   14.6820 H   0  0  0  0  0  0  0  0  0  0  0  0
  -32.5140  -26.6970   12.9130 C   0  0  0  0  0  2  0  0  0  0  0  0
  -31.5910  -25.5710   13.4370 C   0  0  0  0  0  2  0  0  0  0  0  0
  -30.1290  -25.9970   13.6620 C   0  0  0  0  0  2  0  0  0  0  0  0
  -29.2460  -24.8690   14.2290 C   0  0  0  0  0  2  0  0  0  0  0  0
  -27.7950  -25.3020   14.5240 C   0  0  0  0  0  2  0  0  0  0  0  0
  -27.8270  -26.2370   16.8400 C   0  0  0  0  0  0  0  0  0  0  0  0
  -27.7440  -26.3790   15.5110 N   0  0  0  0  0  0  0  0  0  0  0  0
  -27.7680  -25.1390   17.3980 O   0  0  0  0  0  0  0  0  0  0  0  0
  -27.7520  -27.3250   15.1490 H   0  0  0  0  0  0  0  0  0  0  0  0
  -28.0520  -27.5140   17.6580 C   0  0  0  0  0  2  0  0  0  0  0  0
  -27.6070  -27.3350   19.0050 O   0  0  0  0  0  0  0  0  0  0  0  0
  -24.8150  -31.9000   23.6820 C   0  0  0  0  0  0  0  0  0  0  0  0
  -26.5120  -28.0820   19.3680 C   0  0  0  0  0  0  0  0  0  0  0  0
  -23.2400  -30.9690   22.0150 C   0  0  0  0  0  3  0  0  0  0  0  0
  -24.3020  -29.6760   20.0890 C   0  0  0  0  0  0  0  0  0  0  0  0
  -25.7290  -31.1910   21.4780 C   0  0  0  0  0  2  0  0  0  0  0  0
  -25.5780  -29.9820   20.5820 C   0  0  0  0  0  0  0  0  0  0  0  0
  -26.6840  -29.1770   20.2360 C   0  0  0  0  0  3  0  0  0  0  0  0
  -25.2220  -27.7720   18.8870 C   0  0  0  0  0  3  0  0  0  0  0  0
  -24.1160  -28.5670   19.2440 C   0  0  0  0  0  3  0  0  0  0  0  0
  -23.1680  -30.5830   20.5130 C   0  0  0  0  0  2  0  0  0  0  0  0
  -24.6230  -31.3520   22.4500 N   0  0  0  0  0  0  0  0  0  0  0  0
  -23.8600  -32.1280   24.4380 O   0  0  0  0  0  0  0  0  0  0  0  0
  -22.6380  -29.8130   22.8450 C   0  0  0  0  0  0  0  0  0  0  0  0
  -21.3100  -29.6370   22.7510 N   0  0  0  0  0  0  0  0  0  0  0  0
  -23.3610  -29.0850   23.5300 O   0  0  0  0  0  0  0  0  0  0  0  0
  -20.7840  -30.2890   22.1870 H   0  0  0  0  0  0  0  0  0  0  0  0
  -18.0760  -28.0390   22.8360 C   0  0  0  0  0  0  0  0  0  0  0  0
  -20.5350  -28.5870   23.4100 C   0  0  0  0  0  3  0  0  0  0  0  0
  -20.8710  -27.1930   22.8320 C   0  0  0  0  0  2  0  0  0  0  0  0
  -19.9410  -26.7690   21.6900 C   0  0  0  0  0  2  0  0  0  0  0  0
  -18.4870  -26.7360   22.1710 C   0  0  0  0  0  2  0  0  0  0  0  0
  -19.0380  -28.9150   23.4030 C   0  0  0  0  0  0  0  0  0  0  0  0
  -18.6050  -30.1290   23.9760 C   0  0  0  0  0  3  0  0  0  0  0  0
  -17.2410  -30.4740   23.9890 C   0  0  0  0  0  3  0  0  0  0  0  0
  -16.2900  -29.5950   23.4430 C   0  0  0  0  0  3  0  0  0  0  0  0
  -16.7070  -28.3790   22.8720 C   0  0  0  0  0  3  0  0  0  0  0  0
  -26.2390  -32.2890   24.1920 C   0  0  0  0  0  3  0  0  0  0  0  0
  -26.7680  -31.3480   25.3420 C   0  0  1  0  0  0  0  0  0  0  0  0
  -25.7790  -31.1850   26.5180 C   0  0  0  0  0  1  0  0  0  0  0  0
  -27.0820  -29.9360   24.7900 C   0  0  0  0  0  1  0  0  0  0  0  0
  -28.0950  -31.9080   25.9090 C   0  0  0  0  0  1  0  0  0  0  0  0
  -26.1810  -33.6850   24.6480 N   0  0  0  0  0  0  0  0  0  0  0  0
  -26.6650  -34.7280   23.9620 C   0  0  0  0  0  0  0  0  0  0  0  0
  -27.2820  -34.6040   22.8990 O   0  0  0  0  0  0  0  0  0  0  0  0
  -25.6380  -33.8680   25.4800 H   0  0  0  0  0  0  0  0  0  0  0  0
  -25.2920  -36.8250   23.7790 C   0  0  0  0  0  1  0  0  0  0  0  0
  -26.4290  -36.1330   24.5470 C   0  0  0  0  0  3  0  0  0  0  0  0
  -28.6760  -36.5390   25.4530 C   0  0  0  0  0  1  0  0  0  0  0  0
  -27.6360  -36.9890   24.5310 N   0  0  0  0  0  0  0  0  0  0  0  0
  -27.3990  -37.9490   24.7660 H   0  0  0  0  0  0  0  0  0  0  0  0
  -33.5380  -26.4560   17.6900 C   0  0  0  0  0  2  0  0  0  0  0  0
  -32.4910  -25.8000   18.6000 C   0  0  0  0  0  2  0  0  0  0  0  0
  -32.6820  -24.2800   18.6910 C   0  0  0  0  0  2  0  0  0  0  0  0
  -31.5180  -23.5770   19.3980 C   0  0  0  0  0  2  0  0  0  0  0  0
  -31.4060  -22.0960   19.0070 C   0  0  0  0  0  2  0  0  0  0  0  0
  -30.0390  -21.5100   19.3730 C   0  0  0  0  0  2  0  0  0  0  0  0
  -29.7280  -20.2150   18.6050 C   0  0  0  0  0  2  0  0  0  0  0  0
  -27.3870  -20.6810   17.9410 C   0  0  0  0  0  0  0  0  0  0  0  0
  -28.2930  -19.9570   18.6050 N   0  0  0  0  0  0  0  0  0  0  0  0
  -27.7050  -21.6050   17.1850 O   0  0  0  0  0  0  0  0  0  0  0  0
  -27.9560  -19.1900   19.1740 H   0  0  0  0  0  0  0  0  0  0  0  0
  -25.9160  -20.3120   18.1620 C   0  0  0  0  0  2  0  0  0  0  0  0
  -24.3700  -22.2450   17.8890 C   0  0  0  0  0  0  0  0  0  0  0  0
  -25.0130  -21.1770   17.4100 N   0  0  0  0  0  0  0  0  0  0  0  0
  -24.3950  -22.5730   19.0770 O   0  0  0  0  0  0  0  0  0  0  0  0
  -24.9480  -21.0000   16.4170 H   0  0  0  0  0  0  0  0  0  0  0  0
  -23.5840  -23.0500   16.8580 C   0  0  0  0  0  2  0  0  0  0  0  0
  -21.8940  -24.7980   17.3940 C   0  0  0  0  0  0  0  0  0  0  0  0
  -19.8830  -25.9790   16.6250 C   0  0  0  0  0  2  0  0  0  0  0  0
  -19.2220  -26.9240   17.6370 C   0  0  0  0  0  2  0  0  0  0  0  0
  -18.2460  -26.1490   18.5390 C   0  0  0  0  0  2  0  0  0  0  0  0
  -18.8990  -24.8940   19.1700 C   0  0  0  0  0  3  0  0  0  0  0  0
  -19.6130  -24.0370   18.1040 C   0  0  0  0  0  2  0  0  0  0  0  0
  -20.5490  -24.8910   17.3480 N   0  0  0  0  0  0  0  0  0  0  0  0
  -22.6630  -25.7380   17.1680 O   0  0  0  0  0  0  0  0  0  0  0  0
  -22.3000  -23.5250   17.3620 N   0  0  0  0  0  0  0  0  0  0  0  0
  -21.5930  -22.8230   17.5200 H   0  0  0  0  0  0  0  0  0  0  0  0
  -18.1210  -23.0730   20.8180 C   0  0  0  0  0  0  0  0  0  0  0  0
  -16.8820  -22.7400   21.2940 C   0  0  0  0  0  0  0  0  0  0  0  0
  -15.9610  -23.6230   20.6500 C   0  0  0  0  0  0  0  0  0  0  0  0
  -17.9180  -24.1110   19.9210 N   0  0  0  0  0  0  0  0  0  0  0  0
  -16.5980  -24.4020   19.7870 N   0  0  0  0  0  0  0  0  0  0  0  0
  -14.5170  -23.8080   20.8470 C   0  0  0  0  0  0  0  0  0  0  0  0
  -13.5770  -23.3690   19.8880 C   0  0  0  0  0  3  0  0  0  0  0  0
  -12.1950  -23.5430   20.1080 C   0  0  0  0  0  3  0  0  0  0  0  0
  -11.7370  -24.1590   21.2970 C   0  0  0  0  0  0  0  0  0  0  0  0
  -12.6780  -24.6130   22.2390 C   0  0  0  0  0  3  0  0  0  0  0  0
  -14.0540  -24.4440   22.0160 C   0  0  0  0  0  3  0  0  0  0  0  0
  -10.4140  -24.3920   21.5860 O   0  0  0  0  0  0  0  0  0  0  0  0
   -9.4560  -23.4280   21.3980 C   0  0  0  0  0  0  0  0  0  0  0  0
   -9.5450  -22.1580   22.0110 C   0  0  0  0  0  3  0  0  0  0  0  0
   -8.5040  -21.2230   21.8470 C   0  0  0  0  0  3  0  0  0  0  0  0
   -7.3710  -21.5580   21.0830 C   0  0  0  0  0  0  0  0  0  0  0  0
   -7.2770  -22.8220   20.4780 C   0  0  0  0  0  3  0  0  0  0  0  0
   -8.3160  -23.7570   20.6380 C   0  0  0  0  0  0  0  0  0  0  0  0
   -8.2110  -24.9820   20.0700 F   0  0  0  0  0  0  0  0  0  0  0  0
   -6.3660  -20.6620   20.9320 F   0  0  0  0  0  0  0  0  0  0  0  0
  -16.5740  -21.7270   22.3590 C   0  0  0  0  0  0  0  0  0  0  0  0
  -15.3620  -21.1830   22.3550 N   0  0  0  0  0  0  0  0  0  0  0  0
  -17.4280  -21.3740   23.1720 O   0  0  0  0  0  0  0  0  0  0  0  0
  -14.6670  -21.4570   21.6760 H   0  0  0  0  0  0  0  0  0  0  0  0
  -15.1240  -20.4820   23.0440 H   0  0  0  0  0  0  0  0  0  0  0  0
  -19.4020  -22.5960   21.0830 N   0  0  0  0  0  0  0  0  0  0  0  0
  -19.5810  -21.8720   21.7690 H   0  0  0  0  0  0  0  0  0  0  0  0
  -20.2480  -22.9670   20.6680 H   0  0  0  0  0  0  0  0  0  0  0  0
  1 58  1  0
  2  1  1  0
  3  5  2  0
  3  4  1  0
  4  2  1  0
  6  4  1  0
  7  8  1  0
  7  3  1  0
  8  9  1  0
  9 10  1  0
 10 11  1  0
 11 13  1  0
 12 14  2  0
 12 16  1  0
 13 12  1  0
 15 13  1  0
 16 17  1  0
 17 19  1  0
 18 29  2  0
 19 24  1  0
 20 28  1  0
 20 30  1  0
 21 27  1  0
 21 23  1  0
 22 28  1  0
 23 22  1  0
 24 23  2  0
 25 26  1  0
 25 19  2  0
 26 21  2  0
 27 20  1  0
 28 18  1  0
 30 32  2  0
 31 30  1  0
 33 31  1  0
 34 43  2  0
 34 39  1  0
 35 31  1  0
 36 35  1  0
 37 38  1  0
 37 36  1  0
 38 34  1  0
 39 35  1  0
 39 40  2  0
 40 41  1  0
 42 41  2  0
 43 42  1  0
 44 18  1  0
 44 49  1  0
 44 45  1  0
 45 48  1  1
 45 46  1  0
 47 45  1  0
 49 52  1  0
 50 54  1  0
 50 49  1  0
 51 50  2  0
 54 53  1  0
 56 54  1  0
 56 57  1  0
 56 55  1  0
 58 59  1  0
 59 60  1  0
 60 61  1  0
 62 63  1  0
 62 61  1  0
 64 63  1  0
 65 69  1  0
 65 66  1  0
 66 64  1  0
 66 68  1  0
 67 65  2  0
 70 72  2  0
 71 70  1  0
 71 69  1  0
 73 71  1  0
 74 83  1  0
 74 70  1  0
 76 81  1  0
 76 77  1  0
 77 78  1  0
 78 79  1  0
 79 80  1  0
 79 88  1  0
 81 75  1  0
 81 80  1  0
 82 75  2  0
 83 75  1  0
 83 84  1  0
 85110  1  0
 85 86  2  0
 86105  1  0
 87 90  1  0
 87 86  1  0
 88 85  1  0
 89 88  1  0
 89 87  2  0
 90 95  1  0
 91 92  1  0
 91 90  2  0
 92 93  2  0
 93 96  1  0
 93 94  1  0
 95 94  2  0
 97 96  1  0
 97 98  1  0
 99 98  2  0
100 99  1  0
101102  1  0
101100  2  0
102 97  2  0
103102  1  0
104100  1  0
105107  2  0
106105  1  0
106109  1  0
108106  1  0
110111  1  0
112110  1  0
M  ISO  4  16 101  17 101  75 100  83 100
M  END
>  <TORSDO>  (55) 
F 36

>  <SCORE>  (55) 
-6.396

>  <name>  (55) 
58

>  <ligand_id>  (55) 
58

>  <original_smiles>  (55) 
[H]c1c([H])c([H])c2c(c1[H])C([H])([H])C([H])([H])C([H])([H])C2([H])N([H])C(=O)C1([H])N(C(=O)C([H])(N([H])C(=O)C([H])(N([H])C([H])([H])[H])C([H])([H])[H])C(C([H])([H])[H])(C([H])([H])[H])C([H])([H])[H])C([H])([H])c2c([H])c(OC([H])([H])C(=O)N([H])C([H])([H])C([H])([H])C([H])([H])C([H])([H])C([H])([H])C(=O)N([H])C([H])([H])C([H])([H])C([H])([H])C([H])([H])C([H])([H])C([H])([H])C([H])([H])C([H])([H])C([H])([H])N([H])C(=O)C([H])([H])N([H])C(=O)C([H])([H])N([H])C(=O)N3C([H])([H])C([H])([H])C([H])([H])C([H])(n4nc(-c5c([H])c([H])c(Oc6c([H])c([H])c(F)c([H])c6F)c([H])c5[H])c(C(=O)N([H])[H])c4N([H])[H])C3([H])[H])c([H])c([H])c2C1([H])[H]

>  <smiles>  (55) 
[H]c1c([H])c([H])c2c(c1[H])C([H])([H])C([H])([H])C([H])([H])C2([H])N([H])C(=O)C1([H])N(C(=O)C([H])(N([H])C(=O)C([H])(N([H])C([H])([H])[H])C([H])([H])[H])C(C([H])([H])[H])(C([H])([H])[H])C([H])([H])[H])C([H])([H])c2c([H])c(OC([H])([H])C(=O)N([H])C([H])([H])C([H])([H])C([H])([H])C([H])([H])C([H])([H])C(=O)N([H])C([H])([H])C([H])([H])C([H])([H])C([H])([H])C([H])([H])C([H])([H])C([H])([H])C([H])([H])C([H])([H])N([H])C(=O)C([H])([H])N([H])C(=O)C([H])([H])N([H])C(=O)N3C([H])([H])C([H])([H])C([H])([H])C([H])(n4nc(-c5c([H])c([H])c(Oc6c([H])c([H])c(F)c([H])c6F)c([H])c5[H])c(C(=O)N([H])[H])c4N([H])[H])C3([H])[H])c([H])c([H])c2C1([H])[H]

$$$$
59:0:0
     RDKit          3D

107114  0  0  1  0  0  0  0  0999 V2000
  -25.9940  -20.7330   31.0890 C   0  0  0  0  0  2  0  0  0  0  0  0
  -25.4110  -21.2730   29.7670 C   0  0  0  0  0  2  0  0  0  0  0  0
  -25.3980  -22.8100   29.7290 C   0  0  0  0  0  2  0  0  0  0  0  0
  -24.7780  -23.4000   28.4510 C   0  0  0  0  0  2  0  0  0  0  0  0
  -25.9840  -24.0530   26.3740 C   0  0  0  0  0  0  0  0  0  0  0  0
  -25.5970  -23.1340   27.2690 N   0  0  0  0  0  0  0  0  0  0  0  0
  -25.7140  -25.2520   26.5000 O   0  0  0  0  0  0  0  0  0  0  0  0
  -25.8430  -22.1710   27.0840 H   0  0  0  0  0  0  0  0  0  0  0  0
  -26.7680  -23.5590   25.1480 C   0  0  0  0  0  2  0  0  0  0  0  0
  -27.1010  -24.6780   24.3300 O   0  0  0  0  0  0  0  0  0  0  0  0
  -27.6910  -24.3460   23.0830 C   0  0  0  0  0  2  0  0  0  0  0  0
  -27.8610  -25.6590   22.3090 C   0  0  0  0  0  2  0  0  0  0  0  0
  -28.2930  -25.4810   20.8350 C   0  0  0  0  0  2  0  0  0  0  0  0
  -28.3980  -26.7370   20.1520 O   0  0  0  0  0  0  0  0  0  0  0  0
  -24.6110  -31.8700   23.2090 C   0  0  0  0  0  0  0  0  0  0  0  0
  -27.2370  -27.4680   20.1010 C   0  0  0  0  0  0  0  0  0  0  0  0
  -23.3960  -30.4920   21.5480 C   0  0  0  0  0  3  0  0  0  0  0  0
  -24.8460  -28.9630   20.1090 C   0  0  0  0  0  0  0  0  0  0  0  0
  -25.9190  -30.8490   21.3540 C   0  0  0  0  0  2  0  0  0  0  0  0
  -26.0020  -29.4870   20.7010 C   0  0  0  0  0  0  0  0  0  0  0  0
  -27.2020  -28.7480   20.6900 C   0  0  0  0  0  3  0  0  0  0  0  0
  -26.0700  -26.9500   19.4980 C   0  0  0  0  0  3  0  0  0  0  0  0
  -24.8740  -27.6930   19.5020 C   0  0  0  0  0  3  0  0  0  0  0  0
  -23.6040  -29.8230   20.1620 C   0  0  0  0  0  2  0  0  0  0  0  0
  -24.6600  -31.0840   22.0960 N   0  0  0  0  0  0  0  0  0  0  0  0
  -23.5320  -32.1430   23.7540 O   0  0  0  0  0  0  0  0  0  0  0  0
  -22.7370  -29.4670   22.4980 C   0  0  0  0  0  0  0  0  0  0  0  0
  -21.4110  -29.3030   22.3730 N   0  0  0  0  0  0  0  0  0  0  0  0
  -23.4160  -28.8230   23.3020 O   0  0  0  0  0  0  0  0  0  0  0  0
  -20.9240  -29.8750   21.6950 H   0  0  0  0  0  0  0  0  0  0  0  0
  -18.0260  -28.1370   22.8480 C   0  0  0  0  0  0  0  0  0  0  0  0
  -20.5850  -28.3660   23.1320 C   0  0  0  0  0  3  0  0  0  0  0  0
  -20.6770  -26.9400   22.5420 C   0  0  0  0  0  2  0  0  0  0  0  0
  -19.5750  -26.6380   21.5210 C   0  0  0  0  0  2  0  0  0  0  0  0
  -18.1920  -26.7910   22.1610 C   0  0  0  0  0  2  0  0  0  0  0  0
  -19.1500  -28.8830   23.2890 C   0  0  0  0  0  0  0  0  0  0  0  0
  -18.9450  -30.1430   23.8900 C   0  0  0  0  0  3  0  0  0  0  0  0
  -17.6450  -30.6580   24.0560 C   0  0  0  0  0  3  0  0  0  0  0  0
  -16.5340  -29.9090   23.6340 C   0  0  0  0  0  3  0  0  0  0  0  0
  -16.7250  -28.6510   23.0330 C   0  0  0  0  0  3  0  0  0  0  0  0
  -25.9010  -32.4820   23.8390 C   0  0  0  0  0  3  0  0  0  0  0  0
  -26.4460  -31.6590   25.0710 C   0  0  1  0  0  0  0  0  0  0  0  0
  -25.3740  -31.3690   26.1480 C   0  0  0  0  0  1  0  0  0  0  0  0
  -27.0260  -30.3030   24.6020 C   0  0  0  0  0  1  0  0  0  0  0  0
  -27.6040  -32.4290   25.7480 C   0  0  0  0  0  1  0  0  0  0  0  0
  -25.5870  -33.8620   24.2310 N   0  0  0  0  0  0  0  0  0  0  0  0
  -25.9040  -34.9480   23.5120 C   0  0  0  0  0  0  0  0  0  0  0  0
  -26.5610  -34.8940   22.4680 O   0  0  0  0  0  0  0  0  0  0  0  0
  -25.0030  -33.9780   25.0460 H   0  0  0  0  0  0  0  0  0  0  0  0
  -24.1490  -36.7330   23.2640 C   0  0  0  0  0  1  0  0  0  0  0  0
  -25.4110  -36.3120   24.0330 C   0  0  0  0  0  3  0  0  0  0  0  0
  -27.5580  -37.1830   24.8460 C   0  0  0  0  0  1  0  0  0  0  0  0
  -26.4300  -37.3810   23.9400 N   0  0  0  0  0  0  0  0  0  0  0  0
  -26.0180  -38.2880   24.1390 H   0  0  0  0  0  0  0  0  0  0  0  0
  -26.0570  -19.1950   31.1700 C   0  0  0  0  0  2  0  0  0  0  0  0
  -27.4210  -18.5830   30.8020 C   0  0  0  0  0  2  0  0  0  0  0  0
  -27.8330  -18.8230   29.3440 C   0  0  0  0  0  2  0  0  0  0  0  0
  -29.1430  -18.1230   28.9650 C   0  0  0  0  0  2  0  0  0  0  0  0
  -29.4820  -18.3520   27.4840 C   0  0  0  0  0  2  0  0  0  0  0  0
  -31.0420  -16.5530   26.7740 C   0  0  0  0  0  0  0  0  0  0  0  0
  -30.7880  -17.8170   27.1280 N   0  0  0  0  0  0  0  0  0  0  0  0
  -30.1890  -15.6620   26.8030 O   0  0  0  0  0  0  0  0  0  0  0  0
  -31.5500  -18.4800   27.0590 H   0  0  0  0  0  0  0  0  0  0  0  0
  -32.4720  -16.2450   26.3120 C   0  0  0  0  0  2  0  0  0  0  0  0
  -31.9940  -15.7140   23.9110 C   0  0  0  0  0  0  0  0  0  0  0  0
  -32.5330  -15.4250   25.1020 N   0  0  0  0  0  0  0  0  0  0  0  0
  -31.3510  -16.7410   23.6860 O   0  0  0  0  0  0  0  0  0  0  0  0
  -33.0450  -14.5570   25.1810 H   0  0  0  0  0  0  0  0  0  0  0  0
  -32.2480  -14.7090   22.7960 C   0  0  0  0  0  2  0  0  0  0  0  0
  -30.8940  -14.2130   20.7890 C   0  0  0  0  0  0  0  0  0  0  0  0
  -30.4020  -12.2890   19.3560 C   0  0  0  0  0  2  0  0  0  0  0  0
  -29.4590  -12.5460   18.1750 C   0  0  0  0  0  2  0  0  0  0  0  0
  -27.9970  -12.3800   18.6150 C   0  0  0  0  0  2  0  0  0  0  0  0
  -27.6660  -13.2100   19.8810 C   0  0  0  0  0  3  0  0  0  0  0  0
  -28.7110  -12.9870   20.9990 C   0  0  0  0  0  2  0  0  0  0  0  0
  -30.0620  -13.2040   20.4520 N   0  0  0  0  0  0  0  0  0  0  0  0
  -31.7290  -14.7060   20.0230 O   0  0  0  0  0  0  0  0  0  0  0  0
  -31.0110  -14.3370   22.1130 N   0  0  0  0  0  0  0  0  0  0  0  0
  -30.3060  -13.8850   22.6760 H   0  0  0  0  0  0  0  0  0  0  0  0
  -25.2590  -13.8180   20.5700 C   0  0  0  0  0  0  0  0  0  0  0  0
  -24.1840  -13.0460   20.9180 C   0  0  0  0  0  0  0  0  0  0  0  0
  -24.6400  -11.6920   20.8750 C   0  0  0  0  0  0  0  0  0  0  0  0
  -26.3060  -12.9380   20.3440 N   0  0  0  0  0  0  0  0  0  0  0  0
  -25.9340  -11.6520   20.5810 N   0  0  0  0  0  0  0  0  0  0  0  0
  -23.9060  -10.4300   21.0410 C   0  0  0  0  0  0  0  0  0  0  0  0
  -24.3620   -9.4210   21.9180 C   0  0  0  0  0  3  0  0  0  0  0  0
  -23.6300   -8.2250   22.0750 C   0  0  0  0  0  3  0  0  0  0  0  0
  -22.4280   -8.0290   21.3540 C   0  0  0  0  0  0  0  0  0  0  0  0
  -21.9910   -9.0260   20.4640 C   0  0  0  0  0  3  0  0  0  0  0  0
  -22.7240  -10.2140   20.3050 C   0  0  0  0  0  3  0  0  0  0  0  0
  -21.6640   -6.8890   21.4240 O   0  0  0  0  0  0  0  0  0  0  0  0
  -21.6860   -6.0740   22.5270 C   0  0  0  0  0  0  0  0  0  0  0  0
  -21.4020   -6.5640   23.8210 C   0  0  0  0  0  3  0  0  0  0  0  0
  -21.3660   -5.6800   24.9170 C   0  0  0  0  0  3  0  0  0  0  0  0
  -21.6040   -4.3060   24.7230 C   0  0  0  0  0  0  0  0  0  0  0  0
  -21.8820   -3.8150   23.4350 C   0  0  0  0  0  3  0  0  0  0  0  0
  -21.9190   -4.6970   22.3400 C   0  0  0  0  0  0  0  0  0  0  0  0
  -22.1660   -4.2160   21.0980 F   0  0  0  0  0  0  0  0  0  0  0  0
  -21.5630   -3.4540   25.7730 F   0  0  0  0  0  0  0  0  0  0  0  0
  -22.7860  -13.5240   21.1840 C   0  0  0  0  0  0  0  0  0  0  0  0
  -22.0500  -12.8230   22.0400 N   0  0  0  0  0  0  0  0  0  0  0  0
  -22.3540  -14.5550   20.6690 O   0  0  0  0  0  0  0  0  0  0  0  0
  -22.4110  -11.9880   22.4780 H   0  0  0  0  0  0  0  0  0  0  0  0
  -21.1120  -13.1260   22.2610 H   0  0  0  0  0  0  0  0  0  0  0  0
  -25.4320  -15.1910   20.4110 N   0  0  0  0  0  0  0  0  0  0  0  0
  -24.6720  -15.8530   20.5240 H   0  0  0  0  0  0  0  0  0  0  0  0
  -26.2980  -15.6270   20.1170 H   0  0  0  0  0  0  0  0  0  0  0  0
  1 55  1  0
  2  1  1  0
  3  2  1  0
  4  3  1  0
  5  7  2  0
  5  6  1  0
  6  4  1  0
  8  6  1  0
  9  5  1  0
 10  9  1  0
 11 10  1  0
 12 11  1  0
 13 12  1  0
 14 13  1  0
 15 26  2  0
 16 14  1  0
 16 21  1  0
 17 25  1  0
 17 27  1  0
 18 24  1  0
 18 20  1  0
 19 25  1  0
 20 19  1  0
 21 20  2  0
 22 23  1  0
 22 16  2  0
 23 18  2  0
 24 17  1  0
 25 15  1  0
 27 29  2  0
 28 27  1  0
 30 28  1  0
 31 40  2  0
 31 36  1  0
 32 28  1  0
 32 36  1  0
 33 32  1  0
 34 35  1  0
 34 33  1  0
 35 31  1  0
 36 37  2  0
 37 38  1  0
 39 38  2  0
 40 39  1  0
 41 15  1  0
 41 46  1  0
 41 42  1  0
 42 45  1  1
 42 43  1  0
 44 42  1  0
 46 49  1  0
 47 51  1  0
 47 46  1  0
 48 47  2  0
 51 50  1  0
 53 51  1  0
 53 54  1  0
 53 52  1  0
 56 55  1  0
 57 56  1  0
 58 57  1  0
 59 58  1  0
 60 62  2  0
 60 61  1  0
 61 59  1  0
 63 61  1  0
 64 60  1  0
 65 66  1  0
 66 68  1  0
 66 64  1  0
 67 65  2  0
 69 65  1  0
 70 78  1  0
 71 76  1  0
 72 73  1  0
 72 71  1  0
 74 73  1  0
 74 83  1  0
 74 75  1  0
 76 70  1  0
 76 75  1  0
 77 70  2  0
 78 79  1  0
 78 69  1  0
 80 81  2  0
 81100  1  0
 82 81  1  0
 82 85  1  0
 83 80  1  0
 83 84  1  0
 84 82  2  0
 85 86  1  0
 86 87  2  0
 88 91  1  0
 88 87  1  0
 89 88  2  0
 90 89  1  0
 90 85  2  0
 91 92  1  0
 92 93  1  0
 93 94  2  0
 95 94  1  0
 95 99  1  0
 96 95  2  0
 97 92  2  0
 97 96  1  0
 98 97  1  0
100101  1  0
101104  1  0
101103  1  0
102100  2  0
105106  1  0
105 80  1  0
107105  1  0
M  ISO  4  13 101  14 101  70 100  78 100
M  END
>  <TORSDO>  (56) 
F 34

>  <SCORE>  (56) 
52.044

>  <name>  (56) 
59

>  <ligand_id>  (56) 
59

>  <original_smiles>  (56) 
[H]c1c([H])c([H])c2c(c1[H])C([H])([H])C([H])([H])C([H])([H])C2([H])N([H])C(=O)C1([H])N(C(=O)C([H])(N([H])C(=O)C([H])(N([H])C([H])([H])[H])C([H])([H])[H])C(C([H])([H])[H])(C([H])([H])[H])C([H])([H])[H])C([H])([H])c2c([H])c(OC([H])([H])C([H])([H])C([H])([H])OC([H])([H])C(=O)N([H])C([H])([H])C([H])([H])C([H])([H])C([H])([H])C([H])([H])C([H])([H])C([H])([H])C([H])([H])C([H])([H])N([H])C(=O)C([H])([H])N([H])C(=O)C([H])([H])N([H])C(=O)N3C([H])([H])C([H])([H])C([H])([H])C([H])(n4nc(-c5c([H])c([H])c(Oc6c([H])c([H])c(F)c([H])c6F)c([H])c5[H])c(C(=O)N([H])[H])c4N([H])[H])C3([H])[H])c([H])c([H])c2C1([H])[H]

>  <smiles>  (56) 
[H]c1c([H])c([H])c2c(c1[H])C([H])([H])C([H])([H])C([H])([H])C2([H])N([H])C(=O)C1([H])N(C(=O)C([H])(N([H])C(=O)C([H])(N([H])C([H])([H])[H])C([H])([H])[H])C(C([H])([H])[H])(C([H])([H])[H])C([H])([H])[H])C([H])([H])c2c([H])c(OC([H])([H])C([H])([H])C([H])([H])OC([H])([H])C(=O)N([H])C([H])([H])C([H])([H])C([H])([H])C([H])([H])C([H])([H])C([H])([H])C([H])([H])C([H])([H])C([H])([H])N([H])C(=O)C([H])([H])N([H])C(=O)C([H])([H])N([H])C(=O)N3C([H])([H])C([H])([H])C([H])([H])C([H])(n4nc(-c5c([H])c([H])c(Oc6c([H])c([H])c(F)c([H])c6F)c([H])c5[H])c(C(=O)N([H])[H])c4N([H])[H])C3([H])[H])c([H])c([H])c2C1([H])[H]

$$$$
60:0:0
     RDKit          3D

108115  0  0  1  0  0  0  0  0999 V2000
  -23.6580  -23.0080   17.2620 C   0  0  0  0  0  0  0  0  0  0  0  0
  -22.4730  -23.5140   17.6200 N   0  0  0  0  0  0  0  0  0  0  0  0
  -24.6070  -22.9240   18.0490 O   0  0  0  0  0  0  0  0  0  0  0  0
  -21.7490  -23.5420   16.9130 H   0  0  0  0  0  0  0  0  0  0  0  0
  -22.0970  -23.8520   18.9930 C   0  0  0  0  0  2  0  0  0  0  0  0
  -22.8470  -25.0860   19.5460 C   0  0  0  0  0  2  0  0  0  0  0  0
  -23.2640  -24.9330   21.0260 C   0  0  0  0  0  2  0  0  0  0  0  0
  -24.5290  -24.0680   21.2360 C   0  0  0  0  0  2  0  0  0  0  0  0
  -25.7650  -24.8530   21.0310 N   0  0  0  0  0  4  0  0  0  0  0  0
  -25.7830  -25.5710   21.7410 H   0  0  0  0  0  0  0  0  0  0  0  0
  -25.7070  -25.2940   20.1280 H   0  0  0  0  0  0  0  0  0  0  0  0
  -27.0260  -24.0780   21.1010 C   0  0  0  0  0  2  0  0  0  0  0  0
  -28.2730  -24.9770   21.2240 C   0  0  0  0  0  2  0  0  0  0  0  0
  -28.7660  -25.6330   19.9150 C   0  0  0  0  0  2  0  0  0  0  0  0
  -28.7250  -27.0550   20.0180 O   0  0  0  0  0  0  0  0  0  0  0  0
  -24.6890  -31.9260   23.2330 C   0  0  0  0  0  0  0  0  0  0  0  0
  -27.5010  -27.6870   20.0350 C   0  0  0  0  0  0  0  0  0  0  0  0
  -23.5390  -30.5330   21.5470 C   0  0  0  0  0  3  0  0  0  0  0  0
  -25.0450  -29.0850   20.0990 C   0  0  0  0  0  0  0  0  0  0  0  0
  -26.0520  -30.9830   21.3750 C   0  0  0  0  0  2  0  0  0  0  0  0
  -26.1810  -29.6340   20.7060 C   0  0  0  0  0  0  0  0  0  0  0  0
  -27.4070  -28.9370   20.6810 C   0  0  0  0  0  3  0  0  0  0  0  0
  -26.3470  -27.1540   19.4110 C   0  0  0  0  0  3  0  0  0  0  0  0
  -25.1210  -27.8380   19.4580 C   0  0  0  0  0  3  0  0  0  0  0  0
  -23.7770  -29.9040   20.1510 C   0  0  0  0  0  2  0  0  0  0  0  0
  -24.7790  -31.1580   22.1120 N   0  0  0  0  0  0  0  0  0  0  0  0
  -23.5970  -32.1510   23.7700 O   0  0  0  0  0  0  0  0  0  0  0  0
  -22.9160  -29.4630   22.4700 C   0  0  0  0  0  0  0  0  0  0  0  0
  -21.6030  -29.2260   22.3060 N   0  0  0  0  0  0  0  0  0  0  0  0
  -23.6110  -28.8540   23.2870 O   0  0  0  0  0  0  0  0  0  0  0  0
  -21.1080  -29.7800   21.6210 H   0  0  0  0  0  0  0  0  0  0  0  0
  -18.2730  -27.8700   22.6830 C   0  0  0  0  0  0  0  0  0  0  0  0
  -20.8050  -28.2430   23.0350 C   0  0  0  0  0  3  0  0  0  0  0  0
  -20.9930  -26.8250   22.4500 C   0  0  0  0  0  2  0  0  0  0  0  0
  -19.9370  -26.4590   21.4020 C   0  0  0  0  0  2  0  0  0  0  0  0
  -18.5290  -26.5390   21.9970 C   0  0  0  0  0  2  0  0  0  0  0  0
  -19.3400  -28.6790   23.1540 C   0  0  0  0  0  0  0  0  0  0  0  0
  -19.0440  -29.9210   23.7550 C   0  0  0  0  0  3  0  0  0  0  0  0
  -17.7140  -30.3560   23.8940 C   0  0  0  0  0  3  0  0  0  0  0  0
  -16.6600  -29.5460   23.4350 C   0  0  0  0  0  3  0  0  0  0  0  0
  -16.9400  -28.3060   22.8310 C   0  0  0  0  0  3  0  0  0  0  0  0
  -25.9510  -32.5750   23.8810 C   0  0  0  0  0  3  0  0  0  0  0  0
  -26.4410  -31.8230   25.1780 C   0  0  1  0  0  0  0  0  0  0  0  0
  -25.3180  -31.5850   26.2160 C   0  0  0  0  0  1  0  0  0  0  0  0
  -27.0560  -30.4510   24.8140 C   0  0  0  0  0  1  0  0  0  0  0  0
  -27.5590  -32.6430   25.8680 C   0  0  0  0  0  1  0  0  0  0  0  0
  -25.6180  -33.9720   24.1840 N   0  0  0  0  0  0  0  0  0  0  0  0
  -25.9500  -35.0180   23.4130 C   0  0  0  0  0  0  0  0  0  0  0  0
  -26.6430  -34.9110   22.3980 O   0  0  0  0  0  0  0  0  0  0  0  0
  -25.0060  -34.1330   24.9710 H   0  0  0  0  0  0  0  0  0  0  0  0
  -24.2070  -36.7800   22.9910 C   0  0  0  0  0  1  0  0  0  0  0  0
  -25.4350  -36.4060   23.8360 C   0  0  0  0  0  3  0  0  0  0  0  0
  -27.5390  -37.3380   24.6900 C   0  0  0  0  0  1  0  0  0  0  0  0
  -26.4550  -37.4720   23.7220 N   0  0  0  0  0  0  0  0  0  0  0  0
  -26.0310  -38.3870   23.8450 H   0  0  0  0  0  0  0  0  0  0  0  0
  -23.8020  -22.5160   15.8120 C   0  0  0  0  0  2  0  0  0  0  0  0
  -24.8210  -20.3250   16.3940 C   0  0  0  0  0  0  0  0  0  0  0  0
  -24.8150  -21.4660   15.6930 N   0  0  0  0  0  0  0  0  0  0  0  0
  -23.8870  -19.9810   17.1200 O   0  0  0  0  0  0  0  0  0  0  0  0
  -25.6250  -21.6880   15.1300 H   0  0  0  0  0  0  0  0  0  0  0  0
  -26.0710  -19.4560   16.3190 C   0  0  0  0  0  2  0  0  0  0  0  0
  -26.3270  -18.8930   17.6580 N   0  0  0  0  0  4  0  0  0  0  0  0
  -26.0750  -17.9180   17.6600 H   0  0  0  0  0  0  0  0  0  0  0  0
  -25.6780  -19.3670   18.2690 H   0  0  0  0  0  0  0  0  0  0  0  0
  -27.7130  -19.0670   18.1450 C   0  0  0  0  0  2  0  0  0  0  0  0
  -27.9380  -18.4260   19.5260 C   0  0  0  0  0  2  0  0  0  0  0  0
  -29.4190  -18.4400   19.9460 C   0  0  0  0  0  2  0  0  0  0  0  0
  -29.7090  -17.4560   21.0880 C   0  0  0  0  0  2  0  0  0  0  0  0
  -31.2190  -17.2000   21.2760 C   0  0  0  0  0  2  0  0  0  0  0  0
  -31.5560  -15.9000   22.0360 C   0  0  0  0  0  2  0  0  0  0  0  0
  -31.2300  -14.0810   20.3310 C   0  0  0  0  0  0  0  0  0  0  0  0
  -30.6270  -12.2070   18.8420 C   0  0  0  0  0  2  0  0  0  0  0  0
  -29.6680  -12.6470   17.7200 C   0  0  0  0  0  2  0  0  0  0  0  0
  -28.2060  -12.5830   18.1960 C   0  0  0  0  0  2  0  0  0  0  0  0
  -27.9940  -13.3020   19.5540 C   0  0  0  0  0  3  0  0  0  0  0  0
  -29.0480  -12.8400   20.5840 C   0  0  0  0  0  2  0  0  0  0  0  0
  -30.3930  -13.0590   20.0150 N   0  0  0  0  0  0  0  0  0  0  0  0
  -32.2200  -14.3850   19.6630 O   0  0  0  0  0  0  0  0  0  0  0  0
  -30.9130  -14.7170   21.4680 N   0  0  0  0  0  0  0  0  0  0  0  0
  -30.1160  -14.3500   21.9670 H   0  0  0  0  0  0  0  0  0  0  0  0
  -25.6480  -14.0500   20.3160 C   0  0  0  0  0  0  0  0  0  0  0  0
  -24.5420  -13.3390   20.6970 C   0  0  0  0  0  0  0  0  0  0  0  0
  -24.9170  -11.9620   20.6360 C   0  0  0  0  0  0  0  0  0  0  0  0
  -26.6330  -13.1090   20.0510 N   0  0  0  0  0  0  0  0  0  0  0  0
  -26.1940  -11.8480   20.2980 N   0  0  0  0  0  0  0  0  0  0  0  0
  -24.1180  -10.7440   20.8260 C   0  0  0  0  0  0  0  0  0  0  0  0
  -24.4910   -9.7560   21.7610 C   0  0  0  0  0  3  0  0  0  0  0  0
  -23.6980   -8.6010   21.9390 C   0  0  0  0  0  3  0  0  0  0  0  0
  -22.5160   -8.4290   21.1780 C   0  0  0  0  0  0  0  0  0  0  0  0
  -22.1610   -9.4070   20.2330 C   0  0  0  0  0  3  0  0  0  0  0  0
  -22.9550  -10.5520   20.0550 C   0  0  0  0  0  3  0  0  0  0  0  0
  -21.6970   -7.3290   21.2640 O   0  0  0  0  0  0  0  0  0  0  0  0
  -21.5700   -6.6150   22.4290 C   0  0  0  0  0  0  0  0  0  0  0  0
  -21.1390   -7.2190   23.6290 C   0  0  0  0  0  3  0  0  0  0  0  0
  -20.9550   -6.4340   24.7860 C   0  0  0  0  0  3  0  0  0  0  0  0
  -21.1930   -5.0480   24.7420 C   0  0  0  0  0  0  0  0  0  0  0  0
  -21.6170   -4.4430   23.5460 C   0  0  0  0  0  3  0  0  0  0  0  0
  -21.8040   -5.2250   22.3910 C   0  0  0  0  0  0  0  0  0  0  0  0
  -22.1920   -4.6350   21.2360 F   0  0  0  0  0  0  0  0  0  0  0  0
  -21.0090   -4.2920   25.8500 F   0  0  0  0  0  0  0  0  0  0  0  0
  -23.1830  -13.8980   21.0110 C   0  0  0  0  0  0  0  0  0  0  0  0
  -22.4350  -13.2350   21.8870 N   0  0  0  0  0  0  0  0  0  0  0  0
  -22.7950  -14.9540   20.5140 O   0  0  0  0  0  0  0  0  0  0  0  0
  -22.7620  -12.3790   22.3090 H   0  0  0  0  0  0  0  0  0  0  0  0
  -21.5250  -13.5900   22.1400 H   0  0  0  0  0  0  0  0  0  0  0  0
  -25.8960  -15.4100   20.1580 N   0  0  0  0  0  0  0  0  0  0  0  0
  -25.1800  -16.1120   20.3120 H   0  0  0  0  0  0  0  0  0  0  0  0
  -26.7840  -15.8020   19.8720 H   0  0  0  0  0  0  0  0  0  0  0  0
  1  2  1  0
  1  3  2  0
  2  5  1  0
  4  2  1  0
  5  6  1  0
  6  7  1  0
  7  8  1  0
  9 12  1  0
  9  8  1  0
  9 10  1  0
 11  9  1  0
 12 13  1  0
 14 15  1  0
 14 13  1  0
 15 17  1  0
 16 27  2  0
 17 22  1  0
 18 26  1  0
 18 28  1  0
 19 25  1  0
 19 21  1  0
 20 26  1  0
 21 20  1  0
 22 21  2  0
 23 24  1  0
 23 17  2  0
 24 19  2  0
 25 18  1  0
 26 16  1  0
 28 30  2  0
 29 28  1  0
 31 29  1  0
 32 41  2  0
 32 37  1  0
 33 29  1  0
 33 37  1  0
 34 33  1  0
 35 36  1  0
 35 34  1  0
 36 32  1  0
 37 38  2  0
 38 39  1  0
 40 39  2  0
 41 40  1  0
 42 16  1  0
 42 47  1  0
 42 43  1  0
 43 46  1  1
 43 44  1  0
 45 43  1  0
 47 50  1  0
 48 52  1  0
 48 47  1  0
 49 48  2  0
 52 51  1  0
 54 52  1  0
 54 55  1  0
 54 53  1  0
 56  1  1  0
 57 59  2  0
 58 56  1  0
 58 57  1  0
 60 58  1  0
 61 57  1  0
 61 62  1  0
 62 63  1  0
 62 65  1  0
 62 64  1  0
 65 66  1  0
 66 67  1  0
 67 68  1  0
 68 69  1  0
 69 70  1  0
 71 79  1  0
 72 77  1  0
 73 74  1  0
 73 72  1  0
 75 74  1  0
 75 84  1  0
 75 76  1  0
 77 71  1  0
 77 76  1  0
 78 71  2  0
 79 80  1  0
 79 70  1  0
 81 82  2  0
 82101  1  0
 83 82  1  0
 83 86  1  0
 84 85  1  0
 84 81  1  0
 85 83  2  0
 86 87  1  0
 87 88  2  0
 89 92  1  0
 89 88  1  0
 90 89  2  0
 91 90  1  0
 91 86  2  0
 92 93  1  0
 93 94  1  0
 94 95  2  0
 96 95  1  0
 96100  1  0
 97 96  2  0
 98 93  2  0
 98 97  1  0
 99 98  1  0
101102  1  0
102105  1  0
102104  1  0
103101  2  0
106107  1  0
106 81  1  0
108106  1  0
M  ISO  4  14 101  15 101  71 100  79 100
M  END
>  <TORSDO>  (57) 
F 34

>  <SCORE>  (57) 
-6.899

>  <name>  (57) 
60

>  <ligand_id>  (57) 
60

>  <original_smiles>  (57) 
[H]c1c([H])c([H])c2c(c1[H])C([H])([H])C([H])([H])C([H])([H])C2([H])N([H])C(=O)C1([H])N(C(=O)C([H])(N([H])C(=O)C([H])(N([H])C([H])([H])[H])C([H])([H])[H])C(C([H])([H])[H])(C([H])([H])[H])C([H])([H])[H])C([H])([H])c2c([H])c(OC([H])([H])C([H])([H])C([H])([H])[N+]([H])([H])C([H])([H])C([H])([H])C([H])([H])C([H])([H])N([H])C(=O)C([H])([H])N([H])C(=O)C([H])([H])[N+]([H])([H])C([H])([H])C([H])([H])C([H])([H])C([H])([H])C([H])([H])C([H])([H])N([H])C(=O)N3C([H])([H])C([H])([H])C([H])([H])C([H])(n4nc(-c5c([H])c([H])c(Oc6c([H])c([H])c(F)c([H])c6F)c([H])c5[H])c(C(=O)N([H])[H])c4N([H])[H])C3([H])[H])c([H])c([H])c2C1([H])[H]

>  <smiles>  (57) 
[H]c1c([H])c([H])c2c(c1[H])C([H])([H])C([H])([H])C([H])([H])C2([H])N([H])C(=O)C1([H])N(C(=O)C([H])(N([H])C(=O)C([H])(N([H])C([H])([H])[H])C([H])([H])[H])C(C([H])([H])[H])(C([H])([H])[H])C([H])([H])[H])C([H])([H])c2c([H])c(OC([H])([H])C([H])([H])C([H])([H])[N+]([H])([H])C([H])([H])C([H])([H])C([H])([H])C([H])([H])N([H])C(=O)C([H])([H])N([H])C(=O)C([H])([H])[N+]([H])([H])C([H])([H])C([H])([H])C([H])([H])C([H])([H])C([H])([H])C([H])([H])N([H])C(=O)N3C([H])([H])C([H])([H])C([H])([H])C([H])(n4nc(-c5c([H])c([H])c(Oc6c([H])c([H])c(F)c([H])c6F)c([H])c5[H])c(C(=O)N([H])[H])c4N([H])[H])C3([H])[H])c([H])c([H])c2C1([H])[H]

$$$$
61:0:0
     RDKit          3D

117124  0  0  1  0  0  0  0  0999 V2000
  -32.5320  -21.8870   17.8640 C   0  0  0  0  0  2  0  0  0  0  0  0
  -31.1290  -23.2160   19.4540 C   0  0  0  0  0  0  0  0  0  0  0  0
  -31.2910  -22.2480   18.5420 N   0  0  0  0  0  0  0  0  0  0  0  0
  -32.0630  -23.9070   19.8600 O   0  0  0  0  0  0  0  0  0  0  0  0
  -30.4710  -21.7080   18.2960 H   0  0  0  0  0  0  0  0  0  0  0  0
  -29.7100  -23.4520   19.9980 C   0  0  0  0  0  2  0  0  0  0  0  0
  -28.2030  -22.7640   18.1310 C   0  0  0  0  0  0  0  0  0  0  0  0
  -28.6940  -22.6110   19.3670 N   0  0  0  0  0  0  0  0  0  0  0  0
  -28.5200  -23.7110   17.4130 O   0  0  0  0  0  0  0  0  0  0  0  0
  -28.3930  -21.7930   19.8780 H   0  0  0  0  0  0  0  0  0  0  0  0
  -27.2790  -21.6610   17.5910 C   0  0  0  0  0  2  0  0  0  0  0  0
  -28.2660  -19.5710   18.5480 C   0  0  0  0  0  0  0  0  0  0  0  0
  -27.2540  -20.4370   18.3990 N   0  0  0  0  0  0  0  0  0  0  0  0
  -29.3740  -19.7490   18.0330 O   0  0  0  0  0  0  0  0  0  0  0  0
  -26.3920  -20.2350   18.8870 H   0  0  0  0  0  0  0  0  0  0  0  0
  -28.0020  -18.3550   19.4300 C   0  0  0  0  0  2  0  0  0  0  0  0
  -29.2830  -16.8060   20.8320 C   0  0  0  0  0  0  0  0  0  0  0  0
  -29.2430  -17.8400   19.9970 N   0  0  0  0  0  0  0  0  0  0  0  0
  -28.2590  -16.2150   21.1870 O   0  0  0  0  0  0  0  0  0  0  0  0
  -30.0990  -18.2830   19.6890 H   0  0  0  0  0  0  0  0  0  0  0  0
  -30.6490  -16.3080   21.3110 C   0  0  0  0  0  2  0  0  0  0  0  0
  -30.9030  -14.1310   20.2150 C   0  0  0  0  0  0  0  0  0  0  0  0
  -30.3900  -12.0950   18.9210 C   0  0  0  0  0  2  0  0  0  0  0  0
  -29.4140  -12.4250   17.7790 C   0  0  0  0  0  2  0  0  0  0  0  0
  -27.9530  -12.3550   18.2630 C   0  0  0  0  0  2  0  0  0  0  0  0
  -27.7260  -13.1330   19.5880 C   0  0  0  0  0  3  0  0  0  0  0  0
  -28.8140  -12.7850   20.6310 C   0  0  0  0  0  2  0  0  0  0  0  0
  -30.1410  -13.0230   20.0290 N   0  0  0  0  0  0  0  0  0  0  0  0
  -31.8350  -14.4610   19.4730 O   0  0  0  0  0  0  0  0  0  0  0  0
  -30.5760  -14.8540   21.2830 N   0  0  0  0  0  0  0  0  0  0  0  0
  -29.8330  -14.4620   21.8420 H   0  0  0  0  0  0  0  0  0  0  0  0
  -25.3640  -13.8120   20.3690 C   0  0  0  0  0  0  0  0  0  0  0  0
  -24.2860  -13.0730   20.7700 C   0  0  0  0  0  0  0  0  0  0  0  0
  -24.7020  -11.7070   20.7210 C   0  0  0  0  0  0  0  0  0  0  0  0
  -26.3780  -12.9010   20.1100 N   0  0  0  0  0  0  0  0  0  0  0  0
  -25.9790  -11.6290   20.3680 N   0  0  0  0  0  0  0  0  0  0  0  0
  -23.9460  -10.4680   20.9400 C   0  0  0  0  0  0  0  0  0  0  0  0
  -24.3790   -9.4920   21.8650 C   0  0  0  0  0  3  0  0  0  0  0  0
  -23.6230   -8.3180   22.0700 C   0  0  0  0  0  3  0  0  0  0  0  0
  -22.4200   -8.1110   21.3550 C   0  0  0  0  0  0  0  0  0  0  0  0
  -22.0060   -9.0760   20.4200 C   0  0  0  0  0  3  0  0  0  0  0  0
  -22.7610  -10.2420   20.2100 C   0  0  0  0  0  3  0  0  0  0  0  0
  -21.6360   -6.9900   21.4710 O   0  0  0  0  0  0  0  0  0  0  0  0
  -21.5950   -6.2550   22.6300 C   0  0  0  0  0  0  0  0  0  0  0  0
  -21.2400   -6.8350   23.8670 C   0  0  0  0  0  3  0  0  0  0  0  0
  -21.1440   -6.0300   25.0200 C   0  0  0  0  0  3  0  0  0  0  0  0
  -21.3910   -4.6460   24.9380 C   0  0  0  0  0  0  0  0  0  0  0  0
  -21.7390   -4.0670   23.7040 C   0  0  0  0  0  3  0  0  0  0  0  0
  -21.8380   -4.8700   22.5540 C   0  0  0  0  0  0  0  0  0  0  0  0
  -22.1520   -4.3010   21.3640 F   0  0  0  0  0  0  0  0  0  0  0  0
  -21.2910   -3.8710   26.0430 F   0  0  0  0  0  0  0  0  0  0  0  0
  -22.9160  -13.5930   21.1030 C   0  0  0  0  0  0  0  0  0  0  0  0
  -22.2090  -12.9150   21.9990 N   0  0  0  0  0  0  0  0  0  0  0  0
  -22.4880  -14.6340   20.6040 O   0  0  0  0  0  0  0  0  0  0  0  0
  -22.5660  -12.0680   22.4150 H   0  0  0  0  0  0  0  0  0  0  0  0
  -21.2930  -13.2460   22.2680 H   0  0  0  0  0  0  0  0  0  0  0  0
  -25.5730  -15.1780   20.2030 N   0  0  0  0  0  0  0  0  0  0  0  0
  -24.8510  -15.8330   20.4760 H   0  0  0  0  0  0  0  0  0  0  0  0
  -26.5100  -15.5590   20.3260 H   0  0  0  0  0  0  0  0  0  0  0  0
  -32.6460  -22.4300   16.4330 C   0  0  0  0  0  0  0  0  0  0  0  0
  -31.6080  -23.1040   15.9150 N   0  0  0  0  0  0  0  0  0  0  0  0
  -33.6780  -22.2230   15.7950 O   0  0  0  0  0  0  0  0  0  0  0  0
  -30.7950  -23.2300   16.5070 H   0  0  0  0  0  0  0  0  0  0  0  0
  -31.5450  -23.6740   14.5700 C   0  0  0  0  0  2  0  0  0  0  0  0
  -32.2000  -25.0690   14.4570 C   0  0  0  0  0  2  0  0  0  0  0  0
  -31.3960  -26.2030   15.1140 C   0  0  0  0  0  2  0  0  0  0  0  0
  -31.5260  -26.2840   16.6410 C   0  0  0  0  0  2  0  0  0  0  0  0
  -32.7280  -27.1160   17.1110 C   0  0  0  0  0  2  0  0  0  0  0  0
  -33.1360  -26.8000   18.5620 C   0  0  0  0  0  2  0  0  0  0  0  0
  -33.8120  -27.9830   19.2930 C   0  0  0  0  0  2  0  0  0  0  0  0
  -33.1350  -28.3420   20.5640 N   0  0  0  0  0  4  0  0  0  0  0  0
  -33.6760  -29.0900   20.9700 H   0  0  0  0  0  0  0  0  0  0  0  0
  -33.1750  -27.5760   21.2150 H   0  0  0  0  0  0  0  0  0  0  0  0
  -31.7410  -28.8350   20.4310 C   0  0  0  0  0  2  0  0  0  0  0  0
  -30.6680  -27.8390   20.9500 C   0  0  0  0  0  2  0  0  0  0  0  0
  -29.6290  -27.4490   19.8780 C   0  0  0  0  0  2  0  0  0  0  0  0
  -28.5200  -26.6900   20.3750 O   0  0  0  0  0  0  0  0  0  0  0  0
  -24.6140  -31.8620   23.2680 C   0  0  0  0  0  0  0  0  0  0  0  0
  -27.3320  -27.3740   20.4090 C   0  0  0  0  0  0  0  0  0  0  0  0
  -23.4280  -30.4150   21.6440 C   0  0  0  0  0  3  0  0  0  0  0  0
  -24.9060  -28.8170   20.3190 C   0  0  0  0  0  0  0  0  0  0  0  0
  -25.9430  -30.7830   21.4660 C   0  0  0  0  0  2  0  0  0  0  0  0
  -26.0410  -29.3840   20.9060 C   0  0  0  0  0  0  0  0  0  0  0  0
  -27.2470  -28.6690   20.9620 C   0  0  0  0  0  3  0  0  0  0  0  0
  -26.1800  -26.7940   19.8390 C   0  0  0  0  0  3  0  0  0  0  0  0
  -24.9650  -27.5140   19.7910 C   0  0  0  0  0  3  0  0  0  0  0  0
  -23.6580  -29.6750   20.2980 C   0  0  0  0  0  2  0  0  0  0  0  0
  -24.6800  -31.0340   22.1890 N   0  0  0  0  0  0  0  0  0  0  0  0
  -23.5260  -32.1550   23.7820 O   0  0  0  0  0  0  0  0  0  0  0  0
  -22.7530  -29.4300   22.6240 C   0  0  0  0  0  0  0  0  0  0  0  0
  -21.4270  -29.2690   22.4850 N   0  0  0  0  0  0  0  0  0  0  0  0
  -23.4180  -28.8150   23.4630 O   0  0  0  0  0  0  0  0  0  0  0  0
  -20.9520  -29.8100   21.7760 H   0  0  0  0  0  0  0  0  0  0  0  0
  -18.0200  -28.1780   22.9690 C   0  0  0  0  0  0  0  0  0  0  0  0
  -20.5810  -28.3670   23.2660 C   0  0  0  0  0  3  0  0  0  0  0  0
  -20.6520  -26.9230   22.7140 C   0  0  0  0  0  2  0  0  0  0  0  0
  -19.5520  -26.6140   21.6960 C   0  0  0  0  0  2  0  0  0  0  0  0
  -18.1670  -26.8100   22.3220 C   0  0  0  0  0  2  0  0  0  0  0  0
  -19.1550  -28.9160   23.3970 C   0  0  0  0  0  0  0  0  0  0  0  0
  -18.9690  -30.1990   23.9570 C   0  0  0  0  0  3  0  0  0  0  0  0
  -17.6770  -30.7410   24.0980 C   0  0  0  0  0  3  0  0  0  0  0  0
  -16.5550  -30.0000   23.6880 C   0  0  0  0  0  3  0  0  0  0  0  0
  -16.7280  -28.7210   23.1280 C   0  0  0  0  0  3  0  0  0  0  0  0
  -25.8970  -32.4980   23.8930 C   0  0  0  0  0  3  0  0  0  0  0  0
  -26.4070  -31.7280   25.1730 C   0  0  1  0  0  0  0  0  0  0  0  0
  -25.3030  -31.4920   26.2290 C   0  0  0  0  0  1  0  0  0  0  0  0
  -26.9890  -30.3500   24.7820 C   0  0  0  0  0  1  0  0  0  0  0  0
  -27.5530  -32.5200   25.8440 C   0  0  0  0  0  1  0  0  0  0  0  0
  -25.5870  -33.8970   24.2130 N   0  0  0  0  0  0  0  0  0  0  0  0
  -25.9290  -34.9430   23.4470 C   0  0  0  0  0  0  0  0  0  0  0  0
  -26.6070  -34.8310   22.4230 O   0  0  0  0  0  0  0  0  0  0  0  0
  -24.9890  -34.0580   25.0100 H   0  0  0  0  0  0  0  0  0  0  0  0
  -24.1930  -36.7220   23.0540 C   0  0  0  0  0  1  0  0  0  0  0  0
  -25.4280  -36.3340   23.8830 C   0  0  0  0  0  3  0  0  0  0  0  0
  -27.5560  -37.2320   24.7200 C   0  0  0  0  0  1  0  0  0  0  0  0
  -26.4590  -37.3910   23.7700 N   0  0  0  0  0  0  0  0  0  0  0  0
  -26.0470  -38.3100   23.9090 H   0  0  0  0  0  0  0  0  0  0  0  0
  1  3  1  0
  2  4  2  0
  2  6  1  0
  3  2  1  0
  5  3  1  0
  7  8  1  0
  8 10  1  0
  8  6  1  0
  9  7  2  0
 11  7  1  0
 11 13  1  0
 12 16  1  0
 13 12  1  0
 13 15  1  0
 14 12  2  0
 16 18  1  0
 17 19  2  0
 17 21  1  0
 18 17  1  0
 20 18  1  0
 22 30  1  0
 23 28  1  0
 24 25  1  0
 24 23  1  0
 26 25  1  0
 26 35  1  0
 26 27  1  0
 28 22  1  0
 28 27  1  0
 29 22  2  0
 30 21  1  0
 30 31  1  0
 32 33  2  0
 33 52  1  0
 34 33  1  0
 34 37  1  0
 35 36  1  0
 35 32  1  0
 36 34  2  0
 37 38  1  0
 38 39  2  0
 40 43  1  0
 40 39  1  0
 41 40  2  0
 42 41  1  0
 42 37  2  0
 43 44  1  0
 44 45  1  0
 45 46  2  0
 47 46  1  0
 47 51  1  0
 48 47  2  0
 49 44  2  0
 49 48  1  0
 50 49  1  0
 52 53  1  0
 53 56  1  0
 53 55  1  0
 54 52  2  0
 57 59  1  0
 57 32  1  0
 57 58  1  0
 60  1  1  0
 61 60  1  0
 61 63  1  0
 62 60  2  0
 64 61  1  0
 65 64  1  0
 65 66  1  0
 66 67  1  0
 67 68  1  0
 68 69  1  0
 69 70  1  0
 70 71  1  0
 71 72  1  0
 71 73  1  0
 74 71  1  0
 74 75  1  0
 76 77  1  0
 76 75  1  0
 77 79  1  0
 78 89  2  0
 79 84  1  0
 80 88  1  0
 80 90  1  0
 81 83  1  0
 82 88  1  0
 83 84  2  0
 83 82  1  0
 85 79  2  0
 86 85  1  0
 86 81  2  0
 87 81  1  0
 87 80  1  0
 88 78  1  0
 90 92  2  0
 91 90  1  0
 93 91  1  0
 94103  2  0
 94 99  1  0
 95 91  1  0
 95 99  1  0
 96 95  1  0
 97 98  1  0
 97 96  1  0
 98 94  1  0
 99100  2  0
100101  1  0
102101  2  0
103102  1  0
104 78  1  0
104109  1  0
104105  1  0
105108  1  1
105106  1  0
107105  1  0
109112  1  0
110114  1  0
110109  1  0
111110  2  0
114113  1  0
116114  1  0
116117  1  0
116115  1  0
M  ISO  4  22 100  30 100  76 101  77 101
M  END
>  <TORSDO>  (58) 
F 36

>  <SCORE>  (58) 
-9.865

>  <name>  (58) 
61

>  <ligand_id>  (58) 
61

>  <original_smiles>  (58) 
[H]c1c([H])c([H])c2c(c1[H])C([H])([H])C([H])([H])C([H])([H])C2([H])N([H])C(=O)C1([H])N(C(=O)C([H])(N([H])C(=O)C([H])(N([H])C([H])([H])[H])C([H])([H])[H])C(C([H])([H])[H])(C([H])([H])[H])C([H])([H])[H])C([H])([H])c2c([H])c(OC([H])([H])C([H])([H])C([H])([H])[N+]([H])([H])C([H])([H])C([H])([H])C([H])([H])C([H])([H])C([H])([H])C([H])([H])C([H])([H])N([H])C(=O)C([H])([H])N([H])C(=O)C([H])([H])N([H])C(=O)C([H])([H])N([H])C(=O)C([H])([H])N([H])C(=O)C([H])([H])N([H])C(=O)N3C([H])([H])C([H])([H])C([H])([H])C([H])(n4nc(-c5c([H])c([H])c(Oc6c([H])c([H])c(F)c([H])c6F)c([H])c5[H])c(C(=O)N([H])[H])c4N([H])[H])C3([H])[H])c([H])c([H])c2C1([H])[H]

>  <smiles>  (58) 
[H]c1c([H])c([H])c2c(c1[H])C([H])([H])C([H])([H])C([H])([H])C2([H])N([H])C(=O)C1([H])N(C(=O)C([H])(N([H])C(=O)C([H])(N([H])C([H])([H])[H])C([H])([H])[H])C(C([H])([H])[H])(C([H])([H])[H])C([H])([H])[H])C([H])([H])c2c([H])c(OC([H])([H])C([H])([H])C([H])([H])[N+]([H])([H])C([H])([H])C([H])([H])C([H])([H])C([H])([H])C([H])([H])C([H])([H])C([H])([H])N([H])C(=O)C([H])([H])N([H])C(=O)C([H])([H])N([H])C(=O)C([H])([H])N([H])C(=O)C([H])([H])N([H])C(=O)C([H])([H])N([H])C(=O)N3C([H])([H])C([H])([H])C([H])([H])C([H])(n4nc(-c5c([H])c([H])c(Oc6c([H])c([H])c(F)c([H])c6F)c([H])c5[H])c(C(=O)N([H])[H])c4N([H])[H])C3([H])[H])c([H])c([H])c2C1([H])[H]

$$$$
62:0:0
     RDKit          3D

103110  0  0  1  0  0  0  0  0999 V2000
  -28.5340  -23.6340   25.9270 C   0  0  0  0  0  0  0  0  0  0  0  0
  -28.4950  -24.7930   25.2560 N   0  0  0  0  0  0  0  0  0  0  0  0
  -27.6810  -23.3090   26.7550 O   0  0  0  0  0  0  0  0  0  0  0  0
  -29.2240  -24.9730   24.5770 H   0  0  0  0  0  0  0  0  0  0  0  0
  -29.7260  -22.7040   25.6540 C   0  0  0  0  0  2  0  0  0  0  0  0
  -30.1420  -21.2540   23.6720 C   0  0  0  0  0  0  0  0  0  0  0  0
  -29.9830  -22.4590   24.2340 N   0  0  0  0  0  0  0  0  0  0  0  0
  -29.9170  -20.1990   24.2760 O   0  0  0  0  0  0  0  0  0  0  0  0
  -30.1350  -23.2740   23.6530 H   0  0  0  0  0  0  0  0  0  0  0  0
  -30.6800  -21.2500   22.2310 C   0  0  0  0  0  2  0  0  0  0  0  0
  -30.4340  -18.8140   21.6880 C   0  0  0  0  0  0  0  0  0  0  0  0
  -30.2360  -20.1130   21.4230 N   0  0  0  0  0  0  0  0  0  0  0  0
  -31.0280  -18.4060   22.6900 O   0  0  0  0  0  0  0  0  0  0  0  0
  -29.7390  -20.3380   20.5710 H   0  0  0  0  0  0  0  0  0  0  0  0
  -29.8880  -17.8430   20.6410 C   0  0  0  0  0  2  0  0  0  0  0  0
  -30.8310  -15.5370   20.8260 C   0  0  0  0  0  0  0  0  0  0  0  0
  -31.0530  -13.2440   19.9440 C   0  0  0  0  0  2  0  0  0  0  0  0
  -30.3910  -13.1950   18.5490 C   0  0  0  0  0  2  0  0  0  0  0  0
  -28.8710  -12.9470   18.6570 C   0  0  0  0  0  2  0  0  0  0  0  0
  -28.1850  -13.8620   19.7040 C   0  0  0  0  0  3  0  0  0  0  0  0
  -28.9750  -13.8540   21.0340 C   0  0  0  0  0  2  0  0  0  0  0  0
  -30.3610  -14.2650   20.7420 N   0  0  0  0  0  0  0  0  0  0  0  0
  -31.9840  -15.8580   20.5160 O   0  0  0  0  0  0  0  0  0  0  0  0
  -29.8820  -16.4490   21.0810 N   0  0  0  0  0  0  0  0  0  0  0  0
  -29.0000  -16.0960   21.4220 H   0  0  0  0  0  0  0  0  0  0  0  0
  -25.6300  -14.1820   19.5770 C   0  0  0  0  0  0  0  0  0  0  0  0
  -24.5900  -13.3600   19.9130 C   0  0  0  0  0  0  0  0  0  0  0  0
  -25.1790  -12.1670   20.4370 C   0  0  0  0  0  0  0  0  0  0  0  0
  -26.7850  -13.4870   19.9060 N   0  0  0  0  0  0  0  0  0  0  0  0
  -26.4990  -12.2890   20.4730 N   0  0  0  0  0  0  0  0  0  0  0  0
  -24.5700  -10.8980   20.8510 C   0  0  0  0  0  0  0  0  0  0  0  0
  -24.7840  -10.3640   22.1400 C   0  0  0  0  0  3  0  0  0  0  0  0
  -24.1730   -9.1510   22.5230 C   0  0  0  0  0  3  0  0  0  0  0  0
  -23.3360   -8.4610   21.6150 C   0  0  0  0  0  0  0  0  0  0  0  0
  -23.1420   -8.9860   20.3240 C   0  0  0  0  0  3  0  0  0  0  0  0
  -23.7540  -10.1920   19.9440 C   0  0  0  0  0  3  0  0  0  0  0  0
  -22.7200   -7.2640   21.8910 O   0  0  0  0  0  0  0  0  0  0  0  0
  -22.1000   -7.0340   23.0930 C   0  0  0  0  0  0  0  0  0  0  0  0
  -21.1010   -7.8980   23.5950 C   0  0  0  0  0  3  0  0  0  0  0  0
  -20.4450   -7.5860   24.8030 C   0  0  0  0  0  3  0  0  0  0  0  0
  -20.7750   -6.4100   25.5010 C   0  0  0  0  0  0  0  0  0  0  0  0
  -21.7660   -5.5480   25.0000 C   0  0  0  0  0  3  0  0  0  0  0  0
  -22.4260   -5.8580   23.7980 C   0  0  0  0  0  0  0  0  0  0  0  0
  -23.3640   -5.0130   23.3090 F   0  0  0  0  0  0  0  0  0  0  0  0
  -20.1400   -6.1060   26.6570 F   0  0  0  0  0  0  0  0  0  0  0  0
  -23.1290  -13.6210   19.6810 C   0  0  0  0  0  0  0  0  0  0  0  0
  -22.2660  -13.1010   20.5450 N   0  0  0  0  0  0  0  0  0  0  0  0
  -22.7470  -14.3340   18.7530 O   0  0  0  0  0  0  0  0  0  0  0  0
  -22.5780  -12.5300   21.3160 H   0  0  0  0  0  0  0  0  0  0  0  0
  -21.2770  -13.2810   20.4370 H   0  0  0  0  0  0  0  0  0  0  0  0
  -25.6990  -15.4490   19.0030 N   0  0  0  0  0  0  0  0  0  0  0  0
  -24.8720  -15.9510   18.7030 H   0  0  0  0  0  0  0  0  0  0  0  0
  -26.5630  -15.9010   18.7330 H   0  0  0  0  0  0  0  0  0  0  0  0
  -27.5290  -25.8810   25.4770 C   0  0  0  0  0  2  0  0  0  0  0  0
  -26.1280  -25.6880   24.8620 C   0  0  0  0  0  0  0  0  0  0  0  0
  -25.9630  -25.1040   23.6620 N   0  0  0  0  0  0  0  0  0  0  0  0
  -25.1430  -26.0610   25.4990 O   0  0  0  0  0  0  0  0  0  0  0  0
  -25.0050  -24.9950   23.3600 H   0  0  0  0  0  0  0  0  0  0  0  0
  -26.9780  -24.5960   22.7410 C   0  0  0  0  0  2  0  0  0  0  0  0
  -27.6600  -25.7190   21.9490 C   0  0  0  0  0  2  0  0  0  0  0  0
  -28.7700  -25.1680   21.0360 C   0  0  0  0  0  2  0  0  0  0  0  0
  -29.6290  -26.2320   20.3190 C   0  0  0  0  0  2  0  0  0  0  0  0
  -28.9400  -26.8120   19.2170 O   0  0  0  0  0  0  0  0  0  0  0  0
  -25.5050  -30.6790   24.1180 C   0  0  0  0  0  0  0  0  0  0  0  0
  -27.8860  -27.6230   19.5420 C   0  0  0  0  0  0  0  0  0  0  0  0
  -24.2950  -30.2710   21.9970 C   0  0  0  0  0  3  0  0  0  0  0  0
  -25.6840  -29.2820   20.1020 C   0  0  0  0  0  0  0  0  0  0  0  0
  -26.8480  -30.3360   22.0500 C   0  0  0  0  0  2  0  0  0  0  0  0
  -26.8360  -29.3540   20.8990 C   0  0  0  0  0  0  0  0  0  0  0  0
  -27.9450  -28.5250   20.6250 C   0  0  0  0  0  3  0  0  0  0  0  0
  -26.7280  -27.5660   18.7420 C   0  0  0  0  0  3  0  0  0  0  0  0
  -25.6170  -28.3810   19.0240 C   0  0  0  0  0  3  0  0  0  0  0  0
  -24.5450  -30.2080   20.4670 C   0  0  0  0  0  2  0  0  0  0  0  0
  -25.5640  -30.4080   22.7840 N   0  0  0  0  0  0  0  0  0  0  0  0
  -24.4200  -30.8540   24.6910 O   0  0  0  0  0  0  0  0  0  0  0  0
  -23.4530  -29.0430   22.4170 C   0  0  0  0  0  0  0  0  0  0  0  0
  -22.1320  -29.1160   22.1820 N   0  0  0  0  0  0  0  0  0  0  0  0
  -23.9880  -28.0460   22.9110 O   0  0  0  0  0  0  0  0  0  0  0  0
  -21.7690  -29.9610   21.7610 H   0  0  0  0  0  0  0  0  0  0  0  0
  -18.6170  -28.3300   22.0530 C   0  0  0  0  0  0  0  0  0  0  0  0
  -21.1520  -28.0710   22.4750 C   0  0  0  0  0  3  0  0  0  0  0  0
  -21.1230  -26.9980   21.3640 C   0  0  0  0  0  2  0  0  0  0  0  0
  -20.0890  -27.2980   20.2730 C   0  0  0  0  0  2  0  0  0  0  0  0
  -18.6840  -27.3700   20.8770 C   0  0  0  0  0  2  0  0  0  0  0  0
  -19.7780  -28.6690   22.7970 C   0  0  0  0  0  0  0  0  0  0  0  0
  -19.6680  -29.5830   23.8680 C   0  0  0  0  0  3  0  0  0  0  0  0
  -18.4220  -30.1470   24.2040 C   0  0  0  0  0  3  0  0  0  0  0  0
  -17.2720  -29.7960   23.4740 C   0  0  0  0  0  3  0  0  0  0  0  0
  -17.3710  -28.8920   22.4030 C   0  0  0  0  0  3  0  0  0  0  0  0
  -26.8000  -30.8060   24.9800 C   0  0  0  0  0  3  0  0  0  0  0  0
  -26.7960  -32.1400   25.5940 N   0  0  0  0  0  0  0  0  0  0  0  0
  -27.4980  -33.1860   25.1360 C   0  0  0  0  0  0  0  0  0  0  0  0
  -28.2870  -33.1080   24.1900 O   0  0  0  0  0  0  0  0  0  0  0  0
  -26.1420  -32.2910   26.3480 H   0  0  0  0  0  0  0  0  0  0  0  0
  -26.3660  -35.4320   25.0060 C   0  0  0  0  0  1  0  0  0  0  0  0
  -27.2920  -34.5380   25.8460 C   0  0  0  0  0  3  0  0  0  0  0  0
  -29.3940  -34.6150   27.1150 C   0  0  0  0  0  1  0  0  0  0  0  0
  -28.5520  -35.2620   26.1120 N   0  0  0  0  0  0  0  0  0  0  0  0
  -28.3580  -36.2080   26.4270 H   0  0  0  0  0  0  0  0  0  0  0  0
  -26.9270  -29.6820   26.0790 C   0  0  1  0  0  0  0  0  0  0  0  0
  -25.6440  -29.4790   26.9210 C   0  0  0  0  0  1  0  0  0  0  0  0
  -27.2900  -28.3260   25.4270 C   0  0  0  0  0  1  0  0  0  0  0  0
  -28.0810  -30.0300   27.0500 C   0  0  0  0  0  1  0  0  0  0  0  0
  1  3  2  0
  2 54  1  0
  2  1  1  0
  4  2  1  0
  5  1  1  0
  6  7  1  0
  6  8  2  0
  7  5  1  0
  9  7  1  0
 10  6  1  0
 11 13  2  0
 12 11  1  0
 12 10  1  0
 14 12  1  0
 15 24  1  0
 15 11  1  0
 16 24  1  0
 17 22  1  0
 18 19  1  0
 18 17  1  0
 20 19  1  0
 20 29  1  0
 20 21  1  0
 22 16  1  0
 22 21  1  0
 23 16  2  0
 24 25  1  0
 26 29  1  0
 26 27  2  0
 27 28  1  0
 28 30  2  0
 28 31  1  0
 29 30  1  0
 31 32  1  0
 32 33  2  0
 34 37  1  0
 34 33  1  0
 35 34  2  0
 36 35  1  0
 36 31  2  0
 37 38  1  0
 38 39  2  0
 38 43  1  0
 39 40  1  0
 40 41  2  0
 41 45  1  0
 42 41  1  0
 43 42  2  0
 44 43  1  0
 46 27  1  0
 46 47  1  0
 47 49  1  0
 48 46  2  0
 50 47  1  0
 51 26  1  0
 52 51  1  0
 53 51  1  0
 55 54  1  0
 55 57  2  0
 56 55  1  0
 58 56  1  0
 59 56  1  0
 60 59  1  0
 61 60  1  0
 62 61  1  0
 63 65  1  0
 63 62  1  0
 64 75  2  0
 65 70  1  0
 66 76  1  0
 66 74  1  0
 67 73  1  0
 67 69  1  0
 68 74  1  0
 69 68  1  0
 70 69  2  0
 71 72  1  0
 71 65  2  0
 72 67  2  0
 73 66  1  0
 74 64  1  0
 76 78  2  0
 77 76  1  0
 79 77  1  0
 80 89  2  0
 80 85  1  0
 81 77  1  0
 81 85  1  0
 82 81  1  0
 83 84  1  0
 83 82  1  0
 84 80  1  0
 85 86  2  0
 86 87  1  0
 88 87  2  0
 89 88  1  0
 90 64  1  0
 90 91  1  0
 90100  1  0
 91 94  1  0
 92 91  1  0
 92 96  1  0
 93 92  2  0
 96 95  1  0
 96 98  1  0
 98 99  1  0
 98 97  1  0
100101  1  1
100103  1  0
102100  1  0
M  ISO  4  16 100  24 100  62 101  63 101
M  END
>  <TORSDO>  (59) 
F 27

>  <SCORE>  (59) 
3.956

>  <name>  (59) 
62

>  <ligand_id>  (59) 
62

>  <original_smiles>  (59) 
[H]c1c([H])c([H])c2c(c1[H])C([H])([H])C([H])([H])C([H])([H])C2([H])N([H])C(=O)C1([H])N(C(=O)C([H])(N([H])C(=O)C([H])(N([H])C([H])([H])[H])C([H])([H])[H])C(C([H])([H])[H])(C([H])([H])[H])C([H])([H])[H])C([H])([H])c2c([H])c(OC([H])([H])C([H])([H])C([H])([H])C([H])([H])N([H])C(=O)C([H])([H])N([H])C(=O)C([H])([H])N([H])C(=O)C([H])([H])N([H])C(=O)C([H])([H])N([H])C(=O)N3C([H])([H])C([H])([H])C([H])([H])C([H])(n4nc(-c5c([H])c([H])c(Oc6c([H])c([H])c(F)c([H])c6F)c([H])c5[H])c(C(=O)N([H])[H])c4N([H])[H])C3([H])[H])c([H])c([H])c2C1([H])[H]

>  <smiles>  (59) 
[H]c1c([H])c([H])c2c(c1[H])C([H])([H])C([H])([H])C([H])([H])C2([H])N([H])C(=O)C1([H])N(C(=O)C([H])(N([H])C(=O)C([H])(N([H])C([H])([H])[H])C([H])([H])[H])C(C([H])([H])[H])(C([H])([H])[H])C([H])([H])[H])C([H])([H])c2c([H])c(OC([H])([H])C([H])([H])C([H])([H])C([H])([H])N([H])C(=O)C([H])([H])N([H])C(=O)C([H])([H])N([H])C(=O)C([H])([H])N([H])C(=O)C([H])([H])N([H])C(=O)N3C([H])([H])C([H])([H])C([H])([H])C([H])(n4nc(-c5c([H])c([H])c(Oc6c([H])c([H])c(F)c([H])c6F)c([H])c5[H])c(C(=O)N([H])[H])c4N([H])[H])C3([H])[H])c([H])c([H])c2C1([H])[H]

$$$$
63:0:0
     RDKit          3D

109116  0  0  1  0  0  0  0  0999 V2000
  -25.1000  -34.5000   25.5750 C   0  0  0  0  0  2  0  0  0  0  0  0
  -24.1930  -34.2680   23.9860 C   0  0  0  0  0  2  0  0  0  0  0  0
  -24.6490  -33.7120   22.1690 C   0  0  0  0  0  2  0  0  0  0  0  0
  -27.2780  -31.9910   21.3690 C   0  0  0  0  0  0  0  0  0  0  0  0
  -26.0220  -32.8930   21.4060 N   0  0  0  0  0  0  0  0  0  0  0  0
  -27.9130  -32.1810   20.3330 O   0  0  0  0  0  0  0  0  0  0  0  0
  -25.9710  -33.2180   20.4420 H   0  0  0  0  0  0  0  0  0  0  0  0
  -27.9760  -30.5550   22.3260 C   0  0  0  0  0  2  0  0  0  0  0  0
  -28.4660  -28.6490   22.4070 C   0  0  0  0  0  2  0  0  0  0  0  0
  -28.0540  -26.7760   22.2670 C   0  0  0  0  0  2  0  0  0  0  0  0
  -28.9150  -25.0960   21.9040 C   0  0  0  0  0  3  0  0  0  0  0  0
  -28.5340  -23.2480   21.6460 C   0  0  0  0  0  3  0  0  0  0  0  0
  -29.0730  -20.2080   21.2790 C   0  0  0  0  0  0  0  0  0  0  0  0
  -29.3610  -21.7020   21.5570 N   0  0  0  0  0  0  0  0  0  0  0  0
  -27.8720  -19.9940   21.0800 O   0  0  0  0  0  0  0  0  0  0  0  0
  -30.3410  -21.8280   21.7950 H   0  0  0  0  0  0  0  0  0  0  0  0
  -30.0210  -18.6360   21.1500 C   0  0  0  0  0  2  0  0  0  0  0  0
  -30.4010  -15.5600   20.5840 C   0  0  0  0  0  0  0  0  0  0  0  0
  -30.4450  -13.0650   19.6260 C   0  0  0  0  0  2  0  0  0  0  0  0
  -29.5690  -12.6970   18.3900 C   0  0  0  0  0  2  0  0  0  0  0  0
  -28.1360  -12.3290   18.7980 C   0  0  0  0  0  2  0  0  0  0  0  0
  -27.6150  -13.3070   19.8620 C   0  0  0  0  0  3  0  0  0  0  0  0
  -28.6120  -13.6120   21.0150 C   0  0  0  0  0  2  0  0  0  0  0  0
  -29.8360  -14.2150   20.4340 N   0  0  0  0  0  0  0  0  0  0  0  0
  -31.6130  -15.5210   20.2740 O   0  0  0  0  0  0  0  0  0  0  0  0
  -29.7200  -16.9090   20.9160 N   0  0  0  0  0  0  0  0  0  0  0  0
  -28.7390  -16.7350   21.0810 H   0  0  0  0  0  0  0  0  0  0  0  0
  -25.2290  -13.8230   20.5840 C   0  0  0  0  0  0  0  0  0  0  0  0
  -24.1810  -13.0580   20.9200 C   0  0  0  0  0  0  0  0  0  0  0  0
  -24.6470  -11.6920   20.8780 C   0  0  0  0  0  0  0  0  0  0  0  0
  -26.2870  -12.9660   20.3390 N   0  0  0  0  0  0  0  0  0  0  0  0
  -25.9440  -11.6710   20.5840 N   0  0  0  0  0  0  0  0  0  0  0  0
  -23.9200  -10.4360   21.0420 C   0  0  0  0  0  0  0  0  0  0  0  0
  -24.3740   -9.4230   21.9190 C   0  0  0  0  0  3  0  0  0  0  0  0
  -23.6400   -8.2300   22.0750 C   0  0  0  0  0  3  0  0  0  0  0  0
  -22.4340   -8.0360   21.3570 C   0  0  0  0  0  0  0  0  0  0  0  0
  -22.0030   -9.0340   20.4630 C   0  0  0  0  0  3  0  0  0  0  0  0
  -22.7380  -10.2170   20.3040 C   0  0  0  0  0  3  0  0  0  0  0  0
  -21.6680   -6.8970   21.4240 O   0  0  0  0  0  0  0  0  0  0  0  0
  -21.6900   -6.0800   22.5270 C   0  0  0  0  0  0  0  0  0  0  0  0
  -21.4070   -6.5700   23.8200 C   0  0  0  0  0  3  0  0  0  0  0  0
  -21.3630   -5.6830   24.9150 C   0  0  0  0  0  3  0  0  0  0  0  0
  -21.6020   -4.3090   24.7190 C   0  0  0  0  0  0  0  0  0  0  0  0
  -21.8820   -3.8200   23.4310 C   0  0  0  0  0  3  0  0  0  0  0  0
  -21.9220   -4.7040   22.3370 C   0  0  0  0  0  0  0  0  0  0  0  0
  -22.1690   -4.2250   21.0940 F   0  0  0  0  0  0  0  0  0  0  0  0
  -21.5580   -3.4530   25.7670 F   0  0  0  0  0  0  0  0  0  0  0  0
  -22.7730  -13.5130   21.1880 C   0  0  0  0  0  0  0  0  0  0  0  0
  -22.0490  -12.8190   22.0360 N   0  0  0  0  0  0  0  0  0  0  0  0
  -22.3380  -14.5530   20.6650 O   0  0  0  0  0  0  0  0  0  0  0  0
  -22.4250  -11.9850   22.4730 H   0  0  0  0  0  0  0  0  0  0  0  0
  -21.1080  -13.1070   22.2680 H   0  0  0  0  0  0  0  0  0  0  0  0
  -25.3940  -15.2120   20.4270 N   0  0  0  0  0  0  0  0  0  0  0  0
  -24.6140  -15.8480   20.5320 H   0  0  0  0  0  0  0  0  0  0  0  0
  -26.2350  -15.6550   20.0990 H   0  0  0  0  0  0  0  0  0  0  0  0
  -26.7700  -34.8530   26.0440 C   0  0  0  0  0  2  0  0  0  0  0  0
  -28.4770  -34.5990   25.5120 C   0  0  0  0  0  2  0  0  0  0  0  0
  -29.6380  -33.4770   24.9500 C   0  0  0  0  0  2  0  0  0  0  0  0
  -30.7130  -31.9620   23.1600 C   0  0  0  0  0  0  0  0  0  0  0  0
  -30.1050  -33.1720   23.5120 N   0  0  0  0  0  0  0  0  0  0  0  0
  -30.7600  -31.0640   23.9980 O   0  0  0  0  0  0  0  0  0  0  0  0
  -30.2490  -33.9610   22.8920 H   0  0  0  0  0  0  0  0  0  0  0  0
  -31.3990  -31.5790   21.7710 C   0  0  0  0  0  2  0  0  0  0  0  0
  -30.8390  -29.3600   20.3310 C   0  0  0  0  0  0  0  0  0  0  0  0
  -30.6620  -30.6510   20.8000 N   0  0  0  0  0  0  0  0  0  0  0  0
  -31.8320  -28.6920   20.6620 O   0  0  0  0  0  0  0  0  0  0  0  0
  -29.7190  -30.9930   20.6440 H   0  0  0  0  0  0  0  0  0  0  0  0
  -29.7790  -28.6890   19.2970 C   0  0  0  0  0  2  0  0  0  0  0  0
  -28.8190  -27.5340   19.6600 O   0  0  0  0  0  0  0  0  0  0  0  0
  -24.5490  -31.4850   23.4780 C   0  0  0  0  0  0  0  0  0  0  0  0
  -27.4140  -27.8190   19.6570 C   0  0  0  0  0  0  0  0  0  0  0  0
  -23.2140  -30.2810   21.6160 C   0  0  0  0  0  3  0  0  0  0  0  0
  -24.6770  -28.7140   20.0000 C   0  0  0  0  0  0  0  0  0  0  0  0
  -25.5540  -30.1250   21.7750 C   0  0  0  0  0  2  0  0  0  0  0  0
  -25.7550  -29.3350   20.5550 C   0  0  0  0  0  0  0  0  0  0  0  0
  -27.0430  -29.0620   20.1210 C   0  0  0  0  0  3  0  0  0  0  0  0
  -26.3060  -26.9910   19.2780 C   0  0  0  0  0  3  0  0  0  0  0  0
  -24.9530  -27.5010   19.3250 C   0  0  0  0  0  3  0  0  0  0  0  0
  -23.3720  -29.5040   20.2060 C   0  0  0  0  0  2  0  0  0  0  0  0
  -24.4480  -30.7720   22.2870 N   0  0  0  0  0  0  0  0  0  0  0  0
  -23.4730  -31.6990   24.0120 O   0  0  0  0  0  0  0  0  0  0  0  0
  -22.5820  -29.3070   22.5560 C   0  0  0  0  0  0  0  0  0  0  0  0
  -21.2780  -29.2070   22.4140 N   0  0  0  0  0  0  0  0  0  0  0  0
  -23.2510  -28.6260   23.3350 O   0  0  0  0  0  0  0  0  0  0  0  0
  -20.7920  -29.8080   21.7610 H   0  0  0  0  0  0  0  0  0  0  0  0
  -17.9660  -28.1170   22.8480 C   0  0  0  0  0  0  0  0  0  0  0  0
  -20.4970  -28.2910   23.1920 C   0  0  0  0  0  3  0  0  0  0  0  0
  -20.5840  -26.8790   22.5730 C   0  0  0  0  0  2  0  0  0  0  0  0
  -19.5080  -26.6160   21.5210 C   0  0  0  0  0  2  0  0  0  0  0  0
  -18.1250  -26.7780   22.1520 C   0  0  0  0  0  2  0  0  0  0  0  0
  -19.0870  -28.8380   23.3220 C   0  0  0  0  0  0  0  0  0  0  0  0
  -18.9080  -30.1060   23.9130 C   0  0  0  0  0  3  0  0  0  0  0  0
  -17.6140  -30.6470   24.0590 C   0  0  0  0  0  3  0  0  0  0  0  0
  -16.4990  -29.9130   23.6120 C   0  0  0  0  0  3  0  0  0  0  0  0
  -16.6740  -28.6490   23.0170 C   0  0  0  0  0  3  0  0  0  0  0  0
  -25.9000  -32.2630   24.1170 C   0  0  0  0  0  0  0  0  0  0  0  0
  -26.3050  -31.4630   25.4180 C   0  0  1  0  0  0  0  0  0  0  0  0
  -25.0840  -31.1540   26.3340 C   0  0  0  0  0  1  0  0  0  0  0  0
  -26.8900  -30.0950   24.9950 C   0  0  0  0  0  1  0  0  0  0  0  0
  -27.2760  -31.9790   26.5130 C   0  0  0  0  0  1  0  0  0  0  0  0
  -26.6820  -33.6950   23.7970 N   0  0  0  0  0  4  0  0  0  0  0  0
  -26.6340  -35.0550   23.2230 C   0  0  0  0  0  0  0  0  0  0  0  0
  -27.2090  -35.2350   22.1720 O   0  0  0  0  0  0  0  0  0  0  0  0
  -27.5970  -33.6320   24.2330 H   0  0  0  0  0  0  0  0  0  0  0  0
  -24.5700  -36.9410   22.8780 C   0  0  0  0  0  1  0  0  0  0  0  0
  -25.8250  -36.4350   23.6890 C   0  0  0  0  0  3  0  0  0  0  0  0
  -27.5770  -37.7490   24.8130 C   0  0  0  0  0  1  0  0  0  0  0  0
  -26.6230  -37.6480   23.7490 N   0  0  0  0  0  0  0  0  0  0  0  0
  -26.0180  -38.4600   23.8310 H   0  0  0  0  0  0  0  0  0  0  0  0
  1 56  1  0
  2  1  1  0
  3  2  1  0
  4  5  1  0
  4  8  1  0
  5  3  1  0
  6  4  2  0
  7  5  1  0
  8  9  1  0
 10  9  1  0
 11 10  1  0
 12 11  2  0
 13 14  1  0
 14 12  1  0
 14 16  1  0
 15 13  2  0
 17 13  1  0
 18 26  1  0
 19 24  1  0
 20 21  1  0
 20 19  1  0
 22 21  1  0
 22 31  1  0
 22 23  1  0
 24 18  1  0
 24 23  1  0
 25 18  2  0
 26 27  1  0
 26 17  1  0
 28 29  2  0
 29 48  1  0
 30 29  1  0
 30 33  1  0
 31 32  1  0
 31 28  1  0
 32 30  2  0
 33 34  1  0
 34 35  2  0
 36 39  1  0
 36 35  1  0
 37 36  2  0
 38 37  1  0
 38 33  2  0
 39 40  1  0
 40 41  1  0
 41 42  2  0
 43 42  1  0
 43 47  1  0
 44 43  2  0
 45 40  2  0
 45 44  1  0
 46 45  1  0
 48 49  1  0
 49 52  1  0
 49 51  1  0
 50 48  2  0
 53 54  1  0
 53 28  1  0
 55 53  1  0
 57 56  1  0
 58 57  1  0
 59 60  1  0
 59 61  2  0
 60 58  1  0
 62 60  1  0
 63 59  1  0
 64 66  2  0
 64 65  1  0
 65 63  1  0
 67 65  1  0
 68 69  1  0
 68 64  1  0
 70 81  2  0
 70 96  1  0
 71 69  1  0
 71 76  1  0
 72 80  1  0
 72 82  1  0
 73 79  1  0
 73 75  1  0
 74 80  1  0
 75 74  1  0
 76 75  2  0
 77 78  1  0
 77 71  2  0
 78 73  2  0
 79 72  1  0
 80 70  1  0
 82 84  2  0
 83 82  1  0
 85 83  1  0
 86 95  2  0
 86 91  1  0
 87 83  1  0
 87 91  1  0
 88 87  1  0
 89 90  1  0
 89 88  1  0
 90 86  1  0
 91 92  2  0
 92 93  1  0
 94 93  2  0
 95 94  1  0
 96 97  1  0
 97 98  1  1
 97100  1  0
 99 97  1  0
101 96  2  0
101104  1  0
102106  1  0
102101  1  0
103102  2  0
106105  1  0
106108  1  0
108109  1  0
108107  1  0
M  ISO  4  18 100  26 100  68 101  69 101
M  END
>  <TORSDO>  (60) 
F 33

>  <SCORE>  (60) 
7.083

>  <name>  (60) 
63

>  <ligand_id>  (60) 
63

>  <original_smiles>  (60) 
[H]c1c([H])c([H])c2c(c1[H])C([H])([H])C([H])([H])C([H])([H])C2([H])N([H])C(=O)C1([H])N(C(=O)C([H])(N([H])C(=O)C([H])(N([H])C([H])([H])[H])C([H])([H])[H])C(C([H])([H])[H])(C([H])([H])[H])C([H])([H])[H])C([H])([H])c2c([H])c(OC([H])([H])C(=O)N([H])C([H])([H])C(=O)N([H])C([H])([H])C([H])([H])C([H])([H])C([H])([H])C([H])([H])C([H])([H])N([H])C(=O)C([H])([H])C([H])([H])C([H])([H])C([H])([H])C([H])([H])N([H])C(=O)C([H])([H])N([H])C(=O)N3C([H])([H])C([H])([H])C([H])([H])C([H])(n4nc(-c5c([H])c([H])c(Oc6c([H])c([H])c(F)c([H])c6F)c([H])c5[H])c(C(=O)N([H])[H])c4N([H])[H])C3([H])[H])c([H])c([H])c2C1([H])[H]

>  <smiles>  (60) 
[H]c1c([H])c([H])c2c(c1[H])C([H])([H])C([H])([H])C([H])([H])C2([H])N([H])C(=O)C1([H])N(C(=O)C([H])(N([H])C(=O)C([H])(N([H])C([H])([H])[H])C([H])([H])[H])C(C([H])([H])[H])(C([H])([H])[H])C([H])([H])[H])C([H])([H])c2c([H])c(OC([H])([H])C(=O)N([H])C([H])([H])C(=O)N([H])C([H])([H])C([H])([H])C([H])([H])C([H])([H])C([H])([H])C([H])([H])N([H])C(=O)C([H])([H])C([H])([H])C([H])([H])C([H])([H])C([H])([H])N([H])C(=O)C([H])([H])N([H])C(=O)N3C([H])([H])C([H])([H])C([H])([H])C([H])(n4nc(-c5c([H])c([H])c(Oc6c([H])c([H])c(F)c([H])c6F)c([H])c5[H])c(C(=O)N([H])[H])c4N([H])[H])C3([H])[H])c([H])c([H])c2C1([H])[H]

$$$$
64:0:0
     RDKit          3D

107114  0  0  1  0  0  0  0  0999 V2000
  -27.7570  -11.7420   23.5460 C   0  0  0  0  0  2  0  0  0  0  0  0
  -29.0060   -9.4700   24.4280 C   0  0  0  0  0  0  0  0  0  0  0  0
  -28.4240  -10.3520   23.5380 N   0  0  0  0  0  0  0  0  0  0  0  0
  -29.1970   -9.8820   25.5720 O   0  0  0  0  0  0  0  0  0  0  0  0
  -28.2990   -9.8840   22.6350 H   0  0  0  0  0  0  0  0  0  0  0  0
  -29.4410   -7.9030   24.1570 C   0  0  0  0  0  2  0  0  0  0  0  0
  -31.2320   -6.3530   22.9230 C   0  0  0  0  0  0  0  0  0  0  0  0
  -30.1380   -7.2240   22.9560 N   0  0  0  0  0  0  0  0  0  0  0  0
  -31.5120   -5.7700   23.9710 O   0  0  0  0  0  0  0  0  0  0  0  0
  -29.8930   -7.6550   22.0720 H   0  0  0  0  0  0  0  0  0  0  0  0
  -32.2530   -6.0610   21.6710 C   0  0  0  0  0  2  0  0  0  0  0  0
  -34.2710   -7.6670   20.8600 C   0  0  0  0  0  0  0  0  0  0  0  0
  -33.0190   -7.0850   20.8090 N   0  0  0  0  0  0  0  0  0  0  0  0
  -35.2370   -7.0450   21.3070 O   0  0  0  0  0  0  0  0  0  0  0  0
  -32.3710   -7.6410   20.2690 H   0  0  0  0  0  0  0  0  0  0  0  0
  -34.4470   -9.2350   20.5160 C   0  0  0  0  0  2  0  0  0  0  0  0
  -34.6620  -11.4610   22.1780 C   0  0  0  0  0  0  0  0  0  0  0  0
  -33.1880  -10.5550   23.7160 C   0  0  0  0  0  2  0  0  0  0  0  0
  -32.6630   -9.3960   22.9750 C   0  0  0  0  0  2  0  0  0  0  0  0
  -31.7230   -9.7730   21.7410 C   0  0  0  0  0  2  0  0  0  0  0  0
  -31.6860  -11.0600   20.9970 C   0  0  0  0  0  3  0  0  0  0  0  0
  -32.2450  -12.0340   22.0560 C   0  0  0  0  0  2  0  0  0  0  0  0
  -33.4350  -11.4900   22.6780 N   0  0  0  0  0  0  0  0  0  0  0  0
  -35.5260  -12.1730   22.6850 O   0  0  0  0  0  0  0  0  0  0  0  0
  -35.0330  -10.2950   21.4870 N   0  0  0  0  0  0  0  0  0  0  0  0
  -36.0400  -10.2370   21.4800 H   0  0  0  0  0  0  0  0  0  0  0  0
  -29.8550  -12.0390   19.4070 C   0  0  0  0  0  0  0  0  0  0  0  0
  -28.5130  -11.7880   19.2490 C   0  0  0  0  0  0  0  0  0  0  0  0
  -28.1660  -10.7770   20.1850 C   0  0  0  0  0  0  0  0  0  0  0  0
  -30.3030  -11.2210   20.4240 N   0  0  0  0  0  0  0  0  0  0  0  0
  -29.2700  -10.3960   20.7920 N   0  0  0  0  0  0  0  0  0  0  0  0
  -26.9010  -10.0730   20.4700 C   0  0  0  0  0  0  0  0  0  0  0  0
  -26.5700   -9.5790   21.7550 C   0  0  0  0  0  3  0  0  0  0  0  0
  -25.3390   -8.9270   21.9880 C   0  0  0  0  0  3  0  0  0  0  0  0
  -24.4110   -8.7690   20.9330 C   0  0  0  0  0  0  0  0  0  0  0  0
  -24.7470   -9.2480   19.6550 C   0  0  0  0  0  3  0  0  0  0  0  0
  -25.9780   -9.8860   19.4240 C   0  0  0  0  0  3  0  0  0  0  0  0
  -23.1990   -8.1310   21.0520 O   0  0  0  0  0  0  0  0  0  0  0  0
  -22.7020   -7.7330   22.2680 C   0  0  0  0  0  0  0  0  0  0  0  0
  -22.4140   -8.6590   23.2940 C   0  0  0  0  0  3  0  0  0  0  0  0
  -21.8380   -8.2130   24.5010 C   0  0  0  0  0  3  0  0  0  0  0  0
  -21.5390   -6.8480   24.6770 C   0  0  0  0  0  0  0  0  0  0  0  0
  -21.8160   -5.9260   23.6530 C   0  0  0  0  0  3  0  0  0  0  0  0
  -22.3950   -6.3700   22.4500 C   0  0  0  0  0  0  0  0  0  0  0  0
  -22.6370   -5.4830   21.4570 F   0  0  0  0  0  0  0  0  0  0  0  0
  -20.9750   -6.4210   25.8330 F   0  0  0  0  0  0  0  0  0  0  0  0
  -27.6110  -12.3580   18.2000 C   0  0  0  0  0  0  0  0  0  0  0  0
  -26.4180  -12.7990   18.5840 N   0  0  0  0  0  0  0  0  0  0  0  0
  -27.9770  -12.4370   17.0290 O   0  0  0  0  0  0  0  0  0  0  0  0
  -26.1210  -12.7400   19.5450 H   0  0  0  0  0  0  0  0  0  0  0  0
  -25.7880  -13.1960   17.9020 H   0  0  0  0  0  0  0  0  0  0  0  0
  -30.7520  -12.8730   18.7520 N   0  0  0  0  0  0  0  0  0  0  0  0
  -30.4690  -13.4440   17.9650 H   0  0  0  0  0  0  0  0  0  0  0  0
  -31.7380  -12.9450   18.9610 H   0  0  0  0  0  0  0  0  0  0  0  0
  -28.2350  -12.7920   22.4010 C   0  0  0  0  0  2  0  0  0  0  0  0
  -27.5330  -13.8960   21.4830 C   0  0  0  0  0  2  0  0  0  0  0  0
  -28.5610  -15.0490   20.9710 C   0  0  0  0  0  3  0  0  0  0  0  0
  -28.3850  -15.9510   19.6530 C   0  0  0  0  0  3  0  0  0  0  0  0
  -29.5690  -16.9970   19.2920 C   0  0  0  0  0  3  0  0  0  0  0  0
  -29.3800  -18.1330   18.1580 C   0  0  0  0  0  3  0  0  0  0  0  0
  -30.6110  -18.9140   17.6760 N   0  0  0  0  0  4  0  0  0  0  0  0
  -31.2800  -18.2410   17.3360 H   0  0  0  0  0  0  0  0  0  0  0  0
  -31.0280  -19.3600   18.4770 H   0  0  0  0  0  0  0  0  0  0  0  0
  -30.4230  -19.9840   16.5910 C   0  0  0  0  0  2  0  0  0  0  0  0
  -31.7070  -20.7140   15.9280 C   0  0  0  0  0  3  0  0  0  0  0  0
  -31.4320  -21.7620   14.7370 C   0  0  0  0  0  3  0  0  0  0  0  0
  -32.5000  -22.3960   13.8940 O   0  0  0  0  0  0  0  0  0  0  0  0
  -28.6890  -25.6570    8.7870 C   0  0  0  0  0  0  0  0  0  0  0  0
  -32.1730  -22.4470   12.5350 C   0  0  0  0  0  0  0  0  0  0  0  0
  -29.2240  -23.2710    8.4370 C   0  0  0  0  0  3  0  0  0  0  0  0
  -31.0860  -22.3130    9.9090 C   0  0  0  0  0  0  0  0  0  0  0  0
  -30.8430  -24.7890    9.7220 C   0  0  0  0  0  2  0  0  0  0  0  0
  -31.2880  -23.5640   10.5100 C   0  0  0  0  0  0  0  0  0  0  0  0
  -31.8450  -23.6390   11.8220 C   0  0  0  0  0  3  0  0  0  0  0  0
  -32.0430  -21.2180   11.8590 C   0  0  0  0  0  3  0  0  0  0  0  0
  -31.4870  -21.1420   10.5680 C   0  0  0  0  0  3  0  0  0  0  0  0
  -30.4180  -22.2850    8.5500 C   0  0  0  0  0  2  0  0  0  0  0  0
  -29.5520  -24.6210    9.0010 N   0  0  0  0  0  0  0  0  0  0  0  0
  -27.6600  -25.5090    8.1130 O   0  0  0  0  0  0  0  0  0  0  0  0
  -27.9730  -22.6270    9.0820 C   0  0  0  0  0  0  0  0  0  0  0  0
  -27.2840  -21.7540    8.3270 N   0  0  0  0  0  0  0  0  0  0  0  0
  -27.6510  -22.8980   10.2420 O   0  0  0  0  0  0  0  0  0  0  0  0
  -27.6040  -21.5900    7.3830 H   0  0  0  0  0  0  0  0  0  0  0  0
  -24.7610  -19.4200    7.1990 C   0  0  0  0  0  0  0  0  0  0  0  0
  -26.0980  -21.0030    8.7450 C   0  0  0  0  0  3  0  0  0  0  0  0
  -26.4930  -19.7330    9.5340 C   0  0  0  0  0  2  0  0  0  0  0  0
  -26.6140  -18.4870    8.6500 C   0  0  0  0  0  2  0  0  0  0  0  0
  -25.2890  -18.2010    7.9390 C   0  0  0  0  0  2  0  0  0  0  0  0
  -25.1530  -20.7340    7.5670 C   0  0  0  0  0  0  0  0  0  0  0  0
  -24.6610  -21.8280    6.8250 C   0  0  0  0  0  3  0  0  0  0  0  0
  -23.7910  -21.6280    5.7360 C   0  0  0  0  0  3  0  0  0  0  0  0
  -23.3950  -20.3260    5.3850 C   0  0  0  0  0  3  0  0  0  0  0  0
  -23.8760  -19.2270    6.1180 C   0  0  0  0  0  3  0  0  0  0  0  0
  -28.9680  -27.0810    9.3590 C   0  0  0  0  0  3  0  0  0  0  0  0
  -28.1390  -27.3990   10.6650 C   0  0  1  0  0  0  0  0  0  0  0  0
  -26.6190  -27.1510   10.5130 C   0  0  0  0  0  1  0  0  0  0  0  0
  -28.6370  -26.5420   11.8520 C   0  0  0  0  0  1  0  0  0  0  0  0
  -28.3430  -28.8760   11.0700 C   0  0  0  0  0  1  0  0  0  0  0  0
  -28.6570  -28.0520    8.3000 N   0  0  0  0  0  0  0  0  0  0  0  0
  -29.5600  -28.5930    7.4720 C   0  0  0  0  0  0  0  0  0  0  0  0
  -30.7710  -28.3710    7.5680 O   0  0  0  0  0  0  0  0  0  0  0  0
  -27.6790  -28.2380    8.1330 H   0  0  0  0  0  0  0  0  0  0  0  0
  -28.9450  -28.7500    5.0380 C   0  0  0  0  0  1  0  0  0  0  0  0
  -29.0420  -29.5260    6.3610 C   0  0  0  0  0  3  0  0  0  0  0  0
  -29.7910  -31.6750    7.2830 C   0  0  0  0  0  1  0  0  0  0  0  0
  -29.8740  -30.7340    6.1700 N   0  0  0  0  0  0  0  0  0  0  0  0
  -29.6100  -31.2230    5.3200 H   0  0  0  0  0  0  0  0  0  0  0  0
  2  4  2  0
  3  1  1  0
  3  2  1  0
  5  3  1  0
  6  2  1  0
  7  8  1  0
  7  9  2  0
  8  6  1  0
 10  8  1  0
 11  7  1  0
 12 14  2  0
 13 12  1  0
 13 11  1  0
 15 13  1  0
 16 12  1  0
 16 25  1  0
 17 23  1  0
 17 24  2  0
 19 18  1  0
 20 19  1  0
 21 30  1  0
 21 20  1  0
 21 22  1  0
 22 23  1  0
 23 18  1  0
 25 17  1  0
 26 25  1  0
 27 30  1  0
 28 27  2  0
 28 29  1  0
 29 32  1  0
 29 31  2  0
 30 31  1  0
 32 33  1  0
 33 34  2  0
 35 38  1  0
 35 34  1  0
 36 35  2  0
 37 36  1  0
 37 32  2  0
 38 39  1  0
 39 44  2  0
 39 40  1  0
 40 41  2  0
 41 42  1  0
 42 46  1  0
 43 42  2  0
 44 43  1  0
 45 44  1  0
 47 48  1  0
 47 28  1  0
 48 50  1  0
 49 47  2  0
 51 48  1  0
 52 54  1  0
 52 27  1  0
 53 52  1  0
 55  1  1  0
 56 55  1  0
 57 56  1  0
 58 57  2  0
 59 58  1  0
 60 59  2  0
 61 60  1  0
 61 63  1  0
 62 61  1  0
 64 61  1  0
 65 64  1  0
 66 65  2  0
 67 66  1  0
 68 78  1  0
 69 67  1  0
 70 77  1  0
 70 78  1  0
 70 80  1  0
 71 73  2  0
 71 76  1  0
 72 73  1  0
 73 74  1  0
 74 69  2  0
 75 69  1  0
 76 75  2  0
 77 71  1  0
 78 72  1  0
 79 68  2  0
 80 82  2  0
 81 80  1  0
 83 81  1  0
 84 89  1  0
 84 88  1  0
 85 81  1  0
 85 86  1  0
 87 86  1  0
 88 87  1  0
 89 85  1  0
 90 89  2  0
 91 90  1  0
 92 91  2  0
 92 93  1  0
 93 84  2  0
 94 68  1  0
 94 95  1  0
 95 98  1  1
 95 97  1  0
 96 95  1  0
 99 94  1  0
100101  2  0
100 99  1  0
102 99  1  0
104103  1  0
104100  1  0
106104  1  0
106105  1  0
107106  1  0
M  ISO  4  17 100  25 100  66 101  67 101
M  END
>  <TORSDO>  (61) 
F 32

>  <SCORE>  (61) 
-0.087

>  <name>  (61) 
64

>  <ligand_id>  (61) 
64

>  <original_smiles>  (61) 
[H]c1c([H])c([H])c2c(c1[H])C([H])([H])C([H])([H])C([H])([H])C2([H])N([H])C(=O)C1([H])N(C(=O)C([H])(N([H])C(=O)C([H])(N([H])C([H])([H])[H])C([H])([H])[H])C(C([H])([H])[H])(C([H])([H])[H])C([H])([H])[H])C([H])([H])c2c([H])c(OC([H])([H])C([H])([H])C([H])([H])[N+]([H])([H])C([H])([H])C([H])([H])C([H])([H])C([H])([H])C([H])([H])C([H])([H])C([H])([H])N([H])C(=O)C([H])([H])N([H])C(=O)C([H])([H])N([H])C(=O)C([H])([H])N([H])C(=O)N3C([H])([H])C([H])([H])C([H])([H])C([H])(n4nc(-c5c([H])c([H])c(Oc6c([H])c([H])c(F)c([H])c6F)c([H])c5[H])c(C(=O)N([H])[H])c4N([H])[H])C3([H])[H])c([H])c([H])c2C1([H])[H]

>  <smiles>  (61) 
[H]c1c([H])c([H])c2c(c1[H])C([H])([H])C([H])([H])C([H])([H])C2([H])N([H])C(=O)C1([H])N(C(=O)C([H])(N([H])C(=O)C([H])(N([H])C([H])([H])[H])C([H])([H])[H])C(C([H])([H])[H])(C([H])([H])[H])C([H])([H])[H])C([H])([H])c2c([H])c(OC([H])([H])C([H])([H])C([H])([H])[N+]([H])([H])C([H])([H])C([H])([H])C([H])([H])C([H])([H])C([H])([H])C([H])([H])C([H])([H])N([H])C(=O)C([H])([H])N([H])C(=O)C([H])([H])N([H])C(=O)C([H])([H])N([H])C(=O)N3C([H])([H])C([H])([H])C([H])([H])C([H])(n4nc(-c5c([H])c([H])c(Oc6c([H])c([H])c(F)c([H])c6F)c([H])c5[H])c(C(=O)N([H])[H])c4N([H])[H])C3([H])[H])c([H])c([H])c2C1([H])[H]

$$$$
65:0:0
     RDKit          3D

114121  0  0  1  0  0  0  0  0999 V2000
  -24.3740  -24.8620   24.2500 C   0  0  0  0  0  0  0  0  0  0  0  0
  -24.9380  -26.0430   23.9620 N   0  0  0  0  0  0  0  0  0  0  0  0
  -24.6100  -24.2380   25.2900 O   0  0  0  0  0  0  0  0  0  0  0  0
  -24.6730  -26.4540   23.0740 H   0  0  0  0  0  0  0  0  0  0  0  0
  -26.1370  -26.6240   24.5700 C   0  0  0  0  0  2  0  0  0  0  0  0
  -27.2910  -26.5150   23.5570 C   0  0  0  0  0  0  0  0  0  0  0  0
  -28.2290  -27.4690   23.5400 N   0  0  0  0  0  0  0  0  0  0  0  0
  -27.2970  -25.5850   22.7490 O   0  0  0  0  0  0  0  0  0  0  0  0
  -28.2140  -28.2020   24.2370 H   0  0  0  0  0  0  0  0  0  0  0  0
  -29.1620  -27.6370   22.4250 C   0  0  0  0  0  2  0  0  0  0  0  0
  -30.5510  -27.0090   22.6170 C   0  0  0  0  0  0  0  0  0  0  0  0
  -30.9600  -25.9670   21.8710 N   0  0  0  0  0  0  0  0  0  0  0  0
  -31.3260  -27.5240   23.4230 O   0  0  0  0  0  0  0  0  0  0  0  0
  -31.9430  -25.7370   21.9560 H   0  0  0  0  0  0  0  0  0  0  0  0
  -30.1610  -24.9850   21.1270 C   0  0  0  0  0  2  0  0  0  0  0  0
  -29.8980  -25.3190   19.6380 C   0  0  0  0  0  2  0  0  0  0  0  0
  -28.4510  -25.7580   19.3310 C   0  0  0  0  0  2  0  0  0  0  0  0
  -28.3640  -27.1530   19.5890 O   0  0  0  0  0  0  0  0  0  0  0  0
  -24.4250  -31.8120   23.2080 C   0  0  0  0  0  0  0  0  0  0  0  0
  -27.1310  -27.7460   19.7070 C   0  0  0  0  0  0  0  0  0  0  0  0
  -23.2060  -30.4710   21.5210 C   0  0  0  0  0  3  0  0  0  0  0  0
  -24.6620  -29.1010   19.9390 C   0  0  0  0  0  0  0  0  0  0  0  0
  -25.6940  -30.9720   21.2360 C   0  0  0  0  0  2  0  0  0  0  0  0
  -25.8170  -29.6470   20.5110 C   0  0  0  0  0  0  0  0  0  0  0  0
  -27.0490  -28.9750   20.3960 C   0  0  0  0  0  3  0  0  0  0  0  0
  -25.9520  -27.1970   19.1480 C   0  0  0  0  0  3  0  0  0  0  0  0
  -24.7220  -27.8740   19.2560 C   0  0  0  0  0  3  0  0  0  0  0  0
  -23.3850  -29.8940   20.0900 C   0  0  0  0  0  2  0  0  0  0  0  0
  -24.4650  -31.0930   22.0510 N   0  0  0  0  0  0  0  0  0  0  0  0
  -23.3590  -32.0000   23.8120 O   0  0  0  0  0  0  0  0  0  0  0  0
  -22.6460  -29.3580   22.4340 C   0  0  0  0  0  0  0  0  0  0  0  0
  -21.3500  -29.0500   22.2710 N   0  0  0  0  0  0  0  0  0  0  0  0
  -23.3710  -28.7700   23.2430 O   0  0  0  0  0  0  0  0  0  0  0  0
  -20.8150  -29.5810   21.5990 H   0  0  0  0  0  0  0  0  0  0  0  0
  -18.1480  -27.4120   22.5240 C   0  0  0  0  0  0  0  0  0  0  0  0
  -20.6170  -28.0080   22.9870 C   0  0  0  0  0  3  0  0  0  0  0  0
  -20.9560  -26.6050   22.4340 C   0  0  0  0  0  2  0  0  0  0  0  0
  -19.9920  -26.1360   21.3400 C   0  0  0  0  0  2  0  0  0  0  0  0
  -18.5560  -26.0980   21.8720 C   0  0  0  0  0  2  0  0  0  0  0  0
  -19.1170  -28.3160   23.0330 C   0  0  0  0  0  0  0  0  0  0  0  0
  -18.6900  -29.5390   23.5920 C   0  0  0  0  0  3  0  0  0  0  0  0
  -17.3200  -29.8610   23.6570 C   0  0  0  0  0  3  0  0  0  0  0  0
  -16.3640  -28.9560   23.1610 C   0  0  0  0  0  3  0  0  0  0  0  0
  -16.7800  -27.7350   22.5970 C   0  0  0  0  0  3  0  0  0  0  0  0
  -25.7120  -32.4460   23.8280 C   0  0  0  0  0  3  0  0  0  0  0  0
  -26.2300  -31.6640   25.0980 C   0  0  1  0  0  0  0  0  0  0  0  0
  -25.1300  -31.3680   26.1450 C   0  0  0  0  0  1  0  0  0  0  0  0
  -26.8440  -30.3000   24.6980 C   0  0  0  0  0  1  0  0  0  0  0  0
  -27.3530  -32.4710   25.7960 C   0  0  0  0  0  1  0  0  0  0  0  0
  -25.4020  -33.8450   24.1610 N   0  0  0  0  0  0  0  0  0  0  0  0
  -25.7700  -34.9050   23.4270 C   0  0  0  0  0  0  0  0  0  0  0  0
  -26.4890  -34.8050   22.4300 O   0  0  0  0  0  0  0  0  0  0  0  0
  -24.7770  -34.0040   24.9370 H   0  0  0  0  0  0  0  0  0  0  0  0
  -24.0910  -36.7220   22.9620 C   0  0  0  0  0  1  0  0  0  0  0  0
  -25.2660  -36.2950   23.8590 C   0  0  0  0  0  3  0  0  0  0  0  0
  -27.3550  -37.1350   24.8390 C   0  0  0  0  0  1  0  0  0  0  0  0
  -26.3170  -37.3370   23.8300 N   0  0  0  0  0  0  0  0  0  0  0  0
  -25.9170  -38.2590   23.9750 H   0  0  0  0  0  0  0  0  0  0  0  0
  -23.4080  -24.2920   23.1970 C   0  0  0  0  0  2  0  0  0  0  0  0
  -23.7130  -24.7530   21.7490 C   0  0  0  0  0  2  0  0  0  0  0  0
  -22.9320  -23.9590   20.6790 C   0  0  0  0  0  2  0  0  0  0  0  0
  -23.2250  -24.4950   19.2640 C   0  0  0  0  0  2  0  0  0  0  0  0
  -22.7470  -23.6120   18.0910 C   0  0  0  0  0  2  0  0  0  0  0  0
  -24.6480  -22.0280   17.8360 C   0  0  0  0  0  0  0  0  0  0  0  0
  -23.3600  -22.2870   18.0910 N   0  0  0  0  0  0  0  0  0  0  0  0
  -25.4460  -22.8910   17.4640 O   0  0  0  0  0  0  0  0  0  0  0  0
  -22.7550  -21.5040   18.3030 H   0  0  0  0  0  0  0  0  0  0  0  0
  -25.1190  -20.5990   18.0740 C   0  0  0  0  0  2  0  0  0  0  0  0
  -26.5660  -20.5830   18.3730 N   0  0  0  0  0  4  0  0  0  0  0  0
  -26.7400  -21.3870   18.9540 H   0  0  0  0  0  0  0  0  0  0  0  0
  -27.0770  -20.7300   17.5160 H   0  0  0  0  0  0  0  0  0  0  0  0
  -27.0270  -19.3700   19.0720 C   0  0  0  0  0  2  0  0  0  0  0  0
  -28.5230  -19.4280   19.4290 C   0  0  0  0  0  2  0  0  0  0  0  0
  -28.9200  -18.2810   20.3680 C   0  0  0  0  0  2  0  0  0  0  0  0
  -30.4190  -18.2880   20.7110 C   0  0  0  0  0  2  0  0  0  0  0  0
  -30.7990  -17.2560   21.7880 C   0  0  0  0  0  2  0  0  0  0  0  0
  -30.8860  -15.0880   20.5430 C   0  0  0  0  0  0  0  0  0  0  0  0
  -30.6600  -12.9200   19.3850 C   0  0  0  0  0  2  0  0  0  0  0  0
  -29.7570  -13.0330   18.1430 C   0  0  0  0  0  2  0  0  0  0  0  0
  -28.2760  -12.8550   18.5280 C   0  0  0  0  0  2  0  0  0  0  0  0
  -27.8610  -13.7510   19.7240 C   0  0  0  0  0  3  0  0  0  0  0  0
  -28.8700  -13.6050   20.8840 C   0  0  0  0  0  2  0  0  0  0  0  0
  -30.2220  -13.9150   20.3710 N   0  0  0  0  0  0  0  0  0  0  0  0
  -31.9180  -15.3850   19.9270 O   0  0  0  0  0  0  0  0  0  0  0  0
  -30.3450  -15.9090   21.4460 N   0  0  0  0  0  0  0  0  0  0  0  0
  -29.5130  -15.5720   21.9090 H   0  0  0  0  0  0  0  0  0  0  0  0
  -25.4330  -14.3240   20.3650 C   0  0  0  0  0  0  0  0  0  0  0  0
  -24.3640  -13.5380   20.6990 C   0  0  0  0  0  0  0  0  0  0  0  0
  -24.8420  -12.1910   20.6700 C   0  0  0  0  0  0  0  0  0  0  0  0
  -26.4950  -13.4590   20.1570 N   0  0  0  0  0  0  0  0  0  0  0  0
  -26.1400  -12.1720   20.3940 N   0  0  0  0  0  0  0  0  0  0  0  0
  -24.1290  -10.9180   20.8280 C   0  0  0  0  0  0  0  0  0  0  0  0
  -24.5260   -9.9640   21.7900 C   0  0  0  0  0  3  0  0  0  0  0  0
  -23.8130   -8.7550   21.9370 C   0  0  0  0  0  3  0  0  0  0  0  0
  -22.6880   -8.4910   21.1210 C   0  0  0  0  0  0  0  0  0  0  0  0
  -22.3080   -9.4340   20.1490 C   0  0  0  0  0  3  0  0  0  0  0  0
  -23.0230  -10.6360   20.0010 C   0  0  0  0  0  3  0  0  0  0  0  0
  -21.9520   -7.3330   21.1750 O   0  0  0  0  0  0  0  0  0  0  0  0
  -21.8040   -6.6280   22.3420 C   0  0  0  0  0  0  0  0  0  0  0  0
  -21.2630   -7.2180   23.5050 C   0  0  0  0  0  3  0  0  0  0  0  0
  -21.0640   -6.4390   24.6620 C   0  0  0  0  0  3  0  0  0  0  0  0
  -21.3920   -5.0710   24.6560 C   0  0  0  0  0  0  0  0  0  0  0  0
  -21.9260   -4.4800   23.4970 C   0  0  0  0  0  3  0  0  0  0  0  0
  -22.1270   -5.2570   22.3420 C   0  0  0  0  0  0  0  0  0  0  0  0
  -22.6210   -4.6780   21.2220 F   0  0  0  0  0  0  0  0  0  0  0  0
  -21.1940   -4.3190   25.7650 F   0  0  0  0  0  0  0  0  0  0  0  0
  -22.9540  -13.9940   20.9420 C   0  0  0  0  0  0  0  0  0  0  0  0
  -22.2180  -13.2890   21.7940 N   0  0  0  0  0  0  0  0  0  0  0  0
  -22.5110  -15.0110   20.4100 O   0  0  0  0  0  0  0  0  0  0  0  0
  -22.5890  -12.4670   22.2470 H   0  0  0  0  0  0  0  0  0  0  0  0
  -21.2730  -13.5790   22.0010 H   0  0  0  0  0  0  0  0  0  0  0  0
  -25.5870  -15.6990   20.2090 N   0  0  0  0  0  0  0  0  0  0  0  0
  -24.8140  -16.3460   20.3140 H   0  0  0  0  0  0  0  0  0  0  0  0
  -26.4530  -16.1430   19.9360 H   0  0  0  0  0  0  0  0  0  0  0  0
  1  3  2  0
  2  1  1  0
  2  5  1  0
  4  2  1  0
  6  5  1  0
  7  6  1  0
  7  9  1  0
  8  6  2  0
 10 11  1  0
 10  7  1  0
 11 13  2  0
 12 14  1  0
 12 11  1  0
 15 12  1  0
 16 15  1  0
 17 18  1  0
 17 16  1  0
 18 20  1  0
 19 30  2  0
 20 25  1  0
 21 29  1  0
 21 31  1  0
 22 28  1  0
 22 24  1  0
 23 29  1  0
 24 23  1  0
 25 24  2  0
 26 27  1  0
 26 20  2  0
 27 22  2  0
 28 21  1  0
 29 19  1  0
 31 33  2  0
 32 31  1  0
 34 32  1  0
 35 44  2  0
 35 40  1  0
 36 32  1  0
 36 40  1  0
 37 36  1  0
 38 39  1  0
 38 37  1  0
 39 35  1  0
 40 41  2  0
 41 42  1  0
 43 42  2  0
 44 43  1  0
 45 19  1  0
 45 50  1  0
 45 46  1  0
 46 49  1  1
 46 47  1  0
 48 46  1  0
 50 53  1  0
 51 55  1  0
 51 50  1  0
 52 51  2  0
 55 54  1  0
 57 55  1  0
 57 58  1  0
 57 56  1  0
 59  1  1  0
 60 59  1  0
 61 60  1  0
 62 61  1  0
 63 65  1  0
 63 62  1  0
 64 68  1  0
 64 65  1  0
 65 67  1  0
 66 64  2  0
 68 69  1  0
 69 70  1  0
 69 72  1  0
 71 69  1  0
 72 73  1  0
 73 74  1  0
 74 75  1  0
 75 76  1  0
 77 85  1  0
 78 83  1  0
 79 80  1  0
 79 78  1  0
 81 80  1  0
 81 90  1  0
 81 82  1  0
 83 77  1  0
 83 82  1  0
 84 77  2  0
 85 76  1  0
 85 86  1  0
 87 88  2  0
 88107  1  0
 89 88  1  0
 89 92  1  0
 90 87  1  0
 90 91  1  0
 91 89  2  0
 92 93  1  0
 93 94  2  0
 95 98  1  0
 95 94  1  0
 96 95  2  0
 97 96  1  0
 97 92  2  0
 98 99  1  0
 99104  2  0
 99100  1  0
100101  2  0
102101  1  0
102106  1  0
103102  2  0
104103  1  0
105104  1  0
107108  1  0
108111  1  0
108110  1  0
109107  2  0
112113  1  0
112 87  1  0
114112  1  0
M  ISO  4  17 101  18 101  77 100  85 100
M  END
>  <TORSDO>  (62) 
F 36

>  <SCORE>  (62) 
-9.124

>  <name>  (62) 
65

>  <ligand_id>  (62) 
65

>  <original_smiles>  (62) 
[H]c1c([H])c([H])c2c(c1[H])C([H])([H])C([H])([H])C([H])([H])C2([H])N([H])C(=O)C1([H])N(C(=O)C([H])(N([H])C(=O)C([H])(N([H])C([H])([H])[H])C([H])([H])[H])C(C([H])([H])[H])(C([H])([H])[H])C([H])([H])[H])C([H])([H])c2c([H])c(OC([H])([H])C([H])([H])C([H])([H])N([H])C(=O)C([H])([H])N([H])C(=O)C([H])([H])N([H])C(=O)C([H])([H])C([H])([H])C([H])([H])C([H])([H])C([H])([H])N([H])C(=O)C([H])([H])[N+]([H])([H])C([H])([H])C([H])([H])C([H])([H])C([H])([H])C([H])([H])N([H])C(=O)N3C([H])([H])C([H])([H])C([H])([H])C([H])(n4nc(-c5c([H])c([H])c(Oc6c([H])c([H])c(F)c([H])c6F)c([H])c5[H])c(C(=O)N([H])[H])c4N([H])[H])C3([H])[H])c([H])c([H])c2C1([H])[H]

>  <smiles>  (62) 
[H]c1c([H])c([H])c2c(c1[H])C([H])([H])C([H])([H])C([H])([H])C2([H])N([H])C(=O)C1([H])N(C(=O)C([H])(N([H])C(=O)C([H])(N([H])C([H])([H])[H])C([H])([H])[H])C(C([H])([H])[H])(C([H])([H])[H])C([H])([H])[H])C([H])([H])c2c([H])c(OC([H])([H])C([H])([H])C([H])([H])N([H])C(=O)C([H])([H])N([H])C(=O)C([H])([H])N([H])C(=O)C([H])([H])C([H])([H])C([H])([H])C([H])([H])C([H])([H])N([H])C(=O)C([H])([H])[N+]([H])([H])C([H])([H])C([H])([H])C([H])([H])C([H])([H])C([H])([H])N([H])C(=O)N3C([H])([H])C([H])([H])C([H])([H])C([H])(n4nc(-c5c([H])c([H])c(Oc6c([H])c([H])c(F)c([H])c6F)c([H])c5[H])c(C(=O)N([H])[H])c4N([H])[H])C3([H])[H])c([H])c([H])c2C1([H])[H]

$$$$
66:0:0
     RDKit          3D

116123  0  0  1  0  0  0  0  0999 V2000
  -31.0740  -17.6510   12.7780 C   0  0  0  0  0  0  0  0  0  0  0  0
  -32.3060  -18.1690   12.8550 N   0  0  0  0  0  0  0  0  0  0  0  0
  -30.1700  -18.1780   12.1270 O   0  0  0  0  0  0  0  0  0  0  0  0
  -32.9980  -17.6580   13.3880 H   0  0  0  0  0  0  0  0  0  0  0  0
  -32.7270  -19.4450   12.2810 C   0  0  0  0  0  2  0  0  0  0  0  0
  -32.3510  -20.6370   13.1810 C   0  0  0  0  0  2  0  0  0  0  0  0
  -32.9910  -20.5890   14.5790 C   0  0  0  0  0  2  0  0  0  0  0  0
  -32.6220  -21.8120   15.4320 C   0  0  0  0  0  2  0  0  0  0  0  0
  -32.6590  -21.8230   17.9250 C   0  0  0  0  0  0  0  0  0  0  0  0
  -33.2700  -21.7430   16.7380 N   0  0  0  0  0  0  0  0  0  0  0  0
  -31.4440  -21.9970   18.0440 O   0  0  0  0  0  0  0  0  0  0  0  0
  -34.2760  -21.6300   16.7450 H   0  0  0  0  0  0  0  0  0  0  0  0
  -33.5540  -21.7120   19.1650 C   0  0  0  0  0  2  0  0  0  0  0  0
  -32.5300  -19.9600   20.5950 C   0  0  0  0  0  0  0  0  0  0  0  0
  -32.8100  -21.2400   20.3320 N   0  0  0  0  0  0  0  0  0  0  0  0
  -32.9440  -19.0350   19.8910 O   0  0  0  0  0  0  0  0  0  0  0  0
  -32.4240  -21.9490   20.9400 H   0  0  0  0  0  0  0  0  0  0  0  0
  -31.6680  -19.6910   21.8340 C   0  0  0  0  0  2  0  0  0  0  0  0
  -30.9730  -17.3070   21.9680 C   0  0  0  0  0  0  0  0  0  0  0  0
  -31.7870  -18.3120   22.2990 N   0  0  0  0  0  0  0  0  0  0  0  0
  -29.9730  -17.4590   21.2630 O   0  0  0  0  0  0  0  0  0  0  0  0
  -32.5950  -18.0960   22.8660 H   0  0  0  0  0  0  0  0  0  0  0  0
  -31.3260  -15.9340   22.5460 C   0  0  0  0  0  2  0  0  0  0  0  0
  -30.8130  -14.3030   20.7410 C   0  0  0  0  0  0  0  0  0  0  0  0
  -30.4120  -12.2900   19.3750 C   0  0  0  0  0  2  0  0  0  0  0  0
  -29.4760  -12.5400   18.1820 C   0  0  0  0  0  2  0  0  0  0  0  0
  -28.0050  -12.3820   18.6060 C   0  0  0  0  0  2  0  0  0  0  0  0
  -27.6670  -13.2030   19.8760 C   0  0  0  0  0  3  0  0  0  0  0  0
  -28.7040  -12.9470   20.9910 C   0  0  0  0  0  2  0  0  0  0  0  0
  -30.0540  -13.2160   20.4580 N   0  0  0  0  0  0  0  0  0  0  0  0
  -31.7650  -14.6740   20.0470 O   0  0  0  0  0  0  0  0  0  0  0  0
  -30.5610  -14.8500   21.9340 N   0  0  0  0  0  0  0  0  0  0  0  0
  -29.7860  -14.4760   22.4590 H   0  0  0  0  0  0  0  0  0  0  0  0
  -25.2610  -13.8160   20.5670 C   0  0  0  0  0  0  0  0  0  0  0  0
  -24.1850  -13.0450   20.9150 C   0  0  0  0  0  0  0  0  0  0  0  0
  -24.6400  -11.6910   20.8720 C   0  0  0  0  0  0  0  0  0  0  0  0
  -26.3050  -12.9330   20.3360 N   0  0  0  0  0  0  0  0  0  0  0  0
  -25.9320  -11.6490   20.5750 N   0  0  0  0  0  0  0  0  0  0  0  0
  -23.9060  -10.4300   21.0400 C   0  0  0  0  0  0  0  0  0  0  0  0
  -24.3610   -9.4210   21.9180 C   0  0  0  0  0  3  0  0  0  0  0  0
  -23.6290   -8.2250   22.0750 C   0  0  0  0  0  3  0  0  0  0  0  0
  -22.4280   -8.0280   21.3540 C   0  0  0  0  0  0  0  0  0  0  0  0
  -21.9910   -9.0260   20.4650 C   0  0  0  0  0  3  0  0  0  0  0  0
  -22.7230  -10.2140   20.3050 C   0  0  0  0  0  3  0  0  0  0  0  0
  -21.6640   -6.8880   21.4240 O   0  0  0  0  0  0  0  0  0  0  0  0
  -21.6850   -6.0730   22.5280 C   0  0  0  0  0  0  0  0  0  0  0  0
  -21.4020   -6.5640   23.8210 C   0  0  0  0  0  3  0  0  0  0  0  0
  -21.3660   -5.6790   24.9180 C   0  0  0  0  0  3  0  0  0  0  0  0
  -21.6050   -4.3050   24.7230 C   0  0  0  0  0  0  0  0  0  0  0  0
  -21.8820   -3.8150   23.4340 C   0  0  0  0  0  3  0  0  0  0  0  0
  -21.9190   -4.6970   22.3400 C   0  0  0  0  0  0  0  0  0  0  0  0
  -22.1660   -4.2150   21.0980 F   0  0  0  0  0  0  0  0  0  0  0  0
  -21.5630   -3.4540   25.7740 F   0  0  0  0  0  0  0  0  0  0  0  0
  -22.7870  -13.5240   21.1830 C   0  0  0  0  0  0  0  0  0  0  0  0
  -22.0520  -12.8240   22.0390 N   0  0  0  0  0  0  0  0  0  0  0  0
  -22.3560  -14.5560   20.6690 O   0  0  0  0  0  0  0  0  0  0  0  0
  -22.4120  -11.9890   22.4760 H   0  0  0  0  0  0  0  0  0  0  0  0
  -21.1140  -13.1260   22.2610 H   0  0  0  0  0  0  0  0  0  0  0  0
  -25.4350  -15.1880   20.4100 N   0  0  0  0  0  0  0  0  0  0  0  0
  -24.6750  -15.8490   20.5250 H   0  0  0  0  0  0  0  0  0  0  0  0
  -26.3010  -15.6250   20.1210 H   0  0  0  0  0  0  0  0  0  0  0  0
  -30.8080  -16.3650   13.5680 C   0  0  0  0  0  2  0  0  0  0  0  0
  -29.7200  -16.5280   14.6510 C   0  0  0  0  0  2  0  0  0  0  0  0
  -30.1100  -17.5220   15.7590 C   0  0  0  0  0  2  0  0  0  0  0  0
  -29.0010  -17.7440   16.7950 C   0  0  0  0  0  2  0  0  0  0  0  0
  -29.2570  -19.0170   17.6130 C   0  0  0  0  0  2  0  0  0  0  0  0
  -28.1800  -19.2850   18.6720 C   0  0  0  0  0  2  0  0  0  0  0  0
  -28.2430  -20.7340   19.1760 C   0  0  0  0  0  2  0  0  0  0  0  0
  -27.2230  -21.0440   20.2870 C   0  0  0  0  0  2  0  0  0  0  0  0
  -27.0620  -22.4980   20.5000 N   0  0  0  0  0  4  0  0  0  0  0  0
  -26.2180  -22.6380   21.0340 H   0  0  0  0  0  0  0  0  0  0  0  0
  -26.9190  -22.9260   19.6010 H   0  0  0  0  0  0  0  0  0  0  0  0
  -28.1800  -23.1550   21.2150 C   0  0  0  0  0  2  0  0  0  0  0  0
  -28.0460  -24.6890   21.2380 C   0  0  0  0  0  2  0  0  0  0  0  0
  -28.4770  -25.3750   19.9250 C   0  0  0  0  0  2  0  0  0  0  0  0
  -28.4460  -26.7920   20.0760 O   0  0  0  0  0  0  0  0  0  0  0  0
  -24.6110  -31.8700   23.2130 C   0  0  0  0  0  0  0  0  0  0  0  0
  -27.2380  -27.4580   20.0860 C   0  0  0  0  0  0  0  0  0  0  0  0
  -23.3970  -30.4960   21.5540 C   0  0  0  0  0  3  0  0  0  0  0  0
  -24.8410  -28.9590   20.1220 C   0  0  0  0  0  0  0  0  0  0  0  0
  -25.9240  -30.8430   21.3590 C   0  0  0  0  0  2  0  0  0  0  0  0
  -26.0000  -29.4780   20.7090 C   0  0  0  0  0  0  0  0  0  0  0  0
  -27.1990  -28.7350   20.6850 C   0  0  0  0  0  3  0  0  0  0  0  0
  -26.0540  -26.9410   19.5070 C   0  0  0  0  0  3  0  0  0  0  0  0
  -24.8620  -27.6890   19.5210 C   0  0  0  0  0  3  0  0  0  0  0  0
  -23.6020  -29.8250   20.1700 C   0  0  0  0  0  2  0  0  0  0  0  0
  -24.6630  -31.0840   22.1000 N   0  0  0  0  0  0  0  0  0  0  0  0
  -23.5320  -32.1450   23.7560 O   0  0  0  0  0  0  0  0  0  0  0  0
  -22.7380  -29.4680   22.5030 C   0  0  0  0  0  0  0  0  0  0  0  0
  -21.4120  -29.3030   22.3750 N   0  0  0  0  0  0  0  0  0  0  0  0
  -23.4150  -28.8220   23.3050 O   0  0  0  0  0  0  0  0  0  0  0  0
  -20.9280  -29.8760   21.6980 H   0  0  0  0  0  0  0  0  0  0  0  0
  -18.0270  -28.1380   22.8490 C   0  0  0  0  0  0  0  0  0  0  0  0
  -20.5850  -28.3660   23.1330 C   0  0  0  0  0  3  0  0  0  0  0  0
  -20.6760  -26.9400   22.5420 C   0  0  0  0  0  2  0  0  0  0  0  0
  -19.5740  -26.6390   21.5210 C   0  0  0  0  0  2  0  0  0  0  0  0
  -18.1910  -26.7930   22.1610 C   0  0  0  0  0  2  0  0  0  0  0  0
  -19.1510  -28.8840   23.2910 C   0  0  0  0  0  0  0  0  0  0  0  0
  -18.9450  -30.1450   23.8910 C   0  0  0  0  0  3  0  0  0  0  0  0
  -17.6450  -30.6590   24.0560 C   0  0  0  0  0  3  0  0  0  0  0  0
  -16.5340  -29.9080   23.6330 C   0  0  0  0  0  3  0  0  0  0  0  0
  -16.7260  -28.6500   23.0350 C   0  0  0  0  0  3  0  0  0  0  0  0
  -25.9020  -32.4830   23.8410 C   0  0  0  0  0  3  0  0  0  0  0  0
  -26.4480  -31.6620   25.0730 C   0  0  1  0  0  0  0  0  0  0  0  0
  -25.3750  -31.3720   26.1490 C   0  0  0  0  0  1  0  0  0  0  0  0
  -27.0330  -30.3060   24.6130 C   0  0  0  0  0  1  0  0  0  0  0  0
  -27.6060  -32.4350   25.7480 C   0  0  0  0  0  1  0  0  0  0  0  0
  -25.5890  -33.8630   24.2330 N   0  0  0  0  0  0  0  0  0  0  0  0
  -25.9030  -34.9480   23.5130 C   0  0  0  0  0  0  0  0  0  0  0  0
  -26.5600  -34.8920   22.4690 O   0  0  0  0  0  0  0  0  0  0  0  0
  -25.0050  -33.9810   25.0490 H   0  0  0  0  0  0  0  0  0  0  0  0
  -24.1480  -36.7330   23.2640 C   0  0  0  0  0  1  0  0  0  0  0  0
  -25.4090  -36.3100   24.0340 C   0  0  0  0  0  3  0  0  0  0  0  0
  -27.5590  -37.1810   24.8480 C   0  0  0  0  0  1  0  0  0  0  0  0
  -26.4300  -37.3770   23.9420 N   0  0  0  0  0  0  0  0  0  0  0  0
  -26.0200  -38.2870   24.1350 H   0  0  0  0  0  0  0  0  0  0  0  0
  1  2  1  0
  1 62  1  0
  2  4  1  0
  3  1  2  0
  5  2  1  0
  5  6  1  0
  6  7  1  0
  7  8  1  0
  8 10  1  0
  9 11  2  0
  9 13  1  0
 10 12  1  0
 10  9  1  0
 13 15  1  0
 14 18  1  0
 15 14  1  0
 15 17  1  0
 16 14  2  0
 18 20  1  0
 19 20  1  0
 19 23  1  0
 20 22  1  0
 21 19  2  0
 24 32  1  0
 25 30  1  0
 26 27  1  0
 26 25  1  0
 28 27  1  0
 28 37  1  0
 28 29  1  0
 30 24  1  0
 30 29  1  0
 31 24  2  0
 32 33  1  0
 32 23  1  0
 34 35  2  0
 35 54  1  0
 36 35  1  0
 36 39  1  0
 37 34  1  0
 37 38  1  0
 38 36  2  0
 39 40  1  0
 40 41  2  0
 42 45  1  0
 42 41  1  0
 43 42  2  0
 44 43  1  0
 44 39  2  0
 45 46  1  0
 46 47  1  0
 47 48  2  0
 49 48  1  0
 49 53  1  0
 50 49  2  0
 51 46  2  0
 51 50  1  0
 52 51  1  0
 54 55  1  0
 55 58  1  0
 55 57  1  0
 56 54  2  0
 59 60  1  0
 59 34  1  0
 61 59  1  0
 62 63  1  0
 63 64  1  0
 64 65  1  0
 65 66  1  0
 66 67  1  0
 67 68  1  0
 68 69  1  0
 69 70  1  0
 70 71  1  0
 70 73  1  0
 72 70  1  0
 73 74  1  0
 75 76  1  0
 75 74  1  0
 76 78  1  0
 77 88  2  0
 78 83  1  0
 79 87  1  0
 79 89  1  0
 80 86  1  0
 80 82  1  0
 81 87  1  0
 82 81  1  0
 83 82  2  0
 84 85  1  0
 84 78  2  0
 85 80  2  0
 86 79  1  0
 87 77  1  0
 89 91  2  0
 90 89  1  0
 92 90  1  0
 93102  2  0
 93 98  1  0
 94 90  1  0
 94 98  1  0
 95 94  1  0
 96 97  1  0
 96 95  1  0
 97 93  1  0
 98 99  2  0
 99100  1  0
101100  2  0
102101  1  0
103 77  1  0
103108  1  0
103104  1  0
104107  1  1
104105  1  0
106104  1  0
108111  1  0
109113  1  0
109108  1  0
110109  2  0
113112  1  0
115113  1  0
115116  1  0
115114  1  0
M  ISO  4  24 100  32 100  75 101  76 101
M  END
>  <TORSDO>  (63) 
F 38

>  <SCORE>  (63) 
-5.343

>  <name>  (63) 
66

>  <ligand_id>  (63) 
66

>  <original_smiles>  (63) 
[H]c1c([H])c([H])c2c(c1[H])C([H])([H])C([H])([H])C([H])([H])C2([H])N([H])C(=O)C1([H])N(C(=O)C([H])(N([H])C(=O)C([H])(N([H])C([H])([H])[H])C([H])([H])[H])C(C([H])([H])[H])(C([H])([H])[H])C([H])([H])[H])C([H])([H])c2c([H])c(OC([H])([H])C([H])([H])C([H])([H])[N+]([H])([H])C([H])([H])C([H])([H])C([H])([H])C([H])([H])C([H])([H])C([H])([H])C([H])([H])C([H])([H])C(=O)N([H])C([H])([H])C([H])([H])C([H])([H])C([H])([H])N([H])C(=O)C([H])([H])N([H])C(=O)C([H])([H])N([H])C(=O)C([H])([H])N([H])C(=O)N3C([H])([H])C([H])([H])C([H])([H])C([H])(n4nc(-c5c([H])c([H])c(Oc6c([H])c([H])c(F)c([H])c6F)c([H])c5[H])c(C(=O)N([H])[H])c4N([H])[H])C3([H])[H])c([H])c([H])c2C1([H])[H]

>  <smiles>  (63) 
[H]c1c([H])c([H])c2c(c1[H])C([H])([H])C([H])([H])C([H])([H])C2([H])N([H])C(=O)C1([H])N(C(=O)C([H])(N([H])C(=O)C([H])(N([H])C([H])([H])[H])C([H])([H])[H])C(C([H])([H])[H])(C([H])([H])[H])C([H])([H])[H])C([H])([H])c2c([H])c(OC([H])([H])C([H])([H])C([H])([H])[N+]([H])([H])C([H])([H])C([H])([H])C([H])([H])C([H])([H])C([H])([H])C([H])([H])C([H])([H])C([H])([H])C(=O)N([H])C([H])([H])C([H])([H])C([H])([H])C([H])([H])N([H])C(=O)C([H])([H])N([H])C(=O)C([H])([H])N([H])C(=O)C([H])([H])N([H])C(=O)N3C([H])([H])C([H])([H])C([H])([H])C([H])(n4nc(-c5c([H])c([H])c(Oc6c([H])c([H])c(F)c([H])c6F)c([H])c5[H])c(C(=O)N([H])[H])c4N([H])[H])C3([H])[H])c([H])c([H])c2C1([H])[H]

$$$$
67:0:0
     RDKit          3D

114121  0  0  1  0  0  0  0  0999 V2000
  -35.1130  -13.3570   19.9790 C   0  0  0  0  0  2  0  0  0  0  0  0
  -34.4230  -14.6450   20.2190 N   0  0  0  0  0  4  0  0  0  0  0  0
  -34.8580  -15.3350   19.6250 H   0  0  0  0  0  0  0  0  0  0  0  0
  -34.5490  -14.9590   21.1810 H   0  0  0  0  0  0  0  0  0  0  0  0
  -32.9820  -14.6590   19.8920 C   0  0  0  0  0  2  0  0  0  0  0  0
  -32.2280  -15.8220   20.5680 C   0  0  0  0  0  2  0  0  0  0  0  0
  -32.6520  -17.2550   20.1630 C   0  0  0  0  0  2  0  0  0  0  0  0
  -31.8440  -18.2720   20.9860 C   0  0  0  0  0  2  0  0  0  0  0  0
  -31.6350  -19.6800   20.3940 C   0  0  0  0  0  2  0  0  0  0  0  0
  -32.7830  -20.7000   20.5470 C   0  0  0  0  0  2  0  0  0  0  0  0
  -32.9450  -23.1930   20.1810 C   0  0  0  0  0  0  0  0  0  0  0  0
  -32.2640  -22.0450   20.2850 N   0  0  0  0  0  0  0  0  0  0  0  0
  -34.1750  -23.2460   20.1690 O   0  0  0  0  0  0  0  0  0  0  0  0
  -31.2570  -22.1310   20.2820 H   0  0  0  0  0  0  0  0  0  0  0  0
  -32.0750  -24.4580   20.1240 C   0  0  0  0  0  2  0  0  0  0  0  0
  -32.7990  -25.8150   19.9290 C   0  0  0  0  0  2  0  0  0  0  0  0
  -31.9940  -26.9660   20.5600 C   0  0  0  0  0  2  0  0  0  0  0  0
  -32.5070  -28.2480   20.1890 O   0  0  0  0  0  0  0  0  0  0  0  0
  -33.4880  -35.0790   21.9400 C   0  0  0  0  0  0  0  0  0  0  0  0
  -31.9470  -29.3680   20.7750 C   0  0  0  0  0  0  0  0  0  0  0  0
  -31.4640  -34.0160   22.8800 C   0  0  0  0  0  3  0  0  0  0  0  0
  -30.8720  -31.7290   21.9230 C   0  0  0  0  0  0  0  0  0  0  0  0
  -32.4680  -33.1900   20.6770 C   0  0  0  0  0  2  0  0  0  0  0  0
  -31.9300  -31.8130   21.0120 C   0  0  0  0  0  0  0  0  0  0  0  0
  -32.4650  -30.6380   20.4340 C   0  0  0  0  0  3  0  0  0  0  0  0
  -30.8760  -29.3070   21.7020 C   0  0  0  0  0  3  0  0  0  0  0  0
  -30.3440  -30.4760   22.2730 C   0  0  0  0  0  3  0  0  0  0  0  0
  -30.3360  -33.0270   22.4840 C   0  0  0  0  0  2  0  0  0  0  0  0
  -32.5330  -34.1130   21.8350 N   0  0  0  0  0  0  0  0  0  0  0  0
  -33.4660  -35.9070   22.8620 O   0  0  0  0  0  0  0  0  0  0  0  0
  -32.0030  -33.6150   24.2700 C   0  0  0  0  0  0  0  0  0  0  0  0
  -31.2770  -34.0100   25.3290 N   0  0  0  0  0  0  0  0  0  0  0  0
  -33.0310  -32.9410   24.3800 O   0  0  0  0  0  0  0  0  0  0  0  0
  -30.4500  -34.5630   25.1550 H   0  0  0  0  0  0  0  0  0  0  0  0
  -30.1300  -34.5390   28.7110 C   0  0  0  0  0  0  0  0  0  0  0  0
  -31.5720  -33.7180   26.7300 C   0  0  0  0  0  3  0  0  0  0  0  0
  -31.1040  -32.2960   27.1140 C   0  0  0  0  0  2  0  0  0  0  0  0
  -29.6910  -32.2620   27.7030 C   0  0  0  0  0  2  0  0  0  0  0  0
  -29.6120  -33.1340   28.9590 C   0  0  0  0  0  2  0  0  0  0  0  0
  -31.0380  -34.8170   27.6550 C   0  0  0  0  0  0  0  0  0  0  0  0
  -31.4600  -36.1490   27.4480 C   0  0  0  0  0  3  0  0  0  0  0  0
  -30.9940  -37.1880   28.2750 C   0  0  0  0  0  3  0  0  0  0  0  0
  -30.1070  -36.9050   29.3290 C   0  0  0  0  0  3  0  0  0  0  0  0
  -29.6830  -35.5820   29.5480 C   0  0  0  0  0  3  0  0  0  0  0  0
  -34.6410  -35.2050   20.8920 C   0  0  0  0  0  3  0  0  0  0  0  0
  -34.8630  -36.6370   20.6510 N   0  0  0  0  0  0  0  0  0  0  0  0
  -34.3700  -37.3160   19.6070 C   0  0  0  0  0  0  0  0  0  0  0  0
  -33.7380  -36.7780   18.6940 O   0  0  0  0  0  0  0  0  0  0  0  0
  -35.3240  -37.1540   21.3860 H   0  0  0  0  0  0  0  0  0  0  0  0
  -33.3660  -39.5760   20.0530 C   0  0  0  0  0  1  0  0  0  0  0  0
  -34.6220  -38.8340   19.5690 C   0  0  0  0  0  3  0  0  0  0  0  0
  -36.3300  -38.8660   17.8050 C   0  0  0  0  0  1  0  0  0  0  0  0
  -35.0130  -39.3330   18.2330 N   0  0  0  0  0  0  0  0  0  0  0  0
  -35.0180  -40.3500   18.2160 H   0  0  0  0  0  0  0  0  0  0  0  0
  -35.9760  -34.5030   21.3480 C   0  0  1  0  0  0  0  0  0  0  0  0
  -36.4450  -34.9220   22.7610 C   0  0  0  0  0  1  0  0  0  0  0  0
  -35.8160  -32.9640   21.3380 C   0  0  0  0  0  1  0  0  0  0  0  0
  -37.1120  -34.8400   20.3530 C   0  0  0  0  0  1  0  0  0  0  0  0
  -34.9510  -12.3420   21.1350 C   0  0  0  0  0  2  0  0  0  0  0  0
  -36.2120  -11.4920   21.4180 C   0  0  0  0  0  2  0  0  0  0  0  0
  -36.0780  -10.6290   22.6880 C   0  0  0  0  0  2  0  0  0  0  0  0
  -36.1600   -9.1130   22.4280 C   0  0  0  0  0  2  0  0  0  0  0  0
  -37.6270   -7.4930   21.2520 C   0  0  0  0  0  0  0  0  0  0  0  0
  -37.3450   -8.7380   21.6580 N   0  0  0  0  0  0  0  0  0  0  0  0
  -36.8250   -6.5650   21.3520 O   0  0  0  0  0  0  0  0  0  0  0  0
  -38.0700   -9.4320   21.5560 H   0  0  0  0  0  0  0  0  0  0  0  0
  -39.0230   -7.2270   20.6790 C   0  0  0  0  0  2  0  0  0  0  0  0
  -38.9820   -6.1960   19.5340 C   0  0  0  0  0  2  0  0  0  0  0  0
  -40.3660   -5.8650   18.9340 C   0  0  0  0  0  2  0  0  0  0  0  0
  -40.4530   -4.4640   18.2860 C   0  0  0  0  0  2  0  0  0  0  0  0
  -39.8480   -4.3090   16.8740 C   0  0  0  0  0  2  0  0  0  0  0  0
  -37.4140   -3.7460   17.1740 C   0  0  0  0  0  0  0  0  0  0  0  0
  -38.4130   -4.5700   16.8050 N   0  0  0  0  0  0  0  0  0  0  0  0
  -37.6190   -2.6090   17.5920 O   0  0  0  0  0  0  0  0  0  0  0  0
  -38.1530   -5.4390   16.3610 H   0  0  0  0  0  0  0  0  0  0  0  0
  -35.9820   -4.3160   17.1500 C   0  0  0  0  0  2  0  0  0  0  0  0
  -35.1050   -6.6180   17.7600 C   0  0  0  0  0  0  0  0  0  0  0  0
  -34.7520   -8.9130   18.6320 C   0  0  0  0  0  2  0  0  0  0  0  0
  -35.0900   -9.9970   17.5960 C   0  0  0  0  0  2  0  0  0  0  0  0
  -36.6010  -10.3060   17.5670 C   0  0  0  0  0  2  0  0  0  0  0  0
  -37.4620   -9.0200   17.5010 C   0  0  0  0  0  3  0  0  0  0  0  0
  -37.0090   -8.0310   18.5810 C   0  0  0  0  0  2  0  0  0  0  0  0
  -35.5800   -7.7340   18.3640 N   0  0  0  0  0  0  0  0  0  0  0  0
  -33.9250   -6.4500   17.4390 O   0  0  0  0  0  0  0  0  0  0  0  0
  -36.0430   -5.6870   17.6240 N   0  0  0  0  0  0  0  0  0  0  0  0
  -36.9390   -5.9480   18.0000 H   0  0  0  0  0  0  0  0  0  0  0  0
  -39.9330   -8.9590   16.7940 C   0  0  0  0  0  0  0  0  0  0  0  0
  -41.0510   -9.5390   17.3250 C   0  0  0  0  0  0  0  0  0  0  0  0
  -40.6130  -10.2410   18.4920 C   0  0  0  0  0  0  0  0  0  0  0  0
  -38.8850   -9.3170   17.6240 N   0  0  0  0  0  0  0  0  0  0  0  0
  -39.3150  -10.0510   18.6810 N   0  0  0  0  0  0  0  0  0  0  0  0
  -41.3450  -11.1330   19.3970 C   0  0  0  0  0  0  0  0  0  0  0  0
  -41.2630  -10.9820   20.8000 C   0  0  0  0  0  3  0  0  0  0  0  0
  -41.9870  -11.8420   21.6530 C   0  0  0  0  0  3  0  0  0  0  0  0
  -42.8050  -12.8600   21.1080 C   0  0  0  0  0  0  0  0  0  0  0  0
  -42.8640  -13.0190   19.7140 C   0  0  0  0  0  3  0  0  0  0  0  0
  -42.1410  -12.1660   18.8630 C   0  0  0  0  0  3  0  0  0  0  0  0
  -43.5240  -13.7580   21.8600 O   0  0  0  0  0  0  0  0  0  0  0  0
  -43.8940  -13.4820   23.1510 C   0  0  0  0  0  0  0  0  0  0  0  0
  -44.6080  -12.3130   23.4890 C   0  0  0  0  0  3  0  0  0  0  0  0
  -45.0330  -12.1050   24.8150 C   0  0  0  0  0  3  0  0  0  0  0  0
  -44.7510  -13.0640   25.8060 C   0  0  0  0  0  0  0  0  0  0  0  0
  -44.0390  -14.2300   25.4720 C   0  0  0  0  0  3  0  0  0  0  0  0
  -43.6160  -14.4400   24.1490 C   0  0  0  0  0  0  0  0  0  0  0  0
  -42.9520  -15.5750   23.8270 F   0  0  0  0  0  0  0  0  0  0  0  0
  -45.1620  -12.8680   27.0820 F   0  0  0  0  0  0  0  0  0  0  0  0
  -42.4330   -9.5310   16.7390 C   0  0  0  0  0  0  0  0  0  0  0  0
  -43.4570   -9.5850   17.5830 N   0  0  0  0  0  0  0  0  0  0  0  0
  -42.6100   -9.4250   15.5260 O   0  0  0  0  0  0  0  0  0  0  0  0
  -43.3090   -9.6410   18.5800 H   0  0  0  0  0  0  0  0  0  0  0  0
  -44.4030   -9.5580   17.2330 H   0  0  0  0  0  0  0  0  0  0  0  0
  -39.7220   -8.1700   15.6650 N   0  0  0  0  0  0  0  0  0  0  0  0
  -40.4790   -7.9490   15.0290 H   0  0  0  0  0  0  0  0  0  0  0  0
  -38.8160   -7.9020   15.3080 H   0  0  0  0  0  0  0  0  0  0  0  0
  1  2  1  0
  1 59  1  0
  2  4  1  0
  3  2  1  0
  5  2  1  0
  5  6  1  0
  7  6  1  0
  7  8  1  0
  9 10  1  0
  9  8  1  0
 11 12  1  0
 12 10  1  0
 13 11  2  0
 14 12  1  0
 15 11  1  0
 16 15  1  0
 16 17  1  0
 18 17  1  0
 18 20  1  0
 19 30  2  0
 20 26  1  0
 21 31  1  0
 22 27  1  0
 22 28  1  0
 23 24  1  0
 23 29  1  0
 24 22  2  0
 25 20  2  0
 25 24  1  0
 26 27  2  0
 28 21  1  0
 29 19  1  0
 29 21  1  0
 31 33  2  0
 31 32  1  0
 34 32  1  0
 35 39  1  0
 35 44  1  0
 36 32  1  0
 36 37  1  0
 36 40  1  0
 37 38  1  0
 38 39  1  0
 40 35  2  0
 41 40  1  0
 41 42  2  0
 42 43  1  0
 43 44  2  0
 45 55  1  0
 45 19  1  0
 46 45  1  0
 46 49  1  0
 47 46  1  0
 48 47  2  0
 51 47  1  0
 51 50  1  0
 52 53  1  0
 53 51  1  0
 54 53  1  0
 55 56  1  1
 57 55  1  0
 58 55  1  0
 59 60  1  0
 60 61  1  0
 62 61  1  0
 63 65  2  0
 63 64  1  0
 64 62  1  0
 66 64  1  0
 67 63  1  0
 68 67  1  0
 69 68  1  0
 70 69  1  0
 71 70  1  0
 72 74  2  0
 73 71  1  0
 73 72  1  0
 75 73  1  0
 76 72  1  0
 76 85  1  0
 77 83  1  0
 79 78  1  0
 80 79  1  0
 81 80  1  0
 81 90  1  0
 81 82  1  0
 83 82  1  0
 83 78  1  0
 84 77  2  0
 85 77  1  0
 85 86  1  0
 87 88  2  0
 87 90  1  0
 88 89  1  0
 89 91  2  0
 89 92  1  0
 90 91  1  0
 92 93  1  0
 93 94  2  0
 95 94  1  0
 95 98  1  0
 96 95  2  0
 97 92  2  0
 97 96  1  0
 98 99  1  0
 99100  2  0
 99104  1  0
100101  1  0
101102  2  0
102106  1  0
103102  1  0
104103  2  0
105104  1  0
107 88  1  0
107108  1  0
108110  1  0
109107  2  0
111108  1  0
112 87  1  0
113112  1  0
114112  1  0
M  ISO  4  17 101  18 101  77 100  85 100
M  END
>  <TORSDO>  (64) 
F 39

>  <SCORE>  (64) 
7.646

>  <name>  (64) 
67

>  <ligand_id>  (64) 
67

>  <original_smiles>  (64) 
[H]c1c([H])c([H])c2c(c1[H])C([H])([H])C([H])([H])C([H])([H])C2([H])N([H])C(=O)C1([H])N(C(=O)C([H])(N([H])C(=O)C([H])(N([H])C([H])([H])[H])C([H])([H])[H])C(C([H])([H])[H])(C([H])([H])[H])C([H])([H])[H])C([H])([H])c2c([H])c(OC([H])([H])C([H])([H])C([H])([H])C(=O)N([H])C([H])([H])C([H])([H])C([H])([H])C([H])([H])C([H])([H])C([H])([H])[N+]([H])([H])C([H])([H])C([H])([H])C([H])([H])C([H])([H])C([H])([H])N([H])C(=O)C([H])([H])C([H])([H])C([H])([H])C([H])([H])C([H])([H])N([H])C(=O)C([H])([H])N([H])C(=O)N3C([H])([H])C([H])([H])C([H])([H])C([H])(n4nc(-c5c([H])c([H])c(Oc6c([H])c([H])c(F)c([H])c6F)c([H])c5[H])c(C(=O)N([H])[H])c4N([H])[H])C3([H])[H])c([H])c([H])c2C1([H])[H]

>  <smiles>  (64) 
[H]c1c([H])c([H])c2c(c1[H])C([H])([H])C([H])([H])C([H])([H])C2([H])N([H])C(=O)C1([H])N(C(=O)C([H])(N([H])C(=O)C([H])(N([H])C([H])([H])[H])C([H])([H])[H])C(C([H])([H])[H])(C([H])([H])[H])C([H])([H])[H])C([H])([H])c2c([H])c(OC([H])([H])C([H])([H])C([H])([H])C(=O)N([H])C([H])([H])C([H])([H])C([H])([H])C([H])([H])C([H])([H])C([H])([H])[N+]([H])([H])C([H])([H])C([H])([H])C([H])([H])C([H])([H])C([H])([H])N([H])C(=O)C([H])([H])C([H])([H])C([H])([H])C([H])([H])C([H])([H])N([H])C(=O)C([H])([H])N([H])C(=O)N3C([H])([H])C([H])([H])C([H])([H])C([H])(n4nc(-c5c([H])c([H])c(Oc6c([H])c([H])c(F)c([H])c6F)c([H])c5[H])c(C(=O)N([H])[H])c4N([H])[H])C3([H])[H])c([H])c([H])c2C1([H])[H]

$$$$
68:0:0
     RDKit          3D

106113  0  0  1  0  0  0  0  0999 V2000
  -21.3900  -19.9370   21.1890 C   0  0  0  0  0  2  0  0  0  0  0  0
  -23.4260  -19.1060   19.9720 C   0  0  0  0  0  0  0  0  0  0  0  0
  -22.3020  -19.8290   20.0530 N   0  0  0  0  0  0  0  0  0  0  0  0
  -23.8420  -18.3910   20.8880 O   0  0  0  0  0  0  0  0  0  0  0  0
  -22.0460  -20.3590   19.2340 H   0  0  0  0  0  0  0  0  0  0  0  0
  -24.1690  -19.2090   18.6370 C   0  0  0  0  0  2  0  0  0  0  0  0
  -26.6490  -18.9380   18.7770 C   0  0  0  0  0  0  0  0  0  0  0  0
  -25.4220  -18.4570   18.5420 N   0  0  0  0  0  0  0  0  0  0  0  0
  -26.8400  -20.0380   19.2930 O   0  0  0  0  0  0  0  0  0  0  0  0
  -25.3550  -17.5360   18.1290 H   0  0  0  0  0  0  0  0  0  0  0  0
  -27.8160  -18.1320   18.1770 C   0  0  0  0  0  2  0  0  0  0  0  0
  -29.1140  -17.6150   20.3240 C   0  0  0  0  0  0  0  0  0  0  0  0
  -28.7730  -17.4250   19.0450 N   0  0  0  0  0  0  0  0  0  0  0  0
  -28.4990  -18.3330   21.1100 O   0  0  0  0  0  0  0  0  0  0  0  0
  -29.3330  -16.7400   18.5540 H   0  0  0  0  0  0  0  0  0  0  0  0
  -30.3870  -16.9120   20.8020 C   0  0  0  0  0  2  0  0  0  0  0  0
  -30.9400  -14.7390   21.8050 C   0  0  0  0  0  0  0  0  0  0  0  0
  -31.0520  -12.4210   21.0440 C   0  0  0  0  0  2  0  0  0  0  0  0
  -30.4730  -12.4300   19.6130 C   0  0  0  0  0  2  0  0  0  0  0  0
  -28.9410  -12.2570   19.6400 C   0  0  0  0  0  2  0  0  0  0  0  0
  -28.2450  -13.2280   20.6340 C   0  0  0  0  0  3  0  0  0  0  0  0
  -28.9630  -13.2150   22.0040 C   0  0  0  0  0  2  0  0  0  0  0  0
  -30.3880  -13.5040   21.7790 N   0  0  0  0  0  0  0  0  0  0  0  0
  -32.1510  -14.9510   21.7160 O   0  0  0  0  0  0  0  0  0  0  0  0
  -30.0620  -15.7230   21.5860 N   0  0  0  0  0  0  0  0  0  0  0  0
  -29.0850  -15.4790   21.6390 H   0  0  0  0  0  0  0  0  0  0  0  0
  -25.7290  -13.7860   20.6190 C   0  0  0  0  0  0  0  0  0  0  0  0
  -24.6240  -12.9970   20.7840 C   0  0  0  0  0  0  0  0  0  0  0  0
  -25.1130  -11.6770   21.0310 C   0  0  0  0  0  0  0  0  0  0  0  0
  -26.8200  -12.9410   20.7710 N   0  0  0  0  0  0  0  0  0  0  0  0
  -26.4360  -11.6750   21.0740 N   0  0  0  0  0  0  0  0  0  0  0  0
  -24.3950  -10.4050   21.1700 C   0  0  0  0  0  0  0  0  0  0  0  0
  -24.6500   -9.5310   22.2500 C   0  0  0  0  0  3  0  0  0  0  0  0
  -23.9420   -8.3160   22.3650 C   0  0  0  0  0  3  0  0  0  0  0  0
  -22.9630   -7.9710   21.4020 C   0  0  0  0  0  0  0  0  0  0  0  0
  -22.7340   -8.8340   20.3160 C   0  0  0  0  0  3  0  0  0  0  0  0
  -23.4420  -10.0400   20.2000 C   0  0  0  0  0  3  0  0  0  0  0  0
  -22.2390   -6.8040   21.4230 O   0  0  0  0  0  0  0  0  0  0  0  0
  -21.8970   -6.1870   22.5990 C   0  0  0  0  0  0  0  0  0  0  0  0
  -21.1810   -6.8610   23.6130 C   0  0  0  0  0  3  0  0  0  0  0  0
  -20.7940   -6.1700   24.7790 C   0  0  0  0  0  3  0  0  0  0  0  0
  -21.1160   -4.8080   24.9300 C   0  0  0  0  0  0  0  0  0  0  0  0
  -21.8210   -4.1340   23.9180 C   0  0  0  0  0  3  0  0  0  0  0  0
  -22.2130   -4.8230   22.7580 C   0  0  0  0  0  0  0  0  0  0  0  0
  -22.8780   -4.1650   21.7770 F   0  0  0  0  0  0  0  0  0  0  0  0
  -20.7370   -4.1420   26.0460 F   0  0  0  0  0  0  0  0  0  0  0  0
  -23.1900  -13.4150   20.6310 C   0  0  0  0  0  0  0  0  0  0  0  0
  -22.2820  -12.7770   21.3660 N   0  0  0  0  0  0  0  0  0  0  0  0
  -22.8700  -14.3440   19.8920 O   0  0  0  0  0  0  0  0  0  0  0  0
  -22.5490  -12.0360   21.9990 H   0  0  0  0  0  0  0  0  0  0  0  0
  -21.3090  -13.0450   21.3160 H   0  0  0  0  0  0  0  0  0  0  0  0
  -25.8960  -15.1360   20.3340 N   0  0  0  0  0  0  0  0  0  0  0  0
  -25.1030  -15.7610   20.1770 H   0  0  0  0  0  0  0  0  0  0  0  0
  -26.7830  -15.6080   20.2380 H   0  0  0  0  0  0  0  0  0  0  0  0
  -21.6040  -21.2230   22.0130 C   0  0  0  0  0  2  0  0  0  0  0  0
  -22.0040  -22.4760   21.2010 C   0  0  0  0  0  2  0  0  0  0  0  0
  -23.4270  -22.9290   21.5470 C   0  0  0  0  0  2  0  0  0  0  0  0
  -23.8560  -24.2360   20.8690 C   0  0  0  0  0  2  0  0  0  0  0  0
  -25.3790  -24.4120   20.9600 C   0  0  0  0  0  2  0  0  0  0  0  0
  -25.8690  -25.8420   20.6970 C   0  0  0  0  0  2  0  0  0  0  0  0
  -26.9990  -26.4560   18.5710 C   0  0  0  0  0  0  0  0  0  0  0  0
  -25.8930  -26.1650   19.2710 N   0  0  0  0  0  0  0  0  0  0  0  0
  -28.1270  -26.4400   19.0710 O   0  0  0  0  0  0  0  0  0  0  0  0
  -25.0030  -26.2130   18.7910 H   0  0  0  0  0  0  0  0  0  0  0  0
  -26.8280  -26.8410   17.0940 C   0  0  0  0  0  2  0  0  0  0  0  0
  -26.4720  -28.2230   16.9970 O   0  0  0  0  0  0  0  0  0  0  0  0
  -26.3690  -30.0400   23.8600 C   0  0  0  0  0  0  0  0  0  0  0  0
  -25.7430  -28.7940   18.0170 C   0  0  0  0  0  0  0  0  0  0  0  0
  -24.2220  -30.2860   22.6570 C   0  0  0  0  0  3  0  0  0  0  0  0
  -24.3430  -30.0400   20.1260 C   0  0  0  0  0  0  0  0  0  0  0  0
  -26.4500  -30.4600   21.4070 C   0  0  0  0  0  2  0  0  0  0  0  0
  -25.7340  -29.9190   20.1880 C   0  0  0  0  0  0  0  0  0  0  0  0
  -26.4420  -29.3020   19.1330 C   0  0  0  0  0  3  0  0  0  0  0  0
  -24.3370  -28.9130   17.9750 C   0  0  0  0  0  3  0  0  0  0  0  0
  -23.6340  -29.5330   19.0240 C   0  0  0  0  0  3  0  0  0  0  0  0
  -23.6660  -30.7390   21.2810 C   0  0  0  0  0  2  0  0  0  0  0  0
  -25.7210  -30.2300   22.6780 N   0  0  0  0  0  0  0  0  0  0  0  0
  -25.7480  -29.9560   24.9280 O   0  0  0  0  0  0  0  0  0  0  0  0
  -23.5520  -28.9480   23.0440 C   0  0  0  0  0  0  0  0  0  0  0  0
  -22.2210  -28.8780   22.8800 N   0  0  0  0  0  0  0  0  0  0  0  0
  -24.2250  -27.9950   23.4490 O   0  0  0  0  0  0  0  0  0  0  0  0
  -21.7410  -29.7050   22.5510 H   0  0  0  0  0  0  0  0  0  0  0  0
  -19.0190  -27.3800   22.1520 C   0  0  0  0  0  0  0  0  0  0  0  0
  -21.3850  -27.7070   23.1350 C   0  0  0  0  0  3  0  0  0  0  0  0
  -21.8140  -26.5160   22.2470 C   0  0  0  0  0  2  0  0  0  0  0  0
  -21.0240  -26.4160   20.9390 C   0  0  0  0  0  2  0  0  0  0  0  0
  -19.5220  -26.2940   21.2160 C   0  0  0  0  0  2  0  0  0  0  0  0
  -19.8970  -28.0530   23.0430 C   0  0  0  0  0  0  0  0  0  0  0  0
  -19.3840  -29.0750   23.8710 C   0  0  0  0  0  3  0  0  0  0  0  0
  -18.0230  -29.4280   23.8210 C   0  0  0  0  0  3  0  0  0  0  0  0
  -17.1540  -28.7500   22.9490 C   0  0  0  0  0  3  0  0  0  0  0  0
  -17.6510  -27.7250   22.1220 C   0  0  0  0  0  3  0  0  0  0  0  0
  -27.9260  -29.9450   23.9330 C   0  0  0  0  0  3  0  0  0  0  0  0
  -28.4510  -28.4670   24.1160 C   0  0  1  0  0  0  0  0  0  0  0  0
  -27.7600  -27.7000   25.2670 C   0  0  0  0  0  1  0  0  0  0  0  0
  -28.2500  -27.6500   22.8170 C   0  0  0  0  0  1  0  0  0  0  0  0
  -29.9730  -28.4820   24.3970 C   0  0  0  0  0  1  0  0  0  0  0  0
  -28.3680  -30.7980   25.0420 N   0  0  0  0  0  0  0  0  0  0  0  0
  -28.9290  -32.0060   24.8960 C   0  0  0  0  0  0  0  0  0  0  0  0
  -29.1960  -32.4910   23.7920 O   0  0  0  0  0  0  0  0  0  0  0  0
  -28.1340  -30.4850   25.9730 H   0  0  0  0  0  0  0  0  0  0  0  0
  -28.1780  -33.8900   26.3800 C   0  0  0  0  0  1  0  0  0  0  0  0
  -29.2420  -32.8010   26.1760 C   0  0  0  0  0  3  0  0  0  0  0  0
  -31.6690  -32.4350   26.2390 C   0  0  0  0  0  1  0  0  0  0  0  0
  -30.5870  -33.4150   26.1730 N   0  0  0  0  0  0  0  0  0  0  0  0
  -30.6920  -34.0550   26.9540 H   0  0  0  0  0  0  0  0  0  0  0  0
  1 55  1  0
  2  3  1  0
  2  4  2  0
  3  1  1  0
  5  3  1  0
  6  2  1  0
  7  9  2  0
  8  6  1  0
  8  7  1  0
 10  8  1  0
 11  7  1  0
 11 13  1  0
 12 16  1  0
 12 14  2  0
 13 12  1  0
 15 13  1  0
 16 25  1  0
 18 23  1  0
 19 20  1  0
 19 18  1  0
 21 20  1  0
 21 30  1  0
 21 22  1  0
 23 17  1  0
 23 22  1  0
 24 17  2  0
 25 26  1  0
 25 17  1  0
 27 30  1  0
 27 28  2  0
 28 29  1  0
 29 31  2  0
 29 32  1  0
 30 31  1  0
 32 33  1  0
 33 34  2  0
 35 38  1  0
 35 34  1  0
 36 35  2  0
 37 36  1  0
 37 32  2  0
 38 39  1  0
 39 44  2  0
 39 40  1  0
 40 41  2  0
 41 42  1  0
 42 46  1  0
 43 42  2  0
 44 43  1  0
 45 44  1  0
 47 28  1  0
 47 48  1  0
 48 50  1  0
 49 47  2  0
 51 48  1  0
 52 27  1  0
 53 52  1  0
 54 52  1  0
 56 57  1  0
 56 55  1  0
 58 59  1  0
 58 57  1  0
 60 59  1  0
 61 63  2  0
 61 62  1  0
 62 60  1  0
 64 62  1  0
 65 61  1  0
 66 65  1  0
 66 68  1  0
 67 78  2  0
 68 73  1  0
 69 77  1  0
 69 79  1  0
 70 72  1  0
 70 76  1  0
 71 77  1  0
 72 71  1  0
 73 72  2  0
 74 68  2  0
 74 75  1  0
 75 70  2  0
 76 69  1  0
 77 67  1  0
 79 81  2  0
 80 79  1  0
 82 80  1  0
 83 88  1  0
 84 80  1  0
 85 84  1  0
 86 87  1  0
 86 85  1  0
 87 83  1  0
 88 84  1  0
 88 89  2  0
 90 89  1  0
 91 90  2  0
 92 83  2  0
 92 91  1  0
 93 67  1  0
 93 94  1  0
 93 98  1  0
 94 97  1  1
 94 95  1  0
 96 94  1  0
 98101  1  0
 99 98  1  0
 99103  1  0
100 99  2  0
103102  1  0
105103  1  0
105104  1  0
105106  1  0
M  ISO  4  17 100  25 100  65 101  66 101
M  END
>  <TORSDO>  (65) 
F 30

>  <SCORE>  (65) 
16.622

>  <name>  (65) 
68

>  <ligand_id>  (65) 
68

>  <original_smiles>  (65) 
[H]c1c([H])c([H])c2c(c1[H])C([H])([H])C([H])([H])C([H])([H])C2([H])N([H])C(=O)C1([H])N(C(=O)C([H])(N([H])C(=O)C([H])(N([H])C([H])([H])[H])C([H])([H])[H])C(C([H])([H])[H])(C([H])([H])[H])C([H])([H])[H])C([H])([H])c2c([H])c(OC([H])([H])C(=O)N([H])C([H])([H])C([H])([H])C([H])([H])C([H])([H])C([H])([H])C([H])([H])C([H])([H])N([H])C(=O)C([H])([H])N([H])C(=O)C([H])([H])N([H])C(=O)C([H])([H])N([H])C(=O)N3C([H])([H])C([H])([H])C([H])([H])C([H])(n4nc(-c5c([H])c([H])c(Oc6c([H])c([H])c(F)c([H])c6F)c([H])c5[H])c(C(=O)N([H])[H])c4N([H])[H])C3([H])[H])c([H])c([H])c2C1([H])[H]

>  <smiles>  (65) 
[H]c1c([H])c([H])c2c(c1[H])C([H])([H])C([H])([H])C([H])([H])C2([H])N([H])C(=O)C1([H])N(C(=O)C([H])(N([H])C(=O)C([H])(N([H])C([H])([H])[H])C([H])([H])[H])C(C([H])([H])[H])(C([H])([H])[H])C([H])([H])[H])C([H])([H])c2c([H])c(OC([H])([H])C(=O)N([H])C([H])([H])C([H])([H])C([H])([H])C([H])([H])C([H])([H])C([H])([H])C([H])([H])N([H])C(=O)C([H])([H])N([H])C(=O)C([H])([H])N([H])C(=O)C([H])([H])N([H])C(=O)N3C([H])([H])C([H])([H])C([H])([H])C([H])(n4nc(-c5c([H])c([H])c(Oc6c([H])c([H])c(F)c([H])c6F)c([H])c5[H])c(C(=O)N([H])[H])c4N([H])[H])C3([H])[H])c([H])c([H])c2C1([H])[H]

$$$$
69:0:0
     RDKit          3D

113120  0  0  1  0  0  0  0  0999 V2000
  -32.6320  -23.0650   10.8390 C   0  0  0  0  0  2  0  0  0  0  0  0
  -33.2630  -22.9890   12.2430 C   0  0  0  0  0  2  0  0  0  0  0  0
  -34.4480  -22.0120   12.3090 C   0  0  0  0  0  2  0  0  0  0  0  0
  -34.8890  -21.6830   13.7460 C   0  0  0  0  0  2  0  0  0  0  0  0
  -33.5450  -20.8530   15.6740 C   0  0  0  0  0  0  0  0  0  0  0  0
  -33.9410  -20.7810   14.3990 N   0  0  0  0  0  0  0  0  0  0  0  0
  -33.9030  -21.7580   16.4360 O   0  0  0  0  0  0  0  0  0  0  0  0
  -33.5910  -20.0040   13.8510 H   0  0  0  0  0  0  0  0  0  0  0  0
  -32.5880  -19.7560   16.1600 C   0  0  0  0  0  2  0  0  0  0  0  0
  -32.3140  -19.1820   18.5770 C   0  0  0  0  0  0  0  0  0  0  0  0
  -32.1690  -20.0070   17.5380 N   0  0  0  0  0  0  0  0  0  0  0  0
  -32.7970  -18.0530   18.4700 O   0  0  0  0  0  0  0  0  0  0  0  0
  -31.8580  -20.9450   17.7400 H   0  0  0  0  0  0  0  0  0  0  0  0
  -31.8570  -19.7270   19.9380 C   0  0  0  0  0  2  0  0  0  0  0  0
  -30.6970  -17.8500   21.0780 C   0  0  0  0  0  0  0  0  0  0  0  0
  -31.7350  -18.6810   20.9500 N   0  0  0  0  0  0  0  0  0  0  0  0
  -29.6810  -17.9390   20.3860 O   0  0  0  0  0  0  0  0  0  0  0  0
  -32.5420  -18.5260   21.5390 H   0  0  0  0  0  0  0  0  0  0  0  0
  -30.8130  -16.7600   22.1500 C   0  0  0  0  0  2  0  0  0  0  0  0
  -30.6570  -14.7710   20.6700 C   0  0  0  0  0  0  0  0  0  0  0  0
  -30.3880  -12.6650   19.4190 C   0  0  0  0  0  2  0  0  0  0  0  0
  -29.4440  -12.8230   18.2140 C   0  0  0  0  0  2  0  0  0  0  0  0
  -27.9790  -12.6180   18.6390 C   0  0  0  0  0  2  0  0  0  0  0  0
  -27.5990  -13.4610   19.8840 C   0  0  0  0  0  3  0  0  0  0  0  0
  -28.6460  -13.2860   21.0050 C   0  0  0  0  0  2  0  0  0  0  0  0
  -29.9770  -13.6160   20.4600 N   0  0  0  0  0  0  0  0  0  0  0  0
  -31.6410  -15.1110   20.0100 O   0  0  0  0  0  0  0  0  0  0  0  0
  -30.2310  -15.4930   21.7130 N   0  0  0  0  0  0  0  0  0  0  0  0
  -29.4310  -15.1500   22.2190 H   0  0  0  0  0  0  0  0  0  0  0  0
  -25.1850  -13.9850   20.6160 C   0  0  0  0  0  0  0  0  0  0  0  0
  -24.1360  -13.1710   20.9590 C   0  0  0  0  0  0  0  0  0  0  0  0
  -24.6320  -11.8350   20.8780 C   0  0  0  0  0  0  0  0  0  0  0  0
  -26.2500  -13.1380   20.3500 N   0  0  0  0  0  0  0  0  0  0  0  0
  -25.9210  -11.8390   20.5640 N   0  0  0  0  0  0  0  0  0  0  0  0
  -23.9400  -10.5480   21.0250 C   0  0  0  0  0  0  0  0  0  0  0  0
  -24.3730   -9.5780   21.9550 C   0  0  0  0  0  3  0  0  0  0  0  0
  -23.6810   -8.3550   22.0910 C   0  0  0  0  0  3  0  0  0  0  0  0
  -22.5420   -8.0940   21.2940 C   0  0  0  0  0  0  0  0  0  0  0  0
  -22.1270   -9.0530   20.3530 C   0  0  0  0  0  3  0  0  0  0  0  0
  -22.8210  -10.2670   20.2160 C   0  0  0  0  0  3  0  0  0  0  0  0
  -21.8210   -6.9240   21.3380 O   0  0  0  0  0  0  0  0  0  0  0  0
  -21.7070   -6.1930   22.4930 C   0  0  0  0  0  0  0  0  0  0  0  0
  -21.1500   -6.7410   23.6700 C   0  0  0  0  0  3  0  0  0  0  0  0
  -20.9870   -5.9330   24.8140 C   0  0  0  0  0  3  0  0  0  0  0  0
  -21.3710   -4.5780   24.7810 C   0  0  0  0  0  0  0  0  0  0  0  0
  -21.9200   -4.0300   23.6070 C   0  0  0  0  0  3  0  0  0  0  0  0
  -22.0850   -4.8360   22.4670 C   0  0  0  0  0  0  0  0  0  0  0  0
  -22.5960   -4.2970   21.3330 F   0  0  0  0  0  0  0  0  0  0  0  0
  -21.2070   -3.8010   25.8750 F   0  0  0  0  0  0  0  0  0  0  0  0
  -22.7290  -13.6040   21.2540 C   0  0  0  0  0  0  0  0  0  0  0  0
  -22.0320  -12.8680   22.1150 N   0  0  0  0  0  0  0  0  0  0  0  0
  -22.2560  -14.6250   20.7610 O   0  0  0  0  0  0  0  0  0  0  0  0
  -22.4270  -12.0420   22.5380 H   0  0  0  0  0  0  0  0  0  0  0  0
  -21.0880  -13.1380   22.3550 H   0  0  0  0  0  0  0  0  0  0  0  0
  -25.3150  -15.3640   20.4890 N   0  0  0  0  0  0  0  0  0  0  0  0
  -24.5390  -16.0020   20.6310 H   0  0  0  0  0  0  0  0  0  0  0  0
  -26.1660  -15.8340   20.2020 H   0  0  0  0  0  0  0  0  0  0  0  0
  -31.7780  -24.3260   10.5580 C   0  0  0  0  0  2  0  0  0  0  0  0
  -30.5890  -24.6020   11.4870 C   0  0  0  0  0  0  0  0  0  0  0  0
  -30.1750  -23.6280   12.3060 N   0  0  0  0  0  0  0  0  0  0  0  0
  -30.0350  -25.7010   11.4450 O   0  0  0  0  0  0  0  0  0  0  0  0
  -30.6770  -22.7490   12.2720 H   0  0  0  0  0  0  0  0  0  0  0  0
  -29.0610  -23.7270   13.2470 C   0  0  0  0  0  2  0  0  0  0  0  0
  -29.5200  -24.1160   14.6660 C   0  0  0  0  0  2  0  0  0  0  0  0
  -30.6790  -23.2490   15.1950 C   0  0  0  0  0  2  0  0  0  0  0  0
  -30.7070  -23.0780   16.7230 C   0  0  0  0  0  2  0  0  0  0  0  0
  -30.7940  -24.3590   17.4630 N   0  0  0  0  0  4  0  0  0  0  0  0
  -29.9470  -24.8750   17.2940 H   0  0  0  0  0  0  0  0  0  0  0  0
  -31.5650  -24.9010   17.1010 H   0  0  0  0  0  0  0  0  0  0  0  0
  -30.9870  -24.1740   18.9210 C   0  0  0  0  0  2  0  0  0  0  0  0
  -30.6970  -25.4420   19.7510 C   0  0  0  0  0  2  0  0  0  0  0  0
  -29.2060  -25.7940   19.8060 C   0  0  0  0  0  2  0  0  0  0  0  0
  -28.9880  -26.9400   20.6280 O   0  0  0  0  0  0  0  0  0  0  0  0
  -24.6090  -31.8580   23.3380 C   0  0  0  0  0  0  0  0  0  0  0  0
  -27.7570  -27.5600   20.5390 C   0  0  0  0  0  0  0  0  0  0  0  0
  -23.6450  -30.4150   21.5780 C   0  0  0  0  0  3  0  0  0  0  0  0
  -25.3010  -28.9470   20.3240 C   0  0  0  0  0  0  0  0  0  0  0  0
  -26.1590  -30.8820   21.6510 C   0  0  0  0  0  2  0  0  0  0  0  0
  -26.3680  -29.5190   21.0260 C   0  0  0  0  0  0  0  0  0  0  0  0
  -27.5960  -28.8300   21.1350 C   0  0  0  0  0  3  0  0  0  0  0  0
  -26.6520  -26.9830   19.8660 C   0  0  0  0  0  3  0  0  0  0  0  0
  -25.4340  -27.6740   19.7500 C   0  0  0  0  0  3  0  0  0  0  0  0
  -24.0290  -29.7600   20.2300 C   0  0  0  0  0  2  0  0  0  0  0  0
  -24.8170  -31.0640   22.2510 N   0  0  0  0  0  0  0  0  0  0  0  0
  -23.4660  -32.0810   23.7590 O   0  0  0  0  0  0  0  0  0  0  0  0
  -22.9440  -29.3570   22.4610 C   0  0  0  0  0  0  0  0  0  0  0  0
  -21.6290  -29.1860   22.2550 N   0  0  0  0  0  0  0  0  0  0  0  0
  -23.5820  -28.6980   23.2870 O   0  0  0  0  0  0  0  0  0  0  0  0
  -21.1730  -29.7750   21.5710 H   0  0  0  0  0  0  0  0  0  0  0  0
  -18.2110  -28.0860   22.6310 C   0  0  0  0  0  0  0  0  0  0  0  0
  -20.7710  -28.2250   22.9480 C   0  0  0  0  0  3  0  0  0  0  0  0
  -20.8290  -26.8350   22.2720 C   0  0  0  0  0  2  0  0  0  0  0  0
  -19.7310  -26.6300   21.2230 C   0  0  0  0  0  2  0  0  0  0  0  0
  -18.3470  -26.7820   21.8610 C   0  0  0  0  0  2  0  0  0  0  0  0
  -19.3510  -28.7710   23.1280 C   0  0  0  0  0  0  0  0  0  0  0  0
  -19.1730  -29.9960   23.8070 C   0  0  0  0  0  3  0  0  0  0  0  0
  -17.8870  -30.5360   23.9940 C   0  0  0  0  0  3  0  0  0  0  0  0
  -16.7600  -29.8460   23.5140 C   0  0  0  0  0  3  0  0  0  0  0  0
  -16.9230  -28.6240   22.8380 C   0  0  0  0  0  3  0  0  0  0  0  0
  -25.7950  -32.5440   24.0870 C   0  0  0  0  0  3  0  0  0  0  0  0
  -26.1620  -31.8350   25.4480 C   0  0  1  0  0  0  0  0  0  0  0  0
  -24.9400  -31.5600   26.3540 C   0  0  0  0  0  1  0  0  0  0  0  0
  -26.8660  -30.4840   25.1830 C   0  0  0  0  0  1  0  0  0  0  0  0
  -27.1620  -32.7070   26.2450 C   0  0  0  0  0  1  0  0  0  0  0  0
  -25.4220  -33.9460   24.3170 N   0  0  0  0  0  0  0  0  0  0  0  0
  -25.8050  -34.9700   23.5420 C   0  0  0  0  0  0  0  0  0  0  0  0
  -26.5800  -34.8350   22.5910 O   0  0  0  0  0  0  0  0  0  0  0  0
  -24.7460  -34.1230   25.0450 H   0  0  0  0  0  0  0  0  0  0  0  0
  -24.0600  -36.6780   22.9410 C   0  0  0  0  0  1  0  0  0  0  0  0
  -25.2370  -36.3620   23.8760 C   0  0  0  0  0  3  0  0  0  0  0  0
  -27.2650  -37.3610   24.8350 C   0  0  0  0  0  1  0  0  0  0  0  0
  -26.2440  -37.4430   23.7930 N   0  0  0  0  0  0  0  0  0  0  0  0
  -25.7970  -38.3540   23.8620 H   0  0  0  0  0  0  0  0  0  0  0  0
  1  2  1  0
  2  3  1  0
  3  4  1  0
  4  6  1  0
  5  9  1  0
  5  7  2  0
  6  5  1  0
  8  6  1  0
  9 11  1  0
 10 14  1  0
 11 13  1  0
 11 10  1  0
 12 10  2  0
 14 16  1  0
 15 19  1  0
 16 15  1  0
 16 18  1  0
 17 15  2  0
 20 28  1  0
 21 26  1  0
 22 23  1  0
 22 21  1  0
 24 23  1  0
 24 33  1  0
 24 25  1  0
 26 20  1  0
 26 25  1  0
 27 20  2  0
 28 19  1  0
 28 29  1  0
 30 31  2  0
 31 50  1  0
 32 31  1  0
 32 35  1  0
 33 34  1  0
 33 30  1  0
 34 32  2  0
 35 36  1  0
 36 37  2  0
 38 41  1  0
 38 37  1  0
 39 38  2  0
 40 39  1  0
 40 35  2  0
 41 42  1  0
 42 43  1  0
 43 44  2  0
 45 44  1  0
 45 49  1  0
 46 45  2  0
 47 42  2  0
 47 46  1  0
 48 47  1  0
 50 51  1  0
 51 54  1  0
 51 53  1  0
 52 50  2  0
 55 30  1  0
 55 56  1  0
 57 55  1  0
 58  1  1  0
 58 59  1  0
 59 60  1  0
 60 63  1  0
 61 59  2  0
 62 60  1  0
 63 64  1  0
 64 65  1  0
 65 66  1  0
 66 67  1  0
 67 70  1  0
 68 67  1  0
 69 67  1  0
 70 71  1  0
 71 72  1  0
 72 73  1  0
 74 85  2  0
 75 73  1  0
 75 80  1  0
 76 84  1  0
 76 86  1  0
 77 79  1  0
 78 84  1  0
 79 80  2  0
 79 78  1  0
 81 75  2  0
 82 81  1  0
 82 77  2  0
 83 77  1  0
 83 76  1  0
 84 74  1  0
 86 88  2  0
 87 86  1  0
 89 87  1  0
 90 99  2  0
 90 95  1  0
 91 87  1  0
 91 95  1  0
 92 91  1  0
 93 94  1  0
 93 92  1  0
 94 90  1  0
 95 96  2  0
 96 97  1  0
 98 97  2  0
 99 98  1  0
100 74  1  0
100105  1  0
100101  1  0
101104  1  1
101102  1  0
103101  1  0
105108  1  0
106110  1  0
106105  1  0
107106  2  0
110109  1  0
112113  1  0
112110  1  0
112111  1  0
M  ISO  4  20 100  28 100  72 101  73 101
M  END
>  <TORSDO>  (66) 
F 35

>  <SCORE>  (66) 
-9.531

>  <name>  (66) 
69

>  <ligand_id>  (66) 
69

>  <original_smiles>  (66) 
[H]c1c([H])c([H])c2c(c1[H])C([H])([H])C([H])([H])C([H])([H])C2([H])N([H])C(=O)C1([H])N(C(=O)C([H])(N([H])C(=O)C([H])(N([H])C([H])([H])[H])C([H])([H])[H])C(C([H])([H])[H])(C([H])([H])[H])C([H])([H])[H])C([H])([H])c2c([H])c(OC([H])([H])C([H])([H])C([H])([H])[N+]([H])([H])C([H])([H])C([H])([H])C([H])([H])C([H])([H])N([H])C(=O)C([H])([H])C([H])([H])C([H])([H])C([H])([H])C([H])([H])N([H])C(=O)C([H])([H])N([H])C(=O)C([H])([H])N([H])C(=O)C([H])([H])N([H])C(=O)N3C([H])([H])C([H])([H])C([H])([H])C([H])(n4nc(-c5c([H])c([H])c(Oc6c([H])c([H])c(F)c([H])c6F)c([H])c5[H])c(C(=O)N([H])[H])c4N([H])[H])C3([H])[H])c([H])c([H])c2C1([H])[H]

>  <smiles>  (66) 
[H]c1c([H])c([H])c2c(c1[H])C([H])([H])C([H])([H])C([H])([H])C2([H])N([H])C(=O)C1([H])N(C(=O)C([H])(N([H])C(=O)C([H])(N([H])C([H])([H])[H])C([H])([H])[H])C(C([H])([H])[H])(C([H])([H])[H])C([H])([H])[H])C([H])([H])c2c([H])c(OC([H])([H])C([H])([H])C([H])([H])[N+]([H])([H])C([H])([H])C([H])([H])C([H])([H])C([H])([H])N([H])C(=O)C([H])([H])C([H])([H])C([H])([H])C([H])([H])C([H])([H])N([H])C(=O)C([H])([H])N([H])C(=O)C([H])([H])N([H])C(=O)C([H])([H])N([H])C(=O)N3C([H])([H])C([H])([H])C([H])([H])C([H])(n4nc(-c5c([H])c([H])c(Oc6c([H])c([H])c(F)c([H])c6F)c([H])c5[H])c(C(=O)N([H])[H])c4N([H])[H])C3([H])[H])c([H])c([H])c2C1([H])[H]

$$$$
70:0:0
     RDKit          3D

110117  0  0  1  0  0  0  0  0999 V2000
  -28.9210  -32.5310   25.3170 C   0  0  0  0  0  2  0  0  0  0  0  0
  -30.1140  -32.1540   24.0560 C   0  0  0  0  0  3  0  0  0  0  0  0
  -31.2090  -30.8290   23.7480 C   0  0  0  0  0  3  0  0  0  0  0  0
  -32.3320  -29.1240   21.8550 C   0  0  0  0  0  0  0  0  0  0  0  0
  -31.9260  -30.3960   22.3810 N   0  0  0  0  0  0  0  0  0  0  0  0
  -31.9430  -28.1100   22.4400 O   0  0  0  0  0  0  0  0  0  0  0  0
  -32.3260  -31.1650   21.8560 H   0  0  0  0  0  0  0  0  0  0  0  0
  -33.3190  -28.8370   20.5380 C   0  0  0  0  0  2  0  0  0  0  0  0
  -34.7590  -27.0430   18.9850 C   0  0  0  0  0  0  0  0  0  0  0  0
  -33.7470  -27.4270   19.9230 N   0  0  0  0  0  0  0  0  0  0  0  0
  -35.5430  -27.9150   18.6130 O   0  0  0  0  0  0  0  0  0  0  0  0
  -33.1380  -26.6700   20.2120 H   0  0  0  0  0  0  0  0  0  0  0  0
  -35.0000  -25.5440   18.2920 C   0  0  0  0  0  2  0  0  0  0  0  0
  -36.4560  -23.8610   16.6520 C   0  0  0  0  0  0  0  0  0  0  0  0
  -36.1530  -25.1120   17.2790 N   0  0  0  0  0  0  0  0  0  0  0  0
  -35.7020  -22.9150   16.8800 O   0  0  0  0  0  0  0  0  0  0  0  0
  -36.7650  -25.8770   17.0260 H   0  0  0  0  0  0  0  0  0  0  0  0
  -37.7290  -23.5120   15.6390 C   0  0  0  0  0  2  0  0  0  0  0  0
  -39.1450  -21.6840   14.1370 C   0  0  0  0  0  0  0  0  0  0  0  0
  -40.0310  -20.2310   12.2270 C   0  0  0  0  0  2  0  0  0  0  0  0
  -39.1460  -20.2510   10.9560 C   0  0  0  0  0  2  0  0  0  0  0  0
  -38.0430  -19.1850   11.0590 C   0  0  0  0  0  2  0  0  0  0  0  0
  -37.3330  -19.2050   12.4390 C   0  0  0  0  0  3  0  0  0  0  0  0
  -38.3300  -19.2750   13.6220 C   0  0  0  0  0  2  0  0  0  0  0  0
  -39.1790  -20.4650   13.4400 N   0  0  0  0  0  0  0  0  0  0  0  0
  -40.0680  -22.4730   13.9090 O   0  0  0  0  0  0  0  0  0  0  0  0
  -38.0620  -22.1080   14.9630 N   0  0  0  0  0  0  0  0  0  0  0  0
  -37.3540  -21.4050   15.1270 H   0  0  0  0  0  0  0  0  0  0  0  0
  -35.0690  -18.1510   13.0070 C   0  0  0  0  0  0  0  0  0  0  0  0
  -34.5790  -16.8850   12.8780 C   0  0  0  0  0  0  0  0  0  0  0  0
  -35.6520  -16.0950   12.3520 C   0  0  0  0  0  0  0  0  0  0  0  0
  -36.3840  -18.1040   12.5720 N   0  0  0  0  0  0  0  0  0  0  0  0
  -36.7490  -16.8380   12.2340 N   0  0  0  0  0  0  0  0  0  0  0  0
  -35.6730  -14.6980   11.9060 C   0  0  0  0  0  0  0  0  0  0  0  0
  -36.6200  -13.7760   12.4040 C   0  0  0  0  0  3  0  0  0  0  0  0
  -36.6070  -12.4320   11.9740 C   0  0  0  0  0  3  0  0  0  0  0  0
  -35.6400  -11.9930   11.0400 C   0  0  0  0  0  0  0  0  0  0  0  0
  -34.7120  -12.9190   10.5310 C   0  0  0  0  0  3  0  0  0  0  0  0
  -34.7290  -14.2570   10.9550 C   0  0  0  0  0  3  0  0  0  0  0  0
  -35.5670  -10.7110   10.5460 O   0  0  0  0  0  0  0  0  0  0  0  0
  -36.0430   -9.6380   11.2560 C   0  0  0  0  0  0  0  0  0  0  0  0
  -35.5780   -9.3390   12.5550 C   0  0  0  0  0  3  0  0  0  0  0  0
  -36.0450   -8.1870   13.2220 C   0  0  0  0  0  3  0  0  0  0  0  0
  -36.9650   -7.3310   12.5890 C   0  0  0  0  0  0  0  0  0  0  0  0
  -37.4220   -7.6230   11.2930 C   0  0  0  0  0  3  0  0  0  0  0  0
  -36.9620   -8.7720   10.6280 C   0  0  0  0  0  0  0  0  0  0  0  0
  -37.3920   -9.0380    9.3710 F   0  0  0  0  0  0  0  0  0  0  0  0
  -37.4020   -6.2190   13.2260 F   0  0  0  0  0  0  0  0  0  0  0  0
  -33.1660  -16.4460   13.1300 C   0  0  0  0  0  0  0  0  0  0  0  0
  -32.9760  -15.2190   13.5980 N   0  0  0  0  0  0  0  0  0  0  0  0
  -32.2200  -17.2160   12.9590 O   0  0  0  0  0  0  0  0  0  0  0  0
  -33.7540  -14.5960   13.7610 H   0  0  0  0  0  0  0  0  0  0  0  0
  -32.0400  -14.9000   13.7990 H   0  0  0  0  0  0  0  0  0  0  0  0
  -34.5040  -19.3500   13.4310 N   0  0  0  0  0  0  0  0  0  0  0  0
  -33.5330  -19.4150   13.7140 H   0  0  0  0  0  0  0  0  0  0  0  0
  -34.9780  -20.2430   13.4160 H   0  0  0  0  0  0  0  0  0  0  0  0
  -27.1810  -32.3680   25.7890 C   0  0  0  0  0  2  0  0  0  0  0  0
  -25.7110  -31.3030   25.6700 C   0  0  0  0  0  2  0  0  0  0  0  0
  -24.2610  -31.1710   24.7280 C   0  0  0  0  0  0  0  0  0  0  0  0
  -23.9440  -30.2870   23.6540 N   0  0  0  0  0  0  0  0  0  0  0  0
  -23.3670  -31.9660   25.0130 O   0  0  0  0  0  0  0  0  0  0  0  0
  -24.6570  -29.5700   23.5730 H   0  0  0  0  0  0  0  0  0  0  0  0
  -23.0910  -30.2920   22.2650 C   0  0  0  0  0  2  0  0  0  0  0  0
  -22.8570  -28.9260   21.1760 C   0  0  0  0  0  2  0  0  0  0  0  0
  -23.0740  -28.5930   19.4480 C   0  0  0  0  0  2  0  0  0  0  0  0
  -23.4190  -27.1650   18.3630 C   0  0  0  0  0  2  0  0  0  0  0  0
  -24.6210  -26.0490   18.0140 O   0  0  0  0  0  0  0  0  0  0  0  0
  -25.8150  -24.9470   18.4280 C   0  0  0  0  0  2  0  0  0  0  0  0
  -27.3970  -24.7160   19.3300 C   0  0  0  0  0  2  0  0  0  0  0  0
  -29.0420  -24.7320   19.1820 O   0  0  0  0  0  0  0  0  0  0  0  0
  -26.8150  -29.1220   22.1630 C   0  0  0  0  0  0  0  0  0  0  0  0
  -29.7540  -25.7410   18.6360 C   0  0  0  0  0  3  0  0  0  0  0  0
  -25.9850  -27.8410   20.3470 C   0  0  0  0  0  3  0  0  0  0  0  0
  -27.6490  -27.3590   18.4820 C   0  0  0  0  0  0  0  0  0  0  0  0
  -28.3710  -28.7490   20.3800 C   0  0  0  0  0  2  0  0  0  0  0  0
  -28.6390  -27.6550   19.4130 C   0  0  0  0  0  0  0  0  0  0  0  0
  -29.7880  -26.8760   19.4570 C   0  0  0  0  0  2  0  0  0  0  0  0
  -29.0920  -25.7470   17.4250 C   0  0  0  0  0  3  0  0  0  0  0  0
  -27.9010  -26.4850   17.4010 C   0  0  0  0  0  3  0  0  0  0  0  0
  -26.3540  -27.9850   18.7990 C   0  0  0  0  0  2  0  0  0  0  0  0
  -27.0850  -28.5440   21.0240 N   0  0  0  0  0  0  0  0  0  0  0  0
  -25.6880  -29.0840   22.5070 O   0  0  0  0  0  0  0  0  0  0  0  0
  -25.4030  -26.5420   21.2480 C   0  0  0  0  0  0  0  0  0  0  0  0
  -24.1110  -26.0910   21.2540 N   0  0  0  0  0  0  0  0  0  0  0  0
  -26.1370  -25.9320   21.9960 O   0  0  0  0  0  0  0  0  0  0  0  0
  -23.5550  -26.7290   20.7090 H   0  0  0  0  0  0  0  0  0  0  0  0
  -20.7000  -24.6620   21.0890 C   0  0  0  0  0  0  0  0  0  0  0  0
  -23.2520  -24.9600   21.6560 C   0  0  0  0  0  3  0  0  0  0  0  0
  -23.4120  -23.7220   20.7520 C   0  0  0  0  0  2  0  0  0  0  0  0
  -22.4360  -23.6610   19.5540 C   0  0  0  0  0  2  0  0  0  0  0  0
  -21.0000  -23.5730   20.0750 C   0  0  0  0  0  2  0  0  0  0  0  0
  -21.7450  -25.3320   21.7940 C   0  0  0  0  0  0  0  0  0  0  0  0
  -21.3640  -26.3040   22.7380 C   0  0  0  0  0  3  0  0  0  0  0  0
  -20.0240  -26.6860   22.9310 C   0  0  0  0  0  3  0  0  0  0  0  0
  -19.0070  -26.0030   22.2470 C   0  0  0  0  0  3  0  0  0  0  0  0
  -19.3470  -24.9800   21.3440 C   0  0  0  0  0  3  0  0  0  0  0  0
  -27.8110  -29.7540   23.0960 C   0  0  0  0  0  3  0  0  0  0  0  0
  -27.9640  -28.6230   24.3490 C   0  0  1  0  0  0  0  0  0  0  0  0
  -26.6660  -27.9430   24.8930 C   0  0  0  0  0  1  0  0  0  0  0  0
  -28.7210  -27.4480   23.6970 C   0  0  0  0  0  1  0  0  0  0  0  0
  -28.7610  -28.6690   25.7360 C   0  0  0  0  0  1  0  0  0  0  0  0
  -27.1630  -31.0960   23.2020 N   0  0  0  0  0  0  0  0  0  0  0  0
  -27.2900  -32.2700   22.5610 C   0  0  0  0  0  0  0  0  0  0  0  0
  -27.9450  -32.3670   21.5320 O   0  0  0  0  0  0  0  0  0  0  0  0
  -26.3890  -31.0780   23.8480 H   0  0  0  0  0  0  0  0  0  0  0  0
  -25.1510  -33.5630   23.0880 C   0  0  0  0  0  1  0  0  0  0  0  0
  -26.6790  -33.5500   23.2210 C   0  0  0  0  0  3  0  0  0  0  0  0
  -28.5620  -35.1710   23.1940 C   0  0  0  0  0  1  0  0  0  0  0  0
  -27.2150  -34.8410   22.7390 N   0  0  0  0  0  0  0  0  0  0  0  0
  -26.5930  -35.5940   23.0160 H   0  0  0  0  0  0  0  0  0  0  0  0
  1 57  1  0
  2  1  1  0
  3  2  2  0
  4  5  1  0
  4  6  2  0
  5  3  1  0
  7  5  1  0
  8  4  1  0
  9 10  1  0
 10 12  1  0
 10  8  1  0
 11  9  2  0
 13  9  1  0
 14 16  2  0
 14 15  1  0
 15 13  1  0
 17 15  1  0
 18 14  1  0
 19 27  1  0
 20 25  1  0
 21 22  1  0
 21 20  1  0
 23 22  1  0
 23 32  1  0
 23 24  1  0
 25 24  1  0
 25 19  1  0
 26 19  2  0
 27 28  1  0
 27 18  1  0
 29 54  1  0
 30 29  2  0
 30 49  1  0
 31 30  1  0
 32 29  1  0
 33 31  2  0
 33 32  1  0
 34 31  1  0
 34 35  1  0
 36 35  2  0
 37 36  1  0
 38 39  1  0
 38 37  2  0
 39 34  2  0
 40 37  1  0
 40 41  1  0
 41 42  1  0
 42 43  2  0
 44 43  1  0
 44 48  1  0
 45 44  2  0
 46 41  2  0
 46 45  1  0
 47 46  1  0
 49 50  1  0
 50 52  1  0
 50 53  1  0
 51 49  2  0
 54 55  1  0
 56 54  1  0
 58 57  1  0
 59 61  2  0
 59 58  1  0
 60 59  1  0
 62 60  1  0
 63 60  1  0
 64 63  1  0
 65 64  1  0
 66 65  1  0
 67 66  1  0
 67 68  1  0
 68 69  1  0
 70 69  1  0
 71 82  2  0
 72 70  1  0
 72 77  1  0
 73 81  1  0
 73 83  1  0
 74 80  1  0
 74 76  2  0
 75 81  1  0
 76 77  1  0
 76 75  1  0
 78 72  1  0
 79 78  2  0
 79 74  1  0
 80 73  1  0
 81 71  1  0
 83 84  1  0
 83 85  2  0
 86 84  1  0
 87 96  2  0
 87 92  1  0
 88 84  1  0
 88 92  1  0
 89 88  1  0
 90 91  1  0
 90 89  1  0
 91 87  1  0
 92 93  2  0
 93 94  1  0
 95 94  2  0
 96 95  1  0
 97 71  1  0
 97102  1  0
 97 98  1  0
 98 99  1  1
 98101  1  0
100 98  1  0
102105  1  0
103102  1  0
103107  1  0
104103  2  0
107106  1  0
109110  1  0
109108  1  0
109107  1  0
M  ISO  4  19 100  27 100  69 101  70 101
M  END
>  <TORSDO>  (67) 
F 34

>  <SCORE>  (67) 
-1.264

>  <name>  (67) 
70

>  <ligand_id>  (67) 
70

>  <original_smiles>  (67) 
[H]c1c([H])c([H])c2c(c1[H])C([H])([H])C([H])([H])C([H])([H])C2([H])N([H])C(=O)C1([H])N(C(=O)C([H])(N([H])C(=O)C([H])(N([H])C([H])([H])[H])C([H])([H])[H])C(C([H])([H])[H])(C([H])([H])[H])C([H])([H])[H])C([H])([H])c2c([H])c(OC([H])([H])C([H])([H])OC([H])([H])C([H])([H])C([H])([H])C([H])([H])N([H])C(=O)C([H])([H])C([H])([H])C([H])([H])C([H])([H])C([H])([H])N([H])C(=O)C([H])([H])N([H])C(=O)C([H])([H])N([H])C(=O)C([H])([H])N([H])C(=O)N3C([H])([H])C([H])([H])C([H])([H])C([H])(n4nc(-c5c([H])c([H])c(Oc6c([H])c([H])c(F)c([H])c6F)c([H])c5[H])c(C(=O)N([H])[H])c4N([H])[H])C3([H])[H])c([H])c([H])c2C1([H])[H]

>  <smiles>  (67) 
[H]c1c([H])c([H])c2c(c1[H])C([H])([H])C([H])([H])C([H])([H])C2([H])N([H])C(=O)C1([H])N(C(=O)C([H])(N([H])C(=O)C([H])(N([H])C([H])([H])[H])C([H])([H])[H])C(C([H])([H])[H])(C([H])([H])[H])C([H])([H])[H])C([H])([H])c2c([H])c(OC([H])([H])C([H])([H])OC([H])([H])C([H])([H])C([H])([H])C([H])([H])N([H])C(=O)C([H])([H])C([H])([H])C([H])([H])C([H])([H])C([H])([H])N([H])C(=O)C([H])([H])N([H])C(=O)C([H])([H])N([H])C(=O)C([H])([H])N([H])C(=O)N3C([H])([H])C([H])([H])C([H])([H])C([H])(n4nc(-c5c([H])c([H])c(Oc6c([H])c([H])c(F)c([H])c6F)c([H])c5[H])c(C(=O)N([H])[H])c4N([H])[H])C3([H])[H])c([H])c([H])c2C1([H])[H]

$$$$
71:0:0
     RDKit          3D

103110  0  0  1  0  0  0  0  0999 V2000
  -28.6080  -18.7530   26.5460 C   0  0  0  0  0  2  0  0  0  0  0  0
  -28.7550  -20.1070   27.2760 C   0  0  0  0  0  2  0  0  0  0  0  0
  -30.4460  -21.9230   26.9330 C   0  0  0  0  0  0  0  0  0  0  0  0
  -29.5040  -21.0830   26.4890 N   0  0  0  0  0  0  0  0  0  0  0  0
  -30.8270  -21.9480   28.1050 O   0  0  0  0  0  0  0  0  0  0  0  0
  -29.2570  -21.1530   25.5110 H   0  0  0  0  0  0  0  0  0  0  0  0
  -31.0760  -22.8600   25.8860 C   0  0  0  0  0  2  0  0  0  0  0  0
  -32.4290  -22.5030   25.5640 O   0  0  0  0  0  0  0  0  0  0  0  0
  -32.6940  -21.1600   25.1530 C   0  0  0  0  0  2  0  0  0  0  0  0
  -31.9800  -20.7570   23.8510 C   0  0  0  0  0  2  0  0  0  0  0  0
  -32.1430  -19.2570   23.5720 C   0  0  0  0  0  2  0  0  0  0  0  0
  -31.3080  -18.7720   22.3790 C   0  0  0  0  0  2  0  0  0  0  0  0
  -31.1900  -17.2410   22.3460 C   0  0  0  0  0  2  0  0  0  0  0  0
  -30.2400  -16.7650   21.2430 C   0  0  0  0  0  2  0  0  0  0  0  0
  -30.7060  -14.3980   20.6130 C   0  0  0  0  0  0  0  0  0  0  0  0
  -30.4270  -12.2750   19.4030 C   0  0  0  0  0  2  0  0  0  0  0  0
  -29.4950  -12.5180   18.1980 C   0  0  0  0  0  2  0  0  0  0  0  0
  -28.0150  -12.3830   18.6070 C   0  0  0  0  0  2  0  0  0  0  0  0
  -27.6700  -13.1940   19.8850 C   0  0  0  0  0  3  0  0  0  0  0  0
  -28.7070  -12.9140   20.9960 C   0  0  0  0  0  2  0  0  0  0  0  0
  -30.0480  -13.2220   20.4590 N   0  0  0  0  0  0  0  0  0  0  0  0
  -31.7890  -14.6540   20.0780 O   0  0  0  0  0  0  0  0  0  0  0  0
  -30.0180  -15.3240   21.2900 N   0  0  0  0  0  0  0  0  0  0  0  0
  -29.1560  -15.0080   21.7110 H   0  0  0  0  0  0  0  0  0  0  0  0
  -25.2620  -13.8140   20.5650 C   0  0  0  0  0  0  0  0  0  0  0  0
  -24.1850  -13.0430   20.9140 C   0  0  0  0  0  0  0  0  0  0  0  0
  -24.6390  -11.6900   20.8710 C   0  0  0  0  0  0  0  0  0  0  0  0
  -26.3060  -12.9280   20.3400 N   0  0  0  0  0  0  0  0  0  0  0  0
  -25.9310  -11.6450   20.5740 N   0  0  0  0  0  0  0  0  0  0  0  0
  -23.9050  -10.4290   21.0400 C   0  0  0  0  0  0  0  0  0  0  0  0
  -24.3600   -9.4210   21.9180 C   0  0  0  0  0  3  0  0  0  0  0  0
  -23.6280   -8.2240   22.0760 C   0  0  0  0  0  3  0  0  0  0  0  0
  -22.4260   -8.0280   21.3550 C   0  0  0  0  0  0  0  0  0  0  0  0
  -21.9890   -9.0250   20.4650 C   0  0  0  0  0  3  0  0  0  0  0  0
  -22.7220  -10.2130   20.3050 C   0  0  0  0  0  3  0  0  0  0  0  0
  -21.6640   -6.8870   21.4240 O   0  0  0  0  0  0  0  0  0  0  0  0
  -21.6860   -6.0720   22.5280 C   0  0  0  0  0  0  0  0  0  0  0  0
  -21.4020   -6.5630   23.8200 C   0  0  0  0  0  3  0  0  0  0  0  0
  -21.3660   -5.6790   24.9170 C   0  0  0  0  0  3  0  0  0  0  0  0
  -21.6040   -4.3050   24.7230 C   0  0  0  0  0  0  0  0  0  0  0  0
  -21.8820   -3.8140   23.4350 C   0  0  0  0  0  3  0  0  0  0  0  0
  -21.9190   -4.6950   22.3400 C   0  0  0  0  0  0  0  0  0  0  0  0
  -22.1660   -4.2130   21.0980 F   0  0  0  0  0  0  0  0  0  0  0  0
  -21.5640   -3.4540   25.7740 F   0  0  0  0  0  0  0  0  0  0  0  0
  -22.7870  -13.5250   21.1800 C   0  0  0  0  0  0  0  0  0  0  0  0
  -22.0500  -12.8260   22.0380 N   0  0  0  0  0  0  0  0  0  0  0  0
  -22.3560  -14.5550   20.6650 O   0  0  0  0  0  0  0  0  0  0  0  0
  -22.4120  -11.9940   22.4800 H   0  0  0  0  0  0  0  0  0  0  0  0
  -21.1120  -13.1300   22.2560 H   0  0  0  0  0  0  0  0  0  0  0  0
  -25.4350  -15.1850   20.4060 N   0  0  0  0  0  0  0  0  0  0  0  0
  -24.6720  -15.8430   20.5160 H   0  0  0  0  0  0  0  0  0  0  0  0
  -26.2970  -15.6250   20.1060 H   0  0  0  0  0  0  0  0  0  0  0  0
  -28.4100  -18.8320   25.0160 C   0  0  0  0  0  2  0  0  0  0  0  0
  -27.2140  -19.6890   24.5510 C   0  0  0  0  0  2  0  0  0  0  0  0
  -27.5490  -20.5350   23.3110 C   0  0  0  0  0  2  0  0  0  0  0  0
  -26.4710  -21.5850   22.9930 C   0  0  0  0  0  2  0  0  0  0  0  0
  -27.7410  -23.5250   22.0860 C   0  0  0  0  0  0  0  0  0  0  0  0
  -26.8940  -22.4970   21.9320 N   0  0  0  0  0  0  0  0  0  0  0  0
  -28.3140  -23.7560   23.1530 O   0  0  0  0  0  0  0  0  0  0  0  0
  -26.4690  -22.3730   21.0220 H   0  0  0  0  0  0  0  0  0  0  0  0
  -27.9620  -24.4190   20.8610 C   0  0  0  0  0  2  0  0  0  0  0  0
  -28.4750  -25.8320   21.2090 C   0  0  0  0  0  2  0  0  0  0  0  0
  -28.3810  -26.7210   20.0920 O   0  0  0  0  0  0  0  0  0  0  0  0
  -24.6110  -31.8710   23.2120 C   0  0  0  0  0  0  0  0  0  0  0  0
  -27.2300  -27.4660   20.0920 C   0  0  0  0  0  0  0  0  0  0  0  0
  -23.3980  -30.4940   21.5520 C   0  0  0  0  0  3  0  0  0  0  0  0
  -24.8440  -28.9650   20.1130 C   0  0  0  0  0  0  0  0  0  0  0  0
  -25.9230  -30.8470   21.3600 C   0  0  0  0  0  2  0  0  0  0  0  0
  -26.0010  -29.4810   20.7120 C   0  0  0  0  0  0  0  0  0  0  0  0
  -27.1990  -28.7370   20.7040 C   0  0  0  0  0  3  0  0  0  0  0  0
  -26.0670  -26.9620   19.4750 C   0  0  0  0  0  3  0  0  0  0  0  0
  -24.8700  -27.7030   19.4930 C   0  0  0  0  0  3  0  0  0  0  0  0
  -23.6040  -29.8280   20.1640 C   0  0  0  0  0  2  0  0  0  0  0  0
  -24.6630  -31.0840   22.1000 N   0  0  0  0  0  0  0  0  0  0  0  0
  -23.5310  -32.1440   23.7520 O   0  0  0  0  0  0  0  0  0  0  0  0
  -22.7390  -29.4670   22.5000 C   0  0  0  0  0  0  0  0  0  0  0  0
  -21.4130  -29.3030   22.3740 N   0  0  0  0  0  0  0  0  0  0  0  0
  -23.4180  -28.8220   23.3030 O   0  0  0  0  0  0  0  0  0  0  0  0
  -20.9280  -29.8760   21.6980 H   0  0  0  0  0  0  0  0  0  0  0  0
  -18.0270  -28.1380   22.8500 C   0  0  0  0  0  0  0  0  0  0  0  0
  -20.5860  -28.3660   23.1330 C   0  0  0  0  0  3  0  0  0  0  0  0
  -20.6760  -26.9400   22.5430 C   0  0  0  0  0  2  0  0  0  0  0  0
  -19.5730  -26.6390   21.5220 C   0  0  0  0  0  2  0  0  0  0  0  0
  -18.1910  -26.7930   22.1630 C   0  0  0  0  0  2  0  0  0  0  0  0
  -19.1520  -28.8840   23.2910 C   0  0  0  0  0  0  0  0  0  0  0  0
  -18.9450  -30.1450   23.8920 C   0  0  0  0  0  3  0  0  0  0  0  0
  -17.6450  -30.6590   24.0570 C   0  0  0  0  0  3  0  0  0  0  0  0
  -16.5350  -29.9100   23.6320 C   0  0  0  0  0  3  0  0  0  0  0  0
  -16.7260  -28.6520   23.0340 C   0  0  0  0  0  3  0  0  0  0  0  0
  -25.9010  -32.4840   23.8410 C   0  0  0  0  0  3  0  0  0  0  0  0
  -26.4470  -31.6600   25.0720 C   0  0  1  0  0  0  0  0  0  0  0  0
  -25.3750  -31.3690   26.1480 C   0  0  0  0  0  1  0  0  0  0  0  0
  -27.0290  -30.3050   24.6050 C   0  0  0  0  0  1  0  0  0  0  0  0
  -27.6050  -32.4310   25.7470 C   0  0  0  0  0  1  0  0  0  0  0  0
  -25.5890  -33.8640   24.2350 N   0  0  0  0  0  0  0  0  0  0  0  0
  -25.9030  -34.9480   23.5140 C   0  0  0  0  0  0  0  0  0  0  0  0
  -26.5580  -34.8940   22.4700 O   0  0  0  0  0  0  0  0  0  0  0  0
  -25.0070  -33.9820   25.0520 H   0  0  0  0  0  0  0  0  0  0  0  0
  -24.1480  -36.7320   23.2640 C   0  0  0  0  0  1  0  0  0  0  0  0
  -25.4100  -36.3120   24.0340 C   0  0  0  0  0  3  0  0  0  0  0  0
  -27.5580  -37.1810   24.8470 C   0  0  0  0  0  1  0  0  0  0  0  0
  -26.4290  -37.3800   23.9410 N   0  0  0  0  0  0  0  0  0  0  0  0
  -26.0180  -38.2880   24.1430 H   0  0  0  0  0  0  0  0  0  0  0  0
  1  2  1  0
  3  5  2  0
  4  3  1  0
  4  2  1  0
  6  4  1  0
  7  3  1  0
  8  7  1  0
  9  8  1  0
 10  9  1  0
 11 10  1  0
 12 11  1  0
 13 12  1  0
 14 23  1  0
 14 13  1  0
 15 23  1  0
 16 21  1  0
 17 18  1  0
 17 16  1  0
 19 18  1  0
 19 28  1  0
 19 20  1  0
 21 15  1  0
 21 20  1  0
 22 15  2  0
 23 24  1  0
 25 26  2  0
 26 45  1  0
 27 26  1  0
 27 30  1  0
 28 25  1  0
 28 29  1  0
 29 27  2  0
 30 31  1  0
 31 32  2  0
 33 36  1  0
 33 32  1  0
 34 33  2  0
 35 34  1  0
 35 30  2  0
 36 37  1  0
 37 38  1  0
 38 39  2  0
 40 39  1  0
 40 44  1  0
 41 40  2  0
 42 37  2  0
 42 41  1  0
 43 42  1  0
 45 46  1  0
 46 49  1  0
 46 48  1  0
 47 45  2  0
 50 51  1  0
 50 25  1  0
 52 50  1  0
 53  1  1  0
 54 53  1  0
 55 54  1  0
 56 55  1  0
 57 59  2  0
 58 57  1  0
 58 56  1  0
 60 58  1  0
 61 62  1  0
 61 57  1  0
 63 65  1  0
 63 62  1  0
 64 75  2  0
 65 70  1  0
 66 74  1  0
 66 76  1  0
 67 73  1  0
 67 69  1  0
 68 74  1  0
 69 68  1  0
 70 69  2  0
 71 72  1  0
 71 65  2  0
 72 67  2  0
 73 66  1  0
 74 64  1  0
 76 78  2  0
 77 76  1  0
 79 77  1  0
 80 89  2  0
 80 85  1  0
 81 77  1  0
 81 85  1  0
 82 81  1  0
 83 84  1  0
 83 82  1  0
 84 80  1  0
 85 86  2  0
 86 87  1  0
 88 87  2  0
 89 88  1  0
 90 64  1  0
 90 95  1  0
 90 91  1  0
 91 94  1  1
 91 92  1  0
 93 91  1  0
 95 98  1  0
 96100  1  0
 96 95  1  0
 97 96  2  0
100 99  1  0
102100  1  0
102103  1  0
102101  1  0
M  ISO  4  15 100  23 100  62 101  63 101
M  END
>  <TORSDO>  (68) 
F 33

>  <SCORE>  (68) 
30.357

>  <name>  (68) 
71

>  <ligand_id>  (68) 
71

>  <original_smiles>  (68) 
[H]c1c([H])c([H])c2c(c1[H])C([H])([H])C([H])([H])C([H])([H])C2([H])N([H])C(=O)C1([H])N(C(=O)C([H])(N([H])C(=O)C([H])(N([H])C([H])([H])[H])C([H])([H])[H])C(C([H])([H])[H])(C([H])([H])[H])C([H])([H])[H])C([H])([H])c2c([H])c(OC([H])([H])C([H])([H])C(=O)N([H])C([H])([H])C([H])([H])C([H])([H])C([H])([H])C([H])([H])C([H])([H])N([H])C(=O)C([H])([H])OC([H])([H])C([H])([H])C([H])([H])C([H])([H])C([H])([H])C([H])([H])N([H])C(=O)N3C([H])([H])C([H])([H])C([H])([H])C([H])(n4nc(-c5c([H])c([H])c(Oc6c([H])c([H])c(F)c([H])c6F)c([H])c5[H])c(C(=O)N([H])[H])c4N([H])[H])C3([H])[H])c([H])c([H])c2C1([H])[H]

>  <smiles>  (68) 
[H]c1c([H])c([H])c2c(c1[H])C([H])([H])C([H])([H])C([H])([H])C2([H])N([H])C(=O)C1([H])N(C(=O)C([H])(N([H])C(=O)C([H])(N([H])C([H])([H])[H])C([H])([H])[H])C(C([H])([H])[H])(C([H])([H])[H])C([H])([H])[H])C([H])([H])c2c([H])c(OC([H])([H])C([H])([H])C(=O)N([H])C([H])([H])C([H])([H])C([H])([H])C([H])([H])C([H])([H])C([H])([H])N([H])C(=O)C([H])([H])OC([H])([H])C([H])([H])C([H])([H])C([H])([H])C([H])([H])C([H])([H])N([H])C(=O)N3C([H])([H])C([H])([H])C([H])([H])C([H])(n4nc(-c5c([H])c([H])c(Oc6c([H])c([H])c(F)c([H])c6F)c([H])c5[H])c(C(=O)N([H])[H])c4N([H])[H])C3([H])[H])c([H])c([H])c2C1([H])[H]

$$$$
72:0:0
     RDKit          3D

115122  0  0  1  0  0  0  0  0999 V2000
  -34.7930  -17.1410   16.5360 C   0  0  0  0  0  0  0  0  0  0  0  0
  -34.6240  -16.2100   15.5850 N   0  0  0  0  0  0  0  0  0  0  0  0
  -34.9190  -18.3430   16.2800 O   0  0  0  0  0  0  0  0  0  0  0  0
  -34.6300  -15.2480   15.8980 H   0  0  0  0  0  0  0  0  0  0  0  0
  -34.4640  -16.4260   14.1520 C   0  0  0  0  0  2  0  0  0  0  0  0
  -33.1230  -17.0950   13.7790 C   0  0  0  0  0  2  0  0  0  0  0  0
  -31.8650  -16.3630   14.2940 C   0  0  0  0  0  2  0  0  0  0  0  0
  -30.5830  -17.1900   14.0990 C   0  0  0  0  0  2  0  0  0  0  0  0
  -29.3160  -16.4690   14.6040 C   0  0  0  0  0  2  0  0  0  0  0  0
  -28.0870  -17.3860   14.7660 C   0  0  0  0  0  2  0  0  0  0  0  0
  -27.9460  -18.3850   17.0330 C   0  0  0  0  0  0  0  0  0  0  0  0
  -28.3600  -18.4100   15.7640 N   0  0  0  0  0  0  0  0  0  0  0  0
  -27.0520  -17.6390   17.4400 O   0  0  0  0  0  0  0  0  0  0  0  0
  -29.0460  -19.1110   15.5240 H   0  0  0  0  0  0  0  0  0  0  0  0
  -28.6780  -19.3070   18.0130 C   0  0  0  0  0  2  0  0  0  0  0  0
  -29.7840  -17.4600   19.3670 C   0  0  0  0  0  0  0  0  0  0  0  0
  -29.1330  -18.6290   19.2410 N   0  0  0  0  0  0  0  0  0  0  0  0
  -30.0940  -16.7640   18.4010 O   0  0  0  0  0  0  0  0  0  0  0  0
  -28.9000  -19.1110   20.0950 H   0  0  0  0  0  0  0  0  0  0  0  0
  -30.1410  -16.9950   20.8010 C   0  0  0  0  0  2  0  0  0  0  0  0
  -30.6700  -14.5240   20.5410 C   0  0  0  0  0  0  0  0  0  0  0  0
  -30.4290  -12.3490   19.4050 C   0  0  0  0  0  2  0  0  0  0  0  0
  -29.4830  -12.5160   18.1940 C   0  0  0  0  0  2  0  0  0  0  0  0
  -28.0070  -12.3700   18.6030 C   0  0  0  0  0  2  0  0  0  0  0  0
  -27.6450  -13.2130   19.8540 C   0  0  0  0  0  3  0  0  0  0  0  0
  -28.6860  -12.9960   20.9700 C   0  0  0  0  0  2  0  0  0  0  0  0
  -30.0220  -13.3250   20.4340 N   0  0  0  0  0  0  0  0  0  0  0  0
  -31.8040  -14.7030   20.0880 O   0  0  0  0  0  0  0  0  0  0  0  0
  -29.9370  -15.5440   21.0220 N   0  0  0  0  0  0  0  0  0  0  0  0
  -29.0830  -15.2820   21.4890 H   0  0  0  0  0  0  0  0  0  0  0  0
  -25.2470  -13.8140   20.5610 C   0  0  0  0  0  0  0  0  0  0  0  0
  -24.1740  -13.0360   20.9190 C   0  0  0  0  0  0  0  0  0  0  0  0
  -24.6290  -11.6840   20.8740 C   0  0  0  0  0  0  0  0  0  0  0  0
  -26.2890  -12.9320   20.3160 N   0  0  0  0  0  0  0  0  0  0  0  0
  -25.9230  -11.6430   20.5630 N   0  0  0  0  0  0  0  0  0  0  0  0
  -23.8990  -10.4220   21.0410 C   0  0  0  0  0  0  0  0  0  0  0  0
  -24.3550   -9.4160   21.9210 C   0  0  0  0  0  3  0  0  0  0  0  0
  -23.6240   -8.2180   22.0750 C   0  0  0  0  0  3  0  0  0  0  0  0
  -22.4280   -8.0190   21.3530 C   0  0  0  0  0  0  0  0  0  0  0  0
  -21.9870   -9.0140   20.4670 C   0  0  0  0  0  3  0  0  0  0  0  0
  -22.7110  -10.2040   20.3080 C   0  0  0  0  0  3  0  0  0  0  0  0
  -21.6620   -6.8760   21.4220 O   0  0  0  0  0  0  0  0  0  0  0  0
  -21.6840   -6.0630   22.5300 C   0  0  0  0  0  0  0  0  0  0  0  0
  -21.4000   -6.5560   23.8200 C   0  0  0  0  0  3  0  0  0  0  0  0
  -21.3660   -5.6740   24.9190 C   0  0  0  0  0  3  0  0  0  0  0  0
  -21.6130   -4.3010   24.7270 C   0  0  0  0  0  0  0  0  0  0  0  0
  -21.8810   -3.8060   23.4360 C   0  0  0  0  0  3  0  0  0  0  0  0
  -21.9190   -4.6870   22.3430 C   0  0  0  0  0  0  0  0  0  0  0  0
  -22.1660   -4.2050   21.1010 F   0  0  0  0  0  0  0  0  0  0  0  0
  -21.5700   -3.4540   25.7770 F   0  0  0  0  0  0  0  0  0  0  0  0
  -22.7810  -13.5230   21.1930 C   0  0  0  0  0  0  0  0  0  0  0  0
  -22.0420  -12.8190   22.0450 N   0  0  0  0  0  0  0  0  0  0  0  0
  -22.3510  -14.5540   20.6780 O   0  0  0  0  0  0  0  0  0  0  0  0
  -22.4050  -11.9880   22.4880 H   0  0  0  0  0  0  0  0  0  0  0  0
  -21.1020  -13.1270   22.2680 H   0  0  0  0  0  0  0  0  0  0  0  0
  -25.4240  -15.1810   20.4020 N   0  0  0  0  0  0  0  0  0  0  0  0
  -24.6570  -15.8360   20.5120 H   0  0  0  0  0  0  0  0  0  0  0  0
  -26.2390  -15.5950   19.9660 H   0  0  0  0  0  0  0  0  0  0  0  0
  -34.8570  -16.6090   17.9720 C   0  0  0  0  0  2  0  0  0  0  0  0
  -33.8100  -18.3990   19.3810 C   0  0  0  0  0  0  0  0  0  0  0  0
  -34.8340  -17.6130   19.0360 N   0  0  0  0  0  0  0  0  0  0  0  0
  -32.7880  -18.5070   18.7010 O   0  0  0  0  0  0  0  0  0  0  0  0
  -35.6470  -17.6370   19.6330 H   0  0  0  0  0  0  0  0  0  0  0  0
  -33.9600  -19.1400   20.7190 C   0  0  0  0  0  2  0  0  0  0  0  0
  -32.5830  -21.2090   20.7500 C   0  0  0  0  0  0  0  0  0  0  0  0
  -32.7930  -19.9360   21.0910 N   0  0  0  0  0  0  0  0  0  0  0  0
  -33.3860  -21.8410   20.0590 O   0  0  0  0  0  0  0  0  0  0  0  0
  -32.0790  -19.4830   21.6420 H   0  0  0  0  0  0  0  0  0  0  0  0
  -31.3140  -21.8730   21.2720 C   0  0  0  0  0  2  0  0  0  0  0  0
  -30.1630  -21.2330   20.7180 O   0  0  0  0  0  0  0  0  0  0  0  0
  -28.9780  -21.9980   20.8890 C   0  0  0  0  0  2  0  0  0  0  0  0
  -28.8610  -23.0860   19.8020 C   0  0  0  0  0  2  0  0  0  0  0  0
  -28.5580  -24.4740   20.3830 C   0  0  0  0  0  2  0  0  0  0  0  0
  -28.6360  -25.5990   19.3410 C   0  0  0  0  0  2  0  0  0  0  0  0
  -28.4640  -26.8410   20.0140 O   0  0  0  0  0  0  0  0  0  0  0  0
  -24.6110  -31.8720   23.2100 C   0  0  0  0  0  0  0  0  0  0  0  0
  -27.2390  -27.4700   20.0560 C   0  0  0  0  0  0  0  0  0  0  0  0
  -23.3940  -30.4940   21.5580 C   0  0  0  0  0  3  0  0  0  0  0  0
  -24.8330  -28.9620   20.1180 C   0  0  0  0  0  0  0  0  0  0  0  0
  -25.9200  -30.8450   21.3530 C   0  0  0  0  0  2  0  0  0  0  0  0
  -25.9950  -29.4810   20.7010 C   0  0  0  0  0  0  0  0  0  0  0  0
  -27.1960  -28.7420   20.6630 C   0  0  0  0  0  3  0  0  0  0  0  0
  -26.0440  -26.9340   19.5170 C   0  0  0  0  0  3  0  0  0  0  0  0
  -24.8500  -27.6810   19.5360 C   0  0  0  0  0  3  0  0  0  0  0  0
  -23.5970  -29.8350   20.1690 C   0  0  0  0  0  2  0  0  0  0  0  0
  -24.6600  -31.0820   22.1000 N   0  0  0  0  0  0  0  0  0  0  0  0
  -23.5320  -32.1420   23.7550 O   0  0  0  0  0  0  0  0  0  0  0  0
  -22.7380  -29.4640   22.5030 C   0  0  0  0  0  0  0  0  0  0  0  0
  -21.4100  -29.3010   22.3800 N   0  0  0  0  0  0  0  0  0  0  0  0
  -23.4170  -28.8190   23.3030 O   0  0  0  0  0  0  0  0  0  0  0  0
  -20.9200  -29.8710   21.7050 H   0  0  0  0  0  0  0  0  0  0  0  0
  -18.0280  -28.1350   22.8550 C   0  0  0  0  0  0  0  0  0  0  0  0
  -20.5870  -28.3640   23.1390 C   0  0  0  0  0  3  0  0  0  0  0  0
  -20.6780  -26.9390   22.5450 C   0  0  0  0  0  2  0  0  0  0  0  0
  -19.5750  -26.6390   21.5240 C   0  0  0  0  0  2  0  0  0  0  0  0
  -18.1910  -26.7910   22.1650 C   0  0  0  0  0  2  0  0  0  0  0  0
  -19.1520  -28.8800   23.2970 C   0  0  0  0  0  0  0  0  0  0  0  0
  -18.9430  -30.1400   23.8990 C   0  0  0  0  0  3  0  0  0  0  0  0
  -17.6430  -30.6580   24.0560 C   0  0  0  0  0  3  0  0  0  0  0  0
  -16.5330  -29.9080   23.6320 C   0  0  0  0  0  3  0  0  0  0  0  0
  -16.7240  -28.6480   23.0370 C   0  0  0  0  0  3  0  0  0  0  0  0
  -25.9020  -32.4810   23.8380 C   0  0  0  0  0  3  0  0  0  0  0  0
  -26.4460  -31.6560   25.0690 C   0  0  1  0  0  0  0  0  0  0  0  0
  -25.3740  -31.3740   26.1470 C   0  0  0  0  0  1  0  0  0  0  0  0
  -27.0210  -30.2980   24.5990 C   0  0  0  0  0  1  0  0  0  0  0  0
  -27.6010  -32.4280   25.7470 C   0  0  0  0  0  1  0  0  0  0  0  0
  -25.5880  -33.8600   24.2330 N   0  0  0  0  0  0  0  0  0  0  0  0
  -25.9020  -34.9470   23.5130 C   0  0  0  0  0  0  0  0  0  0  0  0
  -26.5580  -34.8940   22.4700 O   0  0  0  0  0  0  0  0  0  0  0  0
  -25.0020  -33.9760   25.0460 H   0  0  0  0  0  0  0  0  0  0  0  0
  -24.1490  -36.7330   23.2630 C   0  0  0  0  0  1  0  0  0  0  0  0
  -25.4090  -36.3110   24.0350 C   0  0  0  0  0  3  0  0  0  0  0  0
  -27.5600  -37.1810   24.8450 C   0  0  0  0  0  1  0  0  0  0  0  0
  -26.4290  -37.3780   23.9440 N   0  0  0  0  0  0  0  0  0  0  0  0
  -26.0160  -38.2870   24.1410 H   0  0  0  0  0  0  0  0  0  0  0  0
  1 59  1  0
  2  4  1  0
  2  1  1  0
  3  1  2  0
  5  2  1  0
  6  5  1  0
  6  7  1  0
  8  7  1  0
  8  9  1  0
  9 10  1  0
 10 12  1  0
 11 13  2  0
 11 15  1  0
 12 11  1  0
 14 12  1  0
 15 17  1  0
 16 20  1  0
 17 16  1  0
 17 19  1  0
 18 16  2  0
 20 29  1  0
 21 29  1  0
 22 27  1  0
 23 24  1  0
 23 22  1  0
 25 24  1  0
 25 34  1  0
 25 26  1  0
 27 21  1  0
 27 26  1  0
 28 21  2  0
 29 30  1  0
 31 32  2  0
 32 51  1  0
 33 32  1  0
 33 36  1  0
 34 31  1  0
 34 35  1  0
 35 33  2  0
 36 37  1  0
 37 38  2  0
 39 42  1  0
 39 38  1  0
 40 39  2  0
 41 40  1  0
 41 36  2  0
 42 43  1  0
 43 44  1  0
 44 45  2  0
 46 45  1  0
 46 50  1  0
 47 46  2  0
 48 43  2  0
 48 47  1  0
 49 48  1  0
 51 52  1  0
 52 55  1  0
 52 54  1  0
 53 51  2  0
 56 57  1  0
 56 31  1  0
 58 56  1  0
 59 61  1  0
 60 64  1  0
 61 60  1  0
 61 63  1  0
 62 60  2  0
 64 66  1  0
 65 66  1  0
 65 69  1  0
 66 68  1  0
 67 65  2  0
 70 71  1  0
 70 69  1  0
 72 73  1  0
 72 71  1  0
 74 75  1  0
 74 73  1  0
 75 77  1  0
 76 87  2  0
 77 82  1  0
 78 86  1  0
 78 88  1  0
 79 85  1  0
 79 81  1  0
 80 86  1  0
 81 80  1  0
 82 81  2  0
 83 84  1  0
 83 77  2  0
 84 79  2  0
 85 78  1  0
 86 76  1  0
 88 90  2  0
 89 88  1  0
 91 89  1  0
 92101  2  0
 92 97  1  0
 93 89  1  0
 93 97  1  0
 94 93  1  0
 95 96  1  0
 95 94  1  0
 96 92  1  0
 97 98  2  0
 98 99  1  0
100 99  2  0
101100  1  0
102 76  1  0
102107  1  0
102103  1  0
103106  1  1
103104  1  0
105103  1  0
107110  1  0
108112  1  0
108107  1  0
109108  2  0
112111  1  0
114112  1  0
114115  1  0
114113  1  0
M  ISO  4  21 100  29 100  74 101  75 101
M  END
>  <TORSDO>  (69) 
F 36

>  <SCORE>  (69) 
-3.508

>  <name>  (69) 
72

>  <ligand_id>  (69) 
72

>  <original_smiles>  (69) 
[H]c1c([H])c([H])c2c(c1[H])C([H])([H])C([H])([H])C([H])([H])C2([H])N([H])C(=O)C1([H])N(C(=O)C([H])(N([H])C(=O)C([H])(N([H])C([H])([H])[H])C([H])([H])[H])C(C([H])([H])[H])(C([H])([H])[H])C([H])([H])[H])C([H])([H])c2c([H])c(OC([H])([H])C([H])([H])C([H])([H])C([H])([H])OC([H])([H])C(=O)N([H])C([H])([H])C(=O)N([H])C([H])([H])C(=O)N([H])C([H])([H])C([H])([H])C([H])([H])C([H])([H])C([H])([H])C([H])([H])N([H])C(=O)C([H])([H])N([H])C(=O)C([H])([H])N([H])C(=O)N3C([H])([H])C([H])([H])C([H])([H])C([H])(n4nc(-c5c([H])c([H])c(Oc6c([H])c([H])c(F)c([H])c6F)c([H])c5[H])c(C(=O)N([H])[H])c4N([H])[H])C3([H])[H])c([H])c([H])c2C1([H])[H]

>  <smiles>  (69) 
[H]c1c([H])c([H])c2c(c1[H])C([H])([H])C([H])([H])C([H])([H])C2([H])N([H])C(=O)C1([H])N(C(=O)C([H])(N([H])C(=O)C([H])(N([H])C([H])([H])[H])C([H])([H])[H])C(C([H])([H])[H])(C([H])([H])[H])C([H])([H])[H])C([H])([H])c2c([H])c(OC([H])([H])C([H])([H])C([H])([H])C([H])([H])OC([H])([H])C(=O)N([H])C([H])([H])C(=O)N([H])C([H])([H])C(=O)N([H])C([H])([H])C([H])([H])C([H])([H])C([H])([H])C([H])([H])C([H])([H])N([H])C(=O)C([H])([H])N([H])C(=O)C([H])([H])N([H])C(=O)N3C([H])([H])C([H])([H])C([H])([H])C([H])(n4nc(-c5c([H])c([H])c(Oc6c([H])c([H])c(F)c([H])c6F)c([H])c5[H])c(C(=O)N([H])[H])c4N([H])[H])C3([H])[H])c([H])c([H])c2C1([H])[H]

$$$$
73:0:0
     RDKit          3D

112119  0  0  1  0  0  0  0  0999 V2000
  -25.1030  -22.9610   19.7930 C   0  0  0  0  0  3  0  0  0  0  0  0
  -26.4750  -22.4850   19.2960 C   0  0  0  0  0  0  0  0  0  0  0  0
  -26.8280  -21.2230   19.5730 N   0  0  0  0  0  0  0  0  0  0  0  0
  -27.1960  -23.2500   18.6500 O   0  0  0  0  0  0  0  0  0  0  0  0
  -26.1740  -20.6520   20.0930 H   0  0  0  0  0  0  0  0  0  0  0  0
  -28.1090  -20.6050   19.2410 C   0  0  0  0  0  2  0  0  0  0  0  0
  -29.0650  -20.6570   20.4560 C   0  0  0  0  0  2  0  0  0  0  0  0
  -29.5540  -18.2010   20.6610 C   0  0  0  0  0  0  0  0  0  0  0  0
  -29.9370  -19.4890   20.6040 N   0  0  0  0  0  0  0  0  0  0  0  0
  -28.3890  -17.8480   20.4710 O   0  0  0  0  0  0  0  0  0  0  0  0
  -30.9110  -19.6980   20.7750 H   0  0  0  0  0  0  0  0  0  0  0  0
  -30.6140  -17.1540   21.0330 C   0  0  0  0  0  2  0  0  0  0  0  0
  -30.6620  -14.7810   20.2120 C   0  0  0  0  0  0  0  0  0  0  0  0
  -30.3030  -12.6250   19.0680 C   0  0  0  0  0  2  0  0  0  0  0  0
  -29.3250  -12.8240   17.8990 C   0  0  0  0  0  2  0  0  0  0  0  0
  -27.8760  -12.6290   18.3740 C   0  0  0  0  0  2  0  0  0  0  0  0
  -27.5630  -13.4420   19.6590 C   0  0  0  0  0  3  0  0  0  0  0  0
  -28.6710  -13.2980   20.7270 C   0  0  0  0  0  2  0  0  0  0  0  0
  -29.9620  -13.6150   20.1000 N   0  0  0  0  0  0  0  0  0  0  0  0
  -31.7450  -14.9570   19.6560 O   0  0  0  0  0  0  0  0  0  0  0  0
  -30.0780  -15.7830   20.8860 N   0  0  0  0  0  0  0  0  0  0  0  0
  -29.1330  -15.6580   21.2120 H   0  0  0  0  0  0  0  0  0  0  0  0
  -25.1930  -13.9520   20.5060 C   0  0  0  0  0  0  0  0  0  0  0  0
  -24.1640  -13.1410   20.8950 C   0  0  0  0  0  0  0  0  0  0  0  0
  -24.6540  -11.8030   20.7900 C   0  0  0  0  0  0  0  0  0  0  0  0
  -26.2450  -13.1080   20.1920 N   0  0  0  0  0  0  0  0  0  0  0  0
  -25.9290  -11.8080   20.4210 N   0  0  0  0  0  0  0  0  0  0  0  0
  -23.9610  -10.5180   20.9630 C   0  0  0  0  0  0  0  0  0  0  0  0
  -24.4060   -9.5660   21.9070 C   0  0  0  0  0  3  0  0  0  0  0  0
  -23.7200   -8.3420   22.0710 C   0  0  0  0  0  3  0  0  0  0  0  0
  -22.5680   -8.0660   21.2920 C   0  0  0  0  0  0  0  0  0  0  0  0
  -22.1380   -9.0130   20.3420 C   0  0  0  0  0  3  0  0  0  0  0  0
  -22.8260  -10.2270   20.1790 C   0  0  0  0  0  3  0  0  0  0  0  0
  -21.8470   -6.8970   21.3670 O   0  0  0  0  0  0  0  0  0  0  0  0
  -21.7010   -6.2130   22.5480 C   0  0  0  0  0  0  0  0  0  0  0  0
  -21.1090   -6.8050   23.6860 C   0  0  0  0  0  3  0  0  0  0  0  0
  -20.9210   -6.0430   24.8570 C   0  0  0  0  0  3  0  0  0  0  0  0
  -21.3140   -4.6910   24.8850 C   0  0  0  0  0  0  0  0  0  0  0  0
  -21.8940   -4.0970   23.7500 C   0  0  0  0  0  3  0  0  0  0  0  0
  -22.0870   -4.8580   22.5830 C   0  0  0  0  0  0  0  0  0  0  0  0
  -22.6300   -4.2760   21.4860 F   0  0  0  0  0  0  0  0  0  0  0  0
  -21.1210   -3.9580   26.0050 F   0  0  0  0  0  0  0  0  0  0  0  0
  -22.7740  -13.5750   21.2510 C   0  0  0  0  0  0  0  0  0  0  0  0
  -22.1140  -12.8500   22.1500 N   0  0  0  0  0  0  0  0  0  0  0  0
  -22.2750  -14.5870   20.7630 O   0  0  0  0  0  0  0  0  0  0  0  0
  -22.5230  -12.0290   22.5700 H   0  0  0  0  0  0  0  0  0  0  0  0
  -21.1800  -13.1250   22.4160 H   0  0  0  0  0  0  0  0  0  0  0  0
  -25.3200  -15.3340   20.3710 N   0  0  0  0  0  0  0  0  0  0  0  0
  -24.5380  -15.9600   20.5110 H   0  0  0  0  0  0  0  0  0  0  0  0
  -26.1610  -15.8090   20.0630 H   0  0  0  0  0  0  0  0  0  0  0  0
  -24.2380  -23.2990   18.6410 N   0  0  0  0  0  4  0  0  0  0  0  0
  -23.3070  -23.4790   18.9750 H   0  0  0  0  0  0  0  0  0  0  0  0
  -24.6210  -24.1470   18.2520 H   0  0  0  0  0  0  0  0  0  0  0  0
  -24.1850  -22.2650   17.5820 C   0  0  0  0  0  2  0  0  0  0  0  0
  -23.5240  -22.7580   16.2740 C   0  0  0  0  0  2  0  0  0  0  0  0
  -23.9540  -24.1510   15.7540 C   0  0  0  0  0  2  0  0  0  0  0  0
  -25.4350  -24.2130   15.3300 C   0  0  0  0  0  2  0  0  0  0  0  0
  -26.0020  -25.6310   15.1050 C   0  0  0  0  0  2  0  0  0  0  0  0
  -27.5430  -25.6670   15.1790 C   0  0  0  0  0  2  0  0  0  0  0  0
  -28.3650  -26.4500   17.3980 C   0  0  0  0  0  0  0  0  0  0  0  0
  -27.9590  -25.4830   16.5670 N   0  0  0  0  0  0  0  0  0  0  0  0
  -28.6580  -27.5860   17.0080 O   0  0  0  0  0  0  0  0  0  0  0  0
  -27.7430  -24.5860   17.0000 H   0  0  0  0  0  0  0  0  0  0  0  0
  -28.3930  -26.0930   18.8960 C   0  0  0  0  0  2  0  0  0  0  0  0
  -28.2820  -27.2580   19.7140 O   0  0  0  0  0  0  0  0  0  0  0  0
  -24.5770  -31.9850   23.4870 C   0  0  0  0  0  0  0  0  0  0  0  0
  -27.0600  -27.8870   19.8510 C   0  0  0  0  0  0  0  0  0  0  0  0
  -23.2740  -30.7350   21.7900 C   0  0  0  0  0  3  0  0  0  0  0  0
  -24.6500  -29.3360   20.1620 C   0  0  0  0  0  0  0  0  0  0  0  0
  -25.7860  -31.1250   21.4890 C   0  0  0  0  0  2  0  0  0  0  0  0
  -25.8360  -29.8220   20.7200 C   0  0  0  0  0  0  0  0  0  0  0  0
  -27.0390  -29.1030   20.5630 C   0  0  0  0  0  3  0  0  0  0  0  0
  -25.8470  -27.3930   19.3130 C   0  0  0  0  0  3  0  0  0  0  0  0
  -24.6490  -28.1190   19.4590 C   0  0  0  0  0  3  0  0  0  0  0  0
  -23.4100  -30.1810   20.3420 C   0  0  0  0  0  2  0  0  0  0  0  0
  -24.5660  -31.2900   22.3130 N   0  0  0  0  0  0  0  0  0  0  0  0
  -23.5290  -32.1960   24.1140 O   0  0  0  0  0  0  0  0  0  0  0  0
  -22.6790  -29.6280   22.6870 C   0  0  0  0  0  0  0  0  0  0  0  0
  -21.3660  -29.3850   22.5420 N   0  0  0  0  0  0  0  0  0  0  0  0
  -23.3910  -28.9980   23.4700 O   0  0  0  0  0  0  0  0  0  0  0  0
  -20.8470  -29.9640   21.8950 H   0  0  0  0  0  0  0  0  0  0  0  0
  -18.0820  -27.9110   22.8440 C   0  0  0  0  0  0  0  0  0  0  0  0
  -20.5940  -28.3610   23.2470 C   0  0  0  0  0  3  0  0  0  0  0  0
  -20.8370  -26.9560   22.6450 C   0  0  0  0  0  2  0  0  0  0  0  0
  -19.8140  -26.5750   21.5700 C   0  0  0  0  0  2  0  0  0  0  0  0
  -18.3950  -26.5960   22.1480 C   0  0  0  0  0  2  0  0  0  0  0  0
  -19.1140  -28.7470   23.3460 C   0  0  0  0  0  0  0  0  0  0  0  0
  -18.7680  -29.9720   23.9510 C   0  0  0  0  0  3  0  0  0  0  0  0
  -17.4220  -30.3700   24.0580 C   0  0  0  0  0  3  0  0  0  0  0  0
  -16.4020  -29.5290   23.5770 C   0  0  0  0  0  3  0  0  0  0  0  0
  -16.7320  -28.3010   22.9770 C   0  0  0  0  0  3  0  0  0  0  0  0
  -25.8960  -32.5600   24.0920 C   0  0  0  0  0  3  0  0  0  0  0  0
  -25.6580  -33.9700   24.4130 N   0  0  0  0  0  0  0  0  0  0  0  0
  -26.0480  -35.0040   23.6540 C   0  0  0  0  0  0  0  0  0  0  0  0
  -26.7210  -34.8620   22.6270 O   0  0  0  0  0  0  0  0  0  0  0  0
  -25.0680  -34.1540   25.2110 H   0  0  0  0  0  0  0  0  0  0  0  0
  -24.4060  -36.8780   23.2820 C   0  0  0  0  0  1  0  0  0  0  0  0
  -25.6240  -36.4160   24.1000 C   0  0  0  0  0  3  0  0  0  0  0  0
  -27.7930  -37.2010   24.9390 C   0  0  0  0  0  1  0  0  0  0  0  0
  -26.7030  -37.4210   23.9920 N   0  0  0  0  0  0  0  0  0  0  0  0
  -26.3440  -38.3580   24.1450 H   0  0  0  0  0  0  0  0  0  0  0  0
  -26.3980  -31.7730   25.3650 C   0  0  1  0  0  0  0  0  0  0  0  0
  -25.3100  -31.5600   26.4410 C   0  0  0  0  0  1  0  0  0  0  0  0
  -26.9420  -30.3820   24.9650 C   0  0  0  0  0  1  0  0  0  0  0  0
  -27.5700  -32.5350   26.0270 C   0  0  0  0  0  1  0  0  0  0  0  0
  -24.8010  -24.1490   22.0180 C   0  0  0  0  0  3  0  0  0  0  0  0
  -25.1880  -24.1550   20.7290 C   0  0  0  0  0  3  0  0  0  0  0  0
  -24.9420  -25.3400   22.8300 C   0  0  0  0  0  0  0  0  0  0  0  0
  -24.6790  -25.1160   24.1080 N   0  0  0  0  0  0  0  0  0  0  0  0
  -25.2680  -26.4560   22.4270 O   0  0  0  0  0  0  0  0  0  0  0  0
  -24.4490  -24.1870   24.4340 H   0  0  0  0  0  0  0  0  0  0  0  0
  -24.7380  -25.8690   24.7780 H   0  0  0  0  0  0  0  0  0  0  0  0
  1107  1  0
  2  3  1  0
  2  1  1  0
  3  5  1  0
  4  2  2  0
  6  3  1  0
  6  7  1  0
  7  9  1  0
  8 12  1  0
  9  8  1  0
  9 11  1  0
 10  8  2  0
 13 21  1  0
 14 19  1  0
 15 16  1  0
 15 14  1  0
 17 16  1  0
 17 26  1  0
 17 18  1  0
 19 13  1  0
 19 18  1  0
 20 13  2  0
 21 12  1  0
 21 22  1  0
 23 24  2  0
 24 43  1  0
 25 24  1  0
 25 28  1  0
 26 27  1  0
 26 23  1  0
 27 25  2  0
 28 29  1  0
 29 30  2  0
 31 34  1  0
 31 30  1  0
 32 31  2  0
 33 32  1  0
 33 28  2  0
 34 35  1  0
 35 40  2  0
 35 36  1  0
 36 37  2  0
 37 38  1  0
 38 42  1  0
 39 38  2  0
 40 39  1  0
 41 40  1  0
 43 44  1  0
 44 47  1  0
 44 46  1  0
 45 43  2  0
 48 23  1  0
 48 49  1  0
 50 48  1  0
 51 52  1  0
 51  1  1  0
 53 51  1  0
 54 51  1  0
 55 54  1  0
 56 55  1  0
 57 56  1  0
 58 59  1  0
 58 57  1  0
 59 61  1  0
 60 64  1  0
 61 63  1  0
 61 60  1  0
 62 60  2  0
 64 65  1  0
 65 67  1  0
 66 77  2  0
 67 72  1  0
 68 76  1  0
 68 78  1  0
 69 75  1  0
 69 71  1  0
 70 76  1  0
 71 70  1  0
 72 71  2  0
 73 74  1  0
 73 67  2  0
 74 69  2  0
 75 68  1  0
 76 66  1  0
 78 80  2  0
 79 78  1  0
 81 79  1  0
 82 91  2  0
 82 87  1  0
 83 79  1  0
 83 87  1  0
 84 83  1  0
 85 86  1  0
 85 84  1  0
 86 82  1  0
 87 88  2  0
 88 89  1  0
 90 89  2  0
 91 90  1  0
 92 66  1  0
 92 93  1  0
 92102  1  0
 93 96  1  0
 94 98  1  0
 94 93  1  0
 95 94  2  0
 98 97  1  0
100 98  1  0
100101  1  0
100 99  1  0
102105  1  1
102103  1  0
104102  1  0
106108  1  0
107106  2  0
108109  1  0
109111  1  0
109112  1  0
110108  2  0
M  ISO  4  13 100  21 100  64 101  65 101
M  END
>  <TORSDO>  (70) 
F 32

>  <SCORE>  (70) 
-10.505

>  <name>  (70) 
73

>  <ligand_id>  (70) 
73

>  <original_smiles>  (70) 
[H]C(C(=O)N([H])[H])=C([H])C([H])(C(=O)N([H])C([H])([H])C([H])([H])N([H])C(=O)C([H])([H])N([H])C(=O)N1C([H])([H])C([H])([H])C([H])([H])C([H])(n2nc(-c3c([H])c([H])c(Oc4c([H])c([H])c(F)c([H])c4F)c([H])c3[H])c(C(=O)N([H])[H])c2N([H])[H])C1([H])[H])[N+]([H])([H])C([H])([H])C([H])([H])C([H])([H])C([H])([H])C([H])([H])C([H])([H])N([H])C(=O)C([H])([H])Oc1c([H])c([H])c2c(c1[H])C([H])([H])N(C(=O)C([H])(N([H])C(=O)C([H])(N([H])C([H])([H])[H])C([H])([H])[H])C(C([H])([H])[H])(C([H])([H])[H])C([H])([H])[H])C([H])(C(=O)N([H])C1([H])c3c([H])c([H])c([H])c([H])c3C([H])([H])C([H])([H])C1([H])[H])C2([H])[H]

>  <smiles>  (70) 
[H]C(C(=O)N([H])[H])=C([H])C([H])(C(=O)N([H])C([H])([H])C([H])([H])N([H])C(=O)C([H])([H])N([H])C(=O)N1C([H])([H])C([H])([H])C([H])([H])C([H])(n2nc(-c3c([H])c([H])c(Oc4c([H])c([H])c(F)c([H])c4F)c([H])c3[H])c(C(=O)N([H])[H])c2N([H])[H])C1([H])[H])[N+]([H])([H])C([H])([H])C([H])([H])C([H])([H])C([H])([H])C([H])([H])C([H])([H])N([H])C(=O)C([H])([H])Oc1c([H])c([H])c2c(c1[H])C([H])([H])N(C(=O)C([H])(N([H])C(=O)C([H])(N([H])C([H])([H])[H])C([H])([H])[H])C(C([H])([H])[H])(C([H])([H])[H])C([H])([H])[H])C([H])(C(=O)N([H])C1([H])c3c([H])c([H])c([H])c([H])c3C([H])([H])C([H])([H])C1([H])[H])C2([H])[H]

$$$$
74:0:0
     RDKit          3D

106113  0  0  1  0  0  0  0  0999 V2000
  -24.5770  -30.7920   20.0050 C   0  0  0  0  0  0  0  0  0  0  0  0
  -25.3850  -30.2260   18.8770 N   0  0  0  0  0  0  0  0  0  0  0  0
  -23.4200  -31.0900   19.7250 O   0  0  0  0  0  0  0  0  0  0  0  0
  -26.3500  -30.1140   19.1560 H   0  0  0  0  0  0  0  0  0  0  0  0
  -25.1820  -29.5290   17.3450 C   0  0  0  0  0  2  0  0  0  0  0  0
  -26.3100  -29.0990   15.9570 C   0  0  0  0  0  2  0  0  0  0  0  0
  -26.7480  -27.6000   15.0030 C   0  0  0  0  0  2  0  0  0  0  0  0
  -28.1360  -27.0070   13.9670 C   0  0  0  0  0  2  0  0  0  0  0  0
  -29.4770  -24.3700   13.0630 C   0  0  0  0  0  0  0  0  0  0  0  0
  -28.5520  -25.4460   13.5460 N   0  0  0  0  0  0  0  0  0  0  0  0
  -29.4620  -23.4700   13.9020 O   0  0  0  0  0  0  0  0  0  0  0  0
  -28.1510  -24.9410   14.3300 H   0  0  0  0  0  0  0  0  0  0  0  0
  -30.3250  -23.9320   11.7390 C   0  0  0  0  0  2  0  0  0  0  0  0
  -31.0550  -22.7450   11.1910 C   0  0  0  0  0  3  0  0  0  0  0  0
  -32.2970  -22.2810   10.0360 C   0  0  0  0  0  3  0  0  0  0  0  0
  -33.9980  -20.2770    8.6340 C   0  0  0  0  0  0  0  0  0  0  0  0
  -34.5210  -18.1480    7.2580 C   0  0  0  0  0  2  0  0  0  0  0  0
  -33.3780  -17.1070    7.2850 C   0  0  0  0  0  2  0  0  0  0  0  0
  -33.5370  -16.1680    8.4930 C   0  0  0  0  0  2  0  0  0  0  0  0
  -33.8840  -16.9380    9.7930 C   0  0  0  0  0  3  0  0  0  0  0  0
  -34.9770  -18.0100    9.5840 C   0  0  0  0  0  2  0  0  0  0  0  0
  -34.4700  -18.9320    8.5410 N   0  0  0  0  0  0  0  0  0  0  0  0
  -34.2560  -20.9330    7.6100 O   0  0  0  0  0  0  0  0  0  0  0  0
  -33.0910  -20.8340    9.6780 N   0  0  0  0  0  0  0  0  0  0  0  0
  -32.9450  -20.1520   10.4100 H   0  0  0  0  0  0  0  0  0  0  0  0
  -33.6150  -16.1180   12.1920 C   0  0  0  0  0  0  0  0  0  0  0  0
  -34.0560  -14.9910   12.8510 C   0  0  0  0  0  0  0  0  0  0  0  0
  -34.8630  -14.2850   11.9130 C   0  0  0  0  0  0  0  0  0  0  0  0
  -34.1520  -16.0430   10.9180 N   0  0  0  0  0  0  0  0  0  0  0  0
  -34.9620  -14.9610   10.7720 N   0  0  0  0  0  0  0  0  0  0  0  0
  -35.5040  -12.9620   12.0220 C   0  0  0  0  0  0  0  0  0  0  0  0
  -36.8840  -12.7870   11.7910 C   0  0  0  0  0  3  0  0  0  0  0  0
  -37.4750  -11.5110   11.9240 C   0  0  0  0  0  3  0  0  0  0  0  0
  -36.6860  -10.3980   12.2960 C   0  0  0  0  0  0  0  0  0  0  0  0
  -35.3060  -10.5740   12.5000 C   0  0  0  0  0  3  0  0  0  0  0  0
  -34.7180  -11.8440   12.3640 C   0  0  0  0  0  3  0  0  0  0  0  0
  -37.1680   -9.1150   12.4230 O   0  0  0  0  0  0  0  0  0  0  0  0
  -38.4760   -8.8710   12.7580 C   0  0  0  0  0  0  0  0  0  0  0  0
  -39.0420   -9.3580   13.9560 C   0  0  0  0  0  3  0  0  0  0  0  0
  -40.3680   -9.0230   14.2950 C   0  0  0  0  0  3  0  0  0  0  0  0
  -41.1280   -8.1980   13.4430 C   0  0  0  0  0  0  0  0  0  0  0  0
  -40.5630   -7.7080   12.2520 C   0  0  0  0  0  3  0  0  0  0  0  0
  -39.2410   -8.0430   11.9120 C   0  0  0  0  0  0  0  0  0  0  0  0
  -38.6970   -7.5500   10.7730 F   0  0  0  0  0  0  0  0  0  0  0  0
  -42.3990   -7.8710   13.7730 F   0  0  0  0  0  0  0  0  0  0  0  0
  -33.6520  -14.5660   14.2290 C   0  0  0  0  0  0  0  0  0  0  0  0
  -34.5550  -13.8970   14.9450 N   0  0  0  0  0  0  0  0  0  0  0  0
  -32.5620  -14.8690   14.7010 O   0  0  0  0  0  0  0  0  0  0  0  0
  -35.4570  -13.6700   14.5650 H   0  0  0  0  0  0  0  0  0  0  0  0
  -34.3290  -13.6090   15.8840 H   0  0  0  0  0  0  0  0  0  0  0  0
  -32.7870  -17.1630   12.5610 N   0  0  0  0  0  0  0  0  0  0  0  0
  -32.3450  -17.2080   13.4740 H   0  0  0  0  0  0  0  0  0  0  0  0
  -32.4930  -17.9150   11.9500 H   0  0  0  0  0  0  0  0  0  0  0  0
  -24.9550  -31.1740   21.6950 C   0  0  0  0  0  2  0  0  0  0  0  0
  -24.3930  -30.8120   23.4650 C   0  0  0  0  0  3  0  0  0  0  0  0
  -24.8100  -29.8040   25.0560 C   0  0  0  0  0  3  0  0  0  0  0  0
  -25.9370  -28.4340   25.7130 C   0  0  0  0  0  2  0  0  0  0  0  0
  -26.3620  -26.6760   25.7520 C   0  0  0  0  0  2  0  0  0  0  0  0
  -27.7530  -25.4810   25.8030 C   0  0  0  0  0  2  0  0  0  0  0  0
  -28.7850  -24.3860   24.7070 C   0  0  0  0  0  2  0  0  0  0  0  0
  -29.2160  -23.4620   21.9350 C   0  0  0  0  0  0  0  0  0  0  0  0
  -28.5400  -23.6910   23.2070 N   0  0  0  0  0  0  0  0  0  0  0  0
  -30.4480  -23.4510   21.9570 O   0  0  0  0  0  0  0  0  0  0  0  0
  -27.5440  -23.5720   23.0660 H   0  0  0  0  0  0  0  0  0  0  0  0
  -28.4690  -23.2900   20.4100 C   0  0  0  0  0  2  0  0  0  0  0  0
  -29.0560  -23.5020   18.9150 O   0  0  0  0  0  0  0  0  0  0  0  0
  -26.6250  -28.1370   21.7100 C   0  0  0  0  0  0  0  0  0  0  0  0
  -28.2600  -24.3300   18.1310 C   0  0  0  0  0  3  0  0  0  0  0  0
  -24.9760  -27.2900   20.0960 C   0  0  0  0  0  3  0  0  0  0  0  0
  -26.0550  -26.0350   18.2220 C   0  0  0  0  0  0  0  0  0  0  0  0
  -27.5050  -27.2140   19.8620 C   0  0  0  0  0  2  0  0  0  0  0  0
  -27.3040  -26.3120   18.7820 C   0  0  0  0  0  0  0  0  0  0  0  0
  -28.4520  -25.6070   18.5360 C   0  0  0  0  0  2  0  0  0  0  0  0
  -27.0490  -23.9980   17.4420 C   0  0  0  0  0  3  0  0  0  0  0  0
  -25.9600  -24.9120   17.3890 C   0  0  0  0  0  3  0  0  0  0  0  0
  -24.8820  -26.8890   18.6120 C   0  0  0  0  0  2  0  0  0  0  0  0
  -26.3560  -27.6650   20.5230 N   0  0  0  0  0  0  0  0  0  0  0  0
  -25.6340  -28.0700   22.4270 O   0  0  0  0  0  0  0  0  0  0  0  0
  -24.3940  -26.1340   20.9310 C   0  0  0  0  0  0  0  0  0  0  0  0
  -23.0640  -26.0920   20.9990 N   0  0  0  0  0  0  0  0  0  0  0  0
  -25.1240  -25.3120   21.4900 O   0  0  0  0  0  0  0  0  0  0  0  0
  -22.5410  -26.8490   20.5750 H   0  0  0  0  0  0  0  0  0  0  0  0
  -19.7390  -24.8570   21.4360 C   0  0  0  0  0  0  0  0  0  0  0  0
  -22.2980  -25.0420   21.6460 C   0  0  0  0  0  3  0  0  0  0  0  0
  -22.3540  -23.7470   20.8080 C   0  0  0  0  0  2  0  0  0  0  0  0
  -21.2150  -23.6330   19.7920 C   0  0  0  0  0  2  0  0  0  0  0  0
  -19.8680  -23.6600   20.5130 C   0  0  0  0  0  2  0  0  0  0  0  0
  -20.8800  -25.5210   21.9560 C   0  0  0  0  0  0  0  0  0  0  0  0
  -20.7000  -26.6520   22.7820 C   0  0  0  0  0  3  0  0  0  0  0  0
  -19.4100  -27.1220   23.0870 C   0  0  0  0  0  3  0  0  0  0  0  0
  -18.2810  -26.4510   22.5780 C   0  0  0  0  0  3  0  0  0  0  0  0
  -18.4500  -25.3150   21.7670 C   0  0  0  0  0  3  0  0  0  0  0  0
  -28.1220  -28.5820   22.1950 C   0  0  0  0  0  3  0  0  0  0  0  0
  -28.2680  -29.4390   23.4160 N   0  0  0  0  0  0  0  0  0  0  0  0
  -28.5290  -30.7390   23.6500 C   0  0  0  0  0  0  0  0  0  0  0  0
  -29.1310  -31.4000   22.8230 O   0  0  0  0  0  0  0  0  0  0  0  0
  -27.8130  -28.9890   24.1960 H   0  0  0  0  0  0  0  0  0  0  0  0
  -27.0350  -32.5040   24.9470 C   0  0  0  0  0  1  0  0  0  0  0  0
  -28.1470  -31.4280   25.0050 C   0  0  0  0  0  3  0  0  0  0  0  0
  -30.4040  -31.4120   25.9710 C   0  0  0  0  0  1  0  0  0  0  0  0
  -29.2710  -32.1970   25.5460 N   0  0  0  0  0  0  0  0  0  0  0  0
  -28.9650  -32.7950   26.3070 H   0  0  0  0  0  0  0  0  0  0  0  0
  -28.9600  -27.2640   22.3430 C   0  0  1  0  0  0  0  0  0  0  0  0
  -27.9210  -26.0260   22.1070 C   0  0  0  0  0  1  0  0  0  0  0  0
  -29.9230  -27.1180   21.1810 C   0  0  0  0  0  1  0  0  0  0  0  0
  -30.0820  -27.4700   23.4580 C   0  0  0  0  0  1  0  0  0  0  0  0
  1 54  1  0
  2  4  1  0
  2  1  1  0
  3  1  2  0
  5  2  1  0
  6  5  1  0
  7  6  1  0
  8  7  1  0
  9 10  1  0
  9 11  2  0
 10  8  1  0
 10 12  1  0
 13  9  1  0
 14 13  1  0
 15 14  2  0
 16 24  1  0
 17 18  1  0
 17 22  1  0
 18 19  1  0
 20 19  1  0
 20 29  1  0
 21 20  1  0
 22 16  1  0
 22 21  1  0
 23 16  2  0
 24 15  1  0
 24 25  1  0
 26 51  1  0
 26 27  2  0
 27 46  1  0
 28 31  1  0
 28 27  1  0
 29 26  1  0
 30 29  1  0
 30 28  2  0
 31 36  1  0
 32 33  1  0
 32 31  2  0
 33 34  2  0
 34 37  1  0
 34 35  1  0
 36 35  2  0
 37 38  1  0
 38 39  1  0
 39 40  2  0
 41 45  1  0
 41 40  1  0
 42 41  2  0
 43 42  1  0
 43 38  2  0
 44 43  1  0
 46 48  2  0
 46 47  1  0
 47 50  1  0
 49 47  1  0
 51 52  1  0
 53 51  1  0
 54 55  1  0
 55 56  2  0
 56 57  1  0
 57 58  1  0
 58 59  1  0
 60 59  1  0
 61 63  2  0
 61 62  1  0
 62 60  1  0
 64 62  1  0
 65 61  1  0
 66 65  1  0
 67 78  2  0
 68 73  1  0
 68 66  1  0
 69 77  1  0
 69 79  1  0
 70 76  1  0
 70 72  2  0
 71 77  1  0
 72 71  1  0
 73 72  1  0
 74 68  1  0
 75 74  2  0
 75 70  1  0
 76 69  1  0
 77 67  1  0
 79 80  1  0
 79 81  2  0
 82 80  1  0
 83 92  2  0
 83 88  1  0
 84 80  1  0
 84 88  1  0
 85 84  1  0
 86 87  1  0
 86 85  1  0
 87 83  1  0
 88 89  2  0
 89 90  1  0
 91 90  2  0
 92 91  1  0
 93 67  1  0
 93103  1  0
 93 94  1  0
 94 95  1  0
 94 97  1  0
 95 99  1  0
 96 95  2  0
 99 98  1  0
 99101  1  0
101100  1  0
101102  1  0
103106  1  1
104103  1  0
105103  1  0
M  ISO  4  16 100  24 100  65 101  66 101
M  END
>  <TORSDO>  (71) 
F 32

>  <SCORE>  (71) 
-2.479

>  <name>  (71) 
74

>  <ligand_id>  (71) 
74

>  <original_smiles>  (71) 
[H]C(C(=O)N([H])C([H])([H])C([H])([H])C([H])([H])C([H])([H])N([H])C(=O)C([H])([H])C([H])([H])C([H])([H])C([H])([H])C([H])([H])C([H])([H])C([H])([H])N([H])C(=O)C([H])([H])Oc1c([H])c([H])c2c(c1[H])C([H])([H])N(C(=O)C([H])(N([H])C(=O)C([H])(N([H])C([H])([H])[H])C([H])([H])[H])C(C([H])([H])[H])(C([H])([H])[H])C([H])([H])[H])C([H])(C(=O)N([H])C1([H])c3c([H])c([H])c([H])c([H])c3C([H])([H])C([H])([H])C1([H])[H])C2([H])[H])=C([H])C([H])([H])N([H])C(=O)N1C([H])([H])C([H])([H])C([H])([H])C([H])(n2nc(-c3c([H])c([H])c(Oc4c([H])c([H])c(F)c([H])c4F)c([H])c3[H])c(C(=O)N([H])[H])c2N([H])[H])C1([H])[H]

>  <smiles>  (71) 
[H]C(C(=O)N([H])C([H])([H])C([H])([H])C([H])([H])C([H])([H])N([H])C(=O)C([H])([H])C([H])([H])C([H])([H])C([H])([H])C([H])([H])C([H])([H])C([H])([H])N([H])C(=O)C([H])([H])Oc1c([H])c([H])c2c(c1[H])C([H])([H])N(C(=O)C([H])(N([H])C(=O)C([H])(N([H])C([H])([H])[H])C([H])([H])[H])C(C([H])([H])[H])(C([H])([H])[H])C([H])([H])[H])C([H])(C(=O)N([H])C1([H])c3c([H])c([H])c([H])c([H])c3C([H])([H])C([H])([H])C1([H])[H])C2([H])[H])=C([H])C([H])([H])N([H])C(=O)N1C([H])([H])C([H])([H])C([H])([H])C([H])(n2nc(-c3c([H])c([H])c(Oc4c([H])c([H])c(F)c([H])c4F)c([H])c3[H])c(C(=O)N([H])[H])c2N([H])[H])C1([H])[H]

$$$$
75:0:0
     RDKit          3D

111118  0  0  1  0  0  0  0  0999 V2000
  -18.7860  -16.2030   19.6510 C   0  0  0  0  0  0  0  0  0  0  0  0
  -17.6680  -16.9360   19.5840 N   0  0  0  0  0  0  0  0  0  0  0  0
  -19.4490  -16.0750   20.6810 O   0  0  0  0  0  0  0  0  0  0  0  0
  -17.1850  -16.9470   18.6940 H   0  0  0  0  0  0  0  0  0  0  0  0
  -17.1980  -17.8700   20.6030 C   0  0  0  0  0  2  0  0  0  0  0  0
  -16.9640  -19.2500   19.9630 C   0  0  0  0  0  2  0  0  0  0  0  0
  -16.9440  -20.4210   20.9570 C   0  0  0  0  0  2  0  0  0  0  0  0
  -17.2180  -21.7650   20.2600 C   0  0  0  0  0  2  0  0  0  0  0  0
  -18.3120  -22.5930   20.9500 C   0  0  0  0  0  2  0  0  0  0  0  0
  -19.2830  -23.2800   19.9670 C   0  0  0  0  0  2  0  0  0  0  0  0
  -20.7610  -22.9610   20.2810 C   0  0  0  0  0  2  0  0  0  0  0  0
  -21.7310  -24.1300   20.0680 C   0  0  0  0  0  2  0  0  0  0  0  0
  -23.1860  -23.8890   18.0590 C   0  0  0  0  0  0  0  0  0  0  0  0
  -22.0700  -24.3310   18.6600 N   0  0  0  0  0  0  0  0  0  0  0  0
  -23.9290  -23.0470   18.5700 O   0  0  0  0  0  0  0  0  0  0  0  0
  -21.5000  -24.9870   18.1410 H   0  0  0  0  0  0  0  0  0  0  0  0
  -23.5570  -24.5300   16.7050 C   0  0  0  0  0  2  0  0  0  0  0  0
  -24.3410  -25.7160   16.9010 O   0  0  0  0  0  0  0  0  0  0  0  0
  -25.3010  -28.5350   23.3430 C   0  0  0  0  0  0  0  0  0  0  0  0
  -23.9050  -26.6690   17.7990 C   0  0  0  0  0  0  0  0  0  0  0  0
  -23.2320  -29.2170   22.1650 C   0  0  0  0  0  3  0  0  0  0  0  0
  -23.0990  -28.5930   19.7030 C   0  0  0  0  0  0  0  0  0  0  0  0
  -25.3180  -28.5410   20.8510 C   0  0  0  0  0  2  0  0  0  0  0  0
  -24.3920  -28.0550   19.7570 C   0  0  0  0  0  0  0  0  0  0  0  0
  -24.7960  -27.0940   18.8070 C   0  0  0  0  0  3  0  0  0  0  0  0
  -22.6130  -27.2420   17.7500 C   0  0  0  0  0  3  0  0  0  0  0  0
  -22.2060  -28.1900   18.7020 C   0  0  0  0  0  3  0  0  0  0  0  0
  -22.7350  -29.6160   20.7500 C   0  0  0  0  0  2  0  0  0  0  0  0
  -24.6500  -28.7280   22.1600 N   0  0  0  0  0  0  0  0  0  0  0  0
  -24.7560  -28.8000   24.4230 O   0  0  0  0  0  0  0  0  0  0  0  0
  -22.2370  -28.2090   22.7780 C   0  0  0  0  0  0  0  0  0  0  0  0
  -20.9400  -28.5490   22.7290 N   0  0  0  0  0  0  0  0  0  0  0  0
  -22.6300  -27.1390   23.2540 O   0  0  0  0  0  0  0  0  0  0  0  0
  -20.7030  -29.4390   22.3130 H   0  0  0  0  0  0  0  0  0  0  0  0
  -17.3580  -28.1120   22.5310 C   0  0  0  0  0  0  0  0  0  0  0  0
  -19.8220  -27.7410   23.2150 C   0  0  0  0  0  3  0  0  0  0  0  0
  -19.7280  -26.4020   22.4470 C   0  0  0  0  0  2  0  0  0  0  0  0
  -18.7860  -26.4670   21.2410 C   0  0  0  0  0  2  0  0  0  0  0  0
  -17.3710  -26.8460   21.6880 C   0  0  0  0  0  2  0  0  0  0  0  0
  -18.5120  -28.5390   23.2360 C   0  0  0  0  0  0  0  0  0  0  0  0
  -18.4590  -29.7380   23.9830 C   0  0  0  0  0  3  0  0  0  0  0  0
  -17.2800  -30.5080   24.0240 C   0  0  0  0  0  3  0  0  0  0  0  0
  -16.1360  -30.0760   23.3350 C   0  0  0  0  0  3  0  0  0  0  0  0
  -16.1720  -28.8750   22.6000 C   0  0  0  0  0  3  0  0  0  0  0  0
  -26.7650  -27.9970   23.3920 C   0  0  0  0  0  3  0  0  0  0  0  0
  -26.8670  -26.5210   23.9410 C   0  0  1  0  0  0  0  0  0  0  0  0
  -26.1310  -26.3060   25.2830 C   0  0  0  0  0  1  0  0  0  0  0  0
  -26.2880  -25.5160   22.9170 C   0  0  0  0  0  1  0  0  0  0  0  0
  -28.3510  -26.1390   24.1460 C   0  0  0  0  0  1  0  0  0  0  0  0
  -27.5440  -28.9210   24.2250 N   0  0  0  0  0  0  0  0  0  0  0  0
  -28.3820  -29.8510   23.7450 C   0  0  0  0  0  0  0  0  0  0  0  0
  -28.6340  -29.9670   22.5420 O   0  0  0  0  0  0  0  0  0  0  0  0
  -27.3610  -28.9010   25.2180 H   0  0  0  0  0  0  0  0  0  0  0  0
  -28.3310  -32.1630   24.7240 C   0  0  0  0  0  1  0  0  0  0  0  0
  -29.0390  -30.7990   24.7620 C   0  0  0  0  0  3  0  0  0  0  0  0
  -31.2740  -29.7840   24.8120 C   0  0  0  0  0  1  0  0  0  0  0  0
  -30.4900  -30.9840   24.5400 N   0  0  0  0  0  0  0  0  0  0  0  0
  -30.8490  -31.7340   25.1240 H   0  0  0  0  0  0  0  0  0  0  0  0
  -19.2400  -15.5180   18.3530 C   0  0  0  0  0  2  0  0  0  0  0  0
  -21.7220  -15.4610   18.5840 C   0  0  0  0  0  0  0  0  0  0  0  0
  -20.5330  -14.8490   18.5200 N   0  0  0  0  0  0  0  0  0  0  0  0
  -21.8470  -16.6760   18.4040 O   0  0  0  0  0  0  0  0  0  0  0  0
  -20.5100  -13.8530   18.6820 H   0  0  0  0  0  0  0  0  0  0  0  0
  -22.9530  -14.6060   18.8940 C   0  0  0  0  0  2  0  0  0  0  0  0
  -25.3630  -15.1760   19.1860 C   0  0  0  0  0  0  0  0  0  0  0  0
  -24.0640  -15.4780   19.2650 N   0  0  0  0  0  0  0  0  0  0  0  0
  -25.7570  -14.1020   18.7280 O   0  0  0  0  0  0  0  0  0  0  0  0
  -23.7910  -16.3870   19.6200 H   0  0  0  0  0  0  0  0  0  0  0  0
  -26.3480  -16.2460   19.6940 C   0  0  0  0  0  2  0  0  0  0  0  0
  -27.8470  -16.0100   19.3730 C   0  0  0  0  0  2  0  0  0  0  0  0
  -28.7750  -16.3000   20.5720 C   0  0  0  0  0  2  0  0  0  0  0  0
  -30.2680  -16.0590   20.2800 C   0  0  0  0  0  2  0  0  0  0  0  0
  -31.0710  -15.5680   21.5110 C   0  0  0  0  0  2  0  0  0  0  0  0
  -31.3610  -13.1040   21.3820 C   0  0  0  0  0  0  0  0  0  0  0  0
  -30.7410  -11.3560   19.7980 C   0  0  0  0  0  2  0  0  0  0  0  0
  -29.8180  -12.0070   18.7440 C   0  0  0  0  0  2  0  0  0  0  0  0
  -28.3480  -11.9870   19.2060 C   0  0  0  0  0  2  0  0  0  0  0  0
  -28.1650  -12.4830   20.6650 C   0  0  0  0  0  3  0  0  0  0  0  0
  -29.1970  -11.8400   21.6230 C   0  0  0  0  0  2  0  0  0  0  0  0
  -30.5420  -12.0710   21.0670 N   0  0  0  0  0  0  0  0  0  0  0  0
  -32.5290  -13.1880   20.9920 O   0  0  0  0  0  0  0  0  0  0  0  0
  -30.7180  -14.1850   21.8490 N   0  0  0  0  0  0  0  0  0  0  0  0
  -29.7930  -14.0320   22.2170 H   0  0  0  0  0  0  0  0  0  0  0  0
  -25.8910  -13.2310   21.6070 C   0  0  0  0  0  0  0  0  0  0  0  0
  -24.7270  -12.5490   21.8300 C   0  0  0  0  0  0  0  0  0  0  0  0
  -24.9900  -11.1940   21.4710 C   0  0  0  0  0  0  0  0  0  0  0  0
  -26.7940  -12.2950   21.1280 N   0  0  0  0  0  0  0  0  0  0  0  0
  -26.2540  -11.0500   21.0980 N   0  0  0  0  0  0  0  0  0  0  0  0
  -24.0920  -10.0380   21.3980 C   0  0  0  0  0  0  0  0  0  0  0  0
  -24.3050   -8.8870   22.1870 C   0  0  0  0  0  3  0  0  0  0  0  0
  -23.4210   -7.7890   22.0990 C   0  0  0  0  0  3  0  0  0  0  0  0
  -22.3040   -7.8440   21.2330 C   0  0  0  0  0  0  0  0  0  0  0  0
  -22.1090   -8.9840   20.4360 C   0  0  0  0  0  3  0  0  0  0  0  0
  -22.9980  -10.0690   20.5110 C   0  0  0  0  0  3  0  0  0  0  0  0
  -21.4030   -6.8180   21.0750 O   0  0  0  0  0  0  0  0  0  0  0  0
  -21.0280   -6.0190   22.1260 C   0  0  0  0  0  0  0  0  0  0  0  0
  -20.4510   -6.5520   23.2990 C   0  0  0  0  0  3  0  0  0  0  0  0
  -20.0190   -5.6910   24.3250 C   0  0  0  0  0  3  0  0  0  0  0  0
  -20.1560   -4.2970   24.1800 C   0  0  0  0  0  0  0  0  0  0  0  0
  -20.7270   -3.7640   23.0120 C   0  0  0  0  0  3  0  0  0  0  0  0
  -21.1580   -4.6230   21.9860 C   0  0  0  0  0  0  0  0  0  0  0  0
  -21.6880   -4.1030   20.8520 F   0  0  0  0  0  0  0  0  0  0  0  0
  -19.7350   -3.4680   25.1630 F   0  0  0  0  0  0  0  0  0  0  0  0
  -23.4170  -13.1400   22.2650 C   0  0  0  0  0  0  0  0  0  0  0  0
  -22.5660  -12.3400   22.9040 N   0  0  0  0  0  0  0  0  0  0  0  0
  -23.1720  -14.3270   22.0800 O   0  0  0  0  0  0  0  0  0  0  0  0
  -22.7890  -11.3730   23.0830 H   0  0  0  0  0  0  0  0  0  0  0  0
  -21.6840  -12.7120   23.2270 H   0  0  0  0  0  0  0  0  0  0  0  0
  -26.2480  -14.5660   21.7580 N   0  0  0  0  0  0  0  0  0  0  0  0
  -25.5900  -15.2640   22.0830 H   0  0  0  0  0  0  0  0  0  0  0  0
  -27.1370  -14.9530   21.4790 H   0  0  0  0  0  0  0  0  0  0  0  0
  1  3  2  0
  2  1  1  0
  2  5  1  0
  4  2  1  0
  6  5  1  0
  6  7  1  0
  8  9  1  0
  8  7  1  0
 10 11  1  0
 10  9  1  0
 12 11  1  0
 13 15  2  0
 13 14  1  0
 14 12  1  0
 16 14  1  0
 17 18  1  0
 17 13  1  0
 18 20  1  0
 19 30  2  0
 20 25  1  0
 21 31  1  0
 22 24  1  0
 22 28  1  0
 23 29  1  0
 24 23  1  0
 25 24  2  0
 26 20  2  0
 26 27  1  0
 27 22  2  0
 28 21  1  0
 29 21  1  0
 29 19  1  0
 31 33  2  0
 32 31  1  0
 34 32  1  0
 35 44  2  0
 35 40  1  0
 36 32  1  0
 36 40  1  0
 37 36  1  0
 38 39  1  0
 38 37  1  0
 39 35  1  0
 40 41  2  0
 41 42  1  0
 43 42  2  0
 44 43  1  0
 45 19  1  0
 45 46  1  0
 45 50  1  0
 46 49  1  1
 46 47  1  0
 48 46  1  0
 50 53  1  0
 51 50  1  0
 51 55  1  0
 52 51  2  0
 55 54  1  0
 57 55  1  0
 57 56  1  0
 57 58  1  0
 59 61  1  0
 59  1  1  0
 60 64  1  0
 61 60  1  0
 61 63  1  0
 62 60  2  0
 64 66  1  0
 65 66  1  0
 65 69  1  0
 66 68  1  0
 67 65  2  0
 70 69  1  0
 70 71  1  0
 72 71  1  0
 72 73  1  0
 73 82  1  0
 74 82  1  0
 75 80  1  0
 76 77  1  0
 76 75  1  0
 78 77  1  0
 78 87  1  0
 78 79  1  0
 80 74  1  0
 80 79  1  0
 81 74  2  0
 82 83  1  0
 84109  1  0
 84 85  2  0
 85104  1  0
 86 85  1  0
 87 84  1  0
 88 87  1  0
 88 86  2  0
 89 86  1  0
 89 90  1  0
 91 90  2  0
 92 91  1  0
 93 94  1  0
 93 92  2  0
 94 89  2  0
 95 92  1  0
 95 96  1  0
 96 97  1  0
 97 98  2  0
 99 98  1  0
 99103  1  0
100 99  2  0
101 96  2  0
101100  1  0
102101  1  0
104105  1  0
105107  1  0
105108  1  0
106104  2  0
109110  1  0
111109  1  0
M  ISO  4  17 101  18 101  74 100  82 100
M  END
>  <TORSDO>  (72) 
F 35

>  <SCORE>  (72) 
30.509

>  <name>  (72) 
75

>  <ligand_id>  (72) 
75

>  <original_smiles>  (72) 
[H]c1c([H])c([H])c2c(c1[H])C([H])([H])C([H])([H])C([H])([H])C2([H])N([H])C(=O)C1([H])N(C(=O)C([H])(N([H])C(=O)C([H])(N([H])C([H])([H])[H])C([H])([H])[H])C(C([H])([H])[H])(C([H])([H])[H])C([H])([H])[H])C([H])([H])c2c([H])c(OC([H])([H])C(=O)N([H])C([H])([H])C([H])([H])C([H])([H])C([H])([H])C([H])([H])C([H])([H])C([H])([H])C([H])([H])N([H])C(=O)C([H])([H])N([H])C(=O)C([H])([H])N([H])C(=O)C([H])([H])C([H])([H])C([H])([H])C([H])([H])C([H])([H])N([H])C(=O)N3C([H])([H])C([H])([H])C([H])([H])C([H])(n4nc(-c5c([H])c([H])c(Oc6c([H])c([H])c(F)c([H])c6F)c([H])c5[H])c(C(=O)N([H])[H])c4N([H])[H])C3([H])[H])c([H])c([H])c2C1([H])[H]

>  <smiles>  (72) 
[H]c1c([H])c([H])c2c(c1[H])C([H])([H])C([H])([H])C([H])([H])C2([H])N([H])C(=O)C1([H])N(C(=O)C([H])(N([H])C(=O)C([H])(N([H])C([H])([H])[H])C([H])([H])[H])C(C([H])([H])[H])(C([H])([H])[H])C([H])([H])[H])C([H])([H])c2c([H])c(OC([H])([H])C(=O)N([H])C([H])([H])C([H])([H])C([H])([H])C([H])([H])C([H])([H])C([H])([H])C([H])([H])C([H])([H])N([H])C(=O)C([H])([H])N([H])C(=O)C([H])([H])N([H])C(=O)C([H])([H])C([H])([H])C([H])([H])C([H])([H])C([H])([H])N([H])C(=O)N3C([H])([H])C([H])([H])C([H])([H])C([H])(n4nc(-c5c([H])c([H])c(Oc6c([H])c([H])c(F)c([H])c6F)c([H])c5[H])c(C(=O)N([H])[H])c4N([H])[H])C3([H])[H])c([H])c([H])c2C1([H])[H]

$$$$
76:0:0
     RDKit          3D

108115  0  0  1  0  0  0  0  0999 V2000
  -26.8160  -16.6000   27.7800 C   0  0  0  0  0  2  0  0  0  0  0  0
  -27.1580  -15.5480   28.8510 C   0  0  0  0  0  2  0  0  0  0  0  0
  -28.9640  -15.1780   30.5430 C   0  0  0  0  0  0  0  0  0  0  0  0
  -28.4950  -15.7240   29.4130 N   0  0  0  0  0  0  0  0  0  0  0  0
  -28.2490  -14.5420   31.3160 O   0  0  0  0  0  0  0  0  0  0  0  0
  -29.1720  -16.2170   28.8470 H   0  0  0  0  0  0  0  0  0  0  0  0
  -30.4680  -15.3210   30.8310 C   0  0  0  0  0  2  0  0  0  0  0  0
  -31.1630  -17.4900   29.8130 C   0  0  0  0  0  0  0  0  0  0  0  0
  -31.1610  -16.1550   29.8490 N   0  0  0  0  0  0  0  0  0  0  0  0
  -30.5930  -18.1840   30.6570 O   0  0  0  0  0  0  0  0  0  0  0  0
  -31.6440  -15.6760   29.1010 H   0  0  0  0  0  0  0  0  0  0  0  0
  -31.8980  -18.1250   28.6330 C   0  0  0  0  0  2  0  0  0  0  0  0
  -31.2770  -17.6970   27.4240 O   0  0  0  0  0  0  0  0  0  0  0  0
  -31.7280  -18.4380   26.3000 C   0  0  0  0  0  2  0  0  0  0  0  0
  -30.9360  -17.9960   25.0640 C   0  0  0  0  0  2  0  0  0  0  0  0
  -31.4500  -18.6580   23.7730 C   0  0  0  0  0  2  0  0  0  0  0  0
  -30.6180  -18.3050   22.5280 C   0  0  0  0  0  2  0  0  0  0  0  0
  -31.1340  -15.9710   21.8190 C   0  0  0  0  0  0  0  0  0  0  0  0
  -31.2970  -13.6560   20.9840 C   0  0  0  0  0  2  0  0  0  0  0  0
  -30.6530  -13.5310   19.5890 C   0  0  0  0  0  2  0  0  0  0  0  0
  -29.1390  -13.2650   19.7090 C   0  0  0  0  0  2  0  0  0  0  0  0
  -28.4360  -14.2570   20.6720 C   0  0  0  0  0  3  0  0  0  0  0  0
  -29.2060  -14.3550   22.0090 C   0  0  0  0  0  2  0  0  0  0  0  0
  -30.6040  -14.7260   21.7170 N   0  0  0  0  0  0  0  0  0  0  0  0
  -32.2510  -16.2740   21.3900 O   0  0  0  0  0  0  0  0  0  0  0  0
  -30.3470  -16.8740   22.4180 N   0  0  0  0  0  0  0  0  0  0  0  0
  -29.4510  -16.5430   22.7450 H   0  0  0  0  0  0  0  0  0  0  0  0
  -25.9060  -14.7000   20.8880 C   0  0  0  0  0  0  0  0  0  0  0  0
  -24.8430  -13.8550   21.0610 C   0  0  0  0  0  0  0  0  0  0  0  0
  -25.3940  -12.5390   21.1450 C   0  0  0  0  0  0  0  0  0  0  0  0
  -27.0360  -13.8930   20.8820 N   0  0  0  0  0  0  0  0  0  0  0  0
  -26.7180  -12.5900   21.0890 N   0  0  0  0  0  0  0  0  0  0  0  0
  -24.7330  -11.2290   21.2180 C   0  0  0  0  0  0  0  0  0  0  0  0
  -24.9910  -10.3310   22.2770 C   0  0  0  0  0  3  0  0  0  0  0  0
  -24.3310   -9.0850   22.3350 C   0  0  0  0  0  3  0  0  0  0  0  0
  -23.4000   -8.7280   21.3320 C   0  0  0  0  0  0  0  0  0  0  0  0
  -23.1630   -9.6170   20.2680 C   0  0  0  0  0  3  0  0  0  0  0  0
  -23.8250  -10.8550   20.2090 C   0  0  0  0  0  3  0  0  0  0  0  0
  -22.7310   -7.5280   21.2930 O   0  0  0  0  0  0  0  0  0  0  0  0
  -22.2990   -6.9080   22.4370 C   0  0  0  0  0  0  0  0  0  0  0  0
  -21.4820   -7.5690   23.3800 C   0  0  0  0  0  3  0  0  0  0  0  0
  -21.0020   -6.8720   24.5070 C   0  0  0  0  0  3  0  0  0  0  0  0
  -21.3290   -5.5140   24.6890 C   0  0  0  0  0  0  0  0  0  0  0  0
  -22.1390   -4.8530   23.7480 C   0  0  0  0  0  3  0  0  0  0  0  0
  -22.6190   -5.5480   22.6230 C   0  0  0  0  0  0  0  0  0  0  0  0
  -23.3810   -4.9000   21.7090 F   0  0  0  0  0  0  0  0  0  0  0  0
  -20.8630   -4.8430   25.7670 F   0  0  0  0  0  0  0  0  0  0  0  0
  -23.3890  -14.2330   21.0540 C   0  0  0  0  0  0  0  0  0  0  0  0
  -22.5660  -13.5140   21.8090 N   0  0  0  0  0  0  0  0  0  0  0  0
  -22.9830  -15.2010   20.4140 O   0  0  0  0  0  0  0  0  0  0  0  0
  -22.9010  -12.7330   22.3520 H   0  0  0  0  0  0  0  0  0  0  0  0
  -21.5840  -13.7500   21.8460 H   0  0  0  0  0  0  0  0  0  0  0  0
  -26.0080  -16.0770   20.7180 N   0  0  0  0  0  0  0  0  0  0  0  0
  -25.1920  -16.6780   20.6660 H   0  0  0  0  0  0  0  0  0  0  0  0
  -26.8780  -16.5740   20.5650 H   0  0  0  0  0  0  0  0  0  0  0  0
  -27.9970  -17.4770   27.3230 C   0  0  0  0  0  2  0  0  0  0  0  0
  -27.5350  -18.6940   26.5030 C   0  0  0  0  0  2  0  0  0  0  0  0
  -28.6650  -19.7020   26.2490 C   0  0  0  0  0  2  0  0  0  0  0  0
  -28.4300  -20.5610   24.9970 C   0  0  0  0  0  2  0  0  0  0  0  0
  -29.5940  -21.5240   24.7400 C   0  0  0  0  0  2  0  0  0  0  0  0
  -29.6690  -23.7090   23.5840 C   0  0  0  0  0  0  0  0  0  0  0  0
  -29.3340  -22.4140   23.6130 N   0  0  0  0  0  0  0  0  0  0  0  0
  -30.0750  -24.3160   24.5780 O   0  0  0  0  0  0  0  0  0  0  0  0
  -29.0120  -21.9930   22.7500 H   0  0  0  0  0  0  0  0  0  0  0  0
  -29.5710  -24.2610   22.2500 C   0  0  0  0  0  3  0  0  0  0  0  0
  -30.2910  -25.3550   21.9470 C   0  0  0  0  0  3  0  0  0  0  0  0
  -30.3490  -26.0110   20.5890 C   0  0  0  0  0  2  0  0  0  0  0  0
  -30.0100  -27.3870   20.6960 O   0  0  0  0  0  0  0  0  0  0  0  0
  -24.9870  -31.6160   23.4000 C   0  0  0  0  0  0  0  0  0  0  0  0
  -28.6960  -27.7930   20.6080 C   0  0  0  0  0  0  0  0  0  0  0  0
  -24.2310  -30.0610   21.6280 C   0  0  0  0  0  3  0  0  0  0  0  0
  -26.0770  -28.8300   20.3770 C   0  0  0  0  0  0  0  0  0  0  0  0
  -26.6560  -30.8660   21.7080 C   0  0  0  0  0  2  0  0  0  0  0  0
  -27.0500  -29.5430   21.0860 C   0  0  0  0  0  0  0  0  0  0  0  0
  -28.3610  -29.0320   21.1970 C   0  0  0  0  0  3  0  0  0  0  0  0
  -27.6980  -27.0770   19.9090 C   0  0  0  0  0  3  0  0  0  0  0  0
  -26.3930  -27.5920   19.7900 C   0  0  0  0  0  3  0  0  0  0  0  0
  -24.7050  -29.4570   20.2800 C   0  0  0  0  0  2  0  0  0  0  0  0
  -25.3020  -30.8630   22.3070 N   0  0  0  0  0  0  0  0  0  0  0  0
  -23.8250  -31.6830   23.8210 O   0  0  0  0  0  0  0  0  0  0  0  0
  -23.6740  -28.9180   22.5070 C   0  0  0  0  0  0  0  0  0  0  0  0
  -22.4360  -28.4930   22.2130 N   0  0  0  0  0  0  0  0  0  0  0  0
  -24.3540  -28.4210   23.4080 O   0  0  0  0  0  0  0  0  0  0  0  0
  -21.9450  -28.9550   21.4610 H   0  0  0  0  0  0  0  0  0  0  0  0
  -19.3190  -26.6680   22.2800 C   0  0  0  0  0  0  0  0  0  0  0  0
  -21.7200  -27.4070   22.8840 C   0  0  0  0  0  3  0  0  0  0  0  0
  -22.1700  -26.0320   22.3440 C   0  0  0  0  0  2  0  0  0  0  0  0
  -21.2930  -25.5170   21.1960 C   0  0  0  0  0  2  0  0  0  0  0  0
  -19.8370  -25.3870   21.6500 C   0  0  0  0  0  2  0  0  0  0  0  0
  -20.2040  -27.6240   22.8440 C   0  0  0  0  0  0  0  0  0  0  0  0
  -19.6710  -28.8150   23.3870 C   0  0  0  0  0  3  0  0  0  0  0  0
  -18.2850  -29.0600   23.3670 C   0  0  0  0  0  3  0  0  0  0  0  0
  -17.4130  -28.1050   22.8190 C   0  0  0  0  0  3  0  0  0  0  0  0
  -17.9280  -26.9090   22.2860 C   0  0  0  0  0  3  0  0  0  0  0  0
  -26.0710  -32.4460   24.1580 C   0  0  0  0  0  3  0  0  0  0  0  0
  -26.4920  -31.8040   25.5360 C   0  0  1  0  0  0  0  0  0  0  0  0
  -25.2940  -31.4660   26.4530 C   0  0  0  0  0  1  0  0  0  0  0  0
  -27.2960  -30.5020   25.3060 C   0  0  0  0  0  1  0  0  0  0  0  0
  -27.4260  -32.7710   26.3030 C   0  0  0  0  0  1  0  0  0  0  0  0
  -25.5330  -33.7970   24.3590 N   0  0  0  0  0  0  0  0  0  0  0  0
  -25.8290  -34.8530   23.5890 C   0  0  0  0  0  0  0  0  0  0  0  0
  -26.6510  -34.8050   22.6700 O   0  0  0  0  0  0  0  0  0  0  0  0
  -24.8120  -33.8970   25.0600 H   0  0  0  0  0  0  0  0  0  0  0  0
  -23.9330  -36.3450   22.8870 C   0  0  0  0  0  1  0  0  0  0  0  0
  -25.0930  -36.1740   23.8810 C   0  0  0  0  0  3  0  0  0  0  0  0
  -26.9550  -37.3940   24.9190 C   0  0  0  0  0  1  0  0  0  0  0  0
  -25.9760  -37.3600   23.8340 N   0  0  0  0  0  0  0  0  0  0  0  0
  -25.4290  -38.2140   23.8770 H   0  0  0  0  0  0  0  0  0  0  0  0
  1  2  1  0
  2  4  1  0
  3  7  1  0
  3  5  2  0
  4  3  1  0
  6  4  1  0
  8  9  1  0
  8 10  2  0
  9  7  1  0
 11  9  1  0
 12  8  1  0
 13 12  1  0
 14 13  1  0
 15 14  1  0
 16 15  1  0
 17 16  1  0
 18 26  1  0
 19 24  1  0
 20 21  1  0
 20 19  1  0
 22 21  1  0
 22 31  1  0
 22 23  1  0
 24 18  1  0
 24 23  1  0
 25 18  2  0
 26 17  1  0
 26 27  1  0
 28 29  2  0
 29 30  1  0
 30 33  1  0
 31 28  1  0
 31 32  1  0
 32 30  2  0
 33 34  1  0
 34 35  2  0
 36 35  1  0
 37 36  2  0
 38 37  1  0
 38 33  2  0
 39 36  1  0
 39 40  1  0
 40 45  2  0
 40 41  1  0
 41 42  2  0
 42 43  1  0
 43 47  1  0
 44 43  2  0
 45 44  1  0
 46 45  1  0
 48 29  1  0
 48 49  1  0
 49 52  1  0
 49 51  1  0
 50 48  2  0
 53 28  1  0
 54 53  1  0
 55 53  1  0
 56  1  1  0
 57 56  1  0
 58 57  1  0
 59 58  1  0
 60 59  1  0
 61 62  1  0
 61 63  2  0
 62 60  1  0
 64 62  1  0
 65 61  1  0
 66 65  2  0
 67 68  1  0
 67 66  1  0
 69 80  2  0
 70 68  1  0
 70 75  1  0
 71 79  1  0
 71 81  1  0
 72 74  1  0
 73 79  1  0
 74 75  2  0
 74 73  1  0
 76 70  2  0
 77 76  1  0
 77 72  2  0
 78 72  1  0
 78 71  1  0
 79 69  1  0
 81 83  2  0
 82 81  1  0
 84 82  1  0
 85 94  2  0
 85 90  1  0
 86 82  1  0
 87 86  1  0
 88 89  1  0
 88 87  1  0
 89 85  1  0
 90 86  1  0
 90 91  2  0
 92 91  1  0
 93 92  2  0
 94 93  1  0
 95 69  1  0
 95100  1  0
 95 96  1  0
 96 99  1  1
 96 97  1  0
 98 96  1  0
100103  1  0
101105  1  0
101100  1  0
102101  2  0
105104  1  0
107108  1  0
107105  1  0
107106  1  0
M  ISO  4  18 100  26 100  67 101  68 101
M  END
>  <TORSDO>  (73) 
F 34

>  <SCORE>  (73) 
58.043

>  <name>  (73) 
76

>  <ligand_id>  (73) 
76

>  <original_smiles>  (73) 
[H]C(C(=O)N([H])C([H])([H])C([H])([H])C([H])([H])C([H])([H])C([H])([H])C([H])([H])C([H])([H])N([H])C(=O)C([H])([H])N([H])C(=O)C([H])([H])OC([H])([H])C([H])([H])C([H])([H])C([H])([H])N([H])C(=O)N1C([H])([H])C([H])([H])C([H])([H])C([H])(n2nc(-c3c([H])c([H])c(Oc4c([H])c([H])c(F)c([H])c4F)c([H])c3[H])c(C(=O)N([H])[H])c2N([H])[H])C1([H])[H])=C([H])C([H])([H])Oc1c([H])c([H])c2c(c1[H])C([H])([H])N(C(=O)C([H])(N([H])C(=O)C([H])(N([H])C([H])([H])[H])C([H])([H])[H])C(C([H])([H])[H])(C([H])([H])[H])C([H])([H])[H])C([H])(C(=O)N([H])C1([H])c3c([H])c([H])c([H])c([H])c3C([H])([H])C([H])([H])C1([H])[H])C2([H])[H]

>  <smiles>  (73) 
[H]C(C(=O)N([H])C([H])([H])C([H])([H])C([H])([H])C([H])([H])C([H])([H])C([H])([H])C([H])([H])N([H])C(=O)C([H])([H])N([H])C(=O)C([H])([H])OC([H])([H])C([H])([H])C([H])([H])C([H])([H])N([H])C(=O)N1C([H])([H])C([H])([H])C([H])([H])C([H])(n2nc(-c3c([H])c([H])c(Oc4c([H])c([H])c(F)c([H])c4F)c([H])c3[H])c(C(=O)N([H])[H])c2N([H])[H])C1([H])[H])=C([H])C([H])([H])Oc1c([H])c([H])c2c(c1[H])C([H])([H])N(C(=O)C([H])(N([H])C(=O)C([H])(N([H])C([H])([H])[H])C([H])([H])[H])C(C([H])([H])[H])(C([H])([H])[H])C([H])([H])[H])C([H])(C(=O)N([H])C1([H])c3c([H])c([H])c([H])c([H])c3C([H])([H])C([H])([H])C1([H])[H])C2([H])[H]

$$$$
77:0:0
     RDKit          3D

117124  0  0  1  0  0  0  0  0999 V2000
  -27.5500  -25.5520   23.9500 C   0  0  0  0  0  0  0  0  0  0  0  0
  -26.8040  -24.4490   23.7800 N   0  0  0  0  0  0  0  0  0  0  0  0
  -28.3260  -25.9670   23.0870 O   0  0  0  0  0  0  0  0  0  0  0  0
  -26.1690  -24.1810   24.5210 H   0  0  0  0  0  0  0  0  0  0  0  0
  -27.0020  -23.5150   22.6720 C   0  0  0  0  0  2  0  0  0  0  0  0
  -28.1440  -22.5430   23.0220 C   0  0  0  0  0  2  0  0  0  0  0  0
  -28.9330  -21.9870   21.8240 C   0  0  0  0  0  2  0  0  0  0  0  0
  -30.4350  -22.0010   22.1680 C   0  0  0  0  0  2  0  0  0  0  0  0
  -31.3680  -21.4670   21.0800 C   0  0  0  0  0  2  0  0  0  0  0  0
  -32.8480  -21.5680   21.5160 C   0  0  0  0  0  3  0  0  0  0  0  0
  -33.9480  -21.2400   20.4570 C   0  0  0  0  0  3  0  0  0  0  0  0
  -33.9480  -20.9850   18.9140 C   0  0  0  0  0  2  0  0  0  0  0  0
  -31.7700  -21.2660   17.6240 C   0  0  0  0  0  0  0  0  0  0  0  0
  -32.6670  -20.5540   18.3280 N   0  0  0  0  0  0  0  0  0  0  0  0
  -30.8120  -20.6980   17.0960 O   0  0  0  0  0  0  0  0  0  0  0  0
  -32.4640  -19.5680   18.4010 H   0  0  0  0  0  0  0  0  0  0  0  0
  -31.8880  -22.7970   17.5150 C   0  0  0  0  0  2  0  0  0  0  0  0
  -30.6810  -23.3900   17.9940 O   0  0  0  0  0  0  0  0  0  0  0  0
  -30.5870  -24.7820   17.7150 C   0  0  0  0  0  2  0  0  0  0  0  0
  -30.1490  -25.5550   18.9680 C   0  0  0  0  0  2  0  0  0  0  0  0
  -28.6350  -25.7920   19.0760 C   0  0  0  0  0  2  0  0  0  0  0  0
  -28.4380  -26.8010   20.0580 O   0  0  0  0  0  0  0  0  0  0  0  0
  -24.6070  -31.8740   23.2140 C   0  0  0  0  0  0  0  0  0  0  0  0
  -27.2360  -27.4710   20.0730 C   0  0  0  0  0  0  0  0  0  0  0  0
  -23.3950  -30.4970   21.5530 C   0  0  0  0  0  3  0  0  0  0  0  0
  -24.8400  -28.9660   20.1180 C   0  0  0  0  0  0  0  0  0  0  0  0
  -25.9190  -30.8480   21.3590 C   0  0  0  0  0  2  0  0  0  0  0  0
  -25.9950  -29.4810   20.7140 C   0  0  0  0  0  0  0  0  0  0  0  0
  -27.1920  -28.7360   20.7010 C   0  0  0  0  0  3  0  0  0  0  0  0
  -26.0560  -26.9510   19.4900 C   0  0  0  0  0  3  0  0  0  0  0  0
  -24.8630  -27.6990   19.5090 C   0  0  0  0  0  3  0  0  0  0  0  0
  -23.5980  -29.8270   20.1670 C   0  0  0  0  0  2  0  0  0  0  0  0
  -24.6600  -31.0870   22.1020 N   0  0  0  0  0  0  0  0  0  0  0  0
  -23.5270  -32.1470   23.7560 O   0  0  0  0  0  0  0  0  0  0  0  0
  -22.7390  -29.4670   22.5000 C   0  0  0  0  0  0  0  0  0  0  0  0
  -21.4120  -29.3040   22.3780 N   0  0  0  0  0  0  0  0  0  0  0  0
  -23.4220  -28.8250   23.3020 O   0  0  0  0  0  0  0  0  0  0  0  0
  -20.9260  -29.8740   21.6990 H   0  0  0  0  0  0  0  0  0  0  0  0
  -18.0260  -28.1340   22.8520 C   0  0  0  0  0  0  0  0  0  0  0  0
  -20.5850  -28.3640   23.1340 C   0  0  0  0  0  3  0  0  0  0  0  0
  -20.6750  -26.9370   22.5440 C   0  0  0  0  0  2  0  0  0  0  0  0
  -19.5730  -26.6370   21.5240 C   0  0  0  0  0  2  0  0  0  0  0  0
  -18.1920  -26.7890   22.1640 C   0  0  0  0  0  2  0  0  0  0  0  0
  -19.1510  -28.8800   23.2930 C   0  0  0  0  0  0  0  0  0  0  0  0
  -18.9450  -30.1420   23.8930 C   0  0  0  0  0  3  0  0  0  0  0  0
  -17.6450  -30.6560   24.0550 C   0  0  0  0  0  3  0  0  0  0  0  0
  -16.5340  -29.9060   23.6310 C   0  0  0  0  0  3  0  0  0  0  0  0
  -16.7250  -28.6460   23.0370 C   0  0  0  0  0  3  0  0  0  0  0  0
  -25.9010  -32.4880   23.8420 C   0  0  0  0  0  3  0  0  0  0  0  0
  -25.5870  -33.8670   24.2370 N   0  0  0  0  0  0  0  0  0  0  0  0
  -25.9000  -34.9520   23.5170 C   0  0  0  0  0  0  0  0  0  0  0  0
  -26.5550  -34.8950   22.4720 O   0  0  0  0  0  0  0  0  0  0  0  0
  -24.9930  -33.9870   25.0450 H   0  0  0  0  0  0  0  0  0  0  0  0
  -24.1460  -36.7320   23.2640 C   0  0  0  0  0  1  0  0  0  0  0  0
  -25.4080  -36.3160   24.0360 C   0  0  0  0  0  3  0  0  0  0  0  0
  -27.5550  -37.1800   24.8490 C   0  0  0  0  0  1  0  0  0  0  0  0
  -26.4280  -37.3820   23.9410 N   0  0  0  0  0  0  0  0  0  0  0  0
  -26.0220  -38.2930   24.1380 H   0  0  0  0  0  0  0  0  0  0  0  0
  -26.4520  -31.6640   25.0700 C   0  0  1  0  0  0  0  0  0  0  0  0
  -25.3800  -31.3600   26.1400 C   0  0  0  0  0  1  0  0  0  0  0  0
  -27.0390  -30.3190   24.5930 C   0  0  0  0  0  1  0  0  0  0  0  0
  -27.6130  -32.4310   25.7480 C   0  0  0  0  0  1  0  0  0  0  0  0
  -27.4850  -26.2490   25.3140 C   0  0  0  0  0  2  0  0  0  0  0  0
  -29.8850  -26.6570   25.8410 C   0  0  0  0  0  0  0  0  0  0  0  0
  -28.7390  -25.9880   26.0150 N   0  0  0  0  0  0  0  0  0  0  0  0
  -29.9560  -27.7100   25.2010 O   0  0  0  0  0  0  0  0  0  0  0  0
  -28.7960  -25.1280   26.5560 H   0  0  0  0  0  0  0  0  0  0  0  0
  -31.1440  -26.0180   26.4460 C   0  0  0  0  0  2  0  0  0  0  0  0
  -30.7750  -23.5400   26.5410 C   0  0  0  0  0  0  0  0  0  0  0  0
  -31.3590  -24.6260   26.0180 N   0  0  0  0  0  0  0  0  0  0  0  0
  -29.9040  -23.6300   27.4090 O   0  0  0  0  0  0  0  0  0  0  0  0
  -32.0310  -24.4870   25.2730 H   0  0  0  0  0  0  0  0  0  0  0  0
  -31.2380  -22.1630   26.0090 C   0  0  0  0  0  2  0  0  0  0  0  0
  -30.0870  -21.1320   25.7530 C   0  0  0  0  0  2  0  0  0  0  0  0
  -29.9250  -19.6320   26.1540 C   0  0  0  0  0  2  0  0  0  0  0  0
  -29.4130  -18.7060   25.0220 C   0  0  0  0  0  2  0  0  0  0  0  0
  -30.4740  -18.1670   24.0360 C   0  0  0  0  0  2  0  0  0  0  0  0
  -29.8990  -17.0050   23.1990 C   0  0  0  0  0  2  0  0  0  0  0  0
  -30.9110  -16.3070   22.2620 C   0  0  0  0  0  2  0  0  0  0  0  0
  -30.7540  -14.3600   20.7040 C   0  0  0  0  0  0  0  0  0  0  0  0
  -30.4090  -12.2960   19.3930 C   0  0  0  0  0  2  0  0  0  0  0  0
  -29.4670  -12.5190   18.1960 C   0  0  0  0  0  2  0  0  0  0  0  0
  -27.9920  -12.3710   18.6070 C   0  0  0  0  0  2  0  0  0  0  0  0
  -27.6560  -13.1950   19.8760 C   0  0  0  0  0  3  0  0  0  0  0  0
  -28.6910  -12.9280   20.9900 C   0  0  0  0  0  2  0  0  0  0  0  0
  -30.0390  -13.2300   20.4630 N   0  0  0  0  0  0  0  0  0  0  0  0
  -31.7720  -14.6810   20.0790 O   0  0  0  0  0  0  0  0  0  0  0  0
  -30.3100  -15.0900   21.7300 N   0  0  0  0  0  0  0  0  0  0  0  0
  -29.5260  -14.7120   22.2380 H   0  0  0  0  0  0  0  0  0  0  0  0
  -25.2550  -13.8140   20.5680 C   0  0  0  0  0  0  0  0  0  0  0  0
  -24.1790  -13.0460   20.9150 C   0  0  0  0  0  0  0  0  0  0  0  0
  -24.6340  -11.6910   20.8740 C   0  0  0  0  0  0  0  0  0  0  0  0
  -26.2970  -12.9310   20.3380 N   0  0  0  0  0  0  0  0  0  0  0  0
  -25.9250  -11.6460   20.5750 N   0  0  0  0  0  0  0  0  0  0  0  0
  -23.9030  -10.4320   21.0420 C   0  0  0  0  0  0  0  0  0  0  0  0
  -24.3610   -9.4240   21.9190 C   0  0  0  0  0  3  0  0  0  0  0  0
  -23.6300   -8.2270   22.0750 C   0  0  0  0  0  3  0  0  0  0  0  0
  -22.4270   -8.0300   21.3550 C   0  0  0  0  0  0  0  0  0  0  0  0
  -21.9910   -9.0270   20.4640 C   0  0  0  0  0  3  0  0  0  0  0  0
  -22.7220  -10.2160   20.3060 C   0  0  0  0  0  3  0  0  0  0  0  0
  -21.6650   -6.8910   21.4240 O   0  0  0  0  0  0  0  0  0  0  0  0
  -21.6850   -6.0770   22.5310 C   0  0  0  0  0  0  0  0  0  0  0  0
  -21.4010   -6.5660   23.8240 C   0  0  0  0  0  3  0  0  0  0  0  0
  -21.3650   -5.6790   24.9180 C   0  0  0  0  0  3  0  0  0  0  0  0
  -21.6040   -4.3070   24.7220 C   0  0  0  0  0  0  0  0  0  0  0  0
  -21.8810   -3.8190   23.4330 C   0  0  0  0  0  3  0  0  0  0  0  0
  -21.9190   -4.7010   22.3400 C   0  0  0  0  0  0  0  0  0  0  0  0
  -22.1660   -4.2180   21.0980 F   0  0  0  0  0  0  0  0  0  0  0  0
  -21.5630   -3.4550   25.7740 F   0  0  0  0  0  0  0  0  0  0  0  0
  -22.7800  -13.5240   21.1830 C   0  0  0  0  0  0  0  0  0  0  0  0
  -22.0470  -12.8250   22.0390 N   0  0  0  0  0  0  0  0  0  0  0  0
  -22.3450  -14.5580   20.6700 O   0  0  0  0  0  0  0  0  0  0  0  0
  -22.4080  -11.9880   22.4750 H   0  0  0  0  0  0  0  0  0  0  0  0
  -21.1090  -13.1230   22.2660 H   0  0  0  0  0  0  0  0  0  0  0  0
  -25.4370  -15.1870   20.4070 N   0  0  0  0  0  0  0  0  0  0  0  0
  -24.6840  -15.8550   20.5250 H   0  0  0  0  0  0  0  0  0  0  0  0
  -26.3070  -15.6180   20.1240 H   0  0  0  0  0  0  0  0  0  0  0  0
  1 63  1  0
  2  1  1  0
  2  4  1  0
  3  1  2  0
  5  6  1  0
  5  2  1  0
  7  8  1  0
  7  6  1  0
  9 10  1  0
  9  8  1  0
 11 10  2  0
 12 11  1  0
 13 14  1  0
 14 16  1  0
 14 12  1  0
 15 13  2  0
 17 13  1  0
 17 18  1  0
 19 18  1  0
 19 20  1  0
 20 21  1  0
 21 22  1  0
 22 24  1  0
 23 34  2  0
 24 29  1  0
 25 33  1  0
 25 35  1  0
 26 32  1  0
 26 28  1  0
 27 33  1  0
 28 27  1  0
 29 28  2  0
 30 31  1  0
 30 24  2  0
 31 26  2  0
 32 25  1  0
 33 23  1  0
 35 37  2  0
 36 35  1  0
 38 36  1  0
 39 48  2  0
 39 44  1  0
 40 36  1  0
 40 44  1  0
 41 40  1  0
 42 43  1  0
 42 41  1  0
 43 39  1  0
 44 45  2  0
 45 46  1  0
 47 46  2  0
 48 47  1  0
 49 23  1  0
 49 50  1  0
 49 59  1  0
 50 53  1  0
 51 55  1  0
 51 50  1  0
 52 51  2  0
 55 54  1  0
 57 55  1  0
 57 58  1  0
 57 56  1  0
 59 62  1  1
 59 60  1  0
 61 59  1  0
 63 65  1  0
 64 65  1  0
 64 68  1  0
 65 67  1  0
 66 64  2  0
 69 71  2  0
 70 68  1  0
 70 69  1  0
 72 70  1  0
 73 69  1  0
 74 73  1  0
 74 75  1  0
 76 75  1  0
 77 76  1  0
 78 77  1  0
 79 78  1  0
 80 88  1  0
 81 86  1  0
 82 83  1  0
 82 81  1  0
 84 83  1  0
 84 93  1  0
 84 85  1  0
 86 80  1  0
 86 85  1  0
 87 80  2  0
 88 89  1  0
 88 79  1  0
 90 91  2  0
 91110  1  0
 92 91  1  0
 92 95  1  0
 93 90  1  0
 93 94  1  0
 94 92  2  0
 95 96  1  0
 96 97  2  0
 98101  1  0
 98 97  1  0
 99 98  2  0
100 99  1  0
100 95  2  0
101102  1  0
102103  1  0
103104  2  0
105104  1  0
105109  1  0
106105  2  0
107102  2  0
107106  1  0
108107  1  0
110111  1  0
111114  1  0
111113  1  0
112110  2  0
115116  1  0
115 90  1  0
117115  1  0
M  ISO  4  21 101  22 101  80 100  88 100
M  END
>  <TORSDO>  (74) 
F 41

>  <SCORE>  (74) 
17.151

>  <name>  (74) 
77

>  <ligand_id>  (74) 
77

>  <original_smiles>  (74) 
[H]c1c([H])c([H])c2c(c1[H])C([H])([H])C([H])([H])C([H])([H])C2([H])N([H])C(=O)C1([H])N(C(=O)C([H])(N([H])C(=O)C([H])(N([H])C([H])([H])[H])C([H])([H])[H])C(C([H])([H])[H])(C([H])([H])[H])C([H])([H])[H])C([H])([H])c2c([H])c(OC([H])([H])C([H])([H])C([H])([H])OC([H])([H])C(=O)N([H])C([H])([H])C([H])([H])C([H])([H])C([H])([H])C([H])([H])C([H])([H])C([H])([H])C([H])([H])N([H])C(=O)C([H])([H])N([H])C(=O)C([H])([H])N([H])C(=O)C([H])([H])C([H])([H])C([H])([H])C([H])([H])C([H])([H])C([H])([H])C([H])([H])N([H])C(=O)N3C([H])([H])C([H])([H])C([H])([H])C([H])(n4nc(-c5c([H])c([H])c(Oc6c([H])c([H])c(F)c([H])c6F)c([H])c5[H])c(C(=O)N([H])[H])c4N([H])[H])C3([H])[H])c([H])c([H])c2C1([H])[H]

>  <smiles>  (74) 
[H]c1c([H])c([H])c2c(c1[H])C([H])([H])C([H])([H])C([H])([H])C2([H])N([H])C(=O)C1([H])N(C(=O)C([H])(N([H])C(=O)C([H])(N([H])C([H])([H])[H])C([H])([H])[H])C(C([H])([H])[H])(C([H])([H])[H])C([H])([H])[H])C([H])([H])c2c([H])c(OC([H])([H])C([H])([H])C([H])([H])OC([H])([H])C(=O)N([H])C([H])([H])C([H])([H])C([H])([H])C([H])([H])C([H])([H])C([H])([H])C([H])([H])C([H])([H])N([H])C(=O)C([H])([H])N([H])C(=O)C([H])([H])N([H])C(=O)C([H])([H])C([H])([H])C([H])([H])C([H])([H])C([H])([H])C([H])([H])C([H])([H])N([H])C(=O)N3C([H])([H])C([H])([H])C([H])([H])C([H])(n4nc(-c5c([H])c([H])c(Oc6c([H])c([H])c(F)c([H])c6F)c([H])c5[H])c(C(=O)N([H])[H])c4N([H])[H])C3([H])[H])c([H])c([H])c2C1([H])[H]

$$$$
78:0:0
     RDKit          3D

112119  0  0  1  0  0  0  0  0999 V2000
  -36.9710  -22.7410   20.1990 C   0  0  0  0  0  0  0  0  0  0  0  0
  -36.3480  -23.8000   19.6700 N   0  0  0  0  0  0  0  0  0  0  0  0
  -38.1130  -22.8030   20.6630 O   0  0  0  0  0  0  0  0  0  0  0  0
  -35.4160  -23.6260   19.3280 H   0  0  0  0  0  0  0  0  0  0  0  0
  -36.8130  -25.1840   19.6480 C   0  0  0  0  0  2  0  0  0  0  0  0
  -35.6250  -26.1110   19.3250 C   0  0  0  0  0  2  0  0  0  0  0  0
  -35.0810  -26.0080   17.8810 C   0  0  0  0  0  2  0  0  0  0  0  0
  -33.6300  -26.5210   17.7780 C   0  0  0  0  0  2  0  0  0  0  0  0
  -33.1870  -26.9290   16.3580 C   0  0  0  0  0  2  0  0  0  0  0  0
  -31.6540  -26.9100   16.1860 C   0  0  0  0  0  2  0  0  0  0  0  0
  -31.0990  -25.4800   16.0270 C   0  0  0  0  0  2  0  0  0  0  0  0
  -29.5590  -25.3610   16.0550 C   0  0  0  0  0  2  0  0  0  0  0  0
  -28.9240  -25.8020   17.3190 N   0  0  0  0  0  4  0  0  0  0  0  0
  -27.9380  -25.6100   17.2310 H   0  0  0  0  0  0  0  0  0  0  0  0
  -29.0160  -26.8040   17.4090 H   0  0  0  0  0  0  0  0  0  0  0  0
  -29.4350  -25.1430   18.5460 C   0  0  0  0  0  2  0  0  0  0  0  0
  -28.5310  -25.3410   19.7790 C   0  0  0  0  0  2  0  0  0  0  0  0
  -28.4130  -26.7180   20.1510 O   0  0  0  0  0  0  0  0  0  0  0  0
  -24.5710  -31.8400   23.2480 C   0  0  0  0  0  0  0  0  0  0  0  0
  -27.1940  -27.3650   20.1700 C   0  0  0  0  0  0  0  0  0  0  0  0
  -23.3520  -30.4360   21.6170 C   0  0  0  0  0  3  0  0  0  0  0  0
  -24.7900  -28.8700   20.2040 C   0  0  0  0  0  0  0  0  0  0  0  0
  -25.8780  -30.7690   21.4150 C   0  0  0  0  0  2  0  0  0  0  0  0
  -25.9510  -29.3920   20.7860 C   0  0  0  0  0  0  0  0  0  0  0  0
  -27.1480  -28.6450   20.7690 C   0  0  0  0  0  3  0  0  0  0  0  0
  -26.0070  -26.8490   19.5930 C   0  0  0  0  0  3  0  0  0  0  0  0
  -24.8110  -27.5960   19.6100 C   0  0  0  0  0  3  0  0  0  0  0  0
  -23.5530  -29.7390   20.2430 C   0  0  0  0  0  2  0  0  0  0  0  0
  -24.6190  -31.0300   22.1500 N   0  0  0  0  0  0  0  0  0  0  0  0
  -23.4920  -32.1280   23.7840 O   0  0  0  0  0  0  0  0  0  0  0  0
  -22.6870  -29.4320   22.5810 C   0  0  0  0  0  0  0  0  0  0  0  0
  -21.3590  -29.2740   22.4550 N   0  0  0  0  0  0  0  0  0  0  0  0
  -23.3590  -28.7950   23.3940 O   0  0  0  0  0  0  0  0  0  0  0  0
  -20.8790  -29.8420   21.7720 H   0  0  0  0  0  0  0  0  0  0  0  0
  -17.9600  -28.1610   22.9590 C   0  0  0  0  0  0  0  0  0  0  0  0
  -20.5240  -28.3540   23.2250 C   0  0  0  0  0  3  0  0  0  0  0  0
  -20.5890  -26.9230   22.6400 C   0  0  0  0  0  2  0  0  0  0  0  0
  -19.4750  -26.6310   21.6300 C   0  0  0  0  0  2  0  0  0  0  0  0
  -18.1010  -26.8090   22.2810 C   0  0  0  0  0  2  0  0  0  0  0  0
  -19.0970  -28.8940   23.3870 C   0  0  0  0  0  0  0  0  0  0  0  0
  -18.9120  -30.1640   23.9760 C   0  0  0  0  0  3  0  0  0  0  0  0
  -17.6200  -30.6970   24.1440 C   0  0  0  0  0  3  0  0  0  0  0  0
  -16.4960  -29.9590   23.7380 C   0  0  0  0  0  3  0  0  0  0  0  0
  -16.6670  -28.6940   23.1480 C   0  0  0  0  0  3  0  0  0  0  0  0
  -25.8630  -32.4590   23.8700 C   0  0  0  0  0  3  0  0  0  0  0  0
  -26.3670  -31.6890   25.1520 C   0  0  1  0  0  0  0  0  0  0  0  0
  -25.2680  -31.4710   26.2200 C   0  0  0  0  0  1  0  0  0  0  0  0
  -26.9280  -30.3020   24.7600 C   0  0  0  0  0  1  0  0  0  0  0  0
  -27.5260  -32.4700   25.8130 C   0  0  0  0  0  1  0  0  0  0  0  0
  -25.5740  -33.8620   24.1900 N   0  0  0  0  0  0  0  0  0  0  0  0
  -25.9230  -34.9050   23.4250 C   0  0  0  0  0  0  0  0  0  0  0  0
  -26.5970  -34.7860   22.3970 O   0  0  0  0  0  0  0  0  0  0  0  0
  -24.9830  -34.0290   24.9920 H   0  0  0  0  0  0  0  0  0  0  0  0
  -24.2170  -36.7130   23.0520 C   0  0  0  0  0  1  0  0  0  0  0  0
  -25.4500  -36.3000   23.8710 C   0  0  0  0  0  3  0  0  0  0  0  0
  -27.5930  -37.1660   24.7030 C   0  0  0  0  0  1  0  0  0  0  0  0
  -26.4960  -37.3410   23.7530 N   0  0  0  0  0  0  0  0  0  0  0  0
  -26.1010  -38.2670   23.8940 H   0  0  0  0  0  0  0  0  0  0  0  0
  -36.1800  -21.4200   20.2420 C   0  0  0  0  0  2  0  0  0  0  0  0
  -33.8390  -22.1580   20.6750 C   0  0  0  0  0  0  0  0  0  0  0  0
  -34.7550  -21.5490   19.9120 N   0  0  0  0  0  0  0  0  0  0  0  0
  -34.1510  -22.7810   21.6880 O   0  0  0  0  0  0  0  0  0  0  0  0
  -34.4050  -21.0310   19.1200 H   0  0  0  0  0  0  0  0  0  0  0  0
  -32.3550  -22.0660   20.2730 C   0  0  0  0  0  2  0  0  0  0  0  0
  -32.0220  -19.8290   19.1340 C   0  0  0  0  0  0  0  0  0  0  0  0
  -32.0000  -21.1690   19.1580 N   0  0  0  0  0  0  0  0  0  0  0  0
  -32.5270  -19.1570   20.0350 O   0  0  0  0  0  0  0  0  0  0  0  0
  -31.5590  -21.6200   18.3700 H   0  0  0  0  0  0  0  0  0  0  0  0
  -31.3690  -19.1570   17.9140 C   0  0  0  0  0  2  0  0  0  0  0  0
  -30.8480  -16.8170   18.6460 C   0  0  0  0  0  0  0  0  0  0  0  0
  -31.5100  -17.6950   17.8790 N   0  0  0  0  0  0  0  0  0  0  0  0
  -30.0270  -17.1600   19.4980 O   0  0  0  0  0  0  0  0  0  0  0  0
  -32.1540  -17.3190   17.1940 H   0  0  0  0  0  0  0  0  0  0  0  0
  -31.1140  -15.3370   18.3660 C   0  0  0  0  0  2  0  0  0  0  0  0
  -31.4710  -13.2900   19.7060 C   0  0  0  0  0  0  0  0  0  0  0  0
  -30.8940  -10.9940   19.1150 C   0  0  0  0  0  2  0  0  0  0  0  0
  -29.9500  -11.0930   17.8980 C   0  0  0  0  0  2  0  0  0  0  0  0
  -28.4810  -11.2220   18.3600 C   0  0  0  0  0  2  0  0  0  0  0  0
  -28.2820  -12.3110   19.4470 C   0  0  0  0  0  3  0  0  0  0  0  0
  -29.3570  -12.2110   20.5550 C   0  0  0  0  0  2  0  0  0  0  0  0
  -30.6830  -12.2080   19.9150 N   0  0  0  0  0  0  0  0  0  0  0  0
  -32.6540  -13.2140   19.3730 O   0  0  0  0  0  0  0  0  0  0  0  0
  -30.7840  -14.4190   19.4700 N   0  0  0  0  0  0  0  0  0  0  0  0
  -29.8330  -14.4480   19.8010 H   0  0  0  0  0  0  0  0  0  0  0  0
  -26.0530  -13.3370   20.2390 C   0  0  0  0  0  0  0  0  0  0  0  0
  -24.8910  -12.7730   20.6850 C   0  0  0  0  0  0  0  0  0  0  0  0
  -25.1180  -11.3610   20.6990 C   0  0  0  0  0  0  0  0  0  0  0  0
  -26.9270  -12.2860   19.9990 N   0  0  0  0  0  0  0  0  0  0  0  0
  -26.3670  -11.0950   20.3350 N   0  0  0  0  0  0  0  0  0  0  0  0
  -24.2010  -10.2490   20.9770 C   0  0  0  0  0  0  0  0  0  0  0  0
  -24.5400   -9.2220   21.8850 C   0  0  0  0  0  3  0  0  0  0  0  0
  -23.6370   -8.1710   22.1490 C   0  0  0  0  0  3  0  0  0  0  0  0
  -22.3760   -8.1410   21.5050 C   0  0  0  0  0  0  0  0  0  0  0  0
  -22.0510   -9.1540   20.5850 C   0  0  0  0  0  3  0  0  0  0  0  0
  -22.9560  -10.1960   20.3200 C   0  0  0  0  0  3  0  0  0  0  0  0
  -21.4430   -7.1470   21.6800 O   0  0  0  0  0  0  0  0  0  0  0  0
  -21.4090   -6.3840   22.8180 C   0  0  0  0  0  0  0  0  0  0  0  0
  -21.2500   -6.9600   24.0970 C   0  0  0  0  0  3  0  0  0  0  0  0
  -21.1510   -6.1330   25.2340 C   0  0  0  0  0  3  0  0  0  0  0  0
  -21.2030   -4.7320   25.0930 C   0  0  0  0  0  0  0  0  0  0  0  0
  -21.3530   -4.1580   23.8200 C   0  0  0  0  0  3  0  0  0  0  0  0
  -21.4530   -4.9820   22.6850 C   0  0  0  0  0  0  0  0  0  0  0  0
  -21.5790   -4.4210   21.4570 F   0  0  0  0  0  0  0  0  0  0  0  0
  -21.1010   -3.9370   26.1850 F   0  0  0  0  0  0  0  0  0  0  0  0
  -23.6070  -13.4900   20.9980 C   0  0  0  0  0  0  0  0  0  0  0  0
  -22.8190  -12.9680   21.9310 N   0  0  0  0  0  0  0  0  0  0  0  0
  -23.3160  -14.5500   20.4430 O   0  0  0  0  0  0  0  0  0  0  0  0
  -23.0670  -12.1090   22.4010 H   0  0  0  0  0  0  0  0  0  0  0  0
  -21.9530  -13.4310   22.1760 H   0  0  0  0  0  0  0  0  0  0  0  0
  -26.4350  -14.6540   19.9930 N   0  0  0  0  0  0  0  0  0  0  0  0
  -25.7950  -15.4290   20.1060 H   0  0  0  0  0  0  0  0  0  0  0  0
  -27.3270  -14.9290   19.6050 H   0  0  0  0  0  0  0  0  0  0  0  0
  1 59  1  0
  1  3  2  0
  2  1  1  0
  4  2  1  0
  5  2  1  0
  6  5  1  0
  7  6  1  0
  8  7  1  0
  9  8  1  0
 10  9  1  0
 11 12  1  0
 11 10  1  0
 12 13  1  0
 13 15  1  0
 13 16  1  0
 14 13  1  0
 16 17  1  0
 17 18  1  0
 18 20  1  0
 19 30  2  0
 20 25  1  0
 21 29  1  0
 21 31  1  0
 22 28  1  0
 22 24  1  0
 23 29  1  0
 24 23  1  0
 25 24  2  0
 26 27  1  0
 26 20  2  0
 27 22  2  0
 28 21  1  0
 29 19  1  0
 31 33  2  0
 32 31  1  0
 34 32  1  0
 35 44  2  0
 35 40  1  0
 36 32  1  0
 36 40  1  0
 37 36  1  0
 38 39  1  0
 38 37  1  0
 39 35  1  0
 40 41  2  0
 41 42  1  0
 43 42  2  0
 44 43  1  0
 45 19  1  0
 45 50  1  0
 45 46  1  0
 46 49  1  1
 46 47  1  0
 48 46  1  0
 50 53  1  0
 51 55  1  0
 51 50  1  0
 52 51  2  0
 55 54  1  0
 57 55  1  0
 57 58  1  0
 57 56  1  0
 60 62  2  0
 61 59  1  0
 61 60  1  0
 63 61  1  0
 64 60  1  0
 65 66  1  0
 65 67  2  0
 66 64  1  0
 68 66  1  0
 69 65  1  0
 70 72  2  0
 71 69  1  0
 71 70  1  0
 73 71  1  0
 74 70  1  0
 74 83  1  0
 75 81  1  0
 76 81  1  0
 77 78  1  0
 77 76  1  0
 79 78  1  0
 79 88  1  0
 79 80  1  0
 81 80  1  0
 82 75  2  0
 83 75  1  0
 83 84  1  0
 85 86  2  0
 86 87  1  0
 86105  1  0
 87 90  1  0
 88 85  1  0
 88 89  1  0
 89 87  2  0
 90 91  1  0
 91 92  2  0
 93 96  1  0
 93 92  1  0
 94 93  2  0
 95 94  1  0
 95 90  2  0
 96 97  1  0
 97 98  1  0
 98 99  2  0
100 99  1  0
100104  1  0
101100  2  0
102 97  2  0
102101  1  0
103102  1  0
105106  1  0
106109  1  0
106108  1  0
107105  2  0
110111  1  0
110 85  1  0
112110  1  0
M  ISO  4  17 101  18 101  75 100  83 100
M  END
>  <TORSDO>  (75) 
F 34

>  <SCORE>  (75) 
-8.238

>  <name>  (75) 
78

>  <ligand_id>  (75) 
78

>  <original_smiles>  (75) 
[H]c1c([H])c([H])c2c(c1[H])C([H])([H])C([H])([H])C([H])([H])C2([H])N([H])C(=O)C1([H])N(C(=O)C([H])(N([H])C(=O)C([H])(N([H])C([H])([H])[H])C([H])([H])[H])C(C([H])([H])[H])(C([H])([H])[H])C([H])([H])[H])C([H])([H])c2c([H])c(OC([H])([H])C([H])([H])[N+]([H])([H])C([H])([H])C([H])([H])C([H])([H])C([H])([H])C([H])([H])C([H])([H])C([H])([H])C([H])([H])N([H])C(=O)C([H])([H])N([H])C(=O)C([H])([H])N([H])C(=O)C([H])([H])N([H])C(=O)C([H])([H])N([H])C(=O)N3C([H])([H])C([H])([H])C([H])([H])C([H])(n4nc(-c5c([H])c([H])c(Oc6c([H])c([H])c(F)c([H])c6F)c([H])c5[H])c(C(=O)N([H])[H])c4N([H])[H])C3([H])[H])c([H])c([H])c2C1([H])[H]

>  <smiles>  (75) 
[H]c1c([H])c([H])c2c(c1[H])C([H])([H])C([H])([H])C([H])([H])C2([H])N([H])C(=O)C1([H])N(C(=O)C([H])(N([H])C(=O)C([H])(N([H])C([H])([H])[H])C([H])([H])[H])C(C([H])([H])[H])(C([H])([H])[H])C([H])([H])[H])C([H])([H])c2c([H])c(OC([H])([H])C([H])([H])[N+]([H])([H])C([H])([H])C([H])([H])C([H])([H])C([H])([H])C([H])([H])C([H])([H])C([H])([H])C([H])([H])N([H])C(=O)C([H])([H])N([H])C(=O)C([H])([H])N([H])C(=O)C([H])([H])N([H])C(=O)C([H])([H])N([H])C(=O)N3C([H])([H])C([H])([H])C([H])([H])C([H])(n4nc(-c5c([H])c([H])c(Oc6c([H])c([H])c(F)c([H])c6F)c([H])c5[H])c(C(=O)N([H])[H])c4N([H])[H])C3([H])[H])c([H])c([H])c2C1([H])[H]

$$$$
79:0:0
     RDKit          3D

 97104  0  0  1  0  0  0  0  0999 V2000
  -32.6570  -20.6370   21.1720 N   0  0  0  0  0  4  0  0  0  0  0  0
  -32.9300  -20.7800   22.1310 H   0  0  0  0  0  0  0  0  0  0  0  0
  -32.1460  -19.7570   21.1280 H   0  0  0  0  0  0  0  0  0  0  0  0
  -33.8920  -20.5190   20.3750 C   0  0  0  0  0  2  0  0  0  0  0  0
  -34.3170  -19.0550   20.3950 C   0  0  0  0  0  0  0  0  0  0  0  0
  -35.2700  -18.6720   21.0830 O   0  0  0  0  0  0  0  0  0  0  0  0
  -33.4560  -18.0590   19.6130 C   0  0  0  0  0  2  0  0  0  0  0  0
  -31.4750  -17.2790   20.8950 C   0  0  0  0  0  0  0  0  0  0  0  0
  -32.7500  -17.1500   20.5160 N   0  0  0  0  0  0  0  0  0  0  0  0
  -30.7860  -18.2490   20.5730 O   0  0  0  0  0  0  0  0  0  0  0  0
  -33.2620  -16.3410   20.8410 H   0  0  0  0  0  0  0  0  0  0  0  0
  -30.9060  -16.1730   21.7900 C   0  0  0  0  0  2  0  0  0  0  0  0
  -30.3340  -14.4740   20.0150 C   0  0  0  0  0  0  0  0  0  0  0  0
  -30.0070  -12.2880   18.9200 C   0  0  0  0  0  2  0  0  0  0  0  0
  -28.9680  -12.3110   17.7890 C   0  0  0  0  0  2  0  0  0  0  0  0
  -27.5460  -12.1140   18.3440 C   0  0  0  0  0  2  0  0  0  0  0  0
  -27.2390  -13.0430   19.5480 C   0  0  0  0  0  3  0  0  0  0  0  0
  -28.3770  -12.9820   20.5890 C   0  0  0  0  0  2  0  0  0  0  0  0
  -29.6470  -13.3080   19.9140 N   0  0  0  0  0  0  0  0  0  0  0  0
  -31.2420  -14.7860   19.2400 O   0  0  0  0  0  0  0  0  0  0  0  0
  -30.0560  -15.1850   21.1190 N   0  0  0  0  0  0  0  0  0  0  0  0
  -29.2680  -14.8550   21.6540 H   0  0  0  0  0  0  0  0  0  0  0  0
  -24.9120  -13.5760   20.5140 C   0  0  0  0  0  0  0  0  0  0  0  0
  -23.9000  -12.7670   20.9600 C   0  0  0  0  0  0  0  0  0  0  0  0
  -24.3810  -11.4270   20.8360 C   0  0  0  0  0  0  0  0  0  0  0  0
  -25.9450  -12.7260   20.1490 N   0  0  0  0  0  0  0  0  0  0  0  0
  -25.6330  -11.4270   20.3970 N   0  0  0  0  0  0  0  0  0  0  0  0
  -23.7030  -10.1420   21.0540 C   0  0  0  0  0  0  0  0  0  0  0  0
  -24.1930   -9.1950   21.9800 C   0  0  0  0  0  3  0  0  0  0  0  0
  -23.5120   -7.9760   22.1840 C   0  0  0  0  0  3  0  0  0  0  0  0
  -22.3270   -7.6950   21.4640 C   0  0  0  0  0  0  0  0  0  0  0  0
  -21.8560   -8.6330   20.5270 C   0  0  0  0  0  3  0  0  0  0  0  0
  -22.5380   -9.8440   20.3210 C   0  0  0  0  0  3  0  0  0  0  0  0
  -21.6140   -6.5260   21.5770 O   0  0  0  0  0  0  0  0  0  0  0  0
  -21.5880   -5.8100   22.7460 C   0  0  0  0  0  0  0  0  0  0  0  0
  -21.1350   -6.3770   23.9580 C   0  0  0  0  0  3  0  0  0  0  0  0
  -21.0600   -5.5850   25.1200 C   0  0  0  0  0  3  0  0  0  0  0  0
  -21.4280   -4.2260   25.0730 C   0  0  0  0  0  0  0  0  0  0  0  0
  -21.8760   -3.6590   23.8670 C   0  0  0  0  0  3  0  0  0  0  0  0
  -21.9530   -4.4480   22.7070 C   0  0  0  0  0  0  0  0  0  0  0  0
  -22.3650   -3.8910   21.5420 F   0  0  0  0  0  0  0  0  0  0  0  0
  -21.3480   -3.4630   26.1880 F   0  0  0  0  0  0  0  0  0  0  0  0
  -22.5290  -13.2030   21.3910 C   0  0  0  0  0  0  0  0  0  0  0  0
  -21.9200  -12.4800   22.3230 N   0  0  0  0  0  0  0  0  0  0  0  0
  -22.0090  -14.2190   20.9330 O   0  0  0  0  0  0  0  0  0  0  0  0
  -22.3520  -11.6560   22.7130 H   0  0  0  0  0  0  0  0  0  0  0  0
  -21.0050  -12.7560   22.6520 H   0  0  0  0  0  0  0  0  0  0  0  0
  -25.0350  -14.9550   20.3720 N   0  0  0  0  0  0  0  0  0  0  0  0
  -24.2760  -15.5940   20.5760 H   0  0  0  0  0  0  0  0  0  0  0  0
  -25.8520  -15.4210   19.9950 H   0  0  0  0  0  0  0  0  0  0  0  0
  -31.7780  -21.7400   20.7440 C   0  0  0  0  0  2  0  0  0  0  0  0
  -30.5470  -21.8670   21.6540 C   0  0  0  0  0  2  0  0  0  0  0  0
  -29.5460  -22.8980   21.1220 C   0  0  0  0  0  2  0  0  0  0  0  0
  -28.4610  -23.2610   22.1510 C   0  0  0  0  0  2  0  0  0  0  0  0
  -27.5810  -24.4320   21.6890 C   0  0  0  0  0  2  0  0  0  0  0  0
  -28.3250  -25.7790   21.6340 C   0  0  0  0  0  2  0  0  0  0  0  0
  -28.0270  -26.4710   20.4320 O   0  0  0  0  0  0  0  0  0  0  0  0
  -24.5170  -31.9250   23.3390 C   0  0  0  0  0  0  0  0  0  0  0  0
  -26.8900  -27.2290   20.4690 C   0  0  0  0  0  0  0  0  0  0  0  0
  -23.2210  -30.5170   21.7670 C   0  0  0  0  0  3  0  0  0  0  0  0
  -24.5760  -28.8300   20.4230 C   0  0  0  0  0  0  0  0  0  0  0  0
  -25.7580  -30.7310   21.5420 C   0  0  0  0  0  2  0  0  0  0  0  0
  -25.7600  -29.3270   20.9800 C   0  0  0  0  0  0  0  0  0  0  0  0
  -26.9230  -28.5310   21.0070 C   0  0  0  0  0  3  0  0  0  0  0  0
  -25.6940  -26.7330   19.9090 C   0  0  0  0  0  3  0  0  0  0  0  0
  -24.5330  -27.5290   19.8900 C   0  0  0  0  0  3  0  0  0  0  0  0
  -23.3840  -29.7580   20.4230 C   0  0  0  0  0  2  0  0  0  0  0  0
  -24.5180  -31.0730   22.2750 N   0  0  0  0  0  0  0  0  0  0  0  0
  -23.4570  -32.2830   23.8700 O   0  0  0  0  0  0  0  0  0  0  0  0
  -22.5170  -29.5840   22.7770 C   0  0  0  0  0  0  0  0  0  0  0  0
  -21.2020  -29.3860   22.5920 N   0  0  0  0  0  0  0  0  0  0  0  0
  -23.1540  -29.0330   23.6790 O   0  0  0  0  0  0  0  0  0  0  0  0
  -20.7530  -29.8830   21.8350 H   0  0  0  0  0  0  0  0  0  0  0  0
  -17.8270  -28.1470   22.9280 C   0  0  0  0  0  0  0  0  0  0  0  0
  -20.3410  -28.5190   23.3930 C   0  0  0  0  0  3  0  0  0  0  0  0
  -20.5290  -27.0350   23.0040 C   0  0  0  0  0  2  0  0  0  0  0  0
  -19.5330  -26.5570   21.9430 C   0  0  0  0  0  2  0  0  0  0  0  0
  -18.0950  -26.7330   22.4400 C   0  0  0  0  0  2  0  0  0  0  0  0
  -18.8840  -28.9910   23.3610 C   0  0  0  0  0  0  0  0  0  0  0  0
  -18.5850  -30.3080   23.7720 C   0  0  0  0  0  3  0  0  0  0  0  0
  -17.2590  -30.7820   23.7580 C   0  0  0  0  0  3  0  0  0  0  0  0
  -16.2150  -29.9380   23.3430 C   0  0  0  0  0  3  0  0  0  0  0  0
  -16.4990  -28.6220   22.9340 C   0  0  0  0  0  3  0  0  0  0  0  0
  -25.8430  -32.5070   23.9240 C   0  0  0  0  0  3  0  0  0  0  0  0
  -25.6010  -33.9200   24.2440 N   0  0  0  0  0  0  0  0  0  0  0  0
  -25.9770  -34.9490   23.4730 C   0  0  0  0  0  0  0  0  0  0  0  0
  -26.6360  -34.8060   22.4380 O   0  0  0  0  0  0  0  0  0  0  0  0
  -25.0230  -34.1080   25.0510 H   0  0  0  0  0  0  0  0  0  0  0  0
  -24.3250  -36.8090   23.1080 C   0  0  0  0  0  1  0  0  0  0  0  0
  -25.5540  -36.3620   23.9170 C   0  0  0  0  0  3  0  0  0  0  0  0
  -27.7320  -37.1580   24.7200 C   0  0  0  0  0  1  0  0  0  0  0  0
  -26.6300  -37.3670   23.7850 N   0  0  0  0  0  0  0  0  0  0  0  0
  -26.2670  -38.3050   23.9320 H   0  0  0  0  0  0  0  0  0  0  0  0
  -26.3560  -31.7240   25.1930 C   0  0  1  0  0  0  0  0  0  0  0  0
  -25.2660  -31.4860   26.2640 C   0  0  0  0  0  1  0  0  0  0  0  0
  -26.9270  -30.3450   24.7860 C   0  0  0  0  0  1  0  0  0  0  0  0
  -27.5160  -32.5040   25.8570 C   0  0  0  0  0  1  0  0  0  0  0  0
  1  2  1  0
  3  1  1  0
  4  5  1  0
  4  1  1  0
  5  6  2  0
  7  5  1  0
  7  9  1  0
  8 12  1  0
  9 11  1  0
  9  8  1  0
 10  8  2  0
 13 21  1  0
 14 19  1  0
 15 16  1  0
 15 14  1  0
 17 16  1  0
 17 26  1  0
 17 18  1  0
 19 13  1  0
 19 18  1  0
 20 13  2  0
 21 22  1  0
 21 12  1  0
 23 24  2  0
 24 43  1  0
 25 24  1  0
 25 28  1  0
 26 27  1  0
 26 23  1  0
 27 25  2  0
 28 29  1  0
 29 30  2  0
 31 34  1  0
 31 30  1  0
 32 31  2  0
 33 32  1  0
 33 28  2  0
 34 35  1  0
 35 36  1  0
 36 37  2  0
 38 37  1  0
 38 42  1  0
 39 38  2  0
 40 35  2  0
 40 39  1  0
 41 40  1  0
 43 44  1  0
 44 47  1  0
 44 46  1  0
 45 43  2  0
 48 23  1  0
 48 49  1  0
 50 48  1  0
 51  1  1  0
 51 52  1  0
 53 52  1  0
 53 54  1  0
 55 54  1  0
 56 55  1  0
 57 59  1  0
 57 56  1  0
 58 69  2  0
 59 64  1  0
 60 68  1  0
 60 70  1  0
 61 63  1  0
 62 68  1  0
 63 64  2  0
 63 62  1  0
 65 59  2  0
 66 65  1  0
 66 61  2  0
 67 61  1  0
 67 60  1  0
 68 58  1  0
 70 72  2  0
 71 70  1  0
 73 71  1  0
 74 83  2  0
 74 79  1  0
 75 71  1  0
 76 75  1  0
 77 78  1  0
 77 76  1  0
 78 74  1  0
 79 75  1  0
 79 80  2  0
 81 80  1  0
 82 81  2  0
 83 82  1  0
 84 58  1  0
 84 85  1  0
 84 94  1  0
 85 88  1  0
 86 90  1  0
 86 85  1  0
 87 86  2  0
 90 89  1  0
 92 90  1  0
 92 93  1  0
 92 91  1  0
 94 97  1  1
 94 95  1  0
 96 94  1  0
M  ISO  4  13 100  21 100  56 101  57 101
M  END
>  <TORSDO>  (76) 
F 27

>  <SCORE>  (76) 
-10.931

>  <name>  (76) 
79

>  <ligand_id>  (76) 
79

>  <original_smiles>  (76) 
[H]c1c([H])c([H])c2c(c1[H])C([H])([H])C([H])([H])C([H])([H])C2([H])N([H])C(=O)C1([H])N(C(=O)C([H])(N([H])C(=O)C([H])(N([H])C([H])([H])[H])C([H])([H])[H])C(C([H])([H])[H])(C([H])([H])[H])C([H])([H])[H])C([H])([H])c2c([H])c(OC([H])([H])C([H])([H])C([H])([H])C([H])([H])C([H])([H])C([H])([H])[N+]([H])([H])C([H])([H])C(=O)C([H])([H])N([H])C(=O)C([H])([H])N([H])C(=O)N3C([H])([H])C([H])([H])C([H])([H])C([H])(n4nc(-c5c([H])c([H])c(Oc6c([H])c([H])c(F)c([H])c6F)c([H])c5[H])c(C(=O)N([H])[H])c4N([H])[H])C3([H])[H])c([H])c([H])c2C1([H])[H]

>  <smiles>  (76) 
[H]c1c([H])c([H])c2c(c1[H])C([H])([H])C([H])([H])C([H])([H])C2([H])N([H])C(=O)C1([H])N(C(=O)C([H])(N([H])C(=O)C([H])(N([H])C([H])([H])[H])C([H])([H])[H])C(C([H])([H])[H])(C([H])([H])[H])C([H])([H])[H])C([H])([H])c2c([H])c(OC([H])([H])C([H])([H])C([H])([H])C([H])([H])C([H])([H])C([H])([H])[N+]([H])([H])C([H])([H])C(=O)C([H])([H])N([H])C(=O)C([H])([H])N([H])C(=O)N3C([H])([H])C([H])([H])C([H])([H])C([H])(n4nc(-c5c([H])c([H])c(Oc6c([H])c([H])c(F)c([H])c6F)c([H])c5[H])c(C(=O)N([H])[H])c4N([H])[H])C3([H])[H])c([H])c([H])c2C1([H])[H]

$$$$
80:0:0
     RDKit          3D

108115  0  0  1  0  0  0  0  0999 V2000
  -23.4890  -23.8870   15.5090 C   0  0  0  0  0  2  0  0  0  0  0  0
  -24.2440  -25.0430   16.1760 C   0  0  0  0  0  0  0  0  0  0  0  0
  -24.6070  -26.0560   15.3830 N   0  0  0  0  0  0  0  0  0  0  0  0
  -24.4720  -25.0380   17.3860 O   0  0  0  0  0  0  0  0  0  0  0  0
  -24.4460  -25.9420   14.3920 H   0  0  0  0  0  0  0  0  0  0  0  0
  -25.0740  -27.3790   15.8050 C   0  0  0  0  0  2  0  0  0  0  0  0
  -26.5090  -27.4710   16.3430 C   0  0  0  0  0  0  0  0  0  0  0  0
  -27.0320  -26.4120   16.9730 N   0  0  0  0  0  0  0  0  0  0  0  0
  -27.1450  -28.5160   16.1870 O   0  0  0  0  0  0  0  0  0  0  0  0
  -26.4200  -25.6140   17.0930 H   0  0  0  0  0  0  0  0  0  0  0  0
  -28.2920  -26.4610   17.7140 C   0  0  0  0  0  2  0  0  0  0  0  0
  -28.4890  -25.2390   18.6350 C   0  0  0  0  0  2  0  0  0  0  0  0
  -28.9700  -25.6010   20.0620 C   0  0  0  0  0  2  0  0  0  0  0  0
  -27.9530  -25.4830   21.0580 O   0  0  0  0  0  0  0  0  0  0  0  0
  -24.4820  -31.2960   23.2890 C   0  0  0  0  0  0  0  0  0  0  0  0
  -26.8810  -26.3270   20.9230 C   0  0  0  0  0  0  0  0  0  0  0  0
  -23.2620  -29.8370   21.7070 C   0  0  0  0  0  3  0  0  0  0  0  0
  -24.6500  -28.0140   20.5940 C   0  0  0  0  0  0  0  0  0  0  0  0
  -25.8180  -29.9390   21.6840 C   0  0  0  0  0  2  0  0  0  0  0  0
  -25.8110  -28.5010   21.2090 C   0  0  0  0  0  0  0  0  0  0  0  0
  -26.9340  -27.6620   21.3730 C   0  0  0  0  0  3  0  0  0  0  0  0
  -25.6920  -25.8340   20.3510 C   0  0  0  0  0  3  0  0  0  0  0  0
  -24.5800  -26.6760   20.1670 C   0  0  0  0  0  3  0  0  0  0  0  0
  -23.5030  -28.9840   20.4340 C   0  0  0  0  0  2  0  0  0  0  0  0
  -24.5350  -30.3740   22.2870 N   0  0  0  0  0  0  0  0  0  0  0  0
  -23.3980  -31.7310   23.7030 O   0  0  0  0  0  0  0  0  0  0  0  0
  -22.4370  -29.0000   22.7120 C   0  0  0  0  0  0  0  0  0  0  0  0
  -21.1130  -28.9430   22.4970 N   0  0  0  0  0  0  0  0  0  0  0  0
  -22.9880  -28.4030   23.6390 O   0  0  0  0  0  0  0  0  0  0  0  0
  -20.7350  -29.4680   21.7180 H   0  0  0  0  0  0  0  0  0  0  0  0
  -17.5930  -28.2330   22.8820 C   0  0  0  0  0  0  0  0  0  0  0  0
  -20.1450  -28.1870   23.2900 C   0  0  0  0  0  3  0  0  0  0  0  0
  -20.0890  -26.7110   22.8370 C   0  0  0  0  0  2  0  0  0  0  0  0
  -19.0070  -26.4420   21.7870 C   0  0  0  0  0  2  0  0  0  0  0  0
  -17.6250  -26.8160   22.3320 C   0  0  0  0  0  2  0  0  0  0  0  0
  -18.7780  -28.8810   23.3180 C   0  0  0  0  0  0  0  0  0  0  0  0
  -18.6970  -30.2110   23.7880 C   0  0  0  0  0  3  0  0  0  0  0  0
  -17.4630  -30.8870   23.8300 C   0  0  0  0  0  3  0  0  0  0  0  0
  -16.2910  -30.2320   23.4140 C   0  0  0  0  0  3  0  0  0  0  0  0
  -16.3560  -28.9080   22.9450 C   0  0  0  0  0  3  0  0  0  0  0  0
  -25.7780  -31.8680   23.9450 C   0  0  0  0  0  3  0  0  0  0  0  0
  -25.5540  -33.2970   24.1910 N   0  0  0  0  0  0  0  0  0  0  0  0
  -25.9710  -34.2820   23.3840 C   0  0  0  0  0  0  0  0  0  0  0  0
  -26.6550  -34.0790   22.3770 O   0  0  0  0  0  0  0  0  0  0  0  0
  -24.9500  -33.5350   24.9650 H   0  0  0  0  0  0  0  0  0  0  0  0
  -24.3470  -36.1430   22.9190 C   0  0  0  0  0  1  0  0  0  0  0  0
  -25.5660  -35.7190   23.7550 C   0  0  0  0  0  3  0  0  0  0  0  0
  -27.7460  -36.5380   24.5330 C   0  0  0  0  0  1  0  0  0  0  0  0
  -26.6550  -36.7040   23.5770 N   0  0  0  0  0  0  0  0  0  0  0  0
  -26.3000  -37.6520   23.6630 H   0  0  0  0  0  0  0  0  0  0  0  0
  -26.1800  -31.1240   25.2770 C   0  0  1  0  0  0  0  0  0  0  0  0
  -25.0220  -30.9970   26.2930 C   0  0  0  0  0  1  0  0  0  0  0  0
  -26.6970  -29.6990   24.9700 C   0  0  0  0  0  1  0  0  0  0  0  0
  -27.3400  -31.8780   25.9690 C   0  0  0  0  0  1  0  0  0  0  0  0
  -24.1800  -21.8810   16.8190 C   0  0  0  0  0  0  0  0  0  0  0  0
  -24.1540  -22.6000   15.6930 N   0  0  0  0  0  0  0  0  0  0  0  0
  -23.6450  -22.2530   17.8680 O   0  0  0  0  0  0  0  0  0  0  0  0
  -24.6230  -22.2190   14.8830 H   0  0  0  0  0  0  0  0  0  0  0  0
  -24.8750  -20.5190   16.7360 C   0  0  0  0  0  2  0  0  0  0  0  0
  -26.7090  -19.7620   18.2370 C   0  0  0  0  0  0  0  0  0  0  0  0
  -25.4410  -20.1230   18.0250 N   0  0  0  0  0  0  0  0  0  0  0  0
  -27.5460  -19.7070   17.3330 O   0  0  0  0  0  0  0  0  0  0  0  0
  -24.8200  -20.2010   18.8200 H   0  0  0  0  0  0  0  0  0  0  0  0
  -27.1000  -19.3880   19.6650 C   0  0  0  0  0  2  0  0  0  0  0  0
  -28.5060  -18.9360   19.7180 N   0  0  0  0  0  4  0  0  0  0  0  0
  -29.0920  -19.7550   19.7290 H   0  0  0  0  0  0  0  0  0  0  0  0
  -28.6930  -18.4650   18.8490 H   0  0  0  0  0  0  0  0  0  0  0  0
  -28.8300  -18.0520   20.8570 C   0  0  0  0  0  2  0  0  0  0  0  0
  -30.3290  -17.6920   20.9070 C   0  0  0  0  0  2  0  0  0  0  0  0
  -30.6790  -16.5630   21.9020 C   0  0  0  0  0  2  0  0  0  0  0  0
  -30.7380  -14.4670   20.5380 C   0  0  0  0  0  0  0  0  0  0  0  0
  -30.3930  -12.4760   19.1270 C   0  0  0  0  0  2  0  0  0  0  0  0
  -29.4190  -12.7920   17.9750 C   0  0  0  0  0  2  0  0  0  0  0  0
  -27.9570  -12.6050   18.4230 C   0  0  0  0  0  2  0  0  0  0  0  0
  -27.6470  -13.3200   19.7650 C   0  0  0  0  0  3  0  0  0  0  0  0
  -28.7220  -12.9790   20.8210 C   0  0  0  0  0  2  0  0  0  0  0  0
  -30.0430  -13.3330   20.2680 N   0  0  0  0  0  0  0  0  0  0  0  0
  -31.7710  -14.7950   19.9450 O   0  0  0  0  0  0  0  0  0  0  0  0
  -30.1920  -15.2510   21.4770 N   0  0  0  0  0  0  0  0  0  0  0  0
  -29.3710  -14.8860   21.9380 H   0  0  0  0  0  0  0  0  0  0  0  0
  -25.2250  -13.8480   20.4640 C   0  0  0  0  0  0  0  0  0  0  0  0
  -24.1850  -13.0380   20.8390 C   0  0  0  0  0  0  0  0  0  0  0  0
  -24.6970  -11.7050   20.8170 C   0  0  0  0  0  0  0  0  0  0  0  0
  -26.3020  -13.0030   20.2410 N   0  0  0  0  0  0  0  0  0  0  0  0
  -25.9860  -11.7100   20.5070 N   0  0  0  0  0  0  0  0  0  0  0  0
  -24.0180  -10.4180   21.0150 C   0  0  0  0  0  0  0  0  0  0  0  0
  -24.4530   -9.4990   21.9960 C   0  0  0  0  0  3  0  0  0  0  0  0
  -23.7730   -8.2760   22.1810 C   0  0  0  0  0  3  0  0  0  0  0  0
  -22.6470   -7.9610   21.3830 C   0  0  0  0  0  0  0  0  0  0  0  0
  -22.2340   -8.8700   20.3930 C   0  0  0  0  0  3  0  0  0  0  0  0
  -22.9130  -10.0850   20.2070 C   0  0  0  0  0  3  0  0  0  0  0  0
  -21.9410   -6.7850   21.4740 O   0  0  0  0  0  0  0  0  0  0  0  0
  -21.8020   -6.1200   22.6660 C   0  0  0  0  0  0  0  0  0  0  0  0
  -21.1970   -6.7240   23.7900 C   0  0  0  0  0  3  0  0  0  0  0  0
  -21.0110   -5.9810   24.9730 C   0  0  0  0  0  3  0  0  0  0  0  0
  -21.4200   -4.6360   25.0320 C   0  0  0  0  0  0  0  0  0  0  0  0
  -22.0160   -4.0300   23.9110 C   0  0  0  0  0  3  0  0  0  0  0  0
  -22.2040   -4.7710   22.7300 C   0  0  0  0  0  0  0  0  0  0  0  0
  -22.7610   -4.1780   21.6470 F   0  0  0  0  0  0  0  0  0  0  0  0
  -21.2340   -3.9190   26.1640 F   0  0  0  0  0  0  0  0  0  0  0  0
  -22.7720  -13.4650   21.1110 C   0  0  0  0  0  0  0  0  0  0  0  0
  -22.0810  -12.7640   22.0040 N   0  0  0  0  0  0  0  0  0  0  0  0
  -22.2870  -14.4570   20.5670 O   0  0  0  0  0  0  0  0  0  0  0  0
  -22.4850  -11.9630   22.4650 H   0  0  0  0  0  0  0  0  0  0  0  0
  -21.1340  -13.0320   22.2280 H   0  0  0  0  0  0  0  0  0  0  0  0
  -25.3390  -15.2210   20.2760 N   0  0  0  0  0  0  0  0  0  0  0  0
  -24.5470  -15.8460   20.3760 H   0  0  0  0  0  0  0  0  0  0  0  0
  -26.1700  -15.6800   19.9320 H   0  0  0  0  0  0  0  0  0  0  0  0
  1 56  1  0
  1  2  1  0
  2  4  2  0
  3  6  1  0
  3  2  1  0
  5  3  1  0
  6  7  1  0
  7  8  1  0
  8 10  1  0
  8 11  1  0
  9  7  2  0
 11 12  1  0
 12 13  1  0
 13 14  1  0
 15 26  2  0
 16 14  1  0
 16 21  1  0
 17 25  1  0
 17 27  1  0
 18 20  1  0
 19 25  1  0
 20 21  2  0
 20 19  1  0
 22 16  2  0
 23 22  1  0
 23 18  2  0
 24 18  1  0
 24 17  1  0
 25 15  1  0
 27 29  2  0
 28 27  1  0
 30 28  1  0
 31 40  2  0
 31 36  1  0
 32 28  1  0
 32 36  1  0
 33 32  1  0
 34 35  1  0
 34 33  1  0
 35 31  1  0
 36 37  2  0
 37 38  1  0
 39 38  2  0
 40 39  1  0
 41 15  1  0
 41 42  1  0
 41 51  1  0
 42 45  1  0
 43 47  1  0
 43 42  1  0
 44 43  2  0
 47 46  1  0
 49 50  1  0
 49 47  1  0
 49 48  1  0
 51 54  1  1
 51 52  1  0
 53 51  1  0
 55 57  2  0
 56 55  1  0
 58 56  1  0
 59 55  1  0
 59 61  1  0
 60 64  1  0
 61 60  1  0
 61 63  1  0
 62 60  2  0
 64 65  1  0
 65 66  1  0
 65 68  1  0
 67 65  1  0
 68 69  1  0
 69 70  1  0
 71 79  1  0
 72 77  1  0
 73 74  1  0
 73 72  1  0
 75 74  1  0
 75 84  1  0
 75 76  1  0
 77 71  1  0
 77 76  1  0
 78 71  2  0
 79 70  1  0
 79 80  1  0
 81 82  2  0
 82101  1  0
 83 82  1  0
 83 86  1  0
 84 81  1  0
 84 85  1  0
 85 83  2  0
 86 87  1  0
 87 88  2  0
 89 92  1  0
 89 88  1  0
 90 89  2  0
 91 90  1  0
 91 86  2  0
 92 93  1  0
 93 98  2  0
 93 94  1  0
 94 95  2  0
 95 96  1  0
 96100  1  0
 97 96  2  0
 98 97  1  0
 99 98  1  0
101102  1  0
102105  1  0
102104  1  0
103101  2  0
106107  1  0
106 81  1  0
108106  1  0
M  ISO  4  13 101  14 101  71 100  79 100
M  END
>  <TORSDO>  (77) 
F 30

>  <SCORE>  (77) 
-9.817

>  <name>  (77) 
80

>  <ligand_id>  (77) 
80

>  <original_smiles>  (77) 
[H]c1c([H])c([H])c2c(c1[H])C([H])([H])C([H])([H])C([H])([H])C2([H])N([H])C(=O)C1([H])N(C(=O)C([H])(N([H])C(=O)C([H])(N([H])C([H])([H])[H])C([H])([H])[H])C(C([H])([H])[H])(C([H])([H])[H])C([H])([H])[H])C([H])([H])c2c([H])c(OC([H])([H])C([H])([H])C([H])([H])N([H])C(=O)C([H])([H])N([H])C(=O)C([H])([H])N([H])C(=O)C([H])([H])N([H])C(=O)C([H])([H])[N+]([H])([H])C([H])([H])C([H])([H])C([H])([H])N([H])C(=O)N3C([H])([H])C([H])([H])C([H])([H])C([H])(n4nc(-c5c([H])c([H])c(Oc6c([H])c([H])c(F)c([H])c6F)c([H])c5[H])c(C(=O)N([H])[H])c4N([H])[H])C3([H])[H])c([H])c([H])c2C1([H])[H]

>  <smiles>  (77) 
[H]c1c([H])c([H])c2c(c1[H])C([H])([H])C([H])([H])C([H])([H])C2([H])N([H])C(=O)C1([H])N(C(=O)C([H])(N([H])C(=O)C([H])(N([H])C([H])([H])[H])C([H])([H])[H])C(C([H])([H])[H])(C([H])([H])[H])C([H])([H])[H])C([H])([H])c2c([H])c(OC([H])([H])C([H])([H])C([H])([H])N([H])C(=O)C([H])([H])N([H])C(=O)C([H])([H])N([H])C(=O)C([H])([H])N([H])C(=O)C([H])([H])[N+]([H])([H])C([H])([H])C([H])([H])C([H])([H])N([H])C(=O)N3C([H])([H])C([H])([H])C([H])([H])C([H])(n4nc(-c5c([H])c([H])c(Oc6c([H])c([H])c(F)c([H])c6F)c([H])c5[H])c(C(=O)N([H])[H])c4N([H])[H])C3([H])[H])c([H])c([H])c2C1([H])[H]

$$$$
81:0:0
     RDKit          3D

107114  0  0  1  0  0  0  0  0999 V2000
  -20.6590  -18.6320   23.4480 C   0  0  0  0  0  2  0  0  0  0  0  0
  -19.2480  -19.2470   23.4550 C   0  0  0  0  0  2  0  0  0  0  0  0
  -19.2260  -20.7540   23.1420 C   0  0  0  0  0  2  0  0  0  0  0  0
  -17.8940  -21.2130   22.5230 C   0  0  0  0  0  2  0  0  0  0  0  0
  -17.9290  -22.6530   21.9830 C   0  0  0  0  0  2  0  0  0  0  0  0
  -19.5540  -23.5320   20.3130 C   0  0  0  0  0  0  0  0  0  0  0  0
  -19.2670  -23.0270   21.5210 N   0  0  0  0  0  0  0  0  0  0  0  0
  -18.6890  -23.7380   19.4600 O   0  0  0  0  0  0  0  0  0  0  0  0
  -20.0340  -22.9060   22.1690 H   0  0  0  0  0  0  0  0  0  0  0  0
  -21.0280  -23.8450   20.0160 C   0  0  0  0  0  2  0  0  0  0  0  0
  -21.1240  -24.6500   18.8450 O   0  0  0  0  0  0  0  0  0  0  0  0
  -22.3550  -25.3540   18.7470 C   0  0  0  0  0  2  0  0  0  0  0  0
  -22.6680  -25.6900   17.2750 C   0  0  0  0  0  2  0  0  0  0  0  0
  -23.4500  -24.6680   16.6570 O   0  0  0  0  0  0  0  0  0  0  0  0
  -23.2760  -24.8640    9.5490 C   0  0  0  0  0  0  0  0  0  0  0  0
  -22.9080  -24.1820   15.4970 C   0  0  0  0  0  0  0  0  0  0  0  0
  -21.4490  -23.6060   10.6480 C   0  0  0  0  0  3  0  0  0  0  0  0
  -21.7560  -23.1590   13.1390 C   0  0  0  0  0  0  0  0  0  0  0  0
  -23.7370  -23.8330   11.7680 C   0  0  0  0  0  2  0  0  0  0  0  0
  -23.0210  -23.7580   13.0970 C   0  0  0  0  0  0  0  0  0  0  0  0
  -23.6030  -24.2740   14.2730 C   0  0  0  0  0  3  0  0  0  0  0  0
  -21.6440  -23.5610   15.5340 C   0  0  0  0  0  3  0  0  0  0  0  0
  -21.0570  -23.0600   14.3580 C   0  0  0  0  0  3  0  0  0  0  0  0
  -21.2040  -22.6350   11.8340 C   0  0  0  0  0  2  0  0  0  0  0  0
  -22.8440  -24.1550   10.6310 N   0  0  0  0  0  0  0  0  0  0  0  0
  -22.5480  -25.0270    8.5620 O   0  0  0  0  0  0  0  0  0  0  0  0
  -20.3620  -24.7030   10.6750 C   0  0  0  0  0  0  0  0  0  0  0  0
  -19.1130  -24.3110   10.3780 N   0  0  0  0  0  0  0  0  0  0  0  0
  -20.6410  -25.8650   10.9790 O   0  0  0  0  0  0  0  0  0  0  0  0
  -18.9690  -23.3430   10.1280 H   0  0  0  0  0  0  0  0  0  0  0  0
  -15.5030  -24.2700   10.1640 C   0  0  0  0  0  0  0  0  0  0  0  0
  -17.9210  -25.1570   10.3880 C   0  0  0  0  0  3  0  0  0  0  0  0
  -17.5340  -25.5610   11.8300 C   0  0  0  0  0  2  0  0  0  0  0  0
  -16.4930  -24.6340   12.4670 C   0  0  0  0  0  2  0  0  0  0  0  0
  -15.2180  -24.5930   11.6190 C   0  0  0  0  0  2  0  0  0  0  0  0
  -16.7760  -24.5240    9.5880 C   0  0  0  0  0  0  0  0  0  0  0  0
  -16.9990  -24.1820    8.2380 C   0  0  0  0  0  3  0  0  0  0  0  0
  -15.9780  -23.5960    7.4650 C   0  0  0  0  0  3  0  0  0  0  0  0
  -14.7150  -23.3610    8.0360 C   0  0  0  0  0  3  0  0  0  0  0  0
  -14.4790  -23.7000    9.3780 C   0  0  0  0  0  3  0  0  0  0  0  0
  -24.7080  -25.4810    9.4950 C   0  0  0  0  0  3  0  0  0  0  0  0
  -24.7240  -27.0420    9.7240 C   0  0  1  0  0  0  0  0  0  0  0  0
  -23.7240  -27.8120    8.8300 C   0  0  0  0  0  1  0  0  0  0  0  0
  -24.3940  -27.3800   11.1980 C   0  0  0  0  0  1  0  0  0  0  0  0
  -26.1400  -27.6010    9.4510 C   0  0  0  0  0  1  0  0  0  0  0  0
  -25.2890  -25.1400    8.1900 N   0  0  0  0  0  0  0  0  0  0  0  0
  -26.1580  -24.1410    7.9830 C   0  0  0  0  0  0  0  0  0  0  0  0
  -26.6140  -23.4490    8.8970 O   0  0  0  0  0  0  0  0  0  0  0  0
  -24.9180  -25.6280    7.3870 H   0  0  0  0  0  0  0  0  0  0  0  0
  -25.8140  -22.6570    5.9840 C   0  0  0  0  0  1  0  0  0  0  0  0
  -26.5890  -23.8660    6.5300 C   0  0  0  0  0  3  0  0  0  0  0  0
  -28.8450  -24.8290    6.6250 C   0  0  0  0  0  1  0  0  0  0  0  0
  -28.0420  -23.6330    6.3810 N   0  0  0  0  0  0  0  0  0  0  0  0
  -28.2590  -23.2910    5.4490 H   0  0  0  0  0  0  0  0  0  0  0  0
  -21.4940  -19.0320   22.2240 C   0  0  0  0  0  2  0  0  0  0  0  0
  -22.7740  -18.1930   22.0630 C   0  0  0  0  0  2  0  0  0  0  0  0
  -23.1730  -18.0440   20.5850 C   0  0  0  0  0  2  0  0  0  0  0  0
  -24.5790  -17.4420   20.3680 C   0  0  0  0  0  2  0  0  0  0  0  0
  -24.6200  -16.3480   19.2810 C   0  0  0  0  0  2  0  0  0  0  0  0
  -24.2910  -13.9300   19.8000 C   0  0  0  0  0  0  0  0  0  0  0  0
  -24.9860  -15.0690   19.8860 N   0  0  0  0  0  0  0  0  0  0  0  0
  -23.3890  -13.7490   18.9780 O   0  0  0  0  0  0  0  0  0  0  0  0
  -25.7310  -15.0960   20.5710 H   0  0  0  0  0  0  0  0  0  0  0  0
  -24.6380  -12.8480   20.8230 C   0  0  0  0  0  2  0  0  0  0  0  0
  -23.8560  -10.5210   21.1570 C   0  0  0  0  0  0  0  0  0  0  0  0
  -24.2020  -11.5390   20.3620 N   0  0  0  0  0  0  0  0  0  0  0  0
  -23.7240  -10.6370   22.3740 O   0  0  0  0  0  0  0  0  0  0  0  0
  -24.1980  -11.4100   19.3590 H   0  0  0  0  0  0  0  0  0  0  0  0
  -23.7930   -9.1500   20.4900 C   0  0  0  0  0  2  0  0  0  0  0  0
  -25.8580   -8.3810   21.6070 C   0  0  0  0  0  0  0  0  0  0  0  0
  -28.1680   -8.1760   22.4430 C   0  0  0  0  0  2  0  0  0  0  0  0
  -28.5280   -9.2440   23.4900 C   0  0  0  0  0  2  0  0  0  0  0  0
  -29.0230  -10.5320   22.8110 C   0  0  0  0  0  2  0  0  0  0  0  0
  -28.0480  -11.0240   21.7120 C   0  0  0  0  0  3  0  0  0  0  0  0
  -27.6960   -9.8670   20.7460 C   0  0  0  0  0  2  0  0  0  0  0  0
  -27.1660   -8.7200   21.5200 N   0  0  0  0  0  0  0  0  0  0  0  0
  -25.3570   -7.7570   22.5470 O   0  0  0  0  0  0  0  0  0  0  0  0
  -25.1660   -8.6640   20.5050 N   0  0  0  0  0  0  0  0  0  0  0  0
  -25.7400   -9.0050   19.7500 H   0  0  0  0  0  0  0  0  0  0  0  0
  -28.2330  -13.5180   21.0750 C   0  0  0  0  0  0  0  0  0  0  0  0
  -29.1070  -14.1920   20.2630 C   0  0  0  0  0  0  0  0  0  0  0  0
  -29.9940  -13.2060   19.7320 C   0  0  0  0  0  0  0  0  0  0  0  0
  -28.5970  -12.1820   21.0010 N   0  0  0  0  0  0  0  0  0  0  0  0
  -29.6340  -11.9960   20.1430 N   0  0  0  0  0  0  0  0  0  0  0  0
  -31.1970  -13.3480   18.9000 C   0  0  0  0  0  0  0  0  0  0  0  0
  -31.3060  -12.7050   17.6480 C   0  0  0  0  0  3  0  0  0  0  0  0
  -32.4640  -12.8680   16.8560 C   0  0  0  0  0  3  0  0  0  0  0  0
  -33.5250  -13.6840   17.3140 C   0  0  0  0  0  0  0  0  0  0  0  0
  -33.4220  -14.3060   18.5710 C   0  0  0  0  0  3  0  0  0  0  0  0
  -32.2700  -14.1380   19.3590 C   0  0  0  0  0  3  0  0  0  0  0  0
  -34.6980  -13.8820   16.6270 O   0  0  0  0  0  0  0  0  0  0  0  0
  -34.7390  -13.8740   15.2560 C   0  0  0  0  0  0  0  0  0  0  0  0
  -33.9700  -14.7690   14.4810 C   0  0  0  0  0  3  0  0  0  0  0  0
  -34.0940  -14.7700   13.0770 C   0  0  0  0  0  3  0  0  0  0  0  0
  -34.9910  -13.8870   12.4480 C   0  0  0  0  0  0  0  0  0  0  0  0
  -35.7620  -12.9990   13.2180 C   0  0  0  0  0  3  0  0  0  0  0  0
  -35.6390  -12.9940   14.6190 C   0  0  0  0  0  0  0  0  0  0  0  0
  -36.3990  -12.1510   15.3570 F   0  0  0  0  0  0  0  0  0  0  0  0
  -35.1180  -13.8940   11.1000 F   0  0  0  0  0  0  0  0  0  0  0  0
  -29.1810  -15.6780   20.0630 C   0  0  0  0  0  0  0  0  0  0  0  0
  -29.5430  -16.1170   18.8620 N   0  0  0  0  0  0  0  0  0  0  0  0
  -28.8700  -16.4600   20.9590 O   0  0  0  0  0  0  0  0  0  0  0  0
  -29.7950  -15.4780   18.1230 H   0  0  0  0  0  0  0  0  0  0  0  0
  -29.5790  -17.1100   18.6850 H   0  0  0  0  0  0  0  0  0  0  0  0
  -27.1720  -13.9300   21.8740 N   0  0  0  0  0  0  0  0  0  0  0  0
  -26.9270  -14.9070   21.9940 H   0  0  0  0  0  0  0  0  0  0  0  0
  -26.6130  -13.3110   22.4480 H   0  0  0  0  0  0  0  0  0  0  0  0
  1  2  1  0
  3  2  1  0
  4  3  1  0
  5  4  1  0
  6  7  1  0
  7  5  1  0
  7  9  1  0
  8  6  2  0
 10  6  1  0
 11 10  1  0
 12 11  1  0
 13 12  1  0
 14 13  1  0
 15 25  1  0
 16 22  1  0
 16 14  1  0
 17 27  1  0
 17 24  1  0
 18 23  1  0
 19 20  1  0
 20 18  2  0
 20 21  1  0
 21 16  2  0
 23 22  2  0
 24 18  1  0
 25 17  1  0
 25 19  1  0
 26 15  2  0
 27 29  2  0
 28 27  1  0
 30 28  1  0
 31 35  1  0
 32 28  1  0
 32 33  1  0
 33 34  1  0
 35 34  1  0
 36 31  1  0
 36 32  1  0
 37 36  2  0
 38 39  2  0
 38 37  1  0
 39 40  1  0
 40 31  2  0
 41 15  1  0
 41 42  1  0
 42 44  1  1
 43 42  1  0
 45 42  1  0
 46 41  1  0
 47 46  1  0
 47 48  2  0
 49 46  1  0
 51 50  1  0
 51 47  1  0
 53 51  1  0
 53 52  1  0
 54 53  1  0
 55  1  1  0
 56 55  1  0
 57 56  1  0
 58 57  1  0
 59 61  1  0
 59 58  1  0
 60 61  1  0
 60 64  1  0
 61 63  1  0
 62 60  2  0
 65 67  2  0
 66 64  1  0
 66 65  1  0
 68 66  1  0
 69 78  1  0
 69 65  1  0
 70 77  2  0
 71 72  1  0
 73 72  1  0
 74 75  1  0
 74 73  1  0
 75 76  1  0
 76 70  1  0
 76 71  1  0
 78 70  1  0
 79 78  1  0
 80105  1  0
 81 80  2  0
 82 84  2  0
 82 81  1  0
 83 80  1  0
 83 74  1  0
 84 83  1  0
 85 90  1  0
 85 82  1  0
 86 85  2  0
 87 88  2  0
 87 86  1  0
 88 89  1  0
 89 90  2  0
 91 88  1  0
 92 91  1  0
 93 92  2  0
 94 93  1  0
 95 94  2  0
 95 96  1  0
 96 97  2  0
 97 92  1  0
 97 98  1  0
 99 95  1  0
100 81  1  0
100102  2  0
101100  1  0
103101  1  0
104101  1  0
105106  1  0
105107  1  0
M  ISO  4  13 101  14 101  70 100  78 100
M  END
>  <TORSDO>  (78) 
F 34

>  <SCORE>  (78) 
16.808

>  <name>  (78) 
81

>  <ligand_id>  (78) 
81

>  <original_smiles>  (78) 
[H]c1c([H])c([H])c2c(c1[H])C([H])([H])C([H])([H])C([H])([H])C2([H])N([H])C(=O)C1([H])N(C(=O)C([H])(N([H])C(=O)C([H])(N([H])C([H])([H])[H])C([H])([H])[H])C(C([H])([H])[H])(C([H])([H])[H])C([H])([H])[H])C([H])([H])c2c([H])c(OC([H])([H])C([H])([H])OC([H])([H])C(=O)N([H])C([H])([H])C([H])([H])C([H])([H])C([H])([H])C([H])([H])C([H])([H])C([H])([H])C([H])([H])C([H])([H])C([H])([H])N([H])C(=O)C([H])([H])N([H])C(=O)C([H])([H])N([H])C(=O)N3C([H])([H])C([H])([H])C([H])([H])C([H])(n4nc(-c5c([H])c([H])c(Oc6c([H])c([H])c(F)c([H])c6F)c([H])c5[H])c(C(=O)N([H])[H])c4N([H])[H])C3([H])[H])c([H])c([H])c2C1([H])[H]

>  <smiles>  (78) 
[H]c1c([H])c([H])c2c(c1[H])C([H])([H])C([H])([H])C([H])([H])C2([H])N([H])C(=O)C1([H])N(C(=O)C([H])(N([H])C(=O)C([H])(N([H])C([H])([H])[H])C([H])([H])[H])C(C([H])([H])[H])(C([H])([H])[H])C([H])([H])[H])C([H])([H])c2c([H])c(OC([H])([H])C([H])([H])OC([H])([H])C(=O)N([H])C([H])([H])C([H])([H])C([H])([H])C([H])([H])C([H])([H])C([H])([H])C([H])([H])C([H])([H])C([H])([H])C([H])([H])N([H])C(=O)C([H])([H])N([H])C(=O)C([H])([H])N([H])C(=O)N3C([H])([H])C([H])([H])C([H])([H])C([H])(n4nc(-c5c([H])c([H])c(Oc6c([H])c([H])c(F)c([H])c6F)c([H])c5[H])c(C(=O)N([H])[H])c4N([H])[H])C3([H])[H])c([H])c([H])c2C1([H])[H]

$$$$
83:0:0
     RDKit          3D

112119  0  0  1  0  0  0  0  0999 V2000
  -38.8180  -23.1240   13.7110 C   0  0  0  0  0  2  0  0  0  0  0  0
  -37.3970  -22.8780   13.1500 C   0  0  0  0  0  2  0  0  0  0  0  0
  -36.8500  -21.5700   13.5820 N   0  0  0  0  0  4  0  0  0  0  0  0
  -37.2990  -20.8270   13.0680 H   0  0  0  0  0  0  0  0  0  0  0  0
  -37.1190  -21.4620   14.5580 H   0  0  0  0  0  0  0  0  0  0  0  0
  -35.3780  -21.4480   13.4960 C   0  0  0  0  0  2  0  0  0  0  0  0
  -34.8510  -20.1880   14.2150 C   0  0  0  0  0  2  0  0  0  0  0  0
  -33.3120  -20.1350   14.2510 C   0  0  0  0  0  2  0  0  0  0  0  0
  -32.7270  -19.0140   15.1380 C   0  0  0  0  0  2  0  0  0  0  0  0
  -33.2300  -19.8310   17.4500 C   0  0  0  0  0  0  0  0  0  0  0  0
  -33.3000  -18.9070   16.4840 N   0  0  0  0  0  0  0  0  0  0  0  0
  -32.9200  -21.0040   17.2450 O   0  0  0  0  0  0  0  0  0  0  0  0
  -33.5680  -17.9740   16.7750 H   0  0  0  0  0  0  0  0  0  0  0  0
  -33.4580  -19.3530   18.8830 C   0  0  0  0  0  2  0  0  0  0  0  0
  -32.1200  -19.3570   19.6470 C   0  0  0  0  0  2  0  0  0  0  0  0
  -32.1500  -18.5860   20.9700 C   0  0  0  0  0  2  0  0  0  0  0  0
  -30.7330  -18.3340   21.5140 C   0  0  0  0  0  2  0  0  0  0  0  0
  -30.6200  -17.0500   22.3540 C   0  0  0  0  0  2  0  0  0  0  0  0
  -30.3620  -15.2850   20.5290 C   0  0  0  0  0  0  0  0  0  0  0  0
  -30.3160  -13.0290   19.5230 C   0  0  0  0  0  2  0  0  0  0  0  0
  -29.4020  -12.8810   18.2950 C   0  0  0  0  0  2  0  0  0  0  0  0
  -27.9520  -12.5900   18.7190 C   0  0  0  0  0  2  0  0  0  0  0  0
  -27.4430  -13.5880   19.7870 C   0  0  0  0  0  3  0  0  0  0  0  0
  -28.4500  -13.7070   20.9500 C   0  0  0  0  0  2  0  0  0  0  0  0
  -29.7700  -14.0730   20.4030 N   0  0  0  0  0  0  0  0  0  0  0  0
  -31.2650  -15.6750   19.7840 O   0  0  0  0  0  0  0  0  0  0  0  0
  -30.0030  -15.9190   21.6550 N   0  0  0  0  0  0  0  0  0  0  0  0
  -29.2880  -15.4360   22.1800 H   0  0  0  0  0  0  0  0  0  0  0  0
  -25.0240  -14.0340   20.5580 C   0  0  0  0  0  0  0  0  0  0  0  0
  -24.0050  -13.1840   20.9040 C   0  0  0  0  0  0  0  0  0  0  0  0
  -24.5370  -11.8640   20.7920 C   0  0  0  0  0  0  0  0  0  0  0  0
  -26.1110  -13.2220   20.2660 N   0  0  0  0  0  0  0  0  0  0  0  0
  -25.8210  -11.9080   20.4610 N   0  0  0  0  0  0  0  0  0  0  0  0
  -23.8840  -10.5550   20.9260 C   0  0  0  0  0  0  0  0  0  0  0  0
  -24.3380   -9.5970   21.8600 C   0  0  0  0  0  3  0  0  0  0  0  0
  -23.6810   -8.3520   21.9820 C   0  0  0  0  0  3  0  0  0  0  0  0
  -22.5600   -8.0580   21.1710 C   0  0  0  0  0  0  0  0  0  0  0  0
  -22.1280   -9.0070   20.2290 C   0  0  0  0  0  3  0  0  0  0  0  0
  -22.7840  -10.2430   20.1040 C   0  0  0  0  0  3  0  0  0  0  0  0
  -21.8760   -6.8650   21.2020 O   0  0  0  0  0  0  0  0  0  0  0  0
  -21.7700   -6.1280   22.3540 C   0  0  0  0  0  0  0  0  0  0  0  0
  -21.2000   -6.6600   23.5310 C   0  0  0  0  0  3  0  0  0  0  0  0
  -21.0460   -5.8450   24.6700 C   0  0  0  0  0  3  0  0  0  0  0  0
  -21.4520   -4.4980   24.6330 C   0  0  0  0  0  0  0  0  0  0  0  0
  -22.0160   -3.9650   23.4600 C   0  0  0  0  0  3  0  0  0  0  0  0
  -22.1710   -4.7780   22.3240 C   0  0  0  0  0  0  0  0  0  0  0  0
  -22.6950   -4.2530   21.1890 F   0  0  0  0  0  0  0  0  0  0  0  0
  -21.2990   -3.7120   25.7240 F   0  0  0  0  0  0  0  0  0  0  0  0
  -22.5900  -13.5690   21.2230 C   0  0  0  0  0  0  0  0  0  0  0  0
  -21.9270  -12.8030   22.0840 N   0  0  0  0  0  0  0  0  0  0  0  0
  -22.0810  -14.5830   20.7490 O   0  0  0  0  0  0  0  0  0  0  0  0
  -22.3520  -11.9820   22.4880 H   0  0  0  0  0  0  0  0  0  0  0  0
  -20.9800  -13.0410   22.3390 H   0  0  0  0  0  0  0  0  0  0  0  0
  -25.1140  -15.4170   20.4530 N   0  0  0  0  0  0  0  0  0  0  0  0
  -24.3190  -16.0280   20.6100 H   0  0  0  0  0  0  0  0  0  0  0  0
  -25.9440  -15.9160   20.1560 H   0  0  0  0  0  0  0  0  0  0  0  0
  -38.9340  -23.9520   15.0220 C   0  0  0  0  0  2  0  0  0  0  0  0
  -37.4850  -22.6590   16.6130 C   0  0  0  0  0  0  0  0  0  0  0  0
  -37.8480  -23.7880   15.9930 N   0  0  0  0  0  0  0  0  0  0  0  0
  -38.0540  -21.5870   16.4000 O   0  0  0  0  0  0  0  0  0  0  0  0
  -37.3340  -24.6270   16.2360 H   0  0  0  0  0  0  0  0  0  0  0  0
  -36.2530  -22.6900   17.5120 C   0  0  0  0  0  2  0  0  0  0  0  0
  -35.2100  -23.7700   17.1550 C   0  0  0  0  0  2  0  0  0  0  0  0
  -33.8430  -23.4090   17.7430 C   0  0  0  0  0  2  0  0  0  0  0  0
  -32.8660  -24.5860   17.8370 C   0  0  0  0  0  2  0  0  0  0  0  0
  -31.4890  -24.1280   18.3460 C   0  0  0  0  0  2  0  0  0  0  0  0
  -29.8780  -26.0090   18.0800 C   0  0  0  0  0  0  0  0  0  0  0  0
  -30.6940  -25.2540   18.8210 N   0  0  0  0  0  0  0  0  0  0  0  0
  -29.6660  -25.7890   16.8850 O   0  0  0  0  0  0  0  0  0  0  0  0
  -30.7490  -25.4770   19.8070 H   0  0  0  0  0  0  0  0  0  0  0  0
  -29.2040  -27.1800   18.7980 C   0  0  0  0  0  2  0  0  0  0  0  0
  -28.2960  -26.6700   19.7710 O   0  0  0  0  0  0  0  0  0  0  0  0
  -24.6480  -31.8030   23.1380 C   0  0  0  0  0  0  0  0  0  0  0  0
  -27.1500  -27.4100   19.8860 C   0  0  0  0  0  0  0  0  0  0  0  0
  -23.3790  -30.4510   21.5000 C   0  0  0  0  0  3  0  0  0  0  0  0
  -24.7740  -28.9170   20.0170 C   0  0  0  0  0  0  0  0  0  0  0  0
  -25.8980  -30.7830   21.2430 C   0  0  0  0  0  2  0  0  0  0  0  0
  -25.9530  -29.4230   20.5790 C   0  0  0  0  0  0  0  0  0  0  0  0
  -27.1460  -28.6730   20.5180 C   0  0  0  0  0  3  0  0  0  0  0  0
  -25.9550  -26.9000   19.3410 C   0  0  0  0  0  3  0  0  0  0  0  0
  -24.7660  -27.6520   19.3990 C   0  0  0  0  0  3  0  0  0  0  0  0
  -23.5420  -29.7910   20.1040 C   0  0  0  0  0  2  0  0  0  0  0  0
  -24.6620  -31.0240   22.0210 N   0  0  0  0  0  0  0  0  0  0  0  0
  -23.5870  -32.0810   23.7110 O   0  0  0  0  0  0  0  0  0  0  0  0
  -22.7360  -29.4210   22.4560 C   0  0  0  0  0  0  0  0  0  0  0  0
  -21.4070  -29.2620   22.3580 N   0  0  0  0  0  0  0  0  0  0  0  0
  -23.4290  -28.7660   23.2390 O   0  0  0  0  0  0  0  0  0  0  0  0
  -20.9080  -29.8410   21.6960 H   0  0  0  0  0  0  0  0  0  0  0  0
  -18.0300  -28.1040   22.9060 C   0  0  0  0  0  0  0  0  0  0  0  0
  -20.5960  -28.3220   23.1300 C   0  0  0  0  0  3  0  0  0  0  0  0
  -20.6660  -26.8970   22.5310 C   0  0  0  0  0  2  0  0  0  0  0  0
  -19.5400  -26.6050   21.5330 C   0  0  0  0  0  2  0  0  0  0  0  0
  -18.1740  -26.7610   22.2070 C   0  0  0  0  0  2  0  0  0  0  0  0
  -19.1680  -28.8410   23.3240 C   0  0  0  0  0  0  0  0  0  0  0  0
  -18.9800  -30.1000   23.9370 C   0  0  0  0  0  3  0  0  0  0  0  0
  -17.6860  -30.6200   24.1340 C   0  0  0  0  0  3  0  0  0  0  0  0
  -16.5630  -29.8760   23.7320 C   0  0  0  0  0  3  0  0  0  0  0  0
  -16.7350  -28.6220   23.1230 C   0  0  0  0  0  3  0  0  0  0  0  0
  -25.9610  -32.3990   23.7340 C   0  0  0  0  0  3  0  0  0  0  0  0
  -25.6790  -33.7880   24.1190 N   0  0  0  0  0  0  0  0  0  0  0  0
  -25.9970  -34.8610   23.3820 C   0  0  0  0  0  0  0  0  0  0  0  0
  -26.6330  -34.7840   22.3260 O   0  0  0  0  0  0  0  0  0  0  0  0
  -25.1130  -33.9230   24.9440 H   0  0  0  0  0  0  0  0  0  0  0  0
  -24.2810  -36.6770   23.1360 C   0  0  0  0  0  1  0  0  0  0  0  0
  -25.5390  -36.2360   23.8980 C   0  0  0  0  0  3  0  0  0  0  0  0
  -27.7050  -37.0690   24.6980 C   0  0  0  0  0  1  0  0  0  0  0  0
  -26.5800  -37.2820   23.7910 N   0  0  0  0  0  0  0  0  0  0  0  0
  -26.1870  -38.2000   23.9840 H   0  0  0  0  0  0  0  0  0  0  0  0
  -26.5170  -31.5810   24.9640 C   0  0  1  0  0  0  0  0  0  0  0  0
  -25.4610  -31.3240   26.0620 C   0  0  0  0  0  1  0  0  0  0  0  0
  -27.0660  -30.2110   24.5020 C   0  0  0  0  0  1  0  0  0  0  0  0
  -27.7030  -32.3400   25.6060 C   0  0  0  0  0  1  0  0  0  0  0  0
  1 57  1  0
  2  3  1  0
  2  1  1  0
  3  5  1  0
  4  3  1  0
  6  3  1  0
  6  7  1  0
  7  8  1  0
  8  9  1  0
  9 11  1  0
 10 14  1  0
 11 13  1  0
 11 10  1  0
 12 10  2  0
 14 15  1  0
 15 16  1  0
 16 17  1  0
 17 18  1  0
 19 27  1  0
 20 25  1  0
 21 22  1  0
 21 20  1  0
 23 22  1  0
 23 32  1  0
 23 24  1  0
 25 19  1  0
 25 24  1  0
 26 19  2  0
 27 28  1  0
 27 18  1  0
 29 30  2  0
 30 49  1  0
 31 30  1  0
 31 34  1  0
 32 33  1  0
 32 29  1  0
 33 31  2  0
 34 35  1  0
 35 36  2  0
 37 40  1  0
 37 36  1  0
 38 37  2  0
 39 38  1  0
 39 34  2  0
 40 41  1  0
 41 42  1  0
 42 43  2  0
 44 43  1  0
 44 48  1  0
 45 44  2  0
 46 41  2  0
 46 45  1  0
 47 46  1  0
 49 50  1  0
 50 53  1  0
 50 52  1  0
 51 49  2  0
 54 29  1  0
 54 55  1  0
 56 54  1  0
 57 59  1  0
 58 62  1  0
 59 61  1  0
 59 58  1  0
 60 58  2  0
 63 62  1  0
 63 64  1  0
 64 65  1  0
 65 66  1  0
 66 68  1  0
 67 71  1  0
 67 68  1  0
 68 70  1  0
 69 67  2  0
 71 72  1  0
 72 74  1  0
 73 84  2  0
 74 79  1  0
 75 83  1  0
 75 85  1  0
 76 82  1  0
 76 78  1  0
 77 83  1  0
 78 77  1  0
 79 78  2  0
 80 81  1  0
 80 74  2  0
 81 76  2  0
 82 75  1  0
 83 73  1  0
 85 87  2  0
 86 85  1  0
 88 86  1  0
 89 98  2  0
 89 94  1  0
 90 86  1  0
 90 94  1  0
 91 90  1  0
 92 93  1  0
 92 91  1  0
 93 89  1  0
 94 95  2  0
 95 96  1  0
 97 96  2  0
 98 97  1  0
 99 73  1  0
 99100  1  0
 99109  1  0
100103  1  0
101105  1  0
101100  1  0
102101  2  0
105104  1  0
107105  1  0
107108  1  0
107106  1  0
109112  1  1
109110  1  0
111109  1  0
M  ISO  4  19 100  27 100  71 101  72 101
M  END
>  <TORSDO>  (79) 
F 37

>  <SCORE>  (79) 
-9.187

>  <name>  (79) 
83

>  <ligand_id>  (79) 
83

>  <original_smiles>  (79) 
[H]c1c([H])c([H])c2c(c1[H])C([H])([H])C([H])([H])C([H])([H])C2([H])N([H])C(=O)C1([H])N(C(=O)C([H])(N([H])C(=O)C([H])(N([H])C([H])([H])[H])C([H])([H])[H])C(C([H])([H])[H])(C([H])([H])[H])C([H])([H])[H])C([H])([H])c2c([H])c(OC([H])([H])C(=O)N([H])C([H])([H])C([H])([H])C([H])([H])C([H])([H])C([H])([H])C(=O)N([H])C([H])([H])C([H])([H])C([H])([H])[N+]([H])([H])C([H])([H])C([H])([H])C([H])([H])C([H])([H])N([H])C(=O)C([H])([H])C([H])([H])C([H])([H])C([H])([H])C([H])([H])N([H])C(=O)N3C([H])([H])C([H])([H])C([H])([H])C([H])(n4nc(-c5c([H])c([H])c(Oc6c([H])c([H])c(F)c([H])c6F)c([H])c5[H])c(C(=O)N([H])[H])c4N([H])[H])C3([H])[H])c([H])c([H])c2C1([H])[H]

>  <smiles>  (79) 
[H]c1c([H])c([H])c2c(c1[H])C([H])([H])C([H])([H])C([H])([H])C2([H])N([H])C(=O)C1([H])N(C(=O)C([H])(N([H])C(=O)C([H])(N([H])C([H])([H])[H])C([H])([H])[H])C(C([H])([H])[H])(C([H])([H])[H])C([H])([H])[H])C([H])([H])c2c([H])c(OC([H])([H])C(=O)N([H])C([H])([H])C([H])([H])C([H])([H])C([H])([H])C([H])([H])C(=O)N([H])C([H])([H])C([H])([H])C([H])([H])[N+]([H])([H])C([H])([H])C([H])([H])C([H])([H])C([H])([H])N([H])C(=O)C([H])([H])C([H])([H])C([H])([H])C([H])([H])C([H])([H])N([H])C(=O)N3C([H])([H])C([H])([H])C([H])([H])C([H])(n4nc(-c5c([H])c([H])c(Oc6c([H])c([H])c(F)c([H])c6F)c([H])c5[H])c(C(=O)N([H])[H])c4N([H])[H])C3([H])[H])c([H])c([H])c2C1([H])[H]

$$$$
84:0:0
     RDKit          3D

108112  0  0  1  0  0  0  0  0999 V2000
  -26.7340  -15.6870   21.5260 C   0  0  0  0  0  0  0  0  0  0  0  0
  -26.9390  -16.7430   20.7370 N   0  0  0  0  0  0  0  0  0  0  0  0
  -25.6700  -15.5180   22.1220 O   0  0  0  0  0  0  0  0  0  0  0  0
  -27.8350  -16.8680   20.2820 H   0  0  0  0  0  0  0  0  0  0  0  0
  -25.9270  -17.7380   20.3940 C   0  0  0  0  0  2  0  0  0  0  0  0
  -26.5080  -18.7690   19.4260 C   0  0  0  0  0  0  0  0  0  0  0  0
  -25.6590  -19.6610   18.9050 N   0  0  0  0  0  0  0  0  0  0  0  0
  -27.7130  -18.7550   19.1510 O   0  0  0  0  0  0  0  0  0  0  0  0
  -24.6840  -19.6060   19.1770 H   0  0  0  0  0  0  0  0  0  0  0  0
  -26.0440  -20.6800   17.9340 C   0  0  0  0  0  2  0  0  0  0  0  0
  -24.8970  -21.6670   17.6510 C   0  0  0  0  0  2  0  0  0  0  0  0
  -25.2890  -23.1440   17.8100 C   0  0  0  0  0  2  0  0  0  0  0  0
  -25.5990  -23.5460   19.2580 C   0  0  0  0  0  2  0  0  0  0  0  0
  -25.7410  -25.0660   19.4280 C   0  0  0  0  0  2  0  0  0  0  0  0
  -26.5340  -25.4220   20.6930 C   0  0  0  0  0  2  0  0  0  0  0  0
  -26.7220  -26.8280   20.8180 O   0  0  0  0  0  0  0  0  0  0  0  0
  -27.2700  -32.3540   25.2250 C   0  0  0  0  0  0  0  0  0  0  0  0
  -26.1880  -27.4550   21.9210 C   0  0  0  0  0  0  0  0  0  0  0  0
  -25.6380  -30.6190   25.8960 C   0  0  0  0  0  3  0  0  0  0  0  0
  -25.1190  -28.8510   24.1350 C   0  0  0  0  0  0  0  0  0  0  0  0
  -26.2030  -30.9920   23.4300 C   0  0  0  0  0  2  0  0  0  0  0  0
  -25.9210  -29.5230   23.2050 C   0  0  0  0  0  0  0  0  0  0  0  0
  -26.4480  -28.8310   22.0950 C   0  0  0  0  0  3  0  0  0  0  0  0
  -25.3860  -26.7870   22.8760 C   0  0  0  0  0  3  0  0  0  0  0  0
  -24.8500  -27.4790   23.9780 C   0  0  0  0  0  3  0  0  0  0  0  0
  -24.5750  -29.6680   25.2830 C   0  0  0  0  0  2  0  0  0  0  0  0
  -26.4280  -31.3490   24.8520 N   0  0  0  0  0  0  0  0  0  0  0  0
  -27.3620  -32.7060   26.4090 O   0  0  0  0  0  0  0  0  0  0  0  0
  -26.5190  -29.8050   26.8720 C   0  0  0  0  0  0  0  0  0  0  0  0
  -26.3340  -30.0410   28.1800 N   0  0  0  0  0  0  0  0  0  0  0  0
  -27.3190  -28.9650   26.4510 O   0  0  0  0  0  0  0  0  0  0  0  0
  -25.6610  -30.7470   28.4420 H   0  0  0  0  0  0  0  0  0  0  0  0
  -27.1070  -30.2640   31.7010 C   0  0  0  0  0  0  0  0  0  0  0  0
  -27.0190  -29.3650   29.2800 C   0  0  0  0  0  3  0  0  0  0  0  0
  -26.1570  -28.2140   29.8470 C   0  0  0  0  0  2  0  0  0  0  0  0
  -25.2860  -28.6410   31.0330 C   0  0  0  0  0  2  0  0  0  0  0  0
  -26.1560  -29.1780   32.1730 C   0  0  0  0  0  2  0  0  0  0  0  0
  -27.5010  -30.3610   30.3400 C   0  0  0  0  0  0  0  0  0  0  0  0
  -28.3600  -31.4100   29.9480 C   0  0  0  0  0  3  0  0  0  0  0  0
  -28.8260  -32.3480   30.8880 C   0  0  0  0  0  3  0  0  0  0  0  0
  -28.4450  -32.2400   32.2370 C   0  0  0  0  0  3  0  0  0  0  0  0
  -27.5920  -31.1980   32.6420 C   0  0  0  0  0  3  0  0  0  0  0  0
  -28.1400  -33.1240   24.1820 C   0  0  0  0  0  3  0  0  0  0  0  0
  -29.6260  -32.5980   24.1010 C   0  0  1  0  0  0  0  0  0  0  0  0
  -30.3260  -32.4970   25.4770 C   0  0  0  0  0  1  0  0  0  0  0  0
  -29.6740  -31.1990   23.4430 C   0  0  0  0  0  1  0  0  0  0  0  0
  -30.4660  -33.5380   23.2040 C   0  0  0  0  0  1  0  0  0  0  0  0
  -28.1100  -34.5460   24.5450 N   0  0  0  0  0  0  0  0  0  0  0  0
  -27.4640  -35.4940   23.8530 C   0  0  0  0  0  0  0  0  0  0  0  0
  -26.8820  -35.2660   22.7880 O   0  0  0  0  0  0  0  0  0  0  0  0
  -28.5180  -34.7950   25.4350 H   0  0  0  0  0  0  0  0  0  0  0  0
  -26.0590  -37.2550   24.9710 C   0  0  0  0  0  1  0  0  0  0  0  0
  -27.4600  -36.9210   24.4340 C   0  0  0  0  0  3  0  0  0  0  0  0
  -29.3060  -37.9030   23.1490 C   0  0  0  0  0  1  0  0  0  0  0  0
  -27.8810  -37.9520   23.4630 N   0  0  0  0  0  0  0  0  0  0  0  0
  -27.6660  -38.8830   23.8090 H   0  0  0  0  0  0  0  0  0  0  0  0
  -27.8900  -14.6860   21.6630 C   0  0  0  0  0  2  0  0  0  0  0  0
  -27.4230  -13.2170   21.6760 C   0  0  0  0  0  2  0  0  0  0  0  0
  -28.5170  -12.2180   22.1000 C   0  0  0  0  0  2  0  0  0  0  0  0
  -27.9360  -11.0720   22.9500 C   0  0  0  0  0  2  0  0  0  0  0  0
  -28.8850  -10.5650   24.0490 C   0  0  0  0  0  2  0  0  0  0  0  0
  -28.8940   -8.1990   23.2550 C   0  0  0  0  0  0  0  0  0  0  0  0
  -29.5220   -9.3020   23.6850 N   0  0  0  0  0  0  0  0  0  0  0  0
  -27.6740   -8.1530   23.0980 O   0  0  0  0  0  0  0  0  0  0  0  0
  -30.5270   -9.2540   23.7860 H   0  0  0  0  0  0  0  0  0  0  0  0
  -29.7350   -6.9410   22.9940 C   0  0  0  0  0  2  0  0  0  0  0  0
  -31.2240   -7.0400   23.3910 C   0  0  0  0  0  2  0  0  0  0  0  0
  -32.1110   -7.8770   22.4420 C   0  0  0  0  0  2  0  0  0  0  0  0
  -33.6020   -7.7860   22.8140 C   0  0  0  0  0  2  0  0  0  0  0  0
  -34.5170   -7.2710   21.6820 C   0  0  0  0  0  2  0  0  0  0  0  0
  -36.8100   -8.9820   21.4900 C   0  0  2  0  0  0  0  0  0  0  0  0
  -37.4840   -7.5420   21.2840 C   0  0  0  0  0  1  0  0  0  0  0  0
  -37.3890   -7.9630   19.4330 C   0  0  0  0  0  1  0  0  0  0  0  0
  -36.3920   -9.3240   18.9060 C   0  0  0  0  0  2  0  0  0  0  0  0
  -35.8140  -10.5730   20.0010 C   0  0  0  0  0  2  0  0  0  0  0  0
  -35.9050  -10.2850   21.8640 C   0  0  0  0  0  1  0  0  0  0  0  0
  -36.6870   -8.7410   22.4050 N   0  0  0  0  0  1  0  0  0  0  0  0
  -37.9980   -9.6770   21.3140 O   0  0  0  0  0  1  0  0  0  0  0  0
  -35.3950   -8.2830   21.0310 N   0  0  0  0  0  2  0  0  0  0  0  0
  -35.1360   -8.5130   20.0830 H   0  0  0  0  0  0  0  0  0  0  0  0
  -34.4210  -12.2320   18.6570 C   0  0  0  0  0  0  0  0  0  0  0  0
  -33.0840  -12.4230   18.4500 C   0  0  0  0  0  0  0  0  0  0  0  0
  -32.4160  -11.3970   19.1880 C   0  0  0  0  0  0  0  0  0  0  0  0
  -34.5450  -11.1610   19.5200 N   0  0  0  0  0  0  0  0  0  0  0  0
  -33.3160  -10.6620   19.8600 N   0  0  0  0  0  0  0  0  0  0  0  0
  -30.9710  -11.0690   19.2370 C   0  0  0  0  0  0  0  0  0  0  0  0
  -30.2420  -11.1240   20.4430 C   0  0  0  0  0  3  0  0  0  0  0  0
  -28.8550  -10.8490   20.4660 C   0  0  0  0  0  3  0  0  0  0  0  0
  -28.1760  -10.5200   19.2700 C   0  0  0  0  0  0  0  0  0  0  0  0
  -28.9060  -10.4490   18.0700 C   0  0  0  0  0  3  0  0  0  0  0  0
  -30.2850  -10.7190   18.0530 C   0  0  0  0  0  3  0  0  0  0  0  0
  -26.8370  -10.2030   19.2010 O   0  0  0  0  0  0  0  0  0  0  0  0
  -25.8750  -10.9770   19.7970 C   0  0  0  0  0  0  0  0  0  0  0  0
  -25.8580  -12.3850   19.6640 C   0  0  0  0  0  3  0  0  0  0  0  0
  -24.8140  -13.1340   20.2420 C   0  0  0  0  0  3  0  0  0  0  0  0
  -23.7800  -12.4860   20.9420 C   0  0  0  0  0  0  0  0  0  0  0  0
  -23.7890  -11.0850   21.0660 C   0  0  0  0  0  3  0  0  0  0  0  0
  -24.8300  -10.3330   20.4940 C   0  0  0  0  0  0  0  0  0  0  0  0
  -24.8200   -8.9830   20.5990 F   0  0  0  0  0  0  0  0  0  0  0  0
  -22.7740  -13.2040   21.4940 F   0  0  0  0  0  0  0  0  0  0  0  0
  -32.4750  -13.4420   17.5330 C   0  0  0  0  0  0  0  0  0  0  0  0
  -31.3270  -13.9970   17.9050 N   0  0  0  0  0  0  0  0  0  0  0  0
  -33.0450  -13.7930   16.5000 O   0  0  0  0  0  0  0  0  0  0  0  0
  -30.8800  -13.7440   18.7720 H   0  0  0  0  0  0  0  0  0  0  0  0
  -30.8890  -14.6850   17.3100 H   0  0  0  0  0  0  0  0  0  0  0  0
  -35.5540  -12.8710   18.1730 N   0  0  0  0  0  0  0  0  0  0  0  0
  -35.5010  -13.6770   17.5610 H   0  0  0  0  0  0  0  0  0  0  0  0
  -36.5030  -12.6360   18.4320 H   0  0  0  0  0  0  0  0  0  0  0  0
  1 57  1  0
  1  3  2  0
  2  1  1  0
  4  2  1  0
  5  2  1  0
  6  5  1  0
  7  9  1  0
  7  6  1  0
  8  6  2  0
 10  7  1  0
 11 12  1  0
 11 10  1  0
 12 13  1  0
 13 14  1  0
 14 15  1  0
 15 16  1  0
 16 18  1  0
 17 28  2  0
 18 23  2  0
 18 24  1  0
 19 29  1  0
 20 26  1  0
 21 27  1  0
 22 21  1  0
 22 20  2  0
 23 22  1  0
 24 25  2  0
 25 20  1  0
 26 19  1  0
 27 17  1  0
 27 19  1  0
 29 30  1  0
 30 32  1  0
 31 29  2  0
 33 37  1  0
 33 42  1  0
 34 30  1  0
 34 35  1  0
 34 38  1  0
 35 36  1  0
 36 37  1  0
 38 33  2  0
 39 38  1  0
 39 40  2  0
 40 41  1  0
 41 42  2  0
 43 48  1  0
 43 17  1  0
 44 43  1  0
 44 45  1  1
 46 44  1  0
 47 44  1  0
 48 51  1  0
 49 53  1  0
 49 48  1  0
 50 49  2  0
 53 52  1  0
 54 55  1  0
 55 56  1  0
 55 53  1  0
 57 58  1  0
 58 59  1  0
 59 60  1  0
 60 61  1  0
 62 63  1  0
 63 65  1  0
 63 61  1  0
 64 62  2  0
 66 62  1  0
 66 67  1  0
 68 69  1  0
 68 67  1  0
 70 69  1  0
 71 76  1  6
 71 77  1  0
 72 71  1  0
 74 73  1  0
 74 75  1  0
 78 71  1  0
 79 70  1  0
 80 79  1  0
 81 84  1  0
 82 81  2  0
 82 83  1  0
 83 86  1  0
 83 85  2  0
 84 85  1  0
 84 75  1  0
 86 87  1  0
 87 88  2  0
 89 88  1  0
 90 89  2  0
 91 90  1  0
 91 86  2  0
 92 89  1  0
 92 93  1  0
 93 98  1  0
 94 93  2  0
 94 95  1  0
 95 96  2  0
 96 97  1  0
 96100  1  0
 98 99  1  0
 98 97  2  0
101102  1  0
101 82  1  0
102104  1  0
103101  2  0
105102  1  0
106108  1  0
106 81  1  0
107106  1  0
M  ISO  4  15 101  16 101  71 100  79 100
M  END
>  <TORSDO>  (80) 
F 35

>  <SCORE>  (80) 
-1.520

>  <name>  (80) 
84

>  <ligand_id>  (80) 
84

>  <original_smiles>  (80) 
[H]c1c([H])c([H])c2c(c1[H])C([H])([H])C([H])([H])C([H])([H])C2([H])N([H])C(=O)C1([H])N(C(=O)C([H])(N([H])C(=O)C([H])(N([H])C([H])([H])[H])C([H])([H])[H])C(C([H])([H])[H])(C([H])([H])[H])C([H])([H])[H])C([H])([H])c2c([H])c(OC([H])([H])C([H])([H])C([H])([H])C([H])([H])C([H])([H])C([H])([H])N([H])C(=O)C([H])([H])N([H])C(=O)C([H])([H])C([H])([H])C([H])([H])C([H])([H])C([H])([H])N([H])C(=O)C([H])([H])C([H])([H])C([H])([H])C([H])([H])C([H])([H])N([H])C(=O)N3C([H])([H])C([H])([H])C([H])([H])C([H])(n4nc(-c5c([H])c([H])c(Oc6c([H])c([H])c(F)c([H])c6F)c([H])c5[H])c(C(=O)N([H])[H])c4N([H])[H])C3([H])[H])c([H])c([H])c2C1([H])[H]

>  <smiles>  (80) 
[H]c1c([H])c([H])c2c(c1[H])C([H])([H])C([H])([H])C([H])([H])C2([H])N([H])C(=O)C1([H])N(C(=O)C([H])(N([H])C(=O)C([H])(N([H])C([H])([H])[H])C([H])([H])[H])C(C([H])([H])[H])(C([H])([H])[H])C([H])([H])[H])C([H])([H])c2c([H])c(OC([H])([H])C([H])([H])C([H])([H])C([H])([H])C([H])([H])C([H])([H])N([H])C(=O)C([H])([H])N([H])C(=O)C([H])([H])C([H])([H])C([H])([H])C([H])([H])C([H])([H])N([H])C(=O)C([H])([H])C([H])([H])C([H])([H])C([H])([H])C([H])([H])N([H])C(=O)N3C([H])([H])C([H])([H])C([H])([H])C([H])(n4nc(-c5c([H])c([H])c(Oc6c([H])c([H])c(F)c([H])c6F)c([H])c5[H])c(C(=O)N([H])[H])c4N([H])[H])C3([H])[H])c([H])c([H])c2C1([H])[H]

$$$$
85:0:0
     RDKit          3D

111118  0  0  1  0  0  0  0  0999 V2000
  -31.6350  -22.6410   25.1940 C   0  0  0  0  0  0  0  0  0  0  0  0
  -31.7760  -23.7190   25.9770 N   0  0  0  0  0  0  0  0  0  0  0  0
  -32.5630  -22.2290   24.5000 O   0  0  0  0  0  0  0  0  0  0  0  0
  -30.9980  -23.9930   26.5650 H   0  0  0  0  0  0  0  0  0  0  0  0
  -32.8850  -24.6810   25.8750 C   0  0  0  0  0  2  0  0  0  0  0  0
  -32.6530  -25.6270   24.6860 C   0  0  0  0  0  2  0  0  0  0  0  0
  -31.4240  -26.5460   24.8720 C   0  0  0  0  0  2  0  0  0  0  0  0
  -30.8060  -26.9320   23.5180 C   0  0  0  0  0  2  0  0  0  0  0  0
  -31.8210  -27.6350   22.6570 C   0  0  0  0  0  0  0  0  0  0  0  0
  -32.6600  -28.5130   23.2350 N   0  0  0  0  0  4  0  0  0  0  0  0
  -31.8620  -27.4120   21.3140 N   0  0  0  0  0  0  0  0  0  0  0  0
  -32.6140  -28.6590   24.2370 H   0  0  0  0  0  0  0  0  0  0  0  0
  -33.3340  -29.0890   22.7440 H   0  0  0  0  0  0  0  0  0  0  0  0
  -32.6490  -27.7960   20.8000 H   0  0  0  0  0  0  0  0  0  0  0  0
  -30.8920  -26.6160   20.5030 C   0  0  0  0  0  2  0  0  0  0  0  0
  -29.4190  -27.2560   20.5050 C   0  0  0  0  0  2  0  0  0  0  0  0
  -28.2880  -26.5380   20.0680 O   0  0  0  0  0  0  0  0  0  0  0  0
  -24.5970  -31.8820   23.2090 C   0  0  0  0  0  0  0  0  0  0  0  0
  -27.1860  -27.3800   20.1430 C   0  0  0  0  0  0  0  0  0  0  0  0
  -23.3800  -30.5110   21.5570 C   0  0  0  0  0  3  0  0  0  0  0  0
  -24.8160  -28.9470   20.1360 C   0  0  0  0  0  0  0  0  0  0  0  0
  -25.8970  -30.8290   21.3610 C   0  0  0  0  0  2  0  0  0  0  0  0
  -25.9680  -29.4480   20.7500 C   0  0  0  0  0  0  0  0  0  0  0  0
  -27.1340  -28.6790   20.7860 C   0  0  0  0  0  3  0  0  0  0  0  0
  -26.0190  -26.9160   19.5370 C   0  0  0  0  0  3  0  0  0  0  0  0
  -24.8370  -27.6700   19.5450 C   0  0  0  0  0  3  0  0  0  0  0  0
  -23.5880  -29.8350   20.1770 C   0  0  0  0  0  2  0  0  0  0  0  0
  -24.6480  -31.0810   22.1070 N   0  0  0  0  0  0  0  0  0  0  0  0
  -23.5190  -32.1630   23.7500 O   0  0  0  0  0  0  0  0  0  0  0  0
  -22.7370  -29.4740   22.5090 C   0  0  0  0  0  0  0  0  0  0  0  0
  -21.4050  -29.3080   22.3870 N   0  0  0  0  0  0  0  0  0  0  0  0
  -23.4160  -28.8290   23.3070 O   0  0  0  0  0  0  0  0  0  0  0  0
  -20.9130  -29.8770   21.7200 H   0  0  0  0  0  0  0  0  0  0  0  0
  -18.0400  -28.1560   22.8550 C   0  0  0  0  0  0  0  0  0  0  0  0
  -20.5930  -28.3720   23.1500 C   0  0  0  0  0  3  0  0  0  0  0  0
  -20.6850  -26.9500   22.5410 C   0  0  0  0  0  2  0  0  0  0  0  0
  -19.5840  -26.6490   21.5230 C   0  0  0  0  0  2  0  0  0  0  0  0
  -18.2030  -26.8100   22.1680 C   0  0  0  0  0  2  0  0  0  0  0  0
  -19.1550  -28.8910   23.3060 C   0  0  0  0  0  0  0  0  0  0  0  0
  -18.9550  -30.1590   23.9100 C   0  0  0  0  0  3  0  0  0  0  0  0
  -17.6530  -30.6680   24.0690 C   0  0  0  0  0  3  0  0  0  0  0  0
  -16.5450  -29.9270   23.6310 C   0  0  0  0  0  3  0  0  0  0  0  0
  -16.7340  -28.6670   23.0230 C   0  0  0  0  0  3  0  0  0  0  0  0
  -25.8840  -32.4990   23.8370 C   0  0  0  0  0  3  0  0  0  0  0  0
  -25.5660  -33.8720   24.2250 N   0  0  0  0  0  0  0  0  0  0  0  0
  -25.8950  -34.9530   23.5220 C   0  0  0  0  0  0  0  0  0  0  0  0
  -26.5570  -34.9070   22.4710 O   0  0  0  0  0  0  0  0  0  0  0  0
  -24.9480  -33.9770   25.0230 H   0  0  0  0  0  0  0  0  0  0  0  0
  -24.1450  -36.7350   23.2700 C   0  0  0  0  0  1  0  0  0  0  0  0
  -25.4070  -36.3150   24.0420 C   0  0  0  0  0  3  0  0  0  0  0  0
  -27.5640  -37.1810   24.8500 C   0  0  0  0  0  1  0  0  0  0  0  0
  -26.4310  -37.3780   23.9480 N   0  0  0  0  0  0  0  0  0  0  0  0
  -26.0220  -38.2900   24.1260 H   0  0  0  0  0  0  0  0  0  0  0  0
  -26.4210  -31.6940   25.0720 C   0  0  1  0  0  0  0  0  0  0  0  0
  -25.3370  -31.4220   26.1490 C   0  0  0  0  0  1  0  0  0  0  0  0
  -27.0030  -30.3420   24.6050 C   0  0  0  0  0  1  0  0  0  0  0  0
  -27.5790  -32.4760   25.7300 C   0  0  0  0  0  1  0  0  0  0  0  0
  -30.2600  -21.9560   25.0970 C   0  0  0  0  0  2  0  0  0  0  0  0
  -30.1790  -21.0630   23.8120 C   0  0  0  0  0  2  0  0  0  0  0  0
  -28.8120  -20.4100   23.5330 C   0  0  0  0  0  2  0  0  0  0  0  0
  -28.6930  -19.8500   22.0990 C   0  0  0  0  0  2  0  0  0  0  0  0
  -29.4580  -17.4900   22.1020 C   0  0  0  0  0  0  0  0  0  0  0  0
  -29.6720  -18.7890   21.8640 N   0  0  0  0  0  0  0  0  0  0  0  0
  -28.3620  -17.0450   22.4300 O   0  0  0  0  0  0  0  0  0  0  0  0
  -30.5890  -19.0680   21.5430 H   0  0  0  0  0  0  0  0  0  0  0  0
  -30.6550  -16.5420   21.9710 C   0  0  0  0  0  3  0  0  0  0  0  0
  -30.7380  -14.3860   20.6840 C   0  0  0  0  0  0  0  0  0  0  0  0
  -30.4240  -12.3020   19.4050 C   0  0  0  0  0  2  0  0  0  0  0  0
  -29.4970  -12.5290   18.1980 C   0  0  0  0  0  2  0  0  0  0  0  0
  -28.0170  -12.3730   18.6100 C   0  0  0  0  0  2  0  0  0  0  0  0
  -27.6610  -13.2030   19.8750 C   0  0  0  0  0  3  0  0  0  0  0  0
  -28.6920  -12.9450   20.9910 C   0  0  0  0  0  2  0  0  0  0  0  0
  -30.0350  -13.2520   20.4590 N   0  0  0  0  0  0  0  0  0  0  0  0
  -31.8060  -14.6550   20.1280 O   0  0  0  0  0  0  0  0  0  0  0  0
  -30.1630  -15.2360   21.5510 N   0  0  0  0  0  0  0  0  0  0  0  0
  -29.2250  -15.0180   21.8510 H   0  0  0  0  0  0  0  0  0  0  0  0
  -25.2560  -13.8140   20.5640 C   0  0  0  0  0  0  0  0  0  0  0  0
  -24.1830  -13.0430   20.9130 C   0  0  0  0  0  0  0  0  0  0  0  0
  -24.6370  -11.6880   20.8710 C   0  0  0  0  0  0  0  0  0  0  0  0
  -26.2990  -12.9310   20.3300 N   0  0  0  0  0  0  0  0  0  0  0  0
  -25.9290  -11.6480   20.5680 N   0  0  0  0  0  0  0  0  0  0  0  0
  -23.9050  -10.4280   21.0380 C   0  0  0  0  0  0  0  0  0  0  0  0
  -24.3610   -9.4200   21.9160 C   0  0  0  0  0  3  0  0  0  0  0  0
  -23.6280   -8.2240   22.0740 C   0  0  0  0  0  3  0  0  0  0  0  0
  -22.4260   -8.0280   21.3530 C   0  0  0  0  0  0  0  0  0  0  0  0
  -21.9900   -9.0250   20.4630 C   0  0  0  0  0  3  0  0  0  0  0  0
  -22.7220  -10.2120   20.3030 C   0  0  0  0  0  3  0  0  0  0  0  0
  -21.6630   -6.8870   21.4240 O   0  0  0  0  0  0  0  0  0  0  0  0
  -21.6860   -6.0730   22.5290 C   0  0  0  0  0  0  0  0  0  0  0  0
  -21.4010   -6.5640   23.8220 C   0  0  0  0  0  3  0  0  0  0  0  0
  -21.3650   -5.6780   24.9180 C   0  0  0  0  0  3  0  0  0  0  0  0
  -21.6050   -4.3050   24.7230 C   0  0  0  0  0  0  0  0  0  0  0  0
  -21.8820   -3.8140   23.4350 C   0  0  0  0  0  3  0  0  0  0  0  0
  -21.9190   -4.6960   22.3410 C   0  0  0  0  0  0  0  0  0  0  0  0
  -22.1660   -4.2150   21.0980 F   0  0  0  0  0  0  0  0  0  0  0  0
  -21.5620   -3.4540   25.7730 F   0  0  0  0  0  0  0  0  0  0  0  0
  -22.7850  -13.5220   21.1870 C   0  0  0  0  0  0  0  0  0  0  0  0
  -22.0510  -12.8200   22.0400 N   0  0  0  0  0  0  0  0  0  0  0  0
  -22.3520  -14.5540   20.6720 O   0  0  0  0  0  0  0  0  0  0  0  0
  -22.4110  -11.9850   22.4780 H   0  0  0  0  0  0  0  0  0  0  0  0
  -21.1110  -13.1210   22.2620 H   0  0  0  0  0  0  0  0  0  0  0  0
  -25.4280  -15.1870   20.4080 N   0  0  0  0  0  0  0  0  0  0  0  0
  -24.6720  -15.8470   20.5490 H   0  0  0  0  0  0  0  0  0  0  0  0
  -26.3010  -15.6340   20.1550 H   0  0  0  0  0  0  0  0  0  0  0  0
  -31.5500  -16.4300   23.2370 C   0  0  0  0  0  2  0  0  0  0  0  0
  -30.8530  -15.9650   24.5380 C   0  0  0  0  0  2  0  0  0  0  0  0
  -32.5300  -14.8160   25.9920 C   0  0  0  0  0  0  0  0  0  0  0  0
  -33.4260  -14.9270   27.2220 C   0  0  0  0  0  1  0  0  0  0  0  0
  -31.7880  -15.8830   25.6620 N   0  0  0  0  0  0  0  0  0  0  0  0
  -32.5080  -13.7690   25.3460 O   0  0  0  0  0  0  0  0  0  0  0  0
  -31.8610  -16.6970   26.2580 H   0  0  0  0  0  0  0  0  0  0  0  0
  1  2  1  0
  2  4  1  0
  3  1  2  0
  5  2  1  0
  6  7  1  0
  6  5  1  0
  8  7  1  0
  9 10  2  0
  9  8  1  0
 10 12  1  0
 11  9  1  0
 13 10  1  0
 14 11  1  0
 15 16  1  0
 15 11  1  0
 17 19  1  0
 17 16  1  0
 18 29  2  0
 19 24  1  0
 20 28  1  0
 20 30  1  0
 21 27  1  0
 21 23  1  0
 22 28  1  0
 23 24  2  0
 23 22  1  0
 25 26  1  0
 25 19  2  0
 26 21  2  0
 27 20  1  0
 28 18  1  0
 30 32  2  0
 31 30  1  0
 33 31  1  0
 34 43  2  0
 34 39  1  0
 35 31  1  0
 35 39  1  0
 36 35  1  0
 37 38  1  0
 37 36  1  0
 38 34  1  0
 39 40  2  0
 40 41  1  0
 42 41  2  0
 43 42  1  0
 44 18  1  0
 44 45  1  0
 44 54  1  0
 45 48  1  0
 46 50  1  0
 46 45  1  0
 47 46  2  0
 50 49  1  0
 52 50  1  0
 52 53  1  0
 52 51  1  0
 54 57  1  1
 54 55  1  0
 56 54  1  0
 58  1  1  0
 59 58  1  0
 60 59  1  0
 61 60  1  0
 62 64  2  0
 63 61  1  0
 63 62  1  0
 65 63  1  0
 66 62  1  0
 66105  1  0
 67 75  1  0
 68 73  1  0
 69 70  1  0
 69 68  1  0
 71 70  1  0
 71 80  1  0
 71 72  1  0
 73 67  1  0
 73 72  1  0
 74 67  2  0
 75 76  1  0
 75 66  1  0
 77 78  2  0
 78 97  1  0
 79 78  1  0
 79 82  1  0
 80 77  1  0
 80 81  1  0
 81 79  2  0
 82 83  1  0
 83 84  2  0
 85 88  1  0
 85 84  1  0
 86 85  2  0
 87 86  1  0
 87 82  2  0
 88 89  1  0
 89 90  1  0
 90 91  2  0
 92 91  1  0
 92 96  1  0
 93 92  2  0
 94 89  2  0
 94 93  1  0
 95 94  1  0
 97 98  1  0
 98101  1  0
 98100  1  0
 99 97  2  0
102103  1  0
102 77  1  0
104102  1  0
105106  1  0
106109  1  0
107108  1  0
109107  1  0
109111  1  0
110107  2  0
M  ISO  4  16 101  17 101  67 100  75 100
M  END
>  <TORSDO>  (81) 
F 32

>  <SCORE>  (81) 
35.936

>  <name>  (81) 
85

>  <ligand_id>  (81) 
85

>  <original_smiles>  (81) 
[H]c1c([H])c([H])c2c(c1[H])C([H])([H])C([H])([H])C([H])([H])C2([H])N([H])C(=O)C1([H])N(C(=O)C([H])(N([H])C(=O)C([H])(N([H])C([H])([H])[H])C([H])([H])[H])C(C([H])([H])[H])(C([H])([H])[H])C([H])([H])[H])C([H])([H])c2c([H])c(OC([H])([H])C([H])([H])[N+]([H])=C(N([H])[H])C([H])([H])C([H])([H])C([H])([H])C([H])([H])N([H])C(=O)C([H])([H])C([H])([H])C([H])([H])C([H])([H])N([H])C(=O)C([H])(N([H])C(=O)N3C([H])([H])C([H])([H])C([H])([H])C([H])(n4nc(-c5c([H])c([H])c(Oc6c([H])c([H])c(F)c([H])c6F)c([H])c5[H])c(C(=O)N([H])[H])c4N([H])[H])C3([H])[H])C([H])([H])C([H])([H])N([H])C(=O)C([H])([H])[H])c([H])c([H])c2C1([H])[H]

>  <smiles>  (81) 
[H]c1c([H])c([H])c2c(c1[H])C([H])([H])C([H])([H])C([H])([H])C2([H])N([H])C(=O)C1([H])N(C(=O)C([H])(N([H])C(=O)C([H])(N([H])C([H])([H])[H])C([H])([H])[H])C(C([H])([H])[H])(C([H])([H])[H])C([H])([H])[H])C([H])([H])c2c([H])c(OC([H])([H])C([H])([H])[N+]([H])=C(N([H])[H])C([H])([H])C([H])([H])C([H])([H])C([H])([H])N([H])C(=O)C([H])([H])C([H])([H])C([H])([H])C([H])([H])N([H])C(=O)C([H])(N([H])C(=O)N3C([H])([H])C([H])([H])C([H])([H])C([H])(n4nc(-c5c([H])c([H])c(Oc6c([H])c([H])c(F)c([H])c6F)c([H])c5[H])c(C(=O)N([H])[H])c4N([H])[H])C3([H])[H])C([H])([H])C([H])([H])N([H])C(=O)C([H])([H])[H])c([H])c([H])c2C1([H])[H]

$$$$
86:0:0
     RDKit          3D

110117  0  0  1  0  0  0  0  0999 V2000
  -29.4640  -19.1710   13.5820 C   0  0  0  0  0  0  0  0  0  0  0  0
  -28.8550  -18.3100   14.4000 N   0  0  0  0  0  0  0  0  0  0  0  0
  -28.9560  -20.2380   13.2350 O   0  0  0  0  0  0  0  0  0  0  0  0
  -29.3770  -17.4900   14.6770 H   0  0  0  0  0  0  0  0  0  0  0  0
  -27.5930  -18.5370   15.1000 C   0  0  0  0  0  2  0  0  0  0  0  0
  -27.8550  -18.7280   16.5960 C   0  0  0  0  0  0  0  0  0  0  0  0
  -28.5450  -19.8160   16.9740 N   0  0  0  0  0  0  0  0  0  0  0  0
  -27.4900  -17.8660   17.3970 O   0  0  0  0  0  0  0  0  0  0  0  0
  -28.7800  -20.4900   16.2540 H   0  0  0  0  0  0  0  0  0  0  0  0
  -29.0580  -20.0250   18.3280 C   0  0  0  0  0  2  0  0  0  0  0  0
  -29.5250  -21.4730   18.5770 C   0  0  0  0  0  2  0  0  0  0  0  0
  -29.6960  -21.7720   20.0760 C   0  0  0  0  0  2  0  0  0  0  0  0
  -30.2000  -23.1940   20.3810 C   0  0  0  0  0  2  0  0  0  0  0  0
  -29.1770  -24.2780   20.0100 C   0  0  0  0  0  2  0  0  0  0  0  0
  -29.1050  -25.4340   21.0300 C   0  0  0  0  0  2  0  0  0  0  0  0
  -29.1090  -26.7260   20.4220 O   0  0  0  0  0  0  0  0  0  0  0  0
  -24.7010  -31.6780   22.9740 C   0  0  0  0  0  0  0  0  0  0  0  0
  -27.8950  -27.3580   20.3020 C   0  0  0  0  0  0  0  0  0  0  0  0
  -23.7520  -30.1890   21.2430 C   0  0  0  0  0  3  0  0  0  0  0  0
  -25.4340  -28.7170   20.0280 C   0  0  0  0  0  0  0  0  0  0  0  0
  -26.2600  -30.6930   21.3060 C   0  0  0  0  0  2  0  0  0  0  0  0
  -26.4900  -29.3160   20.7260 C   0  0  0  0  0  0  0  0  0  0  0  0
  -27.7220  -28.6380   20.8680 C   0  0  0  0  0  3  0  0  0  0  0  0
  -26.8220  -26.7800   19.5890 C   0  0  0  0  0  3  0  0  0  0  0  0
  -25.5920  -27.4460   19.4610 C   0  0  0  0  0  3  0  0  0  0  0  0
  -24.1500  -29.5030   19.9110 C   0  0  0  0  0  2  0  0  0  0  0  0
  -24.9150  -30.8660   21.9030 N   0  0  0  0  0  0  0  0  0  0  0  0
  -23.5540  -31.9020   23.3880 O   0  0  0  0  0  0  0  0  0  0  0  0
  -23.0610  -29.1460   22.1490 C   0  0  0  0  0  0  0  0  0  0  0  0
  -21.7280  -29.0360   22.0230 N   0  0  0  0  0  0  0  0  0  0  0  0
  -23.7170  -28.4390   22.9190 O   0  0  0  0  0  0  0  0  0  0  0  0
  -21.2620  -29.6620   21.3810 H   0  0  0  0  0  0  0  0  0  0  0  0
  -18.2880  -28.1700   22.6990 C   0  0  0  0  0  0  0  0  0  0  0  0
  -20.8700  -28.1010   22.7490 C   0  0  0  0  0  3  0  0  0  0  0  0
  -20.7490  -26.7570   21.9970 C   0  0  0  0  0  2  0  0  0  0  0  0
  -19.5370  -26.6950   21.0630 C   0  0  0  0  0  2  0  0  0  0  0  0
  -18.2400  -26.9100   21.8510 C   0  0  0  0  0  2  0  0  0  0  0  0
  -19.5240  -28.7380   23.1080 C   0  0  0  0  0  0  0  0  0  0  0  0
  -19.5160  -29.9290   23.8660 C   0  0  0  0  0  3  0  0  0  0  0  0
  -18.3020  -30.5500   24.2170 C   0  0  0  0  0  3  0  0  0  0  0  0
  -17.0820  -29.9780   23.8220 C   0  0  0  0  0  3  0  0  0  0  0  0
  -17.0760  -28.7880   23.0710 C   0  0  0  0  0  3  0  0  0  0  0  0
  -25.8780  -32.3880   23.7080 C   0  0  0  0  0  3  0  0  0  0  0  0
  -26.4550  -31.5510   24.9150 C   0  0  1  0  0  0  0  0  0  0  0  0
  -25.3730  -31.0750   25.9110 C   0  0  0  0  0  1  0  0  0  0  0  0
  -27.2020  -30.2990   24.3970 C   0  0  0  0  0  1  0  0  0  0  0  0
  -27.4890  -32.3980   25.6960 C   0  0  0  0  0  1  0  0  0  0  0  0
  -25.3880  -33.6950   24.1640 N   0  0  0  0  0  0  0  0  0  0  0  0
  -25.6460  -34.8600   23.5560 C   0  0  0  0  0  0  0  0  0  0  0  0
  -26.3930  -34.9510   22.5760 O   0  0  0  0  0  0  0  0  0  0  0  0
  -24.7280  -33.6880   24.9260 H   0  0  0  0  0  0  0  0  0  0  0  0
  -23.7380  -36.4810   23.2710 C   0  0  0  0  0  1  0  0  0  0  0  0
  -24.9670  -36.1210   24.1240 C   0  0  0  0  0  3  0  0  0  0  0  0
  -26.9130  -37.1400   25.2170 C   0  0  0  0  0  1  0  0  0  0  0  0
  -25.8690  -37.2900   24.2080 N   0  0  0  0  0  0  0  0  0  0  0  0
  -25.3440  -38.1330   24.4220 H   0  0  0  0  0  0  0  0  0  0  0  0
  -30.8720  -18.7980   13.1080 C   0  0  0  0  0  2  0  0  0  0  0  0
  -31.9280  -18.9090   15.3390 C   0  0  0  0  0  0  0  0  0  0  0  0
  -31.8590  -19.2970   14.0630 N   0  0  0  0  0  0  0  0  0  0  0  0
  -31.2270  -17.9940   15.7820 O   0  0  0  0  0  0  0  0  0  0  0  0
  -32.4330  -20.0750   13.7650 H   0  0  0  0  0  0  0  0  0  0  0  0
  -32.9040  -19.6750   16.2420 C   0  0  0  0  0  2  0  0  0  0  0  0
  -32.6580  -18.6810   18.5070 C   0  0  0  0  0  0  0  0  0  0  0  0
  -32.4750  -19.6800   17.6390 N   0  0  0  0  0  0  0  0  0  0  0  0
  -33.3500  -17.6940   18.2450 O   0  0  0  0  0  0  0  0  0  0  0  0
  -31.9160  -20.4680   17.9360 H   0  0  0  0  0  0  0  0  0  0  0  0
  -31.9620  -18.8270   19.8670 C   0  0  0  0  0  2  0  0  0  0  0  0
  -31.2950  -16.6150   20.7730 C   0  0  0  0  0  0  0  0  0  0  0  0
  -32.1410  -17.6480   20.7120 N   0  0  0  0  0  0  0  0  0  0  0  0
  -30.2200  -16.5940   20.1710 O   0  0  0  0  0  0  0  0  0  0  0  0
  -33.0180  -17.5770   21.2070 H   0  0  0  0  0  0  0  0  0  0  0  0
  -31.7110  -15.4310   21.6550 C   0  0  0  0  0  2  0  0  0  0  0  0
  -31.3490  -13.5130   20.1210 C   0  0  0  0  0  0  0  0  0  0  0  0
  -30.6880  -11.6380   18.6600 C   0  0  0  0  0  2  0  0  0  0  0  0
  -29.6800  -12.0950   17.5890 C   0  0  0  0  0  2  0  0  0  0  0  0
  -28.2400  -12.0340   18.1320 C   0  0  0  0  0  2  0  0  0  0  0  0
  -28.0950  -12.7350   19.5090 C   0  0  0  0  0  3  0  0  0  0  0  0
  -29.1950  -12.2530   20.4800 C   0  0  0  0  0  2  0  0  0  0  0  0
  -30.5100  -12.4830   19.8500 N   0  0  0  0  0  0  0  0  0  0  0  0
  -32.3300  -13.7980   19.4270 O   0  0  0  0  0  0  0  0  0  0  0  0
  -31.0570  -14.1950   21.2340 N   0  0  0  0  0  0  0  0  0  0  0  0
  -30.2400  -13.9090   21.7490 H   0  0  0  0  0  0  0  0  0  0  0  0
  -25.7830  -13.4770   20.3680 C   0  0  0  0  0  0  0  0  0  0  0  0
  -24.6960  -12.7620   20.8020 C   0  0  0  0  0  0  0  0  0  0  0  0
  -25.0770  -11.3880   20.7330 C   0  0  0  0  0  0  0  0  0  0  0  0
  -26.7590  -12.5380   20.0690 N   0  0  0  0  0  0  0  0  0  0  0  0
  -26.3390  -11.2760   20.3420 N   0  0  0  0  0  0  0  0  0  0  0  0
  -24.2940  -10.1660   20.9660 C   0  0  0  0  0  0  0  0  0  0  0  0
  -24.6570   -9.2340   21.9640 C   0  0  0  0  0  3  0  0  0  0  0  0
  -23.8810   -8.0770   22.1790 C   0  0  0  0  0  3  0  0  0  0  0  0
  -22.7240   -7.8420   21.3970 C   0  0  0  0  0  0  0  0  0  0  0  0
  -22.3800   -8.7600   20.3910 C   0  0  0  0  0  3  0  0  0  0  0  0
  -23.1570   -9.9110   20.1740 C   0  0  0  0  0  3  0  0  0  0  0  0
  -21.9220   -6.7320   21.5180 O   0  0  0  0  0  0  0  0  0  0  0  0
  -21.6720   -6.1560   22.7370 C   0  0  0  0  0  0  0  0  0  0  0  0
  -21.0910   -6.8810   23.8000 C   0  0  0  0  0  3  0  0  0  0  0  0
  -20.7870   -6.2310   25.0120 C   0  0  0  0  0  3  0  0  0  0  0  0
  -21.0530   -4.8570   25.1620 C   0  0  0  0  0  0  0  0  0  0  0  0
  -21.6260   -4.1320   24.1020 C   0  0  0  0  0  3  0  0  0  0  0  0
  -21.9320   -4.7790   22.8930 C   0  0  0  0  0  0  0  0  0  0  0  0
  -22.4640   -4.0700   21.8680 F   0  0  0  0  0  0  0  0  0  0  0  0
  -20.7530   -4.2300   26.3240 F   0  0  0  0  0  0  0  0  0  0  0  0
  -23.3500  -13.3150   21.1680 C   0  0  0  0  0  0  0  0  0  0  0  0
  -22.6670  -12.6840   22.1190 N   0  0  0  0  0  0  0  0  0  0  0  0
  -22.9140  -14.3420   20.6490 O   0  0  0  0  0  0  0  0  0  0  0  0
  -23.0310  -11.8550   22.5620 H   0  0  0  0  0  0  0  0  0  0  0  0
  -21.7660  -13.0370   22.4080 H   0  0  0  0  0  0  0  0  0  0  0  0
  -26.0140  -14.8360   20.1880 N   0  0  0  0  0  0  0  0  0  0  0  0
  -25.3000  -15.5370   20.3540 H   0  0  0  0  0  0  0  0  0  0  0  0
  -26.8810  -15.2290   19.8390 H   0  0  0  0  0  0  0  0  0  0  0  0
  1  2  1  0
  2  4  1  0
  2  5  1  0
  3  1  2  0
  5  6  1  0
  6  7  1  0
  6  8  2  0
  7 10  1  0
  9  7  1  0
 10 11  1  0
 11 12  1  0
 12 13  1  0
 14 13  1  0
 14 15  1  0
 16 15  1  0
 17 28  2  0
 18 16  1  0
 18 23  1  0
 19 27  1  0
 19 29  1  0
 20 22  1  0
 21 27  1  0
 22 23  2  0
 22 21  1  0
 24 18  2  0
 25 24  1  0
 25 20  2  0
 26 20  1  0
 26 19  1  0
 27 17  1  0
 29 31  2  0
 30 29  1  0
 32 30  1  0
 33 42  2  0
 33 38  1  0
 34 30  1  0
 34 38  1  0
 35 34  1  0
 36 37  1  0
 36 35  1  0
 37 33  1  0
 38 39  2  0
 39 40  1  0
 41 40  2  0
 42 41  1  0
 43 17  1  0
 43 48  1  0
 43 44  1  0
 44 47  1  1
 44 45  1  0
 46 44  1  0
 48 51  1  0
 49 53  1  0
 49 48  1  0
 50 49  2  0
 53 52  1  0
 53 55  1  0
 55 56  1  0
 55 54  1  0
 57  1  1  0
 57 59  1  0
 58 60  2  0
 58 62  1  0
 59 58  1  0
 61 59  1  0
 62 64  1  0
 63 67  1  0
 64 66  1  0
 64 63  1  0
 65 63  2  0
 67 69  1  0
 68 72  1  0
 69 68  1  0
 69 71  1  0
 70 68  2  0
 73 81  1  0
 74 79  1  0
 75 76  1  0
 75 74  1  0
 77 76  1  0
 77 86  1  0
 77 78  1  0
 79 73  1  0
 79 78  1  0
 80 73  2  0
 81 72  1  0
 81 82  1  0
 83 84  2  0
 84103  1  0
 85 84  1  0
 85 88  1  0
 86 87  1  0
 86 83  1  0
 87 85  2  0
 88 89  1  0
 89 90  2  0
 91 94  1  0
 91 90  1  0
 92 91  2  0
 93 92  1  0
 93 88  2  0
 94 95  1  0
 95100  2  0
 95 96  1  0
 96 97  2  0
 97 98  1  0
 98102  1  0
 99 98  2  0
100 99  1  0
101100  1  0
103104  1  0
104107  1  0
104106  1  0
105103  2  0
108109  1  0
108 83  1  0
110108  1  0
M  ISO  4  15 101  16 101  73 100  81 100
M  END
>  <TORSDO>  (82) 
F 31

>  <SCORE>  (82) 
-8.392

>  <name>  (82) 
86

>  <ligand_id>  (82) 
86

>  <original_smiles>  (82) 
[H]c1c([H])c([H])c2c(c1[H])C([H])([H])C([H])([H])C([H])([H])C2([H])N([H])C(=O)C1([H])N(C(=O)C([H])(N([H])C(=O)C([H])(N([H])C([H])([H])[H])C([H])([H])[H])C(C([H])([H])[H])(C([H])([H])[H])C([H])([H])[H])C([H])([H])c2c([H])c(OC([H])([H])C([H])([H])C([H])([H])C([H])([H])C([H])([H])C([H])([H])N([H])C(=O)C([H])([H])N([H])C(=O)C([H])([H])N([H])C(=O)C([H])([H])N([H])C(=O)C([H])([H])N([H])C(=O)C([H])([H])N([H])C(=O)N3C([H])([H])C([H])([H])C([H])([H])C([H])(n4nc(-c5c([H])c([H])c(Oc6c([H])c([H])c(F)c([H])c6F)c([H])c5[H])c(C(=O)N([H])[H])c4N([H])[H])C3([H])[H])c([H])c([H])c2C1([H])[H]

>  <smiles>  (82) 
[H]c1c([H])c([H])c2c(c1[H])C([H])([H])C([H])([H])C([H])([H])C2([H])N([H])C(=O)C1([H])N(C(=O)C([H])(N([H])C(=O)C([H])(N([H])C([H])([H])[H])C([H])([H])[H])C(C([H])([H])[H])(C([H])([H])[H])C([H])([H])[H])C([H])([H])c2c([H])c(OC([H])([H])C([H])([H])C([H])([H])C([H])([H])C([H])([H])C([H])([H])N([H])C(=O)C([H])([H])N([H])C(=O)C([H])([H])N([H])C(=O)C([H])([H])N([H])C(=O)C([H])([H])N([H])C(=O)C([H])([H])N([H])C(=O)N3C([H])([H])C([H])([H])C([H])([H])C([H])(n4nc(-c5c([H])c([H])c(Oc6c([H])c([H])c(F)c([H])c6F)c([H])c5[H])c(C(=O)N([H])[H])c4N([H])[H])C3([H])[H])c([H])c([H])c2C1([H])[H]

$$$$
87:0:0
     RDKit          3D

116123  0  0  1  0  0  0  0  0999 V2000
  -19.4860  -19.1310   23.9230 C   0  0  0  0  0  0  0  0  0  0  0  0
  -18.3590  -19.7050   24.3450 N   0  0  0  0  0  0  0  0  0  0  0  0
  -19.5700  -18.4940   22.8700 O   0  0  0  0  0  0  0  0  0  0  0  0
  -18.4460  -20.2750   25.1750 H   0  0  0  0  0  0  0  0  0  0  0  0
  -20.5590  -19.4290   24.8510 C   0  0  0  0  0  3  0  0  0  0  0  0
  -21.8110  -19.7160   24.4490 C   0  0  0  0  0  3  0  0  0  0  0  0
  -22.9220  -20.1230   25.4080 C   0  0  0  0  0  2  0  0  0  0  0  0
  -23.2500  -22.5220   24.7630 C   0  0  0  0  0  0  0  0  0  0  0  0
  -23.6830  -21.2530   24.8690 N   0  0  0  0  0  0  0  0  0  0  0  0
  -22.1420  -22.8910   25.1580 O   0  0  0  0  0  0  0  0  0  0  0  0
  -24.6210  -21.0630   24.5480 H   0  0  0  0  0  0  0  0  0  0  0  0
  -24.2150  -23.5490   24.1520 C   0  0  0  0  0  2  0  0  0  0  0  0
  -24.4470  -24.2270   21.7410 C   0  0  0  0  0  0  0  0  0  0  0  0
  -23.7340  -24.0810   22.8700 N   0  0  0  0  0  0  0  0  0  0  0  0
  -25.6400  -23.9270   21.6690 O   0  0  0  0  0  0  0  0  0  0  0  0
  -22.7560  -24.3310   22.8380 H   0  0  0  0  0  0  0  0  0  0  0  0
  -23.7000  -24.8420   20.5350 C   0  0  0  0  0  2  0  0  0  0  0  0
  -23.9150  -24.1350   19.2960 O   0  0  0  0  0  0  0  0  0  0  0  0
  -24.3010  -24.9090   18.1560 C   0  0  0  0  0  2  0  0  0  0  0  0
  -23.6470  -24.3720   16.8420 C   0  0  0  0  0  2  0  0  0  0  0  0
  -24.5440  -23.5930   15.8330 C   0  0  0  0  0  2  0  0  0  0  0  0
  -23.3870  -21.3190   15.8110 C   0  0  0  0  0  0  0  0  0  0  0  0
  -23.7150  -19.6820   17.6260 C   0  0  0  0  0  2  0  0  0  0  0  0
  -24.1430  -20.3600   18.9360 C   0  0  0  0  0  2  0  0  0  0  0  0
  -25.6700  -20.5700   18.9570 C   0  0  0  0  0  2  0  0  0  0  0  0
  -26.1980  -21.2470   17.6690 C   0  0  0  0  0  3  0  0  0  0  0  0
  -25.6860  -20.5080   16.4220 C   0  0  0  0  0  2  0  0  0  0  0  0
  -24.2160  -20.4900   16.4990 N   0  0  0  0  0  0  0  0  0  0  0  0
  -22.1600  -21.1570   15.7910 O   0  0  0  0  0  0  0  0  0  0  0  0
  -23.9560  -22.3810   15.1990 N   0  0  0  0  0  0  0  0  0  0  0  0
  -23.5310  -22.6190   14.3100 H   0  0  0  0  0  0  0  0  0  0  0  0
  -28.4430  -22.5010   17.6710 C   0  0  0  0  0  0  0  0  0  0  0  0
  -29.7240  -22.0490   17.6880 C   0  0  0  0  0  0  0  0  0  0  0  0
  -29.6400  -20.6240   17.6740 C   0  0  0  0  0  0  0  0  0  0  0  0
  -27.6440  -21.3640   17.6490 N   0  0  0  0  0  0  0  0  0  0  0  0
  -28.3780  -20.2330   17.5720 N   0  0  0  0  0  0  0  0  0  0  0  0
  -30.6800  -19.6080   17.8110 C   0  0  0  0  0  0  0  0  0  0  0  0
  -31.0150  -18.7530   16.7380 C   0  0  0  0  0  3  0  0  0  0  0  0
  -32.0330  -17.7900   16.8800 C   0  0  0  0  0  3  0  0  0  0  0  0
  -32.7380  -17.6910   18.0980 C   0  0  0  0  0  0  0  0  0  0  0  0
  -32.3820  -18.5240   19.1720 C   0  0  0  0  0  3  0  0  0  0  0  0
  -31.3540  -19.4700   19.0390 C   0  0  0  0  0  3  0  0  0  0  0  0
  -33.7450  -16.7870   18.3290 O   0  0  0  0  0  0  0  0  0  0  0  0
  -34.6520  -16.4660   17.3520 C   0  0  0  0  0  0  0  0  0  0  0  0
  -35.5230  -17.4350   16.8050 C   0  0  0  0  0  3  0  0  0  0  0  0
  -36.4990  -17.0490   15.8640 C   0  0  0  0  0  3  0  0  0  0  0  0
  -36.6110  -15.7000   15.4790 C   0  0  0  0  0  0  0  0  0  0  0  0
  -35.7570  -14.7300   16.0340 C   0  0  0  0  0  3  0  0  0  0  0  0
  -34.7770  -15.1140   16.9640 C   0  0  0  0  0  0  0  0  0  0  0  0
  -33.9710  -14.1760   17.5180 F   0  0  0  0  0  0  0  0  0  0  0  0
  -37.5610  -15.3330   14.5940 F   0  0  0  0  0  0  0  0  0  0  0  0
  -30.9630  -22.8770   17.8400 C   0  0  0  0  0  0  0  0  0  0  0  0
  -32.0740  -22.4200   17.2610 N   0  0  0  0  0  0  0  0  0  0  0  0
  -30.9270  -23.9440   18.4440 O   0  0  0  0  0  0  0  0  0  0  0  0
  -32.0440  -21.5660   16.7230 H   0  0  0  0  0  0  0  0  0  0  0  0
  -32.9760  -22.8270   17.4650 H   0  0  0  0  0  0  0  0  0  0  0  0
  -27.8970  -23.7790   17.6830 N   0  0  0  0  0  0  0  0  0  0  0  0
  -28.5070  -24.5680   17.8520 H   0  0  0  0  0  0  0  0  0  0  0  0
  -26.9800  -23.9040   18.1070 H   0  0  0  0  0  0  0  0  0  0  0  0
  -17.1500  -19.9360   23.5620 C   0  0  0  0  0  2  0  0  0  0  0  0
  -17.0200  -21.4240   23.2150 C   0  0  0  0  0  0  0  0  0  0  0  0
  -16.4360  -21.7380   22.0490 N   0  0  0  0  0  0  0  0  0  0  0  0
  -17.3990  -22.2790   24.0180 O   0  0  0  0  0  0  0  0  0  0  0  0
  -16.1220  -20.9610   21.4770 H   0  0  0  0  0  0  0  0  0  0  0  0
  -16.1700  -23.0940   21.5700 C   0  0  0  0  0  2  0  0  0  0  0  0
  -17.3780  -23.6550   20.7990 C   0  0  0  0  0  2  0  0  0  0  0  0
  -17.1060  -25.0260   20.1590 C   0  0  0  0  0  2  0  0  0  0  0  0
  -18.1290  -25.3530   19.0590 C   0  0  0  0  0  2  0  0  0  0  0  0
  -17.6710  -26.4460   18.0790 C   0  0  0  0  0  2  0  0  0  0  0  0
  -18.2330  -26.2020   16.6690 C   0  0  0  0  0  2  0  0  0  0  0  0
  -17.7260  -27.9080   14.9320 C   0  0  0  0  0  0  0  0  0  0  0  0
  -18.4540  -27.4470   15.9500 N   0  0  0  0  0  0  0  0  0  0  0  0
  -16.5970  -27.4930   14.6640 O   0  0  0  0  0  0  0  0  0  0  0  0
  -19.3480  -27.8930   16.0930 H   0  0  0  0  0  0  0  0  0  0  0  0
  -18.4230  -28.9490   14.0360 C   0  0  0  0  0  2  0  0  0  0  0  0
  -19.5230  -28.3460   13.3390 O   0  0  0  0  0  0  0  0  0  0  0  0
  -16.4280  -27.9640    6.9020 C   0  0  0  0  0  0  0  0  0  0  0  0
  -19.2400  -27.6140   12.2070 C   0  0  0  0  0  0  0  0  0  0  0  0
  -17.1230  -25.8080    7.9140 C   0  0  0  0  0  3  0  0  0  0  0  0
  -18.6170  -25.9890    9.9840 C   0  0  0  0  0  0  0  0  0  0  0  0
  -18.3430  -27.9840    8.4910 C   0  0  0  0  0  2  0  0  0  0  0  0
  -18.6550  -27.3850    9.8460 C   0  0  0  0  0  0  0  0  0  0  0  0
  -18.9780  -28.2030   10.9470 C   0  0  0  0  0  3  0  0  0  0  0  0
  -19.1950  -26.2100   12.3350 C   0  0  0  0  0  3  0  0  0  0  0  0
  -18.8850  -25.3950   11.2290 C   0  0  0  0  0  3  0  0  0  0  0  0
  -18.2890  -25.1950    8.7380 C   0  0  0  0  0  2  0  0  0  0  0  0
  -17.2560  -27.2960    7.7530 N   0  0  0  0  0  0  0  0  0  0  0  0
  -15.5850  -27.3660    6.2240 O   0  0  0  0  0  0  0  0  0  0  0  0
  -15.7860  -25.3790    8.5570 C   0  0  0  0  0  0  0  0  0  0  0  0
  -15.0760  -24.4400    7.9080 N   0  0  0  0  0  0  0  0  0  0  0  0
  -15.4230  -25.8640    9.6320 O   0  0  0  0  0  0  0  0  0  0  0  0
  -15.4370  -24.1050    7.0240 H   0  0  0  0  0  0  0  0  0  0  0  0
  -12.2310  -22.4920    6.8210 C   0  0  0  0  0  0  0  0  0  0  0  0
  -13.8030  -23.8640    8.3450 C   0  0  0  0  0  3  0  0  0  0  0  0
  -14.0230  -22.5460    9.1250 C   0  0  0  0  0  2  0  0  0  0  0  0
  -13.9570  -21.3000    8.2380 C   0  0  0  0  0  2  0  0  0  0  0  0
  -12.5910  -21.2080    7.5510 C   0  0  0  0  0  2  0  0  0  0  0  0
  -12.8130  -23.7360    7.1820 C   0  0  0  0  0  0  0  0  0  0  0  0
  -12.4740  -24.8920    6.4450 C   0  0  0  0  0  3  0  0  0  0  0  0
  -11.5750  -24.8170    5.3660 C   0  0  0  0  0  3  0  0  0  0  0  0
  -10.9870  -23.5860    5.0250 C   0  0  0  0  0  3  0  0  0  0  0  0
  -11.3090  -22.4280    5.7550 C   0  0  0  0  0  3  0  0  0  0  0  0
  -16.5280  -29.5120    6.7210 C   0  0  0  0  0  3  0  0  0  0  0  0
  -15.5800  -30.3080    7.6990 C   0  0  1  0  0  0  0  0  0  0  0  0
  -14.1160  -29.8110    7.6930 C   0  0  0  0  0  1  0  0  0  0  0  0
  -16.0930  -30.2410    9.1550 C   0  0  0  0  0  1  0  0  0  0  0  0
  -15.5710  -31.8070    7.3150 C   0  0  0  0  0  1  0  0  0  0  0  0
  -16.2000  -29.8170    5.3240 N   0  0  0  0  0  0  0  0  0  0  0  0
  -17.1080  -29.9620    4.3460 C   0  0  0  0  0  0  0  0  0  0  0  0
  -18.3220  -29.9370    4.5500 O   0  0  0  0  0  0  0  0  0  0  0  0
  -15.2200  -29.8270    5.0820 H   0  0  0  0  0  0  0  0  0  0  0  0
  -16.6860  -28.8650    2.1250 C   0  0  0  0  0  1  0  0  0  0  0  0
  -16.5820  -30.1800    2.9160 C   0  0  0  0  0  3  0  0  0  0  0  0
  -16.9700  -32.5930    2.6730 C   0  0  0  0  0  1  0  0  0  0  0  0
  -17.2910  -31.2550    2.1860 N   0  0  0  0  0  0  0  0  0  0  0  0
  -17.0710  -31.2220    1.1940 H   0  0  0  0  0  0  0  0  0  0  0  0
  1  2  1  0
  1  5  1  0
  2  4  1  0
  3  1  2  0
  6  5  2  0
  6  7  1  0
  8  9  1  0
  8 10  2  0
  9  7  1  0
 11  9  1  0
 12  8  1  0
 13 14  1  0
 14 12  1  0
 15 13  2  0
 16 14  1  0
 17 13  1  0
 18 17  1  0
 19 18  1  0
 20 19  1  0
 21 20  1  0
 22 28  1  0
 23 24  1  0
 24 25  1  0
 26 27  1  0
 26 25  1  0
 27 28  1  0
 28 23  1  0
 29 22  2  0
 30 22  1  0
 30 21  1  0
 31 30  1  0
 32 57  1  0
 32 33  2  0
 33 52  1  0
 34 33  1  0
 34 37  1  0
 35 26  1  0
 35 32  1  0
 36 35  1  0
 36 34  2  0
 37 42  1  0
 38 39  1  0
 38 37  2  0
 39 40  2  0
 40 43  1  0
 40 41  1  0
 42 41  2  0
 44 43  1  0
 45 44  2  0
 46 45  1  0
 47 46  2  0
 47 48  1  0
 48 49  2  0
 49 44  1  0
 49 50  1  0
 51 47  1  0
 52 54  2  0
 53 56  1  0
 53 52  1  0
 55 53  1  0
 57 58  1  0
 57 59  1  0
 60  2  1  0
 61 60  1  0
 61 63  2  0
 62 61  1  0
 64 62  1  0
 65 62  1  0
 66 65  1  0
 67 66  1  0
 68 67  1  0
 69 68  1  0
 70 69  1  0
 71 72  1  0
 72 74  1  0
 72 70  1  0
 73 71  2  0
 75 71  1  0
 76 75  1  0
 77 87  1  0
 78 84  1  0
 78 76  1  0
 79 89  1  0
 79 86  1  0
 80 85  1  0
 81 82  1  0
 82 80  2  0
 82 83  1  0
 83 78  2  0
 85 84  2  0
 86 80  1  0
 87 79  1  0
 87 81  1  0
 88 77  2  0
 89 91  2  0
 90 89  1  0
 92 90  1  0
 93 98  1  0
 93 97  1  0
 94 90  1  0
 94 95  1  0
 96 95  1  0
 97 96  1  0
 98 94  1  0
 99 98  2  0
100 99  1  0
101100  2  0
101102  1  0
102 93  2  0
103 77  1  0
103104  1  0
104106  1  1
105104  1  0
107104  1  0
108103  1  0
109110  2  0
109108  1  0
111108  1  0
113112  1  0
113109  1  0
115114  1  0
115113  1  0
116115  1  0
M  ISO  4  22 100  30 100  75 101  76 101
M  END
>  <TORSDO>  (83) 
F 36

>  <SCORE>  (83) 
23.540

>  <name>  (83) 
87

>  <ligand_id>  (83) 
87

>  <original_smiles>  (83) 
[H]C(C(=O)N([H])C([H])([H])C(=O)N([H])C([H])([H])C([H])([H])C([H])([H])C([H])([H])C([H])([H])C([H])([H])N([H])C(=O)C([H])([H])Oc1c([H])c([H])c2c(c1[H])C([H])([H])N(C(=O)C([H])(N([H])C(=O)C([H])(N([H])C([H])([H])[H])C([H])([H])[H])C(C([H])([H])[H])(C([H])([H])[H])C([H])([H])[H])C([H])(C(=O)N([H])C1([H])c3c([H])c([H])c([H])c([H])c3C([H])([H])C([H])([H])C1([H])[H])C2([H])[H])=C([H])C([H])([H])N([H])C(=O)C([H])([H])N([H])C(=O)C([H])([H])OC([H])([H])C([H])([H])C([H])([H])N([H])C(=O)N1C([H])([H])C([H])([H])C([H])([H])C([H])(n2nc(-c3c([H])c([H])c(Oc4c([H])c([H])c(F)c([H])c4F)c([H])c3[H])c(C(=O)N([H])[H])c2N([H])[H])C1([H])[H]

>  <smiles>  (83) 
[H]C(C(=O)N([H])C([H])([H])C(=O)N([H])C([H])([H])C([H])([H])C([H])([H])C([H])([H])C([H])([H])C([H])([H])N([H])C(=O)C([H])([H])Oc1c([H])c([H])c2c(c1[H])C([H])([H])N(C(=O)C([H])(N([H])C(=O)C([H])(N([H])C([H])([H])[H])C([H])([H])[H])C(C([H])([H])[H])(C([H])([H])[H])C([H])([H])[H])C([H])(C(=O)N([H])C1([H])c3c([H])c([H])c([H])c([H])c3C([H])([H])C([H])([H])C1([H])[H])C2([H])[H])=C([H])C([H])([H])N([H])C(=O)C([H])([H])N([H])C(=O)C([H])([H])OC([H])([H])C([H])([H])C([H])([H])N([H])C(=O)N1C([H])([H])C([H])([H])C([H])([H])C([H])(n2nc(-c3c([H])c([H])c(Oc4c([H])c([H])c(F)c([H])c4F)c([H])c3[H])c(C(=O)N([H])[H])c2N([H])[H])C1([H])[H]

$$$$
88:0:0
     RDKit          3D

110114  0  0  1  0  0  0  0  0999 V2000
  -26.4150  -16.7570   25.6740 C   0  0  0  0  0  2  0  0  0  0  0  0
  -27.7470  -17.3240   25.1550 C   0  0  0  0  0  2  0  0  0  0  0  0
  -28.6790  -17.7290   26.3100 C   0  0  0  0  0  2  0  0  0  0  0  0
  -29.9590  -18.4470   25.8540 C   0  0  0  0  0  2  0  0  0  0  0  0
  -30.4570  -20.3960   24.4000 C   0  0  0  0  0  0  0  0  0  0  0  0
  -29.6490  -19.7260   25.2260 N   0  0  0  0  0  0  0  0  0  0  0  0
  -31.5580  -19.9620   24.0490 O   0  0  0  0  0  0  0  0  0  0  0  0
  -28.7680  -20.1590   25.4670 H   0  0  0  0  0  0  0  0  0  0  0  0
  -29.9490  -21.7560   23.9070 C   0  0  0  0  0  2  0  0  0  0  0  0
  -30.6690  -23.2240   22.0230 C   0  0  0  0  0  0  0  0  0  0  0  0
  -30.3740  -22.0240   22.5320 N   0  0  0  0  0  0  0  0  0  0  0  0
  -30.5580  -24.2660   22.6740 O   0  0  0  0  0  0  0  0  0  0  0  0
  -30.5390  -21.2150   21.9540 H   0  0  0  0  0  0  0  0  0  0  0  0
  -31.1560  -23.2620   20.5630 C   0  0  0  0  0  2  0  0  0  0  0  0
  -31.3260  -24.6110   20.1190 O   0  0  0  0  0  0  0  0  0  0  0  0
  -27.6600  -29.6980   23.4340 C   0  0  0  0  0  0  0  0  0  0  0  0
  -30.2190  -25.4280   20.0770 C   0  0  0  0  0  0  0  0  0  0  0  0
  -26.5550  -28.7020   21.4570 C   0  0  0  0  0  3  0  0  0  0  0  0
  -28.0170  -27.1980   20.0140 C   0  0  0  0  0  0  0  0  0  0  0  0
  -29.1050  -28.7580   21.6390 C   0  0  0  0  0  2  0  0  0  0  0  0
  -29.1290  -27.4900   20.8120 C   0  0  0  0  0  0  0  0  0  0  0  0
  -30.2360  -26.6180   20.8340 C   0  0  0  0  0  3  0  0  0  0  0  0
  -29.0900  -25.1410   19.2770 C   0  0  0  0  0  3  0  0  0  0  0  0
  -27.9920  -26.0210   19.2420 C   0  0  0  0  0  3  0  0  0  0  0  0
  -26.8820  -28.1940   20.0280 C   0  0  0  0  0  2  0  0  0  0  0  0
  -27.7840  -29.0560   22.2380 N   0  0  0  0  0  0  0  0  0  0  0  0
  -26.5500  -30.0360   23.8670 O   0  0  0  0  0  0  0  0  0  0  0  0
  -25.6650  -27.6540   22.1600 C   0  0  0  0  0  0  0  0  0  0  0  0
  -24.3770  -27.6120   21.7790 N   0  0  0  0  0  0  0  0  0  0  0  0
  -26.1360  -26.8860   23.0030 O   0  0  0  0  0  0  0  0  0  0  0  0
  -24.0680  -28.2800   21.0860 H   0  0  0  0  0  0  0  0  0  0  0  0
  -20.8880  -26.7130   21.5320 C   0  0  0  0  0  0  0  0  0  0  0  0
  -23.3630  -26.6840   22.2760 C   0  0  0  0  0  3  0  0  0  0  0  0
  -23.4560  -25.3180   21.5570 C   0  0  0  0  0  2  0  0  0  0  0  0
  -22.5390  -25.2150   20.3350 C   0  0  0  0  0  2  0  0  0  0  0  0
  -21.0790  -25.4310   20.7400 C   0  0  0  0  0  2  0  0  0  0  0  0
  -21.9640  -27.3090   22.2400 C   0  0  0  0  0  0  0  0  0  0  0  0
  -21.7400  -28.5220   22.9280 C   0  0  0  0  0  3  0  0  0  0  0  0
  -20.4710  -29.1310   22.9230 C   0  0  0  0  0  3  0  0  0  0  0  0
  -19.4070  -28.5260   22.2320 C   0  0  0  0  0  3  0  0  0  0  0  0
  -19.6150  -27.3180   21.5420 C   0  0  0  0  0  3  0  0  0  0  0  0
  -28.9070  -30.0630   24.3000 C   0  0  0  0  0  3  0  0  0  0  0  0
  -29.0480  -29.1720   25.5930 C   0  0  1  0  0  0  0  0  0  0  0  0
  -27.7710  -29.1330   26.4650 C   0  0  0  0  0  1  0  0  0  0  0  0
  -29.4070  -27.7160   25.2170 C   0  0  0  0  0  1  0  0  0  0  0  0
  -30.2090  -29.7000   26.4690 C   0  0  0  0  0  1  0  0  0  0  0  0
  -28.7940  -31.4830   24.6560 N   0  0  0  0  0  0  0  0  0  0  0  0
  -29.5410  -32.4610   24.1250 C   0  0  0  0  0  0  0  0  0  0  0  0
  -30.4580  -32.2460   23.3250 O   0  0  0  0  0  0  0  0  0  0  0  0
  -28.0280  -31.7400   25.2610 H   0  0  0  0  0  0  0  0  0  0  0  0
  -28.4420  -34.6110   23.4230 C   0  0  0  0  0  1  0  0  0  0  0  0
  -29.2220  -33.9070   24.5470 C   0  0  0  0  0  3  0  0  0  0  0  0
  -31.0720  -34.2560   26.1220 C   0  0  0  0  0  1  0  0  0  0  0  0
  -30.4240  -34.6980   24.8900 N   0  0  0  0  0  0  0  0  0  0  0  0
  -30.1890  -35.6820   24.9890 H   0  0  0  0  0  0  0  0  0  0  0  0
  -25.8470  -15.6080   24.8240 C   0  0  0  0  0  2  0  0  0  0  0  0
  -24.4330  -15.2100   25.2850 C   0  0  0  0  0  2  0  0  0  0  0  0
  -23.6300  -14.4050   24.2500 C   0  0  0  0  0  2  0  0  0  0  0  0
  -22.4230  -12.2580   24.0820 C   0  0  0  0  0  3  0  0  0  0  0  0
  -23.2330  -13.0910   24.7500 N   0  0  0  0  0  0  0  0  0  0  0  0
  -21.9460  -12.5420   22.9790 O   0  0  0  0  0  0  0  0  0  0  0  0
  -23.5760  -12.8030   25.6580 H   0  0  0  0  0  0  0  0  0  0  0  0
  -22.0990  -10.9140   24.7370 C   0  0  0  0  0  2  0  0  0  0  0  0
  -22.3580   -8.5290   24.0380 C   0  0  0  0  0  0  0  0  0  0  0  0
  -22.6350   -9.8340   23.9140 N   0  0  0  0  0  0  0  0  0  0  0  0
  -21.6200   -8.1190   24.9330 O   0  0  0  0  0  0  0  0  0  0  0  0
  -23.1960  -10.1580   23.1380 H   0  0  0  0  0  0  0  0  0  0  0  0
  -23.0350   -7.5070   23.0070 C   0  0  0  0  0  1  0  0  0  0  0  0
  -26.1140   -7.1990   22.0370 C   0  0  0  0  0  1  0  0  0  0  0  0
  -27.0760   -8.2480   21.1460 C   0  0  0  0  0  2  0  0  0  0  0  0
  -27.8050   -9.6330   21.6240 C   0  0  0  0  0  3  0  0  0  0  0  0
  -28.5040  -10.5840   20.5020 C   0  0  0  0  0  3  0  0  0  0  0  0
  -29.6140  -13.4640   20.2240 C   0  0  2  0  0  0  0  0  0  0  0  0
  -30.9250  -12.6340   19.8050 C   0  0  0  0  0  1  0  0  0  0  0  0
  -29.8520  -12.0680   18.3370 C   0  0  0  0  0  1  0  0  0  0  0  0
  -28.1190  -12.4890   18.3390 C   0  0  0  0  0  2  0  0  0  0  0  0
  -27.3570  -13.5460   19.5360 C   0  0  0  0  0  2  0  0  0  0  0  0
  -28.3910  -14.1730   20.9780 C   0  0  0  0  0  1  0  0  0  0  0  0
  -30.0940  -13.6560   21.0470 N   0  0  0  0  0  1  0  0  0  0  0  0
  -29.8530  -14.4750   19.2770 O   0  0  0  0  0  1  0  0  0  0  0  0
  -29.0170  -12.0200   20.8160 N   0  0  0  0  0  2  0  0  0  0  0  0
  -29.2210  -12.0570   21.8020 H   0  0  0  0  0  0  0  0  0  0  0  0
  -24.9780  -13.8870   20.3740 C   0  0  0  0  0  0  0  0  0  0  0  0
  -23.9350  -13.0500   20.6250 C   0  0  0  0  0  0  0  0  0  0  0  0
  -24.4370  -11.7660   20.3370 C   0  0  0  0  0  0  0  0  0  0  0  0
  -26.0290  -13.1140   19.9440 N   0  0  0  0  0  0  0  0  0  0  0  0
  -25.6980  -11.8200   19.9820 N   0  0  0  0  0  0  0  0  0  0  0  0
  -23.7690  -10.5200   20.2870 C   0  0  0  0  0  0  0  0  0  0  0  0
  -24.3770   -9.1060   21.0080 C   0  0  0  0  0  3  0  0  0  0  0  0
  -23.5050   -7.6610   20.8340 C   0  0  0  0  0  3  0  0  0  0  0  0
  -22.0800   -7.6640   19.9240 C   0  0  0  0  0  0  0  0  0  0  0  0
  -21.5240   -9.0610   19.2190 C   0  0  0  0  0  3  0  0  0  0  0  0
  -22.3650  -10.4770   19.3790 C   0  0  0  0  0  3  0  0  0  0  0  0
  -21.1890   -6.6500   19.8950 O   0  0  0  0  0  0  0  0  0  0  0  0
  -21.1570   -5.7710   20.9290 C   0  0  0  0  0  0  0  0  0  0  0  0
  -20.5660   -6.0620   22.1780 C   0  0  0  0  0  3  0  0  0  0  0  0
  -20.5350   -5.0760   23.1810 C   0  0  0  0  0  3  0  0  0  0  0  0
  -21.0530   -3.7950   22.9120 C   0  0  0  0  0  0  0  0  0  0  0  0
  -21.6150   -3.5040   21.6560 C   0  0  0  0  0  3  0  0  0  0  0  0
  -21.6680   -4.4970   20.6690 C   0  0  0  0  0  0  0  0  0  0  0  0
  -22.1860   -4.2300   19.4460 F   0  0  0  0  0  0  0  0  0  0  0  0
  -20.9960   -2.8300   23.8570 F   0  0  0  0  0  0  0  0  0  0  0  0
  -22.5510  -13.4520   21.0360 C   0  0  0  0  0  0  0  0  0  0  0  0
  -21.8150  -12.6100   21.7380 N   0  0  0  0  0  4  0  0  0  0  0  0
  -22.1220  -14.5710   20.7850 O   0  0  0  0  0  0  0  0  0  0  0  0
  -22.0370  -11.6310   21.7440 H   0  0  0  0  0  0  0  0  0  0  0  0
  -20.8960  -12.9080   22.0360 H   0  0  0  0  0  0  0  0  0  0  0  0
  -25.1230  -15.2580   20.4720 N   0  0  0  0  0  0  0  0  0  0  0  0
  -24.3440  -15.8560   20.7220 H   0  0  0  0  0  0  0  0  0  0  0  0
  -25.9620  -15.7700   20.2320 H   0  0  0  0  0  0  0  0  0  0  0  0
  2  1  1  0
  2  3  1  0
  4  3  1  0
  5  6  1  0
  6  8  1  0
  6  4  1  0
  7  5  2  0
  9  5  1  0
 10 11  1  0
 10 12  2  0
 11  9  1  0
 13 11  1  0
 14 10  1  0
 15 14  1  0
 16 27  2  0
 17 15  1  0
 17 22  1  0
 18 28  1  0
 18 26  1  0
 19 25  1  0
 19 21  1  0
 20 26  1  0
 21 22  2  0
 21 20  1  0
 23 17  2  0
 24 23  1  0
 24 19  2  0
 25 18  1  0
 26 16  1  0
 28 30  2  0
 29 28  1  0
 31 29  1  0
 32 41  2  0
 32 37  1  0
 33 29  1  0
 34 33  1  0
 35 36  1  0
 35 34  1  0
 36 32  1  0
 37 33  1  0
 37 38  2  0
 39 38  1  0
 40 39  2  0
 41 40  1  0
 42 16  1  0
 42 47  1  0
 42 43  1  0
 43 44  1  1
 43 46  1  0
 45 43  1  0
 47 50  1  0
 48 52  1  0
 48 47  1  0
 49 48  2  0
 52 51  1  0
 52 54  1  0
 54 55  1  0
 54 53  1  0
 56 57  1  0
 56  1  1  0
 58 60  1  0
 58 57  1  0
 59 63  1  0
 59 60  1  0
 60 62  1  0
 61 59  1  0
 64 66  2  0
 65 64  1  0
 65 63  1  0
 67 65  1  0
 68 64  1  0
 70 71  1  0
 70 69  1  0
 72 81  1  0
 72 71  2  0
 73 78  1  1
 73 79  1  0
 74 73  1  0
 75 76  1  0
 76 77  1  0
 77 86  1  0
 80 73  1  0
 81 82  1  0
 83108  1  0
 83 84  2  0
 84103  1  0
 85 84  1  0
 86 87  1  0
 86 83  1  0
 87 85  2  0
 88 85  1  0
 88 89  1  0
 90 89  2  0
 91 90  1  0
 92 93  1  0
 92 91  2  0
 93 88  2  0
 94 91  1  0
 94 95  1  0
 95 96  1  0
 96 97  2  0
 98 97  1  0
 98102  1  0
 99 98  2  0
100 95  2  0
100 99  1  0
101100  1  0
103104  1  0
104106  1  0
104107  1  0
104 61  1  0
105103  2  0
108109  1  0
110108  1  0
M  ISO  4  14 101  15 101  73 100  81 100
M  END
>  <TORSDO>  (84) 
F 34

>  <SCORE>  (84) 
29.139

>  <name>  (84) 
88

>  <ligand_id>  (84) 
88

>  <original_smiles>  (84) 
[H]c1c([H])c([H])c2c(c1[H])C([H])([H])C([H])([H])C([H])([H])C2([H])N([H])C(=O)C1([H])N(C(=O)C([H])(N([H])C(=O)C([H])(N([H])C([H])([H])[H])C([H])([H])[H])C(C([H])([H])[H])(C([H])([H])[H])C([H])([H])[H])C([H])([H])c2c([H])c(OC([H])([H])C(=O)N([H])C([H])([H])C(=O)N([H])C([H])([H])C([H])([H])C([H])([H])C([H])([H])C([H])([H])C([H])([H])C([H])([H])N([H])C(=O)C([H])([H])N([H])C(=O)C([H])([H])C([H])([H])C([H])([H])C([H])([H])C([H])([H])N([H])C(=O)N3C([H])([H])C([H])([H])C([H])([H])C([H])(n4nc(-c5c([H])c([H])c(Oc6c([H])c([H])c(F)c([H])c6F)c([H])c5[H])c(C(=O)N([H])[H])c4N([H])[H])C3([H])[H])c([H])c([H])c2C1([H])[H]

>  <smiles>  (84) 
[H]c1c([H])c([H])c2c(c1[H])C([H])([H])C([H])([H])C([H])([H])C2([H])N([H])C(=O)C1([H])N(C(=O)C([H])(N([H])C(=O)C([H])(N([H])C([H])([H])[H])C([H])([H])[H])C(C([H])([H])[H])(C([H])([H])[H])C([H])([H])[H])C([H])([H])c2c([H])c(OC([H])([H])C(=O)N([H])C([H])([H])C(=O)N([H])C([H])([H])C([H])([H])C([H])([H])C([H])([H])C([H])([H])C([H])([H])C([H])([H])N([H])C(=O)C([H])([H])N([H])C(=O)C([H])([H])C([H])([H])C([H])([H])C([H])([H])C([H])([H])N([H])C(=O)N3C([H])([H])C([H])([H])C([H])([H])C([H])(n4nc(-c5c([H])c([H])c(Oc6c([H])c([H])c(F)c([H])c6F)c([H])c5[H])c(C(=O)N([H])[H])c4N([H])[H])C3([H])[H])c([H])c([H])c2C1([H])[H]

$$$$
89:0:0
     RDKit          3D

123130  0  0  1  0  0  0  0  0999 V2000
  -28.2950  -33.4740   29.6940 C   0  0  0  0  0  2  0  0  0  0  0  0
  -29.8080  -33.1940   29.5850 C   0  0  0  0  0  2  0  0  0  0  0  0
  -31.0930  -32.2820   27.6140 C   0  0  0  0  0  0  0  0  0  0  0  0
  -30.2050  -33.1150   28.1780 N   0  0  0  0  0  0  0  0  0  0  0  0
  -31.6700  -31.4030   28.2560 O   0  0  0  0  0  0  0  0  0  0  0  0
  -29.8600  -33.8640   27.5920 H   0  0  0  0  0  0  0  0  0  0  0  0
  -31.4110  -32.5140   26.1190 C   0  0  0  0  0  2  0  0  0  0  0  0
  -32.7580  -32.1530   25.7910 O   0  0  0  0  0  0  0  0  0  0  0  0
  -32.9620  -30.8520   25.2460 C   0  0  0  0  0  2  0  0  0  0  0  0
  -32.6870  -30.8020   23.7270 C   0  0  0  0  0  2  0  0  0  0  0  0
  -33.1130  -29.4870   23.0410 C   0  0  0  0  0  2  0  0  0  0  0  0
  -32.3770  -27.1260   22.9350 C   0  0  0  0  0  0  0  0  0  0  0  0
  -32.3180  -28.3450   23.4820 N   0  0  0  0  0  0  0  0  0  0  0  0
  -33.1380  -26.8420   22.0090 O   0  0  0  0  0  0  0  0  0  0  0  0
  -31.6320  -28.4940   24.2100 H   0  0  0  0  0  0  0  0  0  0  0  0
  -31.4410  -26.0580   23.5030 C   0  0  0  0  0  2  0  0  0  0  0  0
  -29.2810  -26.2560   22.2920 C   0  0  0  0  0  0  0  0  0  0  0  0
  -30.4580  -25.6510   22.5030 N   0  0  0  0  0  0  0  0  0  0  0  0
  -28.8870  -27.1920   22.9920 O   0  0  0  0  0  0  0  0  0  0  0  0
  -30.7350  -24.9090   21.8750 H   0  0  0  0  0  0  0  0  0  0  0  0
  -28.4330  -25.7440   21.1200 C   0  0  0  0  0  2  0  0  0  0  0  0
  -28.3990  -26.7360   20.0870 O   0  0  0  0  0  0  0  0  0  0  0  0
  -24.6240  -31.8580   23.2180 C   0  0  0  0  0  0  0  0  0  0  0  0
  -27.2510  -27.4810   20.0900 C   0  0  0  0  0  0  0  0  0  0  0  0
  -23.4030  -30.4840   21.5630 C   0  0  0  0  0  3  0  0  0  0  0  0
  -24.8510  -28.9560   20.1260 C   0  0  0  0  0  0  0  0  0  0  0  0
  -25.9280  -30.8440   21.3600 C   0  0  0  0  0  2  0  0  0  0  0  0
  -26.0070  -29.4830   20.7100 C   0  0  0  0  0  0  0  0  0  0  0  0
  -27.2150  -28.7570   20.6840 C   0  0  0  0  0  3  0  0  0  0  0  0
  -26.0840  -26.9560   19.5010 C   0  0  0  0  0  3  0  0  0  0  0  0
  -24.8790  -27.6850   19.5180 C   0  0  0  0  0  3  0  0  0  0  0  0
  -23.6080  -29.8160   20.1770 C   0  0  0  0  0  2  0  0  0  0  0  0
  -24.6700  -31.0710   22.1070 N   0  0  0  0  0  0  0  0  0  0  0  0
  -23.5420  -32.1410   23.7550 O   0  0  0  0  0  0  0  0  0  0  0  0
  -22.7430  -29.4620   22.5090 C   0  0  0  0  0  0  0  0  0  0  0  0
  -21.4160  -29.3040   22.3790 N   0  0  0  0  0  0  0  0  0  0  0  0
  -23.4240  -28.8040   23.3010 O   0  0  0  0  0  0  0  0  0  0  0  0
  -20.9350  -29.8850   21.7060 H   0  0  0  0  0  0  0  0  0  0  0  0
  -18.0250  -28.1400   22.8410 C   0  0  0  0  0  0  0  0  0  0  0  0
  -20.5870  -28.3670   23.1330 C   0  0  0  0  0  3  0  0  0  0  0  0
  -20.6800  -26.9400   22.5430 C   0  0  0  0  0  2  0  0  0  0  0  0
  -19.5790  -26.6390   21.5210 C   0  0  0  0  0  2  0  0  0  0  0  0
  -18.1940  -26.7940   22.1550 C   0  0  0  0  0  2  0  0  0  0  0  0
  -19.1510  -28.8830   23.2880 C   0  0  0  0  0  0  0  0  0  0  0  0
  -18.9410  -30.1420   23.8910 C   0  0  0  0  0  3  0  0  0  0  0  0
  -17.6410  -30.6590   24.0550 C   0  0  0  0  0  3  0  0  0  0  0  0
  -16.5300  -29.9130   23.6270 C   0  0  0  0  0  3  0  0  0  0  0  0
  -16.7230  -28.6560   23.0240 C   0  0  0  0  0  3  0  0  0  0  0  0
  -25.9130  -32.4780   23.8450 C   0  0  0  0  0  3  0  0  0  0  0  0
  -26.4740  -31.6790   25.0930 C   0  0  1  0  0  0  0  0  0  0  0  0
  -25.3940  -31.3090   26.1450 C   0  0  0  0  0  1  0  0  0  0  0  0
  -27.1210  -30.3650   24.6210 C   0  0  0  0  0  1  0  0  0  0  0  0
  -27.5850  -32.5000   25.8080 C   0  0  0  0  0  1  0  0  0  0  0  0
  -25.5630  -33.8500   24.2160 N   0  0  0  0  0  0  0  0  0  0  0  0
  -25.9060  -34.9450   23.5230 C   0  0  0  0  0  0  0  0  0  0  0  0
  -26.5980  -34.9090   22.5040 O   0  0  0  0  0  0  0  0  0  0  0  0
  -24.8870  -33.9520   24.9570 H   0  0  0  0  0  0  0  0  0  0  0  0
  -24.1230  -36.6850   23.3120 C   0  0  0  0  0  1  0  0  0  0  0  0
  -25.3950  -36.2930   24.0660 C   0  0  0  0  0  3  0  0  0  0  0  0
  -27.5380  -37.2230   24.8480 C   0  0  0  0  0  1  0  0  0  0  0  0
  -26.3950  -37.3760   23.9550 N   0  0  0  0  0  0  0  0  0  0  0  0
  -25.9710  -38.2810   24.1190 H   0  0  0  0  0  0  0  0  0  0  0  0
  -27.4480  -32.3160   30.2660 C   0  0  0  0  0  2  0  0  0  0  0  0
  -25.9860  -32.3500   29.7560 C   0  0  0  0  0  2  0  0  0  0  0  0
  -25.0530  -31.1670   30.1300 C   0  0  0  0  0  2  0  0  0  0  0  0
  -25.6520  -29.7530   29.8380 C   0  0  0  0  0  2  0  0  0  0  0  0
  -24.8150  -28.8770   28.9770 N   0  0  0  0  0  4  0  0  0  0  0  0
  -24.1620  -29.4650   28.4830 H   0  0  0  0  0  0  0  0  0  0  0  0
  -24.2570  -28.2710   29.5560 H   0  0  0  0  0  0  0  0  0  0  0  0
  -25.6010  -28.0250   28.0320 C   0  0  0  0  0  2  0  0  0  0  0  0
  -24.7180  -26.9780   27.3160 C   0  0  0  0  0  2  0  0  0  0  0  0
  -25.6270  -24.8470   26.3100 C   0  0  0  0  0  0  0  0  0  0  0  0
  -25.4240  -26.1770   26.2940 N   0  0  0  0  0  0  0  0  0  0  0  0
  -25.3830  -24.1610   27.3040 O   0  0  0  0  0  0  0  0  0  0  0  0
  -25.6690  -26.6440   25.4260 H   0  0  0  0  0  0  0  0  0  0  0  0
  -26.1280  -24.1830   25.0060 C   0  0  0  0  0  2  0  0  0  0  0  0
  -27.0480  -22.9350   25.1770 C   0  0  0  0  0  2  0  0  0  0  0  0
  -27.0330  -22.0100   23.9250 C   0  0  0  0  0  2  0  0  0  0  0  0
  -28.1160  -20.8880   23.8480 C   0  0  0  0  0  2  0  0  0  0  0  0
  -27.8260  -19.7930   22.7650 C   0  0  0  0  0  2  0  0  0  0  0  0
  -28.8280  -17.6280   21.9180 C   0  0  0  0  0  0  0  0  0  0  0  0
  -28.9120  -18.8070   22.5700 N   0  0  0  0  0  0  0  0  0  0  0  0
  -27.7650  -17.2010   21.4640 O   0  0  0  0  0  0  0  0  0  0  0  0
  -29.8280  -19.0630   22.9070 H   0  0  0  0  0  0  0  0  0  0  0  0
  -30.1260  -16.8030   21.7450 C   0  0  0  0  0  2  0  0  0  0  0  0
  -30.6170  -14.5170   20.6680 C   0  0  0  0  0  0  0  0  0  0  0  0
  -30.4530  -12.3780   19.4220 C   0  0  0  0  0  2  0  0  0  0  0  0
  -29.5050  -12.5300   18.2090 C   0  0  0  0  0  2  0  0  0  0  0  0
  -28.0270  -12.3570   18.6210 C   0  0  0  0  0  2  0  0  0  0  0  0
  -27.6570  -13.1930   19.8730 C   0  0  0  0  0  3  0  0  0  0  0  0
  -28.6850  -12.9410   20.9930 C   0  0  0  0  0  2  0  0  0  0  0  0
  -30.0080  -13.3140   20.4700 N   0  0  0  0  0  0  0  0  0  0  0  0
  -31.7200  -14.7870   20.1900 O   0  0  0  0  0  0  0  0  0  0  0  0
  -29.8600  -15.4080   21.3540 N   0  0  0  0  0  0  0  0  0  0  0  0
  -28.9270  -15.1070   21.5750 H   0  0  0  0  0  0  0  0  0  0  0  0
  -25.2560  -13.8190   20.5630 C   0  0  0  0  0  0  0  0  0  0  0  0
  -24.1780  -13.0420   20.9130 C   0  0  0  0  0  0  0  0  0  0  0  0
  -24.6360  -11.6940   20.8710 C   0  0  0  0  0  0  0  0  0  0  0  0
  -26.2950  -12.9300   20.3260 N   0  0  0  0  0  0  0  0  0  0  0  0
  -25.9270  -11.6500   20.5700 N   0  0  0  0  0  0  0  0  0  0  0  0
  -23.9060  -10.4310   21.0380 C   0  0  0  0  0  0  0  0  0  0  0  0
  -24.3590   -9.4250   21.9170 C   0  0  0  0  0  3  0  0  0  0  0  0
  -23.6270   -8.2280   22.0760 C   0  0  0  0  0  3  0  0  0  0  0  0
  -22.4260   -8.0300   21.3550 C   0  0  0  0  0  0  0  0  0  0  0  0
  -21.9870   -9.0280   20.4680 C   0  0  0  0  0  3  0  0  0  0  0  0
  -22.7210  -10.2160   20.3070 C   0  0  0  0  0  3  0  0  0  0  0  0
  -21.6650   -6.8860   21.4260 O   0  0  0  0  0  0  0  0  0  0  0  0
  -21.6840   -6.0730   22.5300 C   0  0  0  0  0  0  0  0  0  0  0  0
  -21.4010   -6.5630   23.8230 C   0  0  0  0  0  3  0  0  0  0  0  0
  -21.3660   -5.6770   24.9190 C   0  0  0  0  0  3  0  0  0  0  0  0
  -21.6050   -4.3040   24.7230 C   0  0  0  0  0  0  0  0  0  0  0  0
  -21.8810   -3.8140   23.4360 C   0  0  0  0  0  3  0  0  0  0  0  0
  -21.9200   -4.6970   22.3420 C   0  0  0  0  0  0  0  0  0  0  0  0
  -22.1640   -4.2160   21.0990 F   0  0  0  0  0  0  0  0  0  0  0  0
  -21.5640   -3.4510   25.7740 F   0  0  0  0  0  0  0  0  0  0  0  0
  -22.7840  -13.5300   21.1790 C   0  0  0  0  0  0  0  0  0  0  0  0
  -22.0440  -12.8330   22.0390 N   0  0  0  0  0  0  0  0  0  0  0  0
  -22.3580  -14.5600   20.6680 O   0  0  0  0  0  0  0  0  0  0  0  0
  -22.3970  -12.0010   22.4860 H   0  0  0  0  0  0  0  0  0  0  0  0
  -21.1100  -13.1480   22.2570 H   0  0  0  0  0  0  0  0  0  0  0  0
  -25.4340  -15.1880   20.4140 N   0  0  0  0  0  0  0  0  0  0  0  0
  -24.6740  -15.8440   20.5650 H   0  0  0  0  0  0  0  0  0  0  0  0
  -26.3340  -15.6480   20.2980 H   0  0  0  0  0  0  0  0  0  0  0  0
  1 63  1  0
  2  1  1  0
  3  4  1  0
  3  5  2  0
  4  2  1  0
  6  4  1  0
  7  3  1  0
  8  7  1  0
  9  8  1  0
 10  9  1  0
 11 13  1  0
 11 10  1  0
 12 13  1  0
 12 16  1  0
 13 15  1  0
 14 12  2  0
 17 18  1  0
 17 19  2  0
 18 16  1  0
 20 18  1  0
 21 17  1  0
 22 24  1  0
 22 21  1  0
 23 34  2  0
 24 29  1  0
 25 33  1  0
 25 35  1  0
 26 32  1  0
 26 28  1  0
 27 33  1  0
 28 27  1  0
 29 28  2  0
 30 31  1  0
 30 24  2  0
 31 26  2  0
 32 25  1  0
 33 23  1  0
 35 37  2  0
 36 35  1  0
 38 36  1  0
 39 48  2  0
 39 44  1  0
 40 36  1  0
 40 44  1  0
 41 40  1  0
 42 43  1  0
 42 41  1  0
 43 39  1  0
 44 45  2  0
 45 46  1  0
 47 46  2  0
 48 47  1  0
 49 23  1  0
 49 54  1  0
 49 50  1  0
 50 53  1  1
 50 51  1  0
 52 50  1  0
 54 57  1  0
 55 59  1  0
 55 54  1  0
 56 55  2  0
 59 58  1  0
 61 59  1  0
 61 62  1  0
 61 60  1  0
 64 65  1  0
 64 63  1  0
 66 65  1  0
 67 69  1  0
 67 66  1  0
 68 67  1  0
 70 67  1  0
 71 70  1  0
 72 74  2  0
 73 72  1  0
 73 71  1  0
 75 73  1  0
 76 77  1  0
 76 72  1  0
 78 77  1  0
 79 78  1  0
 80 79  1  0
 81 82  1  0
 82 80  1  0
 82 84  1  0
 83 81  2  0
 85 81  1  0
 86 94  1  0
 87 92  1  0
 88 89  1  0
 88 87  1  0
 90 89  1  0
 90 99  1  0
 90 91  1  0
 92 86  1  0
 92 91  1  0
 93 86  2  0
 94 95  1  0
 94 85  1  0
 96 97  2  0
 97116  1  0
 98 97  1  0
 98101  1  0
 99 96  1  0
 99100  1  0
100 98  2  0
101102  1  0
102103  2  0
104107  1  0
104103  1  0
105104  2  0
106105  1  0
106101  2  0
107108  1  0
108109  1  0
109110  2  0
111110  1  0
111115  1  0
112111  2  0
113108  2  0
113112  1  0
114113  1  0
116117  1  0
117120  1  0
117119  1  0
118116  2  0
121 96  1  0
121122  1  0
123121  1  0
M  ISO  4  21 101  22 101  86 100  94 100
M  END
>  <TORSDO>  (85) 
F 42

>  <SCORE>  (85) 
24.752

>  <name>  (85) 
89

>  <ligand_id>  (85) 
89

>  <original_smiles>  (85) 
[H]c1c([H])c([H])c2c(c1[H])C([H])([H])C([H])([H])C([H])([H])C2([H])N([H])C(=O)C1([H])N(C(=O)C([H])(N([H])C(=O)C([H])(N([H])C([H])([H])[H])C([H])([H])[H])C(C([H])([H])[H])(C([H])([H])[H])C([H])([H])[H])C([H])([H])c2c([H])c(OC([H])([H])C(=O)N([H])C([H])([H])C(=O)N([H])C([H])([H])C([H])([H])C([H])([H])OC([H])([H])C(=O)N([H])C([H])([H])C([H])([H])C([H])([H])C([H])([H])C([H])([H])C([H])([H])[N+]([H])([H])C([H])([H])C([H])([H])N([H])C(=O)C([H])([H])C([H])([H])C([H])([H])C([H])([H])C([H])([H])N([H])C(=O)C([H])([H])N([H])C(=O)N3C([H])([H])C([H])([H])C([H])([H])C([H])(n4nc(-c5c([H])c([H])c(Oc6c([H])c([H])c(F)c([H])c6F)c([H])c5[H])c(C(=O)N([H])[H])c4N([H])[H])C3([H])[H])c([H])c([H])c2C1([H])[H]

>  <smiles>  (85) 
[H]c1c([H])c([H])c2c(c1[H])C([H])([H])C([H])([H])C([H])([H])C2([H])N([H])C(=O)C1([H])N(C(=O)C([H])(N([H])C(=O)C([H])(N([H])C([H])([H])[H])C([H])([H])[H])C(C([H])([H])[H])(C([H])([H])[H])C([H])([H])[H])C([H])([H])c2c([H])c(OC([H])([H])C(=O)N([H])C([H])([H])C(=O)N([H])C([H])([H])C([H])([H])C([H])([H])OC([H])([H])C(=O)N([H])C([H])([H])C([H])([H])C([H])([H])C([H])([H])C([H])([H])C([H])([H])[N+]([H])([H])C([H])([H])C([H])([H])N([H])C(=O)C([H])([H])C([H])([H])C([H])([H])C([H])([H])C([H])([H])N([H])C(=O)C([H])([H])N([H])C(=O)N3C([H])([H])C([H])([H])C([H])([H])C([H])(n4nc(-c5c([H])c([H])c(Oc6c([H])c([H])c(F)c([H])c6F)c([H])c5[H])c(C(=O)N([H])[H])c4N([H])[H])C3([H])[H])c([H])c([H])c2C1([H])[H]

$$$$
90:0:0
     RDKit          3D

101108  0  0  1  0  0  0  0  0999 V2000
  -30.9920  -22.7240   15.1210 C   0  0  0  0  0  2  0  0  0  0  0  0
  -31.1790  -21.2900   14.5840 C   0  0  0  0  0  2  0  0  0  0  0  0
  -29.8550  -20.5440   14.3450 C   0  0  0  0  0  2  0  0  0  0  0  0
  -29.1870  -19.2340   16.3610 C   0  0  0  0  0  0  0  0  0  0  0  0
  -29.1350  -20.3340   15.6000 N   0  0  0  0  0  0  0  0  0  0  0  0
  -29.8380  -18.2340   16.0420 O   0  0  0  0  0  0  0  0  0  0  0  0
  -28.5770  -21.1020   15.9500 H   0  0  0  0  0  0  0  0  0  0  0  0
  -28.3950  -19.2730   17.6750 C   0  0  0  0  0  2  0  0  0  0  0  0
  -28.8350  -18.2340   18.5440 O   0  0  0  0  0  0  0  0  0  0  0  0
  -28.2170  -18.2880   19.8230 C   0  0  0  0  0  2  0  0  0  0  0  0
  -28.8330  -17.1960   20.7050 C   0  0  0  0  0  2  0  0  0  0  0  0
  -30.3580  -17.3560   20.8760 C   0  0  0  0  0  2  0  0  0  0  0  0
  -31.0160  -16.2750   21.7560 C   0  0  0  0  0  2  0  0  0  0  0  0
  -30.9940  -14.1810   20.3840 C   0  0  0  0  0  0  0  0  0  0  0  0
  -30.5100  -12.1770   19.0270 C   0  0  0  0  0  2  0  0  0  0  0  0
  -29.5360  -12.5050   17.8800 C   0  0  0  0  0  2  0  0  0  0  0  0
  -28.0720  -12.4170   18.3530 C   0  0  0  0  0  2  0  0  0  0  0  0
  -27.8270  -13.2020   19.6670 C   0  0  0  0  0  3  0  0  0  0  0  0
  -28.8930  -12.8320   20.7220 C   0  0  0  0  0  2  0  0  0  0  0  0
  -30.2300  -13.0840   20.1470 N   0  0  0  0  0  0  0  0  0  0  0  0
  -32.0000  -14.4730   19.7290 O   0  0  0  0  0  0  0  0  0  0  0  0
  -30.5640  -14.9350   21.4020 N   0  0  0  0  0  0  0  0  0  0  0  0
  -29.7720  -14.5720   21.9130 H   0  0  0  0  0  0  0  0  0  0  0  0
  -25.4730  -13.9200   20.4370 C   0  0  0  0  0  0  0  0  0  0  0  0
  -24.3810  -13.1930   20.8300 C   0  0  0  0  0  0  0  0  0  0  0  0
  -24.7810  -11.8220   20.7780 C   0  0  0  0  0  0  0  0  0  0  0  0
  -26.4720  -12.9940   20.1740 N   0  0  0  0  0  0  0  0  0  0  0  0
  -26.0600  -11.7270   20.4350 N   0  0  0  0  0  0  0  0  0  0  0  0
  -24.0080  -10.5910   20.9820 C   0  0  0  0  0  0  0  0  0  0  0  0
  -24.4200   -9.6030   21.9020 C   0  0  0  0  0  3  0  0  0  0  0  0
  -23.6500   -8.4350   22.0900 C   0  0  0  0  0  3  0  0  0  0  0  0
  -22.4530   -8.2500   21.3590 C   0  0  0  0  0  0  0  0  0  0  0  0
  -22.0580   -9.2270   20.4290 C   0  0  0  0  0  3  0  0  0  0  0  0
  -22.8280  -10.3860   20.2380 C   0  0  0  0  0  3  0  0  0  0  0  0
  -21.6530   -7.1360   21.4590 O   0  0  0  0  0  0  0  0  0  0  0  0
  -21.5940   -6.3940   22.6110 C   0  0  0  0  0  0  0  0  0  0  0  0
  -21.2040   -6.9620   23.8450 C   0  0  0  0  0  3  0  0  0  0  0  0
  -21.0890   -6.1480   24.9880 C   0  0  0  0  0  3  0  0  0  0  0  0
  -21.3530   -4.7670   24.9020 C   0  0  0  0  0  0  0  0  0  0  0  0
  -21.7360   -4.2010   23.6740 C   0  0  0  0  0  3  0  0  0  0  0  0
  -21.8530   -5.0120   22.5310 C   0  0  0  0  0  0  0  0  0  0  0  0
  -22.2030   -4.4550   21.3460 F   0  0  0  0  0  0  0  0  0  0  0  0
  -21.2350   -3.9840   25.9990 F   0  0  0  0  0  0  0  0  0  0  0  0
  -23.0140  -13.7280   21.1450 C   0  0  0  0  0  0  0  0  0  0  0  0
  -22.2790  -13.0560   22.0240 N   0  0  0  0  0  0  0  0  0  0  0  0
  -22.6060  -14.7760   20.6450 O   0  0  0  0  0  0  0  0  0  0  0  0
  -22.6210  -12.2070   22.4490 H   0  0  0  0  0  0  0  0  0  0  0  0
  -21.3620  -13.3960   22.2770 H   0  0  0  0  0  0  0  0  0  0  0  0
  -25.6930  -15.2810   20.2610 N   0  0  0  0  0  0  0  0  0  0  0  0
  -24.9590  -15.9680   20.3950 H   0  0  0  0  0  0  0  0  0  0  0  0
  -26.5510  -15.6800   19.9040 H   0  0  0  0  0  0  0  0  0  0  0  0
  -31.9830  -23.0750   16.2400 C   0  0  0  0  0  2  0  0  0  0  0  0
  -31.7680  -24.4920   16.7880 C   0  0  0  0  0  2  0  0  0  0  0  0
  -32.7150  -24.7990   17.9550 C   0  0  0  0  0  2  0  0  0  0  0  0
  -32.7250  -26.2810   18.3740 C   0  0  0  0  0  2  0  0  0  0  0  0
  -30.8130  -26.4450   19.9910 C   0  0  0  0  0  0  0  0  0  0  0  0
  -31.4410  -26.7860   18.8580 N   0  0  0  0  0  0  0  0  0  0  0  0
  -31.1630  -25.4950   20.6960 O   0  0  0  0  0  0  0  0  0  0  0  0
  -31.0620  -27.5880   18.3680 H   0  0  0  0  0  0  0  0  0  0  0  0
  -29.6380  -27.3330   20.4190 C   0  0  0  0  0  2  0  0  0  0  0  0
  -28.4070  -26.7050   20.0650 O   0  0  0  0  0  0  0  0  0  0  0  0
  -24.5220  -31.8550   23.1880 C   0  0  0  0  0  0  0  0  0  0  0  0
  -27.2550  -27.4560   20.1460 C   0  0  0  0  0  0  0  0  0  0  0  0
  -23.3420  -30.4380   21.5340 C   0  0  0  0  0  3  0  0  0  0  0  0
  -24.8250  -28.9050   20.1400 C   0  0  0  0  0  0  0  0  0  0  0  0
  -25.8590  -30.8270   21.3610 C   0  0  0  0  0  2  0  0  0  0  0  0
  -25.9650  -29.4530   20.7380 C   0  0  0  0  0  0  0  0  0  0  0  0
  -27.1780  -28.7340   20.7500 C   0  0  0  0  0  3  0  0  0  0  0  0
  -26.0920  -26.9070   19.5630 C   0  0  0  0  0  3  0  0  0  0  0  0
  -24.8790  -27.6260   19.5540 C   0  0  0  0  0  3  0  0  0  0  0  0
  -23.5740  -29.7520   20.1610 C   0  0  0  0  0  2  0  0  0  0  0  0
  -24.5930  -31.0530   22.0890 N   0  0  0  0  0  0  0  0  0  0  0  0
  -23.4340  -32.1230   23.7140 O   0  0  0  0  0  0  0  0  0  0  0  0
  -22.6870  -29.4170   22.4900 C   0  0  0  0  0  0  0  0  0  0  0  0
  -21.3640  -29.2390   22.3550 N   0  0  0  0  0  0  0  0  0  0  0  0
  -23.3650  -28.7900   23.3070 O   0  0  0  0  0  0  0  0  0  0  0  0
  -20.8800  -29.8020   21.6690 H   0  0  0  0  0  0  0  0  0  0  0  0
  -17.9790  -28.0690   22.8300 C   0  0  0  0  0  0  0  0  0  0  0  0
  -20.5380  -28.3010   23.1130 C   0  0  0  0  0  3  0  0  0  0  0  0
  -20.6290  -26.8760   22.5220 C   0  0  0  0  0  2  0  0  0  0  0  0
  -19.5260  -26.5720   21.5040 C   0  0  0  0  0  2  0  0  0  0  0  0
  -18.1440  -26.7230   22.1460 C   0  0  0  0  0  2  0  0  0  0  0  0
  -19.1040  -28.8180   23.2710 C   0  0  0  0  0  0  0  0  0  0  0  0
  -18.8980  -30.0790   23.8700 C   0  0  0  0  0  3  0  0  0  0  0  0
  -17.5990  -30.5940   24.0350 C   0  0  0  0  0  3  0  0  0  0  0  0
  -16.4880  -29.8430   23.6150 C   0  0  0  0  0  3  0  0  0  0  0  0
  -16.6790  -28.5820   23.0180 C   0  0  0  0  0  3  0  0  0  0  0  0
  -25.8010  -32.4910   23.8230 C   0  0  0  0  0  3  0  0  0  0  0  0
  -26.3150  -31.7130   25.0950 C   0  0  1  0  0  0  0  0  0  0  0  0
  -25.2180  -31.4640   26.1550 C   0  0  0  0  0  1  0  0  0  0  0  0
  -26.9090  -30.3440   24.6880 C   0  0  0  0  0  1  0  0  0  0  0  0
  -27.4550  -32.5130   25.7710 C   0  0  0  0  0  1  0  0  0  0  0  0
  -25.4840  -33.8840   24.1560 N   0  0  0  0  0  0  0  0  0  0  0  0
  -25.8250  -34.9410   23.4060 C   0  0  0  0  0  0  0  0  0  0  0  0
  -26.5130  -34.8460   22.3840 O   0  0  0  0  0  0  0  0  0  0  0  0
  -24.8760  -34.0360   24.9480 H   0  0  0  0  0  0  0  0  0  0  0  0
  -24.1030  -36.7290   23.0200 C   0  0  0  0  0  1  0  0  0  0  0  0
  -25.3220  -36.3240   23.8620 C   0  0  0  0  0  3  0  0  0  0  0  0
  -27.4320  -37.2040   24.7530 C   0  0  0  0  0  1  0  0  0  0  0  0
  -26.3550  -37.3790   23.7850 N   0  0  0  0  0  0  0  0  0  0  0  0
  -25.9450  -38.2980   23.9270 H   0  0  0  0  0  0  0  0  0  0  0  0
  1 52  1  0
  2  1  1  0
  3  2  1  0
  3  5  1  0
  4  8  1  0
  5  7  1  0
  5  4  1  0
  6  4  2  0
  8  9  1  0
  9 10  1  0
 10 11  1  0
 11 12  1  0
 12 13  1  0
 14 22  1  0
 15 20  1  0
 16 17  1  0
 16 15  1  0
 18 17  1  0
 18 27  1  0
 18 19  1  0
 20 14  1  0
 20 19  1  0
 21 14  2  0
 22 13  1  0
 22 23  1  0
 24 25  2  0
 25 44  1  0
 26 25  1  0
 26 29  1  0
 27 28  1  0
 27 24  1  0
 28 26  2  0
 29 30  1  0
 30 31  2  0
 32 35  1  0
 32 31  1  0
 33 32  2  0
 34 33  1  0
 34 29  2  0
 35 36  1  0
 36 37  1  0
 37 38  2  0
 39 38  1  0
 39 43  1  0
 40 39  2  0
 41 36  2  0
 41 40  1  0
 42 41  1  0
 44 45  1  0
 45 48  1  0
 45 47  1  0
 46 44  2  0
 49 50  1  0
 49 24  1  0
 51 49  1  0
 52 53  1  0
 53 54  1  0
 54 55  1  0
 55 57  1  0
 56 60  1  0
 56 58  2  0
 57 56  1  0
 59 57  1  0
 61 63  1  0
 61 60  1  0
 62 73  2  0
 63 68  1  0
 64 72  1  0
 64 74  1  0
 65 71  1  0
 65 67  1  0
 66 72  1  0
 67 68  2  0
 67 66  1  0
 69 63  2  0
 70 69  1  0
 70 65  2  0
 71 64  1  0
 72 62  1  0
 74 76  2  0
 75 74  1  0
 77 75  1  0
 78 87  2  0
 78 83  1  0
 79 75  1  0
 79 83  1  0
 80 79  1  0
 81 82  1  0
 81 80  1  0
 82 78  1  0
 83 84  2  0
 84 85  1  0
 86 85  2  0
 87 86  1  0
 88 62  1  0
 88 93  1  0
 88 89  1  0
 89 92  1  1
 89 90  1  0
 91 89  1  0
 93 96  1  0
 94 98  1  0
 94 93  1  0
 95 94  2  0
 98 97  1  0
100 98  1  0
100101  1  0
100 99  1  0
M  ISO  4  14 100  22 100  60 101  61 101
M  END
>  <TORSDO>  (86) 
F 31

>  <SCORE>  (86) 
-10.652

>  <name>  (86) 
90

>  <ligand_id>  (86) 
90

>  <original_smiles>  (86) 
[H]c1c([H])c([H])c2c(c1[H])C([H])([H])C([H])([H])C([H])([H])C2([H])N([H])C(=O)C1([H])N(C(=O)C([H])(N([H])C(=O)C([H])(N([H])C([H])([H])[H])C([H])([H])[H])C(C([H])([H])[H])(C([H])([H])[H])C([H])([H])[H])C([H])([H])c2c([H])c(OC([H])([H])C(=O)N([H])C([H])([H])C([H])([H])C([H])([H])C([H])([H])C([H])([H])C([H])([H])C([H])([H])N([H])C(=O)C([H])([H])OC([H])([H])C([H])([H])C([H])([H])C([H])([H])N([H])C(=O)N3C([H])([H])C([H])([H])C([H])([H])C([H])(n4nc(-c5c([H])c([H])c(Oc6c([H])c([H])c(F)c([H])c6F)c([H])c5[H])c(C(=O)N([H])[H])c4N([H])[H])C3([H])[H])c([H])c([H])c2C1([H])[H]

>  <smiles>  (86) 
[H]c1c([H])c([H])c2c(c1[H])C([H])([H])C([H])([H])C([H])([H])C2([H])N([H])C(=O)C1([H])N(C(=O)C([H])(N([H])C(=O)C([H])(N([H])C([H])([H])[H])C([H])([H])[H])C(C([H])([H])[H])(C([H])([H])[H])C([H])([H])[H])C([H])([H])c2c([H])c(OC([H])([H])C(=O)N([H])C([H])([H])C([H])([H])C([H])([H])C([H])([H])C([H])([H])C([H])([H])C([H])([H])N([H])C(=O)C([H])([H])OC([H])([H])C([H])([H])C([H])([H])C([H])([H])N([H])C(=O)N3C([H])([H])C([H])([H])C([H])([H])C([H])(n4nc(-c5c([H])c([H])c(Oc6c([H])c([H])c(F)c([H])c6F)c([H])c5[H])c(C(=O)N([H])[H])c4N([H])[H])C3([H])[H])c([H])c([H])c2C1([H])[H]

$$$$
91:0:0
     RDKit          3D

107114  0  0  1  0  0  0  0  0999 V2000
  -23.2050  -19.1380   18.8790 C   0  0  0  0  0  2  0  0  0  0  0  0
  -25.5440  -18.8330   18.0170 C   0  0  0  0  0  0  0  0  0  0  0  0
  -24.3390  -19.4220   17.9980 N   0  0  0  0  0  0  0  0  0  0  0  0
  -25.8410  -17.9390   18.8110 O   0  0  0  0  0  0  0  0  0  0  0  0
  -24.2020  -20.1520   17.3120 H   0  0  0  0  0  0  0  0  0  0  0  0
  -26.5770  -19.3020   16.9790 C   0  0  0  0  0  2  0  0  0  0  0  0
  -28.2160  -19.6190   18.8170 C   0  0  0  0  0  0  0  0  0  0  0  0
  -27.9320  -19.3340   17.5380 N   0  0  0  0  0  0  0  0  0  0  0  0
  -27.3480  -19.9950   19.6090 O   0  0  0  0  0  0  0  0  0  0  0  0
  -28.6830  -19.0310   16.9310 H   0  0  0  0  0  0  0  0  0  0  0  0
  -29.6690  -19.4680   19.2960 C   0  0  0  0  0  2  0  0  0  0  0  0
  -30.8240  -17.6680   20.6080 C   0  0  0  0  0  0  0  0  0  0  0  0
  -29.7390  -18.3590   20.2450 N   0  0  0  0  0  0  0  0  0  0  0  0
  -31.9450  -17.9660   20.2040 O   0  0  0  0  0  0  0  0  0  0  0  0
  -28.8460  -18.1320   20.6660 H   0  0  0  0  0  0  0  0  0  0  0  0
  -30.5740  -16.4590   21.5480 C   0  0  0  0  0  2  0  0  0  0  0  0
  -32.1690  -14.6910   20.7730 C   0  0  0  0  0  0  0  0  0  0  0  0
  -31.7530  -12.8260   19.2120 C   0  0  0  0  0  2  0  0  0  0  0  0
  -30.7680  -13.2660   18.1120 C   0  0  0  0  0  2  0  0  0  0  0  0
  -29.3040  -13.0850   18.5660 C   0  0  0  0  0  2  0  0  0  0  0  0
  -29.0440  -13.6880   19.9740 C   0  0  0  0  0  3  0  0  0  0  0  0
  -30.1300  -13.2180   20.9650 C   0  0  0  0  0  2  0  0  0  0  0  0
  -31.4410  -13.6030   20.4160 N   0  0  0  0  0  0  0  0  0  0  0  0
  -33.2580  -14.9830   20.2740 O   0  0  0  0  0  0  0  0  0  0  0  0
  -31.6390  -15.4530   21.7370 N   0  0  0  0  0  0  0  0  0  0  0  0
  -32.3420  -15.7930   22.3770 H   0  0  0  0  0  0  0  0  0  0  0  0
  -26.6900  -14.2540   20.8710 C   0  0  0  0  0  0  0  0  0  0  0  0
  -25.6190  -13.4690   21.1640 C   0  0  0  0  0  0  0  0  0  0  0  0
  -26.0400  -12.1290   20.9070 C   0  0  0  0  0  0  0  0  0  0  0  0
  -27.7040  -13.3990   20.4640 N   0  0  0  0  0  0  0  0  0  0  0  0
  -27.3140  -12.1040   20.5400 N   0  0  0  0  0  0  0  0  0  0  0  0
  -25.2920  -10.8740   20.9480 C   0  0  0  0  0  0  0  0  0  0  0  0
  -25.6020   -9.8650   21.8830 C   0  0  0  0  0  3  0  0  0  0  0  0
  -24.8640   -8.6640   21.9080 C   0  0  0  0  0  3  0  0  0  0  0  0
  -23.7940   -8.4730   20.9980 C   0  0  0  0  0  0  0  0  0  0  0  0
  -23.5030   -9.4740   20.0610 C   0  0  0  0  0  3  0  0  0  0  0  0
  -24.2450  -10.6640   20.0330 C   0  0  0  0  0  3  0  0  0  0  0  0
  -23.0390   -7.3310   20.9290 O   0  0  0  0  0  0  0  0  0  0  0  0
  -22.3200   -6.8840   22.0030 C   0  0  0  0  0  0  0  0  0  0  0  0
  -21.4080   -7.7130   22.6920 C   0  0  0  0  0  3  0  0  0  0  0  0
  -20.6330   -7.1830   23.7460 C   0  0  0  0  0  3  0  0  0  0  0  0
  -20.7680   -5.8300   24.1010 C   0  0  0  0  0  0  0  0  0  0  0  0
  -21.6710   -4.9990   23.4130 C   0  0  0  0  0  3  0  0  0  0  0  0
  -22.4430   -5.5280   22.3630 C   0  0  0  0  0  0  0  0  0  0  0  0
  -23.2960   -4.7230   21.6840 F   0  0  0  0  0  0  0  0  0  0  0  0
  -20.0240   -5.3150   25.1080 F   0  0  0  0  0  0  0  0  0  0  0  0
  -24.2560  -13.9360   21.5950 C   0  0  0  0  0  0  0  0  0  0  0  0
  -23.5940  -13.1540   22.4340 N   0  0  0  0  0  0  0  0  0  0  0  0
  -23.7990  -15.0150   21.2240 O   0  0  0  0  0  0  0  0  0  0  0  0
  -24.0120  -12.2880   22.7430 H   0  0  0  0  0  0  0  0  0  0  0  0
  -22.6760  -13.4050   22.7800 H   0  0  0  0  0  0  0  0  0  0  0  0
  -26.8760  -15.6270   20.9240 N   0  0  0  0  0  0  0  0  0  0  0  0
  -26.0990  -16.1600   21.3090 H   0  0  0  0  0  0  0  0  0  0  0  0
  -27.7890  -15.9710   21.1750 H   0  0  0  0  0  0  0  0  0  0  0  0
  -22.6450  -20.4060   19.5610 C   0  0  0  0  0  2  0  0  0  0  0  0
  -22.8580  -21.7170   18.7700 C   0  0  0  0  0  2  0  0  0  0  0  0
  -24.2780  -21.8390   18.2050 C   0  0  0  0  0  2  0  0  0  0  0  0
  -24.3840  -22.8120   17.0230 C   0  0  0  0  0  2  0  0  0  0  0  0
  -25.8350  -23.2720   16.8220 C   0  0  0  0  0  2  0  0  0  0  0  0
  -26.0340  -24.0480   15.5200 C   0  0  0  0  0  2  0  0  0  0  0  0
  -27.4730  -23.9790   15.0070 C   0  0  0  0  0  2  0  0  0  0  0  0
  -28.9750  -25.6850   14.0350 C   0  0  0  0  0  0  0  0  0  0  0  0
  -27.7560  -25.2110   14.2910 N   0  0  0  0  0  0  0  0  0  0  0  0
  -30.0080  -25.0990   14.3690 O   0  0  0  0  0  0  0  0  0  0  0  0
  -26.9670  -25.7620   13.9830 H   0  0  0  0  0  0  0  0  0  0  0  0
  -29.0420  -27.0420   13.3390 C   0  0  0  0  0  2  0  0  0  0  0  0
  -28.6820  -28.0350   14.2840 O   0  0  0  0  0  0  0  0  0  0  0  0
  -25.2920  -27.0490   20.4220 C   0  0  0  0  0  0  0  0  0  0  0  0
  -27.4480  -28.0330   14.8970 C   0  0  0  0  0  0  0  0  0  0  0  0
  -23.8320  -27.4600   18.4670 C   0  0  0  0  0  3  0  0  0  0  0  0
  -25.0210  -28.1980   16.3310 C   0  0  0  0  0  0  0  0  0  0  0  0
  -26.2120  -28.3680   18.5230 C   0  0  0  0  0  2  0  0  0  0  0  0
  -26.2410  -28.2160   17.0170 C   0  0  0  0  0  0  0  0  0  0  0  0
  -27.4490  -28.1260   16.3050 C   0  0  0  0  0  3  0  0  0  0  0  0
  -26.2080  -27.9940   14.2180 C   0  0  0  0  0  3  0  0  0  0  0  0
  -24.9960  -28.0800   14.9310 C   0  0  0  0  0  3  0  0  0  0  0  0
  -23.7710  -28.3130   17.1700 C   0  0  0  0  0  2  0  0  0  0  0  0
  -25.1470  -27.5830   19.1790 N   0  0  0  0  0  0  0  0  0  0  0  0
  -24.3420  -26.5070   20.9990 O   0  0  0  0  0  0  0  0  0  0  0  0
  -23.4630  -26.0050   18.1110 C   0  0  0  0  0  0  0  0  0  0  0  0
  -22.3510  -25.8410   17.3790 N   0  0  0  0  0  0  0  0  0  0  0  0
  -24.1840  -25.0680   18.4600 O   0  0  0  0  0  0  0  0  0  0  0  0
  -21.8090  -26.6670   17.1580 H   0  0  0  0  0  0  0  0  0  0  0  0
  -20.1280  -24.3510   14.9450 C   0  0  0  0  0  0  0  0  0  0  0  0
  -21.8250  -24.5710   16.8830 C   0  0  0  0  0  3  0  0  0  0  0  0
  -22.8320  -23.8780   15.9380 C   0  0  0  0  0  2  0  0  0  0  0  0
  -22.6090  -24.2090   14.4580 C   0  0  0  0  0  2  0  0  0  0  0  0
  -21.1990  -23.7900   14.0270 C   0  0  0  0  0  2  0  0  0  0  0  0
  -20.4250  -24.7340   16.2800 C   0  0  0  0  0  0  0  0  0  0  0  0
  -19.4030  -25.2830   17.0840 C   0  0  0  0  0  3  0  0  0  0  0  0
  -18.1040  -25.4550   16.5730 C   0  0  0  0  0  3  0  0  0  0  0  0
  -17.8080  -25.0650   15.2550 C   0  0  0  0  0  3  0  0  0  0  0  0
  -18.8160  -24.5050   14.4480 C   0  0  0  0  0  3  0  0  0  0  0  0
  -26.6490  -27.1150   21.1950 C   0  0  0  0  0  3  0  0  0  0  0  0
  -27.2280  -25.6950   21.5610 C   0  0  1  0  0  0  0  0  0  0  0  0
  -26.2110  -24.7760   22.2770 C   0  0  0  0  0  1  0  0  0  0  0  0
  -27.7150  -24.9690   20.2860 C   0  0  0  0  0  1  0  0  0  0  0  0
  -28.4640  -25.8520   22.4810 C   0  0  0  0  0  1  0  0  0  0  0  0
  -26.4320  -27.9120   22.4090 N   0  0  0  0  0  0  0  0  0  0  0  0
  -26.8810  -29.1610   22.5890 C   0  0  0  0  0  0  0  0  0  0  0  0
  -27.5950  -29.7430   21.7660 O   0  0  0  0  0  0  0  0  0  0  0  0
  -25.8060  -27.5230   23.1000 H   0  0  0  0  0  0  0  0  0  0  0  0
  -25.3690  -30.9130   23.5770 C   0  0  0  0  0  1  0  0  0  0  0  0
  -26.4690  -29.8840   23.8870 C   0  0  0  0  0  3  0  0  0  0  0  0
  -28.5650  -29.6110   25.1330 C   0  0  0  0  0  1  0  0  0  0  0  0
  -27.5970  -30.5500   24.5710 N   0  0  0  0  0  0  0  0  0  0  0  0
  -27.2670  -31.1500   25.3220 H   0  0  0  0  0  0  0  0  0  0  0  0
  1 55  1  0
  2  4  2  0
  3  2  1  0
  3  1  1  0
  5  3  1  0
  6  8  1  0
  6  2  1  0
  7 11  1  0
  7  9  2  0
  8  7  1  0
 10  8  1  0
 11 13  1  0
 12 16  1  0
 13 12  1  0
 13 15  1  0
 14 12  2  0
 16 25  1  0
 17 25  1  0
 18 23  1  0
 19 20  1  0
 19 18  1  0
 21 20  1  0
 21 30  1  0
 21 22  1  0
 23 17  1  0
 23 22  1  0
 24 17  2  0
 25 26  1  0
 27 52  1  0
 27 28  2  0
 28 47  1  0
 29 32  1  0
 29 28  1  0
 30 31  1  0
 30 27  1  0
 31 29  2  0
 32 33  1  0
 33 34  2  0
 35 34  1  0
 36 35  2  0
 37 36  1  0
 37 32  2  0
 38 35  1  0
 38 39  1  0
 39 44  2  0
 39 40  1  0
 40 41  2  0
 41 42  1  0
 42 46  1  0
 43 42  2  0
 44 43  1  0
 45 44  1  0
 47 48  1  0
 48 50  1  0
 48 51  1  0
 49 47  2  0
 52 54  1  0
 52 53  1  0
 56 55  1  0
 57 56  1  0
 58 57  1  0
 59 58  1  0
 60 59  1  0
 61 60  1  0
 62 63  1  0
 62 64  2  0
 63 61  1  0
 65 63  1  0
 66 62  1  0
 66 67  1  0
 67 69  1  0
 68 79  2  0
 69 74  1  0
 70 80  1  0
 70 78  1  0
 71 73  1  0
 71 77  1  0
 72 78  1  0
 73 72  1  0
 74 73  2  0
 75 69  2  0
 75 76  1  0
 76 71  2  0
 77 70  1  0
 78 68  1  0
 80 82  2  0
 81 80  1  0
 83 81  1  0
 84 89  1  0
 85 81  1  0
 86 85  1  0
 87 86  1  0
 88 87  1  0
 88 84  1  0
 89 85  1  0
 89 90  2  0
 91 90  1  0
 92 91  2  0
 93 84  2  0
 93 92  1  0
 94 68  1  0
 94 95  1  0
 94 99  1  0
 95 96  1  1
 95 98  1  0
 97 95  1  0
 99100  1  0
 99102  1  0
100104  1  0
101100  2  0
104103  1  0
104106  1  0
106105  1  0
106107  1  0
M  ISO  4  17 100  25 100  66 101  67 101
M  END
>  <TORSDO>  (87) 
F 31

>  <SCORE>  (87) 
6.976

>  <name>  (87) 
91

>  <ligand_id>  (87) 
91

>  <original_smiles>  (87) 
[H]c1c([H])c([H])c2c(c1[H])C([H])([H])C([H])([H])C([H])([H])C2([H])N([H])C(=O)C1([H])N(C(=O)C([H])(N([H])C(=O)C([H])(N([H])C([H])([H])[H])C([H])([H])[H])C(C([H])([H])[H])(C([H])([H])[H])C([H])([H])[H])C([H])([H])c2c([H])c(OC([H])([H])C(=O)N([H])C([H])([H])C([H])([H])C([H])([H])C([H])([H])C([H])([H])C([H])([H])C([H])([H])C([H])([H])N([H])C(=O)C([H])([H])N([H])C(=O)C([H])([H])N([H])C(=O)C([H])([H])N([H])C(=O)N3C([H])([H])C([H])([H])C([H])([H])C([H])(n4nc(-c5c([H])c([H])c(Oc6c([H])c([H])c(F)c([H])c6F)c([H])c5[H])c(C(=O)N([H])[H])c4N([H])[H])C3([H])[H])c([H])c([H])c2C1([H])[H]

>  <smiles>  (87) 
[H]c1c([H])c([H])c2c(c1[H])C([H])([H])C([H])([H])C([H])([H])C2([H])N([H])C(=O)C1([H])N(C(=O)C([H])(N([H])C(=O)C([H])(N([H])C([H])([H])[H])C([H])([H])[H])C(C([H])([H])[H])(C([H])([H])[H])C([H])([H])[H])C([H])([H])c2c([H])c(OC([H])([H])C(=O)N([H])C([H])([H])C([H])([H])C([H])([H])C([H])([H])C([H])([H])C([H])([H])C([H])([H])C([H])([H])N([H])C(=O)C([H])([H])N([H])C(=O)C([H])([H])N([H])C(=O)C([H])([H])N([H])C(=O)N3C([H])([H])C([H])([H])C([H])([H])C([H])(n4nc(-c5c([H])c([H])c(Oc6c([H])c([H])c(F)c([H])c6F)c([H])c5[H])c(C(=O)N([H])[H])c4N([H])[H])C3([H])[H])c([H])c([H])c2C1([H])[H]

$$$$
92:0:0
     RDKit          3D

103110  0  0  1  0  0  0  0  0999 V2000
  -31.3830  -25.0580   17.8610 C   0  0  0  0  0  0  0  0  0  0  0  0
  -31.8330  -26.2280   17.4010 N   0  0  0  0  0  0  0  0  0  0  0  0
  -30.3030  -24.9580   18.4470 O   0  0  0  0  0  0  0  0  0  0  0  0
  -32.7400  -26.2560   16.9570 H   0  0  0  0  0  0  0  0  0  0  0  0
  -31.1780  -27.5110   17.6480 C   0  0  0  0  0  2  0  0  0  0  0  0
  -31.7560  -28.1570   18.9100 C   0  0  0  0  0  0  0  0  0  0  0  0
  -30.9070  -28.4050   19.9130 N   0  0  0  0  0  0  0  0  0  0  0  0
  -32.9550  -28.4360   18.9620 O   0  0  0  0  0  0  0  0  0  0  0  0
  -29.9610  -28.0470   19.8160 H   0  0  0  0  0  0  0  0  0  0  0  0
  -31.2370  -29.0690   21.1680 C   0  0  0  0  0  2  0  0  0  0  0  0
  -31.5320  -28.0730   22.3040 C   0  0  0  0  0  2  0  0  0  0  0  0
  -30.3200  -27.2370   22.7630 C   0  0  0  0  0  2  0  0  0  0  0  0
  -30.0560  -25.9610   21.9330 C   0  0  0  0  0  2  0  0  0  0  0  0
  -28.6230  -25.8360   21.3840 C   0  0  0  0  0  2  0  0  0  0  0  0
  -28.4460  -26.7040   20.2680 O   0  0  0  0  0  0  0  0  0  0  0  0
  -24.5480  -31.8520   23.1930 C   0  0  0  0  0  0  0  0  0  0  0  0
  -27.2610  -27.3880   20.2690 C   0  0  0  0  0  0  0  0  0  0  0  0
  -23.3670  -30.4060   21.5670 C   0  0  0  0  0  3  0  0  0  0  0  0
  -24.8480  -28.8320   20.2090 C   0  0  0  0  0  0  0  0  0  0  0  0
  -25.8850  -30.7870   21.3850 C   0  0  0  0  0  2  0  0  0  0  0  0
  -25.9870  -29.3970   20.7960 C   0  0  0  0  0  0  0  0  0  0  0  0
  -27.1950  -28.6770   20.8300 C   0  0  0  0  0  3  0  0  0  0  0  0
  -26.1140  -26.8210   19.6790 C   0  0  0  0  0  3  0  0  0  0  0  0
  -24.9000  -27.5380   19.6520 C   0  0  0  0  0  3  0  0  0  0  0  0
  -23.5980  -29.6840   20.2090 C   0  0  0  0  0  2  0  0  0  0  0  0
  -24.6180  -31.0290   22.1090 N   0  0  0  0  0  0  0  0  0  0  0  0
  -23.4600  -32.1330   23.7150 O   0  0  0  0  0  0  0  0  0  0  0  0
  -22.7080  -29.4080   22.5430 C   0  0  0  0  0  0  0  0  0  0  0  0
  -21.3830  -29.2300   22.4110 N   0  0  0  0  0  0  0  0  0  0  0  0
  -23.3860  -28.7910   23.3700 O   0  0  0  0  0  0  0  0  0  0  0  0
  -20.8980  -29.7790   21.7160 H   0  0  0  0  0  0  0  0  0  0  0  0
  -17.9960  -28.0800   22.9070 C   0  0  0  0  0  0  0  0  0  0  0  0
  -20.5550  -28.3090   23.1870 C   0  0  0  0  0  3  0  0  0  0  0  0
  -20.6390  -26.8690   22.6270 C   0  0  0  0  0  2  0  0  0  0  0  0
  -19.5360  -26.5480   21.6120 C   0  0  0  0  0  2  0  0  0  0  0  0
  -18.1560  -26.7200   22.2500 C   0  0  0  0  0  2  0  0  0  0  0  0
  -19.1220  -28.8330   23.3320 C   0  0  0  0  0  0  0  0  0  0  0  0
  -18.9180  -30.1090   23.9000 C   0  0  0  0  0  3  0  0  0  0  0  0
  -17.6190  -30.6300   24.0530 C   0  0  0  0  0  3  0  0  0  0  0  0
  -16.5070  -29.8720   23.6480 C   0  0  0  0  0  3  0  0  0  0  0  0
  -16.6960  -28.6000   23.0780 C   0  0  0  0  0  3  0  0  0  0  0  0
  -25.8250  -32.4990   23.8140 C   0  0  0  0  0  3  0  0  0  0  0  0
  -25.4910  -33.8880   24.1610 N   0  0  0  0  0  0  0  0  0  0  0  0
  -25.7880  -34.9530   23.4040 C   0  0  0  0  0  0  0  0  0  0  0  0
  -26.4480  -34.8720   22.3640 O   0  0  0  0  0  0  0  0  0  0  0  0
  -24.8970  -34.0210   24.9670 H   0  0  0  0  0  0  0  0  0  0  0  0
  -24.0050  -36.7030   23.0970 C   0  0  0  0  0  1  0  0  0  0  0  0
  -25.2760  -36.3270   23.8770 C   0  0  0  0  0  3  0  0  0  0  0  0
  -27.4100  -37.2580   24.6590 C   0  0  0  0  0  1  0  0  0  0  0  0
  -26.2780  -37.4080   23.7490 N   0  0  0  0  0  0  0  0  0  0  0  0
  -25.8490  -38.3140   23.9260 H   0  0  0  0  0  0  0  0  0  0  0  0
  -26.3660  -31.7140   25.0720 C   0  0  1  0  0  0  0  0  0  0  0  0
  -25.2830  -31.4090   26.1330 C   0  0  0  0  0  1  0  0  0  0  0  0
  -26.9920  -30.3640   24.6440 C   0  0  0  0  0  1  0  0  0  0  0  0
  -27.4850  -32.5260   25.7630 C   0  0  0  0  0  1  0  0  0  0  0  0
  -32.2680  -23.8240   17.6470 C   0  0  0  0  0  2  0  0  0  0  0  0
  -31.1630  -21.8730   18.7430 C   0  0  0  0  0  0  0  0  0  0  0  0
  -32.0740  -22.8540   18.7240 N   0  0  0  0  0  0  0  0  0  0  0  0
  -30.4620  -21.5950   17.7660 O   0  0  0  0  0  0  0  0  0  0  0  0
  -32.5900  -23.0280   19.5750 H   0  0  0  0  0  0  0  0  0  0  0  0
  -31.0250  -21.0900   20.0560 C   0  0  0  0  0  2  0  0  0  0  0  0
  -30.8190  -19.7120   19.7720 O   0  0  0  0  0  0  0  0  0  0  0  0
  -30.8340  -18.9140   20.9460 C   0  0  0  0  0  2  0  0  0  0  0  0
  -30.5370  -17.4630   20.5540 C   0  0  0  0  0  2  0  0  0  0  0  0
  -30.6600  -16.4850   21.7390 C   0  0  0  0  0  2  0  0  0  0  0  0
  -30.7210  -14.3080   20.5010 C   0  0  0  0  0  0  0  0  0  0  0  0
  -30.3430  -12.2530   19.1940 C   0  0  0  0  0  2  0  0  0  0  0  0
  -29.3980  -12.5320   18.0090 C   0  0  0  0  0  2  0  0  0  0  0  0
  -27.9230  -12.4090   18.4420 C   0  0  0  0  0  2  0  0  0  0  0  0
  -27.6130  -13.2070   19.7380 C   0  0  0  0  0  3  0  0  0  0  0  0
  -28.6610  -12.8930   20.8280 C   0  0  0  0  0  2  0  0  0  0  0  0
  -30.0000  -13.1790   20.2810 N   0  0  0  0  0  0  0  0  0  0  0  0
  -31.7680  -14.5750   19.9020 O   0  0  0  0  0  0  0  0  0  0  0  0
  -30.1920  -15.1420   21.4030 N   0  0  0  0  0  0  0  0  0  0  0  0
  -29.3630  -14.8110   21.8770 H   0  0  0  0  0  0  0  0  0  0  0  0
  -25.2110  -13.8430   20.4200 C   0  0  0  0  0  0  0  0  0  0  0  0
  -24.1360  -13.0850   20.7970 C   0  0  0  0  0  0  0  0  0  0  0  0
  -24.5860  -11.7280   20.7860 C   0  0  0  0  0  0  0  0  0  0  0  0
  -26.2520  -12.9520   20.2080 N   0  0  0  0  0  0  0  0  0  0  0  0
  -25.8770  -11.6750   20.4820 N   0  0  0  0  0  0  0  0  0  0  0  0
  -23.8530  -10.4740   20.9920 C   0  0  0  0  0  0  0  0  0  0  0  0
  -24.2820   -9.5120   21.9320 C   0  0  0  0  0  3  0  0  0  0  0  0
  -23.5500   -8.3210   22.1230 C   0  0  0  0  0  3  0  0  0  0  0  0
  -22.3730   -8.0830   21.3740 C   0  0  0  0  0  0  0  0  0  0  0  0
  -21.9630   -9.0330   20.4230 C   0  0  0  0  0  3  0  0  0  0  0  0
  -22.6960  -10.2160   20.2290 C   0  0  0  0  0  3  0  0  0  0  0  0
  -21.6110   -6.9440   21.4750 O   0  0  0  0  0  0  0  0  0  0  0  0
  -21.5730   -6.2040   22.6280 C   0  0  0  0  0  0  0  0  0  0  0  0
  -21.1730   -6.7650   23.8610 C   0  0  0  0  0  3  0  0  0  0  0  0
  -21.0820   -5.9510   25.0080 C   0  0  0  0  0  3  0  0  0  0  0  0
  -21.3790   -4.5770   24.9230 C   0  0  0  0  0  0  0  0  0  0  0  0
  -21.7700   -4.0160   23.6950 C   0  0  0  0  0  3  0  0  0  0  0  0
  -21.8640   -4.8270   22.5510 C   0  0  0  0  0  0  0  0  0  0  0  0
  -22.2220   -4.2760   21.3660 F   0  0  0  0  0  0  0  0  0  0  0  0
  -21.2830   -3.7940   26.0230 F   0  0  0  0  0  0  0  0  0  0  0  0
  -22.7400  -13.5750   21.0610 C   0  0  0  0  0  0  0  0  0  0  0  0
  -22.0040  -12.8950   21.9330 N   0  0  0  0  0  0  0  0  0  0  0  0
  -22.3100  -14.5960   20.5260 O   0  0  0  0  0  0  0  0  0  0  0  0
  -22.3610  -12.0680   22.3880 H   0  0  0  0  0  0  0  0  0  0  0  0
  -21.0660  -13.2060   22.1480 H   0  0  0  0  0  0  0  0  0  0  0  0
  -25.3900  -15.2110   20.2250 N   0  0  0  0  0  0  0  0  0  0  0  0
  -24.6350  -15.8810   20.3210 H   0  0  0  0  0  0  0  0  0  0  0  0
  -26.2550  -15.6300   19.9060 H   0  0  0  0  0  0  0  0  0  0  0  0
  1  3  2  0
  2  5  1  0
  2  1  1  0
  4  2  1  0
  5  6  1  0
  6  8  2  0
  6  7  1  0
  7 10  1  0
  9  7  1  0
 10 11  1  0
 11 12  1  0
 13 12  1  0
 14 13  1  0
 15 17  1  0
 15 14  1  0
 16 27  2  0
 17 22  1  0
 18 26  1  0
 18 28  1  0
 19 21  1  0
 20 26  1  0
 21 22  2  0
 21 20  1  0
 23 17  2  0
 24 23  1  0
 24 19  2  0
 25 19  1  0
 25 18  1  0
 26 16  1  0
 28 30  2  0
 29 28  1  0
 31 29  1  0
 32 41  2  0
 32 37  1  0
 33 29  1  0
 33 37  1  0
 34 33  1  0
 35 36  1  0
 35 34  1  0
 36 32  1  0
 37 38  2  0
 38 39  1  0
 40 39  2  0
 41 40  1  0
 42 16  1  0
 42 43  1  0
 42 52  1  0
 43 46  1  0
 44 48  1  0
 44 43  1  0
 45 44  2  0
 48 47  1  0
 50 48  1  0
 50 51  1  0
 50 49  1  0
 52 55  1  1
 52 53  1  0
 54 52  1  0
 56  1  1  0
 56 58  1  0
 57 61  1  0
 58 57  1  0
 58 60  1  0
 59 57  2  0
 62 61  1  0
 62 63  1  0
 64 63  1  0
 64 65  1  0
 66 74  1  0
 67 72  1  0
 68 69  1  0
 68 67  1  0
 70 69  1  0
 70 79  1  0
 70 71  1  0
 72 66  1  0
 72 71  1  0
 73 66  2  0
 74 65  1  0
 74 75  1  0
 76 77  2  0
 77 96  1  0
 78 77  1  0
 78 81  1  0
 79 76  1  0
 79 80  1  0
 80 78  2  0
 81 82  1  0
 82 83  2  0
 84 87  1  0
 84 83  1  0
 85 84  2  0
 86 85  1  0
 86 81  2  0
 87 88  1  0
 88 89  1  0
 89 90  2  0
 91 90  1  0
 91 95  1  0
 92 91  2  0
 93 88  2  0
 93 92  1  0
 94 93  1  0
 96 97  1  0
 97100  1  0
 97 99  1  0
 98 96  2  0
101102  1  0
101 76  1  0
103101  1  0
M  ISO  4  14 101  15 101  66 100  74 100
M  END
>  <TORSDO>  (88) 
F 30

>  <SCORE>  (88) 
-11.107

>  <name>  (88) 
92

>  <ligand_id>  (88) 
92

>  <original_smiles>  (88) 
[H]c1c([H])c([H])c2c(c1[H])C([H])([H])C([H])([H])C([H])([H])C2([H])N([H])C(=O)C1([H])N(C(=O)C([H])(N([H])C(=O)C([H])(N([H])C([H])([H])[H])C([H])([H])[H])C(C([H])([H])[H])(C([H])([H])[H])C([H])([H])[H])C([H])([H])c2c([H])c(OC([H])([H])C([H])([H])C([H])([H])C([H])([H])C([H])([H])N([H])C(=O)C([H])([H])N([H])C(=O)C([H])([H])N([H])C(=O)C([H])([H])OC([H])([H])C([H])([H])C([H])([H])N([H])C(=O)N3C([H])([H])C([H])([H])C([H])([H])C([H])(n4nc(-c5c([H])c([H])c(Oc6c([H])c([H])c(F)c([H])c6F)c([H])c5[H])c(C(=O)N([H])[H])c4N([H])[H])C3([H])[H])c([H])c([H])c2C1([H])[H]

>  <smiles>  (88) 
[H]c1c([H])c([H])c2c(c1[H])C([H])([H])C([H])([H])C([H])([H])C2([H])N([H])C(=O)C1([H])N(C(=O)C([H])(N([H])C(=O)C([H])(N([H])C([H])([H])[H])C([H])([H])[H])C(C([H])([H])[H])(C([H])([H])[H])C([H])([H])[H])C([H])([H])c2c([H])c(OC([H])([H])C([H])([H])C([H])([H])C([H])([H])C([H])([H])N([H])C(=O)C([H])([H])N([H])C(=O)C([H])([H])N([H])C(=O)C([H])([H])OC([H])([H])C([H])([H])C([H])([H])N([H])C(=O)N3C([H])([H])C([H])([H])C([H])([H])C([H])(n4nc(-c5c([H])c([H])c(Oc6c([H])c([H])c(F)c([H])c6F)c([H])c5[H])c(C(=O)N([H])[H])c4N([H])[H])C3([H])[H])c([H])c([H])c2C1([H])[H]

$$$$
93:0:0
     RDKit          3D

108115  0  0  1  0  0  0  0  0999 V2000
  -37.8020  -24.8340   23.7460 C   0  0  0  0  0  0  0  0  0  0  0  0
  -38.2530  -25.6380   24.7190 N   0  0  0  0  0  0  0  0  0  0  0  0
  -37.3570  -25.2670   22.6810 O   0  0  0  0  0  0  0  0  0  0  0  0
  -38.6440  -25.2120   25.5500 H   0  0  0  0  0  0  0  0  0  0  0  0
  -38.0980  -27.0900   24.7210 C   0  0  0  0  0  2  0  0  0  0  0  0
  -35.7480  -27.8920   24.2620 C   0  0  0  0  0  3  0  0  0  0  0  0
  -36.6800  -27.4400   25.1210 C   0  0  0  0  0  3  0  0  0  0  0  0
  -34.3890  -28.1280   24.7070 C   0  0  0  0  0  0  0  0  0  0  0  0
  -33.5590  -28.2880   23.6710 N   0  0  0  0  0  0  0  0  0  0  0  0
  -34.0070  -28.1340   25.8790 O   0  0  0  0  0  0  0  0  0  0  0  0
  -33.9680  -28.2860   22.7460 H   0  0  0  0  0  0  0  0  0  0  0  0
  -32.1030  -28.3310   23.7480 C   0  0  0  0  0  2  0  0  0  0  0  0
  -31.4910  -26.9890   23.3120 C   0  0  0  0  0  2  0  0  0  0  0  0
  -31.7790  -26.6280   21.8350 C   0  0  0  0  0  2  0  0  0  0  0  0
  -30.5600  -26.0910   21.0610 C   0  0  0  0  0  2  0  0  0  0  0  0
  -29.5050  -27.1830   20.8410 C   0  0  0  0  0  2  0  0  0  0  0  0
  -28.4010  -26.7170   20.0710 O   0  0  0  0  0  0  0  0  0  0  0  0
  -24.6050  -31.8720   23.2120 C   0  0  0  0  0  0  0  0  0  0  0  0
  -27.2580  -27.4900   20.1000 C   0  0  0  0  0  0  0  0  0  0  0  0
  -23.3910  -30.4910   21.5500 C   0  0  0  0  0  3  0  0  0  0  0  0
  -24.8400  -28.9610   20.1140 C   0  0  0  0  0  0  0  0  0  0  0  0
  -25.9080  -30.8590   21.3520 C   0  0  0  0  0  2  0  0  0  0  0  0
  -25.9890  -29.4960   20.7040 C   0  0  0  0  0  0  0  0  0  0  0  0
  -27.1940  -28.7740   20.6930 C   0  0  0  0  0  3  0  0  0  0  0  0
  -26.0920  -26.9620   19.5070 C   0  0  0  0  0  3  0  0  0  0  0  0
  -24.8830  -27.6890   19.5110 C   0  0  0  0  0  3  0  0  0  0  0  0
  -23.5960  -29.8170   20.1650 C   0  0  0  0  0  2  0  0  0  0  0  0
  -24.6520  -31.0880   22.0980 N   0  0  0  0  0  0  0  0  0  0  0  0
  -23.5270  -32.1430   23.7570 O   0  0  0  0  0  0  0  0  0  0  0  0
  -22.7360  -29.4660   22.5020 C   0  0  0  0  0  0  0  0  0  0  0  0
  -21.4100  -29.3010   22.3770 N   0  0  0  0  0  0  0  0  0  0  0  0
  -23.4170  -28.8200   23.3030 O   0  0  0  0  0  0  0  0  0  0  0  0
  -20.9230  -29.8740   21.7020 H   0  0  0  0  0  0  0  0  0  0  0  0
  -18.0260  -28.1350   22.8500 C   0  0  0  0  0  0  0  0  0  0  0  0
  -20.5840  -28.3630   23.1350 C   0  0  0  0  0  3  0  0  0  0  0  0
  -20.6750  -26.9370   22.5420 C   0  0  0  0  0  2  0  0  0  0  0  0
  -19.5740  -26.6370   21.5200 C   0  0  0  0  0  2  0  0  0  0  0  0
  -18.1910  -26.7900   22.1620 C   0  0  0  0  0  2  0  0  0  0  0  0
  -19.1510  -28.8800   23.2920 C   0  0  0  0  0  0  0  0  0  0  0  0
  -18.9440  -30.1420   23.8920 C   0  0  0  0  0  3  0  0  0  0  0  0
  -17.6450  -30.6570   24.0560 C   0  0  0  0  0  3  0  0  0  0  0  0
  -16.5340  -29.9070   23.6310 C   0  0  0  0  0  3  0  0  0  0  0  0
  -16.7260  -28.6490   23.0340 C   0  0  0  0  0  3  0  0  0  0  0  0
  -25.8980  -32.4840   23.8400 C   0  0  0  0  0  3  0  0  0  0  0  0
  -26.4450  -31.6600   25.0700 C   0  0  1  0  0  0  0  0  0  0  0  0
  -25.3740  -31.3690   26.1480 C   0  0  0  0  0  1  0  0  0  0  0  0
  -27.0280  -30.3060   24.6010 C   0  0  0  0  0  1  0  0  0  0  0  0
  -27.6020  -32.4330   25.7460 C   0  0  0  0  0  1  0  0  0  0  0  0
  -25.5870  -33.8640   24.2340 N   0  0  0  0  0  0  0  0  0  0  0  0
  -25.9020  -34.9490   23.5140 C   0  0  0  0  0  0  0  0  0  0  0  0
  -26.5580  -34.8930   22.4700 O   0  0  0  0  0  0  0  0  0  0  0  0
  -25.0050  -33.9810   25.0510 H   0  0  0  0  0  0  0  0  0  0  0  0
  -24.1480  -36.7320   23.2640 C   0  0  0  0  0  1  0  0  0  0  0  0
  -25.4100  -36.3120   24.0350 C   0  0  0  0  0  3  0  0  0  0  0  0
  -27.5580  -37.1820   24.8470 C   0  0  0  0  0  1  0  0  0  0  0  0
  -26.4290  -37.3800   23.9410 N   0  0  0  0  0  0  0  0  0  0  0  0
  -26.0180  -38.2880   24.1410 H   0  0  0  0  0  0  0  0  0  0  0  0
  -37.7940  -23.3310   24.0120 C   0  0  0  0  0  2  0  0  0  0  0  0
  -36.6900  -22.7110   23.2530 N   0  0  0  0  0  4  0  0  0  0  0  0
  -36.9190  -22.7630   22.2730 H   0  0  0  0  0  0  0  0  0  0  0  0
  -35.8870  -23.3020   23.3900 H   0  0  0  0  0  0  0  0  0  0  0  0
  -36.3480  -21.3280   23.6390 C   0  0  0  0  0  2  0  0  0  0  0  0
  -35.1060  -20.8130   22.8820 C   0  0  0  0  0  2  0  0  0  0  0  0
  -34.6660  -19.4090   23.3350 C   0  0  0  0  0  2  0  0  0  0  0  0
  -33.4290  -18.8890   22.5760 C   0  0  0  0  0  2  0  0  0  0  0  0
  -33.0310  -17.5440   23.0400 N   0  0  0  0  0  4  0  0  0  0  0  0
  -32.7590  -17.5960   24.0090 H   0  0  0  0  0  0  0  0  0  0  0  0
  -33.8330  -16.9380   22.9770 H   0  0  0  0  0  0  0  0  0  0  0  0
  -31.9320  -16.9250   22.2690 C   0  0  0  0  0  2  0  0  0  0  0  0
  -31.6790  -15.4820   22.7490 C   0  0  0  0  0  2  0  0  0  0  0  0
  -30.8330  -14.2840   20.7480 C   0  0  0  0  0  0  0  0  0  0  0  0
  -30.4050  -12.2900   19.3700 C   0  0  0  0  0  2  0  0  0  0  0  0
  -29.4680  -12.5360   18.1780 C   0  0  0  0  0  2  0  0  0  0  0  0
  -28.0000  -12.3770   18.6060 C   0  0  0  0  0  2  0  0  0  0  0  0
  -27.6630  -13.2040   19.8740 C   0  0  0  0  0  3  0  0  0  0  0  0
  -28.7020  -12.9630   20.9910 C   0  0  0  0  0  2  0  0  0  0  0  0
  -30.0510  -13.2190   20.4520 N   0  0  0  0  0  0  0  0  0  0  0  0
  -31.7730  -14.6620   20.0430 O   0  0  0  0  0  0  0  0  0  0  0  0
  -30.6590  -14.7630   21.9850 N   0  0  0  0  0  0  0  0  0  0  0  0
  -29.8820  -14.3800   22.5030 H   0  0  0  0  0  0  0  0  0  0  0  0
  -25.2590  -13.8160   20.5670 C   0  0  0  0  0  0  0  0  0  0  0  0
  -24.1830  -13.0440   20.9170 C   0  0  0  0  0  0  0  0  0  0  0  0
  -24.6380  -11.6910   20.8730 C   0  0  0  0  0  0  0  0  0  0  0  0
  -26.3020  -12.9330   20.3360 N   0  0  0  0  0  0  0  0  0  0  0  0
  -25.9310  -11.6490   20.5740 N   0  0  0  0  0  0  0  0  0  0  0  0
  -23.9050  -10.4300   21.0400 C   0  0  0  0  0  0  0  0  0  0  0  0
  -24.3600   -9.4220   21.9180 C   0  0  0  0  0  3  0  0  0  0  0  0
  -23.6280   -8.2250   22.0760 C   0  0  0  0  0  3  0  0  0  0  0  0
  -22.4270   -8.0280   21.3550 C   0  0  0  0  0  0  0  0  0  0  0  0
  -21.9900   -9.0250   20.4650 C   0  0  0  0  0  3  0  0  0  0  0  0
  -22.7220  -10.2130   20.3050 C   0  0  0  0  0  3  0  0  0  0  0  0
  -21.6640   -6.8880   21.4240 O   0  0  0  0  0  0  0  0  0  0  0  0
  -21.6850   -6.0730   22.5280 C   0  0  0  0  0  0  0  0  0  0  0  0
  -21.4010   -6.5640   23.8210 C   0  0  0  0  0  3  0  0  0  0  0  0
  -21.3660   -5.6790   24.9180 C   0  0  0  0  0  3  0  0  0  0  0  0
  -21.6050   -4.3060   24.7230 C   0  0  0  0  0  0  0  0  0  0  0  0
  -21.8810   -3.8150   23.4350 C   0  0  0  0  0  3  0  0  0  0  0  0
  -21.9190   -4.6960   22.3410 C   0  0  0  0  0  0  0  0  0  0  0  0
  -22.1660   -4.2150   21.0980 F   0  0  0  0  0  0  0  0  0  0  0  0
  -21.5630   -3.4540   25.7750 F   0  0  0  0  0  0  0  0  0  0  0  0
  -22.7860  -13.5240   21.1840 C   0  0  0  0  0  0  0  0  0  0  0  0
  -22.0500  -12.8240   22.0390 N   0  0  0  0  0  0  0  0  0  0  0  0
  -22.3550  -14.5560   20.6700 O   0  0  0  0  0  0  0  0  0  0  0  0
  -22.4100  -11.9890   22.4770 H   0  0  0  0  0  0  0  0  0  0  0  0
  -21.1110  -13.1270   22.2590 H   0  0  0  0  0  0  0  0  0  0  0  0
  -25.4330  -15.1880   20.4090 N   0  0  0  0  0  0  0  0  0  0  0  0
  -24.6730  -15.8500   20.5230 H   0  0  0  0  0  0  0  0  0  0  0  0
  -26.2970  -15.6250   20.1110 H   0  0  0  0  0  0  0  0  0  0  0  0
  1 58  1  0
  1  2  1  0
  2  5  1  0
  2  4  1  0
  3  1  2  0
  5  7  1  0
  6  8  1  0
  6  7  2  0
  8 10  2  0
  9 12  1  0
  9  8  1  0
 11  9  1  0
 13 12  1  0
 14 13  1  0
 15 14  1  0
 16 15  1  0
 17 19  1  0
 17 16  1  0
 18 29  2  0
 19 24  1  0
 20 28  1  0
 20 30  1  0
 21 27  1  0
 21 23  1  0
 22 28  1  0
 23 22  1  0
 24 23  2  0
 25 26  1  0
 25 19  2  0
 26 21  2  0
 27 20  1  0
 28 18  1  0
 30 32  2  0
 31 30  1  0
 33 31  1  0
 34 43  2  0
 34 39  1  0
 35 31  1  0
 35 39  1  0
 36 35  1  0
 37 38  1  0
 37 36  1  0
 38 34  1  0
 39 40  2  0
 40 41  1  0
 42 41  2  0
 43 42  1  0
 44 18  1  0
 44 49  1  0
 44 45  1  0
 45 48  1  1
 45 46  1  0
 47 45  1  0
 49 52  1  0
 50 54  1  0
 50 49  1  0
 51 50  2  0
 54 53  1  0
 56 54  1  0
 56 57  1  0
 56 55  1  0
 59 61  1  0
 59 62  1  0
 59 58  1  0
 60 59  1  0
 63 64  1  0
 63 62  1  0
 65 66  1  0
 65 64  1  0
 66 67  1  0
 68 66  1  0
 69 70  1  0
 69 66  1  0
 71 79  1  0
 72 77  1  0
 73 74  1  0
 73 72  1  0
 75 74  1  0
 75 84  1  0
 75 76  1  0
 77 71  1  0
 77 76  1  0
 78 71  2  0
 79 80  1  0
 79 70  1  0
 81 82  2  0
 82101  1  0
 83 82  1  0
 83 86  1  0
 84 81  1  0
 84 85  1  0
 85 83  2  0
 86 87  1  0
 87 88  2  0
 89 92  1  0
 89 88  1  0
 90 89  2  0
 91 90  1  0
 91 86  2  0
 92 93  1  0
 93 94  1  0
 94 95  2  0
 96 95  1  0
 96100  1  0
 97 96  2  0
 98 93  2  0
 98 97  1  0
 99 98  1  0
101102  1  0
102105  1  0
102104  1  0
103101  2  0
106107  1  0
106 81  1  0
108106  1  0
M  ISO  4  16 101  17 101  71 100  79 100
M  END
>  <TORSDO>  (89) 
F 33

>  <SCORE>  (89) 
6.891

>  <name>  (89) 
93

>  <ligand_id>  (89) 
93

>  <original_smiles>  (89) 
[H]C(C(=O)N([H])C([H])([H])C([H])([H])C([H])([H])C([H])([H])C([H])([H])Oc1c([H])c([H])c2c(c1[H])C([H])([H])N(C(=O)C([H])(N([H])C(=O)C([H])(N([H])C([H])([H])[H])C([H])([H])[H])C(C([H])([H])[H])(C([H])([H])[H])C([H])([H])[H])C([H])(C(=O)N([H])C1([H])c3c([H])c([H])c([H])c([H])c3C([H])([H])C([H])([H])C1([H])[H])C2([H])[H])=C([H])C([H])([H])N([H])C(=O)C([H])([H])[N+]([H])([H])C([H])([H])C([H])([H])C([H])([H])C([H])([H])[N+]([H])([H])C([H])([H])C([H])([H])N([H])C(=O)N1C([H])([H])C([H])([H])C([H])([H])C([H])(n2nc(-c3c([H])c([H])c(Oc4c([H])c([H])c(F)c([H])c4F)c([H])c3[H])c(C(=O)N([H])[H])c2N([H])[H])C1([H])[H]

>  <smiles>  (89) 
[H]C(C(=O)N([H])C([H])([H])C([H])([H])C([H])([H])C([H])([H])C([H])([H])Oc1c([H])c([H])c2c(c1[H])C([H])([H])N(C(=O)C([H])(N([H])C(=O)C([H])(N([H])C([H])([H])[H])C([H])([H])[H])C(C([H])([H])[H])(C([H])([H])[H])C([H])([H])[H])C([H])(C(=O)N([H])C1([H])c3c([H])c([H])c([H])c([H])c3C([H])([H])C([H])([H])C1([H])[H])C2([H])[H])=C([H])C([H])([H])N([H])C(=O)C([H])([H])[N+]([H])([H])C([H])([H])C([H])([H])C([H])([H])C([H])([H])[N+]([H])([H])C([H])([H])C([H])([H])N([H])C(=O)N1C([H])([H])C([H])([H])C([H])([H])C([H])(n2nc(-c3c([H])c([H])c(Oc4c([H])c([H])c(F)c([H])c4F)c([H])c3[H])c(C(=O)N([H])[H])c2N([H])[H])C1([H])[H]

$$$$
94:0:0
     RDKit          3D

102109  0  0  1  0  0  0  0  0999 V2000
  -24.5160  -24.4130   16.3110 C   0  0  0  0  0  0  0  0  0  0  0  0
  -25.1270  -24.9740   15.2610 N   0  0  0  0  0  0  0  0  0  0  0  0
  -24.4490  -24.9670   17.4100 O   0  0  0  0  0  0  0  0  0  0  0  0
  -25.1660  -24.4500   14.3970 H   0  0  0  0  0  0  0  0  0  0  0  0
  -25.9190  -26.2020   15.3220 C   0  0  0  0  0  2  0  0  0  0  0  0
  -27.2830  -25.9420   15.9790 C   0  0  0  0  0  0  0  0  0  0  0  0
  -27.7570  -26.8800   16.8050 N   0  0  0  0  0  0  0  0  0  0  0  0
  -27.8970  -24.8980   15.7440 O   0  0  0  0  0  0  0  0  0  0  0  0
  -27.2050  -27.7160   16.9390 H   0  0  0  0  0  0  0  0  0  0  0  0
  -28.9600  -26.7380   17.6230 C   0  0  0  0  0  2  0  0  0  0  0  0
  -28.6780  -25.9730   18.9360 C   0  0  0  0  0  2  0  0  0  0  0  0
  -28.3920  -26.8620   20.0160 O   0  0  0  0  0  0  0  0  0  0  0  0
  -24.5900  -31.9210   23.2180 C   0  0  0  0  0  0  0  0  0  0  0  0
  -27.1860  -27.5220   20.0500 C   0  0  0  0  0  0  0  0  0  0  0  0
  -23.3480  -30.5230   21.5970 C   0  0  0  0  0  3  0  0  0  0  0  0
  -24.7720  -28.9910   20.1380 C   0  0  0  0  0  0  0  0  0  0  0  0
  -25.8640  -30.8920   21.3420 C   0  0  0  0  0  2  0  0  0  0  0  0
  -25.9380  -29.5210   20.7050 C   0  0  0  0  0  0  0  0  0  0  0  0
  -27.1420  -28.7870   20.6700 C   0  0  0  0  0  3  0  0  0  0  0  0
  -25.9960  -26.9870   19.5040 C   0  0  0  0  0  3  0  0  0  0  0  0
  -24.7950  -27.7180   19.5410 C   0  0  0  0  0  3  0  0  0  0  0  0
  -23.5280  -29.8480   20.2100 C   0  0  0  0  0  2  0  0  0  0  0  0
  -24.6210  -31.1270   22.1120 N   0  0  0  0  0  0  0  0  0  0  0  0
  -23.5220  -32.1910   23.7830 O   0  0  0  0  0  0  0  0  0  0  0  0
  -22.7230  -29.4990   22.5690 C   0  0  0  0  0  0  0  0  0  0  0  0
  -21.4010  -29.2920   22.4500 N   0  0  0  0  0  0  0  0  0  0  0  0
  -23.4220  -28.8910   23.3840 O   0  0  0  0  0  0  0  0  0  0  0  0
  -20.8990  -29.8350   21.7620 H   0  0  0  0  0  0  0  0  0  0  0  0
  -18.0550  -28.0270   22.9430 C   0  0  0  0  0  0  0  0  0  0  0  0
  -20.6030  -28.3460   23.2300 C   0  0  0  0  0  3  0  0  0  0  0  0
  -20.7440  -26.9110   22.6750 C   0  0  0  0  0  2  0  0  0  0  0  0
  -19.6570  -26.5490   21.6580 C   0  0  0  0  0  2  0  0  0  0  0  0
  -18.2680  -26.6720   22.2900 C   0  0  0  0  0  2  0  0  0  0  0  0
  -19.1520  -28.8200   23.3700 C   0  0  0  0  0  0  0  0  0  0  0  0
  -18.9010  -30.0890   23.9370 C   0  0  0  0  0  3  0  0  0  0  0  0
  -17.5830  -30.5630   24.0840 C   0  0  0  0  0  3  0  0  0  0  0  0
  -16.5000  -29.7660   23.6750 C   0  0  0  0  0  3  0  0  0  0  0  0
  -16.7370  -28.5010   23.1090 C   0  0  0  0  0  3  0  0  0  0  0  0
  -25.8890  -32.5490   23.8120 C   0  0  0  0  0  3  0  0  0  0  0  0
  -25.5900  -33.9460   24.1470 N   0  0  0  0  0  0  0  0  0  0  0  0
  -25.9250  -34.9990   23.3870 C   0  0  0  0  0  0  0  0  0  0  0  0
  -26.5910  -34.8950   22.3540 O   0  0  0  0  0  0  0  0  0  0  0  0
  -24.9960  -34.1010   24.9480 H   0  0  0  0  0  0  0  0  0  0  0  0
  -24.2130  -36.8070   23.0290 C   0  0  0  0  0  1  0  0  0  0  0  0
  -25.4450  -36.3880   23.8490 C   0  0  0  0  0  3  0  0  0  0  0  0
  -27.5810  -37.2540   24.6970 C   0  0  0  0  0  1  0  0  0  0  0  0
  -26.4860  -37.4340   23.7470 N   0  0  0  0  0  0  0  0  0  0  0  0
  -26.0880  -38.3580   23.8910 H   0  0  0  0  0  0  0  0  0  0  0  0
  -26.4330  -31.7740   25.0750 C   0  0  1  0  0  0  0  0  0  0  0  0
  -25.3640  -31.5360   26.1670 C   0  0  0  0  0  1  0  0  0  0  0  0
  -27.0050  -30.3980   24.6630 C   0  0  0  0  0  1  0  0  0  0  0  0
  -27.5990  -32.5650   25.7130 C   0  0  0  0  0  1  0  0  0  0  0  0
  -23.8860  -23.0310   16.1100 C   0  0  0  0  0  2  0  0  0  0  0  0
  -25.4000  -21.5490   17.4090 C   0  0  0  0  0  0  0  0  0  0  0  0
  -24.2130  -22.1380   17.2220 N   0  0  0  0  0  0  0  0  0  0  0  0
  -26.3240  -21.6610   16.5990 O   0  0  0  0  0  0  0  0  0  0  0  0
  -23.5150  -22.0310   17.9440 H   0  0  0  0  0  0  0  0  0  0  0  0
  -25.5690  -20.7100   18.6830 C   0  0  0  0  0  2  0  0  0  0  0  0
  -26.9450  -20.3820   18.8700 O   0  0  0  0  0  0  0  0  0  0  0  0
  -27.1540  -19.4230   19.8930 C   0  0  0  0  0  2  0  0  0  0  0  0
  -28.6520  -19.0950   19.9400 C   0  0  0  0  0  2  0  0  0  0  0  0
  -28.9980  -17.9530   20.9100 C   0  0  0  0  0  2  0  0  0  0  0  0
  -30.5130  -17.6890   20.9750 C   0  0  0  0  0  2  0  0  0  0  0  0
  -30.9100  -16.5150   21.8900 C   0  0  0  0  0  2  0  0  0  0  0  0
  -30.8620  -14.4550   20.4810 C   0  0  0  0  0  0  0  0  0  0  0  0
  -30.4760  -12.4610   19.0820 C   0  0  0  0  0  2  0  0  0  0  0  0
  -29.5240  -12.7890   17.9170 C   0  0  0  0  0  2  0  0  0  0  0  0
  -28.0530  -12.6420   18.3520 C   0  0  0  0  0  2  0  0  0  0  0  0
  -27.7480  -13.3810   19.6820 C   0  0  0  0  0  3  0  0  0  0  0  0
  -28.8020  -13.0250   20.7540 C   0  0  0  0  0  2  0  0  0  0  0  0
  -30.1370  -13.3400   20.2110 N   0  0  0  0  0  0  0  0  0  0  0  0
  -31.9040  -14.7500   19.8880 O   0  0  0  0  0  0  0  0  0  0  0  0
  -30.3560  -15.2410   21.4400 N   0  0  0  0  0  0  0  0  0  0  0  0
  -29.5090  -14.9190   21.8860 H   0  0  0  0  0  0  0  0  0  0  0  0
  -25.3330  -13.9720   20.3520 C   0  0  0  0  0  0  0  0  0  0  0  0
  -24.2700  -13.1930   20.7230 C   0  0  0  0  0  0  0  0  0  0  0  0
  -24.7480  -11.8460   20.7190 C   0  0  0  0  0  0  0  0  0  0  0  0
  -26.3910  -13.1010   20.1480 N   0  0  0  0  0  0  0  0  0  0  0  0
  -26.0400  -11.8180   20.4240 N   0  0  0  0  0  0  0  0  0  0  0  0
  -24.0370  -10.5790   20.9240 C   0  0  0  0  0  0  0  0  0  0  0  0
  -24.4600   -9.6420   21.8920 C   0  0  0  0  0  3  0  0  0  0  0  0
  -23.7490   -8.4380   22.0820 C   0  0  0  0  0  3  0  0  0  0  0  0
  -22.6010   -8.1610   21.3030 C   0  0  0  0  0  0  0  0  0  0  0  0
  -22.1970   -9.0860   20.3250 C   0  0  0  0  0  3  0  0  0  0  0  0
  -22.9090  -10.2820   20.1330 C   0  0  0  0  0  3  0  0  0  0  0  0
  -21.8630   -7.0060   21.4000 O   0  0  0  0  0  0  0  0  0  0  0  0
  -21.7780   -6.3030   22.5750 C   0  0  0  0  0  0  0  0  0  0  0  0
  -21.2850   -6.8890   23.7610 C   0  0  0  0  0  3  0  0  0  0  0  0
  -21.1500   -6.1100   24.9280 C   0  0  0  0  0  3  0  0  0  0  0  0
  -21.4970   -4.7470   24.9100 C   0  0  0  0  0  0  0  0  0  0  0  0
  -21.9840   -4.1600   23.7280 C   0  0  0  0  0  3  0  0  0  0  0  0
  -22.1210   -4.9350   22.5630 C   0  0  0  0  0  0  0  0  0  0  0  0
  -22.5700   -4.3600   21.4220 F   0  0  0  0  0  0  0  0  0  0  0  0
  -21.3610   -3.9960   26.0280 F   0  0  0  0  0  0  0  0  0  0  0  0
  -22.8640  -13.6560   20.9770 C   0  0  0  0  0  0  0  0  0  0  0  0
  -22.1390  -12.9660   21.8490 N   0  0  0  0  0  0  0  0  0  0  0  0
  -22.4160  -14.6670   20.4350 O   0  0  0  0  0  0  0  0  0  0  0  0
  -22.5130  -12.1490   22.3090 H   0  0  0  0  0  0  0  0  0  0  0  0
  -21.1960  -13.2590   22.0620 H   0  0  0  0  0  0  0  0  0  0  0  0
  -25.4840  -15.3420   20.1540 N   0  0  0  0  0  0  0  0  0  0  0  0
  -24.7100  -15.9900   20.2510 H   0  0  0  0  0  0  0  0  0  0  0  0
  -26.3370  -15.7820   19.8350 H   0  0  0  0  0  0  0  0  0  0  0  0
  1  3  2  0
  2  5  1  0
  2  1  1  0
  4  2  1  0
  5  6  1  0
  6  7  1  0
  7  9  1  0
  7 10  1  0
  8  6  2  0
 10 11  1  0
 11 12  1  0
 12 14  1  0
 13 24  2  0
 14 19  1  0
 15 23  1  0
 15 25  1  0
 16 22  1  0
 16 18  1  0
 17 23  1  0
 18 17  1  0
 19 18  2  0
 20 21  1  0
 20 14  2  0
 21 16  2  0
 22 15  1  0
 23 13  1  0
 25 27  2  0
 26 25  1  0
 28 26  1  0
 29 38  2  0
 29 34  1  0
 30 26  1  0
 30 34  1  0
 31 30  1  0
 32 33  1  0
 32 31  1  0
 33 29  1  0
 34 35  2  0
 35 36  1  0
 37 36  2  0
 38 37  1  0
 39 13  1  0
 39 40  1  0
 39 49  1  0
 40 43  1  0
 41 45  1  0
 41 40  1  0
 42 41  2  0
 45 44  1  0
 47 45  1  0
 47 48  1  0
 47 46  1  0
 49 52  1  1
 49 50  1  0
 51 49  1  0
 53  1  1  0
 53 55  1  0
 54 58  1  0
 55 54  1  0
 55 57  1  0
 56 54  2  0
 58 59  1  0
 59 60  1  0
 60 61  1  0
 61 62  1  0
 62 63  1  0
 63 64  1  0
 65 73  1  0
 66 71  1  0
 67 68  1  0
 67 66  1  0
 69 68  1  0
 69 78  1  0
 69 70  1  0
 71 65  1  0
 71 70  1  0
 72 65  2  0
 73 74  1  0
 73 64  1  0
 75 76  2  0
 76 95  1  0
 77 76  1  0
 77 80  1  0
 78 75  1  0
 78 79  1  0
 79 77  2  0
 80 81  1  0
 81 82  2  0
 83 86  1  0
 83 82  1  0
 84 83  2  0
 85 84  1  0
 85 80  2  0
 86 87  1  0
 87 88  1  0
 88 89  2  0
 90 89  1  0
 90 94  1  0
 91 90  2  0
 92 87  2  0
 92 91  1  0
 93 92  1  0
 95 96  1  0
 96 99  1  0
 96 98  1  0
 97 95  2  0
100101  1  0
100 75  1  0
102100  1  0
M  ISO  4  11 101  12 101  65 100  73 100
M  END
>  <TORSDO>  (90) 
F 29

>  <SCORE>  (90) 
-10.413

>  <name>  (90) 
94

>  <ligand_id>  (90) 
94

>  <original_smiles>  (90) 
[H]c1c([H])c([H])c2c(c1[H])C([H])([H])C([H])([H])C([H])([H])C2([H])N([H])C(=O)C1([H])N(C(=O)C([H])(N([H])C(=O)C([H])(N([H])C([H])([H])[H])C([H])([H])[H])C(C([H])([H])[H])(C([H])([H])[H])C([H])([H])[H])C([H])([H])c2c([H])c(OC([H])([H])C([H])([H])N([H])C(=O)C([H])([H])N([H])C(=O)C([H])([H])N([H])C(=O)C([H])([H])OC([H])([H])C([H])([H])C([H])([H])C([H])([H])C([H])([H])N([H])C(=O)N3C([H])([H])C([H])([H])C([H])([H])C([H])(n4nc(-c5c([H])c([H])c(Oc6c([H])c([H])c(F)c([H])c6F)c([H])c5[H])c(C(=O)N([H])[H])c4N([H])[H])C3([H])[H])c([H])c([H])c2C1([H])[H]

>  <smiles>  (90) 
[H]c1c([H])c([H])c2c(c1[H])C([H])([H])C([H])([H])C([H])([H])C2([H])N([H])C(=O)C1([H])N(C(=O)C([H])(N([H])C(=O)C([H])(N([H])C([H])([H])[H])C([H])([H])[H])C(C([H])([H])[H])(C([H])([H])[H])C([H])([H])[H])C([H])([H])c2c([H])c(OC([H])([H])C([H])([H])N([H])C(=O)C([H])([H])N([H])C(=O)C([H])([H])N([H])C(=O)C([H])([H])OC([H])([H])C([H])([H])C([H])([H])C([H])([H])C([H])([H])N([H])C(=O)N3C([H])([H])C([H])([H])C([H])([H])C([H])(n4nc(-c5c([H])c([H])c(Oc6c([H])c([H])c(F)c([H])c6F)c([H])c5[H])c(C(=O)N([H])[H])c4N([H])[H])C3([H])[H])c([H])c([H])c2C1([H])[H]

$$$$
95:0:0
     RDKit          3D

106113  0  0  1  0  0  0  0  0999 V2000
  -33.4930  -22.1920   20.1300 C   0  0  0  0  0  2  0  0  0  0  0  0
  -33.8810  -21.9160   22.5830 C   0  0  0  0  0  0  0  0  0  0  0  0
  -34.0420  -21.5260   21.3120 N   0  0  0  0  0  0  0  0  0  0  0  0
  -33.1520  -22.8530   22.9130 O   0  0  0  0  0  0  0  0  0  0  0  0
  -34.5920  -20.6900   21.1600 H   0  0  0  0  0  0  0  0  0  0  0  0
  -34.6730  -21.1530   23.6480 C   0  0  0  0  0  2  0  0  0  0  0  0
  -33.5330  -18.9800   23.9360 C   0  0  0  0  0  0  0  0  0  0  0  0
  -33.8370  -20.2040   24.3770 N   0  0  0  0  0  0  0  0  0  0  0  0
  -33.9020  -18.5770   22.8290 O   0  0  0  0  0  0  0  0  0  0  0  0
  -33.4950  -20.4870   25.2850 H   0  0  0  0  0  0  0  0  0  0  0  0
  -32.7380  -18.0700   24.8850 C   0  0  0  0  0  2  0  0  0  0  0  0
  -31.7460  -16.2760   23.4810 C   0  0  0  0  0  0  0  0  0  0  0  0
  -32.6500  -16.7110   24.3610 N   0  0  0  0  0  0  0  0  0  0  0  0
  -30.7700  -16.9420   23.1280 O   0  0  0  0  0  0  0  0  0  0  0  0
  -33.4260  -16.1000   24.5740 H   0  0  0  0  0  0  0  0  0  0  0  0
  -32.0010  -14.8810   22.9210 C   0  0  0  0  0  2  0  0  0  0  0  0
  -30.8700  -14.2120   20.8080 C   0  0  0  0  0  0  0  0  0  0  0  0
  -30.4000  -12.2860   19.3520 C   0  0  0  0  0  2  0  0  0  0  0  0
  -29.4600  -12.5390   18.1690 C   0  0  0  0  0  2  0  0  0  0  0  0
  -27.9950  -12.3750   18.6050 C   0  0  0  0  0  2  0  0  0  0  0  0
  -27.6620  -13.2040   19.8710 C   0  0  0  0  0  3  0  0  0  0  0  0
  -28.7010  -12.9670   20.9870 C   0  0  0  0  0  2  0  0  0  0  0  0
  -30.0510  -13.1990   20.4440 N   0  0  0  0  0  0  0  0  0  0  0  0
  -31.7390  -14.7010   20.0780 O   0  0  0  0  0  0  0  0  0  0  0  0
  -30.8860  -14.3660   22.1330 N   0  0  0  0  0  0  0  0  0  0  0  0
  -30.1550  -13.8970   22.6460 H   0  0  0  0  0  0  0  0  0  0  0  0
  -25.2590  -13.8160   20.5660 C   0  0  0  0  0  0  0  0  0  0  0  0
  -24.1840  -13.0440   20.9160 C   0  0  0  0  0  0  0  0  0  0  0  0
  -24.6390  -11.6910   20.8720 C   0  0  0  0  0  0  0  0  0  0  0  0
  -26.3030  -12.9330   20.3350 N   0  0  0  0  0  0  0  0  0  0  0  0
  -25.9320  -11.6490   20.5740 N   0  0  0  0  0  0  0  0  0  0  0  0
  -23.9050  -10.4300   21.0410 C   0  0  0  0  0  0  0  0  0  0  0  0
  -24.3600   -9.4220   21.9190 C   0  0  0  0  0  3  0  0  0  0  0  0
  -23.6290   -8.2250   22.0750 C   0  0  0  0  0  3  0  0  0  0  0  0
  -22.4270   -8.0290   21.3540 C   0  0  0  0  0  0  0  0  0  0  0  0
  -21.9910   -9.0250   20.4640 C   0  0  0  0  0  3  0  0  0  0  0  0
  -22.7230  -10.2140   20.3050 C   0  0  0  0  0  3  0  0  0  0  0  0
  -21.6630   -6.8890   21.4240 O   0  0  0  0  0  0  0  0  0  0  0  0
  -21.6840   -6.0740   22.5270 C   0  0  0  0  0  0  0  0  0  0  0  0
  -21.4030   -6.5640   23.8210 C   0  0  0  0  0  3  0  0  0  0  0  0
  -21.3650   -5.6790   24.9160 C   0  0  0  0  0  3  0  0  0  0  0  0
  -21.6030   -4.3060   24.7230 C   0  0  0  0  0  0  0  0  0  0  0  0
  -21.8820   -3.8150   23.4350 C   0  0  0  0  0  3  0  0  0  0  0  0
  -21.9200   -4.6960   22.3410 C   0  0  0  0  0  0  0  0  0  0  0  0
  -22.1660   -4.2150   21.0990 F   0  0  0  0  0  0  0  0  0  0  0  0
  -21.5620   -3.4540   25.7740 F   0  0  0  0  0  0  0  0  0  0  0  0
  -22.7870  -13.5240   21.1850 C   0  0  0  0  0  0  0  0  0  0  0  0
  -22.0490  -12.8230   22.0390 N   0  0  0  0  0  0  0  0  0  0  0  0
  -22.3560  -14.5560   20.6710 O   0  0  0  0  0  0  0  0  0  0  0  0
  -22.4100  -11.9870   22.4760 H   0  0  0  0  0  0  0  0  0  0  0  0
  -21.1130  -13.1260   22.2620 H   0  0  0  0  0  0  0  0  0  0  0  0
  -25.4330  -15.1880   20.4070 N   0  0  0  0  0  0  0  0  0  0  0  0
  -24.6740  -15.8500   20.5210 H   0  0  0  0  0  0  0  0  0  0  0  0
  -26.2950  -15.6200   20.0990 H   0  0  0  0  0  0  0  0  0  0  0  0
  -32.2800  -21.4560   19.5330 C   0  0  0  0  0  2  0  0  0  0  0  0
  -31.1750  -21.1660   20.5610 C   0  0  0  0  0  2  0  0  0  0  0  0
  -29.8760  -20.6370   19.9270 C   0  0  0  0  0  2  0  0  0  0  0  0
  -28.8170  -20.1890   20.9570 C   0  0  0  0  0  2  0  0  0  0  0  0
  -28.4550  -21.2520   22.0120 C   0  0  0  0  0  2  0  0  0  0  0  0
  -27.9820  -22.5090   21.4020 N   0  0  0  0  0  4  0  0  0  0  0  0
  -26.9860  -22.4470   21.2550 H   0  0  0  0  0  0  0  0  0  0  0  0
  -28.4260  -22.5920   20.5030 H   0  0  0  0  0  0  0  0  0  0  0  0
  -28.2910  -23.7080   22.2140 C   0  0  0  0  0  2  0  0  0  0  0  0
  -27.7740  -25.0150   21.5930 C   0  0  0  0  0  2  0  0  0  0  0  0
  -28.4460  -25.4030   20.2560 C   0  0  0  0  0  2  0  0  0  0  0  0
  -28.4490  -26.8130   20.0700 O   0  0  0  0  0  0  0  0  0  0  0  0
  -24.6140  -31.8680   23.2110 C   0  0  0  0  0  0  0  0  0  0  0  0
  -27.2480  -27.4790   20.0840 C   0  0  0  0  0  0  0  0  0  0  0  0
  -23.4000  -30.4910   21.5520 C   0  0  0  0  0  3  0  0  0  0  0  0
  -24.8480  -28.9550   20.1260 C   0  0  0  0  0  0  0  0  0  0  0  0
  -25.9250  -30.8470   21.3600 C   0  0  0  0  0  2  0  0  0  0  0  0
  -26.0050  -29.4820   20.7120 C   0  0  0  0  0  0  0  0  0  0  0  0
  -27.2060  -28.7500   20.6880 C   0  0  0  0  0  3  0  0  0  0  0  0
  -26.0740  -26.9470   19.5050 C   0  0  0  0  0  3  0  0  0  0  0  0
  -24.8740  -27.6830   19.5230 C   0  0  0  0  0  3  0  0  0  0  0  0
  -23.6100  -29.8200   20.1680 C   0  0  0  0  0  2  0  0  0  0  0  0
  -24.6650  -31.0810   22.1010 N   0  0  0  0  0  0  0  0  0  0  0  0
  -23.5340  -32.1430   23.7520 O   0  0  0  0  0  0  0  0  0  0  0  0
  -22.7430  -29.4650   22.5020 C   0  0  0  0  0  0  0  0  0  0  0  0
  -21.4160  -29.3020   22.3760 N   0  0  0  0  0  0  0  0  0  0  0  0
  -23.4220  -28.8200   23.3030 O   0  0  0  0  0  0  0  0  0  0  0  0
  -20.9330  -29.8790   21.7040 H   0  0  0  0  0  0  0  0  0  0  0  0
  -18.0260  -28.1370   22.8490 C   0  0  0  0  0  0  0  0  0  0  0  0
  -20.5860  -28.3640   23.1330 C   0  0  0  0  0  3  0  0  0  0  0  0
  -20.6750  -26.9370   22.5440 C   0  0  0  0  0  2  0  0  0  0  0  0
  -19.5720  -26.6370   21.5230 C   0  0  0  0  0  2  0  0  0  0  0  0
  -18.1880  -26.7920   22.1630 C   0  0  0  0  0  2  0  0  0  0  0  0
  -19.1510  -28.8820   23.2890 C   0  0  0  0  0  0  0  0  0  0  0  0
  -18.9450  -30.1430   23.8900 C   0  0  0  0  0  3  0  0  0  0  0  0
  -17.6450  -30.6560   24.0580 C   0  0  0  0  0  3  0  0  0  0  0  0
  -16.5340  -29.9070   23.6350 C   0  0  0  0  0  3  0  0  0  0  0  0
  -16.7260  -28.6510   23.0340 C   0  0  0  0  0  3  0  0  0  0  0  0
  -25.9030  -32.4830   23.8410 C   0  0  0  0  0  3  0  0  0  0  0  0
  -26.4460  -31.6620   25.0760 C   0  0  1  0  0  0  0  0  0  0  0  0
  -25.3710  -31.3630   26.1500 C   0  0  0  0  0  1  0  0  0  0  0  0
  -27.0320  -30.3100   24.6080 C   0  0  0  0  0  1  0  0  0  0  0  0
  -27.6100  -32.4300   25.7500 C   0  0  0  0  0  1  0  0  0  0  0  0
  -25.5890  -33.8630   24.2350 N   0  0  0  0  0  0  0  0  0  0  0  0
  -25.9030  -34.9470   23.5140 C   0  0  0  0  0  0  0  0  0  0  0  0
  -26.5600  -34.8900   22.4700 O   0  0  0  0  0  0  0  0  0  0  0  0
  -25.0050  -33.9810   25.0500 H   0  0  0  0  0  0  0  0  0  0  0  0
  -24.1480  -36.7330   23.2630 C   0  0  0  0  0  1  0  0  0  0  0  0
  -25.4100  -36.3130   24.0340 C   0  0  0  0  0  3  0  0  0  0  0  0
  -27.5560  -37.1790   24.8440 C   0  0  0  0  0  1  0  0  0  0  0  0
  -26.4280  -37.3800   23.9410 N   0  0  0  0  0  0  0  0  0  0  0  0
  -26.0190  -38.2880   24.1490 H   0  0  0  0  0  0  0  0  0  0  0  0
  1  3  1  0
  2  4  2  0
  2  6  1  0
  3  2  1  0
  5  3  1  0
  6  8  1  0
  7  8  1  0
  7 11  1  0
  8 10  1  0
  9  7  2  0
 12 13  1  0
 13 15  1  0
 13 11  1  0
 14 12  2  0
 16 12  1  0
 17 25  1  0
 18 23  1  0
 19 20  1  0
 19 18  1  0
 21 20  1  0
 21 30  1  0
 21 22  1  0
 23 17  1  0
 23 22  1  0
 24 17  2  0
 25 26  1  0
 25 16  1  0
 27 28  2  0
 28 47  1  0
 29 28  1  0
 29 32  1  0
 30 27  1  0
 30 31  1  0
 31 29  2  0
 32 33  1  0
 33 34  2  0
 35 38  1  0
 35 34  1  0
 36 35  2  0
 37 36  1  0
 37 32  2  0
 38 39  1  0
 39 40  1  0
 40 41  2  0
 42 41  1  0
 42 46  1  0
 43 42  2  0
 44 39  2  0
 44 43  1  0
 45 44  1  0
 47 48  1  0
 48 51  1  0
 48 50  1  0
 49 47  2  0
 52 53  1  0
 52 27  1  0
 54 52  1  0
 55  1  1  0
 55 56  1  0
 57 56  1  0
 57 58  1  0
 58 59  1  0
 60 59  1  0
 60 63  1  0
 61 60  1  0
 62 60  1  0
 64 63  1  0
 65 64  1  0
 66 68  1  0
 66 65  1  0
 67 78  2  0
 68 73  1  0
 69 77  1  0
 69 79  1  0
 70 76  1  0
 70 72  1  0
 71 77  1  0
 72 71  1  0
 73 72  2  0
 74 75  1  0
 74 68  2  0
 75 70  2  0
 76 69  1  0
 77 67  1  0
 79 81  2  0
 80 79  1  0
 82 80  1  0
 83 92  2  0
 83 88  1  0
 84 80  1  0
 84 88  1  0
 85 84  1  0
 86 87  1  0
 86 85  1  0
 87 83  1  0
 88 89  2  0
 89 90  1  0
 91 90  2  0
 92 91  1  0
 93 67  1  0
 93 98  1  0
 93 94  1  0
 94 97  1  1
 94 95  1  0
 96 94  1  0
 98101  1  0
 99103  1  0
 99 98  1  0
100 99  2  0
103102  1  0
105103  1  0
105106  1  0
105104  1  0
M  ISO  4  17 100  25 100  65 101  66 101
M  END
>  <TORSDO>  (91) 
F 31

>  <SCORE>  (91) 
13.735

>  <name>  (91) 
95

>  <ligand_id>  (91) 
95

>  <original_smiles>  (91) 
[H]c1c([H])c([H])c2c(c1[H])C([H])([H])C([H])([H])C([H])([H])C2([H])N([H])C(=O)C1([H])N(C(=O)C([H])(N([H])C(=O)C([H])(N([H])C([H])([H])[H])C([H])([H])[H])C(C([H])([H])[H])(C([H])([H])[H])C([H])([H])[H])C([H])([H])c2c([H])c(OC([H])([H])C([H])([H])C([H])([H])[N+]([H])([H])C([H])([H])C([H])([H])C([H])([H])C([H])([H])C([H])([H])C([H])([H])N([H])C(=O)C([H])([H])N([H])C(=O)C([H])([H])N([H])C(=O)C([H])([H])N([H])C(=O)N3C([H])([H])C([H])([H])C([H])([H])C([H])(n4nc(-c5c([H])c([H])c(Oc6c([H])c([H])c(F)c([H])c6F)c([H])c5[H])c(C(=O)N([H])[H])c4N([H])[H])C3([H])[H])c([H])c([H])c2C1([H])[H]

>  <smiles>  (91) 
[H]c1c([H])c([H])c2c(c1[H])C([H])([H])C([H])([H])C([H])([H])C2([H])N([H])C(=O)C1([H])N(C(=O)C([H])(N([H])C(=O)C([H])(N([H])C([H])([H])[H])C([H])([H])[H])C(C([H])([H])[H])(C([H])([H])[H])C([H])([H])[H])C([H])([H])c2c([H])c(OC([H])([H])C([H])([H])C([H])([H])[N+]([H])([H])C([H])([H])C([H])([H])C([H])([H])C([H])([H])C([H])([H])C([H])([H])N([H])C(=O)C([H])([H])N([H])C(=O)C([H])([H])N([H])C(=O)C([H])([H])N([H])C(=O)N3C([H])([H])C([H])([H])C([H])([H])C([H])(n4nc(-c5c([H])c([H])c(Oc6c([H])c([H])c(F)c([H])c6F)c([H])c5[H])c(C(=O)N([H])[H])c4N([H])[H])C3([H])[H])c([H])c([H])c2C1([H])[H]

$$$$
96:0:0
     RDKit          3D

113120  0  0  1  0  0  0  0  0999 V2000
  -31.7900  -15.7480   29.6770 C   0  0  0  0  0  2  0  0  0  0  0  0
  -30.9250  -14.9130   30.6330 C   0  0  0  0  0  2  0  0  0  0  0  0
  -30.8730  -13.4200   30.2590 C   0  0  0  0  0  2  0  0  0  0  0  0
  -29.6050  -12.7080   30.7740 C   0  0  0  0  0  2  0  0  0  0  0  0
  -27.9910  -13.0220   28.9140 C   0  0  0  0  0  0  0  0  0  0  0  0
  -28.4080  -13.2770   30.1590 N   0  0  0  0  0  0  0  0  0  0  0  0
  -28.4920  -12.1370   28.2150 O   0  0  0  0  0  0  0  0  0  0  0  0
  -27.9180  -13.9940   30.6780 H   0  0  0  0  0  0  0  0  0  0  0  0
  -26.8550  -13.8960   28.3670 C   0  0  0  0  0  2  0  0  0  0  0  0
  -27.7090  -14.8230   26.2180 C   0  0  0  0  0  0  0  0  0  0  0  0
  -26.9260  -13.9870   26.9110 N   0  0  0  0  0  0  0  0  0  0  0  0
  -28.3630  -15.7240   26.7490 O   0  0  0  0  0  0  0  0  0  0  0  0
  -26.4430  -13.2650   26.3950 H   0  0  0  0  0  0  0  0  0  0  0  0
  -27.7380  -14.5960   24.7030 C   0  0  0  0  0  2  0  0  0  0  0  0
  -30.0060  -15.2080   23.8600 C   0  0  0  0  0  0  0  0  0  0  0  0
  -28.6870  -15.4240   23.9570 N   0  0  0  0  0  0  0  0  0  0  0  0
  -30.6130  -14.4070   24.5700 O   0  0  0  0  0  0  0  0  0  0  0  0
  -28.2890  -16.1570   23.3880 H   0  0  0  0  0  0  0  0  0  0  0  0
  -30.6970  -15.8660   22.6650 C   0  0  0  0  0  2  0  0  0  0  0  0
  -30.7290  -14.3760   20.6800 C   0  0  0  0  0  0  0  0  0  0  0  0
  -30.4230  -12.3020   19.3680 C   0  0  0  0  0  2  0  0  0  0  0  0
  -29.4800  -12.5320   18.1720 C   0  0  0  0  0  2  0  0  0  0  0  0
  -28.0030  -12.3800   18.5920 C   0  0  0  0  0  2  0  0  0  0  0  0
  -27.6590  -13.1950   19.8660 C   0  0  0  0  0  3  0  0  0  0  0  0
  -28.6980  -12.9090   20.9670 C   0  0  0  0  0  2  0  0  0  0  0  0
  -30.0310  -13.2400   20.4250 N   0  0  0  0  0  0  0  0  0  0  0  0
  -31.8290  -14.6410   20.1880 O   0  0  0  0  0  0  0  0  0  0  0  0
  -30.0990  -15.2070   21.5110 N   0  0  0  0  0  0  0  0  0  0  0  0
  -29.1430  -14.9300   21.6760 H   0  0  0  0  0  0  0  0  0  0  0  0
  -25.2610  -13.8140   20.5660 C   0  0  0  0  0  0  0  0  0  0  0  0
  -24.1850  -13.0440   20.9170 C   0  0  0  0  0  0  0  0  0  0  0  0
  -24.6380  -11.6900   20.8730 C   0  0  0  0  0  0  0  0  0  0  0  0
  -26.3010  -12.9290   20.3310 N   0  0  0  0  0  0  0  0  0  0  0  0
  -25.9310  -11.6460   20.5750 N   0  0  0  0  0  0  0  0  0  0  0  0
  -23.9060  -10.4290   21.0410 C   0  0  0  0  0  0  0  0  0  0  0  0
  -24.3610   -9.4200   21.9190 C   0  0  0  0  0  3  0  0  0  0  0  0
  -23.6280   -8.2240   22.0760 C   0  0  0  0  0  3  0  0  0  0  0  0
  -22.4260   -8.0280   21.3560 C   0  0  0  0  0  0  0  0  0  0  0  0
  -21.9900   -9.0260   20.4660 C   0  0  0  0  0  3  0  0  0  0  0  0
  -22.7240  -10.2130   20.3060 C   0  0  0  0  0  3  0  0  0  0  0  0
  -21.6630   -6.8880   21.4250 O   0  0  0  0  0  0  0  0  0  0  0  0
  -21.6840   -6.0730   22.5280 C   0  0  0  0  0  0  0  0  0  0  0  0
  -21.4020   -6.5640   23.8210 C   0  0  0  0  0  3  0  0  0  0  0  0
  -21.3660   -5.6790   24.9180 C   0  0  0  0  0  3  0  0  0  0  0  0
  -21.6030   -4.3050   24.7220 C   0  0  0  0  0  0  0  0  0  0  0  0
  -21.8820   -3.8150   23.4350 C   0  0  0  0  0  3  0  0  0  0  0  0
  -21.9190   -4.6960   22.3400 C   0  0  0  0  0  0  0  0  0  0  0  0
  -22.1660   -4.2150   21.0980 F   0  0  0  0  0  0  0  0  0  0  0  0
  -21.5620   -3.4530   25.7740 F   0  0  0  0  0  0  0  0  0  0  0  0
  -22.7870  -13.5250   21.1830 C   0  0  0  0  0  0  0  0  0  0  0  0
  -22.0500  -12.8280   22.0410 N   0  0  0  0  0  0  0  0  0  0  0  0
  -22.3570  -14.5550   20.6660 O   0  0  0  0  0  0  0  0  0  0  0  0
  -22.4070  -11.9910   22.4790 H   0  0  0  0  0  0  0  0  0  0  0  0
  -21.1120  -13.1330   22.2610 H   0  0  0  0  0  0  0  0  0  0  0  0
  -25.4380  -15.1860   20.4110 N   0  0  0  0  0  0  0  0  0  0  0  0
  -24.6720  -15.8430   20.5090 H   0  0  0  0  0  0  0  0  0  0  0  0
  -26.2880  -15.6230   20.0770 H   0  0  0  0  0  0  0  0  0  0  0  0
  -31.8110  -17.2300   30.0770 C   0  0  0  0  0  2  0  0  0  0  0  0
  -32.4030  -18.1380   28.9910 C   0  0  0  0  0  2  0  0  0  0  0  0
  -32.4410  -19.6060   29.4360 C   0  0  0  0  0  2  0  0  0  0  0  0
  -32.8130  -20.5680   28.3000 C   0  0  0  0  0  2  0  0  0  0  0  0
  -32.8800  -22.0290   28.7800 C   0  0  0  0  0  2  0  0  0  0  0  0
  -33.1010  -23.0460   27.6480 C   0  0  0  0  0  2  0  0  0  0  0  0
  -31.8470  -23.8800   25.6770 C   0  0  0  0  0  0  0  0  0  0  0  0
  -31.9740  -23.0550   26.7220 N   0  0  0  0  0  0  0  0  0  0  0  0
  -32.6930  -24.7380   25.4060 O   0  0  0  0  0  0  0  0  0  0  0  0
  -31.2340  -22.3840   26.8770 H   0  0  0  0  0  0  0  0  0  0  0  0
  -30.5910  -23.7030   24.8130 C   0  0  0  0  0  2  0  0  0  0  0  0
  -30.5440  -24.7110   23.8070 O   0  0  0  0  0  0  0  0  0  0  0  0
  -29.4890  -24.5130   22.8780 C   0  0  0  0  0  2  0  0  0  0  0  0
  -29.4450  -25.7200   21.9350 C   0  0  0  0  0  2  0  0  0  0  0  0
  -28.4220  -25.5650   20.8020 C   0  0  0  0  0  2  0  0  0  0  0  0
  -28.4160  -26.7730   20.0470 O   0  0  0  0  0  0  0  0  0  0  0  0
  -24.6110  -31.8700   23.2120 C   0  0  0  0  0  0  0  0  0  0  0  0
  -27.2410  -27.4760   20.0910 C   0  0  0  0  0  0  0  0  0  0  0  0
  -23.3970  -30.4930   21.5520 C   0  0  0  0  0  3  0  0  0  0  0  0
  -24.8460  -28.9580   20.1210 C   0  0  0  0  0  0  0  0  0  0  0  0
  -25.9220  -30.8480   21.3590 C   0  0  0  0  0  2  0  0  0  0  0  0
  -26.0020  -29.4840   20.7100 C   0  0  0  0  0  0  0  0  0  0  0  0
  -27.2060  -28.7490   20.6920 C   0  0  0  0  0  3  0  0  0  0  0  0
  -26.0710  -26.9490   19.5050 C   0  0  0  0  0  3  0  0  0  0  0  0
  -24.8720  -27.6870   19.5170 C   0  0  0  0  0  3  0  0  0  0  0  0
  -23.6050  -29.8210   20.1680 C   0  0  0  0  0  2  0  0  0  0  0  0
  -24.6610  -31.0840   22.1000 N   0  0  0  0  0  0  0  0  0  0  0  0
  -23.5310  -32.1440   23.7540 O   0  0  0  0  0  0  0  0  0  0  0  0
  -22.7390  -29.4670   22.5010 C   0  0  0  0  0  0  0  0  0  0  0  0
  -21.4120  -29.3030   22.3750 N   0  0  0  0  0  0  0  0  0  0  0  0
  -23.4170  -28.8220   23.3040 O   0  0  0  0  0  0  0  0  0  0  0  0
  -20.9280  -29.8750   21.6970 H   0  0  0  0  0  0  0  0  0  0  0  0
  -18.0270  -28.1370   22.8490 C   0  0  0  0  0  0  0  0  0  0  0  0
  -20.5850  -28.3660   23.1330 C   0  0  0  0  0  3  0  0  0  0  0  0
  -20.6760  -26.9400   22.5420 C   0  0  0  0  0  2  0  0  0  0  0  0
  -19.5740  -26.6390   21.5210 C   0  0  0  0  0  2  0  0  0  0  0  0
  -18.1920  -26.7920   22.1620 C   0  0  0  0  0  2  0  0  0  0  0  0
  -19.1510  -28.8840   23.2910 C   0  0  0  0  0  0  0  0  0  0  0  0
  -18.9440  -30.1440   23.8920 C   0  0  0  0  0  3  0  0  0  0  0  0
  -17.6450  -30.6580   24.0570 C   0  0  0  0  0  3  0  0  0  0  0  0
  -16.5340  -29.9090   23.6320 C   0  0  0  0  0  3  0  0  0  0  0  0
  -16.7260  -28.6500   23.0350 C   0  0  0  0  0  3  0  0  0  0  0  0
  -25.9020  -32.4840   23.8410 C   0  0  0  0  0  3  0  0  0  0  0  0
  -26.4470  -31.6600   25.0720 C   0  0  1  0  0  0  0  0  0  0  0  0
  -25.3750  -31.3680   26.1480 C   0  0  0  0  0  1  0  0  0  0  0  0
  -27.0290  -30.3050   24.6060 C   0  0  0  0  0  1  0  0  0  0  0  0
  -27.6060  -32.4300   25.7460 C   0  0  0  0  0  1  0  0  0  0  0  0
  -25.5890  -33.8640   24.2350 N   0  0  0  0  0  0  0  0  0  0  0  0
  -25.9030  -34.9490   23.5140 C   0  0  0  0  0  0  0  0  0  0  0  0
  -26.5590  -34.8930   22.4700 O   0  0  0  0  0  0  0  0  0  0  0  0
  -25.0050  -33.9810   25.0490 H   0  0  0  0  0  0  0  0  0  0  0  0
  -24.1490  -36.7330   23.2640 C   0  0  0  0  0  1  0  0  0  0  0  0
  -25.4110  -36.3120   24.0340 C   0  0  0  0  0  3  0  0  0  0  0  0
  -27.5580  -37.1820   24.8460 C   0  0  0  0  0  1  0  0  0  0  0  0
  -26.4300  -37.3800   23.9410 N   0  0  0  0  0  0  0  0  0  0  0  0
  -26.0200  -38.2890   24.1390 H   0  0  0  0  0  0  0  0  0  0  0  0
  1 58  1  0
  1  2  1  0
  3  2  1  0
  3  4  1  0
  5  6  1  0
  6  8  1  0
  6  4  1  0
  7  5  2  0
  9  5  1  0
 10 12  2  0
 10 11  1  0
 11  9  1  0
 13 11  1  0
 14 10  1  0
 15 16  1  0
 15 17  2  0
 16 14  1  0
 18 16  1  0
 19 15  1  0
 20 28  1  0
 21 26  1  0
 22 23  1  0
 22 21  1  0
 24 23  1  0
 24 33  1  0
 24 25  1  0
 26 20  1  0
 26 25  1  0
 27 20  2  0
 28 29  1  0
 28 19  1  0
 30 31  2  0
 31 50  1  0
 32 31  1  0
 32 35  1  0
 33 30  1  0
 33 34  1  0
 34 32  2  0
 35 36  1  0
 36 37  2  0
 38 41  1  0
 38 37  1  0
 39 38  2  0
 40 39  1  0
 40 35  2  0
 41 42  1  0
 42 43  1  0
 43 44  2  0
 45 44  1  0
 45 49  1  0
 46 45  2  0
 47 42  2  0
 47 46  1  0
 48 47  1  0
 50 51  1  0
 51 54  1  0
 51 53  1  0
 52 50  2  0
 55 56  1  0
 55 30  1  0
 57 55  1  0
 59 60  1  0
 59 58  1  0
 61 62  1  0
 61 60  1  0
 63 62  1  0
 64 65  1  0
 65 67  1  0
 65 63  1  0
 66 64  2  0
 68 64  1  0
 69 68  1  0
 70 69  1  0
 71 70  1  0
 72 71  1  0
 73 75  1  0
 73 72  1  0
 74 85  2  0
 75 80  1  0
 76 84  1  0
 76 86  1  0
 77 83  1  0
 77 79  1  0
 78 84  1  0
 79 78  1  0
 80 79  2  0
 81 82  1  0
 81 75  2  0
 82 77  2  0
 83 76  1  0
 84 74  1  0
 86 88  2  0
 87 86  1  0
 89 87  1  0
 90 99  2  0
 90 95  1  0
 91 87  1  0
 91 95  1  0
 92 91  1  0
 93 94  1  0
 93 92  1  0
 94 90  1  0
 95 96  2  0
 96 97  1  0
 98 97  2  0
 99 98  1  0
100 74  1  0
100105  1  0
100101  1  0
101104  1  1
101102  1  0
103101  1  0
105108  1  0
106110  1  0
106105  1  0
107106  2  0
110109  1  0
112110  1  0
112113  1  0
112111  1  0
M  ISO  4  20 100  28 100  72 101  73 101
M  END
>  <TORSDO>  (92) 
F 37

>  <SCORE>  (92) 
107.569

>  <name>  (92) 
96

>  <ligand_id>  (92) 
96

>  <original_smiles>  (92) 
[H]c1c([H])c([H])c2c(c1[H])C([H])([H])C([H])([H])C([H])([H])C2([H])N([H])C(=O)C1([H])N(C(=O)C([H])(N([H])C(=O)C([H])(N([H])C([H])([H])[H])C([H])([H])[H])C(C([H])([H])[H])(C([H])([H])[H])C([H])([H])[H])C([H])([H])c2c([H])c(OC([H])([H])C([H])([H])C([H])([H])OC([H])([H])C(=O)N([H])C([H])([H])C([H])([H])C([H])([H])C([H])([H])C([H])([H])C([H])([H])C([H])([H])C([H])([H])C([H])([H])C([H])([H])N([H])C(=O)C([H])([H])N([H])C(=O)C([H])([H])N([H])C(=O)C([H])([H])N([H])C(=O)N3C([H])([H])C([H])([H])C([H])([H])C([H])(n4nc(-c5c([H])c([H])c(Oc6c([H])c([H])c(F)c([H])c6F)c([H])c5[H])c(C(=O)N([H])[H])c4N([H])[H])C3([H])[H])c([H])c([H])c2C1([H])[H]

>  <smiles>  (92) 
[H]c1c([H])c([H])c2c(c1[H])C([H])([H])C([H])([H])C([H])([H])C2([H])N([H])C(=O)C1([H])N(C(=O)C([H])(N([H])C(=O)C([H])(N([H])C([H])([H])[H])C([H])([H])[H])C(C([H])([H])[H])(C([H])([H])[H])C([H])([H])[H])C([H])([H])c2c([H])c(OC([H])([H])C([H])([H])C([H])([H])OC([H])([H])C(=O)N([H])C([H])([H])C([H])([H])C([H])([H])C([H])([H])C([H])([H])C([H])([H])C([H])([H])C([H])([H])C([H])([H])C([H])([H])N([H])C(=O)C([H])([H])N([H])C(=O)C([H])([H])N([H])C(=O)C([H])([H])N([H])C(=O)N3C([H])([H])C([H])([H])C([H])([H])C([H])(n4nc(-c5c([H])c([H])c(Oc6c([H])c([H])c(F)c([H])c6F)c([H])c5[H])c(C(=O)N([H])[H])c4N([H])[H])C3([H])[H])c([H])c([H])c2C1([H])[H]

$$$$
97:0:0
     RDKit          3D

107114  0  0  1  0  0  0  0  0999 V2000
  -24.4230  -25.2090   24.0890 C   0  0  0  0  0  0  0  0  0  0  0  0
  -23.7000  -25.8670   23.1700 N   0  0  0  0  0  0  0  0  0  0  0  0
  -23.8610  -24.7030   25.0610 O   0  0  0  0  0  0  0  0  0  0  0  0
  -22.7120  -25.9220   23.3700 H   0  0  0  0  0  0  0  0  0  0  0  0
  -24.1330  -26.6110   21.9810 C   0  0  0  0  0  2  0  0  0  0  0  0
  -23.5150  -26.0950   20.6630 C   0  0  0  0  0  2  0  0  0  0  0  0
  -23.6640  -24.5860   20.3900 C   0  0  0  0  0  2  0  0  0  0  0  0
  -25.1060  -24.1070   20.1530 C   0  0  0  0  0  2  0  0  0  0  0  0
  -25.5930  -24.0970   18.6950 C   0  0  0  0  0  2  0  0  0  0  0  0
  -27.0260  -23.5340   18.6180 C   0  0  0  0  0  2  0  0  0  0  0  0
  -27.2300  -22.4400   17.5610 C   0  0  0  0  0  2  0  0  0  0  0  0
  -28.5530  -21.6870   17.7870 C   0  0  0  0  0  2  0  0  0  0  0  0
  -28.6360  -20.3620   17.0110 C   0  0  0  0  0  2  0  0  0  0  0  0
  -29.8500  -19.4900   17.3970 C   0  0  0  0  0  2  0  0  0  0  0  0
  -29.1290  -18.1040   19.3450 C   0  0  0  0  0  0  0  0  0  0  0  0
  -29.8540  -19.0920   18.8070 N   0  0  0  0  0  0  0  0  0  0  0  0
  -28.3240  -17.4370   18.6920 O   0  0  0  0  0  0  0  0  0  0  0  0
  -30.4980  -19.5810   19.4160 H   0  0  0  0  0  0  0  0  0  0  0  0
  -29.3380  -17.8160   20.8420 C   0  0  0  0  0  2  0  0  0  0  0  0
  -30.0450  -15.4550   20.6560 C   0  0  0  0  0  0  0  0  0  0  0  0
  -30.0810  -13.2040   19.6720 C   0  0  0  0  0  2  0  0  0  0  0  0
  -29.1850  -13.1950   18.4160 C   0  0  0  0  0  2  0  0  0  0  0  0
  -27.7210  -12.8940   18.7920 C   0  0  0  0  0  2  0  0  0  0  0  0
  -27.2100  -13.7800   19.9590 C   0  0  0  0  0  3  0  0  0  0  0  0
  -28.2210  -13.7810   21.1280 C   0  0  0  0  0  2  0  0  0  0  0  0
  -29.5320  -14.2000   20.6020 N   0  0  0  0  0  0  0  0  0  0  0  0
  -31.1350  -15.7690   20.1680 O   0  0  0  0  0  0  0  0  0  0  0  0
  -29.2150  -16.3870   21.1380 N   0  0  0  0  0  0  0  0  0  0  0  0
  -28.3280  -16.0660   21.4930 H   0  0  0  0  0  0  0  0  0  0  0  0
  -24.7280  -14.1240   20.5610 C   0  0  0  0  0  0  0  0  0  0  0  0
  -23.7430  -13.2420   20.9190 C   0  0  0  0  0  0  0  0  0  0  0  0
  -24.3590  -11.9540   20.9490 C   0  0  0  0  0  0  0  0  0  0  0  0
  -25.8770  -13.3650   20.3970 N   0  0  0  0  0  0  0  0  0  0  0  0
  -25.6560  -12.0570   20.6860 N   0  0  0  0  0  0  0  0  0  0  0  0
  -23.7790  -10.6200   21.1580 C   0  0  0  0  0  0  0  0  0  0  0  0
  -24.2610   -9.7550   22.1650 C   0  0  0  0  0  3  0  0  0  0  0  0
  -23.6750   -8.4850   22.3580 C   0  0  0  0  0  3  0  0  0  0  0  0
  -22.5960   -8.0700   21.5410 C   0  0  0  0  0  0  0  0  0  0  0  0
  -22.1350   -8.9260   20.5260 C   0  0  0  0  0  3  0  0  0  0  0  0
  -22.7230  -10.1880   20.3320 C   0  0  0  0  0  3  0  0  0  0  0  0
  -21.9820   -6.8450   21.6390 O   0  0  0  0  0  0  0  0  0  0  0  0
  -21.8610   -6.1930   22.8410 C   0  0  0  0  0  0  0  0  0  0  0  0
  -21.2260   -6.7920   23.9510 C   0  0  0  0  0  3  0  0  0  0  0  0
  -21.0610   -6.0610   25.1450 C   0  0  0  0  0  3  0  0  0  0  0  0
  -21.5220   -4.7340   25.2290 C   0  0  0  0  0  0  0  0  0  0  0  0
  -22.1490   -4.1340   24.1220 C   0  0  0  0  0  3  0  0  0  0  0  0
  -22.3150   -4.8620   22.9300 C   0  0  0  0  0  0  0  0  0  0  0  0
  -22.9020   -4.2740   21.8600 F   0  0  0  0  0  0  0  0  0  0  0  0
  -21.3570   -4.0290   26.3720 F   0  0  0  0  0  0  0  0  0  0  0  0
  -22.2910  -13.5590   21.1310 C   0  0  0  0  0  0  0  0  0  0  0  0
  -21.6230  -12.8200   22.0100 N   0  0  0  0  0  0  0  0  0  0  0  0
  -21.7500  -14.4990   20.5490 O   0  0  0  0  0  0  0  0  0  0  0  0
  -22.0720  -12.0620   22.5030 H   0  0  0  0  0  0  0  0  0  0  0  0
  -20.6490  -13.0150   22.1940 H   0  0  0  0  0  0  0  0  0  0  0  0
  -24.7390  -15.4980   20.3410 N   0  0  0  0  0  0  0  0  0  0  0  0
  -23.8980  -16.0610   20.3960 H   0  0  0  0  0  0  0  0  0  0  0  0
  -25.5440  -16.0180   20.0130 H   0  0  0  0  0  0  0  0  0  0  0  0
  -25.9430  -25.0420   23.9410 C   0  0  0  0  0  2  0  0  0  0  0  0
  -27.4630  -26.6690   25.1090 C   0  0  0  0  0  0  0  0  0  0  0  0
  -26.6890  -25.5740   25.0820 N   0  0  0  0  0  0  0  0  0  0  0  0
  -28.0660  -26.9790   26.1350 O   0  0  0  0  0  0  0  0  0  0  0  0
  -26.5910  -25.0640   25.9470 H   0  0  0  0  0  0  0  0  0  0  0  0
  -27.5970  -27.5480   23.8530 C   0  0  0  0  0  2  0  0  0  0  0  0
  -28.2280  -26.8120   22.8080 O   0  0  0  0  0  0  0  0  0  0  0  0
  -28.3160  -27.5560   21.6010 C   0  0  0  0  0  2  0  0  0  0  0  0
  -28.2950  -26.6050   20.3840 C   0  0  0  0  0  2  0  0  0  0  0  0
  -27.8440  -27.2570   19.1930 O   0  0  0  0  0  0  0  0  0  0  0  0
  -24.6040  -32.0110   23.3160 C   0  0  0  0  0  0  0  0  0  0  0  0
  -26.7230  -28.0220   19.3800 C   0  0  0  0  0  0  0  0  0  0  0  0
  -23.1780  -30.9250   21.6090 C   0  0  0  0  0  3  0  0  0  0  0  0
  -24.4150  -29.5670   19.8380 C   0  0  0  0  0  0  0  0  0  0  0  0
  -25.6860  -31.2260   21.2140 C   0  0  0  0  0  2  0  0  0  0  0  0
  -25.6430  -29.9680   20.3780 C   0  0  0  0  0  0  0  0  0  0  0  0
  -26.8040  -29.2050   20.1410 C   0  0  0  0  0  3  0  0  0  0  0  0
  -25.4850  -27.6210   18.8370 C   0  0  0  0  0  3  0  0  0  0  0  0
  -24.3280  -28.3950   19.0630 C   0  0  0  0  0  3  0  0  0  0  0  0
  -23.2240  -30.4500   20.1300 C   0  0  0  0  0  2  0  0  0  0  0  0
  -24.5150  -31.3890   22.1060 N   0  0  0  0  0  0  0  0  0  0  0  0
  -23.5940  -32.2400   23.9940 O   0  0  0  0  0  0  0  0  0  0  0  0
  -22.5640  -29.7970   22.4680 C   0  0  0  0  0  0  0  0  0  0  0  0
  -21.2380  -29.6130   22.3540 N   0  0  0  0  0  0  0  0  0  0  0  0
  -23.2750  -29.0930   23.1900 O   0  0  0  0  0  0  0  0  0  0  0  0
  -20.7270  -30.2330   21.7430 H   0  0  0  0  0  0  0  0  0  0  0  0
  -17.9070  -28.2610   22.7110 C   0  0  0  0  0  0  0  0  0  0  0  0
  -20.4500  -28.5870   23.0350 C   0  0  0  0  0  3  0  0  0  0  0  0
  -20.6110  -27.2130   22.3470 C   0  0  0  0  0  2  0  0  0  0  0  0
  -19.5310  -26.9280   21.2980 C   0  0  0  0  0  2  0  0  0  0  0  0
  -18.1380  -26.9750   21.9330 C   0  0  0  0  0  2  0  0  0  0  0  0
  -18.9930  -29.0240   23.2140 C   0  0  0  0  0  0  0  0  0  0  0  0
  -18.7230  -30.2280   23.9010 C   0  0  0  0  0  3  0  0  0  0  0  0
  -17.4000  -30.6700   24.0880 C   0  0  0  0  0  3  0  0  0  0  0  0
  -16.3280  -29.9010   23.6020 C   0  0  0  0  0  3  0  0  0  0  0  0
  -16.5820  -28.6990   22.9200 C   0  0  0  0  0  3  0  0  0  0  0  0
  -25.9740  -32.4880   23.8930 C   0  0  0  0  0  3  0  0  0  0  0  0
  -26.5530  -31.5220   24.9980 C   0  0  1  0  0  0  0  0  0  0  0  0
  -25.5380  -31.1690   26.1110 C   0  0  0  0  0  1  0  0  0  0  0  0
  -27.0350  -30.1970   24.3630 C   0  0  0  0  0  1  0  0  0  0  0  0
  -27.7900  -32.1690   25.6610 C   0  0  0  0  0  1  0  0  0  0  0  0
  -25.7800  -33.8410   24.4320 N   0  0  0  0  0  0  0  0  0  0  0  0
  -26.1900  -34.9650   23.8280 C   0  0  0  0  0  0  0  0  0  0  0  0
  -26.8450  -34.9620   22.7810 O   0  0  0  0  0  0  0  0  0  0  0  0
  -25.2030  -33.9230   25.2570 H   0  0  0  0  0  0  0  0  0  0  0  0
  -24.6200  -36.9270   23.7580 C   0  0  0  0  0  1  0  0  0  0  0  0
  -25.8190  -36.3060   24.4900 C   0  0  0  0  0  3  0  0  0  0  0  0
  -28.0240  -36.8660   25.4110 C   0  0  0  0  0  1  0  0  0  0  0  0
  -26.9360  -37.2730   24.5260 N   0  0  0  0  0  0  0  0  0  0  0  0
  -26.6120  -38.1890   24.8240 H   0  0  0  0  0  0  0  0  0  0  0  0
  1  3  2  0
  2  4  1  0
  2  1  1  0
  5  2  1  0
  6  5  1  0
  7  6  1  0
  8  7  1  0
  9  8  1  0
 10  9  1  0
 11 12  1  0
 11 10  1  0
 13 14  1  0
 13 12  1  0
 14 16  1  0
 15 19  1  0
 16 15  1  0
 16 18  1  0
 17 15  2  0
 19 28  1  0
 20 28  1  0
 21 26  1  0
 22 23  1  0
 22 21  1  0
 24 23  1  0
 24 33  1  0
 24 25  1  0
 26 20  1  0
 26 25  1  0
 27 20  2  0
 28 29  1  0
 30 31  2  0
 31 32  1  0
 31 50  1  0
 32 35  1  0
 33 30  1  0
 33 34  1  0
 34 32  2  0
 35 36  1  0
 36 37  2  0
 38 41  1  0
 38 37  1  0
 39 38  2  0
 40 39  1  0
 40 35  2  0
 41 42  1  0
 42 47  2  0
 42 43  1  0
 43 44  2  0
 44 45  1  0
 45 49  1  0
 46 45  2  0
 47 46  1  0
 48 47  1  0
 50 51  1  0
 51 54  1  0
 51 53  1  0
 52 50  2  0
 55 56  1  0
 55 30  1  0
 57 55  1  0
 58  1  1  0
 58 60  1  0
 59 61  2  0
 60 59  1  0
 60 62  1  0
 63 59  1  0
 64 63  1  0
 65 64  1  0
 66 65  1  0
 67 69  1  0
 67 66  1  0
 68 79  2  0
 69 74  1  0
 70 78  1  0
 70 80  1  0
 71 77  1  0
 71 73  1  0
 72 78  1  0
 73 72  1  0
 74 73  2  0
 75 76  1  0
 75 69  2  0
 76 71  2  0
 77 70  1  0
 78 68  1  0
 80 82  2  0
 81 80  1  0
 83 81  1  0
 84 93  2  0
 84 89  1  0
 85 81  1  0
 85 89  1  0
 86 85  1  0
 87 88  1  0
 87 86  1  0
 88 84  1  0
 89 90  2  0
 90 91  1  0
 92 91  2  0
 93 92  1  0
 94 68  1  0
 94 99  1  0
 94 95  1  0
 95 98  1  1
 95 96  1  0
 97 95  1  0
 99102  1  0
100 99  1  0
100104  1  0
101100  2  0
104103  1  0
104106  1  0
106107  1  0
106105  1  0
M  ISO  4  20 100  28 100  66 101  67 101
M  END
>  <TORSDO>  (93) 
F 34

>  <SCORE>  (93) 
-8.587

>  <name>  (93) 
97

>  <ligand_id>  (93) 
97

>  <original_smiles>  (93) 
[H]c1c([H])c([H])c2c(c1[H])C([H])([H])C([H])([H])C([H])([H])C2([H])N([H])C(=O)C1([H])N(C(=O)C([H])(N([H])C(=O)C([H])(N([H])C([H])([H])[H])C([H])([H])[H])C(C([H])([H])[H])(C([H])([H])[H])C([H])([H])[H])C([H])([H])c2c([H])c(OC([H])([H])C([H])([H])OC([H])([H])C(=O)N([H])C([H])([H])C(=O)N([H])C([H])([H])C([H])([H])C([H])([H])C([H])([H])C([H])([H])C([H])([H])C([H])([H])C([H])([H])C([H])([H])C([H])([H])N([H])C(=O)C([H])([H])N([H])C(=O)N3C([H])([H])C([H])([H])C([H])([H])C([H])(n4nc(-c5c([H])c([H])c(Oc6c([H])c([H])c(F)c([H])c6F)c([H])c5[H])c(C(=O)N([H])[H])c4N([H])[H])C3([H])[H])c([H])c([H])c2C1([H])[H]

>  <smiles>  (93) 
[H]c1c([H])c([H])c2c(c1[H])C([H])([H])C([H])([H])C([H])([H])C2([H])N([H])C(=O)C1([H])N(C(=O)C([H])(N([H])C(=O)C([H])(N([H])C([H])([H])[H])C([H])([H])[H])C(C([H])([H])[H])(C([H])([H])[H])C([H])([H])[H])C([H])([H])c2c([H])c(OC([H])([H])C([H])([H])OC([H])([H])C(=O)N([H])C([H])([H])C(=O)N([H])C([H])([H])C([H])([H])C([H])([H])C([H])([H])C([H])([H])C([H])([H])C([H])([H])C([H])([H])C([H])([H])C([H])([H])N([H])C(=O)C([H])([H])N([H])C(=O)N3C([H])([H])C([H])([H])C([H])([H])C([H])(n4nc(-c5c([H])c([H])c(Oc6c([H])c([H])c(F)c([H])c6F)c([H])c5[H])c(C(=O)N([H])[H])c4N([H])[H])C3([H])[H])c([H])c([H])c2C1([H])[H]

$$$$
98:0:0
     RDKit          3D

107114  0  0  1  0  0  0  0  0999 V2000
  -22.0530  -18.7640   20.8640 C   0  0  0  0  0  0  0  0  0  0  0  0
  -21.3900  -19.7550   20.2580 N   0  0  0  0  0  0  0  0  0  0  0  0
  -22.0830  -18.6230   22.0880 O   0  0  0  0  0  0  0  0  0  0  0  0
  -21.4150  -19.7890   19.2440 H   0  0  0  0  0  0  0  0  0  0  0  0
  -22.7790  -17.9610   19.9050 C   0  0  0  0  0  3  0  0  0  0  0  0
  -23.9360  -17.3620   20.2340 C   0  0  0  0  0  3  0  0  0  0  0  0
  -24.7950  -16.5910   19.2480 C   0  0  0  0  0  2  0  0  0  0  0  0
  -26.1920  -16.4890   19.7310 N   0  0  0  0  0  4  0  0  0  0  0  0
  -26.2260  -15.7810   20.4490 H   0  0  0  0  0  0  0  0  0  0  0  0
  -26.4400  -17.3600   20.1700 H   0  0  0  0  0  0  0  0  0  0  0  0
  -27.1970  -16.1650   18.6900 C   0  0  0  0  0  2  0  0  0  0  0  0
  -28.6370  -16.3710   19.1870 C   0  0  0  0  0  2  0  0  0  0  0  0
  -30.6780  -14.9760   19.2350 C   0  0  0  0  0  0  0  0  0  0  0  0
  -29.3490  -15.1000   19.2900 N   0  0  0  0  0  0  0  0  0  0  0  0
  -31.4260  -15.9360   19.0390 O   0  0  0  0  0  0  0  0  0  0  0  0
  -28.7990  -14.2600   19.4250 H   0  0  0  0  0  0  0  0  0  0  0  0
  -31.2600  -13.5780   19.4400 C   0  0  0  0  0  2  0  0  0  0  0  0
  -32.6510  -12.5710   21.2350 C   0  0  0  0  0  0  0  0  0  0  0  0
  -32.2110  -11.1050   23.1690 C   0  0  0  0  0  2  0  0  0  0  0  0
  -31.6780   -9.7250   22.7400 C   0  0  0  0  0  2  0  0  0  0  0  0
  -30.1470   -9.7580   22.5660 C   0  0  0  0  0  2  0  0  0  0  0  0
  -29.6750  -10.9530   21.6980 C   0  0  0  0  0  3  0  0  0  0  0  0
  -30.3200  -12.2630   22.2030 C   0  0  0  0  0  2  0  0  0  0  0  0
  -31.7840  -12.1030   22.1740 N   0  0  0  0  0  0  0  0  0  0  0  0
  -33.8300  -12.2170   21.1750 O   0  0  0  0  0  0  0  0  0  0  0  0
  -32.2640  -13.6170   20.5010 N   0  0  0  0  0  0  0  0  0  0  0  0
  -33.0420  -14.2020   20.2340 H   0  0  0  0  0  0  0  0  0  0  0  0
  -27.4100  -12.1400   21.3980 C   0  0  0  0  0  0  0  0  0  0  0  0
  -26.1240  -11.6710   21.4180 C   0  0  0  0  0  0  0  0  0  0  0  0
  -26.2180  -10.2750   21.7040 C   0  0  0  0  0  0  0  0  0  0  0  0
  -28.2170  -11.0450   21.6650 N   0  0  0  0  0  0  0  0  0  0  0  0
  -27.4830   -9.9290   21.9050 N   0  0  0  0  0  0  0  0  0  0  0  0
  -25.1820   -9.2360   21.7480 C   0  0  0  0  0  0  0  0  0  0  0  0
  -24.7920   -8.6370   22.9650 C   0  0  0  0  0  3  0  0  0  0  0  0
  -23.7780   -7.6540   22.9880 C   0  0  0  0  0  3  0  0  0  0  0  0
  -23.1420   -7.2660   21.7850 C   0  0  0  0  0  0  0  0  0  0  0  0
  -23.5470   -7.8510   20.5740 C   0  0  0  0  0  3  0  0  0  0  0  0
  -24.5600   -8.8250   20.5520 C   0  0  0  0  0  3  0  0  0  0  0  0
  -22.1700   -6.2990   21.7050 O   0  0  0  0  0  0  0  0  0  0  0  0
  -21.2450   -6.1280   22.7010 C   0  0  0  0  0  0  0  0  0  0  0  0
  -20.2740   -7.1100   22.9950 C   0  0  0  0  0  3  0  0  0  0  0  0
  -19.3000   -6.8650   23.9810 C   0  0  0  0  0  3  0  0  0  0  0  0
  -19.2880   -5.6350   24.6690 C   0  0  0  0  0  0  0  0  0  0  0  0
  -20.2510   -4.6530   24.3730 C   0  0  0  0  0  3  0  0  0  0  0  0
  -21.2230   -4.8990   23.3900 C   0  0  0  0  0  0  0  0  0  0  0  0
  -22.1370   -3.9430   23.0940 F   0  0  0  0  0  0  0  0  0  0  0  0
  -18.3480   -5.3940   25.6100 F   0  0  0  0  0  0  0  0  0  0  0  0
  -24.8830  -12.4500   21.0920 C   0  0  0  0  0  0  0  0  0  0  0  0
  -23.7660  -12.1090   21.7270 N   0  0  0  0  0  0  0  0  0  0  0  0
  -24.9090  -13.4080   20.3210 O   0  0  0  0  0  0  0  0  0  0  0  0
  -23.7490  -11.3330   22.3710 H   0  0  0  0  0  0  0  0  0  0  0  0
  -22.9020  -12.5850   21.5130 H   0  0  0  0  0  0  0  0  0  0  0  0
  -27.9630  -13.3950   21.1620 N   0  0  0  0  0  0  0  0  0  0  0  0
  -27.3900  -14.1600   20.8270 H   0  0  0  0  0  0  0  0  0  0  0  0
  -28.9480  -13.5300   20.9750 H   0  0  0  0  0  0  0  0  0  0  0  0
  -20.8760  -20.9470   20.9310 C   0  0  0  0  0  2  0  0  0  0  0  0
  -21.7150  -22.1940   20.6030 C   0  0  0  0  0  0  0  0  0  0  0  0
  -21.4980  -23.2850   21.3440 N   0  0  0  0  0  0  0  0  0  0  0  0
  -22.5600  -22.1630   19.7030 O   0  0  0  0  0  0  0  0  0  0  0  0
  -20.7750  -23.2310   22.0500 H   0  0  0  0  0  0  0  0  0  0  0  0
  -22.3230  -24.4870   21.3310 C   0  0  0  0  0  2  0  0  0  0  0  0
  -22.2560  -25.2600   20.0010 C   0  0  0  0  0  2  0  0  0  0  0  0
  -23.6570  -25.7280   19.5780 C   0  0  0  0  0  2  0  0  0  0  0  0
  -23.6780  -26.5920   18.3070 C   0  0  0  0  0  2  0  0  0  0  0  0
  -25.1190  -26.9450   17.8940 C   0  0  0  0  0  2  0  0  0  0  0  0
  -25.2500  -28.2850   17.1320 C   0  0  0  0  0  2  0  0  0  0  0  0
  -25.8750  -29.2860   17.9420 O   0  0  0  0  0  0  0  0  0  0  0  0
  -25.3840  -29.8980   24.9980 C   0  0  0  0  0  0  0  0  0  0  0  0
  -25.1550  -29.8270   18.9890 C   0  0  0  0  0  0  0  0  0  0  0  0
  -23.4190  -30.6800   23.7190 C   0  0  0  0  0  3  0  0  0  0  0  0
  -23.7500  -30.8940   21.2010 C   0  0  0  0  0  0  0  0  0  0  0  0
  -25.7580  -30.7300   22.6800 C   0  0  0  0  0  2  0  0  0  0  0  0
  -25.0970  -30.5340   21.3330 C   0  0  0  0  0  0  0  0  0  0  0  0
  -25.8030  -30.0070   20.2300 C   0  0  0  0  0  3  0  0  0  0  0  0
  -23.7920  -30.1990   18.8770 C   0  0  0  0  0  3  0  0  0  0  0  0
  -23.0900  -30.7230   19.9750 C   0  0  0  0  0  3  0  0  0  0  0  0
  -23.0650  -31.4580   22.4240 C   0  0  0  0  0  2  0  0  0  0  0  0
  -24.8850  -30.3910   23.8310 N   0  0  0  0  0  0  0  0  0  0  0  0
  -24.6540  -29.7200   25.9820 O   0  0  0  0  0  0  0  0  0  0  0  0
  -22.5370  -29.4130   23.7900 C   0  0  0  0  0  0  0  0  0  0  0  0
  -21.2230  -29.5870   23.5750 N   0  0  0  0  0  0  0  0  0  0  0  0
  -23.0360  -28.3060   24.0100 O   0  0  0  0  0  0  0  0  0  0  0  0
  -20.8930  -30.5270   23.4090 H   0  0  0  0  0  0  0  0  0  0  0  0
  -17.9060  -28.7670   22.4030 C   0  0  0  0  0  0  0  0  0  0  0  0
  -20.2060  -28.5370   23.5590 C   0  0  0  0  0  3  0  0  0  0  0  0
  -20.5250  -27.4690   22.4870 C   0  0  0  0  0  2  0  0  0  0  0  0
  -19.8480  -27.7450   21.1400 C   0  0  0  0  0  2  0  0  0  0  0  0
  -18.3260  -27.8010   21.3060 C   0  0  0  0  0  2  0  0  0  0  0  0
  -18.7940  -29.1240   23.4520 C   0  0  0  0  0  0  0  0  0  0  0  0
  -18.3660  -30.0520   24.4250 C   0  0  0  0  0  3  0  0  0  0  0  0
  -17.0780  -30.6160   24.3650 C   0  0  0  0  0  3  0  0  0  0  0  0
  -16.1980  -30.2460   23.3330 C   0  0  0  0  0  3  0  0  0  0  0  0
  -16.6100  -29.3200   22.3580 C   0  0  0  0  0  3  0  0  0  0  0  0
  -26.8980  -29.5540   25.1610 C   0  0  0  0  0  3  0  0  0  0  0  0
  -27.2490  -29.7640   26.5710 N   0  0  0  0  0  0  0  0  0  0  0  0
  -27.8100  -30.8780   27.0560 C   0  0  0  0  0  0  0  0  0  0  0  0
  -28.1580  -31.8200   26.3390 O   0  0  0  0  0  0  0  0  0  0  0  0
  -26.9440  -29.0550   27.2230 H   0  0  0  0  0  0  0  0  0  0  0  0
  -26.9180  -31.8330   29.2050 C   0  0  0  0  0  1  0  0  0  0  0  0
  -28.0200  -30.9630   28.5800 C   0  0  0  0  0  3  0  0  0  0  0  0
  -30.4440  -30.5770   28.6450 C   0  0  0  0  0  1  0  0  0  0  0  0
  -29.3470  -31.4900   28.9630 N   0  0  0  0  0  0  0  0  0  0  0  0
  -29.3820  -31.6910   29.9590 H   0  0  0  0  0  0  0  0  0  0  0  0
  -27.2540  -28.0840   24.7090 C   0  0  1  0  0  0  0  0  0  0  0  0
  -26.3420  -27.0030   25.3350 C   0  0  0  0  0  1  0  0  0  0  0  0
  -27.1600  -27.9500   23.1720 C   0  0  0  0  0  1  0  0  0  0  0  0
  -28.7170  -27.7580   25.0930 C   0  0  0  0  0  1  0  0  0  0  0  0
  1  3  2  0
  2  1  1  0
  2 56  1  0
  4  2  1  0
  5  6  2  0
  5  1  1  0
  7  8  1  0
  7  6  1  0
  8 10  1  0
  8  9  1  0
 11 12  1  0
 11  8  1  0
 12 14  1  0
 13 14  1  0
 13 17  1  0
 14 16  1  0
 15 13  2  0
 17 26  1  0
 18 24  1  0
 20 19  1  0
 21 20  1  0
 22 31  1  0
 22 23  1  0
 22 21  1  0
 24 23  1  0
 24 19  1  0
 25 18  2  0
 26 18  1  0
 27 26  1  0
 28 29  2  0
 28 31  1  0
 29 30  1  0
 30 33  1  0
 30 32  2  0
 31 32  1  0
 33 34  1  0
 34 35  2  0
 36 35  1  0
 37 36  2  0
 38 37  1  0
 38 33  2  0
 39 36  1  0
 39 40  1  0
 40 41  2  0
 40 45  1  0
 41 42  1  0
 42 43  2  0
 43 47  1  0
 44 43  1  0
 45 44  2  0
 46 45  1  0
 48 29  1  0
 48 49  1  0
 49 51  1  0
 50 48  2  0
 52 49  1  0
 53 28  1  0
 54 53  1  0
 55 53  1  0
 57 56  1  0
 57 58  1  0
 58 60  1  0
 59 57  2  0
 61 58  1  0
 62 61  1  0
 63 62  1  0
 64 63  1  0
 65 64  1  0
 66 65  1  0
 66 67  1  0
 67 69  1  0
 68 79  2  0
 69 74  1  0
 70 80  1  0
 70 78  1  0
 71 73  1  0
 71 77  1  0
 72 78  1  0
 73 72  1  0
 74 73  2  0
 75 69  2  0
 75 76  1  0
 76 71  2  0
 77 70  1  0
 78 68  1  0
 80 82  2  0
 81 80  1  0
 83 81  1  0
 84 89  1  0
 85 81  1  0
 86 85  1  0
 87 88  1  0
 87 86  1  0
 88 84  1  0
 89 85  1  0
 89 90  2  0
 91 90  1  0
 92 91  2  0
 93 84  2  0
 93 92  1  0
 94 68  1  0
 94 95  1  0
 95 96  1  0
 95 98  1  0
 96100  1  0
 97 96  2  0
100102  1  0
100 99  1  0
101102  1  0
102103  1  0
104107  1  1
104 94  1  0
104105  1  0
106104  1  0
M  ISO  4  18 100  26 100  66 101  67 101
M  END
>  <TORSDO>  (94) 
F 31

>  <SCORE>  (94) 
21.495

>  <name>  (94) 
98

>  <ligand_id>  (94) 
98

>  <original_smiles>  (94) 
[H]C(C(=O)N([H])C([H])([H])C(=O)N([H])C([H])([H])C([H])([H])C([H])([H])C([H])([H])C([H])([H])C([H])([H])Oc1c([H])c([H])c2c(c1[H])C([H])([H])N(C(=O)C([H])(N([H])C(=O)C([H])(N([H])C([H])([H])[H])C([H])([H])[H])C(C([H])([H])[H])(C([H])([H])[H])C([H])([H])[H])C([H])(C(=O)N([H])C1([H])c3c([H])c([H])c([H])c([H])c3C([H])([H])C([H])([H])C1([H])[H])C2([H])[H])=C([H])C([H])([H])[N+]([H])([H])C([H])([H])C([H])([H])N([H])C(=O)C([H])([H])N([H])C(=O)N1C([H])([H])C([H])([H])C([H])([H])C([H])(n2nc(-c3c([H])c([H])c(Oc4c([H])c([H])c(F)c([H])c4F)c([H])c3[H])c(C(=O)N([H])[H])c2N([H])[H])C1([H])[H]

>  <smiles>  (94) 
[H]C(C(=O)N([H])C([H])([H])C(=O)N([H])C([H])([H])C([H])([H])C([H])([H])C([H])([H])C([H])([H])C([H])([H])Oc1c([H])c([H])c2c(c1[H])C([H])([H])N(C(=O)C([H])(N([H])C(=O)C([H])(N([H])C([H])([H])[H])C([H])([H])[H])C(C([H])([H])[H])(C([H])([H])[H])C([H])([H])[H])C([H])(C(=O)N([H])C1([H])c3c([H])c([H])c([H])c([H])c3C([H])([H])C([H])([H])C1([H])[H])C2([H])[H])=C([H])C([H])([H])[N+]([H])([H])C([H])([H])C([H])([H])N([H])C(=O)C([H])([H])N([H])C(=O)N1C([H])([H])C([H])([H])C([H])([H])C([H])(n2nc(-c3c([H])c([H])c(Oc4c([H])c([H])c(F)c([H])c4F)c([H])c3[H])c(C(=O)N([H])[H])c2N([H])[H])C1([H])[H]

$$$$
99:0:0
     RDKit          3D

108117  0  0  1  0  0  0  0  0999 V2000
  -10.8650  -20.4100   31.8110 C   0  0  0  0  0  2  0  0  0  0  0  0
   -9.6370  -18.3080   32.3460 C   0  0  0  0  0  0  0  0  0  0  0  0
  -10.3250  -19.3950   32.7220 N   0  0  0  0  0  0  0  0  0  0  0  0
   -9.4100  -18.0450   31.1640 O   0  0  0  0  0  0  0  0  0  0  0  0
  -10.3890  -19.5580   33.7180 H   0  0  0  0  0  0  0  0  0  0  0  0
   -9.1880  -17.3460   33.4500 C   0  0  0  0  0  2  0  0  0  0  0  0
   -8.1040  -19.2070   34.7130 C   0  0  0  0  0  0  0  0  0  0  0  0
   -8.1240  -17.9590   34.2420 N   0  0  0  0  0  0  0  0  0  0  0  0
   -8.9970  -20.0270   34.4860 O   0  0  0  0  0  0  0  0  0  0  0  0
   -7.3280  -17.3710   34.4420 H   0  0  0  0  0  0  0  0  0  0  0  0
   -6.9090  -19.5820   35.5950 C   0  0  0  0  0  2  0  0  0  0  0  0
   -7.9130  -20.3050   37.7440 C   0  0  0  0  0  3  0  0  0  0  0  0
   -7.2420  -19.4220   37.0050 N   0  0  0  0  0  0  0  0  0  0  0  0
   -8.2680  -21.4010   37.3050 O   0  0  0  0  0  0  0  0  0  0  0  0
   -6.9930  -18.5290   37.4130 H   0  0  0  0  0  0  0  0  0  0  0  0
   -8.2220  -19.8950   39.1910 C   0  0  0  0  0  2  0  0  0  0  0  0
  -10.7170  -20.4650   39.1470 C   0  0  0  0  0  0  0  0  0  0  0  0
  -12.2680  -20.7760   37.2640 C   0  0  0  0  0  2  0  0  0  0  0  0
  -12.7440  -22.2300   37.0950 C   0  0  0  0  0  2  0  0  0  0  0  0
  -11.7700  -23.0160   36.2020 C   0  0  0  0  0  2  0  0  0  0  0  0
  -10.3030  -22.8660   36.6720 C   0  0  0  0  0  3  0  0  0  0  0  0
   -9.9420  -21.3850   36.9060 C   0  0  0  0  0  3  0  0  0  0  0  0
  -10.9070  -20.7590   37.8310 N   0  0  0  0  0  0  0  0  0  0  0  0
  -11.6360  -20.4540   39.9670 O   0  0  0  0  0  0  0  0  0  0  0  0
   -9.6490  -19.7160   39.4610 N   0  0  0  0  0  0  0  0  0  0  0  0
   -9.7960  -19.2540   40.3470 H   0  0  0  0  0  0  0  0  0  0  0  0
   -8.2730  -24.2990   35.9880 C   0  0  0  0  0  0  0  0  0  0  0  0
   -7.7910  -24.6780   34.7630 C   0  0  0  0  0  0  0  0  0  0  0  0
   -8.6520  -24.0740   33.7960 C   0  0  0  0  0  0  0  0  0  0  0  0
   -9.3740  -23.4960   35.7330 N   0  0  0  0  0  0  0  0  0  0  0  0
   -9.5640  -23.3230   34.3990 N   0  0  0  0  0  0  0  0  0  0  0  0
   -8.6950  -24.2120   32.3330 C   0  0  0  0  0  0  0  0  0  0  0  0
   -8.3440  -23.1430   31.4790 C   0  0  0  0  0  3  0  0  0  0  0  0
   -8.3780  -23.3070   30.0770 C   0  0  0  0  0  3  0  0  0  0  0  0
   -8.7600  -24.5490   29.5160 C   0  0  0  0  0  0  0  0  0  0  0  0
   -9.1310  -25.6020   30.3700 C   0  0  0  0  0  3  0  0  0  0  0  0
   -9.1020  -25.4360   31.7650 C   0  0  0  0  0  3  0  0  0  0  0  0
   -8.8440  -24.7930   28.1660 O   0  0  0  0  0  0  0  0  0  0  0  0
   -8.3230  -23.9220   27.2430 C   0  0  0  0  0  0  0  0  0  0  0  0
   -6.9440  -23.6130   27.2030 C   0  0  0  0  0  3  0  0  0  0  0  0
   -6.4400  -22.7680   26.1940 C   0  0  0  0  0  3  0  0  0  0  0  0
   -7.3070  -22.2380   25.2200 C   0  0  0  0  0  0  0  0  0  0  0  0
   -8.6790  -22.5490   25.2540 C   0  0  0  0  0  3  0  0  0  0  0  0
   -9.1830  -23.3910   26.2610 C   0  0  0  0  0  0  0  0  0  0  0  0
  -10.5010  -23.7030   26.2770 F   0  0  0  0  0  0  0  0  0  0  0  0
   -6.8240  -21.4320   24.2460 F   0  0  0  0  0  0  0  0  0  0  0  0
   -6.6580  -25.6280   34.5020 C   0  0  0  0  0  0  0  0  0  0  0  0
   -6.4360  -25.9820   33.2400 N   0  0  0  0  0  0  0  0  0  0  0  0
   -5.9320  -26.0230   35.4120 O   0  0  0  0  0  0  0  0  0  0  0  0
   -7.0210  -25.6370   32.4930 H   0  0  0  0  0  0  0  0  0  0  0  0
   -5.6750  -26.6080   33.0190 H   0  0  0  0  0  0  0  0  0  0  0  0
   -7.8820  -24.5880   37.2910 N   0  0  0  0  0  0  0  0  0  0  0  0
   -7.1760  -25.2890   37.4840 H   0  0  0  0  0  0  0  0  0  0  0  0
   -8.4100  -24.3120   38.1100 H   0  0  0  0  0  0  0  0  0  0  0  0
  -12.3980  -20.3050   31.6570 C   0  0  0  0  0  2  0  0  0  0  0  0
  -15.6240  -21.7900   32.5250 C   0  0  0  0  0  2  0  0  0  0  0  0
  -14.1380  -22.1750   34.5600 C   0  0  0  0  0  2  0  0  0  0  0  0
  -14.3290  -21.8920   31.6830 C   0  0  0  0  0  2  0  0  0  0  0  0
  -13.3280  -21.0760   33.8290 C   0  0  0  0  0  2  0  0  0  0  0  0
  -15.4910  -22.5210   33.8810 C   0  0  0  0  0  3  0  0  0  0  0  0
  -13.1100  -21.3890   32.3900 N   0  0  2  0  0  4  0  0  0  0  0  0
  -12.4560  -22.1570   32.3770 H   0  0  0  0  0  0  0  0  0  0  0  0
  -16.6570  -22.2480   34.7620 N   0  0  0  0  0  4  0  0  0  0  0  0
  -17.4610  -22.7280   34.3820 H   0  0  0  0  0  0  0  0  0  0  0  0
  -16.8580  -21.2600   34.7350 H   0  0  0  0  0  0  0  0  0  0  0  0
  -16.5240  -22.6870   36.1790 C   0  0  0  0  0  2  0  0  0  0  0  0
  -17.8700  -23.0830   36.8380 C   0  0  0  0  0  2  0  0  0  0  0  0
  -18.9650  -22.2560   36.4310 O   0  0  0  0  0  0  0  0  0  0  0  0
  -22.6610  -28.2930   36.1600 C   0  0  0  0  0  0  0  0  0  0  0  0
  -20.2240  -22.8020   36.3020 C   0  0  0  0  0  0  0  0  0  0  0  0
  -23.9080  -26.2520   35.5270 C   0  0  0  0  0  3  0  0  0  0  0  0
  -22.7500  -24.0430   36.0490 C   0  0  0  0  0  0  0  0  0  0  0  0
  -21.9470  -26.1300   37.1660 C   0  0  0  0  0  2  0  0  0  0  0  0
  -21.6930  -24.7270   36.6580 C   0  0  0  0  0  0  0  0  0  0  0  0
  -20.4300  -24.1120   36.7890 C   0  0  0  0  0  3  0  0  0  0  0  0
  -21.3140  -22.1130   35.7170 C   0  0  0  0  0  3  0  0  0  0  0  0
  -22.5670  -22.7350   35.5760 C   0  0  0  0  0  3  0  0  0  0  0  0
  -24.0720  -24.7680   35.9490 C   0  0  0  0  0  2  0  0  0  0  0  0
  -22.8040  -26.9430   36.2700 N   0  0  0  0  0  0  0  0  0  0  0  0
  -23.4530  -28.9670   35.4860 O   0  0  0  0  0  0  0  0  0  0  0  0
  -23.7400  -26.3110   33.9920 C   0  0  0  0  0  0  0  0  0  0  0  0
  -24.1780  -27.4270   33.3880 N   0  0  0  0  0  0  0  0  0  0  0  0
  -23.2550  -25.3620   33.3710 O   0  0  0  0  0  0  0  0  0  0  0  0
  -24.5590  -28.1610   33.9680 H   0  0  0  0  0  0  0  0  0  0  0  0
  -22.8670  -26.2550   30.2340 C   0  0  0  0  0  0  0  0  0  0  0  0
  -24.1550  -27.6940   31.9500 C   0  0  0  0  0  3  0  0  0  0  0  0
  -23.1500  -28.8200   31.6090 C   0  0  0  0  0  2  0  0  0  0  0  0
  -21.7590  -28.2940   31.2430 C   0  0  0  0  0  2  0  0  0  0  0  0
  -21.8400  -27.3560   30.0360 C   0  0  0  0  0  2  0  0  0  0  0  0
  -23.9460  -26.4080   31.1440 C   0  0  0  0  0  0  0  0  0  0  0  0
  -24.8520  -25.3380   31.3150 C   0  0  0  0  0  3  0  0  0  0  0  0
  -24.6960  -24.1390   30.5950 C   0  0  0  0  0  3  0  0  0  0  0  0
  -23.6350  -24.0000   29.6820 C   0  0  0  0  0  3  0  0  0  0  0  0
  -22.7270  -25.0570   29.5020 C   0  0  0  0  0  3  0  0  0  0  0  0
  -21.5130  -29.0570   36.8900 C   0  0  0  0  0  3  0  0  0  0  0  0
  -20.2760  -28.2920   36.6840 N   0  0  0  0  0  0  0  0  0  0  0  0
  -19.3470  -28.5870   35.7650 C   0  0  0  0  0  0  0  0  0  0  0  0
  -19.4110  -29.5850   35.0420 O   0  0  0  0  0  0  0  0  0  0  0  0
  -20.1840  -27.4310   37.2020 H   0  0  0  0  0  0  0  0  0  0  0  0
  -18.5890  -26.3850   34.8190 C   0  0  0  0  0  1  0  0  0  0  0  0
  -18.1560  -27.6210   35.6250 C   0  0  0  0  0  3  0  0  0  0  0  0
  -16.3430  -29.2660   35.8230 C   0  0  0  0  0  1  0  0  0  0  0  0
  -16.9690  -28.2380   34.9940 N   0  0  0  0  0  0  0  0  0  0  0  0
  -16.2670  -27.5340   34.7800 H   0  0  0  0  0  0  0  0  0  0  0  0
  -21.7890  -29.2720   38.4280 C   0  0  1  0  0  0  0  0  0  0  0  0
  -21.8740  -27.9530   39.2320 C   0  0  0  0  0  1  0  0  0  0  0  0
  -23.1130  -30.0400   38.6390 C   0  0  0  0  0  1  0  0  0  0  0  0
  -20.6690  -30.1450   39.0440 C   0  0  0  0  0  1  0  0  0  0  0  0
  1  3  1  0
  2  3  1  0
  2  6  1  0
  3  5  1  0
  4  2  2  0
  6  8  1  0
  7 11  1  0
  8 10  1  0
  8  7  1  0
  9  7  2  0
 11 13  1  0
 12 13  1  0
 12 16  1  0
 13 15  1  0
 14 12  1  0
 16 25  1  0
 17 25  1  0
 17 24  2  0
 18 23  1  0
 19 18  1  0
 20 21  1  0
 20 19  1  0
 21 30  1  0
 21 22  1  0
 22 14  1  0
 22 23  1  0
 23 17  1  0
 25 26  1  0
 27 52  1  0
 28 27  2  0
 29 31  2  0
 29 28  1  0
 30 27  1  0
 31 30  1  0
 32 29  1  0
 33 32  2  0
 34 33  1  0
 35 34  2  0
 35 36  1  0
 36 37  2  0
 37 32  1  0
 38 35  1  0
 39 38  1  0
 40 39  1  0
 41 40  2  0
 42 43  2  0
 42 41  1  0
 43 44  1  0
 44 45  1  0
 44 39  2  0
 46 42  1  0
 47 28  1  0
 47 49  2  0
 48 47  1  0
 50 48  1  0
 51 48  1  0
 52 53  1  0
 52 54  1  0
 55  1  1  0
 55 61  1  0
 56 60  1  0
 58 61  1  0
 58 56  1  0
 59 57  1  0
 60 57  1  0
 60 63  1  0
 61 59  1  0
 61 62  1  1
 63 66  1  0
 64 63  1  0
 65 63  1  0
 66 67  1  0
 68 67  1  0
 69 79  1  0
 70 68  1  0
 70 75  1  0
 71 81  1  0
 71 78  1  0
 71 79  1  0
 72 74  1  0
 74 75  2  0
 74 73  1  0
 76 70  2  0
 77 76  1  0
 77 72  2  0
 78 72  1  0
 79 73  1  0
 80 69  2  0
 82 84  1  0
 82 81  1  0
 83 81  2  0
 85 90  1  0
 86 82  1  0
 87 86  1  0
 88 87  1  0
 89 85  1  0
 89 88  1  0
 90 91  2  0
 90 86  1  0
 92 91  1  0
 93 92  2  0
 94 93  1  0
 94 85  2  0
 95 69  1  0
 95105  1  0
 96 95  1  0
 96 99  1  0
 97 96  1  0
 98 97  2  0
101100  1  0
101 97  1  0
103101  1  0
103102  1  0
104103  1  0
105107  1  6
105108  1  0
105106  1  0
M  ISO  4  17 100  25 100  67 101  68 101
M  END
>  <TORSDO>  (95) 
F 27

>  <SCORE>  (95) 
10.683

>  <name>  (95) 
99

>  <ligand_id>  (95) 
99

>  <original_smiles>  (95) 
[H]c1c([H])c([H])c2c(c1[H])C([H])([H])C([H])([H])C([H])([H])C2([H])N([H])C(=O)C1([H])N(C(=O)C([H])(N([H])C(=O)C([H])(N([H])C([H])([H])[H])C([H])([H])[H])C(C([H])([H])[H])(C([H])([H])[H])C([H])([H])[H])C([H])([H])c2c([H])c(OC([H])([H])C([H])([H])[N+]([H])([H])C3([H])C([H])([H])C([H])([H])[N+]([H])(C([H])([H])C([H])([H])N([H])C(=O)C([H])([H])N([H])C(=O)C([H])([H])N([H])C(=O)C([H])([H])N([H])C(=O)N4C([H])([H])C([H])([H])C([H])([H])C([H])(n5nc(-c6c([H])c([H])c(Oc7c([H])c([H])c(F)c([H])c7F)c([H])c6[H])c(C(=O)N([H])[H])c5N([H])[H])C4([H])[H])C([H])([H])C3([H])[H])c([H])c([H])c2C1([H])[H]

>  <smiles>  (95) 
[H]c1c([H])c([H])c2c(c1[H])C([H])([H])C([H])([H])C([H])([H])C2([H])N([H])C(=O)C1([H])N(C(=O)C([H])(N([H])C(=O)C([H])(N([H])C([H])([H])[H])C([H])([H])[H])C(C([H])([H])[H])(C([H])([H])[H])C([H])([H])[H])C([H])([H])c2c([H])c(OC([H])([H])C([H])([H])[N+]([H])([H])C3([H])C([H])([H])C([H])([H])[N+]([H])(C([H])([H])C([H])([H])N([H])C(=O)C([H])([H])N([H])C(=O)C([H])([H])N([H])C(=O)C([H])([H])N([H])C(=O)N4C([H])([H])C([H])([H])C([H])([H])C([H])(n5nc(-c6c([H])c([H])c(Oc7c([H])c([H])c(F)c([H])c7F)c([H])c6[H])c(C(=O)N([H])[H])c5N([H])[H])C4([H])[H])C([H])([H])C3([H])[H])c([H])c([H])c2C1([H])[H]

$$$$
